# generated using pymatgen
data_Mo2(PO4)3
_symmetry_space_group_name_H-M   'P 1'
_cell_length_a   8.85855300
_cell_length_b   8.71900600
_cell_length_c   15.00265350
_cell_angle_alpha   54.59075886
_cell_angle_beta   90.00000000
_cell_angle_gamma   90.00000000
_symmetry_Int_Tables_number   1
_chemical_formula_structural   Mo2(PO4)3
_chemical_formula_sum   'Mo8 P12 O48'
_cell_volume   944.43866364
_cell_formula_units_Z   4
loop_
 _symmetry_equiv_pos_site_id
 _symmetry_equiv_pos_as_xyz
  1  'x, y, z'
loop_
 _atom_site_type_symbol
 _atom_site_label
 _atom_site_symmetry_multiplicity
 _atom_site_fract_x
 _atom_site_fract_y
 _atom_site_fract_z
 _atom_site_occupancy
  Mo  Mo0  1  0.46609600  0.63064100  0.61879300  1
  Mo  Mo1  1  0.96609600  0.36935900  0.88120700  1
  Mo  Mo2  1  0.03606100  0.86806300  0.38110100  1
  Mo  Mo3  1  0.53606100  0.13193700  0.11889900  1
  Mo  Mo4  1  0.46393900  0.86806300  0.88110100  1
  Mo  Mo5  1  0.96393900  0.13193700  0.61889900  1
  Mo  Mo6  1  0.03390400  0.63064100  0.11879300  1
  Mo  Mo7  1  0.53390400  0.36935900  0.38120700  1
  P  P0  1  0.75073200  0.53762100  0.49536500  1
  P  P1  1  0.61126300  0.25248600  0.85464000  1
  P  P2  1  0.88979100  0.96487000  0.14433200  1
  P  P3  1  0.38979100  0.03513000  0.35566800  1
  P  P4  1  0.11126300  0.74751400  0.64536000  1
  P  P5  1  0.25073200  0.46237900  0.00463500  1
  P  P6  1  0.74926800  0.53762100  0.99536500  1
  P  P7  1  0.88873700  0.25248600  0.35464000  1
  P  P8  1  0.61020900  0.96487000  0.64433200  1
  P  P9  1  0.11020900  0.03513000  0.85566800  1
  P  P10  1  0.38873700  0.74751400  0.14536000  1
  P  P11  1  0.24926800  0.46237900  0.50463500  1
  O  O0  1  0.10825600  0.19653900  0.86961100  1
  O  O1  1  0.32215600  0.48037800  0.59125900  1
  O  O2  1  0.42994200  0.90676500  0.16073200  1
  O  O3  1  0.13852100  0.63432900  0.43433300  1
  O  O4  1  0.64339600  0.52886200  0.57627100  1
  O  O5  1  0.77855100  0.29252300  0.83004800  1
  O  O6  1  0.57118600  0.17702100  0.97280100  1
  O  O7  1  0.00380600  0.92148800  0.23491600  1
  O  O8  1  0.72911900  0.98328700  0.17834100  1
  O  O9  1  0.84413600  0.71963600  0.43461500  1
  O  O10  1  0.50755800  0.42150100  0.77693300  1
  O  O11  1  0.93752500  0.15268700  0.03986400  1
  O  O12  1  0.43752500  0.84731300  0.46013600  1
  O  O13  1  0.00755800  0.57849900  0.72306700  1
  O  O14  1  0.34413600  0.28036400  0.06538500  1
  O  O15  1  0.22911900  0.01671300  0.32165900  1
  O  O16  1  0.50380600  0.07851200  0.26508400  1
  O  O17  1  0.07118600  0.82297900  0.52719900  1
  O  O18  1  0.27855100  0.70747700  0.66995200  1
  O  O19  1  0.14339600  0.47113800  0.92372900  1
  O  O20  1  0.63852100  0.36567100  0.06566700  1
  O  O21  1  0.82215600  0.51962200  0.90874100  1
  O  O22  1  0.92994200  0.09323500  0.33926800  1
  O  O23  1  0.60825600  0.80346100  0.63038900  1
  O  O24  1  0.39174400  0.19653900  0.36961100  1
  O  O25  1  0.07005800  0.90676500  0.66073200  1
  O  O26  1  0.17784400  0.48037800  0.09125900  1
  O  O27  1  0.36147900  0.63432900  0.93433300  1
  O  O28  1  0.85660400  0.52886200  0.07627100  1
  O  O29  1  0.72144900  0.29252300  0.33004800  1
  O  O30  1  0.92881400  0.17702100  0.47280100  1
  O  O31  1  0.49619400  0.92148800  0.73491600  1
  O  O32  1  0.77088100  0.98328700  0.67834100  1
  O  O33  1  0.65586400  0.71963600  0.93461500  1
  O  O34  1  0.99244200  0.42150100  0.27693300  1
  O  O35  1  0.56247500  0.15268700  0.53986400  1
  O  O36  1  0.06247500  0.84731300  0.96013600  1
  O  O37  1  0.49244200  0.57849900  0.22306700  1
  O  O38  1  0.15586400  0.28036400  0.56538500  1
  O  O39  1  0.27088100  0.01671300  0.82165900  1
  O  O40  1  0.99619400  0.07851200  0.76508400  1
  O  O41  1  0.42881400  0.82297900  0.02719900  1
  O  O42  1  0.22144900  0.70747700  0.16995200  1
  O  O43  1  0.35660400  0.47113800  0.42372900  1
  O  O44  1  0.86147900  0.36567100  0.56566700  1
  O  O45  1  0.57005800  0.09323500  0.83926800  1
  O  O46  1  0.67784400  0.51962200  0.40874100  1
  O  O47  1  0.89174400  0.80346100  0.13038900  1
loop_
_geom_bond_atom_site_label_1
_geom_bond_atom_site_label_2
_geom_bond_distance
_geom_bond_site_symmetry_2
Mo0 O10 2.018783 1_555
Mo0 O12 2.021828 1_555
Mo0 O1 2.034736 1_555
Mo0 O23 2.047062 1_555
Mo0 O4 2.077824 1_555
Mo0 O18 2.096170 1_555
Mo1 O13 2.018783 1_655
Mo1 O11 2.021828 1_556
Mo1 O21 2.034736 1_555
Mo1 O0 2.047062 1_655
Mo1 O19 2.077824 1_655
Mo1 O5 2.096170 1_555
Mo2 O22 1.924628 1_465
Mo2 O3 1.930996 1_555
Mo2 O7 1.981093 1_555
Mo2 O9 2.001486 1_455
Mo2 O17 2.014235 1_555
Mo2 O15 2.015078 1_565
Mo3 O2 1.924628 1_545
Mo3 O20 1.930996 1_555
Mo3 O16 1.981093 1_555
Mo3 O14 2.001486 1_555
Mo3 O6 2.014235 1_554
Mo3 O8 2.015078 1_545
Mo4 O45 1.924628 1_565
Mo4 O27 1.930996 1_555
Mo4 O31 1.981093 1_555
Mo4 O33 2.001486 1_555
Mo4 O41 2.014235 1_556
Mo4 O39 2.015078 1_565
Mo5 O25 1.924628 1_645
Mo5 O44 1.930996 1_555
Mo5 O40 1.981093 1_555
Mo5 O38 2.001486 1_655
Mo5 O30 2.014235 1_555
Mo5 O32 2.015078 1_545
Mo6 O34 2.018783 1_455
Mo6 O36 2.021828 1_554
Mo6 O26 2.034736 1_555
Mo6 O47 2.047062 1_455
Mo6 O28 2.077824 1_455
Mo6 O42 2.096170 1_555
Mo7 O37 2.018783 1_555
Mo7 O35 2.021828 1_555
Mo7 O46 2.034736 1_555
Mo7 O24 2.047062 1_555
Mo7 O43 2.077824 1_555
Mo7 O29 2.096170 1_555
O0 P9 1.538105 1_555
O1 P11 1.538444 1_555
O2 P10 1.576535 1_555
O3 P11 1.578034 1_555
O4 P0 1.508586 1_555
O5 P1 1.518172 1_555
O6 P1 1.532928 1_555
O7 P2 1.553830 1_455
O8 P2 1.551420 1_555
O9 P0 1.535485 1_555
O10 P1 1.543974 1_555
O11 P2 1.530581 1_545
O12 P3 1.530581 1_565
O13 P4 1.543974 1_555
O14 P5 1.535485 1_555
O15 P3 1.551420 1_555
O16 P3 1.553830 1_555
O17 P4 1.532928 1_555
O18 P4 1.518172 1_555
O19 P5 1.508586 1_556
O20 P6 1.578034 1_554
O21 P6 1.538444 1_555
O22 P7 1.576535 1_555
O23 P8 1.538105 1_555
O24 P3 1.538105 1_555
O25 P4 1.576535 1_555
O26 P5 1.538444 1_555
O27 P5 1.578034 1_556
O28 P6 1.508586 1_554
O29 P7 1.518172 1_555
O30 P7 1.532928 1_555
O31 P8 1.553830 1_555
O32 P8 1.551420 1_555
O33 P6 1.535485 1_555
O34 P7 1.543974 1_555
O35 P8 1.530581 1_545
O36 P9 1.530581 1_565
O37 P10 1.543974 1_555
O38 P11 1.535485 1_555
O39 P9 1.551420 1_555
O40 P9 1.553830 1_655
O41 P10 1.532928 1_555
O42 P10 1.518172 1_555
O43 P11 1.508586 1_555
O44 P0 1.578034 1_555
O45 P1 1.576535 1_555
O46 P0 1.538444 1_555
O47 P2 1.538105 1_555
