# generated using pymatgen
data_TeC4(ClF3)2
_symmetry_space_group_name_H-M   'P 1'
_cell_length_a   7.47355538
_cell_length_b   7.47355538
_cell_length_c   9.24650099
_cell_angle_alpha   79.43905219
_cell_angle_beta   79.43905219
_cell_angle_gamma   97.52943459
_symmetry_Int_Tables_number   1
_chemical_formula_structural   TeC4(ClF3)2
_chemical_formula_sum   'Te2 C8 Cl4 F12'
_cell_volume   491.81046812
_cell_formula_units_Z   2
loop_
 _symmetry_equiv_pos_site_id
 _symmetry_equiv_pos_as_xyz
  1  'x, y, z'
loop_
 _atom_site_type_symbol
 _atom_site_label
 _atom_site_symmetry_multiplicity
 _atom_site_fract_x
 _atom_site_fract_y
 _atom_site_fract_z
 _atom_site_occupancy
  Te  Te0  1  0.42338500  0.57661500  0.75000000  1
  Te  Te1  1  0.57661500  0.42338500  0.25000000  1
  C  C0  1  0.03706400  0.43134100  0.70562200  1
  C  C1  1  0.41690000  0.83666600  0.81410000  1
  C  C2  1  0.16333400  0.58310000  0.68590000  1
  C  C3  1  0.43134100  0.03706400  0.20562200  1
  C  C4  1  0.96293600  0.56865900  0.29437800  1
  C  C5  1  0.58310000  0.16333400  0.18590000  1
  C  C6  1  0.56865900  0.96293600  0.79437800  1
  C  C7  1  0.83666600  0.41690000  0.31410000  1
  Cl  Cl0  1  0.25166100  0.42764200  0.01547200  1
  Cl  Cl1  1  0.74833900  0.57235800  0.98452800  1
  Cl  Cl2  1  0.42764200  0.25166100  0.51547200  1
  Cl  Cl3  1  0.57235800  0.74833900  0.48452800  1
  F  F0  1  0.05478800  0.26400600  0.77220200  1
  F  F1  1  0.94521200  0.73599400  0.22779800  1
  F  F2  1  0.73599400  0.94521200  0.72779800  1
  F  F3  1  0.26400600  0.05478800  0.27220200  1
  F  F4  1  0.74757900  0.13270000  0.11545300  1
  F  F5  1  0.12149500  0.56800500  0.34025500  1
  F  F6  1  0.87850500  0.43199500  0.65974500  1
  F  F7  1  0.13270000  0.74757900  0.61545300  1
  F  F8  1  0.86730000  0.25242100  0.38454700  1
  F  F9  1  0.56800500  0.12149500  0.84025500  1
  F  F10  1  0.43199500  0.87850500  0.15974500  1
  F  F11  1  0.25242100  0.86730000  0.88454700  1
loop_
_geom_bond_atom_site_label_1
_geom_bond_atom_site_label_2
_geom_bond_distance
_geom_bond_site_symmetry_2
C0 F0 1.323482 1_555
C0 F6 1.330119 1_455
C1 F11 1.350063 1_555
C1 Te0 2.137115 1_555
C2 F7 1.350063 1_555
C2 Te0 2.137115 1_555
C3 F3 1.323482 1_555
C3 F10 1.330119 1_545
C4 F1 1.323482 1_555
C4 F5 1.330119 1_655
C5 F4 1.350063 1_555
C5 Te1 2.137115 1_555
C6 F2 1.323482 1_555
C6 F9 1.330119 1_565
C7 F8 1.350063 1_555
C7 Te1 2.137115 1_555
Cl0 Te0 2.526082 1_554
Cl1 Te1 2.526082 1_556
Cl2 Te1 2.526082 1_555
Cl3 Te0 2.526082 1_555
