# generated using pymatgen
data_Na3Dy(Si2O5)3
_symmetry_space_group_name_H-M   'P 1'
_cell_length_a   11.65801151
_cell_length_b   11.65801151
_cell_length_c   10.64344900
_cell_angle_alpha   90.00000000
_cell_angle_beta   90.00000000
_cell_angle_gamma   101.14734858
_symmetry_Int_Tables_number   1
_chemical_formula_structural   Na3Dy(Si2O5)3
_chemical_formula_sum   'Na12 Dy4 Si24 O60'
_cell_volume   1419.25139003
_cell_formula_units_Z   4
loop_
 _symmetry_equiv_pos_site_id
 _symmetry_equiv_pos_as_xyz
  1  'x, y, z'
loop_
 _atom_site_type_symbol
 _atom_site_label
 _atom_site_symmetry_multiplicity
 _atom_site_fract_x
 _atom_site_fract_y
 _atom_site_fract_z
 _atom_site_occupancy
  Na  Na0  1  0.92779100  0.07220900  0.24954400  1
  Na  Na1  1  0.76183600  0.76183600  0.00000000  1
  Na  Na2  1  0.47297300  0.02702700  0.25000000  1
  Na  Na3  1  0.52702700  0.97297300  0.75000000  1
  Na  Na4  1  0.42779100  0.57220900  0.25045600  1
  Na  Na5  1  0.97297300  0.52702700  0.25000000  1
  Na  Na6  1  0.26183600  0.26183600  0.50000000  1
  Na  Na7  1  0.02702700  0.47297300  0.75000000  1
  Na  Na8  1  0.23816400  0.23816400  0.00000000  1
  Na  Na9  1  0.57220900  0.42779100  0.74954400  1
  Na  Na10  1  0.07220900  0.92779100  0.75045600  1
  Na  Na11  1  0.73816400  0.73816400  0.50000000  1
  Dy  Dy0  1  0.33993000  0.16007000  0.75000000  1
  Dy  Dy1  1  0.16007000  0.33993000  0.25000000  1
  Dy  Dy2  1  0.83993000  0.66007000  0.75000000  1
  Dy  Dy3  1  0.66007000  0.83993000  0.25000000  1
  Si  Si0  1  0.69181000  0.52775200  0.29968500  1
  Si  Si1  1  0.97224800  0.80819000  0.20031500  1
  Si  Si2  1  0.47170000  0.74178000  0.97988200  1
  Si  Si3  1  0.25822000  0.52830000  0.97988200  1
  Si  Si4  1  0.52775200  0.69181000  0.70031500  1
  Si  Si5  1  0.41644500  0.79654300  0.46599700  1
  Si  Si6  1  0.97170000  0.24178000  0.52011800  1
  Si  Si7  1  0.30819000  0.47224800  0.70031500  1
  Si  Si8  1  0.20345700  0.58355500  0.46599700  1
  Si  Si9  1  0.74178000  0.47170000  0.02011800  1
  Si  Si10  1  0.79654300  0.41644500  0.53400300  1
  Si  Si11  1  0.52830000  0.25822000  0.02011800  1
  Si  Si12  1  0.24178000  0.97170000  0.47988200  1
  Si  Si13  1  0.19181000  0.02775200  0.20031500  1
  Si  Si14  1  0.70345700  0.08355500  0.03400300  1
  Si  Si15  1  0.47224800  0.30819000  0.29968500  1
  Si  Si16  1  0.58355500  0.20345700  0.53400300  1
  Si  Si17  1  0.08355500  0.70345700  0.96599700  1
  Si  Si18  1  0.29654300  0.91644500  0.96599700  1
  Si  Si19  1  0.91644500  0.29654300  0.03400300  1
  Si  Si20  1  0.80819000  0.97224800  0.79968500  1
  Si  Si21  1  0.02775200  0.19181000  0.79968500  1
  Si  Si22  1  0.75822000  0.02830000  0.52011800  1
  Si  Si23  1  0.02830000  0.75822000  0.47988200  1
  O  O0  1  0.07806000  0.25089400  0.42417900  1
  O  O1  1  0.38949300  0.61050700  0.99179000  1
  O  O2  1  0.39064100  0.83821100  0.01360600  1
  O  O3  1  0.65602500  0.65259000  0.31847000  1
  O  O4  1  0.65259000  0.65602500  0.68153000  1
  O  O5  1  0.76528700  0.51531100  0.16853500  1
  O  O6  1  0.84107500  0.48936500  0.65771800  1
  O  O7  1  0.75089400  0.57806000  0.92417900  1
  O  O8  1  0.42194000  0.24910600  0.92417900  1
  O  O9  1  0.15259000  0.15602500  0.81847000  1
  O  O10  1  0.78049700  0.50030400  0.41190000  1
  O  O11  1  0.07162400  0.92837600  0.20235200  1
  O  O12  1  0.25089400  0.07806000  0.57582100  1
  O  O13  1  0.10935900  0.66178900  0.51360600  1
  O  O14  1  0.60935900  0.16178900  0.98639400  1
  O  O15  1  0.89064100  0.33821100  0.48639400  1
  O  O16  1  0.11050700  0.88949300  0.49179000  1
  O  O17  1  0.33250100  0.66749900  0.43669900  1
  O  O18  1  0.98936500  0.34107500  0.15771800  1
  O  O19  1  0.98468900  0.73471300  0.33146500  1
  O  O20  1  0.21950300  0.49969600  0.58810000  1
  O  O21  1  0.50030400  0.78049700  0.58810000  1
  O  O22  1  0.48468900  0.23471300  0.16853500  1
  O  O23  1  0.74910600  0.92194000  0.42417900  1
  O  O24  1  0.65892500  0.01063500  0.15771800  1
  O  O25  1  0.34741000  0.34397500  0.31847000  1
  O  O26  1  0.26528700  0.01531100  0.33146500  1
  O  O27  1  0.84741000  0.84397500  0.18153000  1
  O  O28  1  0.51531100  0.76528700  0.83146500  1
  O  O29  1  0.73471300  0.98468900  0.66853500  1
  O  O30  1  0.88949300  0.11050700  0.50821000  1
  O  O31  1  0.92194000  0.74910600  0.57582100  1
  O  O32  1  0.01531100  0.26528700  0.66853500  1
  O  O33  1  0.28049700  0.00030400  0.08810000  1
  O  O34  1  0.92837600  0.07162400  0.79764800  1
  O  O35  1  0.84397500  0.84741000  0.81847000  1
  O  O36  1  0.66178900  0.10935900  0.48639400  1
  O  O37  1  0.33821100  0.89064100  0.51360600  1
  O  O38  1  0.51063500  0.15892500  0.65771800  1
  O  O39  1  0.16749900  0.83250100  0.93669900  1
  O  O40  1  0.57806000  0.75089400  0.07582100  1
  O  O41  1  0.15892500  0.51063500  0.34228200  1
  O  O42  1  0.99969600  0.71950300  0.08810000  1
  O  O43  1  0.66749900  0.33250100  0.56330100  1
  O  O44  1  0.48936500  0.84107500  0.34228200  1
  O  O45  1  0.83821100  0.39064100  0.98639400  1
  O  O46  1  0.16178900  0.60935900  0.01360600  1
  O  O47  1  0.57162400  0.42837600  0.29764800  1
  O  O48  1  0.83250100  0.16749900  0.06330100  1
  O  O49  1  0.71950300  0.99969600  0.91190000  1
  O  O50  1  0.61050700  0.38949300  0.00821000  1
  O  O51  1  0.49969600  0.21950300  0.41190000  1
  O  O52  1  0.01063500  0.65892500  0.84228200  1
  O  O53  1  0.24910600  0.42194000  0.07582100  1
  O  O54  1  0.23471300  0.48468900  0.83146500  1
  O  O55  1  0.34107500  0.98936500  0.84228200  1
  O  O56  1  0.00030400  0.28049700  0.91190000  1
  O  O57  1  0.34397500  0.34741000  0.68153000  1
  O  O58  1  0.15602500  0.15259000  0.18153000  1
  O  O59  1  0.42837600  0.57162400  0.70235200  1
loop_
_geom_bond_atom_site_label_1
_geom_bond_atom_site_label_2
_geom_bond_distance
_geom_bond_site_symmetry_2
Na0 O48 2.621970 1_555
Na0 O11 2.638718 1_645
Na0 O27 2.741839 1_545
Na0 O58 2.741839 1_655
Na0 O30 2.838189 1_555
Na1 O7 2.269799 1_554
Na1 O40 2.269799 1_555
Na1 O35 2.296923 1_554
Na1 O27 2.296923 1_555
Na2 O24 2.420931 1_555
Na2 O44 2.420931 1_545
Na2 O26 2.550457 1_555
Na2 O22 2.550457 1_555
Na2 O33 2.798413 1_555
Na2 O51 2.798413 1_555
Na3 O38 2.420931 1_565
Na3 O55 2.420931 1_555
Na3 O28 2.550457 1_555
Na3 O29 2.550457 1_555
Na3 O21 2.798413 1_555
Na3 O49 2.798413 1_555
Na4 O17 2.621970 1_555
Na4 O47 2.638718 1_555
Na4 O25 2.741839 1_555
Na4 O3 2.741839 1_555
Na4 O1 2.838189 1_554
Na5 O41 2.420931 1_655
Na5 O18 2.420931 1_555
Na5 O19 2.550457 1_555
Na5 O5 2.550457 1_555
Na5 O10 2.798413 1_555
Na5 O42 2.798413 1_555
Na6 O0 2.269799 1_555
Na6 O12 2.269799 1_555
Na6 O57 2.296923 1_555
Na6 O25 2.296923 1_555
Na7 O6 2.420931 1_455
Na7 O52 2.420931 1_555
Na7 O32 2.550457 1_555
Na7 O54 2.550457 1_555
Na7 O56 2.798413 1_555
Na7 O20 2.798413 1_555
Na8 O53 2.269799 1_555
Na8 O8 2.269799 1_554
Na8 O9 2.296923 1_554
Na8 O58 2.296923 1_555
Na9 O43 2.621970 1_555
Na9 O59 2.638718 1_555
Na9 O57 2.741839 1_555
Na9 O4 2.741839 1_555
Na9 O50 2.838189 1_556
Na10 O39 2.621970 1_555
Na10 O34 2.638718 1_465
Na10 O35 2.741839 1_455
Na10 O9 2.741839 1_565
Na10 O16 2.838189 1_555
Na11 O23 2.269799 1_555
Na11 O31 2.269799 1_555
Na11 O4 2.296923 1_555
Na11 O3 2.296923 1_555
Dy0 O55 2.221618 1_545
Dy0 O38 2.221618 1_555
Dy0 O12 2.246014 1_555
Dy0 O8 2.246014 1_555
Dy0 O9 2.294209 1_555
Dy0 O57 2.294209 1_555
Dy1 O41 2.221618 1_555
Dy1 O18 2.221618 1_455
Dy1 O53 2.246014 1_555
Dy1 O0 2.246014 1_555
Dy1 O25 2.294209 1_555
Dy1 O58 2.294209 1_555
Dy2 O52 2.221618 1_655
Dy2 O6 2.221618 1_555
Dy2 O7 2.246014 1_555
Dy2 O31 2.246014 1_555
Dy2 O4 2.294209 1_555
Dy2 O35 2.294209 1_555
Dy3 O24 2.221618 1_565
Dy3 O44 2.221618 1_555
Dy3 O40 2.246014 1_555
Dy3 O23 2.246014 1_555
Dy3 O3 2.294209 1_555
Dy3 O27 2.294209 1_555
O0 Si6 1.593896 1_455
O1 Si2 1.646054 1_555
O1 Si3 1.646054 1_555
O2 Si18 1.636727 1_554
O2 Si2 1.642079 1_554
O3 Si0 1.602143 1_555
O4 Si4 1.602143 1_555
O5 Si0 1.658715 1_555
O5 Si9 1.665854 1_555
O6 Si10 1.598558 1_555
O7 Si9 1.593896 1_556
O8 Si11 1.593896 1_556
O9 Si21 1.602143 1_555
O10 Si0 1.650993 1_555
O10 Si10 1.658438 1_555
O11 Si1 1.636510 1_455
O11 Si13 1.636510 1_565
O12 Si12 1.593896 1_545
O13 Si8 1.636727 1_555
O13 Si23 1.642079 1_555
O14 Si14 1.636727 1_556
O14 Si11 1.642079 1_556
O15 Si10 1.636727 1_555
O15 Si6 1.642079 1_555
O16 Si23 1.646054 1_555
O16 Si12 1.646054 1_555
O17 Si8 1.657976 1_555
O17 Si5 1.657976 1_555
O18 Si19 1.598558 1_555
O19 Si1 1.658715 1_555
O19 Si23 1.665854 1_655
O20 Si7 1.650993 1_555
O20 Si8 1.658438 1_555
O21 Si4 1.650993 1_555
O21 Si5 1.658438 1_555
O22 Si15 1.658715 1_555
O22 Si11 1.665854 1_555
O23 Si22 1.593896 1_565
O24 Si14 1.598558 1_555
O25 Si15 1.602143 1_555
O26 Si13 1.658715 1_555
O26 Si12 1.665854 1_545
O27 Si1 1.602143 1_555
O28 Si4 1.658715 1_555
O28 Si2 1.665854 1_555
O29 Si20 1.658715 1_555
O29 Si22 1.665854 1_565
O30 Si22 1.646054 1_555
O30 Si6 1.646054 1_555
O31 Si23 1.593896 1_655
O32 Si21 1.658715 1_555
O32 Si6 1.665854 1_455
O33 Si13 1.650993 1_555
O33 Si18 1.658438 1_544
O34 Si20 1.636510 1_545
O34 Si21 1.636510 1_655
O35 Si20 1.602143 1_555
O36 Si16 1.636727 1_555
O36 Si22 1.642079 1_555
O37 Si5 1.636727 1_555
O37 Si12 1.642079 1_555
O38 Si16 1.598558 1_555
O39 Si18 1.657976 1_555
O39 Si17 1.657976 1_555
O40 Si2 1.593896 1_554
O41 Si8 1.598558 1_555
O42 Si1 1.650993 1_555
O42 Si17 1.658438 1_654
O43 Si16 1.657976 1_555
O43 Si10 1.657976 1_555
O44 Si5 1.598558 1_555
O45 Si19 1.636727 1_556
O45 Si9 1.642079 1_556
O46 Si17 1.636727 1_554
O46 Si3 1.642079 1_554
O47 Si15 1.636510 1_555
O47 Si0 1.636510 1_555
O48 Si19 1.657976 1_555
O48 Si14 1.657976 1_555
O49 Si20 1.650993 1_555
O49 Si14 1.658438 1_566
O50 Si11 1.646054 1_555
O50 Si9 1.646054 1_555
O51 Si15 1.650993 1_555
O51 Si16 1.658438 1_555
O52 Si17 1.598558 1_555
O53 Si3 1.593896 1_554
O54 Si7 1.658715 1_555
O54 Si3 1.665854 1_555
O55 Si18 1.598558 1_555
O56 Si21 1.650993 1_555
O56 Si19 1.658438 1_456
O57 Si7 1.602143 1_555
O58 Si13 1.602143 1_555
O59 Si7 1.636510 1_555
O59 Si4 1.636510 1_555
