# generated using pymatgen
data_CdI2
_symmetry_space_group_name_H-M   'P 1'
_cell_length_a   4.28739216
_cell_length_b   4.28739206
_cell_length_c   57.69455036
_cell_angle_alpha   90.00000000
_cell_angle_beta   90.00000000
_cell_angle_gamma   119.99999280
_symmetry_Int_Tables_number   1
_chemical_formula_structural   CdI2
_chemical_formula_sum   'Cd8 I16'
_cell_volume   918.44227260
_cell_formula_units_Z   8
loop_
 _symmetry_equiv_pos_site_id
 _symmetry_equiv_pos_as_xyz
  1  'x, y, z'
loop_
 _atom_site_type_symbol
 _atom_site_label
 _atom_site_symmetry_multiplicity
 _atom_site_fract_x
 _atom_site_fract_y
 _atom_site_fract_z
 _atom_site_occupancy
  Cd  Cd0  1  0.00000000  0.00000000  0.78131966  1
  Cd  Cd1  1  0.00000000  -0.00000000  0.40598616  1
  Cd  Cd2  1  0.00000000  -0.00000000  0.90593895  1
  Cd  Cd3  1  0.66666700  0.33333300  0.03159420  1
  Cd  Cd4  1  0.66666700  0.33333300  0.28162930  1
  Cd  Cd5  1  0.00000000  -0.00000000  0.15596831  1
  Cd  Cd6  1  0.66666700  0.33333300  0.65599468  1
  Cd  Cd7  1  0.00000000  0.00000000  0.53155513  1
  I  I0  1  0.33333300  0.66666700  0.81108690  1
  I  I1  1  0.33333300  0.66666700  0.56144321  1
  I  I2  1  0.66666700  0.33333300  0.12629211  1
  I  I3  1  0.00000000  0.00000000  0.25169004  1
  I  I4  1  0.33333300  0.66666700  0.06148800  1
  I  I5  1  0.33333300  0.66666700  0.43570965  1
  I  I6  1  0.66666700  0.33333300  0.50162366  1
  I  I7  1  0.33333300  0.66666700  0.18565593  1
  I  I8  1  0.66666700  0.33333300  0.87623379  1
  I  I9  1  0.66666700  0.33333300  0.75158262  1
  I  I10  1  0.33333300  0.66666700  0.31154053  1
  I  I11  1  0.33333300  0.66666700  0.93568866  1
  I  I12  1  -0.00000000  -0.00000000  0.62626892  1
  I  I13  1  0.66666700  0.33333300  0.37630411  1
  I  I14  1  0.00000000  -0.00000000  0.00167966  1
  I  I15  1  0.33333300  0.66666700  0.68572483  1
loop_
_geom_bond_atom_site_label_1
_geom_bond_atom_site_label_2
_geom_bond_distance
_geom_bond_site_symmetry_2
Cd0 I9 3.011767 1_455
Cd0 I9 3.011770 1_445
Cd0 I9 3.011770 1_555
Cd0 I0 3.012759 1_545
Cd0 I0 3.012763 1_555
Cd0 I0 3.012763 1_445
Cd1 I13 3.009960 1_455
Cd1 I13 3.009964 1_445
Cd1 I13 3.009964 1_555
Cd1 I5 3.011321 1_545
Cd1 I5 3.011325 1_555
Cd1 I5 3.011325 1_445
Cd2 I8 3.010719 1_455
Cd2 I8 3.010722 1_445
Cd2 I8 3.010722 1_555
Cd2 I11 3.012183 1_545
Cd2 I11 3.012186 1_555
Cd2 I11 3.012186 1_445
Cd3 I4 3.016928 1_545
Cd3 I4 3.016928 1_655
Cd3 I4 3.016934 1_555
Cd3 I14 3.017612 1_655
Cd3 I14 3.017615 1_665
Cd3 I14 3.017615 1_555
Cd4 I10 3.017503 1_545
Cd4 I10 3.017503 1_655
Cd4 I10 3.017509 1_555
Cd4 I3 3.018428 1_655
Cd4 I3 3.018431 1_665
Cd4 I3 3.018431 1_555
Cd5 I2 3.009768 1_455
Cd5 I2 3.009772 1_445
Cd5 I2 3.009772 1_555
Cd5 I7 3.010143 1_545
Cd5 I7 3.010147 1_555
Cd5 I7 3.010147 1_445
Cd6 I12 3.011396 1_655
Cd6 I12 3.011399 1_665
Cd6 I12 3.011399 1_555
Cd6 I15 3.011540 1_545
Cd6 I15 3.011540 1_655
Cd6 I15 3.011546 1_555
Cd7 I1 3.016739 1_545
Cd7 I1 3.016742 1_555
Cd7 I1 3.016742 1_445
Cd7 I6 3.018171 1_455
Cd7 I6 3.018174 1_445
Cd7 I6 3.018174 1_555
