# generated using pymatgen
data_Pr2Te4MoO14
_symmetry_space_group_name_H-M   'P 1'
_cell_length_a   7.08446800
_cell_length_b   10.19584035
_cell_length_c   10.32877487
_cell_angle_alpha   90.09841365
_cell_angle_beta   107.24417322
_cell_angle_gamma   93.27085628
_symmetry_Int_Tables_number   1
_chemical_formula_structural   Pr2Te4MoO14
_chemical_formula_sum   'Pr4 Te8 Mo2 O28'
_cell_volume   711.23684890
_cell_formula_units_Z   2
loop_
 _symmetry_equiv_pos_site_id
 _symmetry_equiv_pos_as_xyz
  1  'x, y, z'
loop_
 _atom_site_type_symbol
 _atom_site_label
 _atom_site_symmetry_multiplicity
 _atom_site_fract_x
 _atom_site_fract_y
 _atom_site_fract_z
 _atom_site_occupancy
  Pr  Pr0  1  0.64404300  0.30768700  0.08601000  1
  Pr  Pr1  1  0.22015900  0.46501200  0.21492700  1
  Pr  Pr2  1  0.77984100  0.53498800  0.78507300  1
  Pr  Pr3  1  0.35595700  0.69231300  0.91399000  1
  Te  Te0  1  0.74214700  0.60862400  0.27932400  1
  Te  Te1  1  0.94297500  0.78905600  0.04286500  1
  Te  Te2  1  0.05702500  0.21094400  0.95713500  1
  Te  Te3  1  0.07528500  0.16632800  0.36872900  1
  Te  Te4  1  0.36199800  0.72747600  0.54182900  1
  Te  Te5  1  0.63800200  0.27252400  0.45817100  1
  Te  Te6  1  0.92471500  0.83367200  0.63127100  1
  Te  Te7  1  0.25785300  0.39137600  0.72067600  1
  Mo  Mo0  1  0.52314400  0.03771700  0.76777400  1
  Mo  Mo1  1  0.47685600  0.96228300  0.23222600  1
  O  O0  1  0.70690900  0.70461400  0.93127700  1
  O  O1  1  0.97513100  0.22597900  0.18777900  1
  O  O2  1  0.59399900  0.12062700  0.93087600  1
  O  O3  1  0.74604400  0.00029700  0.73036500  1
  O  O4  1  0.92891400  0.27707900  0.45909200  1
  O  O5  1  0.25395600  0.99970300  0.26963500  1
  O  O6  1  0.30625500  0.60876900  0.39697000  1
  O  O7  1  0.37641400  0.88457700  0.76650000  1
  O  O8  1  0.12074600  0.50902900  0.79642700  1
  O  O9  1  0.38759800  0.14079300  0.63929000  1
  O  O10  1  0.40600100  0.87937300  0.06912400  1
  O  O11  1  0.41479100  0.60501400  0.68783900  1
  O  O12  1  0.61240200  0.85920700  0.36071000  1
  O  O13  1  0.87925400  0.49097100  0.20357300  1
  O  O14  1  0.86889800  0.76452400  0.20913300  1
  O  O15  1  0.10310700  0.64577100  0.04886200  1
  O  O16  1  0.58520900  0.39498600  0.31216100  1
  O  O17  1  0.49894600  0.41677900  0.86524200  1
  O  O18  1  0.89689300  0.35422900  0.95113800  1
  O  O19  1  0.71266300  0.70446500  0.60029900  1
  O  O20  1  0.69374500  0.39123100  0.60303000  1
  O  O21  1  0.02486900  0.77402100  0.81222100  1
  O  O22  1  0.07108600  0.72292100  0.54090800  1
  O  O23  1  0.13110200  0.23547600  0.79086700  1
  O  O24  1  0.50105400  0.58322100  0.13475800  1
  O  O25  1  0.62358600  0.11542300  0.23350000  1
  O  O26  1  0.28733700  0.29553500  0.39970100  1
  O  O27  1  0.29309100  0.29538600  0.06872300  1
loop_
_geom_bond_atom_site_label_1
_geom_bond_atom_site_label_2
_geom_bond_distance
_geom_bond_site_symmetry_2
Mo0 O9 1.775431 1_555
Mo0 O3 1.794019 1_555
Mo0 O2 1.802750 1_555
Mo0 O7 1.823538 1_545
Mo1 O12 1.775431 1_555
Mo1 O5 1.794019 1_555
Mo1 O10 1.802750 1_555
Mo1 O25 1.823538 1_565
O0 Te1 1.885748 1_556
O0 Pr3 2.435256 1_555
O0 Pr2 2.468621 1_555
O1 Te3 1.906142 1_655
O1 Pr0 2.462699 1_555
O1 Te2 2.619859 1_654
O1 Pr1 2.873658 1_655
O2 Pr0 2.430282 1_556
O3 Te6 2.558037 1_545
O4 Te3 1.981241 1_655
O4 Te5 2.056026 1_555
O5 Te3 2.558037 1_565
O6 Te4 1.856987 1_555
O6 Pr1 2.294425 1_555
O7 Pr3 2.508627 1_555
O8 Te7 1.890754 1_555
O8 Pr2 2.412838 1_455
O8 Pr3 2.486073 1_555
O10 Pr3 2.430282 1_554
O11 Te4 1.923178 1_555
O11 Te7 2.458775 1_555
O11 Pr2 2.622973 1_555
O11 Pr3 2.652295 1_555
O13 Te0 1.890754 1_555
O13 Pr1 2.412838 1_655
O13 Pr0 2.486073 1_555
O14 Te1 1.951432 1_555
O14 Te0 2.021290 1_555
O15 Te1 1.890197 1_455
O15 Pr1 2.523548 1_555
O15 Pr3 2.599877 1_554
O15 Pr2 3.152610 1_454
O16 Te5 1.923178 1_555
O16 Te0 2.458775 1_555
O16 Pr1 2.622973 1_555
O16 Pr0 2.652295 1_555
O17 Te7 1.910525 1_555
O17 Pr0 2.498580 1_556
O17 Pr2 2.608647 1_555
O18 Te2 1.890197 1_655
O18 Pr2 2.523548 1_555
O18 Pr0 2.599877 1_556
O18 Pr1 3.152610 1_656
O19 Te6 1.892731 1_555
O19 Te4 2.401847 1_555
O19 Pr2 2.534035 1_555
O20 Te5 1.856987 1_555
O20 Pr2 2.294425 1_555
O21 Te6 1.906142 1_455
O21 Pr3 2.462699 1_555
O21 Te1 2.619859 1_456
O21 Pr2 2.873658 1_455
O22 Te6 1.981241 1_455
O22 Te4 2.056026 1_555
O23 Te2 1.951432 1_555
O23 Te7 2.021290 1_555
O24 Te0 1.910525 1_555
O24 Pr3 2.498580 1_554
O24 Pr1 2.608647 1_555
O25 Pr0 2.508627 1_555
O26 Te3 1.892731 1_555
O26 Te5 2.401847 1_555
O26 Pr1 2.534035 1_555
O27 Te2 1.885748 1_554
O27 Pr0 2.435256 1_555
O27 Pr1 2.468621 1_555
