# generated using pymatgen
data_Na3Fe3(PO4)4
_symmetry_space_group_name_H-M   'P 1'
_cell_length_a   10.42751025
_cell_length_b   10.42751025
_cell_length_c   10.74287627
_cell_angle_alpha   88.28591578
_cell_angle_beta   88.28591578
_cell_angle_gamma   36.15276705
_symmetry_Int_Tables_number   1
_chemical_formula_structural   Na3Fe3(PO4)4
_chemical_formula_sum   'Na6 Fe6 P8 O32'
_cell_volume   688.77083347
_cell_formula_units_Z   2
loop_
 _symmetry_equiv_pos_site_id
 _symmetry_equiv_pos_as_xyz
  1  'x, y, z'
loop_
 _atom_site_type_symbol
 _atom_site_label
 _atom_site_symmetry_multiplicity
 _atom_site_fract_x
 _atom_site_fract_y
 _atom_site_fract_z
 _atom_site_occupancy
  Na  Na0  1  0.94255100  0.22425300  0.52587000  1
  Na  Na1  1  0.62918100  0.37081900  0.25000000  1
  Na  Na2  1  0.22425300  0.94255100  0.02587000  1
  Na  Na3  1  0.05744900  0.77574700  0.47413000  1
  Na  Na4  1  0.37081900  0.62918100  0.75000000  1
  Na  Na5  1  0.77574700  0.05744900  0.97413000  1
  Fe  Fe0  1  0.63496900  0.67859300  0.25271000  1
  Fe  Fe1  1  0.50000000  0.00000000  0.50000000  1
  Fe  Fe2  1  0.36503100  0.32140700  0.74729000  1
  Fe  Fe3  1  0.67859300  0.63496900  0.75271000  1
  Fe  Fe4  1  0.00000000  0.50000000  0.00000000  1
  Fe  Fe5  1  0.32140700  0.36503100  0.24729000  1
  P  P0  1  0.77974700  0.81700700  0.24299500  1
  P  P1  1  0.42806300  0.74717700  0.50974600  1
  P  P2  1  0.18299300  0.22025300  0.25700500  1
  P  P3  1  0.22025300  0.18299300  0.75700500  1
  P  P4  1  0.57193700  0.25282300  0.49025400  1
  P  P5  1  0.81700700  0.77974700  0.74299500  1
  P  P6  1  0.25282300  0.57193700  0.99025400  1
  P  P7  1  0.74717700  0.42806300  0.00974600  1
  O  O0  1  0.63415800  0.05060000  0.21359200  1
  O  O1  1  0.58579000  0.60415800  0.11436800  1
  O  O2  1  0.36584200  0.94940000  0.78640800  1
  O  O3  1  0.30938800  0.20185900  0.64619700  1
  O  O4  1  0.94988600  0.35409200  0.00621700  1
  O  O5  1  0.05060000  0.63415800  0.71359200  1
  O  O6  1  0.39584200  0.41421000  0.38563200  1
  O  O7  1  0.45540100  0.37510900  0.61655600  1
  O  O8  1  0.20185900  0.30938800  0.14619700  1
  O  O9  1  0.41421000  0.39584200  0.88563200  1
  O  O10  1  0.05011400  0.64590800  0.99378300  1
  O  O11  1  0.94940000  0.36584200  0.28640800  1
  O  O12  1  0.27492500  0.23216200  0.36354600  1
  O  O13  1  0.32459000  0.99014900  0.22607300  1
  O  O14  1  0.62489100  0.54459900  0.88344400  1
  O  O15  1  0.23216200  0.27492500  0.86354600  1
  O  O16  1  0.60415800  0.58579000  0.61436800  1
  O  O17  1  0.76553500  0.18246400  0.46035500  1
  O  O18  1  0.54459900  0.62489100  0.38344400  1
  O  O19  1  0.79814100  0.69061200  0.85380300  1
  O  O20  1  0.99014900  0.32459000  0.72607300  1
  O  O21  1  0.69061200  0.79814100  0.35380300  1
  O  O22  1  0.76783800  0.72507500  0.13645400  1
  O  O23  1  0.64590800  0.05011400  0.49378300  1
  O  O24  1  0.72507500  0.76783800  0.63645400  1
  O  O25  1  0.67541000  0.00985100  0.77392700  1
  O  O26  1  0.00985100  0.67541000  0.27392700  1
  O  O27  1  0.35409200  0.94988600  0.50621700  1
  O  O28  1  0.81753600  0.23446500  0.03964500  1
  O  O29  1  0.37510900  0.45540100  0.11655600  1
  O  O30  1  0.18246400  0.76553500  0.96035500  1
  O  O31  1  0.23446500  0.81753600  0.53964500  1
loop_
_geom_bond_atom_site_label_1
_geom_bond_atom_site_label_2
_geom_bond_distance
_geom_bond_site_symmetry_2
Na0 O17 2.342506 1_555
Na0 O16 2.469563 1_555
Na0 O31 2.532961 1_645
Na0 O27 2.607797 1_645
Na0 O20 2.646478 1_555
Na0 O11 2.955470 1_555
Na0 O18 3.002573 1_555
Na1 O29 2.496021 1_555
Na1 O18 2.496021 1_555
Na1 O6 2.509482 1_555
Na1 O1 2.509482 1_555
Na1 O28 2.530402 1_555
Na1 O17 2.530402 1_555
Na2 O30 2.342506 1_554
Na2 O1 2.469563 1_555
Na2 O28 2.532961 1_465
Na2 O4 2.607797 1_465
Na2 O13 2.646478 1_555
Na2 O2 2.955470 1_554
Na2 O14 3.002573 1_554
Na3 O31 2.342506 1_555
Na3 O6 2.469563 1_555
Na3 O17 2.532961 1_465
Na3 O23 2.607797 1_465
Na3 O26 2.646478 1_555
Na3 O5 2.955470 1_555
Na3 O7 3.002573 1_555
Na4 O7 2.496021 1_555
Na4 O14 2.496021 1_555
Na4 O9 2.509482 1_555
Na4 O16 2.509482 1_555
Na4 O30 2.530402 1_555
Na4 O31 2.530402 1_555
Na5 O28 2.342506 1_556
Na5 O9 2.469563 1_555
Na5 O30 2.532961 1_645
Na5 O10 2.607797 1_645
Na5 O25 2.646478 1_555
Na5 O0 2.955470 1_556
Na5 O29 3.002573 1_556
Fe0 O1 1.957439 1_555
Fe0 O18 1.974844 1_555
Fe0 O13 2.032495 1_555
Fe0 O11 2.061442 1_555
Fe0 O21 2.087301 1_555
Fe0 O22 2.158485 1_555
Fe1 O27 1.966758 1_545
Fe1 O23 1.966758 1_555
Fe1 O3 2.025500 1_555
Fe1 O21 2.025500 1_545
Fe1 O24 2.082290 1_545
Fe1 O12 2.082290 1_555
Fe2 O9 1.957439 1_555
Fe2 O7 1.974844 1_555
Fe2 O25 2.032495 1_555
Fe2 O5 2.061442 1_555
Fe2 O3 2.087301 1_555
Fe2 O15 2.158485 1_555
Fe3 O16 1.957439 1_555
Fe3 O14 1.974844 1_555
Fe3 O20 2.032495 1_555
Fe3 O2 2.061442 1_555
Fe3 O19 2.087301 1_555
Fe3 O24 2.158485 1_555
Fe4 O4 1.966758 1_455
Fe4 O10 1.966758 1_554
Fe4 O8 2.025500 1_555
Fe4 O19 2.025500 1_454
Fe4 O15 2.082290 1_554
Fe4 O22 2.082290 1_455
Fe5 O6 1.957439 1_555
Fe5 O29 1.974844 1_555
Fe5 O26 2.032495 1_555
Fe5 O0 2.061442 1_555
Fe5 O8 2.087301 1_555
Fe5 O12 2.158485 1_555
O0 P0 1.532516 1_545
O1 P7 1.577056 1_555
O2 P3 1.532516 1_565
O3 P3 1.592078 1_555
O4 P7 1.558318 1_555
O5 P5 1.532516 1_455
O6 P4 1.577056 1_555
O7 P4 1.564042 1_555
O8 P2 1.592078 1_555
O9 P6 1.577056 1_555
O10 P6 1.558318 1_555
O11 P2 1.532516 1_655
O12 P2 1.584541 1_555
O13 P2 1.531293 1_565
O14 P7 1.564042 1_556
O15 P3 1.584541 1_555
O16 P1 1.577056 1_555
O17 P4 1.516666 1_555
O18 P1 1.564042 1_555
O19 P5 1.592078 1_555
O20 P3 1.531293 1_655
O21 P0 1.592078 1_555
O22 P0 1.584541 1_555
O23 P4 1.558318 1_555
O24 P5 1.584541 1_555
O25 P5 1.531293 1_545
O26 P0 1.531293 1_455
O27 P1 1.558318 1_555
O28 P7 1.516666 1_555
O29 P6 1.564042 1_554
O30 P6 1.516666 1_555
O31 P1 1.516666 1_555
