# generated using pymatgen
data_Ca4Si2O7F2
_symmetry_space_group_name_H-M   'P 1'
_cell_length_a   10.62534300
_cell_length_b   7.59567500
_cell_length_c   11.04787642
_cell_angle_alpha   70.53525619
_cell_angle_beta   90.00000000
_cell_angle_gamma   90.00000000
_symmetry_Int_Tables_number   1
_chemical_formula_structural   Ca4Si2O7F2
_chemical_formula_sum   'Ca16 Si8 O28 F8'
_cell_volume   840.67713005
_cell_formula_units_Z   4
loop_
 _symmetry_equiv_pos_site_id
 _symmetry_equiv_pos_as_xyz
  1  'x, y, z'
loop_
 _atom_site_type_symbol
 _atom_site_label
 _atom_site_symmetry_multiplicity
 _atom_site_fract_x
 _atom_site_fract_y
 _atom_site_fract_z
 _atom_site_occupancy
  Ca  Ca0  1  0.86634800  0.66324100  0.41641400  1
  Ca  Ca1  1  0.63365200  0.66324100  0.91641400  1
  Ca  Ca2  1  0.90267000  0.96891100  0.80106900  1
  Ca  Ca3  1  0.36288900  0.83149100  0.07244000  1
  Ca  Ca4  1  0.63711100  0.16850900  0.92756000  1
  Ca  Ca5  1  0.40267000  0.03108900  0.69893100  1
  Ca  Ca6  1  0.91285300  0.47092500  0.81523500  1
  Ca  Ca7  1  0.59733000  0.96891100  0.30106900  1
  Ca  Ca8  1  0.09733000  0.03108900  0.19893100  1
  Ca  Ca9  1  0.13365200  0.33675900  0.58358600  1
  Ca  Ca10  1  0.08714700  0.52907500  0.18476500  1
  Ca  Ca11  1  0.41285300  0.52907500  0.68476500  1
  Ca  Ca12  1  0.86288900  0.16850900  0.42756000  1
  Ca  Ca13  1  0.58714700  0.47092500  0.31523500  1
  Ca  Ca14  1  0.36634800  0.33675900  0.08358600  1
  Ca  Ca15  1  0.13711100  0.83149100  0.57244000  1
  Si  Si0  1  0.19065200  0.72625600  0.86775600  1
  Si  Si1  1  0.69065200  0.27374400  0.63224400  1
  Si  Si2  1  0.18881000  0.15245700  0.87675500  1
  Si  Si3  1  0.81119000  0.84754300  0.12324500  1
  Si  Si4  1  0.68881000  0.84754300  0.62324500  1
  Si  Si5  1  0.80934800  0.27374400  0.13224400  1
  Si  Si6  1  0.30934800  0.72625600  0.36775600  1
  Si  Si7  1  0.31119000  0.15245700  0.37675500  1
  O  O0  1  0.04130900  0.19712400  0.83892300  1
  O  O1  1  0.04239800  0.71451200  0.83579800  1
  O  O2  1  0.54239800  0.28548800  0.66420200  1
  O  O3  1  0.72375200  0.27111700  0.25635000  1
  O  O4  1  0.27693800  0.27820800  0.75814100  1
  O  O5  1  0.77350200  0.06415200  0.12088400  1
  O  O6  1  0.54130900  0.80287600  0.66107700  1
  O  O7  1  0.72649800  0.06415200  0.62088400  1
  O  O8  1  0.72306200  0.72179200  0.24185900  1
  O  O9  1  0.73613300  0.41045200  0.49120300  1
  O  O10  1  0.76386700  0.41045200  0.99120300  1
  O  O11  1  0.22375200  0.72888300  0.24365000  1
  O  O12  1  0.77693800  0.72179200  0.74185900  1
  O  O13  1  0.26824000  0.14018800  0.52169300  1
  O  O14  1  0.27624800  0.72888300  0.74365000  1
  O  O15  1  0.23176000  0.14018800  0.02169300  1
  O  O16  1  0.22306200  0.27820800  0.25814100  1
  O  O17  1  0.23613300  0.58954800  0.00879700  1
  O  O18  1  0.73176000  0.85981200  0.47830700  1
  O  O19  1  0.95869100  0.80287600  0.16107700  1
  O  O20  1  0.77624800  0.27111700  0.75635000  1
  O  O21  1  0.76824000  0.85981200  0.97830700  1
  O  O22  1  0.27350200  0.93584800  0.37911600  1
  O  O23  1  0.22649800  0.93584800  0.87911600  1
  O  O24  1  0.45760200  0.71451200  0.33579800  1
  O  O25  1  0.95760200  0.28548800  0.16420200  1
  O  O26  1  0.45869100  0.19712400  0.33892300  1
  O  O27  1  0.26386700  0.58954800  0.50879700  1
  F  F0  1  0.49991300  0.42437200  0.89636400  1
  F  F1  1  0.00518000  0.07011200  0.60237100  1
  F  F2  1  0.99482000  0.92988800  0.39762900  1
  F  F3  1  0.00008700  0.42437200  0.39636400  1
  F  F4  1  0.50518000  0.92988800  0.89762900  1
  F  F5  1  0.49482000  0.07011200  0.10237100  1
  F  F6  1  0.50008700  0.57562800  0.10363600  1
  F  F7  1  0.99991300  0.57562800  0.60363600  1
loop_
_geom_bond_atom_site_label_1
_geom_bond_atom_site_label_2
_geom_bond_distance
_geom_bond_site_symmetry_2
Ca0 O9 2.286145 1_555
Ca0 O18 2.328588 1_555
Ca0 F3 2.372375 1_655
Ca0 O8 2.379719 1_555
Ca0 F2 2.393413 1_555
Ca0 F7 2.412024 1_555
Ca0 O19 2.837480 1_555
Ca1 O10 2.286145 1_555
Ca1 O21 2.328588 1_555
Ca1 F0 2.372375 1_555
Ca1 O12 2.379719 1_555
Ca1 F4 2.393413 1_555
Ca1 F6 2.412024 1_556
Ca1 O6 2.837480 1_555
Ca2 F1 2.339129 1_665
Ca2 O21 2.340874 1_555
Ca2 O1 2.364576 1_655
Ca2 O0 2.415119 1_665
Ca2 O12 2.560122 1_555
Ca2 O20 2.561602 1_565
Ca2 O7 2.651469 1_565
Ca3 O11 2.321281 1_555
Ca3 F6 2.361039 1_555
Ca3 F4 2.369032 1_554
Ca3 F5 2.399785 1_565
Ca3 O23 2.482323 1_554
Ca3 O17 2.558649 1_555
Ca3 O15 2.622477 1_565
Ca3 O24 2.923145 1_555
Ca4 O20 2.321281 1_555
Ca4 F0 2.361039 1_555
Ca4 F5 2.369032 1_556
Ca4 F4 2.399785 1_545
Ca4 O5 2.482323 1_556
Ca4 O10 2.558649 1_555
Ca4 O21 2.622477 1_545
Ca4 O2 2.923145 1_555
Ca5 F4 2.339129 1_545
Ca5 O13 2.340874 1_555
Ca5 O2 2.364576 1_555
Ca5 O6 2.415119 1_545
Ca5 O4 2.560122 1_555
Ca5 O14 2.561602 1_545
Ca5 O23 2.651469 1_545
Ca6 O12 2.311748 1_555
Ca6 O20 2.343364 1_555
Ca6 O1 2.376899 1_655
Ca6 F7 2.390413 1_555
Ca6 O0 2.427725 1_655
Ca6 O10 2.429250 1_555
Ca7 F5 2.339129 1_565
Ca7 O18 2.340874 1_555
Ca7 O24 2.364576 1_555
Ca7 O26 2.415119 1_565
Ca7 O8 2.560122 1_555
Ca7 O3 2.561602 1_565
Ca7 O5 2.651469 1_565
Ca8 F2 2.339129 1_445
Ca8 O15 2.340874 1_555
Ca8 O25 2.364576 1_455
Ca8 O19 2.415119 1_445
Ca8 O16 2.560122 1_555
Ca8 O11 2.561602 1_545
Ca8 O22 2.651469 1_545
Ca9 O27 2.286145 1_555
Ca9 O13 2.328588 1_555
Ca9 F7 2.372375 1_455
Ca9 O4 2.379719 1_555
Ca9 F1 2.393413 1_555
Ca9 F3 2.412024 1_555
Ca9 O0 2.837480 1_555
Ca10 O16 2.311748 1_555
Ca10 O11 2.343364 1_555
Ca10 O25 2.376899 1_455
Ca10 F3 2.390413 1_555
Ca10 O19 2.427725 1_455
Ca10 O17 2.429250 1_555
Ca11 O4 2.311748 1_555
Ca11 O14 2.343364 1_555
Ca11 O2 2.376899 1_555
Ca11 F0 2.390413 1_555
Ca11 O6 2.427725 1_555
Ca11 O27 2.429250 1_555
Ca12 O3 2.321281 1_555
Ca12 F3 2.361039 1_655
Ca12 F1 2.369032 1_655
Ca12 F2 2.399785 1_545
Ca12 O7 2.482323 1_555
Ca12 O9 2.558649 1_555
Ca12 O18 2.622477 1_545
Ca12 O25 2.923145 1_555
Ca13 O8 2.311748 1_555
Ca13 O3 2.343364 1_555
Ca13 O24 2.376899 1_555
Ca13 F6 2.390413 1_555
Ca13 O26 2.427725 1_555
Ca13 O9 2.429250 1_555
Ca14 O17 2.286145 1_555
Ca14 O15 2.328588 1_555
Ca14 F6 2.372375 1_555
Ca14 O16 2.379719 1_555
Ca14 F5 2.393413 1_555
Ca14 F0 2.412024 1_554
Ca14 O26 2.837480 1_555
Ca15 O14 2.321281 1_555
Ca15 F7 2.361039 1_455
Ca15 F2 2.369032 1_455
Ca15 F1 2.399785 1_565
Ca15 O22 2.482323 1_555
Ca15 O27 2.558649 1_555
Ca15 O13 2.622477 1_565
Ca15 O1 2.923145 1_555
O0 Si2 1.628362 1_555
O1 Si0 1.623273 1_555
O2 Si1 1.623273 1_555
O3 Si5 1.639899 1_555
O4 Si2 1.634691 1_555
O5 Si5 1.681790 1_555
O5 Si3 1.685058 1_545
O6 Si4 1.628362 1_555
O7 Si1 1.681790 1_555
O7 Si4 1.685058 1_545
O8 Si3 1.634691 1_555
O9 Si1 1.631394 1_555
O10 Si5 1.631394 1_556
O11 Si6 1.639899 1_555
O12 Si4 1.634691 1_555
O13 Si7 1.637535 1_555
O14 Si0 1.639899 1_555
O15 Si2 1.637535 1_554
O16 Si7 1.634691 1_555
O17 Si0 1.631394 1_554
O18 Si4 1.637535 1_555
O19 Si3 1.628362 1_555
O20 Si1 1.639899 1_555
O21 Si3 1.637535 1_556
O22 Si6 1.681790 1_555
O22 Si7 1.685058 1_565
O23 Si0 1.681790 1_555
O23 Si2 1.685058 1_565
O24 Si6 1.623273 1_555
O25 Si5 1.623273 1_555
O26 Si7 1.628362 1_555
O27 Si6 1.631394 1_555
