# generated using pymatgen
data_La4Os6O19
_symmetry_space_group_name_H-M   'P 1'
_cell_length_a   7.85003645
_cell_length_b   7.85004467
_cell_length_c   7.85008073
_cell_angle_alpha   109.45862908
_cell_angle_beta   109.44884493
_cell_angle_gamma   109.50730192
_symmetry_Int_Tables_number   1
_chemical_formula_structural   La4Os6O19
_chemical_formula_sum   'La4 Os6 O19'
_cell_volume   372.38310215
_cell_formula_units_Z   1
loop_
 _symmetry_equiv_pos_site_id
 _symmetry_equiv_pos_as_xyz
  1  'x, y, z'
loop_
 _atom_site_type_symbol
 _atom_site_label
 _atom_site_symmetry_multiplicity
 _atom_site_fract_x
 _atom_site_fract_y
 _atom_site_fract_z
 _atom_site_occupancy
  La  La0  1  0.00065533  0.99978988  0.31791711  1
  La  La1  1  -0.00064615  0.31737068  -0.00088999  1
  La  La2  1  0.68180076  0.68271733  0.68205574  1
  La  La3  1  0.31821981  0.00026157  0.00094203  1
  Os  Os0  1  0.36488526  0.49998217  0.86488153  1
  Os  Os1  1  0.86434896  0.36436362  0.49998976  1
  Os  Os2  1  0.49999691  0.13555726  0.63556201  1
  Os  Os3  1  0.13563238  0.63565098  0.50000861  1
  Os  Os4  1  0.49999727  0.86442166  0.36442869  1
  Os  Os5  1  0.63512797  0.49999282  0.13512325  1
  O  O0  1  0.32222796  0.99998969  0.32222641  1
  O  O1  1  0.32306719  0.32305797  -0.00002938  1
  O  O2  1  0.00001344  0.67753868  0.67755761  1
  O  O3  1  0.67691193  0.67692107  -0.00001358  1
  O  O4  1  -0.00000653  0.32247026  0.32246595  1
  O  O5  1  0.67776706  0.00000167  0.67777075  1
  O  O6  1  0.00000777  0.00001576  0.00001820  1
  O  O7  1  0.36619761  0.30575524  0.62586985  1
  O  O8  1  0.05964871  0.32154955  0.69450897  1
  O  O9  1  0.73908490  0.37431224  0.67872843  1
  O  O10  1  0.37295882  0.67843092  0.73810409  1
  O  O11  1  0.26096509  0.93964023  0.63527721  1
  O  O12  1  0.62704188  0.36512936  0.30546208  1
  O  O13  1  0.30440452  0.62567959  0.36477331  1
  O  O14  1  0.69558545  0.06035435  0.32126989  1
  O  O15  1  0.94034648  0.63486228  0.26190988  1
  O  O16  1  0.67984367  0.74028755  0.37410125  1
  O  O17  1  0.63381123  0.25968647  0.93955478  1
  O  O18  1  0.32010531  0.69420913  0.06042758  1
loop_
_geom_bond_atom_site_label_1
_geom_bond_atom_site_label_2
_geom_bond_distance
_geom_bond_site_symmetry_2
La0 O6 2.494437 1_565
La0 O0 2.512763 1_555
La0 O4 2.523157 1_565
La0 O3 2.524154 1_455
La0 O15 2.596231 1_455
La0 O14 2.599208 1_465
La0 O7 2.599256 1_565
La0 O16 2.932340 1_455
La0 O11 2.939929 1_555
La0 O8 2.943809 1_565
La1 O6 2.495347 1_555
La1 O5 2.512938 1_454
La1 O4 2.523614 1_555
La1 O1 2.524309 1_555
La1 O8 2.595812 1_554
La1 O13 2.599013 1_555
La1 O17 2.599146 1_454
La1 O18 2.931249 1_555
La1 O9 2.938797 1_454
La1 O15 2.943458 1_455
La2 O6 2.494888 1_666
La2 O5 2.512665 1_565
La2 O2 2.523571 1_655
La2 O3 2.524034 1_556
La2 O10 2.595817 1_555
La2 O16 2.599313 1_555
La2 O9 2.599399 1_555
La2 O7 2.931840 1_555
La2 O13 2.939075 1_555
La2 O12 2.944052 1_555
La3 O6 2.494925 1_555
La3 O0 2.512531 1_545
La3 O2 2.523528 1_544
La3 O1 2.524116 1_555
La3 O12 2.595579 1_555
La3 O11 2.599255 1_544
La3 O18 2.599427 1_545
La3 O17 2.931973 1_554
La3 O14 2.938877 1_555
La3 O10 2.943967 1_544
O0 Os2 2.026934 1_565
O0 Os4 2.026963 1_555
O1 Os0 2.017397 1_554
O1 Os5 2.017635 1_555
O2 Os3 2.025020 1_555
O2 Os1 2.025049 1_455
O3 Os0 2.017462 1_554
O3 Os5 2.017697 1_555
O4 Os1 2.025028 1_455
O4 Os3 2.025085 1_555
O5 Os2 2.026895 1_555
O5 Os4 2.026965 1_545
O7 Os2 1.961059 1_555
O7 Os0 1.990614 1_555
O8 Os0 1.966825 1_555
O8 Os1 1.980446 1_455
O9 Os1 1.959295 1_555
O9 Os2 1.988519 1_555
O10 Os0 1.966810 1_555
O10 Os3 1.980446 1_555
O11 Os3 1.959116 1_555
O11 Os2 1.988423 1_565
O12 Os5 1.966645 1_555
O12 Os1 1.980263 1_555
O13 Os3 1.959319 1_555
O13 Os4 1.988524 1_555
O14 Os1 1.959280 1_555
O14 Os4 1.988539 1_545
O15 Os5 1.966718 1_555
O15 Os3 1.980275 1_655
O16 Os4 1.960923 1_555
O16 Os5 1.990571 1_555
O17 Os2 1.960997 1_555
O17 Os5 1.990600 1_556
O18 Os4 1.961066 1_555
O18 Os0 1.990621 1_554
