# generated using pymatgen
data_Mg3(Fe11O18)2
_symmetry_space_group_name_H-M   'P 1'
_cell_length_a   5.50134057
_cell_length_b   5.50704185
_cell_length_c   32.98623902
_cell_angle_alpha   53.44495057
_cell_angle_beta   53.48639313
_cell_angle_gamma   53.60134042
_symmetry_Int_Tables_number   1
_chemical_formula_structural   Mg3(Fe11O18)2
_chemical_formula_sum   'Mg3 Fe22 O36'
_cell_volume   599.35341936
_cell_formula_units_Z   1
loop_
 _symmetry_equiv_pos_site_id
 _symmetry_equiv_pos_as_xyz
  1  'x, y, z'
loop_
 _atom_site_type_symbol
 _atom_site_label
 _atom_site_symmetry_multiplicity
 _atom_site_fract_x
 _atom_site_fract_y
 _atom_site_fract_z
 _atom_site_occupancy
  Mg  Mg0  1  0.32793700  0.33107300  0.88540200  1
  Mg  Mg1  1  0.50000000  0.50000000  0.91666700  1
  Mg  Mg2  1  0.67206300  0.66892700  0.94793100  1
  Fe  Fe0  1  0.12208000  0.13728100  0.02944900  1
  Fe  Fe1  1  0.32997700  0.33198200  0.06226900  1
  Fe  Fe2  1  0.13795300  0.13918600  0.19453400  1
  Fe  Fe3  1  0.33451000  0.33495900  0.22607100  1
  Fe  Fe4  1  0.65236200  0.64977100  0.11526000  1
  Fe  Fe5  1  0.14206100  0.14443700  0.35844200  1
  Fe  Fe6  1  0.84936600  0.84750400  0.14678700  1
  Fe  Fe7  1  0.33852000  0.33939800  0.39031900  1
  Fe  Fe8  1  0.65696600  0.65502500  0.27887100  1
  Fe  Fe9  1  0.14657800  0.14961500  0.52270000  1
  Fe  Fe10  1  0.85342200  0.85038500  0.31063400  1
  Fe  Fe11  1  0.34303400  0.34497500  0.55446300  1
  Fe  Fe12  1  0.66148000  0.66060200  0.44301400  1
  Fe  Fe13  1  0.15063400  0.15249600  0.68654600  1
  Fe  Fe14  1  0.85793900  0.85556300  0.47489100  1
  Fe  Fe15  1  0.34763800  0.35022900  0.71807300  1
  Fe  Fe16  1  0.66549000  0.66504100  0.60726200  1
  Fe  Fe17  1  0.15705300  0.13713500  0.85029500  1
  Fe  Fe18  1  0.86204700  0.86081400  0.63879900  1
  Fe  Fe19  1  0.67002300  0.66801800  0.77106500  1
  Fe  Fe20  1  0.87792000  0.86271900  0.80388500  1
  Fe  Fe21  1  0.84294700  0.86286500  0.98303800  1
  O  O0  1  0.05310900  0.72215900  0.07809400  1
  O  O1  1  0.42997400  0.05325000  0.12675900  1
  O  O2  1  0.71359000  0.43508300  0.02059800  1
  O  O3  1  0.26256400  0.55425400  0.15936300  1
  O  O4  1  0.55115600  0.93485300  0.05059000  1
  O  O5  1  0.05939900  0.72594700  0.24194100  1
  O  O6  1  0.92951200  0.25734400  0.09959300  1
  O  O7  1  0.43711600  0.05781500  0.29057500  1
  O  O8  1  0.72553000  0.42936600  0.18156600  1
  O  O9  1  0.26572500  0.56053300  0.32361100  1
  O  O10  1  0.55329800  0.93180000  0.21451800  1
  O  O11  1  0.06392500  0.73099800  0.40628000  1
  O  O12  1  0.93183600  0.26407500  0.26279000  1
  O  O13  1  0.44102100  0.06279000  0.45484600  1
  O  O14  1  0.72970900  0.43425300  0.34549100  1
  O  O15  1  0.27029100  0.56574700  0.48784200  1
  O  O16  1  0.55897900  0.93721000  0.37848700  1
  O  O17  1  0.06816400  0.73592500  0.57054400  1
  O  O18  1  0.93607500  0.26900200  0.42705300  1
  O  O19  1  0.44670200  0.06820000  0.61881500  1
  O  O20  1  0.73427500  0.43946700  0.50972300  1
  O  O21  1  0.27447000  0.57063400  0.65176700  1
  O  O22  1  0.56288400  0.94218500  0.54275900  1
  O  O23  1  0.07048800  0.74265600  0.73374000  1
  O  O24  1  0.94060100  0.27405300  0.59139200  1
  O  O25  1  0.44884400  0.06514700  0.78274400  1
  O  O26  1  0.73743600  0.44574600  0.67397000  1
  O  O27  1  0.28641000  0.56491700  0.81273600  1
  O  O28  1  0.57002600  0.94675000  0.70657400  1
  O  O29  1  0.08734900  0.73773400  0.90576300  1
  O  O30  1  0.94689100  0.27784100  0.75524000  1
  O  O31  1  0.42990000  0.08352800  0.95958700  1
  O  O32  1  0.74330300  0.44989500  0.83986900  1
  O  O33  1  0.25669700  0.55010500  0.99346400  1
  O  O34  1  0.57010000  0.91647200  0.87374600  1
  O  O35  1  0.91265100  0.26226600  0.92757000  1
loop_
_geom_bond_atom_site_label_1
_geom_bond_atom_site_label_2
_geom_bond_distance
_geom_bond_site_symmetry_2
Mg0 O35 1.978827 1_455
Mg0 O34 1.990465 1_545
Mg0 O27 2.020304 1_555
Mg0 O32 2.103611 1_555
Mg0 O29 2.105772 1_555
Mg0 O31 2.216639 1_555
Mg1 O35 1.969857 1_555
Mg1 O29 1.969873 1_555
Mg1 O34 1.986313 1_555
Mg1 O31 1.986316 1_555
Mg1 O33 2.155060 1_555
Mg1 O32 2.155089 1_555
Mg2 O29 1.978827 1_655
Mg2 O31 1.990465 1_565
Mg2 O2 2.020333 1_556
Mg2 O33 2.103611 1_555
Mg2 O35 2.105772 1_555
Mg2 O34 2.216639 1_555
Fe0 O2 1.913490 1_455
Fe0 O31 1.959486 1_554
Fe0 O0 1.969836 1_545
Fe0 O33 2.205327 1_554
Fe0 O6 2.233192 1_455
Fe0 O4 2.282736 1_545
Fe1 O1 1.919627 1_555
Fe1 O4 1.923420 1_545
Fe1 O2 1.925053 1_555
Fe1 O0 1.927486 1_555
Fe1 O6 1.944849 1_455
Fe1 O33 2.005789 1_554
Fe2 O1 1.971512 1_555
Fe2 O8 1.980448 1_455
Fe2 O5 1.983663 1_545
Fe2 O12 2.170009 1_455
Fe2 O10 2.181397 1_545
Fe2 O3 2.189776 1_555
Fe3 O8 1.926889 1_555
Fe3 O7 1.927132 1_555
Fe3 O5 1.932138 1_555
Fe3 O3 1.939268 1_555
Fe3 O12 1.948538 1_455
Fe3 O10 1.952898 1_545
Fe4 O3 1.925168 1_555
Fe4 O4 1.926664 1_555
Fe4 O8 1.929920 1_555
Fe4 O6 1.935025 1_555
Fe4 O0 1.940830 1_655
Fe4 O1 1.950207 1_565
Fe5 O7 1.975551 1_555
Fe5 O14 1.979907 1_455
Fe5 O11 1.983272 1_545
Fe5 O18 2.179824 1_455
Fe5 O16 2.190812 1_545
Fe5 O9 2.194884 1_555
Fe6 O10 1.966625 1_555
Fe6 O6 1.972511 1_565
Fe6 O3 1.978565 1_655
Fe6 O0 2.188548 1_655
Fe6 O1 2.205275 1_565
Fe6 O8 2.206265 1_555
Fe7 O13 1.927585 1_555
Fe7 O14 1.928183 1_555
Fe7 O11 1.936400 1_555
Fe7 O9 1.939901 1_555
Fe7 O18 1.945982 1_455
Fe7 O16 1.951227 1_545
Fe8 O10 1.926005 1_555
Fe8 O9 1.927637 1_555
Fe8 O12 1.935295 1_555
Fe8 O14 1.937532 1_555
Fe8 O5 1.946271 1_655
Fe8 O7 1.952602 1_565
Fe9 O13 1.975682 1_555
Fe9 O20 1.980050 1_455
Fe9 O17 1.985028 1_545
Fe9 O24 2.181850 1_455
Fe9 O22 2.187695 1_545
Fe9 O15 2.194981 1_555
Fe10 O16 1.975656 1_555
Fe10 O9 1.980050 1_655
Fe10 O12 1.985028 1_565
Fe10 O5 2.181880 1_655
Fe10 O7 2.187695 1_565
Fe10 O14 2.194990 1_555
Fe11 O19 1.925978 1_555
Fe11 O20 1.927637 1_555
Fe11 O17 1.935295 1_555
Fe11 O15 1.937561 1_555
Fe11 O24 1.946276 1_455
Fe11 O22 1.952602 1_545
Fe12 O16 1.927585 1_555
Fe12 O15 1.928183 1_555
Fe12 O18 1.936400 1_555
Fe12 O20 1.939930 1_555
Fe12 O11 1.945982 1_655
Fe12 O13 1.951227 1_565
Fe13 O19 1.966625 1_555
Fe13 O23 1.972511 1_545
Fe13 O26 1.978565 1_455
Fe13 O30 2.188579 1_455
Fe13 O28 2.205275 1_545
Fe13 O21 2.206265 1_555
Fe14 O22 1.975577 1_555
Fe14 O15 1.979907 1_655
Fe14 O18 1.983272 1_565
Fe14 O11 2.179824 1_655
Fe14 O13 2.190812 1_565
Fe14 O20 2.194875 1_555
Fe15 O26 1.925168 1_555
Fe15 O25 1.926691 1_555
Fe15 O21 1.929920 1_555
Fe15 O23 1.935025 1_555
Fe15 O30 1.940824 1_455
Fe15 O28 1.950207 1_545
Fe16 O21 1.926889 1_555
Fe16 O22 1.927105 1_555
Fe16 O24 1.932138 1_555
Fe16 O26 1.939268 1_555
Fe16 O17 1.948544 1_655
Fe16 O19 1.952898 1_565
Fe17 O29 1.924802 1_545
Fe17 O25 1.933776 1_555
Fe17 O32 1.959347 1_455
Fe17 O34 2.221131 1_545
Fe17 O27 2.248324 1_555
Fe17 O35 2.386284 1_455
Fe18 O28 1.971512 1_555
Fe18 O21 1.980448 1_655
Fe18 O24 1.983663 1_565
Fe18 O17 2.169979 1_655
Fe18 O19 2.181397 1_565
Fe18 O26 2.189776 1_555
Fe19 O28 1.919653 1_555
Fe19 O25 1.923420 1_565
Fe19 O27 1.925053 1_555
Fe19 O30 1.927486 1_555
Fe19 O23 1.944843 1_655
Fe19 O32 2.005760 1_555
Fe20 O27 1.913490 1_655
Fe20 O34 1.959461 1_555
Fe20 O30 1.969836 1_565
Fe20 O32 2.205337 1_555
Fe20 O23 2.233223 1_655
Fe20 O25 2.282736 1_565
Fe21 O35 1.924802 1_565
Fe21 O4 1.933802 1_556
Fe21 O33 1.959347 1_655
Fe21 O31 2.221131 1_565
Fe21 O2 2.248316 1_556
Fe21 O29 2.386284 1_655
