# generated using pymatgen
data_K2Ni2(MoO4)3
_symmetry_space_group_name_H-M   'P 1'
_cell_length_a   9.10349500
_cell_length_b   7.05872200
_cell_length_c   20.12335243
_cell_angle_alpha   71.93741011
_cell_angle_beta   90.00000000
_cell_angle_gamma   90.00000000
_symmetry_Int_Tables_number   1
_chemical_formula_structural   K2Ni2(MoO4)3
_chemical_formula_sum   'K8 Ni8 Mo12 O48'
_cell_volume   1229.38089258
_cell_formula_units_Z   4
loop_
 _symmetry_equiv_pos_site_id
 _symmetry_equiv_pos_as_xyz
  1  'x, y, z'
loop_
 _atom_site_type_symbol
 _atom_site_label
 _atom_site_symmetry_multiplicity
 _atom_site_fract_x
 _atom_site_fract_y
 _atom_site_fract_z
 _atom_site_occupancy
  K  K0  1  0.48932800  0.50284300  0.22742600  1
  K  K1  1  0.95557600  0.81216300  0.40633600  1
  K  K2  1  0.01067200  0.50284300  0.72742600  1
  K  K3  1  0.04442400  0.18783700  0.59366400  1
  K  K4  1  0.51067200  0.49715700  0.77257400  1
  K  K5  1  0.54442400  0.81216300  0.90633600  1
  K  K6  1  0.45557600  0.18783700  0.09366400  1
  K  K7  1  0.98932800  0.49715700  0.27257400  1
  Ni  Ni0  1  0.65166200  0.27643000  0.63535300  1
  Ni  Ni1  1  0.07405900  0.07864000  0.05832300  1
  Ni  Ni2  1  0.15166200  0.72357000  0.86464700  1
  Ni  Ni3  1  0.84833800  0.27643000  0.13535300  1
  Ni  Ni4  1  0.34833800  0.72357000  0.36464700  1
  Ni  Ni5  1  0.92594100  0.92136000  0.94167700  1
  Ni  Ni6  1  0.42594100  0.07864000  0.55832300  1
  Ni  Ni7  1  0.57405900  0.92136000  0.44167700  1
  Mo  Mo0  1  0.23103000  0.19587200  0.90178500  1
  Mo  Mo1  1  0.15758300  0.04740000  0.22853400  1
  Mo  Mo2  1  0.33747500  0.58768800  0.53992700  1
  Mo  Mo3  1  0.16252500  0.58768800  0.03992700  1
  Mo  Mo4  1  0.73103000  0.80412800  0.59821500  1
  Mo  Mo5  1  0.34241700  0.04740000  0.72853400  1
  Mo  Mo6  1  0.26897000  0.19587200  0.40178500  1
  Mo  Mo7  1  0.66252500  0.41231200  0.46007300  1
  Mo  Mo8  1  0.83747500  0.41231200  0.96007300  1
  Mo  Mo9  1  0.65758300  0.95260000  0.27146600  1
  Mo  Mo10  1  0.84241700  0.95260000  0.77146600  1
  Mo  Mo11  1  0.76897000  0.80412800  0.09821500  1
  O  O0  1  0.37999200  0.99342800  0.38778100  1
  O  O1  1  0.98223600  0.17276800  0.22099900  1
  O  O2  1  0.19356100  0.98877500  0.14859600  1
  O  O3  1  0.54310300  0.63679200  0.43396400  1
  O  O4  1  0.16502600  0.44244500  0.85445900  1
  O  O5  1  0.33754000  0.82074600  0.80399200  1
  O  O6  1  0.44369000  0.81109300  0.53743400  1
  O  O7  1  0.29802600  0.55029100  0.10383600  1
  O  O8  1  0.25160600  0.16098500  0.99424800  1
  O  O9  1  0.62000800  0.00657200  0.61221900  1
  O  O10  1  0.45689700  0.36320800  0.56603600  1
  O  O11  1  0.04310300  0.36320800  0.06603600  1
  O  O12  1  0.09031100  0.17202600  0.37226600  1
  O  O13  1  0.55631000  0.18890700  0.46256600  1
  O  O14  1  0.80643900  0.01122500  0.85140400  1
  O  O15  1  0.75160600  0.83901500  0.50575200  1
  O  O16  1  0.69356100  0.01122500  0.35140400  1
  O  O17  1  0.29330400  0.21588300  0.23699200  1
  O  O18  1  0.83754000  0.17925400  0.69600800  1
  O  O19  1  0.79802600  0.44970900  0.39616400  1
  O  O20  1  0.83497400  0.55755500  0.14554100  1
  O  O21  1  0.51776400  0.17276800  0.72099900  1
  O  O22  1  0.59031100  0.82797400  0.12773400  1
  O  O23  1  0.73587300  0.37501200  0.03987400  1
  O  O24  1  0.87999200  0.00657200  0.11221900  1
  O  O25  1  0.76412700  0.37501200  0.53987400  1
  O  O26  1  0.79330400  0.78411700  0.26300800  1
  O  O27  1  0.24839400  0.16098500  0.49424800  1
  O  O28  1  0.90968900  0.82797400  0.62773400  1
  O  O29  1  0.01776400  0.82723200  0.77900100  1
  O  O30  1  0.95689700  0.63679200  0.93396400  1
  O  O31  1  0.70197400  0.44970900  0.89616400  1
  O  O32  1  0.40968900  0.17202600  0.87226600  1
  O  O33  1  0.74839400  0.83901500  0.00575200  1
  O  O34  1  0.70669600  0.78411700  0.76300800  1
  O  O35  1  0.66502600  0.55755500  0.64554100  1
  O  O36  1  0.23587300  0.62498800  0.46012600  1
  O  O37  1  0.30643900  0.98877500  0.64859600  1
  O  O38  1  0.20197400  0.55029100  0.60383600  1
  O  O39  1  0.12000800  0.99342800  0.88778100  1
  O  O40  1  0.94369000  0.18890700  0.96256600  1
  O  O41  1  0.16246000  0.82074600  0.30399200  1
  O  O42  1  0.20669600  0.21588300  0.73699200  1
  O  O43  1  0.05631000  0.81109300  0.03743400  1
  O  O44  1  0.48223600  0.82723200  0.27900100  1
  O  O45  1  0.66246000  0.17925400  0.19600800  1
  O  O46  1  0.26412700  0.62498800  0.96012600  1
  O  O47  1  0.33497400  0.44244500  0.35445900  1
loop_
_geom_bond_atom_site_label_1
_geom_bond_atom_site_label_2
_geom_bond_distance
_geom_bond_site_symmetry_2
K0 O17 2.661325 1_555
K0 O22 2.698464 1_555
K0 O44 2.792500 1_555
K0 O47 2.831119 1_555
K0 O7 2.968824 1_555
K0 O45 2.999427 1_555
K1 O12 2.710539 1_665
K1 O41 2.777576 1_655
K1 O15 2.778715 1_555
K1 O16 2.814704 1_565
K1 O36 2.922588 1_655
K1 O19 2.994908 1_555
K2 O42 2.661325 1_555
K2 O28 2.698464 1_455
K2 O29 2.792500 1_555
K2 O4 2.831119 1_555
K2 O38 2.968824 1_555
K2 O18 2.999427 1_455
K3 O28 2.710539 1_445
K3 O18 2.777576 1_455
K3 O27 2.778715 1_555
K3 O37 2.814704 1_545
K3 O25 2.922588 1_455
K3 O38 2.994908 1_555
K4 O34 2.661325 1_555
K4 O32 2.698464 1_555
K4 O21 2.792500 1_555
K4 O35 2.831119 1_555
K4 O31 2.968824 1_555
K4 O5 2.999427 1_555
K5 O32 2.710539 1_565
K5 O5 2.777576 1_555
K5 O33 2.778715 1_556
K5 O14 2.814704 1_565
K5 O46 2.922588 1_555
K5 O31 2.994908 1_555
K6 O22 2.710539 1_545
K6 O45 2.777576 1_555
K6 O8 2.778715 1_554
K6 O2 2.814704 1_545
K6 O23 2.922588 1_555
K6 O7 2.994908 1_555
K7 O26 2.661325 1_555
K7 O12 2.698464 1_655
K7 O1 2.792500 1_555
K7 O20 2.831119 1_555
K7 O19 2.968824 1_555
K7 O41 2.999427 1_655
Ni0 O21 2.051731 1_555
Ni0 O35 2.060799 1_555
Ni0 O18 2.074725 1_555
Ni0 O25 2.096418 1_555
Ni0 O9 2.116157 1_555
Ni0 O10 2.221433 1_555
Ni1 O8 2.036684 1_554
Ni1 O2 2.042381 1_545
Ni1 O24 2.052833 1_455
Ni1 O43 2.064382 1_545
Ni1 O11 2.081264 1_555
Ni1 O40 2.190303 1_454
Ni2 O29 2.051731 1_555
Ni2 O4 2.060799 1_555
Ni2 O5 2.074725 1_555
Ni2 O46 2.096418 1_555
Ni2 O39 2.116157 1_555
Ni2 O30 2.221433 1_455
Ni3 O1 2.051731 1_555
Ni3 O20 2.060799 1_555
Ni3 O45 2.074725 1_555
Ni3 O23 2.096418 1_555
Ni3 O24 2.116157 1_555
Ni3 O11 2.221433 1_655
Ni4 O44 2.051731 1_555
Ni4 O47 2.060799 1_555
Ni4 O41 2.074725 1_555
Ni4 O36 2.096418 1_555
Ni4 O0 2.116157 1_555
Ni4 O3 2.221433 1_555
Ni5 O33 2.036684 1_556
Ni5 O14 2.042381 1_565
Ni5 O39 2.052833 1_655
Ni5 O40 2.064382 1_565
Ni5 O30 2.081264 1_555
Ni5 O43 2.190303 1_656
Ni6 O27 2.036684 1_555
Ni6 O37 2.042381 1_545
Ni6 O9 2.052833 1_555
Ni6 O6 2.064382 1_545
Ni6 O10 2.081264 1_555
Ni6 O13 2.190303 1_555
Ni7 O15 2.036684 1_555
Ni7 O16 2.042381 1_565
Ni7 O0 2.052833 1_555
Ni7 O13 2.064382 1_565
Ni7 O3 2.081264 1_555
Ni7 O6 2.190303 1_555
Mo0 O32 1.757397 1_555
Mo0 O4 1.808163 1_555
Mo0 O8 1.809328 1_555
Mo0 O39 1.841916 1_545
Mo1 O17 1.759379 1_555
Mo1 O1 1.808585 1_455
Mo1 O2 1.810793 1_545
Mo1 O41 1.833268 1_545
Mo2 O38 1.742046 1_555
Mo2 O36 1.800398 1_555
Mo2 O6 1.837169 1_555
Mo2 O10 1.858084 1_555
Mo3 O7 1.742046 1_555
Mo3 O46 1.800398 1_554
Mo3 O43 1.837169 1_555
Mo3 O11 1.858084 1_555
Mo4 O28 1.757397 1_555
Mo4 O35 1.808163 1_555
Mo4 O15 1.809328 1_555
Mo4 O9 1.841916 1_565
Mo5 O42 1.759379 1_555
Mo5 O21 1.808585 1_555
Mo5 O37 1.810793 1_545
Mo5 O5 1.833268 1_545
Mo6 O12 1.757397 1_555
Mo6 O47 1.808163 1_555
Mo6 O27 1.809328 1_555
Mo6 O0 1.841916 1_545
Mo7 O19 1.742046 1_555
Mo7 O25 1.800398 1_555
Mo7 O13 1.837169 1_555
Mo7 O3 1.858084 1_555
Mo8 O31 1.742046 1_555
Mo8 O23 1.800398 1_556
Mo8 O40 1.837169 1_555
Mo8 O30 1.858084 1_555
Mo9 O26 1.759379 1_555
Mo9 O44 1.808585 1_555
Mo9 O16 1.810793 1_565
Mo9 O45 1.833268 1_565
Mo10 O34 1.759379 1_555
Mo10 O29 1.808585 1_655
Mo10 O14 1.810793 1_565
Mo10 O18 1.833268 1_565
Mo11 O22 1.757397 1_555
Mo11 O20 1.808163 1_555
Mo11 O33 1.809328 1_555
Mo11 O24 1.841916 1_565
