# generated using pymatgen
data_Er2Te4O11
_symmetry_space_group_name_H-M   'P 1'
_cell_length_a   6.65055706
_cell_length_b   6.65055706
_cell_length_c   16.01144338
_cell_angle_alpha   75.44172366
_cell_angle_beta   75.44172366
_cell_angle_gamma   44.90811761
_symmetry_Int_Tables_number   1
_chemical_formula_structural   Er2Te4O11
_chemical_formula_sum   'Er4 Te8 O22'
_cell_volume   481.11083780
_cell_formula_units_Z   2
loop_
 _symmetry_equiv_pos_site_id
 _symmetry_equiv_pos_as_xyz
  1  'x, y, z'
loop_
 _atom_site_type_symbol
 _atom_site_label
 _atom_site_symmetry_multiplicity
 _atom_site_fract_x
 _atom_site_fract_y
 _atom_site_fract_z
 _atom_site_occupancy
  Er  Er0  1  0.63038031  0.13168531  0.03629288  1
  Er  Er1  1  0.36961969  0.86831469  0.96370712  1
  Er  Er2  1  0.13168531  0.63038031  0.53629288  1
  Er  Er3  1  0.86831469  0.36961969  0.46370712  1
  Te  Te0  1  0.84524622  0.40889652  0.12601625  1
  Te  Te1  1  0.15851478  0.59670024  0.19845491  1
  Te  Te2  1  0.59110348  0.15475378  0.37398375  1
  Te  Te3  1  0.84148522  0.40329976  0.80154509  1
  Te  Te4  1  0.59670024  0.15851478  0.69845491  1
  Te  Te5  1  0.15475378  0.59110348  0.87398375  1
  Te  Te6  1  0.40889652  0.84524622  0.62601625  1
  Te  Te7  1  0.40329976  0.84148522  0.30154509  1
  O  O0  1  0.91046535  0.79523904  0.66632856  1
  O  O1  1  0.80987002  0.68350758  0.87356180  1
  O  O2  1  0.19012998  0.31649242  0.12643820  1
  O  O3  1  0.24600327  0.33850064  0.44723562  1
  O  O4  1  0.20476096  0.08953465  0.83367144  1
  O  O5  1  0.31649242  0.19012998  0.62643820  1
  O  O6  1  0.08953465  0.20476096  0.33367144  1
  O  O7  1  0.03679873  0.82325775  0.95569801  1
  O  O8  1  0.82325775  0.03679873  0.45569801  1
  O  O9  1  0.33850064  0.24600327  0.94723562  1
  O  O10  1  0.66149936  0.75399673  0.05276438  1
  O  O11  1  0.84967367  0.15032633  0.75000000  1
  O  O12  1  0.39758795  0.55480316  0.09490630  1
  O  O13  1  0.68350758  0.80987002  0.37356180  1
  O  O14  1  0.60241205  0.44519684  0.90509370  1
  O  O15  1  0.55480316  0.39758795  0.59490630  1
  O  O16  1  0.15032633  0.84967367  0.25000000  1
  O  O17  1  0.44519684  0.60241205  0.40509370  1
  O  O18  1  0.75399673  0.66149936  0.55276438  1
  O  O19  1  0.17674225  0.96320127  0.54430199  1
  O  O20  1  0.96320127  0.17674225  0.04430199  1
  O  O21  1  0.79523904  0.91046535  0.16632856  1
loop_
_geom_bond_atom_site_label_1
_geom_bond_atom_site_label_2
_geom_bond_distance
_geom_bond_site_symmetry_2
Er0 O7 2.214123 1_644
Er0 O21 2.241514 1_545
Er0 O9 2.266160 1_554
Er0 O10 2.319434 1_545
Er0 O12 2.371135 1_555
Er0 O2 2.415882 1_555
Er0 O20 2.471254 1_555
Er0 O14 2.497992 1_554
Er1 O20 2.214123 1_466
Er1 O4 2.241514 1_565
Er1 O10 2.266160 1_556
Er1 O9 2.319434 1_565
Er1 O14 2.371135 1_555
Er1 O1 2.415882 1_555
Er1 O7 2.471254 1_555
Er1 O12 2.497992 1_556
Er2 O8 2.214123 1_465
Er2 O0 2.241514 1_455
Er2 O3 2.266160 1_555
Er2 O18 2.319434 1_455
Er2 O15 2.371135 1_555
Er2 O5 2.415882 1_555
Er2 O19 2.471254 1_555
Er2 O17 2.497992 1_555
Er3 O19 2.214123 1_645
Er3 O6 2.241514 1_655
Er3 O18 2.266160 1_555
Er3 O3 2.319434 1_655
Er3 O17 2.371135 1_555
Er3 O13 2.415882 1_555
Er3 O8 2.471254 1_555
Er3 O15 2.497992 1_555
O0 Te4 1.843900 1_565
O1 Te5 1.909903 1_655
O1 Te3 2.291285 1_555
O2 Te0 1.909903 1_455
O2 Te1 2.291285 1_555
O3 Te2 1.879093 1_555
O4 Te3 1.843900 1_455
O5 Te6 1.909903 1_545
O5 Te4 2.291285 1_555
O6 Te7 1.843900 1_545
O7 Te5 1.869476 1_555
O8 Te2 1.869476 1_555
O9 Te5 1.879093 1_555
O10 Te0 1.879093 1_555
O11 Te4 2.015018 1_555
O11 Te3 2.015018 1_555
O12 Te1 1.906290 1_555
O12 Te0 2.542386 1_555
O13 Te2 1.909903 1_565
O13 Te7 2.291285 1_555
O14 Te3 1.906290 1_555
O14 Te5 2.542386 1_555
O15 Te4 1.906290 1_555
O15 Te6 2.542386 1_555
O16 Te1 2.015018 1_555
O16 Te7 2.015018 1_555
O17 Te7 1.906290 1_555
O17 Te2 2.542386 1_555
O18 Te6 1.879093 1_555
O19 Te6 1.869476 1_555
O20 Te0 1.869476 1_555
O21 Te1 1.843900 1_655
