# generated using pymatgen
data_Ca(CoAs)2
_symmetry_space_group_name_H-M   'P 1'
_cell_length_a   4.00872291
_cell_length_b   4.00872273
_cell_length_c   5.78854213
_cell_angle_alpha   110.25894229
_cell_angle_beta   110.25894749
_cell_angle_gamma   90.00000210
_symmetry_Int_Tables_number   1
_chemical_formula_structural   Ca(CoAs)2
_chemical_formula_sum   'Ca1 Co2 As2'
_cell_volume   81.10471153
_cell_formula_units_Z   1
loop_
 _symmetry_equiv_pos_site_id
 _symmetry_equiv_pos_as_xyz
  1  'x, y, z'
loop_
 _atom_site_type_symbol
 _atom_site_label
 _atom_site_symmetry_multiplicity
 _atom_site_fract_x
 _atom_site_fract_y
 _atom_site_fract_z
 _atom_site_occupancy
  Ca  Ca0  1  0.00000000  0.00000000  0.00000000  1
  Co  Co0  1  0.25000000  0.75000000  0.50000000  1
  Co  Co1  1  0.75000000  0.25000000  0.50000000  1
  As  As0  1  0.36348383  0.36348383  0.72696767  1
  As  As1  1  0.63651617  0.63651617  0.27303233  1
loop_
_geom_bond_atom_site_label_1
_geom_bond_atom_site_label_2
_geom_bond_distance
_geom_bond_site_symmetry_2
Ca0 Co0 3.222660 1_545
Ca0 Co1 3.222660 1_454
Ca0 Co0 3.222660 1_544
Ca0 Co1 3.222660 1_455
Ca0 Co0 3.222660 1_444
Ca0 Co1 3.222660 1_555
Ca0 Co0 3.222660 1_555
Ca0 Co1 3.222660 1_444
As0 Co0 2.308604 1_555
As0 Co1 2.308604 1_555
As0 Co1 2.308604 1_455
As0 Co0 2.308604 1_545
As0 Ca0 3.151794 1_556
As0 Ca0 3.151794 1_656
As0 Ca0 3.151794 1_666
As0 Ca0 3.151794 1_566
As1 Co1 2.308604 1_555
As1 Co0 2.308604 1_555
As1 Co0 2.308604 1_655
As1 Co1 2.308604 1_565
As1 Ca0 3.151794 1_665
As1 Ca0 3.151794 1_565
As1 Ca0 3.151794 1_555
As1 Ca0 3.151794 1_655
