# generated using pymatgen
data_V2Te2O9
_symmetry_space_group_name_H-M   'P 1'
_cell_length_a   14.49778386
_cell_length_b   14.45148393
_cell_length_c   4.93577956
_cell_angle_alpha   80.67853634
_cell_angle_beta   79.66822675
_cell_angle_gamma   19.63163530
_symmetry_Int_Tables_number   1
_chemical_formula_structural   V2Te2O9
_chemical_formula_sum   'V4 Te4 O18'
_cell_volume   341.72518220
_cell_formula_units_Z   2
loop_
 _symmetry_equiv_pos_site_id
 _symmetry_equiv_pos_as_xyz
  1  'x, y, z'
loop_
 _atom_site_type_symbol
 _atom_site_label
 _atom_site_symmetry_multiplicity
 _atom_site_fract_x
 _atom_site_fract_y
 _atom_site_fract_z
 _atom_site_occupancy
  V  V0  1  0.80921650  0.01007096  0.59136544  1
  V  V1  1  0.24025290  0.44043524  0.66117184  1
  V  V2  1  0.66090115  0.65842463  0.24003907  1
  V  V3  1  0.59172173  0.58899927  0.80939998  1
  Te  Te0  1  0.26082505  0.14423890  0.72643929  1
  Te  Te1  1  0.38100921  0.52396962  0.10549614  1
  Te  Te2  1  0.72692934  0.86804194  0.26117265  1
  Te  Te3  1  0.10586127  0.98920113  0.38150004  1
  O  O0  1  0.06749276  0.54258465  0.41444077  1
  O  O1  1  0.70643792  0.18329040  0.27398085  1
  O  O2  1  0.27448605  0.83569152  0.70690815  1
  O  O3  1  0.32546803  0.67449917  0.32558916  1
  O  O4  1  0.34490991  0.84754968  0.14577451  1
  O  O5  1  0.41379996  0.97599623  0.06717096  1
  O  O6  1  0.74178182  0.35145718  0.93652639  1
  O  O7  1  0.80683921  0.47739849  0.94757416  1
  O  O8  1  0.27991876  0.31326197  0.89870053  1
  O  O9  1  0.58844212  0.10397991  0.40257520  1
  O  O10  1  0.48170420  0.30250774  0.77258344  1
  O  O11  1  0.14547519  0.66202975  0.34446286  1
  O  O12  1  0.57591098  0.92406507  0.57593349  1
  O  O13  1  0.89811709  0.50874884  0.27964563  1
  O  O14  1  0.40222736  0.90533089  0.58828728  1
  O  O15  1  0.93625904  0.97056897  0.74111002  1
  O  O16  1  0.94770469  0.76811763  0.80673258  1
  O  O17  1  0.77266276  0.44318323  0.48177456  1
loop_
_geom_bond_atom_site_label_1
_geom_bond_atom_site_label_2
_geom_bond_distance
_geom_bond_site_symmetry_2
O0 V1 1.866087 1_555
O0 Te2 1.874558 1_455
O1 V0 1.865804 1_555
O1 Te1 1.874876 1_555
O2 V3 1.865979 1_555
O2 Te3 1.874977 1_555
O3 Te3 1.926574 1_555
O3 Te1 1.926875 1_555
O4 Te3 1.875131 1_555
O4 V3 2.052926 1_554
O4 V2 2.332370 1_555
O5 V2 1.865810 1_555
O5 Te0 1.874598 1_564
O6 V3 1.623148 1_555
O7 V2 1.762229 1_556
O7 V3 1.929848 1_555
O8 V1 1.623516 1_555
O9 Te2 1.875246 1_545
O9 V1 2.053389 1_555
O9 V0 2.330744 1_555
O10 V0 1.762555 1_555
O10 V1 1.928926 1_555
O11 Te1 1.875100 1_555
O11 V0 2.052869 1_465
O11 V1 2.333807 1_555
O12 Te2 1.926389 1_555
O12 Te0 1.926569 1_565
O13 V2 1.623439 1_555
O14 Te0 1.875158 1_565
O14 V2 2.053770 1_555
O14 V3 2.331978 1_555
O15 V0 1.623422 1_565
O16 V1 1.761960 1_655
O16 V0 1.929813 1_565
O17 V3 1.762428 1_555
O17 V2 1.929143 1_555
