# generated using pymatgen
data_Sr2RhF7
_symmetry_space_group_name_H-M   'P 1'
_cell_length_a   11.67757002
_cell_length_b   5.51078606
_cell_length_c   8.62421066
_cell_angle_alpha   89.31127450
_cell_angle_beta   90.00000000
_cell_angle_gamma   90.00000000
_symmetry_Int_Tables_number   1
_chemical_formula_structural   Sr2RhF7
_chemical_formula_sum   'Sr8 Rh4 F28'
_cell_volume   554.95019839
_cell_formula_units_Z   4
loop_
 _symmetry_equiv_pos_site_id
 _symmetry_equiv_pos_as_xyz
  1  'x, y, z'
loop_
 _atom_site_type_symbol
 _atom_site_label
 _atom_site_symmetry_multiplicity
 _atom_site_fract_x
 _atom_site_fract_y
 _atom_site_fract_z
 _atom_site_occupancy
  Sr  Sr0  1  0.55995997  0.22594203  0.84558316  1
  Sr  Sr1  1  0.05995997  0.77405797  0.65441684  1
  Sr  Sr2  1  0.44004003  0.77405797  0.15441684  1
  Sr  Sr3  1  0.94004003  0.22594203  0.34558316  1
  Sr  Sr4  1  0.70771325  0.76617305  0.55471134  1
  Sr  Sr5  1  0.20771325  0.23382695  0.94528866  1
  Sr  Sr6  1  0.29228675  0.23382695  0.44528866  1
  Sr  Sr7  1  0.79228675  0.76617305  0.05471134  1
  Rh  Rh0  1  0.86730930  0.31202869  0.82099262  1
  Rh  Rh1  1  0.36730930  0.68797131  0.67900738  1
  Rh  Rh2  1  0.13269070  0.68797131  0.17900738  1
  Rh  Rh3  1  0.63269070  0.31202869  0.32099262  1
  F  F0  1  0.39472332  0.10447067  0.98817369  1
  F  F1  1  0.89472332  0.89552933  0.51182631  1
  F  F2  1  0.60527668  0.89552933  0.01182631  1
  F  F3  1  0.10527668  0.10447067  0.48817369  1
  F  F4  1  0.48501642  0.13245840  0.32482362  1
  F  F5  1  0.98501642  0.86754160  0.17517638  1
  F  F6  1  0.51498358  0.86754160  0.67517638  1
  F  F7  1  0.01498358  0.13245840  0.82482362  1
  F  F8  1  0.44615565  0.38467397  0.62607473  1
  F  F9  1  0.94615565  0.61532603  0.87392527  1
  F  F10  1  0.55384435  0.61532603  0.37392527  1
  F  F11  1  0.05384435  0.38467397  0.12607473  1
  F  F12  1  0.39870680  0.58074053  0.89636111  1
  F  F13  1  0.89870680  0.41925947  0.60363889  1
  F  F14  1  0.60129320  0.41925947  0.10363889  1
  F  F15  1  0.10129320  0.58074053  0.39636111  1
  F  F16  1  0.16477944  0.76223040  0.95716936  1
  F  F17  1  0.66477944  0.23776960  0.54283064  1
  F  F18  1  0.83522056  0.23776960  0.04283064  1
  F  F19  1  0.33522056  0.76223040  0.45716936  1
  F  F20  1  0.72424600  0.51484971  0.81338794  1
  F  F21  1  0.22424600  0.48515029  0.68661206  1
  F  F22  1  0.27575400  0.48515029  0.18661206  1
  F  F23  1  0.77575400  0.51484971  0.31338794  1
  F  F24  1  0.72744276  0.01228517  0.28752329  1
  F  F25  1  0.22744276  0.98771483  0.21247671  1
  F  F26  1  0.27255724  0.98771483  0.71247671  1
  F  F27  1  0.77255724  0.01228517  0.78752329  1
loop_
_geom_bond_atom_site_label_1
_geom_bond_atom_site_label_2
_geom_bond_distance
_geom_bond_site_symmetry_2
F0 Sr5 2.325445 1_555
F0 Sr2 2.363950 1_546
F0 Sr0 2.379865 1_555
F1 Sr4 2.325445 1_555
F1 Sr3 2.363950 1_565
F1 Sr1 2.379865 1_655
F2 Sr7 2.325445 1_555
F2 Sr0 2.363950 1_564
F2 Sr2 2.379865 1_555
F3 Sr6 2.325445 1_555
F3 Sr1 2.363950 1_545
F3 Sr3 2.379865 1_455
F4 Rh3 1.988311 1_555
F4 Sr2 2.531071 1_545
F4 Sr6 2.543741 1_555
F5 Rh2 1.988311 1_655
F5 Sr3 2.531071 1_565
F5 Sr7 2.543741 1_555
F6 Rh1 1.988311 1_555
F6 Sr0 2.531071 1_565
F6 Sr4 2.543741 1_555
F7 Rh0 1.988311 1_455
F7 Sr1 2.531071 1_545
F7 Sr5 2.543741 1_555
F8 Rh1 1.966746 1_555
F8 Sr0 2.464805 1_555
F8 Sr6 2.526192 1_555
F9 Rh0 1.966746 1_555
F9 Sr1 2.464805 1_655
F9 Sr7 2.526192 1_556
F10 Rh3 1.966746 1_555
F10 Sr2 2.464805 1_555
F10 Sr4 2.526192 1_555
F11 Rh2 1.966746 1_555
F11 Sr3 2.464805 1_455
F11 Sr5 2.526192 1_554
F12 Rh1 1.992677 1_555
F12 Sr2 2.525445 1_556
F12 Sr0 2.753379 1_555
F12 Sr5 2.964444 1_555
F13 Rh0 1.992677 1_555
F13 Sr3 2.525445 1_555
F13 Sr1 2.753379 1_655
F13 Sr4 2.964444 1_555
F14 Rh3 1.992677 1_555
F14 Sr0 2.525445 1_554
F14 Sr2 2.753379 1_555
F14 Sr7 2.964444 1_555
F15 Rh2 1.992677 1_555
F15 Sr1 2.525445 1_555
F15 Sr3 2.753379 1_455
F15 Sr6 2.964444 1_555
F16 Rh2 1.987286 1_556
F16 Sr5 2.647560 1_565
F16 Sr1 2.883705 1_555
F16 Sr5 2.957753 1_555
F17 Rh3 1.987286 1_555
F17 Sr4 2.647560 1_545
F17 Sr0 2.883705 1_555
F17 Sr4 2.957753 1_555
F18 Rh0 1.987286 1_554
F18 Sr7 2.647560 1_545
F18 Sr3 2.883705 1_555
F18 Sr7 2.957753 1_555
F19 Rh1 1.987286 1_555
F19 Sr6 2.647560 1_565
F19 Sr2 2.883705 1_555
F19 Sr6 2.957753 1_555
F20 Rh0 2.010674 1_555
F20 Sr0 2.506346 1_555
F20 Sr4 2.618782 1_555
F20 Sr7 2.636341 1_556
F21 Rh1 2.010674 1_555
F21 Sr1 2.506346 1_555
F21 Sr5 2.618782 1_555
F21 Sr6 2.636341 1_555
F22 Rh2 2.010674 1_555
F22 Sr2 2.506346 1_555
F22 Sr6 2.618782 1_555
F22 Sr5 2.636341 1_554
F23 Rh3 2.010674 1_555
F23 Sr3 2.506346 1_555
F23 Sr7 2.618782 1_555
F23 Sr4 2.636341 1_555
F24 Rh3 2.011860 1_555
F24 Sr7 2.551403 1_545
F24 Sr4 2.669673 1_545
F24 Sr3 2.795462 1_555
F25 Rh2 2.011860 1_555
F25 Sr6 2.551403 1_565
F25 Sr5 2.669673 1_564
F25 Sr2 2.795462 1_555
F26 Rh1 2.011860 1_555
F26 Sr5 2.551403 1_565
F26 Sr6 2.669673 1_565
F26 Sr1 2.795462 1_555
F27 Rh0 2.011860 1_555
F27 Sr4 2.551403 1_545
F27 Sr7 2.669673 1_546
F27 Sr0 2.795462 1_555
