# generated using pymatgen
data_K4Hf3Te17
_symmetry_space_group_name_H-M   'P 1'
_cell_length_a   31.17634500
_cell_length_b   10.42084000
_cell_length_c   11.97144798
_cell_angle_alpha   63.85531901
_cell_angle_beta   90.00000000
_cell_angle_gamma   90.00000000
_symmetry_Int_Tables_number   1
_chemical_formula_structural   K4Hf3Te17
_chemical_formula_sum   'K16 Hf12 Te68'
_cell_volume   3491.38870531
_cell_formula_units_Z   4
loop_
 _symmetry_equiv_pos_site_id
 _symmetry_equiv_pos_as_xyz
  1  'x, y, z'
loop_
 _atom_site_type_symbol
 _atom_site_label
 _atom_site_symmetry_multiplicity
 _atom_site_fract_x
 _atom_site_fract_y
 _atom_site_fract_z
 _atom_site_occupancy
  K  K0  1  0.98080600  0.73790200  0.46166200  1
  K  K1  1  0.72288800  0.30353300  0.43506200  1
  K  K2  1  0.51919400  0.73790200  0.96166200  1
  K  K3  1  0.93276300  0.22877400  0.01981600  1
  K  K4  1  0.56723700  0.22877400  0.51981600  1
  K  K5  1  0.06723700  0.77122600  0.98018400  1
  K  K6  1  0.70538900  0.75952800  0.96429600  1
  K  K7  1  0.29461100  0.24047200  0.03570400  1
  K  K8  1  0.48080600  0.26209800  0.03833800  1
  K  K9  1  0.27711200  0.69646700  0.56493800  1
  K  K10  1  0.43276300  0.77122600  0.48018400  1
  K  K11  1  0.77711200  0.30353300  0.93506200  1
  K  K12  1  0.20538900  0.24047200  0.53570400  1
  K  K13  1  0.79461100  0.75952800  0.46429600  1
  K  K14  1  0.01919400  0.26209800  0.53833800  1
  K  K15  1  0.22288800  0.69646700  0.06493800  1
  Hf  Hf0  1  0.38203500  0.44884800  0.33412500  1
  Hf  Hf1  1  0.11886300  0.78586400  0.50526500  1
  Hf  Hf2  1  0.88075600  0.88224500  0.82477700  1
  Hf  Hf3  1  0.61886300  0.21413600  0.99473500  1
  Hf  Hf4  1  0.61796500  0.55115200  0.66587500  1
  Hf  Hf5  1  0.88203500  0.55115200  0.16587500  1
  Hf  Hf6  1  0.61924400  0.88224500  0.32477700  1
  Hf  Hf7  1  0.11796500  0.44884800  0.83412500  1
  Hf  Hf8  1  0.38113700  0.78586400  0.00526500  1
  Hf  Hf9  1  0.11924400  0.11775500  0.17522300  1
  Hf  Hf10  1  0.38075600  0.11775500  0.67522300  1
  Hf  Hf11  1  0.88113700  0.21413600  0.49473500  1
  Te  Te0  1  0.67785500  0.31004400  0.77217500  1
  Te  Te1  1  0.17785500  0.68995600  0.72782500  1
  Te  Te2  1  0.05592500  0.69815900  0.71546500  1
  Te  Te3  1  0.59995900  0.20080300  0.24052400  1
  Te  Te4  1  0.11404600  0.13107300  0.91686800  1
  Te  Te5  1  0.90004100  0.20080300  0.74052400  1
  Te  Te6  1  0.70767500  0.60186800  0.70931500  1
  Te  Te7  1  0.44407500  0.69815900  0.21546500  1
  Te  Te8  1  0.46975500  0.00353800  0.65625600  1
  Te  Te9  1  0.29408900  0.99235600  0.65833600  1
  Te  Te10  1  0.69724000  0.93714900  0.63136000  1
  Te  Te11  1  0.79232500  0.60186800  0.20931500  1
  Te  Te12  1  0.10585000  0.98369800  0.62076700  1
  Te  Te13  1  0.02674700  0.40380000  0.78461500  1
  Te  Te14  1  0.61404600  0.86892700  0.58313200  1
  Te  Te15  1  0.61781600  0.62756000  0.26011200  1
  Te  Te16  1  0.88218400  0.62756000  0.76011200  1
  Te  Te17  1  0.32214500  0.68995600  0.22782500  1
  Te  Te18  1  0.43891300  0.38377600  0.54688100  1
  Te  Te19  1  0.94316700  0.97711300  0.60849400  1
  Te  Te20  1  0.55592500  0.30184100  0.78453500  1
  Te  Te21  1  0.56108700  0.61622400  0.45311900  1
  Te  Te22  1  0.60585000  0.01630200  0.87923300  1
  Te  Te23  1  0.47325300  0.40380000  0.28461500  1
  Te  Te24  1  0.17635100  0.62629400  0.41275800  1
  Te  Te25  1  0.82364900  0.37370600  0.58724200  1
  Te  Te26  1  0.18271600  0.01312200  0.38198800  1
  Te  Te27  1  0.10619600  0.47686300  0.57610700  1
  Te  Te28  1  0.97325300  0.59620000  0.21538500  1
  Te  Te29  1  0.40004100  0.79919700  0.75947600  1
  Te  Te30  1  0.68271600  0.98687800  0.11801200  1
  Te  Te31  1  0.29232500  0.39813200  0.29068500  1
  Te  Te32  1  0.89415000  0.01630200  0.37923300  1
  Te  Te33  1  0.32331800  0.37701700  0.54637600  1
  Te  Te34  1  0.94407500  0.30184100  0.28453500  1
  Te  Te35  1  0.38218400  0.37244000  0.73988800  1
  Te  Te36  1  0.44316700  0.02288700  0.89150600  1
  Te  Te37  1  0.39415000  0.98369800  0.12076700  1
  Te  Te38  1  0.55683300  0.97711300  0.10849400  1
  Te  Te39  1  0.81728400  0.98687800  0.61801200  1
  Te  Te40  1  0.19724000  0.06285100  0.86864000  1
  Te  Te41  1  0.67668200  0.62298300  0.45362400  1
  Te  Te42  1  0.82331800  0.62298300  0.95362400  1
  Te  Te43  1  0.80276000  0.93714900  0.13136000  1
  Te  Te44  1  0.89380400  0.52313700  0.42389300  1
  Te  Te45  1  0.60619600  0.52313700  0.92389300  1
  Te  Te46  1  0.38595400  0.13107300  0.41686800  1
  Te  Te47  1  0.96975500  0.99646200  0.84374400  1
  Te  Te48  1  0.67635100  0.37370600  0.08724200  1
  Te  Te49  1  0.20591100  0.99235600  0.15833600  1
  Te  Te50  1  0.70591100  0.00764400  0.34166400  1
  Te  Te51  1  0.03024500  0.00353800  0.15625600  1
  Te  Te52  1  0.53024500  0.99646200  0.34374400  1
  Te  Te53  1  0.39380400  0.47686300  0.07610700  1
  Te  Te54  1  0.31728400  0.01312200  0.88198800  1
  Te  Te55  1  0.88595400  0.86892700  0.08313200  1
  Te  Te56  1  0.52674700  0.59620000  0.71538500  1
  Te  Te57  1  0.30276000  0.06285100  0.36864000  1
  Te  Te58  1  0.11781600  0.37244000  0.23988800  1
  Te  Te59  1  0.82214500  0.31004400  0.27217500  1
  Te  Te60  1  0.09995900  0.79919700  0.25947600  1
  Te  Te61  1  0.32364900  0.62629400  0.91275800  1
  Te  Te62  1  0.05683300  0.02288700  0.39150600  1
  Te  Te63  1  0.93891300  0.61622400  0.95311900  1
  Te  Te64  1  0.06108700  0.38377600  0.04688100  1
  Te  Te65  1  0.79408900  0.00764400  0.84166400  1
  Te  Te66  1  0.20767500  0.39813200  0.79068500  1
  Te  Te67  1  0.17668200  0.37701700  0.04637600  1
loop_
_geom_bond_atom_site_label_1
_geom_bond_atom_site_label_2
_geom_bond_distance
_geom_bond_site_symmetry_2
K0 Te62 3.597907 1_665
K0 Te44 3.669080 1_555
K0 Te2 3.712011 1_655
K0 Te32 3.763811 1_565
K0 Te51 3.806122 1_665
K0 Te19 3.813441 1_555
K0 Te28 3.842541 1_555
K0 Te13 4.154286 1_655
K1 Te10 3.582182 1_545
K1 Te59 3.642283 1_555
K1 Te41 3.722668 1_555
K1 Te50 3.751803 1_555
K1 Te11 3.775025 1_555
K1 Te25 3.859528 1_555
K1 Te48 4.158659 1_555
K2 Te36 3.597907 1_565
K2 Te45 3.669080 1_555
K2 Te7 3.712011 1_556
K2 Te22 3.763811 1_565
K2 Te8 3.806122 1_565
K2 Te38 3.813441 1_556
K2 Te56 3.842541 1_555
K2 Te23 4.154286 1_556
K3 Te34 3.587988 1_555
K3 Te5 3.628186 1_554
K3 Te51 3.746296 1_655
K3 Te63 3.759662 1_554
K3 Te55 3.776385 1_545
K3 Te13 3.913347 1_654
K3 Te47 4.016308 1_544
K3 Te32 4.058243 1_555
K4 Te20 3.587988 1_555
K4 Te3 3.628186 1_555
K4 Te8 3.746296 1_555
K4 Te21 3.759662 1_555
K4 Te14 3.776385 1_545
K4 Te23 3.913347 1_555
K4 Te52 4.016308 1_545
K4 Te22 4.058243 1_555
K5 Te2 3.587988 1_555
K5 Te60 3.628186 1_556
K5 Te47 3.746296 1_455
K5 Te64 3.759662 1_556
K5 Te4 3.776385 1_565
K5 Te28 3.913347 1_456
K5 Te51 4.016308 1_566
K5 Te12 4.058243 1_555
K6 Te10 3.588182 1_555
K6 Te65 3.625244 1_565
K6 Te30 3.652557 1_556
K6 Te48 3.733083 1_556
K6 Te11 3.795010 1_556
K6 Te22 3.927568 1_565
K6 Te42 3.964665 1_555
K6 Te6 4.054844 1_555
K6 Te45 4.112870 1_555
K6 Te15 4.194573 1_556
K7 Te57 3.588182 1_555
K7 Te49 3.625244 1_545
K7 Te54 3.652557 1_554
K7 Te61 3.733083 1_554
K7 Te66 3.795010 1_554
K7 Te37 3.927568 1_545
K7 Te67 3.964665 1_555
K7 Te31 4.054844 1_555
K7 Te53 4.112870 1_555
K7 Te35 4.194573 1_554
K8 Te38 3.597907 1_545
K8 Te53 3.669080 1_555
K8 Te20 3.712011 1_554
K8 Te37 3.763811 1_545
K8 Te52 3.806122 1_545
K8 Te36 3.813441 1_554
K8 Te23 3.842541 1_555
K8 Te56 4.154286 1_554
K9 Te57 3.582182 1_565
K9 Te1 3.642283 1_555
K9 Te33 3.722668 1_555
K9 Te9 3.751803 1_555
K9 Te66 3.775025 1_555
K9 Te24 3.859528 1_555
K9 Te61 4.158659 1_555
K10 Te7 3.587988 1_555
K10 Te29 3.628186 1_555
K10 Te52 3.746296 1_555
K10 Te18 3.759662 1_555
K10 Te46 3.776385 1_565
K10 Te56 3.913347 1_555
K10 Te8 4.016308 1_565
K10 Te37 4.058243 1_555
K11 Te43 3.582182 1_546
K11 Te0 3.642283 1_555
K11 Te42 3.722668 1_555
K11 Te65 3.751803 1_555
K11 Te6 3.775025 1_555
K11 Te48 3.859528 1_556
K11 Te25 4.158659 1_555
K12 Te40 3.588182 1_555
K12 Te9 3.625244 1_545
K12 Te26 3.652557 1_555
K12 Te24 3.733083 1_555
K12 Te31 3.795010 1_555
K12 Te12 3.927568 1_545
K12 Te33 3.964665 1_555
K12 Te66 4.054844 1_555
K12 Te27 4.112870 1_555
K12 Te58 4.194573 1_555
K13 Te43 3.588182 1_555
K13 Te50 3.625244 1_565
K13 Te39 3.652557 1_555
K13 Te25 3.733083 1_555
K13 Te6 3.795010 1_555
K13 Te32 3.927568 1_565
K13 Te41 3.964665 1_555
K13 Te11 4.054844 1_555
K13 Te44 4.112870 1_555
K13 Te16 4.194573 1_555
K14 Te19 3.597907 1_445
K14 Te27 3.669080 1_555
K14 Te34 3.712011 1_455
K14 Te12 3.763811 1_545
K14 Te47 3.806122 1_445
K14 Te62 3.813441 1_555
K14 Te13 3.842541 1_555
K14 Te28 4.154286 1_455
K15 Te40 3.582182 1_564
K15 Te17 3.642283 1_555
K15 Te67 3.722668 1_555
K15 Te49 3.751803 1_555
K15 Te31 3.775025 1_555
K15 Te61 3.859528 1_554
K15 Te24 4.158659 1_555
Hf0 Te18 2.927345 1_555
Hf0 Te17 2.932710 1_555
Hf0 Te31 2.935000 1_555
Hf0 Te33 2.948149 1_555
Hf0 Te23 2.984012 1_555
Hf0 Te53 2.994352 1_555
Hf0 Te46 3.011855 1_555
Hf0 Te7 3.042415 1_555
Hf1 Te60 2.943530 1_555
Hf1 Te26 2.944362 1_565
Hf1 Te62 2.954808 1_565
Hf1 Te24 2.970962 1_555
Hf1 Te27 2.972754 1_555
Hf1 Te12 2.973028 1_555
Hf1 Te2 2.998480 1_555
Hf1 Te1 3.022165 1_555
Hf2 Te39 2.975417 1_555
Hf2 Te19 3.035047 1_555
Hf2 Te42 3.035228 1_555
Hf2 Te55 3.038613 1_556
Hf2 Te65 3.046621 1_565
Hf2 Te47 3.066782 1_555
Hf2 Te5 3.073770 1_565
Hf2 Te16 3.075029 1_555
Hf2 Te63 3.095052 1_555
Hf3 Te3 2.943530 1_556
Hf3 Te30 2.944362 1_546
Hf3 Te38 2.954808 1_546
Hf3 Te48 2.970962 1_556
Hf3 Te45 2.972754 1_555
Hf3 Te22 2.973028 1_555
Hf3 Te20 2.998480 1_555
Hf3 Te0 3.022165 1_555
Hf4 Te21 2.927345 1_555
Hf4 Te0 2.932710 1_555
Hf4 Te6 2.935000 1_555
Hf4 Te41 2.948149 1_555
Hf4 Te56 2.984012 1_555
Hf4 Te45 2.994352 1_555
Hf4 Te14 3.011855 1_555
Hf4 Te20 3.042415 1_555
Hf5 Te63 2.927345 1_554
Hf5 Te59 2.932710 1_555
Hf5 Te11 2.935000 1_555
Hf5 Te42 2.948149 1_554
Hf5 Te28 2.984012 1_555
Hf5 Te44 2.994352 1_555
Hf5 Te55 3.011855 1_555
Hf5 Te34 3.042415 1_555
Hf6 Te30 2.975417 1_555
Hf6 Te38 3.035047 1_555
Hf6 Te41 3.035228 1_555
Hf6 Te14 3.038613 1_555
Hf6 Te50 3.046621 1_565
Hf6 Te52 3.066782 1_555
Hf6 Te3 3.073770 1_565
Hf6 Te15 3.075029 1_555
Hf6 Te21 3.095052 1_555
Hf7 Te64 2.927345 1_556
Hf7 Te1 2.932710 1_555
Hf7 Te66 2.935000 1_555
Hf7 Te67 2.948149 1_556
Hf7 Te13 2.984012 1_555
Hf7 Te27 2.994352 1_555
Hf7 Te4 3.011855 1_555
Hf7 Te2 3.042415 1_555
Hf8 Te29 2.943530 1_554
Hf8 Te54 2.944362 1_564
Hf8 Te36 2.954808 1_564
Hf8 Te61 2.970962 1_554
Hf8 Te53 2.972754 1_555
Hf8 Te37 2.973028 1_555
Hf8 Te7 2.998480 1_555
Hf8 Te17 3.022165 1_555
Hf9 Te26 2.975417 1_555
Hf9 Te62 3.035047 1_555
Hf9 Te67 3.035228 1_555
Hf9 Te4 3.038613 1_554
Hf9 Te49 3.046621 1_545
Hf9 Te51 3.066782 1_555
Hf9 Te60 3.073770 1_545
Hf9 Te58 3.075029 1_555
Hf9 Te64 3.095052 1_555
Hf10 Te54 2.975417 1_555
Hf10 Te36 3.035047 1_555
Hf10 Te33 3.035228 1_555
Hf10 Te46 3.038613 1_555
Hf10 Te9 3.046621 1_545
Hf10 Te8 3.066782 1_555
Hf10 Te29 3.073770 1_545
Hf10 Te35 3.075029 1_555
Hf10 Te18 3.095052 1_555
Hf11 Te5 2.943530 1_555
Hf11 Te39 2.944362 1_545
Hf11 Te19 2.954808 1_545
Hf11 Te25 2.970962 1_555
Hf11 Te44 2.972754 1_555
Hf11 Te32 2.973028 1_555
Hf11 Te34 2.998480 1_555
Hf11 Te59 3.022165 1_555
Te0 Te6 2.943096 1_555
Te1 Te66 2.943096 1_555
Te3 Te52 2.909672 1_545
Te3 Te48 3.061383 1_555
Te4 Te40 2.815617 1_555
Te10 Te14 2.815617 1_555
Te10 Te6 3.211018 1_555
Te10 Te50 3.224140 1_565
Te11 Te59 2.943096 1_555
Te11 Te42 3.123805 1_554
Te11 Te43 3.211018 1_555
Te12 Te62 3.007834 1_565
Te12 Te2 3.096603 1_555
Te13 Te2 2.946911 1_555
Te13 Te64 3.235751 1_556
Te13 Te27 3.357190 1_555
Te15 Te21 2.870560 1_555
Te15 Te41 2.939333 1_555
Te16 Te63 2.870560 1_555
Te16 Te42 2.939333 1_555
Te17 Te31 2.943096 1_555
Te18 Te35 2.870560 1_555
Te18 Te23 3.235751 1_555
Te19 Te32 3.007834 1_565
Te19 Te47 3.026491 1_555
Te20 Te56 2.946911 1_555
Te20 Te22 3.096603 1_555
Te21 Te56 3.235751 1_555
Te22 Te38 3.007834 1_546
Te23 Te7 2.946911 1_555
Te23 Te53 3.357190 1_555
Te24 Te27 2.889475 1_555
Te24 Te60 3.061383 1_555
Te25 Te44 2.889475 1_555
Te25 Te5 3.061383 1_555
Te26 Te49 2.872114 1_545
Te28 Te34 2.946911 1_555
Te28 Te63 3.235751 1_554
Te28 Te44 3.357190 1_555
Te29 Te8 2.909672 1_565
Te29 Te61 3.061383 1_555
Te30 Te50 2.872114 1_565
Te31 Te33 3.123805 1_555
Te31 Te57 3.211018 1_555
Te32 Te34 3.096603 1_555
Te33 Te35 2.939333 1_555
Te36 Te37 3.007834 1_546
Te36 Te8 3.026491 1_555
Te37 Te7 3.096603 1_555
Te38 Te52 3.026491 1_555
Te39 Te65 2.872114 1_565
Te40 Te66 3.211018 1_555
Te40 Te49 3.224140 1_546
Te41 Te6 3.123805 1_555
Te43 Te55 2.815617 1_555
Te43 Te65 3.224140 1_564
Te45 Te48 2.889475 1_556
Te45 Te56 3.357190 1_555
Te46 Te57 2.815617 1_555
Te47 Te5 2.909672 1_565
Te51 Te60 2.909672 1_545
Te51 Te62 3.026491 1_555
Te53 Te61 2.889475 1_554
Te54 Te9 2.872114 1_545
Te57 Te9 3.224140 1_545
Te58 Te64 2.870560 1_555
Te58 Te67 2.939333 1_555
Te66 Te67 3.123805 1_556
