# generated using pymatgen
data_Ba2CoF6
_symmetry_space_group_name_H-M   'P 1'
_cell_length_a   4.11532400
_cell_length_b   4.11532400
_cell_length_c   8.99130766
_cell_angle_alpha   103.22938403
_cell_angle_beta   103.22938403
_cell_angle_gamma   90.00000000
_symmetry_Int_Tables_number   1
_chemical_formula_structural   Ba2CoF6
_chemical_formula_sum   'Ba2 Co1 F6'
_cell_volume   144.08021812
_cell_formula_units_Z   1
loop_
 _symmetry_equiv_pos_site_id
 _symmetry_equiv_pos_as_xyz
  1  'x, y, z'
loop_
 _atom_site_type_symbol
 _atom_site_label
 _atom_site_symmetry_multiplicity
 _atom_site_fract_x
 _atom_site_fract_y
 _atom_site_fract_z
 _atom_site_occupancy
  Ba  Ba0  1  0.15373200  0.15373200  0.30746400  1
  Ba  Ba1  1  0.84626800  0.84626800  0.69253600  1
  Co  Co0  1  0.50000000  0.50000000  0.00000000  1
  F  F0  1  0.62014800  0.62014800  0.24029600  1
  F  F1  1  0.75000000  0.25000000  0.50000000  1
  F  F2  1  0.00000000  0.50000000  0.00000000  1
  F  F3  1  0.50000000  0.00000000  0.00000000  1
  F  F4  1  0.25000000  0.75000000  0.50000000  1
  F  F5  1  0.37985200  0.37985200  0.75970400  1
loop_
_geom_bond_atom_site_label_1
_geom_bond_atom_site_label_2
_geom_bond_distance
_geom_bond_site_symmetry_2
Ba0 F1 2.630009 1_455
Ba0 F4 2.630009 1_545
Ba0 F4 2.630009 1_555
Ba0 F1 2.630009 1_555
Ba0 F0 2.965547 1_445
Ba0 F0 2.965547 1_455
Ba0 F0 2.965547 1_545
Ba0 F0 2.965547 1_555
Ba0 F3 3.328054 1_455
Ba0 F2 3.328054 1_545
Ba0 F3 3.328054 1_555
Ba0 F2 3.328054 1_555
Ba1 F4 2.630009 1_555
Ba1 F4 2.630009 1_655
Ba1 F1 2.630009 1_555
Ba1 F1 2.630009 1_565
Ba1 F5 2.965547 1_555
Ba1 F5 2.965547 1_565
Ba1 F5 2.965547 1_655
Ba1 F5 2.965547 1_665
Ba1 F2 3.328054 1_666
Ba1 F2 3.328054 1_656
Ba1 F3 3.328054 1_566
Ba1 F3 3.328054 1_666
Co0 F5 2.044292 1_554
Co0 F0 2.044292 1_555
Co0 F2 2.057662 1_555
Co0 F2 2.057662 1_655
Co0 F3 2.057662 1_555
Co0 F3 2.057662 1_565
