# generated using pymatgen
data_CaSiO3
_symmetry_space_group_name_H-M   'P 1'
_cell_length_a   6.91711432
_cell_length_b   6.91711432
_cell_length_c   19.79627122
_cell_angle_alpha   89.67195844
_cell_angle_beta   89.67195844
_cell_angle_gamma   120.11036708
_symmetry_Int_Tables_number   1
_chemical_formula_structural   CaSiO3
_chemical_formula_sum   'Ca12 Si12 O36'
_cell_volume   819.31573722
_cell_formula_units_Z   12
loop_
 _symmetry_equiv_pos_site_id
 _symmetry_equiv_pos_as_xyz
  1  'x, y, z'
loop_
 _atom_site_type_symbol
 _atom_site_label
 _atom_site_symmetry_multiplicity
 _atom_site_fract_x
 _atom_site_fract_y
 _atom_site_fract_z
 _atom_site_occupancy
  Ca  Ca0  1  0.67117400  0.32882600  0.75000000  1
  Ca  Ca1  1  0.32882600  0.67117400  0.25000000  1
  Ca  Ca2  1  0.00547600  0.99452400  0.25000000  1
  Ca  Ca3  1  0.67666100  0.34845000  0.49956000  1
  Ca  Ca4  1  0.00000000  0.00000000  0.00000000  1
  Ca  Ca5  1  0.65683400  0.34316600  0.25000000  1
  Ca  Ca6  1  0.65155000  0.32333900  0.00044000  1
  Ca  Ca7  1  0.32333900  0.65155000  0.50044000  1
  Ca  Ca8  1  0.34316600  0.65683400  0.75000000  1
  Ca  Ca9  1  0.34845000  0.67666100  0.99956000  1
  Ca  Ca10  1  0.00000000  0.00000000  0.50000000  1
  Ca  Ca11  1  0.99452400  0.00547600  0.75000000  1
  Si  Si0  1  0.99914900  0.40468500  0.87781800  1
  Si  Si1  1  0.59531500  0.00085100  0.62218200  1
  Si  Si2  1  0.74573200  0.66805700  0.87506300  1
  Si  Si3  1  0.92263700  0.26334900  0.37210800  1
  Si  Si4  1  0.33194300  0.25426800  0.62493700  1
  Si  Si5  1  0.26334900  0.92263700  0.87210800  1
  Si  Si6  1  0.00085100  0.59531500  0.12218200  1
  Si  Si7  1  0.73665100  0.07736300  0.12789200  1
  Si  Si8  1  0.07736300  0.73665100  0.62789200  1
  Si  Si9  1  0.25426800  0.33194300  0.12493700  1
  Si  Si10  1  0.66805700  0.74573200  0.37506300  1
  Si  Si11  1  0.40468500  0.99914900  0.37781800  1
  O  O0  1  0.22562000  0.66250200  0.87487500  1
  O  O1  1  0.99761600  0.30664200  0.95197200  1
  O  O2  1  0.44216500  0.77688600  0.37629600  1
  O  O3  1  0.99411800  0.10900800  0.12614600  1
  O  O4  1  0.37084200  0.03039600  0.94344100  1
  O  O5  1  0.35652800  0.32707500  0.05250900  1
  O  O6  1  0.00346000  0.70510700  0.19353000  1
  O  O7  1  0.77688600  0.44216500  0.87629600  1
  O  O8  1  0.96960400  0.62915800  0.55655900  1
  O  O9  1  0.64347200  0.67292500  0.94749100  1
  O  O10  1  0.33749800  0.77438000  0.62512500  1
  O  O11  1  0.22311400  0.55783500  0.12370400  1
  O  O12  1  0.36363100  0.01903300  0.79792600  1
  O  O13  1  0.64267800  0.66693600  0.80263300  1
  O  O14  1  0.66693600  0.64267800  0.30263300  1
  O  O15  1  0.99654000  0.29489300  0.80647000  1
  O  O16  1  0.32707500  0.35652800  0.55250900  1
  O  O17  1  0.00238400  0.69335800  0.04802800  1
  O  O18  1  0.70510700  0.00346000  0.69353000  1
  O  O19  1  0.98096700  0.63636900  0.70207400  1
  O  O20  1  0.30664200  0.99761600  0.45197200  1
  O  O21  1  0.66250200  0.22562000  0.37487500  1
  O  O22  1  0.67292500  0.64347200  0.44749100  1
  O  O23  1  0.69335800  0.00238400  0.54802800  1
  O  O24  1  0.89099200  0.00588200  0.37385400  1
  O  O25  1  0.63636900  0.98096700  0.20207400  1
  O  O26  1  0.00588200  0.89099200  0.87385400  1
  O  O27  1  0.01903300  0.36363100  0.29792600  1
  O  O28  1  0.62915800  0.96960400  0.05655900  1
  O  O29  1  0.03039600  0.37084200  0.44344100  1
  O  O30  1  0.77438000  0.33749800  0.12512500  1
  O  O31  1  0.29489300  0.99654000  0.30647000  1
  O  O32  1  0.10900800  0.99411800  0.62614600  1
  O  O33  1  0.55783500  0.22311400  0.62370400  1
  O  O34  1  0.33306400  0.35732200  0.69736700  1
  O  O35  1  0.35732200  0.33306400  0.19736700  1
loop_
_geom_bond_atom_site_label_1
_geom_bond_atom_site_label_2
_geom_bond_distance
_geom_bond_site_symmetry_2
Ca0 O19 2.323219 1_555
Ca0 O12 2.323219 1_555
Ca0 O7 2.620775 1_555
Ca0 O33 2.620775 1_555
Ca0 O15 2.631687 1_555
Ca0 O18 2.631687 1_555
Ca0 O13 2.661258 1_555
Ca0 O34 2.661258 1_555
Ca1 O25 2.323219 1_555
Ca1 O27 2.323219 1_555
Ca1 O2 2.620775 1_555
Ca1 O11 2.620775 1_555
Ca1 O31 2.631687 1_555
Ca1 O6 2.631687 1_555
Ca1 O14 2.661258 1_555
Ca1 O35 2.661258 1_555
Ca2 O6 2.292467 1_555
Ca2 O31 2.292467 1_555
Ca2 O3 2.585967 1_465
Ca2 O24 2.585967 1_465
Ca2 O14 2.591777 1_455
Ca2 O35 2.591777 1_565
Ca2 O25 2.686274 1_455
Ca2 O27 2.686274 1_565
Ca3 O8 2.291945 1_555
Ca3 O22 2.292760 1_555
Ca3 O33 2.589295 1_555
Ca3 O21 2.601394 1_555
Ca3 O29 2.613772 1_655
Ca3 O23 2.629921 1_555
Ca3 O16 2.656385 1_555
Ca3 O20 2.673832 1_545
Ca4 O17 2.327101 1_545
Ca4 O1 2.327101 1_454
Ca4 O5 2.595988 1_555
Ca4 O9 2.595988 1_444
Ca4 O26 2.618681 1_544
Ca4 O3 2.618681 1_455
Ca4 O4 2.702065 1_554
Ca4 O28 2.702065 1_445
Ca5 O14 2.294123 1_555
Ca5 O35 2.294123 1_555
Ca5 O30 2.604571 1_555
Ca5 O21 2.604571 1_555
Ca5 O25 2.621065 1_545
Ca5 O27 2.621065 1_655
Ca5 O6 2.679718 1_655
Ca5 O31 2.679718 1_545
Ca6 O4 2.291945 1_554
Ca6 O5 2.292760 1_555
Ca6 O7 2.589295 1_554
Ca6 O30 2.601394 1_555
Ca6 O28 2.613772 1_545
Ca6 O1 2.629921 1_554
Ca6 O9 2.656385 1_554
Ca6 O17 2.673832 1_655
Ca7 O29 2.291945 1_555
Ca7 O16 2.292760 1_555
Ca7 O2 2.589295 1_555
Ca7 O10 2.601394 1_555
Ca7 O8 2.613772 1_455
Ca7 O20 2.629921 1_555
Ca7 O22 2.656385 1_555
Ca7 O23 2.673832 1_565
Ca8 O13 2.294123 1_555
Ca8 O34 2.294123 1_555
Ca8 O10 2.604571 1_555
Ca8 O0 2.604571 1_555
Ca8 O19 2.621065 1_455
Ca8 O12 2.621065 1_565
Ca8 O15 2.679718 1_455
Ca8 O18 2.679718 1_565
Ca9 O28 2.291945 1_556
Ca9 O9 2.292760 1_555
Ca9 O11 2.589295 1_556
Ca9 O0 2.601394 1_555
Ca9 O4 2.613772 1_565
Ca9 O17 2.629921 1_556
Ca9 O5 2.656385 1_556
Ca9 O1 2.673832 1_455
Ca10 O23 2.327101 1_455
Ca10 O20 2.327101 1_545
Ca10 O22 2.595988 1_445
Ca10 O16 2.595988 1_555
Ca10 O32 2.618681 1_545
Ca10 O24 2.618681 1_455
Ca10 O8 2.702065 1_445
Ca10 O29 2.702065 1_555
Ca11 O18 2.292467 1_555
Ca11 O15 2.292467 1_555
Ca11 O26 2.585967 1_645
Ca11 O32 2.585967 1_645
Ca11 O13 2.591777 1_545
Ca11 O34 2.591777 1_655
Ca11 O19 2.686274 1_545
Ca11 O12 2.686274 1_655
O0 Si0 1.683009 1_455
O0 Si5 1.684172 1_555
O1 Si0 1.611268 1_555
O2 Si10 1.681062 1_555
O2 Si11 1.682893 1_555
O3 Si7 1.681931 1_555
O3 Si9 1.682736 1_655
O4 Si5 1.603296 1_545
O5 Si9 1.603154 1_555
O6 Si6 1.603386 1_555
O7 Si2 1.681062 1_555
O7 Si0 1.682893 1_555
O8 Si8 1.603296 1_655
O9 Si2 1.603154 1_555
O10 Si1 1.683009 1_565
O10 Si8 1.684172 1_555
O11 Si9 1.681062 1_555
O11 Si6 1.682893 1_555
O12 Si5 1.611023 1_545
O13 Si2 1.603243 1_555
O14 Si10 1.603243 1_555
O15 Si0 1.603386 1_555
O16 Si4 1.603154 1_555
O17 Si6 1.611268 1_555
O18 Si1 1.603386 1_555
O19 Si8 1.611023 1_655
O20 Si11 1.611268 1_555
O21 Si11 1.683009 1_545
O21 Si3 1.684172 1_555
O22 Si10 1.603154 1_555
O23 Si1 1.611268 1_555
O24 Si3 1.681931 1_555
O24 Si10 1.682736 1_545
O25 Si7 1.611023 1_565
O26 Si5 1.681931 1_555
O26 Si2 1.682736 1_455
O27 Si3 1.611023 1_455
O28 Si7 1.603296 1_565
O29 Si3 1.603296 1_455
O30 Si6 1.683009 1_655
O30 Si7 1.684172 1_555
O31 Si11 1.603386 1_555
O32 Si8 1.681931 1_555
O32 Si4 1.682736 1_565
O33 Si4 1.681062 1_555
O33 Si1 1.682893 1_555
O34 Si4 1.603243 1_555
O35 Si9 1.603243 1_555
