# generated using pymatgen
data_Na4Ti5O12
_symmetry_space_group_name_H-M   'P 1'
_cell_length_a   5.31539286
_cell_length_b   5.31541500
_cell_length_c   9.54356418
_cell_angle_alpha   90.00004262
_cell_angle_beta   89.99989158
_cell_angle_gamma   119.99938059
_symmetry_Int_Tables_number   1
_chemical_formula_structural   Na4Ti5O12
_chemical_formula_sum   'Na4 Ti5 O12'
_cell_volume   233.51591589
_cell_formula_units_Z   1
loop_
 _symmetry_equiv_pos_site_id
 _symmetry_equiv_pos_as_xyz
  1  'x, y, z'
loop_
 _atom_site_type_symbol
 _atom_site_label
 _atom_site_symmetry_multiplicity
 _atom_site_fract_x
 _atom_site_fract_y
 _atom_site_fract_z
 _atom_site_occupancy
  Na  Na0  1  0.66663429  0.33330225  0.90048893  1
  Na  Na1  1  0.33336554  0.66669762  0.09951092  1
  Na  Na2  1  -0.00002176  -0.00002692  0.30992822  1
  Na  Na3  1  0.00002161  0.00002696  0.69007180  1
  Ti  Ti0  1  0.33333132  0.66666746  0.47198775  1
  Ti  Ti1  1  0.00000011  -0.00000038  0.00000043  1
  Ti  Ti2  1  0.33333241  0.66666324  0.78229650  1
  Ti  Ti3  1  0.66666852  0.33333282  0.52801221  1
  Ti  Ti4  1  0.66666759  0.33333635  0.21770393  1
  O  O0  1  0.42749011  0.01659262  0.37778356  1
  O  O1  1  0.58910230  0.57250795  0.37778356  1
  O  O2  1  0.98340606  0.41089598  0.37778399  1
  O  O3  1  0.76325087  0.09525793  0.12126734  1
  O  O4  1  0.90474382  0.66799201  0.12126742  1
  O  O5  1  0.01659388  0.58910423  0.62221548  1
  O  O6  1  0.66799450  0.76324965  0.87873112  1
  O  O7  1  0.09525660  0.33200852  0.87873275  1
  O  O8  1  0.57250939  0.98340727  0.62221581  1
  O  O9  1  0.33200591  0.23675071  0.12126847  1
  O  O10  1  0.41089772  0.42749219  0.62221614  1
  O  O11  1  0.23674920  0.90474156  0.87873267  1
loop_
_geom_bond_atom_site_label_1
_geom_bond_atom_site_label_2
_geom_bond_distance
_geom_bond_site_symmetry_2
Na0 O11 2.290951 1_545
Na0 O7 2.291169 1_655
Na0 O6 2.291171 1_555
Na0 O9 2.637007 1_556
Na0 O3 2.637051 1_556
Na0 O4 2.637177 1_556
Na1 O3 2.290951 1_565
Na1 O4 2.291168 1_455
Na1 O9 2.291170 1_555
Na1 O6 2.637011 1_554
Na1 O11 2.637048 1_554
Na1 O7 2.637173 1_554
Na2 O1 2.321538 1_445
Na2 O0 2.321682 1_555
Na2 O2 2.321716 1_455
Na2 O4 2.391372 1_445
Na2 O3 2.391428 1_455
Na2 O9 2.391508 1_555
Na3 O10 2.321540 1_555
Na3 O8 2.321685 1_445
Na3 O5 2.321717 1_545
Na3 O7 2.391374 1_555
Na3 O11 2.391430 1_545
Na3 O6 2.391503 1_445
O0 Ti0 1.894061 1_545
O0 Ti3 2.089491 1_555
O0 Ti4 2.155091 1_555
O1 Ti0 1.894070 1_555
O1 Ti3 2.089480 1_555
O1 Ti4 2.155056 1_555
O2 Ti0 1.894069 1_655
O2 Ti3 2.089464 1_555
O2 Ti4 2.155075 1_555
O3 Ti4 1.833497 1_555
O3 Ti1 1.953596 1_655
O4 Ti4 1.833489 1_555
O4 Ti1 1.953612 1_665
O5 Ti3 1.894067 1_455
O5 Ti0 2.089460 1_555
O5 Ti2 2.155082 1_555
O6 Ti2 1.833491 1_555
O6 Ti1 1.953621 1_666
O7 Ti2 1.833484 1_555
O7 Ti1 1.953621 1_556
O8 Ti3 1.894060 1_565
O8 Ti0 2.089486 1_555
O8 Ti2 2.155099 1_555
O9 Ti4 1.833494 1_555
O9 Ti1 1.953615 1_555
O10 Ti3 1.894067 1_555
O10 Ti0 2.089479 1_555
O10 Ti2 2.155059 1_555
O11 Ti2 1.833494 1_555
O11 Ti1 1.953599 1_566
