# generated using pymatgen
data_ZrRh
_symmetry_space_group_name_H-M   'P 1'
_cell_length_a   3.42818299
_cell_length_b   4.29947311
_cell_length_c   9.97010182
_cell_angle_alpha   90.00000000
_cell_angle_beta   99.89965045
_cell_angle_gamma   90.00000000
_symmetry_Int_Tables_number   1
_chemical_formula_structural   ZrRh
_chemical_formula_sum   'Zr4 Rh4'
_cell_volume   144.76504822
_cell_formula_units_Z   4
loop_
 _symmetry_equiv_pos_site_id
 _symmetry_equiv_pos_as_xyz
  1  'x, y, z'
loop_
 _atom_site_type_symbol
 _atom_site_label
 _atom_site_symmetry_multiplicity
 _atom_site_fract_x
 _atom_site_fract_y
 _atom_site_fract_z
 _atom_site_occupancy
  Zr  Zr0  1  0.43828554  0.75000000  0.87657208  1
  Zr  Zr1  1  0.30499308  0.25000000  0.60998616  1
  Zr  Zr2  1  0.69500692  0.75000000  0.39001384  1
  Zr  Zr3  1  0.56171446  0.25000000  0.12342792  1
  Rh  Rh0  1  0.05643680  0.75000000  0.11287161  1
  Rh  Rh1  1  0.94356320  0.25000000  0.88712839  1
  Rh  Rh2  1  0.16802842  0.25000000  0.33605584  1
  Rh  Rh3  1  0.83197158  0.75000000  0.66394416  1
loop_
_geom_bond_atom_site_label_1
_geom_bond_atom_site_label_2
_geom_bond_distance
_geom_bond_site_symmetry_2
Rh0 Zr3 2.751403 1_565
Rh0 Zr3 2.751403 1_555
Rh0 Zr3 2.751406 1_465
Rh0 Zr3 2.751406 1_455
Rh0 Zr0 2.885211 1_554
Rh0 Zr0 2.885217 1_454
Rh0 Zr2 3.216730 1_555
Rh0 Zr2 3.216733 1_455
Rh1 Zr0 2.751403 1_545
Rh1 Zr0 2.751403 1_555
Rh1 Zr0 2.751406 1_645
Rh1 Zr0 2.751406 1_655
Rh1 Zr3 2.885211 1_556
Rh1 Zr3 2.885217 1_656
Rh1 Zr1 3.216730 1_555
Rh1 Zr1 3.216733 1_655
Rh2 Zr1 2.690448 1_555
Rh2 Zr3 2.701730 1_555
Rh2 Zr3 2.701730 1_455
Rh2 Zr2 2.800058 1_555
Rh2 Zr2 2.800058 1_545
Rh2 Zr2 2.800060 1_455
Rh2 Zr2 2.800060 1_445
Rh3 Zr2 2.690448 1_555
Rh3 Zr0 2.701730 1_555
Rh3 Zr0 2.701730 1_655
Rh3 Zr1 2.800058 1_565
Rh3 Zr1 2.800058 1_555
Rh3 Zr1 2.800060 1_665
Rh3 Zr1 2.800060 1_655
