# generated using pymatgen
data_CsU6F25
_symmetry_space_group_name_H-M   'P 1'
_cell_length_a   8.22002125
_cell_length_b   8.22002125
_cell_length_c   16.67781700
_cell_angle_alpha   90.00000000
_cell_angle_beta   90.00000000
_cell_angle_gamma   119.99999392
_symmetry_Int_Tables_number   1
_chemical_formula_structural   CsU6F25
_chemical_formula_sum   'Cs2 U12 F50'
_cell_volume   975.92342498
_cell_formula_units_Z   2
loop_
 _symmetry_equiv_pos_site_id
 _symmetry_equiv_pos_as_xyz
  1  'x, y, z'
loop_
 _atom_site_type_symbol
 _atom_site_label
 _atom_site_symmetry_multiplicity
 _atom_site_fract_x
 _atom_site_fract_y
 _atom_site_fract_z
 _atom_site_occupancy
  Cs  Cs0  1  0.66666700  0.33333300  0.25000000  1
  Cs  Cs1  1  0.33333300  0.66666700  0.75000000  1
  U  U0  1  0.83343100  0.16656900  0.61237300  1
  U  U1  1  0.83343100  0.66686100  0.88762700  1
  U  U2  1  0.66686100  0.83343100  0.38762700  1
  U  U3  1  0.16656900  0.83343100  0.38762700  1
  U  U4  1  0.33313900  0.16656900  0.61237300  1
  U  U5  1  0.33313900  0.16656900  0.88762700  1
  U  U6  1  0.16656900  0.83343100  0.11237300  1
  U  U7  1  0.16656900  0.33313900  0.11237300  1
  U  U8  1  0.83343100  0.66686100  0.61237300  1
  U  U9  1  0.16656900  0.33313900  0.38762700  1
  U  U10  1  0.83343100  0.16656900  0.88762700  1
  U  U11  1  0.66686100  0.83343100  0.11237300  1
  F  F0  1  0.66666700  0.33333300  0.93449400  1
  F  F1  1  0.72416200  0.86208100  0.65865700  1
  F  F2  1  0.86208100  0.72416200  0.34134300  1
  F  F3  1  0.48238400  0.51761600  0.35589800  1
  F  F4  1  0.36787400  0.18393700  0.75000000  1
  F  F5  1  0.13791900  0.86208100  0.84134300  1
  F  F6  1  0.32067000  0.00000000  0.50000000  1
  F  F7  1  0.00000000  0.00000000  0.92760600  1
  F  F8  1  0.48238400  0.96476700  0.14410200  1
  F  F9  1  0.33333300  0.66666700  0.43449400  1
  F  F10  1  0.81606300  0.63212600  0.75000000  1
  F  F11  1  0.32067000  0.00000000  0.00000000  1
  F  F12  1  0.51761600  0.03523300  0.64410200  1
  F  F13  1  0.00000000  0.00000000  0.42760600  1
  F  F14  1  0.67933000  0.00000000  0.50000000  1
  F  F15  1  0.86208100  0.72416200  0.15865700  1
  F  F16  1  0.00000000  0.00000000  0.07239400  1
  F  F17  1  0.81606300  0.18393700  0.75000000  1
  F  F18  1  0.27583800  0.13791900  0.34134300  1
  F  F19  1  0.18393700  0.81606300  0.25000000  1
  F  F20  1  0.51761600  0.48238400  0.64410200  1
  F  F21  1  0.96476700  0.48238400  0.85589800  1
  F  F22  1  0.00000000  0.32067000  0.50000000  1
  F  F23  1  0.13791900  0.86208100  0.65865700  1
  F  F24  1  0.48238400  0.51761600  0.14410200  1
  F  F25  1  0.03523300  0.51761600  0.35589800  1
  F  F26  1  0.00000000  0.32067000  0.00000000  1
  F  F27  1  0.33333300  0.66666700  0.06550600  1
  F  F28  1  0.00000000  0.00000000  0.57239400  1
  F  F29  1  0.18393700  0.36787400  0.25000000  1
  F  F30  1  0.03523300  0.51761600  0.14410200  1
  F  F31  1  0.86208100  0.13791900  0.34134300  1
  F  F32  1  0.96476700  0.48238400  0.64410200  1
  F  F33  1  0.51761600  0.48238400  0.85589800  1
  F  F34  1  0.67933000  0.67933000  0.50000000  1
  F  F35  1  0.00000000  0.67933000  0.00000000  1
  F  F36  1  0.32067000  0.32067000  0.00000000  1
  F  F37  1  0.13791900  0.27583800  0.84134300  1
  F  F38  1  0.51761600  0.03523300  0.85589800  1
  F  F39  1  0.48238400  0.96476700  0.35589800  1
  F  F40  1  0.32067000  0.32067000  0.50000000  1
  F  F41  1  0.67933000  0.67933000  0.00000000  1
  F  F42  1  0.63212600  0.81606300  0.25000000  1
  F  F43  1  0.86208100  0.13791900  0.15865700  1
  F  F44  1  0.27583800  0.13791900  0.15865700  1
  F  F45  1  0.13791900  0.27583800  0.65865700  1
  F  F46  1  0.00000000  0.67933000  0.50000000  1
  F  F47  1  0.66666700  0.33333300  0.56550600  1
  F  F48  1  0.67933000  0.00000000  0.00000000  1
  F  F49  1  0.72416200  0.86208100  0.84134300  1
loop_
_geom_bond_atom_site_label_1
_geom_bond_atom_site_label_2
_geom_bond_distance
_geom_bond_site_symmetry_2
Cs0 F3 3.162788 1_555
Cs0 F24 3.162788 1_555
Cs0 F39 3.162788 1_545
Cs0 F8 3.162788 1_545
Cs0 F30 3.162788 1_655
Cs0 F25 3.162788 1_655
Cs0 F43 3.171974 1_555
Cs0 F31 3.171974 1_555
Cs0 F18 3.171981 1_555
Cs0 F15 3.171981 1_555
Cs0 F44 3.171981 1_555
Cs0 F2 3.171981 1_555
Cs1 F20 3.162788 1_555
Cs1 F33 3.162788 1_555
Cs1 F32 3.162788 1_455
Cs1 F21 3.162788 1_455
Cs1 F12 3.162788 1_565
Cs1 F38 3.162788 1_565
Cs1 F5 3.171974 1_555
Cs1 F23 3.171974 1_555
Cs1 F37 3.171981 1_555
Cs1 F1 3.171981 1_555
Cs1 F49 3.171981 1_555
Cs1 F45 3.171981 1_555
F0 U10 2.499653 1_555
F0 U5 2.499654 1_555
F0 U1 2.499654 1_555
F1 U0 2.327878 1_565
F1 U8 2.327885 1_555
F2 U3 2.327878 1_655
F2 U2 2.327885 1_555
F3 U9 2.319948 1_555
F3 U2 2.319948 1_555
F4 U5 2.308598 1_555
F4 U4 2.308598 1_555
F5 U1 2.327880 1_455
F5 U5 2.327880 1_565
F6 U4 2.292873 1_555
F6 U3 2.292875 1_545
F7 U10 2.463474 1_455
F7 U1 2.463481 1_445
F7 U5 2.463481 1_555
F8 U11 2.319934 1_555
F8 U6 2.319949 1_555
F9 U3 2.499653 1_555
F9 U9 2.499654 1_555
F9 U2 2.499654 1_555
F10 U1 2.308598 1_555
F10 U8 2.308598 1_555
F11 U5 2.292873 1_554
F11 U6 2.292875 1_545
F12 U4 2.319934 1_555
F12 U0 2.319949 1_555
F13 U3 2.463474 1_545
F13 U2 2.463481 1_445
F13 U9 2.463481 1_555
F14 U2 2.292873 1_545
F14 U0 2.292875 1_555
F15 U6 2.327878 1_655
F15 U11 2.327885 1_555
F16 U6 2.463474 1_545
F16 U11 2.463481 1_445
F16 U7 2.463481 1_555
F17 U10 2.308599 1_555
F17 U0 2.308599 1_555
F18 U3 2.327878 1_545
F18 U9 2.327885 1_555
F19 U3 2.308599 1_555
F19 U6 2.308599 1_555
F20 U4 2.319948 1_555
F20 U8 2.319948 1_555
F21 U1 2.319934 1_555
F21 U10 2.319949 1_555
F22 U9 2.292873 1_555
F22 U0 2.292875 1_455
F23 U8 2.327880 1_455
F23 U4 2.327880 1_565
F24 U7 2.319948 1_555
F24 U11 2.319948 1_555
F25 U9 2.319934 1_555
F25 U3 2.319949 1_555
F26 U7 2.292873 1_555
F26 U10 2.292875 1_454
F27 U6 2.499653 1_555
F27 U7 2.499654 1_555
F27 U11 2.499654 1_555
F28 U0 2.463474 1_455
F28 U8 2.463481 1_445
F28 U4 2.463481 1_555
F29 U7 2.308598 1_555
F29 U9 2.308598 1_555
F30 U7 2.319934 1_555
F30 U6 2.319949 1_555
F31 U2 2.327880 1_545
F31 U9 2.327880 1_655
F32 U8 2.319934 1_555
F32 U0 2.319949 1_555
F33 U5 2.319948 1_555
F33 U1 2.319948 1_555
F34 U8 2.292878 1_555
F34 U2 2.292878 1_555
F35 U1 2.292873 1_454
F35 U6 2.292875 1_555
F36 U5 2.292878 1_554
F36 U7 2.292878 1_555
F37 U10 2.327878 1_455
F37 U5 2.327885 1_555
F38 U5 2.319934 1_555
F38 U10 2.319949 1_555
F39 U2 2.319934 1_555
F39 U3 2.319949 1_555
F40 U4 2.292878 1_555
F40 U9 2.292878 1_555
F41 U1 2.292878 1_554
F41 U11 2.292878 1_555
F42 U11 2.308598 1_555
F42 U2 2.308598 1_555
F43 U11 2.327880 1_545
F43 U7 2.327880 1_655
F44 U6 2.327878 1_545
F44 U7 2.327885 1_555
F45 U0 2.327878 1_455
F45 U4 2.327885 1_555
F46 U8 2.292873 1_455
F46 U3 2.292875 1_555
F47 U0 2.499653 1_555
F47 U4 2.499654 1_555
F47 U8 2.499654 1_555
F48 U11 2.292873 1_545
F48 U10 2.292875 1_554
F49 U10 2.327878 1_565
F49 U1 2.327885 1_555
