# generated using pymatgen
data_Si2Ge3P6O25
_symmetry_space_group_name_H-M   'P 1'
_cell_length_a   8.08318290
_cell_length_b   8.08318290
_cell_length_c   16.65663800
_cell_angle_alpha   90.00000000
_cell_angle_beta   90.00000000
_cell_angle_gamma   120.00000740
_symmetry_Int_Tables_number   1
_chemical_formula_structural   Si2Ge3P6O25
_chemical_formula_sum   'Si4 Ge6 P12 O50'
_cell_volume   942.50303778
_cell_formula_units_Z   2
loop_
 _symmetry_equiv_pos_site_id
 _symmetry_equiv_pos_as_xyz
  1  'x, y, z'
loop_
 _atom_site_type_symbol
 _atom_site_label
 _atom_site_symmetry_multiplicity
 _atom_site_fract_x
 _atom_site_fract_y
 _atom_site_fract_z
 _atom_site_occupancy
  Si  Si0  1  0.00000000  0.00000000  0.84673800  1
  Si  Si1  1  0.00000000  0.00000000  0.34673800  1
  Si  Si2  1  0.00000000  0.00000000  0.15326200  1
  Si  Si3  1  0.00000000  0.00000000  0.65326200  1
  Ge  Ge0  1  0.33333300  0.66666700  0.47590400  1
  Ge  Ge1  1  0.66666700  0.33333300  0.97590400  1
  Ge  Ge2  1  0.66666700  0.33333300  0.52409600  1
  Ge  Ge3  1  0.33333300  0.66666700  0.02409600  1
  Ge  Ge4  1  0.66666700  0.33333300  0.25000000  1
  Ge  Ge5  1  0.33333300  0.66666700  0.75000000  1
  P  P0  1  0.95248900  0.61471900  0.39189000  1
  P  P1  1  0.38528100  0.04751100  0.10811000  1
  P  P2  1  0.04751100  0.38528100  0.60811000  1
  P  P3  1  0.66222900  0.61471900  0.10811000  1
  P  P4  1  0.04751100  0.66222900  0.89189000  1
  P  P5  1  0.61471900  0.66222900  0.60811000  1
  P  P6  1  0.61471900  0.95248900  0.89189000  1
  P  P7  1  0.95248900  0.33777100  0.10811000  1
  P  P8  1  0.33777100  0.95248900  0.60811000  1
  P  P9  1  0.33777100  0.38528100  0.89189000  1
  P  P10  1  0.38528100  0.33777100  0.39189000  1
  P  P11  1  0.66222900  0.04751100  0.39189000  1
  O  O0  1  0.83837200  0.79439400  0.61748600  1
  O  O1  1  0.46094400  0.57707900  0.09029800  1
  O  O2  1  0.42292100  0.53905600  0.40970200  1
  O  O3  1  0.47119300  0.33502400  0.31072100  1
  O  O4  1  0.53905600  0.42292100  0.90970200  1
  O  O5  1  0.66497600  0.13616800  0.31072100  1
  O  O6  1  0.16162800  0.20560600  0.38251400  1
  O  O7  1  0.16162800  0.95602200  0.11748600  1
  O  O8  1  0.53905600  0.11613500  0.59029800  1
  O  O9  1  0.88386500  0.42292100  0.59029800  1
  O  O10  1  0.19732300  0.44389600  0.54091000  1
  O  O11  1  0.11613500  0.53905600  0.09029800  1
  O  O12  1  0.66497600  0.52880700  0.18927900  1
  O  O13  1  0.47119300  0.13616800  0.18927900  1
  O  O14  1  0.44389600  0.24657300  0.45909000  1
  O  O15  1  0.55610400  0.75342700  0.54091000  1
  O  O16  1  0.75342700  0.19732300  0.45909000  1
  O  O17  1  0.33502400  0.86383200  0.68927900  1
  O  O18  1  0.80267700  0.55610400  0.45909000  1
  O  O19  1  0.42292100  0.88386500  0.09029800  1
  O  O20  1  0.11613500  0.57707900  0.40970200  1
  O  O21  1  0.33502400  0.47119300  0.81072100  1
  O  O22  1  0.04397800  0.83837200  0.38251400  1
  O  O23  1  0.86383200  0.33502400  0.18927900  1
  O  O24  1  0.20560600  0.04397800  0.61748600  1
  O  O25  1  0.44389600  0.19732300  0.04091000  1
  O  O26  1  0.13616800  0.66497600  0.81072100  1
  O  O27  1  0.52880700  0.66497600  0.68927900  1
  O  O28  1  0.80267700  0.24657300  0.04091000  1
  O  O29  1  0.57707900  0.11613500  0.90970200  1
  O  O30  1  0.00000000  0.00000000  0.25000000  1
  O  O31  1  0.19732300  0.75342700  0.95909000  1
  O  O32  1  0.88386500  0.46094400  0.90970200  1
  O  O33  1  0.24657300  0.80267700  0.54091000  1
  O  O34  1  0.95602200  0.16162800  0.61748600  1
  O  O35  1  0.13616800  0.47119300  0.68927900  1
  O  O36  1  0.20560600  0.16162800  0.88251400  1
  O  O37  1  0.75342700  0.55610400  0.04091000  1
  O  O38  1  0.46094400  0.88386500  0.40970200  1
  O  O39  1  0.83837200  0.04397800  0.88251400  1
  O  O40  1  0.79439400  0.95602200  0.38251400  1
  O  O41  1  0.52880700  0.86383200  0.81072100  1
  O  O42  1  0.04397800  0.20560600  0.11748600  1
  O  O43  1  0.79439400  0.83837200  0.11748600  1
  O  O44  1  0.24657300  0.44389600  0.95909000  1
  O  O45  1  0.86383200  0.52880700  0.31072100  1
  O  O46  1  0.57707900  0.46094400  0.59029800  1
  O  O47  1  0.95602200  0.79439400  0.88251400  1
  O  O48  1  0.00000000  0.00000000  0.75000000  1
  O  O49  1  0.55610400  0.80267700  0.95909000  1
loop_
_geom_bond_atom_site_label_1
_geom_bond_atom_site_label_2
_geom_bond_distance
_geom_bond_site_symmetry_2
Ge0 O20 1.884489 1_555
Ge0 O38 1.884490 1_555
Ge0 O2 1.884496 1_555
Ge0 O33 1.908901 1_555
Ge0 O10 1.908906 1_555
Ge0 O15 1.908907 1_555
Ge1 O29 1.884489 1_555
Ge1 O32 1.884490 1_555
Ge1 O4 1.884496 1_555
Ge1 O28 1.908901 1_556
Ge1 O25 1.908906 1_556
Ge1 O37 1.908907 1_556
Ge2 O9 1.884489 1_555
Ge2 O8 1.884490 1_555
Ge2 O46 1.884496 1_555
Ge2 O16 1.908901 1_555
Ge2 O18 1.908906 1_555
Ge2 O14 1.908907 1_555
Ge3 O19 1.884489 1_555
Ge3 O11 1.884490 1_555
Ge3 O1 1.884496 1_555
Ge3 O31 1.908901 1_554
Ge3 O49 1.908906 1_554
Ge3 O44 1.908907 1_554
Ge4 O13 1.881833 1_555
Ge4 O45 1.881833 1_555
Ge4 O5 1.881833 1_555
Ge4 O23 1.881833 1_555
Ge4 O12 1.881833 1_555
Ge4 O3 1.881833 1_555
Ge5 O35 1.881833 1_555
Ge5 O41 1.881833 1_555
Ge5 O26 1.881833 1_555
Ge5 O17 1.881833 1_555
Ge5 O27 1.881833 1_555
Ge5 O21 1.881833 1_555
O0 P5 1.581960 1_555
O0 Si3 1.628730 1_665
O1 P3 1.527342 1_555
O2 P10 1.527342 1_555
O3 P10 1.525147 1_555
O4 P9 1.527342 1_555
O5 P11 1.525140 1_555
O6 P10 1.581960 1_555
O6 Si1 1.628730 1_555
O7 P1 1.581960 1_565
O7 Si2 1.628730 1_565
O8 P8 1.527345 1_545
O9 P2 1.527350 1_655
O10 P2 1.539495 1_555
O11 P7 1.527345 1_455
O12 P3 1.525147 1_555
O13 P1 1.525143 1_555
O14 P10 1.539500 1_555
O15 P5 1.539500 1_555
O16 P11 1.539496 1_555
O17 P8 1.525140 1_555
O18 P0 1.539495 1_555
O19 P1 1.527350 1_565
O20 P0 1.527350 1_455
O21 P9 1.525147 1_555
O22 P0 1.581960 1_455
O22 Si1 1.628730 1_565
O23 P7 1.525140 1_555
O24 P8 1.581967 1_545
O24 Si3 1.628730 1_555
O25 P1 1.539495 1_555
O26 P4 1.525140 1_555
O27 P5 1.525147 1_555
O28 P7 1.539496 1_555
O29 P6 1.527350 1_545
O30 Si1 1.611330 1_555
O30 Si2 1.611330 1_555
O31 P4 1.539496 1_555
O32 P4 1.527345 1_655
O33 P8 1.539496 1_555
O34 P2 1.581960 1_655
O34 Si3 1.628730 1_655
O35 P2 1.525143 1_555
O36 P9 1.581960 1_555
O36 Si0 1.628730 1_555
O37 P3 1.539500 1_555
O38 P11 1.527345 1_565
O39 P6 1.581960 1_545
O39 Si0 1.628730 1_655
O40 P11 1.581967 1_565
O40 Si1 1.628730 1_665
O41 P6 1.525143 1_555
O42 P7 1.581967 1_455
O42 Si2 1.628730 1_555
O43 P3 1.581960 1_555
O43 Si2 1.628730 1_665
O44 P9 1.539500 1_555
O45 P0 1.525143 1_555
O46 P5 1.527342 1_555
O47 P4 1.581967 1_655
O47 Si0 1.628730 1_665
O48 Si3 1.611330 1_555
O48 Si0 1.611330 1_555
O49 P6 1.539495 1_555
