# generated using pymatgen
data_La8Ni4O17
_symmetry_space_group_name_H-M   'P 1'
_cell_length_a   7.81678765
_cell_length_b   7.81678765
_cell_length_c   6.93246202
_cell_angle_alpha   73.16194347
_cell_angle_beta   73.16194347
_cell_angle_gamma   89.09059559
_symmetry_Int_Tables_number   1
_chemical_formula_structural   La8Ni4O17
_chemical_formula_sum   'La8 Ni4 O17'
_cell_volume   386.97465141
_cell_formula_units_Z   1
loop_
 _symmetry_equiv_pos_site_id
 _symmetry_equiv_pos_as_xyz
  1  'x, y, z'
loop_
 _atom_site_type_symbol
 _atom_site_label
 _atom_site_symmetry_multiplicity
 _atom_site_fract_x
 _atom_site_fract_y
 _atom_site_fract_z
 _atom_site_occupancy
  La  La0  1  0.67551600  0.17858600  0.28723500  1
  La  La1  1  0.82141400  0.32448400  0.71276500  1
  La  La2  1  0.16583300  0.67814000  0.28123900  1
  La  La3  1  0.67990200  0.68366800  0.27673600  1
  La  La4  1  0.80761600  0.83065500  0.70835000  1
  La  La5  1  0.32186000  0.83416700  0.71876100  1
  La  La6  1  0.31633200  0.32009800  0.72326400  1
  La  La7  1  0.16934500  0.19238400  0.29165000  1
  Ni  Ni0  1  0.99913600  0.00086400  0.00000000  1
  Ni  Ni1  1  0.49624500  0.50375500  0.00000000  1
  Ni  Ni2  1  0.49162700  0.00376100  0.00808600  1
  Ni  Ni3  1  0.99623900  0.50837300  0.99191400  1
  O  O0  1  0.74701200  0.01043800  0.97736500  1
  O  O1  1  0.91384900  0.47958400  0.33811600  1
  O  O2  1  0.41051300  0.41780500  0.34224000  1
  O  O3  1  0.08140100  0.56888800  0.64773900  1
  O  O4  1  0.50047100  0.25321200  0.99033200  1
  O  O5  1  0.23657800  0.99632900  0.05476500  1
  O  O6  1  0.87259900  0.12740100  0.50000000  1
  O  O7  1  0.23944400  0.50248100  0.00745900  1
  O  O8  1  0.00367100  0.76342200  0.94523500  1
  O  O9  1  0.89486500  0.86306100  0.32856700  1
  O  O10  1  0.13693900  0.10513500  0.67143300  1
  O  O11  1  0.52041600  0.08615100  0.66188400  1
  O  O12  1  0.98956200  0.25298800  0.02263500  1
  O  O13  1  0.49751900  0.76055600  0.99254100  1
  O  O14  1  0.74678800  0.49952900  0.00966800  1
  O  O15  1  0.58219500  0.58948700  0.65776000  1
  O  O16  1  0.43111200  0.91859900  0.35226100  1
loop_
_geom_bond_atom_site_label_1
_geom_bond_atom_site_label_2
_geom_bond_distance
_geom_bond_site_symmetry_2
La0 O6 2.379903 1_555
La0 O11 2.419499 1_555
La0 O12 2.558856 1_555
La0 O14 2.633143 1_555
La0 O16 2.660208 1_545
La0 O4 2.712864 1_554
La0 O0 2.751625 1_554
La0 O2 2.786671 1_555
La0 O9 2.974227 1_545
La0 O1 3.183028 1_555
La1 O6 2.379903 1_555
La1 O1 2.419499 1_555
La1 O0 2.558856 1_555
La1 O4 2.633143 1_555
La1 O3 2.660208 1_655
La1 O14 2.712864 1_556
La1 O12 2.751625 1_556
La1 O15 2.786671 1_555
La1 O10 2.974227 1_655
La1 O11 3.183028 1_555
La2 O3 2.325872 1_555
La2 O1 2.395139 1_455
La2 O5 2.497077 1_555
La2 O9 2.541337 1_455
La2 O7 2.582784 1_555
La2 O13 2.728120 1_554
La2 O2 2.797239 1_555
La2 O8 2.874216 1_554
La2 O16 3.053958 1_555
La3 O9 2.373910 1_555
La3 O15 2.413502 1_555
La3 O1 2.456648 1_555
La3 O14 2.594645 1_555
La3 O13 2.681287 1_554
La3 O16 2.698574 1_555
La3 O0 2.729005 1_564
La3 O8 2.815260 1_654
La3 O2 2.827989 1_555
La4 O6 2.322963 1_565
La4 O9 2.457631 1_555
La4 O8 2.500815 1_655
La4 O0 2.581227 1_565
La4 O13 2.589866 1_555
La4 O14 2.760498 1_556
La4 O15 2.761919 1_555
La4 O3 2.963382 1_655
La4 O11 3.006039 1_565
La5 O16 2.325872 1_555
La5 O11 2.395139 1_565
La5 O8 2.497077 1_555
La5 O10 2.541337 1_565
La5 O13 2.582784 1_555
La5 O7 2.728120 1_556
La5 O15 2.797239 1_555
La5 O5 2.874216 1_556
La5 O3 3.053958 1_555
La6 O10 2.373910 1_555
La6 O2 2.413502 1_555
La6 O11 2.456648 1_555
La6 O4 2.594645 1_555
La6 O7 2.681287 1_556
La6 O3 2.698574 1_555
La6 O12 2.729005 1_456
La6 O5 2.815260 1_546
La6 O15 2.827989 1_555
La7 O6 2.322963 1_455
La7 O10 2.457631 1_555
La7 O5 2.500815 1_545
La7 O12 2.581227 1_455
La7 O7 2.589866 1_555
La7 O4 2.760498 1_554
La7 O2 2.761919 1_555
La7 O16 2.963382 1_545
La7 O1 3.006039 1_455
Ni0 O5 1.997149 1_645
Ni0 O8 1.997149 1_644
Ni0 O0 2.020384 1_554
Ni0 O12 2.020384 1_555
Ni0 O9 2.131616 1_545
Ni0 O10 2.131616 1_654
Ni1 O4 1.978329 1_554
Ni1 O14 1.978329 1_555
Ni1 O13 1.993104 1_554
Ni1 O7 1.993104 1_555
Ni1 O15 2.167775 1_554
Ni1 O2 2.167775 1_555
Ni2 O4 1.918951 1_554
Ni2 O5 1.924010 1_545
Ni2 O13 1.934136 1_544
Ni2 O0 1.945204 1_554
Ni2 O16 2.189923 1_545
Ni2 O11 2.240937 1_554
Ni3 O14 1.918951 1_556
Ni3 O8 1.924010 1_655
Ni3 O7 1.934136 1_656
Ni3 O12 1.945204 1_556
Ni3 O3 2.189923 1_655
Ni3 O1 2.240937 1_556
