# generated using pymatgen
data_Sr3Y2(BO3)4
_symmetry_space_group_name_H-M   'P 1'
_cell_length_a   7.41225600
_cell_length_b   8.74786800
_cell_length_c   16.33863900
_cell_angle_alpha   90.00000000
_cell_angle_beta   90.00000000
_cell_angle_gamma   90.00000000
_symmetry_Int_Tables_number   1
_chemical_formula_structural   Sr3Y2(BO3)4
_chemical_formula_sum   'Sr12 Y8 B16 O48'
_cell_volume   1059.42083253
_cell_formula_units_Z   4
loop_
 _symmetry_equiv_pos_site_id
 _symmetry_equiv_pos_as_xyz
  1  'x, y, z'
loop_
 _atom_site_type_symbol
 _atom_site_label
 _atom_site_symmetry_multiplicity
 _atom_site_fract_x
 _atom_site_fract_y
 _atom_site_fract_z
 _atom_site_occupancy
  Sr  Sr0  1  0.02808000  0.66415500  0.22535000  1
  Sr  Sr1  1  0.30856500  0.65135400  0.68155100  1
  Sr  Sr2  1  0.69143500  0.34864600  0.18155100  1
  Sr  Sr3  1  0.82713700  0.85187600  0.43033400  1
  Sr  Sr4  1  0.67286300  0.35187600  0.93033400  1
  Sr  Sr5  1  0.17286300  0.14812400  0.93033400  1
  Sr  Sr6  1  0.32713700  0.64812400  0.43033400  1
  Sr  Sr7  1  0.80856500  0.84864600  0.68155100  1
  Sr  Sr8  1  0.19143500  0.15135400  0.18155100  1
  Sr  Sr9  1  0.47192000  0.16415500  0.72535000  1
  Sr  Sr10  1  0.97192000  0.33584500  0.72535000  1
  Sr  Sr11  1  0.52808000  0.83584500  0.22535000  1
  Y  Y0  1  0.49497500  0.17639400  0.39030800  1
  Y  Y1  1  0.68355700  0.47135800  0.55747000  1
  Y  Y2  1  0.18355700  0.02864200  0.55747000  1
  Y  Y3  1  0.50502500  0.82360600  0.89030800  1
  Y  Y4  1  0.00502500  0.67639400  0.89030800  1
  Y  Y5  1  0.99497500  0.32360600  0.39030800  1
  Y  Y6  1  0.31644300  0.52864200  0.05747000  1
  Y  Y7  1  0.81644300  0.97135800  0.05747000  1
  B  B0  1  0.16992400  0.95564300  0.35604800  1
  B  B1  1  0.65863300  0.56595000  0.76596400  1
  B  B2  1  0.48642600  0.12557500  0.05180900  1
  B  B3  1  0.83007600  0.04435700  0.85604800  1
  B  B4  1  0.01357400  0.62557500  0.55180900  1
  B  B5  1  0.28902100  0.34659500  0.55371700  1
  B  B6  1  0.84136700  0.06595000  0.26596400  1
  B  B7  1  0.71097800  0.65340500  0.05371700  1
  B  B8  1  0.66992400  0.54435700  0.35604800  1
  B  B9  1  0.98642600  0.37442500  0.05180900  1
  B  B10  1  0.34136700  0.43405000  0.26596400  1
  B  B11  1  0.51357400  0.87442500  0.55180900  1
  B  B12  1  0.78902200  0.15340500  0.55371700  1
  B  B13  1  0.15863300  0.93405000  0.76596400  1
  B  B14  1  0.21097900  0.84659500  0.05371700  1
  B  B15  1  0.33007600  0.45564300  0.85604800  1
  O  O0  1  0.58578100  0.45245600  0.41484600  1
  O  O1  1  0.88814200  0.19346300  0.84703500  1
  O  O2  1  0.88751000  0.97203700  0.20181800  1
  O  O3  1  0.46170200  0.95521600  0.48141600  1
  O  O4  1  0.20276800  0.46796300  0.32041900  1
  O  O5  1  0.70276800  0.03203700  0.32041900  1
  O  O6  1  0.96170200  0.54478400  0.48141600  1
  O  O7  1  0.55540600  0.07390600  0.12578300  1
  O  O8  1  0.94459400  0.57390600  0.62578300  1
  O  O9  1  0.38814200  0.30653700  0.84703500  1
  O  O10  1  0.61249000  0.47203700  0.70181800  1
  O  O11  1  0.12673000  0.98536700  0.05922200  1
  O  O12  1  0.68923500  0.98820600  0.80939700  1
  O  O13  1  0.26800500  0.76712200  0.12167900  1
  O  O14  1  0.91421900  0.95245600  0.91484600  1
  O  O15  1  0.43118900  0.29497100  0.27319600  1
  O  O16  1  0.38751000  0.52796300  0.20181800  1
  O  O17  1  0.26379500  0.27240600  0.47843200  1
  O  O18  1  0.11249000  0.02796300  0.70181800  1
  O  O19  1  0.37327000  0.48536700  0.55922200  1
  O  O20  1  0.93118900  0.20502900  0.27319600  1
  O  O21  1  0.23199500  0.26712200  0.62167900  1
  O  O22  1  0.76800500  0.73287800  0.12167900  1
  O  O23  1  0.08578100  0.04754400  0.41484600  1
  O  O24  1  0.41421900  0.54754400  0.91484600  1
  O  O25  1  0.61185800  0.69346300  0.34703500  1
  O  O26  1  0.18923500  0.51179400  0.80939700  1
  O  O27  1  0.38304500  0.25816500  0.04800700  1
  O  O28  1  0.73199500  0.23287800  0.62167900  1
  O  O29  1  0.44459400  0.92609400  0.62578300  1
  O  O30  1  0.87327000  0.01463300  0.55922200  1
  O  O31  1  0.79723200  0.53203700  0.82041900  1
  O  O32  1  0.73620500  0.72759400  0.97843200  1
  O  O33  1  0.29723200  0.96796300  0.82041900  1
  O  O34  1  0.11185800  0.80653700  0.34703500  1
  O  O35  1  0.56881100  0.70502900  0.77319600  1
  O  O36  1  0.11695500  0.75816500  0.54800700  1
  O  O37  1  0.53829800  0.04478400  0.98141600  1
  O  O38  1  0.05540600  0.42609400  0.12578300  1
  O  O39  1  0.06881100  0.79497100  0.77319600  1
  O  O40  1  0.03829800  0.45521600  0.98141600  1
  O  O41  1  0.62673000  0.51463300  0.05922200  1
  O  O42  1  0.76379500  0.22759400  0.47843200  1
  O  O43  1  0.61695500  0.74183500  0.54800700  1
  O  O44  1  0.88304500  0.24183500  0.04800700  1
  O  O45  1  0.31076500  0.01179400  0.30939700  1
  O  O46  1  0.81076500  0.48820600  0.30939700  1
  O  O47  1  0.23620500  0.77240600  0.97843200  1
loop_
_geom_bond_atom_site_label_1
_geom_bond_atom_site_label_2
_geom_bond_distance
_geom_bond_site_symmetry_2
B0 O34 1.381406 1_555
B0 O45 1.382780 1_565
B0 O23 1.399360 1_565
B1 O10 1.374893 1_555
B1 O31 1.391051 1_555
B1 O35 1.391925 1_555
B2 O7 1.387992 1_555
B2 O27 1.391537 1_555
B2 O37 1.403608 1_554
B3 O1 1.381406 1_555
B3 O12 1.382780 1_545
B3 O14 1.399360 1_545
B4 O8 1.387992 1_455
B4 O36 1.391537 1_555
B4 O6 1.403608 1_455
B5 O19 1.368121 1_555
B5 O21 1.376590 1_555
B5 O17 1.403279 1_555
B6 O2 1.374893 1_545
B6 O5 1.391051 1_555
B6 O20 1.391925 1_555
B7 O41 1.368118 1_555
B7 O22 1.376592 1_555
B7 O32 1.403280 1_554
B8 O25 1.381406 1_555
B8 O46 1.382780 1_555
B8 O0 1.399360 1_555
B9 O38 1.387992 1_655
B9 O44 1.391537 1_555
B9 O40 1.403608 1_654
B10 O16 1.374893 1_555
B10 O4 1.391051 1_555
B10 O15 1.391925 1_555
B11 O29 1.387992 1_555
B11 O43 1.391537 1_555
B11 O3 1.403608 1_555
B12 O30 1.368118 1_555
B12 O28 1.376592 1_555
B12 O42 1.403280 1_555
B13 O18 1.374893 1_565
B13 O33 1.391051 1_555
B13 O39 1.391925 1_555
B14 O11 1.368121 1_555
B14 O13 1.376590 1_555
B14 O47 1.403279 1_554
B15 O9 1.381406 1_555
B15 O26 1.382780 1_555
B15 O24 1.399360 1_555
O0 Y1 2.445977 1_555
O0 Y0 2.538852 1_555
O0 Sr6 2.582496 1_555
O1 Sr10 2.426891 1_555
O1 Sr4 2.513751 1_555
O1 Sr5 2.542342 1_655
O2 Y7 2.416569 1_555
O2 Sr8 2.765006 1_665
O2 Sr0 2.913313 1_655
O2 Sr11 2.943659 1_555
O3 Y0 2.453628 1_565
O3 Y2 2.491427 1_565
O3 Sr3 2.975037 1_555
O3 Sr6 2.984659 1_555
O4 Y5 2.295840 1_455
O4 Sr6 2.561013 1_555
O4 Sr0 2.652335 1_555
O5 Y0 2.295840 1_555
O5 Sr3 2.561013 1_545
O5 Sr11 2.652335 1_545
O6 Y5 2.453628 1_555
O6 Y1 2.491427 1_555
O6 Sr6 2.975037 1_655
O6 Sr3 2.984659 1_555
O7 Y7 2.407125 1_545
O7 Sr11 2.650355 1_545
O7 Sr2 2.761005 1_555
O7 Sr8 2.927050 1_555
O8 Y1 2.407125 1_555
O8 Sr10 2.650355 1_555
O8 Sr7 2.761005 1_555
O8 Sr1 2.927050 1_655
O9 Sr9 2.426891 1_555
O9 Sr5 2.513751 1_555
O9 Sr4 2.542342 1_555
O10 Y1 2.416569 1_555
O10 Sr1 2.765006 1_555
O10 Sr9 2.913313 1_555
O10 Sr10 2.943659 1_555
O11 Y7 2.303367 1_455
O11 Sr8 2.516582 1_565
O11 Sr5 2.564896 1_564
O12 Y3 2.384382 1_555
O12 Sr7 2.576051 1_555
O12 Sr9 2.617144 1_565
O13 Y6 2.362559 1_555
O13 Sr0 2.615931 1_555
O13 Sr11 2.635662 1_555
O14 Y7 2.445977 1_556
O14 Y4 2.538852 1_655
O14 Sr5 2.582496 1_665
O15 Y0 2.227289 1_555
O15 Sr2 2.486689 1_555
O15 Sr8 2.641707 1_555
O16 Y6 2.416569 1_555
O16 Sr2 2.765006 1_555
O16 Sr11 2.913313 1_555
O16 Sr0 2.943659 1_555
O17 Y0 2.390573 1_555
O17 Y5 2.498802 1_455
O17 Y2 2.562920 1_555
O18 Y2 2.416569 1_555
O18 Sr7 2.765006 1_445
O18 Sr10 2.913313 1_455
O18 Sr9 2.943659 1_555
O19 Y1 2.303367 1_555
O19 Sr1 2.516582 1_555
O19 Sr6 2.564896 1_555
O20 Y5 2.227289 1_555
O20 Sr8 2.486689 1_655
O20 Sr2 2.641707 1_555
O21 Y2 2.362559 1_555
O21 Sr9 2.615931 1_555
O21 Sr10 2.635662 1_455
O22 Y7 2.362559 1_555
O22 Sr11 2.615931 1_555
O22 Sr0 2.635662 1_655
O23 Y2 2.445977 1_555
O23 Y5 2.538852 1_455
O23 Sr3 2.582496 1_445
O24 Y6 2.445977 1_556
O24 Y3 2.538852 1_555
O24 Sr4 2.582496 1_555
O25 Sr11 2.426891 1_555
O25 Sr3 2.513751 1_555
O25 Sr6 2.542342 1_555
O26 Y4 2.384382 1_555
O26 Sr1 2.576051 1_555
O26 Sr10 2.617144 1_455
O27 Y6 2.421989 1_555
O27 Sr5 2.655226 1_554
O27 Sr8 2.766043 1_555
O27 Sr4 2.997210 1_554
O28 Y1 2.362559 1_555
O28 Sr10 2.615931 1_555
O28 Sr9 2.635662 1_555
O29 Y2 2.407125 1_565
O29 Sr9 2.650355 1_565
O29 Sr1 2.761005 1_555
O29 Sr7 2.927050 1_555
O30 Y2 2.303367 1_655
O30 Sr7 2.516582 1_545
O30 Sr3 2.564896 1_545
O31 Y4 2.295840 1_655
O31 Sr4 2.561013 1_555
O31 Sr10 2.652335 1_555
O32 Y3 2.390573 1_555
O32 Y4 2.498802 1_655
O32 Y7 2.562920 1_556
O33 Y3 2.295840 1_555
O33 Sr5 2.561013 1_565
O33 Sr9 2.652335 1_565
O34 Sr0 2.426891 1_555
O34 Sr6 2.513751 1_555
O34 Sr3 2.542342 1_455
O35 Y3 2.227289 1_555
O35 Sr1 2.486689 1_555
O35 Sr7 2.641707 1_555
O36 Y2 2.421989 1_565
O36 Sr6 2.655226 1_555
O36 Sr1 2.766043 1_555
O36 Sr3 2.997210 1_455
O37 Y3 2.453628 1_545
O37 Y7 2.491427 1_546
O37 Sr5 2.975037 1_555
O37 Sr4 2.984659 1_555
O38 Y6 2.407125 1_555
O38 Sr0 2.650355 1_555
O38 Sr8 2.761005 1_555
O38 Sr2 2.927050 1_455
O39 Y4 2.227289 1_555
O39 Sr7 2.486689 1_455
O39 Sr1 2.641707 1_555
O40 Y4 2.453628 1_555
O40 Y6 2.491427 1_556
O40 Sr4 2.975037 1_455
O40 Sr5 2.984659 1_555
O41 Y6 2.303367 1_555
O41 Sr2 2.516582 1_555
O41 Sr4 2.564896 1_554
O42 Y5 2.390573 1_555
O42 Y0 2.498802 1_555
O42 Y1 2.562920 1_555
O43 Y1 2.421989 1_555
O43 Sr3 2.655226 1_555
O43 Sr7 2.766043 1_555
O43 Sr6 2.997210 1_555
O44 Y7 2.421989 1_545
O44 Sr4 2.655226 1_554
O44 Sr2 2.766043 1_555
O44 Sr5 2.997210 1_654
O45 Y0 2.384382 1_555
O45 Sr8 2.576051 1_555
O45 Sr11 2.617144 1_545
O46 Y5 2.384382 1_555
O46 Sr2 2.576051 1_555
O46 Sr0 2.617144 1_655
O47 Y4 2.390573 1_555
O47 Y3 2.498802 1_555
O47 Y6 2.562920 1_556
