# generated using pymatgen
data_EuSi2(NO)2
_symmetry_space_group_name_H-M   'P 1'
_cell_length_a   7.13046000
_cell_length_b   7.31469052
_cell_length_c   7.33140030
_cell_angle_alpha   88.77423188
_cell_angle_beta   95.24886207
_cell_angle_gamma   103.96923838
_symmetry_Int_Tables_number   1
_chemical_formula_structural   EuSi2(NO)2
_chemical_formula_sum   'Eu4 Si8 N8 O8'
_cell_volume   369.51968321
_cell_formula_units_Z   4
loop_
 _symmetry_equiv_pos_site_id
 _symmetry_equiv_pos_as_xyz
  1  'x, y, z'
loop_
 _atom_site_type_symbol
 _atom_site_label
 _atom_site_symmetry_multiplicity
 _atom_site_fract_x
 _atom_site_fract_y
 _atom_site_fract_z
 _atom_site_occupancy
  Eu  Eu0  1  0.15064600  0.89084500  0.44234700  1
  Eu  Eu1  1  0.16085200  0.87983800  0.93413900  1
  Eu  Eu2  1  0.63884600  0.77091600  0.68323800  1
  Eu  Eu3  1  0.62633500  0.78171600  0.18984300  1
  Si  Si0  1  0.06072000  0.22967800  0.16665200  1
  Si  Si1  1  0.85686200  0.43279900  0.41752200  1
  Si  Si2  1  0.77364500  0.42919500  0.00582300  1
  Si  Si3  1  0.97647600  0.23270000  0.75213300  1
  Si  Si4  1  0.36519200  0.43469900  0.91707700  1
  Si  Si5  1  0.47096400  0.22427500  0.25856200  1
  Si  Si6  1  0.55817500  0.22359200  0.66775000  1
  Si  Si7  1  0.27606000  0.43876900  0.50472400  1
  N  N0  1  0.42513200  0.39169500  0.69745800  1
  N  N1  1  0.04301000  0.39628800  0.57661400  1
  N  N2  1  0.54039300  0.38295400  0.08059800  1
  N  N3  1  0.14459800  0.27975900  0.94753500  1
  N  N4  1  0.26132700  0.27339300  0.33147000  1
  N  N5  1  0.76370300  0.27127500  0.82557800  1
  N  N6  1  0.91792100  0.38435800  0.19914600  1
  N  N7  1  0.64163200  0.26587800  0.44890500  1
  O  O0  1  0.40996000  0.00447800  0.19397500  1
  O  O1  1  0.37724700  0.65945500  0.92875700  1
  O  O2  1  0.82864500  0.64956600  0.94304300  1
  O  O3  1  0.36180700  0.65380100  0.43712600  1
  O  O4  1  0.42638600  0.00979400  0.68483900  1
  O  O5  1  0.95863300  0.00509100  0.17435500  1
  O  O6  1  0.82957000  0.64783100  0.43137300  1
  O  O7  1  0.95739600  0.01590600  0.68621000  1
loop_
_geom_bond_atom_site_label_1
_geom_bond_atom_site_label_2
_geom_bond_distance
_geom_bond_site_symmetry_2
Eu0 O4 2.526676 1_565
Eu0 O6 2.532841 1_455
Eu0 O5 2.534392 1_465
Eu0 O3 2.559058 1_555
Eu0 O7 2.657320 1_465
Eu0 O0 2.689752 1_565
Eu0 N4 2.840337 1_565
Eu1 O1 2.489138 1_555
Eu1 O0 2.507692 1_566
Eu1 O7 2.556641 1_465
Eu1 O2 2.559252 1_455
Eu1 O5 2.681701 1_466
Eu1 O4 2.742065 1_565
Eu1 N3 2.959478 1_565
Eu2 O2 2.506689 1_555
Eu2 O7 2.529532 1_565
Eu2 O3 2.547304 1_555
Eu2 O4 2.574964 1_565
Eu2 O6 2.681684 1_555
Eu2 O1 2.683545 1_555
Eu2 N0 2.829023 1_555
Eu3 O0 2.502157 1_565
Eu3 O1 2.510492 1_554
Eu3 O6 2.517182 1_555
Eu3 O5 2.543414 1_565
Eu3 O3 2.724144 1_555
Eu3 O2 2.741331 1_554
Eu3 N2 2.944828 1_555
N0 Si6 1.752656 1_555
N0 Si4 1.756865 1_555
N0 Si7 1.768083 1_555
N1 Si7 1.743475 1_555
N1 Si1 1.751594 1_455
N1 Si3 1.756276 1_455
N2 Si2 1.751695 1_555
N2 Si5 1.752300 1_555
N2 Si4 1.753851 1_554
N3 Si4 1.732399 1_555
N3 Si3 1.765077 1_455
N3 Si0 1.765607 1_556
N4 Si5 1.750127 1_555
N4 Si7 1.751488 1_555
N4 Si0 1.757245 1_555
N5 Si3 1.741839 1_555
N5 Si6 1.751706 1_555
N5 Si2 1.759040 1_556
N6 Si0 1.727948 1_655
N6 Si2 1.746697 1_555
N6 Si1 1.761987 1_555
N7 Si1 1.745535 1_555
N7 Si5 1.746304 1_555
N7 Si6 1.757447 1_555
O0 Si5 1.629576 1_555
O1 Si4 1.629102 1_555
O2 Si2 1.630977 1_556
O3 Si7 1.628254 1_555
O4 Si6 1.627292 1_555
O5 Si0 1.630341 1_655
O6 Si1 1.637194 1_555
O7 Si3 1.638107 1_555
