# generated using pymatgen
data_K2Se2O5
_symmetry_space_group_name_H-M   'P 1'
_cell_length_a   9.98339800
_cell_length_b   10.87381500
_cell_length_c   25.74334200
_cell_angle_alpha   90.00000000
_cell_angle_beta   90.00000000
_cell_angle_gamma   90.00000000
_symmetry_Int_Tables_number   1
_chemical_formula_structural   K2Se2O5
_chemical_formula_sum   'K32 Se32 O80'
_cell_volume   2794.63601362
_cell_formula_units_Z   16
loop_
 _symmetry_equiv_pos_site_id
 _symmetry_equiv_pos_as_xyz
  1  'x, y, z'
loop_
 _atom_site_type_symbol
 _atom_site_label
 _atom_site_symmetry_multiplicity
 _atom_site_fract_x
 _atom_site_fract_y
 _atom_site_fract_z
 _atom_site_occupancy
  K  K0  1  0.52508800  0.49561100  0.87025600  1
  K  K1  1  0.00052800  0.79152100  0.99215500  1
  K  K2  1  0.47491200  0.50438900  0.12974400  1
  K  K3  1  0.10752900  0.49684800  0.12589900  1
  K  K4  1  0.45937700  0.75245800  0.74494000  1
  K  K5  1  0.54062300  0.24754200  0.25506000  1
  K  K6  1  0.50052800  0.70847900  0.99215500  1
  K  K7  1  0.49947200  0.79152100  0.49215500  1
  K  K8  1  0.99947200  0.70847900  0.49215500  1
  K  K9  1  0.50052800  0.20847900  0.50784500  1
  K  K10  1  0.97491200  0.49561100  0.37025600  1
  K  K11  1  0.97491200  0.99561100  0.12974400  1
  K  K12  1  0.95937700  0.74754200  0.74494000  1
  K  K13  1  0.89247100  0.50315200  0.87410100  1
  K  K14  1  0.95937700  0.24754200  0.75506000  1
  K  K15  1  0.45937700  0.25245800  0.75506000  1
  K  K16  1  0.60752900  0.50315200  0.37410100  1
  K  K17  1  0.10752900  0.99684800  0.37410100  1
  K  K18  1  0.02508800  0.50438900  0.62974400  1
  K  K19  1  0.00052800  0.29152100  0.50784500  1
  K  K20  1  0.04062300  0.25245800  0.25506000  1
  K  K21  1  0.54062300  0.74754200  0.24494000  1
  K  K22  1  0.39247100  0.99684800  0.87410100  1
  K  K23  1  0.47491200  0.00438900  0.37025600  1
  K  K24  1  0.04062300  0.75245800  0.24494000  1
  K  K25  1  0.60752900  0.00315200  0.12589900  1
  K  K26  1  0.99947200  0.20847900  0.00784500  1
  K  K27  1  0.52508800  0.99561100  0.62974400  1
  K  K28  1  0.89247100  0.00315200  0.62589900  1
  K  K29  1  0.39247100  0.49684800  0.62589900  1
  K  K30  1  0.02508800  0.00438900  0.87025600  1
  K  K31  1  0.49947200  0.29152100  0.00784500  1
  Se  Se0  1  0.28687200  0.49173700  0.48692800  1
  Se  Se1  1  0.71312800  0.50826300  0.51307200  1
  Se  Se2  1  0.32612300  0.29661200  0.38821600  1
  Se  Se3  1  0.30347600  0.20195400  0.13925500  1
  Se  Se4  1  0.21420400  0.00431900  0.73922300  1
  Se  Se5  1  0.71312800  0.00826300  0.98692800  1
  Se  Se6  1  0.80347600  0.29804600  0.13925500  1
  Se  Se7  1  0.71420400  0.49568100  0.73922300  1
  Se  Se8  1  0.78579600  0.49568100  0.23922300  1
  Se  Se9  1  0.78579600  0.99568100  0.26077700  1
  Se  Se10  1  0.21420400  0.50431900  0.76077700  1
  Se  Se11  1  0.17387700  0.79661200  0.61178400  1
  Se  Se12  1  0.82612300  0.20338800  0.38821600  1
  Se  Se13  1  0.28687200  0.99173700  0.01307200  1
  Se  Se14  1  0.78687200  0.50826300  0.01307200  1
  Se  Se15  1  0.28579600  0.50431900  0.26077700  1
  Se  Se16  1  0.82612300  0.70338800  0.11178400  1
  Se  Se17  1  0.21312800  0.99173700  0.51307200  1
  Se  Se18  1  0.21312800  0.49173700  0.98692800  1
  Se  Se19  1  0.17387700  0.29661200  0.88821600  1
  Se  Se20  1  0.30347600  0.70195400  0.36074500  1
  Se  Se21  1  0.78687200  0.00826300  0.48692800  1
  Se  Se22  1  0.80347600  0.79804600  0.36074500  1
  Se  Se23  1  0.19652400  0.70195400  0.86074500  1
  Se  Se24  1  0.67387700  0.70338800  0.61178400  1
  Se  Se25  1  0.69652400  0.29804600  0.63925500  1
  Se  Se26  1  0.69652400  0.79804600  0.86074500  1
  Se  Se27  1  0.28579600  0.00431900  0.23922300  1
  Se  Se28  1  0.32612300  0.79661200  0.11178400  1
  Se  Se29  1  0.19652400  0.20195400  0.63925500  1
  Se  Se30  1  0.67387700  0.20338800  0.88821600  1
  Se  Se31  1  0.71420400  0.99568100  0.76077700  1
  O  O0  1  0.52626500  0.72161800  0.64253000  1
  O  O1  1  0.11763400  0.59062800  0.81267900  1
  O  O2  1  0.26325900  0.32152700  0.17808300  1
  O  O3  1  0.55076500  0.76034700  0.88950000  1
  O  O4  1  0.19624100  0.66822200  0.57604900  1
  O  O5  1  0.80375900  0.33177800  0.42395100  1
  O  O6  1  0.13575600  0.99107600  0.04278300  1
  O  O7  1  0.94923500  0.76034700  0.38950000  1
  O  O8  1  0.60324900  0.59147000  0.56121800  1
  O  O9  1  0.30375900  0.16822200  0.42395100  1
  O  O10  1  0.28468900  0.10677800  0.28827300  1
  O  O11  1  0.21531100  0.60677800  0.71172700  1
  O  O12  1  0.61763400  0.90937200  0.81267900  1
  O  O13  1  0.87305400  0.99670700  0.78396600  1
  O  O14  1  0.44923500  0.23965300  0.11050000  1
  O  O15  1  0.78468900  0.89322200  0.21172700  1
  O  O16  1  0.69624100  0.83177800  0.57604900  1
  O  O17  1  0.36424400  0.49107600  0.95721700  1
  O  O18  1  0.39675100  0.40853000  0.43878200  1
  O  O19  1  0.63575600  0.50892400  0.04278300  1
  O  O20  1  0.39675100  0.90853000  0.06121800  1
  O  O21  1  0.76325900  0.17847300  0.17808300  1
  O  O22  1  0.02626500  0.27838200  0.85747000  1
  O  O23  1  0.36424400  0.99107600  0.54278300  1
  O  O24  1  0.26325900  0.82152700  0.32191700  1
  O  O25  1  0.76325900  0.67847300  0.32191700  1
  O  O26  1  0.77803500  0.11293200  0.53500300  1
  O  O27  1  0.89675100  0.09147000  0.43878200  1
  O  O28  1  0.89675100  0.59147000  0.06121800  1
  O  O29  1  0.72196500  0.61293200  0.46499700  1
  O  O30  1  0.23674100  0.32152700  0.67808300  1
  O  O31  1  0.63575600  0.00892400  0.45721700  1
  O  O32  1  0.22196500  0.88706800  0.46499700  1
  O  O33  1  0.62694600  0.49670700  0.21603400  1
  O  O34  1  0.88236600  0.90937200  0.31267900  1
  O  O35  1  0.05076500  0.23965300  0.61050000  1
  O  O36  1  0.12694600  0.50329300  0.28396600  1
  O  O37  1  0.86424400  0.00892400  0.95721700  1
  O  O38  1  0.73674100  0.67847300  0.82191700  1
  O  O39  1  0.80375900  0.83177800  0.07604900  1
  O  O40  1  0.62694600  0.99670700  0.28396600  1
  O  O41  1  0.28468900  0.60677800  0.21172700  1
  O  O42  1  0.97373500  0.72161800  0.14253000  1
  O  O43  1  0.69624100  0.33177800  0.92395100  1
  O  O44  1  0.23674100  0.82152700  0.82191700  1
  O  O45  1  0.38236600  0.59062800  0.31267900  1
  O  O46  1  0.47373500  0.27838200  0.35747000  1
  O  O47  1  0.88236600  0.40937200  0.18732100  1
  O  O48  1  0.21531100  0.10677800  0.78827300  1
  O  O49  1  0.78468900  0.39322200  0.28827300  1
  O  O50  1  0.97373500  0.22161800  0.35747000  1
  O  O51  1  0.27803500  0.38706800  0.53500300  1
  O  O52  1  0.52626500  0.22161800  0.85747000  1
  O  O53  1  0.73674100  0.17847300  0.67808300  1
  O  O54  1  0.86424400  0.50892400  0.54278300  1
  O  O55  1  0.10324900  0.90853000  0.56121800  1
  O  O56  1  0.87305400  0.49670700  0.71603400  1
  O  O57  1  0.02626500  0.77838200  0.64253000  1
  O  O58  1  0.44923500  0.73965300  0.38950000  1
  O  O59  1  0.30375900  0.66822200  0.07604900  1
  O  O60  1  0.37305400  0.50329300  0.78396600  1
  O  O61  1  0.19624100  0.16822200  0.92395100  1
  O  O62  1  0.37305400  0.00329300  0.71603400  1
  O  O63  1  0.38236600  0.09062800  0.18732100  1
  O  O64  1  0.11763400  0.09062800  0.68732100  1
  O  O65  1  0.94923500  0.26034700  0.11050000  1
  O  O66  1  0.27803500  0.88706800  0.96499700  1
  O  O67  1  0.22196500  0.38706800  0.03500300  1
  O  O68  1  0.12694600  0.00329300  0.21603400  1
  O  O69  1  0.55076500  0.26034700  0.61050000  1
  O  O70  1  0.05076500  0.73965300  0.88950000  1
  O  O71  1  0.77803500  0.61293200  0.96499700  1
  O  O72  1  0.72196500  0.11293200  0.03500300  1
  O  O73  1  0.10324900  0.40853000  0.93878200  1
  O  O74  1  0.71531100  0.89322200  0.71172700  1
  O  O75  1  0.60324900  0.09147000  0.93878200  1
  O  O76  1  0.71531100  0.39322200  0.78827300  1
  O  O77  1  0.13575600  0.49107600  0.45721700  1
  O  O78  1  0.61763400  0.40937200  0.68732100  1
  O  O79  1  0.47373500  0.77838200  0.14253000  1
loop_
_geom_bond_atom_site_label_1
_geom_bond_atom_site_label_2
_geom_bond_distance
_geom_bond_site_symmetry_2
K0 O60 2.691715 1_555
K0 O17 2.755459 1_555
K0 O43 2.829142 1_555
K0 O3 2.932234 1_555
K0 O52 2.997499 1_555
K0 O76 3.049643 1_555
K0 O38 3.157080 1_555
K1 O70 2.748347 1_555
K1 O6 2.868771 1_556
K1 O37 2.872042 1_465
K1 O39 2.952107 1_456
K1 O28 2.994390 1_456
K1 O71 3.032133 1_455
K1 O66 3.040345 1_555
K2 O33 2.691715 1_555
K2 O19 2.755459 1_555
K2 O59 2.829142 1_555
K2 O14 2.932234 1_555
K2 O79 2.997499 1_555
K2 O41 3.049643 1_555
K2 O2 3.157080 1_555
K3 O2 2.802896 1_555
K3 O42 2.817997 1_455
K3 O67 2.864550 1_555
K3 O28 2.873884 1_455
K3 O47 2.908266 1_455
K3 O59 2.992877 1_555
K3 O65 3.044341 1_455
K3 O41 3.072283 1_555
K4 O0 2.740228 1_555
K4 O12 2.906623 1_555
K4 O62 2.955651 1_565
K4 O60 3.015418 1_555
K4 O11 3.029434 1_555
K4 O44 3.071029 1_555
K4 O74 3.098774 1_555
K5 O46 2.740228 1_555
K5 O63 2.906623 1_555
K5 O40 2.955651 1_545
K5 O33 3.015418 1_555
K5 O49 3.029434 1_555
K5 O21 3.071029 1_555
K5 O10 3.098774 1_555
K6 O3 2.748347 1_555
K6 O19 2.868771 1_556
K6 O17 2.872042 1_555
K6 O59 2.952107 1_556
K6 O20 2.994390 1_556
K6 O66 3.032133 1_555
K6 O71 3.040345 1_555
K7 O58 2.748347 1_555
K7 O23 2.868771 1_555
K7 O31 2.872042 1_565
K7 O16 2.952107 1_555
K7 O8 2.994390 1_555
K7 O29 3.032133 1_555
K7 O32 3.040345 1_555
K8 O7 2.748347 1_555
K8 O54 2.868771 1_555
K8 O77 2.872042 1_655
K8 O4 2.952107 1_655
K8 O55 2.994390 1_655
K8 O32 3.032133 1_655
K8 O29 3.040345 1_555
K9 O69 2.748347 1_555
K9 O31 2.868771 1_555
K9 O23 2.872042 1_545
K9 O9 2.952107 1_555
K9 O18 2.994390 1_555
K9 O51 3.032133 1_555
K9 O26 3.040345 1_555
K10 O36 2.691715 1_655
K10 O77 2.755459 1_655
K10 O5 2.829142 1_555
K10 O7 2.932234 1_555
K10 O50 2.997499 1_555
K10 O49 3.049643 1_555
K10 O25 3.157080 1_555
K11 O68 2.691715 1_665
K11 O6 2.755459 1_655
K11 O39 2.829142 1_555
K11 O65 2.932234 1_565
K11 O42 2.997499 1_555
K11 O15 3.049643 1_555
K11 O21 3.157080 1_565
K12 O57 2.740228 1_655
K12 O1 2.906623 1_655
K12 O56 2.955651 1_555
K12 O13 3.015418 1_555
K12 O74 3.029434 1_555
K12 O38 3.071029 1_555
K12 O11 3.098774 1_655
K13 O38 2.802896 1_555
K13 O22 2.817997 1_655
K13 O71 2.864550 1_555
K13 O73 2.873884 1_655
K13 O1 2.908266 1_655
K13 O43 2.992877 1_555
K13 O70 3.044341 1_655
K13 O76 3.072283 1_555
K14 O22 2.740228 1_655
K14 O64 2.906623 1_655
K14 O13 2.955651 1_545
K14 O56 3.015418 1_555
K14 O76 3.029434 1_555
K14 O53 3.071029 1_555
K14 O48 3.098774 1_655
K15 O52 2.740228 1_555
K15 O78 2.906623 1_555
K15 O60 2.955651 1_555
K15 O62 3.015418 1_555
K15 O48 3.029434 1_555
K15 O30 3.071029 1_555
K15 O76 3.098774 1_555
K16 O25 2.802896 1_555
K16 O46 2.817997 1_555
K16 O29 2.864550 1_555
K16 O18 2.873884 1_555
K16 O45 2.908266 1_555
K16 O5 2.992877 1_555
K16 O58 3.044341 1_555
K16 O49 3.072283 1_555
K17 O24 2.802896 1_555
K17 O50 2.817997 1_465
K17 O32 2.864550 1_555
K17 O27 2.873884 1_465
K17 O34 2.908266 1_455
K17 O9 2.992877 1_565
K17 O7 3.044341 1_455
K17 O10 3.072283 1_565
K18 O56 2.691715 1_455
K18 O54 2.755459 1_455
K18 O4 2.829142 1_555
K18 O35 2.932234 1_555
K18 O57 2.997499 1_555
K18 O11 3.049643 1_555
K18 O30 3.157080 1_555
K19 O35 2.748347 1_555
K19 O77 2.868771 1_555
K19 O54 2.872042 1_455
K19 O5 2.952107 1_455
K19 O27 2.994390 1_455
K19 O26 3.032133 1_455
K19 O51 3.040345 1_555
K20 O50 2.740228 1_455
K20 O47 2.906623 1_455
K20 O36 2.955651 1_555
K20 O68 3.015418 1_555
K20 O10 3.029434 1_555
K20 O2 3.071029 1_555
K20 O49 3.098774 1_455
K21 O79 2.740228 1_555
K21 O45 2.906623 1_555
K21 O33 2.955651 1_555
K21 O40 3.015418 1_555
K21 O15 3.029434 1_555
K21 O25 3.071029 1_555
K21 O41 3.098774 1_555
K22 O44 2.802896 1_555
K22 O52 2.817997 1_565
K22 O66 2.864550 1_555
K22 O75 2.873884 1_565
K22 O12 2.908266 1_555
K22 O61 2.992877 1_565
K22 O3 3.044341 1_555
K22 O48 3.072283 1_565
K23 O40 2.691715 1_545
K23 O31 2.755459 1_555
K23 O9 2.829142 1_555
K23 O58 2.932234 1_545
K23 O46 2.997499 1_555
K23 O10 3.049643 1_555
K23 O24 3.157080 1_545
K24 O42 2.740228 1_455
K24 O34 2.906623 1_455
K24 O68 2.955651 1_565
K24 O36 3.015418 1_555
K24 O41 3.029434 1_555
K24 O24 3.071029 1_555
K24 O15 3.098774 1_455
K25 O21 2.802896 1_555
K25 O79 2.817997 1_545
K25 O72 2.864550 1_555
K25 O20 2.873884 1_545
K25 O63 2.908266 1_555
K25 O39 2.992877 1_545
K25 O14 3.044341 1_555
K25 O15 3.072283 1_545
K26 O65 2.748347 1_555
K26 O37 2.868771 1_554
K26 O6 2.872042 1_645
K26 O61 2.952107 1_654
K26 O73 2.994390 1_654
K26 O67 3.032133 1_655
K26 O72 3.040345 1_555
K27 O62 2.691715 1_565
K27 O23 2.755459 1_555
K27 O16 2.829142 1_555
K27 O69 2.932234 1_565
K27 O0 2.997499 1_555
K27 O74 3.049643 1_555
K27 O53 3.157080 1_565
K28 O53 2.802896 1_555
K28 O57 2.817997 1_645
K28 O26 2.864550 1_555
K28 O55 2.873884 1_645
K28 O64 2.908266 1_655
K28 O16 2.992877 1_545
K28 O35 3.044341 1_655
K28 O74 3.072283 1_545
K29 O30 2.802896 1_555
K29 O0 2.817997 1_555
K29 O51 2.864550 1_555
K29 O8 2.873884 1_555
K29 O78 2.908266 1_555
K29 O4 2.992877 1_555
K29 O69 3.044341 1_555
K29 O11 3.072283 1_555
K30 O13 2.691715 1_445
K30 O37 2.755459 1_455
K30 O61 2.829142 1_555
K30 O70 2.932234 1_545
K30 O22 2.997499 1_555
K30 O48 3.049643 1_555
K30 O44 3.157080 1_545
K31 O14 2.748347 1_555
K31 O17 2.868771 1_554
K31 O19 2.872042 1_555
K31 O43 2.952107 1_554
K31 O75 2.994390 1_554
K31 O72 3.032133 1_555
K31 O67 3.040345 1_555
O0 Se24 1.684481 1_555
O1 Se10 1.896187 1_555
O1 Se23 1.901791 1_555
O2 Se3 1.688457 1_555
O3 Se26 1.683310 1_555
O4 Se11 1.686772 1_555
O5 Se12 1.686772 1_555
O6 Se13 1.691476 1_555
O7 Se22 1.683310 1_555
O8 Se1 1.886310 1_555
O8 Se24 1.916436 1_555
O9 Se2 1.686772 1_555
O10 Se27 1.683991 1_555
O11 Se10 1.683991 1_555
O12 Se31 1.896187 1_555
O12 Se26 1.901791 1_555
O13 Se31 1.694535 1_555
O14 Se3 1.683310 1_555
O15 Se9 1.683991 1_555
O16 Se24 1.686772 1_555
O17 Se18 1.691476 1_555
O18 Se0 1.886310 1_555
O18 Se2 1.916436 1_555
O19 Se14 1.691476 1_555
O20 Se13 1.886310 1_555
O20 Se28 1.916436 1_555
O21 Se6 1.688457 1_555
O22 Se19 1.684481 1_555
O23 Se17 1.691476 1_555
O24 Se20 1.688457 1_555
O25 Se22 1.688457 1_555
O26 Se21 1.683702 1_555
O27 Se21 1.886310 1_555
O27 Se12 1.916436 1_555
O28 Se14 1.886310 1_555
O28 Se16 1.916436 1_555
O29 Se1 1.683702 1_555
O30 Se29 1.688457 1_555
O31 Se21 1.691476 1_555
O32 Se17 1.683702 1_555
O33 Se8 1.694535 1_555
O34 Se9 1.896187 1_555
O34 Se22 1.901791 1_555
O35 Se29 1.683310 1_555
O36 Se15 1.694535 1_555
O37 Se5 1.691476 1_555
O38 Se26 1.688457 1_555
O39 Se16 1.686772 1_555
O40 Se9 1.694535 1_555
O41 Se15 1.683991 1_555
O42 Se16 1.684481 1_555
O43 Se30 1.686772 1_555
O44 Se23 1.688457 1_555
O45 Se15 1.896187 1_555
O45 Se20 1.901791 1_555
O46 Se2 1.684481 1_555
O47 Se8 1.896187 1_555
O47 Se6 1.901791 1_555
O48 Se4 1.683991 1_555
O49 Se8 1.683991 1_555
O50 Se12 1.684481 1_555
O51 Se0 1.683702 1_555
O52 Se30 1.684481 1_555
O53 Se25 1.688457 1_555
O54 Se1 1.691476 1_555
O55 Se17 1.886310 1_555
O55 Se11 1.916436 1_555
O56 Se7 1.694535 1_555
O57 Se11 1.684481 1_555
O58 Se20 1.683310 1_555
O59 Se28 1.686772 1_555
O60 Se10 1.694535 1_555
O61 Se19 1.686772 1_555
O62 Se4 1.694535 1_555
O63 Se27 1.896187 1_555
O63 Se3 1.901791 1_555
O64 Se4 1.896187 1_555
O64 Se29 1.901791 1_555
O65 Se6 1.683310 1_555
O66 Se13 1.683702 1_556
O67 Se18 1.683702 1_554
O68 Se27 1.694535 1_555
O69 Se25 1.683310 1_555
O70 Se23 1.683310 1_555
O71 Se14 1.683702 1_556
O72 Se5 1.683702 1_554
O73 Se18 1.886310 1_555
O73 Se19 1.916436 1_555
O74 Se31 1.683991 1_555
O75 Se5 1.886310 1_555
O75 Se30 1.916436 1_555
O76 Se7 1.683991 1_555
O77 Se0 1.691476 1_555
O78 Se7 1.896187 1_555
O78 Se25 1.901791 1_555
O79 Se28 1.684481 1_555
