# generated using pymatgen
data_C2S(NCl)3
_symmetry_space_group_name_H-M   'P 1'
_cell_length_a   7.76592100
_cell_length_b   8.32605600
_cell_length_c   12.57591833
_cell_angle_alpha   84.22908205
_cell_angle_beta   90.00000000
_cell_angle_gamma   90.00000000
_symmetry_Int_Tables_number   1
_chemical_formula_structural   C2S(NCl)3
_chemical_formula_sum   'C8 S4 N12 Cl12'
_cell_volume   809.03134617
_cell_formula_units_Z   4
loop_
 _symmetry_equiv_pos_site_id
 _symmetry_equiv_pos_as_xyz
  1  'x, y, z'
loop_
 _atom_site_type_symbol
 _atom_site_label
 _atom_site_symmetry_multiplicity
 _atom_site_fract_x
 _atom_site_fract_y
 _atom_site_fract_z
 _atom_site_occupancy
  C  C0  1  0.02534100  0.35125100  0.15999700  1
  C  C1  1  0.76934700  0.39847100  0.23944800  1
  C  C2  1  0.47465900  0.85125100  0.15999700  1
  C  C3  1  0.73065300  0.89847100  0.23944800  1
  C  C4  1  0.23065300  0.60152900  0.76055200  1
  C  C5  1  0.97465900  0.64874900  0.84000300  1
  C  C6  1  0.52534100  0.14874900  0.84000300  1
  C  C7  1  0.26934700  0.10152900  0.76055200  1
  S  S0  1  0.03712200  0.45833900  0.33952100  1
  S  S1  1  0.46287800  0.95833900  0.33952100  1
  S  S2  1  0.53712200  0.04166100  0.66047900  1
  S  S3  1  0.96287800  0.54166100  0.66047900  1
  N  N0  1  0.37223200  0.91361000  0.22999000  1
  N  N1  1  0.83056600  0.46855200  0.32196600  1
  N  N2  1  0.35407300  0.16662200  0.83829600  1
  N  N3  1  0.64592700  0.83337800  0.16170400  1
  N  N4  1  0.33056600  0.03144800  0.67803400  1
  N  N5  1  0.16943400  0.53144800  0.67803400  1
  N  N6  1  0.14592700  0.66662200  0.83829600  1
  N  N7  1  0.66943400  0.96855200  0.32196600  1
  N  N8  1  0.85407300  0.33337800  0.16170400  1
  N  N9  1  0.12776800  0.41361000  0.22999000  1
  N  N10  1  0.87223200  0.58639000  0.77001000  1
  N  N11  1  0.62776800  0.08639000  0.77001000  1
  Cl  Cl0  1  0.45167500  0.60241100  0.77115000  1
  Cl  Cl1  1  0.06853700  0.23697300  0.44511300  1
  Cl  Cl2  1  0.04832500  0.10241100  0.77115000  1
  Cl  Cl3  1  0.54832500  0.39758900  0.22885000  1
  Cl  Cl4  1  0.62804800  0.20972400  0.95019100  1
  Cl  Cl5  1  0.93146300  0.76302700  0.55488700  1
  Cl  Cl6  1  0.43146300  0.73697300  0.44511300  1
  Cl  Cl7  1  0.37195200  0.79027600  0.04980900  1
  Cl  Cl8  1  0.12804800  0.29027600  0.04980900  1
  Cl  Cl9  1  0.87195200  0.70972400  0.95019100  1
  Cl  Cl10  1  0.95167500  0.89758900  0.22885000  1
  Cl  Cl11  1  0.56853700  0.26302700  0.55488700  1
loop_
_geom_bond_atom_site_label_1
_geom_bond_atom_site_label_2
_geom_bond_distance
_geom_bond_site_symmetry_2
C0 N9 1.330039 1_555
C0 N8 1.338285 1_455
C0 Cl8 1.719189 1_555
C1 N1 1.328598 1_555
C1 N8 1.337581 1_555
C1 Cl3 1.721679 1_555
C2 N0 1.330039 1_555
C2 N3 1.338285 1_555
C2 Cl7 1.719189 1_555
C3 N7 1.328598 1_555
C3 N3 1.337581 1_555
C3 Cl10 1.721679 1_555
C4 N5 1.328598 1_555
C4 N6 1.337581 1_555
C4 Cl0 1.721679 1_555
C5 N10 1.330039 1_555
C5 N6 1.338285 1_655
C5 Cl9 1.719189 1_555
C6 N11 1.330039 1_555
C6 N2 1.338285 1_555
C6 Cl4 1.719189 1_555
C7 N4 1.328598 1_555
C7 N2 1.337581 1_555
C7 Cl2 1.721679 1_555
N0 S1 1.623200 1_555
N1 S0 1.620285 1_655
N4 S2 1.620285 1_555
N5 S3 1.620285 1_455
N7 S1 1.620285 1_555
N9 S0 1.623200 1_555
N10 S3 1.623200 1_555
N11 S2 1.623200 1_555
Cl1 S0 2.174333 1_555
Cl5 S3 2.174333 1_555
Cl6 S1 2.174333 1_555
Cl11 S2 2.174333 1_555
