# generated using pymatgen
data_Sr2NdGaCu2O7
_symmetry_space_group_name_H-M   'P 1'
_cell_length_a   12.28242115
_cell_length_b   12.28242115
_cell_length_c   12.28242115
_cell_angle_alpha   154.27061147
_cell_angle_beta   153.69685023
_cell_angle_gamma   37.12539059
_symmetry_Int_Tables_number   1
_chemical_formula_structural   Sr2NdGaCu2O7
_chemical_formula_sum   'Sr4 Nd2 Ga2 Cu4 O14'
_cell_volume   355.93078093
_cell_formula_units_Z   2
loop_
 _symmetry_equiv_pos_site_id
 _symmetry_equiv_pos_as_xyz
  1  'x, y, z'
loop_
 _atom_site_type_symbol
 _atom_site_label
 _atom_site_symmetry_multiplicity
 _atom_site_fract_x
 _atom_site_fract_y
 _atom_site_fract_z
 _atom_site_occupancy
  Sr  Sr0  1  0.63353600  0.65303300  0.98133000  1
  Sr  Sr1  1  0.36646400  0.34779300  0.01949700  1
  Sr  Sr2  1  0.17170300  0.15303300  0.01949700  1
  Sr  Sr3  1  0.82829700  0.84779300  0.98133000  1
  Nd  Nd0  1  0.50000000  0.49919700  0.99919700  1
  Nd  Nd1  1  0.00000000  0.99919700  0.99919700  1
  Ga  Ga0  1  0.82082000  0.28253800  0.60335800  1
  Ga  Ga1  1  0.17918000  0.78253800  0.46171900  1
  Cu  Cu0  1  0.57651200  0.07358700  0.49968900  1
  Cu  Cu1  1  0.42348800  0.92317700  0.49707500  1
  Cu  Cu2  1  0.07389900  0.57358700  0.49707500  1
  Cu  Cu3  1  0.92610100  0.42317700  0.49968900  1
  O  O0  1  0.13005200  0.13100100  0.76105300  1
  O  O1  1  0.86994800  0.63100100  0.00094800  1
  O  O2  1  0.81801000  0.81632000  0.49913400  1
  O  O3  1  0.18199000  0.68112400  0.99831000  1
  O  O4  1  0.81718600  0.31632000  0.99831000  1
  O  O5  1  0.18281400  0.18112400  0.49913400  1
  O  O6  1  0.31712100  0.31476100  0.50120000  1
  O  O7  1  0.68287900  0.18408000  0.99764100  1
  O  O8  1  0.31356100  0.81476100  0.99764100  1
  O  O9  1  0.68643900  0.68408000  0.50120000  1
  O  O10  1  0.22428200  0.64374000  0.51310800  1
  O  O11  1  0.77571800  0.28882500  0.41945700  1
  O  O12  1  0.63063200  0.14374000  0.41945700  1
  O  O13  1  0.36936800  0.78882500  0.51310800  1
loop_
_geom_bond_atom_site_label_1
_geom_bond_atom_site_label_2
_geom_bond_distance
_geom_bond_site_symmetry_2
Nd0 O7 2.471078 1_555
Nd0 O6 2.471081 1_555
Nd0 O9 2.483643 1_556
Nd0 O8 2.483643 1_555
Nd0 O3 2.509846 1_555
Nd0 O2 2.509846 1_556
Nd0 O4 2.510113 1_555
Nd0 O5 2.510113 1_555
Nd1 O8 2.471074 1_555
Nd1 O9 2.471074 1_455
Nd1 O6 2.483650 1_566
Nd1 O7 2.483653 1_465
Nd1 O4 2.509846 1_465
Nd1 O5 2.509846 1_566
Nd1 O2 2.510113 1_455
Nd1 O3 2.510113 1_555
Ga0 O12 1.848614 1_555
Ga0 O11 1.848624 1_555
Ga0 O0 1.916804 1_655
Ga0 O1 1.925541 1_556
Ga1 O10 1.848612 1_555
Ga1 O13 1.848624 1_555
Ga1 O1 1.916811 1_455
Ga1 O0 1.925542 1_565
Cu0 O4 1.957488 1_555
Cu0 O2 1.958161 1_545
Cu0 O6 1.970530 1_555
Cu0 O8 1.976822 1_544
Cu0 O12 2.402713 1_555
Cu1 O5 1.957488 1_565
Cu1 O3 1.958161 1_554
Cu1 O7 1.970534 1_565
Cu1 O9 1.976822 1_555
Cu1 O13 2.402713 1_555
Cu2 O2 1.957493 1_455
Cu2 O4 1.958162 1_454
Cu2 O8 1.970537 1_555
Cu2 O6 1.976822 1_555
Cu2 O10 2.402689 1_555
Cu3 O3 1.957489 1_655
Cu3 O5 1.958166 1_655
Cu3 O9 1.970533 1_555
Cu3 O7 1.976822 1_554
Cu3 O11 2.402690 1_555
O0 Sr1 2.484502 1_556
O0 Sr2 2.484512 1_556
O1 Sr3 2.484489 1_554
O1 Sr0 2.484523 1_554
O2 Sr0 2.834284 1_554
O2 Sr2 2.840759 1_666
O3 Sr1 2.834295 1_556
O3 Sr3 2.840764 1_455
O4 Sr2 2.834284 1_656
O4 Sr0 2.840759 1_555
O5 Sr3 2.834292 1_444
O5 Sr1 2.840767 1_556
O6 Sr0 2.766855 1_555
O6 Sr2 2.770763 1_555
O7 Sr1 2.766858 1_556
O7 Sr3 2.770777 1_545
O8 Sr2 2.766863 1_566
O8 Sr0 2.770772 1_555
O9 Sr3 2.766872 1_555
O9 Sr1 2.770780 1_555
O10 Sr0 2.501183 1_555
O10 Sr2 2.617420 1_555
O10 Sr2 2.982085 1_566
O10 Sr0 3.220831 1_454
O11 Sr1 2.501178 1_555
O11 Sr3 2.617415 1_544
O11 Sr3 2.982086 1_555
O11 Sr1 3.220832 1_656
O12 Sr2 2.501183 1_555
O12 Sr0 2.617421 1_544
O12 Sr0 2.982091 1_555
O12 Sr2 3.220836 1_656
O13 Sr3 2.501183 1_555
O13 Sr1 2.617420 1_555
O13 Sr1 2.982085 1_566
O13 Sr3 3.220831 1_454
