# generated using pymatgen
data_TlCuAsO4
_symmetry_space_group_name_H-M   'P 1'
_cell_length_a   5.07869825
_cell_length_b   5.07869825
_cell_length_c   18.53195308
_cell_angle_alpha   87.20461490
_cell_angle_beta   87.20461490
_cell_angle_gamma   91.46749399
_symmetry_Int_Tables_number   1
_chemical_formula_structural   TlCuAsO4
_chemical_formula_sum   'Tl4 Cu4 As4 O16'
_cell_volume   476.67333299
_cell_formula_units_Z   4
loop_
 _symmetry_equiv_pos_site_id
 _symmetry_equiv_pos_as_xyz
  1  'x, y, z'
loop_
 _atom_site_type_symbol
 _atom_site_label
 _atom_site_symmetry_multiplicity
 _atom_site_fract_x
 _atom_site_fract_y
 _atom_site_fract_z
 _atom_site_occupancy
  Tl  Tl0  1  0.20060800  0.79209200  0.56140200  1
  Tl  Tl1  1  0.20790800  0.79939200  0.93859800  1
  Tl  Tl2  1  0.79939200  0.20790800  0.43859800  1
  Tl  Tl3  1  0.79209200  0.20060800  0.06140200  1
  Cu  Cu0  1  0.66833700  0.83412800  0.74944800  1
  Cu  Cu1  1  0.16587200  0.33166300  0.75055200  1
  Cu  Cu2  1  0.33166300  0.16587200  0.25055200  1
  Cu  Cu3  1  0.83412800  0.66833700  0.24944800  1
  As  As0  1  0.69054800  0.35581000  0.64739700  1
  As  As1  1  0.64419000  0.30945200  0.85260300  1
  As  As2  1  0.30945200  0.64419000  0.35260300  1
  As  As3  1  0.35581000  0.69054800  0.14739700  1
  O  O0  1  0.86274600  0.52804900  0.71369000  1
  O  O1  1  0.47195100  0.13725400  0.78631000  1
  O  O2  1  0.13725400  0.47195100  0.28631000  1
  O  O3  1  0.52804900  0.86274600  0.21369000  1
  O  O4  1  0.20730900  0.52922400  0.43696600  1
  O  O5  1  0.47077600  0.79269100  0.06303400  1
  O  O6  1  0.79269100  0.47077600  0.56303400  1
  O  O7  1  0.52922400  0.20730900  0.93696600  1
  O  O8  1  0.35870500  0.42623500  0.66097500  1
  O  O9  1  0.57376500  0.64129500  0.83902500  1
  O  O10  1  0.64129500  0.57376500  0.33902500  1
  O  O11  1  0.42623500  0.35870500  0.16097500  1
  O  O12  1  0.76007600  0.02508700  0.65968300  1
  O  O13  1  0.97491300  0.23992400  0.84031700  1
  O  O14  1  0.23992400  0.97491300  0.34031700  1
  O  O15  1  0.02508700  0.76007600  0.15968300  1
loop_
_geom_bond_atom_site_label_1
_geom_bond_atom_site_label_2
_geom_bond_distance
_geom_bond_site_symmetry_2
Cu0 O12 1.915419 1_565
Cu0 O9 1.919658 1_555
Cu0 O0 1.986369 1_555
Cu0 O1 1.986509 1_565
Cu1 O13 1.915419 1_455
Cu1 O8 1.919658 1_555
Cu1 O1 1.986369 1_555
Cu1 O0 1.986509 1_455
Cu2 O14 1.915419 1_545
Cu2 O11 1.919658 1_555
Cu2 O2 1.986369 1_555
Cu2 O3 1.986509 1_545
Cu3 O15 1.915419 1_655
Cu3 O10 1.919658 1_555
Cu3 O3 1.986369 1_555
Cu3 O2 1.986509 1_655
As0 O6 1.694289 1_555
As0 O12 1.731660 1_555
As0 O8 1.740652 1_555
As0 O0 1.791578 1_555
As1 O7 1.694289 1_555
As1 O13 1.731660 1_555
As1 O9 1.740652 1_555
As1 O1 1.791578 1_555
As2 O4 1.694289 1_555
As2 O14 1.731660 1_555
As2 O10 1.740652 1_555
As2 O2 1.791578 1_555
As3 O5 1.694289 1_555
As3 O15 1.731660 1_555
As3 O11 1.740652 1_555
As3 O3 1.791578 1_555
O4 Tl2 2.602251 1_455
O4 Tl0 2.719604 1_555
O5 Tl3 2.602251 1_565
O5 Tl1 2.719604 1_554
O6 Tl0 2.602251 1_655
O6 Tl2 2.719604 1_555
O7 Tl1 2.602251 1_545
O7 Tl3 2.719604 1_556
O8 Tl0 2.718218 1_555
O9 Tl1 2.718218 1_555
O10 Tl2 2.718218 1_555
O11 Tl3 2.718218 1_555
