# generated using pymatgen
data_CdI2
_symmetry_space_group_name_H-M   'P 1'
_cell_length_a   4.28155609
_cell_length_b   4.28155567
_cell_length_c   71.60491356
_cell_angle_alpha   90.00000000
_cell_angle_beta   90.00000000
_cell_angle_gamma   119.99999518
_symmetry_Int_Tables_number   1
_chemical_formula_structural   CdI2
_chemical_formula_sum   'Cd10 I20'
_cell_volume   1136.78074879
_cell_formula_units_Z   10
loop_
 _symmetry_equiv_pos_site_id
 _symmetry_equiv_pos_as_xyz
  1  'x, y, z'
loop_
 _atom_site_type_symbol
 _atom_site_label
 _atom_site_symmetry_multiplicity
 _atom_site_fract_x
 _atom_site_fract_y
 _atom_site_fract_z
 _atom_site_occupancy
  Cd  Cd0  1  0.66666700  0.33333300  0.22500870  1
  Cd  Cd1  1  -0.00000000  0.00000000  0.82500708  1
  Cd  Cd2  1  0.66666700  0.33333300  0.72500027  1
  Cd  Cd3  1  -0.00000000  0.00000000  0.92499215  1
  Cd  Cd4  1  0.66666700  0.33333300  0.62500434  1
  Cd  Cd5  1  -0.00000000  0.00000000  0.32499583  1
  Cd  Cd6  1  -0.00000000  0.00000000  0.52500083  1
  Cd  Cd7  1  0.66666700  0.33333300  0.42500310  1
  Cd  Cd8  1  -0.00000000  0.00000000  0.12499338  1
  Cd  Cd9  1  0.66666700  0.33333300  0.02498979  1
  I  I0  1  -0.00000000  0.00000000  0.20093104  1
  I  I1  1  0.33333300  0.66666700  0.44906900  1
  I  I2  1  0.33333300  0.66666700  0.34906900  1
  I  I3  1  0.66666700  0.33333300  0.80093103  1
  I  I4  1  0.66666700  0.33333300  0.90093107  1
  I  I5  1  0.33333300  0.66666700  0.94906898  1
  I  I6  1  0.00000000  0.00000000  0.60093101  1
  I  I7  1  0.00000000  0.00000000  0.40093124  1
  I  I8  1  0.66666700  0.33333300  0.10093101  1
  I  I9  1  0.33333300  0.66666700  0.04906899  1
  I  I10  1  0.66666700  0.33333300  0.30093100  1
  I  I11  1  -0.00000000  0.00000000  0.00093105  1
  I  I12  1  0.33333300  0.66666700  0.54906898  1
  I  I13  1  0.33333300  0.66666700  0.14906901  1
  I  I14  1  0.33333300  0.66666700  0.24906898  1
  I  I15  1  0.00000000  0.00000000  0.70093106  1
  I  I16  1  0.66666700  0.33333300  0.50093104  1
  I  I17  1  0.33333300  0.66666700  0.84906899  1
  I  I18  1  0.33333300  0.66666700  0.64906902  1
  I  I19  1  0.33333300  0.66666700  0.74906900  1
loop_
_geom_bond_atom_site_label_1
_geom_bond_atom_site_label_2
_geom_bond_distance
_geom_bond_site_symmetry_2
Cd0 I14 3.013091 1_545
Cd0 I14 3.013092 1_655
Cd0 I14 3.013097 1_555
Cd0 I0 3.013803 1_655
Cd0 I0 3.013806 1_665
Cd0 I0 3.013806 1_555
Cd1 I17 3.013158 1_545
Cd1 I17 3.013161 1_555
Cd1 I17 3.013161 1_445
Cd1 I3 3.013737 1_455
Cd1 I3 3.013740 1_445
Cd1 I3 3.013740 1_555
Cd2 I19 3.013437 1_545
Cd2 I19 3.013438 1_655
Cd2 I19 3.013443 1_555
Cd2 I15 3.013457 1_655
Cd2 I15 3.013460 1_665
Cd2 I15 3.013460 1_555
Cd3 I4 3.013124 1_455
Cd3 I4 3.013127 1_445
Cd3 I4 3.013127 1_555
Cd3 I5 3.013769 1_545
Cd3 I5 3.013772 1_555
Cd3 I5 3.013772 1_445
Cd4 I18 3.013271 1_545
Cd4 I18 3.013272 1_655
Cd4 I18 3.013278 1_555
Cd4 I6 3.013626 1_655
Cd4 I6 3.013629 1_665
Cd4 I6 3.013629 1_555
Cd5 I10 3.013278 1_455
Cd5 I10 3.013281 1_445
Cd5 I10 3.013281 1_555
Cd5 I2 3.013619 1_545
Cd5 I2 3.013622 1_555
Cd5 I2 3.013622 1_445
Cd6 I12 3.013414 1_545
Cd6 I12 3.013417 1_555
Cd6 I12 3.013417 1_445
Cd6 I16 3.013481 1_455
Cd6 I16 3.013484 1_445
Cd6 I16 3.013484 1_555
Cd7 I1 3.013321 1_545
Cd7 I1 3.013322 1_655
Cd7 I1 3.013327 1_555
Cd7 I7 3.013565 1_655
Cd7 I7 3.013569 1_665
Cd7 I7 3.013569 1_555
Cd8 I8 3.013177 1_455
Cd8 I8 3.013180 1_445
Cd8 I8 3.013180 1_555
Cd8 I13 3.013720 1_545
Cd8 I13 3.013723 1_555
Cd8 I13 3.013723 1_445
Cd9 I11 3.013028 1_655
Cd9 I11 3.013031 1_665
Cd9 I11 3.013032 1_555
Cd9 I9 3.013866 1_545
Cd9 I9 3.013866 1_655
Cd9 I9 3.013872 1_555
