# generated using pymatgen
data_Rb2AgAu3I8
_symmetry_space_group_name_H-M   'P 1'
_cell_length_a   7.77400699
_cell_length_b   7.77400699
_cell_length_c   21.28989761
_cell_angle_alpha   79.59737399
_cell_angle_beta   79.59737399
_cell_angle_gamma   58.67563900
_symmetry_Int_Tables_number   1
_chemical_formula_structural   Rb2AgAu3I8
_chemical_formula_sum   'Rb4 Ag2 Au6 I16'
_cell_volume   1075.27689995
_cell_formula_units_Z   2
loop_
 _symmetry_equiv_pos_site_id
 _symmetry_equiv_pos_as_xyz
  1  'x, y, z'
loop_
 _atom_site_type_symbol
 _atom_site_label
 _atom_site_symmetry_multiplicity
 _atom_site_fract_x
 _atom_site_fract_y
 _atom_site_fract_z
 _atom_site_occupancy
  Rb  Rb0  1  0.32532152  0.26734300  0.59388704  1
  Rb  Rb1  1  0.26734300  0.32532152  0.09388704  1
  Rb  Rb2  1  0.67467848  0.73265700  0.40611296  1
  Rb  Rb3  1  0.73265700  0.67467848  0.90611296  1
  Ag  Ag0  1  0.98447125  0.01552875  0.25000000  1
  Ag  Ag1  1  0.01552875  0.98447125  0.75000000  1
  Au  Au0  1  0.40124397  0.40830581  0.80166794  1
  Au  Au1  1  0.59875603  0.59169419  0.19833206  1
  Au  Au2  1  -0.00000000  0.00000000  0.00000000  1
  Au  Au3  1  0.59169419  0.59875603  0.69833206  1
  Au  Au4  1  0.40830581  0.40124397  0.30166794  1
  Au  Au5  1  -0.00000000  0.00000000  0.50000000  1
  I  I0  1  0.59274804  0.06517498  0.24889729  1
  I  I1  1  0.15944524  0.22287127  0.43681829  1
  I  I2  1  0.06517498  0.59274804  0.74889729  1
  I  I3  1  0.19564655  0.73389692  0.35576233  1
  I  I4  1  0.77712873  0.84055476  0.06318171  1
  I  I5  1  0.80435345  0.26610308  0.64423767  1
  I  I6  1  0.32600143  0.77440421  0.56460213  1
  I  I7  1  0.22287127  0.15944524  0.93681829  1
  I  I8  1  0.93482502  0.40725196  0.25110271  1
  I  I9  1  0.77440421  0.32600143  0.06460213  1
  I  I10  1  0.84055476  0.77712873  0.56318171  1
  I  I11  1  0.67399857  0.22559579  0.43539787  1
  I  I12  1  0.26610308  0.80435345  0.14423767  1
  I  I13  1  0.22559579  0.67399857  0.93539787  1
  I  I14  1  0.40725196  0.93482502  0.75110271  1
  I  I15  1  0.73389692  0.19564655  0.85576233  1
loop_
_geom_bond_atom_site_label_1
_geom_bond_atom_site_label_2
_geom_bond_distance
_geom_bond_site_symmetry_2
Ag0 I8 2.867682 1_555
Ag0 I0 2.867682 1_555
Ag0 I12 2.894135 1_645
Ag0 I3 2.894135 1_645
Ag1 I2 2.867682 1_555
Ag1 I14 2.867682 1_555
Ag1 I15 2.894135 1_465
Ag1 I5 2.894135 1_465
Au0 I15 2.586456 1_555
Au0 I2 2.593652 1_555
Au0 I13 3.467558 1_555
Au1 I12 2.586456 1_555
Au1 I8 2.593652 1_555
Au1 I9 3.467558 1_555
Au2 I4 2.671512 1_445
Au2 I7 2.671512 1_554
Au2 I9 2.675171 1_455
Au2 I13 2.675171 1_544
Au3 I5 2.586456 1_555
Au3 I14 2.593652 1_555
Au3 I6 3.467558 1_555
Au4 I3 2.586456 1_555
Au4 I0 2.593652 1_555
Au4 I11 3.467558 1_555
Au5 I10 2.671512 1_445
Au5 I1 2.671512 1_555
Au5 I11 2.675171 1_455
Au5 I6 2.675171 1_545
I0 Rb2 3.771522 1_545
I0 Rb1 4.082349 1_555
I1 Rb2 3.841945 1_455
I1 Rb2 3.882868 1_545
I1 Rb0 3.924648 1_555
I2 Rb3 3.771522 1_455
I2 Rb0 4.082349 1_555
I3 Rb2 4.002600 1_455
I3 Rb2 4.051902 1_555
I4 Rb1 3.841945 1_565
I4 Rb1 3.882868 1_655
I4 Rb3 3.924648 1_554
I5 Rb0 4.002600 1_655
I5 Rb0 4.051902 1_555
I6 Rb2 3.875040 1_555
I6 Rb0 3.880753 1_555
I6 Rb0 3.989282 1_565
I7 Rb3 3.841945 1_545
I7 Rb3 3.882868 1_455
I7 Rb1 3.924648 1_556
I8 Rb1 3.771522 1_655
I8 Rb2 4.082349 1_555
I9 Rb3 3.875040 1_554
I9 Rb1 3.880753 1_555
I9 Rb1 3.989282 1_655
I10 Rb0 3.841945 1_655
I10 Rb0 3.882868 1_565
I10 Rb2 3.924648 1_555
I11 Rb0 3.875040 1_555
I11 Rb2 3.880753 1_555
I11 Rb2 3.989282 1_545
I12 Rb1 4.002600 1_565
I12 Rb1 4.051902 1_555
I13 Rb1 3.875040 1_556
I13 Rb3 3.880753 1_555
I13 Rb3 3.989282 1_455
I14 Rb0 3.771522 1_565
I14 Rb3 4.082349 1_555
I15 Rb3 4.002600 1_545
I15 Rb3 4.051902 1_555
