# generated using pymatgen
data_LiCuPO4
_symmetry_space_group_name_H-M   'P 1'
_cell_length_a   5.21380900
_cell_length_b   6.10418400
_cell_length_c   10.64581900
_cell_angle_alpha   90.00000000
_cell_angle_beta   90.00000000
_cell_angle_gamma   90.00000000
_symmetry_Int_Tables_number   1
_chemical_formula_structural   LiCuPO4
_chemical_formula_sum   'Li4 Cu4 P4 O16'
_cell_volume   338.81436222
_cell_formula_units_Z   4
loop_
 _symmetry_equiv_pos_site_id
 _symmetry_equiv_pos_as_xyz
  1  'x, y, z'
loop_
 _atom_site_type_symbol
 _atom_site_label
 _atom_site_symmetry_multiplicity
 _atom_site_fract_x
 _atom_site_fract_y
 _atom_site_fract_z
 _atom_site_occupancy
  Li  Li0  1  0.29950800  0.51831100  0.82705400  1
  Li  Li1  1  0.70049200  0.01831100  0.17294600  1
  Li  Li2  1  0.20049200  0.51831100  0.32705400  1
  Li  Li3  1  0.79950800  0.01831100  0.67294600  1
  Cu  Cu0  1  0.18220000  0.74578400  0.58508100  1
  Cu  Cu1  1  0.81780000  0.24578400  0.41491900  1
  Cu  Cu2  1  0.31780000  0.74578400  0.08508100  1
  Cu  Cu3  1  0.68220000  0.24578400  0.91491900  1
  P  P0  1  0.80466100  0.74751100  0.92796400  1
  P  P1  1  0.30466100  0.24751100  0.57203600  1
  P  P2  1  0.69533900  0.74751100  0.42796400  1
  P  P3  1  0.19533900  0.24751100  0.07203600  1
  O  O0  1  0.77448500  0.95357000  0.34980400  1
  O  O1  1  0.60014500  0.22507600  0.57030300  1
  O  O2  1  0.68152800  0.54646800  0.86013900  1
  O  O3  1  0.22551500  0.45357000  0.65019600  1
  O  O4  1  0.79695600  0.76317900  0.56439000  1
  O  O5  1  0.81847200  0.54646800  0.36013900  1
  O  O6  1  0.27448500  0.45357000  0.15019600  1
  O  O7  1  0.29695600  0.26317900  0.93561000  1
  O  O8  1  0.89985500  0.22507600  0.07030300  1
  O  O9  1  0.10014500  0.72507600  0.92969700  1
  O  O10  1  0.20304400  0.26317900  0.43561000  1
  O  O11  1  0.31847200  0.04646800  0.13986100  1
  O  O12  1  0.18152800  0.04646800  0.63986100  1
  O  O13  1  0.72551500  0.95357000  0.84980400  1
  O  O14  1  0.39985500  0.72507600  0.42969700  1
  O  O15  1  0.70304400  0.76317900  0.06439000  1
loop_
_geom_bond_atom_site_label_1
_geom_bond_atom_site_label_2
_geom_bond_distance
_geom_bond_site_symmetry_2
Li0 O7 1.939370 1_555
Li0 O3 1.962125 1_555
Li0 O9 1.966583 1_555
Li0 O2 2.029971 1_555
Li1 O15 1.939370 1_545
Li1 O0 1.962125 1_545
Li1 O8 1.966583 1_555
Li1 O11 2.029971 1_555
Li2 O10 1.939370 1_555
Li2 O6 1.962125 1_555
Li2 O14 1.966583 1_555
Li2 O5 2.029971 1_455
Li3 O4 1.939370 1_545
Li3 O13 1.962125 1_545
Li3 O1 1.966583 1_555
Li3 O12 2.029971 1_655
Cu0 O12 1.925854 1_565
Cu0 O3 1.926971 1_555
Cu0 O14 2.010005 1_555
Cu0 O4 2.023419 1_455
Cu1 O5 1.925854 1_555
Cu1 O0 1.926971 1_545
Cu1 O1 2.010005 1_555
Cu1 O10 2.023419 1_655
Cu2 O11 1.925854 1_565
Cu2 O6 1.926971 1_555
Cu2 O9 2.010005 1_554
Cu2 O15 2.023419 1_555
Cu3 O2 1.925854 1_555
Cu3 O13 1.926971 1_545
Cu3 O8 2.010005 1_556
Cu3 O7 2.023419 1_555
O0 P2 1.563570 1_555
O1 P1 1.546782 1_555
O2 P0 1.561903 1_555
O3 P1 1.563570 1_555
O4 P2 1.548940 1_555
O5 P2 1.561903 1_555
O6 P3 1.563570 1_555
O7 P3 1.548940 1_556
O8 P3 1.546782 1_655
O9 P0 1.546782 1_455
O10 P1 1.548940 1_555
O11 P3 1.561903 1_555
O12 P1 1.561903 1_555
O13 P0 1.563570 1_555
O14 P2 1.546782 1_555
O15 P0 1.548940 1_554
