# generated using pymatgen
data_Zn2P3H19C4(NO6)2
_symmetry_space_group_name_H-M   'P 1'
_cell_length_a   19.55804060
_cell_length_b   9.87155453
_cell_length_c   9.96035881
_cell_angle_alpha   99.29597788
_cell_angle_beta   119.36573943
_cell_angle_gamma   89.99229501
_symmetry_Int_Tables_number   1
_chemical_formula_structural   Zn2P3H19C4(NO6)2
_chemical_formula_sum   'Zn8 P12 H76 C16 N8 O48'
_cell_volume   1646.91779854
_cell_formula_units_Z   4
loop_
 _symmetry_equiv_pos_site_id
 _symmetry_equiv_pos_as_xyz
  1  'x, y, z'
loop_
 _atom_site_type_symbol
 _atom_site_label
 _atom_site_symmetry_multiplicity
 _atom_site_fract_x
 _atom_site_fract_y
 _atom_site_fract_z
 _atom_site_occupancy
  Zn  Zn0  1  0.05114253  0.37619935  0.35822911  1
  Zn  Zn1  1  0.12748089  0.87681459  0.35653055  1
  Zn  Zn2  1  0.37251911  0.12318541  0.64346945  1
  Zn  Zn3  1  0.44885747  0.62380065  0.64177089  1
  Zn  Zn4  1  0.55165299  0.37474605  0.35754147  1
  Zn  Zn5  1  0.62790701  0.87406332  0.35974145  1
  Zn  Zn6  1  0.87209299  0.12593668  0.64025855  1
  Zn  Zn7  1  0.94834701  0.62525395  0.64245853  1
  P  P0  1  0.00547825  0.68352125  0.38098272  1
  P  P1  1  0.02216715  0.75793012  0.00078811  1
  P  P2  1  0.18510305  0.18320613  0.38050432  1
  P  P3  1  0.31489695  0.81679387  0.61949568  1
  P  P4  1  0.49452175  0.31647875  0.61901728  1
  P  P5  1  0.50376725  0.67960951  0.37581502  1
  P  P6  1  0.47783285  0.24206988  0.99921189  1
  P  P7  1  0.52297084  0.74208964  0.99960576  1
  P  P8  1  0.68414244  0.17994004  0.37527649  1
  P  P9  1  0.81585756  0.82005996  0.62472351  1
  P  P10  1  0.99623275  0.32039049  0.62418498  1
  P  P11  1  0.97702916  0.25791036  0.00039424  1
  H  H0  1  0.05556513  0.36402089  0.88032616  1
  H  H1  1  0.04484786  0.88505031  0.76246845  1
  H  H2  1  0.03541389  0.04146353  0.70827582  1
  H  H3  1  0.05444410  0.90807961  0.60906441  1
  H  H4  1  0.16348445  0.01968961  0.94626416  1
  H  H5  1  0.17241372  0.60667850  0.85038805  1
  H  H6  1  0.16204785  0.19516302  0.79067084  1
  H  H7  1  0.18009658  0.89030353  0.82231756  1
  H  H8  1  0.15332256  0.55961504  0.65604545  1
  H  H9  1  0.17348170  0.06761872  0.65704446  1
  H  H10  1  0.23220719  0.38847352  0.82751019  1
  H  H11  1  0.22920203  0.69150072  0.78754884  1
  H  H12  1  0.25083635  0.11224707  0.85269105  1
  H  H13  1  0.00402307  0.03422910  0.99942963  1
  H  H14  1  0.30875408  0.52184367  0.94937266  1
  H  H15  1  0.12500645  0.14479089  0.12646891  1
  H  H16  1  0.16288912  0.61634340  0.23122787  1
  H  H17  1  0.17924426  0.45984866  0.28417506  1
  H  H18  1  0.25182313  0.40783793  0.61358075  1
  H  H19  1  0.24817687  0.59216207  0.38641925  1
  H  H20  1  0.32075574  0.54015134  0.71582494  1
  H  H21  1  0.33711088  0.38365660  0.76877213  1
  H  H22  1  0.37499355  0.85520911  0.87353109  1
  H  H23  1  0.19124592  0.47815633  0.05062734  1
  H  H24  1  0.49597693  0.96577090  0.00057037  1
  H  H25  1  0.24916365  0.88775293  0.14730895  1
  H  H26  1  0.27079797  0.30849928  0.21245116  1
  H  H27  1  0.26779281  0.61152648  0.17248981  1
  H  H28  1  0.32651830  0.93238128  0.34295554  1
  H  H29  1  0.34667744  0.44038496  0.34395455  1
  H  H30  1  0.31990342  0.10969647  0.17768244  1
  H  H31  1  0.33795215  0.80483698  0.20932916  1
  H  H32  1  0.32758628  0.39332150  0.14961195  1
  H  H33  1  0.50561136  0.46602842  0.00135400  1
  H  H34  1  0.33651555  0.98031039  0.05373584  1
  H  H35  1  0.56200770  0.35464922  0.87311315  1
  H  H36  1  0.44555590  0.09192039  0.39093559  1
  H  H37  1  0.54746597  0.88132589  0.76627567  1
  H  H38  1  0.53719643  0.03770535  0.71362059  1
  H  H39  1  0.46458611  0.95853647  0.29172418  1
  H  H40  1  0.45515214  0.11494969  0.23753155  1
  H  H41  1  0.55568915  0.90596579  0.61123358  1
  H  H42  1  0.44443487  0.63597911  0.11967384  1
  H  H43  1  0.66524568  0.01901018  0.94818297  1
  H  H44  1  0.67604735  0.61202387  0.85361314  1
  H  H45  1  0.66485384  0.19137502  0.79048143  1
  H  H46  1  0.68201103  0.88743171  0.82623753  1
  H  H47  1  0.65530577  0.56883573  0.65753807  1
  H  H48  1  0.67534429  0.06169431  0.65744516  1
  H  H49  1  0.73060440  0.38975916  0.82188331  1
  H  H50  1  0.73410663  0.69491025  0.79214559  1
  H  H51  1  0.75304824  0.10666589  0.85242706  1
  H  H52  1  0.80986584  0.51810429  0.94478379  1
  H  H53  1  0.61557698  0.13634904  0.11877898  1
  H  H54  1  0.66451843  0.61683127  0.23966436  1
  H  H55  1  0.68235026  0.46097614  0.29480361  1
  H  H56  1  0.74876330  0.40566237  0.60689153  1
  H  H57  1  0.75123670  0.59433763  0.39310847  1
  H  H58  1  0.81764974  0.53902386  0.70519639  1
  H  H59  1  0.83548157  0.38316873  0.76033564  1
  H  H60  1  0.88442302  0.86365096  0.88122102  1
  H  H61  1  0.69013416  0.48189571  0.05521621  1
  H  H62  1  0.74695176  0.89333411  0.14757294  1
  H  H63  1  0.76589337  0.30508975  0.20785441  1
  H  H64  1  0.76939560  0.61024084  0.17811669  1
  H  H65  1  0.82465571  0.93830569  0.34255484  1
  H  H66  1  0.84469423  0.43116427  0.34246193  1
  H  H67  1  0.81798897  0.11256929  0.17376247  1
  H  H68  1  0.83514616  0.80862498  0.20951857  1
  H  H69  1  0.82395265  0.38797613  0.14638686  1
  H  H70  1  0.83475432  0.98098982  0.05181703  1
  H  H71  1  0.94431085  0.09403421  0.38876642  1
  H  H72  1  0.96280357  0.96229465  0.28637941  1
  H  H73  1  0.95253403  0.11867411  0.23372433  1
  H  H74  1  0.93799230  0.64535078  0.12688685  1
  H  H75  1  0.99438864  0.53397158  0.99864600  1
  C  C0  1  0.15352817  0.98740324  0.82706281  1
  C  C1  1  0.18655380  0.09702536  0.77870495  1
  C  C2  1  0.20044230  0.59229092  0.77765499  1
  C  C3  1  0.25972102  0.48630387  0.83025627  1
  C  C4  1  0.24027898  0.51369613  0.16974373  1
  C  C5  1  0.29955770  0.40770908  0.22234501  1
  C  C6  1  0.31344620  0.90297464  0.22129505  1
  C  C7  1  0.34647183  0.01259676  0.17293619  1
  C  C8  1  0.65549274  0.98479433  0.82938590  1
  C  C9  1  0.68871325  0.09247297  0.77912373  1
  C  C10  1  0.70315487  0.59699243  0.77921426  1
  C  C11  1  0.75976276  0.48635380  0.82609106  1
  C  C12  1  0.74023724  0.51364620  0.17390894  1
  C  C13  1  0.79684513  0.40300757  0.22078574  1
  C  C14  1  0.81128675  0.90752703  0.22087627  1
  C  C15  1  0.84450726  0.01520567  0.17061410  1
  N  N0  1  0.06649022  0.95453500  0.72092117  1
  N  N1  1  0.29494130  0.45348537  0.72616871  1
  N  N2  1  0.20505870  0.54651463  0.27383129  1
  N  N3  1  0.43350978  0.04546500  0.27907883  1
  N  N4  1  0.56836445  0.95131639  0.72384892  1
  N  N5  1  0.79295376  0.45242280  0.71851406  1
  N  N6  1  0.70704624  0.54757720  0.28148594  1
  N  N7  1  0.93163555  0.04868361  0.27615108  1
  O  O0  1  0.02502635  0.12552175  0.99114510  1
  O  O1  1  0.02891041  0.73403477  0.85074779  1
  O  O2  1  0.07160509  0.35197378  0.79654440  1
  O  O3  1  0.02678700  0.32125073  0.51071339  1
  O  O4  1  0.04300429  0.83148121  0.40443446  1
  O  O5  1  0.06166132  0.57619516  0.37705653  1
  O  O6  1  0.02756763  0.38217282  0.01005329  1
  O  O7  1  0.12695334  0.07670398  0.37789746  1
  O  O8  1  0.15939599  0.33127434  0.40317849  1
  O  O9  1  0.10403182  0.76644494  0.14879545  1
  O  O10  1  0.22909313  0.81787979  0.49851652  1
  O  O11  1  0.18090356  0.15346790  0.21265280  1
  O  O12  1  0.31909644  0.84653210  0.78734720  1
  O  O13  1  0.27090687  0.18212021  0.50148348  1
  O  O14  1  0.39596818  0.23355506  0.85120455  1
  O  O15  1  0.34060401  0.66872566  0.59682151  1
  O  O16  1  0.37304666  0.92329602  0.62210254  1
  O  O17  1  0.47243237  0.61782718  0.98994671  1
  O  O18  1  0.52326807  0.11766267  0.98821048  1
  O  O19  1  0.43833868  0.42380484  0.62294347  1
  O  O20  1  0.45699571  0.16851879  0.59556554  1
  O  O21  1  0.53045130  0.73251307  0.85078050  1
  O  O22  1  0.47321300  0.67874927  0.48928661  1
  O  O23  1  0.42839491  0.64802622  0.20345560  1
  O  O24  1  0.57443068  0.34501140  0.78627273  1
  O  O25  1  0.51944410  0.31669547  0.49735754  1
  O  O26  1  0.47108959  0.26596523  0.14925221  1
  O  O27  1  0.54158591  0.82871955  0.40309088  1
  O  O28  1  0.56343750  0.57502294  0.38386924  1
  O  O29  1  0.47497365  0.87447825  0.00885490  1
  O  O30  1  0.53067295  0.37459278  0.00938768  1
  O  O31  1  0.62898268  0.07446232  0.38327770  1
  O  O32  1  0.65970996  0.32884473  0.40340757  1
  O  O33  1  0.60476928  0.76709043  0.14987912  1
  O  O34  1  0.72853306  0.81952643  0.51143535  1
  O  O35  1  0.67342657  0.14924478  0.20298408  1
  O  O36  1  0.82657343  0.85075522  0.79701592  1
  O  O37  1  0.77146694  0.18047357  0.48856465  1
  O  O38  1  0.89523072  0.23290957  0.85012088  1
  O  O39  1  0.84029004  0.67115527  0.59659243  1
  O  O40  1  0.87101732  0.92553768  0.61672230  1
  O  O41  1  0.96932705  0.62540722  0.99061232  1
  O  O42  1  0.93656250  0.42497706  0.61613076  1
  O  O43  1  0.95841409  0.17128045  0.59690912  1
  O  O44  1  0.98055590  0.68330453  0.50264246  1
  O  O45  1  0.92556932  0.65498860  0.21372727  1
  O  O46  1  0.96954870  0.26748693  0.14921950  1
  O  O47  1  0.97673193  0.88233733  0.01178952  1
loop_
_geom_bond_atom_site_label_1
_geom_bond_atom_site_label_2
_geom_bond_distance
_geom_bond_site_symmetry_2
H0 O2 1.016673 1_555
H0 O6 1.618841 1_556
H1 N0 1.041387 1_555
H2 N0 1.039876 1_545
H3 N0 1.041454 1_555
H13 O0 1.022293 1_555
H13 O47 1.634802 1_446
H15 O11 0.997625 1_555
H16 N2 1.042376 1_555
H17 N2 1.037813 1_555
H18 N1 1.039775 1_555
H19 N2 1.039775 1_555
H20 N1 1.037813 1_555
H21 N1 1.042376 1_555
H22 O12 0.997625 1_555
H24 O29 1.022293 1_555
H24 O18 1.634802 1_564
H33 O30 1.022796 1_555
H33 O17 1.631535 1_554
H35 O24 0.997882 1_555
H36 N3 1.041454 1_555
H37 N4 1.042502 1_555
H38 N4 1.037425 1_545
H39 N3 1.039876 1_565
H40 N3 1.041387 1_555
H41 N4 1.041699 1_555
H42 O23 1.016673 1_555
H42 O17 1.618841 1_554
H53 O35 1.017165 1_555
H53 O18 1.613873 1_554
H54 N6 1.041516 1_555
H55 N6 1.039859 1_555
H56 N5 1.043089 1_555
H57 N6 1.043089 1_555
H58 N5 1.039859 1_555
H59 N5 1.041516 1_555
H60 O36 1.017165 1_555
H60 O47 1.613873 1_556
H71 N7 1.041699 1_555
H72 N7 1.037425 1_565
H73 N7 1.042502 1_555
H74 O45 0.997882 1_555
H75 O41 1.022796 1_555
H75 O6 1.631535 1_656
C0 H4 1.095522 1_565
C0 H7 1.095597 1_555
C0 N0 1.498342 1_555
C1 H9 1.095706 1_555
C1 H6 1.095919 1_555
C1 H12 1.096311 1_555
C2 H8 1.095250 1_555
C2 H11 1.095372 1_555
C2 H5 1.096235 1_555
C3 H14 1.095493 1_555
C3 H10 1.095508 1_555
C3 N1 1.498717 1_555
C4 H23 1.095493 1_555
C4 H27 1.095508 1_555
C4 N2 1.498717 1_555
C5 H29 1.095250 1_555
C5 H26 1.095372 1_555
C5 H32 1.096235 1_555
C6 H28 1.095706 1_555
C6 H31 1.095919 1_555
C6 H25 1.096311 1_555
C7 H34 1.095512 1_545
C7 H30 1.095598 1_555
C7 N3 1.498343 1_555
C8 H46 1.095358 1_555
C8 H43 1.095496 1_565
C8 N4 1.499705 1_555
C9 H45 1.095316 1_555
C9 H48 1.095351 1_555
C9 H51 1.096323 1_555
C10 H47 1.095774 1_555
C10 H50 1.095823 1_555
C10 H44 1.096363 1_555
C11 H49 1.095449 1_555
C11 H52 1.095582 1_555
C11 N5 1.499298 1_555
C12 H64 1.095449 1_555
C12 H61 1.095582 1_555
C12 N6 1.499298 1_555
C13 H66 1.095774 1_555
C13 H63 1.095823 1_555
C13 H69 1.096363 1_555
C14 H68 1.095316 1_555
C14 H65 1.095351 1_555
C14 H62 1.096323 1_555
C15 H67 1.095367 1_555
C15 H70 1.095496 1_545
C15 N7 1.499705 1_555
O0 P11 1.625802 1_456
O1 P1 1.544617 1_556
O1 Zn7 2.003651 1_455
O2 P10 1.600841 1_455
O3 P10 1.516600 1_455
O3 Zn0 1.950299 1_555
O4 P0 1.564764 1_555
O4 Zn1 2.000008 1_555
O5 P0 1.536194 1_555
O5 Zn0 1.953943 1_555
O6 P11 1.536195 1_455
O7 P2 1.536871 1_555
O7 Zn1 1.950761 1_545
O8 P2 1.563577 1_555
O8 Zn0 2.003493 1_555
O9 P1 1.545621 1_555
O9 Zn1 2.004936 1_555
O10 P3 1.513019 1_555
O10 Zn1 1.948596 1_555
O11 P2 1.610843 1_555
O12 P3 1.610843 1_555
O13 P2 1.513019 1_555
O13 Zn2 1.948596 1_555
O14 P6 1.545621 1_555
O14 Zn2 2.004936 1_555
O15 P3 1.563577 1_555
O15 Zn3 2.003493 1_555
O16 P3 1.536871 1_555
O16 Zn2 1.950761 1_565
O17 P7 1.536195 1_555
O18 P6 1.536751 1_555
O19 P4 1.536194 1_555
O19 Zn3 1.953943 1_555
O20 P4 1.564764 1_555
O20 Zn2 2.000008 1_555
O21 P7 1.547623 1_555
O21 Zn3 2.013116 1_555
O22 P5 1.516600 1_555
O22 Zn3 1.950299 1_555
O23 P5 1.600841 1_555
O24 P4 1.610022 1_555
O25 P4 1.511995 1_555
O25 Zn4 1.944971 1_555
O26 P6 1.544617 1_554
O26 Zn4 2.003651 1_555
O27 P5 1.568933 1_555
O27 Zn5 2.003653 1_555
O28 P5 1.539133 1_555
O28 Zn4 1.950370 1_555
O29 P7 1.625802 1_554
O30 P6 1.626189 1_554
O31 P8 1.538112 1_555
O31 Zn5 1.953003 1_545
O32 P8 1.570218 1_555
O32 Zn4 2.000028 1_555
O33 P7 1.546906 1_554
O33 Zn5 2.012099 1_555
O34 P9 1.515975 1_555
O34 Zn5 1.947325 1_555
O35 P8 1.600000 1_555
O36 P9 1.600000 1_555
O37 P8 1.515975 1_555
O37 Zn6 1.947325 1_555
O38 P11 1.546906 1_556
O38 Zn6 2.012099 1_555
O39 P9 1.570218 1_555
O39 Zn7 2.000028 1_555
O40 P9 1.538112 1_555
O40 Zn6 1.953003 1_565
O41 P1 1.626189 1_656
O42 P10 1.539133 1_555
O42 Zn7 1.950370 1_555
O43 P10 1.568933 1_555
O43 Zn6 2.003653 1_555
O44 P0 1.511995 1_655
O44 Zn7 1.944971 1_555
O45 P0 1.610022 1_655
O46 P11 1.547623 1_555
O46 Zn0 2.013116 1_655
O47 P1 1.536751 1_655
