# generated using pymatgen
data_Nd4Ga2O9
_symmetry_space_group_name_H-M   'P 1'
_cell_length_a   11.07774200
_cell_length_b   7.81794400
_cell_length_c   11.65171127
_cell_angle_alpha   71.00150370
_cell_angle_beta   90.00000000
_cell_angle_gamma   90.00000000
_symmetry_Int_Tables_number   1
_chemical_formula_structural   Nd4Ga2O9
_chemical_formula_sum   'Nd16 Ga8 O36'
_cell_volume   954.12989991
_cell_formula_units_Z   4
loop_
 _symmetry_equiv_pos_site_id
 _symmetry_equiv_pos_as_xyz
  1  'x, y, z'
loop_
 _atom_site_type_symbol
 _atom_site_label
 _atom_site_symmetry_multiplicity
 _atom_site_fract_x
 _atom_site_fract_y
 _atom_site_fract_z
 _atom_site_occupancy
  Nd  Nd0  1  0.60589800  0.47767500  0.28332500  1
  Nd  Nd1  1  0.89410200  0.47767500  0.78332500  1
  Nd  Nd2  1  0.12326000  0.33586200  0.56817200  1
  Nd  Nd3  1  0.09109700  0.02339600  0.19387700  1
  Nd  Nd4  1  0.59109700  0.97660400  0.30612300  1
  Nd  Nd5  1  0.87674000  0.66413800  0.43182800  1
  Nd  Nd6  1  0.40890300  0.02339600  0.69387700  1
  Nd  Nd7  1  0.37674000  0.33586200  0.06817200  1
  Nd  Nd8  1  0.37998700  0.83490600  0.08885700  1
  Nd  Nd9  1  0.12001300  0.83490600  0.58885700  1
  Nd  Nd10  1  0.39410200  0.52232500  0.71667500  1
  Nd  Nd11  1  0.62326000  0.66413800  0.93182800  1
  Nd  Nd12  1  0.10589800  0.52232500  0.21667500  1
  Nd  Nd13  1  0.90890300  0.97660400  0.80612300  1
  Nd  Nd14  1  0.62001300  0.16509400  0.91114300  1
  Nd  Nd15  1  0.87998700  0.16509400  0.41114300  1
  Ga  Ga0  1  0.81450700  0.78387100  0.12617000  1
  Ga  Ga1  1  0.31717300  0.65605100  0.38581000  1
  Ga  Ga2  1  0.18282700  0.65605100  0.88581000  1
  Ga  Ga3  1  0.68282700  0.34394900  0.61419000  1
  Ga  Ga4  1  0.81717300  0.34394900  0.11419000  1
  Ga  Ga5  1  0.68549300  0.78387100  0.62617000  1
  Ga  Ga6  1  0.31450700  0.21612900  0.37383000  1
  Ga  Ga7  1  0.18549300  0.21612900  0.87383000  1
  O  O0  1  0.25080500  0.43285200  0.38676100  1
  O  O1  1  0.77022000  0.36100500  0.95984900  1
  O  O2  1  0.22695600  0.78597500  0.25069900  1
  O  O3  1  0.99407800  0.07788300  0.60528400  1
  O  O4  1  0.49043800  0.56636500  0.10405700  1
  O  O5  1  0.97263800  0.29704400  0.17537200  1
  O  O6  1  0.22904000  0.23432900  0.23166100  1
  O  O7  1  0.47574600  0.21618400  0.33753700  1
  O  O8  1  0.52736200  0.29704400  0.67537200  1
  O  O9  1  0.49407800  0.92211700  0.89471600  1
  O  O10  1  0.27304400  0.78597500  0.75069900  1
  O  O11  1  0.72904000  0.76567100  0.26833900  1
  O  O12  1  0.72978000  0.36100500  0.45984900  1
  O  O13  1  0.27096000  0.23432900  0.73166100  1
  O  O14  1  0.00956200  0.56636500  0.60405700  1
  O  O15  1  0.26436500  0.07402200  0.52496000  1
  O  O16  1  0.52425400  0.78381600  0.66246300  1
  O  O17  1  0.23563500  0.07402200  0.02496000  1
  O  O18  1  0.02425400  0.21618400  0.83753700  1
  O  O19  1  0.22978000  0.63899500  0.04015100  1
  O  O20  1  0.24919500  0.43285200  0.88676100  1
  O  O21  1  0.00592200  0.92211700  0.39471600  1
  O  O22  1  0.27022000  0.63899500  0.54015100  1
  O  O23  1  0.99043800  0.43363500  0.39594300  1
  O  O24  1  0.73563500  0.92597800  0.47504000  1
  O  O25  1  0.76436500  0.92597800  0.97504000  1
  O  O26  1  0.02736200  0.70295600  0.82462800  1
  O  O27  1  0.72695600  0.21402500  0.24930100  1
  O  O28  1  0.77096000  0.76567100  0.76833900  1
  O  O29  1  0.97574600  0.78381600  0.16246300  1
  O  O30  1  0.77304400  0.21402500  0.74930100  1
  O  O31  1  0.47263800  0.70295600  0.32462800  1
  O  O32  1  0.50592200  0.07788300  0.10528400  1
  O  O33  1  0.74919500  0.56714800  0.61323900  1
  O  O34  1  0.75080500  0.56714800  0.11323900  1
  O  O35  1  0.50956200  0.43363500  0.89594300  1
loop_
_geom_bond_atom_site_label_1
_geom_bond_atom_site_label_2
_geom_bond_distance
_geom_bond_site_symmetry_2
Nd0 O4 2.353025 1_555
Nd0 O12 2.392538 1_555
Nd0 O7 2.411690 1_555
Nd0 O31 2.462647 1_555
Nd0 O34 2.468001 1_555
Nd0 O11 2.589363 1_555
Nd0 O27 2.595410 1_555
Nd1 O14 2.353025 1_655
Nd1 O1 2.392538 1_555
Nd1 O18 2.411690 1_655
Nd1 O26 2.462647 1_655
Nd1 O33 2.468001 1_555
Nd1 O28 2.589363 1_555
Nd1 O30 2.595410 1_555
Nd2 O14 2.345039 1_555
Nd2 O3 2.394742 1_455
Nd2 O23 2.403659 1_455
Nd2 O13 2.439554 1_555
Nd2 O0 2.448605 1_555
Nd2 O15 2.749244 1_555
Nd2 O22 2.805258 1_555
Nd2 O18 3.164954 1_555
Nd3 O2 2.312693 1_545
Nd3 O6 2.391860 1_555
Nd3 O29 2.391946 1_445
Nd3 O21 2.405614 1_545
Nd3 O5 2.458670 1_455
Nd3 O17 2.467157 1_555
Nd4 O27 2.312693 1_565
Nd4 O11 2.391860 1_555
Nd4 O7 2.391946 1_565
Nd4 O32 2.405614 1_565
Nd4 O31 2.458670 1_555
Nd4 O24 2.467157 1_555
Nd5 O23 2.345039 1_555
Nd5 O21 2.394742 1_655
Nd5 O14 2.403659 1_655
Nd5 O11 2.439554 1_555
Nd5 O33 2.448605 1_555
Nd5 O24 2.749244 1_555
Nd5 O12 2.805258 1_555
Nd5 O29 3.164954 1_555
Nd6 O10 2.312693 1_545
Nd6 O13 2.391860 1_555
Nd6 O16 2.391946 1_545
Nd6 O9 2.405614 1_545
Nd6 O8 2.458670 1_555
Nd6 O15 2.467157 1_555
Nd7 O4 2.345039 1_555
Nd7 O32 2.394742 1_555
Nd7 O35 2.403659 1_554
Nd7 O6 2.439554 1_555
Nd7 O20 2.448605 1_554
Nd7 O17 2.749244 1_555
Nd7 O19 2.805258 1_555
Nd7 O7 3.164954 1_555
Nd8 O4 2.386208 1_555
Nd8 O17 2.387439 1_565
Nd8 O32 2.414126 1_565
Nd8 O19 2.450021 1_555
Nd8 O2 2.471132 1_555
Nd8 O9 2.484963 1_554
Nd8 O31 2.796288 1_555
Nd9 O14 2.386208 1_555
Nd9 O15 2.387439 1_565
Nd9 O3 2.414126 1_465
Nd9 O22 2.450021 1_555
Nd9 O10 2.471132 1_555
Nd9 O21 2.484963 1_555
Nd9 O26 2.796288 1_555
Nd10 O35 2.353025 1_555
Nd10 O22 2.392538 1_555
Nd10 O16 2.411690 1_555
Nd10 O8 2.462647 1_555
Nd10 O20 2.468001 1_555
Nd10 O13 2.589363 1_555
Nd10 O10 2.595410 1_555
Nd11 O35 2.345039 1_555
Nd11 O9 2.394742 1_555
Nd11 O4 2.403659 1_556
Nd11 O28 2.439554 1_555
Nd11 O34 2.448605 1_556
Nd11 O25 2.749244 1_555
Nd11 O1 2.805258 1_555
Nd11 O16 3.164954 1_555
Nd12 O23 2.353025 1_455
Nd12 O19 2.392538 1_555
Nd12 O29 2.411690 1_455
Nd12 O5 2.462647 1_455
Nd12 O0 2.468001 1_555
Nd12 O6 2.589363 1_555
Nd12 O2 2.595410 1_555
Nd13 O30 2.312693 1_565
Nd13 O28 2.391860 1_555
Nd13 O18 2.391946 1_665
Nd13 O3 2.405614 1_565
Nd13 O26 2.458670 1_655
Nd13 O25 2.467157 1_555
Nd14 O35 2.386208 1_555
Nd14 O25 2.387439 1_545
Nd14 O9 2.414126 1_545
Nd14 O1 2.450021 1_555
Nd14 O30 2.471132 1_555
Nd14 O32 2.484963 1_556
Nd14 O8 2.796288 1_555
Nd15 O23 2.386208 1_555
Nd15 O24 2.387439 1_545
Nd15 O21 2.414126 1_645
Nd15 O12 2.450021 1_555
Nd15 O27 2.471132 1_555
Nd15 O3 2.484963 1_555
Nd15 O5 2.796288 1_555
Ga0 O29 1.835507 1_555
Ga0 O25 1.835733 1_554
Ga0 O11 1.872755 1_555
Ga0 O34 1.886170 1_555
Ga1 O22 1.834722 1_555
Ga1 O31 1.854302 1_555
Ga1 O2 1.862188 1_555
Ga1 O0 1.890222 1_555
Ga2 O19 1.834722 1_556
Ga2 O26 1.854302 1_555
Ga2 O10 1.862188 1_555
Ga2 O20 1.890222 1_555
Ga3 O12 1.834722 1_555
Ga3 O8 1.854302 1_555
Ga3 O30 1.862188 1_555
Ga3 O33 1.890222 1_555
Ga4 O1 1.834722 1_554
Ga4 O5 1.854302 1_555
Ga4 O27 1.862188 1_555
Ga4 O34 1.890222 1_555
Ga5 O16 1.835507 1_555
Ga5 O24 1.835733 1_555
Ga5 O28 1.872755 1_555
Ga5 O33 1.886170 1_555
Ga6 O7 1.835507 1_555
Ga6 O15 1.835733 1_555
Ga6 O6 1.872755 1_555
Ga6 O0 1.886170 1_555
Ga7 O18 1.835507 1_555
Ga7 O17 1.835733 1_556
Ga7 O13 1.872755 1_555
Ga7 O20 1.886170 1_555
