# generated using pymatgen
data_Pr3CCl5
_symmetry_space_group_name_H-M   'P 1'
_cell_length_a   8.24910170
_cell_length_b   8.24910170
_cell_length_c   15.88631609
_cell_angle_alpha   83.84417340
_cell_angle_beta   83.84417340
_cell_angle_gamma   63.81335554
_symmetry_Int_Tables_number   1
_chemical_formula_structural   Pr3CCl5
_chemical_formula_sum   'Pr12 C4 Cl20'
_cell_volume   962.30118992
_cell_formula_units_Z   4
loop_
 _symmetry_equiv_pos_site_id
 _symmetry_equiv_pos_as_xyz
  1  'x, y, z'
loop_
 _atom_site_type_symbol
 _atom_site_label
 _atom_site_symmetry_multiplicity
 _atom_site_fract_x
 _atom_site_fract_y
 _atom_site_fract_z
 _atom_site_occupancy
  Pr  Pr0  1  0.90947636  0.65668671  0.70336931  1
  Pr  Pr1  1  0.71522258  0.53931674  0.06266846  1
  Pr  Pr2  1  0.09052364  0.34331329  0.29663069  1
  Pr  Pr3  1  0.46068326  0.28477742  0.43733154  1
  Pr  Pr4  1  0.00346420  0.71278050  0.45390767  1
  Pr  Pr5  1  0.34331329  0.09052364  0.79663069  1
  Pr  Pr6  1  0.28721950  0.99653580  0.04609233  1
  Pr  Pr7  1  0.28477742  0.46068326  0.93733154  1
  Pr  Pr8  1  0.99653580  0.28721950  0.54609233  1
  Pr  Pr9  1  0.53931674  0.71522258  0.56266846  1
  Pr  Pr10  1  0.65668671  0.90947636  0.20336931  1
  Pr  Pr11  1  0.71278050  0.00346420  0.95390767  1
  C  C0  1  0.15161355  0.38941676  0.42944090  1
  C  C1  1  0.61058324  0.84838645  0.07055910  1
  C  C2  1  0.38941676  0.15161355  0.92944090  1
  C  C3  1  0.84838645  0.61058324  0.57055910  1
  Cl  Cl0  1  0.38376557  0.65457249  0.41868918  1
  Cl  Cl1  1  0.61623443  0.34542751  0.58131082  1
  Cl  Cl2  1  0.01438903  0.71975791  0.26426104  1
  Cl  Cl3  1  0.09836205  0.85053858  0.59925574  1
  Cl  Cl4  1  0.90163795  0.14946142  0.40074426  1
  Cl  Cl5  1  0.98561097  0.28024209  0.73573896  1
  Cl  Cl6  1  0.53516229  0.71891239  0.74352609  1
  Cl  Cl7  1  0.09863533  0.37796758  0.09442599  1
  Cl  Cl8  1  0.34542751  0.61623443  0.08131082  1
  Cl  Cl9  1  0.46483771  0.28108761  0.25647391  1
  Cl  Cl10  1  0.71891239  0.53516229  0.24352609  1
  Cl  Cl11  1  0.71975791  0.01438903  0.76426104  1
  Cl  Cl12  1  0.85053858  0.09836205  0.09925574  1
  Cl  Cl13  1  0.14946142  0.90163795  0.90074426  1
  Cl  Cl14  1  0.62203242  0.90136467  0.40557401  1
  Cl  Cl15  1  0.37796758  0.09863533  0.59442599  1
  Cl  Cl16  1  0.28108761  0.46483771  0.75647391  1
  Cl  Cl17  1  0.28024209  0.98561097  0.23573896  1
  Cl  Cl18  1  0.90136467  0.62203242  0.90557401  1
  Cl  Cl19  1  0.65457249  0.38376557  0.91868918  1
loop_
_geom_bond_atom_site_label_1
_geom_bond_atom_site_label_2
_geom_bond_distance
_geom_bond_site_symmetry_2
C0 Pr3 2.316027 1_555
C0 Pr2 2.327958 1_555
C0 Pr8 2.426882 1_455
C0 Pr4 2.450157 1_555
C1 Pr1 2.316027 1_555
C1 Pr10 2.327958 1_555
C1 Pr11 2.426882 1_564
C1 Pr6 2.450157 1_555
C2 Pr7 2.316027 1_555
C2 Pr5 2.327958 1_555
C2 Pr6 2.426882 1_546
C2 Pr11 2.450157 1_555
C3 Pr9 2.316027 1_555
C3 Pr0 2.327958 1_555
C3 Pr4 2.426882 1_655
C3 Pr8 2.450157 1_555
Cl0 Pr3 2.816731 1_555
Cl0 Pr9 2.927460 1_555
Cl0 Pr4 2.955835 1_555
Cl1 Pr9 2.816731 1_555
Cl1 Pr3 2.927460 1_555
Cl1 Pr8 2.955835 1_555
Cl2 Pr10 2.881583 1_455
Cl2 Pr2 2.882262 1_555
Cl2 Pr4 2.999579 1_555
Cl3 Pr0 2.966433 1_455
Cl3 Pr4 2.995232 1_555
Cl3 Pr9 3.304121 1_555
Cl3 Pr8 3.350227 1_465
Cl4 Pr2 2.966433 1_655
Cl4 Pr8 2.995232 1_555
Cl4 Pr3 3.304121 1_555
Cl4 Pr4 3.350227 1_645
Cl5 Pr5 2.881583 1_655
Cl5 Pr0 2.882262 1_555
Cl5 Pr8 2.999579 1_555
Cl6 Pr9 2.872956 1_555
Cl6 Pr0 2.907504 1_555
Cl6 Pr5 2.932553 1_565
Cl7 Pr1 2.917570 1_455
Cl7 Pr7 2.964673 1_554
Cl7 Pr6 2.975189 1_545
Cl7 Pr2 3.190428 1_555
Cl8 Pr1 2.816731 1_555
Cl8 Pr7 2.927460 1_554
Cl8 Pr6 2.955835 1_555
Cl9 Pr3 2.872956 1_555
Cl9 Pr2 2.907504 1_555
Cl9 Pr10 2.932553 1_545
Cl10 Pr1 2.872956 1_555
Cl10 Pr10 2.907504 1_555
Cl10 Pr2 2.932553 1_655
Cl11 Pr0 2.881583 1_545
Cl11 Pr5 2.882262 1_555
Cl11 Pr11 2.999579 1_555
Cl12 Pr10 2.966433 1_545
Cl12 Pr11 2.995232 1_554
Cl12 Pr1 3.304121 1_555
Cl12 Pr6 3.350227 1_645
Cl13 Pr5 2.966433 1_565
Cl13 Pr6 2.995232 1_556
Cl13 Pr7 3.304121 1_555
Cl13 Pr11 3.350227 1_465
Cl14 Pr3 2.917570 1_565
Cl14 Pr9 2.964673 1_555
Cl14 Pr4 2.975189 1_655
Cl14 Pr10 3.190428 1_555
Cl15 Pr9 2.917570 1_545
Cl15 Pr3 2.964673 1_555
Cl15 Pr8 2.975189 1_455
Cl15 Pr5 3.190428 1_555
Cl16 Pr7 2.872956 1_555
Cl16 Pr5 2.907504 1_555
Cl16 Pr0 2.932553 1_455
Cl17 Pr2 2.881583 1_565
Cl17 Pr10 2.882262 1_555
Cl17 Pr6 2.999579 1_555
Cl18 Pr7 2.917570 1_655
Cl18 Pr1 2.964673 1_556
Cl18 Pr11 2.975189 1_565
Cl18 Pr0 3.190428 1_555
Cl19 Pr7 2.816731 1_555
Cl19 Pr1 2.927460 1_556
Cl19 Pr11 2.955835 1_555
