# generated using pymatgen
data_NaZrCuTe3
_symmetry_space_group_name_H-M   'P 1'
_cell_length_a   4.09664801
_cell_length_b   11.06887776
_cell_length_c   14.66069663
_cell_angle_alpha   90.00000000
_cell_angle_beta   90.00000000
_cell_angle_gamma   90.00000000
_symmetry_Int_Tables_number   1
_chemical_formula_structural   NaZrCuTe3
_chemical_formula_sum   'Na4 Zr4 Cu4 Te12'
_cell_volume   664.79362896
_cell_formula_units_Z   4
loop_
 _symmetry_equiv_pos_site_id
 _symmetry_equiv_pos_as_xyz
  1  'x, y, z'
loop_
 _atom_site_type_symbol
 _atom_site_label
 _atom_site_symmetry_multiplicity
 _atom_site_fract_x
 _atom_site_fract_y
 _atom_site_fract_z
 _atom_site_occupancy
  Na  Na0  1  0.25000000  0.05053571  0.22663910  1
  Na  Na1  1  0.75000000  0.94946429  0.77336090  1
  Na  Na2  1  0.75000000  0.55053571  0.27336090  1
  Na  Na3  1  0.25000000  0.44946429  0.72663910  1
  Zr  Zr0  1  0.25000000  0.31746688  0.00890728  1
  Zr  Zr1  1  0.75000000  0.68253312  0.99109272  1
  Zr  Zr2  1  0.75000000  0.81746688  0.49109272  1
  Zr  Zr3  1  0.25000000  0.18253312  0.50890728  1
  Cu  Cu0  1  0.25000000  0.59120232  0.49379684  1
  Cu  Cu1  1  0.75000000  0.40879768  0.50620316  1
  Cu  Cu2  1  0.75000000  0.09120232  0.00620316  1
  Cu  Cu3  1  0.25000000  0.90879768  0.99379684  1
  Te  Te0  1  0.25000000  0.56214817  0.10349568  1
  Te  Te1  1  0.75000000  0.43785183  0.89650432  1
  Te  Te2  1  0.75000000  0.06214817  0.39650432  1
  Te  Te3  1  0.25000000  0.93785183  0.60349568  1
  Te  Te4  1  0.25000000  0.38636423  0.39404467  1
  Te  Te5  1  0.75000000  0.61363577  0.60595533  1
  Te  Te6  1  0.75000000  0.88636423  0.10595533  1
  Te  Te7  1  0.25000000  0.11363577  0.89404467  1
  Te  Te8  1  0.25000000  0.74985041  0.36132482  1
  Te  Te9  1  0.75000000  0.25014959  0.63867518  1
  Te  Te10  1  0.75000000  0.24985041  0.13867518  1
  Te  Te11  1  0.25000000  0.75014959  0.86132482  1
loop_
_geom_bond_atom_site_label_1
_geom_bond_atom_site_label_2
_geom_bond_distance
_geom_bond_site_symmetry_2
Na0 Te2 3.227067 1_555
Na0 Te2 3.227067 1_455
Na0 Te6 3.260104 1_445
Na0 Te6 3.260104 1_545
Na0 Te10 3.275058 1_455
Na0 Te10 3.275058 1_555
Na1 Te3 3.227067 1_655
Na1 Te3 3.227067 1_555
Na1 Te7 3.260104 1_665
Na1 Te7 3.260104 1_565
Na1 Te11 3.275058 1_555
Na1 Te11 3.275058 1_655
Na2 Te0 3.227067 1_555
Na2 Te0 3.227067 1_655
Na2 Te4 3.260104 1_655
Na2 Te4 3.260104 1_555
Na2 Te8 3.275058 1_655
Na2 Te8 3.275058 1_555
Na3 Te1 3.227067 1_555
Na3 Te1 3.227067 1_455
Na3 Te5 3.260104 1_555
Na3 Te5 3.260104 1_455
Na3 Te9 3.275058 1_455
Na3 Te9 3.275058 1_555
Cu0 Te8 2.618322 1_555
Cu0 Te5 2.638387 1_555
Cu0 Te5 2.638387 1_455
Cu0 Te4 2.698054 1_555
Cu0 Zr2 3.235691 1_455
Cu0 Zr2 3.235691 1_555
Cu1 Te9 2.618322 1_555
Cu1 Te4 2.638387 1_655
Cu1 Te4 2.638387 1_555
Cu1 Te5 2.698054 1_555
Cu1 Zr3 3.235691 1_555
Cu1 Zr3 3.235691 1_655
Cu2 Te10 2.618322 1_555
Cu2 Te7 2.638387 1_554
Cu2 Te7 2.638387 1_654
Cu2 Te6 2.698054 1_545
Cu2 Zr0 3.235691 1_555
Cu2 Zr0 3.235691 1_655
Cu3 Te11 2.618322 1_555
Cu3 Te6 2.638387 1_556
Cu3 Te6 2.638387 1_456
Cu3 Te7 2.698054 1_565
Cu3 Zr1 3.235691 1_455
Cu3 Zr1 3.235691 1_555
Te0 Zr1 2.947346 1_454
Te0 Zr1 2.947346 1_554
Te0 Zr0 3.042724 1_555
Te1 Zr0 2.947346 1_556
Te1 Zr0 2.947346 1_656
Te1 Zr1 3.042724 1_555
Te2 Zr3 2.947346 1_655
Te2 Zr3 2.947346 1_555
Te2 Zr2 3.042724 1_545
Te3 Zr2 2.947346 1_555
Te3 Zr2 2.947346 1_455
Te3 Zr3 3.042724 1_565
Te4 Zr3 2.815332 1_555
Te5 Zr2 2.815332 1_555
Te6 Zr1 2.815332 1_554
Te7 Zr0 2.815332 1_556
Te8 Zr2 2.894003 1_455
Te8 Zr2 2.894003 1_555
Te9 Zr3 2.894003 1_655
Te9 Zr3 2.894003 1_555
Te10 Zr0 2.894003 1_655
Te10 Zr0 2.894003 1_555
Te11 Zr1 2.894003 1_455
Te11 Zr1 2.894003 1_555
