# generated using pymatgen
data_Ho2Ge2O7
_symmetry_space_group_name_H-M   'P 1'
_cell_length_a   6.78228808
_cell_length_b   6.78228808
_cell_length_c   12.35276946
_cell_angle_alpha   90.00000000
_cell_angle_beta   90.00000000
_cell_angle_gamma   90.00000000
_symmetry_Int_Tables_number   1
_chemical_formula_structural   Ho2Ge2O7
_chemical_formula_sum   'Ho8 Ge8 O28'
_cell_volume   568.22037385
_cell_formula_units_Z   4
loop_
 _symmetry_equiv_pos_site_id
 _symmetry_equiv_pos_as_xyz
  1  'x, y, z'
loop_
 _atom_site_type_symbol
 _atom_site_label
 _atom_site_symmetry_multiplicity
 _atom_site_fract_x
 _atom_site_fract_y
 _atom_site_fract_z
 _atom_site_occupancy
  Ho  Ho0  1  0.85313784  0.62509952  0.88527360  1
  Ho  Ho1  1  0.35313784  0.87490048  0.86472640  1
  Ho  Ho2  1  0.37490048  0.14686216  0.61472640  1
  Ho  Ho3  1  0.64686216  0.12509952  0.36472640  1
  Ho  Ho4  1  0.14686216  0.37490048  0.38527360  1
  Ho  Ho5  1  0.12509952  0.64686216  0.63527360  1
  Ho  Ho6  1  0.62509952  0.85313784  0.11472640  1
  Ho  Ho7  1  0.87490048  0.35313784  0.13527360  1
  Ge  Ge0  1  0.39998851  0.34768311  0.13108051  1
  Ge  Ge1  1  0.65231689  0.60001149  0.36891949  1
  Ge  Ge2  1  0.60001149  0.65231689  0.63108051  1
  Ge  Ge3  1  0.10001149  0.84768311  0.11891949  1
  Ge  Ge4  1  0.84768311  0.10001149  0.88108051  1
  Ge  Ge5  1  0.15231689  0.89998851  0.38108051  1
  Ge  Ge6  1  0.89998851  0.15231689  0.61891949  1
  Ge  Ge7  1  0.34768311  0.39998851  0.86891949  1
  O  O0  1  0.35660132  0.18225352  0.79433608  1
  O  O1  1  0.07754497  0.96723930  0.62261450  1
  O  O2  1  0.68225352  0.14339868  0.54433608  1
  O  O3  1  0.66141023  0.93602350  0.92881675  1
  O  O4  1  0.33858977  0.06397650  0.42881675  1
  O  O5  1  0.43602350  0.83858977  0.67881675  1
  O  O6  1  0.53276070  0.57754497  0.87261450  1
  O  O7  1  0.42245503  0.46723930  0.62738550  1
  O  O8  1  0.19675068  0.80324932  0.25000000  1
  O  O9  1  0.57754497  0.53276070  0.12738550  1
  O  O10  1  0.30324932  0.30324932  -0.00000000  1
  O  O11  1  0.92245503  0.03276070  0.12261450  1
  O  O12  1  0.14339868  0.68225352  0.45566392  1
  O  O13  1  0.93602350  0.66141023  0.07118325  1
  O  O14  1  0.85660132  0.31774648  0.95566392  1
  O  O15  1  0.03276070  0.92245503  0.87738550  1
  O  O16  1  0.16141023  0.56397650  0.82118325  1
  O  O17  1  0.31774648  0.85660132  0.04433608  1
  O  O18  1  0.64339868  0.81774648  0.29433608  1
  O  O19  1  0.18225352  0.35660132  0.20566392  1
  O  O20  1  0.56397650  0.16141023  0.17881675  1
  O  O21  1  0.81774648  0.64339868  0.70566392  1
  O  O22  1  0.96723930  0.07754497  0.37738550  1
  O  O23  1  0.06397650  0.33858977  0.57118325  1
  O  O24  1  0.69675068  0.69675068  0.50000000  1
  O  O25  1  0.83858977  0.43602350  0.32118325  1
  O  O26  1  0.80324932  0.19675068  0.75000000  1
  O  O27  1  0.46723930  0.42245503  0.37261450  1
loop_
_geom_bond_atom_site_label_1
_geom_bond_atom_site_label_2
_geom_bond_distance
_geom_bond_site_symmetry_2
Ho0 O6 2.202255 1_555
Ho0 O21 2.235072 1_555
Ho0 O14 2.258758 1_555
Ho0 O16 2.273773 1_655
Ho0 O15 2.358160 1_655
Ho0 O13 2.377094 1_556
Ho0 O3 2.535185 1_555
Ho1 O15 2.202255 1_555
Ho1 O17 2.235072 1_556
Ho1 O0 2.258758 1_565
Ho1 O3 2.273773 1_555
Ho1 O6 2.358160 1_555
Ho1 O5 2.377094 1_555
Ho1 O16 2.535185 1_555
Ho2 O7 2.202255 1_555
Ho2 O0 2.235072 1_555
Ho2 O2 2.258758 1_555
Ho2 O5 2.273773 1_545
Ho2 O1 2.358160 1_545
Ho2 O4 2.377094 1_555
Ho2 O23 2.535185 1_555
Ho3 O22 2.202255 1_555
Ho3 O2 2.235072 1_555
Ho3 O18 2.258758 1_545
Ho3 O4 2.273773 1_555
Ho3 O27 2.358160 1_555
Ho3 O20 2.377094 1_555
Ho3 O25 2.535185 1_555
Ho4 O27 2.202255 1_555
Ho4 O19 2.235072 1_555
Ho4 O12 2.258758 1_555
Ho4 O25 2.273773 1_455
Ho4 O22 2.358160 1_455
Ho4 O23 2.377094 1_555
Ho4 O4 2.535185 1_555
Ho5 O1 2.202255 1_555
Ho5 O12 2.235072 1_555
Ho5 O21 2.258758 1_455
Ho5 O23 2.273773 1_555
Ho5 O7 2.358160 1_555
Ho5 O16 2.377094 1_555
Ho5 O5 2.535185 1_555
Ho6 O9 2.202255 1_555
Ho6 O18 2.235072 1_555
Ho6 O17 2.258758 1_555
Ho6 O20 2.273773 1_565
Ho6 O11 2.358160 1_565
Ho6 O3 2.377094 1_554
Ho6 O13 2.535185 1_555
Ho7 O11 2.202255 1_555
Ho7 O14 2.235072 1_554
Ho7 O19 2.258758 1_655
Ho7 O13 2.273773 1_555
Ho7 O9 2.358160 1_555
Ho7 O25 2.377094 1_555
Ho7 O20 2.535185 1_555
Ge0 O9 1.740094 1_555
Ge0 O19 1.741620 1_555
Ge0 O10 1.772889 1_555
Ge0 O20 1.783481 1_555
Ge1 O27 1.740094 1_555
Ge1 O18 1.741620 1_555
Ge1 O24 1.772889 1_555
Ge1 O25 1.783481 1_555
Ge2 O7 1.740094 1_555
Ge2 O21 1.741620 1_555
Ge2 O24 1.772889 1_555
Ge2 O5 1.783481 1_555
Ge3 O11 1.740094 1_465
Ge3 O17 1.741620 1_555
Ge3 O8 1.772889 1_555
Ge3 O13 1.783481 1_455
Ge4 O15 1.740094 1_645
Ge4 O14 1.741620 1_555
Ge4 O26 1.772889 1_555
Ge4 O3 1.783481 1_545
Ge5 O22 1.740094 1_465
Ge5 O12 1.741620 1_555
Ge5 O8 1.772889 1_555
Ge5 O4 1.783481 1_565
Ge6 O1 1.740094 1_645
Ge6 O2 1.741620 1_555
Ge6 O26 1.772889 1_555
Ge6 O23 1.783481 1_655
Ge7 O6 1.740094 1_555
Ge7 O0 1.741620 1_555
Ge7 O10 1.772889 1_556
Ge7 O16 1.783481 1_555
