# generated using pymatgen
data_RbV3Cd3O11
_symmetry_space_group_name_H-M   'P 1'
_cell_length_a   9.96822900
_cell_length_b   8.56877600
_cell_length_c   12.87439557
_cell_angle_alpha   81.67253222
_cell_angle_beta   90.00000000
_cell_angle_gamma   90.00000000
_symmetry_Int_Tables_number   1
_chemical_formula_structural   RbV3Cd3O11
_chemical_formula_sum   'Rb4 V12 Cd12 O44'
_cell_volume   1088.07877357
_cell_formula_units_Z   4
loop_
 _symmetry_equiv_pos_site_id
 _symmetry_equiv_pos_as_xyz
  1  'x, y, z'
loop_
 _atom_site_type_symbol
 _atom_site_label
 _atom_site_symmetry_multiplicity
 _atom_site_fract_x
 _atom_site_fract_y
 _atom_site_fract_z
 _atom_site_occupancy
  Rb  Rb0  1  0.74757200  0.88862300  0.50973700  1
  Rb  Rb1  1  0.24757200  0.11137700  0.99026300  1
  Rb  Rb2  1  0.25242800  0.11137700  0.49026300  1
  Rb  Rb3  1  0.75242800  0.88862300  0.00973700  1
  V  V0  1  0.67521300  0.67916300  0.78416100  1
  V  V1  1  0.43184700  0.76443600  0.14926900  1
  V  V2  1  0.06815300  0.76443600  0.64926900  1
  V  V3  1  0.56779100  0.22245200  0.60539200  1
  V  V4  1  0.56815300  0.23556400  0.85073100  1
  V  V5  1  0.32478700  0.32083700  0.21583900  1
  V  V6  1  0.82478700  0.67916300  0.28416100  1
  V  V7  1  0.43220900  0.77754800  0.39460800  1
  V  V8  1  0.17521300  0.32083700  0.71583900  1
  V  V9  1  0.06779100  0.77754800  0.89460800  1
  V  V10  1  0.93220900  0.22245200  0.10539200  1
  V  V11  1  0.93184700  0.23556400  0.35073100  1
  Cd  Cd0  1  0.89509100  0.43257600  0.84695500  1
  Cd  Cd1  1  0.64516800  0.45237600  0.06781900  1
  Cd  Cd2  1  0.37510400  0.91968600  0.76125300  1
  Cd  Cd3  1  0.12489600  0.91968600  0.26125300  1
  Cd  Cd4  1  0.87510400  0.08031400  0.73874700  1
  Cd  Cd5  1  0.85483200  0.45237600  0.56781900  1
  Cd  Cd6  1  0.35483200  0.54762400  0.93218100  1
  Cd  Cd7  1  0.60490900  0.43257600  0.34695500  1
  Cd  Cd8  1  0.14516800  0.54762400  0.43218100  1
  Cd  Cd9  1  0.62489600  0.08031400  0.23874700  1
  Cd  Cd10  1  0.39509100  0.56742400  0.65304500  1
  Cd  Cd11  1  0.10490900  0.56742400  0.15304500  1
  O  O0  1  0.00773500  0.67893400  0.28296800  1
  O  O1  1  0.76951900  0.86879900  0.26635700  1
  O  O2  1  0.26951900  0.13120100  0.23364300  1
  O  O3  1  0.25622500  0.78419500  0.39667300  1
  O  O4  1  0.49520800  0.67602300  0.50750300  1
  O  O5  1  0.73048100  0.86879900  0.76635700  1
  O  O6  1  0.25828800  0.78251300  0.14910000  1
  O  O7  1  0.49837100  0.96207000  0.37653400  1
  O  O8  1  0.51049000  0.34635000  0.94484000  1
  O  O9  1  0.73264900  0.58338700  0.90726300  1
  O  O10  1  0.98359700  0.32340100  0.21686700  1
  O  O11  1  0.99226500  0.32106600  0.71703200  1
  O  O12  1  0.50479200  0.32397700  0.49249700  1
  O  O13  1  0.23264900  0.41661300  0.59273700  1
  O  O14  1  0.74171200  0.21748700  0.85090000  1
  O  O15  1  0.48951000  0.65365000  0.05516000  1
  O  O16  1  0.48359700  0.67659900  0.28313300  1
  O  O17  1  0.26735100  0.41661300  0.09273700  1
  O  O18  1  0.26067800  0.42015900  0.31283200  1
  O  O19  1  0.74377500  0.21580500  0.60332700  1
  O  O20  1  0.01049000  0.65365000  0.55516000  1
  O  O21  1  0.51640300  0.32340100  0.71686700  1
  O  O22  1  0.99837100  0.03793000  0.12346600  1
  O  O23  1  0.00479200  0.67602300  0.00750300  1
  O  O24  1  0.75828800  0.21748700  0.35090000  1
  O  O25  1  0.99785600  0.94622700  0.62758300  1
  O  O26  1  0.23932200  0.42015900  0.81283200  1
  O  O27  1  0.00214400  0.05377300  0.37241700  1
  O  O28  1  0.00162900  0.96207000  0.87653400  1
  O  O29  1  0.01640300  0.67659900  0.78313300  1
  O  O30  1  0.73932200  0.57984100  0.68716800  1
  O  O31  1  0.49785600  0.05377300  0.87241700  1
  O  O32  1  0.75622500  0.21580500  0.10332700  1
  O  O33  1  0.50773500  0.32106600  0.21703200  1
  O  O34  1  0.99520800  0.32397700  0.99249700  1
  O  O35  1  0.24377500  0.78419500  0.89667300  1
  O  O36  1  0.76735100  0.58338700  0.40726300  1
  O  O37  1  0.50162900  0.03793000  0.62346600  1
  O  O38  1  0.98951000  0.34635000  0.44484000  1
  O  O39  1  0.76067800  0.57984100  0.18716800  1
  O  O40  1  0.50214400  0.94622700  0.12758300  1
  O  O41  1  0.23048100  0.13120100  0.73364300  1
  O  O42  1  0.49226500  0.67893400  0.78296800  1
  O  O43  1  0.24171200  0.78251300  0.64910000  1
loop_
_geom_bond_atom_site_label_1
_geom_bond_atom_site_label_2
_geom_bond_distance
_geom_bond_site_symmetry_2
Cd0 O34 2.206321 1_555
Cd0 O11 2.260992 1_555
Cd0 O9 2.277153 1_555
Cd0 O14 2.389536 1_555
Cd0 O29 2.451936 1_655
Cd0 O30 2.735568 1_555
Cd1 O32 2.296808 1_555
Cd1 O15 2.308074 1_555
Cd1 O39 2.316426 1_555
Cd1 O8 2.356086 1_554
Cd1 O9 2.370920 1_554
Cd1 O33 2.491395 1_555
Cd2 O37 2.289863 1_565
Cd2 O41 2.302810 1_565
Cd2 O31 2.311257 1_565
Cd2 O35 2.348403 1_555
Cd2 O42 2.351771 1_555
Cd2 O43 2.392925 1_555
Cd3 O22 2.289863 1_465
Cd3 O2 2.302810 1_565
Cd3 O27 2.311257 1_565
Cd3 O3 2.348403 1_555
Cd3 O0 2.351771 1_555
Cd3 O6 2.392925 1_555
Cd4 O28 2.289863 1_645
Cd4 O5 2.302810 1_545
Cd4 O25 2.311257 1_545
Cd4 O19 2.348403 1_555
Cd4 O11 2.351771 1_555
Cd4 O14 2.392925 1_555
Cd5 O19 2.296808 1_555
Cd5 O20 2.308074 1_655
Cd5 O30 2.316426 1_555
Cd5 O38 2.356086 1_555
Cd5 O36 2.370920 1_555
Cd5 O11 2.491395 1_555
Cd6 O35 2.296808 1_555
Cd6 O8 2.308074 1_555
Cd6 O26 2.316426 1_555
Cd6 O15 2.356086 1_556
Cd6 O17 2.370920 1_556
Cd6 O42 2.491395 1_555
Cd7 O12 2.206321 1_555
Cd7 O33 2.260992 1_555
Cd7 O36 2.277153 1_555
Cd7 O24 2.389536 1_555
Cd7 O16 2.451936 1_555
Cd7 O39 2.735568 1_555
Cd8 O3 2.296808 1_555
Cd8 O38 2.308074 1_455
Cd8 O18 2.316426 1_555
Cd8 O20 2.356086 1_555
Cd8 O13 2.370920 1_555
Cd8 O0 2.491395 1_555
Cd9 O7 2.289863 1_545
Cd9 O1 2.302810 1_545
Cd9 O40 2.311257 1_545
Cd9 O32 2.348403 1_555
Cd9 O33 2.351771 1_555
Cd9 O24 2.392925 1_555
Cd10 O4 2.206321 1_555
Cd10 O42 2.260992 1_555
Cd10 O13 2.277153 1_555
Cd10 O43 2.389536 1_555
Cd10 O21 2.451936 1_555
Cd10 O26 2.735568 1_555
Cd11 O23 2.206321 1_555
Cd11 O0 2.260992 1_555
Cd11 O17 2.277153 1_555
Cd11 O6 2.389536 1_555
Cd11 O10 2.451936 1_455
Cd11 O18 2.735568 1_555
O0 V6 1.823736 1_455
O1 V6 1.699596 1_555
O1 Rb0 3.170000 1_555
O1 Rb3 3.287947 1_555
O2 V5 1.699596 1_555
O2 Rb1 3.170000 1_554
O2 Rb2 3.287947 1_555
O3 V7 1.755499 1_555
O3 Rb2 3.208057 1_565
O4 V7 1.702190 1_555
O4 Rb0 3.108541 1_555
O5 V0 1.699596 1_555
O5 Rb3 3.170000 1_556
O5 Rb0 3.287947 1_555
O6 V1 1.736969 1_555
O6 Rb1 3.234946 1_564
O7 V7 1.697794 1_555
O7 Rb0 3.032340 1_555
O7 Rb2 3.214607 1_565
O8 V4 1.741462 1_555
O8 Rb1 3.305081 1_555
O9 V0 1.770976 1_555
O9 Rb3 3.101571 1_556
O10 V11 1.851226 1_555
O10 V10 1.852014 1_555
O11 V8 1.823736 1_655
O12 V3 1.702190 1_555
O12 Rb2 3.108541 1_555
O13 V8 1.770976 1_555
O13 Rb2 3.101571 1_555
O14 V4 1.736969 1_555
O14 Rb3 3.234946 1_546
O15 V1 1.741462 1_555
O15 Rb3 3.305081 1_555
O16 V1 1.851226 1_555
O16 V7 1.852014 1_555
O17 V5 1.770976 1_555
O17 Rb1 3.101571 1_554
O18 V5 1.732011 1_555
O18 Rb2 3.236487 1_555
O19 V3 1.755499 1_555
O19 Rb0 3.208057 1_545
O20 V2 1.741462 1_555
O20 Rb0 3.305081 1_455
O21 V4 1.851226 1_555
O21 V3 1.852014 1_555
O22 V10 1.697794 1_555
O22 Rb1 3.032340 1_654
O22 Rb3 3.214607 1_545
O23 V9 1.702190 1_554
O23 Rb3 3.108541 1_455
O24 V11 1.736969 1_555
O24 Rb0 3.234946 1_545
O25 V2 1.693965 1_655
O25 Rb0 2.997817 1_555
O25 Rb2 3.292872 1_665
O26 V8 1.732011 1_555
O26 Rb1 3.236487 1_555
O27 V11 1.693965 1_455
O27 Rb2 2.997817 1_555
O27 Rb0 3.292872 1_445
O28 V9 1.697794 1_555
O28 Rb3 3.032340 1_456
O28 Rb1 3.214607 1_565
O29 V2 1.851226 1_555
O29 V9 1.852014 1_555
O30 V0 1.732011 1_555
O30 Rb0 3.236487 1_555
O31 V4 1.693965 1_555
O31 Rb1 2.997817 1_555
O31 Rb3 3.292872 1_546
O32 V10 1.755499 1_555
O32 Rb3 3.208057 1_545
O33 V5 1.823736 1_555
O34 V10 1.702190 1_556
O34 Rb1 3.108541 1_655
O35 V9 1.755499 1_555
O35 Rb1 3.208057 1_565
O36 V6 1.770976 1_555
O36 Rb0 3.101571 1_555
O37 V3 1.697794 1_555
O37 Rb2 3.032340 1_555
O37 Rb0 3.214607 1_545
O38 V11 1.741462 1_555
O38 Rb2 3.305081 1_655
O39 V6 1.732011 1_555
O39 Rb3 3.236487 1_555
O40 V1 1.693965 1_555
O40 Rb3 2.997817 1_555
O40 Rb1 3.292872 1_564
O41 V8 1.699596 1_555
O41 Rb2 3.170000 1_555
O41 Rb1 3.287947 1_555
O42 V0 1.823736 1_555
O43 V2 1.736969 1_555
O43 Rb2 3.234946 1_565
