# generated using pymatgen
data_K2SeO4
_symmetry_space_group_name_H-M   'P 1'
_cell_length_a   5.96881945
_cell_length_b   7.61982623
_cell_length_c   10.41087262
_cell_angle_alpha   90.00000000
_cell_angle_beta   90.00000000
_cell_angle_gamma   90.00000000
_symmetry_Int_Tables_number   1
_chemical_formula_structural   K2SeO4
_chemical_formula_sum   'K8 Se4 O16'
_cell_volume   473.50071850
_cell_formula_units_Z   4
loop_
 _symmetry_equiv_pos_site_id
 _symmetry_equiv_pos_as_xyz
  1  'x, y, z'
loop_
 _atom_site_type_symbol
 _atom_site_label
 _atom_site_symmetry_multiplicity
 _atom_site_fract_x
 _atom_site_fract_y
 _atom_site_fract_z
 _atom_site_occupancy
  K  K0  1  0.25000000  0.00171586  0.29446555  1
  K  K1  1  0.75000000  0.99828414  0.70553445  1
  K  K2  1  0.25000000  0.50171586  0.20553445  1
  K  K3  1  0.75000000  0.49828414  0.79446555  1
  K  K4  1  0.25000000  0.83573404  0.91969382  1
  K  K5  1  0.75000000  0.16426596  0.08030618  1
  K  K6  1  0.25000000  0.33573404  0.58030618  1
  K  K7  1  0.75000000  0.66426596  0.41969382  1
  Se  Se0  1  0.25000000  0.77853896  0.58118884  1
  Se  Se1  1  0.75000000  0.22146104  0.41881116  1
  Se  Se2  1  0.25000000  0.27853896  0.91881116  1
  Se  Se3  1  0.75000000  0.72146104  0.08118884  1
  O  O0  1  0.25000000  0.99407264  0.57098511  1
  O  O1  1  0.75000000  0.00592736  0.42901489  1
  O  O2  1  0.25000000  0.49407264  0.92901489  1
  O  O3  1  0.75000000  0.50592736  0.07098511  1
  O  O4  1  0.25000000  0.68731452  0.43613344  1
  O  O5  1  0.75000000  0.31268548  0.56386656  1
  O  O6  1  0.25000000  0.18731452  0.06386656  1
  O  O7  1  0.75000000  0.81268548  0.93613344  1
  O  O8  1  0.52378946  0.28974088  0.34148011  1
  O  O9  1  0.02378946  0.71025912  0.65851989  1
  O  O10  1  0.97621054  0.78974088  0.15851989  1
  O  O11  1  0.47621054  0.21025912  0.84148011  1
  O  O12  1  0.52378946  0.78974088  0.15851989  1
  O  O13  1  0.02378946  0.21025912  0.84148011  1
  O  O14  1  0.97621054  0.28974088  0.34148011  1
  O  O15  1  0.47621054  0.71025912  0.65851989  1
loop_
_geom_bond_atom_site_label_1
_geom_bond_atom_site_label_2
_geom_bond_distance
_geom_bond_site_symmetry_2
K0 O10 2.698635 1_445
K0 O12 2.698635 1_545
K0 O14 2.779729 1_455
K0 O8 2.779729 1_555
K0 O6 2.786321 1_555
K0 O4 2.813288 1_545
K0 O0 2.879399 1_545
K1 O13 2.698635 1_665
K1 O11 2.698635 1_565
K1 O9 2.779729 1_655
K1 O15 2.779729 1_555
K1 O7 2.786321 1_555
K1 O5 2.813288 1_565
K1 O1 2.879399 1_565
K2 O8 2.698635 1_555
K2 O14 2.698635 1_455
K2 O10 2.779729 1_455
K2 O12 2.779729 1_555
K2 O4 2.786321 1_555
K2 O6 2.813288 1_555
K2 O2 2.879399 1_554
K3 O9 2.698635 1_655
K3 O15 2.698635 1_555
K3 O13 2.779729 1_655
K3 O11 2.779729 1_555
K3 O5 2.786321 1_555
K3 O7 2.813288 1_555
K3 O3 2.879399 1_556
K4 O2 2.605208 1_555
K4 O7 2.994468 1_455
K4 O7 2.994468 1_555
K4 O10 2.995923 1_456
K4 O12 2.995923 1_556
K4 O6 3.070804 1_566
K4 O15 3.182831 1_555
K4 O9 3.182831 1_555
K4 O11 3.260425 1_565
K4 O13 3.260425 1_565
K5 O3 2.605208 1_555
K5 O6 2.994468 1_655
K5 O6 2.994468 1_555
K5 O13 2.995923 1_654
K5 O11 2.995923 1_554
K5 O7 3.070804 1_544
K5 O14 3.182831 1_555
K5 O8 3.182831 1_555
K5 O10 3.260425 1_545
K5 O12 3.260425 1_545
K6 O0 2.605208 1_545
K6 O5 2.994468 1_555
K6 O5 2.994468 1_455
K6 O14 2.995923 1_455
K6 O8 2.995923 1_555
K6 O4 3.070804 1_555
K6 O11 3.182831 1_555
K6 O13 3.182831 1_555
K6 O15 3.260425 1_555
K6 O9 3.260425 1_555
K7 O1 2.605208 1_565
K7 O4 2.994468 1_655
K7 O4 2.994468 1_555
K7 O9 2.995923 1_655
K7 O15 2.995923 1_555
K7 O5 3.070804 1_555
K7 O12 3.182831 1_555
K7 O10 3.182831 1_555
K7 O14 3.260425 1_555
K7 O8 3.260425 1_555
O0 Se0 1.645761 1_555
O1 Se1 1.645761 1_555
O2 Se2 1.645761 1_555
O3 Se3 1.645761 1_555
O4 Se0 1.662452 1_555
O5 Se1 1.662452 1_555
O6 Se2 1.662452 1_554
O7 Se3 1.662452 1_556
O8 Se1 1.655874 1_555
O9 Se0 1.655874 1_555
O10 Se3 1.655874 1_555
O11 Se2 1.655874 1_555
O12 Se3 1.655874 1_555
O13 Se2 1.655874 1_555
O14 Se1 1.655874 1_555
O15 Se0 1.655874 1_555
