# generated using pymatgen
data_Ga
_symmetry_space_group_name_H-M   'P 1'
_cell_length_a   7.69439623
_cell_length_b   7.69439588
_cell_length_c   7.69439506
_cell_angle_alpha   71.98138910
_cell_angle_beta   71.98138976
_cell_angle_gamma   71.98138812
_symmetry_Int_Tables_number   1
_chemical_formula_structural   Ga
_chemical_formula_sum   Ga22
_cell_volume   400.28880237
_cell_formula_units_Z   22
loop_
 _symmetry_equiv_pos_site_id
 _symmetry_equiv_pos_as_xyz
  1  'x, y, z'
loop_
 _atom_site_type_symbol
 _atom_site_label
 _atom_site_symmetry_multiplicity
 _atom_site_fract_x
 _atom_site_fract_y
 _atom_site_fract_z
 _atom_site_occupancy
  Ga  Ga0  1  0.62418588  0.32201688  0.32201688  1
  Ga  Ga1  1  0.37581412  0.67798312  0.67798312  1
  Ga  Ga2  1  0.97870251  0.27864654  0.27864654  1
  Ga  Ga3  1  0.61327765  0.10005770  0.10005770  1
  Ga  Ga4  1  0.02129749  0.72135346  0.72135346  1
  Ga  Ga5  1  0.38672235  0.89994230  0.89994230  1
  Ga  Ga6  1  0.32201688  0.32201688  0.62418588  1
  Ga  Ga7  1  0.67798312  0.37581412  0.67798312  1
  Ga  Ga8  1  0.72135346  0.02129749  0.72135346  1
  Ga  Ga9  1  0.10005770  0.61327765  0.10005770  1
  Ga  Ga10  1  0.89994230  0.89994230  0.38672235  1
  Ga  Ga11  1  0.67798312  0.67798312  0.37581412  1
  Ga  Ga12  1  0.00000000  0.50000000  0.50000000  1
  Ga  Ga13  1  0.32201688  0.62418588  0.32201688  1
  Ga  Ga14  1  0.27864654  0.97870251  0.27864654  1
  Ga  Ga15  1  0.72135346  0.72135346  0.02129749  1
  Ga  Ga16  1  0.50000000  0.50000000  -0.00000000  1
  Ga  Ga17  1  0.10005770  0.10005770  0.61327765  1
  Ga  Ga18  1  0.89994230  0.38672235  0.89994230  1
  Ga  Ga19  1  0.00000000  0.00000000  -0.00000000  1
  Ga  Ga20  1  0.27864654  0.27864654  0.97870251  1
  Ga  Ga21  1  0.50000000  0.00000000  0.50000000  1
loop_
_geom_bond_atom_site_label_1
_geom_bond_atom_site_label_2
_geom_bond_distance
_geom_bond_site_symmetry_2
Ga0 Ga2 2.570245 1_555
Ga0 Ga6 2.732600 1_555
Ga0 Ga13 2.732600 1_555
Ga0 Ga16 2.735611 1_555
Ga0 Ga21 2.735611 1_555
Ga0 Ga3 2.796835 1_555
Ga0 Ga7 3.058317 1_555
Ga0 Ga11 3.058317 1_555
Ga1 Ga4 2.570245 1_555
Ga1 Ga11 2.732600 1_555
Ga1 Ga7 2.732600 1_555
Ga1 Ga16 2.735611 1_556
Ga1 Ga21 2.735611 1_565
Ga1 Ga5 2.796835 1_555
Ga1 Ga13 3.058317 1_555
Ga1 Ga6 3.058317 1_555
Ga2 Ga20 2.712479 1_654
Ga2 Ga9 2.809695 1_655
Ga3 Ga8 2.971732 1_554
Ga4 Ga8 2.712479 1_465
Ga4 Ga9 2.971732 1_556
Ga5 Ga8 2.809695 1_565
Ga6 Ga7 3.058318 1_555
Ga7 Ga8 2.570245 1_555
Ga10 Ga19 2.751691 1_665
Ga10 Ga11 2.796835 1_555
Ga10 Ga4 2.809694 1_655
Ga10 Ga8 2.809694 1_565
Ga10 Ga12 2.848223 1_655
Ga10 Ga21 2.848223 1_565
Ga10 Ga2 2.971733 1_565
Ga10 Ga14 2.971733 1_655
Ga11 Ga15 2.570245 1_555
Ga11 Ga7 2.732600 1_555
Ga11 Ga21 2.735611 1_565
Ga11 Ga12 2.735611 1_655
Ga11 Ga13 3.058318 1_555
Ga12 Ga6 2.735611 1_555
Ga12 Ga7 2.735611 1_455
Ga12 Ga13 2.735611 1_555
Ga12 Ga4 2.822843 1_555
Ga12 Ga2 2.822843 1_455
Ga12 Ga18 2.848222 1_455
Ga12 Ga9 2.848222 1_555
Ga12 Ga17 2.848223 1_555
Ga13 Ga14 2.570245 1_555
Ga13 Ga6 2.732600 1_555
Ga13 Ga16 2.735611 1_555
Ga13 Ga9 2.796835 1_555
Ga14 Ga20 2.712479 1_564
Ga14 Ga2 2.712479 1_465
Ga14 Ga17 2.809694 1_565
Ga14 Ga3 2.809695 1_565
Ga14 Ga21 2.822843 1_565
Ga14 Ga5 2.971732 1_554
Ga15 Ga8 2.712479 1_564
Ga15 Ga4 2.712479 1_654
Ga15 Ga18 2.809694 1_554
Ga15 Ga5 2.809695 1_554
Ga15 Ga16 2.822843 1_555
Ga15 Ga3 2.971733 1_565
Ga15 Ga9 2.971733 1_655
Ga16 Ga7 2.735611 1_554
Ga16 Ga20 2.822843 1_554
Ga16 Ga5 2.848223 1_554
Ga16 Ga3 2.848223 1_555
Ga16 Ga18 2.848223 1_554
Ga16 Ga9 2.848223 1_555
Ga17 Ga19 2.751691 1_556
Ga17 Ga6 2.796835 1_555
Ga17 Ga2 2.809694 1_455
Ga17 Ga21 2.848223 1_555
Ga17 Ga4 2.971733 1_545
Ga17 Ga8 2.971733 1_455
Ga18 Ga19 2.751691 1_656
Ga18 Ga7 2.796835 1_555
Ga18 Ga4 2.809695 1_655
Ga18 Ga2 2.971732 1_556
Ga18 Ga20 2.971733 1_655
Ga19 Ga9 2.751691 1_545
Ga19 Ga3 2.751691 1_455
Ga19 Ga5 2.751691 1_544
Ga20 Ga6 2.570245 1_555
Ga20 Ga9 2.809694 1_556
Ga20 Ga3 2.809695 1_556
Ga20 Ga5 2.971733 1_545
Ga21 Ga6 2.735611 1_555
Ga21 Ga8 2.822843 1_555
Ga21 Ga5 2.848222 1_545
Ga21 Ga3 2.848222 1_555
