# generated using pymatgen
data_Ni6Se5
_symmetry_space_group_name_H-M   'P 1'
_cell_length_a   6.86156300
_cell_length_b   11.81228500
_cell_length_c   17.01272100
_cell_angle_alpha   90.00000000
_cell_angle_beta   90.00000000
_cell_angle_gamma   90.00000000
_symmetry_Int_Tables_number   1
_chemical_formula_structural   Ni6Se5
_chemical_formula_sum   'Ni48 Se40'
_cell_volume   1378.89358736
_cell_formula_units_Z   8
loop_
 _symmetry_equiv_pos_site_id
 _symmetry_equiv_pos_as_xyz
  1  'x, y, z'
loop_
 _atom_site_type_symbol
 _atom_site_label
 _atom_site_symmetry_multiplicity
 _atom_site_fract_x
 _atom_site_fract_y
 _atom_site_fract_z
 _atom_site_occupancy
  Ni  Ni0  1  0.12715300  0.65347800  0.00418100  1
  Ni  Ni1  1  0.61425600  0.45890500  0.92414400  1
  Ni  Ni2  1  0.86592400  0.96213100  0.07206000  1
  Ni  Ni3  1  0.37670400  0.28317500  0.88004300  1
  Ni  Ni4  1  0.37075800  0.72778700  0.62293700  1
  Ni  Ni5  1  0.13924800  0.19247200  0.77943700  1
  Ni  Ni6  1  0.36687100  0.04247400  0.56954900  1
  Ni  Ni7  1  0.37284700  0.15347800  0.00418100  1
  Ni  Ni8  1  0.13312900  0.54247400  0.56954900  1
  Ni  Ni9  1  0.36592400  0.96213100  0.92794000  1
  Ni  Ni10  1  0.61299100  0.35495900  0.50508800  1
  Ni  Ni11  1  0.37841600  0.32651300  0.27557700  1
  Ni  Ni12  1  0.63312900  0.54247400  0.43045100  1
  Ni  Ni13  1  0.36075200  0.69247200  0.77943700  1
  Ni  Ni14  1  0.87841600  0.32651300  0.72442300  1
  Ni  Ni15  1  0.12710700  0.99003600  0.72440800  1
  Ni  Ni16  1  0.88700900  0.85495900  0.50508800  1
  Ni  Ni17  1  0.62158400  0.82651300  0.72442300  1
  Ni  Ni18  1  0.10812600  0.55047200  0.42237700  1
  Ni  Ni19  1  0.89187400  0.05047200  0.57762300  1
  Ni  Ni20  1  0.12924200  0.22778700  0.62293700  1
  Ni  Ni21  1  0.39187400  0.05047200  0.42237700  1
  Ni  Ni22  1  0.10808700  0.18867500  0.22335200  1
  Ni  Ni23  1  0.89191300  0.68867500  0.77664800  1
  Ni  Ni24  1  0.63924800  0.19247200  0.22056300  1
  Ni  Ni25  1  0.37289300  0.49003600  0.72440800  1
  Ni  Ni26  1  0.38574400  0.95890500  0.07585600  1
  Ni  Ni27  1  0.86075200  0.69247200  0.22056300  1
  Ni  Ni28  1  0.12329600  0.78317500  0.88004300  1
  Ni  Ni29  1  0.60812600  0.55047200  0.57762300  1
  Ni  Ni30  1  0.88574400  0.95890500  0.92414400  1
  Ni  Ni31  1  0.62329600  0.78317500  0.11995700  1
  Ni  Ni32  1  0.13407600  0.46213100  0.92794000  1
  Ni  Ni33  1  0.87670400  0.28317500  0.11995700  1
  Ni  Ni34  1  0.62715300  0.65347800  0.99581900  1
  Ni  Ni35  1  0.11299100  0.35495900  0.49491200  1
  Ni  Ni36  1  0.87289300  0.49003600  0.27559200  1
  Ni  Ni37  1  0.87075800  0.72778700  0.37706300  1
  Ni  Ni38  1  0.60808700  0.18867500  0.77664800  1
  Ni  Ni39  1  0.63407600  0.46213100  0.07206000  1
  Ni  Ni40  1  0.11425600  0.45890500  0.07585600  1
  Ni  Ni41  1  0.62710700  0.99003600  0.27559200  1
  Ni  Ni42  1  0.38700900  0.85495900  0.49491200  1
  Ni  Ni43  1  0.12158400  0.82651300  0.27557700  1
  Ni  Ni44  1  0.62924200  0.22778700  0.37706300  1
  Ni  Ni45  1  0.86687100  0.04247400  0.43045100  1
  Ni  Ni46  1  0.39191300  0.68867500  0.22335200  1
  Ni  Ni47  1  0.87284700  0.15347800  0.99581900  1
  Se  Se0  1  0.11064300  0.38562400  0.20336700  1
  Se  Se1  1  0.12789400  0.62581300  0.69298300  1
  Se  Se2  1  0.87210600  0.12581300  0.30701700  1
  Se  Se3  1  0.87372100  0.13035500  0.70166600  1
  Se  Se4  1  0.62923500  0.11469300  0.09558200  1
  Se  Se5  1  0.62503900  0.15212400  0.50721800  1
  Se  Se6  1  0.61756200  0.10744600  0.90107200  1
  Se  Se7  1  0.63344400  0.90595200  0.59947900  1
  Se  Se8  1  0.37076500  0.61469300  0.90441800  1
  Se  Se9  1  0.37210600  0.12581300  0.69298300  1
  Se  Se10  1  0.13344400  0.90595200  0.40052100  1
  Se  Se11  1  0.11756200  0.10744600  0.09892800  1
  Se  Se12  1  0.62627900  0.63035500  0.70166600  1
  Se  Se13  1  0.35689800  0.38532800  0.59956200  1
  Se  Se14  1  0.12503900  0.15212400  0.49278200  1
  Se  Se15  1  0.36655600  0.40595200  0.40052100  1
  Se  Se16  1  0.62789400  0.62581300  0.30701700  1
  Se  Se17  1  0.88243800  0.60744600  0.90107200  1
  Se  Se18  1  0.61064300  0.38562400  0.79663300  1
  Se  Se19  1  0.87496100  0.65212400  0.50721800  1
  Se  Se20  1  0.38935700  0.88562400  0.20336700  1
  Se  Se21  1  0.63925400  0.38816100  0.19971300  1
  Se  Se22  1  0.86655600  0.40595200  0.59947900  1
  Se  Se23  1  0.86074600  0.88816100  0.19971300  1
  Se  Se24  1  0.14310200  0.88532800  0.59956200  1
  Se  Se25  1  0.37372100  0.13035500  0.29833400  1
  Se  Se26  1  0.12592800  0.85602800  0.00998700  1
  Se  Se27  1  0.85689800  0.38532800  0.40043800  1
  Se  Se28  1  0.87407200  0.35602800  0.99001300  1
  Se  Se29  1  0.62592800  0.85602800  0.99001300  1
  Se  Se30  1  0.12627900  0.63035500  0.29833400  1
  Se  Se31  1  0.36074600  0.88816100  0.80028700  1
  Se  Se32  1  0.37496100  0.65212400  0.49278200  1
  Se  Se33  1  0.12923500  0.11469300  0.90441800  1
  Se  Se34  1  0.88935700  0.88562400  0.79663300  1
  Se  Se35  1  0.38243800  0.60744600  0.09892800  1
  Se  Se36  1  0.87076500  0.61469300  0.09558200  1
  Se  Se37  1  0.13925400  0.38816100  0.80028700  1
  Se  Se38  1  0.37407200  0.35602800  0.00998700  1
  Se  Se39  1  0.64310200  0.88532800  0.40043800  1
loop_
_geom_bond_atom_site_label_1
_geom_bond_atom_site_label_2
_geom_bond_distance
_geom_bond_site_symmetry_2
Ni0 Se36 2.392220 1_455
Ni0 Se26 2.394631 1_555
Ni0 Se8 2.425825 1_554
Ni0 Se35 2.441758 1_555
Ni0 Se17 2.488417 1_454
Ni1 Se18 2.335767 1_555
Ni1 Se28 2.431190 1_555
Ni1 Se8 2.508055 1_555
Ni1 Se38 2.515075 1_556
Ni1 Se17 2.572715 1_555
Ni2 Se23 2.341175 1_555
Ni2 Se26 2.422558 1_655
Ni2 Se4 2.458716 1_565
Ni2 Se11 2.477210 1_665
Ni2 Se29 2.496190 1_554
Ni3 Se38 2.372359 1_556
Ni3 Se37 2.456327 1_555
Ni3 Se18 2.460641 1_555
Ni3 Se33 2.648769 1_555
Ni3 Se6 2.677325 1_555
Ni4 Se1 2.376551 1_555
Ni4 Se32 2.388035 1_555
Ni4 Se24 2.461960 1_555
Ni4 Se12 2.488474 1_555
Ni4 Se7 2.799485 1_555
Ni5 Se9 2.310014 1_555
Ni5 Se33 2.317289 1_555
Ni5 Se37 2.338592 1_555
Ni5 Se3 2.368205 1_455
Ni6 Se9 2.319518 1_555
Ni6 Se5 2.437224 1_555
Ni6 Se24 2.462491 1_545
Ni6 Se14 2.477235 1_555
Ni6 Se7 2.491085 1_545
Ni7 Se4 2.392220 1_555
Ni7 Se38 2.394631 1_555
Ni7 Se33 2.425825 1_554
Ni7 Se11 2.441758 1_555
Ni7 Se6 2.488417 1_554
Ni8 Se1 2.319518 1_555
Ni8 Se19 2.437224 1_455
Ni8 Se13 2.462491 1_555
Ni8 Se32 2.477235 1_555
Ni8 Se22 2.491085 1_455
Ni9 Se31 2.341175 1_555
Ni9 Se29 2.422558 1_555
Ni9 Se33 2.458716 1_565
Ni9 Se6 2.477210 1_565
Ni9 Se26 2.496190 1_556
Ni10 Se5 2.397644 1_555
Ni10 Se13 2.408260 1_555
Ni10 Se22 2.443082 1_555
Ni10 Se27 2.469681 1_555
Ni10 Se15 2.527210 1_555
Ni11 Se0 2.317874 1_555
Ni11 Se21 2.323638 1_555
Ni11 Se15 2.324966 1_555
Ni11 Se25 2.349417 1_555
Ni12 Se16 2.319518 1_555
Ni12 Se32 2.437224 1_555
Ni12 Se27 2.462491 1_555
Ni12 Se19 2.477235 1_555
Ni12 Se15 2.491085 1_555
Ni13 Se1 2.310014 1_555
Ni13 Se8 2.317289 1_555
Ni13 Se31 2.338592 1_555
Ni13 Se12 2.368205 1_555
Ni14 Se18 2.317874 1_555
Ni14 Se37 2.323638 1_655
Ni14 Se22 2.324966 1_555
Ni14 Se3 2.349417 1_555
Ni15 Se9 2.384142 1_565
Ni15 Se31 2.384236 1_555
Ni15 Se34 2.385835 1_455
Ni15 Se3 2.433059 1_465
Ni15 Se24 2.460299 1_555
Ni16 Se19 2.397644 1_555
Ni16 Se24 2.408260 1_655
Ni16 Se7 2.443082 1_555
Ni16 Se39 2.469681 1_555
Ni16 Se10 2.527210 1_655
Ni17 Se34 2.317874 1_555
Ni17 Se31 2.323638 1_555
Ni17 Se7 2.324966 1_555
Ni17 Se12 2.349417 1_555
Ni18 Se30 2.315016 1_555
Ni18 Se19 2.466723 1_455
Ni18 Se15 2.489346 1_555
Ni18 Se32 2.495731 1_555
Ni18 Se27 2.629866 1_455
Ni19 Se3 2.315016 1_555
Ni19 Se14 2.466723 1_655
Ni19 Se7 2.489346 1_545
Ni19 Se5 2.495731 1_555
Ni19 Se24 2.629866 1_645
Ni20 Se9 2.376551 1_555
Ni20 Se14 2.388035 1_555
Ni20 Se13 2.461960 1_555
Ni20 Se3 2.488474 1_455
Ni20 Se22 2.799485 1_455
Ni21 Se25 2.315016 1_555
Ni21 Se5 2.466723 1_555
Ni21 Se10 2.489346 1_545
Ni21 Se14 2.495731 1_555
Ni21 Se39 2.629866 1_545
Ni22 Se2 2.280166 1_455
Ni22 Se11 2.325010 1_555
Ni22 Se25 2.328939 1_555
Ni22 Se0 2.351197 1_555
Ni23 Se1 2.280166 1_655
Ni23 Se17 2.325010 1_555
Ni23 Se12 2.328939 1_555
Ni23 Se34 2.351197 1_555
Ni24 Se2 2.310014 1_555
Ni24 Se4 2.317289 1_555
Ni24 Se21 2.338592 1_555
Ni24 Se25 2.368205 1_555
Ni25 Se1 2.384142 1_555
Ni25 Se37 2.384236 1_555
Ni25 Se18 2.385835 1_555
Ni25 Se12 2.433059 1_555
Ni25 Se13 2.460299 1_555
Ni26 Se20 2.335767 1_555
Ni26 Se26 2.431190 1_555
Ni26 Se4 2.508055 1_565
Ni26 Se29 2.515075 1_554
Ni26 Se11 2.572715 1_565
Ni27 Se16 2.310014 1_555
Ni27 Se36 2.317289 1_555
Ni27 Se23 2.338592 1_555
Ni27 Se30 2.368205 1_655
Ni28 Se26 2.372359 1_556
Ni28 Se31 2.456327 1_555
Ni28 Se34 2.460641 1_455
Ni28 Se8 2.648769 1_555
Ni28 Se17 2.677325 1_455
Ni29 Se12 2.315016 1_555
Ni29 Se32 2.466723 1_555
Ni29 Se22 2.489346 1_555
Ni29 Se19 2.495731 1_555
Ni29 Se13 2.629866 1_555
Ni30 Se34 2.335767 1_555
Ni30 Se29 2.431190 1_555
Ni30 Se33 2.508055 1_665
Ni30 Se26 2.515075 1_656
Ni30 Se6 2.572715 1_565
Ni31 Se29 2.372359 1_554
Ni31 Se23 2.456327 1_555
Ni31 Se20 2.460641 1_555
Ni31 Se36 2.648769 1_555
Ni31 Se35 2.677325 1_555
Ni32 Se37 2.341175 1_555
Ni32 Se28 2.422558 1_455
Ni32 Se8 2.458716 1_555
Ni32 Se17 2.477210 1_455
Ni32 Se38 2.496190 1_556
Ni33 Se28 2.372359 1_554
Ni33 Se21 2.456327 1_555
Ni33 Se0 2.460641 1_655
Ni33 Se4 2.648769 1_555
Ni33 Se11 2.677325 1_655
Ni34 Se8 2.392220 1_555
Ni34 Se29 2.394631 1_555
Ni34 Se36 2.425825 1_556
Ni34 Se17 2.441758 1_555
Ni34 Se35 2.488417 1_556
Ni35 Se14 2.397644 1_555
Ni35 Se27 2.408260 1_455
Ni35 Se15 2.443082 1_555
Ni35 Se13 2.469681 1_555
Ni35 Se22 2.527210 1_455
Ni36 Se16 2.384142 1_555
Ni36 Se21 2.384236 1_555
Ni36 Se0 2.385835 1_655
Ni36 Se30 2.433059 1_655
Ni36 Se27 2.460299 1_555
Ni37 Se16 2.376551 1_555
Ni37 Se19 2.388035 1_555
Ni37 Se39 2.461960 1_555
Ni37 Se30 2.488474 1_655
Ni37 Se10 2.799485 1_655
Ni38 Se9 2.280166 1_555
Ni38 Se6 2.325010 1_555
Ni38 Se3 2.328939 1_555
Ni38 Se18 2.351197 1_555
Ni39 Se21 2.341175 1_555
Ni39 Se38 2.422558 1_555
Ni39 Se36 2.458716 1_555
Ni39 Se35 2.477210 1_555
Ni39 Se28 2.496190 1_554
Ni40 Se0 2.335767 1_555
Ni40 Se38 2.431190 1_555
Ni40 Se36 2.508055 1_455
Ni40 Se28 2.515075 1_454
Ni40 Se35 2.572715 1_555
Ni41 Se2 2.384142 1_565
Ni41 Se23 2.384236 1_555
Ni41 Se20 2.385835 1_555
Ni41 Se25 2.433059 1_565
Ni41 Se39 2.460299 1_555
Ni42 Se32 2.397644 1_555
Ni42 Se39 2.408260 1_555
Ni42 Se10 2.443082 1_555
Ni42 Se24 2.469681 1_555
Ni42 Se7 2.527210 1_555
Ni43 Se20 2.317874 1_555
Ni43 Se23 2.323638 1_455
Ni43 Se10 2.324966 1_555
Ni43 Se30 2.349417 1_555
Ni44 Se2 2.376551 1_555
Ni44 Se5 2.388035 1_555
Ni44 Se27 2.461960 1_555
Ni44 Se25 2.488474 1_555
Ni44 Se15 2.799485 1_555
Ni45 Se2 2.319518 1_555
Ni45 Se14 2.437224 1_655
Ni45 Se39 2.462491 1_545
Ni45 Se5 2.477235 1_555
Ni45 Se10 2.491085 1_645
Ni46 Se16 2.280166 1_555
Ni46 Se35 2.325010 1_555
Ni46 Se30 2.328939 1_555
Ni46 Se20 2.351197 1_555
Ni47 Se33 2.392220 1_655
Ni47 Se28 2.394631 1_555
Ni47 Se4 2.425825 1_556
Ni47 Se6 2.441758 1_555
Ni47 Se11 2.488417 1_656
