# generated using pymatgen
data_Cs3Mg2Cl7
_symmetry_space_group_name_H-M   'P 1'
_cell_length_a   14.09436072
_cell_length_b   14.09436072
_cell_length_c   14.09436072
_cell_angle_alpha   158.95173520
_cell_angle_beta   158.95173520
_cell_angle_gamma   29.93909315
_symmetry_Int_Tables_number   1
_chemical_formula_structural   Cs3Mg2Cl7
_chemical_formula_sum   'Cs3 Mg2 Cl7'
_cell_volume   360.94362280
_cell_formula_units_Z   1
loop_
 _symmetry_equiv_pos_site_id
 _symmetry_equiv_pos_as_xyz
  1  'x, y, z'
loop_
 _atom_site_type_symbol
 _atom_site_label
 _atom_site_symmetry_multiplicity
 _atom_site_fract_x
 _atom_site_fract_y
 _atom_site_fract_z
 _atom_site_occupancy
  Cs  Cs0  1  0.18454100  0.18454100  0.00000000  1
  Cs  Cs1  1  0.81545900  0.81545900  0.00000000  1
  Cs  Cs2  1  0.00000000  0.00000000  0.00000000  1
  Mg  Mg0  1  0.40398200  0.40398200  0.00000000  1
  Mg  Mg1  1  0.59601800  0.59601800  0.00000000  1
  Cl  Cl0  1  0.90545500  0.40545500  0.50000000  1
  Cl  Cl1  1  0.31224500  0.31224500  0.00000000  1
  Cl  Cl2  1  0.40545500  0.90545500  0.50000000  1
  Cl  Cl3  1  0.59454500  0.09454500  0.50000000  1
  Cl  Cl4  1  0.68775500  0.68775500  0.00000000  1
  Cl  Cl5  1  0.09454500  0.59454500  0.50000000  1
  Cl  Cl6  1  0.50000000  0.50000000  0.00000000  1
loop_
_geom_bond_atom_site_label_1
_geom_bond_atom_site_label_2
_geom_bond_distance
_geom_bond_site_symmetry_2
Cl0 Mg0 2.574642 1_656
Cl0 Mg0 2.574642 1_555
Cl0 Cs1 3.554362 1_545
Cl0 Cs1 3.554362 1_556
Cl0 Cs2 3.640884 1_655
Cl0 Cs2 3.640884 1_666
Cl1 Mg0 2.498190 1_555
Cl1 Cs0 3.477647 1_555
Cl1 Cs1 3.641704 1_444
Cl1 Cs1 3.641704 1_545
Cl1 Cs1 3.641704 1_556
Cl1 Cs1 3.641704 1_455
Cl2 Mg0 2.574642 1_566
Cl2 Mg0 2.574642 1_555
Cl2 Cs1 3.554362 1_455
Cl2 Cs1 3.554362 1_556
Cl2 Cs2 3.640884 1_565
Cl2 Cs2 3.640884 1_666
Cl3 Mg1 2.574642 1_545
Cl3 Mg1 2.574642 1_556
Cl3 Cs0 3.554362 1_656
Cl3 Cs0 3.554362 1_555
Cl3 Cs2 3.640884 1_656
Cl3 Cs2 3.640884 1_555
Cl4 Mg1 2.498190 1_555
Cl4 Cs1 3.477647 1_555
Cl4 Cs0 3.641704 1_655
Cl4 Cs0 3.641704 1_565
Cl4 Cs0 3.641704 1_666
Cl4 Cs0 3.641704 1_554
Cl5 Mg1 2.574642 1_455
Cl5 Mg1 2.574642 1_556
Cl5 Cs0 3.554362 1_566
Cl5 Cs0 3.554362 1_555
Cl5 Cs2 3.640884 1_566
Cl5 Cs2 3.640884 1_555
Cl6 Mg1 2.614771 1_555
Cl6 Mg0 2.614771 1_555
Cl6 Cs2 3.640652 1_554
Cl6 Cs2 3.640652 1_666
Cl6 Cs2 3.640652 1_565
Cl6 Cs2 3.640652 1_655
