# generated using pymatgen
data_Th3Sb4
_symmetry_space_group_name_H-M   'P 1'
_cell_length_a   8.19544591
_cell_length_b   8.19544597
_cell_length_c   8.19544497
_cell_angle_alpha   109.47122338
_cell_angle_beta   109.47122350
_cell_angle_gamma   109.47122130
_symmetry_Int_Tables_number   1
_chemical_formula_structural   Th3Sb4
_chemical_formula_sum   'Th6 Sb8'
_cell_volume   423.73642050
_cell_formula_units_Z   2
loop_
 _symmetry_equiv_pos_site_id
 _symmetry_equiv_pos_as_xyz
  1  'x, y, z'
loop_
 _atom_site_type_symbol
 _atom_site_label
 _atom_site_symmetry_multiplicity
 _atom_site_fract_x
 _atom_site_fract_y
 _atom_site_fract_z
 _atom_site_occupancy
  Th  Th0  1  0.75000000  0.87500000  0.12500000  1
  Th  Th1  1  0.62500000  0.37500000  0.25000000  1
  Th  Th2  1  0.87500000  0.12500000  0.75000000  1
  Th  Th3  1  0.12500000  0.75000000  0.87500000  1
  Th  Th4  1  0.37500000  0.25000000  0.62500000  1
  Th  Th5  1  0.25000000  0.62500000  0.37500000  1
  Sb  Sb0  1  0.65819432  0.65819432  0.65819432  1
  Sb  Sb1  1  0.34180568  0.50000000  -0.00000000  1
  Sb  Sb2  1  0.50000000  -0.00000000  0.34180568  1
  Sb  Sb3  1  -0.00000000  0.34180568  0.50000000  1
  Sb  Sb4  1  0.50000000  -0.00000000  0.84180568  1
  Sb  Sb5  1  -0.00000000  0.84180568  0.50000000  1
  Sb  Sb6  1  0.15819432  0.15819432  0.15819432  1
  Sb  Sb7  1  0.84180568  0.50000000  -0.00000000  1
loop_
_geom_bond_atom_site_label_1
_geom_bond_atom_site_label_2
_geom_bond_distance
_geom_bond_site_symmetry_2
Sb0 Th1 3.232351 1_555
Sb0 Th5 3.232351 1_555
Sb0 Th4 3.232351 1_555
Sb0 Th0 3.319207 1_556
Sb0 Th3 3.319208 1_655
Sb0 Th2 3.319208 1_565
Sb1 Th4 3.232351 1_554
Sb1 Th1 3.232351 1_555
Sb1 Th0 3.232351 1_555
Sb1 Th5 3.319208 1_555
Sb1 Th2 3.319208 1_454
Sb1 Th3 3.319208 1_554
Sb2 Th2 3.232351 1_555
Sb2 Th4 3.232351 1_555
Sb2 Th5 3.232351 1_545
Sb2 Th3 3.319207 1_544
Sb2 Th0 3.319208 1_545
Sb2 Th1 3.319208 1_555
Sb3 Th3 3.232351 1_555
Sb3 Th1 3.232351 1_455
Sb3 Th5 3.232351 1_555
Sb3 Th0 3.319208 1_445
Sb3 Th2 3.319208 1_455
Sb3 Th4 3.319208 1_555
Sb4 Th1 3.232351 1_556
Sb4 Th0 3.232351 1_546
Sb4 Th3 3.232351 1_545
Sb4 Th5 3.319207 1_545
Sb4 Th4 3.319208 1_555
Sb4 Th2 3.319208 1_555
Sb5 Th0 3.232351 1_455
Sb5 Th2 3.232351 1_465
Sb5 Th4 3.232351 1_565
Sb5 Th3 3.319208 1_555
Sb5 Th1 3.319208 1_455
Sb5 Th5 3.319208 1_555
Sb6 Th2 3.232351 1_454
Sb6 Th3 3.232351 1_544
Sb6 Th0 3.232351 1_445
Sb6 Th4 3.319207 1_555
Sb6 Th5 3.319208 1_555
Sb6 Th1 3.319208 1_555
Sb7 Th5 3.232351 1_655
Sb7 Th2 3.232351 1_554
Sb7 Th3 3.232351 1_654
Sb7 Th4 3.319208 1_554
Sb7 Th1 3.319208 1_555
Sb7 Th0 3.319208 1_555
