# generated using pymatgen
data_K2Si4O9
_symmetry_space_group_name_H-M   'P 1'
_cell_length_a   4.93890481
_cell_length_b   8.34642066
_cell_length_c   12.12410520
_cell_angle_alpha   71.14050658
_cell_angle_beta   89.68090569
_cell_angle_gamma   89.07631856
_symmetry_Int_Tables_number   1
_chemical_formula_structural   K2Si4O9
_chemical_formula_sum   'K4 Si8 O18'
_cell_volume   472.88928464
_cell_formula_units_Z   2
loop_
 _symmetry_equiv_pos_site_id
 _symmetry_equiv_pos_as_xyz
  1  'x, y, z'
loop_
 _atom_site_type_symbol
 _atom_site_label
 _atom_site_symmetry_multiplicity
 _atom_site_fract_x
 _atom_site_fract_y
 _atom_site_fract_z
 _atom_site_occupancy
  K  K0  1  0.74262019  0.58689729  0.34763645  1
  K  K1  1  0.25737981  0.41310271  0.65236355  1
  K  K2  1  0.23661556  0.93581064  0.13875617  1
  K  K3  1  0.76338444  0.06418936  0.86124383  1
  Si  Si0  1  0.71610428  0.18366377  0.55401099  1
  Si  Si1  1  0.20507994  0.44230051  0.14603894  1
  Si  Si2  1  0.21071477  0.19955710  0.39932196  1
  Si  Si3  1  0.28389572  0.81633623  0.44598901  1
  Si  Si4  1  0.78928523  0.80044290  0.60067804  1
  Si  Si5  1  0.79492006  0.55769949  0.85396106  1
  Si  Si6  1  0.70634779  0.67091696  0.06308309  1
  Si  Si7  1  0.29365221  0.32908304  0.93691691  1
  O  O0  1  0.71421832  0.65099088  0.71905485  1
  O  O1  1  0.90186625  0.22964322  0.43442641  1
  O  O2  1  0.39403142  0.60462689  0.09273529  1
  O  O3  1  0.28578168  0.34900912  0.28094515  1
  O  O4  1  0.40377729  0.21163230  0.50329452  1
  O  O5  1  0.09813375  0.77035678  0.56557359  1
  O  O6  1  0.59622271  0.78836770  0.49670548  1
  O  O7  1  0.75954770  0.69189513  0.92460245  1
  O  O8  1  0.60596858  0.39537311  0.90726471  1
  O  O9  1  0.24045230  0.30810487  0.07539755  1
  O  O10  1  0.89347950  0.50751552  0.14071001  1
  O  O11  1  0.24331185  0.01999664  0.37641828  1
  O  O12  1  0.10652050  0.49248448  0.85928999  1
  O  O13  1  0.76812498  0.29546828  0.63306783  1
  O  O14  1  0.75668815  0.98000336  0.62358172  1
  O  O15  1  0.23187502  0.70453172  0.36693217  1
  O  O16  1  0.24894555  0.16262812  0.90733696  1
  O  O17  1  0.75105445  0.83737188  0.09266304  1
loop_
_geom_bond_atom_site_label_1
_geom_bond_atom_site_label_2
_geom_bond_distance
_geom_bond_site_symmetry_2
K0 O15 2.662499 1_655
K0 O15 2.728351 1_555
K0 O10 2.885493 1_555
K0 O1 2.919258 1_555
K0 O6 2.920255 1_555
K0 O17 3.122787 1_555
K0 O3 3.299929 1_555
K1 O13 2.662499 1_455
K1 O13 2.728351 1_555
K1 O12 2.885493 1_555
K1 O5 2.919258 1_555
K1 O4 2.920255 1_555
K1 O16 3.122787 1_555
K1 O0 3.299929 1_555
K2 O17 2.667154 1_455
K2 O17 2.767047 1_555
K2 O15 2.815717 1_555
K2 O16 2.833320 1_564
K2 O9 2.950337 1_565
K2 O2 3.078887 1_555
K2 O11 3.179348 1_565
K3 O16 2.667154 1_655
K3 O16 2.767047 1_555
K3 O13 2.815717 1_555
K3 O17 2.833320 1_546
K3 O7 2.950337 1_545
K3 O8 3.078887 1_555
K3 O14 3.179348 1_545
O0 Si4 1.613955 1_555
O0 Si5 1.616879 1_555
O1 Si2 1.618789 1_655
O1 Si0 1.651640 1_555
O2 Si1 1.610009 1_555
O2 Si6 1.645425 1_555
O3 Si2 1.613955 1_555
O3 Si1 1.616879 1_555
O4 Si2 1.614628 1_555
O4 Si0 1.648700 1_555
O5 Si4 1.618789 1_455
O5 Si3 1.651640 1_555
O6 Si4 1.614628 1_555
O6 Si3 1.648700 1_555
O7 Si5 1.621965 1_555
O7 Si6 1.650787 1_556
O8 Si5 1.610009 1_555
O8 Si7 1.645425 1_555
O9 Si1 1.621965 1_555
O9 Si7 1.650787 1_554
O10 Si1 1.618712 1_655
O10 Si6 1.655051 1_555
O11 Si2 1.615508 1_555
O11 Si3 1.644701 1_545
O12 Si5 1.618712 1_455
O12 Si7 1.655051 1_555
O13 Si0 1.563408 1_555
O14 Si4 1.615508 1_555
O14 Si0 1.644701 1_565
O15 Si3 1.563408 1_555
O16 Si7 1.562184 1_555
O17 Si6 1.562184 1_555
