# generated using pymatgen
data_Cs3Cu2Br5
_symmetry_space_group_name_H-M   'P 1'
_cell_length_a   9.68313910
_cell_length_b   11.01567967
_cell_length_c   13.62250681
_cell_angle_alpha   90.00000000
_cell_angle_beta   90.00000000
_cell_angle_gamma   90.00000000
_symmetry_Int_Tables_number   1
_chemical_formula_structural   Cs3Cu2Br5
_chemical_formula_sum   'Cs12 Cu8 Br20'
_cell_volume   1453.06319541
_cell_formula_units_Z   4
loop_
 _symmetry_equiv_pos_site_id
 _symmetry_equiv_pos_as_xyz
  1  'x, y, z'
loop_
 _atom_site_type_symbol
 _atom_site_label
 _atom_site_symmetry_multiplicity
 _atom_site_fract_x
 _atom_site_fract_y
 _atom_site_fract_z
 _atom_site_occupancy
  Cs  Cs0  1  0.40318497  0.75000000  0.45208079  1
  Cs  Cs1  1  0.54679864  0.51193754  0.82250362  1
  Cs  Cs2  1  0.09681503  0.25000000  0.95208079  1
  Cs  Cs3  1  0.04679864  0.51193754  0.67749638  1
  Cs  Cs4  1  0.45320136  0.48806246  0.17749638  1
  Cs  Cs5  1  0.04679864  0.98806246  0.67749638  1
  Cs  Cs6  1  0.54679864  0.98806246  0.82250362  1
  Cs  Cs7  1  0.95320136  0.48806246  0.32250362  1
  Cs  Cs8  1  0.95320136  0.01193754  0.32250362  1
  Cs  Cs9  1  0.90318497  0.75000000  0.04791921  1
  Cs  Cs10  1  0.59681503  0.25000000  0.54791921  1
  Cs  Cs11  1  0.45320136  0.01193754  0.17749638  1
  Cu  Cu0  1  0.74566099  0.75000000  0.63071654  1
  Cu  Cu1  1  0.29278133  0.75000000  0.04719109  1
  Cu  Cu2  1  0.25433901  0.25000000  0.36928346  1
  Cu  Cu3  1  0.75433901  0.25000000  0.13071654  1
  Cu  Cu4  1  0.20721867  0.25000000  0.54719109  1
  Cu  Cu5  1  0.70721867  0.25000000  0.95280891  1
  Cu  Cu6  1  0.79278133  0.75000000  0.45280891  1
  Cu  Cu7  1  0.24566099  0.75000000  0.86928346  1
  Br  Br0  1  0.53404047  0.75000000  0.01213468  1
  Br  Br1  1  0.66770325  0.25000000  0.29146090  1
  Br  Br2  1  0.29678303  0.25000000  0.70985378  1
  Br  Br3  1  0.16770325  0.25000000  0.20853910  1
  Br  Br4  1  0.03404047  0.75000000  0.48786532  1
  Br  Br5  1  0.19201429  0.93710304  0.94844863  1
  Br  Br6  1  0.70321697  0.75000000  0.29014622  1
  Br  Br7  1  0.80798571  0.06289696  0.05155137  1
  Br  Br8  1  0.30798571  0.06289696  0.44844863  1
  Br  Br9  1  0.83229675  0.75000000  0.79146090  1
  Br  Br10  1  0.96595953  0.25000000  0.51213468  1
  Br  Br11  1  0.80798571  0.43710304  0.05155137  1
  Br  Br12  1  0.46595953  0.25000000  0.98786532  1
  Br  Br13  1  0.33229675  0.75000000  0.70853910  1
  Br  Br14  1  0.69201429  0.56289696  0.55155137  1
  Br  Br15  1  0.69201429  0.93710304  0.55155137  1
  Br  Br16  1  0.30798571  0.43710304  0.44844863  1
  Br  Br17  1  0.79678303  0.25000000  0.79014622  1
  Br  Br18  1  0.20321697  0.75000000  0.20985378  1
  Br  Br19  1  0.19201429  0.56289696  0.94844863  1
loop_
_geom_bond_atom_site_label_1
_geom_bond_atom_site_label_2
_geom_bond_distance
_geom_bond_site_symmetry_2
Cs1 Cu5 3.726866 1_555
Cs3 Cu4 3.726866 1_555
Cs4 Cu1 3.726866 1_555
Cs5 Cu4 3.726866 1_565
Cs6 Cu5 3.726866 1_565
Cs7 Cu6 3.726866 1_555
Cs8 Cu6 3.726866 1_545
Cs11 Cu1 3.726866 1_545
Br0 Cu1 2.384457 1_555
Br0 Cs9 3.607564 1_555
Br0 Cs6 3.683141 1_554
Br0 Cs1 3.683141 1_554
Br0 Cs11 3.743365 1_565
Br0 Cs4 3.743365 1_555
Br1 Cu3 2.344937 1_555
Br1 Cs10 3.560400 1_555
Br1 Cs4 3.688012 1_555
Br1 Cs11 3.688012 1_555
Br1 Cs7 3.833859 1_555
Br1 Cs8 3.833859 1_555
Br2 Cu4 2.379547 1_555
Br2 Cs10 3.647838 1_555
Br2 Cs5 3.792019 1_545
Br2 Cs3 3.792019 1_555
Br2 Cs2 3.825912 1_555
Br2 Cs6 4.067124 1_545
Br2 Cs1 4.067124 1_555
Br3 Cu2 2.344937 1_555
Br3 Cs2 3.560400 1_554
Br3 Cs7 3.688012 1_455
Br3 Cs8 3.688012 1_455
Br3 Cs4 3.833859 1_555
Br3 Cs11 3.833859 1_555
Br4 Cu6 2.384457 1_455
Br4 Cs0 3.607564 1_555
Br4 Cs5 3.683141 1_555
Br4 Cs3 3.683141 1_555
Br4 Cs8 3.743365 1_465
Br4 Cs7 3.743365 1_455
Br5 Cu7 2.383454 1_555
Br5 Cu1 2.647530 1_556
Br5 Cs2 3.568257 1_565
Br5 Cs9 3.729085 1_456
Br5 Cs6 3.880831 1_555
Br5 Cs5 3.989511 1_555
Br5 Cs11 4.100199 1_566
Br6 Cu6 2.379547 1_555
Br6 Cs0 3.647838 1_555
Br6 Cs8 3.792019 1_565
Br6 Cs7 3.792019 1_555
Br6 Cs9 3.825912 1_555
Br6 Cs11 4.067124 1_565
Br6 Cs4 4.067124 1_555
Br7 Cu3 2.383454 1_555
Br7 Cu5 2.647530 1_554
Br7 Cs9 3.568257 1_545
Br7 Cs2 3.729085 1_654
Br7 Cs11 3.880831 1_555
Br7 Cs8 3.989511 1_555
Br7 Cs6 4.100199 1_544
Br8 Cu2 2.383454 1_555
Br8 Cu4 2.647530 1_555
Br8 Cs0 3.568257 1_545
Br8 Cs10 3.729085 1_555
Br8 Cs8 3.880831 1_455
Br8 Cs11 3.989511 1_555
Br8 Cs5 4.100199 1_545
Br9 Cu0 2.344937 1_555
Br9 Cs9 3.560400 1_556
Br9 Cs5 3.688012 1_655
Br9 Cs3 3.688012 1_655
Br9 Cs6 3.833859 1_555
Br9 Cs1 3.833859 1_555
Br10 Cu4 2.384457 1_655
Br10 Cs10 3.607564 1_555
Br10 Cs7 3.683141 1_555
Br10 Cs8 3.683141 1_555
Br10 Cs5 3.743365 1_645
Br10 Cs3 3.743365 1_655
Br11 Cu3 2.383454 1_555
Br11 Cu5 2.647530 1_554
Br11 Cs9 3.568257 1_555
Br11 Cs2 3.729085 1_654
Br11 Cs4 3.880831 1_555
Br11 Cs7 3.989511 1_555
Br11 Cs1 4.100199 1_554
Br12 Cu5 2.384457 1_555
Br12 Cs2 3.607564 1_555
Br12 Cs11 3.683141 1_556
Br12 Cs4 3.683141 1_556
Br12 Cs6 3.743365 1_545
Br12 Cs1 3.743365 1_555
Br13 Cu7 2.344937 1_555
Br13 Cs0 3.560400 1_555
Br13 Cs1 3.688012 1_555
Br13 Cs6 3.688012 1_555
Br13 Cs5 3.833859 1_555
Br13 Cs3 3.833859 1_555
Br14 Cu0 2.383454 1_555
Br14 Cu6 2.647530 1_555
Br14 Cs10 3.568257 1_555
Br14 Cs0 3.729085 1_555
Br14 Cs3 3.880831 1_655
Br14 Cs1 3.989511 1_555
Br14 Cs7 4.100199 1_555
Br15 Cu0 2.383454 1_555
Br15 Cu6 2.647530 1_555
Br15 Cs10 3.568257 1_565
Br15 Cs0 3.729085 1_555
Br15 Cs5 3.880831 1_655
Br15 Cs6 3.989511 1_555
Br15 Cs8 4.100199 1_565
Br16 Cu2 2.383454 1_555
Br16 Cu4 2.647530 1_555
Br16 Cs0 3.568257 1_555
Br16 Cs10 3.729085 1_555
Br16 Cs7 3.880831 1_455
Br16 Cs4 3.989511 1_555
Br16 Cs3 4.100199 1_555
Br17 Cu5 2.379547 1_555
Br17 Cs2 3.647838 1_655
Br17 Cs6 3.792019 1_545
Br17 Cs1 3.792019 1_555
Br17 Cs10 3.825912 1_555
Br17 Cs5 4.067124 1_645
Br17 Cs3 4.067124 1_655
Br18 Cu1 2.379547 1_555
Br18 Cs9 3.647838 1_455
Br18 Cs11 3.792019 1_565
Br18 Cs4 3.792019 1_555
Br18 Cs0 3.825912 1_555
Br18 Cs8 4.067124 1_465
Br18 Cs7 4.067124 1_455
Br19 Cu7 2.383454 1_555
Br19 Cu1 2.647530 1_556
Br19 Cs2 3.568257 1_555
Br19 Cs9 3.729085 1_456
Br19 Cs1 3.880831 1_555
Br19 Cs3 3.989511 1_555
Br19 Cs4 4.100199 1_556
