# generated using pymatgen
data_RbH4SNO4
_symmetry_space_group_name_H-M   'P 1'
_cell_length_a   6.09102830
_cell_length_b   7.60781163
_cell_length_c   10.58793881
_cell_angle_alpha   90.00000000
_cell_angle_beta   90.00000000
_cell_angle_gamma   90.00000000
_symmetry_Int_Tables_number   1
_chemical_formula_structural   RbH4SNO4
_chemical_formula_sum   'Rb4 H16 S4 N4 O16'
_cell_volume   490.63868870
_cell_formula_units_Z   4
loop_
 _symmetry_equiv_pos_site_id
 _symmetry_equiv_pos_as_xyz
  1  'x, y, z'
loop_
 _atom_site_type_symbol
 _atom_site_label
 _atom_site_symmetry_multiplicity
 _atom_site_fract_x
 _atom_site_fract_y
 _atom_site_fract_z
 _atom_site_occupancy
  Rb  Rb0  1  0.75000000  0.32124973  0.10640207  1
  Rb  Rb1  1  0.25000000  0.17875027  0.60640207  1
  Rb  Rb2  1  0.75000000  0.82124973  0.39359793  1
  Rb  Rb3  1  0.25000000  0.67875027  0.89359793  1
  H  H0  1  0.75000000  0.53378621  0.79482248  1
  H  H1  1  0.11491129  0.37969640  0.32778999  1
  H  H2  1  0.25000000  0.46621379  0.20517752  1
  H  H3  1  0.25000000  0.57403291  0.34606545  1
  H  H4  1  0.61491129  0.62030360  0.67221001  1
  H  H5  1  0.61491129  0.12030360  0.82778999  1
  H  H6  1  0.88508871  0.12030360  0.82778999  1
  H  H7  1  0.11491129  0.87969640  0.17221001  1
  H  H8  1  0.75000000  0.92596709  0.84606545  1
  H  H9  1  0.38508871  0.37969640  0.32778999  1
  H  H10  1  0.75000000  0.42596709  0.65393455  1
  H  H11  1  0.25000000  0.96621379  0.29482248  1
  H  H12  1  0.88508871  0.62030360  0.67221001  1
  H  H13  1  0.38508871  0.87969640  0.17221001  1
  H  H14  1  0.75000000  0.03378621  0.70517752  1
  H  H15  1  0.25000000  0.07403291  0.15393455  1
  S  S0  1  0.25000000  0.73363189  0.56845830  1
  S  S1  1  0.75000000  0.76636811  0.06845830  1
  S  S2  1  0.25000000  0.23363189  0.93154170  1
  S  S3  1  0.75000000  0.26636811  0.43154170  1
  N  N0  1  0.25000000  0.45296815  0.30112245  1
  N  N1  1  0.75000000  0.04703185  0.80112245  1
  N  N2  1  0.75000000  0.54703185  0.69887755  1
  N  N3  1  0.25000000  0.95296815  0.19887755  1
  O  O0  1  0.75000000  0.72681303  0.93075633  1
  O  O1  1  0.55136115  0.18707940  0.37365105  1
  O  O2  1  0.25000000  0.04315279  0.91033354  1
  O  O3  1  0.55136115  0.68707940  0.12634895  1
  O  O4  1  0.94863885  0.18707940  0.37365105  1
  O  O5  1  0.05136115  0.31292060  0.87365105  1
  O  O6  1  0.25000000  0.54315279  0.58966646  1
  O  O7  1  0.94863885  0.68707940  0.12634895  1
  O  O8  1  0.75000000  0.22681303  0.56924367  1
  O  O9  1  0.75000000  0.95684721  0.08966646  1
  O  O10  1  0.44863885  0.81292060  0.62634895  1
  O  O11  1  0.25000000  0.77318697  0.43075633  1
  O  O12  1  0.75000000  0.45684721  0.41033354  1
  O  O13  1  0.05136115  0.81292060  0.62634895  1
  O  O14  1  0.25000000  0.27318697  0.06924367  1
  O  O15  1  0.44863885  0.31292060  0.87365105  1
loop_
_geom_bond_atom_site_label_1
_geom_bond_atom_site_label_2
_geom_bond_distance
_geom_bond_site_symmetry_2
H0 N2 1.020845 1_555
H1 N0 1.033203 1_555
H2 N0 1.020845 1_555
H3 N0 1.036700 1_555
H4 N2 1.033203 1_555
H5 N1 1.033203 1_555
H6 N1 1.033203 1_555
H7 N3 1.033203 1_555
H8 N1 1.036700 1_565
H9 N0 1.033203 1_555
H10 N2 1.036700 1_555
H11 N3 1.020845 1_555
H12 N2 1.033203 1_555
H13 N3 1.033203 1_555
H14 N1 1.020845 1_555
H15 N3 1.036700 1_545
O0 S1 1.488712 1_556
O1 S3 1.484405 1_555
O2 S2 1.466424 1_555
O2 Rb3 2.777963 1_545
O3 S1 1.484405 1_555
O4 S3 1.484405 1_555
O5 S2 1.484405 1_555
O6 S0 1.466424 1_555
O6 Rb1 2.777963 1_555
O7 S1 1.484405 1_555
O8 S3 1.488712 1_555
O9 S1 1.466424 1_555
O9 Rb0 2.777963 1_565
O10 S0 1.484405 1_555
O11 S0 1.488712 1_555
O12 S3 1.466424 1_555
O12 Rb2 2.777963 1_555
O13 S0 1.484405 1_555
O14 S2 1.488712 1_554
O15 S2 1.484405 1_555
