# generated using pymatgen
data_NaLiB4O7
_symmetry_space_group_name_H-M   'P 1'
_cell_length_a   9.80597286
_cell_length_b   8.85085315
_cell_length_c   8.51312806
_cell_angle_alpha   68.73549248
_cell_angle_beta   57.26130516
_cell_angle_gamma   54.00320236
_symmetry_Int_Tables_number   1
_chemical_formula_structural   NaLiB4O7
_chemical_formula_sum   'Na4 Li4 B16 O28'
_cell_volume   501.72714793
_cell_formula_units_Z   4
loop_
 _symmetry_equiv_pos_site_id
 _symmetry_equiv_pos_as_xyz
  1  'x, y, z'
loop_
 _atom_site_type_symbol
 _atom_site_label
 _atom_site_symmetry_multiplicity
 _atom_site_fract_x
 _atom_site_fract_y
 _atom_site_fract_z
 _atom_site_occupancy
  Na  Na0  1  0.73720400  0.28329400  0.96525100  1
  Na  Na1  1  0.01425100  0.96525100  0.28329400  1
  Na  Na2  1  0.96670600  0.51279600  0.23574900  1
  Na  Na3  1  0.28474900  0.23574900  0.51279600  1
  Li  Li0  1  0.50415100  0.76636500  0.49095300  1
  Li  Li1  1  0.75904700  0.01147000  0.74584900  1
  Li  Li2  1  0.48363500  0.74584900  0.01147000  1
  Li  Li3  1  0.23853000  0.49095300  0.76636500  1
  B  B0  1  0.22949600  0.71565300  0.94167700  1
  B  B1  1  0.53434700  0.02050400  0.13682600  1
  B  B2  1  0.30832300  0.13682600  0.02050400  1
  B  B3  1  0.78907200  0.55789700  0.63999300  1
  B  B4  1  0.01303800  0.63999300  0.55789700  1
  B  B5  1  0.11317400  0.94167700  0.71565300  1
  B  B6  1  0.23036600  0.02968100  0.36148900  1
  B  B7  1  0.70370000  0.88659000  0.54515100  1
  B  B8  1  0.86455800  0.54515100  0.88659000  1
  B  B9  1  0.37846400  0.36148900  0.02968100  1
  B  B10  1  0.22031900  0.01963400  0.87153600  1
  B  B11  1  0.70484900  0.38544200  0.54630000  1
  B  B12  1  0.88851100  0.87153600  0.01963400  1
  B  B13  1  0.36341000  0.54630000  0.38544200  1
  B  B14  1  0.69210300  0.46092800  0.23696200  1
  B  B15  1  0.61000700  0.23696200  0.46092800  1
  O  O0  1  0.14109200  0.07405100  0.75285200  1
  O  O1  1  0.67154300  0.23984200  0.58982100  1
  O  O2  1  0.73941400  0.56624900  0.83852000  1
  O  O3  1  0.49714800  0.21799500  0.10890800  1
  O  O4  1  0.39952900  0.99446200  0.33293500  1
  O  O5  1  0.83831600  0.49290100  0.06813100  1
  O  O6  1  0.91706500  0.97692600  0.85047100  1
  O  O7  1  0.41148000  0.39418300  0.51058600  1
  O  O8  1  0.26351500  0.13410500  0.88446200  1
  O  O9  1  0.01015800  0.57845700  0.75120500  1
  O  O10  1  0.25343100  0.74656900  0.74656900  1
  O  O11  1  0.27307400  0.33293500  0.99446200  1
  O  O12  1  0.50343100  0.99656900  0.99656900  1
  O  O13  1  0.66017900  0.75120500  0.57845700  1
  O  O14  1  0.03200500  0.75285200  0.07405100  1
  O  O15  1  0.49879500  0.58982100  0.23984200  1
  O  O16  1  0.73319500  0.26680500  0.26680500  1
  O  O17  1  0.18186900  0.64934900  0.41168400  1
  O  O18  1  0.60065100  0.06813100  0.49290100  1
  O  O19  1  0.71791800  0.88446200  0.13410500  1
  O  O20  1  0.11589500  0.98648500  0.53208200  1
  O  O21  1  0.98319500  0.51680500  0.51680500  1
  O  O22  1  0.25553800  0.85047100  0.97692600  1
  O  O23  1  0.36553800  0.53208200  0.98648500  1
  O  O24  1  0.17594900  0.10890800  0.21799500  1
  O  O25  1  0.68375100  0.51058600  0.39418300  1
  O  O26  1  0.75709900  0.41168400  0.64934900  1
  O  O27  1  0.85581700  0.83852000  0.56624900  1
loop_
_geom_bond_atom_site_label_1
_geom_bond_atom_site_label_2
_geom_bond_distance
_geom_bond_site_symmetry_2
Na0 O3 2.311632 1_556
Na0 O2 2.348424 1_555
Na0 O6 2.419598 1_545
Na0 O26 2.457278 1_555
Na0 O16 2.497804 1_556
Na1 O24 2.311632 1_565
Na1 O27 2.348424 1_455
Na1 O22 2.419598 1_554
Na1 O17 2.457281 1_555
Na1 O16 2.497804 1_465
Na2 O14 2.311632 1_655
Na2 O25 2.348424 1_555
Na2 O11 2.419598 1_654
Na2 O5 2.457286 1_555
Na2 O21 2.497804 1_555
Na3 O0 2.311632 1_555
Na3 O7 2.348424 1_555
Na3 O4 2.419598 1_545
Na3 O18 2.457277 1_555
Na3 O21 2.497804 1_455
Li0 O13 1.957754 1_555
Li0 O25 2.000563 1_555
Li0 O4 2.006516 1_555
Li0 O10 2.292088 1_555
Li1 O1 1.957754 1_555
Li1 O27 2.000570 1_545
Li1 O6 2.006512 1_545
Li1 O12 2.292091 1_545
Li2 O15 1.957754 1_555
Li2 O2 2.000566 1_554
Li2 O22 2.006521 1_554
Li2 O12 2.292085 1_554
Li3 O9 1.957754 1_555
Li3 O7 2.000563 1_555
Li3 O11 2.006519 1_555
Li3 O10 2.292094 1_555
B0 O23 1.455338 1_555
B0 O10 1.487608 1_555
B0 O22 1.509939 1_555
B0 O14 1.512568 1_556
B1 O19 1.455338 1_545
B1 O12 1.487608 1_544
B1 O4 1.509939 1_545
B1 O3 1.512568 1_555
B2 O8 1.455338 1_554
B2 O12 1.487608 1_544
B2 O11 1.509939 1_554
B2 O24 1.512568 1_555
B3 O26 1.467830 1_555
B3 O21 1.469441 1_555
B3 O2 1.502375 1_555
B3 O13 1.524242 1_555
B4 O17 1.467837 1_555
B4 O21 1.469441 1_455
B4 O27 1.502375 1_455
B4 O9 1.524238 1_555
B5 O20 1.455338 1_555
B5 O10 1.487608 1_555
B5 O6 1.509939 1_455
B5 O0 1.512568 1_565
B6 O20 1.361536 1_545
B6 O24 1.382966 1_555
B6 O4 1.385246 1_545
B7 O18 1.363785 1_565
B7 O13 1.386426 1_555
B7 O27 1.388041 1_555
B8 O5 1.363785 1_556
B8 O9 1.386426 1_655
B8 O2 1.388032 1_555
B9 O23 1.361536 1_554
B9 O3 1.382966 1_555
B9 O11 1.385246 1_554
B10 O8 1.361536 1_555
B10 O0 1.382966 1_555
B10 O22 1.385246 1_545
B11 O26 1.363785 1_555
B11 O1 1.386426 1_555
B11 O25 1.388038 1_555
B12 O19 1.361536 1_555
B12 O14 1.382966 1_655
B12 O6 1.385246 1_554
B13 O17 1.363785 1_555
B13 O15 1.386426 1_555
B13 O7 1.388036 1_555
B14 O5 1.467833 1_555
B14 O16 1.469441 1_555
B14 O25 1.502375 1_555
B14 O15 1.524239 1_555
B15 O18 1.467839 1_555
B15 O16 1.469441 1_555
B15 O7 1.502375 1_555
B15 O1 1.524246 1_555
