# generated using pymatgen
data_Ni2PdSe2
_symmetry_space_group_name_H-M   'P 1'
_cell_length_a   8.00881523
_cell_length_b   8.00881523
_cell_length_c   8.00881523
_cell_angle_alpha   97.14733418
_cell_angle_beta   97.14733418
_cell_angle_gamma   138.69074611
_symmetry_Int_Tables_number   1
_chemical_formula_structural   Ni2PdSe2
_chemical_formula_sum   'Ni8 Pd4 Se8'
_cell_volume   317.30527666
_cell_formula_units_Z   4
loop_
 _symmetry_equiv_pos_site_id
 _symmetry_equiv_pos_as_xyz
  1  'x, y, z'
loop_
 _atom_site_type_symbol
 _atom_site_label
 _atom_site_symmetry_multiplicity
 _atom_site_fract_x
 _atom_site_fract_y
 _atom_site_fract_z
 _atom_site_occupancy
  Ni  Ni0  1  0.90428300  0.09571700  0.50000000  1
  Ni  Ni1  1  0.59571700  0.09571700  0.19143300  1
  Ni  Ni2  1  0.40428300  0.90428300  0.80856700  1
  Ni  Ni3  1  0.09571700  0.90428300  0.50000000  1
  Ni  Ni4  1  0.09571700  0.59571700  0.19143300  1
  Ni  Ni5  1  0.90428300  0.40428300  0.80856700  1
  Ni  Ni6  1  0.59571700  0.40428300  0.50000000  1
  Ni  Ni7  1  0.40428300  0.59571700  0.50000000  1
  Pd  Pd0  1  0.50000000  0.50000000  0.00000000  1
  Pd  Pd1  1  0.00000000  0.00000000  0.00000000  1
  Pd  Pd2  1  0.50000000  0.00000000  0.50000000  1
  Pd  Pd3  1  0.00000000  0.50000000  0.50000000  1
  Se  Se0  1  0.50000000  0.25500000  0.75500000  1
  Se  Se1  1  0.50000000  0.74500000  0.24500000  1
  Se  Se2  1  0.16889500  0.83110500  0.00000000  1
  Se  Se3  1  0.83110500  0.16889500  0.00000000  1
  Se  Se4  1  0.74500000  0.50000000  0.24500000  1
  Se  Se5  1  0.83110500  0.83110500  0.66221000  1
  Se  Se6  1  0.16889500  0.16889500  0.33779000  1
  Se  Se7  1  0.25500000  0.50000000  0.75500000  1
loop_
_geom_bond_atom_site_label_1
_geom_bond_atom_site_label_2
_geom_bond_distance
_geom_bond_site_symmetry_2
Ni0 Se5 2.351797 1_545
Ni0 Se6 2.351797 1_655
Ni0 Se1 2.410003 1_545
Ni0 Se7 2.410003 1_655
Ni0 Pd2 2.709677 1_555
Ni0 Pd3 2.709677 1_655
Ni1 Se3 2.351791 1_555
Ni1 Se2 2.351794 1_545
Ni1 Se4 2.410003 1_555
Ni1 Se1 2.410006 1_545
Ni1 Pd3 2.709682 1_655
Ni1 Pd2 2.709685 1_555
Ni2 Se2 2.351791 1_556
Ni2 Se3 2.351794 1_566
Ni2 Se7 2.410003 1_555
Ni2 Se0 2.410006 1_565
Ni2 Pd3 2.709682 1_555
Ni2 Pd2 2.709685 1_565
Ni3 Se5 2.351797 1_455
Ni3 Se6 2.351797 1_565
Ni3 Se4 2.410003 1_455
Ni3 Se0 2.410003 1_565
Ni3 Pd3 2.709677 1_555
Ni3 Pd2 2.709677 1_565
Ni4 Se2 2.351791 1_555
Ni4 Se3 2.351794 1_455
Ni4 Se1 2.410003 1_555
Ni4 Se4 2.410006 1_455
Ni4 Pd2 2.709682 1_565
Ni4 Pd3 2.709685 1_555
Ni5 Se3 2.351791 1_556
Ni5 Se2 2.351794 1_656
Ni5 Se0 2.410003 1_555
Ni5 Se7 2.410006 1_655
Ni5 Pd2 2.709682 1_555
Ni5 Pd3 2.709685 1_655
Ni6 Se5 2.351797 1_555
Ni6 Se6 2.351797 1_555
Ni6 Se4 2.410003 1_555
Ni6 Se0 2.410003 1_555
Ni6 Pd3 2.709677 1_655
Ni6 Pd2 2.709677 1_555
Ni7 Se5 2.351797 1_555
Ni7 Se6 2.351797 1_555
Ni7 Se1 2.410003 1_555
Ni7 Se7 2.410003 1_555
Ni7 Pd2 2.709677 1_565
Ni7 Pd3 2.709677 1_555
Pd0 Se1 2.596552 1_555
Pd0 Se4 2.596552 1_555
Pd0 Se0 2.596552 1_554
Pd0 Se7 2.596552 1_554
Pd1 Se5 2.531411 1_444
Pd1 Se3 2.531411 1_455
Pd1 Se6 2.531411 1_555
Pd1 Se2 2.531411 1_545
Pd2 Se0 2.702533 1_555
Pd2 Se1 2.702533 1_545
Pd2 Pd3 2.824981 1_655
Pd2 Pd3 2.824981 1_545
Pd3 Se4 2.702533 1_455
Pd3 Se7 2.702533 1_555
