# generated using pymatgen
data_Mn2ZnH12(NO2)4
_symmetry_space_group_name_H-M   'P 1'
_cell_length_a   7.45651313
_cell_length_b   7.45651313
_cell_length_c   7.45651313
_cell_angle_alpha   60.00000000
_cell_angle_beta   60.00000000
_cell_angle_gamma   60.00000000
_symmetry_Int_Tables_number   1
_chemical_formula_structural   Mn2ZnH12(NO2)4
_chemical_formula_sum   'Mn2 Zn1 H12 N4 O8'
_cell_volume   293.15166381
_cell_formula_units_Z   1
loop_
 _symmetry_equiv_pos_site_id
 _symmetry_equiv_pos_as_xyz
  1  'x, y, z'
loop_
 _atom_site_type_symbol
 _atom_site_label
 _atom_site_symmetry_multiplicity
 _atom_site_fract_x
 _atom_site_fract_y
 _atom_site_fract_z
 _atom_site_occupancy
  Mn  Mn0  1  0.50000000  0.50000000  0.50000000  1
  Mn  Mn1  1  0.25000000  0.25000000  0.25000000  1
  Zn  Zn0  1  0.00000000  0.00000000  0.00000000  1
  H  H0  1  0.01475500  0.79272500  0.79272500  1
  H  H1  1  0.39979400  0.79272500  0.01475500  1
  H  H2  1  0.79272500  0.39979400  0.79272500  1
  H  H3  1  0.79272500  0.79272500  0.39979400  1
  H  H4  1  0.39979400  0.01475500  0.79272500  1
  H  H5  1  0.79272500  0.01475500  0.39979400  1
  H  H6  1  0.79272500  0.39979400  0.01475500  1
  H  H7  1  0.79272500  0.01475500  0.79272500  1
  H  H8  1  0.79272500  0.79272500  0.01475500  1
  H  H9  1  0.01475500  0.39979400  0.79272500  1
  H  H10  1  0.01475500  0.79272500  0.39979400  1
  H  H11  1  0.39979400  0.79272500  0.79272500  1
  N  N0  1  0.88723500  0.88723500  0.88723500  1
  N  N1  1  0.33829400  0.88723500  0.88723500  1
  N  N2  1  0.88723500  0.33829400  0.88723500  1
  N  N3  1  0.88723500  0.88723500  0.33829400  1
  O  O0  1  0.58881500  0.58881500  0.58881500  1
  O  O1  1  0.23355500  0.58881500  0.58881500  1
  O  O2  1  0.58881500  0.23355500  0.58881500  1
  O  O3  1  0.58881500  0.58881500  0.23355500  1
  O  O4  1  0.16140700  0.16140700  0.16140700  1
  O  O5  1  0.51577800  0.16140700  0.16140700  1
  O  O6  1  0.16140700  0.51577800  0.16140700  1
  O  O7  1  0.16140700  0.16140700  0.51577800  1
loop_
_geom_bond_atom_site_label_1
_geom_bond_atom_site_label_2
_geom_bond_distance
_geom_bond_site_symmetry_2
Mn0 O0 1.622175 1_555
Mn0 O2 1.622175 1_555
Mn0 O1 1.622175 1_555
Mn0 O3 1.622175 1_555
Mn1 O6 1.618114 1_555
Mn1 O5 1.618114 1_555
Mn1 O7 1.618114 1_555
Mn1 O4 1.618120 1_555
H0 N0 1.026563 1_455
H1 N1 1.026563 1_554
H2 N2 1.026563 1_555
H3 N3 1.026563 1_555
H4 N1 1.026563 1_545
H5 N3 1.026563 1_545
H6 N2 1.026563 1_554
H7 N0 1.026563 1_545
H8 N0 1.026563 1_554
H9 N2 1.026563 1_455
H10 N3 1.026563 1_455
H11 N1 1.026563 1_555
N0 Zn0 2.059614 1_666
N1 Zn0 2.059607 1_566
N2 Zn0 2.059607 1_656
N3 Zn0 2.059607 1_665
