# generated using pymatgen
data_CrPO4
_symmetry_space_group_name_H-M   'P 1'
_cell_length_a   9.57249961
_cell_length_b   5.67198159
_cell_length_c   6.41073453
_cell_angle_alpha   99.27420419
_cell_angle_beta   105.21841887
_cell_angle_gamma   76.52442218
_symmetry_Int_Tables_number   1
_chemical_formula_structural   CrPO4
_chemical_formula_sum   'Cr4 P4 O16'
_cell_volume   324.75885930
_cell_formula_units_Z   4
loop_
 _symmetry_equiv_pos_site_id
 _symmetry_equiv_pos_as_xyz
  1  'x, y, z'
loop_
 _atom_site_type_symbol
 _atom_site_label
 _atom_site_symmetry_multiplicity
 _atom_site_fract_x
 _atom_site_fract_y
 _atom_site_fract_z
 _atom_site_occupancy
  Cr  Cr0  1  0.06041400  0.25804200  0.33119800  1
  Cr  Cr1  1  0.31211600  0.87479400  0.59359600  1
  Cr  Cr2  1  0.68787600  0.12517300  0.40640800  1
  Cr  Cr3  1  0.93960200  0.74202600  0.66881200  1
  P  P0  1  0.02735200  0.17939200  0.79475900  1
  P  P1  1  0.40109300  0.30150400  0.64816500  1
  P  P2  1  0.59890400  0.69846700  0.35183500  1
  P  P3  1  0.97264800  0.82063800  0.20522900  1
  O  O0  1  0.03451300  0.37352800  0.65056900  1
  O  O1  1  0.12635700  0.93173500  0.72958300  1
  O  O2  1  0.06928100  0.26906100  0.03265400  1
  O  O3  1  0.12931100  0.88574900  0.28447200  1
  O  O4  1  0.27512400  0.21141200  0.44943600  1
  O  O5  1  0.40996700  0.11299500  0.80606700  1
  O  O6  1  0.34870300  0.56758600  0.72935800  1
  O  O7  1  0.45570900  0.73462700  0.42484000  1
  O  O8  1  0.54428800  0.26537600  0.57517200  1
  O  O9  1  0.65129800  0.43238200  0.27065200  1
  O  O10  1  0.59002900  0.88697500  0.19392500  1
  O  O11  1  0.72487800  0.78859000  0.55055600  1
  O  O12  1  0.87069200  0.11426300  0.71553400  1
  O  O13  1  0.93072400  0.73093800  0.96733500  1
  O  O14  1  0.87363300  0.06825700  0.27042700  1
  O  O15  1  0.96548800  0.62649000  0.34941900  1
loop_
_geom_bond_atom_site_label_1
_geom_bond_atom_site_label_2
_geom_bond_distance
_geom_bond_site_symmetry_2
Cr0 O2 1.949458 1_555
Cr0 O4 1.965242 1_555
Cr0 O3 2.057786 1_545
Cr0 O15 2.073338 1_455
Cr0 O0 2.107355 1_555
Cr0 O14 2.214382 1_455
Cr1 O7 1.919895 1_555
Cr1 O5 1.971015 1_565
Cr1 O6 1.990159 1_555
Cr1 O1 2.116991 1_555
Cr1 O4 2.169494 1_565
Cr1 O3 2.271920 1_555
Cr2 O8 1.919926 1_555
Cr2 O10 1.971021 1_545
Cr2 O9 1.990155 1_555
Cr2 O14 2.116966 1_555
Cr2 O11 2.169258 1_545
Cr2 O12 2.271988 1_555
Cr3 O13 1.949434 1_555
Cr3 O11 1.965397 1_555
Cr3 O12 2.057504 1_565
Cr3 O0 2.073562 1_655
Cr3 O15 2.107482 1_555
Cr3 O1 2.213886 1_655
O0 P0 1.571039 1_555
O1 P0 1.563400 1_565
O2 P0 1.506457 1_554
O3 P3 1.562408 1_455
O4 P1 1.615260 1_555
O5 P1 1.560934 1_555
O6 P1 1.526843 1_555
O7 P2 1.521463 1_555
O8 P1 1.521446 1_555
O9 P2 1.526847 1_555
O10 P2 1.560965 1_555
O11 P2 1.615325 1_555
O12 P0 1.562418 1_655
O13 P3 1.506489 1_556
O14 P3 1.563330 1_545
O15 P3 1.571091 1_555
