# generated using pymatgen
data_PrAg2
_symmetry_space_group_name_H-M   'P 1'
_cell_length_a   9.59494259
_cell_length_b   9.59493915
_cell_length_c   7.18541014
_cell_angle_alpha   90.00000000
_cell_angle_beta   90.00000000
_cell_angle_gamma   120.15133701
_symmetry_Int_Tables_number   1
_chemical_formula_structural   PrAg2
_chemical_formula_sum   'Pr8 Ag16'
_cell_volume   572.00851063
_cell_formula_units_Z   8
loop_
 _symmetry_equiv_pos_site_id
 _symmetry_equiv_pos_as_xyz
  1  'x, y, z'
loop_
 _atom_site_type_symbol
 _atom_site_label
 _atom_site_symmetry_multiplicity
 _atom_site_fract_x
 _atom_site_fract_y
 _atom_site_fract_z
 _atom_site_occupancy
  Pr  Pr0_0  1  0.00000000  0.00000000  0.00000000  1
  Pr  Pr0_1  1  0.00000000  0.00000000  0.50000000  1
  Pr  Pr0_2  1  0.00000000  0.50000000  0.00000000  1
  Pr  Pr0_3  1  0.00000000  0.50000000  0.50000000  1
  Pr  Pr0_4  1  0.50000000  0.00000000  0.00000000  1
  Pr  Pr0_5  1  0.50000000  0.00000000  0.50000000  1
  Pr  Pr0_6  1  0.50000000  0.50000000  0.00000000  1
  Pr  Pr0_7  1  0.50000000  0.50000000  0.50000000  1
  Ag  Ag0_0  1  0.16678381  0.33321768  0.25000100  1
  Ag  Ag0_1  1  0.16678381  0.33321768  0.75000100  1
  Ag  Ag0_2  1  0.16678381  0.83321769  0.25000100  1
  Ag  Ag0_3  1  0.16678381  0.83321769  0.75000100  1
  Ag  Ag0_4  1  0.66678381  0.33321768  0.25000100  1
  Ag  Ag0_5  1  0.66678381  0.33321768  0.75000100  1
  Ag  Ag0_6  1  0.66678381  0.83321769  0.25000100  1
  Ag  Ag0_7  1  0.66678381  0.83321769  0.75000100  1
  Ag  Ag1_0  1  0.33321719  0.16678332  0.25000100  1
  Ag  Ag1_1  1  0.33321719  0.16678332  0.75000100  1
  Ag  Ag1_2  1  0.33321719  0.66678332  0.25000100  1
  Ag  Ag1_3  1  0.33321719  0.66678332  0.75000100  1
  Ag  Ag1_4  1  0.83321719  0.16678332  0.25000100  1
  Ag  Ag1_5  1  0.83321719  0.16678332  0.75000100  1
  Ag  Ag1_6  1  0.83321719  0.66678332  0.25000100  1
  Ag  Ag1_7  1  0.83321719  0.66678332  0.75000100  1
loop_
_geom_bond_atom_site_label_1
_geom_bond_atom_site_label_2
_geom_bond_distance
_geom_bond_site_symmetry_2
Pr0_0 Pr0_1 3.592705 1_555
Pr0_0 Pr0_1 3.592705 1_554
Pr0_2 Pr0_3 3.592705 1_555
Pr0_2 Pr0_3 3.592705 1_554
Pr0_4 Pr0_5 3.592705 1_555
Pr0_4 Pr0_5 3.592705 1_554
Pr0_6 Pr0_7 3.592705 1_555
Pr0_6 Pr0_7 3.592705 1_554
Ag0_0 Ag1_2 2.767535 1_555
Ag0_0 Ag1_4 2.767544 1_455
Ag0_0 Ag1_0 2.768059 1_555
Ag0_0 Pr0_7 3.296967 1_555
Ag0_0 Pr0_6 3.296974 1_555
Ag0_0 Pr0_1 3.296976 1_555
Ag0_0 Pr0_0 3.296984 1_555
Ag0_0 Pr0_3 3.304722 1_555
Ag0_0 Pr0_2 3.304730 1_555
Ag0_1 Ag1_3 2.767535 1_555
Ag0_1 Ag1_5 2.767544 1_455
Ag0_1 Ag1_1 2.768059 1_555
Ag0_1 Pr0_6 3.296967 1_556
Ag0_1 Pr0_7 3.296974 1_555
Ag0_1 Pr0_0 3.296976 1_556
Ag0_1 Pr0_1 3.296984 1_555
Ag0_1 Pr0_2 3.304722 1_556
Ag0_1 Pr0_3 3.304730 1_555
Ag0_2 Ag1_0 2.767535 1_565
Ag0_2 Ag1_6 2.767544 1_455
Ag0_2 Ag1_2 2.768059 1_555
Ag0_2 Pr0_5 3.296967 1_565
Ag0_2 Pr0_4 3.296974 1_565
Ag0_2 Pr0_3 3.296976 1_555
Ag0_2 Pr0_2 3.296984 1_555
Ag0_2 Pr0_1 3.304722 1_565
Ag0_2 Pr0_0 3.304730 1_565
Ag0_3 Ag1_1 2.767535 1_565
Ag0_3 Ag1_7 2.767544 1_455
Ag0_3 Ag1_3 2.768059 1_555
Ag0_3 Pr0_4 3.296967 1_566
Ag0_3 Pr0_5 3.296974 1_565
Ag0_3 Pr0_2 3.296976 1_556
Ag0_3 Pr0_3 3.296984 1_555
Ag0_3 Pr0_0 3.304722 1_566
Ag0_3 Pr0_1 3.304730 1_565
Ag0_4 Ag1_6 2.767535 1_555
Ag0_4 Ag1_0 2.767544 1_555
Ag0_4 Ag1_4 2.768059 1_555
Ag0_4 Pr0_3 3.296967 1_655
Ag0_4 Pr0_2 3.296974 1_655
Ag0_4 Pr0_5 3.296976 1_555
Ag0_4 Pr0_4 3.296984 1_555
Ag0_4 Pr0_7 3.304722 1_555
Ag0_4 Pr0_6 3.304730 1_555
Ag0_5 Ag1_7 2.767535 1_555
Ag0_5 Ag1_1 2.767544 1_555
Ag0_5 Ag1_5 2.768059 1_555
Ag0_5 Pr0_2 3.296967 1_656
Ag0_5 Pr0_3 3.296974 1_655
Ag0_5 Pr0_4 3.296976 1_556
Ag0_5 Pr0_5 3.296984 1_555
Ag0_5 Pr0_6 3.304722 1_556
Ag0_5 Pr0_7 3.304730 1_555
Ag0_6 Ag1_4 2.767535 1_565
Ag0_6 Ag1_2 2.767544 1_555
Ag0_6 Ag1_6 2.768059 1_555
Ag0_6 Pr0_1 3.296967 1_665
Ag0_6 Pr0_0 3.296974 1_665
Ag0_6 Pr0_7 3.296976 1_555
Ag0_6 Pr0_6 3.296984 1_555
Ag0_6 Pr0_5 3.304722 1_565
Ag0_6 Pr0_4 3.304730 1_565
Ag0_7 Ag1_5 2.767535 1_565
Ag0_7 Ag1_3 2.767544 1_555
Ag0_7 Ag1_7 2.768059 1_555
Ag0_7 Pr0_0 3.296967 1_666
Ag0_7 Pr0_1 3.296974 1_665
Ag0_7 Pr0_6 3.296976 1_556
Ag0_7 Pr0_7 3.296984 1_555
Ag0_7 Pr0_4 3.304722 1_566
Ag0_7 Pr0_5 3.304730 1_565
Ag1_0 Pr0_7 3.296969 1_555
Ag1_0 Pr0_1 3.296974 1_555
Ag1_0 Pr0_6 3.296977 1_555
Ag1_0 Pr0_0 3.296981 1_555
Ag1_0 Pr0_5 3.304722 1_555
Ag1_0 Pr0_4 3.304730 1_555
Ag1_1 Pr0_6 3.296969 1_556
Ag1_1 Pr0_0 3.296974 1_556
Ag1_1 Pr0_7 3.296977 1_555
Ag1_1 Pr0_1 3.296981 1_555
Ag1_1 Pr0_4 3.304722 1_556
Ag1_1 Pr0_5 3.304730 1_555
Ag1_2 Pr0_5 3.296969 1_565
Ag1_2 Pr0_3 3.296974 1_555
Ag1_2 Pr0_4 3.296977 1_565
Ag1_2 Pr0_2 3.296981 1_555
Ag1_2 Pr0_7 3.304722 1_555
Ag1_2 Pr0_6 3.304730 1_555
Ag1_3 Pr0_4 3.296969 1_566
Ag1_3 Pr0_2 3.296974 1_556
Ag1_3 Pr0_5 3.296977 1_565
Ag1_3 Pr0_3 3.296981 1_555
Ag1_3 Pr0_6 3.304722 1_556
Ag1_3 Pr0_7 3.304730 1_555
Ag1_4 Pr0_3 3.296969 1_655
Ag1_4 Pr0_5 3.296974 1_555
Ag1_4 Pr0_2 3.296977 1_655
Ag1_4 Pr0_4 3.296981 1_555
Ag1_4 Pr0_1 3.304722 1_655
Ag1_4 Pr0_0 3.304730 1_655
Ag1_5 Pr0_2 3.296969 1_656
Ag1_5 Pr0_4 3.296974 1_556
Ag1_5 Pr0_3 3.296977 1_655
Ag1_5 Pr0_5 3.296981 1_555
Ag1_5 Pr0_0 3.304722 1_656
Ag1_5 Pr0_1 3.304730 1_655
Ag1_6 Pr0_1 3.296969 1_665
Ag1_6 Pr0_7 3.296974 1_555
Ag1_6 Pr0_0 3.296977 1_665
Ag1_6 Pr0_6 3.296981 1_555
Ag1_6 Pr0_3 3.304722 1_655
Ag1_6 Pr0_2 3.304730 1_655
Ag1_7 Pr0_0 3.296969 1_666
Ag1_7 Pr0_6 3.296974 1_556
Ag1_7 Pr0_1 3.296977 1_665
Ag1_7 Pr0_7 3.296981 1_555
Ag1_7 Pr0_2 3.304722 1_656
Ag1_7 Pr0_3 3.304730 1_655
