# generated using pymatgen
data_Bi2PdO4
_symmetry_space_group_name_H-M   'P 1'
_cell_length_a   7.06017898
_cell_length_b   7.06017898
_cell_length_c   7.06017898
_cell_angle_alpha   99.36923643
_cell_angle_beta   99.36923643
_cell_angle_gamma   132.40816026
_symmetry_Int_Tables_number   1
_chemical_formula_structural   Bi2PdO4
_chemical_formula_sum   'Bi4 Pd2 O8'
_cell_volume   237.75544384
_cell_formula_units_Z   2
loop_
 _symmetry_equiv_pos_site_id
 _symmetry_equiv_pos_as_xyz
  1  'x, y, z'
loop_
 _atom_site_type_symbol
 _atom_site_label
 _atom_site_symmetry_multiplicity
 _atom_site_fract_x
 _atom_site_fract_y
 _atom_site_fract_z
 _atom_site_occupancy
  Bi  Bi0  1  0.65040500  0.15040500  0.84731100  1
  Bi  Bi1  1  0.80309400  0.65040500  0.50000000  1
  Bi  Bi2  1  0.15040500  0.30309400  0.50000000  1
  Bi  Bi3  1  0.30309400  0.80309400  0.15268900  1
  Pd  Pd0  1  0.67290300  0.67290300  0.00000000  1
  Pd  Pd1  1  0.17290300  0.17290300  0.00000000  1
  O  O0  1  0.55213400  0.46577000  0.69618700  1
  O  O1  1  0.96577000  0.05213400  0.69618700  1
  O  O2  1  0.05213400  0.35594700  0.08636400  1
  O  O3  1  0.76958300  0.85594700  0.30381300  1
  O  O4  1  0.35594700  0.26958300  0.30381300  1
  O  O5  1  0.85594700  0.55213400  0.08636400  1
  O  O6  1  0.46577000  0.76958300  0.91363600  1
  O  O7  1  0.26958300  0.96577000  0.91363600  1
loop_
_geom_bond_atom_site_label_1
_geom_bond_atom_site_label_2
_geom_bond_distance
_geom_bond_site_symmetry_2
Bi0 O6 2.242495 1_545
Bi0 O7 2.242495 1_545
Bi0 O2 2.256378 1_656
Bi0 O5 2.256378 1_556
Bi1 O0 2.242495 1_555
Bi1 O4 2.242495 1_555
Bi1 O1 2.256378 1_565
Bi1 O3 2.256378 1_555
Bi2 O1 2.242495 1_455
Bi2 O3 2.242495 1_445
Bi2 O4 2.256378 1_555
Bi2 O0 2.256378 1_555
Bi3 O5 2.242495 1_455
Bi3 O2 2.242495 1_555
Bi3 O7 2.256378 1_554
Bi3 O6 2.256378 1_554
O0 Pd0 2.041537 1_556
O1 Pd1 2.041537 1_656
O2 Pd1 2.041537 1_555
O3 Pd0 2.041537 1_555
O4 Pd1 2.041537 1_555
O5 Pd0 2.041537 1_555
O6 Pd0 2.041537 1_556
O7 Pd1 2.041537 1_566
