# generated using pymatgen
data_Sm2Si5Ru3
_symmetry_space_group_name_H-M   'P 1'
_cell_length_a   11.06021000
_cell_length_b   11.06021000
_cell_length_c   5.68789600
_cell_angle_alpha   90.00000000
_cell_angle_beta   90.00000000
_cell_angle_gamma   90.00000000
_symmetry_Int_Tables_number   1
_chemical_formula_structural   Sm2Si5Ru3
_chemical_formula_sum   'Sm8 Si20 Ru12'
_cell_volume   695.79033681
_cell_formula_units_Z   4
loop_
 _symmetry_equiv_pos_site_id
 _symmetry_equiv_pos_as_xyz
  1  'x, y, z'
loop_
 _atom_site_type_symbol
 _atom_site_label
 _atom_site_symmetry_multiplicity
 _atom_site_fract_x
 _atom_site_fract_y
 _atom_site_fract_z
 _atom_site_occupancy
  Sm  Sm0  1  0.40858400  0.28084500  0.00000000  1
  Sm  Sm1  1  0.28084500  0.59141600  0.00000000  1
  Sm  Sm2  1  0.71915500  0.40858400  0.00000000  1
  Sm  Sm3  1  0.59141600  0.71915500  0.00000000  1
  Sm  Sm4  1  0.09141600  0.78084500  0.50000000  1
  Sm  Sm5  1  0.90858400  0.21915500  0.50000000  1
  Sm  Sm6  1  0.78084500  0.90858400  0.50000000  1
  Sm  Sm7  1  0.21915500  0.09141600  0.50000000  1
  Si  Si0  1  0.94819400  0.29638300  0.00000000  1
  Si  Si1  1  0.29638300  0.05180600  0.00000000  1
  Si  Si2  1  0.70361700  0.94819400  0.00000000  1
  Si  Si3  1  0.05180600  0.70361700  0.00000000  1
  Si  Si4  1  0.55180600  0.79638300  0.50000000  1
  Si  Si5  1  0.44819400  0.20361700  0.50000000  1
  Si  Si6  1  0.79638300  0.44819400  0.50000000  1
  Si  Si7  1  0.20361700  0.55180600  0.50000000  1
  Si  Si8  1  0.64041900  0.14041900  0.25000000  1
  Si  Si9  1  0.14041900  0.35958100  0.25000000  1
  Si  Si10  1  0.85958100  0.64041900  0.25000000  1
  Si  Si11  1  0.35958100  0.85958100  0.25000000  1
  Si  Si12  1  0.35958100  0.85958100  0.75000000  1
  Si  Si13  1  0.85958100  0.64041900  0.75000000  1
  Si  Si14  1  0.14041900  0.35958100  0.75000000  1
  Si  Si15  1  0.64041900  0.14041900  0.75000000  1
  Si  Si16  1  0.00000000  0.00000000  0.22794500  1
  Si  Si17  1  0.50000000  0.50000000  0.27205500  1
  Si  Si18  1  0.00000000  0.00000000  0.77205500  1
  Si  Si19  1  0.50000000  0.50000000  0.72794500  1
  Ru  Ru0  1  0.50000000  0.00000000  0.00000000  1
  Ru  Ru1  1  0.00000000  0.50000000  0.00000000  1
  Ru  Ru2  1  0.00000000  0.50000000  0.50000000  1
  Ru  Ru3  1  0.50000000  0.00000000  0.50000000  1
  Ru  Ru4  1  0.10810900  0.15758900  0.00000000  1
  Ru  Ru5  1  0.15758900  0.89189100  0.00000000  1
  Ru  Ru6  1  0.84241100  0.10810900  0.00000000  1
  Ru  Ru7  1  0.89189100  0.84241100  0.00000000  1
  Ru  Ru8  1  0.39189100  0.65758900  0.50000000  1
  Ru  Ru9  1  0.60810900  0.34241100  0.50000000  1
  Ru  Ru10  1  0.65758900  0.60810900  0.50000000  1
  Ru  Ru11  1  0.34241100  0.39189100  0.50000000  1
loop_
_geom_bond_atom_site_label_1
_geom_bond_atom_site_label_2
_geom_bond_distance
_geom_bond_site_symmetry_2
Si0 Si14 2.651541 1_654
Si0 Si9 2.651541 1_655
Si0 Sm2 2.820851 1_555
Si0 Sm5 3.001592 1_555
Si0 Sm5 3.001592 1_554
Si1 Si11 2.651541 1_545
Si1 Si12 2.651541 1_544
Si1 Sm0 2.820851 1_555
Si1 Sm7 3.001592 1_554
Si1 Sm7 3.001592 1_555
Si2 Si8 2.651541 1_565
Si2 Sm3 2.820851 1_555
Si2 Sm6 3.001592 1_554
Si2 Sm6 3.001592 1_555
Si3 Sm1 2.820851 1_555
Si3 Sm4 3.001592 1_555
Si3 Sm4 3.001592 1_554
Si4 Sm6 2.820851 1_555
Si4 Sm3 3.001592 1_555
Si4 Sm3 3.001592 1_556
Si5 Si8 2.651541 1_555
Si5 Sm7 2.820851 1_555
Si5 Sm0 3.001592 1_556
Si5 Sm0 3.001592 1_555
Si6 Sm5 2.820851 1_555
Si6 Sm2 3.001592 1_556
Si6 Sm2 3.001592 1_555
Si7 Si9 2.651541 1_555
Si7 Sm4 2.820851 1_555
Si7 Sm1 3.001592 1_556
Si7 Sm1 3.001592 1_555
Si8 Sm0 3.317995 1_555
Si8 Sm6 3.317995 1_545
Si8 Sm2 3.402542 1_555
Si8 Sm5 3.402542 1_555
Si9 Sm1 3.317995 1_555
Si9 Sm5 3.317995 1_455
Si9 Sm0 3.402542 1_555
Si9 Sm7 3.402542 1_555
Si10 Si6 2.651541 1_555
Si10 Si3 2.651541 1_655
Si10 Si13 2.843948 1_555
Si10 Si13 2.843948 1_554
Si10 Sm2 3.317995 1_555
Si10 Sm4 3.317995 1_655
Si10 Sm6 3.402542 1_555
Si10 Sm3 3.402542 1_555
Si11 Si4 2.651541 1_555
Si11 Si12 2.843948 1_554
Si11 Si12 2.843948 1_555
Si11 Sm3 3.317995 1_555
Si11 Sm7 3.317995 1_565
Si11 Sm4 3.402542 1_555
Si11 Sm1 3.402542 1_555
Si12 Si4 2.651541 1_555
Si12 Sm3 3.317995 1_556
Si12 Sm7 3.317995 1_565
Si12 Sm4 3.402542 1_555
Si12 Sm1 3.402542 1_556
Si13 Si6 2.651541 1_555
Si13 Si3 2.651541 1_656
Si13 Sm2 3.317995 1_556
Si13 Sm4 3.317995 1_655
Si13 Sm6 3.402542 1_555
Si13 Sm3 3.402542 1_556
Si14 Si7 2.651541 1_555
Si14 Si9 2.843948 1_556
Si14 Si9 2.843948 1_555
Si14 Sm1 3.317995 1_556
Si14 Sm5 3.317995 1_455
Si14 Sm7 3.402542 1_555
Si14 Sm0 3.402542 1_556
Si15 Si2 2.651541 1_546
Si15 Si5 2.651541 1_555
Si15 Si8 2.843948 1_555
Si15 Si8 2.843948 1_556
Si15 Sm0 3.317995 1_556
Si15 Sm6 3.317995 1_545
Si15 Sm5 3.402542 1_555
Si15 Sm2 3.402542 1_556
Si16 Sm7 3.048292 1_555
Si16 Sm4 3.048292 1_545
Si16 Sm5 3.048292 1_455
Si16 Sm6 3.048292 1_445
Si17 Sm1 3.048292 1_555
Si17 Sm3 3.048292 1_555
Si17 Sm2 3.048292 1_555
Si17 Sm0 3.048292 1_555
Si18 Sm7 3.048292 1_555
Si18 Sm4 3.048292 1_545
Si18 Sm5 3.048292 1_455
Si18 Sm6 3.048292 1_445
Si19 Sm1 3.048292 1_556
Si19 Sm3 3.048292 1_556
Si19 Sm0 3.048292 1_556
Si19 Sm2 3.048292 1_556
Ru0 Si2 2.323796 1_545
Ru0 Si1 2.323796 1_555
Ru0 Si15 2.616491 1_554
Ru0 Si8 2.616491 1_555
Ru0 Si11 2.616491 1_545
Ru0 Si12 2.616491 1_544
Ru0 Sm3 3.266618 1_545
Ru0 Sm0 3.266618 1_555
Ru1 Si3 2.323796 1_555
Ru1 Si0 2.323796 1_455
Ru1 Si14 2.616491 1_554
Ru1 Si9 2.616491 1_555
Ru1 Si13 2.616491 1_454
Ru1 Si10 2.616491 1_455
Ru1 Sm1 3.266618 1_555
Ru1 Sm2 3.266618 1_455
Ru2 Si7 2.323796 1_555
Ru2 Si6 2.323796 1_455
Ru2 Si14 2.616491 1_555
Ru2 Si9 2.616491 1_555
Ru2 Si10 2.616491 1_455
Ru2 Si13 2.616491 1_455
Ru2 Sm4 3.266618 1_555
Ru2 Sm5 3.266618 1_455
Ru3 Si5 2.323796 1_555
Ru3 Si4 2.323796 1_545
Ru3 Si8 2.616491 1_555
Ru3 Si15 2.616491 1_555
Ru3 Si11 2.616491 1_545
Ru3 Si12 2.616491 1_545
Ru3 Sm6 3.266618 1_545
Ru3 Sm7 3.266618 1_555
Ru4 Si0 2.341961 1_455
Ru4 Si1 2.388523 1_555
Ru4 Si16 2.479645 1_555
Ru4 Si18 2.479645 1_554
Ru4 Si9 2.672227 1_555
Ru4 Si14 2.672227 1_554
Ru4 Sm7 3.183105 1_555
Ru4 Sm7 3.183105 1_554
Ru5 Si1 2.341961 1_565
Ru5 Si3 2.388523 1_555
Ru5 Si16 2.479645 1_565
Ru5 Si18 2.479645 1_564
Ru5 Si12 2.672227 1_554
Ru5 Si11 2.672227 1_555
Ru5 Sm4 3.183105 1_555
Ru5 Sm4 3.183105 1_554
Ru6 Si2 2.341961 1_545
Ru6 Si0 2.388523 1_555
Ru6 Si16 2.479645 1_655
Ru6 Si18 2.479645 1_654
Ru6 Si15 2.672227 1_554
Ru6 Si8 2.672227 1_555
Ru6 Sm5 3.183105 1_554
Ru6 Sm5 3.183105 1_555
Ru7 Si3 2.341961 1_655
Ru7 Si2 2.388523 1_555
Ru7 Si16 2.479645 1_665
Ru7 Si18 2.479645 1_664
Ru7 Si13 2.672227 1_554
Ru7 Si10 2.672227 1_555
Ru7 Sm6 3.183105 1_555
Ru7 Sm6 3.183105 1_554
Ru8 Si4 2.341961 1_555
Ru8 Si7 2.388523 1_555
Ru8 Si17 2.479645 1_555
Ru8 Si19 2.479645 1_555
Ru8 Si12 2.672227 1_555
Ru8 Si11 2.672227 1_555
Ru8 Sm1 3.183105 1_556
Ru8 Sm1 3.183105 1_555
Ru9 Si5 2.341961 1_555
Ru9 Si6 2.388523 1_555
Ru9 Si19 2.479645 1_555
Ru9 Si17 2.479645 1_555
Ru9 Si8 2.672227 1_555
Ru9 Si15 2.672227 1_555
Ru9 Sm2 3.183105 1_555
Ru9 Sm2 3.183105 1_556
Ru10 Si6 2.341961 1_555
Ru10 Si4 2.388523 1_555
Ru10 Si17 2.479645 1_555
Ru10 Si19 2.479645 1_555
Ru10 Si13 2.672227 1_555
Ru10 Si10 2.672227 1_555
Ru10 Sm3 3.183105 1_555
Ru10 Sm3 3.183105 1_556
Ru11 Si7 2.341961 1_555
Ru11 Si5 2.388523 1_555
Ru11 Si19 2.479645 1_555
Ru11 Si17 2.479645 1_555
Ru11 Si14 2.672227 1_555
Ru11 Si9 2.672227 1_555
Ru11 Sm0 3.183105 1_556
Ru11 Sm0 3.183105 1_555
