# generated using pymatgen
data_Er2Ni12P7
_symmetry_space_group_name_H-M   'P 1'
_cell_length_a   8.95352707
_cell_length_b   8.95408691
_cell_length_c   3.65122294
_cell_angle_alpha   90.00002005
_cell_angle_beta   89.99999044
_cell_angle_gamma   119.99840433
_symmetry_Int_Tables_number   1
_chemical_formula_structural   Er2Ni12P7
_chemical_formula_sum   'Er2 Ni12 P7'
_cell_volume   253.50785602
_cell_formula_units_Z   1
loop_
 _symmetry_equiv_pos_site_id
 _symmetry_equiv_pos_as_xyz
  1  'x, y, z'
loop_
 _atom_site_type_symbol
 _atom_site_label
 _atom_site_symmetry_multiplicity
 _atom_site_fract_x
 _atom_site_fract_y
 _atom_site_fract_z
 _atom_site_occupancy
  Er  Er0  1  0.00001184  0.00000314  0.99999985  1
  Er  Er1  1  0.33330808  0.66662579  0.50000037  1
  Ni  Ni0  1  0.10145118  0.39544848  0.00000060  1
  Ni  Ni1  1  0.29406706  0.89860187  0.00000039  1
  Ni  Ni2  1  0.60457702  0.70611029  -0.00000048  1
  Ni  Ni3  1  0.81812819  0.60810699  0.99999945  1
  Ni  Ni4  1  0.78995273  0.18184343  0.00000086  1
  Ni  Ni5  1  0.39202302  0.21008764  1.00000063  1
  Ni  Ni6  1  0.04756083  0.76461262  0.50000055  1
  Ni  Ni7  1  0.71704917  0.95244129  0.49999995  1
  Ni  Ni8  1  0.23541176  0.28295479  0.50000189  1
  Ni  Ni9  1  0.88201992  0.42764511  0.49999995  1
  Ni  Ni10  1  0.54545204  0.11755969  0.49999872  1
  Ni  Ni11  1  0.57219921  0.45448218  0.49999844  1
  P  P0  1  0.07428122  0.62836226  0.99999947  1
  P  P1  1  0.55404007  0.92575842  0.00000016  1
  P  P2  1  0.37173209  0.44595183  0.99999931  1
  P  P3  1  0.77690575  0.73867271  0.50000013  1
  P  P4  1  0.96175306  0.22308361  0.50000027  1
  P  P5  1  0.26134246  0.03828854  0.50000006  1
  P  P6  1  0.66673331  0.33336032  0.99999943  1
loop_
_geom_bond_atom_site_label_1
_geom_bond_atom_site_label_2
_geom_bond_distance
_geom_bond_site_symmetry_2
Er0 P5 2.850105 1_555
Er0 P5 2.850107 1_556
Er0 P4 2.850322 1_455
Er0 P4 2.850323 1_456
Er0 P3 2.850370 1_445
Er0 P3 2.850372 1_446
Er0 Ni6 2.975533 1_545
Er0 Ni6 2.975537 1_546
Er0 Ni7 2.975570 1_445
Er0 Ni7 2.975570 1_446
Er0 Ni8 2.975635 1_555
Er0 Ni8 2.975643 1_556
Er0 Ni4 3.041467 1_456
Er0 Ni3 3.041603 1_445
Er0 Ni5 3.042317 1_555
Er0 Ni2 3.184932 1_446
Er0 Ni1 3.185367 1_546
Er0 Ni0 3.185395 1_556
Er1 P0 2.834498 1_555
Er1 P0 2.834503 1_554
Er1 P2 2.834654 1_555
Er1 P2 2.834658 1_554
Er1 P1 2.834970 1_556
Er1 P1 2.834972 1_555
Er1 Ni0 2.915103 1_555
Er1 Ni0 2.915104 1_556
Er1 Ni2 2.915188 1_556
Er1 Ni2 2.915191 1_555
Er1 Ni1 2.915569 1_556
Er1 Ni1 2.915570 1_555
Er1 Ni8 3.091821 1_555
Er1 Ni6 3.091937 1_555
Er1 Ni7 3.092238 1_555
Ni0 P0 2.217190 1_554
Ni0 P2 2.228554 1_554
Ni0 P4 2.312787 1_455
Ni0 P4 2.312788 1_454
Ni1 P1 2.216128 1_555
Ni1 P0 2.228488 1_554
Ni1 P5 2.312915 1_565
Ni1 P5 2.312918 1_564
Ni2 P2 2.217335 1_554
Ni2 P1 2.227716 1_555
Ni2 P3 2.312726 1_554
Ni2 P3 2.312730 1_555
Ni3 P6 2.134243 1_555
Ni3 P0 2.208387 1_655
Ni3 P3 2.295068 1_555
Ni3 P3 2.295072 1_556
Ni4 P6 2.134123 1_554
Ni4 P1 2.208237 1_545
Ni4 P4 2.295068 1_555
Ni4 P4 2.295071 1_554
Ni5 P6 2.133854 1_555
Ni5 P2 2.208394 1_555
Ni5 P5 2.295309 1_556
Ni5 P5 2.295312 1_555
Ni6 P5 2.231257 1_565
Ni6 P0 2.273837 1_555
Ni6 P0 2.273843 1_554
Ni6 P3 2.315941 1_455
Ni7 P3 2.230869 1_555
Ni7 P1 2.274073 1_555
Ni7 P1 2.274074 1_556
Ni7 P4 2.315976 1_565
Ni8 P4 2.231020 1_455
Ni8 P2 2.274066 1_555
Ni8 P2 2.274082 1_554
Ni8 P5 2.315589 1_555
Ni9 P4 2.274241 1_555
Ni9 P6 2.476667 1_555
Ni9 P6 2.476670 1_554
Ni9 P0 2.536246 1_655
Ni9 P0 2.536249 1_654
Ni10 P5 2.273578 1_555
Ni10 P6 2.479440 1_554
Ni10 P6 2.479443 1_555
Ni10 P1 2.533827 1_545
Ni10 P1 2.533836 1_546
Ni11 P3 2.273960 1_555
Ni11 P6 2.478588 1_554
Ni11 P6 2.478594 1_555
Ni11 P2 2.534406 1_554
Ni11 P2 2.534410 1_555
