# generated using pymatgen
data_Cs2Sn(GeO3)3
_symmetry_space_group_name_H-M   'P 1'
_cell_length_a   7.40594654
_cell_length_b   7.40594654
_cell_length_c   10.62795200
_cell_angle_alpha   90.00000000
_cell_angle_beta   90.00000000
_cell_angle_gamma   120.00000483
_symmetry_Int_Tables_number   1
_chemical_formula_structural   Cs2Sn(GeO3)3
_chemical_formula_sum   'Cs4 Sn2 Ge6 O18'
_cell_volume   504.82556557
_cell_formula_units_Z   2
loop_
 _symmetry_equiv_pos_site_id
 _symmetry_equiv_pos_as_xyz
  1  'x, y, z'
loop_
 _atom_site_type_symbol
 _atom_site_label
 _atom_site_symmetry_multiplicity
 _atom_site_fract_x
 _atom_site_fract_y
 _atom_site_fract_z
 _atom_site_occupancy
  Cs  Cs0  1  0.33333300  0.66666700  0.06007800  1
  Cs  Cs1  1  0.66666700  0.33333300  0.56007800  1
  Cs  Cs2  1  0.66666700  0.33333300  0.93992200  1
  Cs  Cs3  1  0.33333300  0.66666700  0.43992200  1
  Sn  Sn0  1  0.00000000  0.00000000  0.00000000  1
  Sn  Sn1  1  0.00000000  0.00000000  0.50000000  1
  Ge  Ge0  1  0.37431200  0.23354100  0.25000000  1
  Ge  Ge1  1  0.14077200  0.37431200  0.75000000  1
  Ge  Ge2  1  0.23354100  0.85922800  0.75000000  1
  Ge  Ge3  1  0.76645900  0.14077200  0.25000000  1
  Ge  Ge4  1  0.85922800  0.62568800  0.25000000  1
  Ge  Ge5  1  0.62568800  0.76645900  0.75000000  1
  O  O0  1  0.49411000  0.07470100  0.25000000  1
  O  O1  1  0.41941000  0.49411000  0.75000000  1
  O  O2  1  0.07470100  0.58059000  0.75000000  1
  O  O3  1  0.92529900  0.41941000  0.25000000  1
  O  O4  1  0.58059000  0.50589000  0.25000000  1
  O  O5  1  0.50589000  0.92529900  0.75000000  1
  O  O6  1  0.24723300  0.21830300  0.10879400  1
  O  O7  1  0.02893000  0.24723300  0.60879400  1
  O  O8  1  0.21830300  0.97107000  0.60879400  1
  O  O9  1  0.78169700  0.02893000  0.10879400  1
  O  O10  1  0.97107000  0.75276700  0.10879400  1
  O  O11  1  0.75276700  0.78169700  0.60879400  1
  O  O12  1  0.75276700  0.78169700  0.89120600  1
  O  O13  1  0.97107000  0.75276700  0.39120600  1
  O  O14  1  0.78169700  0.02893000  0.39120600  1
  O  O15  1  0.21830300  0.97107000  0.89120600  1
  O  O16  1  0.02893000  0.24723300  0.89120600  1
  O  O17  1  0.24723300  0.21830300  0.39120600  1
loop_
_geom_bond_atom_site_label_1
_geom_bond_atom_site_label_2
_geom_bond_distance
_geom_bond_site_symmetry_2
Cs0 O10 3.095703 1_455
Cs0 O9 3.095708 1_565
Cs0 O6 3.095710 1_555
Cs0 O15 3.309038 1_554
Cs0 O16 3.309043 1_554
Cs0 O12 3.309044 1_554
Cs0 O3 3.320486 1_455
Cs0 O0 3.320486 1_565
Cs0 O4 3.320486 1_555
Cs1 O7 3.095703 1_655
Cs1 O8 3.095708 1_545
Cs1 O11 3.095710 1_555
Cs1 O14 3.309038 1_555
Cs1 O13 3.309043 1_555
Cs1 O17 3.309044 1_555
Cs1 O2 3.320486 1_655
Cs1 O5 3.320486 1_545
Cs1 O1 3.320486 1_555
Cs2 O16 3.095703 1_655
Cs2 O15 3.095708 1_545
Cs2 O12 3.095710 1_555
Cs2 O9 3.309038 1_556
Cs2 O10 3.309043 1_556
Cs2 O6 3.309044 1_556
Cs2 O2 3.320486 1_655
Cs2 O5 3.320486 1_545
Cs2 O1 3.320486 1_555
Cs3 O13 3.095703 1_455
Cs3 O14 3.095708 1_565
Cs3 O17 3.095710 1_555
Cs3 O8 3.309038 1_555
Cs3 O7 3.309043 1_555
Cs3 O11 3.309044 1_555
Cs3 O3 3.320486 1_455
Cs3 O0 3.320486 1_565
Cs3 O4 3.320486 1_555
Ge0 O6 1.744839 1_555
Ge0 O17 1.744839 1_555
Ge0 O0 1.792949 1_555
Ge0 O4 1.822299 1_555
Ge1 O16 1.744841 1_555
Ge1 O7 1.744841 1_555
Ge1 O1 1.792949 1_555
Ge1 O2 1.822299 1_555
Ge2 O15 1.744843 1_555
Ge2 O8 1.744843 1_555
Ge2 O2 1.792949 1_555
Ge2 O5 1.822299 1_555
Ge3 O9 1.744843 1_555
Ge3 O14 1.744843 1_555
Ge3 O3 1.792949 1_555
Ge3 O0 1.822299 1_555
Ge4 O13 1.744841 1_555
Ge4 O10 1.744841 1_555
Ge4 O4 1.792949 1_555
Ge4 O3 1.822299 1_555
Ge5 O12 1.744839 1_555
Ge5 O11 1.744839 1_555
Ge5 O5 1.792949 1_555
Ge5 O1 1.822299 1_555
O6 Sn0 2.084005 1_555
O7 Sn1 2.084005 1_555
O8 Sn1 2.084005 1_565
O9 Sn0 2.084005 1_655
O10 Sn0 2.084005 1_665
O11 Sn1 2.084005 1_665
O12 Sn0 2.084005 1_666
O13 Sn1 2.084005 1_665
O14 Sn1 2.084005 1_655
O15 Sn0 2.084005 1_566
O16 Sn0 2.084005 1_556
O17 Sn1 2.084005 1_555
