# generated using pymatgen
data_Ga3Pb5F19
_symmetry_space_group_name_H-M   'P 1'
_cell_length_a   11.01261040
_cell_length_b   11.01261040
_cell_length_c   11.01261040
_cell_angle_alpha   97.26762087
_cell_angle_beta   97.26762087
_cell_angle_gamma   138.33047512
_symmetry_Int_Tables_number   1
_chemical_formula_structural   Ga3Pb5F19
_chemical_formula_sum   'Ga6 Pb10 F38'
_cell_volume   829.87738007
_cell_formula_units_Z   2
loop_
 _symmetry_equiv_pos_site_id
 _symmetry_equiv_pos_as_xyz
  1  'x, y, z'
loop_
 _atom_site_type_symbol
 _atom_site_label
 _atom_site_symmetry_multiplicity
 _atom_site_fract_x
 _atom_site_fract_y
 _atom_site_fract_z
 _atom_site_occupancy
  Ga  Ga0  1  0.66967600  0.66967600  0.00000000  1
  Ga  Ga1  1  0.81201900  0.63345000  0.50000000  1
  Ga  Ga2  1  0.16967600  0.16967600  0.00000000  1
  Ga  Ga3  1  0.13345000  0.31201900  0.50000000  1
  Ga  Ga4  1  0.31201900  0.81201900  0.17856800  1
  Ga  Ga5  1  0.63345000  0.13345000  0.82143200  1
  Pb  Pb0  1  0.29706700  0.59526300  0.84451900  1
  Pb  Pb1  1  0.75074500  0.45254800  0.15548100  1
  Pb  Pb2  1  0.79706700  0.95254800  0.70180300  1
  Pb  Pb3  1  0.63124400  0.13124400  0.50000000  1
  Pb  Pb4  1  0.59526300  0.75074500  0.29819700  1
  Pb  Pb5  1  0.95254800  0.25074500  0.15548100  1
  Pb  Pb6  1  0.09526300  0.79706700  0.84451900  1
  Pb  Pb7  1  0.25074500  0.09526300  0.29819700  1
  Pb  Pb8  1  0.13124400  0.63124400  0.50000000  1
  Pb  Pb9  1  0.45254800  0.29706700  0.70180300  1
  F  F0  1  0.63302100  0.90136200  0.50000000  1
  F  F1  1  0.29337000  0.29722700  0.50000000  1
  F  F2  1  0.31046000  0.81046000  0.35317000  1
  F  F3  1  0.45728900  0.95728900  0.64683000  1
  F  F4  1  0.56944400  0.42774100  0.35503800  1
  F  F5  1  0.07101800  0.82858800  0.62764400  1
  F  F6  1  0.95728900  0.31046000  0.50000000  1
  F  F7  1  0.20094400  0.44337400  0.37235600  1
  F  F8  1  0.91504400  0.91504400  0.00000000  1
  F  F9  1  0.77652300  0.71641700  0.17444000  1
  F  F10  1  0.71440600  0.57270300  0.64496200  1
  F  F11  1  0.40136200  0.13302100  0.50000000  1
  F  F12  1  0.94337400  0.70094400  0.37235600  1
  F  F13  1  0.21440600  0.56944400  0.14170300  1
  F  F14  1  0.54197600  0.60208200  0.82556000  1
  F  F15  1  0.57270300  0.92774100  0.85829700  1
  F  F16  1  0.10208200  0.04197600  0.82556000  1
  F  F17  1  0.06944400  0.71440600  0.14170300  1
  F  F18  1  0.44337400  0.07101800  0.24243000  1
  F  F19  1  0.60208200  0.77652300  0.06010600  1
  F  F20  1  0.29722700  0.79722700  0.00385700  1
  F  F21  1  0.79722700  0.79337000  0.50000000  1
  F  F22  1  0.71641700  0.54197600  0.93989400  1
  F  F23  1  0.32858800  0.57101800  0.62764400  1
  F  F24  1  0.07270300  0.21440600  0.64496200  1
  F  F25  1  0.41504400  0.41504400  0.00000000  1
  F  F26  1  0.81046000  0.45728900  0.50000000  1
  F  F27  1  0.79337000  0.29337000  0.99614300  1
  F  F28  1  0.90136200  0.40136200  0.26834100  1
  F  F29  1  0.42774100  0.07270300  0.85829700  1
  F  F30  1  0.27652300  0.10208200  0.06010600  1
  F  F31  1  0.21641700  0.27652300  0.17444000  1
  F  F32  1  0.04197600  0.21641700  0.93989400  1
  F  F33  1  0.82858800  0.20094400  0.75757000  1
  F  F34  1  0.13302100  0.63302100  0.73165900  1
  F  F35  1  0.70094400  0.32858800  0.75757000  1
  F  F36  1  0.92774100  0.06944400  0.35503800  1
  F  F37  1  0.57101800  0.94337400  0.24243000  1
loop_
_geom_bond_atom_site_label_1
_geom_bond_atom_site_label_2
_geom_bond_distance
_geom_bond_site_symmetry_2
F0 Pb4 2.380388 1_555
F0 Pb2 2.380393 1_555
F0 Pb3 2.546252 1_565
F1 Ga3 1.885933 1_555
F1 Pb9 2.651755 1_555
F1 Pb7 2.651761 1_555
F2 Ga4 1.927201 1_555
F2 Pb3 2.457456 1_565
F2 Pb8 2.490090 1_555
F3 Ga5 1.927201 1_565
F3 Pb3 2.457462 1_565
F3 Pb8 2.490084 1_555
F4 Ga1 1.944644 1_555
F4 Pb7 2.404528 1_555
F5 Ga1 1.947683 1_455
F5 Pb6 2.466361 1_555
F6 Ga3 1.927201 1_655
F6 Pb8 2.457453 1_655
F6 Pb3 2.490081 1_555
F7 Ga3 1.947683 1_555
F7 Pb5 2.466362 1_455
F8 Ga0 1.922164 1_555
F8 Ga2 1.994736 1_665
F9 Ga0 1.900771 1_555
F9 Pb1 2.677204 1_555
F9 Pb4 2.769536 1_555
F10 Ga1 1.944644 1_555
F10 Pb9 2.404523 1_555
F11 Pb7 2.380388 1_555
F11 Pb9 2.380393 1_555
F11 Pb3 2.546252 1_555
F12 Ga1 1.947683 1_555
F12 Pb1 2.466362 1_555
F13 Ga4 1.944645 1_555
F13 Pb5 2.404523 1_455
F14 Ga0 1.900772 1_556
F14 Pb0 2.677193 1_555
F14 Pb9 2.769523 1_555
F15 Ga5 1.944640 1_565
F15 Pb0 2.404529 1_555
F16 Ga2 1.900772 1_556
F16 Pb6 2.677193 1_545
F16 Pb2 2.769523 1_445
F17 Ga4 1.944645 1_555
F17 Pb1 2.404523 1_455
F18 Ga4 1.947684 1_545
F18 Pb7 2.466354 1_555
F19 Ga0 1.900781 1_555
F19 Pb4 2.677204 1_555
F19 Pb0 2.769517 1_554
F20 Ga4 1.885922 1_555
F20 Pb6 2.651763 1_554
F20 Pb0 2.651763 1_554
F21 Ga1 1.885933 1_555
F21 Pb2 2.651755 1_555
F21 Pb4 2.651761 1_555
F22 Ga0 1.900781 1_556
F22 Pb9 2.677204 1_555
F22 Pb1 2.769520 1_556
F23 Ga3 1.947683 1_555
F23 Pb0 2.466361 1_555
F24 Ga3 1.944644 1_555
F24 Pb2 2.404523 1_445
F25 Ga2 1.922164 1_555
F25 Ga0 1.994736 1_555
F26 Ga1 1.927201 1_555
F26 Pb8 2.457453 1_655
F26 Pb3 2.490081 1_555
F27 Ga5 1.885924 1_555
F27 Pb5 2.651755 1_556
F27 Pb1 2.651755 1_556
F28 Pb5 2.380393 1_555
F28 Pb1 2.380393 1_555
F28 Pb8 2.546252 1_655
F29 Ga5 1.944640 1_555
F29 Pb6 2.404529 1_545
F30 Ga2 1.900781 1_555
F30 Pb7 2.677204 1_555
F30 Pb6 2.769517 1_544
F31 Ga2 1.900771 1_555
F31 Pb5 2.677204 1_455
F31 Pb7 2.769536 1_555
F32 Ga2 1.900781 1_556
F32 Pb2 2.677204 1_445
F32 Pb5 2.769520 1_456
F33 Ga5 1.947689 1_555
F33 Pb2 2.466362 1_545
F34 Pb0 2.380402 1_555
F34 Pb6 2.380402 1_555
F34 Pb8 2.546252 1_555
F35 Ga5 1.947689 1_555
F35 Pb9 2.466362 1_555
F36 Ga3 1.944644 1_655
F36 Pb4 2.404528 1_545
F37 Ga4 1.947684 1_555
F37 Pb4 2.466354 1_555
