# generated using pymatgen
data_NaH2ClO5
_symmetry_space_group_name_H-M   'P 1'
_cell_length_a   8.50261226
_cell_length_b   8.50261226
_cell_length_c   11.09448897
_cell_angle_alpha   70.93366860
_cell_angle_beta   70.93366860
_cell_angle_gamma   38.09826897
_symmetry_Int_Tables_number   1
_chemical_formula_structural   NaH2ClO5
_chemical_formula_sum   'Na4 H8 Cl4 O20'
_cell_volume   464.39500440
_cell_formula_units_Z   4
loop_
 _symmetry_equiv_pos_site_id
 _symmetry_equiv_pos_as_xyz
  1  'x, y, z'
loop_
 _atom_site_type_symbol
 _atom_site_label
 _atom_site_symmetry_multiplicity
 _atom_site_fract_x
 _atom_site_fract_y
 _atom_site_fract_z
 _atom_site_occupancy
  Na  Na0  1  0.00000000  0.50000000  0.50000000  1
  Na  Na1  1  0.50000000  0.00000000  0.00000000  1
  Na  Na2  1  0.53452300  0.46547700  0.75000000  1
  Na  Na3  1  0.46547700  0.53452300  0.25000000  1
  H  H0  1  0.35438500  0.43137000  0.02222900  1
  H  H1  1  0.56863000  0.64561500  0.47777100  1
  H  H2  1  0.64561500  0.56863000  0.97777100  1
  H  H3  1  0.43137000  0.35438500  0.52222900  1
  H  H4  1  0.16556500  0.54713200  0.93379500  1
  H  H5  1  0.45286800  0.83443500  0.56620500  1
  H  H6  1  0.83443500  0.45286800  0.06620500  1
  H  H7  1  0.54713200  0.16556500  0.43379500  1
  Cl  Cl0  1  0.15374000  0.09843400  0.80583500  1
  Cl  Cl1  1  0.90156600  0.84626000  0.69416500  1
  Cl  Cl2  1  0.84626000  0.90156600  0.19416500  1
  Cl  Cl3  1  0.09843400  0.15374000  0.30583500  1
  O  O0  1  0.19091900  0.14020100  0.66514000  1
  O  O1  1  0.85979900  0.80908100  0.83486000  1
  O  O2  1  0.80908100  0.85979900  0.33486000  1
  O  O3  1  0.14020100  0.19091900  0.16514000  1
  O  O4  1  0.20917600  0.18171800  0.86175900  1
  O  O5  1  0.81828200  0.79082400  0.63824100  1
  O  O6  1  0.79082400  0.81828200  0.13824100  1
  O  O7  1  0.18171800  0.20917600  0.36175900  1
  O  O8  1  0.88719400  0.24727200  0.84848200  1
  O  O9  1  0.75272800  0.11280600  0.65151800  1
  O  O10  1  0.11280600  0.75272800  0.15151800  1
  O  O11  1  0.24727200  0.88719400  0.34848200  1
  O  O12  1  0.32432200  0.82583700  0.84630900  1
  O  O13  1  0.17416300  0.67567800  0.65369100  1
  O  O14  1  0.67567800  0.17416300  0.15369100  1
  O  O15  1  0.82583700  0.32432200  0.34630900  1
  O  O16  1  0.34728000  0.40087900  0.94749300  1
  O  O17  1  0.59912100  0.65272000  0.55250700  1
  O  O18  1  0.65272000  0.59912100  0.05250700  1
  O  O19  1  0.40087900  0.34728000  0.44749300  1
loop_
_geom_bond_atom_site_label_1
_geom_bond_atom_site_label_2
_geom_bond_distance
_geom_bond_site_symmetry_2
Na0 O5 2.402159 1_455
Na0 O7 2.402159 1_555
Na0 O2 2.411608 1_455
Na0 O0 2.411608 1_555
Na0 O17 2.423697 1_455
Na0 O19 2.423697 1_555
Na1 O6 2.402159 1_545
Na1 O4 2.402159 1_554
Na1 O1 2.411608 1_544
Na1 O3 2.411608 1_555
Na1 O16 2.423697 1_554
Na1 O18 2.423697 1_545
Na2 O8 2.384869 1_555
Na2 O9 2.384869 1_555
Na2 O16 2.438891 1_555
Na2 O17 2.438891 1_555
Na2 O12 2.448751 1_555
Na2 O13 2.448751 1_555
Na3 O11 2.384869 1_555
Na3 O10 2.384869 1_555
Na3 O19 2.438891 1_555
Na3 O18 2.438891 1_555
Na3 O15 2.448751 1_555
Na3 O14 2.448751 1_555
H0 O16 0.977844 1_554
H1 O17 0.977844 1_555
H2 O18 0.977844 1_556
H3 O19 0.977844 1_555
H4 O16 0.981126 1_555
H5 O17 0.981126 1_555
H6 O18 0.981126 1_555
H7 O19 0.981126 1_555
Cl0 O4 1.453280 1_555
Cl0 O12 1.460116 1_545
Cl0 O8 1.462263 1_455
Cl0 O0 1.467900 1_555
Cl1 O5 1.453280 1_555
Cl1 O13 1.460116 1_655
Cl1 O9 1.462263 1_565
Cl1 O1 1.467900 1_555
Cl2 O6 1.453280 1_555
Cl2 O14 1.460116 1_565
Cl2 O10 1.462263 1_655
Cl2 O2 1.467900 1_555
Cl3 O7 1.453280 1_555
Cl3 O15 1.460116 1_455
Cl3 O11 1.462263 1_545
Cl3 O3 1.467900 1_555
