# generated using pymatgen
data_LiCa10MgSb9
_symmetry_space_group_name_H-M   'P 1'
_cell_length_a   11.96409900
_cell_length_b   11.96409900
_cell_length_c   17.18480800
_cell_angle_alpha   90.00000000
_cell_angle_beta   90.00000000
_cell_angle_gamma   90.00000000
_symmetry_Int_Tables_number   1
_chemical_formula_structural   LiCa10MgSb9
_chemical_formula_sum   'Li4 Ca40 Mg4 Sb36'
_cell_volume   2459.82765818
_cell_formula_units_Z   4
loop_
 _symmetry_equiv_pos_site_id
 _symmetry_equiv_pos_as_xyz
  1  'x, y, z'
loop_
 _atom_site_type_symbol
 _atom_site_label
 _atom_site_symmetry_multiplicity
 _atom_site_fract_x
 _atom_site_fract_y
 _atom_site_fract_z
 _atom_site_occupancy
  Li  Li0  1  0.77777200  0.22222800  0.50000000  1
  Li  Li1  1  0.22222800  0.77777200  0.50000000  1
  Li  Li2  1  0.72222800  0.72222800  0.00000000  1
  Li  Li3  1  0.27777200  0.27777200  0.00000000  1
  Ca  Ca0  1  0.48510300  0.83816800  0.10299500  1
  Ca  Ca1  1  0.51489700  0.16183200  0.89700500  1
  Ca  Ca2  1  0.24842000  0.51173500  0.68989800  1
  Ca  Ca3  1  0.00000000  0.00000000  0.64364500  1
  Ca  Ca4  1  0.75158000  0.48826500  0.31010200  1
  Ca  Ca5  1  0.48826500  0.75158000  0.68989800  1
  Ca  Ca6  1  0.01489700  0.33816800  0.39700500  1
  Ca  Ca7  1  0.16183200  0.51489700  0.89700500  1
  Ca  Ca8  1  0.01173500  0.25158000  0.18989800  1
  Ca  Ca9  1  0.33816800  0.01489700  0.60299500  1
  Ca  Ca10  1  0.51173500  0.24842000  0.68989800  1
  Ca  Ca11  1  0.74842000  0.98826500  0.81010200  1
  Ca  Ca12  1  0.83816800  0.48510300  0.10299500  1
  Ca  Ca13  1  0.98826500  0.74842000  0.81010200  1
  Ca  Ca14  1  0.66183200  0.98510300  0.39700500  1
  Ca  Ca15  1  0.33816800  0.01489700  0.39700500  1
  Ca  Ca16  1  0.50000000  0.50000000  0.85635500  1
  Ca  Ca17  1  0.75158000  0.48826500  0.68989800  1
  Ca  Ca18  1  0.98510300  0.66183200  0.39700500  1
  Ca  Ca19  1  0.01489700  0.33816800  0.60299500  1
  Ca  Ca20  1  0.24842000  0.51173500  0.31010200  1
  Ca  Ca21  1  0.81833400  0.18166600  0.00000000  1
  Ca  Ca22  1  0.51173500  0.24842000  0.31010200  1
  Ca  Ca23  1  0.83816800  0.48510300  0.89700500  1
  Ca  Ca24  1  0.50000000  0.50000000  0.14364500  1
  Ca  Ca25  1  0.98510300  0.66183200  0.60299500  1
  Ca  Ca26  1  0.74842000  0.98826500  0.18989800  1
  Ca  Ca27  1  0.48826500  0.75158000  0.31010200  1
  Ca  Ca28  1  0.98826500  0.74842000  0.18989800  1
  Ca  Ca29  1  0.68166600  0.68166600  0.50000000  1
  Ca  Ca30  1  0.25158000  0.01173500  0.18989800  1
  Ca  Ca31  1  0.66183200  0.98510300  0.60299500  1
  Ca  Ca32  1  0.01173500  0.25158000  0.81010200  1
  Ca  Ca33  1  0.31833400  0.31833400  0.50000000  1
  Ca  Ca34  1  0.51489700  0.16183200  0.10299500  1
  Ca  Ca35  1  0.00000000  0.00000000  0.35635500  1
  Ca  Ca36  1  0.25158000  0.01173500  0.81010200  1
  Ca  Ca37  1  0.48510300  0.83816800  0.89700500  1
  Ca  Ca38  1  0.16183200  0.51489700  0.10299500  1
  Ca  Ca39  1  0.18166600  0.81833400  0.00000000  1
  Mg  Mg0  1  0.10241200  0.10241200  0.00000000  1
  Mg  Mg1  1  0.39758800  0.60241200  0.50000000  1
  Mg  Mg2  1  0.60241200  0.39758800  0.50000000  1
  Mg  Mg3  1  0.89758800  0.89758800  0.00000000  1
  Sb  Sb0  1  0.22353900  0.22353900  0.31937300  1
  Sb  Sb1  1  0.37083700  0.62916300  0.00000000  1
  Sb  Sb2  1  0.18612500  0.81387500  0.67098700  1
  Sb  Sb3  1  0.62916300  0.37083700  0.00000000  1
  Sb  Sb4  1  0.31387500  0.31387500  0.82901300  1
  Sb  Sb5  1  0.33372000  0.03140600  0.00000000  1
  Sb  Sb6  1  0.50000000  0.00000000  0.75000000  1
  Sb  Sb7  1  0.83372000  0.46859400  0.50000000  1
  Sb  Sb8  1  0.31387500  0.31387500  0.17098700  1
  Sb  Sb9  1  0.68612500  0.68612500  0.17098700  1
  Sb  Sb10  1  0.50000000  0.00000000  0.25000000  1
  Sb  Sb11  1  0.72353900  0.27646100  0.81937300  1
  Sb  Sb12  1  0.81387500  0.18612500  0.32901300  1
  Sb  Sb13  1  0.18612500  0.81387500  0.32901300  1
  Sb  Sb14  1  0.87083700  0.87083700  0.50000000  1
  Sb  Sb15  1  0.16628000  0.53140600  0.50000000  1
  Sb  Sb16  1  0.77646100  0.77646100  0.68062700  1
  Sb  Sb17  1  0.81387500  0.18612500  0.67098700  1
  Sb  Sb18  1  0.00000000  0.00000000  0.86546800  1
  Sb  Sb19  1  0.77646100  0.77646100  0.31937300  1
  Sb  Sb20  1  0.50000000  0.50000000  0.36546800  1
  Sb  Sb21  1  0.96859400  0.66628000  0.00000000  1
  Sb  Sb22  1  0.68612500  0.68612500  0.82901300  1
  Sb  Sb23  1  0.50000000  0.50000000  0.63453200  1
  Sb  Sb24  1  0.27646100  0.72353900  0.18062700  1
  Sb  Sb25  1  0.03140600  0.33372000  0.00000000  1
  Sb  Sb26  1  0.53140600  0.16628000  0.50000000  1
  Sb  Sb27  1  0.27646100  0.72353900  0.81937300  1
  Sb  Sb28  1  0.66628000  0.96859400  0.00000000  1
  Sb  Sb29  1  0.46859400  0.83372000  0.50000000  1
  Sb  Sb30  1  0.22353900  0.22353900  0.68062700  1
  Sb  Sb31  1  0.12916300  0.12916300  0.50000000  1
  Sb  Sb32  1  0.72353900  0.27646100  0.18062700  1
  Sb  Sb33  1  0.00000000  0.00000000  0.13453200  1
  Sb  Sb34  1  0.00000000  0.50000000  0.75000000  1
  Sb  Sb35  1  0.00000000  0.50000000  0.25000000  1
loop_
_geom_bond_atom_site_label_1
_geom_bond_atom_site_label_2
_geom_bond_distance
_geom_bond_site_symmetry_2
Li0 Mg2 2.967055 1_555
Li0 Sb12 3.001202 1_555
Li0 Sb17 3.001202 1_555
Li0 Sb7 3.022596 1_555
Li0 Sb26 3.022596 1_555
Li1 Mg1 2.967055 1_555
Li1 Sb13 3.001202 1_555
Li1 Sb2 3.001202 1_555
Li1 Sb29 3.022596 1_555
Li1 Sb15 3.022596 1_555
Li2 Mg3 2.967055 1_555
Li2 Sb9 3.001202 1_555
Li2 Sb22 3.001202 1_554
Li2 Sb21 3.022596 1_555
Li2 Sb28 3.022596 1_555
Li3 Mg0 2.967055 1_555
Li3 Sb4 3.001202 1_554
Li3 Sb8 3.001202 1_555
Li3 Sb5 3.022596 1_555
Li3 Sb25 3.022596 1_555
Ca0 Sb24 3.145109 1_555
Ca0 Sb10 3.187866 1_565
Ca0 Sb28 3.204097 1_555
Ca0 Sb9 3.233953 1_555
Ca0 Sb1 3.354763 1_555
Ca0 Sb5 3.428993 1_565
Ca1 Sb11 3.145109 1_555
Ca1 Sb6 3.187866 1_555
Ca1 Sb5 3.204097 1_556
Ca1 Sb4 3.233953 1_555
Ca1 Sb3 3.354763 1_556
Ca1 Sb28 3.428993 1_546
Ca2 Sb34 3.149600 1_555
Ca2 Sb23 3.159849 1_555
Ca2 Sb27 3.388889 1_555
Ca2 Sb15 3.416236 1_555
Ca2 Sb4 3.454309 1_555
Ca2 Sb30 3.464497 1_555
Ca2 Sb2 3.705146 1_555
Ca3 Sb2 3.184056 1_545
Ca3 Sb17 3.184056 1_455
Ca3 Sb31 3.296903 1_555
Ca3 Sb14 3.296903 1_445
Ca4 Sb35 3.149600 1_655
Ca4 Sb20 3.159849 1_555
Ca4 Sb32 3.388889 1_555
Ca4 Sb7 3.416236 1_555
Ca4 Sb9 3.454309 1_555
Ca4 Sb19 3.464497 1_555
Ca4 Sb12 3.705146 1_555
Ca5 Sb6 3.149600 1_565
Ca5 Sb23 3.159849 1_555
Ca5 Sb27 3.388889 1_555
Ca5 Sb29 3.416236 1_555
Ca5 Sb22 3.454309 1_555
Ca5 Sb16 3.464497 1_555
Ca5 Sb2 3.705146 1_555
Ca6 Sb0 3.145109 1_555
Ca6 Sb35 3.187866 1_555
Ca6 Sb7 3.204097 1_455
Ca6 Sb12 3.233953 1_455
Ca6 Sb31 3.354763 1_555
Ca6 Sb15 3.428993 1_555
Ca7 Sb27 3.145109 1_555
Ca7 Sb34 3.187866 1_555
Ca7 Sb25 3.204097 1_556
Ca7 Sb4 3.233953 1_555
Ca7 Sb1 3.354763 1_556
Ca7 Sb21 3.428993 1_456
Ca8 Sb35 3.149600 1_555
Ca8 Sb33 3.159849 1_555
Ca8 Sb0 3.388889 1_555
Ca8 Sb25 3.416236 1_555
Ca8 Sb12 3.454309 1_455
Ca8 Sb32 3.464497 1_455
Ca8 Sb8 3.705146 1_555
Ca9 Sb30 3.145109 1_555
Ca9 Sb6 3.187866 1_555
Ca9 Sb29 3.204097 1_545
Ca9 Sb2 3.233953 1_545
Ca9 Sb31 3.354763 1_555
Ca9 Sb26 3.428993 1_555
Ca10 Sb6 3.149600 1_555
Ca10 Sb23 3.159849 1_555
Ca10 Sb11 3.388889 1_555
Ca10 Sb26 3.416236 1_555
Ca10 Sb4 3.454309 1_555
Ca10 Sb30 3.464497 1_555
Ca10 Sb17 3.705146 1_555
Ca11 Sb6 3.149600 1_565
Ca11 Sb18 3.159849 1_665
Ca11 Sb16 3.388889 1_555
Ca11 Sb28 3.416236 1_556
Ca11 Sb17 3.454309 1_565
Ca11 Sb11 3.464497 1_565
Ca11 Sb22 3.705146 1_555
Ca12 Sb32 3.145109 1_555
Ca12 Sb35 3.187866 1_655
Ca12 Sb21 3.204097 1_555
Ca12 Sb9 3.233953 1_555
Ca12 Sb3 3.354763 1_555
Ca12 Sb25 3.428993 1_655
Ca13 Sb34 3.149600 1_655
Ca13 Sb18 3.159849 1_665
Ca13 Sb16 3.388889 1_555
Ca13 Sb21 3.416236 1_556
Ca13 Sb2 3.454309 1_655
Ca13 Sb27 3.464497 1_655
Ca13 Sb22 3.705146 1_555
Ca14 Sb19 3.145109 1_555
Ca14 Sb10 3.187866 1_565
Ca14 Sb26 3.204097 1_565
Ca14 Sb12 3.233953 1_565
Ca14 Sb14 3.354763 1_555
Ca14 Sb29 3.428993 1_555
Ca15 Sb0 3.145109 1_555
Ca15 Sb10 3.187866 1_555
Ca15 Sb29 3.204097 1_545
Ca15 Sb13 3.233953 1_545
Ca15 Sb31 3.354763 1_555
Ca15 Sb26 3.428993 1_555
Ca16 Sb22 3.184056 1_555
Ca16 Sb4 3.184056 1_555
Ca16 Sb1 3.296903 1_556
Ca16 Sb3 3.296903 1_556
Ca17 Sb34 3.149600 1_655
Ca17 Sb23 3.159849 1_555
Ca17 Sb11 3.388889 1_555
Ca17 Sb7 3.416236 1_555
Ca17 Sb22 3.454309 1_555
Ca17 Sb16 3.464497 1_555
Ca17 Sb17 3.705146 1_555
Ca18 Sb19 3.145109 1_555
Ca18 Sb35 3.187866 1_655
Ca18 Sb15 3.204097 1_655
Ca18 Sb13 3.233953 1_655
Ca18 Sb14 3.354763 1_555
Ca18 Sb7 3.428993 1_555
Ca19 Sb30 3.145109 1_555
Ca19 Sb34 3.187866 1_555
Ca19 Sb7 3.204097 1_455
Ca19 Sb17 3.233953 1_455
Ca19 Sb31 3.354763 1_555
Ca19 Sb15 3.428993 1_555
Ca20 Sb35 3.149600 1_555
Ca20 Sb20 3.159849 1_555
Ca20 Sb24 3.388889 1_555
Ca20 Sb15 3.416236 1_555
Ca20 Sb8 3.454309 1_555
Ca20 Sb0 3.464497 1_555
Ca20 Sb13 3.705146 1_555
Ca21 Sb25 3.131764 1_655
Ca21 Sb28 3.131764 1_545
Ca21 Sb3 3.200734 1_555
Ca21 Sb32 3.493937 1_555
Ca21 Sb11 3.493937 1_554
Ca22 Sb10 3.149600 1_555
Ca22 Sb20 3.159849 1_555
Ca22 Sb32 3.388889 1_555
Ca22 Sb26 3.416236 1_555
Ca22 Sb8 3.454309 1_555
Ca22 Sb0 3.464497 1_555
Ca22 Sb12 3.705146 1_555
Ca23 Sb11 3.145109 1_555
Ca23 Sb34 3.187866 1_655
Ca23 Sb21 3.204097 1_556
Ca23 Sb22 3.233953 1_555
Ca23 Sb3 3.354763 1_556
Ca23 Sb25 3.428993 1_656
Ca24 Sb9 3.184056 1_555
Ca24 Sb8 3.184056 1_555
Ca24 Sb3 3.296903 1_555
Ca24 Sb1 3.296903 1_555
Ca25 Sb16 3.145109 1_555
Ca25 Sb34 3.187866 1_655
Ca25 Sb15 3.204097 1_655
Ca25 Sb2 3.233953 1_655
Ca25 Sb14 3.354763 1_555
Ca25 Sb7 3.428993 1_555
Ca26 Sb10 3.149600 1_565
Ca26 Sb33 3.159849 1_665
Ca26 Sb19 3.388889 1_555
Ca26 Sb28 3.416236 1_555
Ca26 Sb12 3.454309 1_565
Ca26 Sb32 3.464497 1_565
Ca26 Sb9 3.705146 1_555
Ca27 Sb10 3.149600 1_565
Ca27 Sb20 3.159849 1_555
Ca27 Sb24 3.388889 1_555
Ca27 Sb29 3.416236 1_555
Ca27 Sb9 3.454309 1_555
Ca27 Sb19 3.464497 1_555
Ca27 Sb13 3.705146 1_555
Ca28 Sb35 3.149600 1_655
Ca28 Sb33 3.159849 1_665
Ca28 Sb19 3.388889 1_555
Ca28 Sb21 3.416236 1_555
Ca28 Sb13 3.454309 1_655
Ca28 Sb24 3.464497 1_655
Ca28 Sb9 3.705146 1_555
Ca29 Sb29 3.131764 1_555
Ca29 Sb7 3.131764 1_555
Ca29 Sb14 3.200734 1_555
Ca29 Sb16 3.493937 1_555
Ca29 Sb19 3.493937 1_555
Ca30 Sb10 3.149600 1_555
Ca30 Sb33 3.159849 1_555
Ca30 Sb0 3.388889 1_555
Ca30 Sb5 3.416236 1_555
Ca30 Sb13 3.454309 1_545
Ca30 Sb24 3.464497 1_545
Ca30 Sb8 3.705146 1_555
Ca31 Sb16 3.145109 1_555
Ca31 Sb6 3.187866 1_565
Ca31 Sb26 3.204097 1_565
Ca31 Sb17 3.233953 1_565
Ca31 Sb14 3.354763 1_555
Ca31 Sb29 3.428993 1_555
Ca32 Sb34 3.149600 1_555
Ca32 Sb18 3.159849 1_555
Ca32 Sb30 3.388889 1_555
Ca32 Sb25 3.416236 1_556
Ca32 Sb17 3.454309 1_455
Ca32 Sb11 3.464497 1_455
Ca32 Sb4 3.705146 1_555
Ca33 Sb26 3.131764 1_555
Ca33 Sb15 3.131764 1_555
Ca33 Sb31 3.200734 1_555
Ca33 Sb30 3.493937 1_555
Ca33 Sb0 3.493937 1_555
Ca34 Sb32 3.145109 1_555
Ca34 Sb10 3.187866 1_555
Ca34 Sb5 3.204097 1_555
Ca34 Sb8 3.233953 1_555
Ca34 Sb3 3.354763 1_555
Ca34 Sb28 3.428993 1_545
Ca35 Sb13 3.184056 1_545
Ca35 Sb12 3.184056 1_455
Ca35 Sb31 3.296903 1_555
Ca35 Sb14 3.296903 1_445
Ca36 Sb6 3.149600 1_555
Ca36 Sb18 3.159849 1_555
Ca36 Sb30 3.388889 1_555
Ca36 Sb5 3.416236 1_556
Ca36 Sb2 3.454309 1_545
Ca36 Sb27 3.464497 1_545
Ca36 Sb4 3.705146 1_555
Ca37 Sb27 3.145109 1_555
Ca37 Sb6 3.187866 1_565
Ca37 Sb28 3.204097 1_556
Ca37 Sb22 3.233953 1_555
Ca37 Sb1 3.354763 1_556
Ca37 Sb5 3.428993 1_566
Ca38 Sb24 3.145109 1_555
Ca38 Sb35 3.187866 1_555
Ca38 Sb25 3.204097 1_555
Ca38 Sb8 3.233953 1_555
Ca38 Sb1 3.354763 1_555
Ca38 Sb21 3.428993 1_455
Ca39 Sb5 3.131764 1_565
Ca39 Sb21 3.131764 1_455
Ca39 Sb1 3.200734 1_555
Ca39 Sb24 3.493937 1_555
Ca39 Sb27 3.493937 1_554
Mg0 Sb33 2.889199 1_555
Mg0 Sb18 2.889199 1_554
Mg0 Sb5 2.894848 1_555
Mg0 Sb25 2.894848 1_555
Mg1 Sb23 2.889199 1_555
Mg1 Sb20 2.889199 1_555
Mg1 Sb29 2.894848 1_555
Mg1 Sb15 2.894848 1_555
Mg2 Sb23 2.889199 1_555
Mg2 Sb20 2.889199 1_555
Mg2 Sb7 2.894848 1_555
Mg2 Sb26 2.894848 1_555
Mg3 Sb33 2.889199 1_665
Mg3 Sb18 2.889199 1_664
Mg3 Sb21 2.894848 1_555
Mg3 Sb28 2.894848 1_555
Sb0 Sb8 2.972984 1_555
Sb2 Sb27 2.972984 1_555
Sb11 Sb17 2.972984 1_555
Sb12 Sb32 2.972984 1_555
Sb13 Sb24 2.972984 1_555
Sb16 Sb22 2.972984 1_555
Sb19 Sb9 2.972984 1_555
Sb30 Sb4 2.972984 1_555
