# generated using pymatgen
data_Li13Co11O24
_symmetry_space_group_name_H-M   'P 1'
_cell_length_a   11.42918345
_cell_length_b   20.60431260
_cell_length_c   15.11988851
_cell_angle_alpha   19.35948227
_cell_angle_beta   55.42237615
_cell_angle_gamma   46.06774282
_symmetry_Int_Tables_number   1
_chemical_formula_structural   Li13Co11O24
_chemical_formula_sum   'Li26 Co22 O48'
_cell_volume   791.48363193
_cell_formula_units_Z   2
loop_
 _symmetry_equiv_pos_site_id
 _symmetry_equiv_pos_as_xyz
  1  'x, y, z'
loop_
 _atom_site_type_symbol
 _atom_site_label
 _atom_site_symmetry_multiplicity
 _atom_site_fract_x
 _atom_site_fract_y
 _atom_site_fract_z
 _atom_site_occupancy
  Li  Li0  1  0.99931100  0.00052600  0.00019500  1
  Li  Li1  1  0.25313400  0.99363300  0.00969900  1
  Li  Li2  1  0.49907000  0.99389100  0.00939500  1
  Li  Li3  1  0.08523600  0.33283500  0.99967100  1
  Li  Li4  1  0.41678800  0.16655000  0.00013100  1
  Li  Li5  1  0.33437500  0.33929400  0.99074400  1
  Li  Li6  1  0.74799900  0.00068900  0.00018300  1
  Li  Li7  1  0.24800900  0.50159700  0.99937500  1
  Li  Li8  1  0.49941700  0.99915000  0.50150400  1
  Li  Li9  1  0.16215400  0.67615500  0.99023400  1
  Li  Li10  1  0.58032500  0.33947100  0.99053800  1
  Li  Li11  1  0.91667600  0.16657500  0.00010400  1
  Li  Li12  1  0.08021700  0.84008900  0.98975900  1
  Li  Li13  1  0.33407000  0.33408900  0.49850800  1
  Li  Li14  1  0.83389000  0.33286500  0.99983100  1
  Li  Li15  1  0.41669200  0.66662300  0.00002400  1
  Li  Li16  1  0.17109200  0.66626200  0.50068000  1
  Li  Li17  1  0.99890700  0.00170600  0.50179800  1
  Li  Li18  1  0.75307600  0.49331900  0.01014900  1
  Li  Li19  1  0.91662300  0.16675300  0.49988100  1
  Li  Li20  1  0.67120800  0.65724400  0.00965600  1
  Li  Li21  1  0.41674200  0.66653800  0.50011800  1
  Li  Li22  1  0.58531700  0.83172000  0.00062900  1
  Li  Li23  1  0.83425000  0.33175800  0.49813200  1
  Li  Li24  1  0.91655700  0.66681900  0.99980200  1
  Li  Li25  1  0.66230100  0.66703100  0.49938700  1
  Co  Co0  1  0.16968900  0.16117900  0.00504800  1
  Co  Co1  1  0.24660400  0.00079600  0.50091500  1
  Co  Co2  1  0.99898000  0.49683300  0.00470400  1
  Co  Co3  1  0.16377300  0.16637600  0.50071200  1
  Co  Co4  1  0.66363900  0.17215900  0.99497600  1
  Co  Co5  1  0.08286900  0.33421800  0.49894700  1
  Co  Co6  1  0.41664100  0.16669700  0.49995800  1
  Co  Co7  1  0.00008600  0.50001300  0.49997600  1
  Co  Co8  1  0.50011100  0.49981500  0.00014700  1
  Co  Co9  1  0.75043100  0.99917200  0.50098700  1
  Co  Co10  1  0.66953400  0.16700500  0.49921500  1
  Co  Co11  1  0.25041700  0.49963900  0.50053900  1
  Co  Co12  1  0.33319400  0.83353200  0.99982700  1
  Co  Co13  1  0.58669600  0.33262500  0.49900300  1
  Co  Co14  1  0.08691200  0.83063700  0.50089000  1
  Co  Co15  1  0.49885400  0.50226800  0.49937600  1
  Co  Co16  1  0.33445700  0.83108200  0.50060800  1
  Co  Co17  1  0.74643500  0.50271600  0.49910500  1
  Co  Co18  1  0.83439400  0.83650600  0.99528300  1
  Co  Co19  1  0.58292300  0.83364800  0.49952700  1
  Co  Co20  1  0.91666300  0.66665000  0.50003500  1
  Co  Co21  1  0.83326400  0.83329700  0.50006000  1
  O  O0  1  0.09858900  0.06385400  0.26165300  1
  O  O1  1  0.01529000  0.25113900  0.24588000  1
  O  O2  1  0.34091000  0.05598100  0.28549900  1
  O  O3  1  0.23480500  0.24537700  0.26241500  1
  O  O4  1  0.09718000  0.08745600  0.73894700  1
  O  O5  1  0.59714500  0.06543100  0.26102900  1
  O  O6  1  0.17496800  0.39008000  0.28383500  1
  O  O7  1  0.32531600  0.08797000  0.73785500  1
  O  O8  1  0.06866400  0.58049600  0.25990900  1
  O  O9  1  0.50800100  0.24540000  0.26208700  1
  O  O10  1  0.84023000  0.05671500  0.28492400  1
  O  O11  1  0.23620700  0.26777700  0.73916400  1
  O  O12  1  0.43143400  0.39756300  0.26148700  1
  O  O13  1  0.00798100  0.72351300  0.28405600  1
  O  O14  1  0.15829900  0.42106200  0.73841100  1
  O  O15  1  0.73612700  0.24593100  0.26098000  1
  O  O16  1  0.59853300  0.08800100  0.73751400  1
  O  O17  1  0.34004200  0.57975000  0.26194000  1
  O  O18  1  0.06916000  0.60210300  0.73783500  1
  O  O19  1  0.26455400  0.73205500  0.26096200  1
  O  O20  1  0.49241500  0.27728000  0.71460100  1
  O  O21  1  0.65819800  0.40265900  0.27290000  1
  O  O22  1  0.81798700  0.08226000  0.75405400  1
  O  O23  1  0.56897200  0.57973500  0.26037400  1
  O  O24  1  0.43506600  0.40367700  0.75363000  1
  O  O25  1  0.15818700  0.92985700  0.24570900  1
  O  O26  1  0.31802500  0.60909600  0.72721400  1
  O  O27  1  0.73474100  0.26947500  0.73838600  1
  O  O28  1  0.93501000  0.41164900  0.24563000  1
  O  O29  1  0.51538000  0.72414700  0.27285600  1
  O  O30  1  0.67520000  0.40342300  0.75434300  1
  O  O31  1  0.39829500  0.92961200  0.24641300  1
  O  O32  1  0.26435000  0.75366500  0.73952400  1
  O  O33  1  0.84085600  0.57903800  0.26254100  1
  O  O34  1  0.56872500  0.60129200  0.73900800  1
  O  O35  1  0.76420900  0.73126600  0.26210900  1
  O  O36  1  0.17513100  0.93071500  0.72704400  1
  O  O37  1  0.99317800  0.27657900  0.71510700  1
  O  O38  1  0.49326400  0.75357500  0.73808900  1
  O  O39  1  0.93154900  0.42126000  0.73787700  1
  O  O40  1  0.67502200  0.91220300  0.26169500  1
  O  O41  1  0.40187800  0.93582800  0.73842400  1
  O  O42  1  0.82533900  0.60979000  0.71602900  1
  O  O43  1  0.90182600  0.91199600  0.26223700  1
  O  O44  1  0.76469200  0.75282500  0.74010300  1
  O  O45  1  0.65830300  0.94331600  0.71607400  1
  O  O46  1  0.99246800  0.75435200  0.73737600  1
  O  O47  1  0.89830000  0.92173000  0.75430600  1
loop_
_geom_bond_atom_site_label_1
_geom_bond_atom_site_label_2
_geom_bond_distance
_geom_bond_site_symmetry_2
Li0 O43 2.106911 1_545
Li0 O37 2.112912 1_554
Li0 O27 2.112987 1_554
Li0 O4 2.115936 1_654
Li0 O19 2.116221 1_645
Li0 O13 2.117131 1_645
Li1 O25 2.091295 1_555
Li1 O29 2.097939 1_555
Li1 O19 2.109293 1_555
Li1 O11 2.111820 1_564
Li1 O37 2.154609 1_464
Li1 O7 2.157340 1_564
Li2 O31 2.097451 1_555
Li2 O29 2.102939 1_555
Li2 O35 2.106805 1_555
Li2 O11 2.113288 1_564
Li2 O20 2.151002 1_564
Li2 O16 2.159790 1_564
Li3 O1 1.999025 1_556
Li3 O14 2.102060 1_555
Li3 O2 2.107710 1_556
Li3 O18 2.110484 1_555
Li3 O0 2.125569 1_556
Li3 O42 2.130640 1_455
Li4 O24 1.994545 1_554
Li4 O31 1.995078 1_545
Li4 O40 2.119873 1_545
Li4 O14 2.121917 1_554
Li4 O2 2.122622 1_555
Li4 O20 2.122694 1_554
Li5 O24 2.097312 1_555
Li5 O26 2.103009 1_555
Li5 O18 2.107477 1_555
Li5 O5 2.112827 1_556
Li5 O2 2.151049 1_556
Li5 O3 2.159588 1_556
Li6 O22 1.999615 1_554
Li6 O40 2.101945 1_545
Li6 O20 2.106993 1_554
Li6 O35 2.111250 1_545
Li6 O27 2.124650 1_554
Li6 O13 2.131411 1_645
Li7 O26 2.000823 1_555
Li7 O6 2.100919 1_556
Li7 O46 2.107846 1_455
Li7 O32 2.110735 1_555
Li7 O3 2.125293 1_556
Li7 O9 2.130622 1_556
Li8 O41 2.108041 1_555
Li8 O38 2.111542 1_555
Li8 O3 2.113248 1_565
Li8 O5 2.114312 1_565
Li8 O44 2.116512 1_555
Li8 O9 2.118484 1_565
Li9 O36 2.096114 1_555
Li9 O47 2.097644 1_455
Li9 O32 2.103314 1_555
Li9 O8 2.113037 1_556
Li9 O12 2.152468 1_556
Li9 O6 2.153617 1_556
Li10 O30 2.091344 1_555
Li10 O26 2.098499 1_555
Li10 O34 2.109627 1_555
Li10 O5 2.111310 1_556
Li10 O10 2.154079 1_556
Li10 O9 2.156942 1_556
Li11 O30 1.993552 1_554
Li11 O25 1.993774 1_645
Li11 O43 2.120187 1_545
Li11 O39 2.121328 1_554
Li11 O10 2.124289 1_555
Li11 O37 2.124734 1_554
Li12 O36 2.089531 1_555
Li12 O22 2.097339 1_465
Li12 O8 2.110417 1_556
Li12 O4 2.112327 1_565
Li12 O17 2.154508 1_556
Li12 O13 2.159991 1_556
Li13 O12 2.107365 1_555
Li13 O17 2.111629 1_555
Li13 O16 2.112261 1_555
Li13 O11 2.116141 1_555
Li13 O8 2.117270 1_555
Li13 O7 2.118330 1_555
Li14 O39 2.107525 1_555
Li14 O10 2.112763 1_556
Li14 O0 2.113847 1_656
Li14 O15 2.114672 1_556
Li14 O34 2.115921 1_555
Li14 O42 2.117122 1_555
Li15 O21 1.993779 1_555
Li15 O36 1.994153 1_554
Li15 O12 2.120474 1_555
Li15 O41 2.121155 1_554
Li15 O38 2.124564 1_554
Li15 O17 2.125295 1_555
Li16 O24 2.098543 1_555
Li16 O25 2.099363 1_555
Li16 O18 2.100850 1_555
Li16 O19 2.111721 1_555
Li16 O14 2.151374 1_555
Li16 O43 2.152336 1_455
Li17 O47 2.095011 1_545
Li17 O1 2.099920 1_655
Li17 O32 2.107844 1_645
Li17 O15 2.113792 1_555
Li17 O46 2.153223 1_545
Li17 O0 2.162726 1_655
Li18 O21 2.089544 1_555
Li18 O1 2.097268 1_655
Li18 O44 2.110362 1_554
Li18 O15 2.112393 1_555
Li18 O38 2.154230 1_554
Li18 O42 2.159086 1_554
Li19 O21 2.058059 1_555
Li19 O28 2.058208 1_555
Li19 O47 2.058330 1_545
Li19 O36 2.058899 1_645
Li19 O1 2.061357 1_655
Li19 O22 2.062120 1_555
Li20 O21 2.096370 1_555
Li20 O28 2.097300 1_555
Li20 O23 2.103445 1_555
Li20 O44 2.112489 1_554
Li20 O41 2.152802 1_554
Li20 O45 2.153022 1_554
Li21 O24 2.057823 1_555
Li21 O30 2.058411 1_555
Li21 O31 2.058771 1_555
Li21 O25 2.059179 1_555
Li21 O29 2.061777 1_555
Li21 O26 2.061861 1_555
Li22 O29 2.000759 1_555
Li22 O45 2.101142 1_554
Li22 O33 2.107785 1_555
Li22 O23 2.110277 1_555
Li22 O16 2.125777 1_564
Li22 O7 2.130724 1_564
Li23 O28 2.096014 1_555
Li23 O22 2.099904 1_555
Li23 O23 2.106832 1_555
Li23 O4 2.114694 1_655
Li23 O33 2.153249 1_555
Li23 O27 2.162367 1_555
Li24 O28 1.994817 1_556
Li24 O47 1.994844 1_555
Li24 O45 2.120057 1_555
Li24 O6 2.121618 1_656
Li24 O46 2.123690 1_555
Li24 O33 2.124575 1_556
Li25 O31 2.098879 1_555
Li25 O30 2.099753 1_555
Li25 O35 2.101395 1_555
Li25 O34 2.111181 1_555
Li25 O40 2.150629 1_555
Li25 O39 2.152204 1_555
Co0 O25 1.891084 1_545
Co0 O31 1.891729 1_545
Co0 O0 1.933035 1_555
Co0 O11 1.936640 1_554
Co0 O39 1.958820 1_454
Co0 O14 1.958941 1_554
Co1 O1 1.892772 1_555
Co1 O36 1.895562 1_545
Co1 O32 1.928460 1_545
Co1 O3 1.933040 1_555
Co1 O2 1.947032 1_555
Co1 O38 1.958308 1_545
Co2 O28 1.891645 1_555
Co2 O1 1.894442 1_655
Co2 O44 1.933998 1_554
Co2 O3 1.934132 1_655
Co2 O46 1.955019 1_554
Co2 O18 1.963583 1_654
Co3 O36 1.892219 1_545
Co3 O28 1.893009 1_455
Co3 O3 1.933285 1_555
Co3 O4 1.936947 1_555
Co3 O6 1.958806 1_555
Co3 O41 1.958826 1_545
Co4 O30 1.890882 1_555
Co4 O24 1.891618 1_555
Co4 O27 1.932960 1_555
Co4 O5 1.937162 1_556
Co4 O43 1.959249 1_546
Co4 O40 1.959517 1_546
Co5 O37 1.924996 1_455
Co5 O33 1.926542 1_455
Co5 O7 1.933711 1_555
Co5 O6 1.934623 1_555
Co5 O4 1.936915 1_555
Co5 O8 1.937850 1_555
Co6 O45 1.927606 1_545
Co6 O6 1.927717 1_555
Co6 O41 1.927897 1_545
Co6 O12 1.928064 1_555
Co6 O9 1.933208 1_555
Co6 O7 1.933213 1_555
Co7 O39 1.933245 1_455
Co7 O37 1.933283 1_455
Co7 O13 1.935748 1_555
Co7 O35 1.936837 1_455
Co7 O8 1.938081 1_555
Co7 O11 1.940196 1_555
Co8 O12 1.932451 1_555
Co8 O38 1.933008 1_554
Co8 O9 1.935898 1_555
Co8 O32 1.936644 1_554
Co8 O34 1.938995 1_554
Co8 O15 1.939356 1_555
Co9 O10 1.925017 1_565
Co9 O46 1.926675 1_555
Co9 O9 1.933610 1_565
Co9 O45 1.934393 1_555
Co9 O15 1.936861 1_565
Co9 O44 1.937899 1_555
Co10 O21 1.892422 1_555
Co10 O47 1.893065 1_545
Co10 O16 1.933290 1_555
Co10 O15 1.936867 1_555
Co10 O12 1.958809 1_555
Co10 O45 1.959019 1_545
Co11 O17 1.924606 1_555
Co11 O20 1.926877 1_555
Co11 O13 1.933466 1_555
Co11 O14 1.935212 1_555
Co11 O11 1.937666 1_555
Co11 O19 1.938448 1_555
Co12 O41 1.932695 1_555
Co12 O17 1.932939 1_556
Co12 O7 1.936110 1_565
Co12 O23 1.936659 1_556
Co12 O19 1.938947 1_556
Co12 O4 1.939385 1_565
Co13 O22 1.892585 1_555
Co13 O21 1.895831 1_555
Co13 O23 1.928110 1_555
Co13 O16 1.933360 1_555
Co13 O20 1.947241 1_555
Co13 O17 1.958184 1_555
Co14 O26 1.891575 1_555
Co14 O25 1.894571 1_555
Co14 O18 1.928175 1_555
Co14 O0 1.933085 1_565
Co14 O46 1.946670 1_455
Co14 O10 1.958241 1_465
Co15 O24 1.890790 1_555
Co15 O29 1.893464 1_555
Co15 O19 1.934211 1_555
Co15 O27 1.934449 1_555
Co15 O20 1.954890 1_555
Co15 O23 1.962862 1_555
Co16 O31 1.890787 1_555
Co16 O26 1.893690 1_555
Co16 O34 1.933850 1_555
Co16 O0 1.934132 1_565
Co16 O2 1.954534 1_565
Co16 O32 1.962436 1_555
Co17 O29 1.891305 1_555
Co17 O30 1.894410 1_555
Co17 O35 1.928223 1_555
Co17 O27 1.933266 1_555
Co17 O33 1.947135 1_555
Co17 O37 1.958650 1_555
Co18 O47 1.891820 1_555
Co18 O22 1.894248 1_565
Co18 O8 1.933898 1_656
Co18 O16 1.934504 1_565
Co18 O33 1.955128 1_556
Co18 O35 1.963416 1_556
Co19 O38 1.924628 1_555
Co19 O2 1.926983 1_565
Co19 O42 1.933439 1_555
Co19 O40 1.934981 1_555
Co19 O5 1.937502 1_565
Co19 O34 1.938755 1_555
Co20 O14 1.927626 1_655
Co20 O40 1.927649 1_555
Co20 O39 1.928047 1_555
Co20 O43 1.928069 1_555
Co20 O13 1.932584 1_655
Co20 O42 1.932806 1_555
Co21 O43 1.932942 1_555
Co21 O10 1.933457 1_565
Co21 O42 1.935687 1_555
Co21 O18 1.936857 1_655
Co21 O44 1.937925 1_555
Co21 O5 1.939945 1_565
