# generated using pymatgen
data_CaMgAsO4F
_symmetry_space_group_name_H-M   'P 1'
_cell_length_a   5.66172082
_cell_length_b   5.66172082
_cell_length_c   7.20674338
_cell_angle_alpha   76.13931740
_cell_angle_beta   76.13931740
_cell_angle_gamma   106.19156377
_symmetry_Int_Tables_number   1
_chemical_formula_structural   CaMgAsO4F
_chemical_formula_sum   'Ca2 Mg2 As2 O8 F2'
_cell_volume   203.42988405
_cell_formula_units_Z   2
loop_
 _symmetry_equiv_pos_site_id
 _symmetry_equiv_pos_as_xyz
  1  'x, y, z'
loop_
 _atom_site_type_symbol
 _atom_site_label
 _atom_site_symmetry_multiplicity
 _atom_site_fract_x
 _atom_site_fract_y
 _atom_site_fract_z
 _atom_site_occupancy
  Ca  Ca0  1  0.83539200  0.17024300  0.24243200  1
  Ca  Ca1  1  0.17024300  0.83539200  0.74243200  1
  Mg  Mg0  1  0.50297900  0.50465100  0.00047200  1
  Mg  Mg1  1  0.50465100  0.50297900  0.50047200  1
  As  As0  1  0.82383600  0.18188700  0.74937900  1
  As  As1  1  0.18188700  0.82383600  0.24937900  1
  O  O0  1  0.24378600  0.12205300  0.07811500  1
  O  O1  1  0.60292000  0.17455000  0.62027000  1
  O  O2  1  0.83084200  0.40279800  0.87918800  1
  O  O3  1  0.76464800  0.88593000  0.92280100  1
  O  O4  1  0.17455000  0.60292000  0.12027000  1
  O  O5  1  0.40279800  0.83084200  0.37918800  1
  O  O6  1  0.12205300  0.24378600  0.57811500  1
  O  O7  1  0.88593000  0.76464800  0.42280100  1
  F  F0  1  0.42292000  0.58756600  0.74954400  1
  F  F1  1  0.58756600  0.42292000  0.24954400  1
loop_
_geom_bond_atom_site_label_1
_geom_bond_atom_site_label_2
_geom_bond_distance
_geom_bond_site_symmetry_2
Ca0 F1 2.266736 1_555
Ca0 O5 2.444150 1_545
Ca0 O4 2.448805 1_655
Ca0 O0 2.453124 1_655
Ca0 O7 2.481795 1_545
Ca0 O2 2.643288 1_554
Ca0 O1 2.734983 1_555
Ca1 F0 2.266736 1_555
Ca1 O2 2.444150 1_455
Ca1 O1 2.448805 1_565
Ca1 O6 2.453124 1_565
Ca1 O3 2.481795 1_455
Ca1 O5 2.643288 1_555
Ca1 O4 2.734983 1_556
Mg0 O3 2.099589 1_554
Mg0 O0 2.100447 1_555
Mg0 O4 2.133192 1_555
Mg0 O2 2.145546 1_554
Mg1 O7 2.099589 1_555
Mg1 O6 2.100447 1_555
Mg1 O1 2.133192 1_555
Mg1 O5 2.145546 1_555
As0 O6 1.720831 1_655
As0 O3 1.721869 1_545
As0 O1 1.725985 1_555
As0 O2 1.729680 1_555
As1 O0 1.720831 1_565
As1 O7 1.721869 1_455
As1 O4 1.725985 1_555
As1 O5 1.729680 1_555
F0 Mg0 1.949540 1_556
F0 Mg1 1.950127 1_555
F1 Mg1 1.949540 1_555
F1 Mg0 1.950127 1_555
