# generated using pymatgen
data_UAg2(WO5)2
_symmetry_space_group_name_H-M   'P 1'
_cell_length_a   7.67611800
_cell_length_b   8.78683300
_cell_length_c   12.78211600
_cell_angle_alpha   90.00000000
_cell_angle_beta   90.00000000
_cell_angle_gamma   90.00000000
_symmetry_Int_Tables_number   1
_chemical_formula_structural   UAg2(WO5)2
_chemical_formula_sum   'U4 Ag8 W8 O40'
_cell_volume   862.13796327
_cell_formula_units_Z   4
loop_
 _symmetry_equiv_pos_site_id
 _symmetry_equiv_pos_as_xyz
  1  'x, y, z'
loop_
 _atom_site_type_symbol
 _atom_site_label
 _atom_site_symmetry_multiplicity
 _atom_site_fract_x
 _atom_site_fract_y
 _atom_site_fract_z
 _atom_site_occupancy
  U  U0  1  0.75000000  0.02468900  0.99991600  1
  U  U1  1  0.25000000  0.97531100  0.00008400  1
  U  U2  1  0.75000000  0.52468900  0.50008400  1
  U  U3  1  0.25000000  0.47531100  0.49991600  1
  Ag  Ag0  1  0.75000000  0.82801600  0.29485800  1
  Ag  Ag1  1  0.75000000  0.18991600  0.69132300  1
  Ag  Ag2  1  0.25000000  0.31008400  0.19132300  1
  Ag  Ag3  1  0.25000000  0.81008400  0.30867700  1
  Ag  Ag4  1  0.75000000  0.68991600  0.80867700  1
  Ag  Ag5  1  0.75000000  0.32801600  0.20514200  1
  Ag  Ag6  1  0.25000000  0.17198400  0.70514200  1
  Ag  Ag7  1  0.25000000  0.67198400  0.79485800  1
  W  W0  1  0.00016200  0.85014400  0.57635400  1
  W  W1  1  0.99983800  0.64985600  0.07635400  1
  W  W2  1  0.00016200  0.35014400  0.92364600  1
  W  W3  1  0.50016200  0.64985600  0.07635400  1
  W  W4  1  0.99983800  0.14985600  0.42364600  1
  W  W5  1  0.49983800  0.35014400  0.92364600  1
  W  W6  1  0.49983800  0.85014400  0.57635400  1
  W  W7  1  0.50016200  0.14985600  0.42364600  1
  O  O0  1  0.25000000  0.99712300  0.14240600  1
  O  O1  1  0.25000000  0.36273100  0.92401000  1
  O  O2  1  0.75000000  0.04392700  0.14373900  1
  O  O3  1  0.25000000  0.49712300  0.35759400  1
  O  O4  1  0.75000000  0.00287700  0.85759400  1
  O  O5  1  0.01295000  0.70957800  0.21026500  1
  O  O6  1  0.75000000  0.54392700  0.35626100  1
  O  O7  1  0.98705000  0.29042200  0.78973500  1
  O  O8  1  0.51295000  0.29042200  0.78973500  1
  O  O9  1  0.97525500  0.85174400  0.00953900  1
  O  O10  1  0.25000000  0.45607300  0.64373900  1
  O  O11  1  0.01295000  0.20957800  0.28973500  1
  O  O12  1  0.47525500  0.14825600  0.99046100  1
  O  O13  1  0.48705000  0.70957800  0.21026500  1
  O  O14  1  0.47525500  0.64825600  0.50953900  1
  O  O15  1  0.02474500  0.64825600  0.50953900  1
  O  O16  1  0.48705000  0.20957800  0.28973500  1
  O  O17  1  0.02325300  0.43452000  0.08874100  1
  O  O18  1  0.75000000  0.13726900  0.42401000  1
  O  O19  1  0.25000000  0.86273100  0.57599000  1
  O  O20  1  0.47674700  0.93452000  0.41125900  1
  O  O21  1  0.47674700  0.43452000  0.08874100  1
  O  O22  1  0.75000000  0.31332000  0.95605400  1
  O  O23  1  0.52474500  0.85174400  0.00953900  1
  O  O24  1  0.52325300  0.56548000  0.91125900  1
  O  O25  1  0.75000000  0.81332000  0.54394600  1
  O  O26  1  0.25000000  0.18668000  0.45605400  1
  O  O27  1  0.97525500  0.35174400  0.49046100  1
  O  O28  1  0.25000000  0.95607300  0.85626100  1
  O  O29  1  0.75000000  0.63726900  0.07599000  1
  O  O30  1  0.97674700  0.06548000  0.58874100  1
  O  O31  1  0.75000000  0.50287700  0.64240600  1
  O  O32  1  0.97674700  0.56548000  0.91125900  1
  O  O33  1  0.52325300  0.06548000  0.58874100  1
  O  O34  1  0.51295000  0.79042200  0.71026500  1
  O  O35  1  0.98705000  0.79042200  0.71026500  1
  O  O36  1  0.02325300  0.93452000  0.41125900  1
  O  O37  1  0.52474500  0.35174400  0.49046100  1
  O  O38  1  0.02474500  0.14825600  0.99046100  1
  O  O39  1  0.25000000  0.68668000  0.04394600  1
loop_
_geom_bond_atom_site_label_1
_geom_bond_atom_site_label_2
_geom_bond_distance
_geom_bond_site_symmetry_2
Ag0 O13 2.515211 1_555
Ag0 O5 2.515211 1_655
Ag0 O6 2.616722 1_555
Ag0 O2 2.707476 1_565
Ag0 O20 2.736619 1_555
Ag0 O36 2.736619 1_655
Ag1 O8 2.381868 1_555
Ag1 O7 2.381868 1_555
Ag1 O30 2.438088 1_555
Ag1 O33 2.438088 1_555
Ag1 O4 2.686616 1_555
Ag1 O31 2.820124 1_555
Ag2 O16 2.381868 1_555
Ag2 O11 2.381868 1_555
Ag2 O21 2.438088 1_555
Ag2 O17 2.438088 1_555
Ag2 O3 2.686616 1_555
Ag2 O0 2.820124 1_545
Ag3 O13 2.381868 1_555
Ag3 O5 2.381868 1_555
Ag3 O20 2.438088 1_555
Ag3 O36 2.438088 1_555
Ag3 O0 2.686616 1_555
Ag3 O3 2.820124 1_555
Ag4 O34 2.381868 1_555
Ag4 O35 2.381868 1_555
Ag4 O24 2.438088 1_555
Ag4 O32 2.438088 1_555
Ag4 O31 2.686616 1_555
Ag4 O4 2.820124 1_565
Ag5 O16 2.515211 1_555
Ag5 O11 2.515211 1_655
Ag5 O2 2.616722 1_555
Ag5 O6 2.707476 1_555
Ag5 O17 2.736619 1_655
Ag5 O21 2.736619 1_555
Ag6 O8 2.515211 1_555
Ag6 O7 2.515211 1_455
Ag6 O10 2.616722 1_555
Ag6 O28 2.707476 1_545
Ag6 O33 2.736619 1_555
Ag6 O30 2.736619 1_455
Ag7 O35 2.515211 1_455
Ag7 O34 2.515211 1_555
Ag7 O28 2.616722 1_555
Ag7 O10 2.707476 1_555
Ag7 O32 2.736619 1_455
Ag7 O24 2.736619 1_555
O0 U1 1.829244 1_555
O1 W2 1.920978 1_555
O1 W5 1.920978 1_555
O2 U0 1.846118 1_554
O3 U3 1.829244 1_555
O4 U0 1.829244 1_555
O5 W1 1.793129 1_455
O6 U2 1.846118 1_555
O7 W2 1.793129 1_655
O8 W5 1.793129 1_555
O9 W1 1.977854 1_555
O9 U0 2.305247 1_564
O9 U1 2.375134 1_655
O10 U3 1.846118 1_555
O11 W4 1.793129 1_455
O12 W5 1.977854 1_555
O12 U1 2.305247 1_546
O12 U0 2.375134 1_555
O13 W3 1.793129 1_555
O14 W6 1.977854 1_555
O14 U3 2.305247 1_555
O14 U2 2.375134 1_555
O15 W0 1.977854 1_555
O15 U3 2.305247 1_555
O15 U2 2.375134 1_455
O16 W7 1.793129 1_555
O17 W1 1.907223 1_455
O17 W2 2.243725 1_554
O18 W4 1.920978 1_555
O18 W7 1.920978 1_555
O19 W0 1.920978 1_555
O19 W6 1.920978 1_555
O20 W7 1.907223 1_565
O20 W6 2.243725 1_555
O21 W3 1.907223 1_555
O21 W5 2.243725 1_554
O22 W2 1.990915 1_655
O22 W5 1.990915 1_555
O22 U0 2.597383 1_555
O23 W3 1.977854 1_555
O23 U0 2.305247 1_564
O23 U1 2.375134 1_555
O24 W5 1.907223 1_555
O24 W3 2.243725 1_556
O25 W6 1.990915 1_555
O25 W0 1.990915 1_655
O25 U2 2.597383 1_555
O26 W7 1.990915 1_555
O26 W4 1.990915 1_455
O26 U3 2.597383 1_555
O27 W4 1.977854 1_555
O27 U2 2.305247 1_555
O27 U3 2.375134 1_655
O28 U1 1.846118 1_556
O29 W3 1.920978 1_555
O29 W1 1.920978 1_555
O30 W0 1.907223 1_645
O30 W4 2.243725 1_555
O31 U2 1.829244 1_555
O32 W2 1.907223 1_655
O32 W1 2.243725 1_556
O33 W6 1.907223 1_545
O33 W7 2.243725 1_555
O34 W6 1.793129 1_555
O35 W0 1.793129 1_655
O36 W4 1.907223 1_465
O36 W0 2.243725 1_555
O37 W7 1.977854 1_555
O37 U2 2.305247 1_555
O37 U3 2.375134 1_555
O38 W2 1.977854 1_555
O38 U1 2.305247 1_546
O38 U0 2.375134 1_455
O39 W1 1.990915 1_455
O39 W3 1.990915 1_555
O39 U1 2.597383 1_555
