# generated using pymatgen
data_Mg(CoO2)2
_symmetry_space_group_name_H-M   'P 1'
_cell_length_a   5.81397292
_cell_length_b   5.81397292
_cell_length_c   19.26230874
_cell_angle_alpha   80.93682063
_cell_angle_beta   80.93682063
_cell_angle_gamma   59.86719089
_symmetry_Int_Tables_number   1
_chemical_formula_structural   Mg(CoO2)2
_chemical_formula_sum   'Mg8 Co16 O32'
_cell_volume   553.74054314
_cell_formula_units_Z   8
loop_
 _symmetry_equiv_pos_site_id
 _symmetry_equiv_pos_as_xyz
  1  'x, y, z'
loop_
 _atom_site_type_symbol
 _atom_site_label
 _atom_site_symmetry_multiplicity
 _atom_site_fract_x
 _atom_site_fract_y
 _atom_site_fract_z
 _atom_site_occupancy
  Mg  Mg0  1  0.84984700  0.84984700  0.97026200  1
  Mg  Mg1  1  0.37603000  0.37603000  0.87490100  1
  Mg  Mg2  1  0.60099900  0.60099900  0.71850000  1
  Mg  Mg3  1  0.12711700  0.12711700  0.62536800  1
  Mg  Mg4  1  0.87477200  0.87477200  0.37535100  1
  Mg  Mg5  1  0.99964500  0.99964500  0.50123300  1
  Mg  Mg6  1  0.62424800  0.62424800  0.12471400  1
  Mg  Mg7  1  0.74977300  0.74977300  0.24958800  1
  Co  Co0  1  0.37572600  0.87055500  0.87537300  1
  Co  Co1  1  0.25010400  0.25010400  0.74901400  1
  Co  Co2  1  0.87055500  0.37572600  0.87537300  1
  Co  Co3  1  0.35030600  0.35030600  0.46636500  1
  Co  Co4  1  0.12802300  0.62102200  0.62562800  1
  Co  Co5  1  0.90078000  0.90078000  0.78012800  1
  Co  Co6  1  0.09899300  0.09899300  0.21782700  1
  Co  Co7  1  0.62102200  0.12802300  0.62562800  1
  Co  Co8  1  0.87479500  0.37521300  0.37516600  1
  Co  Co9  1  0.65046800  0.65046800  0.53341100  1
  Co  Co10  1  0.37521300  0.87479500  0.37516600  1
  Co  Co11  1  0.12522700  0.62479000  0.12456400  1
  Co  Co12  1  0.62479000  0.12522700  0.12456400  1
  Co  Co13  1  0.39960000  0.39960000  0.28339500  1
  Co  Co14  1  0.50093000  0.50093000  0.99808900  1
  Co  Co15  1  0.15041000  0.15041000  0.03096700  1
  O  O0  1  0.68033300  0.22569400  0.93606400  1
  O  O1  1  0.56854200  0.56854200  0.82179000  1
  O  O2  1  0.22569400  0.68033300  0.93606400  1
  O  O3  1  0.67195000  0.67195000  0.93418100  1
  O  O4  1  0.07413200  0.07413200  0.81504400  1
  O  O5  1  0.42853500  0.97873100  0.68662300  1
  O  O6  1  0.53405700  0.06402700  0.81271000  1
  O  O7  1  0.32039300  0.32039300  0.56769600  1
  O  O8  1  0.97873100  0.42853500  0.68662300  1
  O  O9  1  0.18059800  0.18059800  0.93117200  1
  O  O10  1  0.42139900  0.42139900  0.68442700  1
  O  O11  1  0.06402700  0.53405700  0.81271000  1
  O  O12  1  0.19057200  0.70854800  0.43381800  1
  O  O13  1  0.81589200  0.81589200  0.56980100  1
  O  O14  1  0.29439700  0.80892700  0.56748400  1
  O  O15  1  0.06958700  0.06958700  0.31860700  1
  O  O16  1  0.70854800  0.19057200  0.43381800  1
  O  O17  1  0.92884200  0.92884200  0.68065400  1
  O  O18  1  0.18211400  0.18211400  0.43128700  1
  O  O19  1  0.80892700  0.29439700  0.56748400  1
  O  O20  1  0.56758600  0.56758600  0.31881500  1
  O  O21  1  0.94372200  0.45496800  0.18302800  1
  O  O22  1  0.04188700  0.55992500  0.31627900  1
  O  O23  1  0.81644900  0.81644900  0.07306500  1
  O  O24  1  0.45496800  0.94372200  0.18302800  1
  O  O25  1  0.68038000  0.68038000  0.43143700  1
  O  O26  1  0.93379000  0.93379000  0.18060600  1
  O  O27  1  0.55992500  0.04188700  0.31627900  1
  O  O28  1  0.32506500  0.32506500  0.06439200  1
  O  O29  1  0.78398900  0.31421900  0.06157300  1
  O  O30  1  0.43229400  0.43229400  0.18129600  1
  O  O31  1  0.31421900  0.78398900  0.06157300  1
loop_
_geom_bond_atom_site_label_1
_geom_bond_atom_site_label_2
_geom_bond_distance
_geom_bond_site_symmetry_2
Mg0 O2 1.941389 1_655
Mg0 O0 1.941389 1_565
Mg0 O23 1.947375 1_556
Mg0 O3 2.037035 1_555
Mg1 O0 2.015380 1_555
Mg1 O2 2.015380 1_555
Mg1 O1 2.021973 1_555
Mg1 O11 2.057732 1_555
Mg1 O6 2.057732 1_555
Mg1 O9 2.068122 1_555
Mg2 O8 1.940010 1_555
Mg2 O5 1.940010 1_555
Mg2 O1 1.956765 1_555
Mg2 O10 2.034196 1_555
Mg3 O5 2.005074 1_545
Mg3 O8 2.005074 1_455
Mg3 O19 2.028092 1_455
Mg3 O14 2.028092 1_545
Mg3 O7 2.059300 1_555
Mg3 O17 2.086267 1_445
Mg4 O16 2.024954 1_565
Mg4 O12 2.024954 1_655
Mg4 O27 2.027746 1_565
Mg4 O22 2.027746 1_655
Mg4 O25 2.057891 1_555
Mg4 O15 2.066025 1_665
Mg5 O14 2.032272 1_655
Mg5 O19 2.032272 1_565
Mg5 O16 2.033433 1_565
Mg5 O12 2.033433 1_655
Mg5 O13 2.069775 1_555
Mg5 O18 2.072561 1_665
Mg6 O23 2.010073 1_555
Mg6 O24 2.038128 1_555
Mg6 O21 2.038128 1_555
Mg6 O30 2.040328 1_555
Mg6 O31 2.060302 1_555
Mg6 O29 2.060302 1_555
Mg7 O22 2.027675 1_655
Mg7 O27 2.027675 1_565
Mg7 O24 2.037014 1_555
Mg7 O21 2.037014 1_555
Mg7 O20 2.063632 1_555
Mg7 O26 2.075645 1_555
Co0 O2 1.894899 1_555
Co0 O1 1.906647 1_555
Co0 O3 1.946410 1_555
Co0 O6 1.957393 1_565
Co0 O9 1.965861 1_565
Co0 O4 1.987676 1_565
Co1 O8 1.889730 1_455
Co1 O5 1.889730 1_545
Co1 O10 1.935599 1_555
Co1 O6 1.956525 1_555
Co1 O11 1.956525 1_555
Co1 O4 1.985488 1_555
Co2 O0 1.894899 1_555
Co2 O1 1.906647 1_555
Co2 O3 1.946410 1_555
Co2 O11 1.957393 1_655
Co2 O9 1.965861 1_655
Co2 O4 1.987676 1_655
Co3 O12 1.850298 1_555
Co3 O16 1.850298 1_555
Co3 O7 1.920094 1_555
Co3 O18 1.935292 1_555
Co4 O8 1.904192 1_455
Co4 O14 1.928141 1_555
Co4 O10 1.935478 1_555
Co4 O17 1.948712 1_455
Co4 O7 1.951844 1_555
Co4 O13 1.974822 1_455
Co5 O17 1.885317 1_555
Co5 O11 1.890762 1_655
Co5 O6 1.890762 1_565
Co5 O4 1.982648 1_665
Co6 O24 1.850774 1_545
Co6 O21 1.850774 1_455
Co6 O15 1.909753 1_555
Co6 O26 1.928533 1_445
Co7 O5 1.904192 1_545
Co7 O19 1.928141 1_555
Co7 O10 1.935478 1_555
Co7 O17 1.948712 1_545
Co7 O7 1.951844 1_555
Co7 O13 1.974822 1_545
Co8 O16 1.917981 1_555
Co8 O22 1.923589 1_655
Co8 O25 1.951095 1_555
Co8 O15 1.956429 1_655
Co8 O18 1.957969 1_655
Co8 O20 1.960086 1_555
Co9 O14 1.847365 1_555
Co9 O19 1.847365 1_555
Co9 O13 1.922197 1_555
Co9 O25 1.932333 1_555
Co10 O12 1.917981 1_555
Co10 O27 1.923589 1_565
Co10 O25 1.951095 1_555
Co10 O15 1.956429 1_565
Co10 O18 1.957969 1_565
Co10 O20 1.960086 1_555
Co11 O23 1.911258 1_455
Co11 O21 1.917820 1_455
Co11 O31 1.945129 1_555
Co11 O26 1.963791 1_455
Co11 O30 1.963984 1_555
Co11 O28 1.977178 1_555
Co12 O23 1.911258 1_545
Co12 O24 1.917820 1_545
Co12 O29 1.945129 1_555
Co12 O26 1.963791 1_545
Co12 O30 1.963984 1_555
Co12 O28 1.977178 1_555
Co13 O27 1.849327 1_555
Co13 O22 1.849327 1_555
Co13 O30 1.934103 1_555
Co13 O20 1.936702 1_555
Co14 O2 1.899992 1_555
Co14 O0 1.899992 1_555
Co14 O3 1.927189 1_555
Co14 O31 1.950446 1_556
Co14 O29 1.950446 1_556
Co14 O28 1.987173 1_556
Co15 O31 1.880740 1_545
Co15 O29 1.880740 1_455
Co15 O9 1.890799 1_554
Co15 O28 1.980901 1_555
