# generated using pymatgen
data_TcBr4
_symmetry_space_group_name_H-M   'P 1'
_cell_length_a   6.41548348
_cell_length_b   12.62160499
_cell_length_c   15.21651365
_cell_angle_alpha   90.00000000
_cell_angle_beta   90.00000000
_cell_angle_gamma   90.00000000
_symmetry_Int_Tables_number   1
_chemical_formula_structural   TcBr4
_chemical_formula_sum   'Tc8 Br32'
_cell_volume   1232.13738554
_cell_formula_units_Z   8
loop_
 _symmetry_equiv_pos_site_id
 _symmetry_equiv_pos_as_xyz
  1  'x, y, z'
loop_
 _atom_site_type_symbol
 _atom_site_label
 _atom_site_symmetry_multiplicity
 _atom_site_fract_x
 _atom_site_fract_y
 _atom_site_fract_z
 _atom_site_occupancy
  Tc  Tc0  1  0.40120323  0.62975178  0.18003838  1
  Tc  Tc1  1  0.59879677  0.37024822  0.81996162  1
  Tc  Tc2  1  0.90120323  0.87024822  0.81996162  1
  Tc  Tc3  1  0.59879677  0.12975178  0.31996162  1
  Tc  Tc4  1  0.40120323  0.87024822  0.68003838  1
  Tc  Tc5  1  0.09879677  0.12975178  0.18003838  1
  Tc  Tc6  1  0.90120323  0.62975178  0.31996162  1
  Tc  Tc7  1  0.09879677  0.37024822  0.68003838  1
  Br  Br0  1  0.27288058  0.48349178  0.80733236  1
  Br  Br1  1  0.75318478  0.98830655  0.92730584  1
  Br  Br2  1  0.54838032  0.75265382  0.57231209  1
  Br  Br3  1  0.07540414  0.74286203  0.19316107  1
  Br  Br4  1  0.75318478  0.51169345  0.42730584  1
  Br  Br5  1  0.24681522  0.48830655  0.57269416  1
  Br  Br6  1  0.04838032  0.74734618  0.42768791  1
  Br  Br7  1  0.24681522  0.01169345  0.07269416  1
  Br  Br8  1  0.92459586  0.24286203  0.30683893  1
  Br  Br9  1  0.95161968  0.25265382  0.57231209  1
  Br  Br10  1  0.92459586  0.25713797  0.80683893  1
  Br  Br11  1  0.07540414  0.75713797  0.69316107  1
  Br  Br12  1  0.72711942  0.51650822  0.19266764  1
  Br  Br13  1  0.45161968  0.25265382  0.92768791  1
  Br  Br14  1  0.57540414  0.74286203  0.30683893  1
  Br  Br15  1  0.25318478  0.51169345  0.07269416  1
  Br  Br16  1  0.42459586  0.24286203  0.19316107  1
  Br  Br17  1  0.45161968  0.24734618  0.42768791  1
  Br  Br18  1  0.22711942  0.98349178  0.80733236  1
  Br  Br19  1  0.54838032  0.74734618  0.07231209  1
  Br  Br20  1  0.04838032  0.75265382  0.92768791  1
  Br  Br21  1  0.74681522  0.01169345  0.42730584  1
  Br  Br22  1  0.95161968  0.24734618  0.07231209  1
  Br  Br23  1  0.27288058  0.01650822  0.30733236  1
  Br  Br24  1  0.77288058  0.48349178  0.69266764  1
  Br  Br25  1  0.57540414  0.75713797  0.80683893  1
  Br  Br26  1  0.72711942  0.98349178  0.69266764  1
  Br  Br27  1  0.77288058  0.01650822  0.19266764  1
  Br  Br28  1  0.22711942  0.51650822  0.30733236  1
  Br  Br29  1  0.25318478  0.98830655  0.57269416  1
  Br  Br30  1  0.74681522  0.48830655  0.92730584  1
  Br  Br31  1  0.42459586  0.25713797  0.69316107  1
loop_
_geom_bond_atom_site_label_1
_geom_bond_atom_site_label_2
_geom_bond_distance
_geom_bond_site_symmetry_2
Br0 Tc1 2.540035 1_555
Br0 Tc7 2.653698 1_555
Br1 Tc2 2.406268 1_555
Br2 Tc4 2.404478 1_555
Br3 Tc0 2.539049 1_555
Br3 Tc6 2.647631 1_455
Br4 Tc6 2.406268 1_555
Br5 Tc7 2.406268 1_555
Br6 Tc6 2.404478 1_455
Br7 Tc5 2.406268 1_555
Br8 Tc3 2.539049 1_555
Br8 Tc5 2.647631 1_655
Br9 Tc7 2.404478 1_655
Br10 Tc1 2.539049 1_555
Br10 Tc7 2.647631 1_655
Br11 Tc4 2.539049 1_555
Br11 Tc2 2.647631 1_455
Br12 Tc0 2.540035 1_555
Br12 Tc6 2.653698 1_555
Br13 Tc1 2.404478 1_555
Br14 Tc6 2.539049 1_555
Br14 Tc0 2.647631 1_555
Br15 Tc0 2.406268 1_555
Br16 Tc5 2.539049 1_555
Br16 Tc3 2.647631 1_555
Br17 Tc3 2.404478 1_555
Br18 Tc2 2.540035 1_455
Br18 Tc4 2.653698 1_555
Br19 Tc0 2.404478 1_555
Br20 Tc2 2.404478 1_455
Br21 Tc3 2.406268 1_555
Br22 Tc5 2.404478 1_655
Br23 Tc3 2.540035 1_555
Br23 Tc5 2.653698 1_555
Br24 Tc7 2.540035 1_655
Br24 Tc1 2.653698 1_555
Br25 Tc2 2.539049 1_555
Br25 Tc4 2.647631 1_555
Br26 Tc4 2.540035 1_555
Br26 Tc2 2.653698 1_555
Br27 Tc5 2.540035 1_655
Br27 Tc3 2.653698 1_555
Br28 Tc6 2.540035 1_455
Br28 Tc0 2.653698 1_555
Br29 Tc4 2.406268 1_555
Br30 Tc1 2.406268 1_555
Br31 Tc7 2.539049 1_555
Br31 Tc1 2.647631 1_555
