# generated using pymatgen
data_La2TiZnO6
_symmetry_space_group_name_H-M   'P 1'
_cell_length_a   5.70671000
_cell_length_b   5.60179600
_cell_length_c   9.72664530
_cell_angle_alpha   54.89307433
_cell_angle_beta   90.00000000
_cell_angle_gamma   90.00000000
_symmetry_Int_Tables_number   1
_chemical_formula_structural   La2TiZnO6
_chemical_formula_sum   'La4 Ti2 Zn2 O12'
_cell_volume   254.37361186
_cell_formula_units_Z   2
loop_
 _symmetry_equiv_pos_site_id
 _symmetry_equiv_pos_as_xyz
  1  'x, y, z'
loop_
 _atom_site_type_symbol
 _atom_site_label
 _atom_site_symmetry_multiplicity
 _atom_site_fract_x
 _atom_site_fract_y
 _atom_site_fract_z
 _atom_site_occupancy
  La  La0  1  0.95529700  0.74090900  0.24910500  1
  La  La1  1  0.45529700  0.25909100  0.25089500  1
  La  La2  1  0.04470300  0.25909100  0.75089500  1
  La  La3  1  0.54470300  0.74090900  0.74910500  1
  Ti  Ti0  1  0.50000000  0.50000000  0.50000000  1
  Ti  Ti1  1  0.00000000  0.50000000  0.00000000  1
  Zn  Zn0  1  0.50000000  0.00000000  0.00000000  1
  Zn  Zn1  1  0.00000000  0.00000000  0.50000000  1
  O  O0  1  0.71694600  0.64714300  0.04957000  1
  O  O1  1  0.19806800  0.73571800  0.04608600  1
  O  O2  1  0.47393800  0.17026100  0.73993000  1
  O  O3  1  0.97393800  0.82973900  0.76007000  1
  O  O4  1  0.69806800  0.26428200  0.45391400  1
  O  O5  1  0.21694600  0.35285700  0.45043000  1
  O  O6  1  0.78305400  0.64714300  0.54957000  1
  O  O7  1  0.30193200  0.73571800  0.54608600  1
  O  O8  1  0.28305400  0.35285700  0.95043000  1
  O  O9  1  0.52606200  0.82973900  0.26007000  1
  O  O10  1  0.80193200  0.26428200  0.95391400  1
  O  O11  1  0.02606200  0.17026100  0.23993000  1
loop_
_geom_bond_atom_site_label_1
_geom_bond_atom_site_label_2
_geom_bond_distance
_geom_bond_site_symmetry_2
La0 O11 2.389326 1_665
La0 O1 2.426048 1_655
La0 O5 2.427619 1_655
La0 O9 2.513996 1_555
La0 O0 2.658067 1_555
La0 O4 2.670999 1_555
La0 O10 2.814808 1_564
La0 O6 2.831522 1_555
La1 O9 2.389326 1_545
La1 O4 2.426048 1_555
La1 O0 2.427619 1_555
La1 O11 2.513996 1_555
La1 O5 2.658067 1_555
La1 O1 2.670999 1_555
La1 O7 2.814808 1_545
La1 O8 2.831522 1_554
La2 O3 2.389326 1_445
La2 O10 2.426048 1_455
La2 O6 2.427619 1_455
La2 O2 2.513996 1_555
La2 O8 2.658067 1_555
La2 O7 2.670999 1_555
La2 O1 2.814808 1_546
La2 O5 2.831522 1_555
La3 O2 2.389326 1_565
La3 O7 2.426048 1_555
La3 O8 2.427619 1_555
La3 O3 2.513996 1_555
La3 O6 2.658067 1_555
La3 O10 2.670999 1_555
La3 O4 2.814808 1_565
La3 O0 2.831522 1_556
O0 Ti1 1.994546 1_655
O0 Zn0 2.139187 1_565
O1 Ti1 1.975586 1_555
O1 Zn0 2.144348 1_565
O2 Ti0 1.980419 1_555
O2 Zn0 2.134398 1_556
O3 Ti1 1.980419 1_656
O3 Zn1 2.134398 1_665
O4 Ti0 1.975586 1_555
O4 Zn1 2.144348 1_655
O5 Ti0 1.994546 1_555
O5 Zn1 2.139187 1_555
O6 Ti0 1.994546 1_555
O6 Zn1 2.139187 1_665
O7 Ti0 1.975586 1_555
O7 Zn1 2.144348 1_565
O8 Ti1 1.994546 1_556
O8 Zn0 2.139187 1_556
O9 Ti0 1.980419 1_555
O9 Zn0 2.134398 1_565
O10 Ti1 1.975586 1_656
O10 Zn0 2.144348 1_556
O11 Ti1 1.980419 1_555
O11 Zn1 2.134398 1_555
