# generated using pymatgen
data_SrAl2SiN2O3
_symmetry_space_group_name_H-M   'P 1'
_cell_length_a   4.97959500
_cell_length_b   8.12866400
_cell_length_c   11.43298100
_cell_angle_alpha   90.00000000
_cell_angle_beta   90.00000000
_cell_angle_gamma   90.00000000
_symmetry_Int_Tables_number   1
_chemical_formula_structural   SrAl2SiN2O3
_chemical_formula_sum   'Sr4 Al8 Si4 N8 O12'
_cell_volume   462.77796950
_cell_formula_units_Z   4
loop_
 _symmetry_equiv_pos_site_id
 _symmetry_equiv_pos_as_xyz
  1  'x, y, z'
loop_
 _atom_site_type_symbol
 _atom_site_label
 _atom_site_symmetry_multiplicity
 _atom_site_fract_x
 _atom_site_fract_y
 _atom_site_fract_z
 _atom_site_occupancy
  Sr  Sr0  1  0.51116100  0.04067900  0.16235400  1
  Sr  Sr1  1  0.01116100  0.45932100  0.83764600  1
  Sr  Sr2  1  0.98883900  0.95932100  0.66235400  1
  Sr  Sr3  1  0.48883900  0.54067900  0.33764600  1
  Al  Al0  1  0.49961300  0.66371600  0.66128000  1
  Al  Al1  1  0.99961300  0.83628400  0.33872000  1
  Al  Al2  1  0.98889700  0.52828400  0.54281200  1
  Al  Al3  1  0.50038700  0.16371600  0.83872000  1
  Al  Al4  1  0.00038700  0.33628400  0.16128000  1
  Al  Al5  1  0.48889700  0.97171600  0.45718800  1
  Al  Al6  1  0.51110300  0.47171600  0.04281200  1
  Al  Al7  1  0.01110300  0.02828400  0.95718800  1
  Si  Si0  1  0.99424100  0.70168100  0.07456700  1
  Si  Si1  1  0.50575900  0.29831900  0.57456700  1
  Si  Si2  1  0.49424100  0.79831900  0.92543300  1
  Si  Si3  1  0.00575900  0.20168100  0.42543300  1
  N  N0  1  0.29415500  0.15738700  0.50666000  1
  N  N1  1  0.20584500  0.84261300  0.00666000  1
  N  N2  1  0.33546200  0.48181400  0.59361000  1
  N  N3  1  0.70584500  0.65738700  0.99334000  1
  N  N4  1  0.83546200  0.01818600  0.40639000  1
  N  N5  1  0.16453800  0.51818600  0.09361000  1
  N  N6  1  0.79415500  0.34261300  0.49334000  1
  N  N7  1  0.66453800  0.98181400  0.90639000  1
  O  O0  1  0.64865100  0.36886700  0.16785700  1
  O  O1  1  0.14865100  0.13113300  0.83214300  1
  O  O2  1  0.35134900  0.86886700  0.33214300  1
  O  O3  1  0.12539700  0.29131000  0.30379300  1
  O  O4  1  0.87460300  0.79131000  0.19620700  1
  O  O5  1  0.04385200  0.15215100  0.08333300  1
  O  O6  1  0.54385200  0.34784900  0.91666700  1
  O  O7  1  0.37460300  0.70869000  0.80379300  1
  O  O8  1  0.95614800  0.65215100  0.41666700  1
  O  O9  1  0.85134900  0.63113300  0.66785700  1
  O  O10  1  0.45614800  0.84784900  0.58333300  1
  O  O11  1  0.62539700  0.20869000  0.69620700  1
loop_
_geom_bond_atom_site_label_1
_geom_bond_atom_site_label_2
_geom_bond_distance
_geom_bond_site_symmetry_2
Al0 O10 1.755363 1_555
Al0 O9 1.773010 1_555
Al0 O7 1.782114 1_555
Al0 N2 1.858234 1_555
Al1 O8 1.755363 1_555
Al1 O2 1.773010 1_655
Al1 O4 1.782114 1_555
Al1 N4 1.858234 1_565
Al2 O8 1.766456 1_555
Al2 O9 1.792187 1_555
Al2 N2 1.859626 1_655
Al2 N6 1.881001 1_555
Al3 O6 1.755363 1_555
Al3 O1 1.773010 1_555
Al3 O11 1.782114 1_555
Al3 N7 1.858234 1_545
Al4 O5 1.755363 1_555
Al4 O0 1.773010 1_455
Al4 O3 1.782114 1_555
Al4 N5 1.858234 1_555
Al5 O10 1.766456 1_555
Al5 O2 1.792187 1_555
Al5 N4 1.859626 1_565
Al5 N0 1.881001 1_565
Al6 O6 1.766456 1_554
Al6 O0 1.792187 1_555
Al6 N5 1.859626 1_555
Al6 N3 1.881001 1_554
Al7 O5 1.766456 1_556
Al7 O1 1.792187 1_555
Al7 N7 1.859626 1_445
Al7 N1 1.881001 1_546
N0 Si1 1.739376 1_555
N0 Si3 1.747692 1_555
N0 Sr2 2.841156 1_445
N1 Si0 1.739376 1_455
N1 Si2 1.747692 1_554
N1 Sr0 2.841156 1_565
N2 Si1 1.729538 1_555
N2 Sr3 3.062071 1_555
N2 Sr1 3.228888 1_555
N3 Si2 1.739376 1_555
N3 Si0 1.747692 1_556
N3 Sr1 2.841156 1_655
N4 Si3 1.729538 1_655
N4 Sr2 3.062071 1_545
N4 Sr0 3.228888 1_555
N5 Si0 1.729538 1_455
N5 Sr1 3.062071 1_554
N5 Sr3 3.228888 1_555
N6 Si3 1.739376 1_655
N6 Si1 1.747692 1_555
N6 Sr3 2.841156 1_555
N7 Si2 1.729538 1_555
N7 Sr0 3.062071 1_566
N7 Sr2 3.228888 1_555
O0 Sr3 2.520323 1_555
O0 Sr0 2.754901 1_555
O1 Sr2 2.520323 1_445
O1 Sr1 2.754901 1_555
O2 Sr0 2.520323 1_565
O2 Sr3 2.754901 1_555
O3 Si3 1.679223 1_555
O3 Sr3 2.744819 1_555
O3 Sr0 3.233501 1_555
O4 Si0 1.679223 1_555
O4 Sr0 2.744819 1_565
O4 Sr3 3.233501 1_555
O5 Sr0 2.655605 1_555
O5 Sr0 2.945076 1_455
O6 Sr1 2.655605 1_655
O6 Sr1 2.945076 1_555
O7 Si2 1.679223 1_555
O7 Sr1 2.744819 1_555
O7 Sr2 3.233501 1_455
O8 Sr3 2.655605 1_555
O8 Sr3 2.945076 1_655
O9 Sr1 2.520323 1_655
O9 Sr2 2.754901 1_555
O10 Sr2 2.655605 1_455
O10 Sr2 2.945076 1_555
O11 Si1 1.679223 1_555
O11 Sr2 2.744819 1_545
O11 Sr1 3.233501 1_655
