# generated using pymatgen
data_P3IrO9
_symmetry_space_group_name_H-M   'P 1'
_cell_length_a   9.33263976
_cell_length_b   10.51496354
_cell_length_c   11.62460220
_cell_angle_alpha   113.40638887
_cell_angle_beta   109.84187317
_cell_angle_gamma   97.87824592
_symmetry_Int_Tables_number   1
_chemical_formula_structural   P3IrO9
_chemical_formula_sum   'P18 Ir6 O54'
_cell_volume   934.60136425
_cell_formula_units_Z   6
loop_
 _symmetry_equiv_pos_site_id
 _symmetry_equiv_pos_as_xyz
  1  'x, y, z'
loop_
 _atom_site_type_symbol
 _atom_site_label
 _atom_site_symmetry_multiplicity
 _atom_site_fract_x
 _atom_site_fract_y
 _atom_site_fract_z
 _atom_site_occupancy
  P  P0  1  0.17571453  0.78351411  0.39276117  1
  P  P1  1  0.91101831  0.16261758  0.60672232  1
  P  P2  1  0.61356712  0.72086784  0.27496850  1
  P  P3  1  0.24097197  0.49818275  0.27113974  1
  P  P4  1  0.09387649  0.79849064  0.62684208  1
  P  P5  1  0.46983223  0.22704401  0.72886026  1
  P  P6  1  0.56596767  0.85463449  0.94889988  1
  P  P7  1  0.44182128  0.10516175  0.29061378  1
  P  P8  1  0.93428671  0.07034805  0.93562172  1
  P  P9  1  0.96703341  0.17164756  0.37315792  1
  P  P10  1  0.83859863  0.44589934  0.72503150  1
  P  P11  1  0.80429499  0.55589526  0.39327768  1
  P  P12  1  0.75872111  0.48131657  0.96244151  1
  P  P13  1  0.65120750  0.81454697  0.70938622  1
  P  P14  1  0.29627961  0.51887406  0.03755849  1
  P  P15  1  0.28295436  0.39075294  0.60723883  1
  P  P16  1  0.11706779  0.90573461  0.05110012  1
  P  P17  1  0.49866599  0.13472733  0.06437828  1
  Ir  Ir0  1  0.53929746  0.45946409  0.48878219  1
  Ir  Ir1  1  0.87145217  0.82603344  0.17633525  1
  Ir  Ir2  1  0.20443240  0.15485161  0.83945619  1
  Ir  Ir3  1  0.55051527  0.97068290  0.51121781  1
  Ir  Ir4  1  0.19511792  0.64969919  0.82366475  1
  Ir  Ir5  1  0.86497521  0.31539642  0.16054381  1
  O  O0  1  0.85114264  0.41482621  0.04011341  1
  O  O1  1  0.19447628  0.58532988  0.96455497  1
  O  O2  1  0.51321062  0.99343217  0.95552101  1
  O  O3  1  0.33133484  0.14019228  0.01199473  1
  O  O4  1  0.79316349  0.03384849  0.58345959  1
  O  O5  1  0.43674954  0.74462508  0.93781359  1
  O  O6  1  0.31103023  0.37471381  0.95988659  1
  O  O7  1  0.81934011  0.12819755  0.98800527  1
  O  O8  1  0.72992130  0.62077591  0.03544503  1
  O  O9  1  0.90849665  0.70808732  0.52792747  1
  O  O10  1  0.10860058  0.36740866  0.22614980  1
  O  O11  1  0.05768861  0.03791016  0.04447899  1
  O  O12  1  0.27234335  0.98521339  0.19338950  1
  O  O13  1  0.01528102  0.74004680  0.27796507  1
  O  O14  1  0.09353039  0.93631864  0.73129842  1
  O  O15  1  0.02304574  0.16546114  0.89885246  1
  O  O16  1  0.57398635  0.16198349  0.66681281  1
  O  O17  1  0.68585853  0.59935105  0.29302758  1
  O  O18  1  0.86223198  0.20502022  0.26870158  1
  O  O19  1  0.89283095  0.30632346  0.70697242  1
  O  O20  1  0.18387327  0.70743027  0.67272282  1
  O  O21  1  -0.00106405  0.80681049  0.06218641  1
  O  O22  1  0.91728440  0.50155291  0.33597088  1
  O  O23  1  0.53952310  0.77436944  0.37232750  1
  O  O24  1  0.54469444  0.05383002  0.37950580  1
  O  O25  1  0.38245078  0.14125886  0.77385020  1
  O  O26  1  0.34961716  0.26635389  0.62451997  1
  O  O27  1  0.84931611  0.50200703  0.87547020  1
  O  O28  1  0.95266489  0.55442593  0.71938765  1
  O  O29  1  0.58055082  0.38140132  0.85516925  1
  O  O30  1  0.22538057  0.52623107  0.14483075  1
  O  O31  1  0.73327824  0.83503928  0.28061235  1
  O  O32  1  0.08131352  0.16558103  0.66402912  1
  O  O33  1  0.83350705  0.91235462  0.80915083  1
  O  O34  1  0.01115145  0.03470845  0.32727718  1
  O  O35  1  0.47384591  0.62653683  0.12452980  1
  O  O36  1  0.62419328  0.26660968  0.10114754  1
  O  O37  1  0.23731795  0.46208273  0.72203493  1
  O  O38  1  0.57895284  0.79182389  0.80661050  1
  O  O39  1  0.66518964  0.67432422  0.62049420  1
  O  O40  1  0.16248944  0.83522953  0.53434121  1
  O  O41  1  0.66719560  0.40204094  0.62767250  1
  O  O42  1  0.40969517  0.24548733  0.35337933  1
  O  O43  1  0.12814823  0.30088832  0.46565879  1
  O  O44  1  0.39023708  0.48701016  0.58457642  1
  O  O45  1  0.72613233  0.90475554  0.06622842  1
  O  O46  1  0.30566067  0.90243374  0.41542358  1
  O  O47  1  0.52435722  0.10320279  0.19084917  1
  O  O48  1  0.70970390  0.45038790  0.41654041  1
  O  O49  1  0.40717354  0.49517068  0.33318719  1
  O  O50  1  0.15990290  0.83852812  0.93377158  1
  O  O51  1  0.55631685  0.89210800  0.64662067  1
  O  O52  1  0.88056818  0.18015885  0.47207253  1
  O  O53  1  0.22509619  0.64183292  0.37548003  1
loop_
_geom_bond_atom_site_label_1
_geom_bond_atom_site_label_2
_geom_bond_distance
_geom_bond_site_symmetry_2
Ir0 O41 2.014926 1_555
Ir0 O49 2.021224 1_555
Ir0 O48 2.031771 1_555
Ir0 O39 2.032666 1_555
Ir0 O42 2.037315 1_555
Ir0 O44 2.040830 1_555
Ir1 O8 2.006669 1_555
Ir1 O13 2.029732 1_655
Ir1 O45 2.033197 1_555
Ir1 O21 2.035116 1_655
Ir1 O31 2.035840 1_555
Ir1 O34 2.048672 1_665
Ir2 O14 2.025205 1_545
Ir2 O32 2.029599 1_555
Ir2 O3 2.032814 1_556
Ir2 O15 2.034412 1_555
Ir2 O6 2.036386 1_555
Ir2 O25 2.049602 1_555
Ir3 O23 2.014926 1_555
Ir3 O16 2.021217 1_565
Ir3 O4 2.031771 1_565
Ir3 O24 2.032656 1_565
Ir3 O51 2.037321 1_555
Ir3 O46 2.040829 1_555
Ir4 O1 2.006685 1_555
Ir4 O37 2.029737 1_555
Ir4 O50 2.033206 1_555
Ir4 O5 2.035108 1_555
Ir4 O28 2.035857 1_455
Ir4 O20 2.048655 1_555
Ir5 O18 2.025212 1_555
Ir5 O22 2.029597 1_555
Ir5 O7 2.032823 1_554
Ir5 O36 2.034403 1_555
Ir5 O0 2.036369 1_555
Ir5 O10 2.049611 1_655
O0 P12 1.478573 1_554
O1 P14 1.488946 1_556
O2 P17 1.582798 1_566
O2 P6 1.584871 1_555
O3 P17 1.489861 1_555
O4 P1 1.488335 1_555
O5 P6 1.484122 1_555
O6 P14 1.478561 1_556
O7 P8 1.489856 1_555
O8 P12 1.488946 1_554
O9 P11 1.583223 1_555
O9 P4 1.596632 1_655
O10 P3 1.488244 1_555
O11 P8 1.582798 1_454
O11 P16 1.584865 1_545
O12 P7 1.573811 1_565
O12 P16 1.573813 1_555
O13 P0 1.484228 1_555
O14 P4 1.476682 1_555
O15 P8 1.490626 1_455
O16 P5 1.483004 1_555
O17 P11 1.573438 1_555
O17 P2 1.576442 1_555
O18 P9 1.476685 1_555
O19 P1 1.573443 1_555
O19 P10 1.576442 1_555
O20 P4 1.492916 1_555
O21 P16 1.484128 1_555
O22 P11 1.490589 1_555
O23 P2 1.485433 1_555
O24 P7 1.480734 1_555
O25 P5 1.488251 1_555
O26 P15 1.576525 1_555
O26 P5 1.581897 1_555
O27 P10 1.568981 1_555
O27 P12 1.577634 1_555
O28 P10 1.487835 1_555
O29 P5 1.573156 1_555
O29 P12 1.579967 1_555
O30 P3 1.573154 1_555
O30 P14 1.579973 1_555
O31 P2 1.487848 1_555
O32 P1 1.490584 1_455
O33 P8 1.580638 1_565
O33 P13 1.590754 1_555
O34 P9 1.492908 1_455
O35 P2 1.568981 1_555
O35 P14 1.577637 1_555
O36 P17 1.490621 1_555
O37 P15 1.484224 1_555
O38 P6 1.573808 1_555
O38 P13 1.573813 1_555
O39 P13 1.480730 1_555
O40 P4 1.563696 1_555
O40 P0 1.569993 1_555
O41 P10 1.485431 1_555
O42 P7 1.487898 1_555
O43 P9 1.563707 1_455
O43 P15 1.569997 1_555
O44 P15 1.486402 1_555
O45 P6 1.483663 1_554
O46 P0 1.486408 1_555
O47 P17 1.580651 1_555
O47 P7 1.590757 1_555
O48 P11 1.488337 1_555
O49 P3 1.483000 1_555
O50 P16 1.483655 1_556
O51 P13 1.487902 1_555
O52 P1 1.583215 1_555
O52 P9 1.596632 1_555
O53 P0 1.576535 1_555
O53 P3 1.581901 1_555
