# generated using pymatgen
data_NiCN2
_symmetry_space_group_name_H-M   'P 1'
_cell_length_a   3.13022133
_cell_length_b   3.13022133
_cell_length_c   9.28973600
_cell_angle_alpha   90.00000000
_cell_angle_beta   90.00000000
_cell_angle_gamma   119.99998588
_symmetry_Int_Tables_number   1
_chemical_formula_structural   NiCN2
_chemical_formula_sum   'Ni2 C2 N4'
_cell_volume   78.82866274
_cell_formula_units_Z   2
loop_
 _symmetry_equiv_pos_site_id
 _symmetry_equiv_pos_as_xyz
  1  'x, y, z'
loop_
 _atom_site_type_symbol
 _atom_site_label
 _atom_site_symmetry_multiplicity
 _atom_site_fract_x
 _atom_site_fract_y
 _atom_site_fract_z
 _atom_site_occupancy
  Ni  Ni0  1  0.00000000  0.00000000  0.50000000  1
  Ni  Ni1  1  0.00000000  0.00000000  0.00000000  1
  C  C0  1  0.66666700  0.33333300  0.25000000  1
  C  C1  1  0.33333300  0.66666700  0.75000000  1
  N  N0  1  0.66666700  0.33333300  0.38329900  1
  N  N1  1  0.33333300  0.66666700  0.61670100  1
  N  N2  1  0.33333300  0.66666700  0.88329900  1
  N  N3  1  0.66666700  0.33333300  0.11670100  1
loop_
_geom_bond_atom_site_label_1
_geom_bond_atom_site_label_2
_geom_bond_distance
_geom_bond_site_symmetry_2
C0 N3 1.238313 1_555
C0 N0 1.238313 1_555
C1 N2 1.238313 1_555
C1 N1 1.238313 1_555
N0 Ni0 2.107465 1_655
N0 Ni0 2.107467 1_555
N0 Ni0 2.107467 1_665
N1 Ni0 2.107465 1_565
N1 Ni0 2.107467 1_555
N1 Ni0 2.107467 1_665
N2 Ni1 2.107465 1_566
N2 Ni1 2.107467 1_666
N2 Ni1 2.107467 1_556
N3 Ni1 2.107465 1_655
N3 Ni1 2.107467 1_555
N3 Ni1 2.107467 1_665
