# generated using pymatgen
data_Tb(BO2)3
_symmetry_space_group_name_H-M   'P 1'
_cell_length_a   6.16315900
_cell_length_b   7.81389300
_cell_length_c   8.34097300
_cell_angle_alpha   90.00000000
_cell_angle_beta   90.00000000
_cell_angle_gamma   90.00000000
_symmetry_Int_Tables_number   1
_chemical_formula_structural   Tb(BO2)3
_chemical_formula_sum   'Tb4 B12 O24'
_cell_volume   401.68678782
_cell_formula_units_Z   4
loop_
 _symmetry_equiv_pos_site_id
 _symmetry_equiv_pos_as_xyz
  1  'x, y, z'
loop_
 _atom_site_type_symbol
 _atom_site_label
 _atom_site_symmetry_multiplicity
 _atom_site_fract_x
 _atom_site_fract_y
 _atom_site_fract_z
 _atom_site_occupancy
  Tb  Tb0  1  0.49144500  0.25000000  0.00000000  1
  Tb  Tb1  1  0.50855500  0.75000000  0.00000000  1
  Tb  Tb2  1  0.00855500  0.75000000  0.50000000  1
  Tb  Tb3  1  0.99144500  0.25000000  0.50000000  1
  B  B0  1  0.88338900  0.49362700  0.18449300  1
  B  B1  1  0.01128700  0.75000000  0.00000000  1
  B  B2  1  0.51128700  0.75000000  0.50000000  1
  B  B3  1  0.61661100  0.99362700  0.31550700  1
  B  B4  1  0.61661100  0.50637300  0.68449300  1
  B  B5  1  0.88338900  0.00637300  0.81550700  1
  B  B6  1  0.38338900  0.49362700  0.31550700  1
  B  B7  1  0.38338900  0.00637300  0.68449300  1
  B  B8  1  0.98871300  0.25000000  0.00000000  1
  B  B9  1  0.48871300  0.25000000  0.50000000  1
  B  B10  1  0.11661100  0.99362700  0.18449300  1
  B  B11  1  0.11661100  0.50637300  0.81550700  1
  O  O0  1  0.94154200  0.99249600  0.66261900  1
  O  O1  1  0.85839600  0.86582700  0.92034800  1
  O  O2  1  0.35839600  0.63417300  0.42034800  1
  O  O3  1  0.15968200  0.83260300  0.11704900  1
  O  O4  1  0.64160400  0.36582700  0.57965200  1
  O  O5  1  0.65968200  0.83260300  0.38295100  1
  O  O6  1  0.15968200  0.66739700  0.88295100  1
  O  O7  1  0.84031800  0.16739700  0.88295100  1
  O  O8  1  0.34031800  0.16739700  0.61704900  1
  O  O9  1  0.34031800  0.33260300  0.38295100  1
  O  O10  1  0.14160400  0.13417300  0.07965200  1
  O  O11  1  0.35839600  0.86582700  0.57965200  1
  O  O12  1  0.94154200  0.50750400  0.33738100  1
  O  O13  1  0.05845800  0.00750400  0.33738100  1
  O  O14  1  0.44154200  0.50750400  0.16261900  1
  O  O15  1  0.55845800  0.49249600  0.83738100  1
  O  O16  1  0.84031800  0.33260300  0.11704900  1
  O  O17  1  0.44154200  0.99249600  0.83738100  1
  O  O18  1  0.05845800  0.49249600  0.66261900  1
  O  O19  1  0.65968200  0.66739700  0.61704900  1
  O  O20  1  0.14160400  0.36582700  0.92034800  1
  O  O21  1  0.85839600  0.63417300  0.07965200  1
  O  O22  1  0.64160400  0.13417300  0.42034800  1
  O  O23  1  0.55845800  0.00750400  0.16261900  1
loop_
_geom_bond_atom_site_label_1
_geom_bond_atom_site_label_2
_geom_bond_distance
_geom_bond_site_symmetry_2
B0 O12 1.329073 1_555
B0 O16 1.403586 1_555
B0 O21 1.412269 1_555
B1 O21 1.465756 1_455
B1 O1 1.465756 1_454
B1 O3 1.485340 1_555
B1 O6 1.485340 1_554
B2 O11 1.465756 1_555
B2 O2 1.465756 1_555
B2 O19 1.485340 1_555
B2 O5 1.485340 1_555
B3 O23 1.329073 1_565
B3 O5 1.403586 1_555
B3 O22 1.412269 1_565
B4 O15 1.329073 1_555
B4 O19 1.403586 1_555
B4 O4 1.412269 1_555
B5 O0 1.329073 1_545
B5 O7 1.403586 1_555
B5 O1 1.412269 1_545
B6 O14 1.329073 1_555
B6 O9 1.403586 1_555
B6 O2 1.412269 1_555
B7 O17 1.329073 1_545
B7 O8 1.403586 1_555
B7 O11 1.412269 1_545
B8 O20 1.465756 1_654
B8 O10 1.465756 1_655
B8 O16 1.485340 1_555
B8 O7 1.485340 1_554
B9 O4 1.465756 1_555
B9 O22 1.465756 1_555
B9 O8 1.485340 1_555
B9 O9 1.485340 1_555
B10 O13 1.329073 1_565
B10 O3 1.403586 1_555
B10 O10 1.412269 1_565
B11 O18 1.329073 1_555
B11 O6 1.403586 1_555
B11 O20 1.412269 1_555
O0 Tb2 2.366603 1_655
O0 Tb3 2.446017 1_565
O1 Tb1 2.430927 1_556
O2 Tb2 2.430927 1_555
O3 Tb1 2.448052 1_555
O4 Tb3 2.430927 1_555
O5 Tb2 2.448052 1_655
O6 Tb1 2.448052 1_556
O7 Tb0 2.448052 1_556
O8 Tb3 2.448052 1_455
O9 Tb3 2.448052 1_455
O10 Tb0 2.430927 1_555
O11 Tb2 2.430927 1_555
O12 Tb2 2.366603 1_655
O12 Tb3 2.446017 1_555
O13 Tb3 2.366603 1_455
O13 Tb2 2.446017 1_545
O14 Tb1 2.366603 1_555
O14 Tb0 2.446017 1_555
O15 Tb0 2.366603 1_556
O15 Tb1 2.446017 1_556
O16 Tb0 2.448052 1_555
O17 Tb1 2.366603 1_556
O17 Tb0 2.446017 1_566
O18 Tb3 2.366603 1_455
O18 Tb2 2.446017 1_555
O19 Tb2 2.448052 1_655
O20 Tb0 2.430927 1_556
O21 Tb1 2.430927 1_555
O22 Tb3 2.430927 1_555
O23 Tb0 2.366603 1_555
O23 Tb1 2.446017 1_545
