# generated using pymatgen
data_CaTeCO5
_symmetry_space_group_name_H-M   'P 1'
_cell_length_a   7.12891100
_cell_length_b   10.70511300
_cell_length_c   11.25697400
_cell_angle_alpha   90.00000000
_cell_angle_beta   90.00000000
_cell_angle_gamma   90.00000000
_symmetry_Int_Tables_number   1
_chemical_formula_structural   CaTeCO5
_chemical_formula_sum   'Ca8 Te8 C8 O40'
_cell_volume   859.08495187
_cell_formula_units_Z   8
loop_
 _symmetry_equiv_pos_site_id
 _symmetry_equiv_pos_as_xyz
  1  'x, y, z'
loop_
 _atom_site_type_symbol
 _atom_site_label
 _atom_site_symmetry_multiplicity
 _atom_site_fract_x
 _atom_site_fract_y
 _atom_site_fract_z
 _atom_site_occupancy
  Ca  Ca0  1  0.01544000  0.49003700  0.17207600  1
  Ca  Ca1  1  0.01544000  0.99003700  0.32792400  1
  Ca  Ca2  1  0.51544000  0.00996300  0.17207600  1
  Ca  Ca3  1  0.51544000  0.50996300  0.32792400  1
  Ca  Ca4  1  0.48456000  0.99003700  0.82792400  1
  Ca  Ca5  1  0.48456000  0.49003700  0.67207600  1
  Ca  Ca6  1  0.98456000  0.50996300  0.82792400  1
  Ca  Ca7  1  0.98456000  0.00996300  0.67207600  1
  Te  Te0  1  0.40349200  0.63188000  0.01632800  1
  Te  Te1  1  0.09650800  0.13188000  0.98367200  1
  Te  Te2  1  0.40349200  0.13188000  0.48367200  1
  Te  Te3  1  0.59650800  0.36812000  0.98367200  1
  Te  Te4  1  0.90349200  0.36812000  0.48367200  1
  Te  Te5  1  0.90349200  0.86812000  0.01632800  1
  Te  Te6  1  0.09650800  0.63188000  0.51632800  1
  Te  Te7  1  0.59650800  0.86812000  0.51632800  1
  C  C0  1  0.26345900  0.25642200  0.73953500  1
  C  C1  1  0.73654100  0.24357800  0.23953500  1
  C  C2  1  0.23654100  0.25642200  0.23953500  1
  C  C3  1  0.76345900  0.24357800  0.73953500  1
  C  C4  1  0.73654100  0.74357800  0.26046500  1
  C  C5  1  0.76345900  0.74357800  0.76046500  1
  C  C6  1  0.23654100  0.75642200  0.26046500  1
  C  C7  1  0.26345900  0.75642200  0.76046500  1
  O  O0  1  0.01886400  0.47419900  0.60924800  1
  O  O1  1  0.35559400  0.27516100  0.64051500  1
  O  O2  1  0.51886400  0.52580100  0.89075200  1
  O  O3  1  0.64440600  0.22483900  0.14051500  1
  O  O4  1  0.72556000  0.64970900  0.69436300  1
  O  O5  1  0.15647300  0.57836200  0.99780000  1
  O  O6  1  0.22556000  0.85029100  0.69436300  1
  O  O7  1  0.98113600  0.02580100  0.10924800  1
  O  O8  1  0.72556000  0.14970900  0.80563700  1
  O  O9  1  0.35559400  0.77516100  0.85948500  1
  O  O10  1  0.78129600  0.85744000  0.22929700  1
  O  O11  1  0.85559400  0.72483900  0.85948500  1
  O  O12  1  0.34352700  0.57836200  0.49780000  1
  O  O13  1  0.22556000  0.35029100  0.80563700  1
  O  O14  1  0.85559400  0.22483900  0.64051500  1
  O  O15  1  0.14440600  0.27516100  0.14051500  1
  O  O16  1  0.64440600  0.72483900  0.35948500  1
  O  O17  1  0.77444000  0.14970900  0.30563700  1
  O  O18  1  0.01886400  0.97419900  0.89075200  1
  O  O19  1  0.78129600  0.35744000  0.27070300  1
  O  O20  1  0.28129600  0.14256000  0.27070300  1
  O  O21  1  0.84352700  0.42163800  0.00220000  1
  O  O22  1  0.21870400  0.64256000  0.72929700  1
  O  O23  1  0.71870400  0.35744000  0.77070300  1
  O  O24  1  0.65647300  0.92163800  0.99780000  1
  O  O25  1  0.27444000  0.35029100  0.30563700  1
  O  O26  1  0.77444000  0.64970900  0.19436300  1
  O  O27  1  0.48113600  0.47419900  0.10924800  1
  O  O28  1  0.27444000  0.85029100  0.19436300  1
  O  O29  1  0.65647300  0.42163800  0.50220000  1
  O  O30  1  0.21870400  0.14256000  0.77070300  1
  O  O31  1  0.15647300  0.07836200  0.50220000  1
  O  O32  1  0.98113600  0.52580100  0.39075200  1
  O  O33  1  0.34352700  0.07836200  0.00220000  1
  O  O34  1  0.28129600  0.64256000  0.22929700  1
  O  O35  1  0.84352700  0.92163800  0.49780000  1
  O  O36  1  0.71870400  0.85744000  0.72929700  1
  O  O37  1  0.48113600  0.97419900  0.39075200  1
  O  O38  1  0.51886400  0.02580100  0.60924800  1
  O  O39  1  0.14440600  0.77516100  0.35948500  1
loop_
_geom_bond_atom_site_label_1
_geom_bond_atom_site_label_2
_geom_bond_distance
_geom_bond_site_symmetry_2
Ca0 O21 2.386415 1_455
Ca0 O5 2.398670 1_554
Ca0 O26 2.436479 1_455
Ca0 O19 2.456363 1_455
Ca0 O15 2.502548 1_555
Ca0 O32 2.503199 1_455
Ca0 O34 2.583194 1_555
Ca0 O25 2.812054 1_555
Ca1 O35 2.386415 1_455
Ca1 O31 2.398670 1_565
Ca1 O17 2.436479 1_465
Ca1 O10 2.456363 1_455
Ca1 O39 2.502548 1_555
Ca1 O7 2.503199 1_465
Ca1 O20 2.583194 1_565
Ca1 O28 2.812054 1_555
Ca2 O33 2.386415 1_555
Ca2 O24 2.398670 1_544
Ca2 O28 2.436479 1_545
Ca2 O20 2.456363 1_555
Ca2 O3 2.502548 1_555
Ca2 O37 2.503199 1_545
Ca2 O10 2.583194 1_545
Ca2 O17 2.812054 1_555
Ca3 O12 2.386415 1_555
Ca3 O29 2.398670 1_555
Ca3 O25 2.436479 1_555
Ca3 O34 2.456363 1_555
Ca3 O16 2.502548 1_555
Ca3 O27 2.503199 1_555
Ca3 O19 2.583194 1_555
Ca3 O26 2.812054 1_555
Ca4 O24 2.386415 1_555
Ca4 O33 2.398670 1_566
Ca4 O8 2.436479 1_565
Ca4 O36 2.456363 1_555
Ca4 O9 2.502548 1_555
Ca4 O38 2.503199 1_565
Ca4 O30 2.583194 1_565
Ca4 O6 2.812054 1_555
Ca5 O29 2.386415 1_555
Ca5 O12 2.398670 1_555
Ca5 O4 2.436479 1_555
Ca5 O23 2.456363 1_555
Ca5 O1 2.502548 1_555
Ca5 O2 2.503199 1_555
Ca5 O22 2.583194 1_555
Ca5 O13 2.812054 1_555
Ca6 O5 2.386415 1_655
Ca6 O21 2.398670 1_556
Ca6 O13 2.436479 1_655
Ca6 O22 2.456363 1_655
Ca6 O11 2.502548 1_555
Ca6 O0 2.503199 1_655
Ca6 O23 2.583194 1_555
Ca6 O4 2.812054 1_555
Ca7 O31 2.386415 1_655
Ca7 O35 2.398670 1_545
Ca7 O6 2.436479 1_645
Ca7 O30 2.456363 1_655
Ca7 O14 2.502548 1_555
Ca7 O18 2.503199 1_645
Ca7 O36 2.583194 1_545
Ca7 O8 2.812054 1_555
C0 O13 1.279248 1_555
C0 O30 1.307910 1_555
C0 O1 1.309250 1_555
C1 O17 1.279248 1_555
C1 O19 1.307910 1_555
C1 O3 1.309250 1_555
C2 O25 1.279248 1_555
C2 O20 1.307910 1_555
C2 O15 1.309250 1_555
C3 O8 1.279248 1_555
C3 O23 1.307910 1_555
C3 O14 1.309250 1_555
C4 O26 1.279248 1_555
C4 O10 1.307910 1_555
C4 O16 1.309250 1_555
C5 O4 1.279248 1_555
C5 O36 1.307910 1_555
C5 O11 1.309250 1_555
C6 O28 1.279248 1_555
C6 O34 1.307910 1_555
C6 O39 1.309250 1_555
C7 O6 1.279248 1_555
C7 O22 1.307910 1_555
C7 O9 1.309250 1_555
O0 Te4 1.991057 1_455
O0 Te6 2.061508 1_555
O1 Te2 2.363583 1_555
O2 Te0 1.991057 1_556
O2 Te3 2.061508 1_555
O3 Te3 2.363583 1_554
O5 Te0 1.863538 1_556
O7 Te1 1.991057 1_654
O7 Te5 2.061508 1_545
O9 Te0 2.363583 1_556
O10 Te5 2.553310 1_555
O11 Te5 2.363583 1_556
O12 Te6 1.863538 1_555
O14 Te4 2.363583 1_555
O15 Te1 2.363583 1_554
O16 Te7 2.363583 1_555
O18 Te5 1.991057 1_456
O18 Te1 2.061508 1_565
O19 Te4 2.553310 1_555
O20 Te2 2.553310 1_555
O21 Te3 1.863538 1_554
O22 Te6 2.553310 1_555
O23 Te3 2.553310 1_555
O24 Te5 1.863538 1_556
O27 Te3 1.991057 1_554
O27 Te0 2.061508 1_555
O29 Te4 1.863538 1_555
O30 Te1 2.553310 1_555
O31 Te2 1.863538 1_555
O32 Te6 1.991057 1_655
O32 Te4 2.061508 1_555
O33 Te1 1.863538 1_554
O34 Te0 2.553310 1_555
O35 Te7 1.863538 1_555
O36 Te7 2.553310 1_555
O37 Te7 1.991057 1_555
O37 Te2 2.061508 1_565
O38 Te2 1.991057 1_555
O38 Te7 2.061508 1_545
O39 Te6 2.363583 1_555
