# generated using pymatgen
data_Cs3Cr2I9
_symmetry_space_group_name_H-M   'P 1'
_cell_length_a   10.74263722
_cell_length_b   10.74364608
_cell_length_c   10.74289192
_cell_angle_alpha   81.24073131
_cell_angle_beta   81.24385805
_cell_angle_gamma   81.23945610
_symmetry_Int_Tables_number   1
_chemical_formula_structural   Cs3Cr2I9
_chemical_formula_sum   'Cs6 Cr4 I18'
_cell_volume   1200.52052778
_cell_formula_units_Z   2
loop_
 _symmetry_equiv_pos_site_id
 _symmetry_equiv_pos_as_xyz
  1  'x, y, z'
loop_
 _atom_site_type_symbol
 _atom_site_label
 _atom_site_symmetry_multiplicity
 _atom_site_fract_x
 _atom_site_fract_y
 _atom_site_fract_z
 _atom_site_occupancy
  Cs  Cs0  1  0.58928451  0.91072152  0.24999190  1
  Cs  Cs1  1  0.91065743  0.24996028  0.58931595  1
  Cs  Cs2  1  0.25000351  0.58927637  0.91070120  1
  Cs  Cs3  1  0.41065419  0.08931109  0.74993372  1
  Cs  Cs4  1  0.08927309  0.75000990  0.41069183  1
  Cs  Cs5  1  0.74997562  0.41071284  0.08926432  1
  Cr  Cr0  1  0.83451537  0.83445651  0.83448133  1
  Cr  Cr1  1  0.66552841  0.66550845  0.66535891  1
  Cr  Cr2  1  0.16550986  0.16549942  0.16554112  1
  Cr  Cr3  1  0.33449069  0.33459450  0.33465076  1
  I  I0  1  0.09554384  0.40454988  0.25004174  1
  I  I1  1  0.40451355  0.25002043  0.09558090  1
  I  I2  1  0.25001750  0.09556512  0.40458914  1
  I  I3  1  0.90459974  0.59551492  0.75005395  1
  I  I4  1  0.59544220  0.75000899  0.90438047  1
  I  I5  1  0.74998672  0.90451711  0.59545112  1
  I  I6  1  0.26158452  0.93527098  0.09495979  1
  I  I7  1  0.93525272  0.09504804  0.26170900  1
  I  I8  1  0.09496147  0.26160805  0.93527984  1
  I  I9  1  0.56473672  0.23827101  0.40496116  1
  I  I10  1  0.23844239  0.40509723  0.56481889  1
  I  I11  1  0.40509948  0.56467519  0.23854084  1
  I  I12  1  0.73827706  0.06472336  0.90492800  1
  I  I13  1  0.06477762  0.90497279  0.73831067  1
  I  I14  1  0.90496065  0.73832619  0.06477778  1
  I  I15  1  0.43528934  0.76154644  0.59487361  1
  I  I16  1  0.76165866  0.59493781  0.43520141  1
  I  I17  1  0.59496312  0.43529560  0.76161066  1
loop_
_geom_bond_atom_site_label_1
_geom_bond_atom_site_label_2
_geom_bond_distance
_geom_bond_site_symmetry_2
Cs0 I14 4.005561 1_555
Cs0 I16 4.006267 1_555
Cs0 I15 4.020644 1_555
Cs0 I12 4.021602 1_564
Cs0 I9 4.073457 1_565
Cs0 I6 4.074904 1_555
Cs0 I1 4.115412 1_565
Cs0 I2 4.116099 1_565
Cs0 I5 4.312571 1_555
Cs0 I4 4.314391 1_554
Cs0 I11 4.495144 1_555
Cs0 I7 4.495678 1_565
Cs1 I12 4.005215 1_555
Cs1 I17 4.005825 1_555
Cs1 I16 4.021292 1_555
Cs1 I13 4.021382 1_645
Cs1 I7 4.073476 1_555
Cs1 I10 4.076602 1_655
Cs1 I2 4.115599 1_655
Cs1 I0 4.116418 1_655
Cs1 I5 4.312720 1_545
Cs1 I3 4.314338 1_555
Cs1 I9 4.495133 1_555
Cs1 I8 4.495191 1_655
Cs2 I13 4.005754 1_555
Cs2 I15 4.006579 1_555
Cs2 I17 4.020864 1_555
Cs2 I14 4.021781 1_456
Cs2 I8 4.075013 1_555
Cs2 I11 4.076629 1_556
Cs2 I0 4.115780 1_556
Cs2 I1 4.115918 1_556
Cs2 I3 4.311586 1_455
Cs2 I4 4.312443 1_555
Cs2 I10 4.493619 1_555
Cs2 I6 4.495396 1_556
Cs3 I10 4.005127 1_555
Cs3 I8 4.005875 1_555
Cs3 I9 4.020994 1_555
Cs3 I6 4.021680 1_546
Cs3 I12 4.073877 1_555
Cs3 I15 4.075971 1_545
Cs3 I4 4.115643 1_545
Cs3 I5 4.115988 1_545
Cs3 I2 4.310973 1_555
Cs3 I1 4.314759 1_556
Cs3 I13 4.494643 1_545
Cs3 I17 4.495842 1_555
Cs4 I6 4.005929 1_555
Cs4 I11 4.006186 1_555
Cs4 I10 4.021368 1_555
Cs4 I7 4.021419 1_465
Cs4 I13 4.074020 1_555
Cs4 I16 4.074536 1_455
Cs4 I5 4.115559 1_455
Cs4 I3 4.115843 1_455
Cs4 I0 4.312500 1_555
Cs4 I2 4.314307 1_565
Cs4 I15 4.494632 1_555
Cs4 I14 4.494847 1_455
Cs5 I7 4.005995 1_555
Cs5 I9 4.006128 1_555
Cs5 I11 4.020724 1_555
Cs5 I8 4.021153 1_654
Cs5 I14 4.074275 1_555
Cs5 I17 4.074349 1_554
Cs5 I3 4.115667 1_554
Cs5 I4 4.116347 1_554
Cs5 I1 4.312453 1_555
Cs5 I0 4.314093 1_655
Cs5 I16 4.494718 1_555
Cs5 I12 4.496101 1_554
Cr0 I14 2.704443 1_556
Cr0 I13 2.704543 1_655
Cr0 I12 2.704576 1_565
Cr0 I3 2.809271 1_555
Cr0 I5 2.810369 1_555
Cr0 I4 2.810371 1_555
Cr1 I16 2.703681 1_555
Cr1 I15 2.703785 1_555
Cr1 I17 2.704578 1_555
Cr1 I5 2.809950 1_555
Cr1 I4 2.810290 1_555
Cr1 I3 2.811416 1_555
Cr2 I7 2.704236 1_455
Cr2 I6 2.704376 1_545
Cr2 I8 2.704456 1_554
Cr2 I1 2.810067 1_555
Cr2 I2 2.810343 1_555
Cr2 I0 2.810580 1_555
Cr3 I11 2.703165 1_555
Cr3 I10 2.703344 1_555
Cr3 I9 2.703788 1_555
Cr3 I0 2.809761 1_555
Cr3 I2 2.810249 1_555
Cr3 I1 2.811047 1_555
