# generated using pymatgen
data_Eu3ReO7
_symmetry_space_group_name_H-M   'P 1'
_cell_length_a   6.60501557
_cell_length_b   6.60501557
_cell_length_c   7.55984712
_cell_angle_alpha   90.00000000
_cell_angle_beta   90.00000000
_cell_angle_gamma   111.34092808
_symmetry_Int_Tables_number   1
_chemical_formula_structural   Eu3ReO7
_chemical_formula_sum   'Eu6 Re2 O14'
_cell_volume   307.19322225
_cell_formula_units_Z   2
loop_
 _symmetry_equiv_pos_site_id
 _symmetry_equiv_pos_as_xyz
  1  'x, y, z'
loop_
 _atom_site_type_symbol
 _atom_site_label
 _atom_site_symmetry_multiplicity
 _atom_site_fract_x
 _atom_site_fract_y
 _atom_site_fract_z
 _atom_site_occupancy
  Eu  Eu0  1  0.47576164  0.93629769  0.75000000  1
  Eu  Eu1  1  0.00000000  0.00000000  0.50000000  1
  Eu  Eu2  1  0.06370231  0.52423836  0.25000000  1
  Eu  Eu3  1  0.93629769  0.47576164  0.75000000  1
  Eu  Eu4  1  0.52423836  0.06370231  0.25000000  1
  Eu  Eu5  1  0.00000000  0.00000000  0.00000000  1
  Re  Re0  1  0.50000000  0.50000000  0.00000000  1
  Re  Re1  1  0.50000000  0.50000000  0.50000000  1
  O  O0  1  0.15744004  0.89176878  0.25000000  1
  O  O1  1  0.55655175  0.80154485  0.46449678  1
  O  O2  1  0.80154485  0.55655175  0.03550322  1
  O  O3  1  0.44344825  0.19845515  0.96449678  1
  O  O4  1  0.55655175  0.80154485  0.03550322  1
  O  O5  1  0.56287164  0.56287164  0.75000000  1
  O  O6  1  0.84255996  0.10823122  0.75000000  1
  O  O7  1  0.10823122  0.84255996  0.75000000  1
  O  O8  1  0.19845515  0.44344825  0.96449678  1
  O  O9  1  0.89176878  0.15744004  0.25000000  1
  O  O10  1  0.44344825  0.19845515  0.53550322  1
  O  O11  1  0.43712836  0.43712836  0.25000000  1
  O  O12  1  0.80154485  0.55655175  0.46449678  1
  O  O13  1  0.19845515  0.44344825  0.53550322  1
loop_
_geom_bond_atom_site_label_1
_geom_bond_atom_site_label_2
_geom_bond_distance
_geom_bond_site_symmetry_2
Eu0 O6 2.270833 1_565
Eu0 O7 2.276484 1_555
Eu0 O10 2.437679 1_565
Eu0 O3 2.437679 1_565
Eu0 O1 2.465995 1_555
Eu0 O4 2.465995 1_556
Eu0 O5 2.729006 1_555
Eu1 O7 2.388605 1_545
Eu1 O6 2.388605 1_455
Eu1 O9 2.388605 1_455
Eu1 O0 2.388605 1_545
Eu1 O12 2.752235 1_445
Eu1 O13 2.752235 1_555
Eu1 O1 2.752235 1_445
Eu1 O10 2.752235 1_555
Eu2 O9 2.270833 1_455
Eu2 O0 2.276484 1_555
Eu2 O12 2.437679 1_455
Eu2 O2 2.437679 1_455
Eu2 O8 2.465995 1_554
Eu2 O13 2.465995 1_555
Eu2 O11 2.729006 1_555
Eu3 O7 2.270833 1_655
Eu3 O6 2.276484 1_555
Eu3 O13 2.437679 1_655
Eu3 O8 2.437679 1_655
Eu3 O12 2.465995 1_555
Eu3 O2 2.465995 1_556
Eu3 O5 2.729006 1_555
Eu4 O0 2.270833 1_545
Eu4 O9 2.276484 1_555
Eu4 O4 2.437679 1_545
Eu4 O1 2.437679 1_545
Eu4 O3 2.465995 1_554
Eu4 O10 2.465995 1_555
Eu4 O11 2.729006 1_555
Eu5 O7 2.388605 1_544
Eu5 O9 2.388605 1_455
Eu5 O6 2.388605 1_454
Eu5 O0 2.388605 1_545
Eu5 O8 2.752235 1_554
Eu5 O3 2.752235 1_554
Eu5 O4 2.752235 1_445
Eu5 O2 2.752235 1_445
O1 Re1 1.907089 1_555
O2 Re0 1.907089 1_555
O3 Re0 1.907089 1_556
O4 Re0 1.907089 1_555
O5 Re1 1.947136 1_555
O5 Re0 1.947136 1_556
O8 Re0 1.907089 1_556
O10 Re1 1.907089 1_555
O11 Re1 1.947136 1_555
O11 Re0 1.947136 1_555
O12 Re1 1.907089 1_555
O13 Re1 1.907089 1_555
