# generated using pymatgen
data_Ce(TiAl10)2
_symmetry_space_group_name_H-M   'P 1'
_cell_length_a   10.30367910
_cell_length_b   10.30367941
_cell_length_c   10.30367606
_cell_angle_alpha   59.99999589
_cell_angle_beta   59.99999203
_cell_angle_gamma   59.99996132
_symmetry_Int_Tables_number   1
_chemical_formula_structural   Ce(TiAl10)2
_chemical_formula_sum   'Ce2 Ti4 Al40'
_cell_volume   773.50245016
_cell_formula_units_Z   2
loop_
 _symmetry_equiv_pos_site_id
 _symmetry_equiv_pos_as_xyz
  1  'x, y, z'
loop_
 _atom_site_type_symbol
 _atom_site_label
 _atom_site_symmetry_multiplicity
 _atom_site_fract_x
 _atom_site_fract_y
 _atom_site_fract_z
 _atom_site_occupancy
  Ce  Ce0  1  0.49999772  0.49999466  0.50000511  1
  Ce  Ce1  1  0.75000767  0.75000590  0.74999471  1
  Ti  Ti0  1  0.62499541  0.12499847  0.12500264  1
  Ti  Ti1  1  0.12500055  0.62499266  0.12500365  1
  Ti  Ti2  1  0.12500192  0.12500082  0.62499206  1
  Ti  Ti3  1  0.12500271  0.12500062  0.12500606  1
  Al  Al0  1  0.86225851  0.86226128  0.13773910  1
  Al  Al1  1  0.13774002  0.13774221  0.86225576  1
  Al  Al2  1  0.86226085  0.13774062  0.86225709  1
  Al  Al3  1  0.13773961  0.86226101  0.13773975  1
  Al  Al4  1  0.13773953  0.86226284  0.86225602  1
  Al  Al5  1  0.86225882  0.13774078  0.13773961  1
  Al  Al6  1  0.38778347  0.38778537  0.11221588  1
  Al  Al7  1  0.11221257  0.11221645  0.38778828  1
  Al  Al8  1  0.38778224  0.11221584  0.38778745  1
  Al  Al9  1  0.11221441  0.38778566  0.11221654  1
  Al  Al10  1  0.11221332  0.38778396  0.38778706  1
  Al  Al11  1  0.38778405  0.11221599  0.11221522  1
  Al  Al12  1  0.56847121  0.30021780  0.30022151  1
  Al  Al13  1  0.30021656  0.56847558  0.83108743  1
  Al  Al14  1  0.30021515  0.83109119  0.56847443  1
  Al  Al15  1  0.83109313  0.30021438  0.30021708  1
  Al  Al16  1  0.30021724  0.30021789  0.56847286  1
  Al  Al17  1  0.56847418  0.83109107  0.30021645  1
  Al  Al18  1  0.83109093  0.56847216  0.30021857  1
  Al  Al19  1  0.30021507  0.30021653  0.83109038  1
  Al  Al20  1  0.30021706  0.56847109  0.30022137  1
  Al  Al21  1  0.83109214  0.30021629  0.56847390  1
  Al  Al22  1  0.56847561  0.30021747  0.83108698  1
  Al  Al23  1  0.30021342  0.83109276  0.30021780  1
  Al  Al24  1  0.68145513  0.94976980  0.94976545  1
  Al  Al25  1  0.94976901  0.68145068  0.41901294  1
  Al  Al26  1  0.94977048  0.41900895  0.68145067  1
  Al  Al27  1  0.41901394  0.94976949  0.94976490  1
  Al  Al28  1  0.94976844  0.94977040  0.68145288  1
  Al  Al29  1  0.68145312  0.41901011  0.94976749  1
  Al  Al30  1  0.41901080  0.68145336  0.94976745  1
  Al  Al31  1  0.94976648  0.94976851  0.41901601  1
  Al  Al32  1  0.94976921  0.68145451  0.94976685  1
  Al  Al33  1  0.41900946  0.94977116  0.68145077  1
  Al  Al34  1  0.68145139  0.94976868  0.41901282  1
  Al  Al35  1  0.94976968  0.41901329  0.94976630  1
  Al  Al36  1  0.12499069  0.62500170  0.62500521  1
  Al  Al37  1  0.62500595  0.12498866  0.62500417  1
  Al  Al38  1  0.62500576  0.62500144  0.12499185  1
  Al  Al39  1  0.62500540  0.62500096  0.62500350  1
loop_
_geom_bond_atom_site_label_1
_geom_bond_atom_site_label_2
_geom_bond_distance
_geom_bond_site_symmetry_2
Al0 Ti0 2.582598 1_565
Al0 Ti1 2.582650 1_655
Al0 Al17 2.726862 1_555
Al0 Al18 2.726895 1_555
Al0 Al5 2.838457 1_565
Al0 Al2 2.838464 1_564
Al0 Al3 2.838471 1_655
Al0 Al4 2.838478 1_654
Al0 Al24 2.866512 1_554
Al0 Al32 2.866521 1_554
Al0 Al34 2.866551 1_555
Al0 Al25 2.866567 1_555
Al1 Ti2 2.582635 1_555
Al1 Ti3 2.582711 1_556
Al1 Al19 2.726841 1_555
Al1 Al16 2.726848 1_555
Al1 Al2 2.838450 1_455
Al1 Al4 2.838452 1_545
Al1 Al5 2.838483 1_456
Al1 Al3 2.838484 1_546
Al1 Al26 2.866493 1_455
Al1 Al33 2.866510 1_545
Al1 Al35 2.866543 1_455
Al1 Al27 2.866561 1_545
Al2 Ti2 2.582629 1_655
Al2 Ti0 2.582656 1_556
Al2 Al21 2.726845 1_555
Al2 Al22 2.726868 1_555
Al2 Al4 2.838438 1_645
Al2 Al5 2.838473 1_556
Al2 Al28 2.866493 1_545
Al2 Al24 2.866510 1_545
Al2 Al26 2.866517 1_555
Al2 Al29 2.866529 1_555
Al3 Ti3 2.582640 1_565
Al3 Ti1 2.582659 1_555
Al3 Al5 2.838459 1_465
Al3 Al4 2.838486 1_554
Al3 Al30 2.866536 1_554
Al3 Al31 2.866573 1_455
Al4 Ti2 2.582607 1_565
Al4 Ti1 2.582690 1_556
Al5 Ti0 2.582632 1_555
Al5 Ti3 2.582669 1_655
Al6 Ti1 2.582599 1_555
Al6 Ti0 2.582643 1_555
Al6 Al9 2.839370 1_555
Al6 Al8 2.839390 1_555
Al7 Ti2 2.582553 1_555
Al7 Ti3 2.582599 1_555
Al7 Al8 2.839374 1_555
Al7 Al9 2.839389 1_555
Al8 Ti2 2.582573 1_555
Al8 Ti0 2.582638 1_555
Al9 Ti1 2.582584 1_555
Al9 Ti3 2.582612 1_555
Al10 Ti2 2.582591 1_555
Al10 Ti1 2.582609 1_555
Al10 Al26 2.725995 1_455
Al10 Al25 2.726026 1_455
Al10 Al7 2.839357 1_555
Al10 Al8 2.839368 1_555
Al10 Al9 2.839375 1_555
Al10 Al6 2.839391 1_555
Al10 Al21 2.865551 1_455
Al10 Al16 2.865563 1_555
Al10 Al18 2.865564 1_455
Al10 Al20 2.865576 1_555
Al11 Ti3 2.582585 1_555
Al11 Ti0 2.582610 1_555
Al11 Al27 2.726044 1_544
Al11 Al24 2.726061 1_544
Al11 Al6 2.839379 1_555
Al11 Al9 2.839380 1_555
Al11 Al8 2.839397 1_555
Al11 Al7 2.839407 1_555
Al11 Al17 2.865575 1_545
Al11 Al23 2.865583 1_545
Al11 Al19 2.865587 1_554
Al11 Al22 2.865596 1_554
Al12 Al15 2.705932 1_555
Al12 Al5 2.726894 1_555
Al12 Al16 2.763989 1_555
Al12 Al20 2.763999 1_555
Al12 Ti0 2.831017 1_555
Al12 Al8 2.865575 1_555
Al12 Al6 2.865589 1_555
Al12 Al34 2.948498 1_545
Al12 Al29 2.948539 1_554
Al12 Al37 3.107012 1_555
Al12 Al38 3.107021 1_555
Al12 Ce0 3.210149 1_555
Al13 Al14 2.705893 1_555
Al13 Al4 2.726881 1_555
Al13 Al19 2.764048 1_555
Al13 Al22 2.764049 1_555
Al13 Ti1 2.831005 1_556
Al13 Al9 2.865595 1_556
Al13 Al6 2.865608 1_556
Al13 Al32 2.948483 1_455
Al13 Al30 2.948524 1_555
Al13 Al36 3.106969 1_555
Al13 Al39 3.107026 1_555
Al13 Ce0 3.210141 1_555
Al14 Al4 2.726842 1_555
Al14 Al23 2.764030 1_555
Al14 Al17 2.764049 1_555
Al14 Ti2 2.830950 1_565
Al14 Al7 2.865563 1_565
Al14 Al8 2.865578 1_565
Al14 Al28 2.948478 1_455
Al14 Al33 2.948512 1_555
Al14 Al36 3.107003 1_555
Al14 Al39 3.107055 1_555
Al14 Ce0 3.210214 1_555
Al15 Al5 2.726854 1_555
Al15 Al21 2.764036 1_555
Al15 Al18 2.764039 1_555
Al15 Ti3 2.830939 1_655
Al15 Al7 2.865551 1_655
Al15 Al9 2.865569 1_655
Al15 Al31 2.948471 1_545
Al15 Al35 2.948512 1_554
Al15 Al38 3.107012 1_555
Al15 Al37 3.107014 1_555
Al15 Ce0 3.210220 1_555
Al16 Al19 2.705908 1_555
Al16 Al20 2.763986 1_555
Al16 Ti2 2.830990 1_555
Al16 Al8 2.865547 1_555
Al16 Al33 2.948478 1_545
Al16 Al26 2.948478 1_455
Al16 Al36 3.107013 1_555
Al16 Al37 3.107051 1_555
Al16 Ce0 3.210147 1_555
Al17 Al18 2.705928 1_555
Al17 Al23 2.764057 1_555
Al17 Ti0 2.830947 1_565
Al17 Al8 2.865597 1_565
Al17 Al24 2.948514 1_554
Al17 Al34 2.948517 1_555
Al17 Al38 3.107000 1_555
Al17 Al39 3.107036 1_555
Al17 Ce0 3.210246 1_555
Al18 Al21 2.764019 1_555
Al18 Ti1 2.830964 1_655
Al18 Al9 2.865555 1_655
Al18 Al25 2.948515 1_555
Al18 Al32 2.948520 1_554
Al18 Al38 3.106988 1_555
Al18 Al39 3.107006 1_555
Al18 Ce0 3.210223 1_555
Al19 Al22 2.764058 1_555
Al19 Ti3 2.830982 1_556
Al19 Al9 2.865599 1_556
Al19 Al35 2.948467 1_455
Al19 Al27 2.948481 1_545
Al19 Al36 3.106990 1_555
Al19 Al37 3.107035 1_555
Al19 Ce0 3.210144 1_555
Al20 Al23 2.705932 1_555
Al20 Al3 2.726906 1_555
Al20 Ti1 2.830994 1_555
Al20 Al6 2.865575 1_555
Al20 Al25 2.948489 1_455
Al20 Al30 2.948538 1_554
Al20 Al36 3.107005 1_555
Al20 Al38 3.107048 1_555
Al20 Ce0 3.210171 1_555
Al21 Al22 2.705898 1_555
Al21 Ti2 2.830953 1_655
Al21 Al7 2.865529 1_655
Al21 Al28 2.948471 1_545
Al21 Al26 2.948488 1_555
Al21 Al37 3.107002 1_555
Al21 Al39 3.107007 1_555
Al21 Ce0 3.210193 1_555
Al22 Ti0 2.831012 1_556
Al22 Al6 2.865617 1_556
Al22 Al24 2.948486 1_545
Al22 Al29 2.948512 1_555
Al22 Al37 3.106980 1_555
Al22 Al39 3.106998 1_555
Al22 Ce0 3.210123 1_555
Al23 Al3 2.726848 1_555
Al23 Ti3 2.830921 1_565
Al23 Al7 2.865584 1_565
Al23 Al31 2.948480 1_455
Al23 Al27 2.948530 1_554
Al23 Al36 3.107022 1_555
Al23 Al38 3.107056 1_555
Al23 Ce0 3.210246 1_555
Al24 Al27 2.704114 1_555
Al24 Al28 2.764610 1_555
Al24 Al32 2.764627 1_555
Al24 Ti0 2.831548 1_566
Al24 Al37 3.106439 1_565
Al24 Al38 3.106502 1_556
Al24 Ce1 3.209579 1_555
Al25 Al26 2.704094 1_555
Al25 Al34 2.764659 1_555
Al25 Al31 2.764664 1_555
Al25 Ti1 2.831568 1_655
Al25 Al3 2.866549 1_655
Al25 Al39 3.106462 1_555
Al25 Al36 3.106471 1_655
Al25 Ce1 3.209588 1_555
Al26 Al29 2.764652 1_555
Al26 Al35 2.764656 1_555
Al26 Ti2 2.831560 1_655
Al26 Al39 3.106464 1_555
Al26 Al36 3.106480 1_655
Al26 Ce1 3.209671 1_555
Al27 Al33 2.764636 1_555
Al27 Al30 2.764646 1_555
Al27 Ti3 2.831598 1_566
Al27 Al3 2.866563 1_556
Al27 Al37 3.106441 1_565
Al27 Al38 3.106503 1_556
Al27 Ce1 3.209625 1_555
Al28 Al31 2.704084 1_555
Al28 Al7 2.726007 1_665
Al28 Al32 2.764630 1_555
Al28 Ti2 2.831527 1_665
Al28 Al4 2.866492 1_655
Al28 Al37 3.106448 1_565
Al28 Al36 3.106498 1_655
Al28 Ce1 3.209545 1_555
Al29 Al30 2.704125 1_555
Al29 Al6 2.726049 1_556
Al29 Al35 2.764658 1_555
Al29 Ti0 2.831588 1_556
Al29 Al5 2.866518 1_556
Al29 Al39 3.106456 1_555
Al29 Al38 3.106493 1_556
Al29 Ce1 3.209709 1_555
Al30 Al6 2.726044 1_556
Al30 Al33 2.764654 1_555
Al30 Ti1 2.831589 1_556
Al30 Al4 2.866550 1_555
Al30 Al39 3.106476 1_555
Al30 Al38 3.106505 1_556
Al30 Ce1 3.209710 1_555
Al31 Al7 2.726031 1_665
Al31 Al34 2.764648 1_555
Al31 Ti3 2.831576 1_665
Al31 Al5 2.866575 1_565
Al31 Al37 3.106425 1_565
Al31 Al36 3.106475 1_655
Al31 Ce1 3.209507 1_555
Al32 Al35 2.704111 1_555
Al32 Al9 2.726045 1_656
Al32 Ti1 2.831558 1_656
Al32 Al4 2.866519 1_655
Al32 Al36 3.106457 1_655
Al32 Al38 3.106474 1_556
Al32 Ce1 3.209576 1_555
Al33 Al34 2.704096 1_555
Al33 Al8 2.726001 1_565
Al33 Ti2 2.831555 1_565
Al33 Al4 2.866524 1_555
Al33 Al37 3.106486 1_565
Al33 Al39 3.106510 1_555
Al33 Ce1 3.209682 1_555
Al34 Al8 2.726046 1_565
Al34 Ti0 2.831567 1_565
Al34 Al5 2.866542 1_565
Al34 Al37 3.106464 1_565
Al34 Al39 3.106483 1_555
Al34 Ce1 3.209594 1_555
Al35 Al9 2.726039 1_656
Al35 Ti3 2.831606 1_656
Al35 Al5 2.866559 1_556
Al35 Al36 3.106434 1_655
Al35 Al38 3.106462 1_556
Al35 Ce1 3.209620 1_555
Al36 Ce1 3.154701 1_455
Al36 Ce0 3.154903 1_555
Al37 Ce1 3.154699 1_545
Al37 Ce0 3.154894 1_555
Al38 Ce1 3.154820 1_554
Al38 Ce0 3.154955 1_555
Al39 Ce1 3.154831 1_555
Al39 Ce0 3.154949 1_555
