# generated using pymatgen
data_Ba3BiRu2O9
_symmetry_space_group_name_H-M   'P 1'
_cell_length_a   6.02182255
_cell_length_b   6.02182255
_cell_length_c   14.85538241
_cell_angle_alpha   89.17740016
_cell_angle_beta   89.17740016
_cell_angle_gamma   120.09383161
_symmetry_Int_Tables_number   1
_chemical_formula_structural   Ba3BiRu2O9
_chemical_formula_sum   'Ba6 Bi2 Ru4 O18'
_cell_volume   465.88567767
_cell_formula_units_Z   2
loop_
 _symmetry_equiv_pos_site_id
 _symmetry_equiv_pos_as_xyz
  1  'x, y, z'
loop_
 _atom_site_type_symbol
 _atom_site_label
 _atom_site_symmetry_multiplicity
 _atom_site_fract_x
 _atom_site_fract_y
 _atom_site_fract_z
 _atom_site_occupancy
  Ba  Ba0  1  0.99740400  0.00259600  0.75000000  1
  Ba  Ba1  1  0.66977600  0.33859000  0.40432600  1
  Ba  Ba2  1  0.66141000  0.33022400  0.09567400  1
  Ba  Ba3  1  0.33022400  0.66141000  0.59567400  1
  Ba  Ba4  1  0.00259600  0.99740400  0.25000000  1
  Ba  Ba5  1  0.33859000  0.66977600  0.90432600  1
  Bi  Bi0  1  0.00000000  0.00000000  0.50000000  1
  Bi  Bi1  1  0.00000000  0.00000000  0.00000000  1
  Ru  Ru0  1  0.65386800  0.32198900  0.66592400  1
  Ru  Ru1  1  0.67801100  0.34613200  0.83407600  1
  Ru  Ru2  1  0.32198900  0.65386800  0.16592400  1
  Ru  Ru3  1  0.34613200  0.67801100  0.33407600  1
  O  O0  1  0.97384000  0.49777600  0.73986000  1
  O  O1  1  0.80154500  0.14652300  0.59611600  1
  O  O2  1  0.85347700  0.19845500  0.90388400  1
  O  O3  1  0.19845500  0.85347700  0.40388400  1
  O  O4  1  0.13552200  0.32854800  0.10016100  1
  O  O5  1  0.86447800  0.67145200  0.89983900  1
  O  O6  1  0.67145200  0.86447800  0.39983900  1
  O  O7  1  0.60457900  0.77988600  0.07552200  1
  O  O8  1  0.14652300  0.80154500  0.09611600  1
  O  O9  1  0.32854800  0.13552200  0.60016100  1
  O  O10  1  0.50893600  0.49106400  0.75000000  1
  O  O11  1  0.50222400  0.02616000  0.76014000  1
  O  O12  1  0.49777600  0.97384000  0.23986000  1
  O  O13  1  0.49106400  0.50893600  0.25000000  1
  O  O14  1  0.39542100  0.22011400  0.92447800  1
  O  O15  1  0.77988600  0.60457900  0.57552200  1
  O  O16  1  0.22011400  0.39542100  0.42447800  1
  O  O17  1  0.02616000  0.50222400  0.26014000  1
loop_
_geom_bond_atom_site_label_1
_geom_bond_atom_site_label_2
_geom_bond_distance
_geom_bond_site_symmetry_2
Ba0 O5 2.791507 1_545
Ba0 O9 2.791507 1_655
Ba0 O2 2.900635 1_555
Ba0 O1 2.900635 1_555
Ba0 O0 2.977451 1_545
Ba0 O11 2.977451 1_655
Ba0 O10 3.009047 1_655
Ba0 O10 3.009047 1_545
Ba0 O0 3.057206 1_555
Ba0 O11 3.057206 1_555
Ba0 O14 3.362434 1_655
Ba0 O15 3.362434 1_545
Ba1 O17 2.802008 1_655
Ba1 O6 2.861820 1_545
Ba1 O3 2.876749 1_545
Ba1 O16 2.906511 1_555
Ba1 O15 2.928022 1_555
Ba1 O13 2.928593 1_555
Ba1 O12 3.132376 1_545
Ba1 O3 3.138270 1_655
Ba1 O6 3.161497 1_555
Ba1 O16 3.175476 1_655
Ba1 O1 3.312918 1_555
Ba1 O9 3.374529 1_555
Ba2 O12 2.802008 1_545
Ba2 O4 2.861820 1_655
Ba2 O8 2.876749 1_655
Ba2 O7 2.906511 1_555
Ba2 O14 2.928022 1_554
Ba2 O13 2.928593 1_555
Ba2 O17 3.132376 1_655
Ba2 O8 3.138270 1_545
Ba2 O4 3.161497 1_555
Ba2 O7 3.175476 1_545
Ba2 O2 3.312918 1_554
Ba2 O5 3.374529 1_554
Ba3 O0 2.802008 1_455
Ba3 O9 2.861820 1_565
Ba3 O1 2.876749 1_565
Ba3 O15 2.906511 1_555
Ba3 O16 2.928022 1_555
Ba3 O10 2.928593 1_555
Ba3 O11 3.132376 1_565
Ba3 O1 3.138270 1_455
Ba3 O9 3.161497 1_555
Ba3 O15 3.175476 1_455
Ba3 O3 3.312918 1_555
Ba3 O6 3.374529 1_555
Ba4 O4 2.791507 1_565
Ba4 O6 2.791507 1_455
Ba4 O3 2.900635 1_555
Ba4 O8 2.900635 1_555
Ba4 O12 2.977451 1_455
Ba4 O17 2.977451 1_565
Ba4 O13 3.009047 1_565
Ba4 O13 3.009047 1_455
Ba4 O12 3.057206 1_555
Ba4 O17 3.057206 1_555
Ba4 O16 3.362434 1_565
Ba4 O7 3.362434 1_455
Ba5 O11 2.802008 1_565
Ba5 O5 2.861820 1_455
Ba5 O2 2.876749 1_455
Ba5 O14 2.906511 1_555
Ba5 O7 2.928022 1_556
Ba5 O10 2.928593 1_555
Ba5 O0 3.132376 1_455
Ba5 O2 3.138270 1_565
Ba5 O5 3.161497 1_555
Ba5 O14 3.175476 1_565
Ba5 O8 3.312918 1_556
Ba5 O4 3.374529 1_556
Bi0 O1 2.300006 1_455
Bi0 O3 2.300006 1_545
Bi0 O9 2.300967 1_555
Bi0 O6 2.300967 1_445
Bi0 O15 2.323995 1_445
Bi0 O16 2.323995 1_555
Bi1 O8 2.300006 1_545
Bi1 O2 2.300006 1_454
Bi1 O4 2.300967 1_555
Bi1 O5 2.300967 1_444
Bi1 O7 2.323995 1_445
Bi1 O14 2.323995 1_554
O0 Ru0 2.021942 1_555
O0 Ru1 2.055880 1_555
O1 Ru0 1.982421 1_555
O2 Ru1 1.982421 1_555
O3 Ru3 1.982421 1_555
O4 Ru2 1.983301 1_555
O5 Ru1 1.983301 1_555
O6 Ru3 1.983301 1_555
O7 Ru2 1.971118 1_555
O8 Ru2 1.982421 1_555
O9 Ru0 1.983301 1_555
O10 Ru1 2.062664 1_555
O10 Ru0 2.062664 1_555
O11 Ru1 2.021942 1_555
O11 Ru0 2.055880 1_555
O12 Ru2 2.021942 1_555
O12 Ru3 2.055880 1_555
O13 Ru3 2.062664 1_555
O13 Ru2 2.062664 1_555
O14 Ru1 1.971118 1_555
O15 Ru0 1.971118 1_555
O16 Ru3 1.971118 1_555
O17 Ru3 2.021942 1_555
O17 Ru2 2.055880 1_555
