# generated using pymatgen
data_Cs2ZnN12
_symmetry_space_group_name_H-M   'P 1'
_cell_length_a   6.86149200
_cell_length_b   7.53408200
_cell_length_c   22.22776000
_cell_angle_alpha   90.00000000
_cell_angle_beta   90.00000000
_cell_angle_gamma   90.00000000
_symmetry_Int_Tables_number   1
_chemical_formula_structural   Cs2ZnN12
_chemical_formula_sum   'Cs8 Zn4 N48'
_cell_volume   1149.06501723
_cell_formula_units_Z   4
loop_
 _symmetry_equiv_pos_site_id
 _symmetry_equiv_pos_as_xyz
  1  'x, y, z'
loop_
 _atom_site_type_symbol
 _atom_site_label
 _atom_site_symmetry_multiplicity
 _atom_site_fract_x
 _atom_site_fract_y
 _atom_site_fract_z
 _atom_site_occupancy
  Cs  Cs0  1  0.32253800  0.88861900  0.48524700  1
  Cs  Cs1  1  0.30717000  0.61408600  0.30542500  1
  Cs  Cs2  1  0.69283000  0.11408600  0.69457500  1
  Cs  Cs3  1  0.67746200  0.38861900  0.51475300  1
  Cs  Cs4  1  0.69283000  0.61408600  0.80542500  1
  Cs  Cs5  1  0.67746200  0.88861900  0.98524700  1
  Cs  Cs6  1  0.30717000  0.11408600  0.19457500  1
  Cs  Cs7  1  0.32253800  0.38861900  0.01475300  1
  Zn  Zn0  1  0.92702200  0.61998200  0.13137500  1
  Zn  Zn1  1  0.07297800  0.61998200  0.63137500  1
  Zn  Zn2  1  0.07297800  0.11998200  0.86862500  1
  Zn  Zn3  1  0.92702200  0.11998200  0.36862500  1
  N  N0  1  0.69173300  0.17449200  0.09532200  1
  N  N1  1  0.32654700  0.38331300  0.74927200  1
  N  N2  1  0.26200000  0.48049300  0.44780600  1
  N  N3  1  0.34496700  0.08085400  0.33938000  1
  N  N4  1  0.17668900  0.26541000  0.60874900  1
  N  N5  1  0.81262500  0.32121800  0.27114000  1
  N  N6  1  0.94421500  0.22839100  0.94242400  1
  N  N7  1  0.50759700  0.61279000  0.63574800  1
  N  N8  1  0.65503300  0.08085400  0.83938000  1
  N  N9  1  0.36342600  0.64506700  0.60723200  1
  N  N10  1  0.67345300  0.88331300  0.25072800  1
  N  N11  1  0.69173300  0.67449200  0.40467800  1
  N  N12  1  0.94421500  0.72839100  0.55757600  1
  N  N13  1  0.73800000  0.98049300  0.55219400  1
  N  N14  1  0.30826700  0.67449200  0.90467800  1
  N  N15  1  0.18737500  0.32121800  0.77114000  1
  N  N16  1  0.96095000  0.26111500  0.29230400  1
  N  N17  1  0.65503300  0.58085400  0.66062000  1
  N  N18  1  0.26200000  0.98049300  0.05219400  1
  N  N19  1  0.05578500  0.72839100  0.05757600  1
  N  N20  1  0.82331100  0.26541000  0.10874900  1
  N  N21  1  0.82331100  0.76541000  0.39125100  1
  N  N22  1  0.63657400  0.64506700  0.10723200  1
  N  N23  1  0.49240300  0.11279000  0.36425200  1
  N  N24  1  0.84015500  0.35634800  0.94382300  1
  N  N25  1  0.49240300  0.61279000  0.13574800  1
  N  N26  1  0.03767000  0.85422400  0.87776500  1
  N  N27  1  0.50759700  0.11279000  0.86425200  1
  N  N28  1  0.63657400  0.14506700  0.39276800  1
  N  N29  1  0.05578500  0.22839100  0.44242400  1
  N  N30  1  0.96233000  0.85422400  0.37776500  1
  N  N31  1  0.03905000  0.26111500  0.79230400  1
  N  N32  1  0.81262500  0.82121800  0.22886000  1
  N  N33  1  0.03905000  0.76111500  0.70769600  1
  N  N34  1  0.96095000  0.76111500  0.20769600  1
  N  N35  1  0.73800000  0.48049300  0.94780600  1
  N  N36  1  0.34496700  0.58085400  0.16062000  1
  N  N37  1  0.15984500  0.35634800  0.44382300  1
  N  N38  1  0.17668900  0.76541000  0.89125100  1
  N  N39  1  0.03767000  0.35422400  0.62223500  1
  N  N40  1  0.30826700  0.17449200  0.59532200  1
  N  N41  1  0.36342600  0.14506700  0.89276800  1
  N  N42  1  0.96233000  0.35422400  0.12223500  1
  N  N43  1  0.32654700  0.88331300  0.75072800  1
  N  N44  1  0.18737500  0.82121800  0.72886000  1
  N  N45  1  0.67345300  0.38331300  0.24927200  1
  N  N46  1  0.84015500  0.85634800  0.55617700  1
  N  N47  1  0.15984500  0.85634800  0.05617700  1
loop_
_geom_bond_atom_site_label_1
_geom_bond_atom_site_label_2
_geom_bond_distance
_geom_bond_site_symmetry_2
Cs0 N2 3.212457 1_555
Cs0 N40 3.261111 1_565
Cs0 N12 3.283365 1_455
Cs0 N9 3.285985 1_555
Cs0 N29 3.287713 1_565
Cs0 N13 3.289367 1_555
Cs0 N30 3.447246 1_455
Cs0 N11 3.496717 1_555
Cs1 N36 3.238814 1_555
Cs1 N45 3.301099 1_555
Cs1 N2 3.335435 1_555
Cs1 N30 3.384864 1_455
Cs1 N34 3.404312 1_455
Cs1 N10 3.450925 1_555
Cs1 N11 3.469427 1_555
Cs1 N16 3.577766 1_455
Cs1 N3 3.606086 1_565
Cs2 N8 3.238814 1_555
Cs2 N43 3.301099 1_545
Cs2 N13 3.335435 1_545
Cs2 N39 3.384864 1_655
Cs2 N31 3.404312 1_655
Cs2 N1 3.450925 1_555
Cs2 N40 3.469427 1_555
Cs2 N33 3.577766 1_645
Cs2 N17 3.606086 1_555
Cs3 N13 3.212457 1_545
Cs3 N11 3.261111 1_555
Cs3 N29 3.283365 1_655
Cs3 N28 3.285985 1_555
Cs3 N12 3.287713 1_555
Cs3 N2 3.289367 1_555
Cs3 N39 3.447246 1_655
Cs3 N40 3.496717 1_555
Cs4 N17 3.238814 1_555
Cs4 N1 3.301099 1_555
Cs4 N35 3.335435 1_555
Cs4 N26 3.384864 1_655
Cs4 N33 3.404312 1_655
Cs4 N43 3.450925 1_555
Cs4 N14 3.469427 1_555
Cs4 N31 3.577766 1_655
Cs4 N8 3.606086 1_565
Cs5 N35 3.212457 1_555
Cs5 N0 3.261111 1_566
Cs5 N19 3.283365 1_656
Cs5 N22 3.285985 1_556
Cs5 N6 3.287713 1_565
Cs5 N18 3.289367 1_556
Cs5 N26 3.447246 1_655
Cs5 N14 3.496717 1_555
Cs6 N3 3.238814 1_555
Cs6 N10 3.301099 1_545
Cs6 N18 3.335435 1_545
Cs6 N42 3.384864 1_455
Cs6 N16 3.404312 1_455
Cs6 N45 3.450925 1_555
Cs6 N0 3.469427 1_555
Cs6 N34 3.577766 1_445
Cs6 N36 3.606086 1_555
Cs7 N18 3.212457 1_545
Cs7 N14 3.261111 1_554
Cs7 N6 3.283365 1_454
Cs7 N41 3.285985 1_554
Cs7 N19 3.287713 1_555
Cs7 N35 3.289367 1_554
Cs7 N42 3.447246 1_455
Cs7 N0 3.496717 1_555
N0 N20 1.171906 1_555
N1 N15 1.169197 1_555
N2 N37 1.172165 1_555
N4 N40 1.171906 1_555
N6 Zn2 2.034343 1_655
N7 N9 1.199779 1_555
N9 Zn1 2.072530 1_555
N10 N32 1.169197 1_555
N11 N21 1.171906 1_555
N12 N46 1.200060 1_555
N12 Zn1 2.034343 1_655
N13 N46 1.172165 1_555
N14 N38 1.171906 1_555
N15 N31 1.209184 1_555
N16 N5 1.209184 1_555
N16 Zn3 2.015625 1_555
N17 N7 1.177681 1_555
N18 N47 1.172165 1_555
N19 N47 1.200060 1_555
N19 Zn0 2.034343 1_455
N20 N42 1.203112 1_555
N21 N30 1.203112 1_555
N22 N25 1.199779 1_555
N22 Zn0 2.072530 1_555
N23 N3 1.177681 1_555
N23 N28 1.199779 1_555
N24 N35 1.172165 1_555
N24 N6 1.200060 1_555
N25 N36 1.177681 1_555
N26 N38 1.203112 1_555
N26 Zn2 2.027053 1_565
N27 N8 1.177681 1_555
N27 N41 1.199779 1_555
N28 Zn3 2.072530 1_555
N29 N37 1.200060 1_555
N29 Zn3 2.034343 1_455
N30 Zn3 2.027053 1_565
N31 Zn2 2.015625 1_555
N32 N34 1.209184 1_555
N33 N44 1.209184 1_555
N33 Zn1 2.015625 1_555
N34 Zn0 2.015625 1_555
N39 N4 1.203112 1_555
N39 Zn1 2.027053 1_555
N41 Zn2 2.072530 1_555
N42 Zn0 2.027053 1_555
N43 N44 1.169197 1_555
N45 N5 1.169197 1_555
