# generated using pymatgen
data_Cs2Cr(NO3)5
_symmetry_space_group_name_H-M   'P 1'
_cell_length_a   11.39015201
_cell_length_b   11.39015201
_cell_length_c   10.28252300
_cell_angle_alpha   90.00000000
_cell_angle_beta   90.00000000
_cell_angle_gamma   120.00000008
_symmetry_Int_Tables_number   1
_chemical_formula_structural   Cs2Cr(NO3)5
_chemical_formula_sum   'Cs6 Cr3 N15 O45'
_cell_volume   1155.28560339
_cell_formula_units_Z   3
loop_
 _symmetry_equiv_pos_site_id
 _symmetry_equiv_pos_as_xyz
  1  'x, y, z'
loop_
 _atom_site_type_symbol
 _atom_site_label
 _atom_site_symmetry_multiplicity
 _atom_site_fract_x
 _atom_site_fract_y
 _atom_site_fract_z
 _atom_site_occupancy
  Cs  Cs0  1  0.00000000  0.70329900  0.33333300  1
  Cs  Cs1  1  0.54011200  0.00000000  0.16666700  1
  Cs  Cs2  1  0.70329900  0.00000000  0.66666700  1
  Cs  Cs3  1  0.45988800  0.45988800  0.50000000  1
  Cs  Cs4  1  0.00000000  0.54011200  0.83333300  1
  Cs  Cs5  1  0.29670100  0.29670100  0.00000000  1
  Cr  Cr0  1  0.69194000  0.69194000  0.00000000  1
  Cr  Cr1  1  0.30806000  0.00000000  0.66666700  1
  Cr  Cr2  1  0.00000000  0.30806000  0.33333300  1
  N  N0  1  0.31674000  0.75735900  0.57920200  1
  N  N1  1  0.25013200  0.90634800  0.94292500  1
  N  N2  1  0.09365200  0.34378300  0.60959100  1
  N  N3  1  0.74986800  0.65621700  0.72374200  1
  N  N4  1  0.00000000  0.08895400  0.33333300  1
  N  N5  1  0.90634800  0.25013200  0.05707500  1
  N  N6  1  0.65621700  0.74986800  0.27625800  1
  N  N7  1  0.75735900  0.31674000  0.42079800  1
  N  N8  1  0.55938100  0.24264100  0.75413100  1
  N  N9  1  0.44061900  0.68326000  0.91253500  1
  N  N10  1  0.91104600  0.91104600  0.00000000  1
  N  N11  1  0.68326000  0.44061900  0.08746500  1
  N  N12  1  0.24264100  0.55938100  0.24586900  1
  N  N13  1  0.34378300  0.09365200  0.39040900  1
  N  N14  1  0.08895400  0.00000000  0.66666700  1
  O  O0  1  0.22880300  0.86980500  0.81849500  1
  O  O1  1  0.37462200  0.18540600  0.30976500  1
  O  O2  1  0.69877500  0.67128600  0.30438400  1
  O  O3  1  0.80942400  0.51149700  0.08935000  1
  O  O4  1  0.10751900  0.91152200  0.60403100  1
  O  O5  1  0.32871400  0.02748900  0.97105100  1
  O  O6  1  0.89248100  0.80400300  0.06263600  1
  O  O7  1  0.38153400  0.69815300  0.56250700  1
  O  O8  1  0.68338100  0.30184700  0.77082600  1
  O  O9  1  0.61846600  0.31661900  0.10415900  1
  O  O10  1  0.69815300  0.38153400  0.43749300  1
  O  O11  1  0.98211000  0.00000000  0.66666700  1
  O  O12  1  0.38950900  0.89018200  0.60007900  1
  O  O13  1  0.62537800  0.81078400  0.35690100  1
  O  O14  1  0.86980500  0.22880300  0.18150500  1
  O  O15  1  0.89018200  0.38950900  0.39992100  1
  O  O16  1  0.50067300  0.61049100  0.93341200  1
  O  O17  1  0.49932700  0.10981800  0.73325400  1
  O  O18  1  0.18921600  0.81459400  0.02356800  1
  O  O19  1  0.10981800  0.49932700  0.26674600  1
  O  O20  1  0.02748900  0.32871400  0.02894900  1
  O  O21  1  0.70207300  0.19057600  0.42268400  1
  O  O22  1  0.29792700  0.48850300  0.24398300  1
  O  O23  1  0.64100200  0.77119700  0.15182900  1
  O  O24  1  0.35899800  0.13019500  0.51483800  1
  O  O25  1  0.91152200  0.10751900  0.39596900  1
  O  O26  1  0.97251100  0.30122500  0.63771700  1
  O  O27  1  0.80400300  0.89248100  0.93736400  1
  O  O28  1  0.18540600  0.37462200  0.69023500  1
  O  O29  1  0.51149700  0.80942400  0.91065000  1
  O  O30  1  0.19599700  0.08847800  0.72930200  1
  O  O31  1  0.77119700  0.64100200  0.84817100  1
  O  O32  1  0.61049100  0.50067300  0.06658800  1
  O  O33  1  0.30184700  0.68338100  0.22917400  1
  O  O34  1  0.08847800  0.19599700  0.27069800  1
  O  O35  1  0.13019500  0.35899800  0.48516200  1
  O  O36  1  0.67128600  0.69877500  0.69561600  1
  O  O37  1  0.81459400  0.18921600  0.97643200  1
  O  O38  1  0.48850300  0.29792700  0.75601700  1
  O  O39  1  0.01789000  0.01789000  0.00000000  1
  O  O40  1  0.30122500  0.97251100  0.36228300  1
  O  O41  1  0.81078400  0.62537800  0.64309900  1
  O  O42  1  0.00000000  0.98211000  0.33333300  1
  O  O43  1  0.19057600  0.70207300  0.57731600  1
  O  O44  1  0.31661900  0.61846600  0.89584100  1
loop_
_geom_bond_atom_site_label_1
_geom_bond_atom_site_label_2
_geom_bond_distance
_geom_bond_site_symmetry_2
Cs0 O42 3.175700 1_555
Cs0 O19 3.215127 1_555
Cs0 O15 3.215129 1_455
Cs0 O2 3.277539 1_455
Cs0 O40 3.277540 1_555
Cs0 O3 3.322090 1_455
Cs0 O43 3.322090 1_555
Cs0 O6 3.459448 1_455
Cs0 O4 3.459456 1_555
Cs0 O18 3.696629 1_555
Cs0 O41 3.696638 1_455
Cs0 O33 3.714695 1_555
Cs0 O10 3.714698 1_455
Cs1 O40 3.270404 1_545
Cs1 O5 3.270404 1_554
Cs1 O33 3.316134 1_545
Cs1 O9 3.316136 1_555
Cs1 O21 3.322754 1_555
Cs1 O29 3.322754 1_544
Cs1 O14 3.336225 1_555
Cs1 O23 3.336225 1_545
Cs1 O13 3.392268 1_545
Cs1 O37 3.392274 1_554
Cs2 O11 3.175700 1_555
Cs2 O17 3.215127 1_555
Cs2 O12 3.215129 1_545
Cs2 O36 3.277539 1_545
Cs2 O26 3.277540 1_555
Cs2 O29 3.322090 1_545
Cs2 O21 3.322090 1_555
Cs2 O27 3.459448 1_545
Cs2 O25 3.459456 1_555
Cs2 O37 3.696629 1_555
Cs2 O13 3.696638 1_545
Cs2 O8 3.714695 1_555
Cs2 O7 3.714698 1_545
Cs3 O36 3.270404 1_555
Cs3 O2 3.270404 1_555
Cs3 O7 3.316134 1_555
Cs3 O10 3.316134 1_555
Cs3 O22 3.322754 1_555
Cs3 O38 3.322754 1_555
Cs3 O24 3.336225 1_555
Cs3 O35 3.336225 1_555
Cs3 O28 3.392274 1_555
Cs3 O1 3.392274 1_555
Cs4 O26 3.270404 1_455
Cs4 O20 3.270404 1_556
Cs4 O8 3.316134 1_455
Cs4 O44 3.316136 1_555
Cs4 O43 3.322754 1_555
Cs4 O3 3.322754 1_456
Cs4 O0 3.336225 1_555
Cs4 O31 3.336225 1_455
Cs4 O41 3.392268 1_455
Cs4 O18 3.392274 1_556
Cs5 O39 3.175700 1_555
Cs5 O16 3.215129 1_554
Cs5 O32 3.215129 1_555
Cs5 O5 3.277539 1_554
Cs5 O20 3.277539 1_555
Cs5 O38 3.322090 1_554
Cs5 O22 3.322090 1_555
Cs5 O30 3.459456 1_554
Cs5 O34 3.459456 1_555
Cs5 O28 3.696629 1_554
Cs5 O1 3.696629 1_555
Cs5 O44 3.714695 1_554
Cs5 O9 3.714695 1_555
Cr0 O32 2.013579 1_555
Cr0 O16 2.013579 1_554
Cr0 O31 2.027966 1_554
Cr0 O23 2.027966 1_555
Cr0 O27 2.084706 1_554
Cr0 O6 2.084706 1_555
Cr1 O17 2.013575 1_555
Cr1 O12 2.013579 1_545
Cr1 O0 2.027958 1_545
Cr1 O24 2.027966 1_555
Cr1 O30 2.084703 1_555
Cr1 O4 2.084706 1_545
Cr2 O19 2.013575 1_555
Cr2 O15 2.013579 1_455
Cr2 O14 2.027958 1_455
Cr2 O35 2.027966 1_555
Cr2 O34 2.084703 1_555
Cr2 O25 2.084706 1_455
N0 O7 1.235554 1_555
N0 O43 1.247817 1_555
N0 O12 1.329630 1_555
N1 O18 1.239395 1_556
N1 O5 1.246453 1_565
N1 O0 1.329719 1_555
N2 O28 1.239401 1_555
N2 O26 1.246454 1_455
N2 O35 1.329709 1_555
N3 O41 1.239402 1_555
N3 O36 1.246444 1_555
N3 O31 1.329711 1_555
N4 O42 1.216969 1_545
N4 O34 1.299319 1_555
N4 O25 1.299324 1_455
N5 O37 1.239395 1_554
N5 O20 1.246453 1_655
N5 O14 1.329719 1_555
N6 O13 1.239402 1_555
N6 O2 1.246444 1_555
N6 O23 1.329711 1_555
N7 O10 1.235554 1_555
N7 O21 1.247817 1_555
N7 O15 1.329630 1_555
N8 O8 1.235554 1_555
N8 O38 1.247817 1_555
N8 O17 1.329630 1_555
N9 O44 1.235552 1_555
N9 O29 1.247816 1_555
N9 O16 1.329630 1_555
N10 O39 1.216969 1_665
N10 O6 1.299324 1_555
N10 O27 1.299324 1_554
N11 O9 1.235552 1_555
N11 O3 1.247816 1_555
N11 O32 1.329630 1_555
N12 O33 1.235554 1_555
N12 O22 1.247817 1_555
N12 O19 1.329630 1_555
N13 O1 1.239401 1_555
N13 O40 1.246454 1_545
N13 O24 1.329709 1_555
N14 O11 1.216969 1_455
N14 O30 1.299319 1_555
N14 O4 1.299324 1_545
