# generated using pymatgen
data_CoSb2S2(OF3)4
_symmetry_space_group_name_H-M   'P 1'
_cell_length_a   5.20344730
_cell_length_b   15.93532821
_cell_length_c   8.78006424
_cell_angle_alpha   93.57322769
_cell_angle_beta   91.30298891
_cell_angle_gamma   97.94694256
_symmetry_Int_Tables_number   1
_chemical_formula_structural   CoSb2S2(OF3)4
_chemical_formula_sum   'Co2 Sb4 S4 O8 F24'
_cell_volume   719.27546145
_cell_formula_units_Z   2
loop_
 _symmetry_equiv_pos_site_id
 _symmetry_equiv_pos_as_xyz
  1  'x, y, z'
loop_
 _atom_site_type_symbol
 _atom_site_label
 _atom_site_symmetry_multiplicity
 _atom_site_fract_x
 _atom_site_fract_y
 _atom_site_fract_z
 _atom_site_occupancy
  Co  Co0  1  0.50000000  0.75000000  0.50000000  1
  Co  Co1  1  0.49999900  0.25000000  0.50000000  1
  Sb  Sb0  1  0.96856000  0.13114400  0.73531900  1
  Sb  Sb1  1  0.96875900  0.63079900  0.73545700  1
  Sb  Sb2  1  0.03144000  0.36885600  0.26468100  1
  Sb  Sb3  1  0.03124100  0.86920100  0.26454300  1
  S  S0  1  0.50080400  0.39895400  0.78556700  1
  S  S1  1  0.50003600  0.89944200  0.78643700  1
  S  S2  1  0.49919500  0.10104600  0.21443300  1
  S  S3  1  0.49996400  0.60055700  0.21356200  1
  O  O0  1  0.59441600  0.15397500  0.35332200  1
  O  O1  1  0.59648600  0.65360400  0.35212600  1
  O  O2  1  0.40558500  0.34602500  0.64667900  1
  O  O3  1  0.40351400  0.84639600  0.64787400  1
  O  O4  1  0.75269000  0.38847200  0.84571400  1
  O  O5  1  0.75197600  0.88866200  0.84623700  1
  O  O6  1  0.24731200  0.11152700  0.15428700  1
  O  O7  1  0.24802300  0.61133800  0.15376200  1
  F  F0  1  0.15908400  0.22480200  0.85142300  1
  F  F1  1  0.15892700  0.72451100  0.85163200  1
  F  F2  1  0.84091500  0.27519800  0.14857700  1
  F  F3  1  0.84107400  0.77548900  0.14836800  1
  F  F4  1  0.83504100  0.32895400  0.44400700  1
  F  F5  1  0.83498400  0.82913400  0.44385700  1
  F  F6  1  0.16495800  0.17104600  0.55599300  1
  F  F7  1  0.16501700  0.67086600  0.55614200  1
  F  F8  1  0.22174100  0.05937600  0.77381400  1
  F  F9  1  0.22171400  0.55904400  0.77406800  1
  F  F10  1  0.77826000  0.44062400  0.22618600  1
  F  F11  1  0.77828600  0.94095600  0.22593200  1
  F  F12  1  0.22625200  0.45583000  0.39577800  1
  F  F13  1  0.22620400  0.95633700  0.39517400  1
  F  F14  1  0.77374800  0.04417000  0.60422200  1
  F  F15  1  0.77379600  0.54366300  0.60482600  1
  F  F16  1  0.71767500  0.20685400  0.67540900  1
  F  F17  1  0.71680900  0.70620100  0.67481900  1
  F  F18  1  0.28232400  0.29314600  0.32459100  1
  F  F19  1  0.28319300  0.79380000  0.32518100  1
  F  F20  1  0.23627000  0.40072700  0.09576700  1
  F  F21  1  0.23590300  0.90107500  0.09559000  1
  F  F22  1  0.76373000  0.09927300  0.90423300  1
  F  F23  1  0.76409700  0.59892500  0.90441000  1
loop_
_geom_bond_atom_site_label_1
_geom_bond_atom_site_label_2
_geom_bond_distance
_geom_bond_site_symmetry_2
Co0 O3 2.071634 1_555
Co0 O1 2.071634 1_555
Co0 F7 2.092897 1_555
Co0 F5 2.092903 1_555
Co0 F17 2.094842 1_555
Co0 F19 2.094843 1_555
Co1 O2 2.057279 1_555
Co1 O0 2.057280 1_555
Co1 F6 2.091305 1_555
Co1 F4 2.091308 1_555
Co1 F18 2.096555 1_555
Co1 F16 2.096558 1_555
O0 S2 1.474015 1_555
O1 S3 1.474301 1_555
O2 S0 1.474005 1_555
O3 S1 1.474286 1_555
O4 S0 1.436909 1_555
O5 S1 1.437359 1_555
O6 S2 1.436887 1_555
O7 S3 1.437368 1_555
F0 Sb0 1.898618 1_455
F1 Sb1 1.898758 1_455
F2 Sb2 1.898620 1_655
F3 Sb3 1.898756 1_655
F4 Sb2 1.986457 1_655
F5 Sb3 1.986796 1_655
F6 Sb0 1.986455 1_455
F7 Sb1 1.986806 1_455
F8 Sb0 1.897968 1_455
F9 Sb1 1.897116 1_455
F10 Sb2 1.897964 1_655
F11 Sb3 1.897116 1_655
F12 Sb2 1.906031 1_555
F13 Sb3 1.905720 1_555
F14 Sb0 1.906031 1_555
F15 Sb1 1.905720 1_555
F16 Sb0 1.979866 1_555
F17 Sb1 1.982298 1_555
F18 Sb2 1.979862 1_555
F19 Sb3 1.982294 1_555
F20 Sb2 1.899875 1_555
F21 Sb3 1.899691 1_555
F22 Sb0 1.899875 1_555
F23 Sb1 1.899691 1_555
