# generated using pymatgen
data_Sc5As3
_symmetry_space_group_name_H-M   'P 1'
_cell_length_a   7.25626587
_cell_length_b   8.15646335
_cell_length_c   10.75775913
_cell_angle_alpha   90.00000000
_cell_angle_beta   90.00000000
_cell_angle_gamma   90.00000000
_symmetry_Int_Tables_number   1
_chemical_formula_structural   Sc5As3
_chemical_formula_sum   'Sc20 As12'
_cell_volume   636.70299396
_cell_formula_units_Z   4
loop_
 _symmetry_equiv_pos_site_id
 _symmetry_equiv_pos_as_xyz
  1  'x, y, z'
loop_
 _atom_site_type_symbol
 _atom_site_label
 _atom_site_symmetry_multiplicity
 _atom_site_fract_x
 _atom_site_fract_y
 _atom_site_fract_z
 _atom_site_occupancy
  Sc  Sc0  1  0.80961994  0.94650564  0.92871576  1
  Sc  Sc1  1  0.30961994  0.05349436  0.57128424  1
  Sc  Sc2  1  0.19038006  0.44650564  0.07128424  1
  Sc  Sc3  1  0.69038006  0.55349436  0.42871576  1
  Sc  Sc4  1  0.19038006  0.05349436  0.07128424  1
  Sc  Sc5  1  0.69038006  0.94650564  0.42871576  1
  Sc  Sc6  1  0.80961994  0.55349436  0.92871576  1
  Sc  Sc7  1  0.30961994  0.44650564  0.57128424  1
  Sc  Sc8  1  0.16515172  0.75000000  0.77801339  1
  Sc  Sc9  1  0.66515172  0.25000000  0.72198661  1
  Sc  Sc10  1  0.83484828  0.25000000  0.22198661  1
  Sc  Sc11  1  0.33484828  0.75000000  0.27801339  1
  Sc  Sc12  1  0.47047386  0.75000000  0.99587279  1
  Sc  Sc13  1  0.97047386  0.25000000  0.50412721  1
  Sc  Sc14  1  0.52952614  0.25000000  0.00412721  1
  Sc  Sc15  1  0.02952614  0.75000000  0.49587279  1
  Sc  Sc16  1  0.65122989  0.75000000  0.70625756  1
  Sc  Sc17  1  0.15122989  0.25000000  0.79374244  1
  Sc  Sc18  1  0.34877011  0.25000000  0.29374244  1
  Sc  Sc19  1  0.84877011  0.75000000  0.20625756  1
  As  As0  1  0.41604900  0.75000000  0.51879226  1
  As  As1  1  0.91604900  0.25000000  0.98120774  1
  As  As2  1  0.58395100  0.25000000  0.48120774  1
  As  As3  1  0.08395100  0.75000000  0.01879226  1
  As  As4  1  0.93686673  0.50936275  0.67257119  1
  As  As5  1  0.43686673  0.49063725  0.82742881  1
  As  As6  1  0.06313327  0.00936275  0.32742881  1
  As  As7  1  0.56313327  0.99063725  0.17257119  1
  As  As8  1  0.06313327  0.49063725  0.32742881  1
  As  As9  1  0.56313327  0.50936275  0.17257119  1
  As  As10  1  0.93686673  0.99063725  0.67257119  1
  As  As11  1  0.43686673  0.00936275  0.82742881  1
loop_
_geom_bond_atom_site_label_1
_geom_bond_atom_site_label_2
_geom_bond_distance
_geom_bond_site_symmetry_2
As0 Sc16 2.641849 1_555
As0 Sc1 2.653884 1_565
As0 Sc7 2.653884 1_555
As0 Sc11 2.656411 1_555
As0 Sc3 2.733223 1_555
As0 Sc5 2.733223 1_555
As0 Sc15 2.815529 1_555
As0 Sc8 3.330316 1_555
As1 Sc17 2.641849 1_655
As1 Sc6 2.653884 1_555
As1 Sc0 2.653884 1_545
As1 Sc10 2.656411 1_556
As1 Sc2 2.733223 1_656
As1 Sc4 2.733223 1_656
As1 Sc14 2.815529 1_556
As1 Sc9 3.330316 1_555
As2 Sc18 2.641849 1_555
As2 Sc5 2.653884 1_545
As2 Sc3 2.653884 1_555
As2 Sc9 2.656411 1_555
As2 Sc1 2.733223 1_555
As2 Sc7 2.733223 1_555
As2 Sc13 2.815529 1_555
As2 Sc10 3.330316 1_555
As3 Sc19 2.641849 1_455
As3 Sc4 2.653884 1_565
As3 Sc2 2.653884 1_555
As3 Sc8 2.656411 1_554
As3 Sc6 2.733223 1_454
As3 Sc0 2.733223 1_454
As3 Sc12 2.815529 1_554
As3 Sc11 3.330316 1_555
As4 Sc13 2.796135 1_555
As4 Sc8 2.807677 1_655
As4 Sc15 2.813857 1_655
As4 Sc16 2.877432 1_555
As4 Sc6 2.928332 1_555
As4 Sc17 2.931547 1_655
As4 Sc9 2.940275 1_555
As4 Sc7 2.960751 1_655
As4 Sc3 3.195382 1_555
As5 Sc12 2.796135 1_555
As5 Sc9 2.807677 1_555
As5 Sc14 2.813857 1_556
As5 Sc17 2.877432 1_555
As5 Sc7 2.928332 1_555
As5 Sc16 2.931547 1_555
As5 Sc8 2.940275 1_555
As5 Sc6 2.960751 1_555
As5 Sc2 3.195382 1_556
As6 Sc15 2.796135 1_545
As6 Sc10 2.807677 1_455
As6 Sc13 2.813857 1_455
As6 Sc18 2.877432 1_555
As6 Sc4 2.928332 1_555
As6 Sc19 2.931547 1_445
As6 Sc11 2.940275 1_545
As6 Sc5 2.960751 1_445
As6 Sc1 3.195382 1_555
As7 Sc14 2.796135 1_565
As7 Sc11 2.807677 1_555
As7 Sc12 2.813857 1_554
As7 Sc19 2.877432 1_555
As7 Sc5 2.928332 1_555
As7 Sc18 2.931547 1_565
As7 Sc10 2.940275 1_565
As7 Sc4 2.960751 1_565
As7 Sc0 3.195382 1_554
As8 Sc15 2.796135 1_555
As8 Sc10 2.807677 1_455
As8 Sc13 2.813857 1_455
As8 Sc18 2.877432 1_555
As8 Sc2 2.928332 1_555
As8 Sc19 2.931547 1_455
As8 Sc11 2.940275 1_555
As8 Sc3 2.960751 1_455
As8 Sc7 3.195382 1_555
As9 Sc14 2.796135 1_555
As9 Sc11 2.807677 1_555
As9 Sc12 2.813857 1_554
As9 Sc19 2.877432 1_555
As9 Sc3 2.928332 1_555
As9 Sc18 2.931547 1_555
As9 Sc10 2.940275 1_555
As9 Sc2 2.960751 1_555
As9 Sc6 3.195382 1_554
As10 Sc13 2.796135 1_565
As10 Sc8 2.807677 1_655
As10 Sc15 2.813857 1_655
As10 Sc16 2.877432 1_555
As10 Sc0 2.928332 1_555
As10 Sc17 2.931547 1_665
As10 Sc9 2.940275 1_565
As10 Sc1 2.960751 1_665
As10 Sc5 3.195382 1_555
As11 Sc12 2.796135 1_545
As11 Sc9 2.807677 1_555
As11 Sc14 2.813857 1_556
As11 Sc17 2.877432 1_555
As11 Sc1 2.928332 1_555
As11 Sc16 2.931547 1_545
As11 Sc8 2.940275 1_545
As11 Sc0 2.960751 1_545
As11 Sc4 3.195382 1_556
