# generated using pymatgen
data_Na4Al3(SiO4)3
_symmetry_space_group_name_H-M   'P 1'
_cell_length_a   8.95212200
_cell_length_b   8.95212200
_cell_length_c   8.95212200
_cell_angle_alpha   90.00000000
_cell_angle_beta   90.00000000
_cell_angle_gamma   90.00000000
_symmetry_Int_Tables_number   1
_chemical_formula_structural   Na4Al3(SiO4)3
_chemical_formula_sum   'Na8 Al6 Si6 O24'
_cell_volume   717.42742843
_cell_formula_units_Z   2
loop_
 _symmetry_equiv_pos_site_id
 _symmetry_equiv_pos_as_xyz
  1  'x, y, z'
loop_
 _atom_site_type_symbol
 _atom_site_label
 _atom_site_symmetry_multiplicity
 _atom_site_fract_x
 _atom_site_fract_y
 _atom_site_fract_z
 _atom_site_occupancy
  Na  Na0  1  0.17600600  0.17600600  0.17600600  1
  Na  Na1  1  0.32399400  0.67600600  0.32399400  1
  Na  Na2  1  0.32399400  0.32399400  0.67600600  1
  Na  Na3  1  0.67600600  0.32399400  0.32399400  1
  Na  Na4  1  0.82399400  0.82399400  0.17600600  1
  Na  Na5  1  0.17600600  0.82399400  0.82399400  1
  Na  Na6  1  0.82399400  0.17600600  0.82399400  1
  Na  Na7  1  0.67600600  0.67600600  0.67600600  1
  Al  Al0  1  0.25000000  0.00000000  0.50000000  1
  Al  Al1  1  0.00000000  0.50000000  0.75000000  1
  Al  Al2  1  0.00000000  0.50000000  0.25000000  1
  Al  Al3  1  0.50000000  0.25000000  0.00000000  1
  Al  Al4  1  0.50000000  0.75000000  0.00000000  1
  Al  Al5  1  0.75000000  0.00000000  0.50000000  1
  Si  Si0  1  0.25000000  0.50000000  0.00000000  1
  Si  Si1  1  0.50000000  0.00000000  0.75000000  1
  Si  Si2  1  0.50000000  0.00000000  0.25000000  1
  Si  Si3  1  0.00000000  0.25000000  0.50000000  1
  Si  Si4  1  0.00000000  0.75000000  0.50000000  1
  Si  Si5  1  0.75000000  0.50000000  0.00000000  1
  O  O0  1  0.14915000  0.43601000  0.13895100  1
  O  O1  1  0.35085000  0.63895100  0.06399000  1
  O  O2  1  0.35085000  0.36104900  0.93601000  1
  O  O3  1  0.36104900  0.06399000  0.64915000  1
  O  O4  1  0.63895100  0.06399000  0.35085000  1
  O  O5  1  0.93601000  0.35085000  0.36104900  1
  O  O6  1  0.06399000  0.64915000  0.36104900  1
  O  O7  1  0.13895100  0.14915000  0.43601000  1
  O  O8  1  0.43601000  0.13895100  0.14915000  1
  O  O9  1  0.56399000  0.86104900  0.14915000  1
  O  O10  1  0.13895100  0.85085000  0.56399000  1
  O  O11  1  0.56399000  0.13895100  0.85085000  1
  O  O12  1  0.86104900  0.85085000  0.43601000  1
  O  O13  1  0.86104900  0.14915000  0.56399000  1
  O  O14  1  0.43601000  0.86104900  0.85085000  1
  O  O15  1  0.14915000  0.56399000  0.86104900  1
  O  O16  1  0.85085000  0.43601000  0.86104900  1
  O  O17  1  0.85085000  0.56399000  0.13895100  1
  O  O18  1  0.06399000  0.35085000  0.63895100  1
  O  O19  1  0.93601000  0.64915000  0.63895100  1
  O  O20  1  0.36104900  0.93601000  0.35085000  1
  O  O21  1  0.63895100  0.93601000  0.64915000  1
  O  O22  1  0.64915000  0.36104900  0.06399000  1
  O  O23  1  0.64915000  0.63895100  0.93601000  1
loop_
_geom_bond_atom_site_label_1
_geom_bond_atom_site_label_2
_geom_bond_distance
_geom_bond_site_symmetry_2
Na0 O8 2.363367 1_555
Na0 O0 2.363367 1_555
Na0 O7 2.363367 1_555
Na1 O20 2.363367 1_555
Na1 O6 2.363367 1_555
Na1 O1 2.363367 1_555
Na2 O2 2.363367 1_555
Na2 O3 2.363367 1_555
Na2 O18 2.363367 1_555
Na3 O22 2.363367 1_555
Na3 O5 2.363367 1_555
Na3 O4 2.363367 1_555
Na4 O12 2.363367 1_555
Na4 O9 2.363367 1_555
Na4 O17 2.363367 1_555
Na5 O10 2.363367 1_555
Na5 O15 2.363367 1_555
Na5 O14 2.363367 1_555
Na6 O13 2.363367 1_555
Na6 O11 2.363367 1_555
Na6 O16 2.363367 1_555
Na7 O21 2.363367 1_555
Na7 O23 2.363367 1_555
Na7 O19 2.363367 1_555
Al0 O10 1.760460 1_545
Al0 O7 1.760460 1_555
Al0 O20 1.760460 1_545
Al0 O3 1.760460 1_555
Al1 O16 1.760460 1_455
Al1 O15 1.760460 1_555
Al1 O19 1.760460 1_455
Al1 O18 1.760460 1_555
Al2 O0 1.760460 1_555
Al2 O17 1.760460 1_455
Al2 O5 1.760460 1_455
Al2 O6 1.760460 1_555
Al3 O8 1.760460 1_555
Al3 O22 1.760460 1_555
Al3 O11 1.760460 1_554
Al3 O2 1.760460 1_554
Al4 O23 1.760460 1_554
Al4 O14 1.760460 1_554
Al4 O9 1.760460 1_555
Al4 O1 1.760460 1_555
Al5 O13 1.760460 1_555
Al5 O21 1.760460 1_545
Al5 O12 1.760460 1_545
Al5 O4 1.760460 1_555
O0 Si0 1.640287 1_555
O1 Si0 1.640287 1_555
O2 Si0 1.640287 1_556
O3 Si1 1.640287 1_555
O4 Si2 1.640287 1_555
O5 Si3 1.640287 1_655
O6 Si4 1.640287 1_555
O7 Si3 1.640287 1_555
O8 Si2 1.640287 1_555
O9 Si2 1.640287 1_565
O10 Si4 1.640287 1_555
O11 Si1 1.640287 1_555
O12 Si4 1.640287 1_655
O13 Si3 1.640287 1_655
O14 Si1 1.640287 1_565
O15 Si0 1.640287 1_556
O16 Si5 1.640287 1_556
O17 Si5 1.640287 1_555
O18 Si3 1.640287 1_555
O19 Si4 1.640287 1_655
O20 Si2 1.640287 1_565
O21 Si1 1.640287 1_565
O22 Si5 1.640287 1_555
O23 Si5 1.640287 1_556
