# generated using pymatgen
data_Li2Ti6PbO14
_symmetry_space_group_name_H-M   'P 1'
_cell_length_a   10.11515039
_cell_length_b   10.11515009
_cell_length_c   11.58463147
_cell_angle_alpha   90.00000000
_cell_angle_beta   90.00000000
_cell_angle_gamma   112.49334189
_symmetry_Int_Tables_number   1
_chemical_formula_structural   Li2Ti6PbO14
_chemical_formula_sum   'Li8 Ti24 Pb4 O56'
_cell_volume   1095.12361625
_cell_formula_units_Z   4
loop_
 _symmetry_equiv_pos_site_id
 _symmetry_equiv_pos_as_xyz
  1  'x, y, z'
loop_
 _atom_site_type_symbol
 _atom_site_label
 _atom_site_symmetry_multiplicity
 _atom_site_fract_x
 _atom_site_fract_y
 _atom_site_fract_z
 _atom_site_occupancy
  Li  Li0  1  0.05894792  0.43133735  0.12363793  1
  Li  Li1  1  0.44105208  0.06866265  0.62363793  1
  Li  Li2  1  0.55894792  0.93133735  0.37636207  1
  Li  Li3  1  0.93133735  0.55894792  0.37636207  1
  Li  Li4  1  0.56866265  0.94105208  0.87636207  1
  Li  Li5  1  0.94105208  0.56866265  0.87636207  1
  Li  Li6  1  0.06866265  0.44105208  0.62363793  1
  Li  Li7  1  0.43133735  0.05894792  0.12363793  1
  Ti  Ti0  1  0.98929756  0.77521216  0.11696418  1
  Ti  Ti1  1  0.75678030  0.25678030  0.75000000  1
  Ti  Ti2  1  0.76897892  0.98662783  0.63556561  1
  Ti  Ti3  1  0.25678030  0.75678030  0.75000000  1
  Ti  Ti4  1  0.51337217  0.73102108  0.13556561  1
  Ti  Ti5  1  0.74321970  0.24321970  0.25000000  1
  Ti  Ti6  1  0.25636964  0.74363036  0.00000000  1
  Ti  Ti7  1  0.22478784  0.01070244  0.88303582  1
  Ti  Ti8  1  0.24363036  0.75636964  0.50000000  1
  Ti  Ti9  1  0.24321970  0.74321970  0.25000000  1
  Ti  Ti10  1  0.98662783  0.76897892  0.63556561  1
  Ti  Ti11  1  0.01070244  0.22478784  0.88303582  1
  Ti  Ti12  1  0.77521216  0.98929756  0.11696418  1
  Ti  Ti13  1  0.74363036  0.25636964  0.00000000  1
  Ti  Ti14  1  0.27521216  0.48929756  0.38303582  1
  Ti  Ti15  1  0.75636964  0.24363036  0.50000000  1
  Ti  Ti16  1  0.48662783  0.26897892  0.86443439  1
  Ti  Ti17  1  0.73102108  0.51337217  0.13556561  1
  Ti  Ti18  1  0.01337217  0.23102108  0.36443439  1
  Ti  Ti19  1  0.72478784  0.51070244  0.61696418  1
  Ti  Ti20  1  0.23102108  0.01337217  0.36443439  1
  Ti  Ti21  1  0.48929756  0.27521216  0.38303582  1
  Ti  Ti22  1  0.51070244  0.72478784  0.61696418  1
  Ti  Ti23  1  0.26897892  0.48662783  0.86443439  1
  Pb  Pb0  1  0.34179819  0.34179819  0.12038423  1
  Pb  Pb1  1  0.15820181  0.15820181  0.62038423  1
  Pb  Pb2  1  0.65820181  0.65820181  0.87961577  1
  Pb  Pb3  1  0.84179819  0.84179819  0.37961577  1
  O  O0  1  0.64021846  0.85743019  0.73771445  1
  O  O1  1  0.14021846  0.35743019  0.76228555  1
  O  O2  1  0.13982840  0.35583227  0.48527554  1
  O  O3  1  0.61903847  0.14583178  0.37732719  1
  O  O4  1  0.86017160  0.64416773  0.51472446  1
  O  O5  1  0.64416773  0.86017160  0.51472446  1
  O  O6  1  0.12020846  0.65161233  0.62745842  1
  O  O7  1  0.36385786  0.62890053  0.25021555  1
  O  O8  1  0.38096153  0.85416822  0.62267281  1
  O  O9  1  0.41099458  0.41099458  0.36948781  1
  O  O10  1  0.88096153  0.35416822  0.87732719  1
  O  O11  1  0.35978154  0.14256981  0.26228555  1
  O  O12  1  0.58900542  0.58900542  0.63051219  1
  O  O13  1  0.86627751  0.13372249  0.00000000  1
  O  O14  1  0.63614214  0.37109947  0.74978445  1
  O  O15  1  0.37109947  0.63614214  0.74978445  1
  O  O16  1  0.41729943  0.41729943  0.87857567  1
  O  O17  1  0.58270057  0.58270057  0.12142433  1
  O  O18  1  0.08900542  0.08900542  0.86948781  1
  O  O19  1  0.62890053  0.36385786  0.25021555  1
  O  O20  1  0.84838767  0.37979154  0.12745842  1
  O  O21  1  0.36627751  0.63372249  0.50000000  1
  O  O22  1  0.37979154  0.84838767  0.12745842  1
  O  O23  1  0.14416773  0.36017160  0.98527554  1
  O  O24  1  0.86910502  0.13089498  0.50000000  1
  O  O25  1  0.36017160  0.14416773  0.98527554  1
  O  O26  1  0.62020846  0.15161233  0.87254158  1
  O  O27  1  0.36910502  0.63089498  0.00000000  1
  O  O28  1  0.34838767  0.87979154  0.37254158  1
  O  O29  1  0.08270057  0.08270057  0.37857567  1
  O  O30  1  0.13089498  0.86910502  0.50000000  1
  O  O31  1  0.91729943  0.91729943  0.62142433  1
  O  O32  1  0.13372249  0.86627751  0.00000000  1
  O  O33  1  0.35583227  0.13982840  0.48527554  1
  O  O34  1  0.11903847  0.64583178  0.12267281  1
  O  O35  1  0.15161233  0.62020846  0.87254158  1
  O  O36  1  0.63372249  0.36627751  0.50000000  1
  O  O37  1  0.64256981  0.85978154  0.23771445  1
  O  O38  1  0.65161233  0.12020846  0.62745842  1
  O  O39  1  0.63982840  0.85583227  0.01472446  1
  O  O40  1  0.13614214  0.87109947  0.75021555  1
  O  O41  1  0.87979154  0.34838767  0.37254158  1
  O  O42  1  0.91099458  0.91099458  0.13051219  1
  O  O43  1  0.85583227  0.63982840  0.01472446  1
  O  O44  1  0.87109947  0.13614214  0.75021555  1
  O  O45  1  0.64583178  0.11903847  0.12267281  1
  O  O46  1  0.14583178  0.61903847  0.37732719  1
  O  O47  1  0.14256981  0.35978154  0.26228555  1
  O  O48  1  0.85416822  0.38096153  0.62267281  1
  O  O49  1  0.85743019  0.64021846  0.73771445  1
  O  O50  1  0.35416822  0.88096153  0.87732719  1
  O  O51  1  0.86385786  0.12890053  0.24978445  1
  O  O52  1  0.63089498  0.36910502  0.00000000  1
  O  O53  1  0.85978154  0.64256981  0.23771445  1
  O  O54  1  0.12890053  0.86385786  0.24978445  1
  O  O55  1  0.35743019  0.14021846  0.76228555  1
loop_
_geom_bond_atom_site_label_1
_geom_bond_atom_site_label_2
_geom_bond_distance
_geom_bond_site_symmetry_2
Li0 O20 1.990068 1_455
Li0 O34 2.016897 1_555
Li0 O47 2.070653 1_555
Li0 O23 2.074912 1_554
Li1 O38 1.990068 1_555
Li1 O8 2.016897 1_545
Li1 O55 2.070653 1_555
Li1 O33 2.074912 1_555
Li2 O28 1.990068 1_555
Li2 O3 2.016897 1_565
Li2 O37 2.070653 1_555
Li2 O5 2.074912 1_555
Li3 O41 1.990068 1_555
Li3 O46 2.016897 1_655
Li3 O53 2.070653 1_555
Li3 O4 2.074912 1_555
Li4 O26 1.990068 1_565
Li4 O50 2.016897 1_555
Li4 O0 2.070653 1_555
Li4 O39 2.074912 1_556
Li5 O35 1.990068 1_655
Li5 O10 2.016897 1_555
Li5 O49 2.070653 1_555
Li5 O43 2.074912 1_556
Li6 O6 1.990068 1_555
Li6 O48 2.016897 1_455
Li6 O1 2.070653 1_555
Li6 O2 2.074912 1_555
Li7 O22 1.990068 1_545
Li7 O45 2.016897 1_555
Li7 O11 2.070653 1_555
Li7 O25 2.074912 1_554
O0 Ti2 1.871409 1_555
O0 Ti22 2.031820 1_555
O0 Pb2 2.660269 1_555
O1 Ti23 1.871409 1_555
O1 Ti11 2.031820 1_555
O1 Pb1 2.660269 1_555
O2 Ti14 1.919931 1_555
O2 Ti18 1.988497 1_555
O2 Pb1 2.600935 1_555
O3 Ti5 1.943496 1_555
O3 Ti15 1.968857 1_555
O3 Ti21 2.180244 1_555
O4 Ti19 1.919931 1_555
O4 Ti10 1.988497 1_555
O4 Pb3 2.600935 1_555
O5 Ti22 1.919931 1_555
O5 Ti2 1.988497 1_555
O5 Pb3 2.600935 1_555
O6 Ti8 1.961996 1_555
O6 Ti3 1.982639 1_555
O6 Ti10 2.114548 1_455
O7 Ti9 1.976339 1_555
O7 Ti4 1.980649 1_555
O7 Ti14 2.048595 1_555
O8 Ti3 1.943496 1_555
O8 Ti8 1.968857 1_555
O8 Ti22 2.180244 1_555
O9 Ti21 1.835954 1_555
O9 Ti14 1.835954 1_555
O10 Ti1 1.943496 1_555
O10 Ti13 1.968857 1_556
O10 Ti11 2.180244 1_655
O11 Ti20 1.871409 1_555
O11 Ti21 2.031820 1_555
O11 Pb0 2.660269 1_555
O12 Ti22 1.835954 1_555
O12 Ti19 1.835954 1_555
O13 Ti12 1.946539 1_545
O13 Ti11 1.946539 1_654
O13 Ti13 2.062953 1_555
O14 Ti1 1.976339 1_555
O14 Ti16 1.980649 1_555
O14 Ti19 2.048595 1_555
O15 Ti3 1.976338 1_555
O15 Ti23 1.980649 1_555
O15 Ti22 2.048595 1_555
O16 Ti16 1.890630 1_555
O16 Ti23 1.890630 1_555
O16 Pb2 2.707849 1_555
O17 Ti4 1.890630 1_555
O17 Ti17 1.890630 1_555
O17 Pb0 2.707849 1_555
O18 Ti11 1.835954 1_555
O18 Ti7 1.835954 1_555
O19 Ti5 1.976338 1_555
O19 Ti17 1.980649 1_555
O19 Ti21 2.048595 1_555
O20 Ti13 1.961996 1_555
O20 Ti5 1.982639 1_555
O20 Ti17 2.114548 1_555
O21 Ti14 1.946539 1_555
O21 Ti22 1.946539 1_555
O21 Ti8 2.062953 1_555
O22 Ti6 1.961996 1_555
O22 Ti9 1.982639 1_555
O22 Ti4 2.114548 1_555
O23 Ti11 1.919931 1_555
O23 Ti23 1.988497 1_555
O23 Pb0 2.600935 1_556
O24 Ti15 1.896235 1_555
O24 Ti2 2.119150 1_545
O24 Ti18 2.119150 1_655
O25 Ti7 1.919931 1_555
O25 Ti16 1.988497 1_555
O25 Pb0 2.600935 1_556
O26 Ti13 1.961996 1_556
O26 Ti1 1.982639 1_555
O26 Ti16 2.114548 1_555
O27 Ti6 1.896235 1_555
O27 Ti23 2.119150 1_554
O27 Ti4 2.119150 1_555
O28 Ti8 1.961996 1_555
O28 Ti9 1.982639 1_555
O28 Ti20 2.114548 1_565
O29 Ti18 1.890630 1_555
O29 Ti20 1.890630 1_555
O29 Pb3 2.707849 1_445
O30 Ti8 1.896235 1_555
O30 Ti20 2.119150 1_565
O30 Ti10 2.119150 1_455
O31 Ti10 1.890630 1_555
O31 Ti2 1.890630 1_555
O31 Pb1 2.707849 1_665
O32 Ti7 1.946539 1_564
O32 Ti0 1.946539 1_455
O32 Ti6 2.062953 1_555
O33 Ti21 1.919931 1_555
O33 Ti20 1.988497 1_555
O33 Pb1 2.600935 1_555
O34 Ti9 1.943496 1_555
O34 Ti6 1.968857 1_555
O34 Ti0 2.180244 1_455
O35 Ti6 1.961996 1_556
O35 Ti3 1.982639 1_555
O35 Ti23 2.114548 1_555
O36 Ti19 1.946539 1_555
O36 Ti21 1.946539 1_555
O36 Ti15 2.062953 1_555
O37 Ti4 1.871409 1_555
O37 Ti12 2.031820 1_555
O37 Pb3 2.660269 1_555
O38 Ti15 1.961996 1_555
O38 Ti1 1.982639 1_555
O38 Ti2 2.114548 1_545
O39 Ti12 1.919931 1_555
O39 Ti4 1.988497 1_555
O39 Pb2 2.600935 1_554
O40 Ti3 1.976339 1_555
O40 Ti10 1.980649 1_455
O40 Ti7 2.048595 1_565
O41 Ti15 1.961996 1_555
O41 Ti5 1.982639 1_555
O41 Ti18 2.114548 1_655
O42 Ti0 1.835954 1_555
O42 Ti12 1.835954 1_555
O43 Ti0 1.919931 1_555
O43 Ti17 1.988497 1_555
O43 Pb2 2.600935 1_554
O44 Ti1 1.976338 1_555
O44 Ti2 1.980649 1_545
O44 Ti11 2.048595 1_655
O45 Ti5 1.943496 1_555
O45 Ti13 1.968857 1_555
O45 Ti12 2.180244 1_545
O46 Ti9 1.943496 1_555
O46 Ti8 1.968857 1_555
O46 Ti14 2.180244 1_555
O47 Ti18 1.871409 1_555
O47 Ti14 2.031820 1_555
O47 Pb0 2.660269 1_555
O48 Ti1 1.943496 1_555
O48 Ti15 1.968857 1_555
O48 Ti19 2.180244 1_555
O49 Ti10 1.871409 1_555
O49 Ti19 2.031820 1_555
O49 Pb2 2.660269 1_555
O50 Ti3 1.943496 1_555
O50 Ti6 1.968857 1_556
O50 Ti7 2.180244 1_565
O51 Ti5 1.976339 1_555
O51 Ti18 1.980649 1_655
O51 Ti12 2.048595 1_545
O52 Ti13 1.896235 1_555
O52 Ti17 2.119150 1_555
O52 Ti16 2.119150 1_554
O53 Ti17 1.871409 1_555
O53 Ti0 2.031820 1_555
O53 Pb3 2.660269 1_555
O54 Ti9 1.976338 1_555
O54 Ti20 1.980649 1_565
O54 Ti0 2.048595 1_455
O55 Ti16 1.871409 1_555
O55 Ti7 2.031820 1_555
O55 Pb1 2.660269 1_555
