# generated using pymatgen
data_RePCl8O
_symmetry_space_group_name_H-M   'P 1'
_cell_length_a   8.39701400
_cell_length_b   9.10644600
_cell_length_c   17.11422600
_cell_angle_alpha   90.00000000
_cell_angle_beta   90.00000000
_cell_angle_gamma   90.00000000
_symmetry_Int_Tables_number   1
_chemical_formula_structural   RePCl8O
_chemical_formula_sum   'Re4 P4 Cl32 O4'
_cell_volume   1308.67274174
_cell_formula_units_Z   4
loop_
 _symmetry_equiv_pos_site_id
 _symmetry_equiv_pos_as_xyz
  1  'x, y, z'
loop_
 _atom_site_type_symbol
 _atom_site_label
 _atom_site_symmetry_multiplicity
 _atom_site_fract_x
 _atom_site_fract_y
 _atom_site_fract_z
 _atom_site_occupancy
  Re  Re0  1  0.25000000  0.92309700  0.14803900  1
  Re  Re1  1  0.75000000  0.07690300  0.85196100  1
  Re  Re2  1  0.75000000  0.42309700  0.35196100  1
  Re  Re3  1  0.25000000  0.57690300  0.64803900  1
  P  P0  1  0.75000000  0.78245200  0.42289600  1
  P  P1  1  0.25000000  0.28245200  0.07710400  1
  P  P2  1  0.75000000  0.71754800  0.92289600  1
  P  P3  1  0.25000000  0.21754800  0.57710400  1
  Cl  Cl0  1  0.06093300  0.13267900  0.62961700  1
  Cl  Cl1  1  0.56093300  0.86732100  0.37038300  1
  Cl  Cl2  1  0.75000000  0.21149300  0.96715800  1
  Cl  Cl3  1  0.47831400  0.44515000  0.35908600  1
  Cl  Cl4  1  0.52168600  0.55485000  0.64091400  1
  Cl  Cl5  1  0.43906700  0.13267900  0.62961700  1
  Cl  Cl6  1  0.56093300  0.63267900  0.87038300  1
  Cl  Cl7  1  0.93906700  0.86732100  0.37038300  1
  Cl  Cl8  1  0.52168600  0.94515000  0.14091400  1
  Cl  Cl9  1  0.25000000  0.14037200  0.46892100  1
  Cl  Cl10  1  0.75000000  0.21924600  0.27766700  1
  Cl  Cl11  1  0.75000000  0.57468900  0.24113000  1
  Cl  Cl12  1  0.02168600  0.44515000  0.35908600  1
  Cl  Cl13  1  0.02168600  0.05485000  0.85908600  1
  Cl  Cl14  1  0.97831400  0.55485000  0.64091400  1
  Cl  Cl15  1  0.75000000  0.85962800  0.53107900  1
  Cl  Cl16  1  0.43906700  0.36732100  0.12961700  1
  Cl  Cl17  1  0.06093300  0.36732100  0.12961700  1
  Cl  Cl18  1  0.75000000  0.28850700  0.46715800  1
  Cl  Cl19  1  0.93906700  0.63267900  0.87038300  1
  Cl  Cl20  1  0.25000000  0.78850700  0.03284200  1
  Cl  Cl21  1  0.25000000  0.35962800  0.96892100  1
  Cl  Cl22  1  0.25000000  0.71924600  0.22233300  1
  Cl  Cl23  1  0.75000000  0.92531100  0.74113000  1
  Cl  Cl24  1  0.97831400  0.94515000  0.14091400  1
  Cl  Cl25  1  0.75000000  0.64037200  0.03107900  1
  Cl  Cl26  1  0.25000000  0.78075400  0.72233300  1
  Cl  Cl27  1  0.25000000  0.42531100  0.75887000  1
  Cl  Cl28  1  0.47831400  0.05485000  0.85908600  1
  Cl  Cl29  1  0.25000000  0.07468900  0.25887000  1
  Cl  Cl30  1  0.25000000  0.71149300  0.53284200  1
  Cl  Cl31  1  0.75000000  0.28075400  0.77766700  1
  O  O0  1  0.25000000  0.11815600  0.07512700  1
  O  O1  1  0.75000000  0.88184400  0.92487300  1
  O  O2  1  0.25000000  0.38184400  0.57512700  1
  O  O3  1  0.75000000  0.61815600  0.42487300  1
loop_
_geom_bond_atom_site_label_1
_geom_bond_atom_site_label_2
_geom_bond_distance
_geom_bond_site_symmetry_2
Cl0 P3 1.981280 1_555
Cl1 P0 1.981280 1_555
Cl2 Re1 2.321428 1_555
Cl3 Re2 2.293417 1_555
Cl4 Re3 2.293417 1_555
Cl5 P3 1.981280 1_555
Cl6 P2 1.981280 1_555
Cl7 P0 1.981280 1_555
Cl8 Re0 2.293417 1_555
Cl9 P3 1.980369 1_555
Cl10 Re2 2.250053 1_555
Cl11 Re2 2.345950 1_555
Cl12 Re2 2.293417 1_455
Cl13 Re1 2.293417 1_455
Cl14 Re3 2.293417 1_655
Cl15 P0 1.980369 1_555
Cl16 P1 1.981280 1_555
Cl17 P1 1.981280 1_555
Cl18 Re2 2.321428 1_555
Cl19 P2 1.981280 1_555
Cl20 Re0 2.321428 1_555
Cl21 P1 1.980369 1_556
Cl22 Re0 2.250053 1_555
Cl23 Re1 2.345950 1_565
Cl24 Re0 2.293417 1_655
Cl25 P2 1.980369 1_554
Cl26 Re3 2.250053 1_555
Cl27 Re3 2.345950 1_555
Cl28 Re1 2.293417 1_555
Cl29 Re0 2.345950 1_545
Cl30 Re3 2.321428 1_555
Cl31 Re1 2.250053 1_555
O0 P1 1.496535 1_555
O0 Re0 2.170785 1_545
O1 P2 1.496535 1_555
O1 Re1 2.170785 1_565
O2 P3 1.496535 1_555
O2 Re3 2.170785 1_555
O3 P0 1.496535 1_555
O3 Re2 2.170785 1_555
