# generated using pymatgen
data_KBrF4
_symmetry_space_group_name_H-M   'P 1'
_cell_length_a   7.60437203
_cell_length_b   7.60437203
_cell_length_c   7.60437203
_cell_angle_alpha   133.06183090
_cell_angle_beta   133.06183090
_cell_angle_gamma   68.55706284
_symmetry_Int_Tables_number   1
_chemical_formula_structural   KBrF4
_chemical_formula_sum   'K2 Br2 F8'
_cell_volume   230.52256666
_cell_formula_units_Z   2
loop_
 _symmetry_equiv_pos_site_id
 _symmetry_equiv_pos_as_xyz
  1  'x, y, z'
loop_
 _atom_site_type_symbol
 _atom_site_label
 _atom_site_symmetry_multiplicity
 _atom_site_fract_x
 _atom_site_fract_y
 _atom_site_fract_z
 _atom_site_occupancy
  K  K0  1  0.00000000  0.00000000  0.00000000  1
  K  K1  1  0.50000000  0.50000000  0.00000000  1
  Br  Br0  1  0.75000000  0.25000000  0.50000000  1
  Br  Br1  1  0.25000000  0.75000000  0.50000000  1
  F  F0  1  0.02687700  0.52687700  0.80358100  1
  F  F1  1  0.27670400  0.77670400  0.80358100  1
  F  F2  1  0.22329600  0.02687700  0.50000000  1
  F  F3  1  0.52687700  0.72329600  0.50000000  1
  F  F4  1  0.77670400  0.97312300  0.50000000  1
  F  F5  1  0.97312300  0.47312300  0.19641900  1
  F  F6  1  0.72329600  0.22329600  0.19641900  1
  F  F7  1  0.47312300  0.27670400  0.50000000  1
loop_
_geom_bond_atom_site_label_1
_geom_bond_atom_site_label_2
_geom_bond_distance
_geom_bond_site_symmetry_2
Br0 F0 2.040015 1_655
Br0 F4 2.040015 1_545
Br0 F6 2.040015 1_555
Br0 F7 2.040015 1_555
Br1 F3 2.040015 1_555
Br1 F2 2.040015 1_565
Br1 F1 2.040015 1_555
Br1 F5 2.040015 1_455
F0 K0 2.785283 1_566
F0 K1 2.785283 1_556
F1 K1 2.785283 1_556
F1 K0 2.785283 1_566
F2 K0 2.785283 1_555
F2 K1 2.785283 1_556
F3 K0 2.785283 1_666
F3 K1 2.785283 1_555
F4 K1 2.785283 1_555
F4 K0 2.785283 1_666
F5 K0 2.785283 1_655
F5 K1 2.785283 1_555
F6 K1 2.785283 1_555
F6 K0 2.785283 1_655
F7 K0 2.785283 1_555
F7 K1 2.785283 1_556
