# generated using pymatgen
data_K2Cr2HgCl2O7
_symmetry_space_group_name_H-M   'P 1'
_cell_length_a   10.65299900
_cell_length_b   8.36077500
_cell_length_c   14.94041305
_cell_angle_alpha   58.63278872
_cell_angle_beta   90.00000000
_cell_angle_gamma   90.00000000
_symmetry_Int_Tables_number   1
_chemical_formula_structural   K2Cr2HgCl2O7
_chemical_formula_sum   'K8 Cr8 Hg4 Cl8 O28'
_cell_volume   1136.21889582
_cell_formula_units_Z   4
loop_
 _symmetry_equiv_pos_site_id
 _symmetry_equiv_pos_as_xyz
  1  'x, y, z'
loop_
 _atom_site_type_symbol
 _atom_site_label
 _atom_site_symmetry_multiplicity
 _atom_site_fract_x
 _atom_site_fract_y
 _atom_site_fract_z
 _atom_site_occupancy
  K  K0  1  0.15518300  0.87933100  0.36909800  1
  K  K1  1  0.82815100  0.58785100  0.66096200  1
  K  K2  1  0.17184900  0.41214900  0.33903800  1
  K  K3  1  0.84481700  0.12066900  0.63090200  1
  K  K4  1  0.32815100  0.41214900  0.83903800  1
  K  K5  1  0.65518300  0.12066900  0.13090200  1
  K  K6  1  0.67184900  0.58785100  0.16096200  1
  K  K7  1  0.34481700  0.87933100  0.86909800  1
  Cr  Cr0  1  0.16570300  0.34097500  0.61434900  1
  Cr  Cr1  1  0.83747600  0.06343900  0.38918400  1
  Cr  Cr2  1  0.83429700  0.65902500  0.38565100  1
  Cr  Cr3  1  0.33429700  0.34097500  0.11434900  1
  Cr  Cr4  1  0.16252400  0.93656100  0.61081600  1
  Cr  Cr5  1  0.66252400  0.06343900  0.88918400  1
  Cr  Cr6  1  0.33747600  0.93656100  0.11081600  1
  Cr  Cr7  1  0.66570300  0.65902500  0.88565100  1
  Hg  Hg0  1  0.50000000  0.00000000  0.50000000  1
  Hg  Hg1  1  0.00000000  0.00000000  0.00000000  1
  Hg  Hg2  1  0.00000000  0.50000000  0.00000000  1
  Hg  Hg3  1  0.50000000  0.50000000  0.50000000  1
  Cl  Cl0  1  0.52165300  0.06709800  0.63597600  1
  Cl  Cl1  1  0.02060800  0.43333300  0.86426000  1
  Cl  Cl2  1  0.02165300  0.93290200  0.86402400  1
  Cl  Cl3  1  0.52060800  0.56666700  0.63574000  1
  Cl  Cl4  1  0.47834700  0.93290200  0.36402400  1
  Cl  Cl5  1  0.47939200  0.43333300  0.36426000  1
  Cl  Cl6  1  0.97834700  0.06709800  0.13597600  1
  Cl  Cl7  1  0.97939200  0.56666700  0.13574000  1
  O  O0  1  0.75626300  0.19245900  0.28256900  1
  O  O1  1  0.75338800  0.01345600  0.49353000  1
  O  O2  1  0.74051100  0.50296400  0.99304600  1
  O  O3  1  0.24051100  0.49703600  0.50695400  1
  O  O4  1  0.88446700  0.84793700  0.40065900  1
  O  O5  1  0.75948900  0.50296400  0.49304600  1
  O  O6  1  0.24373700  0.80754100  0.71743100  1
  O  O7  1  0.74373700  0.19245900  0.78256900  1
  O  O8  1  0.24661200  0.98654400  0.50647000  1
  O  O9  1  0.03373500  0.83007600  0.61340300  1
  O  O10  1  0.96626500  0.16992400  0.38659700  1
  O  O11  1  0.53849000  0.56765600  0.87096000  1
  O  O12  1  0.24246700  0.26493300  0.21589900  1
  O  O13  1  0.25948900  0.49703600  0.00695400  1
  O  O14  1  0.25753300  0.26493300  0.71589900  1
  O  O15  1  0.74661200  0.01345600  0.99353000  1
  O  O16  1  0.25338800  0.98654400  0.00647000  1
  O  O17  1  0.46626500  0.83007600  0.11340300  1
  O  O18  1  0.61553300  0.84793700  0.90065900  1
  O  O19  1  0.53373500  0.16992400  0.88659700  1
  O  O20  1  0.38446700  0.15206300  0.09934100  1
  O  O21  1  0.46151000  0.43234400  0.12904000  1
  O  O22  1  0.03849000  0.43234400  0.62904000  1
  O  O23  1  0.75753300  0.73506700  0.78410100  1
  O  O24  1  0.74246700  0.73506700  0.28410100  1
  O  O25  1  0.96151000  0.56765600  0.37096000  1
  O  O26  1  0.11553300  0.15206300  0.59934100  1
  O  O27  1  0.25626300  0.80754100  0.21743100  1
loop_
_geom_bond_atom_site_label_1
_geom_bond_atom_site_label_2
_geom_bond_distance
_geom_bond_site_symmetry_2
K0 O8 2.807085 1_555
K0 O27 2.840824 1_555
K0 O3 2.903657 1_555
K0 O4 2.911956 1_455
K0 O12 2.969044 1_565
K0 O10 3.268458 1_465
K0 O25 3.312479 1_455
K1 O22 2.753966 1_655
K1 O23 2.796955 1_555
K1 O9 2.811528 1_655
K1 O7 2.963985 1_555
K1 O5 3.030851 1_555
K1 O1 3.207386 1_565
K1 O4 3.377748 1_555
K2 O25 2.753966 1_455
K2 O12 2.796955 1_555
K2 O10 2.811528 1_455
K2 O27 2.963985 1_555
K2 O3 3.030851 1_555
K2 O8 3.207386 1_545
K2 O26 3.377748 1_555
K3 O1 2.807085 1_555
K3 O7 2.840824 1_555
K3 O5 2.903657 1_555
K3 O26 2.911956 1_655
K3 O23 2.969044 1_545
K3 O9 3.268458 1_645
K3 O22 3.312479 1_655
K4 O11 2.753966 1_555
K4 O14 2.796955 1_555
K4 O19 2.811528 1_555
K4 O6 2.963985 1_555
K4 O13 3.030851 1_556
K4 O16 3.207386 1_546
K4 O20 3.377748 1_556
K5 O15 2.807085 1_554
K5 O0 2.840824 1_555
K5 O2 2.903657 1_554
K5 O20 2.911956 1_555
K5 O24 2.969044 1_545
K5 O17 3.268458 1_545
K5 O21 3.312479 1_555
K6 O21 2.753966 1_555
K6 O24 2.796955 1_555
K6 O17 2.811528 1_555
K6 O0 2.963985 1_555
K6 O2 3.030851 1_554
K6 O15 3.207386 1_564
K6 O18 3.377748 1_554
K7 O16 2.807085 1_556
K7 O6 2.840824 1_555
K7 O13 2.903657 1_556
K7 O18 2.911956 1_555
K7 O14 2.969044 1_565
K7 O19 3.268458 1_565
K7 O11 3.312479 1_555
Cr0 O22 1.625688 1_555
Cr0 O14 1.630619 1_555
Cr0 O3 1.653053 1_555
Cr0 O26 1.788653 1_555
Cr1 O10 1.625009 1_555
Cr1 O0 1.631132 1_555
Cr1 O1 1.652042 1_555
Cr1 O4 1.790186 1_545
Cr2 O25 1.625688 1_555
Cr2 O24 1.630619 1_555
Cr2 O5 1.653053 1_555
Cr2 O4 1.788653 1_555
Cr3 O21 1.625688 1_555
Cr3 O12 1.630619 1_555
Cr3 O13 1.653053 1_555
Cr3 O20 1.788653 1_555
Cr4 O9 1.625009 1_555
Cr4 O6 1.631132 1_555
Cr4 O8 1.652042 1_555
Cr4 O26 1.790186 1_565
Cr5 O19 1.625009 1_555
Cr5 O7 1.631132 1_555
Cr5 O15 1.652042 1_555
Cr5 O18 1.790186 1_545
Cr6 O17 1.625009 1_555
Cr6 O27 1.631132 1_555
Cr6 O16 1.652042 1_555
Cr6 O20 1.790186 1_565
Cr7 O11 1.625688 1_555
Cr7 O23 1.630619 1_555
Cr7 O2 1.653053 1_555
Cr7 O18 1.788653 1_555
Cl0 Hg0 2.383593 1_555
Cl0 K3 3.467414 1_555
Cl0 K7 3.528741 1_545
Cl1 Hg2 2.376656 1_556
Cl1 K4 3.313110 1_555
Cl1 K1 3.318590 1_455
Cl2 Hg1 2.383593 1_566
Cl2 K7 3.467414 1_555
Cl2 K3 3.528741 1_465
Cl3 Hg3 2.376656 1_555
Cl3 K1 3.313110 1_555
Cl3 K4 3.318590 1_555
Cl4 Hg0 2.383593 1_565
Cl4 K0 3.467414 1_555
Cl4 K5 3.528741 1_565
Cl5 Hg3 2.376656 1_555
Cl5 K2 3.313110 1_555
Cl5 K6 3.318590 1_555
Cl6 Hg1 2.383593 1_655
Cl6 K5 3.467414 1_555
Cl6 K0 3.528741 1_645
Cl7 Hg2 2.376656 1_655
Cl7 K6 3.313110 1_555
Cl7 K2 3.318590 1_655
