# generated using pymatgen
data_La21Fe8Sb7C12
_symmetry_space_group_name_H-M   'P 1'
_cell_length_a   11.63892246
_cell_length_b   11.63892246
_cell_length_c   11.63892246
_cell_angle_alpha   60.00000000
_cell_angle_beta   60.00000000
_cell_angle_gamma   60.00000000
_symmetry_Int_Tables_number   1
_chemical_formula_structural   La21Fe8Sb7C12
_chemical_formula_sum   'La21 Fe8 Sb7 C12'
_cell_volume   1114.86768458
_cell_formula_units_Z   1
loop_
 _symmetry_equiv_pos_site_id
 _symmetry_equiv_pos_as_xyz
  1  'x, y, z'
loop_
 _atom_site_type_symbol
 _atom_site_label
 _atom_site_symmetry_multiplicity
 _atom_site_fract_x
 _atom_site_fract_y
 _atom_site_fract_z
 _atom_site_occupancy
  La  La0  1  0.86713700  0.86713700  0.86713700  1
  La  La1  1  0.50000000  0.50000000  0.84419300  1
  La  La2  1  0.39858800  0.86713700  0.86713700  1
  La  La3  1  0.84419300  0.15580700  0.50000000  1
  La  La4  1  0.15580700  0.50000000  0.50000000  1
  La  La5  1  0.15580700  0.50000000  0.84419300  1
  La  La6  1  0.50000000  0.15580700  0.84419300  1
  La  La7  1  0.50000000  0.84419300  0.50000000  1
  La  La8  1  0.84419300  0.50000000  0.15580700  1
  La  La9  1  0.50000000  0.50000000  0.15580700  1
  La  La10  1  0.13286300  0.13286300  0.13286300  1
  La  La11  1  0.13286300  0.60141200  0.13286300  1
  La  La12  1  0.50000000  0.15580700  0.50000000  1
  La  La13  1  0.50000000  0.84419300  0.15580700  1
  La  La14  1  0.15580700  0.84419300  0.50000000  1
  La  La15  1  0.13286300  0.13286300  0.60141200  1
  La  La16  1  0.50000000  0.50000000  0.50000000  1
  La  La17  1  0.86713700  0.39858800  0.86713700  1
  La  La18  1  0.60141200  0.13286300  0.13286300  1
  La  La19  1  0.86713700  0.86713700  0.39858800  1
  La  La20  1  0.84419300  0.50000000  0.50000000  1
  Fe  Fe0  1  0.91063100  0.69645600  0.69645600  1
  Fe  Fe1  1  0.08936900  0.30354400  0.30354400  1
  Fe  Fe2  1  0.69645600  0.69645600  0.69645600  1
  Fe  Fe3  1  0.30354400  0.08936900  0.30354400  1
  Fe  Fe4  1  0.69645600  0.91063100  0.69645600  1
  Fe  Fe5  1  0.69645600  0.69645600  0.91063100  1
  Fe  Fe6  1  0.30354400  0.30354400  0.08936900  1
  Fe  Fe7  1  0.30354400  0.30354400  0.30354400  1
  Sb  Sb0  1  0.77451800  0.77451800  0.22548200  1
  Sb  Sb1  1  0.77451800  0.22548200  0.22548200  1
  Sb  Sb2  1  0.77451800  0.22548200  0.77451800  1
  Sb  Sb3  1  0.22548200  0.22548200  0.77451800  1
  Sb  Sb4  1  0.00000000  0.00000000  0.00000000  1
  Sb  Sb5  1  0.22548200  0.77451800  0.22548200  1
  Sb  Sb6  1  0.22548200  0.77451800  0.77451800  1
  C  C0  1  0.38985500  0.11014500  0.11014500  1
  C  C1  1  0.11014500  0.38985500  0.11014500  1
  C  C2  1  0.61014500  0.88985500  0.61014500  1
  C  C3  1  0.38985500  0.11014500  0.38985500  1
  C  C4  1  0.61014500  0.61014500  0.88985500  1
  C  C5  1  0.11014500  0.38985500  0.38985500  1
  C  C6  1  0.88985500  0.88985500  0.61014500  1
  C  C7  1  0.88985500  0.61014500  0.61014500  1
  C  C8  1  0.11014500  0.11014500  0.38985500  1
  C  C9  1  0.88985500  0.61014500  0.88985500  1
  C  C10  1  0.61014500  0.88985500  0.88985500  1
  C  C11  1  0.38985500  0.38985500  0.11014500  1
loop_
_geom_bond_atom_site_label_1
_geom_bond_atom_site_label_2
_geom_bond_distance
_geom_bond_site_symmetry_2
La0 Sb0 3.448086 1_556
La0 Sb2 3.448086 1_565
La0 Sb6 3.448086 1_655
La0 Sb4 3.787847 1_666
La1 Sb2 3.296400 1_555
La1 Sb6 3.296400 1_555
La1 La16 4.006036 1_555
La2 Sb6 3.448075 1_555
La2 Sb5 3.448084 1_556
La2 Sb3 3.448084 1_565
La2 Sb4 3.787838 1_566
La3 Sb1 3.296400 1_555
La3 Sb2 3.296400 1_555
La4 Sb3 3.296400 1_555
La4 Sb5 3.296400 1_555
La5 Sb3 3.296400 1_555
La5 Sb6 3.296400 1_555
La6 Sb3 3.296400 1_555
La6 Sb2 3.296400 1_555
La7 Sb0 3.296400 1_555
La7 Sb6 3.296400 1_555
La8 Sb1 3.296400 1_555
La8 Sb0 3.296400 1_555
La9 Sb1 3.296400 1_555
La9 Sb5 3.296400 1_555
La10 Sb3 3.448086 1_554
La10 Sb5 3.448086 1_545
La10 Sb1 3.448086 1_455
La10 Sb4 3.787847 1_555
La11 Sb5 3.448075 1_555
La11 Sb6 3.448084 1_554
La11 Sb0 3.448084 1_455
La11 Sb4 3.787838 1_565
La12 Sb1 3.296400 1_555
La12 Sb3 3.296400 1_555
La12 La16 4.006036 1_555
La13 Sb5 3.296400 1_555
La13 Sb0 3.296400 1_555
La13 La16 4.006036 1_555
La14 Sb5 3.296400 1_555
La14 Sb6 3.296400 1_555
La14 La16 4.006036 1_555
La15 Sb3 3.448075 1_555
La15 Sb2 3.448084 1_455
La15 Sb6 3.448084 1_545
La15 Sb4 3.787838 1_556
La16 La3 4.006036 1_555
La16 La9 4.006036 1_555
La16 La7 4.006036 1_555
La16 La4 4.006036 1_555
La16 La20 4.006036 1_555
La16 La8 4.006036 1_555
La16 La5 4.006036 1_555
La16 La6 4.006036 1_555
La17 Sb2 3.448075 1_555
La17 Sb1 3.448084 1_556
La17 Sb3 3.448084 1_655
La17 Sb4 3.787838 1_656
La18 Sb1 3.448075 1_555
La18 Sb0 3.448084 1_545
La18 Sb2 3.448084 1_554
La18 Sb4 3.787838 1_655
La19 Sb0 3.448075 1_555
La19 Sb1 3.448084 1_565
La19 Sb5 3.448084 1_655
La19 Sb4 3.787838 1_665
La20 Sb2 3.296400 1_555
La20 Sb0 3.296400 1_555
C0 Fe3 1.889922 1_555
C0 Fe6 1.889922 1_555
C0 La13 2.564255 1_545
C0 La6 2.564255 1_554
C0 La10 2.752218 1_555
C0 La18 2.752230 1_555
C1 Fe1 1.889922 1_555
C1 Fe6 1.889922 1_555
C1 La8 2.564255 1_455
C1 La5 2.564255 1_554
C1 La10 2.752218 1_555
C1 La11 2.752230 1_555
C2 Fe4 1.889912 1_555
C2 Fe2 1.889919 1_555
C2 La12 2.564255 1_565
C2 La7 2.564255 1_555
C2 La2 2.752223 1_555
C2 La19 2.752223 1_555
C3 Fe3 1.889912 1_555
C3 Fe7 1.889919 1_555
C3 La12 2.564255 1_555
C3 La7 2.564255 1_545
C3 La15 2.752223 1_555
C3 La18 2.752223 1_555
C4 Fe5 1.889912 1_555
C4 Fe2 1.889919 1_555
C4 La9 2.564255 1_556
C4 La1 2.564255 1_555
C4 La2 2.752223 1_555
C4 La17 2.752223 1_555
C5 Fe1 1.889912 1_555
C5 Fe7 1.889919 1_555
C5 La20 2.564255 1_455
C5 La4 2.564255 1_555
C5 La11 2.752223 1_555
C5 La15 2.752223 1_555
C6 Fe4 1.889922 1_555
C6 Fe0 1.889922 1_555
C6 La14 2.564255 1_655
C6 La3 2.564255 1_565
C6 La0 2.752218 1_555
C6 La19 2.752230 1_555
C7 Fe0 1.889912 1_555
C7 Fe2 1.889919 1_555
C7 La4 2.564255 1_655
C7 La20 2.564255 1_555
C7 La17 2.752223 1_555
C7 La19 2.752223 1_555
C8 Fe1 1.889922 1_555
C8 Fe3 1.889922 1_555
C8 La14 2.564255 1_545
C8 La3 2.564255 1_455
C8 La10 2.752218 1_555
C8 La15 2.752230 1_555
C9 Fe0 1.889922 1_555
C9 Fe5 1.889922 1_555
C9 La5 2.564255 1_655
C9 La8 2.564255 1_556
C9 La0 2.752218 1_555
C9 La17 2.752230 1_555
C10 Fe5 1.889922 1_555
C10 Fe4 1.889922 1_555
C10 La6 2.564255 1_565
C10 La13 2.564255 1_556
C10 La0 2.752218 1_555
C10 La2 2.752230 1_555
C11 Fe6 1.889912 1_555
C11 Fe7 1.889919 1_555
C11 La9 2.564255 1_555
C11 La1 2.564255 1_554
C11 La18 2.752223 1_555
C11 La11 2.752223 1_555
