# generated using pymatgen
data_UAgIO6
_symmetry_space_group_name_H-M   'P 1'
_cell_length_a   8.11303600
_cell_length_b   15.36807700
_cell_length_c   18.70758598
_cell_angle_alpha   79.36360663
_cell_angle_beta   90.00000000
_cell_angle_gamma   90.00000000
_symmetry_Int_Tables_number   1
_chemical_formula_structural   UAgIO6
_chemical_formula_sum   'U16 Ag16 I16 O96'
_cell_volume   2292.41857496
_cell_formula_units_Z   16
loop_
 _symmetry_equiv_pos_site_id
 _symmetry_equiv_pos_as_xyz
  1  'x, y, z'
loop_
 _atom_site_type_symbol
 _atom_site_label
 _atom_site_symmetry_multiplicity
 _atom_site_fract_x
 _atom_site_fract_y
 _atom_site_fract_z
 _atom_site_occupancy
  U  U0  1  0.26344900  0.41008200  0.12195500  1
  U  U1  1  0.46651000  0.99555400  0.78134200  1
  U  U2  1  0.23642600  0.12688000  0.90965800  1
  U  U3  1  0.99523400  0.00641200  0.21892400  1
  U  U4  1  0.50476600  0.50641200  0.71892400  1
  U  U5  1  0.49523400  0.49358800  0.28107600  1
  U  U6  1  0.96651000  0.50444600  0.71865800  1
  U  U7  1  0.26357400  0.62688000  0.40965800  1
  U  U8  1  0.73655100  0.58991800  0.87804500  1
  U  U9  1  0.23655100  0.91008200  0.62195500  1
  U  U10  1  0.76344900  0.08991800  0.37804500  1
  U  U11  1  0.53349000  0.00444600  0.21865800  1
  U  U12  1  0.73642600  0.37312000  0.59034200  1
  U  U13  1  0.03349000  0.49555400  0.28134200  1
  U  U14  1  0.00476600  0.99358800  0.78107600  1
  U  U15  1  0.76357400  0.87312000  0.09034200  1
  Ag  Ag0  1  0.51818200  0.74399200  0.25506100  1
  Ag  Ag1  1  0.23717100  0.67156300  0.58956900  1
  Ag  Ag2  1  0.27132000  0.31595900  0.40321700  1
  Ag  Ag3  1  0.01818200  0.75600800  0.24493900  1
  Ag  Ag4  1  0.01810000  0.24876800  0.25686900  1
  Ag  Ag5  1  0.48181800  0.25600800  0.74493900  1
  Ag  Ag6  1  0.98181800  0.24399200  0.75506100  1
  Ag  Ag7  1  0.73717100  0.82843700  0.91043100  1
  Ag  Ag8  1  0.26282900  0.17156300  0.08956900  1
  Ag  Ag9  1  0.76282900  0.32843700  0.41043100  1
  Ag  Ag10  1  0.72868000  0.68404100  0.59678300  1
  Ag  Ag11  1  0.98190000  0.75123200  0.74313100  1
  Ag  Ag12  1  0.77132000  0.18404100  0.09678300  1
  Ag  Ag13  1  0.51810000  0.25123200  0.24313100  1
  Ag  Ag14  1  0.48190000  0.74876800  0.75686900  1
  Ag  Ag15  1  0.22868000  0.81595900  0.90321700  1
  I  I0  1  0.52854000  0.32171500  0.95690800  1
  I  I1  1  0.26588300  0.08231700  0.35548800  1
  I  I2  1  0.76750600  0.60710000  0.39648900  1
  I  I3  1  0.46151400  0.85134800  0.44224000  1
  I  I4  1  0.23249400  0.39290000  0.60351100  1
  I  I5  1  0.76588300  0.41768300  0.14451200  1
  I  I6  1  0.23411700  0.58231700  0.85548800  1
  I  I7  1  0.02854000  0.17828500  0.54309200  1
  I  I8  1  0.03848600  0.35134800  0.94224000  1
  I  I9  1  0.97146000  0.82171500  0.45690800  1
  I  I10  1  0.73411700  0.91768300  0.64451200  1
  I  I11  1  0.47146000  0.67828500  0.04309200  1
  I  I12  1  0.26750600  0.89290000  0.10351100  1
  I  I13  1  0.73249400  0.10710000  0.89648900  1
  I  I14  1  0.53848600  0.14865200  0.55776000  1
  I  I15  1  0.96151400  0.64865200  0.05776000  1
  O  O0  1  0.49440700  0.07823000  0.88615000  1
  O  O1  1  0.00814200  0.09884100  0.71528000  1
  O  O2  1  0.94591300  0.61816200  0.96778800  1
  O  O3  1  0.99714400  0.55573800  0.84375500  1
  O  O4  1  0.25201400  0.21829500  0.82978100  1
  O  O5  1  0.50559300  0.92177000  0.11385000  1
  O  O6  1  0.05408700  0.38183800  0.03221200  1
  O  O7  1  0.29125500  0.52542900  0.07203500  1
  O  O8  1  0.07919200  0.23127400  0.96885500  1
  O  O9  1  0.53450900  0.89439600  0.27919700  1
  O  O10  1  0.21506700  0.28476700  0.66297500  1
  O  O11  1  0.24798600  0.71829500  0.32978100  1
  O  O12  1  0.47369000  0.39937700  0.62330800  1
  O  O13  1  0.43295900  0.21016500  0.97603900  1
  O  O14  1  0.23709200  0.95116400  0.72896500  1
  O  O15  1  0.78796400  0.29747300  0.17868700  1
  O  O16  1  0.04781500  0.85989600  0.53798800  1
  O  O17  1  0.52611500  0.41181200  0.17091200  1
  O  O18  1  0.26290800  0.45116400  0.22896500  1
  O  O19  1  0.54781500  0.64010400  0.96201200  1
  O  O20  1  0.00559300  0.57823000  0.38615000  1
  O  O21  1  0.00285600  0.44426200  0.15624500  1
  O  O22  1  0.76181500  0.52608500  0.33195400  1
  O  O23  1  0.52235700  0.11915200  0.16002500  1
  O  O24  1  0.27828900  0.54842000  0.49771500  1
  O  O25  1  0.73277800  0.47479100  0.66263700  1
  O  O26  1  0.50814200  0.40115900  0.78472000  1
  O  O27  1  0.00722700  0.11566500  0.15256600  1
  O  O28  1  0.02235700  0.38084800  0.33997500  1
  O  O29  1  0.92080800  0.76872600  0.03114500  1
  O  O30  1  0.97369000  0.10062300  0.87669200  1
  O  O31  1  0.57919200  0.26872600  0.53114500  1
  O  O32  1  0.03450900  0.60560400  0.22080300  1
  O  O33  1  0.26181500  0.97391500  0.16804600  1
  O  O34  1  0.73818500  0.02608500  0.83195400  1
  O  O35  1  0.26258400  0.78983000  0.66409300  1
  O  O36  1  0.26589800  0.71611800  0.00838600  1
  O  O37  1  0.02631000  0.89937700  0.12330800  1
  O  O38  1  0.76290800  0.04883600  0.27103500  1
  O  O39  1  0.47388500  0.58818800  0.82908800  1
  O  O40  1  0.26044800  0.89169000  0.40602600  1
  O  O41  1  0.76722200  0.97479100  0.16263700  1
  O  O42  1  0.45218500  0.35989600  0.03798800  1
  O  O43  1  0.73475100  0.95828800  0.73278300  1
  O  O44  1  0.96549100  0.39439600  0.77919700  1
  O  O45  1  0.23277800  0.02520900  0.83736300  1
  O  O46  1  0.28493300  0.78476700  0.16297500  1
  O  O47  1  0.28796400  0.20252700  0.32131300  1
  O  O48  1  0.44591300  0.88183800  0.53221200  1
  O  O49  1  0.26524900  0.04171200  0.26721700  1
  O  O50  1  0.75201400  0.28170500  0.67021900  1
  O  O51  1  0.73410200  0.28388200  0.99161400  1
  O  O52  1  0.73955200  0.10831000  0.59397400  1
  O  O53  1  0.76044800  0.60831000  0.09397400  1
  O  O54  1  0.76524900  0.45828800  0.23278300  1
  O  O55  1  0.06704100  0.71016500  0.47603900  1
  O  O56  1  0.79125500  0.97457100  0.42796500  1
  O  O57  1  0.76258400  0.71017000  0.83590700  1
  O  O58  1  0.78493300  0.71523300  0.33702500  1
  O  O59  1  0.52631000  0.60062300  0.37669200  1
  O  O60  1  0.20874500  0.02542900  0.57203500  1
  O  O61  1  0.23818500  0.47391500  0.66804600  1
  O  O62  1  0.21203600  0.70252700  0.82131300  1
  O  O63  1  0.99440700  0.42177000  0.61385000  1
  O  O64  1  0.70874500  0.47457100  0.92796500  1
  O  O65  1  0.73741600  0.21017000  0.33590700  1
  O  O66  1  0.72171100  0.45158000  0.50228500  1
  O  O67  1  0.49714400  0.94426200  0.65624500  1
  O  O68  1  0.99277300  0.88433500  0.84743400  1
  O  O69  1  0.49185800  0.59884100  0.21528000  1
  O  O70  1  0.71203600  0.79747300  0.67868700  1
  O  O71  1  0.42080800  0.73127400  0.46885500  1
  O  O72  1  0.97388500  0.91181200  0.67091200  1
  O  O73  1  0.46549100  0.10560400  0.72080300  1
  O  O74  1  0.23955200  0.39169000  0.90602600  1
  O  O75  1  0.50722700  0.38433500  0.34743400  1
  O  O76  1  0.47764300  0.88084800  0.83997500  1
  O  O77  1  0.02611500  0.08818800  0.32908800  1
  O  O78  1  0.23741600  0.28983000  0.16409300  1
  O  O79  1  0.23475100  0.54171200  0.76721700  1
  O  O80  1  0.50285600  0.05573800  0.34375500  1
  O  O81  1  0.93295900  0.28983500  0.52396100  1
  O  O82  1  0.77828900  0.95158000  0.00228500  1
  O  O83  1  0.26722200  0.52520900  0.33736300  1
  O  O84  1  0.23410200  0.21611800  0.50838600  1
  O  O85  1  0.55408700  0.11816200  0.46778800  1
  O  O86  1  0.49277300  0.61566500  0.65256600  1
  O  O87  1  0.97764300  0.61915200  0.66002500  1
  O  O88  1  0.76589800  0.78388200  0.49161400  1
  O  O89  1  0.56704100  0.78983500  0.02396100  1
  O  O90  1  0.71506700  0.21523300  0.83702500  1
  O  O91  1  0.22171100  0.04842000  0.99771500  1
  O  O92  1  0.74798600  0.78170500  0.17021900  1
  O  O93  1  0.73709200  0.54883600  0.77103500  1
  O  O94  1  0.95218500  0.14010400  0.46201200  1
  O  O95  1  0.99185800  0.90115900  0.28472000  1
loop_
_geom_bond_atom_site_label_1
_geom_bond_atom_site_label_2
_geom_bond_distance
_geom_bond_site_symmetry_2
Ag0 O9 2.439130 1_555
Ag0 O92 2.447757 1_555
Ag0 O69 2.487623 1_555
Ag0 O46 2.557910 1_555
Ag0 O11 2.590647 1_555
Ag0 O58 2.641953 1_555
Ag1 O86 2.460367 1_555
Ag1 O35 2.495005 1_555
Ag1 O55 2.510537 1_555
Ag1 O87 2.535256 1_455
Ag1 O71 2.719654 1_555
Ag1 O24 2.801068 1_555
Ag2 O84 2.280778 1_555
Ag2 O75 2.334848 1_555
Ag2 O28 2.457322 1_555
Ag2 O47 2.528007 1_555
Ag3 O32 2.439130 1_555
Ag3 O11 2.447757 1_555
Ag3 O95 2.487623 1_455
Ag3 O58 2.557910 1_455
Ag3 O92 2.590647 1_455
Ag3 O46 2.641953 1_555
Ag4 O15 2.404450 1_455
Ag4 O78 2.484399 1_555
Ag4 O47 2.536875 1_555
Ag4 O77 2.586275 1_555
Ag4 O65 2.720296 1_455
Ag4 O28 2.775506 1_555
Ag5 O73 2.439130 1_555
Ag5 O4 2.447757 1_555
Ag5 O26 2.487623 1_555
Ag5 O90 2.557910 1_555
Ag5 O50 2.590647 1_555
Ag5 O10 2.641953 1_555
Ag6 O44 2.439130 1_555
Ag6 O50 2.447757 1_555
Ag6 O1 2.487623 1_655
Ag6 O10 2.557910 1_655
Ag6 O4 2.590647 1_655
Ag6 O90 2.641953 1_555
Ag7 O68 2.460367 1_555
Ag7 O57 2.495005 1_555
Ag7 O89 2.510537 1_556
Ag7 O76 2.535256 1_555
Ag7 O29 2.719654 1_556
Ag7 O82 2.801068 1_556
Ag8 O27 2.460367 1_555
Ag8 O78 2.495005 1_555
Ag8 O13 2.510537 1_554
Ag8 O23 2.535256 1_555
Ag8 O8 2.719654 1_554
Ag8 O91 2.801068 1_554
Ag9 O75 2.460367 1_555
Ag9 O65 2.495005 1_555
Ag9 O81 2.510537 1_555
Ag9 O28 2.535256 1_655
Ag9 O31 2.719654 1_555
Ag9 O66 2.801068 1_555
Ag10 O88 2.280778 1_555
Ag10 O86 2.334848 1_555
Ag10 O87 2.457322 1_555
Ag10 O70 2.528007 1_555
Ag11 O62 2.404450 1_655
Ag11 O57 2.484399 1_555
Ag11 O70 2.536875 1_555
Ag11 O72 2.586275 1_555
Ag11 O35 2.720296 1_655
Ag11 O87 2.775506 1_555
Ag12 O51 2.280778 1_554
Ag12 O27 2.334848 1_655
Ag12 O23 2.457322 1_555
Ag12 O15 2.528007 1_555
Ag13 O47 2.404450 1_555
Ag13 O65 2.484399 1_555
Ag13 O15 2.536875 1_555
Ag13 O17 2.586275 1_555
Ag13 O78 2.720296 1_555
Ag13 O23 2.775506 1_555
Ag14 O70 2.404450 1_555
Ag14 O35 2.484399 1_555
Ag14 O62 2.536875 1_555
Ag14 O39 2.586275 1_555
Ag14 O57 2.720296 1_555
Ag14 O76 2.775506 1_555
Ag15 O36 2.280778 1_556
Ag15 O68 2.334848 1_455
Ag15 O76 2.457322 1_555
Ag15 O62 2.528007 1_555
I0 O42 1.832296 1_556
I0 O51 1.844335 1_555
I0 O13 1.855203 1_555
I1 O47 1.848704 1_555
I1 O49 1.869958 1_555
I1 O80 1.986051 1_555
I1 O77 2.004892 1_555
I2 O58 1.826644 1_555
I2 O22 1.888044 1_555
I2 O59 1.997466 1_555
I2 O20 1.999262 1_655
I3 O40 1.830107 1_555
I3 O48 1.832961 1_555
I3 O71 1.850124 1_555
I4 O10 1.826644 1_555
I4 O61 1.888044 1_555
I4 O12 1.997466 1_555
I4 O63 1.999262 1_455
I5 O15 1.848704 1_555
I5 O54 1.869958 1_555
I5 O21 1.986051 1_655
I5 O17 2.004892 1_555
I6 O62 1.848704 1_555
I6 O79 1.869958 1_555
I6 O3 1.986051 1_455
I6 O39 2.004892 1_555
I7 O94 1.832296 1_455
I7 O84 1.844335 1_555
I7 O81 1.855203 1_455
I8 O74 1.830107 1_555
I8 O6 1.832961 1_556
I8 O8 1.850124 1_555
I9 O16 1.832296 1_655
I9 O88 1.844335 1_555
I9 O55 1.855203 1_655
I10 O70 1.848704 1_555
I10 O43 1.869958 1_555
I10 O67 1.986051 1_555
I10 O72 2.004892 1_555
I11 O19 1.832296 1_554
I11 O36 1.844335 1_555
I11 O89 1.855203 1_555
I12 O46 1.826644 1_555
I12 O33 1.888044 1_555
I12 O37 1.997466 1_555
I12 O5 1.999262 1_555
I13 O90 1.826644 1_555
I13 O34 1.888044 1_555
I13 O30 1.997466 1_555
I13 O0 1.999262 1_555
I14 O52 1.830107 1_555
I14 O85 1.832961 1_555
I14 O31 1.850124 1_555
I15 O53 1.830107 1_555
I15 O2 1.832961 1_554
I15 O29 1.850124 1_555
O0 U2 2.292261 1_555
O0 U1 2.535660 1_545
O1 U14 1.843168 1_545
O2 U8 2.482166 1_555
O3 U8 2.298185 1_555
O3 U6 2.615519 1_555
O4 U2 1.856784 1_555
O5 U15 2.292261 1_555
O5 U11 2.535660 1_565
O6 U0 2.482166 1_555
O7 U0 1.858559 1_555
O8 U2 2.466463 1_555
O9 U11 1.853641 1_565
O11 U7 1.856784 1_555
O12 U12 2.275674 1_555
O12 U4 2.656146 1_555
O13 U2 2.511866 1_555
O14 U9 2.207440 1_555
O14 U1 2.266404 1_555
O14 U14 2.272181 1_555
O16 U9 2.419544 1_555
O17 U0 2.321583 1_555
O17 U5 2.616408 1_555
O18 U0 2.207440 1_555
O18 U13 2.266404 1_555
O18 U5 2.272181 1_555
O19 U8 2.419544 1_555
O20 U7 2.292261 1_555
O20 U13 2.535660 1_555
O21 U0 2.298185 1_555
O21 U13 2.615519 1_555
O22 U5 2.451213 1_555
O22 U13 2.477646 1_655
O23 U11 1.898689 1_555
O24 U7 1.857044 1_555
O25 U4 2.226177 1_555
O25 U12 2.247554 1_555
O25 U6 2.253490 1_555
O26 U4 1.843168 1_555
O27 U3 1.897413 1_455
O28 U13 1.898689 1_555
O29 U15 2.466463 1_555
O30 U2 2.275674 1_655
O30 U14 2.656146 1_645
O31 U12 2.466463 1_555
O32 U13 1.853641 1_555
O33 U3 2.451213 1_465
O33 U11 2.477646 1_565
O34 U14 2.451213 1_645
O34 U1 2.477646 1_545
O35 U9 1.882419 1_555
O37 U15 2.275674 1_455
O37 U3 2.656146 1_465
O38 U10 2.207440 1_555
O38 U11 2.266404 1_555
O38 U3 2.272181 1_555
O39 U8 2.321583 1_555
O39 U4 2.616408 1_555
O41 U3 2.226177 1_565
O41 U15 2.247554 1_555
O41 U11 2.253490 1_565
O42 U0 2.419544 1_555
O43 U1 2.466037 1_555
O43 U14 2.467863 1_655
O44 U6 1.853641 1_555
O45 U14 2.226177 1_545
O45 U2 2.247554 1_555
O45 U1 2.253490 1_545
O48 U9 2.482166 1_555
O49 U11 2.466037 1_555
O49 U3 2.467863 1_455
O50 U12 1.856784 1_555
O54 U13 2.466037 1_655
O54 U5 2.467863 1_555
O55 U7 2.511866 1_555
O56 U10 1.858559 1_565
O57 U8 1.882419 1_555
O59 U7 2.275674 1_555
O59 U5 2.656146 1_555
O60 U9 1.858559 1_545
O61 U4 2.451213 1_555
O61 U6 2.477646 1_455
O63 U12 2.292261 1_555
O63 U6 2.535660 1_555
O64 U8 1.858559 1_555
O65 U10 1.882419 1_555
O66 U12 1.857044 1_555
O67 U9 2.298185 1_555
O67 U1 2.615519 1_555
O68 U14 1.897413 1_655
O69 U5 1.843168 1_555
O71 U7 2.466463 1_555
O72 U9 2.321583 1_655
O72 U14 2.616408 1_655
O73 U1 1.853641 1_545
O75 U5 1.897413 1_555
O76 U1 1.898689 1_555
O77 U10 2.321583 1_455
O77 U3 2.616408 1_455
O78 U0 1.882419 1_555
O79 U6 2.466037 1_455
O79 U4 2.467863 1_555
O80 U10 2.298185 1_555
O80 U11 2.615519 1_555
O81 U12 2.511866 1_555
O82 U15 1.857044 1_555
O83 U5 2.226177 1_555
O83 U7 2.247554 1_555
O83 U13 2.253490 1_555
O85 U10 2.482166 1_555
O86 U4 1.897413 1_555
O87 U6 1.898689 1_555
O89 U15 2.511866 1_555
O91 U2 1.857044 1_555
O92 U15 1.856784 1_555
O93 U8 2.207440 1_555
O93 U6 2.266404 1_555
O93 U4 2.272181 1_555
O94 U10 2.419544 1_555
O95 U3 1.843168 1_565
