# generated using pymatgen
data_SiO2
_symmetry_space_group_name_H-M   'P 1'
_cell_length_a   9.14542171
_cell_length_b   9.14542158
_cell_length_c   5.21703544
_cell_angle_alpha   90.00000000
_cell_angle_beta   90.00000000
_cell_angle_gamma   120.00000406
_symmetry_Int_Tables_number   1
_chemical_formula_structural   SiO2
_chemical_formula_sum   'Si6 O12'
_cell_volume   377.88692646
_cell_formula_units_Z   6
loop_
 _symmetry_equiv_pos_site_id
 _symmetry_equiv_pos_as_xyz
  1  'x, y, z'
loop_
 _atom_site_type_symbol
 _atom_site_label
 _atom_site_symmetry_multiplicity
 _atom_site_fract_x
 _atom_site_fract_y
 _atom_site_fract_z
 _atom_site_occupancy
  Si  Si0  1  0.88325751  0.44162876  0.25000000  1
  Si  Si1  1  0.44162876  0.88325751  0.75000000  1
  Si  Si2  1  0.44162876  0.55837124  0.75000000  1
  Si  Si3  1  0.11674249  0.55837124  0.75000000  1
  Si  Si4  1  0.55837124  0.44162876  0.25000000  1
  Si  Si5  1  0.55837124  0.11674249  0.25000000  1
  O  O0  1  0.76218867  0.23781133  0.25000000  1
  O  O1  1  0.23781133  0.76218867  0.75000000  1
  O  O2  1  0.50000000  0.00000000  -0.00000000  1
  O  O3  1  -0.00000000  0.50000000  0.50000000  1
  O  O4  1  0.52437834  0.76218867  0.75000000  1
  O  O5  1  0.47562166  0.23781133  0.25000000  1
  O  O6  1  0.76218867  0.52437834  0.25000000  1
  O  O7  1  0.50000000  0.00000000  0.50000000  1
  O  O8  1  0.50000000  0.50000000  0.50000000  1
  O  O9  1  0.23781133  0.47562166  0.75000000  1
  O  O10  1  -0.00000000  0.50000000  -0.00000000  1
  O  O11  1  0.50000000  0.50000000  -0.00000000  1
loop_
_geom_bond_atom_site_label_1
_geom_bond_atom_site_label_2
_geom_bond_distance
_geom_bond_site_symmetry_2
O0 Si0 1.623751 1_555
O0 Si5 1.623751 1_555
O1 Si3 1.623751 1_555
O1 Si1 1.623751 1_555
O2 Si5 1.598754 1_555
O2 Si1 1.598754 1_544
O3 Si3 1.598754 1_555
O3 Si0 1.598754 1_455
O4 Si2 1.623750 1_555
O4 Si1 1.623758 1_555
O5 Si4 1.623750 1_555
O5 Si5 1.623758 1_555
O6 Si4 1.623750 1_555
O6 Si0 1.623758 1_555
O7 Si5 1.598754 1_555
O7 Si1 1.598754 1_545
O8 Si2 1.598754 1_555
O8 Si4 1.598754 1_555
O9 Si2 1.623750 1_555
O9 Si3 1.623758 1_555
O10 Si3 1.598754 1_554
O10 Si0 1.598754 1_455
O11 Si2 1.598754 1_554
O11 Si4 1.598754 1_555
