# generated using pymatgen
data_ZnSO4
_symmetry_space_group_name_H-M   'P 1'
_cell_length_a   5.47697223
_cell_length_b   5.47697207
_cell_length_c   5.47697043
_cell_angle_alpha   60.00000419
_cell_angle_beta   60.00000514
_cell_angle_gamma   60.00001516
_symmetry_Int_Tables_number   1
_chemical_formula_structural   ZnSO4
_chemical_formula_sum   'Zn1 S1 O4'
_cell_volume   116.17335838
_cell_formula_units_Z   1
loop_
 _symmetry_equiv_pos_site_id
 _symmetry_equiv_pos_as_xyz
  1  'x, y, z'
loop_
 _atom_site_type_symbol
 _atom_site_label
 _atom_site_symmetry_multiplicity
 _atom_site_fract_x
 _atom_site_fract_y
 _atom_site_fract_z
 _atom_site_occupancy
  Zn  Zn0  1  0.75000000  0.75000000  0.75000000  1
  S  S0  1  0.99999900  -0.00000000  0.00000000  1
  O  O0  1  0.32487958  0.89170614  0.89170614  1
  O  O1  1  0.89170614  0.89170614  0.32487858  1
  O  O2  1  0.89170614  0.32487858  0.89170614  1
  O  O3  1  0.89170614  0.89170614  0.89170614  1
loop_
_geom_bond_atom_site_label_1
_geom_bond_atom_site_label_2
_geom_bond_distance
_geom_bond_site_symmetry_2
O0 S0 1.452843 1_466
O0 Zn0 1.901109 1_555
O1 S0 1.452834 1_565
O1 Zn0 1.901112 1_555
O2 S0 1.452834 1_556
O2 Zn0 1.901113 1_555
O3 S0 1.452843 1_566
O3 Zn0 1.901099 1_555
