# generated using pymatgen
data_Eu(Al10V)2
_symmetry_space_group_name_H-M   'P 1'
_cell_length_a   10.19921958
_cell_length_b   10.19921521
_cell_length_c   10.19921798
_cell_angle_alpha   60.00001222
_cell_angle_beta   59.99998152
_cell_angle_gamma   60.00004626
_symmetry_Int_Tables_number   1
_chemical_formula_structural   Eu(Al10V)2
_chemical_formula_sum   'Eu2 Al40 V4'
_cell_volume   750.21493327
_cell_formula_units_Z   2
loop_
 _symmetry_equiv_pos_site_id
 _symmetry_equiv_pos_as_xyz
  1  'x, y, z'
loop_
 _atom_site_type_symbol
 _atom_site_label
 _atom_site_symmetry_multiplicity
 _atom_site_fract_x
 _atom_site_fract_y
 _atom_site_fract_z
 _atom_site_occupancy
  Eu  Eu0  1  0.00000094  0.99999989  0.00000011  1
  Eu  Eu1  1  0.24999908  0.24999971  0.25000046  1
  Al  Al0  1  0.06858329  0.79914193  0.79914166  1
  Al  Al1  1  0.45083518  0.91684489  0.18148345  1
  Al  Al2  1  0.79914064  0.33313427  0.79914121  1
  Al  Al3  1  0.45083518  0.91684465  0.45083586  1
  Al  Al4  1  0.18148346  0.45083441  0.45083591  1
  Al  Al5  1  0.18148330  0.91684572  0.45083574  1
  Al  Al6  1  0.33313464  0.06858317  0.79914120  1
  Al  Al7  1  0.79914080  0.06858333  0.33313518  1
  Al  Al8  1  0.61140164  0.88859764  0.61140304  1
  Al  Al9  1  0.36133408  0.63867083  0.63866720  1
  Al  Al10  1  0.91684466  0.18148284  0.45083529  1
  Al  Al11  1  0.91684405  0.45083476  0.45083593  1
  Al  Al12  1  0.45083520  0.45083513  0.18148357  1
  Al  Al13  1  0.63867062  0.36133414  0.36132802  1
  Al  Al14  1  0.88859667  0.61140274  0.88859774  1
  Al  Al15  1  0.36133423  0.63867063  0.36132800  1
  Al  Al16  1  0.88859661  0.61140260  0.61140285  1
  Al  Al17  1  0.33313406  0.79914151  0.06858309  1
  Al  Al18  1  0.06858319  0.79914182  0.33313456  1
  Al  Al19  1  0.63867080  0.36133404  0.63866691  1
  Al  Al20  1  0.45083496  0.45083518  0.91684524  1
  Al  Al21  1  0.79914044  0.79914142  0.33313488  1
  Al  Al22  1  0.06858341  0.33313300  0.79914222  1
  Al  Al23  1  0.63866754  0.63866723  0.36133272  1
  Al  Al24  1  0.12500011  0.12499970  0.62499848  1
  Al  Al25  1  0.33313390  0.79914114  0.79914125  1
  Al  Al26  1  0.36133181  0.36133099  0.63867049  1
  Al  Al27  1  0.61140284  0.88859698  0.88859704  1
  Al  Al28  1  0.61140158  0.61140277  0.88859764  1
  Al  Al29  1  0.91684465  0.45083426  0.18148374  1
  Al  Al30  1  0.79914120  0.06858335  0.79914148  1
  Al  Al31  1  0.88859713  0.88859722  0.61140344  1
  Al  Al32  1  0.79914062  0.33313383  0.06858398  1
  Al  Al33  1  0.12500113  0.12500019  0.12500048  1
  Al  Al34  1  0.45083532  0.18148301  0.45083553  1
  Al  Al35  1  0.45083488  0.18148314  0.91684482  1
  Al  Al36  1  0.18148368  0.45083430  0.91684572  1
  Al  Al37  1  0.62499801  0.12499992  0.12500051  1
  Al  Al38  1  0.79914090  0.79914149  0.06858345  1
  Al  Al39  1  0.12500127  0.62499841  0.12499933  1
  V  V0  1  0.62500029  0.62499934  0.12500046  1
  V  V1  1  0.62499985  0.12499865  0.62499988  1
  V  V2  1  0.12499866  0.62500064  0.62500065  1
  V  V3  1  0.62499852  0.62500118  0.62500058  1
loop_
_geom_bond_atom_site_label_1
_geom_bond_atom_site_label_2
_geom_bond_distance
_geom_bond_site_symmetry_2
Al0 Al9 2.679126 1_555
Al0 Al25 2.698204 1_555
Al0 Al30 2.748097 1_465
Al0 Al38 2.748098 1_456
Al0 V2 2.784024 1_555
Al0 Al31 2.821672 1_455
Al0 Al14 2.821679 1_455
Al0 Al5 2.900699 1_555
Al0 Al36 2.900714 1_555
Al0 Al24 3.085247 1_565
Al0 Al39 3.085253 1_556
Al0 Eu0 3.195871 1_556
Al1 Al27 2.680513 1_554
Al1 Al35 2.699105 1_564
Al1 Al5 2.747180 1_555
Al1 Al3 2.747183 1_555
Al1 V0 2.784130 1_555
Al1 Al15 2.821109 1_555
Al1 Al23 2.821155 1_555
Al1 Al17 2.900690 1_555
Al1 Al38 2.900699 1_555
Al1 Al33 3.085321 1_565
Al1 Al37 3.085325 1_565
Al1 Eu1 3.195766 1_565
Al2 Al30 2.698208 1_555
Al2 Al32 2.748103 1_556
Al2 Al22 2.748105 1_655
Al2 V3 2.784028 1_555
Al2 Al28 2.821671 1_555
Al2 Al20 2.900698 1_555
Al2 Al37 3.085265 1_556
Al2 Al24 3.085269 1_655
Al2 Eu0 3.195887 1_646
Al3 Al8 2.680512 1_555
Al3 Al34 2.699103 1_565
Al3 Al5 2.747174 1_555
Al3 V3 2.784121 1_555
Al3 Al9 2.821106 1_555
Al3 Al37 3.085328 1_565
Al3 Eu1 3.195767 1_565
Al4 V2 2.784143 1_555
Al4 Eu1 3.195756 1_555
Al5 V2 2.784132 1_555
Al5 Al9 2.821149 1_555
Al5 Eu1 3.195752 1_565
Al6 V1 2.784010 1_555
Al6 Al8 2.821660 1_545
Al6 Eu0 3.195872 1_546
Al7 V1 2.784005 1_555
Al7 Al8 2.821667 1_545
Al7 Eu0 3.195885 1_645
Al8 V1 2.557321 1_565
Al8 V3 2.557328 1_555
Al9 V3 2.557378 1_555
Al9 V2 2.557454 1_555
Al10 Al31 2.680504 1_545
Al10 Al5 2.699101 1_645
Al10 Al29 2.747175 1_555
Al10 Al11 2.747178 1_555
Al10 V1 2.784128 1_555
Al10 Al13 2.821141 1_555
Al10 Al19 2.821147 1_555
Al10 Al7 2.900679 1_555
Al10 Al30 2.900701 1_555
Al10 Al33 3.085324 1_655
Al10 Al24 3.085333 1_655
Al10 Eu1 3.195761 1_655
Al11 Al16 2.680519 1_555
Al11 Al4 2.699114 1_655
Al11 Al29 2.747181 1_555
Al11 V3 2.784141 1_555
Al11 Al19 2.821099 1_555
Al11 Al23 2.821142 1_555
Al11 Al2 2.900694 1_555
Al11 Al21 2.900706 1_555
Al11 Al24 3.085332 1_655
Al11 Al39 3.085345 1_655
Al11 Eu1 3.195761 1_655
Al12 Al28 2.680509 1_554
Al12 Al20 2.699105 1_554
Al12 Al4 2.747180 1_555
Al12 Al34 2.747180 1_555
Al12 V0 2.784135 1_555
Al12 Al15 2.821150 1_555
Al12 Al13 2.821151 1_555
Al12 Al32 2.900696 1_555
Al12 Al17 2.900704 1_555
Al12 Al39 3.085325 1_555
Al12 Al37 3.085330 1_555
Al12 Eu1 3.195762 1_555
Al13 V0 2.557379 1_555
Al13 V1 2.557452 1_555
Al13 Al32 2.679085 1_555
Al13 Al7 2.679119 1_555
Al13 Al29 2.821103 1_555
Al13 Al34 2.821181 1_555
Al13 Al23 2.828588 1_555
Al13 Al15 2.828617 1_555
Al13 Al19 2.828640 1_555
Al13 Al26 2.828657 1_555
Al14 V0 2.557331 1_556
Al14 V2 2.557331 1_655
Al14 Al29 2.680510 1_556
Al14 Al36 2.680520 1_655
Al14 Al38 2.821669 1_556
Al14 Al32 2.821672 1_556
Al14 Al22 2.821677 1_655
Al14 Al27 2.827164 1_555
Al14 Al31 2.827166 1_555
Al14 Al16 2.827172 1_555
Al14 Al28 2.827174 1_555
Al15 V0 2.557383 1_555
Al15 V2 2.557456 1_555
Al15 Al17 2.679094 1_555
Al15 Al18 2.679124 1_555
Al15 Al5 2.821151 1_555
Al15 Al4 2.821185 1_555
Al15 Al23 2.828590 1_555
Al15 Al9 2.828643 1_555
Al15 Al26 2.828662 1_555
Al16 V2 2.557337 1_655
Al16 V3 2.557337 1_555
Al16 Al4 2.680519 1_655
Al16 Al2 2.821666 1_555
Al16 Al21 2.821666 1_555
Al16 Al18 2.821674 1_655
Al16 Al22 2.821683 1_655
Al16 Al28 2.827171 1_555
Al16 Al31 2.827173 1_555
Al16 Al8 2.827174 1_555
Al17 Al18 2.698215 1_555
Al17 Al6 2.748096 1_564
Al17 Al25 2.748099 1_554
Al17 V0 2.784029 1_555
Al17 Al28 2.821664 1_554
Al17 Al27 2.821668 1_554
Al17 Al33 3.085259 1_565
Al17 Al39 3.085261 1_555
Al17 Eu0 3.195868 1_555
Al18 Al7 2.748099 1_465
Al18 Al21 2.748106 1_455
Al18 V2 2.784019 1_555
Al18 Al31 2.821669 1_455
Al18 Al5 2.900693 1_555
Al18 Al4 2.900713 1_555
Al18 Al33 3.085258 1_565
Al18 Al39 3.085278 1_555
Al18 Eu0 3.195875 1_555
Al19 V3 2.557393 1_555
Al19 V1 2.557459 1_555
Al19 Al2 2.679088 1_555
Al19 Al30 2.679124 1_555
Al19 Al20 2.821145 1_555
Al19 Al35 2.821180 1_555
Al19 Al23 2.828587 1_555
Al19 Al9 2.828620 1_555
Al19 Al26 2.828639 1_555
Al20 Al28 2.680513 1_555
Al20 Al36 2.747175 1_555
Al20 Al35 2.747182 1_555
Al20 V3 2.784129 1_555
Al20 Al9 2.821143 1_555
Al20 Al25 2.900700 1_555
Al20 Al39 3.085318 1_556
Al20 Al37 3.085331 1_556
Al20 Eu1 3.195764 1_556
Al21 Al23 2.679122 1_555
Al21 Al38 2.698215 1_555
Al21 Al7 2.748099 1_565
Al21 V3 2.784018 1_555
Al21 Al8 2.821667 1_555
Al21 Al3 2.900695 1_555
Al21 Al37 3.085263 1_565
Al21 Al39 3.085280 1_655
Al21 Eu0 3.195885 1_655
Al22 Al26 2.679115 1_555
Al22 Al6 2.698210 1_555
Al22 Al32 2.748100 1_456
Al22 V2 2.784030 1_555
Al22 Al36 2.900692 1_555
Al22 Al4 2.900702 1_555
Al22 Al33 3.085257 1_556
Al22 Al24 3.085270 1_555
Al22 Eu0 3.195863 1_546
Al23 V0 2.557412 1_555
Al23 V3 2.557417 1_555
Al23 Al38 2.679124 1_555
Al23 Al3 2.821148 1_555
Al23 Al29 2.821154 1_555
Al23 Al9 2.828589 1_555
Al24 Al30 3.085256 1_455
Al24 Al25 3.085263 1_545
Al24 Al6 3.085275 1_555
Al24 Al5 3.085314 1_545
Al24 Al4 3.085325 1_555
Al24 Al3 3.085327 1_545
Al24 Al34 3.085330 1_555
Al24 Eu1 3.122843 1_555
Al24 Eu0 3.122873 1_546
Al25 Al9 2.679086 1_555
Al25 Al6 2.748101 1_565
Al25 V3 2.784008 1_555
Al25 Al8 2.821664 1_555
Al25 Al28 2.821666 1_555
Al25 Al3 2.900695 1_555
Al25 Al39 3.085252 1_556
Al25 Eu0 3.195873 1_556
Al26 V1 2.557418 1_555
Al26 V2 2.557431 1_555
Al26 Al6 2.679107 1_555
Al26 Al35 2.821122 1_555
Al26 Al36 2.821129 1_555
Al26 Al34 2.821166 1_555
Al26 Al4 2.821168 1_555
Al26 Al9 2.828644 1_555
Al27 V1 2.557331 1_565
Al27 V0 2.557342 1_556
Al27 Al35 2.680511 1_565
Al27 Al6 2.821668 1_565
Al27 Al30 2.821671 1_565
Al27 Al38 2.821672 1_556
Al27 Al31 2.827161 1_555
Al27 Al8 2.827165 1_555
Al27 Al28 2.827167 1_555
Al28 V3 2.557330 1_555
Al28 V0 2.557341 1_556
Al28 Al32 2.821677 1_556
Al28 Al8 2.827170 1_555
Al29 Al36 2.699105 1_654
Al29 V0 2.784123 1_555
Al29 Al32 2.900685 1_555
Al29 Al38 2.900711 1_555
Al29 Al33 3.085322 1_655
Al29 Al39 3.085344 1_655
Al29 Eu1 3.195763 1_655
Al30 Al38 2.748097 1_546
Al30 V1 2.784032 1_555
Al30 Al31 2.821666 1_545
Al30 Al35 2.900704 1_555
Al30 Al37 3.085258 1_556
Al30 Eu0 3.195885 1_646
Al31 V2 2.557328 1_655
Al31 V1 2.557332 1_565
Al31 Al5 2.680513 1_655
Al31 Al7 2.821670 1_565
Al31 Al8 2.827178 1_555
Al32 Al7 2.698212 1_555
Al32 V0 2.784018 1_555
Al32 Al37 3.085266 1_555
Al32 Al33 3.085273 1_655
Al32 Eu0 3.195878 1_645
Al33 Al6 3.085262 1_554
Al33 Al7 3.085271 1_455
Al33 Al35 3.085316 1_554
Al33 Al36 3.085317 1_554
Al33 Al5 3.085326 1_545
Al33 Eu1 3.122838 1_555
Al33 Eu0 3.122867 1_545
Al34 Al8 2.680507 1_545
Al34 Al4 2.747178 1_555
Al34 V1 2.784128 1_555
Al34 Al7 2.900697 1_555
Al34 Al6 2.900697 1_555
Al34 Al37 3.085327 1_555
Al34 Eu1 3.195763 1_555
Al35 Al36 2.747173 1_555
Al35 V1 2.784131 1_555
Al35 Al6 2.900682 1_555
Al35 Al37 3.085334 1_556
Al35 Eu1 3.195770 1_556
Al36 V2 2.784135 1_555
Al36 Al9 2.821182 1_555
Al36 Al39 3.085326 1_556
Al36 Eu1 3.195759 1_556
Al37 Al38 3.085256 1_545
Al37 Al7 3.085276 1_555
Al37 Eu1 3.122852 1_555
Al37 Eu0 3.122885 1_645
Al38 V0 2.784021 1_555
Al38 Al39 3.085269 1_655
Al38 Eu0 3.195884 1_655
Al39 Al4 3.085338 1_555
Al39 Eu1 3.122850 1_555
Al39 Eu0 3.122873 1_555
