# generated using pymatgen
data_Cu7P12S9Cl7
_symmetry_space_group_name_H-M   'P 1'
_cell_length_a   16.77040992
_cell_length_b   16.77040992
_cell_length_c   6.28894400
_cell_angle_alpha   90.00000000
_cell_angle_beta   90.00000000
_cell_angle_gamma   119.99999969
_symmetry_Int_Tables_number   1
_chemical_formula_structural   Cu7P12S9Cl7
_chemical_formula_sum   'Cu14 P24 S18 Cl14'
_cell_volume   1531.77760980
_cell_formula_units_Z   2
loop_
 _symmetry_equiv_pos_site_id
 _symmetry_equiv_pos_as_xyz
  1  'x, y, z'
loop_
 _atom_site_type_symbol
 _atom_site_label
 _atom_site_symmetry_multiplicity
 _atom_site_fract_x
 _atom_site_fract_y
 _atom_site_fract_z
 _atom_site_occupancy
  Cu  Cu0  1  0.07930100  0.92069900  0.52510800  1
  Cu  Cu1  1  0.15860100  0.07930100  0.02510800  1
  Cu  Cu2  1  0.45587300  0.54412700  0.03708100  1
  Cu  Cu3  1  0.33333300  0.66666700  0.47644400  1
  Cu  Cu4  1  0.07930100  0.15860100  0.52510800  1
  Cu  Cu5  1  0.92069900  0.07930100  0.02510800  1
  Cu  Cu6  1  0.54412700  0.08825400  0.53708100  1
  Cu  Cu7  1  0.66666700  0.33333300  0.97644400  1
  Cu  Cu8  1  0.54412700  0.45587300  0.53708100  1
  Cu  Cu9  1  0.45587300  0.91174600  0.03708100  1
  Cu  Cu10  1  0.92069900  0.84139900  0.02510800  1
  Cu  Cu11  1  0.84139900  0.92069900  0.52510800  1
  Cu  Cu12  1  0.91174600  0.45587300  0.53708100  1
  Cu  Cu13  1  0.08825400  0.54412700  0.03708100  1
  P  P0  1  0.52407700  0.69226800  0.90771400  1
  P  P1  1  0.73927100  0.47854300  0.11839100  1
  P  P2  1  0.85043800  0.14956200  0.14266000  1
  P  P3  1  0.69226800  0.52407700  0.40771400  1
  P  P4  1  0.30773200  0.83180900  0.90771400  1
  P  P5  1  0.83180900  0.30773200  0.40771400  1
  P  P6  1  0.70087600  0.85043800  0.64266000  1
  P  P7  1  0.52407700  0.83180900  0.90771400  1
  P  P8  1  0.52145700  0.26072900  0.11839100  1
  P  P9  1  0.14956200  0.29912400  0.64266000  1
  P  P10  1  0.26072900  0.52145700  0.61839100  1
  P  P11  1  0.29912400  0.14956200  0.14266000  1
  P  P12  1  0.47592300  0.30773200  0.40771400  1
  P  P13  1  0.16819100  0.69226800  0.90771400  1
  P  P14  1  0.73927100  0.26072900  0.11839100  1
  P  P15  1  0.14956200  0.85043800  0.64266000  1
  P  P16  1  0.26072900  0.73927100  0.61839100  1
  P  P17  1  0.16819100  0.47592300  0.90771400  1
  P  P18  1  0.69226800  0.16819100  0.40771400  1
  P  P19  1  0.85043800  0.70087600  0.14266000  1
  P  P20  1  0.47592300  0.16819100  0.40771400  1
  P  P21  1  0.83180900  0.52407700  0.40771400  1
  P  P22  1  0.30773200  0.47592300  0.90771400  1
  P  P23  1  0.47854300  0.73927100  0.61839100  1
  S  S0  1  0.33912400  0.07184100  0.33470800  1
  S  S1  1  0.92815900  0.26728300  0.33470800  1
  S  S2  1  0.33912400  0.26728300  0.33470800  1
  S  S3  1  0.26728300  0.33912400  0.83470800  1
  S  S4  1  0.26728300  0.92815900  0.83470800  1
  S  S5  1  0.07184100  0.33912400  0.83470800  1
  S  S6  1  0.66087600  0.73271700  0.83470800  1
  S  S7  1  0.20373900  0.79626100  0.41644100  1
  S  S8  1  0.20373900  0.40747800  0.41644100  1
  S  S9  1  0.73271700  0.07184100  0.33470800  1
  S  S10  1  0.79626100  0.59252200  0.91644100  1
  S  S11  1  0.40747800  0.20373900  0.91644100  1
  S  S12  1  0.07184100  0.73271700  0.83470800  1
  S  S13  1  0.73271700  0.66087600  0.33470800  1
  S  S14  1  0.79626100  0.20373900  0.91644100  1
  S  S15  1  0.66087600  0.92815900  0.83470800  1
  S  S16  1  0.92815900  0.66087600  0.33470800  1
  S  S17  1  0.59252200  0.79626100  0.41644100  1
  Cl  Cl0  1  0.85321100  0.92660500  0.15221600  1
  Cl  Cl1  1  0.92660500  0.07339500  0.65221600  1
  Cl  Cl2  1  0.66666700  0.33333300  0.61433300  1
  Cl  Cl3  1  0.92660500  0.85321100  0.65221600  1
  Cl  Cl4  1  0.93938300  0.46969200  0.89827200  1
  Cl  Cl5  1  0.06061700  0.53030800  0.39827200  1
  Cl  Cl6  1  0.07339500  0.14678900  0.15221600  1
  Cl  Cl7  1  0.14678900  0.07339500  0.65221600  1
  Cl  Cl8  1  0.33333300  0.66666700  0.11433300  1
  Cl  Cl9  1  0.53030800  0.06061700  0.89827200  1
  Cl  Cl10  1  0.46969200  0.93938300  0.39827200  1
  Cl  Cl11  1  0.07339500  0.92660500  0.15221600  1
  Cl  Cl12  1  0.53030800  0.46969200  0.89827200  1
  Cl  Cl13  1  0.46969200  0.53030800  0.39827200  1
loop_
_geom_bond_atom_site_label_1
_geom_bond_atom_site_label_2
_geom_bond_distance
_geom_bond_site_symmetry_2
Cu0 P15 2.170656 1_555
Cu1 P11 2.170669 1_555
Cu2 P0 2.302330 1_554
Cu2 P22 2.302330 1_554
Cu3 P16 2.290098 1_555
Cu3 P23 2.290125 1_555
Cu3 P10 2.290125 1_555
Cu4 P9 2.170669 1_555
Cu5 P2 2.170656 1_555
Cu6 P20 2.302330 1_555
Cu6 P18 2.302330 1_555
Cu7 P14 2.290098 1_556
Cu7 P1 2.290125 1_556
Cu7 P8 2.290125 1_556
Cu8 P3 2.302330 1_555
Cu8 P12 2.302330 1_555
Cu9 P7 2.302330 1_554
Cu9 P4 2.302330 1_554
Cu10 P19 2.170669 1_555
Cu11 P6 2.170669 1_555
Cu12 P21 2.302330 1_555
Cu12 P5 2.302330 1_555
Cu13 P17 2.302330 1_554
Cu13 P13 2.302330 1_554
P0 S6 2.092355 1_555
P0 P23 2.262105 1_555
P0 P7 2.340160 1_555
P1 S10 2.086464 1_554
P1 P3 2.262105 1_555
P1 P21 2.262114 1_555
P2 S9 2.117064 1_555
P2 S1 2.117064 1_555
P2 S14 2.121442 1_554
P3 S13 2.092355 1_555
P4 S4 2.092355 1_555
P5 S1 2.092355 1_555
P6 S15 2.117064 1_555
P6 S6 2.117064 1_555
P6 S17 2.121442 1_555
P7 S15 2.092355 1_555
P8 S11 2.086464 1_554
P9 S5 2.117064 1_555
P9 S3 2.117064 1_555
P9 S8 2.121442 1_555
P10 S8 2.086464 1_555
P10 P22 2.262105 1_555
P10 P17 2.262114 1_555
P11 S0 2.117064 1_555
P11 S2 2.117064 1_555
P11 S11 2.121442 1_554
P12 S2 2.092355 1_555
P12 P8 2.262105 1_555
P12 P20 2.340160 1_555
P13 S12 2.092355 1_555
P13 P16 2.262114 1_555
P13 P4 2.340160 1_555
P14 S14 2.086476 1_554
P14 P5 2.262114 1_555
P14 P18 2.262114 1_555
P15 S12 2.117064 1_555
P15 S4 2.117064 1_555
P15 S7 2.121442 1_555
P16 S7 2.086476 1_555
P16 P4 2.262114 1_555
P17 S5 2.092355 1_555
P17 P22 2.340160 1_555
P18 S9 2.092355 1_555
P18 P5 2.340160 1_555
P19 S16 2.117064 1_555
P19 S13 2.117064 1_555
P19 S10 2.121442 1_554
P20 S0 2.092355 1_555
P20 P8 2.262114 1_555
P21 S16 2.092355 1_555
P21 P3 2.340160 1_555
P22 S3 2.092355 1_555
P23 S17 2.086464 1_555
P23 P7 2.262114 1_555
Cl0 Cu11 2.351363 1_555
Cl0 Cu10 2.362016 1_555
Cl0 Cu5 2.362044 1_565
Cl1 Cu5 2.351363 1_556
Cl1 Cu4 2.362042 1_655
Cl1 Cu11 2.362042 1_545
Cl2 Cu7 2.277296 1_555
Cl3 Cu10 2.351363 1_556
Cl3 Cu11 2.362016 1_555
Cl3 Cu0 2.362044 1_655
Cl4 Cu12 2.306701 1_555
Cl4 Cu13 2.331721 1_656
Cl5 Cu13 2.306701 1_555
Cl5 Cu12 2.331721 1_455
Cl6 Cu4 2.351363 1_555
Cl6 Cu1 2.362016 1_555
Cl6 Cu5 2.362044 1_455
Cl7 Cu1 2.351363 1_556
Cl7 Cu4 2.362016 1_555
Cl7 Cu0 2.362044 1_545
Cl8 Cu3 2.277296 1_555
Cl9 Cu6 2.306701 1_555
Cl9 Cu9 2.331721 1_546
Cl10 Cu9 2.306701 1_555
Cl10 Cu6 2.331721 1_565
Cl11 Cu0 2.351363 1_555
Cl11 Cu1 2.362042 1_565
Cl11 Cu10 2.362042 1_455
Cl12 Cu8 2.306704 1_555
Cl12 Cu2 2.331708 1_556
Cl13 Cu2 2.306704 1_555
Cl13 Cu8 2.331708 1_555
