# generated using pymatgen
data_Cs4Pr6C2I13
_symmetry_space_group_name_H-M   'P 1'
_cell_length_a   14.46666571
_cell_length_b   14.46666571
_cell_length_c   14.46666571
_cell_angle_alpha   101.39866265
_cell_angle_beta   101.39866265
_cell_angle_gamma   127.20949312
_symmetry_Int_Tables_number   1
_chemical_formula_structural   Cs4Pr6C2I13
_chemical_formula_sum   'Cs8 Pr12 C4 I26'
_cell_volume   2159.92632496
_cell_formula_units_Z   2
loop_
 _symmetry_equiv_pos_site_id
 _symmetry_equiv_pos_as_xyz
  1  'x, y, z'
loop_
 _atom_site_type_symbol
 _atom_site_label
 _atom_site_symmetry_multiplicity
 _atom_site_fract_x
 _atom_site_fract_y
 _atom_site_fract_z
 _atom_site_occupancy
  Cs  Cs0  1  0.15357700  0.15357700  0.30715300  1
  Cs  Cs1  1  0.40357700  0.59642300  0.50000000  1
  Cs  Cs2  1  0.09642300  0.90357700  0.50000000  1
  Cs  Cs3  1  0.84642300  0.84642300  0.69284700  1
  Cs  Cs4  1  0.09642300  0.59642300  0.19284700  1
  Cs  Cs5  1  0.84642300  0.15357700  0.00000000  1
  Cs  Cs6  1  0.15357700  0.84642300  0.00000000  1
  Cs  Cs7  1  0.40357700  0.90357700  0.80715300  1
  Pr  Pr0  1  0.26623900  0.26623900  0.00000000  1
  Pr  Pr1  1  0.51623900  0.01623900  0.50000000  1
  Pr  Pr2  1  0.73376100  0.73376100  0.00000000  1
  Pr  Pr3  1  0.98376100  0.48376100  0.50000000  1
  Pr  Pr4  1  0.35976600  0.49848800  0.86127900  1
  Pr  Pr5  1  0.74848800  0.38720900  0.63872100  1
  Pr  Pr6  1  0.74848800  0.10976600  0.36127900  1
  Pr  Pr7  1  0.63720900  0.49848800  0.13872100  1
  Pr  Pr8  1  0.50151200  0.64023400  0.13872100  1
  Pr  Pr9  1  0.50151200  0.36279100  0.86127900  1
  Pr  Pr10  1  0.61279100  0.25151200  0.36127900  1
  Pr  Pr11  1  0.89023400  0.25151200  0.63872100  1
  C  C0  1  0.44578500  0.44578500  0.00000000  1
  C  C1  1  0.69578500  0.19578500  0.50000000  1
  C  C2  1  0.55421500  0.55421500  0.00000000  1
  C  C3  1  0.80421500  0.30421500  0.50000000  1
  I  I0  1  0.25000000  0.75000000  0.50000000  1
  I  I1  1  0.00000000  0.00000000  0.00000000  1
  I  I2  1  0.67140300  0.67140300  0.34280700  1
  I  I3  1  0.92140300  0.07859700  0.50000000  1
  I  I4  1  0.57859700  0.42140300  0.50000000  1
  I  I5  1  0.32859700  0.32859700  0.65719300  1
  I  I6  1  0.57859700  0.07859700  0.15719300  1
  I  I7  1  0.32859700  0.67140300  0.00000000  1
  I  I8  1  0.67140300  0.32859700  0.00000000  1
  I  I9  1  0.92140300  0.42140300  0.84280700  1
  I  I10  1  0.57613100  0.75261700  0.82351400  1
  I  I11  1  0.00261700  0.67910400  0.67648600  1
  I  I12  1  0.00261700  0.32613100  0.32351400  1
  I  I13  1  0.92910400  0.75261700  0.17648600  1
  I  I14  1  0.24738300  0.42386900  0.17648600  1
  I  I15  1  0.24738300  0.07089600  0.82351400  1
  I  I16  1  0.32089600  0.99738300  0.32351400  1
  I  I17  1  0.67386900  0.99738300  0.67648600  1
  I  I18  1  0.07185700  0.24449300  0.82736500  1
  I  I19  1  0.49449300  0.16712800  0.67263500  1
  I  I20  1  0.49449300  0.82185700  0.32736500  1
  I  I21  1  0.41712800  0.24449300  0.17263500  1
  I  I22  1  0.75550700  0.92814300  0.17263500  1
  I  I23  1  0.75550700  0.58287200  0.82736500  1
  I  I24  1  0.83287200  0.50550700  0.32736500  1
  I  I25  1  0.17814300  0.50550700  0.67263500  1
loop_
_geom_bond_atom_site_label_1
_geom_bond_atom_site_label_2
_geom_bond_distance
_geom_bond_site_symmetry_2
Cs0 I1 3.980241 1_555
Cs0 I16 4.197734 1_545
Cs0 I12 4.197747 1_555
Cs0 I21 4.234739 1_555
Cs0 I22 4.234751 1_445
Cs0 I14 4.268780 1_555
Cs0 I13 4.268792 1_445
Cs1 I0 3.980254 1_555
Cs1 I10 4.197747 1_555
Cs1 I14 4.197747 1_555
Cs1 I20 4.234739 1_555
Cs1 I25 4.234739 1_555
Cs1 I17 4.268790 1_555
Cs1 I12 4.268790 1_555
Cs2 I0 3.980254 1_555
Cs2 I13 4.197746 1_455
Cs2 I15 4.197746 1_565
Cs2 I24 4.234749 1_455
Cs2 I19 4.234749 1_565
Cs2 I16 4.268780 1_555
Cs2 I11 4.268780 1_555
Cs3 I1 3.980241 1_666
Cs3 I11 4.197734 1_655
Cs3 I17 4.197747 1_555
Cs3 I23 4.234739 1_555
Cs3 I18 4.234751 1_665
Cs3 I10 4.268780 1_555
Cs3 I15 4.268792 1_665
Cs4 I0 3.980241 1_555
Cs4 I13 4.197734 1_455
Cs4 I14 4.197747 1_555
Cs4 I24 4.234739 1_455
Cs4 I20 4.234751 1_555
Cs4 I12 4.268780 1_555
Cs4 I16 4.268792 1_555
Cs5 I1 3.980254 1_655
Cs5 I17 4.197747 1_544
Cs5 I12 4.197747 1_655
Cs5 I18 4.234739 1_654
Cs5 I22 4.234739 1_545
Cs5 I14 4.268790 1_655
Cs5 I10 4.268790 1_544
Cs6 I1 3.980254 1_565
Cs6 I11 4.197746 1_554
Cs6 I16 4.197746 1_555
Cs6 I23 4.234749 1_454
Cs6 I21 4.234749 1_565
Cs6 I13 4.268780 1_455
Cs6 I15 4.268780 1_564
Cs7 I0 3.980241 1_555
Cs7 I15 4.197734 1_565
Cs7 I10 4.197747 1_555
Cs7 I19 4.234739 1_565
Cs7 I25 4.234751 1_555
Cs7 I17 4.268780 1_555
Cs7 I11 4.268792 1_555
C0 C2 1.394695 1_555
C0 Pr0 2.309434 1_555
C0 Pr7 2.631043 1_555
C0 Pr4 2.631051 1_554
C0 Pr9 2.641333 1_554
C0 Pr8 2.641343 1_555
C1 C3 1.394695 1_555
C1 Pr1 2.309434 1_555
C1 Pr5 2.631043 1_555
C1 Pr6 2.631051 1_555
C1 Pr10 2.641333 1_555
C1 Pr11 2.641343 1_555
C2 Pr2 2.309434 1_555
C2 Pr9 2.631043 1_554
C2 Pr8 2.631051 1_555
C2 Pr7 2.641333 1_555
C2 Pr4 2.641343 1_554
C3 Pr3 2.309434 1_555
C3 Pr10 2.631043 1_555
C3 Pr11 2.631051 1_555
C3 Pr5 2.641333 1_555
C3 Pr6 2.641343 1_555
I0 Pr1 3.424534 1_565
I0 Pr3 3.424534 1_455
I1 Pr2 3.424534 1_445
I1 Pr0 3.424534 1_555
I2 Pr7 3.197805 1_555
I2 Pr8 3.197813 1_555
I3 Pr6 3.197784 1_555
I3 Pr11 3.197784 1_555
I4 Pr10 3.197795 1_555
I4 Pr5 3.197795 1_555
I5 Pr9 3.197805 1_555
I5 Pr4 3.197813 1_555
I6 Pr10 3.197805 1_555
I6 Pr6 3.197813 1_555
I7 Pr4 3.197784 1_554
I7 Pr8 3.197784 1_555
I8 Pr7 3.197795 1_555
I8 Pr9 3.197795 1_554
I9 Pr5 3.197805 1_555
I9 Pr11 3.197813 1_555
I10 Pr2 3.243378 1_556
I10 Pr4 3.341235 1_555
I11 Pr3 3.243387 1_455
I11 Pr5 3.341239 1_455
I12 Pr3 3.243378 1_455
I12 Pr6 3.341235 1_455
I13 Pr2 3.243387 1_555
I13 Pr7 3.341239 1_555
I14 Pr0 3.243378 1_555
I14 Pr8 3.341235 1_555
I15 Pr0 3.243387 1_556
I15 Pr9 3.341239 1_555
I16 Pr1 3.243387 1_565
I16 Pr10 3.341239 1_565
I17 Pr1 3.243378 1_565
I17 Pr11 3.341235 1_565
I18 Pr0 3.176073 1_556
I18 Pr4 3.325635 1_555
I18 Pr11 3.458266 1_455
I19 Pr1 3.176064 1_555
I19 Pr5 3.325635 1_555
I19 Pr9 3.458284 1_555
I20 Pr1 3.176073 1_565
I20 Pr6 3.325635 1_565
I20 Pr8 3.458266 1_555
I21 Pr0 3.176064 1_555
I21 Pr7 3.325635 1_555
I21 Pr10 3.458284 1_555
I22 Pr2 3.176073 1_555
I22 Pr8 3.325635 1_555
I22 Pr6 3.458266 1_565
I23 Pr2 3.176064 1_556
I23 Pr9 3.325635 1_555
I23 Pr5 3.458284 1_555
I24 Pr3 3.176064 1_555
I24 Pr10 3.325635 1_555
I24 Pr7 3.458284 1_555
I25 Pr3 3.176073 1_455
I25 Pr11 3.325635 1_455
I25 Pr4 3.458266 1_555
