# generated using pymatgen
data_KRb2VF6
_symmetry_space_group_name_H-M   'P 1'
_cell_length_a   6.26038739
_cell_length_b   6.26040010
_cell_length_c   6.26038672
_cell_angle_alpha   59.99993637
_cell_angle_beta   60.00013791
_cell_angle_gamma   59.99992572
_symmetry_Int_Tables_number   1
_chemical_formula_structural   KRb2VF6
_chemical_formula_sum   'K1 Rb2 V1 F6'
_cell_volume   173.49599787
_cell_formula_units_Z   1
loop_
 _symmetry_equiv_pos_site_id
 _symmetry_equiv_pos_as_xyz
  1  'x, y, z'
loop_
 _atom_site_type_symbol
 _atom_site_label
 _atom_site_symmetry_multiplicity
 _atom_site_fract_x
 _atom_site_fract_y
 _atom_site_fract_z
 _atom_site_occupancy
  K  K0  1  0.50000000  0.50000000  0.50000000  1
  Rb  Rb0  1  0.75000000  0.75000000  0.75000000  1
  Rb  Rb1  1  0.25000000  0.25000000  0.25000000  1
  V  V0  1  -0.00000000  -0.00000000  0.00000000  1
  F  F0  1  0.78075645  0.21924355  0.78075645  1
  F  F1  1  0.21924297  0.21924297  0.78075703  1
  F  F2  1  0.78075703  0.78075703  0.21924297  1
  F  F3  1  0.78075658  0.21924342  0.21924342  1
  F  F4  1  0.21924355  0.78075645  0.21924355  1
  F  F5  1  0.21924342  0.78075658  0.78075658  1
loop_
_geom_bond_atom_site_label_1
_geom_bond_atom_site_label_2
_geom_bond_distance
_geom_bond_site_symmetry_2
F0 V0 1.941074 1_656
F0 K0 2.485679 1_555
F0 Rb0 3.142022 1_555
F0 Rb1 3.142022 1_556
F0 Rb0 3.142022 1_545
F0 Rb1 3.142022 1_655
F1 V0 1.941077 1_556
F1 K0 2.485695 1_555
F1 Rb0 3.142016 1_545
F1 Rb1 3.142016 1_555
F1 Rb0 3.142016 1_455
F1 Rb1 3.142016 1_556
F2 V0 1.941077 1_665
F2 K0 2.485695 1_555
F2 Rb1 3.142016 1_655
F2 Rb0 3.142016 1_555
F2 Rb0 3.142016 1_554
F2 Rb1 3.142016 1_565
F3 V0 1.941081 1_655
F3 K0 2.485690 1_555
F3 Rb1 3.142016 1_655
F3 Rb0 3.142016 1_545
F3 Rb0 3.142016 1_554
F3 Rb1 3.142016 1_555
F4 V0 1.941074 1_565
F4 K0 2.485679 1_555
F4 Rb0 3.142022 1_455
F4 Rb1 3.142022 1_565
F4 Rb0 3.142022 1_554
F4 Rb1 3.142022 1_555
F5 V0 1.941081 1_566
F5 K0 2.485690 1_555
F5 Rb1 3.142016 1_556
F5 Rb0 3.142016 1_555
F5 Rb1 3.142016 1_565
F5 Rb0 3.142016 1_455
