# generated using pymatgen
data_Rb3VS4
_symmetry_space_group_name_H-M   'P 1'
_cell_length_a   9.46874073
_cell_length_b   9.45770402
_cell_length_c   11.01991984
_cell_angle_alpha   90.00000000
_cell_angle_beta   90.00000000
_cell_angle_gamma   90.00000000
_symmetry_Int_Tables_number   1
_chemical_formula_structural   Rb3VS4
_chemical_formula_sum   'Rb12 V4 S16'
_cell_volume   986.86189234
_cell_formula_units_Z   4
loop_
 _symmetry_equiv_pos_site_id
 _symmetry_equiv_pos_as_xyz
  1  'x, y, z'
loop_
 _atom_site_type_symbol
 _atom_site_label
 _atom_site_symmetry_multiplicity
 _atom_site_fract_x
 _atom_site_fract_y
 _atom_site_fract_z
 _atom_site_occupancy
  Rb  Rb0  1  0.04714877  0.79180854  0.45735346  1
  Rb  Rb1  1  0.45285123  0.29180854  0.54264654  1
  Rb  Rb2  1  0.54714877  0.70819146  0.04264654  1
  Rb  Rb3  1  0.95285123  0.20819146  0.95735346  1
  Rb  Rb4  1  0.95285123  0.20819146  0.54264654  1
  Rb  Rb5  1  0.54714877  0.70819146  0.45735346  1
  Rb  Rb6  1  0.45285123  0.29180854  0.95735346  1
  Rb  Rb7  1  0.04714877  0.79180854  0.04264654  1
  Rb  Rb8  1  0.14563030  0.58801024  0.75000000  1
  Rb  Rb9  1  0.35436970  0.08801024  0.25000000  1
  Rb  Rb10  1  0.64563030  0.91198976  0.75000000  1
  Rb  Rb11  1  0.85436970  0.41198976  0.25000000  1
  V  V0  1  0.78017368  0.98349985  0.25000000  1
  V  V1  1  0.71982632  0.48349985  0.75000000  1
  V  V2  1  0.28017368  0.51650015  0.25000000  1
  V  V3  1  0.21982632  0.01650015  0.75000000  1
  S  S0  1  0.79448119  0.75651166  0.25000000  1
  S  S1  1  0.70551881  0.25651166  0.75000000  1
  S  S2  1  0.29448119  0.74348834  0.25000000  1
  S  S3  1  0.20551881  0.24348834  0.75000000  1
  S  S4  1  0.00893450  0.92870422  0.75000000  1
  S  S5  1  0.49106550  0.42870422  0.25000000  1
  S  S6  1  0.50893450  0.57129578  0.75000000  1
  S  S7  1  0.99106550  0.07129578  0.25000000  1
  S  S8  1  0.32940635  0.95063519  0.58873460  1
  S  S9  1  0.17059365  0.45063519  0.41126540  1
  S  S10  1  0.82940635  0.54936481  0.91126540  1
  S  S11  1  0.67059365  0.04936481  0.08873460  1
  S  S12  1  0.67059365  0.04936481  0.41126540  1
  S  S13  1  0.82940635  0.54936481  0.58873460  1
  S  S14  1  0.17059365  0.45063519  0.08873460  1
  S  S15  1  0.32940635  0.95063519  0.91126540  1
loop_
_geom_bond_atom_site_label_1
_geom_bond_atom_site_label_2
_geom_bond_distance
_geom_bond_site_symmetry_2
Rb0 S2 3.303752 1_555
Rb0 S0 3.325137 1_455
Rb0 S8 3.390499 1_555
Rb0 S13 3.406556 1_455
Rb0 S9 3.469279 1_555
Rb0 S4 3.493919 1_555
Rb0 S7 3.534174 1_465
Rb1 S3 3.303752 1_555
Rb1 S1 3.325137 1_555
Rb1 S9 3.390499 1_555
Rb1 S12 3.406556 1_555
Rb1 S8 3.469279 1_545
Rb1 S5 3.493919 1_555
Rb1 S6 3.534174 1_555
Rb2 S0 3.303752 1_555
Rb2 S2 3.325137 1_555
Rb2 S10 3.390499 1_554
Rb2 S15 3.406556 1_554
Rb2 S11 3.469279 1_565
Rb2 S6 3.493919 1_554
Rb2 S5 3.534174 1_555
Rb3 S1 3.303752 1_555
Rb3 S3 3.325137 1_655
Rb3 S11 3.390499 1_556
Rb3 S14 3.406556 1_656
Rb3 S10 3.469279 1_555
Rb3 S7 3.493919 1_556
Rb3 S4 3.534174 1_645
Rb4 S1 3.303752 1_555
Rb4 S3 3.325137 1_655
Rb4 S12 3.390499 1_555
Rb4 S9 3.406556 1_655
Rb4 S13 3.469279 1_555
Rb4 S7 3.493919 1_555
Rb4 S4 3.534174 1_645
Rb5 S0 3.303752 1_555
Rb5 S2 3.325137 1_555
Rb5 S13 3.390499 1_555
Rb5 S8 3.406556 1_555
Rb5 S12 3.469279 1_565
Rb5 S6 3.493919 1_555
Rb5 S5 3.534174 1_555
Rb6 S3 3.303752 1_555
Rb6 S1 3.325137 1_555
Rb6 S14 3.390499 1_556
Rb6 S11 3.406556 1_556
Rb6 S15 3.469279 1_545
Rb6 S5 3.493919 1_556
Rb6 S6 3.534174 1_555
Rb7 S2 3.303752 1_555
Rb7 S0 3.325137 1_455
Rb7 S15 3.390499 1_554
Rb7 S10 3.406556 1_454
Rb7 S14 3.469279 1_555
Rb7 S4 3.493919 1_554
Rb7 S7 3.534174 1_465
Rb8 S3 3.307363 1_555
Rb8 S6 3.443664 1_555
Rb8 S4 3.472430 1_555
Rb8 S10 3.501039 1_455
Rb8 S13 3.501039 1_455
Rb9 S2 3.307363 1_545
Rb9 S7 3.443664 1_455
Rb9 S5 3.472430 1_555
Rb9 S12 3.501039 1_555
Rb9 S11 3.501039 1_555
Rb10 S1 3.307363 1_565
Rb10 S4 3.443664 1_655
Rb10 S6 3.472430 1_555
Rb10 S15 3.501039 1_555
Rb10 S8 3.501039 1_555
Rb11 S0 3.307363 1_555
Rb11 S5 3.443664 1_555
Rb11 S7 3.472430 1_555
Rb11 S14 3.501039 1_655
Rb11 S9 3.501039 1_655
S0 V0 2.151057 1_555
S1 V1 2.151057 1_555
S2 V2 2.151057 1_555
S3 V3 2.151057 1_555
S4 V3 2.162639 1_565
S5 V2 2.162639 1_555
S6 V1 2.162639 1_555
S7 V0 2.162639 1_545
S8 V3 2.150075 1_565
S9 V2 2.150075 1_555
S10 V1 2.150075 1_555
S11 V0 2.150075 1_545
S12 V0 2.150075 1_545
S13 V1 2.150075 1_555
S14 V2 2.150075 1_555
S15 V3 2.150075 1_565
