# generated using pymatgen
data_Y10W2O21
_symmetry_space_group_name_H-M   'P 1'
_cell_length_a   10.64376600
_cell_length_b   10.72304700
_cell_length_c   16.08661300
_cell_angle_alpha   90.00000000
_cell_angle_beta   90.00000000
_cell_angle_gamma   90.00000000
_symmetry_Int_Tables_number   1
_chemical_formula_structural   Y10W2O21
_chemical_formula_sum   'Y40 W8 O84'
_cell_volume   1836.02310296
_cell_formula_units_Z   4
loop_
 _symmetry_equiv_pos_site_id
 _symmetry_equiv_pos_as_xyz
  1  'x, y, z'
loop_
 _atom_site_type_symbol
 _atom_site_label
 _atom_site_symmetry_multiplicity
 _atom_site_fract_x
 _atom_site_fract_y
 _atom_site_fract_z
 _atom_site_occupancy
  Y  Y0  1  0.24980900  0.34430900  0.09885200  1
  Y  Y1  1  0.47880700  0.11050100  0.08903400  1
  Y  Y2  1  0.01367400  0.14030000  0.74316500  1
  Y  Y3  1  0.51153400  0.63492200  0.41973500  1
  Y  Y4  1  0.01153400  0.86507800  0.91973500  1
  Y  Y5  1  0.74895400  0.62753500  0.27146000  1
  Y  Y6  1  0.98632600  0.85970000  0.25683500  1
  Y  Y7  1  0.97880700  0.11050100  0.41096600  1
  Y  Y8  1  0.48632600  0.64030000  0.75683500  1
  Y  Y9  1  0.48846600  0.36507800  0.58026500  1
  Y  Y10  1  0.51153400  0.86507800  0.58026500  1
  Y  Y11  1  0.25104600  0.37246500  0.72854000  1
  Y  Y12  1  0.75104600  0.37246500  0.77146000  1
  Y  Y13  1  0.25104600  0.12753500  0.27146000  1
  Y  Y14  1  0.75019100  0.84430900  0.09885200  1
  Y  Y15  1  0.97880700  0.38949900  0.58903400  1
  Y  Y16  1  0.74980900  0.15569100  0.59885200  1
  Y  Y17  1  0.75019100  0.65569100  0.90114800  1
  Y  Y18  1  0.47880700  0.38949900  0.91096600  1
  Y  Y19  1  0.24895400  0.62753500  0.22854000  1
  Y  Y20  1  0.74895400  0.87246500  0.72854000  1
  Y  Y21  1  0.52119300  0.61050100  0.08903400  1
  Y  Y22  1  0.25019100  0.84430900  0.40114800  1
  Y  Y23  1  0.24980900  0.15569100  0.90114800  1
  Y  Y24  1  0.98632600  0.64030000  0.74316500  1
  Y  Y25  1  0.51367400  0.14030000  0.75683500  1
  Y  Y26  1  0.51367400  0.35970000  0.24316500  1
  Y  Y27  1  0.74980900  0.34430900  0.40114800  1
  Y  Y28  1  0.02119300  0.61050100  0.41096600  1
  Y  Y29  1  0.75104600  0.12753500  0.22854000  1
  Y  Y30  1  0.02119300  0.88949900  0.58903400  1
  Y  Y31  1  0.25019100  0.65569100  0.59885200  1
  Y  Y32  1  0.48632600  0.85970000  0.24316500  1
  Y  Y33  1  0.01367400  0.35970000  0.25683500  1
  Y  Y34  1  0.48846600  0.13492200  0.41973500  1
  Y  Y35  1  0.98846600  0.36507800  0.91973500  1
  Y  Y36  1  0.98846600  0.13492200  0.08026500  1
  Y  Y37  1  0.52119300  0.88949900  0.91096600  1
  Y  Y38  1  0.01153400  0.63492200  0.08026500  1
  Y  Y39  1  0.24895400  0.87246500  0.77146000  1
  W  W0  1  0.25181200  0.87668800  0.08550500  1
  W  W1  1  0.75181200  0.87668800  0.41449500  1
  W  W2  1  0.24818800  0.12331200  0.58550500  1
  W  W3  1  0.74818800  0.37668800  0.08550500  1
  W  W4  1  0.25181200  0.62331200  0.91449500  1
  W  W5  1  0.75181200  0.62331200  0.58550500  1
  W  W6  1  0.24818800  0.37668800  0.41449500  1
  W  W7  1  0.74818800  0.12331200  0.91449500  1
  O  O0  1  0.19103200  0.75000000  0.00000000  1
  O  O1  1  0.89283100  0.49125500  0.32937100  1
  O  O2  1  0.38029000  0.78379600  0.67761500  1
  O  O3  1  0.30896800  0.25000000  0.50000000  1
  O  O4  1  0.38525500  0.50610800  0.65853900  1
  O  O5  1  0.12943000  0.24814900  0.63278500  1
  O  O6  1  0.62993300  0.78678400  0.34330000  1
  O  O7  1  0.88012900  0.25000000  0.50000000  1
  O  O8  1  0.62993300  0.71321600  0.65670000  1
  O  O9  1  0.12187200  0.97820700  0.04136600  1
  O  O10  1  0.62187200  0.97820700  0.45863400  1
  O  O11  1  0.87057000  0.74814900  0.63278500  1
  O  O12  1  0.12419800  0.05492700  0.51229800  1
  O  O13  1  0.11971000  0.21620400  0.17761500  1
  O  O14  1  0.11474500  0.00610800  0.84146100  1
  O  O15  1  0.61987100  0.75000000  0.00000000  1
  O  O16  1  0.37580200  0.55492700  0.98770200  1
  O  O17  1  0.87812200  0.27012400  0.67874400  1
  O  O18  1  0.38696700  0.75000000  0.50000000  1
  O  O19  1  0.37580200  0.94507300  0.01229800  1
  O  O20  1  0.89283100  0.00874500  0.67062900  1
  O  O21  1  0.69103200  0.75000000  0.50000000  1
  O  O22  1  0.10716900  0.50874500  0.67062900  1
  O  O23  1  0.11987100  0.75000000  0.50000000  1
  O  O24  1  0.12993300  0.71321600  0.84330000  1
  O  O25  1  0.12993300  0.78678400  0.15670000  1
  O  O26  1  0.38029000  0.71620400  0.32238500  1
  O  O27  1  0.62187800  0.72987600  0.17874400  1
  O  O28  1  0.37006700  0.21321600  0.65670000  1
  O  O29  1  0.37812200  0.27012400  0.82125600  1
  O  O30  1  0.88696700  0.75000000  0.00000000  1
  O  O31  1  0.81156400  0.51606000  0.67020600  1
  O  O32  1  0.12419800  0.44507300  0.48770200  1
  O  O33  1  0.37812800  0.02179300  0.54136600  1
  O  O34  1  0.12187800  0.77012400  0.67874400  1
  O  O35  1  0.62187800  0.77012400  0.82125600  1
  O  O36  1  0.12943000  0.25185100  0.36721500  1
  O  O37  1  0.12187800  0.72987600  0.32125600  1
  O  O38  1  0.60716900  0.99125500  0.17062900  1
  O  O39  1  0.11474500  0.49389200  0.15853900  1
  O  O40  1  0.61971000  0.28379600  0.67761500  1
  O  O41  1  0.37057000  0.75185100  0.13278500  1
  O  O42  1  0.39283100  0.00874500  0.82937100  1
  O  O43  1  0.68843600  0.48394000  0.17020600  1
  O  O44  1  0.87812800  0.47820700  0.04136600  1
  O  O45  1  0.39283100  0.49125500  0.17062900  1
  O  O46  1  0.12187200  0.52179300  0.95863400  1
  O  O47  1  0.61474500  0.00610800  0.65853900  1
  O  O48  1  0.88029000  0.78379600  0.82238500  1
  O  O49  1  0.87812200  0.22987600  0.32125600  1
  O  O50  1  0.18843600  0.48394000  0.32979400  1
  O  O51  1  0.87812800  0.02179300  0.95863400  1
  O  O52  1  0.11971000  0.28379600  0.82238500  1
  O  O53  1  0.31156400  0.51606000  0.82979400  1
  O  O54  1  0.37812800  0.47820700  0.45863400  1
  O  O55  1  0.31156400  0.98394000  0.17020600  1
  O  O56  1  0.88525500  0.50610800  0.84146100  1
  O  O57  1  0.37006700  0.28678400  0.34330000  1
  O  O58  1  0.11303300  0.25000000  0.00000000  1
  O  O59  1  0.87006700  0.21321600  0.84330000  1
  O  O60  1  0.10716900  0.99125500  0.32937100  1
  O  O61  1  0.62419800  0.05492700  0.98770200  1
  O  O62  1  0.68843600  0.01606000  0.82979400  1
  O  O63  1  0.37057000  0.74814900  0.86721500  1
  O  O64  1  0.18843600  0.01606000  0.67020600  1
  O  O65  1  0.81156400  0.98394000  0.32979400  1
  O  O66  1  0.88029000  0.71620400  0.17761500  1
  O  O67  1  0.61303300  0.25000000  0.50000000  1
  O  O68  1  0.61474500  0.49389200  0.34146100  1
  O  O69  1  0.37812200  0.22987600  0.17874400  1
  O  O70  1  0.38012900  0.25000000  0.00000000  1
  O  O71  1  0.62943000  0.24814900  0.86721500  1
  O  O72  1  0.80896800  0.25000000  0.00000000  1
  O  O73  1  0.87057000  0.75185100  0.36721500  1
  O  O74  1  0.87580200  0.55492700  0.51229800  1
  O  O75  1  0.62943000  0.25185100  0.13278500  1
  O  O76  1  0.61971000  0.21620400  0.32238500  1
  O  O77  1  0.60716900  0.50874500  0.82937100  1
  O  O78  1  0.87006700  0.28678400  0.15670000  1
  O  O79  1  0.88525500  0.99389200  0.15853900  1
  O  O80  1  0.62419800  0.44507300  0.01229800  1
  O  O81  1  0.38525500  0.99389200  0.34146100  1
  O  O82  1  0.87580200  0.94507300  0.48770200  1
  O  O83  1  0.62187200  0.52179300  0.54136600  1
loop_
_geom_bond_atom_site_label_1
_geom_bond_atom_site_label_2
_geom_bond_distance
_geom_bond_site_symmetry_2
O0 W0 2.038614 1_555
O0 W4 2.038614 1_554
O0 Y4 2.615348 1_554
O0 Y38 2.615348 1_555
O1 Y33 2.237392 1_655
O1 Y28 2.285730 1_655
O1 Y5 2.312690 1_555
O1 Y27 2.476580 1_555
O2 Y39 2.266542 1_555
O2 Y10 2.272343 1_555
O2 Y8 2.294663 1_555
O2 Y31 2.325912 1_555
O3 W6 2.038614 1_555
O3 W2 2.038614 1_555
O3 Y34 2.615348 1_555
O3 Y9 2.615348 1_555
O4 Y9 2.253725 1_555
O4 Y11 2.315663 1_555
O4 Y31 2.358250 1_555
O4 Y8 2.393369 1_555
O5 W2 1.992032 1_555
O5 Y15 2.315801 1_455
O5 Y11 2.413580 1_555
O5 Y2 2.451192 1_555
O6 W1 1.980890 1_555
O6 Y32 2.354250 1_555
O6 Y3 2.398283 1_555
O6 Y5 2.420007 1_555
O7 Y15 2.322085 1_555
O7 Y7 2.322085 1_555
O7 Y27 2.339965 1_555
O7 Y16 2.339965 1_555
O8 W5 1.980890 1_555
O8 Y8 2.354250 1_555
O8 Y10 2.398283 1_555
O8 Y20 2.420007 1_555
O9 W0 1.897902 1_555
O9 Y36 2.287303 1_465
O9 Y4 2.584420 1_554
O10 W1 1.897902 1_555
O10 Y34 2.287303 1_565
O10 Y10 2.584420 1_555
O11 W5 1.992032 1_555
O11 Y30 2.315801 1_655
O11 Y20 2.413580 1_555
O11 Y24 2.451192 1_555
O12 W2 1.914746 1_555
O12 Y7 2.325316 1_455
O12 Y30 2.423324 1_545
O13 Y13 2.266542 1_555
O13 Y36 2.272343 1_455
O13 Y33 2.294663 1_555
O13 Y0 2.325912 1_555
O14 Y4 2.253725 1_545
O14 Y39 2.315663 1_545
O14 Y23 2.358250 1_555
O14 Y2 2.393369 1_555
O15 Y37 2.322085 1_554
O15 Y21 2.322085 1_555
O15 Y14 2.339965 1_555
O15 Y17 2.339965 1_554
O16 W4 1.914746 1_555
O16 Y21 2.325316 1_556
O16 Y18 2.423324 1_555
O17 Y15 2.206730 1_555
O17 Y16 2.241126 1_555
O17 Y2 2.256888 1_655
O17 Y12 2.293092 1_555
O18 Y3 2.224367 1_555
O18 Y10 2.224367 1_555
O18 Y22 2.381342 1_555
O18 Y31 2.381342 1_555
O19 W0 1.914746 1_555
O19 Y37 2.325316 1_554
O19 Y1 2.423324 1_565
O20 Y2 2.237392 1_655
O20 Y30 2.285730 1_645
O20 Y20 2.312690 1_545
O20 Y16 2.476580 1_555
O21 W1 2.038614 1_555
O21 W5 2.038614 1_555
O21 Y3 2.615348 1_555
O21 Y10 2.615348 1_555
O22 Y24 2.237392 1_455
O22 Y15 2.285730 1_455
O22 Y11 2.312690 1_555
O22 Y31 2.476580 1_555
O23 Y30 2.322085 1_555
O23 Y28 2.322085 1_555
O23 Y22 2.339965 1_555
O23 Y31 2.339965 1_555
O24 W4 1.980890 1_555
O24 Y24 2.354250 1_455
O24 Y4 2.398283 1_555
O24 Y39 2.420007 1_555
O25 W0 1.980890 1_555
O25 Y6 2.354250 1_455
O25 Y38 2.398283 1_555
O25 Y19 2.420007 1_555
O26 Y19 2.266542 1_555
O26 Y3 2.272343 1_555
O26 Y32 2.294663 1_555
O26 Y22 2.325912 1_555
O27 Y21 2.206730 1_555
O27 Y14 2.241126 1_555
O27 Y32 2.256888 1_555
O27 Y5 2.293092 1_555
O28 W2 1.980890 1_555
O28 Y25 2.354250 1_555
O28 Y9 2.398283 1_555
O28 Y11 2.420007 1_555
O29 Y18 2.206730 1_555
O29 Y23 2.241126 1_555
O29 Y25 2.256888 1_555
O29 Y11 2.293092 1_555
O30 Y38 2.224367 1_655
O30 Y4 2.224367 1_654
O30 Y14 2.381342 1_555
O30 Y17 2.381342 1_554
O31 W5 1.893062 1_555
O31 Y12 2.332150 1_555
O31 Y24 2.571458 1_555
O31 Y15 2.591444 1_555
O32 W6 1.914746 1_555
O32 Y15 2.325316 1_455
O32 Y28 2.423324 1_555
O33 W2 1.897902 1_555
O33 Y10 2.287303 1_545
O33 Y34 2.584420 1_555
O34 Y30 2.206730 1_555
O34 Y31 2.241126 1_555
O34 Y24 2.256888 1_455
O34 Y39 2.293092 1_555
O35 Y37 2.206730 1_555
O35 Y17 2.241126 1_555
O35 Y8 2.256888 1_555
O35 Y20 2.293092 1_555
O36 W6 1.992032 1_555
O36 Y7 2.315801 1_455
O36 Y13 2.413580 1_555
O36 Y33 2.451192 1_555
O37 Y28 2.206730 1_555
O37 Y22 2.241126 1_555
O37 Y6 2.256888 1_455
O37 Y19 2.293092 1_555
O38 Y32 2.237392 1_555
O38 Y1 2.285730 1_565
O38 Y29 2.312690 1_565
O38 Y14 2.476580 1_555
O39 Y38 2.253725 1_555
O39 Y19 2.315663 1_555
O39 Y0 2.358250 1_555
O39 Y33 2.393369 1_555
O40 Y12 2.266542 1_555
O40 Y9 2.272343 1_555
O40 Y25 2.294663 1_555
O40 Y16 2.325912 1_555
O41 W0 1.992032 1_555
O41 Y21 2.315801 1_555
O41 Y19 2.413580 1_555
O41 Y32 2.451192 1_555
O42 Y25 2.237392 1_555
O42 Y37 2.285730 1_545
O42 Y39 2.312690 1_545
O42 Y23 2.476580 1_555
O43 W3 1.893062 1_555
O43 Y5 2.332150 1_555
O43 Y26 2.571458 1_555
O43 Y21 2.591444 1_555
O44 W3 1.897902 1_555
O44 Y38 2.287303 1_655
O44 Y35 2.584420 1_554
O45 Y26 2.237392 1_555
O45 Y21 2.285730 1_555
O45 Y19 2.312690 1_555
O45 Y0 2.476580 1_555
O46 W4 1.897902 1_555
O46 Y35 2.287303 1_455
O46 Y38 2.584420 1_556
O47 Y10 2.253725 1_545
O47 Y20 2.315663 1_545
O47 Y16 2.358250 1_555
O47 Y25 2.393369 1_555
O48 Y20 2.266542 1_555
O48 Y4 2.272343 1_655
O48 Y24 2.294663 1_555
O48 Y17 2.325912 1_555
O49 Y7 2.206730 1_555
O49 Y27 2.241126 1_555
O49 Y33 2.256888 1_655
O49 Y29 2.293092 1_555
O50 W6 1.893062 1_555
O50 Y19 2.332150 1_555
O50 Y33 2.571458 1_555
O50 Y28 2.591444 1_555
O51 W7 1.897902 1_555
O51 Y4 2.287303 1_645
O51 Y36 2.584420 1_556
O52 Y11 2.266542 1_555
O52 Y35 2.272343 1_455
O52 Y2 2.294663 1_555
O52 Y23 2.325912 1_555
O53 W4 1.893062 1_555
O53 Y11 2.332150 1_555
O53 Y8 2.571458 1_555
O53 Y18 2.591444 1_555
O54 W6 1.897902 1_555
O54 Y3 2.287303 1_555
O54 Y9 2.584420 1_555
O55 W0 1.893062 1_555
O55 Y13 2.332150 1_565
O55 Y32 2.571458 1_555
O55 Y1 2.591444 1_565
O56 Y35 2.253725 1_555
O56 Y12 2.315663 1_555
O56 Y17 2.358250 1_555
O56 Y24 2.393369 1_555
O57 W6 1.980890 1_555
O57 Y26 2.354250 1_555
O57 Y34 2.398283 1_555
O57 Y13 2.420007 1_555
O58 Y36 2.224367 1_455
O58 Y35 2.224367 1_454
O58 Y0 2.381342 1_555
O58 Y23 2.381342 1_554
O59 W7 1.980890 1_555
O59 Y2 2.354250 1_655
O59 Y35 2.398283 1_555
O59 Y12 2.420007 1_555
O60 Y6 2.237392 1_455
O60 Y7 2.285730 1_465
O60 Y13 2.312690 1_565
O60 Y22 2.476580 1_555
O61 W7 1.914746 1_555
O61 Y1 2.325316 1_556
O61 Y37 2.423324 1_545
O62 W7 1.893062 1_555
O62 Y20 2.332150 1_545
O62 Y25 2.571458 1_555
O62 Y37 2.591444 1_545
O63 W4 1.992032 1_555
O63 Y37 2.315801 1_555
O63 Y39 2.413580 1_555
O63 Y8 2.451192 1_555
O64 W2 1.893062 1_555
O64 Y39 2.332150 1_545
O64 Y2 2.571458 1_555
O64 Y30 2.591444 1_545
O65 W1 1.893062 1_555
O65 Y29 2.332150 1_565
O65 Y6 2.571458 1_555
O65 Y7 2.591444 1_565
O66 Y5 2.266542 1_555
O66 Y38 2.272343 1_655
O66 Y6 2.294663 1_555
O66 Y14 2.325912 1_555
O67 Y34 2.224367 1_555
O67 Y9 2.224367 1_555
O67 Y27 2.381342 1_555
O67 Y16 2.381342 1_555
O68 Y3 2.253725 1_555
O68 Y5 2.315663 1_555
O68 Y27 2.358250 1_555
O68 Y26 2.393369 1_555
O69 Y1 2.206730 1_555
O69 Y0 2.241126 1_555
O69 Y26 2.256888 1_555
O69 Y13 2.293092 1_555
O70 Y18 2.322085 1_554
O70 Y1 2.322085 1_555
O70 Y0 2.339965 1_555
O70 Y23 2.339965 1_554
O71 W7 1.992032 1_555
O71 Y18 2.315801 1_555
O71 Y12 2.413580 1_555
O71 Y25 2.451192 1_555
O72 W3 2.038614 1_555
O72 W7 2.038614 1_554
O72 Y36 2.615348 1_555
O72 Y35 2.615348 1_554
O73 W1 1.992032 1_555
O73 Y28 2.315801 1_655
O73 Y5 2.413580 1_555
O73 Y6 2.451192 1_555
O74 W5 1.914746 1_555
O74 Y28 2.325316 1_655
O74 Y15 2.423324 1_555
O75 W3 1.992032 1_555
O75 Y1 2.315801 1_555
O75 Y29 2.413580 1_555
O75 Y26 2.451192 1_555
O76 Y29 2.266542 1_555
O76 Y34 2.272343 1_555
O76 Y26 2.294663 1_555
O76 Y27 2.325912 1_555
O77 Y8 2.237392 1_555
O77 Y18 2.285730 1_555
O77 Y12 2.312690 1_555
O77 Y17 2.476580 1_555
O78 W3 1.980890 1_555
O78 Y33 2.354250 1_655
O78 Y36 2.398283 1_555
O78 Y29 2.420007 1_555
O79 Y36 2.253725 1_565
O79 Y29 2.315663 1_565
O79 Y14 2.358250 1_555
O79 Y6 2.393369 1_555
O80 W3 1.914746 1_555
O80 Y18 2.325316 1_554
O80 Y21 2.423324 1_555
O81 Y34 2.253725 1_565
O81 Y13 2.315663 1_565
O81 Y22 2.358250 1_555
O81 Y32 2.393369 1_555
O82 W1 1.914746 1_555
O82 Y30 2.325316 1_655
O82 Y7 2.423324 1_565
O83 W5 1.897902 1_555
O83 Y9 2.287303 1_555
O83 Y3 2.584420 1_555
