# generated using pymatgen
data_Cs2NaFeF6
_symmetry_space_group_name_H-M   'P 1'
_cell_length_a   10.98451438
_cell_length_b   10.98451438
_cell_length_c   10.98451439
_cell_angle_alpha   33.71878641
_cell_angle_beta   33.71878641
_cell_angle_gamma   33.71878794
_symmetry_Int_Tables_number   1
_chemical_formula_structural   Cs2NaFeF6
_chemical_formula_sum   'Cs4 Na2 Fe2 F12'
_cell_volume   363.89027441
_cell_formula_units_Z   2
loop_
 _symmetry_equiv_pos_site_id
 _symmetry_equiv_pos_as_xyz
  1  'x, y, z'
loop_
 _atom_site_type_symbol
 _atom_site_label
 _atom_site_symmetry_multiplicity
 _atom_site_fract_x
 _atom_site_fract_y
 _atom_site_fract_z
 _atom_site_occupancy
  Cs  Cs0  1  0.12750200  0.12750200  0.12750200  1
  Cs  Cs1  1  0.87249800  0.87249800  0.87249800  1
  Cs  Cs2  1  0.28202300  0.28202300  0.28202300  1
  Cs  Cs3  1  0.71797700  0.71797700  0.71797700  1
  Na  Na0  1  0.40285700  0.40285700  0.40285700  1
  Na  Na1  1  0.59714300  0.59714300  0.59714300  1
  Fe  Fe0  1  0.00000000  0.00000000  0.00000000  1
  Fe  Fe1  1  0.50000000  0.50000000  0.50000000  1
  F  F0  1  0.17733300  0.60429600  0.60429600  1
  F  F1  1  0.60429600  0.60429600  0.17733300  1
  F  F2  1  0.60429600  0.17733300  0.60429600  1
  F  F3  1  0.39570400  0.82266700  0.39570400  1
  F  F4  1  0.82266700  0.39570400  0.39570400  1
  F  F5  1  0.39570400  0.39570400  0.82266700  1
  F  F6  1  0.25870300  0.81596000  0.81596000  1
  F  F7  1  0.81596000  0.81596000  0.25870300  1
  F  F8  1  0.81596000  0.25870300  0.81596000  1
  F  F9  1  0.18404000  0.74129700  0.18404000  1
  F  F10  1  0.74129700  0.18404000  0.18404000  1
  F  F11  1  0.18404000  0.18404000  0.74129700  1
loop_
_geom_bond_atom_site_label_1
_geom_bond_atom_site_label_2
_geom_bond_distance
_geom_bond_site_symmetry_2
Cs0 F5 3.191897 1_554
Cs0 F3 3.191897 1_545
Cs0 F4 3.191897 1_455
Cs0 F2 3.197278 1_554
Cs0 F0 3.197278 1_554
Cs0 F0 3.197278 1_545
Cs0 F2 3.197278 1_455
Cs0 F1 3.197278 1_545
Cs0 F1 3.197278 1_455
Cs0 F11 3.262551 1_554
Cs0 F10 3.262551 1_455
Cs0 F9 3.262551 1_545
Cs1 F1 3.191897 1_556
Cs1 F2 3.191897 1_565
Cs1 F0 3.191897 1_655
Cs1 F3 3.197278 1_556
Cs1 F4 3.197278 1_556
Cs1 F4 3.197278 1_565
Cs1 F3 3.197278 1_655
Cs1 F5 3.197278 1_655
Cs1 F5 3.197278 1_565
Cs1 F7 3.262551 1_556
Cs1 F8 3.262551 1_565
Cs1 F6 3.262551 1_655
Cs2 F5 3.195201 1_554
Cs2 F3 3.195201 1_545
Cs2 F4 3.195201 1_455
Cs2 F6 3.225859 1_545
Cs2 F8 3.225859 1_455
Cs2 F8 3.225859 1_554
Cs2 F6 3.225859 1_554
Cs2 F7 3.225859 1_455
Cs2 F7 3.225859 1_545
Cs2 F11 3.410203 1_555
Cs2 F9 3.410203 1_555
Cs2 F10 3.410203 1_555
Cs3 F1 3.195201 1_556
Cs3 F2 3.195201 1_565
Cs3 F0 3.195201 1_655
Cs3 F9 3.225859 1_655
Cs3 F10 3.225859 1_565
Cs3 F9 3.225859 1_556
Cs3 F10 3.225859 1_556
Cs3 F11 3.225859 1_565
Cs3 F11 3.225859 1_655
Cs3 F7 3.410203 1_555
Cs3 F8 3.410203 1_555
Cs3 F6 3.410203 1_555
F0 Fe1 1.964929 1_555
F0 Na0 2.415888 1_555
F1 Fe1 1.964929 1_555
F1 Na0 2.415888 1_555
F2 Fe1 1.964929 1_555
F2 Na0 2.415888 1_555
F3 Fe1 1.964929 1_555
F3 Na1 2.415888 1_555
F4 Fe1 1.964929 1_555
F4 Na1 2.415888 1_555
F5 Fe1 1.964929 1_555
F5 Na1 2.415888 1_555
F6 Fe0 1.983482 1_566
F6 Na1 2.292662 1_555
F7 Fe0 1.983482 1_665
F7 Na1 2.292662 1_555
F8 Fe0 1.983482 1_656
F8 Na1 2.292662 1_555
F9 Fe0 1.983482 1_565
F9 Na0 2.292662 1_555
F10 Fe0 1.983482 1_655
F10 Na0 2.292662 1_555
F11 Fe0 1.983482 1_556
F11 Na0 2.292662 1_555
