# generated using pymatgen
data_Ti11Fe13O36
_symmetry_space_group_name_H-M   'P 1'
_cell_length_a   5.15600100
_cell_length_b   5.59192692
_cell_length_c   25.61093614
_cell_angle_alpha   92.91247292
_cell_angle_beta   90.14695477
_cell_angle_gamma   117.34338846
_symmetry_Int_Tables_number   1
_chemical_formula_structural   Ti11Fe13O36
_chemical_formula_sum   'Ti11 Fe13 O36'
_cell_volume   654.78423040
_cell_formula_units_Z   1
loop_
 _symmetry_equiv_pos_site_id
 _symmetry_equiv_pos_as_xyz
  1  'x, y, z'
loop_
 _atom_site_type_symbol
 _atom_site_label
 _atom_site_symmetry_multiplicity
 _atom_site_fract_x
 _atom_site_fract_y
 _atom_site_fract_z
 _atom_site_occupancy
  Ti  Ti0  1  0.47550700  0.94660500  0.94348100  1
  Ti  Ti1  1  0.81692400  0.60913800  0.77356500  1
  Ti  Ti2  1  0.86181100  0.73074300  0.64084400  1
  Ti  Ti3  1  0.14579800  0.28139400  0.85929400  1
  Ti  Ti4  1  0.12214500  0.26977700  0.60787300  1
  Ti  Ti5  1  0.19799300  0.39371500  0.47333800  1
  Ti  Ti6  1  0.53058300  0.05261600  0.30883900  1
  Ti  Ti7  1  0.85549900  0.72078300  0.14293000  1
  Ti  Ti8  1  0.13986800  0.27745300  0.35722000  1
  Ti  Ti9  1  0.47042800  0.94667100  0.19058000  1
  Ti  Ti10  1  0.82147400  0.61752100  0.02528400  1
  Fe  Fe0  1  0.18821200  0.37929700  0.97710700  1
  Fe  Fe1  1  0.53333300  0.05796600  0.80958600  1
  Fe  Fe2  1  0.85560100  0.71372400  0.89327000  1
  Fe  Fe3  1  0.19125200  0.38423900  0.72564600  1
  Fe  Fe4  1  0.47266400  0.95223300  0.69199400  1
  Fe  Fe5  1  0.47317500  0.95183600  0.44052900  1
  Fe  Fe6  1  0.52726000  0.04615600  0.55735900  1
  Fe  Fe7  1  0.79795800  0.60956100  0.52314100  1
  Fe  Fe8  1  0.81156700  0.61417700  0.27418800  1
  Fe  Fe9  1  0.86157900  0.71675200  0.39315600  1
  Fe  Fe10  1  0.13972300  0.28465700  0.10735300  1
  Fe  Fe11  1  0.19036400  0.38539600  0.22608200  1
  Fe  Fe12  1  0.53072200  0.05300200  0.05888500  1
  O  O0  1  0.86473800  0.08931900  0.92036800  1
  O  O1  1  0.32084000  0.01391800  0.87738500  1
  O  O2  1  0.48325400  0.22430300  0.98503900  1
  O  O3  1  0.88719700  0.42329200  0.84118600  1
  O  O4  1  0.04104800  0.68886400  0.96293000  1
  O  O5  1  0.21522000  0.77497300  0.76252100  1
  O  O6  1  0.39818400  0.55391000  0.90349700  1
  O  O7  1  0.66023100  0.66580900  0.70916400  1
  O  O8  1  0.79618100  0.88530200  0.81889600  1
  O  O9  1  0.18581800  0.08583500  0.67191600  1
  O  O10  1  0.36912000  0.33905400  0.79791000  1
  O  O11  1  0.55333800  0.44042600  0.59819500  1
  O  O12  1  0.75791700  0.24664000  0.74495300  1
  O  O13  1  0.99608800  0.34176500  0.54300500  1
  O  O14  1  0.10728600  0.55054900  0.65098500  1
  O  O15  1  0.53759100  0.76150900  0.50657800  1
  O  O16  1  0.71585500  0.99814200  0.62613700  1
  O  O17  1  0.92956800  0.12060500  0.42759300  1
  O  O18  1  0.07732200  0.89039700  0.57555800  1
  O  O19  1  0.31354900  0.00586200  0.37018900  1
  O  O20  1  0.45300400  0.25401900  0.49298900  1
  O  O21  1  0.88220400  0.41502100  0.34082400  1
  O  O22  1  0.02415700  0.65105000  0.46137400  1
  O  O23  1  0.25558200  0.78929000  0.26136300  1
  O  O24  1  0.40743500  0.53945100  0.40638700  1
  O  O25  1  0.63452500  0.66707400  0.20352700  1
  O  O26  1  0.79063400  0.91488000  0.32668900  1
  O  O27  1  0.21188000  0.08588500  0.17293100  1
  O  O28  1  0.36269700  0.33140700  0.29620000  1
  O  O29  1  0.59069900  0.46807700  0.09303000  1
  O  O30  1  0.73984600  0.20950900  0.23985700  1
  O  O31  1  0.96051100  0.34502100  0.04212100  1
  O  O32  1  0.11874800  0.58559000  0.16039000  1
  O  O33  1  0.56731200  0.76446600  0.00411600  1
  O  O34  1  0.69293100  0.99640800  0.13098900  1
  O  O35  1  0.08605300  0.88696600  0.07166200  1
loop_
_geom_bond_atom_site_label_1
_geom_bond_atom_site_label_2
_geom_bond_distance
_geom_bond_site_symmetry_2
Fe0 O31 2.005810 1_456
Fe0 O2 2.081861 1_555
Fe0 O0 2.187772 1_455
Fe0 O6 2.214939 1_555
Fe0 O33 2.216372 1_556
Fe0 O4 2.230090 1_555
Fe1 O8 2.012357 1_545
Fe1 O5 2.014699 1_545
Fe1 O1 2.020253 1_555
Fe1 O12 2.063746 1_555
Fe1 O10 2.132124 1_555
Fe1 O3 2.134848 1_555
Fe2 O4 2.062765 1_655
Fe2 O3 2.113650 1_555
Fe2 O6 2.126090 1_555
Fe2 O0 2.157761 1_565
Fe2 O8 2.257295 1_555
Fe2 O1 2.261150 1_665
Fe3 O12 2.072094 1_455
Fe3 O9 2.098163 1_555
Fe3 O10 2.140525 1_555
Fe3 O7 2.253782 1_555
Fe3 O5 2.285358 1_555
Fe3 O14 2.292360 1_555
Fe4 O9 2.014975 1_565
Fe4 O16 2.059639 1_555
Fe4 O12 2.061943 1_565
Fe4 O5 2.234413 1_555
Fe4 O7 2.277345 1_555
Fe4 O14 2.358027 1_555
Fe5 O19 2.071250 1_565
Fe5 O17 2.129190 1_565
Fe5 O20 2.145406 1_565
Fe5 O15 2.146919 1_555
Fe5 O22 2.234791 1_555
Fe5 O24 2.296249 1_555
Fe6 O15 2.023791 1_545
Fe6 O16 2.097505 1_545
Fe6 O18 2.132676 1_545
Fe6 O20 2.194485 1_555
Fe6 O13 2.259743 1_555
Fe6 O11 2.337807 1_555
Fe7 O22 1.927349 1_655
Fe7 O15 1.945673 1_555
Fe7 O18 2.010216 1_655
Fe7 O20 2.073881 1_555
Fe7 O13 2.241643 1_555
Fe7 O11 2.298153 1_555
Fe8 O23 2.070023 1_655
Fe8 O25 2.118894 1_555
Fe8 O26 2.141209 1_555
Fe8 O21 2.201811 1_555
Fe8 O28 2.215823 1_555
Fe8 O30 2.248967 1_555
Fe9 O22 2.056876 1_655
Fe9 O24 2.118081 1_555
Fe9 O21 2.142483 1_555
Fe9 O26 2.195406 1_555
Fe9 O19 2.243421 1_665
Fe9 O17 2.251555 1_565
Fe10 O31 2.023548 1_455
Fe10 O29 2.108312 1_555
Fe10 O32 2.150396 1_555
Fe10 O27 2.181982 1_555
Fe10 O34 2.228588 1_445
Fe10 O35 2.254877 1_545
Fe11 O28 2.097345 1_555
Fe11 O30 2.104338 1_455
Fe11 O27 2.147133 1_555
Fe11 O32 2.188170 1_555
Fe11 O25 2.201082 1_555
Fe11 O23 2.263611 1_555
Fe12 O35 2.074817 1_545
Fe12 O34 2.122349 1_545
Fe12 O31 2.124475 1_555
Fe12 O33 2.158104 1_545
Fe12 O2 2.225187 1_554
Fe12 O29 2.319631 1_555
O0 Ti0 1.896745 1_545
O0 Ti3 2.110154 1_655
O1 Ti0 1.994170 1_545
O1 Ti3 2.138855 1_555
O2 Ti0 1.822266 1_545
O2 Ti10 2.275146 1_556
O3 Ti3 1.904900 1_655
O3 Ti1 2.176268 1_555
O4 Ti10 1.910549 1_456
O4 Ti0 2.110942 1_555
O5 Ti1 1.854040 1_455
O6 Ti3 1.814567 1_555
O6 Ti0 2.234905 1_555
O7 Ti1 1.937793 1_555
O7 Ti2 2.000219 1_555
O8 Ti1 1.927249 1_555
O8 Ti3 2.305535 1_665
O9 Ti2 2.037695 1_445
O9 Ti4 2.082050 1_555
O10 Ti3 1.902902 1_555
O10 Ti1 2.213670 1_555
O11 Ti2 1.948631 1_555
O11 Ti4 1.998181 1_555
O12 Ti1 2.004964 1_555
O13 Ti4 1.909784 1_655
O13 Ti5 2.033717 1_655
O14 Ti4 1.903901 1_555
O14 Ti2 1.970070 1_455
O15 Ti5 2.127619 1_555
O16 Ti2 2.008371 1_555
O16 Ti4 2.017051 1_665
O17 Ti5 1.867771 1_655
O17 Ti8 2.119046 1_655
O18 Ti2 2.019248 1_455
O18 Ti4 2.146899 1_565
O19 Ti6 1.889800 1_555
O19 Ti8 2.125522 1_555
O20 Ti5 1.890085 1_555
O21 Ti8 1.871328 1_655
O21 Ti6 2.124447 1_555
O22 Ti5 2.048462 1_555
O23 Ti6 1.883704 1_565
O23 Ti9 2.136534 1_555
O24 Ti8 1.892658 1_555
O24 Ti5 2.028165 1_555
O25 Ti7 1.881204 1_555
O25 Ti9 2.129967 1_555
O26 Ti6 1.892447 1_565
O26 Ti8 2.107685 1_665
O27 Ti9 1.890350 1_545
O27 Ti7 2.126516 1_445
O28 Ti8 1.895253 1_555
O28 Ti6 2.138699 1_555
O29 Ti7 1.878659 1_555
O29 Ti10 2.090215 1_555
O30 Ti9 1.899875 1_545
O30 Ti6 2.086329 1_555
O31 Ti10 2.022501 1_555
O32 Ti7 1.894109 1_455
O32 Ti9 2.105579 1_555
O33 Ti10 1.928016 1_555
O33 Ti0 2.067079 1_554
O34 Ti9 1.865935 1_555
O34 Ti7 2.098813 1_555
O35 Ti10 1.861077 1_455
O35 Ti7 2.185602 1_455
