# generated using pymatgen
data_Bi4Au2O9
_symmetry_space_group_name_H-M   'P 1'
_cell_length_a   6.01419500
_cell_length_b   8.94829000
_cell_length_c   35.01523800
_cell_angle_alpha   90.00000000
_cell_angle_beta   90.00000000
_cell_angle_gamma   90.00000000
_symmetry_Int_Tables_number   1
_chemical_formula_structural   Bi4Au2O9
_chemical_formula_sum   'Bi32 Au16 O72'
_cell_volume   1884.40669398
_cell_formula_units_Z   8
loop_
 _symmetry_equiv_pos_site_id
 _symmetry_equiv_pos_as_xyz
  1  'x, y, z'
loop_
 _atom_site_type_symbol
 _atom_site_label
 _atom_site_symmetry_multiplicity
 _atom_site_fract_x
 _atom_site_fract_y
 _atom_site_fract_z
 _atom_site_occupancy
  Bi  Bi0  1  0.22712200  0.61770800  0.27031600  1
  Bi  Bi1  1  0.27051900  0.89747600  0.34684100  1
  Bi  Bi2  1  0.72712200  0.88229200  0.27031600  1
  Bi  Bi3  1  0.27287800  0.61770800  0.77031600  1
  Bi  Bi4  1  0.77051900  0.60252400  0.34684100  1
  Bi  Bi5  1  0.77355000  0.57966100  0.10360200  1
  Bi  Bi6  1  0.24940200  0.07066200  0.47576200  1
  Bi  Bi7  1  0.25059800  0.57066200  0.52423800  1
  Bi  Bi8  1  0.72645000  0.07966100  0.89639800  1
  Bi  Bi9  1  0.22948100  0.89747600  0.84684100  1
  Bi  Bi10  1  0.25059800  0.07066200  0.97576200  1
  Bi  Bi11  1  0.77287800  0.38229200  0.72968400  1
  Bi  Bi12  1  0.72712200  0.38229200  0.22968400  1
  Bi  Bi13  1  0.27355000  0.42033900  0.39639800  1
  Bi  Bi14  1  0.72948100  0.60252400  0.84684100  1
  Bi  Bi15  1  0.74940200  0.92933800  0.02423800  1
  Bi  Bi16  1  0.22948100  0.39747600  0.65315900  1
  Bi  Bi17  1  0.27051900  0.39747600  0.15315900  1
  Bi  Bi18  1  0.77051900  0.10252400  0.15315900  1
  Bi  Bi19  1  0.75059800  0.92933800  0.52423800  1
  Bi  Bi20  1  0.27355000  0.92033900  0.10360200  1
  Bi  Bi21  1  0.75059800  0.42933900  0.97576200  1
  Bi  Bi22  1  0.22712200  0.11770800  0.22968400  1
  Bi  Bi23  1  0.72645000  0.57966100  0.60360200  1
  Bi  Bi24  1  0.77355000  0.07966100  0.39639800  1
  Bi  Bi25  1  0.72948100  0.10252400  0.65315900  1
  Bi  Bi26  1  0.22645000  0.92033900  0.60360200  1
  Bi  Bi27  1  0.22645000  0.42033900  0.89639800  1
  Bi  Bi28  1  0.27287800  0.11770800  0.72968400  1
  Bi  Bi29  1  0.77287800  0.88229200  0.77031600  1
  Bi  Bi30  1  0.74940200  0.42933900  0.47576200  1
  Bi  Bi31  1  0.24940200  0.57066200  0.02423800  1
  Au  Au0  1  0.06875000  0.74344400  0.68227800  1
  Au  Au1  1  0.06875000  0.24344400  0.81772200  1
  Au  Au2  1  0.93125000  0.25655600  0.31772200  1
  Au  Au3  1  0.56875000  0.75655600  0.68227800  1
  Au  Au4  1  0.90080100  0.75180300  0.93997900  1
  Au  Au5  1  0.40080100  0.74819700  0.93997900  1
  Au  Au6  1  0.56875000  0.25655600  0.81772200  1
  Au  Au7  1  0.59919900  0.25180300  0.06002100  1
  Au  Au8  1  0.43125000  0.24344400  0.31772200  1
  Au  Au9  1  0.43125000  0.74344400  0.18227800  1
  Au  Au10  1  0.90080100  0.25180300  0.56002100  1
  Au  Au11  1  0.93125000  0.75655600  0.18227800  1
  Au  Au12  1  0.40080100  0.24819700  0.56002100  1
  Au  Au13  1  0.09919900  0.24819700  0.06002100  1
  Au  Au14  1  0.59919900  0.75180300  0.43997900  1
  Au  Au15  1  0.09919900  0.74819700  0.43997900  1
  O  O0  1  0.41120300  0.54013100  0.96466100  1
  O  O1  1  0.36117900  0.64990800  0.88804800  1
  O  O2  1  0.47233600  0.76435900  0.80967200  1
  O  O3  1  0.90699800  0.64356200  0.99196400  1
  O  O4  1  0.02766400  0.76435900  0.30967200  1
  O  O5  1  0.61654100  0.54236200  0.41879300  1
  O  O6  1  0.40699800  0.85643800  0.99196400  1
  O  O7  1  0.90699800  0.14356200  0.50803600  1
  O  O8  1  0.94383700  0.34210100  0.37157600  1
  O  O9  1  0.52766400  0.73564100  0.30967200  1
  O  O10  1  0.43105800  0.45433400  0.34108700  1
  O  O11  1  0.13882100  0.64990800  0.38804800  1
  O  O12  1  0.61654100  0.04236200  0.08120700  1
  O  O13  1  0.40699800  0.35643800  0.50803600  1
  O  O14  1  0.05616300  0.15789900  0.87157600  1
  O  O15  1  0.63882100  0.35009200  0.11195200  1
  O  O16  1  0.40495400  0.82095500  0.23676400  1
  O  O17  1  0.63882100  0.85009200  0.38804800  1
  O  O18  1  0.41120300  0.04013100  0.53533900  1
  O  O19  1  0.59965300  0.96470600  0.70375400  1
  O  O20  1  0.90034700  0.46470600  0.29624600  1
  O  O21  1  0.93105800  0.54566600  0.15891300  1
  O  O22  1  0.56894200  0.54566600  0.65891300  1
  O  O23  1  0.97233600  0.23564100  0.69032800  1
  O  O24  1  0.43105800  0.95433400  0.15891300  1
  O  O25  1  0.09965300  0.53529400  0.70375400  1
  O  O26  1  0.40034700  0.03529400  0.29624600  1
  O  O27  1  0.09504600  0.82095500  0.73676400  1
  O  O28  1  0.56894200  0.04566600  0.84108700  1
  O  O29  1  0.52766400  0.23564100  0.19032800  1
  O  O30  1  0.55616300  0.84210100  0.62842400  1
  O  O31  1  0.88345900  0.54236200  0.91879300  1
  O  O32  1  0.11654100  0.95763800  0.41879300  1
  O  O33  1  0.09300200  0.85643800  0.49196400  1
  O  O34  1  0.58879700  0.95986900  0.46466100  1
  O  O35  1  0.06894200  0.45433400  0.84108700  1
  O  O36  1  0.44383700  0.65789900  0.12842400  1
  O  O37  1  0.90034700  0.96470600  0.20375400  1
  O  O38  1  0.08879700  0.04013100  0.03533900  1
  O  O39  1  0.13882100  0.14990800  0.11195200  1
  O  O40  1  0.40034700  0.53529400  0.20375400  1
  O  O41  1  0.08879700  0.54013100  0.46466100  1
  O  O42  1  0.59504600  0.67904500  0.73676400  1
  O  O43  1  0.02766400  0.26435900  0.19032800  1
  O  O44  1  0.59504600  0.17904500  0.76323600  1
  O  O45  1  0.09300200  0.35643800  0.00803600  1
  O  O46  1  0.59300200  0.14356200  0.00803600  1
  O  O47  1  0.86117900  0.85009200  0.88804800  1
  O  O48  1  0.88345900  0.04236200  0.58120700  1
  O  O49  1  0.38345900  0.45763800  0.58120700  1
  O  O50  1  0.47233600  0.26435900  0.69032800  1
  O  O51  1  0.97233600  0.73564100  0.80967200  1
  O  O52  1  0.55616300  0.34210100  0.87157600  1
  O  O53  1  0.58879700  0.45986900  0.03533900  1
  O  O54  1  0.91120300  0.95986900  0.96466100  1
  O  O55  1  0.06894200  0.95433400  0.65891300  1
  O  O56  1  0.59300200  0.64356200  0.49196400  1
  O  O57  1  0.93105800  0.04566600  0.34108700  1
  O  O58  1  0.36117900  0.14990800  0.61195200  1
  O  O59  1  0.90495400  0.67904500  0.23676400  1
  O  O60  1  0.09504600  0.32095500  0.76323600  1
  O  O61  1  0.05616300  0.65789900  0.62842400  1
  O  O62  1  0.40495400  0.32095500  0.26323600  1
  O  O63  1  0.86117900  0.35009200  0.61195200  1
  O  O64  1  0.94383700  0.84210100  0.12842400  1
  O  O65  1  0.91120300  0.45986900  0.53533900  1
  O  O66  1  0.11654100  0.45763800  0.08120700  1
  O  O67  1  0.59965300  0.46470600  0.79624600  1
  O  O68  1  0.09965300  0.03529400  0.79624600  1
  O  O69  1  0.44383700  0.15789900  0.37157600  1
  O  O70  1  0.38345900  0.95763800  0.91879300  1
  O  O71  1  0.90495400  0.17904500  0.26323600  1
loop_
_geom_bond_atom_site_label_1
_geom_bond_atom_site_label_2
_geom_bond_distance
_geom_bond_site_symmetry_2
Bi0 O4 2.249468 1_555
Bi0 O59 2.331458 1_455
Bi0 O16 2.414914 1_555
Bi0 O9 2.505958 1_555
Bi0 O20 2.561479 1_455
Bi0 O40 2.657312 1_555
Bi1 O4 2.290420 1_555
Bi1 O26 2.295449 1_565
Bi1 O57 2.442757 1_465
Bi1 O9 2.486505 1_555
Bi1 O17 2.677324 1_555
Bi1 O69 2.695765 1_565
Bi1 O32 2.737673 1_555
Bi1 O11 2.759862 1_555
Bi2 O9 2.249468 1_555
Bi2 O16 2.331458 1_555
Bi2 O59 2.414914 1_555
Bi2 O4 2.505958 1_655
Bi2 O26 2.561479 1_565
Bi2 O37 2.657312 1_555
Bi3 O2 2.249468 1_555
Bi3 O42 2.331458 1_555
Bi3 O27 2.414914 1_555
Bi3 O51 2.505958 1_455
Bi3 O67 2.561479 1_555
Bi3 O25 2.657312 1_555
Bi4 O9 2.290420 1_555
Bi4 O20 2.295449 1_555
Bi4 O10 2.442757 1_555
Bi4 O4 2.486505 1_655
Bi4 O11 2.677324 1_655
Bi4 O8 2.695765 1_555
Bi4 O5 2.737673 1_555
Bi4 O17 2.759862 1_555
Bi5 O21 2.177337 1_555
Bi5 O15 2.227553 1_555
Bi5 O36 2.275451 1_555
Bi5 O66 2.462186 1_655
Bi5 O64 2.705404 1_555
Bi5 O53 2.845513 1_555
Bi6 O33 2.209359 1_545
Bi6 O34 2.302266 1_545
Bi6 O18 2.318058 1_555
Bi6 O32 2.374977 1_545
Bi6 O7 2.437883 1_455
Bi7 O13 2.209359 1_555
Bi7 O65 2.302266 1_455
Bi7 O41 2.318058 1_555
Bi7 O49 2.374977 1_555
Bi7 O56 2.437883 1_555
Bi8 O28 2.177337 1_555
Bi8 O47 2.227553 1_545
Bi8 O14 2.275451 1_655
Bi8 O70 2.462186 1_545
Bi8 O52 2.705404 1_555
Bi8 O54 2.845513 1_545
Bi9 O2 2.290420 1_555
Bi9 O68 2.295449 1_565
Bi9 O28 2.442757 1_565
Bi9 O51 2.486505 1_455
Bi9 O47 2.677324 1_455
Bi9 O14 2.695765 1_565
Bi9 O70 2.737673 1_555
Bi9 O1 2.759862 1_555
Bi10 O6 2.209359 1_545
Bi10 O54 2.302266 1_445
Bi10 O38 2.318058 1_556
Bi10 O70 2.374977 1_545
Bi10 O46 2.437883 1_556
Bi11 O23 2.249468 1_555
Bi11 O60 2.331458 1_655
Bi11 O44 2.414914 1_555
Bi11 O50 2.505958 1_555
Bi11 O25 2.561479 1_655
Bi11 O67 2.657312 1_555
Bi12 O29 2.249468 1_555
Bi12 O62 2.331458 1_555
Bi12 O71 2.414914 1_555
Bi12 O43 2.505958 1_655
Bi12 O40 2.561479 1_555
Bi12 O20 2.657312 1_555
Bi13 O10 2.177337 1_555
Bi13 O11 2.227553 1_555
Bi13 O8 2.275451 1_455
Bi13 O5 2.462186 1_555
Bi13 O69 2.705404 1_555
Bi13 O41 2.845513 1_555
Bi14 O51 2.290420 1_555
Bi14 O67 2.295449 1_555
Bi14 O35 2.442757 1_655
Bi14 O2 2.486505 1_555
Bi14 O1 2.677324 1_555
Bi14 O52 2.695765 1_555
Bi14 O31 2.737673 1_555
Bi14 O47 2.759862 1_555
Bi15 O46 2.209359 1_565
Bi15 O38 2.302266 1_665
Bi15 O54 2.318058 1_554
Bi15 O12 2.374977 1_565
Bi15 O6 2.437883 1_554
Bi16 O50 2.290420 1_555
Bi16 O25 2.295449 1_555
Bi16 O22 2.442757 1_555
Bi16 O23 2.486505 1_455
Bi16 O63 2.677324 1_455
Bi16 O61 2.695765 1_555
Bi16 O49 2.737673 1_555
Bi16 O58 2.759862 1_555
Bi17 O43 2.290420 1_555
Bi17 O40 2.295449 1_555
Bi17 O21 2.442757 1_455
Bi17 O29 2.486505 1_555
Bi17 O15 2.677324 1_555
Bi17 O36 2.695765 1_555
Bi17 O66 2.737673 1_555
Bi17 O39 2.759862 1_555
Bi18 O29 2.290420 1_555
Bi18 O37 2.295449 1_545
Bi18 O24 2.442757 1_545
Bi18 O43 2.486505 1_655
Bi18 O39 2.677324 1_655
Bi18 O64 2.695765 1_545
Bi18 O12 2.737673 1_555
Bi18 O15 2.759862 1_555
Bi19 O7 2.209359 1_565
Bi19 O18 2.302266 1_565
Bi19 O34 2.318058 1_555
Bi19 O48 2.374977 1_565
Bi19 O33 2.437883 1_655
Bi20 O24 2.177337 1_555
Bi20 O39 2.227553 1_565
Bi20 O64 2.275451 1_455
Bi20 O12 2.462186 1_565
Bi20 O36 2.705404 1_555
Bi20 O38 2.845513 1_565
Bi21 O3 2.209351 1_555
Bi21 O0 2.302262 1_555
Bi21 O53 2.318057 1_556
Bi21 O31 2.374973 1_555
Bi21 O45 2.437885 1_656
Bi22 O43 2.249468 1_555
Bi22 O71 2.331458 1_455
Bi22 O62 2.414914 1_555
Bi22 O29 2.505958 1_555
Bi22 O37 2.561479 1_445
Bi22 O26 2.657312 1_555
Bi23 O22 2.177337 1_555
Bi23 O63 2.227553 1_555
Bi23 O61 2.275451 1_655
Bi23 O49 2.462186 1_555
Bi23 O30 2.705404 1_555
Bi23 O65 2.845513 1_555
Bi24 O57 2.177337 1_555
Bi24 O17 2.227553 1_545
Bi24 O69 2.275451 1_555
Bi24 O32 2.462186 1_645
Bi24 O8 2.705404 1_555
Bi24 O34 2.845513 1_545
Bi25 O23 2.290420 1_555
Bi25 O19 2.295449 1_545
Bi25 O55 2.442757 1_645
Bi25 O50 2.486505 1_555
Bi25 O58 2.677324 1_555
Bi25 O30 2.695765 1_545
Bi25 O48 2.737673 1_555
Bi25 O63 2.759862 1_555
Bi26 O55 2.177337 1_555
Bi26 O58 2.227553 1_565
Bi26 O30 2.275451 1_555
Bi26 O48 2.462186 1_465
Bi26 O61 2.705404 1_555
Bi26 O18 2.845513 1_565
Bi27 O35 2.177337 1_555
Bi27 O1 2.227553 1_555
Bi27 O52 2.275451 1_555
Bi27 O31 2.462186 1_455
Bi27 O14 2.705404 1_555
Bi27 O0 2.845513 1_555
Bi28 O50 2.249468 1_555
Bi28 O44 2.331458 1_555
Bi28 O60 2.414914 1_555
Bi28 O23 2.505958 1_455
Bi28 O19 2.561479 1_545
Bi28 O68 2.657312 1_555
Bi29 O51 2.249468 1_555
Bi29 O27 2.331458 1_655
Bi29 O42 2.414914 1_555
Bi29 O2 2.505958 1_555
Bi29 O68 2.561479 1_665
Bi29 O19 2.657312 1_555
Bi30 O56 2.209351 1_555
Bi30 O41 2.302262 1_655
Bi30 O65 2.318057 1_555
Bi30 O5 2.374973 1_555
Bi30 O13 2.437885 1_555
Bi31 O45 2.209359 1_555
Bi31 O53 2.302266 1_555
Bi31 O0 2.318058 1_554
Bi31 O66 2.374977 1_555
Bi31 O3 2.437883 1_454
Au0 O25 2.017240 1_555
Au0 O27 2.036157 1_555
Au0 O61 2.036565 1_555
Au0 O55 2.056819 1_555
Au1 O68 2.017240 1_555
Au1 O60 2.036157 1_555
Au1 O14 2.036565 1_555
Au1 O35 2.056819 1_555
Au2 O20 2.017240 1_555
Au2 O71 2.036157 1_555
Au2 O8 2.036565 1_555
Au2 O57 2.056819 1_555
Au3 O19 2.017240 1_555
Au3 O42 2.036157 1_555
Au3 O30 2.036565 1_555
Au3 O22 2.056819 1_555
Au4 O31 2.018314 1_555
Au4 O47 2.033920 1_555
Au4 O54 2.053598 1_555
Au4 O3 2.062254 1_555
Au5 O70 2.018314 1_555
Au5 O1 2.033920 1_555
Au5 O0 2.053598 1_555
Au5 O6 2.062254 1_555
Au6 O67 2.017240 1_555
Au6 O44 2.036157 1_555
Au6 O52 2.036565 1_555
Au6 O28 2.056819 1_555
Au7 O12 2.018314 1_555
Au7 O15 2.033920 1_555
Au7 O53 2.053598 1_555
Au7 O46 2.062254 1_555
Au8 O26 2.017240 1_555
Au8 O62 2.036157 1_555
Au8 O69 2.036565 1_555
Au8 O10 2.056819 1_555
Au9 O40 2.017240 1_555
Au9 O16 2.036157 1_555
Au9 O36 2.036565 1_555
Au9 O24 2.056819 1_555
Au10 O48 2.018314 1_555
Au10 O63 2.033920 1_555
Au10 O65 2.053598 1_555
Au10 O7 2.062254 1_555
Au11 O37 2.017240 1_555
Au11 O59 2.036157 1_555
Au11 O64 2.036565 1_555
Au11 O21 2.056819 1_555
Au12 O49 2.018314 1_555
Au12 O58 2.033920 1_555
Au12 O18 2.053598 1_555
Au12 O13 2.062254 1_555
Au13 O66 2.018314 1_555
Au13 O39 2.033920 1_555
Au13 O38 2.053598 1_555
Au13 O45 2.062254 1_555
Au14 O5 2.018314 1_555
Au14 O17 2.033920 1_555
Au14 O34 2.053598 1_555
Au14 O56 2.062254 1_555
Au15 O32 2.018314 1_555
Au15 O11 2.033920 1_555
Au15 O41 2.053598 1_555
Au15 O33 2.062254 1_555
