# generated using pymatgen
data_Cs3TaO8
_symmetry_space_group_name_H-M   'P 1'
_cell_length_a   6.69476987
_cell_length_b   6.69476940
_cell_length_c   6.69476885
_cell_angle_alpha   103.48914583
_cell_angle_beta   112.54255749
_cell_angle_gamma   112.54253988
_symmetry_Int_Tables_number   1
_chemical_formula_structural   Cs3TaO8
_chemical_formula_sum   'Cs3 Ta1 O8'
_cell_volume   229.12403956
_cell_formula_units_Z   1
loop_
 _symmetry_equiv_pos_site_id
 _symmetry_equiv_pos_as_xyz
  1  'x, y, z'
loop_
 _atom_site_type_symbol
 _atom_site_label
 _atom_site_symmetry_multiplicity
 _atom_site_fract_x
 _atom_site_fract_y
 _atom_site_fract_z
 _atom_site_occupancy
  Cs  Cs0  1  0.00000000  0.50000000  0.50000000  1
  Cs  Cs1  1  0.50000000  0.25000000  0.75000000  1
  Cs  Cs2  1  0.50000000  0.75000000  0.25000000  1
  Ta  Ta0  1  0.00000000  0.00000000  0.00000000  1
  O  O0  1  0.74116800  0.04868840  0.04868840  1
  O  O1  1  -0.00000000  0.78665551  0.17859402  1
  O  O2  1  0.00000000  0.69248060  0.95131160  1
  O  O3  1  0.25883200  0.30751940  0.30751940  1
  O  O4  1  0.00000000  0.95131160  0.69248060  1
  O  O5  1  0.00000000  0.17859402  0.78665551  1
  O  O6  1  0.39193851  0.21334449  0.21334449  1
  O  O7  1  0.60806149  0.82140598  0.82140598  1
loop_
_geom_bond_atom_site_label_1
_geom_bond_atom_site_label_2
_geom_bond_distance
_geom_bond_site_symmetry_2
Cs0 O0 2.995523 1_455
Cs0 O2 2.995524 1_555
Cs0 O4 2.995524 1_555
Cs0 O3 2.995530 1_555
Cs0 O1 3.199898 1_555
Cs0 O5 3.199898 1_555
Cs0 O7 3.199898 1_555
Cs0 O6 3.199898 1_455
Cs1 O0 2.978598 1_556
Cs1 O3 2.978599 1_555
Cs1 O2 2.978601 1_655
Cs1 O4 2.978601 1_545
Cs1 O6 3.309284 1_555
Cs1 O7 3.309284 1_545
Cs1 O1 3.309284 1_656
Cs1 O5 3.309284 1_555
Cs1 O1 3.485049 1_545
Cs1 O6 3.485049 1_556
Cs1 O7 3.485049 1_555
Cs1 O5 3.485049 1_655
Cs2 O0 2.978598 1_565
Cs2 O3 2.978600 1_555
Cs2 O4 2.978601 1_655
Cs2 O2 2.978601 1_554
Cs2 O5 3.309284 1_665
Cs2 O7 3.309284 1_554
Cs2 O6 3.309284 1_555
Cs2 O1 3.309284 1_555
Cs2 O7 3.485049 1_555
Cs2 O6 3.485049 1_565
Cs2 O5 3.485049 1_554
Cs2 O1 3.485049 1_655
O0 O7 1.505069 1_544
O0 Ta0 2.007921 1_655
O1 O2 1.505067 1_554
O1 Ta0 2.065498 1_565
O2 Ta0 2.007914 1_566
O3 O6 1.505061 1_555
O3 Ta0 2.007914 1_555
O4 O5 1.505067 1_565
O4 Ta0 2.007914 1_566
O5 Ta0 2.065498 1_556
O6 Ta0 2.065498 1_555
O7 Ta0 2.065498 1_666
