# generated using pymatgen
data_Ba6Ti17O40
_symmetry_space_group_name_H-M   'P 1'
_cell_length_a   9.99281440
_cell_length_b   9.99281440
_cell_length_c   19.21628560
_cell_angle_alpha   85.53480708
_cell_angle_beta   85.53480708
_cell_angle_gamma   119.73213332
_symmetry_Int_Tables_number   1
_chemical_formula_structural   Ba6Ti17O40
_chemical_formula_sum   'Ba12 Ti34 O80'
_cell_volume   1646.09734911
_cell_formula_units_Z   2
loop_
 _symmetry_equiv_pos_site_id
 _symmetry_equiv_pos_as_xyz
  1  'x, y, z'
loop_
 _atom_site_type_symbol
 _atom_site_label
 _atom_site_symmetry_multiplicity
 _atom_site_fract_x
 _atom_site_fract_y
 _atom_site_fract_z
 _atom_site_occupancy
  Ba  Ba0  1  0.43088600  0.86335400  0.31495200  1
  Ba  Ba1  1  0.56018100  0.71067400  0.82268700  1
  Ba  Ba2  1  0.97923900  0.16280700  0.55565700  1
  Ba  Ba3  1  0.86335400  0.43088600  0.81495200  1
  Ba  Ba4  1  0.56911400  0.13664600  0.68504800  1
  Ba  Ba5  1  0.28932600  0.43981900  0.67731300  1
  Ba  Ba6  1  0.16280700  0.97923900  0.05565700  1
  Ba  Ba7  1  0.02076100  0.83719300  0.44434300  1
  Ba  Ba8  1  0.13664600  0.56911400  0.18504800  1
  Ba  Ba9  1  0.43981900  0.28932600  0.17731300  1
  Ba  Ba10  1  0.83719300  0.02076100  0.94434300  1
  Ba  Ba11  1  0.71067400  0.56018100  0.32268700  1
  Ti  Ti0  1  0.35038500  0.70829900  0.99650200  1
  Ti  Ti1  1  0.13016900  0.81815300  0.62278900  1
  Ti  Ti2  1  0.70829900  0.35038500  0.49650200  1
  Ti  Ti3  1  0.76848700  0.61957800  0.62778700  1
  Ti  Ti4  1  0.16369700  0.32483500  0.01268300  1
  Ti  Ti5  1  0.37310100  0.17546400  0.36034900  1
  Ti  Ti6  1  0.23151300  0.38042200  0.37221300  1
  Ti  Ti7  1  0.81815300  0.13016900  0.12278900  1
  Ti  Ti8  1  0.83630300  0.67516500  0.98731700  1
  Ti  Ti9  1  0.67516500  0.83630300  0.48731700  1
  Ti  Ti10  1  0.62689900  0.82453600  0.63965100  1
  Ti  Ti11  1  0.61957800  0.76848700  0.12778700  1
  Ti  Ti12  1  0.05988000  0.94012000  0.75000000  1
  Ti  Ti13  1  0.25347000  0.74653000  0.75000000  1
  Ti  Ti14  1  0.53619400  0.04390600  0.87291400  1
  Ti  Ti15  1  0.29170100  0.64961500  0.50349800  1
  Ti  Ti16  1  0.94012000  0.05988000  0.25000000  1
  Ti  Ti17  1  0.00000000  0.50000000  0.00000000  1
  Ti  Ti18  1  0.64961500  0.29170100  0.00349800  1
  Ti  Ti19  1  0.18184700  0.86983100  0.87721100  1
  Ti  Ti20  1  0.10556100  0.89443900  0.25000000  1
  Ti  Ti21  1  0.50000000  0.00000000  0.50000000  1
  Ti  Ti22  1  0.50000000  0.50000000  0.50000000  1
  Ti  Ti23  1  0.46380600  0.95609400  0.12708600  1
  Ti  Ti24  1  0.17546400  0.37310100  0.86034900  1
  Ti  Ti25  1  0.82453600  0.62689900  0.13965100  1
  Ti  Ti26  1  0.95609400  0.46380600  0.62708600  1
  Ti  Ti27  1  0.74653000  0.25347000  0.25000000  1
  Ti  Ti28  1  0.89443900  0.10556100  0.75000000  1
  Ti  Ti29  1  0.04390600  0.53619400  0.37291400  1
  Ti  Ti30  1  0.50000000  0.50000000  0.00000000  1
  Ti  Ti31  1  0.38042200  0.23151300  0.87221300  1
  Ti  Ti32  1  0.86983100  0.18184700  0.37721100  1
  Ti  Ti33  1  0.32483500  0.16369700  0.51268300  1
  O  O0  1  0.96963200  0.65598000  0.57525400  1
  O  O1  1  0.77906100  0.46410900  0.68352300  1
  O  O2  1  0.67228100  0.18533900  0.93028500  1
  O  O3  1  0.93660100  0.29770400  0.69133300  1
  O  O4  1  0.69655400  0.18434300  0.44924200  1
  O  O5  1  0.34884800  0.51044900  0.43950000  1
  O  O6  1  0.08234900  0.11951600  0.70052900  1
  O  O7  1  0.81565700  0.30344600  0.05075800  1
  O  O8  1  0.35670900  0.53145400  0.94766500  1
  O  O9  1  0.81466100  0.32771900  0.56971500  1
  O  O10  1  0.23891300  0.01417100  0.31881000  1
  O  O11  1  0.15058200  0.98710500  0.55773200  1
  O  O12  1  0.78152000  0.44123900  0.19628200  1
  O  O13  1  0.11579600  0.62847800  0.68200800  1
  O  O14  1  0.30344600  0.81565700  0.55075800  1
  O  O15  1  0.37152200  0.88420400  0.81799200  1
  O  O16  1  0.92867900  0.25349900  0.19168500  1
  O  O17  1  0.13820100  0.48797300  0.56673600  1
  O  O18  1  0.74650100  0.07132100  0.30831500  1
  O  O19  1  0.32771900  0.81466100  0.06971500  1
  O  O20  1  0.36113900  0.38435200  0.81520700  1
  O  O21  1  0.91765100  0.88048400  0.29947100  1
  O  O22  1  0.61564800  0.63886100  0.68479300  1
  O  O23  1  0.68254800  0.67576300  0.94081700  1
  O  O24  1  0.25349900  0.92867900  0.69168500  1
  O  O25  1  0.04347800  0.37556700  0.93919000  1
  O  O26  1  0.29770400  0.93660100  0.19133300  1
  O  O27  1  0.81225500  0.77885300  0.06685700  1
  O  O28  1  0.98582900  0.76108700  0.18119000  1
  O  O29  1  0.11951600  0.08234900  0.20052900  1
  O  O30  1  0.86179900  0.51202700  0.43326400  1
  O  O31  1  0.37556700  0.04347800  0.43919000  1
  O  O32  1  0.22093900  0.53589100  0.31647700  1
  O  O33  1  0.22114700  0.18774500  0.43314300  1
  O  O34  1  0.20204700  0.04408200  0.81977100  1
  O  O35  1  0.88420400  0.37152200  0.31799200  1
  O  O36  1  0.53589100  0.22093900  0.81647700  1
  O  O37  1  0.49078800  0.15098700  0.55496800  1
  O  O38  1  0.15098700  0.49078800  0.05496800  1
  O  O39  1  0.18774500  0.22114700  0.93314300  1
  O  O40  1  0.01417100  0.23891300  0.81881000  1
  O  O41  1  0.31745200  0.32423700  0.05918300  1
  O  O42  1  0.06339900  0.70229600  0.30866700  1
  O  O43  1  0.70229600  0.06339900  0.80866700  1
  O  O44  1  0.65598000  0.96963200  0.07525400  1
  O  O45  1  0.34402000  0.03036800  0.92474600  1
  O  O46  1  0.50921200  0.84901300  0.44503200  1
  O  O47  1  0.64329100  0.46854600  0.05233500  1
  O  O48  1  0.79795300  0.95591800  0.18022900  1
  O  O49  1  0.48797300  0.13820100  0.06673600  1
  O  O50  1  0.46410900  0.77906100  0.18352300  1
  O  O51  1  0.21848000  0.55876100  0.80371800  1
  O  O52  1  0.03036800  0.34402000  0.42474600  1
  O  O53  1  0.65115200  0.48955100  0.56050000  1
  O  O54  1  0.48955100  0.65115200  0.06050000  1
  O  O55  1  0.01289500  0.84941800  0.94226800  1
  O  O56  1  0.84941800  0.01289500  0.44226800  1
  O  O57  1  0.44123900  0.78152000  0.69628200  1
  O  O58  1  0.32423700  0.31745200  0.55918300  1
  O  O59  1  0.53145400  0.35670900  0.44766500  1
  O  O60  1  0.98710500  0.15058200  0.05773200  1
  O  O61  1  0.95652200  0.62443300  0.06081000  1
  O  O62  1  0.76108700  0.98582900  0.68119000  1
  O  O63  1  0.62443300  0.95652200  0.56081000  1
  O  O64  1  0.77885300  0.81225500  0.56685700  1
  O  O65  1  0.46854600  0.64329100  0.55233500  1
  O  O66  1  0.07132100  0.74650100  0.80831500  1
  O  O67  1  0.51044900  0.34884800  0.93950000  1
  O  O68  1  0.18434300  0.69655400  0.94924200  1
  O  O69  1  0.95591800  0.79795300  0.68022900  1
  O  O70  1  0.55876100  0.21848000  0.30371800  1
  O  O71  1  0.67576300  0.68254800  0.44081700  1
  O  O72  1  0.51202700  0.86179900  0.93326400  1
  O  O73  1  0.18533900  0.67228100  0.43028500  1
  O  O74  1  0.62847800  0.11579600  0.18200800  1
  O  O75  1  0.38435200  0.36113900  0.31520700  1
  O  O76  1  0.84901300  0.50921200  0.94503200  1
  O  O77  1  0.88048400  0.91765100  0.79947100  1
  O  O78  1  0.63886100  0.61564800  0.18479300  1
  O  O79  1  0.04408200  0.20204700  0.31977100  1
loop_
_geom_bond_atom_site_label_1
_geom_bond_atom_site_label_2
_geom_bond_distance
_geom_bond_site_symmetry_2
Ba0 O46 2.691011 1_555
Ba0 O50 2.770620 1_555
Ba0 O18 2.770736 1_565
Ba0 O32 2.876830 1_555
Ba0 O73 2.902675 1_555
Ba0 O10 2.969815 1_565
Ba0 O26 3.022859 1_555
Ba0 O70 3.100430 1_565
Ba0 O74 3.171634 1_565
Ba0 O42 3.213592 1_555
Ba0 O31 3.270408 1_565
Ba1 O23 2.738965 1_555
Ba1 O77 2.790903 1_555
Ba1 O8 2.840308 1_555
Ba1 O72 2.844027 1_555
Ba1 O20 2.879981 1_555
Ba1 O22 2.881945 1_555
Ba1 O57 2.971614 1_555
Ba1 O51 3.038924 1_555
Ba1 O43 3.056235 1_565
Ba1 O15 3.132715 1_555
Ba2 O56 2.774074 1_555
Ba2 O52 2.835733 1_655
Ba2 O17 2.857872 1_655
Ba2 O9 2.860371 1_555
Ba2 O62 2.896864 1_545
Ba2 O11 2.999576 1_645
Ba2 O58 3.007697 1_655
Ba2 O64 3.030664 1_545
Ba2 O63 3.081217 1_545
Ba2 O6 3.114502 1_655
Ba2 O3 3.120902 1_555
Ba2 O33 3.142164 1_655
Ba3 O76 2.691011 1_555
Ba3 O1 2.770620 1_555
Ba3 O66 2.770736 1_655
Ba3 O36 2.876830 1_555
Ba3 O2 2.902675 1_555
Ba3 O40 2.969815 1_655
Ba3 O3 3.022859 1_555
Ba3 O51 3.100430 1_655
Ba3 O13 3.171634 1_655
Ba3 O43 3.213592 1_555
Ba3 O25 3.270408 1_655
Ba4 O37 2.691011 1_555
Ba4 O36 2.770620 1_555
Ba4 O24 2.770736 1_545
Ba4 O1 2.876830 1_555
Ba4 O9 2.902675 1_555
Ba4 O62 2.969815 1_545
Ba4 O43 3.022859 1_555
Ba4 O57 3.100430 1_545
Ba4 O15 3.171634 1_545
Ba4 O3 3.213592 1_555
Ba4 O63 3.270408 1_545
Ba5 O58 2.738965 1_555
Ba5 O6 2.790903 1_555
Ba5 O65 2.840308 1_555
Ba5 O17 2.844027 1_555
Ba5 O22 2.879981 1_555
Ba5 O20 2.881945 1_555
Ba5 O51 2.971614 1_555
Ba5 O57 3.038924 1_555
Ba5 O3 3.056235 1_455
Ba5 O13 3.132715 1_555
Ba6 O55 2.774074 1_554
Ba6 O45 2.835733 1_564
Ba6 O49 2.857872 1_565
Ba6 O19 2.860371 1_555
Ba6 O28 2.896864 1_455
Ba6 O60 2.999576 1_465
Ba6 O41 3.007697 1_565
Ba6 O27 3.030664 1_455
Ba6 O61 3.081217 1_455
Ba6 O29 3.114502 1_565
Ba6 O26 3.120902 1_555
Ba6 O39 3.142164 1_564
Ba7 O11 2.774074 1_555
Ba7 O0 2.835733 1_455
Ba7 O30 2.857872 1_455
Ba7 O73 2.860371 1_555
Ba7 O10 2.896864 1_565
Ba7 O56 2.999576 1_465
Ba7 O71 3.007697 1_455
Ba7 O33 3.030664 1_565
Ba7 O31 3.081217 1_565
Ba7 O21 3.114502 1_455
Ba7 O42 3.120902 1_555
Ba7 O64 3.142164 1_455
Ba8 O38 2.691011 1_555
Ba8 O32 2.770620 1_555
Ba8 O16 2.770736 1_455
Ba8 O50 2.876830 1_555
Ba8 O19 2.902675 1_555
Ba8 O28 2.969815 1_455
Ba8 O42 3.022859 1_555
Ba8 O12 3.100430 1_455
Ba8 O35 3.171634 1_455
Ba8 O26 3.213592 1_555
Ba8 O61 3.270408 1_455
Ba9 O41 2.738965 1_555
Ba9 O29 2.790903 1_555
Ba9 O47 2.840308 1_555
Ba9 O49 2.844027 1_555
Ba9 O78 2.879981 1_555
Ba9 O75 2.881945 1_555
Ba9 O70 2.971614 1_555
Ba9 O12 3.038924 1_555
Ba9 O26 3.056235 1_545
Ba9 O74 3.132715 1_555
Ba10 O60 2.774074 1_556
Ba10 O44 2.835733 1_546
Ba10 O72 2.857872 1_545
Ba10 O2 2.860371 1_555
Ba10 O40 2.896864 1_655
Ba10 O55 2.999576 1_645
Ba10 O23 3.007697 1_545
Ba10 O39 3.030664 1_655
Ba10 O25 3.081217 1_655
Ba10 O77 3.114502 1_545
Ba10 O43 3.120902 1_555
Ba10 O27 3.142164 1_546
Ba11 O71 2.738965 1_555
Ba11 O21 2.790903 1_555
Ba11 O59 2.840308 1_555
Ba11 O30 2.844027 1_555
Ba11 O75 2.879981 1_555
Ba11 O78 2.881945 1_555
Ba11 O12 2.971614 1_555
Ba11 O70 3.038924 1_555
Ba11 O42 3.056235 1_655
Ba11 O35 3.132715 1_555
O0 Ti1 1.978415 1_655
O0 Ti3 2.023156 1_555
O0 Ti26 2.030184 1_555
O1 Ti3 1.869021 1_555
O1 Ti26 2.003204 1_555
O2 Ti18 1.892690 1_556
O2 Ti14 1.905742 1_555
O3 Ti26 1.907868 1_555
O3 Ti28 1.980316 1_555
O4 Ti2 1.910401 1_555
O4 Ti21 2.008895 1_555
O4 Ti32 2.142370 1_555
O5 Ti6 1.929103 1_555
O5 Ti22 2.013671 1_555
O5 Ti15 2.171892 1_555
O6 Ti12 1.862789 1_545
O6 Ti28 1.972512 1_455
O7 Ti18 1.910401 1_555
O7 Ti17 2.008895 1_655
O7 Ti7 2.142370 1_555
O8 Ti30 1.944708 1_556
O8 Ti0 2.089833 1_555
O8 Ti4 2.194805 1_556
O8 Ti24 2.577483 1_555
O9 Ti2 1.892690 1_555
O9 Ti26 1.905742 1_555
O10 Ti5 1.804518 1_555
O10 Ti20 1.973551 1_545
O11 Ti33 1.837126 1_565
O11 Ti1 1.935182 1_555
O12 Ti25 1.905995 1_555
O12 Ti27 1.923525 1_555
O13 Ti13 1.975221 1_555
O13 Ti1 2.068038 1_555
O13 Ti26 2.072766 1_455
O14 Ti15 1.910401 1_555
O14 Ti21 2.008895 1_565
O14 Ti1 2.142370 1_555
O15 Ti13 1.975221 1_555
O15 Ti19 2.068038 1_555
O15 Ti14 2.072766 1_565
O16 Ti7 1.903439 1_555
O16 Ti27 2.061706 1_555
O16 Ti16 2.216759 1_555
O17 Ti15 1.839889 1_555
O17 Ti26 1.976525 1_455
O18 Ti32 1.903439 1_555
O18 Ti27 2.061706 1_555
O18 Ti16 2.216759 1_555
O19 Ti0 1.892690 1_554
O19 Ti23 1.905742 1_555
O20 Ti31 1.906310 1_555
O20 Ti24 1.932612 1_555
O21 Ti16 1.862789 1_565
O21 Ti20 1.972512 1_655
O22 Ti3 1.906310 1_555
O22 Ti10 1.932612 1_555
O23 Ti8 1.838801 1_555
O23 Ti30 1.973281 1_556
O24 Ti1 1.903439 1_555
O24 Ti13 2.061706 1_555
O24 Ti12 2.216759 1_555
O25 Ti24 1.939684 1_555
O25 Ti17 1.945104 1_556
O25 Ti4 2.109845 1_556
O26 Ti23 1.907868 1_555
O26 Ti20 1.980316 1_555
O27 Ti8 1.975828 1_554
O27 Ti25 2.039193 1_555
O27 Ti11 2.126264 1_555
O28 Ti25 1.804518 1_555
O28 Ti20 1.973551 1_655
O29 Ti16 1.862789 1_455
O29 Ti20 1.972512 1_545
O30 Ti2 1.839889 1_555
O30 Ti29 1.976525 1_655
O31 Ti5 1.939684 1_555
O31 Ti21 1.945104 1_555
O31 Ti33 2.109845 1_555
O32 Ti6 1.869021 1_555
O32 Ti29 2.003204 1_555
O33 Ti33 1.975828 1_555
O33 Ti5 2.039193 1_555
O33 Ti6 2.126264 1_555
O34 Ti19 1.899599 1_545
O34 Ti12 1.986109 1_545
O34 Ti31 2.227752 1_555
O35 Ti27 1.975221 1_555
O35 Ti32 2.068038 1_555
O35 Ti29 2.072766 1_655
O36 Ti31 1.869021 1_555
O36 Ti14 2.003204 1_555
O37 Ti21 1.942012 1_555
O37 Ti33 1.956816 1_555
O37 Ti2 2.220861 1_555
O38 Ti17 1.942012 1_555
O38 Ti4 1.956816 1_555
O38 Ti0 2.220861 1_554
O39 Ti4 1.975828 1_556
O39 Ti24 2.039193 1_555
O39 Ti31 2.126264 1_555
O40 Ti24 1.804518 1_555
O40 Ti28 1.973551 1_455
O41 Ti4 1.838801 1_555
O41 Ti30 1.973281 1_555
O42 Ti29 1.907868 1_555
O42 Ti20 1.980316 1_555
O43 Ti14 1.907868 1_555
O43 Ti28 1.980316 1_555
O44 Ti7 1.978415 1_565
O44 Ti11 2.023156 1_555
O44 Ti23 2.030184 1_555
O45 Ti19 1.978415 1_545
O45 Ti31 2.023156 1_555
O45 Ti14 2.030184 1_555
O46 Ti21 1.942012 1_565
O46 Ti9 1.956816 1_555
O46 Ti15 2.220861 1_555
O47 Ti30 1.944708 1_555
O47 Ti18 2.089833 1_555
O47 Ti8 2.194805 1_554
O47 Ti25 2.577483 1_555
O48 Ti7 1.899599 1_565
O48 Ti16 1.986109 1_565
O48 Ti11 2.227752 1_555
O49 Ti18 1.839889 1_555
O49 Ti23 1.976525 1_545
O50 Ti11 1.869021 1_555
O50 Ti23 2.003204 1_555
O51 Ti24 1.905995 1_555
O51 Ti13 1.923525 1_555
O52 Ti32 1.978415 1_455
O52 Ti6 2.023156 1_555
O52 Ti29 2.030184 1_555
O53 Ti3 1.929103 1_555
O53 Ti22 2.013671 1_555
O53 Ti2 2.171892 1_555
O54 Ti11 1.929103 1_555
O54 Ti30 2.013671 1_555
O54 Ti0 2.171892 1_554
O55 Ti8 1.837126 1_455
O55 Ti19 1.935182 1_555
O56 Ti9 1.837126 1_545
O56 Ti32 1.935182 1_555
O57 Ti10 1.905995 1_555
O57 Ti13 1.923525 1_555
O58 Ti33 1.838801 1_555
O58 Ti22 1.973281 1_555
O59 Ti22 1.944708 1_555
O59 Ti2 2.089833 1_555
O59 Ti33 2.194805 1_555
O59 Ti5 2.577483 1_555
O60 Ti4 1.837126 1_655
O60 Ti7 1.935182 1_555
O61 Ti25 1.939684 1_555
O61 Ti17 1.945104 1_655
O61 Ti8 2.109845 1_554
O62 Ti10 1.804518 1_555
O62 Ti28 1.973551 1_565
O63 Ti10 1.939684 1_555
O63 Ti21 1.945104 1_565
O63 Ti9 2.109845 1_555
O64 Ti9 1.975828 1_555
O64 Ti10 2.039193 1_555
O64 Ti3 2.126264 1_555
O65 Ti22 1.944708 1_555
O65 Ti15 2.089833 1_555
O65 Ti9 2.194805 1_555
O65 Ti10 2.577483 1_555
O66 Ti19 1.903439 1_555
O66 Ti13 2.061706 1_555
O66 Ti12 2.216759 1_555
O67 Ti31 1.929103 1_555
O67 Ti30 2.013671 1_556
O67 Ti18 2.171892 1_556
O68 Ti0 1.910401 1_555
O68 Ti17 2.008895 1_556
O68 Ti19 2.142370 1_555
O69 Ti1 1.899599 1_655
O69 Ti12 1.986109 1_655
O69 Ti3 2.227752 1_555
O70 Ti5 1.905995 1_555
O70 Ti27 1.923525 1_555
O71 Ti9 1.838801 1_555
O71 Ti22 1.973281 1_555
O72 Ti0 1.839889 1_555
O72 Ti14 1.976525 1_565
O73 Ti15 1.892690 1_555
O73 Ti29 1.905742 1_555
O74 Ti27 1.975221 1_555
O74 Ti7 2.068038 1_555
O74 Ti23 2.072766 1_545
O75 Ti6 1.906310 1_555
O75 Ti5 1.932612 1_555
O76 Ti17 1.942012 1_656
O76 Ti8 1.956816 1_555
O76 Ti18 2.220861 1_556
O77 Ti12 1.862789 1_655
O77 Ti28 1.972512 1_565
O78 Ti11 1.906310 1_555
O78 Ti25 1.932612 1_555
O79 Ti32 1.899599 1_455
O79 Ti16 1.986109 1_455
O79 Ti6 2.227752 1_555
