# generated using pymatgen
data_Nd(Al4Co)2
_symmetry_space_group_name_H-M   'P 1'
_cell_length_a   3.98037434
_cell_length_b   12.37276749
_cell_length_c   14.27278296
_cell_angle_alpha   90.00000000
_cell_angle_beta   90.00000000
_cell_angle_gamma   90.00000000
_symmetry_Int_Tables_number   1
_chemical_formula_structural   Nd(Al4Co)2
_chemical_formula_sum   'Nd4 Al32 Co8'
_cell_volume   702.90952963
_cell_formula_units_Z   4
loop_
 _symmetry_equiv_pos_site_id
 _symmetry_equiv_pos_as_xyz
  1  'x, y, z'
loop_
 _atom_site_type_symbol
 _atom_site_label
 _atom_site_symmetry_multiplicity
 _atom_site_fract_x
 _atom_site_fract_y
 _atom_site_fract_z
 _atom_site_occupancy
  Nd  Nd0  1  -0.00000000  0.84051574  0.18116357  1
  Nd  Nd1  1  0.00000000  0.15948426  0.81883643  1
  Nd  Nd2  1  0.00000000  0.65948426  0.68116357  1
  Nd  Nd3  1  -0.00000000  0.34051574  0.31883643  1
  Al  Al0  1  0.50000000  0.02666631  0.13173594  1
  Al  Al1  1  0.50000000  0.16904699  0.99256609  1
  Al  Al2  1  0.50000000  0.23553158  0.17208969  1
  Al  Al3  1  0.00000000  0.50000000  0.50000000  1
  Al  Al4  1  -0.00000000  0.65927182  0.95562395  1
  Al  Al5  1  0.00000000  0.09578175  0.25273055  1
  Al  Al6  1  0.50000000  0.04657525  0.67890069  1
  Al  Al7  1  0.00000000  0.90421825  0.74726945  1
  Al  Al8  1  0.50000000  0.54657525  0.82109931  1
  Al  Al9  1  0.50000000  0.97333369  0.86826406  1
  Al  Al10  1  0.50000000  0.65823679  0.12051588  1
  Al  Al11  1  0.50000000  0.73553158  0.32791031  1
  Al  Al12  1  0.50000000  0.45342475  0.17890069  1
  Al  Al13  1  0.50000000  0.95342475  0.32109931  1
  Al  Al14  1  0.50000000  0.33095301  0.49256609  1
  Al  Al15  1  -0.00000000  0.59578175  0.24726945  1
  Al  Al16  1  0.50000000  0.47333369  0.63173594  1
  Al  Al17  1  0.50000000  0.76446842  0.82791031  1
  Al  Al18  1  0.50000000  0.15823679  0.37948412  1
  Al  Al19  1  0.50000000  0.84176321  0.62051588  1
  Al  Al20  1  0.50000000  0.83095301  0.00743391  1
  Al  Al21  1  0.50000000  0.66904699  0.50743391  1
  Al  Al22  1  0.50000000  -0.00000000  0.50000000  1
  Al  Al23  1  -0.00000000  0.34072818  0.04437605  1
  Al  Al24  1  0.50000000  0.52666631  0.36826406  1
  Al  Al25  1  0.50000000  0.34176321  0.87948412  1
  Al  Al26  1  -0.00000000  0.40421825  0.75273055  1
  Al  Al27  1  0.50000000  0.50000000  -0.00000000  1
  Al  Al28  1  0.00000000  0.15927182  0.54437605  1
  Al  Al29  1  0.00000000  0.84072818  0.45562395  1
  Al  Al30  1  0.50000000  0.26446842  0.67208969  1
  Al  Al31  1  -0.00000000  -0.00000000  -0.00000000  1
  Co  Co0  1  -0.00000000  0.53450707  0.09449469  1
  Co  Co1  1  -0.00000000  0.03450707  0.40550531  1
  Co  Co2  1  0.00000000  0.65163868  0.40370658  1
  Co  Co3  1  -0.00000000  0.96549293  0.59449469  1
  Co  Co4  1  -0.00000000  0.46549293  0.90550531  1
  Co  Co5  1  0.00000000  0.15163868  0.09629342  1
  Co  Co6  1  0.00000000  0.84836132  0.90370658  1
  Co  Co7  1  0.00000000  0.34836132  0.59629342  1
loop_
_geom_bond_atom_site_label_1
_geom_bond_atom_site_label_2
_geom_bond_distance
_geom_bond_site_symmetry_2
Al0 Co5 2.570534 1_655
Al0 Co5 2.570534 1_555
Al0 Al2 2.647647 1_555
Al0 Al1 2.654983 1_554
Al0 Al31 2.757716 1_655
Al0 Al31 2.757716 1_555
Al0 Al5 2.770273 1_555
Al0 Al5 2.770273 1_655
Al0 Al13 2.850617 1_545
Al0 Al20 3.001882 1_545
Al0 Nd0 3.124620 1_645
Al0 Nd0 3.124620 1_545
Al1 Co5 2.489789 1_656
Al1 Co5 2.489789 1_556
Al1 Al25 2.677994 1_555
Al1 Al9 3.001882 1_545
Al1 Nd1 3.181712 1_655
Al1 Nd1 3.181712 1_555
Al2 Co5 2.491707 1_555
Al2 Co5 2.491707 1_655
Al2 Nd3 3.167802 1_655
Al2 Nd3 3.167802 1_555
Al3 Co7 2.325725 1_555
Al3 Co2 2.325725 1_555
Al3 Nd3 3.252637 1_555
Al3 Nd2 3.252637 1_555
Al4 Co6 2.454105 1_555
Al4 Co4 2.502018 1_555
Al4 Co0 2.512284 1_556
Al5 Co1 2.308559 1_555
Al5 Co5 2.337304 1_555
Al5 Nd3 3.171628 1_555
Al5 Nd0 3.319418 1_545
Al6 Co3 2.533496 1_645
Al6 Co3 2.533496 1_545
Al6 Al9 2.850617 1_545
Al6 Nd1 3.146672 1_655
Al6 Nd1 3.146672 1_555
Al7 Co3 2.308559 1_555
Al7 Co6 2.337304 1_555
Al7 Al9 2.770273 1_555
Al7 Al9 2.770273 1_455
Al7 Nd2 3.171628 1_555
Al7 Nd1 3.319418 1_565
Al8 Co4 2.533496 1_555
Al8 Co4 2.533496 1_655
Al8 Nd2 3.146672 1_555
Al8 Nd2 3.146672 1_655
Al9 Co6 2.570534 1_655
Al9 Co6 2.570534 1_555
Al9 Nd1 3.124620 1_565
Al9 Nd1 3.124620 1_665
Al10 Co0 2.538182 1_555
Al10 Co0 2.538182 1_655
Al10 Al27 2.606112 1_555
Al10 Al12 2.667589 1_555
Al10 Al20 2.677994 1_555
Al10 Al15 2.798377 1_555
Al10 Al15 2.798377 1_655
Al10 Nd0 3.129934 1_655
Al10 Nd0 3.129934 1_555
Al11 Co2 2.491707 1_555
Al11 Co2 2.491707 1_655
Al11 Al24 2.647647 1_555
Al11 Nd0 3.167802 1_555
Al11 Nd0 3.167802 1_655
Al12 Co0 2.533496 1_655
Al12 Co0 2.533496 1_555
Al12 Al24 2.850617 1_555
Al12 Nd3 3.146672 1_555
Al12 Nd3 3.146672 1_655
Al13 Co1 2.533496 1_565
Al13 Co1 2.533496 1_665
Al13 Al18 2.667589 1_565
Al13 Nd0 3.146672 1_555
Al13 Nd0 3.146672 1_655
Al14 Co7 2.489789 1_555
Al14 Co7 2.489789 1_655
Al14 Al16 2.654983 1_555
Al14 Al18 2.677994 1_555
Al14 Al24 3.001882 1_555
Al14 Nd3 3.181712 1_655
Al14 Nd3 3.181712 1_555
Al15 Co0 2.308559 1_555
Al15 Co2 2.337304 1_555
Al15 Al24 2.770273 1_555
Al15 Al24 2.770273 1_455
Al15 Nd0 3.171628 1_555
Al15 Nd3 3.319418 1_555
Al16 Co7 2.570534 1_555
Al16 Co7 2.570534 1_655
Al16 Al30 2.647647 1_555
Al16 Al3 2.757716 1_655
Al16 Al3 2.757716 1_555
Al16 Al26 2.770273 1_655
Al16 Al26 2.770273 1_555
Al16 Al8 2.850617 1_555
Al16 Al21 3.001882 1_555
Al16 Nd2 3.124620 1_555
Al16 Nd2 3.124620 1_655
Al17 Co6 2.491707 1_655
Al17 Co6 2.491707 1_555
Al17 Al9 2.647647 1_555
Al17 Nd2 3.167802 1_555
Al17 Nd2 3.167802 1_655
Al18 Co1 2.538182 1_555
Al18 Co1 2.538182 1_655
Al18 Al22 2.606112 1_555
Al18 Al5 2.798377 1_555
Al18 Al5 2.798377 1_655
Al18 Nd3 3.129934 1_655
Al18 Nd3 3.129934 1_555
Al19 Co3 2.538182 1_655
Al19 Co3 2.538182 1_555
Al19 Al22 2.606112 1_565
Al19 Al6 2.667589 1_565
Al19 Al21 2.677994 1_555
Al19 Al7 2.798377 1_555
Al19 Al7 2.798377 1_655
Al19 Nd2 3.129934 1_655
Al19 Nd2 3.129934 1_555
Al20 Co6 2.489789 1_554
Al20 Co6 2.489789 1_654
Al20 Al9 2.654983 1_554
Al20 Nd0 3.181712 1_655
Al20 Nd0 3.181712 1_555
Al21 Co2 2.489789 1_655
Al21 Co2 2.489789 1_555
Al21 Al24 2.654983 1_555
Al21 Nd2 3.181712 1_555
Al21 Nd2 3.181712 1_655
Al22 Co1 2.441747 1_655
Al22 Co3 2.441747 1_645
Al22 Co3 2.441747 1_545
Al22 Co1 2.441747 1_555
Al23 Co5 2.454105 1_555
Al23 Co0 2.502018 1_555
Al23 Co4 2.512284 1_554
Al24 Co2 2.570534 1_655
Al24 Co2 2.570534 1_555
Al24 Al3 2.757716 1_655
Al24 Al3 2.757716 1_555
Al24 Nd3 3.124620 1_555
Al24 Nd3 3.124620 1_655
Al25 Co4 2.538182 1_655
Al25 Co4 2.538182 1_555
Al25 Al27 2.606112 1_556
Al25 Al8 2.667589 1_555
Al25 Al26 2.798377 1_655
Al25 Al26 2.798377 1_555
Al25 Nd1 3.129934 1_655
Al25 Nd1 3.129934 1_555
Al26 Co4 2.308559 1_555
Al26 Co7 2.337304 1_555
Al26 Nd1 3.171628 1_555
Al26 Nd2 3.319418 1_555
Al27 Co0 2.441747 1_655
Al27 Co0 2.441747 1_555
Al27 Co4 2.441747 1_554
Al27 Co4 2.441747 1_654
Al28 Co7 2.454105 1_555
Al28 Co3 2.502018 1_545
Al28 Co1 2.512284 1_555
Al29 Co2 2.454105 1_555
Al29 Co1 2.502018 1_565
Al29 Co3 2.512284 1_555
Al30 Co7 2.491707 1_555
Al30 Co7 2.491707 1_655
Al30 Nd1 3.167802 1_655
Al30 Nd1 3.167802 1_555
Al31 Co6 2.325725 1_544
Al31 Co5 2.325725 1_555
Al31 Al9 2.757716 1_544
Al31 Al9 2.757716 1_444
Al31 Nd0 3.252637 1_545
Al31 Nd1 3.252637 1_554
