# generated using pymatgen
data_Mo(SeCl6)2
_symmetry_space_group_name_H-M   'P 1'
_cell_length_a   12.94510142
_cell_length_b   12.80207757
_cell_length_c   9.00314658
_cell_angle_alpha   70.38771105
_cell_angle_beta   68.68214195
_cell_angle_gamma   40.93014700
_symmetry_Int_Tables_number   1
_chemical_formula_structural   Mo(SeCl6)2
_chemical_formula_sum   'Mo2 Se4 Cl24'
_cell_volume   906.05119023
_cell_formula_units_Z   2
loop_
 _symmetry_equiv_pos_site_id
 _symmetry_equiv_pos_as_xyz
  1  'x, y, z'
loop_
 _atom_site_type_symbol
 _atom_site_label
 _atom_site_symmetry_multiplicity
 _atom_site_fract_x
 _atom_site_fract_y
 _atom_site_fract_z
 _atom_site_occupancy
  Mo  Mo0  1  0.12364300  0.12364300  0.37635700  1
  Mo  Mo1  1  0.87364300  0.87364300  0.12635700  1
  Se  Se0  1  0.47283600  0.93824800  0.57150900  1
  Se  Se1  1  0.67849100  0.23259400  0.77716400  1
  Se  Se2  1  0.93824800  0.47283600  0.01740600  1
  Se  Se3  1  0.23259400  0.67849100  0.31175200  1
  Cl  Cl0  1  0.09020700  0.01172500  0.26184300  1
  Cl  Cl1  1  0.16870800  0.23260100  0.48340500  1
  Cl  Cl2  1  0.23260100  0.16870800  0.11528600  1
  Cl  Cl3  1  0.92264600  0.83090400  0.38716400  1
  Cl  Cl4  1  0.05440300  0.50192300  0.77797600  1
  Cl  Cl5  1  0.61377500  0.98815700  0.23827500  1
  Cl  Cl6  1  0.44934500  0.31411700  0.89912000  1
  Cl  Cl7  1  0.71261900  0.68902600  0.57872800  1
  Cl  Cl8  1  0.91258200  0.35088000  0.93588300  1
  Cl  Cl9  1  0.47202400  0.58430200  0.19559700  1
  Cl  Cl10  1  0.31411700  0.44934500  0.33741800  1
  Cl  Cl11  1  0.39071400  0.86283600  0.41909600  1
  Cl  Cl12  1  0.58430200  0.47202400  0.74807700  1
  Cl  Cl13  1  0.98815700  0.61377500  0.15979300  1
  Cl  Cl14  1  0.67127200  0.23037200  0.53738100  1
  Cl  Cl15  1  0.50192300  0.05440300  0.66569800  1
  Cl  Cl16  1  0.13471400  0.76659500  0.01739900  1
  Cl  Cl17  1  0.68902600  0.71261900  0.01962800  1
  Cl  Cl18  1  0.76659500  0.13471400  0.08129200  1
  Cl  Cl19  1  0.01172500  0.09020700  0.63622500  1
  Cl  Cl20  1  0.35088000  0.91258200  0.80065500  1
  Cl  Cl21  1  0.86283600  0.39071400  0.32735400  1
  Cl  Cl22  1  0.23037200  0.67127200  0.56097400  1
  Cl  Cl23  1  0.83090400  0.92264600  0.85928600  1
loop_
_geom_bond_atom_site_label_1
_geom_bond_atom_site_label_2
_geom_bond_distance
_geom_bond_site_symmetry_2
Cl0 Mo0 2.357182 1_555
Cl1 Mo0 2.399109 1_555
Cl1 Se0 2.859378 1_545
Cl2 Mo0 2.399109 1_555
Cl2 Se2 2.859381 1_455
Cl3 Mo1 2.431327 1_555
Cl3 Se3 2.728722 1_655
Cl4 Se2 2.235354 1_456
Cl5 Mo1 2.357182 1_555
Cl6 Se1 2.194803 1_555
Cl7 Se0 2.204960 1_555
Cl8 Se2 2.194793 1_556
Cl9 Se3 2.235350 1_555
Cl10 Se3 2.194805 1_555
Cl11 Mo0 2.431327 1_565
Cl11 Se0 2.728712 1_555
Cl12 Se1 2.235349 1_555
Cl13 Mo1 2.357182 1_555
Cl14 Se1 2.204970 1_555
Cl15 Se0 2.235360 1_545
Cl16 Mo1 2.399109 1_455
Cl16 Se3 2.859385 1_555
Cl17 Se2 2.204959 1_555
Cl18 Mo1 2.399109 1_545
Cl18 Se1 2.859376 1_554
Cl19 Mo0 2.357182 1_555
Cl20 Se0 2.194799 1_555
Cl21 Mo0 2.431327 1_655
Cl21 Se2 2.728718 1_555
Cl22 Se3 2.204952 1_555
Cl23 Mo1 2.431327 1_556
Cl23 Se1 2.728722 1_565
