# generated using pymatgen
data_BaPr2Ti3O10
_symmetry_space_group_name_H-M   'P 1'
_cell_length_a   14.46537249
_cell_length_b   14.46537249
_cell_length_c   7.70464200
_cell_angle_alpha   90.00000000
_cell_angle_beta   90.00000000
_cell_angle_gamma   164.36836263
_symmetry_Int_Tables_number   1
_chemical_formula_structural   BaPr2Ti3O10
_chemical_formula_sum   'Ba2 Pr4 Ti6 O20'
_cell_volume   434.40268177
_cell_formula_units_Z   2
loop_
 _symmetry_equiv_pos_site_id
 _symmetry_equiv_pos_as_xyz
  1  'x, y, z'
loop_
 _atom_site_type_symbol
 _atom_site_label
 _atom_site_symmetry_multiplicity
 _atom_site_fract_x
 _atom_site_fract_y
 _atom_site_fract_z
 _atom_site_occupancy
  Ba  Ba0  1  0.74066500  0.25933500  0.25000000  1
  Ba  Ba1  1  0.25933500  0.74066500  0.75000000  1
  Pr  Pr0  1  0.42741700  0.57258300  0.75000000  1
  Pr  Pr1  1  0.57258300  0.42741700  0.25000000  1
  Pr  Pr2  1  0.57957200  0.42042800  0.75000000  1
  Pr  Pr3  1  0.42042800  0.57957200  0.25000000  1
  Ti  Ti0  1  0.85420300  0.14579700  0.99584900  1
  Ti  Ti1  1  0.14579700  0.85420300  0.00415100  1
  Ti  Ti2  1  0.85420300  0.14579700  0.50415100  1
  Ti  Ti3  1  0.00000000  0.00000000  0.00000000  1
  Ti  Ti4  1  0.14579700  0.85420300  0.49584900  1
  Ti  Ti5  1  0.00000000  0.00000000  0.50000000  1
  O  O0  1  0.20683500  0.79316500  0.04265000  1
  O  O1  1  0.79316500  0.20683500  0.95735000  1
  O  O2  1  0.63096400  0.36903600  0.49285800  1
  O  O3  1  0.01602500  0.98397500  0.25000000  1
  O  O4  1  0.93368000  0.06632000  0.04957100  1
  O  O5  1  0.36903600  0.63096400  0.50714200  1
  O  O6  1  0.98397500  0.01602500  0.75000000  1
  O  O7  1  0.12323400  0.87676600  0.25000000  1
  O  O8  1  0.79316500  0.20683500  0.54265000  1
  O  O9  1  0.50000000  0.50000000  0.00000000  1
  O  O10  1  0.36903600  0.63096400  0.99285800  1
  O  O11  1  0.06632000  0.93368000  0.54957100  1
  O  O12  1  0.63096400  0.36903600  0.00714200  1
  O  O13  1  0.93368000  0.06632000  0.45042900  1
  O  O14  1  0.20683500  0.79316500  0.45735000  1
  O  O15  1  0.06632000  0.93368000  0.95042900  1
  O  O16  1  0.85534700  0.14465300  0.25000000  1
  O  O17  1  0.87676600  0.12323400  0.75000000  1
  O  O18  1  0.50000000  0.50000000  0.50000000  1
  O  O19  1  0.14465300  0.85534700  0.75000000  1
loop_
_geom_bond_atom_site_label_1
_geom_bond_atom_site_label_2
_geom_bond_distance
_geom_bond_site_symmetry_2
Ba0 O1 2.710764 1_554
Ba0 O8 2.710764 1_555
Ba0 O14 2.713300 1_545
Ba0 O0 2.713300 1_545
Ba0 O14 2.713300 1_655
Ba0 O0 2.713300 1_655
Ba1 O14 2.710764 1_555
Ba1 O0 2.710764 1_556
Ba1 O1 2.713300 1_455
Ba1 O8 2.713300 1_455
Ba1 O1 2.713300 1_565
Ba1 O8 2.713300 1_565
O0 Ti1 1.774438 1_555
O1 Ti0 1.774438 1_555
O2 Ti4 2.012682 1_545
O2 Ti4 2.012682 1_655
O2 Pr2 2.468769 1_555
O2 Pr1 2.510205 1_555
O3 Ti3 1.980166 1_565
O3 Ti5 1.980166 1_565
O3 Pr1 2.549012 1_455
O3 Pr1 2.549012 1_565
O4 Ti3 1.938852 1_655
O4 Ti0 2.315267 1_554
O4 Pr3 2.529534 1_545
O4 Pr3 2.529534 1_655
O4 Pr0 3.037944 1_544
O4 Pr0 3.037944 1_654
O5 Ti2 2.012682 1_455
O5 Ti2 2.012682 1_565
O5 Pr3 2.468769 1_555
O5 Pr0 2.510205 1_555
O6 Ti5 1.980166 1_655
O6 Ti3 1.980166 1_656
O6 Pr0 2.549012 1_545
O6 Pr0 2.549012 1_655
O7 Ti4 2.001533 1_555
O7 Ti1 2.001533 1_555
O7 Pr1 2.444834 1_455
O7 Pr1 2.444834 1_565
O8 Ti2 1.774438 1_555
O9 Ti3 1.967133 1_665
O9 Ti3 1.967133 1_555
O9 Pr0 2.835145 1_554
O9 Pr1 2.835145 1_555
O9 Pr2 2.985239 1_554
O9 Pr3 2.985239 1_555
O10 Ti0 2.012682 1_455
O10 Ti0 2.012682 1_565
O10 Pr3 2.468769 1_556
O10 Pr0 2.510205 1_555
O11 Ti5 1.938852 1_565
O11 Ti4 2.315267 1_555
O11 Pr2 2.529534 1_565
O11 Pr2 2.529534 1_455
O11 Pr1 3.037944 1_455
O11 Pr1 3.037944 1_565
O12 Ti1 2.012682 1_545
O12 Ti1 2.012682 1_655
O12 Pr2 2.468769 1_554
O12 Pr1 2.510205 1_555
O13 Ti5 1.938852 1_655
O13 Ti2 2.315267 1_555
O13 Pr3 2.529534 1_655
O13 Pr3 2.529534 1_545
O13 Pr0 3.037944 1_655
O13 Pr0 3.037944 1_545
O14 Ti4 1.774438 1_555
O15 Ti3 1.938852 1_566
O15 Ti1 2.315267 1_556
O15 Pr2 2.529534 1_565
O15 Pr2 2.529534 1_455
O15 Pr1 3.037944 1_566
O15 Pr1 3.037944 1_456
O16 Ti0 1.958417 1_554
O16 Ti2 1.958417 1_555
O16 Pr3 2.710931 1_655
O16 Pr3 2.710931 1_545
O17 Ti0 2.001533 1_555
O17 Ti2 2.001533 1_555
O17 Pr0 2.444834 1_655
O17 Pr0 2.444834 1_545
O18 Ti5 1.967133 1_555
O18 Ti5 1.967133 1_665
O18 Pr0 2.835145 1_555
O18 Pr1 2.835145 1_555
O18 Pr3 2.985239 1_555
O18 Pr2 2.985239 1_555
O19 Ti1 1.958417 1_556
O19 Ti4 1.958417 1_555
O19 Pr2 2.710931 1_455
O19 Pr2 2.710931 1_565
