# generated using pymatgen
data_Ti4P6PbO24
_symmetry_space_group_name_H-M   'P 1'
_cell_length_a   9.07382857
_cell_length_b   9.07382857
_cell_length_c   9.07382845
_cell_angle_alpha   55.47130425
_cell_angle_beta   55.47130425
_cell_angle_gamma   55.47130007
_symmetry_Int_Tables_number   1
_chemical_formula_structural   Ti4P6PbO24
_chemical_formula_sum   'Ti4 P6 Pb1 O24'
_cell_volume   472.71732822
_cell_formula_units_Z   1
loop_
 _symmetry_equiv_pos_site_id
 _symmetry_equiv_pos_as_xyz
  1  'x, y, z'
loop_
 _atom_site_type_symbol
 _atom_site_label
 _atom_site_symmetry_multiplicity
 _atom_site_fract_x
 _atom_site_fract_y
 _atom_site_fract_z
 _atom_site_occupancy
  Ti  Ti0  1  0.84991100  0.84991100  0.84991100  1
  Ti  Ti1  1  0.15008900  0.15008900  0.15008900  1
  Ti  Ti2  1  0.35452000  0.35452000  0.35452000  1
  Ti  Ti3  1  0.64548000  0.64548000  0.64548000  1
  P  P0  1  0.75050000  0.46382900  0.03024800  1
  P  P1  1  0.96975200  0.24950000  0.53617100  1
  P  P2  1  0.24950000  0.53617100  0.96975200  1
  P  P3  1  0.03024800  0.75050000  0.46382900  1
  P  P4  1  0.53617100  0.96975200  0.24950000  1
  P  P5  1  0.46382900  0.03024800  0.75050000  1
  Pb  Pb0  1  0.00000000  0.00000000  0.00000000  1
  O  O0  1  0.90169500  0.09346000  0.72926000  1
  O  O1  1  0.15920000  0.22949500  0.51778400  1
  O  O2  1  0.09346000  0.72926000  0.90169500  1
  O  O3  1  0.46505500  0.18464600  0.55030800  1
  O  O4  1  0.37198700  0.99728100  0.21497800  1
  O  O5  1  0.78502200  0.62801300  0.00271900  1
  O  O6  1  0.72926000  0.90169500  0.09346000  1
  O  O7  1  0.21497800  0.37198700  0.99728100  1
  O  O8  1  0.90654000  0.27074000  0.09830500  1
  O  O9  1  0.77050500  0.48221600  0.84080000  1
  O  O10  1  0.99728100  0.21497800  0.37198700  1
  O  O11  1  0.00271900  0.78502200  0.62801300  1
  O  O12  1  0.44969200  0.53494500  0.81535400  1
  O  O13  1  0.09830500  0.90654000  0.27074000  1
  O  O14  1  0.55030800  0.46505500  0.18464600  1
  O  O15  1  0.62801300  0.00271900  0.78502200  1
  O  O16  1  0.48221600  0.84080000  0.77050500  1
  O  O17  1  0.18464600  0.55030800  0.46505500  1
  O  O18  1  0.81535400  0.44969200  0.53494500  1
  O  O19  1  0.22949500  0.51778400  0.15920000  1
  O  O20  1  0.84080000  0.77050500  0.48221600  1
  O  O21  1  0.27074000  0.09830500  0.90654000  1
  O  O22  1  0.51778400  0.15920000  0.22949500  1
  O  O23  1  0.53494500  0.81535400  0.44969200  1
loop_
_geom_bond_atom_site_label_1
_geom_bond_atom_site_label_2
_geom_bond_distance
_geom_bond_site_symmetry_2
O0 P1 1.551840 1_555
O0 Ti0 2.038235 1_545
O0 Pb0 2.610527 1_656
O1 P1 1.539894 1_455
O1 Ti2 2.005078 1_555
O2 P2 1.551840 1_555
O2 Ti0 2.038235 1_455
O2 Pb0 2.610527 1_566
O3 P5 1.540242 1_555
O3 Ti2 1.923808 1_555
O4 P4 1.548683 1_555
O4 Ti1 1.891251 1_565
O5 P0 1.548683 1_555
O5 Ti0 1.891251 1_554
O6 P4 1.551840 1_555
O6 Ti0 2.038235 1_554
O6 Pb0 2.610527 1_665
O7 P2 1.548683 1_555
O7 Ti1 1.891251 1_556
O8 P0 1.551840 1_555
O8 Ti1 2.038235 1_655
O8 Pb0 2.610527 1_655
O9 P0 1.539894 1_556
O9 Ti3 2.005078 1_555
O10 P1 1.548683 1_555
O10 Ti1 1.891251 1_655
O11 P3 1.548683 1_555
O11 Ti0 1.891251 1_455
O12 P2 1.540242 1_555
O12 Ti3 1.923808 1_555
O13 P3 1.551840 1_555
O13 Ti1 2.038235 1_565
O13 Pb0 2.610527 1_565
O14 P0 1.540242 1_555
O14 Ti2 1.923808 1_555
O15 P5 1.548683 1_555
O15 Ti0 1.891251 1_545
O16 P5 1.539894 1_565
O16 Ti3 2.005078 1_555
O17 P3 1.540242 1_555
O17 Ti2 1.923808 1_555
O18 P1 1.540242 1_555
O18 Ti3 1.923808 1_555
O19 P2 1.539894 1_554
O19 Ti2 2.005078 1_555
O20 P3 1.539894 1_655
O20 Ti3 2.005078 1_555
O21 P5 1.551840 1_555
O21 Ti1 2.038235 1_556
O21 Pb0 2.610527 1_556
O22 P4 1.539894 1_545
O22 Ti2 2.005078 1_555
O23 P4 1.540242 1_555
O23 Ti3 1.923808 1_555
