# generated using pymatgen
data_SbP2O7
_symmetry_space_group_name_H-M   'P 1'
_cell_length_a   7.98911499
_cell_length_b   8.03368681
_cell_length_c   16.14503796
_cell_angle_alpha   90.00000000
_cell_angle_beta   90.00000000
_cell_angle_gamma   90.00000000
_symmetry_Int_Tables_number   1
_chemical_formula_structural   SbP2O7
_chemical_formula_sum   'Sb8 P16 O56'
_cell_volume   1036.22159677
_cell_formula_units_Z   8
loop_
 _symmetry_equiv_pos_site_id
 _symmetry_equiv_pos_as_xyz
  1  'x, y, z'
loop_
 _atom_site_type_symbol
 _atom_site_label
 _atom_site_symmetry_multiplicity
 _atom_site_fract_x
 _atom_site_fract_y
 _atom_site_fract_z
 _atom_site_occupancy
  Sb  Sb0  1  0.48103089  0.74846184  0.62135396  1
  Sb  Sb1  1  0.48330419  0.22272841  0.87019975  1
  Sb  Sb2  1  0.01896911  0.24846184  0.12135396  1
  Sb  Sb3  1  0.51896911  0.24846184  0.37864604  1
  Sb  Sb4  1  0.51669581  0.72272841  0.12980025  1
  Sb  Sb5  1  0.98103089  0.74846184  0.87864604  1
  Sb  Sb6  1  0.01669581  0.72272841  0.37019975  1
  Sb  Sb7  1  0.98330419  0.22272841  0.62980025  1
  P  P0  1  0.57471758  0.36693063  0.57073516  1
  P  P1  1  0.12410551  0.34573083  0.40599921  1
  P  P2  1  0.60678982  0.62022609  0.81218951  1
  P  P3  1  0.88905962  0.12891814  0.82612125  1
  P  P4  1  0.07471758  0.36693063  0.92926484  1
  P  P5  1  0.39321018  0.12022609  0.18781049  1
  P  P6  1  0.10678982  0.62022609  0.68781049  1
  P  P7  1  0.89321018  0.12022609  0.31218951  1
  P  P8  1  0.87589449  0.84573083  0.59400079  1
  P  P9  1  0.11094038  0.62891814  0.17387875  1
  P  P10  1  0.61094038  0.62891814  0.32612225  1
  P  P11  1  0.42528242  0.86693063  0.42926484  1
  P  P12  1  0.92528242  0.86693063  0.07073516  1
  P  P13  1  0.62410551  0.34573083  0.09400079  1
  P  P14  1  0.37589449  0.84573083  0.90599921  1
  P  P15  1  0.38905962  0.12891814  0.67387875  1
  O  O0  1  0.22123694  0.36546238  0.87357800  1
  O  O1  1  0.00701179  0.46736279  0.17395928  1
  O  O2  1  0.94629176  0.22253657  0.90839907  1
  O  O3  1  0.44629176  0.22253657  0.59160093  1
  O  O4  1  0.55370824  0.72253657  0.40839907  1
  O  O5  1  0.29358949  0.59387789  0.16466375  1
  O  O6  1  0.96566279  0.52531906  0.92708003  1
  O  O7  1  0.07577317  0.64395824  0.78041410  1
  O  O8  1  0.72123694  0.36546238  0.62642200  1
  O  O9  1  0.70641051  0.09387789  0.83533625  1
  O  O10  1  0.74610960  0.23256494  0.33538903  1
  O  O11  1  0.19905077  0.77813020  0.92963464  1
  O  O12  1  0.27876306  0.86546238  0.37357800  1
  O  O13  1  0.97534788  0.88407823  0.51979723  1
  O  O14  1  0.87706279  0.83567414  0.97981734  1
  O  O15  1  0.12293721  0.33567414  0.02018266  1
  O  O16  1  0.52465212  0.38407823  0.01979723  1
  O  O17  1  0.02465212  0.38407823  0.48020277  1
  O  O18  1  0.77876306  0.86546238  0.12642200  1
  O  O19  1  0.25389040  0.73256494  0.66461097  1
  O  O20  1  0.99298821  0.96736279  0.82604072  1
  O  O21  1  0.75389040  0.73256494  0.83538903  1
  O  O22  1  0.05208663  0.18516574  0.35786829  1
  O  O23  1  0.05370824  0.72253657  0.09160093  1
  O  O24  1  0.13406367  0.44279349  0.66591773  1
  O  O25  1  0.94019346  0.23969912  0.75533667  1
  O  O26  1  0.92422683  0.14395824  0.21958590  1
  O  O27  1  0.42422683  0.14395824  0.28041410  1
  O  O28  1  0.53433721  0.02531906  0.42708003  1
  O  O29  1  0.94791337  0.68516574  0.64213171  1
  O  O30  1  0.62293721  0.33567414  0.47981734  1
  O  O31  1  0.86593633  0.94279349  0.33408227  1
  O  O32  1  0.46566279  0.52531906  0.57291997  1
  O  O33  1  0.80094923  0.27813020  0.07036536  1
  O  O34  1  0.44791337  0.68516574  0.85786829  1
  O  O35  1  0.49298821  0.96736279  0.67395928  1
  O  O36  1  0.69905077  0.77813020  0.57036536  1
  O  O37  1  0.30094923  0.27813020  0.42963464  1
  O  O38  1  0.44019346  0.23969912  0.74466333  1
  O  O39  1  0.37706279  0.83567414  0.52018266  1
  O  O40  1  0.55980654  0.73969912  0.25533667  1
  O  O41  1  0.20641051  0.09387789  0.66466375  1
  O  O42  1  0.13950355  0.48338125  0.34260975  1
  O  O43  1  0.63950355  0.48338125  0.15739025  1
  O  O44  1  0.36593633  0.94279349  0.16591773  1
  O  O45  1  0.05980654  0.73969912  0.24466333  1
  O  O46  1  0.24610960  0.23256494  0.16461097  1
  O  O47  1  0.50701179  0.46736279  0.32604072  1
  O  O48  1  0.03433721  0.02531906  0.07291997  1
  O  O49  1  0.36049645  0.98338125  0.84260975  1
  O  O50  1  0.79358949  0.59387789  0.33533625  1
  O  O51  1  0.55208663  0.18516574  0.14213171  1
  O  O52  1  0.47534788  0.88407823  0.98020277  1
  O  O53  1  0.63406367  0.44279349  0.83408227  1
  O  O54  1  0.57577317  0.64395824  0.71958590  1
  O  O55  1  0.86049645  0.98338125  0.65739025  1
loop_
_geom_bond_atom_site_label_1
_geom_bond_atom_site_label_2
_geom_bond_distance
_geom_bond_site_symmetry_2
O0 P4 1.476032 1_555
O0 Sb1 2.387754 1_555
O1 P9 1.540747 1_555
O1 Sb2 1.955267 1_555
O2 P4 1.584872 1_655
O2 P3 1.593521 1_555
O3 P0 1.584872 1_555
O3 P15 1.593521 1_555
O4 P11 1.584872 1_555
O4 P10 1.593507 1_555
O5 P9 1.493538 1_555
O5 Sb4 2.136675 1_555
O6 P4 1.542542 1_655
O6 Sb5 1.959637 1_555
O7 P6 1.527430 1_555
O7 Sb5 1.947566 1_455
O8 P0 1.476032 1_555
O8 Sb7 2.387754 1_555
O9 P3 1.493538 1_555
O9 Sb1 2.136675 1_555
O10 P7 1.528363 1_555
O10 Sb3 1.948593 1_555
O11 P14 1.560970 1_555
O11 Sb5 1.941213 1_455
O12 P11 1.476032 1_555
O12 Sb6 2.387754 1_555
O13 P8 1.470190 1_555
O14 P12 1.538215 1_556
O14 Sb5 1.961849 1_555
O15 P4 1.538215 1_554
O15 Sb2 1.961849 1_555
O16 P13 1.470190 1_555
O17 P1 1.470190 1_555
O18 P12 1.476032 1_555
O18 Sb4 2.387754 1_555
O19 P6 1.528363 1_555
O19 Sb0 1.948593 1_555
O20 P3 1.540747 1_565
O20 Sb5 1.955267 1_555
O21 P2 1.528363 1_555
O21 Sb5 1.948593 1_555
O22 P7 1.557928 1_455
O22 P1 1.612083 1_555
O23 P12 1.584872 1_455
O23 P9 1.593521 1_555
O24 P6 1.484683 1_555
O24 Sb7 2.217269 1_455
O25 P3 1.504987 1_555
O25 Sb7 2.060361 1_555
O26 P7 1.527430 1_555
O26 Sb2 1.947566 1_655
O27 P5 1.527430 1_555
O27 Sb3 1.947566 1_555
O28 P11 1.542542 1_545
O28 Sb3 1.959637 1_555
O29 P6 1.557928 1_655
O29 P8 1.612083 1_555
O30 P0 1.538215 1_555
O30 Sb3 1.961849 1_555
O31 P7 1.484683 1_565
O31 Sb6 2.217269 1_655
O32 P0 1.542542 1_555
O32 Sb0 1.959637 1_555
O33 P13 1.560970 1_555
O33 Sb2 1.941213 1_655
O34 P2 1.557928 1_555
O34 P14 1.612083 1_555
O35 P15 1.540747 1_565
O35 Sb0 1.955267 1_555
O36 P8 1.560970 1_555
O36 Sb0 1.941213 1_555
O37 P1 1.560970 1_555
O37 Sb3 1.941213 1_555
O38 P15 1.504987 1_555
O38 Sb1 2.060361 1_555
O39 P11 1.538215 1_555
O39 Sb0 1.961849 1_555
O40 P10 1.504999 1_555
O40 Sb4 2.060361 1_555
O41 P15 1.493538 1_555
O41 Sb7 2.136675 1_455
O42 P1 1.511759 1_555
O42 Sb6 2.204164 1_555
O43 P13 1.511759 1_555
O43 Sb4 2.204164 1_555
O44 P5 1.484683 1_565
O44 Sb4 2.217269 1_555
O45 P9 1.504987 1_555
O45 Sb6 2.060361 1_555
O46 P5 1.528363 1_555
O46 Sb2 1.948593 1_555
O47 P10 1.540747 1_555
O47 Sb3 1.955267 1_555
O48 P12 1.542542 1_445
O48 Sb2 1.959637 1_555
O49 P14 1.511759 1_555
O49 Sb1 2.204164 1_565
O50 P10 1.493537 1_555
O50 Sb6 2.136675 1_655
O51 P5 1.557928 1_555
O51 P13 1.612083 1_555
O52 P14 1.470190 1_555
O53 P2 1.484683 1_555
O53 Sb1 2.217269 1_555
O54 P2 1.527430 1_555
O54 Sb0 1.947566 1_555
O55 P8 1.511759 1_555
O55 Sb7 2.204164 1_565
