# generated using pymatgen
data_CsLi3F4
_symmetry_space_group_name_H-M   'P 1'
_cell_length_a   5.89636671
_cell_length_b   5.89636671
_cell_length_c   7.98233879
_cell_angle_alpha   70.89824913
_cell_angle_beta   70.89824913
_cell_angle_gamma   57.28380402
_symmetry_Int_Tables_number   1
_chemical_formula_structural   CsLi3F4
_chemical_formula_sum   'Cs2 Li6 F8'
_cell_volume   216.65695660
_cell_formula_units_Z   2
loop_
 _symmetry_equiv_pos_site_id
 _symmetry_equiv_pos_as_xyz
  1  'x, y, z'
loop_
 _atom_site_type_symbol
 _atom_site_label
 _atom_site_symmetry_multiplicity
 _atom_site_fract_x
 _atom_site_fract_y
 _atom_site_fract_z
 _atom_site_occupancy
  Cs  Cs0  1  0.33245400  0.33245400  0.26756200  1
  Cs  Cs1  1  0.66754600  0.66754600  0.73243800  1
  Li  Li0  1  0.00067300  0.00067300  0.69021500  1
  Li  Li1  1  0.60805100  0.60805100  0.32829800  1
  Li  Li2  1  0.99932700  0.99932700  0.30978500  1
  Li  Li3  1  0.39194900  0.39194900  0.67170200  1
  Li  Li4  1  0.79470100  0.79470100  0.03674200  1
  Li  Li5  1  0.20529900  0.20529900  0.96325800  1
  F  F0  1  0.74964300  0.25035700  0.50000000  1
  F  F1  1  0.12984800  0.62933900  0.86490900  1
  F  F2  1  0.25035700  0.74964300  0.50000000  1
  F  F3  1  0.81087500  0.81087500  0.27768000  1
  F  F4  1  0.37066100  0.87015200  0.13509100  1
  F  F5  1  0.18912500  0.18912500  0.72232000  1
  F  F6  1  0.62933900  0.12984800  0.86490900  1
  F  F7  1  0.87015200  0.37066100  0.13509100  1
loop_
_geom_bond_atom_site_label_1
_geom_bond_atom_site_label_2
_geom_bond_distance
_geom_bond_site_symmetry_2
Cs0 F3 2.833916 1_545
Cs0 F3 2.833916 1_455
Cs1 F5 2.833916 1_565
Cs1 F5 2.833916 1_655
F0 Li3 1.994340 1_555
F0 Li1 1.994340 1_555
F0 Li0 2.077521 1_655
F0 Li2 2.077521 1_545
F1 Li4 1.937963 1_456
F1 Li0 2.052516 1_565
F1 Li3 2.059311 1_555
F1 Li5 2.192536 1_555
F2 Li3 1.994340 1_555
F2 Li1 1.994340 1_555
F2 Li0 2.077521 1_565
F2 Li2 2.077521 1_455
F3 Li1 1.984246 1_555
F3 Li4 1.991732 1_555
F3 Li2 2.059749 1_555
F4 Li5 1.937963 1_564
F4 Li2 2.052516 1_455
F4 Li1 2.059311 1_555
F4 Li4 2.192536 1_555
F5 Li3 1.984246 1_555
F5 Li5 1.991732 1_555
F5 Li0 2.059749 1_555
F6 Li4 1.937963 1_546
F6 Li0 2.052516 1_655
F6 Li3 2.059311 1_555
F6 Li5 2.192536 1_555
F7 Li5 1.937963 1_654
F7 Li2 2.052516 1_545
F7 Li1 2.059311 1_555
F7 Li4 2.192536 1_555
