# generated using pymatgen
data_Te6Mo(OF5)6
_symmetry_space_group_name_H-M   'P 1'
_cell_length_a   9.35011300
_cell_length_b   9.35427833
_cell_length_c   9.46727844
_cell_angle_alpha   111.65406626
_cell_angle_beta   116.26530396
_cell_angle_gamma   82.80517946
_symmetry_Int_Tables_number   1
_chemical_formula_structural   Te6Mo(OF5)6
_chemical_formula_sum   'Te6 Mo1 O6 F30'
_cell_volume   689.42802075
_cell_formula_units_Z   1
loop_
 _symmetry_equiv_pos_site_id
 _symmetry_equiv_pos_as_xyz
  1  'x, y, z'
loop_
 _atom_site_type_symbol
 _atom_site_label
 _atom_site_symmetry_multiplicity
 _atom_site_fract_x
 _atom_site_fract_y
 _atom_site_fract_z
 _atom_site_occupancy
  Te  Te0  1  0.68537900  0.25020100  0.08129500  1
  Te  Te1  1  0.31462100  0.74979900  0.91870500  1
  Te  Te2  1  0.67484300  0.75913000  0.60650100  1
  Te  Te3  1  0.32515700  0.24087000  0.39349900  1
  Te  Te4  1  0.00112300  0.23077200  0.75669400  1
  Te  Te5  1  0.99887700  0.76922800  0.24330600  1
  Mo  Mo0  1  0.00000000  0.00000000  0.00000000  1
  O  O0  1  0.80930700  0.07572300  0.02953900  1
  O  O1  1  0.19069300  0.92427700  0.97046100  1
  O  O2  1  0.87251700  0.87301100  0.76923400  1
  O  O3  1  0.12748300  0.12698900  0.23076600  1
  O  O4  1  0.00693900  0.16837300  0.93074400  1
  O  O5  1  0.99306100  0.83162700  0.06925600  1
  F  F0  1  0.49686300  0.12841300  0.94191300  1
  F  F1  1  0.50313700  0.87158700  0.05808700  1
  F  F2  1  0.56682800  0.42074200  0.13364800  1
  F  F3  1  0.43317200  0.57925800  0.86635200  1
  F  F4  1  0.66940500  0.29663100  0.89904500  1
  F  F5  1  0.33059500  0.70336900  0.10095500  1
  F  F6  1  0.87146600  0.37654300  0.22258800  1
  F  F7  1  0.12853400  0.62345700  0.77741200  1
  F  F8  1  0.69621000  0.20580200  0.26240000  1
  F  F9  1  0.30379000  0.79419800  0.73760000  1
  F  F10  1  0.56111200  0.93677400  0.64938800  1
  F  F11  1  0.43888800  0.06322600  0.35061200  1
  F  F12  1  0.78433600  0.57984700  0.55876300  1
  F  F13  1  0.21566400  0.42015300  0.44123700  1
  F  F14  1  0.68956200  0.80317300  0.43643700  1
  F  F15  1  0.31043800  0.19682700  0.56356300  1
  F  F16  1  0.65532800  0.71104300  0.77252200  1
  F  F17  1  0.34467200  0.28895700  0.22747800  1
  F  F18  1  0.48250100  0.64851800  0.44924800  1
  F  F19  1  0.51749900  0.35148200  0.55075200  1
  F  F20  1  0.80247600  0.12730700  0.60868200  1
  F  F21  1  0.19752400  0.87269300  0.39131800  1
  F  F22  1  0.89865900  0.40913100  0.82580300  1
  F  F23  1  0.10134100  0.59086900  0.17419700  1
  F  F24  1  0.10512400  0.05396800  0.68426600  1
  F  F25  1  0.89487600  0.94603200  0.31573400  1
  F  F26  1  0.19831400  0.33707200  0.90141100  1
  F  F27  1  0.80168600  0.66292800  0.09858900  1
  F  F28  1  0.99590700  0.29006400  0.58676400  1
  F  F29  1  0.00409300  0.70993600  0.41323600  1
loop_
_geom_bond_atom_site_label_1
_geom_bond_atom_site_label_2
_geom_bond_distance
_geom_bond_site_symmetry_2
Mo0 O1 1.933339 1_544
Mo0 O0 1.933339 1_455
Mo0 O3 1.933780 1_555
Mo0 O2 1.933780 1_444
Mo0 O4 1.933940 1_554
Mo0 O5 1.933940 1_445
O0 Te0 1.919678 1_555
O1 Te1 1.919678 1_555
O2 Te2 1.919961 1_555
O3 Te3 1.919961 1_555
O4 Te4 1.918696 1_555
O5 Te5 1.918696 1_555
F0 Te0 1.865749 1_556
F1 Te1 1.865749 1_554
F2 Te0 1.865228 1_555
F3 Te1 1.865228 1_555
F4 Te0 1.869946 1_556
F5 Te1 1.869946 1_554
F6 Te0 1.871338 1_555
F7 Te1 1.871338 1_555
F8 Te0 1.866499 1_555
F9 Te1 1.866499 1_555
F10 Te2 1.870453 1_555
F11 Te3 1.870453 1_555
F12 Te2 1.866810 1_555
F13 Te3 1.866810 1_555
F14 Te2 1.865681 1_555
F15 Te3 1.865681 1_555
F16 Te2 1.871430 1_555
F17 Te3 1.871430 1_555
F18 Te2 1.865725 1_555
F19 Te3 1.865725 1_555
F20 Te4 1.869756 1_655
F21 Te5 1.869756 1_455
F22 Te4 1.865032 1_655
F23 Te5 1.865032 1_455
F24 Te4 1.871213 1_555
F25 Te5 1.871213 1_555
F26 Te4 1.866383 1_555
F27 Te5 1.866383 1_555
F28 Te4 1.865594 1_655
F29 Te5 1.865594 1_455
