# generated using pymatgen
data_Yb(CoGe)2
_symmetry_space_group_name_H-M   'P 1'
_cell_length_a   5.70026390
_cell_length_b   5.70026390
_cell_length_c   5.70026390
_cell_angle_alpha   140.15786236
_cell_angle_beta   140.15786236
_cell_angle_gamma   57.61368547
_symmetry_Int_Tables_number   1
_chemical_formula_structural   Yb(CoGe)2
_chemical_formula_sum   'Yb1 Co2 Ge2'
_cell_volume   75.36699889
_cell_formula_units_Z   1
loop_
 _symmetry_equiv_pos_site_id
 _symmetry_equiv_pos_as_xyz
  1  'x, y, z'
loop_
 _atom_site_type_symbol
 _atom_site_label
 _atom_site_symmetry_multiplicity
 _atom_site_fract_x
 _atom_site_fract_y
 _atom_site_fract_z
 _atom_site_occupancy
  Yb  Yb0  1  0.00000000  0.00000000  0.00000000  1
  Co  Co0  1  0.75000000  0.25000000  0.50000000  1
  Co  Co1  1  0.25000000  0.75000000  0.50000000  1
  Ge  Ge0  1  0.37364961  0.37364961  0.00000000  1
  Ge  Ge1  1  0.62635039  0.62635039  0.00000000  1
loop_
_geom_bond_atom_site_label_1
_geom_bond_atom_site_label_2
_geom_bond_distance
_geom_bond_site_symmetry_2
Co0 Ge0 2.301741 1_656
Co0 Ge0 2.301741 1_555
Co0 Ge1 2.301741 1_545
Co0 Ge1 2.301741 1_556
Co0 Yb0 3.163759 1_656
Co0 Yb0 3.163759 1_555
Co0 Yb0 3.163759 1_655
Co0 Yb0 3.163759 1_666
Co1 Ge0 2.301741 1_566
Co1 Ge0 2.301741 1_555
Co1 Ge1 2.301741 1_455
Co1 Ge1 2.301741 1_556
Co1 Yb0 3.163759 1_565
Co1 Yb0 3.163759 1_555
Co1 Yb0 3.163759 1_566
Co1 Yb0 3.163759 1_666
Ge0 Ge1 2.524406 1_555
Ge0 Yb0 3.022850 1_554
Ge0 Yb0 3.022850 1_655
Ge0 Yb0 3.022850 1_565
Ge0 Yb0 3.022850 1_666
Ge1 Yb0 3.022850 1_666
Ge1 Yb0 3.022850 1_655
Ge1 Yb0 3.022850 1_565
Ge1 Yb0 3.022850 1_554
