# generated using pymatgen
data_SnSb2As2F18
_symmetry_space_group_name_H-M   'P 1'
_cell_length_a   11.69836500
_cell_length_b   6.18493300
_cell_length_c   11.31776431
_cell_angle_alpha   89.68752796
_cell_angle_beta   90.00000000
_cell_angle_gamma   90.00000000
_symmetry_Int_Tables_number   1
_chemical_formula_structural   SnSb2As2F18
_chemical_formula_sum   'Sn2 Sb4 As4 F36'
_cell_volume   818.86885621
_cell_formula_units_Z   2
loop_
 _symmetry_equiv_pos_site_id
 _symmetry_equiv_pos_as_xyz
  1  'x, y, z'
loop_
 _atom_site_type_symbol
 _atom_site_label
 _atom_site_symmetry_multiplicity
 _atom_site_fract_x
 _atom_site_fract_y
 _atom_site_fract_z
 _atom_site_occupancy
  Sn  Sn0  1  0.36826300  0.00203500  0.50126100  1
  Sn  Sn1  1  0.63173700  0.00203500  0.00126100  1
  Sb  Sb0  1  0.11263700  0.51300900  0.46894500  1
  Sb  Sb1  1  0.88736300  0.51300900  0.96894500  1
  Sb  Sb2  1  0.46844600  0.51275500  0.76986000  1
  Sb  Sb3  1  0.53155400  0.51275500  0.26986000  1
  As  As0  1  0.24560600  0.09403300  0.12858700  1
  As  As1  1  0.75439400  0.09403300  0.62858700  1
  As  As2  1  0.86507600  0.88700400  0.28884700  1
  As  As3  1  0.13492400  0.88700400  0.78884700  1
  F  F0  1  0.51032100  0.31796700  0.89625800  1
  F  F1  1  0.29323800  0.03764900  0.27762900  1
  F  F2  1  0.41519900  0.27349600  0.67586400  1
  F  F3  1  0.24614400  0.70652100  0.45463300  1
  F  F4  1  0.01767700  0.76522400  0.45978400  1
  F  F5  1  0.02286900  0.05592500  0.74135800  1
  F  F6  1  0.57005800  0.71008900  0.14161200  1
  F  F7  1  0.19220100  0.83221400  0.10823900  1
  F  F8  1  0.31955000  0.55075200  0.83399900  1
  F  F9  1  0.42994200  0.71008900  0.64161200  1
  F  F10  1  0.22691700  0.96812100  0.66516800  1
  F  F11  1  0.70676200  0.03764900  0.77762900  1
  F  F12  1  0.38240900  0.03668700  0.06724400  1
  F  F13  1  0.80016500  0.08002400  0.38324700  1
  F  F14  1  0.38285400  0.48415300  0.20369600  1
  F  F15  1  0.98232300  0.76522400  0.95978400  1
  F  F16  1  0.19983500  0.08002400  0.88324700  1
  F  F17  1  0.87468900  0.54346100  0.13635100  1
  F  F18  1  0.12531100  0.54346100  0.63635100  1
  F  F19  1  0.68045000  0.55075200  0.33399900  1
  F  F20  1  0.58480100  0.27349600  0.17586400  1
  F  F21  1  0.51810900  0.75747100  0.86324900  1
  F  F22  1  0.80779900  0.83221400  0.60823900  1
  F  F23  1  0.97713100  0.05592500  0.24135800  1
  F  F24  1  0.61759100  0.03668700  0.56724400  1
  F  F25  1  0.77308300  0.96812100  0.16516800  1
  F  F26  1  0.61714600  0.48415300  0.70369600  1
  F  F27  1  0.11258100  0.48488600  0.30221400  1
  F  F28  1  0.88741900  0.48488600  0.80221400  1
  F  F29  1  0.75385600  0.70652100  0.95463300  1
  F  F30  1  0.48967900  0.31796700  0.39625800  1
  F  F31  1  0.98868400  0.31885400  0.48775900  1
  F  F32  1  0.01131600  0.31885400  0.98775900  1
  F  F33  1  0.22437400  0.27776900  0.47859600  1
  F  F34  1  0.77562600  0.27776900  0.97859600  1
  F  F35  1  0.48189100  0.75747100  0.36324900  1
loop_
_geom_bond_atom_site_label_1
_geom_bond_atom_site_label_2
_geom_bond_distance
_geom_bond_site_symmetry_2
As0 F7 1.752043 1_545
As0 F12 1.780921 1_555
As0 F1 1.808606 1_555
As1 F22 1.752043 1_545
As1 F24 1.780921 1_555
As1 F11 1.808606 1_555
As2 F23 1.758590 1_565
As2 F13 1.776850 1_565
As2 F25 1.833450 1_555
As3 F5 1.758590 1_565
As3 F16 1.776850 1_565
As3 F10 1.833450 1_555
F0 Sb2 1.928484 1_555
F0 Sn1 2.687489 1_556
F1 Sn0 2.686778 1_555
F2 Sb2 1.930469 1_555
F2 Sn0 2.657374 1_555
F3 Sb0 1.973792 1_555
F3 Sn0 2.381282 1_565
F4 Sb0 1.917400 1_555
F6 Sb3 1.944217 1_555
F6 Sn1 2.504591 1_565
F8 Sb2 1.902115 1_555
F9 Sb2 1.944217 1_555
F9 Sn0 2.504591 1_565
F10 Sn0 2.493015 1_565
F11 Sn1 2.686778 1_556
F14 Sb3 1.902500 1_555
F15 Sb1 1.917400 1_555
F17 Sb1 1.910783 1_554
F18 Sb0 1.910783 1_555
F19 Sb3 1.902115 1_555
F20 Sb3 1.930469 1_555
F20 Sn1 2.657374 1_555
F21 Sb2 1.939839 1_555
F21 Sn1 2.553528 1_566
F25 Sn1 2.493015 1_565
F26 Sb2 1.902500 1_555
F27 Sb0 1.895966 1_555
F28 Sb1 1.895966 1_555
F29 Sb1 1.973792 1_555
F29 Sn1 2.381282 1_566
F30 Sb3 1.928484 1_555
F30 Sn0 2.687489 1_555
F31 Sb0 1.893989 1_655
F32 Sb1 1.893989 1_455
F33 Sb0 1.958488 1_555
F33 Sn0 2.408898 1_555
F34 Sb1 1.958488 1_555
F34 Sn1 2.408898 1_556
F35 Sb3 1.939839 1_555
F35 Sn0 2.553528 1_565
