# generated using pymatgen
data_SnHg6(As2Br3)2
_symmetry_space_group_name_H-M   'P 1'
_cell_length_a   12.74700600
_cell_length_b   12.74700600
_cell_length_c   12.74700600
_cell_angle_alpha   90.00000000
_cell_angle_beta   90.00000000
_cell_angle_gamma   90.00000000
_symmetry_Int_Tables_number   1
_chemical_formula_structural   SnHg6(As2Br3)2
_chemical_formula_sum   'Sn4 Hg24 As16 Br24'
_cell_volume   2071.21208147
_cell_formula_units_Z   4
loop_
 _symmetry_equiv_pos_site_id
 _symmetry_equiv_pos_as_xyz
  1  'x, y, z'
loop_
 _atom_site_type_symbol
 _atom_site_label
 _atom_site_symmetry_multiplicity
 _atom_site_fract_x
 _atom_site_fract_y
 _atom_site_fract_z
 _atom_site_occupancy
  Sn  Sn0  1  0.72659500  0.27340500  0.77340500  1
  Sn  Sn1  1  0.27340500  0.77340500  0.72659500  1
  Sn  Sn2  1  0.77340500  0.72659500  0.27340500  1
  Sn  Sn3  1  0.22659500  0.22659500  0.22659500  1
  Hg  Hg0  1  0.52825300  0.76551100  0.53811900  1
  Hg  Hg1  1  0.23448900  0.03811900  0.97174700  1
  Hg  Hg2  1  0.47347300  0.51781000  0.26193200  1
  Hg  Hg3  1  0.96188100  0.47174700  0.26551100  1
  Hg  Hg4  1  0.01781000  0.23806800  0.52652700  1
  Hg  Hg5  1  0.02825300  0.73448900  0.46188100  1
  Hg  Hg6  1  0.02652700  0.48219000  0.76193200  1
  Hg  Hg7  1  0.53811900  0.52825300  0.76551100  1
  Hg  Hg8  1  0.76193200  0.02652700  0.48219000  1
  Hg  Hg9  1  0.51781000  0.26193200  0.47347300  1
  Hg  Hg10  1  0.73806800  0.97347300  0.98219000  1
  Hg  Hg11  1  0.48219000  0.76193200  0.02652700  1
  Hg  Hg12  1  0.26193200  0.47347300  0.51781000  1
  Hg  Hg13  1  0.03811900  0.97174700  0.23448900  1
  Hg  Hg14  1  0.23806800  0.52652700  0.01781000  1
  Hg  Hg15  1  0.52652700  0.01781000  0.23806800  1
  Hg  Hg16  1  0.76551100  0.53811900  0.52825300  1
  Hg  Hg17  1  0.46188100  0.02825300  0.73448900  1
  Hg  Hg18  1  0.97347300  0.98219000  0.73806800  1
  Hg  Hg19  1  0.97174700  0.23448900  0.03811900  1
  Hg  Hg20  1  0.73448900  0.46188100  0.02825300  1
  Hg  Hg21  1  0.47174700  0.26551100  0.96188100  1
  Hg  Hg22  1  0.98219000  0.73806800  0.97347300  1
  Hg  Hg23  1  0.26551100  0.96188100  0.47174700  1
  As  As0  1  0.06730700  0.93269300  0.43269300  1
  As  As1  1  0.93171400  0.93171400  0.93171400  1
  As  As2  1  0.56730700  0.56730700  0.56730700  1
  As  As3  1  0.45665300  0.95665300  0.54334700  1
  As  As4  1  0.45591700  0.45591700  0.45591700  1
  As  As5  1  0.93269300  0.43269400  0.06730700  1
  As  As6  1  0.95591700  0.04408300  0.54408300  1
  As  As7  1  0.04334700  0.04334700  0.04334700  1
  As  As8  1  0.56828600  0.06828600  0.43171400  1
  As  As9  1  0.43171400  0.56828600  0.06828600  1
  As  As10  1  0.06828600  0.43171400  0.56828600  1
  As  As11  1  0.04408300  0.54408300  0.95591700  1
  As  As12  1  0.54408300  0.95591700  0.04408300  1
  As  As13  1  0.95665300  0.54334700  0.45665300  1
  As  As14  1  0.54334700  0.45665300  0.95665300  1
  As  As15  1  0.43269300  0.06730700  0.93269300  1
  Br  Br0  1  0.70686000  0.05561000  0.74146400  1
  Br  Br1  1  0.79314000  0.94439000  0.24146400  1
  Br  Br2  1  0.44439000  0.25853600  0.20686000  1
  Br  Br3  1  0.55561000  0.75853600  0.29314000  1
  Br  Br4  1  0.29710600  0.97365300  0.23245000  1
  Br  Br5  1  0.20686000  0.44439000  0.25853600  1
  Br  Br6  1  0.02634700  0.73245000  0.20289400  1
  Br  Br7  1  0.47365300  0.26755000  0.70289400  1
  Br  Br8  1  0.97365300  0.23245000  0.29710600  1
  Br  Br9  1  0.24146400  0.79314000  0.94439000  1
  Br  Br10  1  0.05561000  0.74146400  0.70686000  1
  Br  Br11  1  0.26755000  0.70289400  0.47365300  1
  Br  Br12  1  0.25853600  0.20686000  0.44439000  1
  Br  Br13  1  0.75853600  0.29314000  0.55561000  1
  Br  Br14  1  0.76755000  0.79710600  0.52634700  1
  Br  Br15  1  0.52634700  0.76755000  0.79710600  1
  Br  Br16  1  0.73245000  0.20289400  0.02634700  1
  Br  Br17  1  0.79710600  0.52634700  0.76755000  1
  Br  Br18  1  0.94439000  0.24146400  0.79314000  1
  Br  Br19  1  0.29314000  0.55561000  0.75853600  1
  Br  Br20  1  0.74146400  0.70686000  0.05561000  1
  Br  Br21  1  0.23245000  0.29710600  0.97365300  1
  Br  Br22  1  0.20289400  0.02634700  0.73245000  1
  Br  Br23  1  0.70289400  0.47365300  0.26755000  1
loop_
_geom_bond_atom_site_label_1
_geom_bond_atom_site_label_2
_geom_bond_distance
_geom_bond_site_symmetry_2
As0 As6 2.459320 1_465
As0 Hg13 2.601825 1_555
As0 Hg5 2.601825 1_555
As0 Hg23 2.601825 1_555
As1 As7 2.464685 1_666
As1 Hg18 2.605833 1_555
As1 Hg22 2.605833 1_555
As1 Hg10 2.605833 1_555
As2 As4 2.459320 1_555
As2 Hg0 2.601825 1_555
As2 Hg16 2.601825 1_555
As2 Hg7 2.601825 1_555
As3 As8 2.464685 1_565
As3 Hg0 2.602674 1_555
As3 Hg17 2.602674 1_565
As3 Hg23 2.602674 1_555
As4 Hg2 2.605169 1_555
As4 Hg9 2.605169 1_555
As4 Hg12 2.605169 1_555
As5 Hg3 2.601823 1_555
As5 Hg20 2.601824 1_555
As5 Hg19 2.601838 1_555
As6 Hg8 2.605169 1_555
As6 Hg18 2.605169 1_545
As6 Hg4 2.605169 1_655
As7 Hg1 2.602674 1_554
As7 Hg19 2.602674 1_455
As7 Hg13 2.602674 1_545
As8 Hg15 2.605833 1_555
As8 Hg9 2.605833 1_555
As8 Hg8 2.605833 1_555
As9 Hg2 2.605833 1_555
As9 Hg14 2.605833 1_555
As9 Hg11 2.605833 1_555
As10 As13 2.464685 1_455
As10 Hg4 2.605833 1_555
As10 Hg12 2.605833 1_555
As10 Hg6 2.605833 1_555
As11 As5 2.459313 1_456
As11 Hg6 2.605169 1_555
As11 Hg22 2.605169 1_455
As11 Hg14 2.605169 1_556
As12 As15 2.459320 1_564
As12 Hg10 2.605169 1_554
As12 Hg11 2.605169 1_555
As12 Hg15 2.605169 1_565
As13 Hg16 2.602674 1_555
As13 Hg5 2.602674 1_655
As13 Hg3 2.602674 1_555
As14 As9 2.464685 1_556
As14 Hg7 2.602674 1_555
As14 Hg20 2.602674 1_556
As14 Hg21 2.602674 1_555
As15 Hg1 2.601825 1_555
As15 Hg21 2.601825 1_555
As15 Hg17 2.601825 1_555
Br0 Sn0 2.817185 1_555
Br0 Hg17 3.143417 1_555
Br1 Sn2 2.817185 1_555
Br1 Hg13 3.143417 1_655
Br2 Sn3 2.817185 1_555
Br2 Hg21 3.143417 1_554
Br3 Sn2 2.817185 1_555
Br3 Hg0 3.143417 1_555
Br4 Hg15 2.978967 1_565
Br4 Hg23 3.080450 1_555
Br5 Sn3 2.817185 1_555
Br5 Hg3 3.143417 1_455
Br6 Hg22 2.978967 1_454
Br6 Hg13 3.080450 1_555
Br7 Hg9 2.978967 1_555
Br7 Hg17 3.080450 1_555
Br8 Hg4 2.978967 1_655
Br8 Hg3 3.080450 1_555
Br9 Sn1 2.817185 1_555
Br9 Hg1 3.143417 1_565
Br10 Sn1 2.817185 1_555
Br10 Hg5 3.143417 1_555
Br11 Hg12 2.978967 1_555
Br11 Hg5 3.080450 1_555
Br12 Sn3 2.817185 1_555
Br12 Hg23 3.143417 1_545
Br13 Sn0 2.817185 1_555
Br13 Hg16 3.143417 1_555
Br14 Hg8 2.978967 1_565
Br14 Hg0 3.080450 1_555
Br15 Hg11 2.978967 1_556
Br15 Hg7 3.080450 1_555
Br16 Hg10 2.978967 1_544
Br16 Hg19 3.080450 1_555
Br17 Hg6 2.978967 1_655
Br17 Hg16 3.080450 1_555
Br18 Sn0 2.817185 1_555
Br18 Hg19 3.143417 1_556
Br19 Sn1 2.817185 1_555
Br19 Hg7 3.143417 1_555
Br20 Sn2 2.817185 1_555
Br20 Hg20 3.143417 1_555
Br21 Hg14 2.978967 1_556
Br21 Hg21 3.080450 1_555
Br22 Hg18 2.978967 1_445
Br22 Hg1 3.080450 1_555
Br23 Hg2 2.978967 1_555
Br23 Hg20 3.080450 1_555
