# generated using pymatgen
data_TiCoSb
_symmetry_space_group_name_H-M   'P 1'
_cell_length_a   4.14130832
_cell_length_b   4.14130857
_cell_length_c   4.14130887
_cell_angle_alpha   60.00000564
_cell_angle_beta   60.00000365
_cell_angle_gamma   60.00000442
_symmetry_Int_Tables_number   1
_chemical_formula_structural   TiCoSb
_chemical_formula_sum   'Ti1 Co1 Sb1'
_cell_volume   50.22244190
_cell_formula_units_Z   1
loop_
 _symmetry_equiv_pos_site_id
 _symmetry_equiv_pos_as_xyz
  1  'x, y, z'
loop_
 _atom_site_type_symbol
 _atom_site_label
 _atom_site_symmetry_multiplicity
 _atom_site_fract_x
 _atom_site_fract_y
 _atom_site_fract_z
 _atom_site_occupancy
  Ti  Ti0  1  -0.00000000  0.00000000  -0.00000000  1
  Co  Co0  1  0.25000000  0.25000000  0.25000000  1
  Sb  Sb0  1  0.50000000  0.50000000  0.50000000  1
loop_
_geom_bond_atom_site_label_1
_geom_bond_atom_site_label_2
_geom_bond_distance
_geom_bond_site_symmetry_2
Co0 Sb0 2.536023 1_555
Co0 Ti0 2.536023 1_555
Co0 Ti0 2.536023 1_655
Co0 Sb0 2.536023 1_455
Co0 Ti0 2.536023 1_565
Co0 Sb0 2.536023 1_545
Co0 Sb0 2.536024 1_554
Co0 Ti0 2.536024 1_556
Sb0 Ti0 2.928347 1_556
Sb0 Ti0 2.928347 1_665
Sb0 Ti0 2.928348 1_655
Sb0 Ti0 2.928348 1_566
Sb0 Ti0 2.928348 1_565
Sb0 Ti0 2.928348 1_656
