# generated using pymatgen
data_Na4Ge2Te5
_symmetry_space_group_name_H-M   'P 1'
_cell_length_a   13.08538500
_cell_length_b   14.31725200
_cell_length_c   15.25556178
_cell_angle_alpha   87.25381760
_cell_angle_beta   90.00000000
_cell_angle_gamma   90.00000000
_symmetry_Int_Tables_number   1
_chemical_formula_structural   Na4Ge2Te5
_chemical_formula_sum   'Na32 Ge16 Te40'
_cell_volume   2854.79771458
_cell_formula_units_Z   8
loop_
 _symmetry_equiv_pos_site_id
 _symmetry_equiv_pos_as_xyz
  1  'x, y, z'
loop_
 _atom_site_type_symbol
 _atom_site_label
 _atom_site_symmetry_multiplicity
 _atom_site_fract_x
 _atom_site_fract_y
 _atom_site_fract_z
 _atom_site_occupancy
  Na  Na0  1  0.62073600  0.90490300  0.44858000  1
  Na  Na1  1  0.13460200  0.42266100  0.92717600  1
  Na  Na2  1  0.15677400  0.01124700  0.76872900  1
  Na  Na3  1  0.64331500  0.71554900  0.84662800  1
  Na  Na4  1  0.63403900  0.38028800  0.96262300  1
  Na  Na5  1  0.59032100  0.50869000  0.22770300  1
  Na  Na6  1  0.85668500  0.71554900  0.34662800  1
  Na  Na7  1  0.36539800  0.42266100  0.42717600  1
  Na  Na8  1  0.62091900  0.09771200  0.06036500  1
  Na  Na9  1  0.09257600  0.79757000  0.14065800  1
  Na  Na10  1  0.35668500  0.28445100  0.15337200  1
  Na  Na11  1  0.13403900  0.61971200  0.53737700  1
  Na  Na12  1  0.59257600  0.20243000  0.35934200  1
  Na  Na13  1  0.34322600  0.01124700  0.26872900  1
  Na  Na14  1  0.86596100  0.38028800  0.46262300  1
  Na  Na15  1  0.37926400  0.09509700  0.55142000  1
  Na  Na16  1  0.90742400  0.20243000  0.85934200  1
  Na  Na17  1  0.63460200  0.57733900  0.57282400  1
  Na  Na18  1  0.14331500  0.28445100  0.65337200  1
  Na  Na19  1  0.40742400  0.79757000  0.64065800  1
  Na  Na20  1  0.84322600  0.98875300  0.23127100  1
  Na  Na21  1  0.12073600  0.09509700  0.05142000  1
  Na  Na22  1  0.65677400  0.98875300  0.73127100  1
  Na  Na23  1  0.90967900  0.50869000  0.72770300  1
  Na  Na24  1  0.37908100  0.90228800  0.93963500  1
  Na  Na25  1  0.87926400  0.90490300  0.94858000  1
  Na  Na26  1  0.09032100  0.49131000  0.27229700  1
  Na  Na27  1  0.87908100  0.09771200  0.56036500  1
  Na  Na28  1  0.40967900  0.49131000  0.77229700  1
  Na  Na29  1  0.86539800  0.57733900  0.07282400  1
  Na  Na30  1  0.12091900  0.90228800  0.43963500  1
  Na  Na31  1  0.36596100  0.61971200  0.03737700  1
  Ge  Ge0  1  0.30316500  0.67930600  0.28564900  1
  Ge  Ge1  1  0.66345400  0.77922000  0.08174200  1
  Ge  Ge2  1  0.83654600  0.77922000  0.58174200  1
  Ge  Ge3  1  0.59050100  0.28007500  0.58604800  1
  Ge  Ge4  1  0.55798300  0.82596700  0.20961300  1
  Ge  Ge5  1  0.44201700  0.17403300  0.79038700  1
  Ge  Ge6  1  0.05798300  0.17403300  0.29038700  1
  Ge  Ge7  1  0.69683500  0.32069400  0.71435100  1
  Ge  Ge8  1  0.80316500  0.32069400  0.21435100  1
  Ge  Ge9  1  0.16345400  0.22078000  0.41825800  1
  Ge  Ge10  1  0.40949900  0.71992500  0.41395200  1
  Ge  Ge11  1  0.90949900  0.28007500  0.08604800  1
  Ge  Ge12  1  0.94201700  0.82596700  0.70961300  1
  Ge  Ge13  1  0.09050100  0.71992500  0.91395200  1
  Ge  Ge14  1  0.19683500  0.67930600  0.78564900  1
  Ge  Ge15  1  0.33654600  0.22078000  0.91825800  1
  Te  Te0  1  0.65188500  0.78738100  0.64551200  1
  Te  Te1  1  0.40426000  0.00403100  0.75082700  1
  Te  Te2  1  0.09571700  0.29761800  0.15748100  1
  Te  Te3  1  0.12966800  0.09722300  0.54495600  1
  Te  Te4  1  0.11596200  0.38732900  0.46494800  1
  Te  Te5  1  0.61596200  0.61267100  0.03505200  1
  Te  Te6  1  0.66112500  0.48636000  0.76694200  1
  Te  Te7  1  0.36110400  0.81112200  0.16384300  1
  Te  Te8  1  0.11538200  0.70560000  0.33362000  1
  Te  Te9  1  0.90428300  0.70238200  0.84251900  1
  Te  Te10  1  0.86110400  0.18887800  0.33615700  1
  Te  Te11  1  0.59574000  0.99596900  0.24917300  1
  Te  Te12  1  0.09574000  0.00403100  0.25082700  1
  Te  Te13  1  0.33887500  0.51364000  0.23305800  1
  Te  Te14  1  0.61976000  0.39700100  0.45511500  1
  Te  Te15  1  0.13889600  0.81112200  0.66384300  1
  Te  Te16  1  0.34811500  0.21261900  0.35448800  1
  Te  Te17  1  0.90426000  0.99596900  0.74917300  1
  Te  Te18  1  0.11976000  0.60299900  0.04488500  1
  Te  Te19  1  0.38024000  0.60299900  0.54488500  1
  Te  Te20  1  0.63889600  0.18887800  0.83615700  1
  Te  Te21  1  0.83887500  0.48636000  0.26694200  1
  Te  Te22  1  0.88403800  0.61267100  0.53505200  1
  Te  Te23  1  0.88461800  0.29440000  0.66638000  1
  Te  Te24  1  0.16112500  0.51364000  0.73305800  1
  Te  Te25  1  0.84811500  0.78738100  0.14551200  1
  Te  Te26  1  0.62966800  0.90277700  0.95504400  1
  Te  Te27  1  0.38461800  0.70560000  0.83362000  1
  Te  Te28  1  0.37055400  0.89036400  0.45293300  1
  Te  Te29  1  0.87033200  0.90277700  0.45504400  1
  Te  Te30  1  0.62944600  0.10963600  0.54706700  1
  Te  Te31  1  0.12944600  0.89036400  0.95293300  1
  Te  Te32  1  0.15188500  0.21261900  0.85448800  1
  Te  Te33  1  0.88024000  0.39700100  0.95511500  1
  Te  Te34  1  0.61538200  0.29440000  0.16638000  1
  Te  Te35  1  0.38403800  0.38732900  0.96494800  1
  Te  Te36  1  0.87055400  0.10963600  0.04706700  1
  Te  Te37  1  0.40428300  0.29761800  0.65748100  1
  Te  Te38  1  0.59571700  0.70238200  0.34251900  1
  Te  Te39  1  0.37033200  0.09722300  0.04495600  1
loop_
_geom_bond_atom_site_label_1
_geom_bond_atom_site_label_2
_geom_bond_distance
_geom_bond_site_symmetry_2
Na0 Te29 3.267646 1_555
Na0 Te11 3.268183 1_555
Na0 Te28 3.280809 1_555
Na0 Te30 3.359233 1_565
Na0 Te0 3.396871 1_555
Na0 Te38 3.403246 1_555
Na1 Te24 3.196448 1_555
Na1 Te18 3.220720 1_556
Na1 Te32 3.262474 1_555
Na1 Te35 3.348653 1_555
Na1 Te33 3.373432 1_455
Na2 Te32 3.223262 1_555
Na2 Te31 3.248702 1_545
Na2 Te1 3.252002 1_555
Na2 Te17 3.325827 1_445
Na2 Te15 3.356181 1_545
Na2 Te3 3.590581 1_555
Na3 Te5 3.186652 1_556
Na3 Te0 3.190825 1_555
Na3 Te26 3.221464 1_555
Na3 Te27 3.394351 1_555
Na3 Te9 3.420806 1_555
Na3 Te6 3.561133 1_555
Na4 Te33 3.232133 1_555
Na4 Te35 3.273157 1_555
Na4 Te34 3.296629 1_556
Na4 Te6 3.302891 1_555
Na4 Te20 3.426815 1_555
Na4 Te5 3.563513 1_556
Na5 Te5 3.247665 1_555
Na5 Te34 3.266597 1_555
Na5 Te13 3.292129 1_555
Na5 Te21 3.319710 1_555
Na5 Te38 3.350935 1_555
Na6 Te22 3.186652 1_555
Na6 Te25 3.190825 1_555
Na6 Te29 3.221464 1_555
Na6 Te8 3.394351 1_655
Na6 Te38 3.420806 1_555
Na6 Te21 3.561133 1_555
Na7 Te13 3.196448 1_555
Na7 Te19 3.220720 1_555
Na7 Te16 3.262474 1_555
Na7 Te4 3.348653 1_555
Na7 Te14 3.373432 1_555
Na8 Te11 3.181975 1_545
Na8 Te36 3.276807 1_555
Na8 Te39 3.287474 1_555
Na8 Te26 3.288419 1_544
Na8 Te34 3.314728 1_555
Na8 Te20 3.609774 1_554
Na9 Te31 3.136061 1_554
Na9 Te8 3.180740 1_555
Na9 Te25 3.202885 1_455
Na9 Te18 3.226689 1_555
Na9 Te12 3.469892 1_565
Na9 Te7 3.537805 1_555
Na10 Te35 3.186652 1_554
Na10 Te16 3.190825 1_555
Na10 Te39 3.221464 1_555
Na10 Te34 3.394351 1_555
Na10 Te2 3.420806 1_555
Na10 Te13 3.561133 1_555
Na11 Te19 3.232133 1_555
Na11 Te22 3.273157 1_455
Na11 Te8 3.296629 1_555
Na11 Te24 3.302891 1_555
Na11 Te15 3.426815 1_555
Na11 Te4 3.563513 1_555
Na12 Te30 3.136061 1_555
Na12 Te34 3.180740 1_555
Na12 Te16 3.202885 1_555
Na12 Te14 3.226689 1_555
Na12 Te11 3.469892 1_545
Na12 Te10 3.537805 1_555
Na13 Te16 3.223262 1_555
Na13 Te28 3.248702 1_545
Na13 Te12 3.252002 1_555
Na13 Te11 3.325827 1_545
Na13 Te7 3.356181 1_545
Na13 Te39 3.590581 1_555
Na14 Te14 3.232133 1_555
Na14 Te4 3.273157 1_655
Na14 Te23 3.296629 1_555
Na14 Te21 3.302891 1_555
Na14 Te10 3.426815 1_555
Na14 Te22 3.563513 1_555
Na15 Te3 3.267646 1_555
Na15 Te1 3.268183 1_555
Na15 Te30 3.280809 1_555
Na15 Te28 3.359233 1_545
Na15 Te16 3.396871 1_555
Na15 Te37 3.403246 1_555
Na16 Te36 3.136061 1_556
Na16 Te23 3.180740 1_555
Na16 Te32 3.202885 1_655
Na16 Te33 3.226689 1_555
Na16 Te17 3.469892 1_545
Na16 Te20 3.537805 1_555
Na17 Te6 3.196448 1_555
Na17 Te14 3.220720 1_555
Na17 Te0 3.262474 1_555
Na17 Te22 3.348653 1_555
Na17 Te19 3.373432 1_555
Na18 Te4 3.186652 1_555
Na18 Te32 3.190825 1_555
Na18 Te3 3.221464 1_555
Na18 Te23 3.394351 1_455
Na18 Te37 3.420806 1_555
Na18 Te24 3.561133 1_555
Na19 Te28 3.136061 1_555
Na19 Te27 3.180740 1_555
Na19 Te0 3.202885 1_555
Na19 Te19 3.226689 1_555
Na19 Te1 3.469892 1_565
Na19 Te15 3.537805 1_555
Na20 Te25 3.223262 1_555
Na20 Te36 3.248702 1_565
Na20 Te11 3.252002 1_555
Na20 Te12 3.325827 1_665
Na20 Te10 3.356181 1_565
Na20 Te29 3.590581 1_555
Na21 Te39 3.267646 1_555
Na21 Te12 3.268183 1_555
Na21 Te36 3.280809 1_455
Na21 Te31 3.359233 1_544
Na21 Te32 3.396871 1_554
Na21 Te2 3.403246 1_555
Na22 Te0 3.223262 1_555
Na22 Te30 3.248702 1_565
Na22 Te17 3.252002 1_555
Na22 Te1 3.325827 1_565
Na22 Te20 3.356181 1_565
Na22 Te26 3.590581 1_555
Na23 Te22 3.247665 1_555
Na23 Te23 3.266597 1_555
Na23 Te24 3.292129 1_655
Na23 Te6 3.319710 1_555
Na23 Te9 3.350935 1_555
Na24 Te1 3.181975 1_565
Na24 Te31 3.276807 1_555
Na24 Te26 3.287474 1_555
Na24 Te39 3.288419 1_566
Na24 Te27 3.314728 1_555
Na24 Te7 3.609774 1_556
Na25 Te26 3.267646 1_555
Na25 Te17 3.268183 1_555
Na25 Te31 3.280809 1_655
Na25 Te36 3.359233 1_566
Na25 Te25 3.396871 1_556
Na25 Te9 3.403246 1_555
Na26 Te4 3.247665 1_555
Na26 Te8 3.266597 1_555
Na26 Te21 3.292129 1_455
Na26 Te13 3.319710 1_555
Na26 Te2 3.350935 1_555
Na27 Te17 3.181975 1_545
Na27 Te30 3.276807 1_555
Na27 Te3 3.287474 1_655
Na27 Te29 3.288419 1_545
Na27 Te23 3.314728 1_555
Na27 Te10 3.609774 1_555
Na28 Te35 3.247665 1_555
Na28 Te27 3.266597 1_555
Na28 Te6 3.292129 1_555
Na28 Te24 3.319710 1_555
Na28 Te37 3.350935 1_555
Na29 Te21 3.196448 1_555
Na29 Te33 3.220720 1_554
Na29 Te25 3.262474 1_555
Na29 Te5 3.348653 1_555
Na29 Te18 3.373432 1_655
Na30 Te12 3.181975 1_565
Na30 Te28 3.276807 1_555
Na30 Te29 3.287474 1_455
Na30 Te3 3.288419 1_565
Na30 Te8 3.314728 1_555
Na30 Te15 3.609774 1_555
Na31 Te18 3.232133 1_555
Na31 Te5 3.273157 1_555
Na31 Te27 3.296629 1_554
Na31 Te13 3.302891 1_555
Na31 Te7 3.426815 1_555
Na31 Te35 3.563513 1_554
Ge0 Ge10 2.492888 1_555
Ge0 Te13 2.582676 1_555
Ge0 Te8 2.596456 1_555
Ge0 Te7 2.693217 1_555
Ge1 Ge4 2.506634 1_555
Ge1 Te26 2.594816 1_554
Ge1 Te5 2.596585 1_555
Ge1 Te25 2.609554 1_555
Ge2 Te29 2.594816 1_555
Ge2 Te22 2.596585 1_555
Ge2 Te0 2.609554 1_555
Ge3 Ge7 2.492888 1_555
Ge3 Te14 2.572639 1_555
Ge3 Te30 2.589799 1_555
Ge3 Te37 2.685990 1_555
Ge4 Te11 2.583263 1_555
Ge4 Te38 2.672411 1_555
Ge4 Te7 2.680288 1_555
Ge5 Te1 2.583263 1_555
Ge5 Te37 2.672411 1_555
Ge5 Te20 2.680288 1_555
Ge6 Ge9 2.506634 1_555
Ge6 Te12 2.583263 1_555
Ge6 Te2 2.672411 1_555
Ge6 Te10 2.680288 1_455
Ge7 Te6 2.582676 1_555
Ge7 Te23 2.596456 1_555
Ge7 Te20 2.693217 1_555
Ge8 Te21 2.582676 1_555
Ge8 Te34 2.596456 1_555
Ge8 Te10 2.693217 1_555
Ge9 Te3 2.594816 1_555
Ge9 Te4 2.596585 1_555
Ge9 Te16 2.609554 1_555
Ge10 Te19 2.572639 1_555
Ge10 Te28 2.589799 1_555
Ge10 Te38 2.685990 1_555
Ge11 Ge8 2.492888 1_555
Ge11 Te33 2.572639 1_554
Ge11 Te36 2.589799 1_555
Ge11 Te2 2.685990 1_655
Ge12 Ge2 2.506634 1_555
Ge12 Te17 2.583263 1_555
Ge12 Te9 2.672411 1_555
Ge12 Te15 2.680288 1_655
Ge13 Ge14 2.492888 1_555
Ge13 Te18 2.572639 1_556
Ge13 Te31 2.589799 1_555
Ge13 Te9 2.685990 1_455
Ge14 Te24 2.582676 1_555
Ge14 Te27 2.596456 1_555
Ge14 Te15 2.693217 1_555
Ge15 Ge5 2.506634 1_555
Ge15 Te39 2.594816 1_556
Ge15 Te35 2.596585 1_555
Ge15 Te32 2.609554 1_555
