# generated using pymatgen
data_Nd2Fe14C
_symmetry_space_group_name_H-M   'P 1'
_cell_length_a   8.73823300
_cell_length_b   8.73823300
_cell_length_c   12.44494400
_cell_angle_alpha   90.00000000
_cell_angle_beta   90.00000000
_cell_angle_gamma   90.00000000
_symmetry_Int_Tables_number   1
_chemical_formula_structural   Nd2Fe14C
_chemical_formula_sum   'Nd8 Fe56 C4'
_cell_volume   950.25505417
_cell_formula_units_Z   4
loop_
 _symmetry_equiv_pos_site_id
 _symmetry_equiv_pos_as_xyz
  1  'x, y, z'
loop_
 _atom_site_type_symbol
 _atom_site_label
 _atom_site_symmetry_multiplicity
 _atom_site_fract_x
 _atom_site_fract_y
 _atom_site_fract_z
 _atom_site_occupancy
  Nd  Nd0  1  0.17590700  0.82409300  0.00000000  1
  Nd  Nd1  1  0.26275000  0.73725000  0.50000000  1
  Nd  Nd2  1  0.23725000  0.23725000  0.00000000  1
  Nd  Nd3  1  0.32409300  0.32409300  0.50000000  1
  Nd  Nd4  1  0.82409300  0.17590700  0.00000000  1
  Nd  Nd5  1  0.73725000  0.26275000  0.50000000  1
  Nd  Nd6  1  0.76275000  0.76275000  0.00000000  1
  Nd  Nd7  1  0.67590700  0.67590700  0.50000000  1
  Fe  Fe0  1  0.35852800  0.02797500  0.17885700  1
  Fe  Fe1  1  0.95693900  0.73864800  0.39019800  1
  Fe  Fe2  1  0.39423100  0.60576900  0.25718400  1
  Fe  Fe3  1  0.64147200  0.97202500  0.17885700  1
  Fe  Fe4  1  0.76135200  0.45693900  0.10980200  1
  Fe  Fe5  1  0.04306100  0.26135200  0.60980200  1
  Fe  Fe6  1  0.19070200  0.80929800  0.25218500  1
  Fe  Fe7  1  0.69070200  0.69070200  0.75218500  1
  Fe  Fe8  1  0.97202500  0.64147200  0.82114300  1
  Fe  Fe9  1  0.73864800  0.95693900  0.39019800  1
  Fe  Fe10  1  0.04306100  0.26135200  0.39019800  1
  Fe  Fe11  1  0.14147200  0.52797500  0.32114300  1
  Fe  Fe12  1  0.00000000  0.00000000  0.89683700  1
  Fe  Fe13  1  0.52797500  0.14147200  0.67885700  1
  Fe  Fe14  1  0.64147200  0.97202500  0.82114300  1
  Fe  Fe15  1  0.76135200  0.45693900  0.89019800  1
  Fe  Fe16  1  0.30929800  0.30929800  0.24781500  1
  Fe  Fe17  1  0.26135200  0.04306100  0.60980200  1
  Fe  Fe18  1  0.85852800  0.47202500  0.67885700  1
  Fe  Fe19  1  0.19070200  0.80929800  0.74781500  1
  Fe  Fe20  1  0.89423100  0.89423100  0.24281600  1
  Fe  Fe21  1  0.35852800  0.02797500  0.82114300  1
  Fe  Fe22  1  0.80929800  0.19070200  0.25218500  1
  Fe  Fe23  1  0.00000000  0.00000000  0.10316300  1
  Fe  Fe24  1  0.10576900  0.10576900  0.24281600  1
  Fe  Fe25  1  0.50000000  0.50000000  0.39683700  1
  Fe  Fe26  1  0.89423100  0.89423100  0.75718400  1
  Fe  Fe27  1  0.10576900  0.10576900  0.75718400  1
  Fe  Fe28  1  0.60576900  0.39423100  0.25718400  1
  Fe  Fe29  1  0.54306100  0.23864800  0.10980200  1
  Fe  Fe30  1  0.14147200  0.52797500  0.67885700  1
  Fe  Fe31  1  0.50000000  0.00000000  0.00000000  1
  Fe  Fe32  1  0.54306100  0.23864800  0.89019800  1
  Fe  Fe33  1  0.85852800  0.47202500  0.32114300  1
  Fe  Fe34  1  0.52797500  0.14147200  0.32114300  1
  Fe  Fe35  1  0.45693900  0.76135200  0.89019800  1
  Fe  Fe36  1  0.26135200  0.04306100  0.39019800  1
  Fe  Fe37  1  0.69070200  0.69070200  0.24781500  1
  Fe  Fe38  1  0.23864800  0.54306100  0.10980200  1
  Fe  Fe39  1  0.95693900  0.73864800  0.60980200  1
  Fe  Fe40  1  0.02797500  0.35852800  0.82114300  1
  Fe  Fe41  1  0.47202500  0.85852800  0.67885700  1
  Fe  Fe42  1  0.30929800  0.30929800  0.75218500  1
  Fe  Fe43  1  0.50000000  0.50000000  0.60316300  1
  Fe  Fe44  1  0.23864800  0.54306100  0.89019800  1
  Fe  Fe45  1  0.39423100  0.60576900  0.74281600  1
  Fe  Fe46  1  0.02797500  0.35852800  0.17885700  1
  Fe  Fe47  1  0.45693900  0.76135200  0.10980200  1
  Fe  Fe48  1  0.97202500  0.64147200  0.17885700  1
  Fe  Fe49  1  0.73864800  0.95693900  0.60980200  1
  Fe  Fe50  1  0.00000000  0.50000000  0.00000000  1
  Fe  Fe51  1  0.60576900  0.39423100  0.74281600  1
  Fe  Fe52  1  0.80929800  0.19070200  0.74781500  1
  Fe  Fe53  1  0.50000000  0.00000000  0.50000000  1
  Fe  Fe54  1  0.47202500  0.85852800  0.32114300  1
  Fe  Fe55  1  0.00000000  0.50000000  0.50000000  1
  C  C0  1  0.62441600  0.37558400  0.00000000  1
  C  C1  1  0.37558400  0.62441600  0.00000000  1
  C  C2  1  0.12441600  0.12441600  0.50000000  1
  C  C3  1  0.87558400  0.87558400  0.50000000  1
loop_
_geom_bond_atom_site_label_1
_geom_bond_atom_site_label_2
_geom_bond_distance
_geom_bond_site_symmetry_2
Fe0 Fe24 2.444151 1_555
Fe0 Fe34 2.512269 1_555
Fe0 Fe54 2.512269 1_545
Fe0 Fe3 2.520306 1_545
Fe0 Fe31 2.557824 1_555
Fe0 Fe6 2.575801 1_545
Fe0 Fe29 2.593766 1_555
Fe0 Fe47 2.627940 1_545
Fe0 Fe16 2.639053 1_555
Fe0 Fe36 2.766947 1_555
Fe0 Nd2 3.069475 1_555
Fe0 Nd0 3.267261 1_545
Fe1 Fe20 2.347914 1_555
Fe1 Fe55 2.521425 1_655
Fe1 Fe11 2.593766 1_655
Fe1 Fe33 2.627940 1_555
Fe1 Fe6 2.739284 1_655
Fe1 Fe48 2.766947 1_555
Fe1 Fe37 2.954261 1_555
Fe1 Nd1 3.001387 1_655
Fe2 Fe25 2.174620 1_555
Fe2 Fe47 2.347914 1_555
Fe2 Fe38 2.347914 1_555
Fe2 Fe54 2.444151 1_555
Fe2 Fe6 2.515925 1_555
Fe2 Fe28 2.614129 1_555
Fe2 Fe37 2.697365 1_555
Fe2 Nd1 3.430956 1_555
Fe3 Fe34 2.512269 1_565
Fe3 Fe54 2.512269 1_555
Fe3 Fe31 2.557824 1_565
Fe3 Fe47 2.593766 1_555
Fe3 Fe37 2.639053 1_555
Fe3 Fe9 2.766947 1_555
Fe3 Nd6 3.069475 1_555
Fe3 Nd4 3.267261 1_565
Fe4 Fe50 2.521425 1_655
Fe4 Fe48 2.593766 1_555
Fe4 Fe46 2.627940 1_655
Fe4 Nd6 3.001387 1_555
Fe5 Fe55 2.521425 1_555
Fe5 Fe52 2.739284 1_455
Fe5 Nd5 3.001387 1_455
Fe6 Nd0 3.143749 1_555
Fe6 Nd1 3.209992 1_555
Fe7 Fe8 2.639053 1_555
Fe7 Nd7 3.143749 1_555
Fe7 Nd6 3.209992 1_556
Fe8 Nd6 3.069475 1_556
Fe8 Nd0 3.267261 1_656
Fe9 Nd5 3.001387 1_565
Fe10 Fe24 2.347914 1_555
Fe10 Fe55 2.521425 1_555
Fe10 Fe33 2.593766 1_455
Fe10 Fe11 2.627940 1_555
Fe10 Fe22 2.739284 1_455
Fe10 Fe46 2.766947 1_555
Fe10 Fe16 2.954261 1_555
Fe10 Nd5 3.001387 1_455
Fe11 Fe2 2.444151 1_555
Fe11 Fe46 2.512269 1_555
Fe11 Fe48 2.512269 1_455
Fe11 Fe33 2.520306 1_455
Fe11 Fe55 2.557824 1_555
Fe11 Fe16 2.575801 1_555
Fe11 Fe6 2.639053 1_555
Fe11 Fe38 2.766947 1_555
Fe11 Nd1 3.069475 1_555
Fe11 Nd3 3.267261 1_555
Fe12 Fe26 2.174620 1_445
Fe12 Fe27 2.174620 1_555
Fe12 Nd0 2.524628 1_546
Fe12 Nd4 2.524628 1_456
Fe12 Fe52 2.998866 1_455
Fe12 Fe19 2.998866 1_545
Fe12 Nd6 3.200650 1_446
Fe12 Nd2 3.200650 1_556
Fe13 Fe51 2.444151 1_555
Fe13 Fe21 2.512269 1_555
Fe13 Fe14 2.512269 1_545
Fe13 Fe41 2.520306 1_545
Fe13 Fe53 2.557824 1_555
Fe13 Fe42 2.575801 1_555
Fe13 Fe49 2.593766 1_545
Fe13 Fe17 2.627940 1_555
Fe13 Fe52 2.639053 1_555
Fe13 Fe32 2.766947 1_555
Fe13 Nd5 3.069475 1_555
Fe13 Nd3 3.267261 1_555
Fe14 Fe26 2.444151 1_555
Fe14 Fe41 2.512269 1_555
Fe14 Fe21 2.520306 1_565
Fe14 Fe31 2.557824 1_566
Fe14 Fe52 2.575801 1_565
Fe14 Fe35 2.593766 1_555
Fe14 Fe32 2.627940 1_565
Fe14 Fe7 2.639053 1_555
Fe14 Fe49 2.766947 1_555
Fe14 Nd6 3.069475 1_556
Fe14 Nd4 3.267261 1_566
Fe15 Fe51 2.347914 1_555
Fe15 Fe50 2.521425 1_656
Fe15 Fe8 2.593766 1_555
Fe15 Fe40 2.627940 1_655
Fe15 Fe7 2.739284 1_555
Fe15 Fe18 2.766947 1_555
Fe15 Fe52 2.954261 1_555
Fe15 Nd6 3.001387 1_556
Fe16 Fe24 2.515925 1_555
Fe16 Fe34 2.575801 1_555
Fe16 Fe46 2.639053 1_555
Fe16 Fe2 2.697365 1_555
Fe16 Fe28 2.697365 1_555
Fe16 Fe29 2.739284 1_555
Fe16 Fe38 2.739284 1_555
Fe16 Fe36 2.954261 1_555
Fe16 Fe25 2.998866 1_555
Fe16 Nd3 3.143749 1_555
Fe16 Nd2 3.209992 1_555
Fe17 Fe27 2.347914 1_555
Fe17 Fe53 2.521425 1_555
Fe17 Fe41 2.593766 1_545
Fe17 Fe19 2.739284 1_545
Fe17 Fe21 2.766947 1_555
Fe17 Fe42 2.954261 1_555
Fe17 Nd1 3.001387 1_545
Fe18 Fe51 2.444151 1_555
Fe18 Fe8 2.512269 1_555
Fe18 Fe40 2.512269 1_655
Fe18 Fe30 2.520306 1_655
Fe18 Fe55 2.557824 1_655
Fe18 Fe7 2.575801 1_555
Fe18 Fe5 2.593766 1_655
Fe18 Fe39 2.627940 1_555
Fe18 Fe52 2.639053 1_555
Fe18 Nd5 3.069475 1_555
Fe18 Nd7 3.267261 1_555
Fe19 Fe45 2.515925 1_555
Fe19 Fe8 2.575801 1_455
Fe19 Fe21 2.575801 1_565
Fe19 Fe41 2.639053 1_555
Fe19 Fe30 2.639053 1_555
Fe19 Fe26 2.697365 1_455
Fe19 Fe27 2.697365 1_565
Fe19 Fe39 2.739284 1_455
Fe19 Fe44 2.954261 1_555
Fe19 Fe35 2.954261 1_555
Fe19 Nd0 3.143749 1_556
Fe19 Nd1 3.209992 1_555
Fe20 Fe23 2.174620 1_665
Fe20 Fe9 2.347914 1_555
Fe20 Fe3 2.444151 1_555
Fe20 Fe48 2.444151 1_555
Fe20 Fe37 2.515925 1_555
Fe20 Fe24 2.614129 1_665
Fe20 Fe22 2.697365 1_565
Fe20 Fe6 2.697365 1_655
Fe20 Nd6 3.430956 1_555
Fe21 Fe27 2.444151 1_555
Fe21 Fe41 2.512269 1_545
Fe21 Fe31 2.557824 1_556
Fe21 Fe32 2.593766 1_555
Fe21 Fe35 2.627940 1_545
Fe21 Fe42 2.639053 1_555
Fe21 Nd2 3.069475 1_556
Fe21 Nd0 3.267261 1_546
Fe22 Fe28 2.515925 1_555
Fe22 Fe3 2.575801 1_545
Fe22 Fe46 2.575801 1_655
Fe22 Fe34 2.639053 1_555
Fe22 Fe33 2.639053 1_555
Fe22 Fe24 2.697365 1_655
Fe22 Fe9 2.739284 1_545
Fe22 Fe4 2.954261 1_555
Fe22 Fe29 2.954261 1_555
Fe22 Fe23 2.998866 1_655
Fe22 Nd4 3.143749 1_555
Fe22 Nd5 3.209992 1_555
Fe23 Fe24 2.174620 1_555
Fe23 Nd0 2.524628 1_545
Fe23 Nd4 2.524628 1_455
Fe23 Fe6 2.998866 1_545
Fe23 Nd6 3.200650 1_445
Fe23 Nd2 3.200650 1_555
Fe24 Fe36 2.347914 1_555
Fe24 Fe46 2.444151 1_555
Fe24 Fe6 2.697365 1_545
Fe24 Nd2 3.430956 1_555
Fe25 Fe28 2.174620 1_555
Fe25 Nd3 2.524628 1_555
Fe25 Nd7 2.524628 1_555
Fe25 Fe37 2.998866 1_555
Fe25 Nd1 3.200650 1_555
Fe25 Nd5 3.200650 1_555
Fe26 Fe39 2.347914 1_555
Fe26 Fe49 2.347914 1_555
Fe26 Fe8 2.444151 1_555
Fe26 Fe7 2.515925 1_555
Fe26 Fe27 2.614129 1_665
Fe26 Fe52 2.697365 1_565
Fe26 Nd6 3.430956 1_556
Fe27 Fe5 2.347914 1_555
Fe27 Fe40 2.444151 1_555
Fe27 Fe42 2.515925 1_555
Fe27 Fe52 2.697365 1_455
Fe27 Nd2 3.430956 1_556
Fe28 Fe4 2.347914 1_555
Fe28 Fe29 2.347914 1_555
Fe28 Fe33 2.444151 1_555
Fe28 Fe34 2.444151 1_555
Fe28 Fe37 2.697365 1_555
Fe28 Nd5 3.430956 1_555
Fe29 Fe31 2.521425 1_555
Fe29 Fe3 2.627940 1_545
Fe29 Fe34 2.766947 1_555
Fe29 Nd2 3.001387 1_555
Fe30 Fe45 2.444151 1_555
Fe30 Fe8 2.512269 1_455
Fe30 Fe40 2.512269 1_555
Fe30 Fe55 2.557824 1_555
Fe30 Fe42 2.575801 1_555
Fe30 Fe39 2.593766 1_455
Fe30 Fe5 2.627940 1_555
Fe30 Fe44 2.766947 1_555
Fe30 Nd1 3.069475 1_555
Fe30 Nd3 3.267261 1_555
Fe31 Fe32 2.521425 1_554
Fe31 Fe35 2.521425 1_544
Fe31 Fe47 2.521425 1_545
Fe31 Nd2 3.093447 1_555
Fe31 Nd6 3.093447 1_545
Fe31 Nd4 3.222259 1_555
Fe31 Nd0 3.222259 1_545
Fe32 Fe51 2.347914 1_555
Fe32 Fe42 2.739284 1_555
Fe32 Fe52 2.954261 1_555
Fe32 Nd2 3.001387 1_556
Fe33 Fe46 2.512269 1_655
Fe33 Fe48 2.512269 1_555
Fe33 Fe55 2.557824 1_655
Fe33 Fe37 2.575801 1_555
Fe33 Fe4 2.766947 1_555
Fe33 Nd5 3.069475 1_555
Fe33 Nd7 3.267261 1_555
Fe34 Fe54 2.520306 1_545
Fe34 Fe53 2.557824 1_555
Fe34 Fe9 2.593766 1_545
Fe34 Fe36 2.627940 1_555
Fe34 Nd5 3.069475 1_555
Fe34 Nd3 3.267261 1_555
Fe35 Fe45 2.347914 1_555
Fe35 Fe7 2.739284 1_555
Fe35 Fe41 2.766947 1_555
Fe35 Nd6 3.001387 1_556
Fe36 Fe53 2.521425 1_555
Fe36 Fe54 2.593766 1_545
Fe36 Fe6 2.739284 1_545
Fe36 Nd1 3.001387 1_545
Fe37 Fe54 2.575801 1_555
Fe37 Fe48 2.639053 1_555
Fe37 Fe47 2.739284 1_555
Fe37 Fe4 2.739284 1_555
Fe37 Fe9 2.954261 1_555
Fe37 Nd7 3.143749 1_555
Fe37 Nd6 3.209992 1_555
Fe38 Fe50 2.521425 1_555
Fe38 Fe46 2.593766 1_555
Fe38 Fe48 2.627940 1_455
Fe38 Fe6 2.954261 1_555
Fe38 Nd2 3.001387 1_555
Fe39 Fe55 2.521425 1_655
Fe39 Fe8 2.766947 1_555
Fe39 Fe7 2.954261 1_555
Fe39 Nd1 3.001387 1_655
Fe40 Fe8 2.520306 1_455
Fe40 Fe50 2.557824 1_556
Fe40 Fe52 2.575801 1_455
Fe40 Fe44 2.593766 1_555
Fe40 Fe42 2.639053 1_555
Fe40 Fe5 2.766947 1_555
Fe40 Nd2 3.069475 1_556
Fe40 Nd4 3.267261 1_456
Fe41 Fe45 2.444151 1_555
Fe41 Fe53 2.557824 1_565
Fe41 Fe7 2.575801 1_555
Fe41 Fe49 2.627940 1_555
Fe41 Nd1 3.069475 1_555
Fe41 Nd7 3.267261 1_555
Fe42 Fe45 2.697365 1_555
Fe42 Fe51 2.697365 1_555
Fe42 Fe44 2.739284 1_555
Fe42 Fe5 2.954261 1_555
Fe42 Fe43 2.998866 1_555
Fe42 Nd3 3.143749 1_555
Fe42 Nd2 3.209992 1_556
Fe43 Fe51 2.174620 1_555
Fe43 Fe45 2.174620 1_555
Fe43 Nd3 2.524628 1_555
Fe43 Nd7 2.524628 1_555
Fe43 Fe7 2.998866 1_555
Fe43 Nd1 3.200650 1_555
Fe43 Nd5 3.200650 1_555
Fe44 Fe45 2.347914 1_555
Fe44 Fe50 2.521425 1_556
Fe44 Fe8 2.627940 1_455
Fe44 Nd2 3.001387 1_556
Fe45 Fe51 2.614129 1_555
Fe45 Fe7 2.697365 1_555
Fe45 Nd1 3.430956 1_555
Fe46 Fe48 2.520306 1_455
Fe46 Fe50 2.557824 1_555
Fe46 Nd2 3.069475 1_555
Fe46 Nd4 3.267261 1_455
Fe47 Fe54 2.766947 1_555
Fe47 Fe6 2.954261 1_555
Fe47 Nd6 3.001387 1_555
Fe48 Fe50 2.557824 1_655
Fe48 Fe6 2.575801 1_655
Fe48 Nd6 3.069475 1_555
Fe48 Nd0 3.267261 1_655
Fe49 Fe53 2.521425 1_565
Fe49 Fe52 2.739284 1_565
Fe49 Fe7 2.954261 1_555
Fe49 Nd5 3.001387 1_565
Fe50 Fe8 2.557824 1_454
Fe50 Nd6 3.093447 1_455
Fe50 Nd2 3.093447 1_555
Fe50 Nd4 3.222259 1_455
Fe50 Nd0 3.222259 1_555
Fe51 Fe52 2.515925 1_555
Fe51 Fe7 2.697365 1_555
Fe51 Nd5 3.430956 1_555
Fe52 Nd4 3.143749 1_556
Fe52 Nd5 3.209992 1_555
Fe53 Fe9 2.521425 1_545
Fe53 Fe54 2.557824 1_545
Fe53 Nd5 3.093447 1_555
Fe53 Nd1 3.093447 1_545
Fe53 Nd3 3.222259 1_555
Fe53 Nd7 3.222259 1_545
Fe54 Fe9 2.627940 1_555
Fe54 Fe6 2.639053 1_555
Fe54 Nd1 3.069475 1_555
Fe54 Nd7 3.267261 1_555
Fe55 Nd1 3.093447 1_555
Fe55 Nd5 3.093447 1_455
Fe55 Nd7 3.222259 1_455
Fe55 Nd3 3.222259 1_555
C0 Fe32 1.950499 1_554
C0 Fe29 1.950499 1_555
C0 Fe15 1.950499 1_554
C0 Fe4 1.950499 1_555
C0 Nd4 2.467554 1_555
C1 Fe44 1.950499 1_554
C1 Fe38 1.950499 1_555
C1 Fe35 1.950499 1_554
C1 Fe47 1.950499 1_555
C1 Nd0 2.467554 1_555
C2 Fe17 1.950499 1_555
C2 Fe5 1.950499 1_555
C2 Fe10 1.950499 1_555
C2 Fe36 1.950499 1_555
C2 Nd3 2.467554 1_555
C3 Fe49 1.950499 1_555
C3 Fe39 1.950499 1_555
C3 Fe9 1.950499 1_555
C3 Fe1 1.950499 1_555
C3 Nd7 2.467554 1_555
