# generated using pymatgen
data_Na2Si2O5
_symmetry_space_group_name_H-M   'P 1'
_cell_length_a   4.80171345
_cell_length_b   8.11936861
_cell_length_c   11.83171003
_cell_angle_alpha   90.00000000
_cell_angle_beta   90.00000000
_cell_angle_gamma   90.00000000
_symmetry_Int_Tables_number   1
_chemical_formula_structural   Na2Si2O5
_chemical_formula_sum   'Na8 Si8 O20'
_cell_volume   461.28147641
_cell_formula_units_Z   4
loop_
 _symmetry_equiv_pos_site_id
 _symmetry_equiv_pos_as_xyz
  1  'x, y, z'
loop_
 _atom_site_type_symbol
 _atom_site_label
 _atom_site_symmetry_multiplicity
 _atom_site_fract_x
 _atom_site_fract_y
 _atom_site_fract_z
 _atom_site_occupancy
  Na  Na0  1  0.57126732  0.43472382  0.27326929  1
  Na  Na1  1  0.09848516  0.68942634  0.19198511  1
  Na  Na2  1  0.07126732  0.06527618  0.77326929  1
  Na  Na3  1  0.09848516  0.18942634  0.30801489  1
  Na  Na4  1  0.07126732  0.56527618  0.72673071  1
  Na  Na5  1  0.57126732  0.93472382  0.22673071  1
  Na  Na6  1  0.59848516  0.81057366  0.69198511  1
  Na  Na7  1  0.59848516  0.31057366  0.80801489  1
  Si  Si0  1  0.52246497  0.94755762  0.93150373  1
  Si  Si1  1  0.02246497  0.55244238  0.43150373  1
  Si  Si2  1  0.52246497  0.44755762  0.56849627  1
  Si  Si3  1  0.64207540  0.10855069  0.47458081  1
  Si  Si4  1  0.14207540  0.39144931  0.97458081  1
  Si  Si5  1  0.14207540  0.89144931  0.52541919  1
  Si  Si6  1  0.02246497  0.05244238  0.06849627  1
  Si  Si7  1  0.64207540  0.60855069  0.02541919  1
  O  O0  1  0.19006829  0.97143050  0.96124119  1
  O  O1  1  0.97304787  0.05773605  0.48608759  1
  O  O2  1  0.57905068  0.66582244  0.15106410  1
  O  O3  1  0.07905068  0.83417756  0.65106410  1
  O  O4  1  0.07905068  0.33417756  0.84893590  1
  O  O5  1  0.58804732  0.02900875  0.81310231  1
  O  O6  1  0.08409400  0.25100383  0.07161607  1
  O  O7  1  0.69006829  0.52856950  0.46124119  1
  O  O8  1  0.47304787  0.44226395  0.98608759  1
  O  O9  1  0.08804732  0.47099125  0.31310231  1
  O  O10  1  0.58409400  0.74899617  0.92838393  1
  O  O11  1  0.97304787  0.55773605  0.01391241  1
  O  O12  1  0.69006829  0.02856950  0.03875881  1
  O  O13  1  0.08409400  0.75100383  0.42838393  1
  O  O14  1  0.47304787  0.94226395  0.51391241  1
  O  O15  1  0.58804732  0.52900875  0.68689769  1
  O  O16  1  0.58409400  0.24899617  0.57161607  1
  O  O17  1  0.08804732  0.97099125  0.18689769  1
  O  O18  1  0.57905068  0.16582244  0.34893590  1
  O  O19  1  0.19006829  0.47143050  0.53875881  1
loop_
_geom_bond_atom_site_label_1
_geom_bond_atom_site_label_2
_geom_bond_distance
_geom_bond_site_symmetry_2
Na0 O18 2.360029 1_555
Na0 O2 2.369134 1_555
Na0 O9 2.385906 1_555
Na0 O7 2.419155 1_555
Na0 O9 2.542896 1_655
Na1 O9 2.280694 1_555
Na1 O17 2.287471 1_555
Na1 O2 2.365561 1_555
Na1 O11 2.438259 1_455
Na1 O2 2.547952 1_455
Na1 O13 2.842177 1_555
Na2 O4 2.360029 1_555
Na2 O3 2.369134 1_545
Na2 O5 2.385906 1_455
Na2 O0 2.419155 1_545
Na2 O5 2.542896 1_555
Na3 O17 2.280694 1_545
Na3 O9 2.287471 1_555
Na3 O18 2.365561 1_555
Na3 O1 2.438259 1_455
Na3 O18 2.547952 1_455
Na3 O6 2.842177 1_555
Na4 O3 2.360029 1_555
Na4 O4 2.369134 1_555
Na4 O15 2.385906 1_455
Na4 O19 2.419155 1_555
Na4 O15 2.542896 1_555
Na5 O2 2.360029 1_555
Na5 O18 2.369134 1_565
Na5 O17 2.385906 1_555
Na5 O12 2.419155 1_565
Na5 O17 2.542896 1_655
Na6 O5 2.280694 1_565
Na6 O15 2.287471 1_555
Na6 O3 2.365561 1_655
Na6 O14 2.438259 1_555
Na6 O3 2.547952 1_555
Na6 O10 2.842177 1_555
Na7 O15 2.280694 1_555
Na7 O5 2.287471 1_555
Na7 O4 2.365561 1_655
Na7 O8 2.438259 1_555
Na7 O4 2.547952 1_555
Na7 O16 2.842177 1_555
O0 Si6 1.640341 1_566
O0 Si0 1.645848 1_555
O1 Si5 1.642613 1_645
O1 Si3 1.647552 1_555
O2 Si7 1.586751 1_555
O3 Si5 1.586751 1_555
O4 Si4 1.586751 1_555
O5 Si0 1.580830 1_545
O6 Si6 1.639543 1_555
O6 Si4 1.641944 1_554
O7 Si2 1.640341 1_555
O7 Si1 1.645848 1_655
O8 Si7 1.642613 1_556
O8 Si4 1.647552 1_555
O9 Si1 1.580830 1_555
O10 Si0 1.639543 1_555
O10 Si7 1.641944 1_556
O11 Si4 1.642613 1_654
O11 Si7 1.647552 1_555
O12 Si0 1.640341 1_544
O12 Si6 1.645848 1_655
O13 Si1 1.639543 1_555
O13 Si5 1.641944 1_555
O14 Si3 1.642613 1_565
O14 Si5 1.647552 1_555
O15 Si2 1.580830 1_555
O16 Si2 1.639543 1_555
O16 Si3 1.641944 1_555
O17 Si6 1.580830 1_565
O18 Si3 1.586751 1_555
O19 Si1 1.640341 1_555
O19 Si2 1.645848 1_555
