# generated using pymatgen
data_CaTa2Bi2O9
_symmetry_space_group_name_H-M   'P 1'
_cell_length_a   12.97167861
_cell_length_b   12.97167861
_cell_length_c   5.55636200
_cell_angle_alpha   90.00000000
_cell_angle_beta   90.00000000
_cell_angle_gamma   155.54772416
_symmetry_Int_Tables_number   1
_chemical_formula_structural   CaTa2Bi2O9
_chemical_formula_sum   'Ca2 Ta4 Bi4 O18'
_cell_volume   387.00377551
_cell_formula_units_Z   2
loop_
 _symmetry_equiv_pos_site_id
 _symmetry_equiv_pos_as_xyz
  1  'x, y, z'
loop_
 _atom_site_type_symbol
 _atom_site_label
 _atom_site_symmetry_multiplicity
 _atom_site_fract_x
 _atom_site_fract_y
 _atom_site_fract_z
 _atom_site_occupancy
  Ca  Ca0  1  0.75543000  0.75543000  0.49930500  1
  Ca  Ca1  1  0.24457000  0.24457000  0.99930500  1
  Ta  Ta0  1  0.82899900  0.66679800  0.03430800  1
  Ta  Ta1  1  0.17100100  0.33320200  0.53430800  1
  Ta  Ta2  1  0.33320200  0.17100100  0.53430800  1
  Ta  Ta3  1  0.66679800  0.82899900  0.03430800  1
  Bi  Bi0  1  0.01858700  0.41705000  0.95721100  1
  Bi  Bi1  1  0.41705000  0.01858700  0.95721100  1
  Bi  Bi2  1  0.58295000  0.98141300  0.45721100  1
  Bi  Bi3  1  0.98141300  0.58295000  0.45721100  1
  O  O0  1  0.67870300  0.98581500  0.05182700  1
  O  O1  1  0.53875400  0.36692700  0.84469100  1
  O  O2  1  0.67224200  0.67224200  0.07273400  1
  O  O3  1  0.32775800  0.32775800  0.57273400  1
  O  O4  1  0.36692700  0.53875400  0.84469100  1
  O  O5  1  0.26327500  0.76234700  0.23292500  1
  O  O6  1  0.01418500  0.32129700  0.55182700  1
  O  O7  1  0.97482800  0.09716500  0.26796700  1
  O  O8  1  0.09716500  0.97482800  0.26796700  1
  O  O9  1  0.63307300  0.46124600  0.34469100  1
  O  O10  1  0.32129700  0.01418500  0.55182700  1
  O  O11  1  0.02517200  0.90283500  0.76796700  1
  O  O12  1  0.73672500  0.23765300  0.73292500  1
  O  O13  1  0.46124600  0.63307300  0.34469100  1
  O  O14  1  0.23765300  0.73672500  0.73292500  1
  O  O15  1  0.90283500  0.02517200  0.76796700  1
  O  O16  1  0.98581500  0.67870300  0.05182700  1
  O  O17  1  0.76234700  0.26327500  0.23292500  1
loop_
_geom_bond_atom_site_label_1
_geom_bond_atom_site_label_2
_geom_bond_distance
_geom_bond_site_symmetry_2
Ca0 O3 2.384808 1_555
Ca0 O2 2.413846 1_555
Ca0 O15 2.438623 1_565
Ca0 O11 2.438623 1_655
Ca0 O7 2.536467 1_565
Ca0 O8 2.536467 1_655
Ca0 O9 2.606237 1_555
Ca0 O13 2.606237 1_555
Ca1 O2 2.384808 1_556
Ca1 O3 2.413846 1_555
Ca1 O8 2.438623 1_546
Ca1 O7 2.438623 1_456
Ca1 O11 2.536467 1_545
Ca1 O15 2.536467 1_455
Ca1 O4 2.606237 1_555
Ca1 O1 2.606237 1_555
Bi0 O12 2.201353 1_455
Bi0 O17 2.302805 1_456
Bi0 O14 2.317341 1_555
Bi0 O0 2.470767 1_446
Bi0 O6 2.547640 1_555
Bi0 O5 2.569127 1_556
Bi1 O14 2.201353 1_545
Bi1 O5 2.302805 1_546
Bi1 O12 2.317341 1_555
Bi1 O16 2.470767 1_446
Bi1 O10 2.547640 1_555
Bi1 O17 2.569127 1_556
Bi2 O17 2.201353 1_565
Bi2 O12 2.302805 1_565
Bi2 O5 2.317341 1_555
Bi2 O6 2.470767 1_665
Bi2 O0 2.547640 1_555
Bi2 O14 2.569127 1_555
Bi3 O5 2.201353 1_655
Bi3 O14 2.302805 1_655
Bi3 O17 2.317341 1_555
Bi3 O10 2.470767 1_665
Bi3 O16 2.547640 1_555
Bi3 O12 2.569127 1_555
O0 Ta3 1.897168 1_555
O1 Ta0 1.937205 1_556
O1 Ta2 2.050721 1_555
O2 Ta3 2.108726 1_555
O2 Ta0 2.108726 1_555
O3 Ta2 2.108726 1_555
O3 Ta1 2.108726 1_555
O4 Ta3 1.937205 1_556
O4 Ta1 2.050721 1_555
O6 Ta1 1.897168 1_555
O7 Ta1 1.963448 1_655
O7 Ta3 2.108625 1_545
O8 Ta2 1.963448 1_565
O8 Ta0 2.108625 1_455
O9 Ta2 1.937205 1_555
O9 Ta0 2.050721 1_555
O10 Ta2 1.897168 1_555
O11 Ta0 1.963448 1_456
O11 Ta2 2.108625 1_565
O13 Ta1 1.937205 1_555
O13 Ta3 2.050721 1_555
O15 Ta3 1.963448 1_546
O15 Ta1 2.108625 1_655
O16 Ta0 1.897168 1_555
