# generated using pymatgen
data_Cs3Bi2
_symmetry_space_group_name_H-M   'P 1'
_cell_length_a   7.30074539
_cell_length_b   7.30100147
_cell_length_c   10.32688124
_cell_angle_alpha   100.08706717
_cell_angle_beta   100.08286453
_cell_angle_gamma   92.22850053
_symmetry_Int_Tables_number   1
_chemical_formula_structural   Cs3Bi2
_chemical_formula_sum   'Cs6 Bi4'
_cell_volume   532.19761900
_cell_formula_units_Z   2
loop_
 _symmetry_equiv_pos_site_id
 _symmetry_equiv_pos_as_xyz
  1  'x, y, z'
loop_
 _atom_site_type_symbol
 _atom_site_label
 _atom_site_symmetry_multiplicity
 _atom_site_fract_x
 _atom_site_fract_y
 _atom_site_fract_z
 _atom_site_occupancy
  Cs  Cs0  1  0.84161690  0.15846116  0.74992558  1
  Cs  Cs1  1  0.33844717  0.24138779  0.01694699  1
  Cs  Cs2  1  0.15838310  0.84153884  0.25007442  1
  Cs  Cs3  1  0.24121198  0.33841718  0.51716744  1
  Cs  Cs4  1  0.75878802  0.66158282  0.48283256  1
  Cs  Cs5  1  0.66155283  0.75861221  0.98305301  1
  Bi  Bi0  1  0.31113235  0.88178384  0.66332389  1
  Bi  Bi1  1  0.68886765  0.11821616  0.33667611  1
  Bi  Bi2  1  0.88195177  0.31059419  0.16317578  1
  Bi  Bi3  1  0.11804823  0.68940581  0.83682422  1
loop_
_geom_bond_atom_site_label_1
_geom_bond_atom_site_label_2
_geom_bond_distance
_geom_bond_site_symmetry_2
Bi0 Bi3 2.963454 1_555
Bi0 Cs3 3.908793 1_565
Bi0 Cs3 3.968883 1_555
Bi0 Cs5 4.064107 1_555
Bi0 Cs1 4.076086 1_566
Bi0 Cs2 4.172659 1_555
Bi0 Cs0 4.174433 1_565
Bi0 Cs0 4.196341 1_465
Bi0 Cs4 4.258456 1_455
Bi0 Cs4 4.269896 1_555
Bi1 Bi2 2.963454 1_555
Bi1 Cs4 3.908793 1_545
Bi1 Cs4 3.968883 1_555
Bi1 Cs1 4.064107 1_555
Bi1 Cs5 4.076086 1_544
Bi1 Cs0 4.172659 1_555
Bi1 Cs2 4.174433 1_545
Bi1 Cs2 4.196341 1_645
Bi1 Cs3 4.258456 1_655
Bi1 Cs3 4.269896 1_555
Bi2 Cs1 3.907533 1_655
Bi2 Cs1 3.969803 1_555
Bi2 Cs4 4.065420 1_555
Bi2 Cs3 4.077438 1_655
Bi2 Cs0 4.172151 1_554
Bi2 Cs2 4.176585 1_655
Bi2 Cs2 4.193545 1_645
Bi2 Cs5 4.255823 1_544
Bi2 Cs5 4.270954 1_554
Bi3 Cs5 3.907533 1_455
Bi3 Cs5 3.969803 1_555
Bi3 Cs3 4.065420 1_555
Bi3 Cs4 4.077438 1_455
Bi3 Cs2 4.172151 1_556
Bi3 Cs0 4.176585 1_455
Bi3 Cs0 4.193545 1_465
Bi3 Cs1 4.255823 1_566
Bi3 Cs1 4.270954 1_556
