# generated using pymatgen
data_Dy3Al2
_symmetry_space_group_name_H-M   'P 1'
_cell_length_a   7.62235088
_cell_length_b   8.19213825
_cell_length_c   8.19213825
_cell_angle_alpha   90.00263212
_cell_angle_beta   90.00000000
_cell_angle_gamma   90.00000000
_symmetry_Int_Tables_number   1
_chemical_formula_structural   Dy3Al2
_chemical_formula_sum   'Dy12 Al8'
_cell_volume   511.54457374
_cell_formula_units_Z   4
loop_
 _symmetry_equiv_pos_site_id
 _symmetry_equiv_pos_as_xyz
  1  'x, y, z'
loop_
 _atom_site_type_symbol
 _atom_site_label
 _atom_site_symmetry_multiplicity
 _atom_site_fract_x
 _atom_site_fract_y
 _atom_site_fract_z
 _atom_site_occupancy
  Dy  Dy0  1  0.50620218  0.00000000  0.50000000  1
  Dy  Dy1  1  0.75618621  0.34922171  0.65077829  1
  Dy  Dy2  1  0.50620218  0.50000000  -0.00000000  1
  Dy  Dy3  1  0.25620654  0.70171547  0.29828453  1
  Dy  Dy4  1  0.75620615  0.20173402  0.20173402  1
  Dy  Dy5  1  0.00618283  0.00000000  0.50000000  1
  Dy  Dy6  1  0.25618914  0.15079524  0.15079524  1
  Dy  Dy7  1  0.25620654  0.29828453  0.70171547  1
  Dy  Dy8  1  0.00618283  0.50000000  -0.00000000  1
  Dy  Dy9  1  0.25618914  0.84920476  0.84920476  1
  Dy  Dy10  1  0.75620615  0.79826598  0.79826598  1
  Dy  Dy11  1  0.75618621  0.65077829  0.34922171  1
  Al  Al0  1  0.06099734  0.61831775  0.61831775  1
  Al  Al1  1  0.45141616  0.61831534  0.61831534  1
  Al  Al2  1  0.56101201  0.88167397  0.11832603  1
  Al  Al3  1  0.95139944  0.88167610  0.11832390  1
  Al  Al4  1  0.06099734  0.38168225  0.38168225  1
  Al  Al5  1  0.95139944  0.11832390  0.88167610  1
  Al  Al6  1  0.56101201  0.11832603  0.88167397  1
  Al  Al7  1  0.45141616  0.38168466  0.38168466  1
loop_
_geom_bond_atom_site_label_1
_geom_bond_atom_site_label_2
_geom_bond_distance
_geom_bond_site_symmetry_2
Al0 Al4 2.741462 1_555
Al0 Al1 2.975909 1_555
Al0 Dy9 3.060802 1_555
Al0 Dy3 3.091043 1_555
Al0 Dy7 3.091043 1_555
Al0 Dy10 3.121454 1_455
Al0 Dy1 3.213806 1_455
Al0 Dy11 3.213806 1_455
Al0 Dy8 3.300179 1_556
Al0 Dy5 3.300179 1_565
Al1 Al7 2.741406 1_555
Al1 Dy9 3.060957 1_555
Al1 Dy7 3.091032 1_555
Al1 Dy3 3.091032 1_555
Al1 Dy10 3.121466 1_555
Al1 Dy11 3.213567 1_555
Al1 Dy1 3.213567 1_555
Al1 Dy0 3.300165 1_565
Al1 Dy2 3.300165 1_556
Al2 Al6 2.741780 1_564
Al2 Al3 2.975670 1_555
Al2 Dy11 3.060932 1_555
Al2 Dy4 3.091139 1_565
Al2 Dy10 3.091139 1_554
Al2 Dy3 3.121679 1_555
Al2 Dy6 3.214001 1_565
Al2 Dy9 3.214001 1_554
Al2 Dy0 3.300046 1_565
Al2 Dy2 3.300046 1_555
Al3 Al5 2.741730 1_564
Al3 Dy11 3.061098 1_555
Al3 Dy10 3.091125 1_554
Al3 Dy4 3.091125 1_565
Al3 Dy3 3.121704 1_655
Al3 Dy9 3.213808 1_654
Al3 Dy6 3.213808 1_665
Al3 Dy8 3.300032 1_655
Al3 Dy5 3.300032 1_665
Al4 Al7 2.975909 1_555
Al4 Dy6 3.060802 1_555
Al4 Dy3 3.091043 1_555
Al4 Dy7 3.091043 1_555
Al4 Dy4 3.121454 1_455
Al4 Dy11 3.213806 1_455
Al4 Dy1 3.213806 1_455
Al4 Dy8 3.300179 1_555
Al4 Dy5 3.300179 1_555
Al5 Al6 2.975670 1_555
Al5 Dy1 3.061098 1_555
Al5 Dy10 3.091125 1_545
Al5 Dy4 3.091125 1_556
Al5 Dy7 3.121704 1_655
Al5 Dy9 3.213808 1_645
Al5 Dy6 3.213808 1_656
Al5 Dy5 3.300032 1_655
Al5 Dy8 3.300032 1_656
Al6 Dy1 3.060932 1_555
Al6 Dy10 3.091139 1_545
Al6 Dy4 3.091139 1_556
Al6 Dy7 3.121679 1_555
Al6 Dy6 3.214001 1_556
Al6 Dy9 3.214001 1_545
Al6 Dy0 3.300046 1_555
Al6 Dy2 3.300046 1_556
Al7 Dy6 3.060957 1_555
Al7 Dy3 3.091032 1_555
Al7 Dy7 3.091032 1_555
Al7 Dy4 3.121466 1_555
Al7 Dy11 3.213567 1_555
Al7 Dy1 3.213567 1_555
Al7 Dy2 3.300165 1_555
Al7 Dy0 3.300165 1_555
