# generated using pymatgen
data_Nd3MnBi5
_symmetry_space_group_name_H-M   'P 1'
_cell_length_a   9.67833614
_cell_length_b   9.67833614
_cell_length_c   6.51114800
_cell_angle_alpha   90.00000000
_cell_angle_beta   90.00000000
_cell_angle_gamma   120.00000093
_symmetry_Int_Tables_number   1
_chemical_formula_structural   Nd3MnBi5
_chemical_formula_sum   'Nd6 Mn2 Bi10'
_cell_volume   528.18929817
_cell_formula_units_Z   2
loop_
 _symmetry_equiv_pos_site_id
 _symmetry_equiv_pos_as_xyz
  1  'x, y, z'
loop_
 _atom_site_type_symbol
 _atom_site_label
 _atom_site_symmetry_multiplicity
 _atom_site_fract_x
 _atom_site_fract_y
 _atom_site_fract_z
 _atom_site_occupancy
  Nd  Nd0  1  0.00000000  0.37926300  0.75000000  1
  Nd  Nd1  1  0.62073700  0.00000000  0.25000000  1
  Nd  Nd2  1  0.62073700  0.62073700  0.75000000  1
  Nd  Nd3  1  0.00000000  0.62073700  0.25000000  1
  Nd  Nd4  1  0.37926300  0.37926300  0.25000000  1
  Nd  Nd5  1  0.37926300  0.00000000  0.75000000  1
  Mn  Mn0  1  0.00000000  0.00000000  0.00000000  1
  Mn  Mn1  1  0.00000000  0.00000000  0.50000000  1
  Bi  Bi0  1  0.66666700  0.33333300  0.00000000  1
  Bi  Bi1  1  0.25466400  0.00000000  0.25000000  1
  Bi  Bi2  1  0.33333300  0.66666700  0.50000000  1
  Bi  Bi3  1  0.25466400  0.25466400  0.75000000  1
  Bi  Bi4  1  0.74533600  0.00000000  0.75000000  1
  Bi  Bi5  1  0.00000000  0.74533600  0.75000000  1
  Bi  Bi6  1  0.74533600  0.74533600  0.25000000  1
  Bi  Bi7  1  0.00000000  0.25466400  0.25000000  1
  Bi  Bi8  1  0.33333300  0.66666700  0.00000000  1
  Bi  Bi9  1  0.66666700  0.33333300  0.50000000  1
loop_
_geom_bond_atom_site_label_1
_geom_bond_atom_site_label_2
_geom_bond_distance
_geom_bond_site_symmetry_2
Bi0 Bi9 3.255574 1_555
Bi0 Bi9 3.255574 1_554
Bi0 Nd1 3.438166 1_555
Bi0 Nd0 3.438166 1_654
Bi0 Nd5 3.438169 1_554
Bi0 Nd3 3.438169 1_655
Bi0 Nd4 3.438174 1_555
Bi0 Nd2 3.438174 1_554
Bi1 Mn1 2.953736 1_555
Bi1 Mn0 2.953736 1_555
Bi1 Nd3 3.240574 1_545
Bi1 Nd4 3.240574 1_555
Bi1 Nd5 3.471741 1_554
Bi1 Nd5 3.471741 1_555
Bi1 Nd1 3.542978 1_555
Bi2 Bi8 3.255574 1_555
Bi2 Bi8 3.255574 1_556
Bi2 Nd3 3.438166 1_555
Bi2 Nd5 3.438166 1_565
Bi2 Nd1 3.438169 1_565
Bi2 Nd0 3.438169 1_555
Bi2 Nd2 3.438174 1_555
Bi2 Nd4 3.438174 1_555
Bi3 Mn0 2.953736 1_556
Bi3 Mn1 2.953736 1_555
Bi3 Nd5 3.240574 1_555
Bi3 Nd0 3.240574 1_555
Bi3 Nd4 3.471741 1_556
Bi3 Nd4 3.471741 1_555
Bi3 Nd2 3.542977 1_555
Bi4 Mn0 2.953736 1_656
Bi4 Mn1 2.953736 1_655
Bi4 Nd0 3.240574 1_655
Bi4 Nd2 3.240574 1_545
Bi4 Nd1 3.471741 1_555
Bi4 Nd1 3.471741 1_556
Bi4 Nd5 3.542978 1_555
Bi5 Mn1 2.953736 1_565
Bi5 Mn0 2.953736 1_566
Bi5 Nd5 3.240574 1_565
Bi5 Nd2 3.240574 1_455
Bi5 Nd3 3.471741 1_556
Bi5 Nd3 3.471741 1_555
Bi5 Nd0 3.542978 1_555
Bi6 Mn1 2.953736 1_665
Bi6 Mn0 2.953736 1_665
Bi6 Nd3 3.240574 1_655
Bi6 Nd1 3.240574 1_565
Bi6 Nd2 3.471741 1_555
Bi6 Nd2 3.471741 1_554
Bi6 Nd4 3.542977 1_555
Bi7 Mn1 2.953736 1_555
Bi7 Mn0 2.953736 1_555
Bi7 Nd1 3.240574 1_455
Bi7 Nd4 3.240574 1_555
Bi7 Nd0 3.471741 1_555
Bi7 Nd0 3.471741 1_554
Bi7 Nd3 3.542978 1_555
Bi8 Nd3 3.438166 1_555
Bi8 Nd5 3.438166 1_564
Bi8 Nd1 3.438169 1_565
Bi8 Nd0 3.438169 1_554
Bi8 Nd4 3.438174 1_555
Bi8 Nd2 3.438174 1_554
Bi9 Nd1 3.438166 1_555
Bi9 Nd0 3.438166 1_655
Bi9 Nd5 3.438169 1_555
Bi9 Nd3 3.438169 1_655
Bi9 Nd2 3.438174 1_555
Bi9 Nd4 3.438174 1_555
