# generated using pymatgen
data_KNi(PO3)3
_symmetry_space_group_name_H-M   'P 1'
_cell_length_a   6.35827633
_cell_length_b   7.06776709
_cell_length_c   20.45913379
_cell_angle_alpha   90.00168531
_cell_angle_beta   90.00624914
_cell_angle_gamma   68.26132545
_symmetry_Int_Tables_number   1
_chemical_formula_structural   KNi(PO3)3
_chemical_formula_sum   'K4 Ni4 P12 O36'
_cell_volume   854.02341954
_cell_formula_units_Z   4
loop_
 _symmetry_equiv_pos_site_id
 _symmetry_equiv_pos_as_xyz
  1  'x, y, z'
loop_
 _atom_site_type_symbol
 _atom_site_label
 _atom_site_symmetry_multiplicity
 _atom_site_fract_x
 _atom_site_fract_y
 _atom_site_fract_z
 _atom_site_occupancy
  K  K0  1  0.00013500  0.49318500  0.49990600  1
  K  K1  1  0.00016200  0.49309100  0.00011100  1
  K  K2  1  0.50016500  0.99324300  0.75005800  1
  K  K3  1  0.50015700  0.99317300  0.24996900  1
  Ni  Ni0  1  0.00028000  0.00096200  0.50008800  1
  Ni  Ni1  1  0.49987900  0.50148100  0.74988600  1
  Ni  Ni2  1  0.00032900  0.00080300  0.99982300  1
  Ni  Ni3  1  0.50002900  0.50093200  0.25005300  1
  P  P0  1  0.34369800  0.68840400  0.39544300  1
  P  P1  1  0.34389900  0.68824300  0.89542700  1
  P  P2  1  0.84374400  0.18838900  0.64547300  1
  P  P3  1  0.84375900  0.18833400  0.14537900  1
  P  P4  1  0.64183700  0.25571900  0.38826700  1
  P  P5  1  0.64171500  0.25577700  0.88822700  1
  P  P6  1  0.14169200  0.75576000  0.63827800  1
  P  P7  1  0.14179600  0.75578400  0.13821900  1
  P  P8  1  0.01440400  0.46486800  0.71635500  1
  P  P9  1  0.01443800  0.46483800  0.21630000  1
  P  P10  1  0.51446000  0.96485600  0.96633500  1
  P  P11  1  0.51446700  0.96482600  0.46630300  1
  O  O0  1  0.28208700  0.08257900  0.49229200  1
  O  O1  1  0.28201200  0.08259900  0.99229100  1
  O  O2  1  0.78201400  0.58266800  0.74231400  1
  O  O3  1  0.78206900  0.58260100  0.24229900  1
  O  O4  1  0.83595700  0.23119400  0.43340500  1
  O  O5  1  0.83590500  0.23136600  0.93333500  1
  O  O6  1  0.33585600  0.73145300  0.68338100  1
  O  O7  1  0.33589900  0.73130600  0.18336900  1
  O  O8  1  0.88200600  0.21595900  0.57438600  1
  O  O9  1  0.88206200  0.21570200  0.07427300  1
  O  O10  1  0.38202000  0.71592600  0.82434400  1
  O  O11  1  0.38188500  0.71601900  0.32434600  1
  O  O12  1  0.52977100  0.74704500  0.43755400  1
  O  O13  1  0.52975700  0.74709000  0.93760700  1
  O  O14  1  0.02977900  0.24707400  0.68760400  1
  O  O15  1  0.02970800  0.24705100  0.18754700  1
  O  O16  1  0.42235200  0.44951700  0.41366100  1
  O  O17  1  0.42239300  0.44945300  0.91371300  1
  O  O18  1  0.92231100  0.94954500  0.66371300  1
  O  O19  1  0.92235000  0.94953500  0.16365200  1
  O  O20  1  0.04768900  0.57441100  0.64878100  1
  O  O21  1  0.04774100  0.57444600  0.14873500  1
  O  O22  1  0.54772900  0.07439100  0.89877200  1
  O  O23  1  0.54769500  0.07445500  0.39873200  1
  O  O24  1  0.11269900  0.78969400  0.42458200  1
  O  O25  1  0.11268100  0.78942600  0.92446400  1
  O  O26  1  0.61265600  0.28965600  0.67457400  1
  O  O27  1  0.61276800  0.28962300  0.17454600  1
  O  O28  1  0.17001800  0.77052600  0.56596900  1
  O  O29  1  0.16997300  0.77062200  0.06589200  1
  O  O30  1  0.66980700  0.27081200  0.81592100  1
  O  O31  1  0.67005900  0.27056300  0.31594000  1
  O  O32  1  0.71729200  0.92154300  0.50952100  1
  O  O33  1  0.71738800  0.92151200  0.00952100  1
  O  O34  1  0.21728600  0.42160900  0.75954400  1
  O  O35  1  0.21727700  0.42156000  0.25953000  1
loop_
_geom_bond_atom_site_label_1
_geom_bond_atom_site_label_2
_geom_bond_distance
_geom_bond_site_symmetry_2
K0 O4 2.793018 1_455
K0 O0 2.793984 1_555
K0 O8 2.795674 1_455
K0 O24 2.896613 1_555
K0 O28 2.898929 1_555
K0 O32 2.899272 1_455
K0 O16 3.130957 1_555
K0 O12 3.132943 1_455
K0 O20 3.134725 1_555
K1 O9 2.792959 1_455
K1 O1 2.793410 1_554
K1 O5 2.794568 1_454
K1 O29 2.897052 1_555
K1 O25 2.898987 1_554
K1 O33 2.899250 1_455
K1 O21 3.129961 1_555
K1 O17 3.132842 1_554
K1 O13 3.134620 1_454
K2 O2 2.793790 1_555
K2 O10 2.794081 1_555
K2 O6 2.794151 1_555
K2 O30 2.897381 1_565
K2 O26 2.897565 1_565
K2 O34 2.899193 1_565
K2 O22 3.131414 1_565
K2 O18 3.131693 1_555
K2 O14 3.133853 1_565
K3 O7 2.793618 1_555
K3 O3 2.793790 1_555
K3 O11 2.794599 1_555
K3 O27 2.897506 1_565
K3 O31 2.898409 1_565
K3 O35 2.899419 1_565
K3 O19 3.131708 1_555
K3 O23 3.132568 1_565
K3 O15 3.133956 1_565
Ni0 O28 2.081310 1_545
Ni0 O0 2.081940 1_555
Ni0 O24 2.082405 1_545
Ni0 O32 2.082806 1_445
Ni0 O8 2.082984 1_455
Ni0 O4 2.083552 1_455
Ni1 O6 2.079669 1_555
Ni1 O2 2.081794 1_555
Ni1 O26 2.081967 1_555
Ni1 O34 2.082708 1_555
Ni1 O10 2.082814 1_555
Ni1 O30 2.084599 1_555
Ni2 O25 2.080597 1_545
Ni2 O1 2.081527 1_555
Ni2 O5 2.082473 1_455
Ni2 O33 2.082495 1_446
Ni2 O29 2.082603 1_546
Ni2 O9 2.084838 1_456
Ni3 O35 2.081248 1_555
Ni3 O31 2.081535 1_555
Ni3 O27 2.082750 1_555
Ni3 O11 2.083213 1_555
Ni3 O3 2.083520 1_555
Ni3 O7 2.083903 1_555
O0 P11 1.499245 1_545
O1 P10 1.499329 1_545
O2 P8 1.499140 1_655
O3 P9 1.499276 1_655
O4 P4 1.499190 1_555
O5 P5 1.499312 1_555
O6 P6 1.499260 1_555
O7 P7 1.499320 1_555
O8 P2 1.499193 1_555
O9 P3 1.499355 1_555
O10 P1 1.499077 1_555
O11 P0 1.499352 1_555
O12 P11 1.616679 1_555
O12 P0 1.636084 1_555
O13 P10 1.616437 1_555
O13 P1 1.636471 1_555
O14 P8 1.616647 1_555
O14 P2 1.636264 1_455
O15 P9 1.616811 1_555
O15 P3 1.636334 1_455
O16 P0 1.616862 1_555
O16 P4 1.636390 1_555
O17 P1 1.616625 1_555
O17 P5 1.635977 1_555
O18 P2 1.616726 1_565
O18 P6 1.636250 1_655
O19 P3 1.616575 1_565
O19 P7 1.636336 1_655
O20 P6 1.616718 1_555
O20 P8 1.636165 1_555
O21 P7 1.616900 1_555
O21 P9 1.636284 1_555
O22 P5 1.617004 1_555
O22 P10 1.635914 1_545
O23 P4 1.616642 1_555
O23 P11 1.636319 1_545
O24 P0 1.498813 1_555
O25 P1 1.499017 1_555
O26 P2 1.498940 1_555
O27 P3 1.499000 1_555
O28 P6 1.498627 1_555
O29 P7 1.498911 1_555
O30 P5 1.498568 1_555
O31 P4 1.498957 1_555
O32 P11 1.498681 1_555
O33 P10 1.498760 1_554
O34 P8 1.498635 1_555
O35 P9 1.498900 1_555
