# generated using pymatgen
data_Pr3CuSiSe7
_symmetry_space_group_name_H-M   'P 1'
_cell_length_a   10.71505986
_cell_length_b   10.71505986
_cell_length_c   6.10878900
_cell_angle_alpha   90.00000000
_cell_angle_beta   90.00000000
_cell_angle_gamma   119.99999913
_symmetry_Int_Tables_number   1
_chemical_formula_structural   Pr3CuSiSe7
_chemical_formula_sum   'Pr6 Cu2 Si2 Se14'
_cell_volume   607.40024571
_cell_formula_units_Z   2
loop_
 _symmetry_equiv_pos_site_id
 _symmetry_equiv_pos_as_xyz
  1  'x, y, z'
loop_
 _atom_site_type_symbol
 _atom_site_label
 _atom_site_symmetry_multiplicity
 _atom_site_fract_x
 _atom_site_fract_y
 _atom_site_fract_z
 _atom_site_occupancy
  Pr  Pr0  1  0.87363500  0.64473700  0.25335500  1
  Pr  Pr1  1  0.22889800  0.87363500  0.75335500  1
  Pr  Pr2  1  0.77110200  0.12636500  0.25335500  1
  Pr  Pr3  1  0.64473700  0.77110200  0.75335500  1
  Pr  Pr4  1  0.12636500  0.35526300  0.75335500  1
  Pr  Pr5  1  0.35526300  0.22889800  0.25335500  1
  Cu  Cu0  1  0.00000000  0.00000000  0.22664500  1
  Cu  Cu1  1  0.00000000  0.00000000  0.72664500  1
  Si  Si0  1  0.66666700  0.33333300  0.83958900  1
  Si  Si1  1  0.33333300  0.66666700  0.33958900  1
  Se  Se0  1  0.25421900  0.16423400  0.73979300  1
  Se  Se1  1  0.41489200  0.52240200  0.48785000  1
  Se  Se2  1  0.83576600  0.08998500  0.73979300  1
  Se  Se3  1  0.47759800  0.89249000  0.48785000  1
  Se  Se4  1  0.16423400  0.91001500  0.23979300  1
  Se  Se5  1  0.10751000  0.58510800  0.48785000  1
  Se  Se6  1  0.74578100  0.83576600  0.23979300  1
  Se  Se7  1  0.58510800  0.47759800  0.98785000  1
  Se  Se8  1  0.33333300  0.66666700  0.96801900  1
  Se  Se9  1  0.91001500  0.74578100  0.73979300  1
  Se  Se10  1  0.66666700  0.33333300  0.46801900  1
  Se  Se11  1  0.08998500  0.25421900  0.23979300  1
  Se  Se12  1  0.52240200  0.10751000  0.98785000  1
  Se  Se13  1  0.89249000  0.41489200  0.98785000  1
loop_
_geom_bond_atom_site_label_1
_geom_bond_atom_site_label_2
_geom_bond_distance
_geom_bond_site_symmetry_2
Pr0 Se6 2.979525 1_555
Pr0 Se4 2.988531 1_655
Pr0 Se13 3.038813 1_554
Pr0 Se9 3.119651 1_555
Pr0 Se7 3.139921 1_554
Pr0 Se5 3.215794 1_655
Pr0 Se10 3.220496 1_555
Pr0 Se9 3.277868 1_554
Pr1 Se9 2.979525 1_455
Pr1 Se0 2.988531 1_565
Pr1 Se3 3.038813 1_555
Pr1 Se4 3.119651 1_556
Pr1 Se5 3.139921 1_555
Pr1 Se12 3.215794 1_565
Pr1 Se8 3.220488 1_555
Pr1 Se4 3.277868 1_555
Pr2 Se11 2.979525 1_655
Pr2 Se6 2.988531 1_545
Pr2 Se12 3.038813 1_554
Pr2 Se2 3.119651 1_555
Pr2 Se13 3.139921 1_554
Pr2 Se3 3.215794 1_545
Pr2 Se10 3.220488 1_555
Pr2 Se2 3.277868 1_554
Pr3 Se2 2.979525 1_565
Pr3 Se9 2.988531 1_555
Pr3 Se1 3.038813 1_555
Pr3 Se6 3.119651 1_556
Pr3 Se3 3.139921 1_555
Pr3 Se7 3.215794 1_555
Pr3 Se8 3.220498 1_555
Pr3 Se6 3.277868 1_555
Pr4 Se0 2.979525 1_555
Pr4 Se2 2.988531 1_455
Pr4 Se5 3.038813 1_555
Pr4 Se11 3.119651 1_556
Pr4 Se1 3.139921 1_555
Pr4 Se13 3.215794 1_455
Pr4 Se8 3.220496 1_555
Pr4 Se11 3.277868 1_555
Pr5 Se4 2.979525 1_545
Pr5 Se11 2.988531 1_555
Pr5 Se7 3.038813 1_554
Pr5 Se0 3.119651 1_555
Pr5 Se12 3.139921 1_554
Pr5 Se1 3.215794 1_555
Pr5 Se10 3.220498 1_555
Pr5 Se0 3.277868 1_554
Cu0 Se4 2.393680 1_545
Cu0 Se11 2.393680 1_555
Cu0 Se6 2.393680 1_445
Cu1 Se2 2.393680 1_455
Cu1 Se9 2.393680 1_445
Cu1 Se0 2.393680 1_555
Se1 Si1 2.307471 1_555
Se3 Si1 2.307463 1_555
Se5 Si1 2.307461 1_555
Se7 Si0 2.307471 1_555
Se8 Si1 2.269843 1_556
Se10 Si0 2.269843 1_555
Se12 Si0 2.307463 1_555
Se13 Si0 2.307461 1_555
