# generated using pymatgen
data_Tb2Ni17
_symmetry_space_group_name_H-M   'P 1'
_cell_length_a   8.27355182
_cell_length_b   8.27355182
_cell_length_c   8.00687700
_cell_angle_alpha   90.00000000
_cell_angle_beta   90.00000000
_cell_angle_gamma   119.99999854
_symmetry_Int_Tables_number   1
_chemical_formula_structural   Tb2Ni17
_chemical_formula_sum   'Tb4 Ni34'
_cell_volume   474.65469120
_cell_formula_units_Z   2
loop_
 _symmetry_equiv_pos_site_id
 _symmetry_equiv_pos_as_xyz
  1  'x, y, z'
loop_
 _atom_site_type_symbol
 _atom_site_label
 _atom_site_symmetry_multiplicity
 _atom_site_fract_x
 _atom_site_fract_y
 _atom_site_fract_z
 _atom_site_occupancy
  Tb  Tb0  1  0.00000000  0.00000000  0.25000000  1
  Tb  Tb1  1  0.66666700  0.33333300  0.25000000  1
  Tb  Tb2  1  0.00000000  0.00000000  0.75000000  1
  Tb  Tb3  1  0.33333300  0.66666700  0.75000000  1
  Ni  Ni0  1  0.16568700  0.33137300  0.52059100  1
  Ni  Ni1  1  0.66862700  0.83431300  0.52059100  1
  Ni  Ni2  1  0.62894100  0.95688000  0.25000000  1
  Ni  Ni3  1  0.66666700  0.33333300  0.60208500  1
  Ni  Ni4  1  0.37105900  0.04312000  0.75000000  1
  Ni  Ni5  1  0.33137300  0.16568700  0.47940900  1
  Ni  Ni6  1  0.33137300  0.16568700  0.02059100  1
  Ni  Ni7  1  0.32793900  0.95688000  0.25000000  1
  Ni  Ni8  1  0.50000000  0.00000000  0.00000000  1
  Ni  Ni9  1  0.16568700  0.83431300  0.97940900  1
  Ni  Ni10  1  0.32793900  0.37105900  0.25000000  1
  Ni  Ni11  1  0.67206100  0.04312000  0.75000000  1
  Ni  Ni12  1  0.33333300  0.66666700  0.39791500  1
  Ni  Ni13  1  0.83431300  0.16568700  0.47940900  1
  Ni  Ni14  1  0.50000000  0.00000000  0.50000000  1
  Ni  Ni15  1  0.00000000  0.50000000  0.50000000  1
  Ni  Ni16  1  0.33333300  0.66666700  0.10208500  1
  Ni  Ni17  1  0.95688000  0.62894100  0.75000000  1
  Ni  Ni18  1  0.95688000  0.32793900  0.75000000  1
  Ni  Ni19  1  0.00000000  0.50000000  0.00000000  1
  Ni  Ni20  1  0.83431300  0.66862700  0.47940900  1
  Ni  Ni21  1  0.83431300  0.16568700  0.02059100  1
  Ni  Ni22  1  0.37105900  0.32793900  0.75000000  1
  Ni  Ni23  1  0.83431300  0.66862700  0.02059100  1
  Ni  Ni24  1  0.16568700  0.83431300  0.52059100  1
  Ni  Ni25  1  0.50000000  0.50000000  0.50000000  1
  Ni  Ni26  1  0.16568700  0.33137300  0.97940900  1
  Ni  Ni27  1  0.67206100  0.62894100  0.75000000  1
  Ni  Ni28  1  0.66666700  0.33333300  0.89791500  1
  Ni  Ni29  1  0.62894100  0.67206100  0.25000000  1
  Ni  Ni30  1  0.04312000  0.37105900  0.25000000  1
  Ni  Ni31  1  0.66862700  0.83431300  0.97940900  1
  Ni  Ni32  1  0.04312000  0.67206100  0.25000000  1
  Ni  Ni33  1  0.50000000  0.50000000  0.00000000  1
loop_
_geom_bond_atom_site_label_1
_geom_bond_atom_site_label_2
_geom_bond_distance
_geom_bond_site_symmetry_2
Ni0 Ni5 2.397103 1_555
Ni0 Ni13 2.397117 1_455
Ni0 Ni25 2.401086 1_555
Ni0 Ni15 2.401093 1_555
Ni0 Ni10 2.482577 1_555
Ni0 Ni30 2.482581 1_555
Ni0 Ni22 2.512017 1_555
Ni0 Ni18 2.512023 1_455
Ni0 Ni12 2.595463 1_555
Ni0 Tb2 3.001904 1_555
Ni0 Tb3 3.024173 1_555
Ni0 Tb0 3.214268 1_555
Ni1 Ni20 2.397103 1_555
Ni1 Ni13 2.397117 1_565
Ni1 Ni25 2.401086 1_555
Ni1 Ni14 2.401093 1_565
Ni1 Ni29 2.482577 1_555
Ni1 Ni2 2.482581 1_555
Ni1 Ni27 2.512017 1_555
Ni1 Ni11 2.512023 1_565
Ni1 Ni12 2.595463 1_555
Ni1 Tb2 3.001904 1_665
Ni1 Tb3 3.024173 1_555
Ni1 Tb0 3.214268 1_665
Ni2 Ni29 2.356465 1_555
Ni2 Ni8 2.377563 1_565
Ni2 Ni31 2.482581 1_554
Ni2 Ni7 2.490356 1_555
Ni2 Ni21 2.512020 1_565
Ni2 Tb0 2.908057 1_665
Ni2 Tb1 2.970862 1_565
Ni3 Ni5 2.595463 1_555
Ni3 Ni4 2.697604 1_555
Ni3 Tb1 2.819101 1_555
Ni4 Ni8 2.377563 1_556
Ni4 Ni6 2.482581 1_556
Ni4 Ni5 2.482581 1_555
Ni4 Ni9 2.512020 1_545
Ni4 Tb2 2.908057 1_555
Ni4 Tb3 2.970862 1_545
Ni5 Ni7 2.512023 1_545
Ni5 Tb0 3.001904 1_555
Ni5 Tb1 3.024173 1_555
Ni5 Tb2 3.214268 1_555
Ni6 Ni9 2.397117 1_544
Ni6 Ni8 2.401093 1_555
Ni6 Ni7 2.512023 1_545
Ni6 Tb0 3.001904 1_555
Ni6 Tb1 3.024173 1_555
Ni6 Tb2 3.214268 1_554
Ni7 Ni8 2.377563 1_565
Ni7 Ni9 2.482578 1_554
Ni7 Tb0 2.908057 1_565
Ni7 Tb1 2.970866 1_565
Ni8 Ni9 2.401086 1_544
Ni8 Tb3 3.116276 1_544
Ni8 Tb1 3.116276 1_555
Ni9 Tb2 3.001909 1_565
Ni9 Tb3 3.024162 1_555
Ni9 Tb0 3.214273 1_566
Ni10 Ni30 2.356465 1_555
Ni10 Ni33 2.377563 1_555
Ni10 Ni25 2.377563 1_555
Ni10 Ni26 2.482577 1_554
Ni10 Ni29 2.490356 1_555
Ni10 Ni5 2.512017 1_555
Ni10 Ni6 2.512017 1_555
Ni10 Ni16 2.697607 1_555
Ni10 Ni12 2.697607 1_555
Ni10 Tb0 2.908057 1_555
Ni10 Tb1 2.970871 1_555
Ni11 Ni18 2.356465 1_555
Ni11 Ni14 2.377563 1_555
Ni11 Ni8 2.377563 1_556
Ni11 Ni13 2.482578 1_555
Ni11 Ni21 2.482578 1_556
Ni11 Ni4 2.490356 1_555
Ni11 Ni31 2.512023 1_545
Ni11 Ni3 2.697600 1_555
Ni11 Ni28 2.697600 1_555
Ni11 Tb2 2.908057 1_655
Ni11 Tb3 2.970866 1_545
Ni12 Ni16 2.368674 1_555
Ni12 Ni14 2.524363 1_565
Ni12 Ni15 2.524363 1_555
Ni12 Ni25 2.524369 1_555
Ni12 Ni24 2.595449 1_555
Ni12 Ni7 2.697600 1_555
Ni12 Ni32 2.697600 1_555
Ni12 Ni2 2.697604 1_555
Ni12 Ni30 2.697604 1_555
Ni12 Ni29 2.697607 1_555
Ni12 Tb3 2.819101 1_555
Ni13 Ni15 2.401086 1_655
Ni13 Ni14 2.401086 1_555
Ni13 Ni18 2.482578 1_555
Ni13 Ni2 2.512020 1_545
Ni13 Ni30 2.512020 1_655
Ni13 Ni3 2.595449 1_555
Ni13 Tb0 3.001909 1_655
Ni13 Tb1 3.024162 1_555
Ni13 Tb2 3.214273 1_655
Ni14 Ni4 2.377563 1_555
Ni14 Ni2 2.377563 1_545
Ni14 Ni7 2.377563 1_545
Ni14 Ni24 2.401086 1_545
Ni14 Ni5 2.401093 1_555
Ni14 Ni3 2.524363 1_555
Ni14 Tb3 3.116276 1_545
Ni14 Tb1 3.116276 1_555
Ni15 Ni30 2.377563 1_555
Ni15 Ni17 2.377563 1_455
Ni15 Ni32 2.377563 1_555
Ni15 Ni18 2.377563 1_455
Ni15 Ni24 2.401086 1_555
Ni15 Ni20 2.401093 1_455
Ni15 Ni3 2.524363 1_455
Ni15 Tb3 3.116276 1_555
Ni15 Tb1 3.116276 1_455
Ni16 Ni19 2.524363 1_555
Ni16 Ni8 2.524363 1_565
Ni16 Ni33 2.524369 1_555
Ni16 Ni9 2.595449 1_554
Ni16 Ni31 2.595463 1_554
Ni16 Ni26 2.595463 1_554
Ni16 Ni7 2.697600 1_555
Ni16 Ni32 2.697600 1_555
Ni16 Ni2 2.697604 1_555
Ni16 Ni30 2.697604 1_555
Ni16 Ni29 2.697607 1_555
Ni16 Tb3 2.819101 1_554
Ni17 Ni27 2.356465 1_555
Ni17 Ni19 2.377563 1_656
Ni17 Ni23 2.482581 1_556
Ni17 Ni20 2.482581 1_555
Ni17 Ni18 2.490356 1_555
Ni17 Ni24 2.512020 1_655
Ni17 Ni9 2.512020 1_655
Ni17 Ni3 2.697604 1_555
Ni17 Ni28 2.697604 1_555
Ni17 Tb2 2.908057 1_665
Ni17 Tb3 2.970862 1_655
Ni18 Ni19 2.377563 1_656
Ni18 Ni21 2.482578 1_556
Ni18 Ni26 2.512023 1_655
Ni18 Ni3 2.697600 1_555
Ni18 Ni28 2.697600 1_555
Ni18 Tb2 2.908057 1_655
Ni18 Tb3 2.970866 1_655
Ni19 Ni30 2.377563 1_555
Ni19 Ni32 2.377563 1_555
Ni19 Ni9 2.401086 1_554
Ni19 Ni21 2.401086 1_455
Ni19 Ni23 2.401093 1_455
Ni19 Ni26 2.401093 1_554
Ni19 Ni28 2.524363 1_454
Ni19 Tb3 3.116276 1_554
Ni19 Tb1 3.116276 1_455
Ni20 Ni24 2.397117 1_655
Ni20 Ni25 2.401086 1_555
Ni20 Ni27 2.482577 1_555
Ni20 Ni29 2.512017 1_555
Ni20 Ni32 2.512023 1_655
Ni20 Ni3 2.595463 1_555
Ni20 Tb0 3.001904 1_665
Ni20 Tb1 3.024173 1_555
Ni20 Tb2 3.214268 1_665
Ni21 Ni26 2.397117 1_654
Ni21 Ni31 2.397117 1_544
Ni21 Ni8 2.401086 1_555
Ni21 Ni30 2.512020 1_655
Ni21 Ni28 2.595449 1_554
Ni21 Tb0 3.001909 1_655
Ni21 Tb1 3.024162 1_555
Ni21 Tb2 3.214273 1_654
Ni22 Ni4 2.356465 1_555
Ni22 Ni33 2.377563 1_556
Ni22 Ni25 2.377563 1_555
Ni22 Ni5 2.482577 1_555
Ni22 Ni6 2.482577 1_556
Ni22 Ni27 2.490356 1_555
Ni22 Ni26 2.512017 1_555
Ni22 Ni3 2.697607 1_555
Ni22 Ni28 2.697607 1_555
Ni22 Tb2 2.908057 1_555
Ni22 Tb3 2.970871 1_555
Ni23 Ni31 2.397103 1_554
Ni23 Ni9 2.397117 1_654
Ni23 Ni33 2.401086 1_555
Ni23 Ni27 2.482577 1_554
Ni23 Ni29 2.512017 1_555
Ni23 Ni32 2.512023 1_655
Ni23 Ni28 2.595463 1_554
Ni23 Tb0 3.001904 1_665
Ni23 Tb1 3.024173 1_555
Ni23 Tb2 3.214268 1_664
Ni24 Ni5 2.397117 1_565
Ni24 Ni7 2.482578 1_555
Ni24 Ni32 2.482578 1_555
Ni24 Ni4 2.512020 1_565
Ni24 Tb2 3.001909 1_565
Ni24 Tb3 3.024162 1_555
Ni24 Tb0 3.214273 1_565
Ni25 Ni29 2.377563 1_555
Ni25 Ni27 2.377563 1_555
Ni25 Ni5 2.401086 1_555
Ni25 Ni3 2.524369 1_555
Ni25 Tb3 3.116281 1_555
Ni25 Tb1 3.116281 1_555
Ni26 Ni6 2.397103 1_556
Ni26 Ni33 2.401086 1_556
Ni26 Ni30 2.482581 1_556
Ni26 Tb2 3.001904 1_555
Ni26 Tb3 3.024173 1_555
Ni26 Tb0 3.214268 1_556
Ni27 Ni33 2.377563 1_556
Ni27 Ni31 2.512017 1_555
Ni27 Ni3 2.697607 1_555
Ni27 Ni28 2.697607 1_555
Ni27 Tb2 2.908057 1_665
Ni27 Tb3 2.970871 1_555
Ni28 Ni3 2.368674 1_555
Ni28 Ni8 2.524363 1_556
Ni28 Ni33 2.524369 1_556
Ni28 Ni6 2.595463 1_556
Ni28 Ni4 2.697604 1_555
Ni28 Tb1 2.819101 1_556
Ni29 Ni33 2.377563 1_555
Ni29 Ni31 2.482577 1_554
Ni29 Tb0 2.908057 1_665
Ni29 Tb1 2.970871 1_555
Ni30 Ni32 2.490356 1_555
Ni30 Tb0 2.908057 1_555
Ni30 Tb1 2.970862 1_455
Ni31 Ni33 2.401086 1_556
Ni31 Ni8 2.401093 1_566
Ni31 Tb2 3.001904 1_665
Ni31 Tb3 3.024173 1_555
Ni31 Tb0 3.214268 1_666
Ni32 Ni7 2.356465 1_555
Ni32 Ni9 2.482578 1_554
Ni32 Tb0 2.908057 1_565
Ni32 Tb1 2.970866 1_455
Ni33 Ni6 2.401086 1_555
Ni33 Tb1 3.116281 1_555
Ni33 Tb3 3.116281 1_554
