# generated using pymatgen
data_La6YbSe10
_symmetry_space_group_name_H-M   'P 1'
_cell_length_a   7.85731154
_cell_length_b   7.85502434
_cell_length_c   39.27334326
_cell_angle_alpha   109.31975472
_cell_angle_beta   109.55146910
_cell_angle_gamma   109.53406988
_symmetry_Int_Tables_number   1
_chemical_formula_structural   La6YbSe10
_chemical_formula_sum   'La24 Yb4 Se40'
_cell_volume   1866.12479388
_cell_formula_units_Z   4
loop_
 _symmetry_equiv_pos_site_id
 _symmetry_equiv_pos_as_xyz
  1  'x, y, z'
loop_
 _atom_site_type_symbol
 _atom_site_label
 _atom_site_symmetry_multiplicity
 _atom_site_fract_x
 _atom_site_fract_y
 _atom_site_fract_z
 _atom_site_occupancy
  La  La0  1  0.24214332  0.62564663  0.87301274  1
  La  La1  1  0.37516966  0.25205655  0.92442923  1
  La  La2  1  0.24629859  0.63060398  0.67778139  1
  La  La3  1  0.61414327  0.35804469  0.84832394  1
  La  La4  1  0.74579808  0.86751015  0.82262182  1
  La  La5  1  0.37582251  0.24864851  0.72547942  1
  La  La6  1  0.24199781  0.62509851  0.47285522  1
  La  La7  1  0.88398549  0.13547253  0.95162163  1
  La  La8  1  0.75242959  0.87649452  0.62440214  1
  La  La9  1  0.63305254  0.37813632  0.65245049  1
  La  La10  1  0.37440059  0.25151142  0.52452676  1
  La  La11  1  0.88413390  0.13222382  0.75145909  1
  La  La12  1  0.24566159  0.62962062  0.27741976  1
  La  La13  1  0.74491169  0.86659957  0.42222458  1
  La  La14  1  0.61347609  0.35725723  0.44809879  1
  La  La15  1  0.37513463  0.24808095  0.32522165  1
  La  La16  1  0.88174369  0.13100937  0.55064632  1
  La  La17  1  0.75110250  0.87563468  0.22409837  1
  La  La18  1  0.63319144  0.37781075  0.25221916  1
  La  La19  1  0.37390228  0.24875256  0.12460572  1
  La  La20  1  0.88378169  0.13177736  0.35126427  1
  La  La21  1  0.75004485  0.87445188  0.02435546  1
  La  La22  1  0.62740189  0.37554796  0.05072245  1
  La  La23  1  0.87416487  0.12444354  0.14978775  1
  Se  Se0  1  0.99812745  0.85527882  0.89963522  1
  Se  Se1  1  0.00482600  0.36151191  0.90175976  1
  Se  Se2  1  0.49580135  1.00078334  0.97078902  1
  Se  Se3  1  0.99490614  0.85140152  0.69814549  1
  Se  Se4  1  0.51306753  0.00732715  0.87335908  1
  Se  Se5  1  0.15154398  0.15928885  0.83204808  1
  Se  Se6  1  0.99900044  0.33820574  0.69882033  1
  Se  Se7  1  0.35550671  0.49360283  0.80069220  1
  Se  Se8  1  0.50261154  -0.00008748  0.76883467  1
  Se  Se9  1  0.64592818  0.65207471  0.92936370  1
  Se  Se10  1  0.99780018  0.85406149  0.49924164  1
  Se  Se11  1  0.50220164  0.99919510  0.67067747  1
  Se  Se12  1  0.15236664  0.14222963  0.62892609  1
  Se  Se13  1  0.00504042  0.36106989  0.50178738  1
  Se  Se14  1  0.35637396  0.49985503  0.60078001  1
  Se  Se15  1  0.99447810  0.85077713  0.29782014  1
  Se  Se16  1  0.63557859  0.64406073  0.72848373  1
  Se  Se17  1  0.84067119  0.49673881  0.79986618  1
  Se  Se18  1  0.51122704  0.00648857  0.47297923  1
  Se  Se19  1  0.15109841  0.15904891  0.43202753  1
  Se  Se20  1  0.99915514  0.33819597  0.29872069  1
  Se  Se21  1  0.35521696  0.49307280  0.40057493  1
  Se  Se22  1  0.49643180  0.00299387  0.57060794  1
  Se  Se23  1  0.99716069  0.85332878  0.09970818  1
  Se  Se24  1  0.64617238  0.65111823  0.52909770  1
  Se  Se25  1  0.85352284  0.50182765  0.59932418  1
  Se  Se26  1  0.50185566  0.99884936  0.27055782  1
  Se  Se27  1  0.15022706  0.14031276  0.22826625  1
  Se  Se28  1  0.00458643  0.35589404  0.10021632  1
  Se  Se29  1  0.35458075  0.49805386  0.20030690  1
  Se  Se30  1  0.50232619  -0.00032752  0.36871571  1
  Se  Se31  1  0.63503779  0.64363106  0.32832678  1
  Se  Se32  1  0.84052031  0.49632155  0.39976271  1
  Se  Se33  1  0.50020489  0.99553215  0.07064562  1
  Se  Se34  1  0.14967411  0.14150030  0.02954169  1
  Se  Se35  1  0.35644508  0.49898833  0.00015218  1
  Se  Se36  1  0.49703154  0.00438829  0.17086126  1
  Se  Se37  1  0.63947918  0.64735645  0.12869531  1
  Se  Se38  1  0.85329153  0.50062072  0.19882799  1
  Se  Se39  1  0.85653141  0.50554565  0.00062358  1
  Yb  Yb0  1  0.12573108  0.75009145  0.97579806  1
  Yb  Yb1  1  0.12697877  0.75103685  0.57503439  1
  Yb  Yb2  1  0.12737736  0.74921892  0.17446540  1
  Yb  Yb3  1  0.24841297  0.62710167  0.07550327  1
loop_
_geom_bond_atom_site_label_1
_geom_bond_atom_site_label_2
_geom_bond_distance
_geom_bond_site_symmetry_2
La0 Se17 3.017053 1_455
La0 Se4 3.034141 1_565
La0 Se1 3.070525 1_555
La0 Se9 3.092371 1_555
La0 Se5 3.178746 1_555
La0 Se7 3.209077 1_555
La0 Se0 3.229459 1_455
La0 Se2 3.296049 1_555
La1 Se4 3.031248 1_555
La1 Se9 3.047538 1_555
La1 Se35 3.048745 1_556
La1 Se0 3.053698 1_445
La1 Se5 3.147894 1_555
La1 Se1 3.231873 1_555
La1 Se2 3.253143 1_545
La1 Se39 3.266559 1_556
La2 Se16 2.983267 1_555
La2 Se6 3.013209 1_455
La2 Se11 3.085508 1_555
La2 Se25 3.086621 1_455
La2 Se8 3.109295 1_565
La2 Se3 3.159093 1_455
La2 Se12 3.351271 1_555
La2 Se14 3.352249 1_555
La3 Se7 2.997275 1_555
La3 Se8 3.022716 1_555
La3 Se1 3.069618 1_655
La3 Se9 3.121643 1_555
La3 Se4 3.168383 1_555
La3 Se5 3.169768 1_555
La3 Se17 3.212321 1_555
La3 Se0 3.355762 1_555
La4 Se8 3.045666 1_565
La4 Se7 3.050839 1_555
La4 Se5 3.052229 1_665
La4 Se0 3.064994 1_555
La4 Se17 3.164188 1_555
La4 Se16 3.169566 1_555
La4 Se4 3.294609 1_565
La4 Se1 3.371089 1_665
La5 Se16 3.030457 1_555
La5 Se7 3.035338 1_555
La5 Se3 3.038873 1_445
La5 Se11 3.065762 1_545
La5 Se17 3.162931 1_555
La5 Se8 3.174382 1_555
La5 Se6 3.187925 1_455
La5 Se12 3.259682 1_555
La6 Se32 3.016375 1_455
La6 Se18 3.032391 1_565
La6 Se13 3.074384 1_555
La6 Se24 3.094869 1_555
La6 Se19 3.175500 1_555
La6 Se21 3.206910 1_555
La6 Se10 3.224188 1_455
La6 Se22 3.301620 1_565
La7 Se4 2.991613 1_555
La7 Se39 3.032481 1_556
La7 Se34 3.047495 1_656
La7 Se0 3.064169 1_545
La7 Se35 3.184600 1_656
La7 Se1 3.210371 1_655
La7 Se9 3.261989 1_545
La7 Se2 3.300718 1_545
La8 Se3 2.998687 1_555
La8 Se12 3.042685 1_665
La8 Se22 3.062367 1_565
La8 Se14 3.064697 1_555
La8 Se6 3.153797 1_565
La8 Se24 3.221212 1_555
La8 Se25 3.229754 1_555
La8 Se11 3.255342 1_555
La9 Se16 3.014256 1_555
La9 Se6 3.026362 1_555
La9 Se22 3.078165 1_555
La9 Se14 3.078836 1_555
La9 Se3 3.197897 1_555
La9 Se11 3.207101 1_545
La9 Se12 3.225478 1_555
La9 Se25 3.306518 1_555
La10 Se18 3.036578 1_555
La10 Se10 3.048442 1_445
La10 Se24 3.055017 1_555
La10 Se14 3.065454 1_555
La10 Se19 3.152586 1_555
La10 Se13 3.225650 1_555
La10 Se22 3.230054 1_555
La10 Se25 3.239449 1_555
La11 Se5 3.046682 1_655
La11 Se17 3.068521 1_555
La11 Se3 3.074898 1_545
La11 Se11 3.082195 1_545
La11 Se7 3.171503 1_655
La11 Se6 3.192445 1_555
La11 Se8 3.207370 1_555
La11 Se16 3.294708 1_545
La12 Se31 2.984089 1_555
La12 Se20 3.012988 1_455
La12 Se26 3.084237 1_555
La12 Se38 3.087199 1_455
La12 Se30 3.117075 1_565
La12 Se15 3.159928 1_455
La12 Se29 3.350729 1_555
La12 Se27 3.354978 1_555
La13 Se30 3.040862 1_565
La13 Se19 3.049715 1_665
La13 Se21 3.050595 1_555
La13 Se10 3.067931 1_555
La13 Se31 3.161682 1_555
La13 Se32 3.163724 1_555
La13 Se18 3.301770 1_565
La13 Se13 3.378365 1_665
La14 Se21 2.994946 1_555
La14 Se30 3.019083 1_555
La14 Se13 3.076882 1_655
La14 Se24 3.116309 1_555
La14 Se18 3.165196 1_555
La14 Se19 3.170773 1_555
La14 Se32 3.211680 1_555
La14 Se10 3.354918 1_555
La15 Se31 3.029597 1_555
La15 Se15 3.037227 1_445
La15 Se21 3.037902 1_555
La15 Se26 3.063693 1_545
La15 Se32 3.167562 1_555
La15 Se30 3.176612 1_555
La15 Se20 3.184260 1_455
La15 Se27 3.271327 1_555
La16 Se18 2.985684 1_555
La16 Se25 3.036337 1_555
La16 Se10 3.048365 1_545
La16 Se12 3.049694 1_655
La16 Se13 3.202211 1_655
La16 Se14 3.203751 1_655
La16 Se24 3.244469 1_545
La16 Se22 3.296349 1_555
La17 Se15 2.999293 1_555
La17 Se27 3.042225 1_665
La17 Se36 3.055370 1_565
La17 Se29 3.068384 1_555
La17 Se20 3.159862 1_565
La17 Se37 3.213470 1_555
La17 Se38 3.238472 1_555
La17 Se26 3.254545 1_555
La18 Se31 3.019154 1_555
La18 Se20 3.026570 1_555
La18 Se36 3.061013 1_555
La18 Se29 3.083933 1_555
La18 Se15 3.195357 1_555
La18 Se26 3.210368 1_545
La18 Se27 3.237436 1_555
La18 Se38 3.311806 1_555
La19 Se37 3.042583 1_555
La19 Se23 3.044798 1_445
La19 Se29 3.057028 1_555
La19 Se33 3.061162 1_545
La19 Se34 3.205674 1_555
La19 Se36 3.208316 1_555
La19 Se28 3.217545 1_555
La19 Se38 3.232793 1_555
La20 Se19 3.051007 1_655
La20 Se32 3.068949 1_555
La20 Se15 3.078032 1_545
La20 Se26 3.080684 1_545
La20 Se21 3.171397 1_655
La20 Se20 3.192509 1_555
La20 Se30 3.208652 1_555
La20 Se31 3.295220 1_545
La21 Se34 3.030817 1_665
La21 Se35 3.040409 1_555
La21 Se23 3.041352 1_555
La21 Se2 3.048821 1_554
La21 Se39 3.212796 1_555
La21 Se9 3.213715 1_554
La21 Se33 3.249052 1_555
La21 Se28 3.267507 1_665
La22 Se28 3.038791 1_655
La22 Se35 3.040050 1_555
La22 Se2 3.044176 1_544
La22 Se37 3.047751 1_555
La22 Se23 3.227514 1_555
La22 Se34 3.231894 1_555
La22 Se33 3.255042 1_545
La22 Se39 3.259765 1_555
La23 Se33 3.022406 1_545
La23 Se23 3.035545 1_545
La23 Se38 3.039320 1_555
La23 Se27 3.051286 1_655
La23 Se37 3.229985 1_545
La23 Se29 3.244133 1_655
La23 Se28 3.252228 1_655
La23 Se36 3.262559 1_555
Se0 Yb0 3.288932 1_655
Se1 Yb0 3.002234 1_555
Se2 Yb0 3.030102 1_555
Se9 Yb0 3.264878 1_655
Se10 Yb1 3.265963 1_655
Se11 Yb1 3.240525 1_555
Se12 Yb1 2.994300 1_545
Se13 Yb1 2.989712 1_555
Se14 Yb1 3.262274 1_555
Se22 Yb1 3.016194 1_545
Se23 Yb3 3.231582 1_655
Se23 Yb2 3.236229 1_655
Se24 Yb1 3.265177 1_655
Se25 Yb1 3.025447 1_655
Se26 Yb2 3.249281 1_555
Se27 Yb2 3.002750 1_545
Se28 Yb3 3.005665 1_555
Se28 Yb2 3.023542 1_555
Se29 Yb2 3.252209 1_555
Se33 Yb3 3.019098 1_555
Se33 Yb0 3.220053 1_554
Se34 Yb0 2.999445 1_544
Se34 Yb3 3.307228 1_555
Se35 Yb0 3.251217 1_554
Se35 Yb3 3.282172 1_555
Se36 Yb2 3.007209 1_545
Se36 Yb3 3.242274 1_545
Se37 Yb3 2.997978 1_555
Se37 Yb2 3.309455 1_655
Se38 Yb2 3.028151 1_655
Se39 Yb0 3.002815 1_654
Se39 Yb3 3.025933 1_655
