# generated using pymatgen
data_Cd3(BO3)2
_symmetry_space_group_name_H-M   'P 1'
_cell_length_a   4.79805484
_cell_length_b   6.00790309
_cell_length_c   9.06162771
_cell_angle_alpha   90.00000000
_cell_angle_beta   90.00000000
_cell_angle_gamma   90.00000000
_symmetry_Int_Tables_number   1
_chemical_formula_structural   Cd3(BO3)2
_chemical_formula_sum   'Cd6 B4 O12'
_cell_volume   261.21273218
_cell_formula_units_Z   2
loop_
 _symmetry_equiv_pos_site_id
 _symmetry_equiv_pos_as_xyz
  1  'x, y, z'
loop_
 _atom_site_type_symbol
 _atom_site_label
 _atom_site_symmetry_multiplicity
 _atom_site_fract_x
 _atom_site_fract_y
 _atom_site_fract_z
 _atom_site_occupancy
  Cd  Cd0  1  0.00000000  0.50000000  0.18852645  1
  Cd  Cd1  1  0.50000000  0.00000000  0.31147355  1
  Cd  Cd2  1  0.00000000  0.50000000  0.81147355  1
  Cd  Cd3  1  0.50000000  0.00000000  0.68852645  1
  Cd  Cd4  1  0.50000000  0.50000000  0.50000000  1
  Cd  Cd5  1  0.00000000  0.00000000  0.00000000  1
  B  B0  1  0.03451458  0.24024695  0.50000000  1
  B  B1  1  0.46548542  0.74024695  0.00000000  1
  B  B2  1  0.96548542  0.75975305  0.50000000  1
  B  B3  1  0.53451458  0.25975305  0.00000000  1
  O  O0  1  0.32076474  0.78220282  0.86946140  1
  O  O1  1  0.82076474  0.71779718  0.63053860  1
  O  O2  1  0.32076474  0.78220282  0.13053860  1
  O  O3  1  0.67923526  0.21779718  0.13053860  1
  O  O4  1  0.82076474  0.71779718  0.36946140  1
  O  O5  1  0.17923526  0.28220282  0.36946140  1
  O  O6  1  0.74201895  0.67955319  0.00000000  1
  O  O7  1  0.24201895  0.82044681  0.50000000  1
  O  O8  1  0.75798105  0.17955319  0.50000000  1
  O  O9  1  0.25798105  0.32044681  0.00000000  1
  O  O10  1  0.67923526  0.21779718  0.86946140  1
  O  O11  1  0.17923526  0.28220282  0.63053860  1
loop_
_geom_bond_atom_site_label_1
_geom_bond_atom_site_label_2
_geom_bond_distance
_geom_bond_site_symmetry_2
Cd0 O5 2.267140 1_555
Cd0 O4 2.267140 1_455
Cd0 O2 2.349323 1_555
Cd0 O3 2.349323 1_455
Cd0 O9 2.369457 1_555
Cd0 O6 2.369457 1_455
Cd1 O3 2.267140 1_555
Cd1 O2 2.267140 1_545
Cd1 O4 2.349323 1_545
Cd1 O5 2.349323 1_555
Cd1 O7 2.369457 1_545
Cd1 O8 2.369457 1_555
Cd2 O11 2.267140 1_555
Cd2 O1 2.267140 1_455
Cd2 O0 2.349323 1_555
Cd2 O10 2.349323 1_455
Cd2 O9 2.369457 1_556
Cd2 O6 2.369457 1_456
Cd3 O10 2.267140 1_555
Cd3 O0 2.267140 1_545
Cd3 O1 2.349323 1_545
Cd3 O11 2.349323 1_555
Cd3 O7 2.369457 1_545
Cd3 O8 2.369457 1_555
Cd4 O8 2.288802 1_555
Cd4 O7 2.288802 1_555
Cd4 O11 2.340958 1_555
Cd4 O5 2.340958 1_555
Cd4 O1 2.340958 1_555
Cd4 O4 2.340958 1_555
Cd5 O6 2.288802 1_445
Cd5 O9 2.288802 1_555
Cd5 O0 2.340958 1_544
Cd5 O10 2.340958 1_454
Cd5 O2 2.340958 1_545
Cd5 O3 2.340958 1_455
B0 O8 1.376017 1_455
B0 O11 1.394608 1_555
B0 O5 1.394608 1_555
B1 O6 1.376017 1_555
B1 O0 1.394608 1_554
B1 O2 1.394608 1_555
B2 O7 1.376017 1_655
B2 O1 1.394608 1_555
B2 O4 1.394608 1_555
B3 O9 1.376017 1_555
B3 O10 1.394608 1_554
B3 O3 1.394608 1_555
