# generated using pymatgen
data_FeS3N2Cl5
_symmetry_space_group_name_H-M   'P 1'
_cell_length_a   10.89677000
_cell_length_b   9.57696900
_cell_length_c   14.91544794
_cell_angle_alpha   51.75236535
_cell_angle_beta   90.00000000
_cell_angle_gamma   90.00000000
_symmetry_Int_Tables_number   1
_chemical_formula_structural   FeS3N2Cl5
_chemical_formula_sum   'Fe4 S12 N8 Cl20'
_cell_volume   1222.42229086
_cell_formula_units_Z   4
loop_
 _symmetry_equiv_pos_site_id
 _symmetry_equiv_pos_as_xyz
  1  'x, y, z'
loop_
 _atom_site_type_symbol
 _atom_site_label
 _atom_site_symmetry_multiplicity
 _atom_site_fract_x
 _atom_site_fract_y
 _atom_site_fract_z
 _atom_site_occupancy
  Fe  Fe0  1  0.36574800  0.21786300  0.30862800  1
  Fe  Fe1  1  0.86574800  0.78213700  0.19137200  1
  Fe  Fe2  1  0.63425200  0.78213700  0.69137200  1
  Fe  Fe3  1  0.13425200  0.21786300  0.80862800  1
  S  S0  1  0.23531100  0.66826700  0.38757100  1
  S  S1  1  0.73531100  0.33173300  0.11242900  1
  S  S2  1  0.25196500  0.84450000  0.19528200  1
  S  S3  1  0.24803500  0.84450000  0.69528200  1
  S  S4  1  0.74803500  0.15550000  0.80471800  1
  S  S5  1  0.76468900  0.33173300  0.61242900  1
  S  S6  1  0.03104300  0.67633500  0.80857400  1
  S  S7  1  0.26468900  0.66826700  0.88757100  1
  S  S8  1  0.46895700  0.67633500  0.30857400  1
  S  S9  1  0.75196500  0.15550000  0.30471800  1
  S  S10  1  0.53104300  0.32366500  0.69142600  1
  S  S11  1  0.96895700  0.32366500  0.19142600  1
  N  N0  1  0.62273600  0.36980600  0.59036500  1
  N  N1  1  0.39162000  0.79673200  0.19634500  1
  N  N2  1  0.87726400  0.36980600  0.09036500  1
  N  N3  1  0.37726400  0.63019400  0.40963500  1
  N  N4  1  0.10838000  0.79673200  0.69634500  1
  N  N5  1  0.60838000  0.20326800  0.80365500  1
  N  N6  1  0.89162000  0.20326800  0.30365500  1
  N  N7  1  0.12273600  0.63019400  0.90963500  1
  Cl  Cl0  1  0.35218300  0.44377700  0.91976900  1
  Cl  Cl1  1  0.52775600  0.74704200  0.58117800  1
  Cl  Cl2  1  0.02775600  0.25295800  0.91882200  1
  Cl  Cl3  1  0.70999900  0.96497500  0.09847600  1
  Cl  Cl4  1  0.01192800  0.11037400  0.74373000  1
  Cl  Cl5  1  0.79429000  0.52132900  0.33710600  1
  Cl  Cl6  1  0.48807200  0.11037400  0.24373000  1
  Cl  Cl7  1  0.20571000  0.47867100  0.66289400  1
  Cl  Cl8  1  0.47224400  0.25295800  0.41882200  1
  Cl  Cl9  1  0.29000100  0.03502500  0.90152400  1
  Cl  Cl10  1  0.70571000  0.52132900  0.83710600  1
  Cl  Cl11  1  0.29429000  0.47867100  0.16289400  1
  Cl  Cl12  1  0.14781700  0.44377700  0.41976900  1
  Cl  Cl13  1  0.98807200  0.88962600  0.25627000  1
  Cl  Cl14  1  0.20999900  0.03502500  0.40152400  1
  Cl  Cl15  1  0.79000100  0.96497500  0.59847600  1
  Cl  Cl16  1  0.64781700  0.55622300  0.08023100  1
  Cl  Cl17  1  0.85218300  0.55622300  0.58023100  1
  Cl  Cl18  1  0.51192800  0.88962600  0.75627000  1
  Cl  Cl19  1  0.97224400  0.74704200  0.08117800  1
loop_
_geom_bond_atom_site_label_1
_geom_bond_atom_site_label_2
_geom_bond_distance
_geom_bond_site_symmetry_2
N0 S5 1.576504 1_555
N0 S10 1.625128 1_555
N1 S8 1.565900 1_555
N1 S2 1.586314 1_555
N2 S1 1.576504 1_555
N2 S11 1.625128 1_555
N3 S0 1.576504 1_555
N3 S8 1.625128 1_555
N4 S6 1.565900 1_555
N4 S3 1.586314 1_555
N5 S10 1.565900 1_555
N5 S4 1.586314 1_555
N6 S11 1.565900 1_555
N6 S9 1.586314 1_555
N7 S7 1.576504 1_555
N7 S6 1.625128 1_555
Cl0 S7 2.117420 1_555
Cl1 Fe2 2.201135 1_555
Cl2 Fe3 2.201135 1_555
Cl3 Fe1 2.205080 1_555
Cl4 Fe3 2.237667 1_555
Cl5 Fe1 2.201774 1_555
Cl6 Fe0 2.237667 1_555
Cl7 Fe3 2.201774 1_555
Cl8 Fe0 2.201135 1_555
Cl9 Fe3 2.205080 1_555
Cl10 Fe2 2.201774 1_555
Cl11 Fe0 2.201774 1_555
Cl12 S0 2.117420 1_555
Cl13 Fe1 2.237667 1_555
Cl14 Fe0 2.205080 1_555
Cl15 Fe2 2.205080 1_555
Cl16 S1 2.117420 1_555
Cl17 S5 2.117420 1_555
Cl18 Fe2 2.237667 1_555
Cl19 Fe1 2.201135 1_555
