# generated using pymatgen
data_PtN2
_symmetry_space_group_name_H-M   'P 1'
_cell_length_a   3.20025600
_cell_length_b   3.76441500
_cell_length_c   4.87588000
_cell_angle_alpha   90.00000000
_cell_angle_beta   90.00000000
_cell_angle_gamma   90.00000000
_symmetry_Int_Tables_number   1
_chemical_formula_structural   PtN2
_chemical_formula_sum   'Pt2 N4'
_cell_volume   58.74017343
_cell_formula_units_Z   2
loop_
 _symmetry_equiv_pos_site_id
 _symmetry_equiv_pos_as_xyz
  1  'x, y, z'
loop_
 _atom_site_type_symbol
 _atom_site_label
 _atom_site_symmetry_multiplicity
 _atom_site_fract_x
 _atom_site_fract_y
 _atom_site_fract_z
 _atom_site_occupancy
  Pt  Pt0  1  0.00000000  0.00000000  0.00000000  1
  Pt  Pt1  1  0.50000000  0.50000000  0.50000000  1
  N  N0  1  0.50000000  0.35094200  0.91489000  1
  N  N1  1  0.50000000  0.64905800  0.08511000  1
  N  N2  1  0.00000000  0.14905800  0.41489000  1
  N  N3  1  0.00000000  0.85094200  0.58511000  1
loop_
_geom_bond_atom_site_label_1
_geom_bond_atom_site_label_2
_geom_bond_distance
_geom_bond_site_symmetry_2
N0 N1 1.395801 1_556
N0 Pt1 2.099332 1_555
N0 Pt0 2.116106 1_556
N0 Pt0 2.116106 1_656
N1 Pt1 2.099332 1_555
N1 Pt0 2.116106 1_565
N1 Pt0 2.116106 1_665
N2 N3 1.395801 1_545
N2 Pt0 2.099332 1_555
N2 Pt1 2.116106 1_555
N2 Pt1 2.116106 1_455
N3 Pt0 2.099332 1_566
N3 Pt1 2.116106 1_455
N3 Pt1 2.116106 1_555
