# generated using pymatgen
data_Nb6Fe16Si7
_symmetry_space_group_name_H-M   'P 1'
_cell_length_a   7.88599292
_cell_length_b   7.88599419
_cell_length_c   7.88599183
_cell_angle_alpha   60.00004467
_cell_angle_beta   60.00003814
_cell_angle_gamma   60.00006181
_symmetry_Int_Tables_number   1
_chemical_formula_structural   Nb6Fe16Si7
_chemical_formula_sum   'Nb6 Fe16 Si7'
_cell_volume   346.78047366
_cell_formula_units_Z   1
loop_
 _symmetry_equiv_pos_site_id
 _symmetry_equiv_pos_as_xyz
  1  'x, y, z'
loop_
 _atom_site_type_symbol
 _atom_site_label
 _atom_site_symmetry_multiplicity
 _atom_site_fract_x
 _atom_site_fract_y
 _atom_site_fract_z
 _atom_site_occupancy
  Nb  Nb0  1  0.79298729  0.20701812  0.79298605  1
  Nb  Nb1  1  0.79298080  0.79298777  0.20701947  1
  Nb  Nb2  1  0.20701497  0.79298213  0.20701788  1
  Nb  Nb3  1  0.20701233  0.20701656  0.79297971  1
  Nb  Nb4  1  0.20701875  0.79298844  0.79298002  1
  Nb  Nb5  1  0.79298086  0.20701477  0.20701329  1
  Fe  Fe0  1  0.86105478  0.37965346  0.37964543  1
  Fe  Fe1  1  0.62034594  0.62035446  0.13894909  1
  Fe  Fe2  1  0.37964547  0.37965497  0.86105172  1
  Fe  Fe3  1  0.82566402  0.52300639  0.82566053  1
  Fe  Fe4  1  0.82566954  0.82566207  0.82566636  1
  Fe  Fe5  1  0.82566445  0.82565680  0.52300927  1
  Fe  Fe6  1  0.37964283  0.37965267  0.37964468  1
  Fe  Fe7  1  0.13894754  0.62035408  0.62034803  1
  Fe  Fe8  1  0.62034949  0.62035804  0.62035150  1
  Fe  Fe9  1  0.17434011  0.17432956  0.17434020  1
  Fe  Fe10  1  0.17434233  0.47698629  0.17434247  1
  Fe  Fe11  1  0.52300782  0.82565835  0.82566267  1
  Fe  Fe12  1  0.62034996  0.13894306  0.62035224  1
  Fe  Fe13  1  0.17434636  0.17433581  0.47698487  1
  Fe  Fe14  1  0.37964742  0.86105443  0.37964872  1
  Fe  Fe15  1  0.47698532  0.17433570  0.17434626  1
  Si  Si0  1  0.49999626  1.00000584  1.00000206  1
  Si  Si1  1  1.00000536  0.49999351  1.00000578  1
  Si  Si2  1  0.49999629  0.49999384  1.00000463  1
  Si  Si3  1  0.50000017  0.49999940  0.49999989  1
  Si  Si4  1  1.00000448  0.49999389  0.49999570  1
  Si  Si5  1  1.00000240  1.00000628  0.49999563  1
  Si  Si6  1  0.49999666  1.00000532  0.49999583  1
loop_
_geom_bond_atom_site_label_1
_geom_bond_atom_site_label_2
_geom_bond_distance
_geom_bond_site_symmetry_2
Nb0 Si4 2.828998 1_555
Nb0 Si2 2.829005 1_555
Nb0 Si5 2.829051 1_545
Nb0 Si0 2.829056 1_545
Nb1 Si6 2.828997 1_555
Nb1 Si4 2.829034 1_555
Nb1 Si0 2.829041 1_554
Nb1 Si1 2.829077 1_554
Nb2 Si4 2.829024 1_455
Nb2 Si5 2.829039 1_455
Nb2 Si2 2.829041 1_554
Nb2 Si0 2.829056 1_554
Nb3 Si4 2.828989 1_455
Nb3 Si6 2.829010 1_545
Nb3 Si1 2.829050 1_455
Nb3 Si0 2.829071 1_545
Nb4 Si6 2.829002 1_555
Nb4 Si5 2.829034 1_455
Nb4 Si2 2.829046 1_555
Nb4 Si1 2.829078 1_455
Nb5 Si2 2.828997 1_554
Nb5 Si6 2.829001 1_545
Nb5 Si1 2.829052 1_554
Nb5 Si5 2.829058 1_545
Fe0 Si3 2.324791 1_555
Fe0 Fe10 2.442924 1_655
Fe0 Fe9 2.442952 1_655
Fe0 Fe13 2.442976 1_655
Fe0 Si1 2.445925 1_554
Fe0 Si4 2.445928 1_555
Fe0 Si5 2.445973 1_545
Fe0 Fe1 2.684432 1_555
Fe0 Fe8 2.684462 1_555
Fe0 Fe12 2.684487 1_555
Fe0 Nb1 2.703654 1_555
Fe0 Nb0 2.703703 1_555
Fe0 Nb5 2.703721 1_555
Fe1 Si3 2.324766 1_555
Fe1 Fe11 2.442937 1_554
Fe1 Fe4 2.442953 1_554
Fe1 Fe3 2.442989 1_554
Fe1 Si0 2.446000 1_554
Fe1 Si2 2.446017 1_554
Fe1 Si1 2.446049 1_554
Fe1 Fe14 2.684400 1_555
Fe1 Fe6 2.684429 1_555
Fe1 Nb2 2.703637 1_555
Fe1 Nb1 2.703684 1_555
Fe1 Nb5 2.703702 1_555
Fe2 Si3 2.324772 1_555
Fe2 Fe9 2.442967 1_556
Fe2 Si1 2.445929 1_455
Fe2 Si2 2.445942 1_555
Fe2 Si0 2.445986 1_545
Fe2 Fe7 2.684412 1_555
Fe2 Fe8 2.684442 1_555
Fe2 Nb4 2.703651 1_555
Fe2 Nb0 2.703714 1_555
Fe2 Nb3 2.703716 1_555
Fe3 Si4 2.281324 1_555
Fe3 Si2 2.281344 1_555
Fe3 Si1 2.281384 1_555
Fe3 Fe5 2.386704 1_555
Fe3 Fe4 2.386786 1_555
Fe3 Fe8 2.442892 1_555
Fe3 Fe7 2.442954 1_655
Fe3 Nb0 2.773605 1_555
Fe3 Nb3 2.773653 1_655
Fe3 Nb5 2.773679 1_556
Fe4 Si1 2.281335 1_555
Fe4 Si5 2.281348 1_555
Fe4 Si0 2.281366 1_555
Fe4 Fe5 2.386792 1_555
Fe4 Fe7 2.442921 1_655
Fe4 Nb4 2.773653 1_655
Fe4 Nb1 2.773673 1_556
Fe4 Nb0 2.773699 1_565
Fe5 Si4 2.281315 1_555
Fe5 Si6 2.281347 1_555
Fe5 Si5 2.281387 1_555
Fe5 Fe8 2.442853 1_555
Fe5 Fe7 2.442918 1_655
Fe5 Nb1 2.773623 1_555
Fe5 Nb2 2.773667 1_655
Fe5 Nb5 2.773717 1_565
Fe6 Si3 2.324819 1_555
Fe6 Si4 2.445916 1_455
Fe6 Si2 2.445926 1_554
Fe6 Si6 2.445973 1_545
Fe6 Fe7 2.684429 1_555
Fe6 Nb2 2.703621 1_555
Fe6 Nb3 2.703665 1_555
Fe6 Nb5 2.703685 1_555
Fe7 Si3 2.324778 1_555
Fe7 Si5 2.446005 1_455
Fe7 Si4 2.446023 1_455
Fe7 Si1 2.446038 1_455
Fe7 Nb2 2.703633 1_555
Fe7 Nb4 2.703676 1_555
Fe7 Nb3 2.703687 1_555
Fe8 Si3 2.324821 1_555
Fe8 Si6 2.445972 1_555
Fe8 Si2 2.446007 1_555
Fe8 Si4 2.446019 1_555
Fe8 Nb4 2.703632 1_555
Fe8 Nb1 2.703641 1_555
Fe8 Nb0 2.703700 1_555
Fe9 Si5 2.281241 1_445
Fe9 Si0 2.281248 1_544
Fe9 Si1 2.281300 1_454
Fe9 Nb2 2.773663 1_545
Fe9 Nb5 2.773737 1_455
Fe9 Nb3 2.773743 1_554
Fe10 Si4 2.281231 1_455
Fe10 Si2 2.281237 1_554
Fe10 Si1 2.281319 1_454
Fe10 Fe13 2.386669 1_555
Fe10 Fe15 2.386673 1_555
Fe10 Fe9 2.386767 1_555
Fe10 Fe6 2.442804 1_555
Fe10 Fe2 2.442939 1_554
Fe10 Nb2 2.773649 1_555
Fe10 Nb1 2.773752 1_455
Fe10 Nb4 2.773757 1_554
Fe11 Si2 2.281320 1_555
Fe11 Si6 2.281334 1_555
Fe11 Si0 2.281392 1_555
Fe11 Fe3 2.386730 1_555
Fe11 Fe5 2.386737 1_555
Fe11 Fe4 2.386817 1_555
Fe11 Fe8 2.442840 1_555
Fe11 Fe12 2.442941 1_565
Fe11 Nb4 2.773617 1_555
Fe11 Nb2 2.773693 1_556
Fe11 Nb3 2.773717 1_565
Fe12 Si3 2.324803 1_555
Fe12 Fe5 2.442955 1_545
Fe12 Fe4 2.442958 1_545
Fe12 Si6 2.445970 1_545
Fe12 Si0 2.445986 1_545
Fe12 Si5 2.446004 1_545
Fe12 Fe2 2.684466 1_555
Fe12 Fe6 2.684485 1_555
Fe12 Nb3 2.703676 1_555
Fe12 Nb5 2.703687 1_555
Fe12 Nb0 2.703730 1_555
Fe13 Si6 2.281221 1_545
Fe13 Si4 2.281274 1_455
Fe13 Si5 2.281304 1_445
Fe13 Fe15 2.386609 1_555
Fe13 Fe9 2.386703 1_555
Fe13 Fe6 2.442856 1_555
Fe13 Fe14 2.442897 1_545
Fe13 Nb3 2.773634 1_555
Fe13 Nb4 2.773665 1_545
Fe13 Nb0 2.773738 1_455
Fe14 Si3 2.324794 1_555
Fe14 Fe9 2.442873 1_565
Fe14 Fe15 2.442902 1_565
Fe14 Si5 2.445960 1_455
Fe14 Si0 2.445970 1_554
Fe14 Si6 2.445971 1_555
Fe14 Fe7 2.684403 1_555
Fe14 Fe8 2.684430 1_555
Fe14 Nb4 2.703642 1_555
Fe14 Nb1 2.703656 1_555
Fe14 Nb2 2.703662 1_555
Fe15 Si6 2.281217 1_545
Fe15 Si2 2.281275 1_554
Fe15 Si0 2.281307 1_544
Fe15 Fe9 2.386706 1_555
Fe15 Fe6 2.442864 1_555
Fe15 Fe2 2.442997 1_554
Fe15 Nb5 2.773637 1_555
Fe15 Nb1 2.773670 1_545
Fe15 Nb0 2.773746 1_554
