# generated using pymatgen
data_H12RhC8NO6
_symmetry_space_group_name_H-M   'P 1'
_cell_length_a   6.59822600
_cell_length_b   11.54191400
_cell_length_c   16.95506900
_cell_angle_alpha   90.00000000
_cell_angle_beta   90.00000000
_cell_angle_gamma   90.00000000
_symmetry_Int_Tables_number   1
_chemical_formula_structural   H12RhC8NO6
_chemical_formula_sum   'H48 Rh4 C32 N4 O24'
_cell_volume   1291.23289747
_cell_formula_units_Z   4
loop_
 _symmetry_equiv_pos_site_id
 _symmetry_equiv_pos_as_xyz
  1  'x, y, z'
loop_
 _atom_site_type_symbol
 _atom_site_label
 _atom_site_symmetry_multiplicity
 _atom_site_fract_x
 _atom_site_fract_y
 _atom_site_fract_z
 _atom_site_occupancy
  H  H0  1  0.43262900  0.10110600  0.72325800  1
  H  H1  1  0.43115500  0.49566800  0.83517300  1
  H  H2  1  0.61331600  0.34033000  0.77206600  1
  H  H3  1  0.61256100  0.35842000  0.91415900  1
  H  H4  1  0.56738600  0.61142700  0.88281000  1
  H  H5  1  0.56884500  0.50433200  0.16482700  1
  H  H6  1  0.11256100  0.64158000  0.08584100  1
  H  H7  1  0.75000000  0.44470100  0.71319200  1
  H  H8  1  0.06737100  0.39889400  0.22325800  1
  H  H9  1  0.06884500  0.00433200  0.33517300  1
  H  H10  1  0.06737100  0.10110600  0.72325800  1
  H  H11  1  0.93115500  0.50433200  0.16482700  1
  H  H12  1  0.56737100  0.60110600  0.77674200  1
  H  H13  1  0.06884500  0.49566800  0.83517300  1
  H  H14  1  0.61256100  0.14158000  0.41415900  1
  H  H15  1  0.93262900  0.89889400  0.27674200  1
  H  H16  1  0.93261400  0.88857300  0.38281000  1
  H  H17  1  0.93115500  0.99566800  0.66482700  1
  H  H18  1  0.38668400  0.65967000  0.22793400  1
  H  H19  1  0.25000000  0.52578900  0.03940800  1
  H  H20  1  0.93261400  0.61142700  0.88281000  1
  H  H21  1  0.43261400  0.11142700  0.61719000  1
  H  H22  1  0.88743900  0.14158000  0.41415900  1
  H  H23  1  0.11331600  0.84033000  0.72793400  1
  H  H24  1  0.25000000  0.97421100  0.53940800  1
  H  H25  1  0.88668400  0.15967000  0.27206600  1
  H  H26  1  0.38668400  0.84033000  0.72793400  1
  H  H27  1  0.11256100  0.85842000  0.58584100  1
  H  H28  1  0.06738600  0.11142700  0.61719000  1
  H  H29  1  0.11331600  0.65967000  0.22793400  1
  H  H30  1  0.75000000  0.05529900  0.21319200  1
  H  H31  1  0.38743900  0.85842000  0.58584100  1
  H  H32  1  0.75000000  0.47421100  0.96059200  1
  H  H33  1  0.56738600  0.88857300  0.38281000  1
  H  H34  1  0.06738600  0.38857300  0.11719000  1
  H  H35  1  0.25000000  0.94470100  0.78680800  1
  H  H36  1  0.88743900  0.35842000  0.91415900  1
  H  H37  1  0.43262900  0.39889400  0.22325800  1
  H  H38  1  0.93262900  0.60110600  0.77674200  1
  H  H39  1  0.88668400  0.34033000  0.77206600  1
  H  H40  1  0.75000000  0.02578900  0.46059200  1
  H  H41  1  0.43261400  0.38857300  0.11719000  1
  H  H42  1  0.61331600  0.15967000  0.27206600  1
  H  H43  1  0.43115500  0.00433200  0.33517300  1
  H  H44  1  0.56737100  0.89889400  0.27674200  1
  H  H45  1  0.56884500  0.99566800  0.66482700  1
  H  H46  1  0.38743900  0.64158000  0.08584100  1
  H  H47  1  0.25000000  0.55529900  0.28680800  1
  Rh  Rh0  1  0.75000000  0.99919500  0.00394100  1
  Rh  Rh1  1  0.25000000  0.00080500  0.99605900  1
  Rh  Rh2  1  0.25000000  0.49919500  0.49605900  1
  Rh  Rh3  1  0.75000000  0.50080500  0.50394100  1
  C  C0  1  0.25000000  0.25293300  0.47109800  1
  C  C1  1  0.93588900  0.55244200  0.83220900  1
  C  C2  1  0.43588900  0.05244200  0.66779100  1
  C  C3  1  0.25000000  0.58857700  0.08781500  1
  C  C4  1  0.93588900  0.94755800  0.33220900  1
  C  C5  1  0.75000000  0.75293300  0.02890200  1
  C  C6  1  0.75000000  0.39406200  0.76788700  1
  C  C7  1  0.75000000  0.08857700  0.41218500  1
  C  C8  1  0.75000000  0.44319200  0.40229000  1
  C  C9  1  0.56411100  0.94755800  0.33220900  1
  C  C10  1  0.75000000  0.41142300  0.91218500  1
  C  C11  1  0.25000000  0.64802900  0.45610000  1
  C  C12  1  0.25000000  0.94319200  0.09771000  1
  C  C13  1  0.75000000  0.69229800  0.61307800  1
  C  C14  1  0.25000000  0.85197100  0.95610000  1
  C  C15  1  0.25000000  0.89406200  0.73211300  1
  C  C16  1  0.25000000  0.60593800  0.23211300  1
  C  C17  1  0.25000000  0.55680800  0.59771000  1
  C  C18  1  0.25000000  0.19229800  0.88692200  1
  C  C19  1  0.25000000  0.24706700  0.97109800  1
  C  C20  1  0.75000000  0.35197100  0.54390000  1
  C  C21  1  0.75000000  0.80770200  0.11307800  1
  C  C22  1  0.56411100  0.55244200  0.83220900  1
  C  C23  1  0.25000000  0.30770200  0.38692200  1
  C  C24  1  0.75000000  0.74706700  0.52890200  1
  C  C25  1  0.06411100  0.44755800  0.16779100  1
  C  C26  1  0.06411100  0.05244200  0.66779100  1
  C  C27  1  0.25000000  0.91142300  0.58781500  1
  C  C28  1  0.75000000  0.14802900  0.04390000  1
  C  C29  1  0.75000000  0.10593800  0.26788700  1
  C  C30  1  0.43588900  0.44755800  0.16779100  1
  C  C31  1  0.75000000  0.05680800  0.90229000  1
  N  N0  1  0.25000000  0.52258300  0.16407200  1
  N  N1  1  0.75000000  0.02258300  0.33592800  1
  N  N2  1  0.75000000  0.47741700  0.83592800  1
  N  N3  1  0.25000000  0.97741700  0.66407200  1
  O  O0  1  0.25000000  0.25435500  0.82727200  1
  O  O1  1  0.75000000  0.67416600  0.47030900  1
  O  O2  1  0.25000000  0.24564500  0.32727200  1
  O  O3  1  0.25000000  0.74054000  0.42872800  1
  O  O4  1  0.75000000  0.75435500  0.67272800  1
  O  O5  1  0.75000000  0.09248800  0.83810500  1
  O  O6  1  0.25000000  0.35396300  0.97877900  1
  O  O7  1  0.25000000  0.75946000  0.92872800  1
  O  O8  1  0.75000000  0.92087200  0.11464400  1
  O  O9  1  0.75000000  0.25946000  0.57127200  1
  O  O10  1  0.25000000  0.90751200  0.16189500  1
  O  O11  1  0.75000000  0.57912800  0.61464400  1
  O  O12  1  0.75000000  0.64603700  0.02122100  1
  O  O13  1  0.25000000  0.14603700  0.47877900  1
  O  O14  1  0.25000000  0.59248800  0.66189500  1
  O  O15  1  0.25000000  0.42087200  0.38535600  1
  O  O16  1  0.75000000  0.40751200  0.33810500  1
  O  O17  1  0.25000000  0.17416600  0.02969100  1
  O  O18  1  0.75000000  0.85396300  0.52122100  1
  O  O19  1  0.25000000  0.07912800  0.88535600  1
  O  O20  1  0.75000000  0.82583400  0.97030900  1
  O  O21  1  0.25000000  0.32583400  0.52969100  1
  O  O22  1  0.75000000  0.24054000  0.07127200  1
  O  O23  1  0.75000000  0.74564500  0.17272800  1
loop_
_geom_bond_atom_site_label_1
_geom_bond_atom_site_label_2
_geom_bond_distance
_geom_bond_site_symmetry_2
C0 O13 1.240639 1_555
C0 O21 1.301892 1_555
C1 H20 1.095455 1_555
C1 H38 1.095620 1_555
C1 H13 1.096142 1_655
C1 N2 1.502734 1_555
C2 H21 1.095455 1_555
C2 H0 1.095620 1_555
C2 H45 1.096142 1_545
C2 N3 1.502734 1_545
C3 H46 1.094417 1_555
C3 H6 1.094417 1_555
C3 H19 1.094898 1_555
C3 N0 1.500628 1_555
C4 H16 1.095455 1_555
C4 H15 1.095620 1_555
C4 H9 1.096142 1_665
C4 N1 1.502734 1_565
C5 O12 1.240639 1_555
C5 O20 1.301892 1_554
C6 H7 1.096174 1_555
C6 H39 1.096816 1_555
C6 H2 1.096816 1_555
C6 N2 1.502157 1_555
C7 H22 1.094417 1_555
C7 H14 1.094417 1_555
C7 H40 1.094898 1_555
C7 N1 1.500628 1_555
C8 O16 1.163574 1_555
C8 Rh3 1.847330 1_555
C9 H33 1.095455 1_555
C9 H44 1.095620 1_555
C9 H43 1.096142 1_565
C9 N1 1.502734 1_565
C10 H36 1.094417 1_555
C10 H3 1.094417 1_555
C10 H32 1.094898 1_555
C10 N2 1.500628 1_555
C11 O3 1.164252 1_555
C11 Rh2 1.846606 1_555
C12 O10 1.163574 1_555
C12 Rh1 1.847330 1_564
C13 O4 1.239311 1_555
C13 O11 1.306468 1_555
C14 O7 1.164252 1_555
C14 Rh1 1.846606 1_565
C15 H35 1.096174 1_555
C15 H26 1.096816 1_555
C15 H23 1.096816 1_555
C15 N3 1.502157 1_555
C16 H47 1.096174 1_555
C16 H18 1.096816 1_555
C16 H29 1.096816 1_555
C16 N0 1.502157 1_555
C17 O14 1.163574 1_555
C17 Rh2 1.847330 1_555
C18 O0 1.239311 1_555
C18 O19 1.306468 1_555
C19 O6 1.240639 1_555
C19 O17 1.301892 1_556
C20 O9 1.164252 1_555
C20 Rh3 1.846606 1_555
C21 O23 1.239311 1_555
C21 O8 1.306468 1_555
C22 H4 1.095455 1_555
C22 H12 1.095620 1_555
C22 H1 1.096142 1_555
C22 N2 1.502734 1_555
C23 O2 1.239311 1_555
C23 O15 1.306468 1_555
C24 O18 1.240639 1_555
C24 O1 1.301892 1_555
C25 H34 1.095455 1_555
C25 H8 1.095620 1_555
C25 H11 1.096142 1_455
C25 N0 1.502734 1_555
C26 H28 1.095455 1_555
C26 H10 1.095620 1_555
C26 H17 1.096142 1_445
C26 N3 1.502734 1_545
C27 H31 1.094417 1_555
C27 H27 1.094417 1_555
C27 H24 1.094898 1_555
C27 N3 1.500628 1_555
C28 O22 1.164252 1_555
C28 Rh0 1.846606 1_545
C29 H30 1.096174 1_555
C29 H25 1.096816 1_555
C29 H42 1.096816 1_555
C29 N1 1.502157 1_555
C30 H41 1.095455 1_555
C30 H37 1.095620 1_555
C30 H5 1.096142 1_555
C30 N0 1.502734 1_555
C31 O5 1.163574 1_555
C31 Rh0 1.847330 1_546
O1 Rh3 2.080586 1_555
O8 Rh0 2.083328 1_555
O11 Rh3 2.083328 1_555
O15 Rh2 2.083328 1_555
O17 Rh1 2.080586 1_554
O19 Rh1 2.083328 1_555
O20 Rh0 2.080586 1_556
O21 Rh2 2.080586 1_555
