# generated using pymatgen
data_Na4Cd2Si3O10
_symmetry_space_group_name_H-M   'P 1'
_cell_length_a   5.82945647
_cell_length_b   5.82945647
_cell_length_c   17.90612222
_cell_angle_alpha   81.53553723
_cell_angle_beta   81.53553723
_cell_angle_gamma   61.07790779
_symmetry_Int_Tables_number   1
_chemical_formula_structural   Na4Cd2Si3O10
_chemical_formula_sum   'Na8 Cd4 Si6 O20'
_cell_volume   524.76743703
_cell_formula_units_Z   2
loop_
 _symmetry_equiv_pos_site_id
 _symmetry_equiv_pos_as_xyz
  1  'x, y, z'
loop_
 _atom_site_type_symbol
 _atom_site_label
 _atom_site_symmetry_multiplicity
 _atom_site_fract_x
 _atom_site_fract_y
 _atom_site_fract_z
 _atom_site_occupancy
  Na  Na0  1  0.22108300  0.43192700  0.24357100  1
  Na  Na1  1  0.43192700  0.22108300  0.74357100  1
  Na  Na2  1  0.77891700  0.56807300  0.75642900  1
  Na  Na3  1  0.68342600  0.82464300  0.93990400  1
  Na  Na4  1  0.56807300  0.77891700  0.25642900  1
  Na  Na5  1  0.17535700  0.31657400  0.56009600  1
  Na  Na6  1  0.31657400  0.17535700  0.06009600  1
  Na  Na7  1  0.82464300  0.68342600  0.43990400  1
  Cd  Cd0  1  0.00007800  0.80396600  0.08516900  1
  Cd  Cd1  1  0.80396600  0.00007800  0.58516900  1
  Cd  Cd2  1  0.19603400  0.99992200  0.41483100  1
  Cd  Cd3  1  0.99992200  0.19603400  0.91483100  1
  Si  Si0  1  0.88109000  0.11891000  0.25000000  1
  Si  Si1  1  0.32990000  0.54049300  0.89831800  1
  Si  Si2  1  0.45950700  0.67010000  0.60168200  1
  Si  Si3  1  0.67010000  0.45950700  0.10168200  1
  Si  Si4  1  0.11891000  0.88109000  0.75000000  1
  Si  Si5  1  0.54049300  0.32990000  0.39831800  1
  O  O0  1  0.20504000  0.61547600  0.81287400  1
  O  O1  1  0.08381000  0.13520200  0.78680000  1
  O  O2  1  0.61324900  0.54110700  0.88450200  1
  O  O3  1  0.54110700  0.61324900  0.38450200  1
  O  O4  1  0.77021200  0.10828800  0.45215700  1
  O  O5  1  0.74942300  0.64603600  0.57254400  1
  O  O6  1  0.13520200  0.08381000  0.28680000  1
  O  O7  1  0.38452400  0.79496000  0.68712600  1
  O  O8  1  0.61547600  0.20504000  0.31287400  1
  O  O9  1  0.10828800  0.77021200  0.95215700  1
  O  O10  1  0.35396400  0.25057700  0.92745600  1
  O  O11  1  0.79496000  0.38452400  0.18712600  1
  O  O12  1  0.91619000  0.86479800  0.21320000  1
  O  O13  1  0.25057700  0.35396400  0.42745600  1
  O  O14  1  0.89171200  0.22978800  0.04784300  1
  O  O15  1  0.64603600  0.74942300  0.07254400  1
  O  O16  1  0.22978800  0.89171200  0.54784300  1
  O  O17  1  0.86479800  0.91619000  0.71320000  1
  O  O18  1  0.38675100  0.45889300  0.11549800  1
  O  O19  1  0.45889300  0.38675100  0.61549800  1
loop_
_geom_bond_atom_site_label_1
_geom_bond_atom_site_label_2
_geom_bond_distance
_geom_bond_site_symmetry_2
Na0 O12 2.316206 1_455
Na0 O6 2.318224 1_555
Na0 O18 2.367548 1_555
Na0 O8 2.447578 1_555
Na1 O17 2.316206 1_545
Na1 O1 2.318224 1_555
Na1 O19 2.367548 1_555
Na1 O0 2.447578 1_555
Na2 O1 2.316206 1_655
Na2 O17 2.318224 1_555
Na2 O2 2.367548 1_555
Na2 O7 2.447578 1_555
Na3 O2 2.267080 1_555
Na3 O10 2.292164 1_565
Na3 O15 2.348229 1_556
Na3 O9 2.379556 1_655
Na4 O6 2.316206 1_565
Na4 O12 2.318224 1_555
Na4 O3 2.367548 1_555
Na4 O11 2.447578 1_555
Na5 O19 2.267080 1_555
Na5 O5 2.292164 1_455
Na5 O13 2.348229 1_555
Na5 O16 2.379556 1_545
Na6 O18 2.267080 1_555
Na6 O15 2.292164 1_545
Na6 O10 2.348229 1_554
Na6 O14 2.379556 1_455
Na7 O3 2.267080 1_555
Na7 O13 2.292164 1_655
Na7 O5 2.348229 1_555
Na7 O4 2.379556 1_565
Cd0 O18 2.252856 1_555
Cd0 O14 2.264238 1_465
Cd0 O15 2.281449 1_455
Cd0 O12 2.315639 1_455
Cd0 O9 2.384299 1_554
Cd1 O19 2.252856 1_555
Cd1 O16 2.264238 1_645
Cd1 O5 2.281449 1_545
Cd1 O17 2.315639 1_545
Cd1 O4 2.384299 1_555
Cd2 O3 2.252856 1_555
Cd2 O4 2.264238 1_465
Cd2 O13 2.281449 1_565
Cd2 O6 2.315639 1_565
Cd2 O16 2.384299 1_555
Cd3 O2 2.252856 1_555
Cd3 O9 2.264238 1_645
Cd3 O10 2.281449 1_655
Cd3 O1 2.315639 1_655
Cd3 O14 2.384299 1_556
O0 Si4 1.678792 1_555
O0 Si1 1.698496 1_555
O1 Si4 1.620162 1_545
O2 Si1 1.635457 1_555
O3 Si5 1.635457 1_555
O4 Si5 1.652789 1_555
O5 Si2 1.637321 1_555
O6 Si0 1.620162 1_455
O7 Si4 1.678792 1_555
O7 Si2 1.698496 1_555
O8 Si0 1.678792 1_555
O8 Si5 1.698496 1_555
O9 Si1 1.652789 1_555
O10 Si1 1.637321 1_555
O11 Si0 1.678792 1_555
O11 Si3 1.698496 1_555
O12 Si0 1.620162 1_565
O13 Si5 1.637321 1_555
O14 Si3 1.652789 1_555
O15 Si3 1.637321 1_555
O16 Si2 1.652789 1_555
O17 Si4 1.620162 1_655
O18 Si3 1.635457 1_555
O19 Si2 1.635457 1_555
