# generated using pymatgen
data_Gd2Tl
_symmetry_space_group_name_H-M   'P 1'
_cell_length_a   5.45596922
_cell_length_b   5.45597011
_cell_length_c   6.73296051
_cell_angle_alpha   90.00000000
_cell_angle_beta   90.00000000
_cell_angle_gamma   120.00000104
_symmetry_Int_Tables_number   1
_chemical_formula_structural   Gd2Tl
_chemical_formula_sum   'Gd4 Tl2'
_cell_volume   173.57236786
_cell_formula_units_Z   2
loop_
 _symmetry_equiv_pos_site_id
 _symmetry_equiv_pos_as_xyz
  1  'x, y, z'
loop_
 _atom_site_type_symbol
 _atom_site_label
 _atom_site_symmetry_multiplicity
 _atom_site_fract_x
 _atom_site_fract_y
 _atom_site_fract_z
 _atom_site_occupancy
  Gd  Gd0  1  0.33333300  0.66666700  0.75151624  1
  Gd  Gd1  1  -0.00000000  0.00000000  0.00001334  1
  Gd  Gd2  1  -0.00000000  0.00000000  0.49998509  1
  Gd  Gd3  1  0.66666700  0.33333300  0.24848596  1
  Tl  Tl0  1  0.66666700  0.33333300  0.74978083  1
  Tl  Tl1  1  0.33333300  0.66666700  0.25022054  1
loop_
_geom_bond_atom_site_label_1
_geom_bond_atom_site_label_2
_geom_bond_distance
_geom_bond_site_symmetry_2
Gd0 Tl0 3.150024 1_455
Gd0 Tl0 3.150024 1_565
Gd0 Tl0 3.150034 1_555
Gd0 Tl1 3.357756 1_556
Gd0 Tl1 3.375204 1_555
Gd0 Gd1 3.566770 1_566
Gd0 Gd1 3.566774 1_666
Gd0 Gd1 3.566775 1_556
Gd0 Gd2 3.576398 1_565
Gd0 Gd2 3.576402 1_665
Gd0 Gd2 3.576403 1_555
Gd1 Gd2 3.366290 1_555
Gd1 Gd2 3.366670 1_554
Gd1 Gd3 3.566693 1_455
Gd1 Gd3 3.566697 1_555
Gd1 Gd3 3.566697 1_445
Gd1 Tl1 3.572186 1_545
Gd1 Tl1 3.572190 1_445
Gd1 Tl1 3.572190 1_555
Gd1 Tl0 3.572266 1_454
Gd1 Tl0 3.572270 1_554
Gd1 Tl0 3.572270 1_444
Gd2 Tl1 3.570781 1_545
Gd2 Tl1 3.570785 1_445
Gd2 Tl1 3.570786 1_555
Gd2 Tl0 3.570880 1_455
Gd2 Tl0 3.570884 1_555
Gd2 Tl0 3.570884 1_445
Gd2 Gd3 3.576296 1_455
Gd2 Gd3 3.576300 1_555
Gd2 Gd3 3.576301 1_445
Gd3 Tl1 3.150024 1_655
Gd3 Tl1 3.150024 1_545
Gd3 Tl1 3.150034 1_555
Gd3 Tl0 3.357762 1_554
Gd3 Tl0 3.375199 1_555
