# generated using pymatgen
data_Na7Y2P7O24
_symmetry_space_group_name_H-M   'P 1'
_cell_length_a   5.45982200
_cell_length_b   12.43975200
_cell_length_c   16.43066038
_cell_angle_alpha   82.14912850
_cell_angle_beta   90.00000000
_cell_angle_gamma   90.00000000
_symmetry_Int_Tables_number   1
_chemical_formula_structural   Na7Y2P7O24
_chemical_formula_sum   'Na14 Y4 P14 O48'
_cell_volume   1105.49139067
_cell_formula_units_Z   2
loop_
 _symmetry_equiv_pos_site_id
 _symmetry_equiv_pos_as_xyz
  1  'x, y, z'
loop_
 _atom_site_type_symbol
 _atom_site_label
 _atom_site_symmetry_multiplicity
 _atom_site_fract_x
 _atom_site_fract_y
 _atom_site_fract_z
 _atom_site_occupancy
  Na  Na0  1  0.14633800  0.96237400  0.40584100  1
  Na  Na1  1  0.14633800  0.53762600  0.59415900  1
  Na  Na2  1  0.16348900  0.11032000  0.13698200  1
  Na  Na3  1  0.16348900  0.38968000  0.86301800  1
  Na  Na4  1  0.70067200  0.51677400  0.93595800  1
  Na  Na5  1  0.83651100  0.88968000  0.86301800  1
  Na  Na6  1  0.29932800  0.48322600  0.06404200  1
  Na  Na7  1  0.70067200  0.98322600  0.06404200  1
  Na  Na8  1  0.71702500  0.75000000  0.50000000  1
  Na  Na9  1  0.85366200  0.03762600  0.59415900  1
  Na  Na10  1  0.85366200  0.46237400  0.40584100  1
  Na  Na11  1  0.83651100  0.61032000  0.13698200  1
  Na  Na12  1  0.29932800  0.01677400  0.93595800  1
  Na  Na13  1  0.28297500  0.25000000  0.50000000  1
  Y  Y0  1  0.65135600  0.68713200  0.72526600  1
  Y  Y1  1  0.34864400  0.31286800  0.27473400  1
  Y  Y2  1  0.65135600  0.81286800  0.27473400  1
  Y  Y3  1  0.34864400  0.18713200  0.72526600  1
  P  P0  1  0.13667200  0.65699200  0.86964300  1
  P  P1  1  0.15714500  0.80488800  0.60981500  1
  P  P2  1  0.58328300  0.25000000  0.00000000  1
  P  P3  1  0.41671700  0.75000000  0.00000000  1
  P  P4  1  0.15714500  0.69511200  0.39018500  1
  P  P5  1  0.86332800  0.34300800  0.13035700  1
  P  P6  1  0.13667200  0.84300800  0.13035700  1
  P  P7  1  0.62759900  0.05415400  0.27857300  1
  P  P8  1  0.84285500  0.19511200  0.39018500  1
  P  P9  1  0.84285500  0.30488800  0.60981500  1
  P  P10  1  0.86332800  0.15699200  0.86964300  1
  P  P11  1  0.37240100  0.55415400  0.27857300  1
  P  P12  1  0.37240100  0.94584600  0.72142700  1
  P  P13  1  0.62759900  0.44584600  0.72142700  1
  O  O0  1  0.94066300  0.37682500  0.53486700  1
  O  O1  1  0.85334200  0.11930100  0.31508400  1
  O  O2  1  0.02246800  0.28929800  0.36243000  1
  O  O3  1  0.55424000  0.85577000  0.98405500  1
  O  O4  1  0.85334200  0.38069900  0.68491600  1
  O  O5  1  0.67797000  0.34712400  0.19899100  1
  O  O6  1  0.12146700  0.94954700  0.07360800  1
  O  O7  1  0.32203000  0.84712400  0.19899100  1
  O  O8  1  0.42239800  0.76519200  0.60644300  1
  O  O9  1  0.54669400  0.53818300  0.65430200  1
  O  O10  1  0.87853300  0.05045300  0.92639200  1
  O  O11  1  0.45330600  0.03818300  0.65430200  1
  O  O12  1  0.05933700  0.62317500  0.46513300  1
  O  O13  1  0.88959800  0.70468900  0.83776600  1
  O  O14  1  0.42165300  0.36540500  0.74801700  1
  O  O15  1  0.77082800  0.25224100  0.92357100  1
  O  O16  1  0.44576000  0.35577000  0.98405500  1
  O  O17  1  0.94066300  0.12317500  0.46513300  1
  O  O18  1  0.57834700  0.63459500  0.25198300  1
  O  O19  1  0.14665800  0.88069900  0.68491600  1
  O  O20  1  0.55424000  0.64423000  0.01594500  1
  O  O21  1  0.25202200  0.99827000  0.79068600  1
  O  O22  1  0.05933700  0.87682500  0.53486700  1
  O  O23  1  0.22917200  0.75224100  0.92357100  1
  O  O24  1  0.54669400  0.96181700  0.34569800  1
  O  O25  1  0.14665800  0.61930100  0.31508400  1
  O  O26  1  0.12146700  0.55045300  0.92639200  1
  O  O27  1  0.45330600  0.46181700  0.34569800  1
  O  O28  1  0.74797800  0.49827000  0.79068600  1
  O  O29  1  0.22917200  0.74775900  0.07642900  1
  O  O30  1  0.02246800  0.21070200  0.63757000  1
  O  O31  1  0.87853300  0.44954700  0.07360800  1
  O  O32  1  0.25202200  0.50173000  0.20931400  1
  O  O33  1  0.77082800  0.24775900  0.07642900  1
  O  O34  1  0.11040200  0.20468900  0.83776600  1
  O  O35  1  0.57760200  0.26519200  0.60644300  1
  O  O36  1  0.67797000  0.15287600  0.80100900  1
  O  O37  1  0.42165300  0.13459500  0.25198300  1
  O  O38  1  0.32203000  0.65287600  0.80100900  1
  O  O39  1  0.44576000  0.14423000  0.01594500  1
  O  O40  1  0.57760200  0.23480800  0.39355700  1
  O  O41  1  0.74797800  0.00173000  0.20931400  1
  O  O42  1  0.11040200  0.29531100  0.16223400  1
  O  O43  1  0.97753200  0.71070200  0.63757000  1
  O  O44  1  0.88959800  0.79531100  0.16223400  1
  O  O45  1  0.57834700  0.86540500  0.74801700  1
  O  O46  1  0.97753200  0.78929800  0.36243000  1
  O  O47  1  0.42239800  0.73480800  0.39355700  1
loop_
_geom_bond_atom_site_label_1
_geom_bond_atom_site_label_2
_geom_bond_distance
_geom_bond_site_symmetry_2
Na0 O22 2.288264 1_555
Na0 O24 2.399266 1_555
Na0 O46 2.532437 1_455
Na0 O17 2.596876 1_465
Na0 O1 2.792542 1_465
Na1 O12 2.288264 1_555
Na1 O9 2.399266 1_555
Na1 O43 2.532437 1_455
Na1 O0 2.596876 1_455
Na1 O4 2.792542 1_455
Na2 O6 2.388667 1_545
Na2 O37 2.409194 1_555
Na2 O42 2.410958 1_555
Na2 O39 2.505774 1_555
Na2 O41 2.818728 1_455
Na2 O33 2.836266 1_455
Na3 O26 2.388667 1_555
Na3 O14 2.409194 1_555
Na3 O34 2.410958 1_555
Na3 O16 2.505774 1_555
Na3 O28 2.818728 1_455
Na3 O15 2.836266 1_455
Na4 O20 2.334427 1_556
Na4 O26 2.336790 1_655
Na4 O28 2.442777 1_555
Na4 O16 2.478016 1_555
Na4 O31 2.498174 1_556
Na4 O13 2.846236 1_555
Na5 O10 2.388667 1_565
Na5 O45 2.409194 1_555
Na5 O13 2.410958 1_555
Na5 O3 2.505774 1_555
Na5 O21 2.818728 1_655
Na5 O23 2.836266 1_655
Na6 O16 2.334427 1_554
Na6 O31 2.336790 1_455
Na6 O32 2.442777 1_555
Na6 O20 2.478016 1_555
Na6 O26 2.498174 1_554
Na6 O42 2.846236 1_555
Na7 O3 2.334427 1_554
Na7 O6 2.336790 1_655
Na7 O41 2.442777 1_565
Na7 O39 2.478016 1_565
Na7 O10 2.498174 1_564
Na7 O44 2.846236 1_555
Na8 O8 2.402580 1_555
Na8 O47 2.402580 1_555
Na8 O22 2.560700 1_655
Na8 O12 2.560700 1_655
Na8 O43 2.658827 1_555
Na8 O46 2.658827 1_555
Na9 O17 2.288264 1_555
Na9 O11 2.399266 1_555
Na9 O30 2.532437 1_655
Na9 O22 2.596876 1_645
Na9 O19 2.792542 1_645
Na10 O0 2.288264 1_555
Na10 O27 2.399266 1_555
Na10 O2 2.532437 1_655
Na10 O12 2.596876 1_655
Na10 O25 2.792542 1_655
Na11 O31 2.388667 1_555
Na11 O18 2.409194 1_555
Na11 O44 2.410958 1_555
Na11 O20 2.505774 1_555
Na11 O32 2.818728 1_655
Na11 O29 2.836266 1_655
Na12 O39 2.334427 1_556
Na12 O10 2.336790 1_455
Na12 O21 2.442777 1_545
Na12 O3 2.478016 1_545
Na12 O6 2.498174 1_546
Na12 O34 2.846236 1_555
Na13 O35 2.402580 1_555
Na13 O40 2.402580 1_555
Na13 O17 2.560700 1_455
Na13 O0 2.560700 1_455
Na13 O30 2.658827 1_555
Na13 O2 2.658827 1_555
O0 P9 1.517031 1_555
O1 P7 1.633573 1_555
O1 P8 1.653248 1_555
O2 P8 1.548046 1_455
O2 Y1 2.284344 1_555
O3 P3 1.506469 1_556
O4 P13 1.633573 1_555
O4 P9 1.653248 1_555
O5 P5 1.521281 1_555
O5 Y1 2.195116 1_555
O6 P6 1.514984 1_555
O7 P6 1.521281 1_555
O7 Y2 2.195116 1_555
O8 P1 1.533549 1_555
O8 Y0 2.408178 1_555
O9 P13 1.544290 1_555
O9 Y0 2.389449 1_555
O10 P10 1.514984 1_555
O11 P12 1.544290 1_545
O11 Y3 2.389449 1_555
O12 P4 1.517031 1_555
O13 P0 1.536628 1_655
O13 Y0 2.294935 1_555
O14 P13 1.528762 1_555
O14 Y3 2.333061 1_555
O15 P2 1.617620 1_556
O15 P10 1.652552 1_555
O16 P2 1.506469 1_556
O17 P8 1.517031 1_555
O18 P11 1.528762 1_555
O18 Y2 2.333061 1_555
O19 P12 1.633573 1_555
O19 P1 1.653248 1_555
O20 P3 1.506469 1_555
O21 P12 1.534595 1_555
O21 Y3 2.502690 1_565
O22 P1 1.517031 1_555
O23 P3 1.617620 1_556
O23 P0 1.652552 1_555
O24 P7 1.544290 1_565
O24 Y2 2.389449 1_555
O25 P11 1.633573 1_555
O25 P4 1.653248 1_555
O26 P0 1.514984 1_555
O27 P11 1.544290 1_555
O27 Y1 2.389449 1_555
O28 P13 1.534595 1_555
O28 Y0 2.502690 1_555
O29 P3 1.617620 1_555
O29 P6 1.652552 1_555
O30 P9 1.548046 1_455
O30 Y3 2.284344 1_555
O31 P5 1.514984 1_555
O32 P11 1.534595 1_555
O32 Y1 2.502690 1_555
O33 P2 1.617620 1_555
O33 P5 1.652552 1_555
O34 P10 1.536628 1_455
O34 Y3 2.294935 1_555
O35 P9 1.533549 1_555
O35 Y3 2.408178 1_555
O36 P10 1.521281 1_555
O36 Y3 2.195116 1_555
O37 P7 1.528762 1_555
O37 Y1 2.333061 1_555
O38 P0 1.521281 1_555
O38 Y0 2.195116 1_555
O39 P2 1.506469 1_555
O40 P8 1.533549 1_555
O40 Y1 2.408178 1_555
O41 P7 1.534595 1_555
O41 Y2 2.502690 1_545
O42 P5 1.536628 1_455
O42 Y1 2.294935 1_555
O43 P1 1.548046 1_655
O43 Y0 2.284344 1_555
O44 P6 1.536628 1_655
O44 Y2 2.294935 1_555
O45 P12 1.528762 1_555
O45 Y0 2.333061 1_555
O46 P4 1.548046 1_655
O46 Y2 2.284344 1_555
O47 P4 1.533549 1_555
O47 Y2 2.408178 1_555
