# generated using pymatgen
data_SiO2
_symmetry_space_group_name_H-M   'P 1'
_cell_length_a   12.67903273
_cell_length_b   12.67903273
_cell_length_c   12.69383400
_cell_angle_alpha   90.00000000
_cell_angle_beta   90.00000000
_cell_angle_gamma   114.89167375
_symmetry_Int_Tables_number   1
_chemical_formula_structural   SiO2
_chemical_formula_sum   'Si28 O56'
_cell_volume   1851.06944543
_cell_formula_units_Z   28
loop_
 _symmetry_equiv_pos_site_id
 _symmetry_equiv_pos_as_xyz
  1  'x, y, z'
loop_
 _atom_site_type_symbol
 _atom_site_label
 _atom_site_symmetry_multiplicity
 _atom_site_fract_x
 _atom_site_fract_y
 _atom_site_fract_z
 _atom_site_occupancy
  Si  Si0  1  0.04813400  0.19211000  0.37559400  1
  Si  Si1  1  0.04686400  0.19753800  0.00000000  1
  Si  Si2  1  0.39996800  0.83805000  0.12639000  1
  Si  Si3  1  0.96245200  0.81680500  0.62316700  1
  Si  Si4  1  0.95654300  0.65682300  0.19117300  1
  Si  Si5  1  0.61251600  0.17507500  0.12666800  1
  Si  Si6  1  0.39996800  0.83805000  0.87361000  1
  Si  Si7  1  0.35759000  0.05610400  0.19408300  1
  Si  Si8  1  0.35759000  0.05610400  0.80591700  1
  Si  Si9  1  0.17507500  0.61251600  0.87333200  1
  Si  Si10  1  0.19211000  0.04813400  0.62440600  1
  Si  Si11  1  0.97181300  0.82165300  0.00000000  1
  Si  Si12  1  0.81680500  0.96245200  0.37683300  1
  Si  Si13  1  0.83805000  0.39996800  0.87361000  1
  Si  Si14  1  0.65682300  0.95654300  0.80882700  1
  Si  Si15  1  0.95654300  0.65682300  0.80882700  1
  Si  Si16  1  0.05610400  0.35759000  0.80591700  1
  Si  Si17  1  0.61251600  0.17507500  0.87333200  1
  Si  Si18  1  0.81680500  0.96245200  0.62316700  1
  Si  Si19  1  0.82165300  0.97181300  0.00000000  1
  Si  Si20  1  0.96245200  0.81680500  0.37683300  1
  Si  Si21  1  0.19753800  0.04686400  0.00000000  1
  Si  Si22  1  0.19211000  0.04813400  0.37559400  1
  Si  Si23  1  0.17507500  0.61251600  0.12666800  1
  Si  Si24  1  0.83805000  0.39996800  0.12639000  1
  Si  Si25  1  0.05610400  0.35759000  0.19408300  1
  Si  Si26  1  0.04813400  0.19211000  0.62440600  1
  Si  Si27  1  0.65682300  0.95654300  0.19117300  1
  O  O0  1  0.78092000  0.95975000  0.50000000  1
  O  O1  1  0.92700700  0.35468400  0.81796500  1
  O  O2  1  0.12525100  0.12525100  0.00000000  1
  O  O3  1  0.49014200  0.15557600  0.18220200  1
  O  O4  1  0.06776300  0.30812400  0.30932800  1
  O  O5  1  0.70256400  0.94184300  0.30727100  1
  O  O6  1  0.08563000  0.65996700  0.17811100  1
  O  O7  1  0.93868500  0.74128400  0.10430000  1
  O  O8  1  0.05509300  0.22412400  0.50000000  1
  O  O9  1  0.41238000  0.86345400  0.00000000  1
  O  O10  1  0.85674900  0.52493900  0.17573400  1
  O  O11  1  0.52493900  0.85674900  0.17573400  1
  O  O12  1  0.27758500  0.07733300  0.10456200  1
  O  O13  1  0.94184300  0.70256400  0.30727100  1
  O  O14  1  0.06776300  0.30812400  0.69067200  1
  O  O15  1  0.07733300  0.27758500  0.89543800  1
  O  O16  1  0.15557600  0.49014200  0.81779800  1
  O  O17  1  0.14919200  0.14919200  0.65441000  1
  O  O18  1  0.65996700  0.08563000  0.17811100  1
  O  O19  1  0.52493900  0.85674900  0.82426600  1
  O  O20  1  0.08881000  0.92090400  0.34735000  1
  O  O21  1  0.65996700  0.08563000  0.82188900  1
  O  O22  1  0.27758500  0.07733300  0.89543800  1
  O  O23  1  0.74128400  0.93868500  0.89570000  1
  O  O24  1  0.92090400  0.08881000  0.34735000  1
  O  O25  1  0.85674900  0.52493900  0.82426600  1
  O  O26  1  0.70500600  0.30801600  0.14946500  1
  O  O27  1  0.59424200  0.15145100  0.00000000  1
  O  O28  1  0.95975000  0.78092000  0.50000000  1
  O  O29  1  0.07733300  0.27758500  0.10456200  1
  O  O30  1  0.15557600  0.49014200  0.18220200  1
  O  O31  1  0.14919200  0.14919200  0.34559000  1
  O  O32  1  0.86020500  0.86020500  0.64648900  1
  O  O33  1  0.35468400  0.92700700  0.81796500  1
  O  O34  1  0.92700700  0.35468400  0.18203500  1
  O  O35  1  0.08881000  0.92090400  0.65265000  1
  O  O36  1  0.49014200  0.15557600  0.81779800  1
  O  O37  1  0.89683100  0.89683100  0.00000000  1
  O  O38  1  0.30812400  0.06776300  0.69067200  1
  O  O39  1  0.15145100  0.59424200  0.00000000  1
  O  O40  1  0.22412400  0.05509300  0.50000000  1
  O  O41  1  0.90867900  0.10999800  0.00000000  1
  O  O42  1  0.70256400  0.94184300  0.69272900  1
  O  O43  1  0.70500600  0.30801600  0.85053500  1
  O  O44  1  0.92090400  0.08881000  0.65265000  1
  O  O45  1  0.08563000  0.65996700  0.82188900  1
  O  O46  1  0.86020500  0.86020500  0.35351100  1
  O  O47  1  0.35468400  0.92700700  0.18203500  1
  O  O48  1  0.30801600  0.70500600  0.85053500  1
  O  O49  1  0.94184300  0.70256400  0.69272900  1
  O  O50  1  0.86345400  0.41238000  0.00000000  1
  O  O51  1  0.30801600  0.70500600  0.14946500  1
  O  O52  1  0.10999800  0.90867900  0.00000000  1
  O  O53  1  0.30812400  0.06776300  0.30932800  1
  O  O54  1  0.74128400  0.93868500  0.10430000  1
  O  O55  1  0.93868500  0.74128400  0.89570000  1
loop_
_geom_bond_atom_site_label_1
_geom_bond_atom_site_label_2
_geom_bond_distance
_geom_bond_site_symmetry_2
O0 Si12 1.624647 1_555
O0 Si18 1.624647 1_555
O1 Si13 1.626610 1_555
O1 Si16 1.628857 1_655
O2 Si1 1.610782 1_555
O2 Si21 1.610782 1_555
O3 Si5 1.625595 1_555
O3 Si7 1.628986 1_555
O4 Si0 1.620189 1_555
O4 Si25 1.622755 1_555
O5 Si12 1.620932 1_555
O5 Si27 1.622945 1_555
O6 Si23 1.627536 1_555
O6 Si4 1.628785 1_455
O7 Si11 1.614736 1_555
O7 Si4 1.618096 1_555
O8 Si26 1.623649 1_555
O8 Si0 1.623649 1_555
O9 Si2 1.630907 1_555
O9 Si6 1.630907 1_554
O10 Si24 1.625725 1_555
O10 Si4 1.629239 1_555
O11 Si2 1.625725 1_555
O11 Si27 1.629239 1_555
O12 Si21 1.615843 1_555
O12 Si7 1.619443 1_555
O13 Si20 1.620932 1_555
O13 Si4 1.622945 1_555
O14 Si26 1.620189 1_555
O14 Si16 1.622755 1_555
O15 Si1 1.615843 1_556
O15 Si16 1.619443 1_555
O16 Si9 1.625595 1_555
O16 Si16 1.628986 1_555
O17 Si26 1.633978 1_555
O17 Si10 1.633978 1_555
O18 Si5 1.627536 1_555
O18 Si27 1.628785 1_545
O19 Si6 1.625725 1_555
O19 Si14 1.629239 1_555
O20 Si22 1.633293 1_565
O20 Si20 1.633643 1_455
O21 Si17 1.627536 1_555
O21 Si14 1.628785 1_545
O22 Si21 1.615843 1_556
O22 Si8 1.619443 1_555
O23 Si19 1.614736 1_556
O23 Si14 1.618096 1_555
O24 Si0 1.633293 1_655
O24 Si12 1.633643 1_545
O25 Si13 1.625725 1_555
O25 Si15 1.629239 1_555
O26 Si24 1.623272 1_555
O26 Si5 1.623609 1_555
O27 Si17 1.634115 1_554
O27 Si5 1.634115 1_555
O28 Si3 1.624647 1_555
O28 Si20 1.624647 1_555
O29 Si1 1.615843 1_555
O29 Si25 1.619443 1_555
O30 Si23 1.625595 1_555
O30 Si25 1.628986 1_555
O31 Si0 1.633978 1_555
O31 Si22 1.633978 1_555
O32 Si3 1.634501 1_555
O32 Si18 1.634501 1_555
O33 Si6 1.626610 1_555
O33 Si8 1.628857 1_565
O34 Si24 1.626610 1_555
O34 Si25 1.628857 1_655
O35 Si10 1.633293 1_565
O35 Si3 1.633643 1_455
O36 Si17 1.625595 1_555
O36 Si8 1.628986 1_555
O37 Si19 1.604752 1_555
O37 Si11 1.604752 1_555
O38 Si10 1.620189 1_555
O38 Si8 1.622755 1_555
O39 Si23 1.634115 1_555
O39 Si9 1.634115 1_554
O40 Si10 1.623649 1_555
O40 Si22 1.623649 1_555
O41 Si19 1.630885 1_545
O41 Si1 1.632360 1_655
O42 Si18 1.620932 1_555
O42 Si14 1.622945 1_555
O43 Si13 1.623272 1_555
O43 Si17 1.623609 1_555
O44 Si26 1.633293 1_655
O44 Si18 1.633643 1_545
O45 Si9 1.627536 1_555
O45 Si15 1.628785 1_455
O46 Si20 1.634501 1_555
O46 Si12 1.634501 1_555
O47 Si2 1.626610 1_555
O47 Si7 1.628857 1_565
O48 Si6 1.623272 1_555
O48 Si9 1.623609 1_555
O49 Si3 1.620932 1_555
O49 Si15 1.622945 1_555
O50 Si13 1.630907 1_554
O50 Si24 1.630907 1_555
O51 Si2 1.623272 1_555
O51 Si23 1.623609 1_555
O52 Si11 1.630885 1_455
O52 Si21 1.632360 1_565
O53 Si22 1.620189 1_555
O53 Si7 1.622755 1_555
O54 Si19 1.614736 1_555
O54 Si27 1.618096 1_555
O55 Si11 1.614736 1_556
O55 Si15 1.618096 1_555
