# generated using pymatgen
data_Rb3Cu2(BiS2)5
_symmetry_space_group_name_H-M   'P 1'
_cell_length_a   4.08038700
_cell_length_b   14.79201000
_cell_length_c   18.02877800
_cell_angle_alpha   90.00000000
_cell_angle_beta   90.00000000
_cell_angle_gamma   90.00000000
_symmetry_Int_Tables_number   1
_chemical_formula_structural   Rb3Cu2(BiS2)5
_chemical_formula_sum   'Rb6 Cu4 Bi10 S20'
_cell_volume   1088.16521289
_cell_formula_units_Z   2
loop_
 _symmetry_equiv_pos_site_id
 _symmetry_equiv_pos_as_xyz
  1  'x, y, z'
loop_
 _atom_site_type_symbol
 _atom_site_label
 _atom_site_symmetry_multiplicity
 _atom_site_fract_x
 _atom_site_fract_y
 _atom_site_fract_z
 _atom_site_occupancy
  Rb  Rb0  1  0.50000000  0.02399100  0.75147600  1
  Rb  Rb1  1  0.00000000  0.52399100  0.74852400  1
  Rb  Rb2  1  0.50000000  0.50000000  0.00000000  1
  Rb  Rb3  1  0.50000000  0.97600900  0.24852400  1
  Rb  Rb4  1  0.00000000  0.47600900  0.25147600  1
  Rb  Rb5  1  0.00000000  0.00000000  0.50000000  1
  Cu  Cu0  1  0.00000000  0.77995200  0.75504600  1
  Cu  Cu1  1  0.00000000  0.22004800  0.24495400  1
  Cu  Cu2  1  0.50000000  0.72004800  0.25504600  1
  Cu  Cu3  1  0.50000000  0.27995200  0.74495400  1
  Bi  Bi0  1  0.00000000  0.73758500  0.10516600  1
  Bi  Bi1  1  0.50000000  0.78446200  0.90649700  1
  Bi  Bi2  1  0.50000000  0.23758500  0.39483400  1
  Bi  Bi3  1  0.50000000  0.21553800  0.09350300  1
  Bi  Bi4  1  0.00000000  0.71553800  0.40649700  1
  Bi  Bi5  1  0.00000000  0.28446200  0.59350300  1
  Bi  Bi6  1  0.50000000  0.76241500  0.60516600  1
  Bi  Bi7  1  0.50000000  0.50000000  0.50000000  1
  Bi  Bi8  1  0.00000000  0.26241500  0.89483400  1
  Bi  Bi9  1  0.00000000  0.00000000  0.00000000  1
  S  S0  1  0.50000000  0.40441100  0.63673000  1
  S  S1  1  0.00000000  0.12782900  0.35030400  1
  S  S2  1  0.00000000  0.32961600  0.03264200  1
  S  S3  1  0.00000000  0.67038400  0.96735800  1
  S  S4  1  0.50000000  0.88073500  0.05503000  1
  S  S5  1  0.50000000  0.17038400  0.53264200  1
  S  S6  1  0.00000000  0.87217100  0.64969600  1
  S  S7  1  0.00000000  0.38073500  0.44497000  1
  S  S8  1  0.50000000  0.82961600  0.46735800  1
  S  S9  1  0.50000000  0.29615400  0.22812000  1
  S  S10  1  0.50000000  0.37217100  0.85030400  1
  S  S11  1  0.00000000  0.79615400  0.27188000  1
  S  S12  1  0.50000000  0.62782900  0.14969600  1
  S  S13  1  0.50000000  0.70384600  0.77188000  1
  S  S14  1  0.00000000  0.20384600  0.72812000  1
  S  S15  1  0.00000000  0.09558900  0.13673000  1
  S  S16  1  0.00000000  0.61926500  0.55503000  1
  S  S17  1  0.50000000  0.59558900  0.36327000  1
  S  S18  1  0.00000000  0.90441100  0.86327000  1
  S  S19  1  0.50000000  0.11926500  0.94497000  1
loop_
_geom_bond_atom_site_label_1
_geom_bond_atom_site_label_2
_geom_bond_distance
_geom_bond_site_symmetry_2
Rb0 S18 3.369484 1_645
Rb0 S18 3.369484 1_545
Rb0 S14 3.378982 1_655
Rb0 S14 3.378982 1_555
Rb0 S6 3.545811 1_645
Rb0 S6 3.545811 1_545
Rb0 S19 3.762375 1_555
Rb1 S0 3.369484 1_455
Rb1 S0 3.369484 1_555
Rb1 S13 3.378982 1_455
Rb1 S13 3.378982 1_555
Rb1 S10 3.545811 1_555
Rb1 S10 3.545811 1_455
Rb1 S16 3.762375 1_555
Rb2 S12 3.295303 1_555
Rb2 S10 3.295303 1_554
Rb2 S3 3.295563 1_654
Rb2 S2 3.295563 1_555
Rb2 S3 3.295563 1_554
Rb2 S2 3.295563 1_655
Rb3 S15 3.369484 1_565
Rb3 S15 3.369484 1_665
Rb3 S11 3.378982 1_555
Rb3 S11 3.378982 1_655
Rb3 S1 3.545811 1_665
Rb3 S1 3.545811 1_565
Rb3 S4 3.762375 1_555
Rb4 S17 3.369484 1_455
Rb4 S17 3.369484 1_555
Rb4 S9 3.378982 1_455
Rb4 S9 3.378982 1_555
Rb4 S12 3.545811 1_455
Rb4 S12 3.545811 1_555
Rb4 S7 3.762375 1_555
Rb5 S1 3.295303 1_555
Rb5 S6 3.295303 1_545
Rb5 S8 3.295563 1_445
Rb5 S5 3.295563 1_555
Rb5 S8 3.295563 1_545
Rb5 S5 3.295563 1_455
Cu0 S6 2.338427 1_555
Cu0 S13 2.349859 1_555
Cu0 S13 2.349859 1_455
Cu0 S18 2.682583 1_555
Cu1 S1 2.338427 1_555
Cu1 S9 2.349859 1_455
Cu1 S9 2.349859 1_555
Cu1 S15 2.682583 1_555
Cu2 S12 2.338427 1_555
Cu2 S11 2.349859 1_555
Cu2 S11 2.349859 1_655
Cu2 S17 2.682583 1_555
Cu3 S10 2.338427 1_555
Cu3 S14 2.349859 1_655
Cu3 S14 2.349859 1_555
Cu3 S0 2.682583 1_555
Bi0 S3 2.675986 1_554
Bi0 S12 2.728132 1_555
Bi0 S12 2.728132 1_455
Bi0 S4 3.076217 1_455
Bi0 S4 3.076217 1_555
Bi0 S11 3.128018 1_555
Bi1 S13 2.704112 1_555
Bi1 S18 2.813865 1_655
Bi1 S18 2.813865 1_555
Bi1 S3 2.865974 1_555
Bi1 S3 2.865974 1_655
Bi1 S4 3.032978 1_556
Bi2 S5 2.675986 1_555
Bi2 S1 2.728132 1_555
Bi2 S1 2.728132 1_655
Bi2 S7 3.076217 1_555
Bi2 S7 3.076217 1_655
Bi2 S9 3.128018 1_555
Bi3 S9 2.704112 1_555
Bi3 S15 2.813865 1_555
Bi3 S15 2.813865 1_655
Bi3 S2 2.865974 1_555
Bi3 S2 2.865974 1_655
Bi3 S19 3.032978 1_554
Bi4 S11 2.704112 1_555
Bi4 S17 2.813865 1_455
Bi4 S17 2.813865 1_555
Bi4 S8 2.865974 1_555
Bi4 S8 2.865974 1_455
Bi4 S16 3.032978 1_555
Bi5 S14 2.704112 1_555
Bi5 S0 2.813865 1_455
Bi5 S0 2.813865 1_555
Bi5 S5 2.865974 1_555
Bi5 S5 2.865974 1_455
Bi5 S7 3.032978 1_555
Bi6 S8 2.675986 1_555
Bi6 S6 2.728132 1_655
Bi6 S6 2.728132 1_555
Bi6 S16 3.076217 1_555
Bi6 S16 3.076217 1_655
Bi6 S13 3.128018 1_555
Bi7 S0 2.841805 1_555
Bi7 S17 2.841805 1_555
Bi7 S16 2.873846 1_555
Bi7 S16 2.873846 1_655
Bi7 S7 2.873846 1_555
Bi7 S7 2.873846 1_655
Bi8 S2 2.675986 1_556
Bi8 S10 2.728132 1_555
Bi8 S10 2.728132 1_455
Bi8 S19 3.076217 1_555
Bi8 S19 3.076217 1_455
Bi8 S14 3.128018 1_555
Bi9 S15 2.841805 1_555
Bi9 S18 2.841805 1_544
Bi9 S4 2.873846 1_445
Bi9 S4 2.873846 1_545
Bi9 S19 2.873846 1_454
Bi9 S19 2.873846 1_554
