# generated using pymatgen
data_Er3CoSi3
_symmetry_space_group_name_H-M   'P 1'
_cell_length_a   4.11868267
_cell_length_b   5.56231620
_cell_length_c   12.57764741
_cell_angle_alpha   84.92419100
_cell_angle_beta   80.57652550
_cell_angle_gamma   68.27012951
_symmetry_Int_Tables_number   1
_chemical_formula_structural   Er3CoSi3
_chemical_formula_sum   'Er6 Co2 Si6'
_cell_volume   263.93657147
_cell_formula_units_Z   2
loop_
 _symmetry_equiv_pos_site_id
 _symmetry_equiv_pos_as_xyz
  1  'x, y, z'
loop_
 _atom_site_type_symbol
 _atom_site_label
 _atom_site_symmetry_multiplicity
 _atom_site_fract_x
 _atom_site_fract_y
 _atom_site_fract_z
 _atom_site_occupancy
  Er  Er0  1  0.74703705  0.73446782  0.77145809  1
  Er  Er1  1  0.40025556  0.28023713  0.91925074  1
  Er  Er2  1  0.59972007  0.71975243  0.08080844  1
  Er  Er3  1  0.47472375  0.67072599  0.37982651  1
  Er  Er4  1  0.25296368  0.26552078  0.22855186  1
  Er  Er5  1  0.52528857  0.32927587  0.62014800  1
  Co  Co0  1  0.75202374  0.07644459  0.41950693  1
  Co  Co1  1  0.24800451  0.92356559  0.58042639  1
  Si  Si0  1  0.05362606  0.13504492  0.75770297  1
  Si  Si1  1  0.13985288  0.26458801  0.45570622  1
  Si  Si2  1  0.86016575  0.73542672  0.54424177  1
  Si  Si3  1  0.94636619  0.86495651  0.24231112  1
  Si  Si4  1  0.88349456  0.15658577  0.07642510  1
  Si  Si5  1  0.11647864  0.84340685  0.92363487  1
loop_
_geom_bond_atom_site_label_1
_geom_bond_atom_site_label_2
_geom_bond_distance
_geom_bond_site_symmetry_2
Er0 Si2 2.819134 1_555
Er0 Si5 2.861403 1_655
Er0 Si5 2.861406 1_555
Er0 Si0 2.921066 1_565
Er0 Si0 2.921067 1_665
Er0 Si0 3.107126 1_655
Er1 Si4 2.894243 1_456
Er1 Si4 2.894246 1_556
Er1 Si5 2.912091 1_555
Er1 Si0 2.985469 1_555
Er1 Si0 2.985472 1_655
Er1 Si5 3.054669 1_645
Er1 Si5 3.054669 1_545
Er2 Si5 2.894238 1_654
Er2 Si5 2.894244 1_554
Er2 Si4 2.912075 1_555
Er2 Si3 2.985106 1_555
Er2 Si3 2.985109 1_455
Er2 Si4 3.054680 1_565
Er2 Si4 3.054682 1_465
Er3 Si3 2.838201 1_455
Er3 Si3 2.838201 1_555
Er3 Si2 2.925050 1_555
Er3 Si2 2.925050 1_455
Er3 Si1 3.067747 1_655
Er3 Si1 3.067747 1_555
Er3 Si1 3.236955 1_565
Er4 Si1 2.818369 1_555
Er4 Si4 2.860987 1_455
Er4 Si4 2.860987 1_555
Er4 Si3 2.921021 1_545
Er4 Si3 2.921022 1_445
Er4 Si3 3.107197 1_455
Er5 Si0 2.838490 1_655
Er5 Si0 2.838493 1_555
Er5 Si1 2.925271 1_655
Er5 Si1 2.925273 1_555
Er5 Si2 3.067885 1_555
Er5 Si2 3.067887 1_455
Er5 Si2 3.236997 1_545
Co0 Si2 2.309639 1_545
Co0 Si1 2.326851 1_555
Co0 Si1 2.326855 1_655
Co0 Si3 2.484791 1_545
Co0 Er5 2.846433 1_555
Co0 Er3 2.990118 1_545
Co0 Er3 2.990121 1_645
Co0 Er3 3.095094 1_555
Co0 Er4 3.266260 1_555
Co0 Er4 3.266263 1_655
Co1 Si1 2.309538 1_565
Co1 Si2 2.326804 1_555
Co1 Si2 2.326808 1_455
Co1 Si0 2.485670 1_565
Co1 Er3 2.845999 1_555
Co1 Er5 2.990184 1_465
Co1 Er5 2.990185 1_565
Co1 Er5 3.095202 1_555
Co1 Er0 3.266972 1_555
Co1 Er0 3.266975 1_455
Si0 Si5 2.514181 1_545
Si1 Si2 2.699635 1_455
Si3 Si4 2.513699 1_565
Si4 Si5 2.529665 1_644
