# generated using pymatgen
data_AlPO4
_symmetry_space_group_name_H-M   'P 1'
_cell_length_a   18.90773849
_cell_length_b   18.90773849
_cell_length_c   8.69464100
_cell_angle_alpha   90.00000000
_cell_angle_beta   90.00000000
_cell_angle_gamma   120.00000171
_symmetry_Int_Tables_number   1
_chemical_formula_structural   AlPO4
_chemical_formula_sum   'Al18 P18 O72'
_cell_volume   2691.91568475
_cell_formula_units_Z   18
loop_
 _symmetry_equiv_pos_site_id
 _symmetry_equiv_pos_as_xyz
  1  'x, y, z'
loop_
 _atom_site_type_symbol
 _atom_site_label
 _atom_site_symmetry_multiplicity
 _atom_site_fract_x
 _atom_site_fract_y
 _atom_site_fract_z
 _atom_site_occupancy
  Al  Al0  1  0.58727000  0.00000000  0.68528000  1
  Al  Al1  1  0.33867800  0.50896900  0.17160900  1
  Al  Al2  1  0.00000000  0.41273000  0.18528000  1
  Al  Al3  1  0.50896900  0.33867800  0.17160900  1
  Al  Al4  1  0.41273000  0.41273000  0.68528000  1
  Al  Al5  1  0.17029100  0.50896900  0.67160900  1
  Al  Al6  1  0.66132200  0.49103100  0.67160900  1
  Al  Al7  1  0.50896900  0.17029100  0.67160900  1
  Al  Al8  1  0.00000000  0.58727000  0.68528000  1
  Al  Al9  1  0.82970900  0.49103100  0.17160900  1
  Al  Al10  1  0.58727000  0.58727000  0.18528000  1
  Al  Al11  1  0.33867800  0.82970900  0.67160900  1
  Al  Al12  1  0.17029100  0.66132200  0.17160900  1
  Al  Al13  1  0.49103100  0.66132200  0.67160900  1
  Al  Al14  1  0.41273000  0.00000000  0.18528000  1
  Al  Al15  1  0.82970900  0.33867800  0.67160900  1
  Al  Al16  1  0.49103100  0.82970900  0.17160900  1
  Al  Al17  1  0.66132200  0.17029100  0.17160900  1
  P  P0  1  0.50047500  0.17394300  0.29703100  1
  P  P1  1  0.17394300  0.50047500  0.29703100  1
  P  P2  1  0.00000000  0.57473600  0.31082700  1
  P  P3  1  0.82605700  0.32653200  0.29703100  1
  P  P4  1  0.00000000  0.42526400  0.81082700  1
  P  P5  1  0.32653200  0.82605700  0.29703100  1
  P  P6  1  0.49952500  0.67346800  0.29703100  1
  P  P7  1  0.57473600  0.00000000  0.31082700  1
  P  P8  1  0.50047500  0.32653200  0.79703100  1
  P  P9  1  0.17394300  0.67346800  0.79703100  1
  P  P10  1  0.42526400  0.00000000  0.81082700  1
  P  P11  1  0.67346800  0.49952500  0.29703100  1
  P  P12  1  0.67346800  0.17394300  0.79703100  1
  P  P13  1  0.42526400  0.42526400  0.31082700  1
  P  P14  1  0.82605700  0.49952500  0.79703100  1
  P  P15  1  0.32653200  0.50047500  0.79703100  1
  P  P16  1  0.57473600  0.57473600  0.81082700  1
  P  P17  1  0.49952500  0.82605700  0.79703100  1
  O  O0  1  0.57057400  0.64717100  0.74056500  1
  O  O1  1  0.50484400  0.50484400  0.27627000  1
  O  O2  1  0.24447400  0.75336000  0.24968200  1
  O  O3  1  0.50888600  0.75552600  0.24968200  1
  O  O4  1  0.92340300  0.35282900  0.74056500  1
  O  O5  1  0.57844500  0.18290200  0.22230600  1
  O  O6  1  0.32939800  0.42375000  0.74385400  1
  O  O7  1  0.50484400  0.00000000  0.77627000  1
  O  O8  1  0.42375000  0.09435200  0.24385400  1
  O  O9  1  0.35282900  0.92340300  0.74056500  1
  O  O10  1  0.90564800  0.57625000  0.74385400  1
  O  O11  1  0.49206900  0.82688900  0.97207300  1
  O  O12  1  0.18290200  0.60445700  0.72230600  1
  O  O13  1  0.42942600  0.35282900  0.24056500  1
  O  O14  1  0.57057400  0.92340300  0.24056500  1
  O  O15  1  0.41491400  0.41491400  0.48538600  1
  O  O16  1  0.24664000  0.75552600  0.74968200  1
  O  O17  1  0.75552600  0.24664000  0.74968200  1
  O  O18  1  0.35282900  0.42942600  0.24056500  1
  O  O19  1  0.42155500  0.81709800  0.72230600  1
  O  O20  1  0.09435200  0.42375000  0.24385400  1
  O  O21  1  0.50793100  0.17311100  0.47207300  1
  O  O22  1  0.90564800  0.32939800  0.24385400  1
  O  O23  1  0.07659700  0.42942600  0.74056500  1
  O  O24  1  0.42375000  0.32939800  0.74385400  1
  O  O25  1  0.66518000  0.17311100  0.97207300  1
  O  O26  1  0.82688900  0.49206900  0.97207300  1
  O  O27  1  0.58508600  0.00000000  0.48538600  1
  O  O28  1  0.57844500  0.39554300  0.72230600  1
  O  O29  1  0.41491400  0.00000000  0.98538600  1
  O  O30  1  0.92340300  0.57057400  0.24056500  1
  O  O31  1  0.60445700  0.42155500  0.22230600  1
  O  O32  1  0.81709800  0.39554300  0.22230600  1
  O  O33  1  0.49111400  0.24447400  0.74968200  1
  O  O34  1  0.33482000  0.50793100  0.97207300  1
  O  O35  1  0.00000000  0.41491400  0.98538600  1
  O  O36  1  0.39554300  0.81709800  0.22230600  1
  O  O37  1  0.33482000  0.82688900  0.47207300  1
  O  O38  1  0.60445700  0.18290200  0.72230600  1
  O  O39  1  0.50888600  0.75336000  0.74968200  1
  O  O40  1  0.81709800  0.42155500  0.72230600  1
  O  O41  1  0.49515600  0.49515600  0.77627000  1
  O  O42  1  0.67060200  0.09435200  0.74385400  1
  O  O43  1  0.50793100  0.33482000  0.97207300  1
  O  O44  1  0.24447400  0.49111400  0.74968200  1
  O  O45  1  0.17311100  0.50793100  0.47207300  1
  O  O46  1  0.75336000  0.24447400  0.24968200  1
  O  O47  1  0.09435200  0.67060200  0.74385400  1
  O  O48  1  0.57625000  0.67060200  0.24385400  1
  O  O49  1  0.49515600  0.00000000  0.27627000  1
  O  O50  1  0.07659700  0.64717100  0.24056500  1
  O  O51  1  0.42942600  0.07659700  0.74056500  1
  O  O52  1  0.49111400  0.24664000  0.24968200  1
  O  O53  1  0.00000000  0.50484400  0.77627000  1
  O  O54  1  0.64717100  0.57057400  0.74056500  1
  O  O55  1  0.49206900  0.66518000  0.47207300  1
  O  O56  1  0.18290200  0.57844500  0.22230600  1
  O  O57  1  0.66518000  0.49206900  0.47207300  1
  O  O58  1  0.82688900  0.33482000  0.47207300  1
  O  O59  1  0.32939800  0.90564800  0.24385400  1
  O  O60  1  0.17311100  0.66518000  0.97207300  1
  O  O61  1  0.24664000  0.49111400  0.24968200  1
  O  O62  1  0.42155500  0.60445700  0.22230600  1
  O  O63  1  0.00000000  0.49515600  0.27627000  1
  O  O64  1  0.57625000  0.90564800  0.74385400  1
  O  O65  1  0.00000000  0.58508600  0.48538600  1
  O  O66  1  0.64717100  0.07659700  0.24056500  1
  O  O67  1  0.39554300  0.57844500  0.72230600  1
  O  O68  1  0.58508600  0.58508600  0.98538600  1
  O  O69  1  0.75552600  0.50888600  0.24968200  1
  O  O70  1  0.67060200  0.57625000  0.24385400  1
  O  O71  1  0.75336000  0.50888600  0.74968200  1
loop_
_geom_bond_atom_site_label_1
_geom_bond_atom_site_label_2
_geom_bond_distance
_geom_bond_site_symmetry_2
Al0 O27 1.738497 1_555
Al0 O7 1.747789 1_555
Al0 O42 1.764557 1_555
Al0 O64 1.764557 1_545
Al1 O34 1.736125 1_554
Al1 O61 1.736568 1_555
Al1 O62 1.755091 1_555
Al1 O18 1.759377 1_555
Al2 O35 1.738497 1_554
Al2 O63 1.747789 1_555
Al2 O22 1.764557 1_455
Al2 O20 1.764557 1_555
Al3 O43 1.736125 1_554
Al3 O52 1.736568 1_555
Al3 O31 1.755091 1_555
Al3 O13 1.759377 1_555
Al4 O15 1.738497 1_555
Al4 O41 1.747789 1_555
Al4 O6 1.764557 1_555
Al4 O24 1.764557 1_555
Al5 O45 1.736125 1_555
Al5 O44 1.736568 1_555
Al5 O12 1.755091 1_555
Al5 O23 1.759377 1_555
Al6 O57 1.736125 1_555
Al6 O71 1.736568 1_555
Al6 O28 1.755091 1_555
Al6 O54 1.759377 1_555
Al7 O21 1.736125 1_555
Al7 O33 1.736568 1_555
Al7 O38 1.755091 1_555
Al7 O51 1.759377 1_555
Al8 O65 1.738497 1_555
Al8 O53 1.747789 1_555
Al8 O47 1.764557 1_555
Al8 O10 1.764557 1_455
Al9 O26 1.736125 1_554
Al9 O69 1.736568 1_555
Al9 O32 1.755091 1_555
Al9 O30 1.759377 1_555
Al10 O68 1.738497 1_554
Al10 O1 1.747789 1_555
Al10 O48 1.764557 1_555
Al10 O70 1.764557 1_555
Al11 O37 1.736125 1_555
Al11 O16 1.736568 1_555
Al11 O19 1.755091 1_555
Al11 O9 1.759377 1_555
Al12 O60 1.736125 1_554
Al12 O2 1.736568 1_555
Al12 O56 1.755091 1_555
Al12 O50 1.759377 1_555
Al13 O55 1.736125 1_555
Al13 O39 1.736568 1_555
Al13 O67 1.755091 1_555
Al13 O0 1.759377 1_555
Al14 O29 1.738497 1_554
Al14 O49 1.747789 1_555
Al14 O59 1.764557 1_545
Al14 O8 1.764557 1_555
Al15 O58 1.736125 1_555
Al15 O17 1.736568 1_555
Al15 O40 1.755091 1_555
Al15 O4 1.759377 1_555
Al16 O11 1.736125 1_554
Al16 O3 1.736568 1_555
Al16 O36 1.755091 1_555
Al16 O14 1.759377 1_555
Al17 O25 1.736125 1_554
Al17 O46 1.736568 1_555
Al17 O5 1.755091 1_555
Al17 O66 1.759377 1_555
O0 P16 1.537182 1_555
O1 P13 1.534383 1_555
O2 P5 1.527562 1_555
O3 P6 1.527562 1_555
O4 P4 1.537182 1_655
O5 P0 1.540928 1_555
O6 P15 1.549142 1_555
O7 P10 1.534383 1_555
O8 P0 1.549142 1_555
O9 P10 1.537182 1_565
O10 P14 1.549142 1_555
O11 P17 1.529249 1_555
O12 P9 1.540928 1_555
O13 P13 1.537182 1_555
O14 P7 1.537182 1_565
O15 P13 1.530292 1_555
O16 P9 1.527562 1_555
O17 P12 1.527562 1_555
O18 P13 1.537182 1_555
O19 P17 1.540928 1_555
O20 P1 1.549142 1_555
O21 P0 1.529249 1_555
O22 P3 1.549142 1_555
O23 P4 1.537182 1_555
O24 P8 1.549142 1_555
O25 P12 1.529249 1_555
O26 P14 1.529249 1_555
O27 P7 1.530292 1_555
O28 P8 1.540928 1_555
O29 P10 1.530292 1_555
O30 P2 1.537182 1_655
O31 P11 1.540928 1_555
O32 P3 1.540928 1_555
O33 P8 1.527562 1_555
O34 P15 1.529249 1_555
O35 P4 1.530292 1_555
O36 P5 1.540928 1_555
O37 P5 1.529249 1_555
O38 P12 1.540928 1_555
O39 P17 1.527562 1_555
O40 P14 1.540928 1_555
O41 P16 1.534383 1_555
O42 P12 1.549142 1_555
O43 P8 1.529249 1_555
O44 P15 1.527562 1_555
O45 P1 1.529249 1_555
O46 P3 1.527562 1_555
O47 P9 1.549142 1_555
O48 P6 1.549142 1_555
O49 P7 1.534383 1_555
O50 P2 1.537182 1_555
O51 P10 1.537182 1_555
O52 P0 1.527562 1_555
O53 P4 1.534383 1_555
O54 P16 1.537182 1_555
O55 P6 1.529249 1_555
O56 P1 1.540928 1_555
O57 P11 1.529249 1_555
O58 P3 1.529249 1_555
O59 P5 1.549142 1_555
O60 P9 1.529249 1_555
O61 P1 1.527562 1_555
O62 P6 1.540928 1_555
O63 P2 1.534383 1_555
O64 P17 1.549142 1_555
O65 P2 1.530292 1_555
O66 P7 1.537182 1_555
O67 P15 1.540928 1_555
O68 P16 1.530292 1_555
O69 P11 1.527562 1_555
O70 P11 1.549142 1_555
O71 P14 1.527562 1_555
