# generated using pymatgen
data_LiFe2(PO4)3
_symmetry_space_group_name_H-M   'P 1'
_cell_length_a   8.70664862
_cell_length_b   8.70664833
_cell_length_c   6.40962434
_cell_angle_alpha   74.81545191
_cell_angle_beta   105.18453924
_cell_angle_gamma   84.64957620
_symmetry_Int_Tables_number   1
_chemical_formula_structural   LiFe2(PO4)3
_chemical_formula_sum   'Li2 Fe4 P6 O24'
_cell_volume   445.66572396
_cell_formula_units_Z   2
loop_
 _symmetry_equiv_pos_site_id
 _symmetry_equiv_pos_as_xyz
  1  'x, y, z'
loop_
 _atom_site_type_symbol
 _atom_site_label
 _atom_site_symmetry_multiplicity
 _atom_site_fract_x
 _atom_site_fract_y
 _atom_site_fract_z
 _atom_site_occupancy
  Li  Li0  1  0.71537400  0.71537400  0.75000000  1
  Li  Li1  1  0.28462600  0.28462600  0.25000000  1
  Fe  Fe0  1  0.35912700  0.93844000  0.11987900  1
  Fe  Fe1  1  0.06156000  0.64087300  0.61987900  1
  Fe  Fe2  1  0.93844000  0.35912700  0.38012100  1
  Fe  Fe3  1  0.64087300  0.06156000  0.88012100  1
  P  P0  1  0.66096100  0.13028100  0.37978300  1
  P  P1  1  0.86971900  0.33903900  0.87978300  1
  P  P2  1  0.33903900  0.86971900  0.62021700  1
  P  P3  1  0.70987500  0.70987500  0.25000000  1
  P  P4  1  0.29012500  0.29012500  0.75000000  1
  P  P5  1  0.13028100  0.66096100  0.12021700  1
  O  O0  1  0.39390100  0.94413500  0.81875200  1
  O  O1  1  0.74772200  0.53552000  0.23566800  1
  O  O2  1  0.82429400  0.17045100  0.89553900  1
  O  O3  1  0.47180100  0.72411300  0.66422800  1
  O  O4  1  0.72411300  0.47180100  0.83577200  1
  O  O5  1  0.82954900  0.17570600  0.39553900  1
  O  O6  1  0.00749600  0.66467200  0.89472900  1
  O  O7  1  0.99250400  0.33532800  0.10527100  1
  O  O8  1  0.27588700  0.52819900  0.16422800  1
  O  O9  1  0.05586500  0.60609900  0.31875200  1
  O  O10  1  0.60609900  0.05586500  0.18124800  1
  O  O11  1  0.94413500  0.39390100  0.68124800  1
  O  O12  1  0.82499600  0.72860300  0.46917000  1
  O  O13  1  0.33532800  0.99250400  0.39472900  1
  O  O14  1  0.25227800  0.46448000  0.76433200  1
  O  O15  1  0.72860300  0.82499600  0.03083000  1
  O  O16  1  0.46448000  0.25227800  0.73566800  1
  O  O17  1  0.53552000  0.74772200  0.26433200  1
  O  O18  1  0.66467200  0.00749600  0.60527100  1
  O  O19  1  0.27139700  0.17500400  0.96917000  1
  O  O20  1  0.17045100  0.82429400  0.60446100  1
  O  O21  1  0.17500400  0.27139700  0.53083000  1
  O  O22  1  0.17570600  0.82954900  0.10446100  1
  O  O23  1  0.52819900  0.27588700  0.33577200  1
loop_
_geom_bond_atom_site_label_1
_geom_bond_atom_site_label_2
_geom_bond_distance
_geom_bond_site_symmetry_2
Li0 O4 2.035351 1_555
Li0 O3 2.035351 1_555
Li0 O12 2.230731 1_555
Li0 O15 2.230731 1_556
Li0 O18 2.421655 1_565
Li0 O6 2.421656 1_655
Li1 O8 2.035351 1_555
Li1 O23 2.035351 1_555
Li1 O21 2.230731 1_555
Li1 O19 2.230731 1_554
Li1 O13 2.421655 1_545
Li1 O7 2.421656 1_455
Fe0 O22 1.925548 1_555
Fe0 O17 1.986787 1_555
Fe0 O13 1.993864 1_555
Fe0 O19 2.009140 1_564
Fe0 O0 2.019467 1_554
Fe0 O10 2.449763 1_565
Fe1 O20 1.925548 1_555
Fe1 O14 1.986787 1_555
Fe1 O6 1.993864 1_555
Fe1 O12 2.009140 1_455
Fe1 O9 2.019467 1_555
Fe1 O11 2.449763 1_455
Fe2 O5 1.925548 1_555
Fe2 O1 1.986787 1_555
Fe2 O7 1.993864 1_555
Fe2 O21 2.009140 1_655
Fe2 O11 2.019467 1_555
Fe2 O9 2.449763 1_655
Fe3 O2 1.925548 1_555
Fe3 O16 1.986787 1_555
Fe3 O18 1.993864 1_555
Fe3 O15 2.009140 1_546
Fe3 O10 2.019467 1_556
Fe3 O0 2.449763 1_545
O0 P2 1.561573 1_555
O1 P3 1.554707 1_555
O2 P1 1.540356 1_555
O3 P2 1.546424 1_555
O4 P1 1.546424 1_555
O5 P0 1.540356 1_555
O6 P5 1.546760 1_556
O7 P1 1.546760 1_554
O8 P5 1.546424 1_555
O9 P5 1.561573 1_555
O10 P0 1.561573 1_555
O11 P1 1.561573 1_555
O12 P3 1.554845 1_555
O13 P2 1.546760 1_555
O14 P4 1.554707 1_555
O15 P3 1.554845 1_555
O16 P4 1.554707 1_555
O17 P3 1.554707 1_555
O18 P0 1.546760 1_555
O19 P4 1.554845 1_555
O20 P2 1.540356 1_555
O21 P4 1.554845 1_555
O22 P5 1.540356 1_555
O23 P0 1.546424 1_555
