# generated using pymatgen
data_Cs3W2Cl9
_symmetry_space_group_name_H-M   'P 1'
_cell_length_a   7.55488943
_cell_length_b   7.55488943
_cell_length_c   18.21011200
_cell_angle_alpha   90.00000000
_cell_angle_beta   90.00000000
_cell_angle_gamma   119.99999497
_symmetry_Int_Tables_number   1
_chemical_formula_structural   Cs3W2Cl9
_chemical_formula_sum   'Cs6 W4 Cl18'
_cell_volume   900.11810105
_cell_formula_units_Z   2
loop_
 _symmetry_equiv_pos_site_id
 _symmetry_equiv_pos_as_xyz
  1  'x, y, z'
loop_
 _atom_site_type_symbol
 _atom_site_label
 _atom_site_symmetry_multiplicity
 _atom_site_fract_x
 _atom_site_fract_y
 _atom_site_fract_z
 _atom_site_occupancy
  Cs  Cs0  1  0.33333300  0.66666700  0.07229000  1
  Cs  Cs1  1  0.00000000  0.00000000  0.25000000  1
  Cs  Cs2  1  0.33333300  0.66666700  0.42771000  1
  Cs  Cs3  1  0.00000000  0.00000000  0.75000000  1
  Cs  Cs4  1  0.66666700  0.33333300  0.57229000  1
  Cs  Cs5  1  0.66666700  0.33333300  0.92771000  1
  W  W0  1  0.33333300  0.66666700  0.67366200  1
  W  W1  1  0.33333300  0.66666700  0.82633800  1
  W  W2  1  0.66666700  0.33333300  0.17366200  1
  W  W3  1  0.66666700  0.33333300  0.32633800  1
  Cl  Cl0  1  0.49195900  0.50804100  0.75000000  1
  Cl  Cl1  1  0.98391800  0.49195900  0.25000000  1
  Cl  Cl2  1  0.50804100  0.49195900  0.25000000  1
  Cl  Cl3  1  0.63620500  0.81810300  0.59785300  1
  Cl  Cl4  1  0.81810300  0.63620500  0.40214700  1
  Cl  Cl5  1  0.50804100  0.01608200  0.25000000  1
  Cl  Cl6  1  0.18189700  0.81810300  0.59785300  1
  Cl  Cl7  1  0.18189700  0.81810300  0.90214700  1
  Cl  Cl8  1  0.81810300  0.18189700  0.09785300  1
  Cl  Cl9  1  0.18189700  0.36379500  0.90214700  1
  Cl  Cl10  1  0.36379500  0.18189700  0.09785300  1
  Cl  Cl11  1  0.81810300  0.63620500  0.09785300  1
  Cl  Cl12  1  0.18189700  0.36379500  0.59785300  1
  Cl  Cl13  1  0.49195900  0.98391800  0.75000000  1
  Cl  Cl14  1  0.01608200  0.50804100  0.75000000  1
  Cl  Cl15  1  0.36379500  0.18189700  0.40214700  1
  Cl  Cl16  1  0.63620500  0.81810300  0.90214700  1
  Cl  Cl17  1  0.81810300  0.18189700  0.40214700  1
loop_
_geom_bond_atom_site_label_1
_geom_bond_atom_site_label_2
_geom_bond_distance
_geom_bond_site_symmetry_2
Cl0 W0 2.498188 1_555
Cl0 W1 2.498188 1_555
Cl0 Cs3 3.778910 1_555
Cl0 Cs3 3.778910 1_665
Cl0 Cs4 3.962180 1_555
Cl0 Cs5 3.962180 1_555
Cl1 W3 2.498183 1_555
Cl1 W2 2.498183 1_555
Cl1 Cs1 3.778910 1_655
Cl1 Cs1 3.778910 1_665
Cl1 Cs0 3.962176 1_655
Cl1 Cs2 3.962176 1_655
Cl2 W3 2.498188 1_555
Cl2 W2 2.498188 1_555
Cl2 Cs1 3.778910 1_555
Cl2 Cs1 3.778910 1_665
Cl2 Cs0 3.962180 1_555
Cl2 Cs2 3.962180 1_555
Cl3 W0 2.415062 1_555
Cl3 Cs3 3.652630 1_665
Cl3 Cs2 3.677823 1_555
Cl3 Cs4 3.811227 1_565
Cl3 Cs4 3.811242 1_555
Cl4 W3 2.415062 1_555
Cl4 Cs1 3.652630 1_665
Cl4 Cs4 3.677823 1_555
Cl4 Cs2 3.811227 1_655
Cl4 Cs2 3.811242 1_555
Cl5 W3 2.498183 1_555
Cl5 W2 2.498183 1_555
Cl5 Cs1 3.778910 1_655
Cl5 Cs1 3.778910 1_555
Cl5 Cs0 3.962176 1_545
Cl5 Cs2 3.962176 1_545
Cl6 W0 2.415062 1_555
Cl6 Cs3 3.652626 1_565
Cl6 Cs2 3.677822 1_555
Cl6 Cs4 3.811234 1_455
Cl6 Cs4 3.811234 1_565
Cl7 W1 2.415062 1_555
Cl7 Cs3 3.652626 1_565
Cl7 Cs0 3.677822 1_556
Cl7 Cs5 3.811234 1_455
Cl7 Cs5 3.811234 1_565
Cl8 W2 2.415062 1_555
Cl8 Cs1 3.652626 1_655
Cl8 Cs5 3.677822 1_554
Cl8 Cs0 3.811234 1_545
Cl8 Cs0 3.811234 1_655
Cl9 W1 2.415062 1_555
Cl9 Cs3 3.652630 1_555
Cl9 Cs0 3.677823 1_556
Cl9 Cs5 3.811227 1_455
Cl9 Cs5 3.811242 1_555
Cl10 W2 2.415062 1_555
Cl10 Cs1 3.652630 1_555
Cl10 Cs5 3.677823 1_554
Cl10 Cs0 3.811227 1_545
Cl10 Cs0 3.811242 1_555
Cl11 W2 2.415062 1_555
Cl11 Cs1 3.652630 1_665
Cl11 Cs5 3.677823 1_554
Cl11 Cs0 3.811227 1_655
Cl11 Cs0 3.811242 1_555
Cl12 W0 2.415062 1_555
Cl12 Cs3 3.652630 1_555
Cl12 Cs2 3.677823 1_555
Cl12 Cs4 3.811227 1_455
Cl12 Cs4 3.811242 1_555
Cl13 W0 2.498183 1_555
Cl13 W1 2.498183 1_555
Cl13 Cs3 3.778910 1_565
Cl13 Cs3 3.778910 1_665
Cl13 Cs4 3.962176 1_565
Cl13 Cs5 3.962176 1_565
Cl14 W1 2.498183 1_555
Cl14 W0 2.498183 1_555
Cl14 Cs3 3.778910 1_565
Cl14 Cs3 3.778910 1_555
Cl14 Cs4 3.962176 1_455
Cl14 Cs5 3.962176 1_455
Cl15 W3 2.415062 1_555
Cl15 Cs1 3.652630 1_555
Cl15 Cs4 3.677823 1_555
Cl15 Cs2 3.811227 1_545
Cl15 Cs2 3.811242 1_555
Cl16 W1 2.415062 1_555
Cl16 Cs3 3.652630 1_665
Cl16 Cs0 3.677823 1_556
Cl16 Cs5 3.811227 1_565
Cl16 Cs5 3.811242 1_555
Cl17 W3 2.415062 1_555
Cl17 Cs1 3.652626 1_655
Cl17 Cs4 3.677822 1_555
Cl17 Cs2 3.811234 1_545
Cl17 Cs2 3.811234 1_655
