# generated using pymatgen
data_K10Zr3Mn(MoO4)12
_symmetry_space_group_name_H-M   'P 1'
_cell_length_a   14.28525591
_cell_length_b   14.28525591
_cell_length_c   14.28525630
_cell_angle_alpha   44.50957158
_cell_angle_beta   44.50957158
_cell_angle_gamma   44.50957374
_symmetry_Int_Tables_number   1
_chemical_formula_structural   K10Zr3Mn(MoO4)12
_chemical_formula_sum   'K10 Zr3 Mn1 Mo12 O48'
_cell_volume   1302.60707023
_cell_formula_units_Z   1
loop_
 _symmetry_equiv_pos_site_id
 _symmetry_equiv_pos_as_xyz
  1  'x, y, z'
loop_
 _atom_site_type_symbol
 _atom_site_label
 _atom_site_symmetry_multiplicity
 _atom_site_fract_x
 _atom_site_fract_y
 _atom_site_fract_z
 _atom_site_occupancy
  K  K0  1  0.89448600  0.89448600  0.89448600  1
  K  K1  1  0.60069900  0.60069900  0.60069900  1
  K  K2  1  0.87317100  0.12085000  0.50585100  1
  K  K3  1  0.50585100  0.87317100  0.12085000  1
  K  K4  1  0.12085000  0.50585100  0.87317100  1
  K  K5  1  0.40118500  0.40118500  0.40118500  1
  K  K6  1  0.60665200  0.38700700  0.00612200  1
  K  K7  1  0.38700700  0.00612200  0.60665200  1
  K  K8  1  0.00612200  0.60665200  0.38700700  1
  K  K9  1  0.10754000  0.10754000  0.10754000  1
  Zr  Zr0  1  0.00010200  0.00010200  0.00010200  1
  Zr  Zr1  1  0.75219000  0.75219000  0.75219000  1
  Zr  Zr2  1  0.24794800  0.24794800  0.24794800  1
  Mn  Mn0  1  0.50013000  0.50013000  0.50013000  1
  Mo  Mo0  1  0.98928100  0.22736000  0.63051400  1
  Mo  Mo1  1  0.63051400  0.98928100  0.22736000  1
  Mo  Mo2  1  0.86398200  0.51539100  0.27397200  1
  Mo  Mo3  1  0.22736000  0.63051400  0.98928100  1
  Mo  Mo4  1  0.51539100  0.27397200  0.86398200  1
  Mo  Mo5  1  0.27397200  0.86398200  0.51539100  1
  Mo  Mo6  1  0.72674600  0.48534800  0.13532400  1
  Mo  Mo7  1  0.48534800  0.13532400  0.72674600  1
  Mo  Mo8  1  0.77345200  0.01132200  0.36885500  1
  Mo  Mo9  1  0.13532400  0.72674600  0.48534800  1
  Mo  Mo10  1  0.36885500  0.77345200  0.01132200  1
  Mo  Mo11  1  0.01132200  0.36885500  0.77345200  1
  O  O0  1  0.95429200  0.74745400  0.64754300  1
  O  O1  1  0.74745400  0.64754300  0.95429200  1
  O  O2  1  0.64754300  0.95429200  0.74745400  1
  O  O3  1  0.85357300  0.54727500  0.75069800  1
  O  O4  1  0.95241300  0.21559600  0.92571200  1
  O  O5  1  0.92571200  0.95241300  0.21559600  1
  O  O6  1  0.75069800  0.85357300  0.54727500  1
  O  O7  1  0.54727500  0.75069800  0.85357300  1
  O  O8  1  0.86639400  0.39498500  0.64792800  1
  O  O9  1  0.21559600  0.92571200  0.95241300  1
  O  O10  1  0.64792800  0.86639400  0.39498500  1
  O  O11  1  0.86172500  0.60136100  0.32233700  1
  O  O12  1  0.90386400  0.17918300  0.63314600  1
  O  O13  1  0.39498500  0.64792800  0.86639400  1
  O  O14  1  0.60136100  0.32233700  0.86172500  1
  O  O15  1  0.63314600  0.90386400  0.17918300  1
  O  O16  1  0.84296500  0.64016900  0.10690000  1
  O  O17  1  0.32233700  0.86172500  0.60136100  1
  O  O18  1  0.71777700  0.45473600  0.42436500  1
  O  O19  1  0.64016900  0.10690000  0.84296500  1
  O  O20  1  0.17918300  0.63314600  0.90386400  1
  O  O21  1  0.45473600  0.42436500  0.71777700  1
  O  O22  1  0.89406600  0.36189100  0.15534600  1
  O  O23  1  0.42436500  0.71777700  0.45473600  1
  O  O24  1  0.57590100  0.54483400  0.28243600  1
  O  O25  1  0.10690000  0.84296500  0.64016900  1
  O  O26  1  0.54483400  0.28243600  0.57590100  1
  O  O27  1  0.82252900  0.09688500  0.36498700  1
  O  O28  1  0.36189100  0.15534600  0.89406600  1
  O  O29  1  0.28243600  0.57590100  0.54483400  1
  O  O30  1  0.67932200  0.39931100  0.13658100  1
  O  O31  1  0.15534600  0.89406600  0.36189100  1
  O  O32  1  0.36498700  0.82252900  0.09688500  1
  O  O33  1  0.39931100  0.13658100  0.67932200  1
  O  O34  1  0.60616200  0.13531500  0.35038400  1
  O  O35  1  0.09688500  0.36498700  0.82252900  1
  O  O36  1  0.13658100  0.67932200  0.39931100  1
  O  O37  1  0.35038400  0.60616200  0.13531500  1
  O  O38  1  0.78470200  0.04690500  0.07463100  1
  O  O39  1  0.13531500  0.35038400  0.60616200  1
  O  O40  1  0.45312100  0.14841300  0.24883900  1
  O  O41  1  0.24883900  0.45312100  0.14841300  1
  O  O42  1  0.07463100  0.78470200  0.04690500  1
  O  O43  1  0.04690500  0.07463100  0.78470200  1
  O  O44  1  0.14841300  0.24883900  0.45312100  1
  O  O45  1  0.35450400  0.25196700  0.04609500  1
  O  O46  1  0.25196700  0.04609500  0.35450400  1
  O  O47  1  0.04609500  0.35450400  0.25196700  1
loop_
_geom_bond_atom_site_label_1
_geom_bond_atom_site_label_2
_geom_bond_distance
_geom_bond_site_symmetry_2
K0 O16 2.802342 1_556
K0 O25 2.802343 1_655
K0 O19 2.802343 1_565
K0 O12 2.983985 1_565
K0 O15 2.983985 1_556
K0 O20 2.983985 1_655
K0 O43 3.344848 1_665
K0 O42 3.344848 1_656
K0 O38 3.344848 1_566
K1 O10 2.900552 1_555
K1 O13 2.900552 1_555
K1 O8 2.900552 1_555
K1 O14 2.926627 1_555
K1 O11 2.926627 1_555
K1 O17 2.926627 1_555
K1 O21 3.162084 1_555
K1 O23 3.162084 1_555
K1 O18 3.162084 1_555
K2 O12 2.830705 1_555
K2 O27 2.846383 1_555
K2 O26 3.080189 1_555
K2 O18 3.114133 1_555
K2 O25 3.155581 1_645
K2 O31 3.166505 1_645
K3 O15 2.830705 1_555
K3 O32 2.846383 1_555
K3 O24 3.080189 1_555
K3 O23 3.114133 1_555
K3 O19 3.155581 1_564
K3 O28 3.166505 1_564
K4 O20 2.830705 1_555
K4 O35 2.846383 1_555
K4 O29 3.080189 1_555
K4 O21 3.114133 1_555
K4 O16 3.155581 1_456
K4 O22 3.166505 1_456
K5 O39 2.926478 1_555
K5 O37 2.926478 1_555
K5 O34 2.926478 1_555
K5 O30 2.940649 1_555
K5 O33 2.940649 1_555
K5 O36 2.940649 1_555
K5 O24 3.101493 1_555
K5 O29 3.101493 1_555
K5 O26 3.101493 1_555
K6 O30 2.840511 1_555
K6 O14 2.855519 1_554
K6 O37 2.977778 1_555
K6 O13 2.990380 1_554
K6 O38 3.189882 1_555
K6 O4 3.222006 1_554
K7 O33 2.840511 1_555
K7 O17 2.855518 1_545
K7 O34 2.977778 1_555
K7 O10 2.990380 1_545
K7 O43 3.189882 1_555
K7 O9 3.222006 1_545
K8 O36 2.840511 1_555
K8 O11 2.855518 1_455
K8 O39 2.977778 1_555
K8 O8 2.990379 1_455
K8 O42 3.189882 1_555
K8 O5 3.222006 1_455
K9 O28 2.780884 1_554
K9 O31 2.780884 1_545
K9 O22 2.780884 1_455
K9 O27 2.975657 1_455
K9 O35 2.975657 1_554
K9 O32 2.975657 1_545
Mn0 O18 2.141168 1_555
Mn0 O23 2.141168 1_555
Mn0 O21 2.141168 1_555
Mn0 O26 2.145419 1_555
Mn0 O29 2.145419 1_555
Mn0 O24 2.145419 1_555
Mo0 O12 1.749101 1_555
Mo0 O8 1.763184 1_555
Mo0 O44 1.831148 1_655
Mo0 O43 1.860015 1_655
Mo1 O15 1.749101 1_555
Mo1 O10 1.763184 1_555
Mo1 O40 1.831148 1_565
Mo1 O38 1.860015 1_565
Mo2 O11 1.763116 1_555
Mo2 O16 1.776138 1_555
Mo2 O18 1.804111 1_555
Mo2 O47 1.866879 1_655
Mo3 O20 1.749101 1_555
Mo3 O13 1.763184 1_555
Mo3 O41 1.831148 1_556
Mo3 O42 1.860015 1_556
Mo4 O14 1.763116 1_555
Mo4 O19 1.776138 1_555
Mo4 O21 1.804111 1_555
Mo4 O45 1.866879 1_556
Mo5 O17 1.763116 1_555
Mo5 O25 1.776138 1_555
Mo5 O23 1.804111 1_555
Mo5 O46 1.866879 1_565
Mo6 O30 1.763126 1_555
Mo6 O22 1.774418 1_555
Mo6 O24 1.805126 1_555
Mo6 O1 1.866594 1_554
Mo7 O33 1.763126 1_555
Mo7 O28 1.774418 1_555
Mo7 O26 1.805126 1_555
Mo7 O2 1.866594 1_545
Mo8 O27 1.749049 1_555
Mo8 O34 1.764520 1_555
Mo8 O6 1.830646 1_545
Mo8 O5 1.859466 1_545
Mo9 O36 1.763126 1_555
Mo9 O31 1.774418 1_555
Mo9 O29 1.805126 1_555
Mo9 O0 1.866594 1_455
Mo10 O32 1.749049 1_555
Mo10 O37 1.764520 1_555
Mo10 O7 1.830646 1_554
Mo10 O9 1.859466 1_554
Mo11 O35 1.749049 1_555
Mo11 O39 1.764520 1_555
Mo11 O3 1.830646 1_455
Mo11 O4 1.859466 1_455
O0 Zr1 2.069919 1_555
O1 Zr1 2.069919 1_555
O2 Zr1 2.069919 1_555
O3 Zr1 2.159894 1_555
O4 Zr0 2.108436 1_656
O5 Zr0 2.108436 1_665
O6 Zr1 2.159894 1_555
O7 Zr1 2.159894 1_555
O9 Zr0 2.108436 1_566
O38 Zr0 2.111222 1_655
O40 Zr2 2.166991 1_555
O41 Zr2 2.166991 1_555
O42 Zr0 2.111222 1_565
O43 Zr0 2.111222 1_556
O44 Zr2 2.166991 1_555
O45 Zr2 2.064782 1_555
O46 Zr2 2.064782 1_555
O47 Zr2 2.064782 1_555
