# generated using pymatgen
data_CoNiH24(SO10)2
_symmetry_space_group_name_H-M   'P 1'
_cell_length_a   6.20838129
_cell_length_b   6.20838129
_cell_length_c   24.60047940
_cell_angle_alpha   81.68853990
_cell_angle_beta   81.68853990
_cell_angle_gamma   71.03554524
_symmetry_Int_Tables_number   1
_chemical_formula_structural   CoNiH24(SO10)2
_chemical_formula_sum   'Co2 Ni2 H48 S4 O40'
_cell_volume   882.47742425
_cell_formula_units_Z   2
loop_
 _symmetry_equiv_pos_site_id
 _symmetry_equiv_pos_as_xyz
  1  'x, y, z'
loop_
 _atom_site_type_symbol
 _atom_site_label
 _atom_site_symmetry_multiplicity
 _atom_site_fract_x
 _atom_site_fract_y
 _atom_site_fract_z
 _atom_site_occupancy
  Co  Co0  1  0.00000000  0.00000000  0.50000000  1
  Co  Co1  1  0.00000000  0.00000000  0.00000000  1
  Ni  Ni0  1  0.05114700  0.94885300  0.75000000  1
  Ni  Ni1  1  0.94885300  0.05114700  0.25000000  1
  H  H0  1  0.06651400  0.34288900  0.55010600  1
  H  H1  1  0.65711100  0.93348600  0.94989400  1
  H  H2  1  0.93348600  0.65711100  0.44989400  1
  H  H3  1  0.34288900  0.06651400  0.05010600  1
  H  H4  1  0.25241600  0.30137600  0.49671200  1
  H  H5  1  0.69862400  0.74758400  0.00328800  1
  H  H6  1  0.74758400  0.69862400  0.50328800  1
  H  H7  1  0.30137600  0.25241600  0.99671200  1
  H  H8  1  0.63962200  0.29237200  0.55604100  1
  H  H9  1  0.70762800  0.36037800  0.94395900  1
  H  H10  1  0.36037800  0.70762800  0.44395900  1
  H  H11  1  0.29237200  0.63962200  0.05604100  1
  H  H12  1  0.64553800  0.03502100  0.57740400  1
  H  H13  1  0.96497900  0.35446200  0.92259600  1
  H  H14  1  0.35446200  0.96497900  0.42259600  1
  H  H15  1  0.03502100  0.64553800  0.07740400  1
  H  H16  1  0.93835300  0.31572500  0.40952800  1
  H  H17  1  0.68427500  0.06164700  0.09047200  1
  H  H18  1  0.06164700  0.68427500  0.59047200  1
  H  H19  1  0.31572500  0.93835300  0.90952800  1
  H  H20  1  0.70122700  0.27171900  0.43203300  1
  H  H21  1  0.72828100  0.29877300  0.06796700  1
  H  H22  1  0.29877300  0.72828100  0.56796700  1
  H  H23  1  0.27171900  0.70122700  0.93203300  1
  H  H24  1  0.09915900  0.22081300  0.65610500  1
  H  H25  1  0.77918700  0.90084100  0.84389500  1
  H  H26  1  0.90084100  0.77918700  0.34389500  1
  H  H27  1  0.22081300  0.09915900  0.15610500  1
  H  H28  1  0.32484900  0.99998000  0.65756000  1
  H  H29  1  0.00002000  0.67515100  0.84244000  1
  H  H30  1  0.67515100  0.00002000  0.34244000  1
  H  H31  1  0.99998000  0.32484900  0.15756000  1
  H  H32  1  0.28732800  0.56786600  0.70058300  1
  H  H33  1  0.43213400  0.71267200  0.79941700  1
  H  H34  1  0.71267200  0.43213400  0.29941700  1
  H  H35  1  0.56786600  0.28732800  0.20058300  1
  H  H36  1  0.07084300  0.51714700  0.73712600  1
  H  H37  1  0.48285300  0.92915700  0.76287400  1
  H  H38  1  0.92915700  0.48285300  0.26287400  1
  H  H39  1  0.51714700  0.07084300  0.23712600  1
  H  H40  1  0.66985000  0.19293100  0.70135200  1
  H  H41  1  0.80706900  0.33015000  0.79864800  1
  H  H42  1  0.33015000  0.80706900  0.29864800  1
  H  H43  1  0.19293100  0.66985000  0.20135200  1
  H  H44  1  0.73554400  0.93557600  0.68949900  1
  H  H45  1  0.06442400  0.26445600  0.81050100  1
  H  H46  1  0.26445600  0.06442400  0.31050100  1
  H  H47  1  0.93557600  0.73554400  0.18949900  1
  S  S0  1  0.67679800  0.58172300  0.62392500  1
  S  S1  1  0.41827700  0.32320200  0.87607500  1
  S  S2  1  0.32320200  0.41827700  0.37607500  1
  S  S3  1  0.58172300  0.67679800  0.12392500  1
  O  O0  1  0.56984400  0.45884500  0.67080500  1
  O  O1  1  0.54115500  0.43015600  0.82919500  1
  O  O2  1  0.43015600  0.54115500  0.32919500  1
  O  O3  1  0.45884500  0.56984400  0.17080500  1
  O  O4  1  0.62323200  0.82614300  0.63454800  1
  O  O5  1  0.17385700  0.37676800  0.86545200  1
  O  O6  1  0.37676800  0.17385700  0.36545200  1
  O  O7  1  0.82614300  0.62323200  0.13454800  1
  O  O8  1  0.93078900  0.46954600  0.61717200  1
  O  O9  1  0.53045400  0.06921100  0.88282800  1
  O  O10  1  0.06921100  0.53045400  0.38282800  1
  O  O11  1  0.46954600  0.93078900  0.11717200  1
  O  O12  1  0.58524500  0.57661300  0.57103200  1
  O  O13  1  0.42338700  0.41475500  0.92896800  1
  O  O14  1  0.41475500  0.42338700  0.42896800  1
  O  O15  1  0.57661300  0.58524500  0.07103200  1
  O  O16  1  0.13615400  0.24494300  0.52016000  1
  O  O17  1  0.75505700  0.86384600  0.97984000  1
  O  O18  1  0.86384600  0.75505700  0.47984000  1
  O  O19  1  0.24494300  0.13615400  0.02016000  1
  O  O20  1  0.67467700  0.13725700  0.54440400  1
  O  O21  1  0.86274300  0.32532300  0.95559600  1
  O  O22  1  0.32532300  0.86274300  0.45559600  1
  O  O23  1  0.13725700  0.67467700  0.04440400  1
  O  O24  1  0.86999300  0.20025100  0.42987800  1
  O  O25  1  0.79974900  0.13000700  0.07012200  1
  O  O26  1  0.13000700  0.79974900  0.57012200  1
  O  O27  1  0.20025100  0.86999300  0.92987800  1
  O  O28  1  0.19783500  0.09891600  0.68036900  1
  O  O29  1  0.90108400  0.80216500  0.81963100  1
  O  O30  1  0.80216500  0.90108400  0.31963100  1
  O  O31  1  0.09891600  0.19783500  0.18036900  1
  O  O32  1  0.12880200  0.63984600  0.71707100  1
  O  O33  1  0.36015400  0.87119800  0.78292900  1
  O  O34  1  0.87119800  0.36015400  0.28292900  1
  O  O35  1  0.63984600  0.12880200  0.21707100  1
  O  O36  1  0.72810800  0.03182900  0.71889600  1
  O  O37  1  0.96817100  0.27189200  0.78110400  1
  O  O38  1  0.27189200  0.96817100  0.28110400  1
  O  O39  1  0.03182900  0.72810800  0.21889600  1
loop_
_geom_bond_atom_site_label_1
_geom_bond_atom_site_label_2
_geom_bond_distance
_geom_bond_site_symmetry_2
Co0 O24 2.074401 1_455
Co0 O26 2.074401 1_545
Co0 O18 2.108968 1_445
Co0 O16 2.108968 1_555
Co0 O22 2.123986 1_545
Co0 O20 2.123986 1_455
Co1 O25 2.074401 1_455
Co1 O27 2.074401 1_544
Co1 O17 2.108968 1_444
Co1 O19 2.108968 1_555
Co1 O23 2.123986 1_545
Co1 O21 2.123986 1_454
Ni0 O28 2.066550 1_565
Ni0 O29 2.066550 1_455
Ni0 O33 2.074672 1_555
Ni0 O32 2.074672 1_555
Ni0 O37 2.128682 1_465
Ni0 O36 2.128682 1_465
Ni1 O31 2.066550 1_655
Ni1 O30 2.066550 1_545
Ni1 O34 2.074672 1_555
Ni1 O35 2.074672 1_555
Ni1 O38 2.128682 1_645
Ni1 O39 2.128682 1_645
H0 O16 0.982828 1_555
H1 O17 0.982828 1_555
H2 O18 0.982828 1_555
H3 O19 0.982828 1_555
H4 O16 0.980840 1_555
H5 O17 0.980840 1_554
H6 O18 0.980840 1_555
H7 O19 0.980840 1_556
H8 O20 0.991051 1_555
H9 O21 0.991051 1_555
H10 O22 0.991051 1_555
H11 O23 0.991051 1_555
H12 O20 0.988860 1_555
H13 O21 0.988860 1_555
H14 O22 0.988860 1_555
H15 O23 0.988860 1_555
H16 O24 0.988568 1_555
H17 O25 0.988568 1_555
H18 O26 0.988568 1_555
H19 O27 0.988568 1_555
H20 O24 0.993009 1_555
H21 O25 0.993009 1_555
H22 O26 0.993009 1_555
H23 O27 0.993009 1_555
H24 O28 0.988992 1_555
H25 O29 0.988992 1_555
H26 O30 0.988992 1_555
H27 O31 0.988992 1_555
H28 O28 0.985318 1_565
H29 O29 0.985318 1_455
H30 O30 0.985318 1_545
H31 O31 0.985318 1_655
H32 O32 0.991958 1_555
H32 O0 1.752547 1_555
H33 O33 0.991958 1_555
H33 O1 1.752547 1_555
H34 O34 0.991958 1_555
H34 O2 1.752547 1_555
H35 O35 0.991958 1_555
H35 O3 1.752547 1_555
H36 O32 0.985569 1_555
H37 O33 0.985569 1_555
H38 O34 0.985569 1_555
H39 O35 0.985569 1_555
H40 O36 1.001328 1_555
H40 O0 1.669030 1_555
H41 O37 1.001328 1_555
H41 O1 1.669030 1_555
H42 O38 1.001328 1_555
H42 O2 1.669030 1_555
H43 O39 1.001328 1_555
H43 O3 1.669030 1_555
H44 O36 0.989734 1_565
H45 O37 0.989734 1_455
H46 O38 0.989734 1_545
H47 O39 0.989734 1_655
O0 S0 1.485399 1_555
O1 S1 1.485399 1_555
O2 S2 1.485399 1_555
O3 S3 1.485399 1_555
O4 S0 1.497690 1_555
O5 S1 1.497690 1_555
O6 S2 1.497690 1_555
O7 S3 1.497690 1_555
O8 S0 1.497692 1_555
O9 S1 1.497692 1_555
O10 S2 1.497692 1_555
O11 S3 1.497692 1_555
O12 S0 1.501553 1_555
O13 S1 1.501553 1_555
O14 S2 1.501553 1_555
O15 S3 1.501553 1_555
