# generated using pymatgen
data_Mn2Mo3O8
_symmetry_space_group_name_H-M   'P 1'
_cell_length_a   5.90422849
_cell_length_b   5.90422849
_cell_length_c   10.44008800
_cell_angle_alpha   90.00000000
_cell_angle_beta   90.00000000
_cell_angle_gamma   120.00000546
_symmetry_Int_Tables_number   1
_chemical_formula_structural   Mn2Mo3O8
_chemical_formula_sum   'Mn4 Mo6 O16'
_cell_volume   315.18176185
_cell_formula_units_Z   2
loop_
 _symmetry_equiv_pos_site_id
 _symmetry_equiv_pos_as_xyz
  1  'x, y, z'
loop_
 _atom_site_type_symbol
 _atom_site_label
 _atom_site_symmetry_multiplicity
 _atom_site_fract_x
 _atom_site_fract_y
 _atom_site_fract_z
 _atom_site_occupancy
  Mn  Mn0  1  0.33333300  0.66666700  0.95000300  1
  Mn  Mn1  1  0.66666700  0.33333300  0.45000300  1
  Mn  Mn2  1  0.33333300  0.66666700  0.51439800  1
  Mn  Mn3  1  0.66666700  0.33333300  0.01439800  1
  Mo  Mo0  1  0.14585900  0.85414100  0.24932300  1
  Mo  Mo1  1  0.29171800  0.14585900  0.74932300  1
  Mo  Mo2  1  0.85414100  0.70828200  0.74932300  1
  Mo  Mo3  1  0.14585900  0.29171800  0.24932300  1
  Mo  Mo4  1  0.70828200  0.85414100  0.24932300  1
  Mo  Mo5  1  0.85414100  0.14585900  0.74932300  1
  O  O0  1  0.00000000  0.00000000  0.38803700  1
  O  O1  1  0.00000000  0.00000000  0.88803700  1
  O  O2  1  0.33333300  0.66666700  0.14779400  1
  O  O3  1  0.66666700  0.33333300  0.64779400  1
  O  O4  1  0.48695200  0.51304800  0.35871400  1
  O  O5  1  0.97390400  0.48695200  0.85871400  1
  O  O6  1  0.51304800  0.02609600  0.85871400  1
  O  O7  1  0.48695200  0.97390400  0.35871400  1
  O  O8  1  0.02609600  0.51304800  0.35871400  1
  O  O9  1  0.51304800  0.48695200  0.85871400  1
  O  O10  1  0.16466900  0.83533100  0.63521900  1
  O  O11  1  0.32933700  0.16466900  0.13521900  1
  O  O12  1  0.83533100  0.67066300  0.13521900  1
  O  O13  1  0.16466900  0.32933700  0.63521900  1
  O  O14  1  0.67066300  0.83533100  0.63521900  1
  O  O15  1  0.83533100  0.16466900  0.13521900  1
loop_
_geom_bond_atom_site_label_1
_geom_bond_atom_site_label_2
_geom_bond_distance
_geom_bond_site_symmetry_2
Mn0 O2 2.064955 1_556
Mn0 O6 2.070260 1_565
Mn0 O5 2.070260 1_455
Mn0 O9 2.070265 1_555
Mn1 O3 2.064955 1_555
Mn1 O8 2.070260 1_655
Mn1 O7 2.070260 1_545
Mn1 O4 2.070265 1_555
Mn2 O10 2.136848 1_555
Mn2 O14 2.136857 1_555
Mn2 O13 2.136857 1_555
Mn2 O8 2.260468 1_555
Mn2 O7 2.260468 1_555
Mn2 O4 2.260472 1_555
Mn3 O15 2.136848 1_555
Mn3 O11 2.136857 1_555
Mn3 O12 2.136857 1_555
Mn3 O6 2.260468 1_554
Mn3 O5 2.260468 1_554
Mn3 O9 2.260472 1_554
Mo0 O11 1.991967 1_565
Mo0 O12 1.991967 1_455
Mo0 O0 2.078981 1_565
Mo0 O7 2.106182 1_555
Mo0 O8 2.106182 1_555
Mo0 O2 2.190697 1_555
Mo1 O13 1.991964 1_555
Mo1 O10 1.991968 1_545
Mo1 O1 2.078981 1_555
Mo1 O9 2.106182 1_555
Mo1 O6 2.106182 1_555
Mo1 O3 2.190701 1_555
Mo2 O14 1.991964 1_555
Mo2 O10 1.991968 1_655
Mo2 O1 2.078981 1_665
Mo2 O9 2.106182 1_555
Mo2 O5 2.106182 1_555
Mo2 O3 2.190701 1_555
Mo3 O11 1.991964 1_555
Mo3 O15 1.991968 1_455
Mo3 O0 2.078981 1_555
Mo3 O4 2.106182 1_555
Mo3 O8 2.106182 1_555
Mo3 O2 2.190701 1_555
Mo4 O12 1.991964 1_555
Mo4 O15 1.991968 1_565
Mo4 O0 2.078981 1_665
Mo4 O4 2.106182 1_555
Mo4 O7 2.106182 1_555
Mo4 O2 2.190701 1_555
Mo5 O14 1.991967 1_545
Mo5 O13 1.991967 1_655
Mo5 O1 2.078981 1_655
Mo5 O5 2.106182 1_555
Mo5 O6 2.106182 1_555
Mo5 O3 2.190697 1_555
