# generated using pymatgen
data_Na2CaVP2O9
_symmetry_space_group_name_H-M   'P 1'
_cell_length_a   6.65540500
_cell_length_b   10.17962100
_cell_length_c   10.67729900
_cell_angle_alpha   90.00000000
_cell_angle_beta   90.00000000
_cell_angle_gamma   90.00000000
_symmetry_Int_Tables_number   1
_chemical_formula_structural   Na2CaVP2O9
_chemical_formula_sum   'Na8 Ca4 V4 P8 O36'
_cell_volume   723.38167396
_cell_formula_units_Z   4
loop_
 _symmetry_equiv_pos_site_id
 _symmetry_equiv_pos_as_xyz
  1  'x, y, z'
loop_
 _atom_site_type_symbol
 _atom_site_label
 _atom_site_symmetry_multiplicity
 _atom_site_fract_x
 _atom_site_fract_y
 _atom_site_fract_z
 _atom_site_occupancy
  Na  Na0  1  0.50301000  0.13382200  0.28595300  1
  Na  Na1  1  0.00301000  0.86617800  0.71404700  1
  Na  Na2  1  0.99699000  0.13382200  0.28595300  1
  Na  Na3  1  0.99699000  0.36617800  0.78595300  1
  Na  Na4  1  0.00301000  0.63382200  0.21404700  1
  Na  Na5  1  0.50301000  0.36617800  0.78595300  1
  Na  Na6  1  0.49699000  0.63382200  0.21404700  1
  Na  Na7  1  0.49699000  0.86617800  0.71404700  1
  Ca  Ca0  1  0.25000000  0.91244000  0.06046200  1
  Ca  Ca1  1  0.75000000  0.08756000  0.93953800  1
  Ca  Ca2  1  0.75000000  0.41244000  0.43953800  1
  Ca  Ca3  1  0.25000000  0.58756000  0.56046200  1
  V  V0  1  0.75000000  0.69151400  0.96674500  1
  V  V1  1  0.25000000  0.19151400  0.53325500  1
  V  V2  1  0.25000000  0.30848600  0.03325500  1
  V  V3  1  0.75000000  0.80848600  0.46674500  1
  P  P0  1  0.25000000  0.63577400  0.90985900  1
  P  P1  1  0.75000000  0.91684500  0.17777300  1
  P  P2  1  0.75000000  0.36422600  0.09014100  1
  P  P3  1  0.25000000  0.86422600  0.40985900  1
  P  P4  1  0.25000000  0.41684500  0.32222700  1
  P  P5  1  0.25000000  0.08315500  0.82222700  1
  P  P6  1  0.75000000  0.58315500  0.67777300  1
  P  P7  1  0.75000000  0.13577400  0.59014100  1
  O  O0  1  0.25000000  0.01628700  0.40914100  1
  O  O1  1  0.43444900  0.69093800  0.98714700  1
  O  O2  1  0.56555100  0.19093800  0.51285300  1
  O  O3  1  0.56555100  0.30906200  0.01285300  1
  O  O4  1  0.93444900  0.30906200  0.01285300  1
  O  O5  1  0.93527300  0.51313100  0.62337800  1
  O  O6  1  0.75000000  0.73104600  0.64331800  1
  O  O7  1  0.75000000  0.19210100  0.72493200  1
  O  O8  1  0.25000000  0.80789900  0.27506800  1
  O  O9  1  0.56472700  0.98686900  0.12337800  1
  O  O10  1  0.25000000  0.43457200  0.17695500  1
  O  O11  1  0.75000000  0.98371300  0.59085900  1
  O  O12  1  0.06472700  0.48686900  0.37662200  1
  O  O13  1  0.75000000  0.30789900  0.22493200  1
  O  O14  1  0.75000000  0.76895400  0.14331800  1
  O  O15  1  0.93527300  0.98686900  0.12337800  1
  O  O16  1  0.75000000  0.56542800  0.82304500  1
  O  O17  1  0.25000000  0.48371300  0.90914100  1
  O  O18  1  0.25000000  0.16722500  0.11121100  1
  O  O19  1  0.06472700  0.01313100  0.87662200  1
  O  O20  1  0.25000000  0.33277500  0.61121100  1
  O  O21  1  0.06555100  0.69093800  0.98714700  1
  O  O22  1  0.93444900  0.19093800  0.51285300  1
  O  O23  1  0.43527300  0.01313100  0.87662200  1
  O  O24  1  0.25000000  0.26895400  0.35668200  1
  O  O25  1  0.56472700  0.51313100  0.62337800  1
  O  O26  1  0.75000000  0.66722500  0.38878900  1
  O  O27  1  0.25000000  0.06542800  0.67695500  1
  O  O28  1  0.75000000  0.83277500  0.88878900  1
  O  O29  1  0.25000000  0.69210100  0.77506800  1
  O  O30  1  0.43444900  0.80906200  0.48714700  1
  O  O31  1  0.25000000  0.23104600  0.85668200  1
  O  O32  1  0.43527300  0.48686900  0.37662200  1
  O  O33  1  0.75000000  0.51628700  0.09085900  1
  O  O34  1  0.06555100  0.80906200  0.48714700  1
  O  O35  1  0.75000000  0.93457200  0.32304500  1
loop_
_geom_bond_atom_site_label_1
_geom_bond_atom_site_label_2
_geom_bond_distance
_geom_bond_site_symmetry_2
Na0 O24 2.301747 1_555
Na0 O9 2.328031 1_545
Na0 O0 2.448885 1_555
Na0 O13 2.503350 1_555
Na0 O2 2.526000 1_555
Na0 O18 2.536177 1_555
Na0 O35 2.640634 1_545
Na1 O6 2.301747 1_455
Na1 O19 2.328031 1_565
Na1 O11 2.448885 1_455
Na1 O29 2.503350 1_555
Na1 O34 2.526000 1_555
Na1 O28 2.536177 1_455
Na1 O27 2.640634 1_565
Na2 O24 2.301747 1_655
Na2 O15 2.328031 1_545
Na2 O0 2.448885 1_655
Na2 O13 2.503350 1_555
Na2 O22 2.526000 1_555
Na2 O18 2.536177 1_655
Na2 O35 2.640634 1_545
Na3 O31 2.301747 1_655
Na3 O5 2.328031 1_555
Na3 O17 2.448885 1_655
Na3 O7 2.503350 1_555
Na3 O4 2.526000 1_556
Na3 O20 2.536177 1_655
Na3 O16 2.640634 1_555
Na4 O14 2.301747 1_455
Na4 O12 2.328031 1_555
Na4 O33 2.448885 1_455
Na4 O8 2.503350 1_555
Na4 O21 2.526000 1_554
Na4 O26 2.536177 1_455
Na4 O10 2.640634 1_555
Na5 O31 2.301747 1_555
Na5 O25 2.328031 1_555
Na5 O17 2.448885 1_555
Na5 O7 2.503350 1_555
Na5 O3 2.526000 1_556
Na5 O20 2.536177 1_555
Na5 O16 2.640634 1_555
Na6 O14 2.301747 1_555
Na6 O32 2.328031 1_555
Na6 O33 2.448885 1_555
Na6 O8 2.503350 1_555
Na6 O1 2.526000 1_554
Na6 O26 2.536177 1_555
Na6 O10 2.640634 1_555
Na7 O6 2.301747 1_555
Na7 O23 2.328031 1_565
Na7 O11 2.448885 1_555
Na7 O29 2.503350 1_555
Na7 O30 2.526000 1_555
Na7 O28 2.536177 1_555
Na7 O27 2.640634 1_565
Ca0 O15 2.326548 1_455
Ca0 O9 2.326548 1_555
Ca0 O8 2.526473 1_555
Ca0 O19 2.534582 1_564
Ca0 O23 2.534582 1_564
Ca0 O18 2.649614 1_565
Ca0 O21 2.684008 1_554
Ca0 O1 2.684008 1_554
Ca1 O19 2.326548 1_655
Ca1 O23 2.326548 1_555
Ca1 O7 2.526473 1_555
Ca1 O15 2.534582 1_546
Ca1 O9 2.534582 1_546
Ca1 O28 2.649614 1_545
Ca1 O4 2.684008 1_556
Ca1 O3 2.684008 1_556
Ca2 O32 2.326548 1_555
Ca2 O12 2.326548 1_655
Ca2 O13 2.526473 1_555
Ca2 O25 2.534582 1_555
Ca2 O5 2.534582 1_555
Ca2 O26 2.649614 1_555
Ca2 O2 2.684008 1_555
Ca2 O22 2.684008 1_555
Ca3 O5 2.326548 1_455
Ca3 O25 2.326548 1_555
Ca3 O29 2.526473 1_555
Ca3 O12 2.534582 1_555
Ca3 O32 2.534582 1_555
Ca3 O20 2.649614 1_555
Ca3 O30 2.684008 1_555
Ca3 O34 2.684008 1_555
O0 P3 1.547942 1_545
O0 V1 2.222140 1_555
O1 P0 1.582181 1_555
O1 V0 2.111395 1_555
O2 P7 1.582181 1_555
O2 V1 2.111395 1_555
O3 P2 1.582181 1_555
O3 V2 2.111395 1_555
O4 P2 1.582181 1_555
O4 V2 2.111395 1_655
O5 P6 1.538142 1_555
O6 P6 1.549772 1_555
O6 V3 2.043496 1_555
O7 P7 1.549219 1_555
O8 P3 1.549219 1_555
O9 P1 1.538142 1_555
O10 P4 1.561574 1_555
O10 V2 2.000388 1_555
O11 P7 1.547942 1_565
O11 V3 2.222140 1_555
O12 P4 1.538142 1_555
O13 P2 1.549219 1_555
O14 P1 1.549772 1_555
O14 V0 2.043496 1_554
O15 P1 1.538142 1_555
O16 P6 1.561574 1_555
O16 V0 2.000388 1_555
O17 P0 1.547942 1_555
O17 V2 2.222140 1_556
O18 V2 1.661511 1_555
O19 P5 1.538142 1_555
O20 V1 1.661511 1_555
O21 P0 1.582181 1_555
O21 V0 2.111395 1_455
O22 P7 1.582181 1_555
O22 V1 2.111395 1_655
O23 P5 1.538142 1_555
O24 P4 1.549772 1_555
O24 V1 2.043496 1_555
O25 P6 1.538142 1_555
O26 V3 1.661511 1_555
O27 P5 1.561574 1_555
O27 V1 2.000388 1_555
O28 V0 1.661511 1_555
O29 P0 1.549219 1_555
O30 P3 1.582181 1_555
O30 V3 2.111395 1_555
O31 P5 1.549772 1_555
O31 V2 2.043496 1_556
O32 P4 1.538142 1_555
O33 P2 1.547942 1_555
O33 V0 2.222140 1_554
O34 P3 1.582181 1_555
O34 V3 2.111395 1_455
O35 P1 1.561574 1_555
O35 V3 2.000388 1_555
