# generated using pymatgen
data_DyInRh
_symmetry_space_group_name_H-M   'P 1'
_cell_length_a   7.45307013
_cell_length_b   7.45306987
_cell_length_c   3.93102352
_cell_angle_alpha   90.00000000
_cell_angle_beta   90.00000000
_cell_angle_gamma   119.99999208
_symmetry_Int_Tables_number   1
_chemical_formula_structural   DyInRh
_chemical_formula_sum   'Dy3 In3 Rh3'
_cell_volume   189.10660974
_cell_formula_units_Z   3
loop_
 _symmetry_equiv_pos_site_id
 _symmetry_equiv_pos_as_xyz
  1  'x, y, z'
loop_
 _atom_site_type_symbol
 _atom_site_label
 _atom_site_symmetry_multiplicity
 _atom_site_fract_x
 _atom_site_fract_y
 _atom_site_fract_z
 _atom_site_occupancy
  Dy  Dy0  1  0.00000000  0.59339592  0.50000000  1
  Dy  Dy1  1  0.59339592  0.00000000  0.50000000  1
  Dy  Dy2  1  0.40660408  0.40660408  0.50000000  1
  In  In0  1  -0.00000000  0.25579773  0.00000000  1
  In  In1  1  0.25579773  -0.00000000  -0.00000000  1
  In  In2  1  0.74420227  0.74420227  0.00000000  1
  Rh  Rh0  1  -0.00000000  -0.00000000  0.50000000  1
  Rh  Rh1  1  0.66666700  0.33333300  0.00000000  1
  Rh  Rh2  1  0.33333300  0.66666700  -0.00000000  1
loop_
_geom_bond_atom_site_label_1
_geom_bond_atom_site_label_2
_geom_bond_distance
_geom_bond_site_symmetry_2
Dy0 Rh2 2.996127 1_556
Dy0 Rh2 2.996127 1_555
Dy0 Rh1 2.996129 1_455
Dy0 Rh1 2.996129 1_456
Dy0 Rh0 3.030449 1_565
Dy0 In0 3.192838 1_556
Dy0 In0 3.192838 1_555
Dy0 In2 3.302125 1_455
Dy0 In2 3.302125 1_456
Dy0 In1 3.302125 1_565
Dy0 In1 3.302125 1_566
Dy1 Rh1 2.996127 1_555
Dy1 Rh1 2.996127 1_556
Dy1 Rh2 2.996129 1_546
Dy1 Rh2 2.996129 1_545
Dy1 Rh0 3.030449 1_655
Dy1 In1 3.192838 1_555
Dy1 In1 3.192838 1_556
Dy1 In2 3.302125 1_546
Dy1 In2 3.302125 1_545
Dy1 In0 3.302125 1_655
Dy1 In0 3.302125 1_656
Dy2 Rh2 2.996133 1_556
Dy2 Rh2 2.996133 1_555
Dy2 Rh1 2.996133 1_555
Dy2 Rh1 2.996133 1_556
Dy2 Rh0 3.030449 1_555
Dy2 In2 3.192838 1_556
Dy2 In2 3.192838 1_555
Dy2 In1 3.302125 1_555
Dy2 In1 3.302125 1_556
Dy2 In0 3.302125 1_555
Dy2 In0 3.302125 1_556
In0 Rh0 2.738229 1_554
In0 Rh0 2.738229 1_555
In0 Rh1 2.818085 1_455
In0 Rh2 2.818090 1_555
In1 Rh0 2.738229 1_555
In1 Rh0 2.738229 1_554
In1 Rh2 2.818085 1_545
In1 Rh1 2.818090 1_555
In2 Rh0 2.738229 1_665
In2 Rh0 2.738229 1_664
In2 Rh1 2.818093 1_555
In2 Rh2 2.818093 1_555
