# generated using pymatgen
data_K2Na(B3O5)3
_symmetry_space_group_name_H-M   'P 1'
_cell_length_a   6.70760700
_cell_length_b   9.21396500
_cell_length_c   20.92673170
_cell_angle_alpha   85.91947471
_cell_angle_beta   90.00000000
_cell_angle_gamma   90.00000000
_symmetry_Int_Tables_number   1
_chemical_formula_structural   K2Na(B3O5)3
_chemical_formula_sum   'K8 Na4 B36 O60'
_cell_volume   1290.06992634
_cell_formula_units_Z   4
loop_
 _symmetry_equiv_pos_site_id
 _symmetry_equiv_pos_as_xyz
  1  'x, y, z'
loop_
 _atom_site_type_symbol
 _atom_site_label
 _atom_site_symmetry_multiplicity
 _atom_site_fract_x
 _atom_site_fract_y
 _atom_site_fract_z
 _atom_site_occupancy
  K  K0  1  0.81396600  0.41104400  0.11945400  1
  K  K1  1  0.30351300  0.77841600  0.53301200  1
  K  K2  1  0.31396600  0.58895600  0.38054600  1
  K  K3  1  0.18603400  0.58895600  0.88054600  1
  K  K4  1  0.19648700  0.77841600  0.03301200  1
  K  K5  1  0.68603400  0.41104400  0.61945400  1
  K  K6  1  0.80351300  0.22158400  0.96698800  1
  K  K7  1  0.69648700  0.22158400  0.46698800  1
  Na  Na0  1  0.48733100  0.06507000  0.24565800  1
  Na  Na1  1  0.98733100  0.93493000  0.25434200  1
  Na  Na2  1  0.51266900  0.93493000  0.75434200  1
  Na  Na3  1  0.01266900  0.06507000  0.74565800  1
  B  B0  1  0.25637500  0.24567800  0.92319900  1
  B  B1  1  0.92937100  0.80419800  0.67479900  1
  B  B2  1  0.24910800  0.32458900  0.03451000  1
  B  B3  1  0.71729300  0.50985100  0.87553500  1
  B  B4  1  0.00556600  0.15370100  0.58855800  1
  B  B5  1  0.64233900  0.88730100  0.38966900  1
  B  B6  1  0.22102200  0.65107100  0.71547400  1
  B  B7  1  0.96291700  0.58620700  0.27788800  1
  B  B8  1  0.77897800  0.34892900  0.28452600  1
  B  B9  1  0.35766100  0.11269900  0.61033100  1
  B  B10  1  0.75637500  0.75432200  0.57680100  1
  B  B11  1  0.03708300  0.41379300  0.72211200  1
  B  B12  1  0.27897800  0.65107100  0.21547400  1
  B  B13  1  0.75089200  0.67541100  0.96549000  1
  B  B14  1  0.99443400  0.84629900  0.41144200  1
  B  B15  1  0.72102200  0.34892900  0.78452600  1
  B  B16  1  0.50556600  0.84629900  0.91144200  1
  B  B17  1  0.29989900  0.00663900  0.37574300  1
  B  B18  1  0.07062900  0.19580200  0.32520100  1
  B  B19  1  0.74910800  0.67541100  0.46549000  1
  B  B20  1  0.79989900  0.99336100  0.12425700  1
  B  B21  1  0.25089200  0.32458900  0.53451000  1
  B  B22  1  0.57062900  0.80419800  0.17479900  1
  B  B23  1  0.74362500  0.75432200  0.07680100  1
  B  B24  1  0.46291700  0.41379300  0.22211200  1
  B  B25  1  0.49443400  0.15370100  0.08855800  1
  B  B26  1  0.78270700  0.50985100  0.37553500  1
  B  B27  1  0.14233900  0.11269900  0.11033100  1
  B  B28  1  0.21729300  0.49014900  0.62446500  1
  B  B29  1  0.53708300  0.58620700  0.77788800  1
  B  B30  1  0.20010100  0.00663900  0.87574300  1
  B  B31  1  0.70010100  0.99336100  0.62425700  1
  B  B32  1  0.24362500  0.24567800  0.42319900  1
  B  B33  1  0.85766100  0.88730100  0.88966900  1
  B  B34  1  0.42937100  0.19580200  0.82520100  1
  B  B35  1  0.28270700  0.49014900  0.12446500  1
  O  O0  1  0.99726900  0.96848100  0.85522000  1
  O  O1  1  0.09591700  0.22457900  0.06655200  1
  O  O2  1  0.79192600  0.65291000  0.03438100  1
  O  O3  1  0.76994300  0.53352600  0.93706300  1
  O  O4  1  0.10282200  0.38684000  0.66039600  1
  O  O5  1  0.21834400  0.61338700  0.15079200  1
  O  O6  1  0.78165600  0.38661300  0.84920800  1
  O  O7  1  0.45128600  0.26143600  0.04233800  1
  O  O8  1  0.89717800  0.61316000  0.33960400  1
  O  O9  1  0.11621000  0.29079000  0.37265200  1
  O  O10  1  0.95128600  0.73856400  0.45766200  1
  O  O11  1  0.54871400  0.73856400  0.95766200  1
  O  O12  1  0.28165600  0.61338700  0.65079200  1
  O  O13  1  0.09152100  0.78265300  0.71301700  1
  O  O14  1  0.73005700  0.53352600  0.43706300  1
  O  O15  1  0.39873200  0.68542800  0.75337000  1
  O  O16  1  0.00273100  0.03151900  0.14478000  1
  O  O17  1  0.29192600  0.34709000  0.46561900  1
  O  O18  1  0.69496400  0.92269400  0.18189400  1
  O  O19  1  0.40847900  0.78265300  0.21301700  1
  O  O20  1  0.38379000  0.29079000  0.87265200  1
  O  O21  1  0.30859800  0.87660000  0.90100000  1
  O  O22  1  0.40408300  0.22457900  0.56655200  1
  O  O23  1  0.26994300  0.46647400  0.56293700  1
  O  O24  1  0.70807400  0.65291000  0.53438100  1
  O  O25  1  0.15648300  0.07543000  0.62240600  1
  O  O26  1  0.50273100  0.96848100  0.35522000  1
  O  O27  1  0.59152100  0.21734700  0.78698300  1
  O  O28  1  0.80859800  0.12340000  0.59900000  1
  O  O29  1  0.39223300  0.53047500  0.25132500  1
  O  O30  1  0.60282200  0.61316000  0.83960400  1
  O  O31  1  0.31968800  0.10805900  0.42755600  1
  O  O32  1  0.88379000  0.70921000  0.62734800  1
  O  O33  1  0.65648300  0.92457000  0.87759400  1
  O  O34  1  0.10126800  0.68542800  0.25337000  1
  O  O35  1  0.30503600  0.07730600  0.81810600  1
  O  O36  1  0.81968800  0.89194100  0.07244400  1
  O  O37  1  0.23005700  0.46647400  0.06293700  1
  O  O38  1  0.60126800  0.31457200  0.24663000  1
  O  O39  1  0.84351700  0.92457000  0.37759400  1
  O  O40  1  0.89873200  0.31457200  0.74663000  1
  O  O41  1  0.10776700  0.53047500  0.75132500  1
  O  O42  1  0.59591700  0.77542100  0.43344800  1
  O  O43  1  0.71834400  0.38661300  0.34920800  1
  O  O44  1  0.60776700  0.46952500  0.74867500  1
  O  O45  1  0.04871400  0.26143600  0.54233800  1
  O  O46  1  0.39717800  0.38684000  0.16039600  1
  O  O47  1  0.49726900  0.03151900  0.64478000  1
  O  O48  1  0.90408300  0.77542100  0.93344800  1
  O  O49  1  0.18031200  0.10805900  0.92755600  1
  O  O50  1  0.90847900  0.21734700  0.28698300  1
  O  O51  1  0.19140200  0.87660000  0.40100000  1
  O  O52  1  0.68031200  0.89194100  0.57244400  1
  O  O53  1  0.61621000  0.70921000  0.12734800  1
  O  O54  1  0.89223300  0.46952500  0.24867500  1
  O  O55  1  0.19496400  0.07730600  0.31810600  1
  O  O56  1  0.20807400  0.34709000  0.96561900  1
  O  O57  1  0.80503600  0.92269400  0.68189400  1
  O  O58  1  0.34351700  0.07543000  0.12240600  1
  O  O59  1  0.69140200  0.12340000  0.09900000  1
loop_
_geom_bond_atom_site_label_1
_geom_bond_atom_site_label_2
_geom_bond_distance
_geom_bond_site_symmetry_2
K0 O2 2.755557 1_555
K0 O1 2.832806 1_655
K0 O59 2.836343 1_555
K0 O54 2.843569 1_555
K0 O46 2.927845 1_555
K0 O37 3.059941 1_655
K0 O53 3.065780 1_555
K0 O38 3.093839 1_555
K0 O7 3.277074 1_555
K1 O12 2.806287 1_555
K1 O42 2.863030 1_555
K1 O10 2.878455 1_455
K1 O52 2.878501 1_555
K1 O23 2.906521 1_555
K1 O51 2.942802 1_555
K1 O24 2.949103 1_555
K2 O17 2.755557 1_555
K2 O42 2.832806 1_555
K2 O51 2.836343 1_555
K2 O29 2.843569 1_555
K2 O8 2.927845 1_455
K2 O14 3.059941 1_555
K2 O9 3.065780 1_555
K2 O34 3.093839 1_555
K2 O10 3.277074 1_455
K3 O56 2.755557 1_555
K3 O48 2.832806 1_455
K3 O21 2.836343 1_555
K3 O41 2.843569 1_555
K3 O30 2.927845 1_555
K3 O3 3.059941 1_455
K3 O20 3.065780 1_555
K3 O15 3.093839 1_555
K3 O11 3.277074 1_555
K4 O5 2.806287 1_555
K4 O48 2.863030 1_454
K4 O11 2.878455 1_554
K4 O36 2.878501 1_455
K4 O37 2.906521 1_555
K4 O21 2.942802 1_554
K4 O2 2.949103 1_455
K5 O24 2.755557 1_555
K5 O22 2.832806 1_555
K5 O28 2.836343 1_555
K5 O44 2.843569 1_555
K5 O4 2.927845 1_655
K5 O23 3.059941 1_555
K5 O32 3.065780 1_555
K5 O40 3.093839 1_555
K5 O45 3.277074 1_655
K6 O6 2.806287 1_555
K6 O1 2.863030 1_656
K6 O7 2.878455 1_556
K6 O49 2.878501 1_655
K6 O3 2.906521 1_555
K6 O59 2.942802 1_556
K6 O56 2.949103 1_655
K7 O43 2.806287 1_555
K7 O22 2.863030 1_555
K7 O45 2.878455 1_655
K7 O31 2.878501 1_555
K7 O14 2.906521 1_555
K7 O28 2.942802 1_555
K7 O17 2.949103 1_555
Na0 O18 2.385432 1_545
Na0 O26 2.401902 1_545
Na0 O38 2.424065 1_555
Na0 O55 2.486251 1_555
Na0 O58 2.749038 1_555
Na0 O19 2.787586 1_545
Na1 O55 2.385432 1_665
Na1 O16 2.401902 1_665
Na1 O34 2.424065 1_655
Na1 O18 2.486251 1_555
Na1 O39 2.749038 1_555
Na1 O50 2.787586 1_565
Na2 O35 2.385432 1_565
Na2 O47 2.401902 1_565
Na2 O15 2.424065 1_555
Na2 O57 2.486251 1_555
Na2 O33 2.749038 1_555
Na2 O27 2.787586 1_565
Na3 O57 2.385432 1_445
Na3 O0 2.401902 1_445
Na3 O40 2.424065 1_455
Na3 O35 2.486251 1_555
Na3 O25 2.749038 1_555
Na3 O13 2.787586 1_545
B0 O49 1.363829 1_555
B0 O56 1.372648 1_555
B0 O20 1.399833 1_555
B1 O13 1.356250 1_655
B1 O57 1.390224 1_555
B1 O32 1.403283 1_555
B2 O56 1.467854 1_554
B2 O37 1.479862 1_555
B2 O7 1.480187 1_555
B2 O1 1.505547 1_555
B3 O6 1.366870 1_555
B3 O3 1.367530 1_555
B3 O30 1.399701 1_555
B4 O28 1.364750 1_455
B4 O45 1.366765 1_555
B4 O25 1.404946 1_555
B5 O42 1.365486 1_555
B5 O26 1.370899 1_555
B5 O39 1.410803 1_555
B6 O12 1.478191 1_555
B6 O15 1.478424 1_555
B6 O13 1.489364 1_555
B6 O41 1.502004 1_555
B7 O54 1.359376 1_555
B7 O34 1.376039 1_655
B7 O8 1.403484 1_555
B8 O43 1.478191 1_555
B8 O38 1.478424 1_555
B8 O50 1.489364 1_555
B8 O54 1.502004 1_555
B9 O22 1.365486 1_555
B9 O47 1.370899 1_555
B9 O25 1.410803 1_555
B10 O52 1.363829 1_555
B10 O24 1.372648 1_555
B10 O32 1.399833 1_555
B11 O41 1.359376 1_555
B11 O40 1.376039 1_455
B11 O4 1.403484 1_555
B12 O5 1.478191 1_555
B12 O34 1.478424 1_555
B12 O19 1.489364 1_555
B12 O29 1.502004 1_555
B13 O2 1.467854 1_556
B13 O3 1.479862 1_555
B13 O11 1.480187 1_555
B13 O48 1.505547 1_555
B14 O51 1.364750 1_655
B14 O10 1.366765 1_555
B14 O39 1.404946 1_555
B15 O6 1.478191 1_555
B15 O40 1.478424 1_555
B15 O27 1.489364 1_555
B15 O44 1.502004 1_555
B16 O21 1.364750 1_555
B16 O11 1.366765 1_555
B16 O33 1.404946 1_555
B17 O51 1.467816 1_545
B17 O26 1.476673 1_545
B17 O31 1.486852 1_555
B17 O55 1.504135 1_555
B18 O50 1.356250 1_455
B18 O55 1.390224 1_555
B18 O9 1.403283 1_555
B19 O24 1.467854 1_555
B19 O14 1.479862 1_555
B19 O10 1.480187 1_555
B19 O42 1.505547 1_555
B20 O59 1.467816 1_565
B20 O16 1.476673 1_665
B20 O36 1.486852 1_555
B20 O18 1.504135 1_555
B21 O17 1.467854 1_555
B21 O23 1.479862 1_555
B21 O45 1.480187 1_555
B21 O22 1.505547 1_555
B22 O19 1.356250 1_555
B22 O18 1.390224 1_555
B22 O53 1.403283 1_555
B23 O36 1.363829 1_555
B23 O2 1.372648 1_555
B23 O53 1.399833 1_555
B24 O29 1.359376 1_555
B24 O38 1.376039 1_555
B24 O46 1.403484 1_555
B25 O59 1.364750 1_555
B25 O7 1.366765 1_555
B25 O58 1.404946 1_555
B26 O43 1.366870 1_555
B26 O14 1.367530 1_555
B26 O8 1.399701 1_555
B27 O1 1.365486 1_555
B27 O16 1.370899 1_555
B27 O58 1.410803 1_555
B28 O12 1.366870 1_555
B28 O23 1.367530 1_555
B28 O4 1.399701 1_555
B29 O44 1.359376 1_555
B29 O15 1.376039 1_555
B29 O30 1.403484 1_555
B30 O21 1.467816 1_545
B30 O0 1.476673 1_445
B30 O49 1.486852 1_555
B30 O35 1.504135 1_555
B31 O28 1.467816 1_565
B31 O47 1.476673 1_565
B31 O52 1.486852 1_555
B31 O57 1.504135 1_555
B32 O31 1.363829 1_555
B32 O17 1.372648 1_555
B32 O9 1.399833 1_555
B33 O48 1.365486 1_555
B33 O0 1.370899 1_555
B33 O33 1.410803 1_555
B34 O27 1.356250 1_555
B34 O35 1.390224 1_555
B34 O20 1.403283 1_555
B35 O5 1.366870 1_555
B35 O37 1.367530 1_555
B35 O46 1.399701 1_555
