# generated using pymatgen
data_KVCdO4
_symmetry_space_group_name_H-M   'P 1'
_cell_length_a   5.82004700
_cell_length_b   15.15648300
_cell_length_c   25.22592949
_cell_angle_alpha   53.37203612
_cell_angle_beta   90.00000000
_cell_angle_gamma   90.00000000
_symmetry_Int_Tables_number   1
_chemical_formula_structural   KVCdO4
_chemical_formula_sum   'K16 V16 Cd16 O64'
_cell_volume   1785.79427271
_cell_formula_units_Z   16
loop_
 _symmetry_equiv_pos_site_id
 _symmetry_equiv_pos_as_xyz
  1  'x, y, z'
loop_
 _atom_site_type_symbol
 _atom_site_label
 _atom_site_symmetry_multiplicity
 _atom_site_fract_x
 _atom_site_fract_y
 _atom_site_fract_z
 _atom_site_occupancy
  K  K0  1  0.21559100  0.11259700  0.13629900  1
  K  K1  1  0.21723900  0.58031000  0.79418700  1
  K  K2  1  0.78095500  0.36911300  0.38368600  1
  K  K3  1  0.28095500  0.63088700  0.11631400  1
  K  K4  1  0.71723900  0.41969000  0.70581300  1
  K  K5  1  0.28276100  0.58031000  0.29418700  1
  K  K6  1  0.78440900  0.88740300  0.86370100  1
  K  K7  1  0.21477100  0.14749400  0.95632400  1
  K  K8  1  0.71477100  0.85250600  0.54367600  1
  K  K9  1  0.71904500  0.36911300  0.88368600  1
  K  K10  1  0.21904500  0.63088700  0.61631400  1
  K  K11  1  0.28522900  0.14749400  0.45632400  1
  K  K12  1  0.71559100  0.88740300  0.36370100  1
  K  K13  1  0.78276100  0.41969000  0.20581300  1
  K  K14  1  0.78522900  0.85250600  0.04367600  1
  K  K15  1  0.28440900  0.11259700  0.63629900  1
  V  V0  1  0.77438700  0.57730900  0.53734500  1
  V  V1  1  0.22404700  0.90848700  0.45788200  1
  V  V2  1  0.72404700  0.09151300  0.04211800  1
  V  V3  1  0.77595300  0.09151300  0.54211800  1
  V  V4  1  0.27145200  0.32782100  0.28440100  1
  V  V5  1  0.25759000  0.84320300  0.79230700  1
  V  V6  1  0.22854800  0.32782100  0.78440100  1
  V  V7  1  0.22561300  0.42269100  0.46265500  1
  V  V8  1  0.74241000  0.15679700  0.20769300  1
  V  V9  1  0.77145200  0.67217900  0.21559900  1
  V  V10  1  0.72854800  0.67217900  0.71559900  1
  V  V11  1  0.24241000  0.84320300  0.29230700  1
  V  V12  1  0.72561300  0.57730900  0.03734500  1
  V  V13  1  0.27438700  0.42269100  0.96265500  1
  V  V14  1  0.27595300  0.90848700  0.95788200  1
  V  V15  1  0.75759000  0.15679700  0.70769300  1
  Cd  Cd0  1  0.25273800  0.36809800  0.12264800  1
  Cd  Cd1  1  0.76697900  0.90846100  0.69704600  1
  Cd  Cd2  1  0.75273800  0.63190200  0.37735200  1
  Cd  Cd3  1  0.26697900  0.09153900  0.80295400  1
  Cd  Cd4  1  0.78515500  0.34584200  0.04619300  1
  Cd  Cd5  1  0.24855600  0.87216500  0.12894200  1
  Cd  Cd6  1  0.73302100  0.90846100  0.19704600  1
  Cd  Cd7  1  0.28515500  0.65415800  0.45380700  1
  Cd  Cd8  1  0.74855600  0.12783500  0.37105800  1
  Cd  Cd9  1  0.23302100  0.09153900  0.30295400  1
  Cd  Cd10  1  0.71484500  0.34584200  0.54619300  1
  Cd  Cd11  1  0.21484500  0.65415800  0.95380700  1
  Cd  Cd12  1  0.75144400  0.12783500  0.87105800  1
  Cd  Cd13  1  0.24726200  0.36809800  0.62264800  1
  Cd  Cd14  1  0.74726200  0.63190200  0.87735200  1
  Cd  Cd15  1  0.25144400  0.87216500  0.62894200  1
  O  O0  1  0.12168400  0.87537800  0.21882300  1
  O  O1  1  0.24310500  0.95746000  0.29176700  1
  O  O2  1  0.68769200  0.60743000  0.80056800  1
  O  O3  1  0.96598900  0.28504300  0.82754700  1
  O  O4  1  0.31283500  0.87512600  0.03661400  1
  O  O5  1  0.97281700  0.79864500  0.80002100  1
  O  O6  1  0.37393500  0.41629000  0.79191100  1
  O  O7  1  0.47950300  0.02575600  0.09189200  1
  O  O8  1  0.87393500  0.58371000  0.70808900  1
  O  O9  1  0.04756700  0.00114600  0.91865200  1
  O  O10  1  0.26894400  0.35871000  0.42717800  1
  O  O11  1  0.82161500  0.66317000  0.95392600  1
  O  O12  1  0.45243300  0.00114600  0.41865200  1
  O  O13  1  0.92469600  0.25961800  0.64071400  1
  O  O14  1  0.02718300  0.20135500  0.19997900  1
  O  O15  1  0.75689500  0.04254000  0.70823300  1
  O  O16  1  0.11064800  0.54394800  0.91928800  1
  O  O17  1  0.18716500  0.87512600  0.53661400  1
  O  O18  1  0.95243300  0.99885400  0.08134800  1
  O  O19  1  0.81230800  0.60743000  0.30056800  1
  O  O20  1  0.23105600  0.35871000  0.92717800  1
  O  O21  1  0.12606500  0.41629000  0.29191100  1
  O  O22  1  0.74310500  0.04254000  0.20823300  1
  O  O23  1  0.40912700  0.21048200  0.81868100  1
  O  O24  1  0.59087300  0.78951800  0.18131900  1
  O  O25  1  0.03401100  0.71495700  0.17245300  1
  O  O26  1  0.62606500  0.58371000  0.20808900  1
  O  O27  1  0.53401100  0.28504300  0.32754700  1
  O  O28  1  0.17838500  0.33683000  0.04607400  1
  O  O29  1  0.92867200  0.45795600  0.45602300  1
  O  O30  1  0.73105600  0.64129000  0.57282200  1
  O  O31  1  0.90912700  0.78951800  0.68131900  1
  O  O32  1  0.67838500  0.66317000  0.45392600  1
  O  O33  1  0.68716500  0.12487400  0.96338600  1
  O  O34  1  0.61064800  0.45605200  0.58071200  1
  O  O35  1  0.71763600  0.21059700  0.53400200  1
  O  O36  1  0.52049700  0.97424400  0.90810800  1
  O  O37  1  0.78236400  0.21059700  0.03400200  1
  O  O38  1  0.54756700  0.99885400  0.58134800  1
  O  O39  1  0.62168400  0.12462200  0.28117700  1
  O  O40  1  0.87831600  0.12462200  0.78117700  1
  O  O41  1  0.32161500  0.33683000  0.54607400  1
  O  O42  1  0.88935200  0.45605200  0.08071200  1
  O  O43  1  0.09087300  0.21048200  0.31868100  1
  O  O44  1  0.76894400  0.64129000  0.07282200  1
  O  O45  1  0.25689500  0.95746000  0.79176700  1
  O  O46  1  0.07530400  0.74038200  0.35928600  1
  O  O47  1  0.52718300  0.79864500  0.30002100  1
  O  O48  1  0.46598900  0.71495700  0.67245300  1
  O  O49  1  0.18769200  0.39257000  0.69943200  1
  O  O50  1  0.28236400  0.78940300  0.46599800  1
  O  O51  1  0.47281700  0.20135500  0.69997900  1
  O  O52  1  0.37831600  0.87537800  0.71882300  1
  O  O53  1  0.97950300  0.97424400  0.40810800  1
  O  O54  1  0.42867200  0.54204400  0.04397700  1
  O  O55  1  0.02049700  0.02575600  0.59189200  1
  O  O56  1  0.42469600  0.74038200  0.85928600  1
  O  O57  1  0.81283500  0.12487400  0.46338600  1
  O  O58  1  0.31230800  0.39257000  0.19943200  1
  O  O59  1  0.38935200  0.54394800  0.41928800  1
  O  O60  1  0.21763600  0.78940300  0.96599800  1
  O  O61  1  0.07132800  0.54204400  0.54397700  1
  O  O62  1  0.57530400  0.25961800  0.14071400  1
  O  O63  1  0.57132800  0.45795600  0.95602300  1
loop_
_geom_bond_atom_site_label_1
_geom_bond_atom_site_label_2
_geom_bond_distance
_geom_bond_site_symmetry_2
K0 O7 2.665675 1_555
K0 O28 2.747284 1_555
K0 O14 2.858530 1_555
K0 O0 2.937397 1_545
K0 O62 3.107553 1_555
K0 O22 3.111759 1_455
K0 O1 3.151460 1_545
K0 O18 3.176596 1_445
K0 O37 3.263317 1_455
K0 O22 3.398088 1_555
K1 O6 2.680548 1_555
K1 O2 2.787612 1_555
K1 O48 2.865824 1_555
K1 O16 2.927848 1_555
K1 O8 2.928899 1_455
K1 O20 3.016113 1_555
K1 O2 3.126095 1_455
K1 O31 3.256372 1_455
K2 O27 2.801408 1_555
K2 O21 2.816033 1_655
K2 O19 2.905086 1_555
K2 O29 2.968842 1_555
K2 O57 2.983166 1_555
K2 O10 3.014699 1_655
K2 O35 3.068508 1_555
K2 O10 3.146761 1_555
K3 O25 2.801408 1_555
K3 O26 2.816033 1_555
K3 O58 2.905086 1_555
K3 O54 2.968842 1_555
K3 O4 2.983166 1_555
K3 O44 3.014699 1_555
K3 O60 3.068508 1_554
K3 O44 3.146761 1_455
K4 O8 2.680548 1_555
K4 O49 2.787612 1_655
K4 O3 2.865824 1_555
K4 O34 2.927848 1_555
K4 O6 2.928899 1_555
K4 O30 3.016113 1_555
K4 O49 3.126095 1_555
K4 O23 3.256372 1_555
K5 O21 2.680548 1_555
K5 O19 2.787612 1_455
K5 O25 2.865824 1_555
K5 O59 2.927848 1_555
K5 O26 2.928899 1_555
K5 O10 3.016113 1_555
K5 O19 3.126095 1_555
K5 O24 3.256372 1_555
K6 O36 2.665675 1_555
K6 O11 2.747284 1_555
K6 O5 2.858530 1_555
K6 O40 2.937397 1_565
K6 O56 3.107553 1_555
K6 O45 3.111759 1_655
K6 O15 3.151460 1_565
K6 O9 3.176596 1_665
K6 O60 3.263317 1_655
K6 O45 3.398088 1_555
K7 O33 2.763214 1_555
K7 O20 2.826536 1_555
K7 O18 2.979123 1_446
K7 O3 2.985724 1_455
K7 O9 3.047190 1_555
K7 O33 3.083106 1_455
K7 O7 3.153462 1_556
K7 O23 3.208050 1_555
K8 O17 2.763214 1_655
K8 O30 2.826536 1_555
K8 O12 2.979123 1_565
K8 O48 2.985724 1_555
K8 O38 3.047190 1_555
K8 O17 3.083106 1_555
K8 O53 3.153462 1_555
K8 O31 3.208050 1_555
K9 O3 2.801408 1_555
K9 O6 2.816033 1_555
K9 O2 2.905086 1_555
K9 O63 2.968842 1_555
K9 O33 2.983166 1_555
K9 O20 3.014699 1_555
K9 O37 3.068508 1_556
K9 O20 3.146761 1_655
K10 O48 2.801408 1_555
K10 O8 2.816033 1_455
K10 O49 2.905086 1_555
K10 O61 2.968842 1_555
K10 O17 2.983166 1_555
K10 O30 3.014699 1_455
K10 O50 3.068508 1_555
K10 O30 3.146761 1_555
K11 O57 2.763214 1_455
K11 O10 2.826536 1_555
K11 O38 2.979123 1_545
K11 O27 2.985724 1_555
K11 O12 3.047190 1_555
K11 O57 3.083106 1_555
K11 O55 3.153462 1_555
K11 O43 3.208050 1_555
K12 O53 2.665675 1_555
K12 O32 2.747284 1_555
K12 O47 2.858530 1_555
K12 O39 2.937397 1_565
K12 O46 3.107553 1_655
K12 O1 3.111759 1_555
K12 O22 3.151460 1_565
K12 O12 3.176596 1_565
K12 O50 3.263317 1_555
K12 O1 3.398088 1_655
K13 O26 2.680548 1_555
K13 O58 2.787612 1_555
K13 O27 2.865824 1_555
K13 O42 2.927848 1_555
K13 O21 2.928899 1_655
K13 O44 3.016113 1_555
K13 O58 3.126095 1_655
K13 O43 3.256372 1_655
K14 O4 2.763214 1_555
K14 O44 2.826536 1_555
K14 O9 2.979123 1_664
K14 O25 2.985724 1_655
K14 O18 3.047190 1_555
K14 O4 3.083106 1_655
K14 O36 3.153462 1_554
K14 O24 3.208050 1_555
K15 O55 2.665675 1_555
K15 O41 2.747284 1_555
K15 O51 2.858530 1_555
K15 O52 2.937397 1_545
K15 O13 3.107553 1_455
K15 O15 3.111759 1_555
K15 O45 3.151460 1_545
K15 O38 3.176596 1_545
K15 O35 3.263317 1_555
K15 O15 3.398088 1_455
Cd0 O58 2.206082 1_555
Cd0 O28 2.288112 1_555
Cd0 O62 2.354007 1_555
Cd0 O42 2.384609 1_455
Cd0 O54 2.386306 1_555
Cd0 O14 2.456214 1_555
Cd1 O15 2.212935 1_565
Cd1 O31 2.223774 1_555
Cd1 O52 2.311133 1_555
Cd1 O5 2.407110 1_555
Cd1 O55 2.597479 1_665
Cd1 O38 2.693442 1_555
Cd2 O19 2.206082 1_555
Cd2 O32 2.288112 1_555
Cd2 O46 2.354007 1_655
Cd2 O59 2.384609 1_555
Cd2 O29 2.386306 1_555
Cd2 O47 2.456214 1_555
Cd3 O45 2.212935 1_545
Cd3 O23 2.223774 1_555
Cd3 O40 2.311133 1_455
Cd3 O51 2.407110 1_555
Cd3 O36 2.597479 1_545
Cd3 O9 2.693442 1_555
Cd4 O63 2.235636 1_554
Cd4 O37 2.246970 1_555
Cd4 O62 2.273028 1_555
Cd4 O28 2.292798 1_655
Cd4 O42 2.377358 1_555
Cd5 O24 2.304174 1_555
Cd5 O25 2.306643 1_555
Cd5 O18 2.312557 1_455
Cd5 O4 2.332759 1_555
Cd5 O7 2.345885 1_565
Cd5 O0 2.412499 1_555
Cd6 O22 2.212935 1_565
Cd6 O24 2.223774 1_555
Cd6 O0 2.311133 1_655
Cd6 O47 2.407110 1_555
Cd6 O7 2.597479 1_565
Cd6 O18 2.693442 1_555
Cd7 O61 2.235636 1_555
Cd7 O50 2.246970 1_555
Cd7 O46 2.273028 1_555
Cd7 O32 2.292798 1_555
Cd7 O59 2.377358 1_555
Cd8 O43 2.304174 1_655
Cd8 O27 2.306643 1_555
Cd8 O12 2.312557 1_555
Cd8 O57 2.332759 1_555
Cd8 O53 2.345885 1_545
Cd8 O39 2.412499 1_555
Cd9 O1 2.212935 1_545
Cd9 O43 2.223774 1_555
Cd9 O39 2.311133 1_555
Cd9 O14 2.407110 1_555
Cd9 O53 2.597479 1_445
Cd9 O12 2.693442 1_555
Cd10 O29 2.235636 1_555
Cd10 O35 2.246970 1_555
Cd10 O13 2.273028 1_555
Cd10 O41 2.292798 1_555
Cd10 O34 2.377358 1_555
Cd11 O54 2.235636 1_556
Cd11 O60 2.246970 1_555
Cd11 O56 2.273028 1_555
Cd11 O11 2.292798 1_455
Cd11 O16 2.377358 1_555
Cd12 O23 2.304174 1_555
Cd12 O3 2.306643 1_555
Cd12 O9 2.312557 1_655
Cd12 O33 2.332759 1_555
Cd12 O36 2.345885 1_545
Cd12 O40 2.412499 1_555
Cd13 O49 2.206082 1_555
Cd13 O41 2.288112 1_555
Cd13 O13 2.354007 1_455
Cd13 O34 2.384609 1_555
Cd13 O61 2.386306 1_555
Cd13 O51 2.456214 1_555
Cd14 O2 2.206082 1_555
Cd14 O11 2.288112 1_555
Cd14 O56 2.354007 1_555
Cd14 O16 2.384609 1_655
Cd14 O63 2.386306 1_555
Cd14 O5 2.456214 1_555
Cd15 O31 2.304174 1_455
Cd15 O48 2.306643 1_555
Cd15 O38 2.312557 1_555
Cd15 O17 2.332759 1_555
Cd15 O55 2.345885 1_565
Cd15 O52 2.412499 1_555
O0 V11 1.757572 1_555
O1 V11 1.723647 1_555
O2 V10 1.761798 1_555
O3 V6 1.760129 1_655
O4 V14 1.745852 1_554
O5 V5 1.756158 1_655
O6 V6 1.689066 1_555
O7 V2 1.761332 1_555
O8 V10 1.689066 1_555
O9 V14 1.749313 1_545
O10 V7 1.685358 1_555
O11 V12 1.779395 1_556
O12 V1 1.749313 1_545
O13 V15 1.757096 1_555
O14 V8 1.756158 1_455
O15 V15 1.723647 1_555
O16 V13 1.755991 1_555
O17 V1 1.745852 1_555
O18 V2 1.749313 1_565
O19 V9 1.761798 1_555
O20 V13 1.685358 1_555
O21 V4 1.689066 1_555
O22 V8 1.723647 1_555
O23 V6 1.783293 1_555
O24 V9 1.783293 1_555
O25 V9 1.760129 1_455
O26 V9 1.689066 1_555
O27 V4 1.760129 1_555
O28 V13 1.779395 1_554
O29 V7 1.787088 1_655
O30 V0 1.685358 1_555
O31 V10 1.783293 1_555
O32 V0 1.779395 1_555
O33 V2 1.745852 1_556
O34 V0 1.755991 1_555
O35 V3 1.724480 1_555
O36 V14 1.761332 1_555
O37 V2 1.724480 1_555
O38 V3 1.749313 1_565
O39 V8 1.757572 1_555
O40 V15 1.757572 1_555
O41 V7 1.779395 1_555
O42 V12 1.755991 1_555
O43 V4 1.783293 1_555
O44 V12 1.685358 1_555
O45 V5 1.723647 1_555
O46 V11 1.757096 1_555
O47 V11 1.756158 1_555
O48 V10 1.760129 1_555
O49 V6 1.761798 1_555
O50 V1 1.724480 1_555
O51 V15 1.756158 1_555
O52 V5 1.757572 1_555
O53 V1 1.761332 1_655
O54 V12 1.787088 1_555
O55 V3 1.761332 1_455
O56 V5 1.757096 1_555
O57 V3 1.745852 1_555
O58 V4 1.761798 1_555
O59 V7 1.755991 1_555
O60 V14 1.724480 1_555
O61 V0 1.787088 1_455
O62 V8 1.757096 1_555
O63 V13 1.787088 1_555
