# generated using pymatgen
data_Pb3SO6
_symmetry_space_group_name_H-M   'P 1'
_cell_length_a   5.80573308
_cell_length_b   7.23036569
_cell_length_c   8.10724078
_cell_angle_alpha   102.66820097
_cell_angle_beta   91.01142061
_cell_angle_gamma   92.03044828
_symmetry_Int_Tables_number   1
_chemical_formula_structural   Pb3SO6
_chemical_formula_sum   'Pb6 S2 O12'
_cell_volume   331.71635013
_cell_formula_units_Z   2
loop_
 _symmetry_equiv_pos_site_id
 _symmetry_equiv_pos_as_xyz
  1  'x, y, z'
loop_
 _atom_site_type_symbol
 _atom_site_label
 _atom_site_symmetry_multiplicity
 _atom_site_fract_x
 _atom_site_fract_y
 _atom_site_fract_z
 _atom_site_occupancy
  Pb  Pb0  1  0.74262353  0.60575410  0.41490496  1
  Pb  Pb1  1  0.25167376  0.91984231  0.62480863  1
  Pb  Pb2  1  0.23326467  0.77485287  0.15388546  1
  Pb  Pb3  1  0.76673533  0.22514713  0.84611454  1
  Pb  Pb4  1  0.25737647  0.39424590  0.58509504  1
  Pb  Pb5  1  0.74832624  0.08015769  0.37519137  1
  S  S0  1  0.26694880  0.29822130  0.14188417  1
  S  S1  1  0.73305120  0.70177870  0.85811583  1
  O  O0  1  0.08405711  0.44088586  0.17358006  1
  O  O1  1  0.50705327  0.59857254  0.84412937  1
  O  O2  1  0.99382409  0.82736714  0.37781994  1
  O  O3  1  0.91594289  0.55911414  0.82641994  1
  O  O4  1  0.25308983  0.18350176  0.27507725  1
  O  O5  1  0.49294673  0.40142746  0.15587063  1
  O  O6  1  0.49371688  0.81870325  0.37999286  1
  O  O7  1  0.23282002  0.17153419  0.97491440  1
  O  O8  1  0.00617591  0.17263286  0.62218006  1
  O  O9  1  0.76717998  0.82846581  0.02508560  1
  O  O10  1  0.74691017  0.81649824  0.72492275  1
  O  O11  1  0.50628312  0.18129675  0.62000714  1
loop_
_geom_bond_atom_site_label_1
_geom_bond_atom_site_label_2
_geom_bond_distance
_geom_bond_site_symmetry_2
O0 S0 1.492818 1_555
O0 Pb2 2.575356 1_555
O1 S1 1.476319 1_555
O1 Pb4 2.659700 1_555
O2 Pb0 2.201370 1_555
O2 Pb2 2.279645 1_655
O2 Pb5 2.360777 1_565
O2 Pb1 2.435918 1_655
O3 S1 1.492818 1_555
O3 Pb3 2.575356 1_555
O4 S0 1.500568 1_555
O4 Pb4 2.637214 1_555
O5 S0 1.476319 1_555
O5 Pb0 2.659700 1_555
O6 Pb0 2.207585 1_555
O6 Pb2 2.315287 1_555
O6 Pb5 2.365697 1_565
O6 Pb1 2.446116 1_555
O7 S0 1.464421 1_556
O8 Pb4 2.201370 1_555
O8 Pb3 2.279645 1_455
O8 Pb1 2.360777 1_545
O8 Pb5 2.435918 1_455
O9 S1 1.464421 1_554
O10 S1 1.500568 1_555
O10 Pb0 2.637214 1_555
O11 Pb4 2.207585 1_555
O11 Pb3 2.315287 1_555
O11 Pb1 2.365697 1_545
O11 Pb5 2.446116 1_555
