# generated using pymatgen
data_GdH7C2SO8
_symmetry_space_group_name_H-M   'P 1'
_cell_length_a   6.79163300
_cell_length_b   7.00512620
_cell_length_c   8.77935052
_cell_angle_alpha   110.29964980
_cell_angle_beta   89.90719742
_cell_angle_gamma   107.85774345
_symmetry_Int_Tables_number   1
_chemical_formula_structural   GdH7C2SO8
_chemical_formula_sum   'Gd2 H14 C4 S2 O16'
_cell_volume   370.29556368
_cell_formula_units_Z   2
loop_
 _symmetry_equiv_pos_site_id
 _symmetry_equiv_pos_as_xyz
  1  'x, y, z'
loop_
 _atom_site_type_symbol
 _atom_site_label
 _atom_site_symmetry_multiplicity
 _atom_site_fract_x
 _atom_site_fract_y
 _atom_site_fract_z
 _atom_site_occupancy
  Gd  Gd0  1  0.88245700  0.64834800  0.87090200  1
  Gd  Gd1  1  0.11754300  0.35165200  0.12909800  1
  H  H0  1  0.41520600  0.14096200  0.33067500  1
  H  H1  1  0.89514000  0.80067500  0.57420400  1
  H  H2  1  0.42649400  0.93117800  0.82291600  1
  H  H3  1  0.07894800  0.98278100  0.70943800  1
  H  H4  1  0.51560400  0.09599800  0.70384300  1
  H  H5  1  0.60886700  0.33874000  0.55612900  1
  H  H6  1  0.48439600  0.90400200  0.29615700  1
  H  H7  1  0.10486000  0.19932500  0.42579600  1
  H  H8  1  0.57350600  0.06882200  0.17708400  1
  H  H9  1  0.92105200  0.01721900  0.29056200  1
  H  H10  1  0.16918600  0.67118200  0.49931900  1
  H  H11  1  0.83081400  0.32881800  0.50068100  1
  H  H12  1  0.58479400  0.85903800  0.66932500  1
  H  H13  1  0.39113300  0.66126000  0.44387100  1
  C  C0  1  0.25485700  0.87891500  0.11728500  1
  C  C1  1  0.44368100  0.00344800  0.23831500  1
  C  C2  1  0.55631900  0.99655200  0.76168500  1
  C  C3  1  0.74514300  0.12108500  0.88271500  1
  S  S0  1  0.69626900  0.58793300  0.24896700  1
  S  S1  1  0.30373100  0.41206700  0.75103300  1
  O  O0  1  0.21852300  0.27231200  0.84815700  1
  O  O1  1  0.78147700  0.72768800  0.15184300  1
  O  O2  1  0.24161200  0.61224500  0.40633300  1
  O  O3  1  0.17435900  0.97261500  0.04443200  1
  O  O4  1  0.83047500  0.32283900  0.91716800  1
  O  O5  1  0.83157600  0.45748700  0.25091400  1
  O  O6  1  0.16842400  0.54251300  0.74908600  1
  O  O7  1  0.75838800  0.38775500  0.59366700  1
  O  O8  1  0.31149300  0.27221800  0.58053500  1
  O  O9  1  0.16952500  0.67716100  0.08283200  1
  O  O10  1  0.68850700  0.72778200  0.41946500  1
  O  O11  1  0.99631600  0.17386400  0.33799300  1
  O  O12  1  0.82564100  0.02738500  0.95556800  1
  O  O13  1  0.51845900  0.55754800  0.82541200  1
  O  O14  1  0.00368400  0.82613600  0.66200700  1
  O  O15  1  0.48154100  0.44245200  0.17458800  1
loop_
_geom_bond_atom_site_label_1
_geom_bond_atom_site_label_2
_geom_bond_distance
_geom_bond_site_symmetry_2
Gd0 O13 2.353317 1_555
Gd0 O4 2.374351 1_555
Gd0 O6 2.406598 1_655
Gd0 O7 2.438615 1_555
Gd0 O1 2.477881 1_556
Gd0 O3 2.501559 1_656
Gd0 O14 2.558012 1_655
Gd0 O9 2.610288 1_656
Gd0 O12 2.647551 1_565
Gd1 O15 2.353317 1_555
Gd1 O9 2.374351 1_555
Gd1 O5 2.406598 1_455
Gd1 O2 2.438615 1_555
Gd1 O0 2.477881 1_554
Gd1 O12 2.501559 1_454
Gd1 O11 2.558012 1_455
Gd1 O4 2.610288 1_454
Gd1 O3 2.647551 1_545
H1 O14 0.997637 1_655
H3 O14 0.989153 1_555
H5 O7 0.983082 1_555
H7 O11 0.997637 1_455
H9 O11 0.989153 1_555
H10 O2 0.983992 1_555
H11 O7 0.983992 1_555
H13 O2 0.983082 1_555
C0 O9 1.275310 1_555
C0 O3 1.285044 1_555
C1 H6 1.087977 1_545
C1 H0 1.092986 1_555
C1 H8 1.094427 1_555
C2 H4 1.087977 1_565
C2 H12 1.092986 1_555
C2 H2 1.094427 1_555
C3 O4 1.275310 1_555
C3 O12 1.285044 1_555
O0 S1 1.500188 1_555
O1 S0 1.500188 1_555
O5 S0 1.485156 1_555
O6 S1 1.485156 1_555
O8 S1 1.488973 1_555
O10 S0 1.488973 1_555
O13 S1 1.490508 1_555
O15 S0 1.490508 1_555
