# generated using pymatgen
data_Na4Co3P4O15
_symmetry_space_group_name_H-M   'P 1'
_cell_length_a   6.59514230
_cell_length_b   10.64139783
_cell_length_c   18.24516217
_cell_angle_alpha   90.00000000
_cell_angle_beta   90.00000000
_cell_angle_gamma   90.00000000
_symmetry_Int_Tables_number   1
_chemical_formula_structural   Na4Co3P4O15
_chemical_formula_sum   'Na16 Co12 P16 O60'
_cell_volume   1280.47345019
_cell_formula_units_Z   4
loop_
 _symmetry_equiv_pos_site_id
 _symmetry_equiv_pos_as_xyz
  1  'x, y, z'
loop_
 _atom_site_type_symbol
 _atom_site_label
 _atom_site_symmetry_multiplicity
 _atom_site_fract_x
 _atom_site_fract_y
 _atom_site_fract_z
 _atom_site_occupancy
  Na  Na0  1  0.81921106  0.52312037  0.99346380  1
  Na  Na1  1  0.31921106  0.47687963  0.00653620  1
  Na  Na2  1  0.31921106  0.02312037  0.50653620  1
  Na  Na3  1  0.81921106  0.97687963  0.49346380  1
  Na  Na4  1  0.85164576  0.75272841  0.79548666  1
  Na  Na5  1  0.35164576  0.24727159  0.20451334  1
  Na  Na6  1  0.35164576  0.25272841  0.70451334  1
  Na  Na7  1  0.85164576  0.74727159  0.29548666  1
  Na  Na8  1  0.42782353  0.23600229  0.89428496  1
  Na  Na9  1  0.92782353  0.76399771  0.10571504  1
  Na  Na10  1  0.92782353  0.73600229  0.60571504  1
  Na  Na11  1  0.42782353  0.26399771  0.39428496  1
  Na  Na12  1  0.67383683  0.95902871  0.96205748  1
  Na  Na13  1  0.17383683  0.04097129  0.03794252  1
  Na  Na14  1  0.17383683  0.45902871  0.53794252  1
  Na  Na15  1  0.67383683  0.54097129  0.46205748  1
  Co  Co0  1  0.10302902  0.99737818  0.83374471  1
  Co  Co1  1  0.60302902  0.00262182  0.16625529  1
  Co  Co2  1  0.60302902  0.49737818  0.66625529  1
  Co  Co3  1  0.10302902  0.50262182  0.33374471  1
  Co  Co4  1  0.59230959  0.00471352  0.63927422  1
  Co  Co5  1  0.09230959  0.99528648  0.36072578  1
  Co  Co6  1  0.09230959  0.50471352  0.86072578  1
  Co  Co7  1  0.59230959  0.49528648  0.13927422  1
  Co  Co8  1  0.32542356  0.75772534  0.74259069  1
  Co  Co9  1  0.82542356  0.24227466  0.25740931  1
  Co  Co10  1  0.82542356  0.25772534  0.75740931  1
  Co  Co11  1  0.32542356  0.74227466  0.24259069  1
  P  P0  1  0.59818092  0.99818166  0.79247460  1
  P  P1  1  0.09818092  0.00181834  0.20752540  1
  P  P2  1  0.09818092  0.49818166  0.70752540  1
  P  P3  1  0.59818092  0.50181834  0.29247460  1
  P  P4  1  0.08780111  0.01368776  0.67925589  1
  P  P5  1  0.58780111  0.98631224  0.32074411  1
  P  P6  1  0.58780111  0.51368776  0.82074411  1
  P  P7  1  0.08780111  0.48631224  0.17925589  1
  P  P8  1  0.45528003  0.76300138  0.06838862  1
  P  P9  1  0.95528003  0.23699862  0.93161138  1
  P  P10  1  0.95528003  0.26300138  0.43161138  1
  P  P11  1  0.45528003  0.73699862  0.56838862  1
  P  P12  1  0.14668840  0.77231845  0.94868175  1
  P  P13  1  0.64668840  0.22768155  0.05131825  1
  P  P14  1  0.64668840  0.27231845  0.55131825  1
  P  P15  1  0.14668840  0.72768155  0.44868175  1
  O  O0  1  0.55926404  0.88790848  0.73627357  1
  O  O1  1  0.05926404  0.11209152  0.26372643  1
  O  O2  1  0.05926404  0.38790848  0.76372643  1
  O  O3  1  0.55926404  0.61209152  0.23627357  1
  O  O4  1  0.41956525  0.02370053  0.84380705  1
  O  O5  1  0.91956525  0.97629947  0.15619295  1
  O  O6  1  0.91956525  0.52370053  0.65619295  1
  O  O7  1  0.41956525  0.47629947  0.34380705  1
  O  O8  1  0.78796372  0.96456193  0.83825223  1
  O  O9  1  0.28796372  0.03543807  0.16174777  1
  O  O10  1  0.28796372  0.46456193  0.66174777  1
  O  O11  1  0.78796372  0.53543807  0.33825223  1
  O  O12  1  0.62738702  0.11459105  0.73985716  1
  O  O13  1  0.12738702  0.88540895  0.26014284  1
  O  O14  1  0.12738702  0.61459105  0.76014284  1
  O  O15  1  0.62738702  0.38540895  0.23985716  1
  O  O16  1  0.11352302  0.89739052  0.73204267  1
  O  O17  1  0.61352302  0.10260948  0.26795733  1
  O  O18  1  0.61352302  0.39739052  0.76795733  1
  O  O19  1  0.11352302  0.60260948  0.23204267  1
  O  O20  1  0.90801752  0.98749575  0.62719745  1
  O  O21  1  0.40801752  0.01250425  0.37280255  1
  O  O22  1  0.40801752  0.48749575  0.87280255  1
  O  O23  1  0.90801752  0.51250425  0.12719745  1
  O  O24  1  0.05382077  0.12600418  0.73420196  1
  O  O25  1  0.55382077  0.87399582  0.26579804  1
  O  O26  1  0.55382077  0.62600418  0.76579804  1
  O  O27  1  0.05382077  0.37399582  0.23420196  1
  O  O28  1  0.28210782  0.04290361  0.63501028  1
  O  O29  1  0.78210782  0.95709639  0.36498972  1
  O  O30  1  0.78210782  0.54290361  0.86498972  1
  O  O31  1  0.28210782  0.45709639  0.13501028  1
  O  O32  1  0.37030508  0.80232807  0.98681141  1
  O  O33  1  0.87030508  0.19767193  0.01318859  1
  O  O34  1  0.87030508  0.30232807  0.51318859  1
  O  O35  1  0.37030508  0.69767193  0.48681141  1
  O  O36  1  0.56654133  0.63696049  0.05760953  1
  O  O37  1  0.06654133  0.36303951  0.94239047  1
  O  O38  1  0.06654133  0.13696049  0.44239047  1
  O  O39  1  0.56654133  0.86303951  0.55760953  1
  O  O40  1  0.28066348  0.75692493  0.12247755  1
  O  O41  1  0.78066348  0.24307507  0.87752245  1
  O  O42  1  0.78066348  0.25692493  0.37752245  1
  O  O43  1  0.28066348  0.74307507  0.62247755  1
  O  O44  1  0.60614389  0.86963875  0.08387035  1
  O  O45  1  0.10614389  0.13036125  0.91612965  1
  O  O46  1  0.10614389  0.36963875  0.41612965  1
  O  O47  1  0.60614389  0.63036125  0.58387035  1
  O  O48  1  0.11108923  0.63007346  0.95631244  1
  O  O49  1  0.61108923  0.36992654  0.04368756  1
  O  O50  1  0.61108923  0.13007346  0.54368756  1
  O  O51  1  0.11108923  0.86992654  0.45631244  1
  O  O52  1  0.17067456  0.81176674  0.86848102  1
  O  O53  1  0.67067456  0.18823326  0.13151898  1
  O  O54  1  0.67067456  0.31176674  0.63151898  1
  O  O55  1  0.17067456  0.68823326  0.36848102  1
  O  O56  1  0.99600347  0.85273673  0.99070549  1
  O  O57  1  0.49600347  0.14726327  0.00929451  1
  O  O58  1  0.49600347  0.35273673  0.50929451  1
  O  O59  1  0.99600347  0.64726327  0.49070549  1
loop_
_geom_bond_atom_site_label_1
_geom_bond_atom_site_label_2
_geom_bond_distance
_geom_bond_site_symmetry_2
Na0 O49 2.319748 1_556
Na0 O48 2.336737 1_655
Na0 O30 2.366152 1_555
Na0 O36 2.369413 1_556
Na0 O23 2.511844 1_556
Na0 O37 2.535928 1_655
Na1 O48 2.319748 1_554
Na1 O49 2.336737 1_555
Na1 O31 2.366152 1_555
Na1 O37 2.369413 1_554
Na1 O22 2.511844 1_554
Na1 O36 2.535928 1_555
Na2 O51 2.319748 1_545
Na2 O50 2.336737 1_555
Na2 O28 2.366152 1_555
Na2 O38 2.369413 1_555
Na2 O21 2.511844 1_555
Na2 O39 2.535928 1_545
Na3 O50 2.319748 1_565
Na3 O51 2.336737 1_655
Na3 O29 2.366152 1_555
Na3 O39 2.369413 1_555
Na3 O20 2.511844 1_555
Na3 O38 2.535928 1_665
Na4 O8 2.422116 1_555
Na4 O14 2.425654 1_655
Na4 O26 2.443358 1_555
Na4 O52 2.568143 1_655
Na4 O16 2.587010 1_655
Na4 O30 2.608432 1_555
Na4 O0 2.637195 1_555
Na5 O9 2.422116 1_555
Na5 O15 2.425654 1_555
Na5 O27 2.443358 1_555
Na5 O53 2.568143 1_555
Na5 O17 2.587010 1_555
Na5 O31 2.608432 1_555
Na5 O1 2.637195 1_555
Na6 O10 2.422116 1_555
Na6 O12 2.425654 1_555
Na6 O24 2.443358 1_555
Na6 O54 2.568143 1_555
Na6 O18 2.587010 1_555
Na6 O28 2.608432 1_555
Na6 O2 2.637195 1_555
Na7 O11 2.422116 1_555
Na7 O13 2.425654 1_655
Na7 O25 2.443358 1_555
Na7 O55 2.568143 1_655
Na7 O19 2.587010 1_655
Na7 O29 2.608432 1_555
Na7 O3 2.637195 1_555
Na8 O57 2.344580 1_556
Na8 O41 2.348248 1_555
Na8 O45 2.433817 1_555
Na8 O4 2.440306 1_555
Na8 O22 2.707944 1_555
Na8 O37 2.876656 1_555
Na9 O56 2.344580 1_554
Na9 O40 2.348248 1_655
Na9 O44 2.433817 1_555
Na9 O5 2.440306 1_555
Na9 O23 2.707944 1_555
Na9 O36 2.876656 1_555
Na10 O59 2.344580 1_555
Na10 O43 2.348248 1_655
Na10 O47 2.433817 1_555
Na10 O6 2.440306 1_555
Na10 O20 2.707944 1_555
Na10 O39 2.876656 1_555
Na11 O58 2.344580 1_555
Na11 O42 2.348248 1_555
Na11 O46 2.433817 1_555
Na11 O7 2.440306 1_555
Na11 O21 2.707944 1_555
Na11 O38 2.876656 1_555
Na12 O8 2.381678 1_555
Na12 O44 2.458383 1_556
Na12 O56 2.463144 1_555
Na12 O57 2.476015 1_566
Na12 O32 2.644225 1_555
Na12 O4 2.817907 1_565
Na12 O33 2.999712 1_566
Na13 O9 2.381678 1_555
Na13 O45 2.458383 1_554
Na13 O57 2.463144 1_555
Na13 O56 2.476015 1_444
Na13 O33 2.644225 1_455
Na13 O5 2.817907 1_445
Na13 O32 2.999712 1_544
Na14 O10 2.381678 1_555
Na14 O46 2.458383 1_555
Na14 O58 2.463144 1_555
Na14 O59 2.476015 1_455
Na14 O34 2.644225 1_455
Na14 O6 2.817907 1_455
Na14 O35 2.999712 1_555
Na15 O11 2.381678 1_555
Na15 O47 2.458383 1_555
Na15 O59 2.463144 1_555
Na15 O58 2.476015 1_555
Na15 O35 2.644225 1_555
Na15 O7 2.817907 1_555
Na15 O34 2.999712 1_555
Co0 O45 2.064556 1_565
Co0 O8 2.108645 1_455
Co0 O4 2.114295 1_565
Co0 O52 2.121786 1_555
Co0 O16 2.140104 1_555
Co0 O24 2.297241 1_565
Co1 O44 2.064556 1_545
Co1 O9 2.108645 1_555
Co1 O5 2.114295 1_545
Co1 O53 2.121786 1_555
Co1 O17 2.140104 1_555
Co1 O25 2.297241 1_545
Co2 O47 2.064556 1_555
Co2 O10 2.108645 1_555
Co2 O6 2.114295 1_555
Co2 O54 2.121786 1_555
Co2 O18 2.140104 1_555
Co2 O26 2.297241 1_555
Co3 O46 2.064556 1_555
Co3 O11 2.108645 1_455
Co3 O7 2.114295 1_555
Co3 O55 2.121786 1_555
Co3 O19 2.140104 1_555
Co3 O27 2.297241 1_555
Co4 O28 2.087249 1_555
Co4 O20 2.101767 1_545
Co4 O39 2.126458 1_545
Co4 O0 2.173603 1_545
Co4 O12 2.188252 1_555
Co4 O50 2.199187 1_555
Co5 O29 2.087249 1_455
Co5 O21 2.101767 1_565
Co5 O38 2.126458 1_565
Co5 O1 2.173603 1_565
Co5 O13 2.188252 1_555
Co5 O51 2.199187 1_555
Co6 O30 2.087249 1_455
Co6 O22 2.101767 1_555
Co6 O37 2.126458 1_555
Co6 O2 2.173603 1_555
Co6 O14 2.188252 1_555
Co6 O48 2.199187 1_555
Co7 O31 2.087249 1_555
Co7 O23 2.101767 1_555
Co7 O36 2.126458 1_555
Co7 O3 2.173603 1_555
Co7 O15 2.188252 1_555
Co7 O49 2.199187 1_555
Co8 O14 2.031842 1_555
Co8 O16 2.049139 1_555
Co8 O0 2.076256 1_555
Co8 O26 2.100718 1_555
Co8 O43 2.216765 1_555
Co8 O52 2.578376 1_555
Co9 O15 2.031842 1_555
Co9 O17 2.049139 1_555
Co9 O1 2.076256 1_655
Co9 O27 2.100718 1_655
Co9 O42 2.216765 1_555
Co9 O53 2.578376 1_555
Co10 O12 2.031842 1_555
Co10 O18 2.049139 1_555
Co10 O2 2.076256 1_655
Co10 O24 2.100718 1_655
Co10 O41 2.216765 1_555
Co10 O54 2.578376 1_555
Co11 O13 2.031842 1_555
Co11 O19 2.049139 1_555
Co11 O3 2.076256 1_555
Co11 O25 2.100718 1_555
Co11 O40 2.216765 1_555
Co11 O55 2.578376 1_555
O0 P0 1.579343 1_555
O1 P1 1.579343 1_555
O2 P2 1.579343 1_555
O3 P3 1.579343 1_555
O4 P0 1.529241 1_545
O5 P1 1.529241 1_665
O6 P2 1.529241 1_655
O7 P3 1.529241 1_555
O8 P0 1.546674 1_555
O9 P1 1.546674 1_555
O10 P2 1.546674 1_555
O11 P3 1.546674 1_555
O12 P0 1.579003 1_545
O13 P1 1.579003 1_565
O14 P2 1.579003 1_555
O15 P3 1.579003 1_555
O16 P4 1.577312 1_565
O17 P5 1.577312 1_545
O18 P6 1.577312 1_555
O19 P7 1.577312 1_555
O20 P4 1.544575 1_665
O21 P5 1.544575 1_545
O22 P6 1.544575 1_555
O23 P7 1.544575 1_655
O24 P4 1.575989 1_555
O25 P5 1.575989 1_555
O26 P6 1.575989 1_555
O27 P7 1.575989 1_555
O28 P4 1.546134 1_555
O29 P5 1.546134 1_555
O30 P6 1.546134 1_555
O31 P7 1.546134 1_555
O32 P8 1.644540 1_556
O32 P12 1.661608 1_555
O33 P9 1.644540 1_554
O33 P13 1.661608 1_555
O34 P10 1.644540 1_555
O34 P14 1.661608 1_555
O35 P11 1.644540 1_555
O35 P15 1.661608 1_555
O36 P8 1.541451 1_555
O37 P9 1.541451 1_455
O38 P10 1.541451 1_455
O39 P11 1.541451 1_555
O40 P8 1.517995 1_555
O41 P9 1.517995 1_555
O42 P10 1.517995 1_555
O43 P11 1.517995 1_555
O44 P8 1.535400 1_555
O45 P9 1.535400 1_455
O46 P10 1.535400 1_455
O47 P11 1.535400 1_555
O48 P12 1.538099 1_555
O49 P13 1.538099 1_555
O50 P14 1.538099 1_555
O51 P15 1.538099 1_555
O52 P12 1.530496 1_555
O53 P13 1.530496 1_555
O54 P14 1.530496 1_555
O55 P15 1.530496 1_555
O56 P12 1.519151 1_655
O57 P13 1.519151 1_555
O58 P14 1.519151 1_555
O59 P15 1.519151 1_655
