# generated using pymatgen
data_GeSe2
_symmetry_space_group_name_H-M   'P 1'
_cell_length_a   7.10805796
_cell_length_b   12.24538221
_cell_length_c   17.10168779
_cell_angle_alpha   90.00000000
_cell_angle_beta   90.00000000
_cell_angle_gamma   91.07959979
_symmetry_Int_Tables_number   1
_chemical_formula_structural   GeSe2
_chemical_formula_sum   'Ge16 Se32'
_cell_volume   1488.28182390
_cell_formula_units_Z   16
loop_
 _symmetry_equiv_pos_site_id
 _symmetry_equiv_pos_as_xyz
  1  'x, y, z'
loop_
 _atom_site_type_symbol
 _atom_site_label
 _atom_site_symmetry_multiplicity
 _atom_site_fract_x
 _atom_site_fract_y
 _atom_site_fract_z
 _atom_site_occupancy
  Ge  Ge0  1  0.66394549  0.78048848  0.84497397  1
  Ge  Ge1  1  0.33605451  0.71951152  0.34497397  1
  Ge  Ge2  1  0.33605451  0.21951152  0.15502603  1
  Ge  Ge3  1  0.66394549  0.28048848  0.65502603  1
  Ge  Ge4  1  0.84238531  0.22379032  0.84891988  1
  Ge  Ge5  1  0.15761469  0.27620968  0.34891988  1
  Ge  Ge6  1  0.15761469  0.77620968  0.15108012  1
  Ge  Ge7  1  0.84238531  0.72379032  0.65108012  1
  Ge  Ge8  1  0.16685075  0.29487209  -0.00011126  1
  Ge  Ge9  1  0.83314925  0.20512791  0.49988874  1
  Ge  Ge10  1  0.83314925  0.70512791  0.00011126  1
  Ge  Ge11  1  0.16685075  0.79487209  0.50011126  1
  Ge  Ge12  1  0.34038675  0.72530587  0.68879606  1
  Ge  Ge13  1  0.65961325  0.77469413  0.18879606  1
  Ge  Ge14  1  0.65961325  0.27469413  0.31120394  1
  Ge  Ge15  1  0.34038675  0.22530587  0.81120394  1
  Se  Se0  1  0.33706129  0.79214525  0.81877445  1
  Se  Se1  1  0.66293871  0.70785475  0.31877445  1
  Se  Se2  1  0.66293871  0.20785475  0.18122555  1
  Se  Se3  1  0.33706129  0.29214525  0.68122555  1
  Se  Se4  1  0.72240699  0.87961926  0.96208888  1
  Se  Se5  1  0.27759301  0.62038074  0.46208888  1
  Se  Se6  1  0.27759301  0.12037974  0.03791112  1
  Se  Se7  1  0.72240699  0.37962026  0.53791112  1
  Se  Se8  1  0.77195803  0.60599814  0.88361860  1
  Se  Se9  1  0.22804197  0.89400186  0.38361860  1
  Se  Se10  1  0.22804197  0.39400186  0.11638140  1
  Se  Se11  1  0.77195803  0.10599814  0.61638140  1
  Se  Se12  1  0.84902402  0.86512583  0.74472072  1
  Se  Se13  1  0.15097598  0.63487417  0.24472072  1
  Se  Se14  1  0.15097598  0.13487417  0.25527928  1
  Se  Se15  1  0.84902402  0.36512583  0.75527928  1
  Se  Se16  1  0.58858317  0.60014360  0.67197568  1
  Se  Se17  1  0.41141683  0.89985640  0.17197568  1
  Se  Se18  1  0.41141683  0.39985640  0.32802432  1
  Se  Se19  1  0.58858317  0.10014360  0.82802432  1
  Se  Se20  1  0.09253785  0.59931528  0.66257940  1
  Se  Se21  1  0.90746215  0.90068472  0.16257940  1
  Se  Se22  1  0.90746215  0.40068472  0.33742060  1
  Se  Se23  1  0.09253785  0.09931528  0.83742060  1
  Se  Se24  1  0.34528637  0.87681915  0.60341848  1
  Se  Se25  1  0.65471363  0.62318085  0.10341848  1
  Se  Se26  1  0.65471363  0.12318085  0.39658152  1
  Se  Se27  1  0.34528637  0.37681915  0.89658152  1
  Se  Se28  1  0.83923296  0.80491250  0.52517696  1
  Se  Se29  1  0.16076704  0.69508750  0.02517696  1
  Se  Se30  1  0.16076704  0.19508750  0.47482304  1
  Se  Se31  1  0.83923296  0.30491250  0.97482304  1
loop_
_geom_bond_atom_site_label_1
_geom_bond_atom_site_label_2
_geom_bond_distance
_geom_bond_site_symmetry_2
Ge0 Se0 2.373254 1_555
Ge0 Se4 2.374588 1_555
Ge0 Se8 2.377717 1_555
Ge0 Se12 2.385992 1_555
Ge1 Se1 2.373254 1_555
Ge1 Se5 2.374588 1_555
Ge1 Se9 2.377717 1_555
Ge1 Se13 2.385992 1_555
Ge2 Se2 2.373254 1_555
Ge2 Se6 2.374595 1_555
Ge2 Se10 2.377717 1_555
Ge2 Se14 2.385992 1_555
Ge3 Se3 2.373254 1_555
Ge3 Se7 2.374595 1_555
Ge3 Se11 2.377717 1_555
Ge3 Se15 2.385992 1_555
Ge4 Se15 2.357757 1_555
Ge4 Se19 2.360473 1_555
Ge4 Se31 2.371542 1_555
Ge4 Se23 2.371869 1_655
Ge5 Se14 2.357757 1_555
Ge5 Se18 2.360473 1_555
Ge5 Se30 2.371542 1_555
Ge5 Se22 2.371869 1_455
Ge6 Se13 2.357757 1_555
Ge6 Se17 2.360473 1_555
Ge6 Se29 2.371542 1_555
Ge6 Se21 2.371869 1_455
Ge7 Se12 2.357757 1_555
Ge7 Se16 2.360473 1_555
Ge7 Se28 2.371542 1_555
Ge7 Se20 2.371869 1_655
Ge8 Se10 2.368911 1_555
Ge8 Se31 2.373315 1_454
Ge8 Se6 2.381475 1_555
Ge8 Se27 2.385160 1_554
Ge9 Se11 2.368911 1_555
Ge9 Se30 2.373315 1_655
Ge9 Se7 2.381475 1_555
Ge9 Se26 2.385160 1_555
Ge10 Se8 2.368911 1_554
Ge10 Se29 2.373315 1_655
Ge10 Se4 2.381464 1_554
Ge10 Se25 2.385160 1_555
Ge11 Se9 2.368911 1_555
Ge11 Se28 2.373315 1_455
Ge11 Se5 2.381464 1_555
Ge11 Se24 2.385160 1_555
Ge12 Se24 2.360710 1_555
Ge12 Se20 2.362733 1_555
Ge12 Se0 2.369018 1_555
Ge12 Se16 2.376145 1_555
Ge13 Se25 2.360710 1_555
Ge13 Se21 2.362733 1_555
Ge13 Se1 2.369018 1_555
Ge13 Se17 2.376145 1_555
Ge14 Se26 2.360710 1_555
Ge14 Se22 2.362733 1_555
Ge14 Se2 2.369018 1_555
Ge14 Se18 2.376145 1_555
Ge15 Se27 2.360710 1_555
Ge15 Se23 2.362733 1_555
Ge15 Se3 2.369018 1_555
Ge15 Se19 2.376145 1_555
