# generated using pymatgen
data_Ca2Th(Si2O5)4
_symmetry_space_group_name_H-M   'P 1'
_cell_length_a   9.26560124
_cell_length_b   9.26560124
_cell_length_c   9.26560124
_cell_angle_alpha   131.94506502
_cell_angle_beta   131.94506502
_cell_angle_gamma   70.31580457
_symmetry_Int_Tables_number   1
_chemical_formula_structural   Ca2Th(Si2O5)4
_chemical_formula_sum   'Ca2 Th1 Si8 O20'
_cell_volume   431.28668459
_cell_formula_units_Z   1
loop_
 _symmetry_equiv_pos_site_id
 _symmetry_equiv_pos_as_xyz
  1  'x, y, z'
loop_
 _atom_site_type_symbol
 _atom_site_label
 _atom_site_symmetry_multiplicity
 _atom_site_fract_x
 _atom_site_fract_y
 _atom_site_fract_z
 _atom_site_occupancy
  Ca  Ca0  1  0.00000000  0.50000000  0.50000000  1
  Ca  Ca1  1  0.50000000  0.00000000  0.50000000  1
  Th  Th0  1  0.00000000  0.00000000  0.00000000  1
  Si  Si0  1  0.81581800  0.40021000  0.92155200  1
  Si  Si1  1  0.47865900  0.89426600  0.07844800  1
  Si  Si2  1  0.40021000  0.47865900  0.58439300  1
  Si  Si3  1  0.18418200  0.10573400  0.58439300  1
  Si  Si4  1  0.59979000  0.18418200  0.07844800  1
  Si  Si5  1  0.10573400  0.52134100  0.92155200  1
  Si  Si6  1  0.52134100  0.59979000  0.41560700  1
  Si  Si7  1  0.89426600  0.81581800  0.41560700  1
  O  O0  1  0.02595800  0.66385200  0.85088600  1
  O  O1  1  0.95596700  0.45596700  0.91193400  1
  O  O2  1  0.97404200  0.82492800  0.63789400  1
  O  O3  1  0.66385200  0.81296600  0.63789400  1
  O  O4  1  0.57886000  0.37964800  0.70614200  1
  O  O5  1  0.33614800  0.97404200  0.14911400  1
  O  O6  1  0.12728100  0.32649300  0.70614200  1
  O  O7  1  0.32649300  0.62035200  0.19921200  1
  O  O8  1  0.81296600  0.17507200  0.14911400  1
  O  O9  1  0.82492800  0.18703400  0.85088600  1
  O  O10  1  0.42114000  0.12728100  0.80078800  1
  O  O11  1  0.54403300  0.04403300  0.08806600  1
  O  O12  1  0.18703400  0.33614800  0.36210600  1
  O  O13  1  0.45596700  0.54403300  0.50000000  1
  O  O14  1  0.17507200  0.02595800  0.36210600  1
  O  O15  1  0.04403300  0.95596700  0.50000000  1
  O  O16  1  0.67350700  0.87271900  0.29385800  1
  O  O17  1  0.62035200  0.42114000  0.29385800  1
  O  O18  1  0.87271900  0.57886000  0.19921200  1
  O  O19  1  0.37964800  0.67350700  0.80078800  1
loop_
_geom_bond_atom_site_label_1
_geom_bond_atom_site_label_2
_geom_bond_distance
_geom_bond_site_symmetry_2
Ca0 O2 2.352662 1_455
Ca0 O0 2.352662 1_555
Ca0 O12 2.352662 1_555
Ca0 O8 2.352662 1_455
Ca0 O17 2.727620 1_455
Ca0 O19 2.727624 1_555
Ca0 O18 2.727624 1_455
Ca0 O6 2.727631 1_555
Ca1 O5 2.352662 1_545
Ca1 O14 2.352662 1_555
Ca1 O9 2.352662 1_555
Ca1 O3 2.352662 1_545
Ca1 O4 2.727620 1_555
Ca1 O7 2.727624 1_545
Ca1 O10 2.727624 1_555
Ca1 O16 2.727631 1_545
O0 Si5 1.603105 1_555
O0 Th0 2.419590 1_566
O1 Si5 1.621507 1_655
O1 Si0 1.621513 1_555
O2 Si7 1.603105 1_555
O2 Th0 2.419590 1_666
O3 Si6 1.603099 1_555
O3 Th0 2.419590 1_666
O4 Si2 1.648751 1_555
O4 Si0 1.660024 1_555
O5 Si1 1.603105 1_555
O5 Th0 2.419590 1_565
O6 Si3 1.648745 1_555
O6 Si5 1.660019 1_555
O7 Si5 1.648744 1_554
O7 Si6 1.660019 1_555
O8 Si4 1.603097 1_555
O8 Th0 2.419590 1_655
O9 Si0 1.603097 1_555
O9 Th0 2.419590 1_656
O10 Si4 1.648745 1_556
O10 Si3 1.660024 1_555
O11 Si1 1.621507 1_545
O11 Si4 1.621513 1_555
O12 Si2 1.603099 1_555
O12 Th0 2.419590 1_555
O13 Si2 1.621515 1_555
O13 Si6 1.621515 1_555
O14 Si3 1.603105 1_555
O14 Th0 2.419590 1_555
O15 Si3 1.621507 1_565
O15 Si7 1.621507 1_455
O16 Si7 1.648745 1_555
O16 Si1 1.660019 1_555
O17 Si6 1.648751 1_555
O17 Si4 1.660024 1_555
O18 Si0 1.648745 1_554
O18 Si7 1.660024 1_555
O19 Si1 1.648744 1_556
O19 Si2 1.660019 1_555
