# generated using pymatgen
data_ErRu2
_symmetry_space_group_name_H-M   'P 1'
_cell_length_a   5.19971513
_cell_length_b   5.19971500
_cell_length_c   8.86948379
_cell_angle_alpha   90.00000000
_cell_angle_beta   90.00000000
_cell_angle_gamma   120.00000075
_symmetry_Int_Tables_number   1
_chemical_formula_structural   ErRu2
_chemical_formula_sum   'Er4 Ru8'
_cell_volume   207.67683876
_cell_formula_units_Z   4
loop_
 _symmetry_equiv_pos_site_id
 _symmetry_equiv_pos_as_xyz
  1  'x, y, z'
loop_
 _atom_site_type_symbol
 _atom_site_label
 _atom_site_symmetry_multiplicity
 _atom_site_fract_x
 _atom_site_fract_y
 _atom_site_fract_z
 _atom_site_occupancy
  Er  Er0  1  0.33333300  0.66666700  0.43272527  1
  Er  Er1  1  0.66666700  0.33333300  0.56727473  1
  Er  Er2  1  0.66666700  0.33333300  0.93272527  1
  Er  Er3  1  0.33333300  0.66666700  0.06727473  1
  Ru  Ru0  1  0.17088569  0.34177338  0.75000000  1
  Ru  Ru1  1  0.17088569  0.82911431  0.75000000  1
  Ru  Ru2  1  0.34177338  0.17088569  0.25000000  1
  Ru  Ru3  1  0.82911431  0.65822662  0.25000000  1
  Ru  Ru4  1  0.65822662  0.82911431  0.75000000  1
  Ru  Ru5  1  0.00000000  0.00000000  -0.00000000  1
  Ru  Ru6  1  0.82911431  0.17088569  0.25000000  1
  Ru  Ru7  1  0.00000000  0.00000000  0.50000000  1
loop_
_geom_bond_atom_site_label_1
_geom_bond_atom_site_label_2
_geom_bond_distance
_geom_bond_site_symmetry_2
Er0 Ru7 3.060779 1_565
Er0 Ru7 3.060784 1_555
Er0 Ru7 3.060784 1_665
Er0 Ru2 3.063864 1_565
Er0 Ru3 3.063864 1_455
Er0 Ru6 3.063870 1_565
Er0 Ru6 3.063871 1_455
Er0 Ru2 3.063877 1_555
Er0 Ru3 3.063877 1_555
Er0 Ru0 3.171654 1_555
Er0 Ru4 3.171654 1_555
Er0 Ru1 3.171656 1_555
Er1 Ru7 3.060779 1_655
Er1 Ru7 3.060784 1_665
Er1 Ru7 3.060784 1_555
Er1 Ru4 3.063864 1_545
Er1 Ru0 3.063864 1_655
Er1 Ru1 3.063870 1_545
Er1 Ru1 3.063871 1_655
Er1 Ru4 3.063877 1_555
Er1 Ru0 3.063877 1_555
Er1 Ru3 3.171654 1_555
Er1 Ru2 3.171654 1_555
Er1 Ru6 3.171656 1_555
Er2 Ru5 3.060779 1_656
Er2 Ru5 3.060784 1_666
Er2 Ru5 3.060784 1_556
Er2 Ru4 3.063864 1_545
Er2 Ru0 3.063864 1_655
Er2 Ru1 3.063870 1_545
Er2 Ru1 3.063871 1_655
Er2 Ru4 3.063877 1_555
Er2 Ru0 3.063877 1_555
Er2 Ru3 3.171654 1_556
Er2 Ru2 3.171654 1_556
Er2 Ru6 3.171656 1_556
Er3 Ru5 3.060779 1_565
Er3 Ru5 3.060784 1_555
Er3 Ru5 3.060784 1_665
Er3 Ru2 3.063864 1_565
Er3 Ru3 3.063864 1_455
Er3 Ru6 3.063870 1_565
Er3 Ru6 3.063871 1_455
Er3 Ru2 3.063877 1_555
Er3 Ru3 3.063877 1_555
Er3 Ru0 3.171654 1_554
Er3 Ru4 3.171654 1_554
Er3 Ru1 3.171656 1_554
Ru0 Ru1 2.534034 1_555
Ru0 Ru4 2.534034 1_555
Ru0 Ru1 2.665681 1_545
Ru0 Ru4 2.665681 1_445
Ru0 Ru7 2.699141 1_555
Ru0 Ru5 2.699141 1_556
Ru1 Ru4 2.534034 1_555
Ru1 Ru4 2.665681 1_455
Ru1 Ru5 2.699136 1_566
Ru1 Ru7 2.699136 1_565
Ru2 Ru3 2.534034 1_555
Ru2 Ru6 2.534034 1_555
Ru2 Ru3 2.665681 1_445
Ru2 Ru6 2.665681 1_455
Ru2 Ru5 2.699141 1_555
Ru2 Ru7 2.699141 1_555
Ru3 Ru6 2.534034 1_555
Ru3 Ru6 2.665681 1_565
Ru3 Ru5 2.699141 1_665
Ru3 Ru7 2.699141 1_665
Ru4 Ru7 2.699141 1_665
Ru4 Ru5 2.699141 1_666
Ru5 Ru6 2.699136 1_455
Ru6 Ru7 2.699136 1_655
