# generated using pymatgen
data_Ag13OsO6
_symmetry_space_group_name_H-M   'P 1'
_cell_length_a   9.48034042
_cell_length_b   9.48034042
_cell_length_c   9.48034042
_cell_angle_alpha   60.00000000
_cell_angle_beta   60.00000000
_cell_angle_gamma   60.00000000
_symmetry_Int_Tables_number   1
_chemical_formula_structural   Ag13OsO6
_chemical_formula_sum   'Ag26 Os2 O12'
_cell_volume   602.49965028
_cell_formula_units_Z   2
loop_
 _symmetry_equiv_pos_site_id
 _symmetry_equiv_pos_as_xyz
  1  'x, y, z'
loop_
 _atom_site_type_symbol
 _atom_site_label
 _atom_site_symmetry_multiplicity
 _atom_site_fract_x
 _atom_site_fract_y
 _atom_site_fract_z
 _atom_site_occupancy
  Ag  Ag0  1  0.00000000  0.00000000  0.00000000  1
  Ag  Ag1  1  0.50000000  0.50000000  0.50000000  1
  Ag  Ag2  1  0.06426300  0.29228500  0.93573700  1
  Ag  Ag3  1  0.79228500  0.56426300  0.43573700  1
  Ag  Ag4  1  0.56426300  0.79228500  0.20771500  1
  Ag  Ag5  1  0.20771500  0.56426300  0.79228500  1
  Ag  Ag6  1  0.79228500  0.43573700  0.20771500  1
  Ag  Ag7  1  0.56426300  0.43573700  0.79228500  1
  Ag  Ag8  1  0.20771500  0.79228500  0.43573700  1
  Ag  Ag9  1  0.93573700  0.06426300  0.29228500  1
  Ag  Ag10  1  0.29228500  0.93573700  0.06426300  1
  Ag  Ag11  1  0.06426300  0.70771500  0.29228500  1
  Ag  Ag12  1  0.06426300  0.93573700  0.70771500  1
  Ag  Ag13  1  0.29228500  0.70771500  0.93573700  1
  Ag  Ag14  1  0.70771500  0.06426300  0.93573700  1
  Ag  Ag15  1  0.70771500  0.29228500  0.06426300  1
  Ag  Ag16  1  0.93573700  0.29228500  0.70771500  1
  Ag  Ag17  1  0.43573700  0.79228500  0.56426300  1
  Ag  Ag18  1  0.43573700  0.20771500  0.79228500  1
  Ag  Ag19  1  0.79228500  0.20771500  0.56426300  1
  Ag  Ag20  1  0.43573700  0.56426300  0.20771500  1
  Ag  Ag21  1  0.20771500  0.43573700  0.56426300  1
  Ag  Ag22  1  0.56426300  0.20771500  0.43573700  1
  Ag  Ag23  1  0.29228500  0.06426300  0.70771500  1
  Ag  Ag24  1  0.93573700  0.70771500  0.06426300  1
  Ag  Ag25  1  0.70771500  0.93573700  0.29228500  1
  Os  Os0  1  0.25000000  0.25000000  0.25000000  1
  Os  Os1  1  0.75000000  0.75000000  0.75000000  1
  O  O0  1  0.10686000  0.39314000  0.10686000  1
  O  O1  1  0.10686000  0.39314000  0.39314000  1
  O  O2  1  0.39314000  0.10686000  0.10686000  1
  O  O3  1  0.39314000  0.39314000  0.10686000  1
  O  O4  1  0.10686000  0.10686000  0.39314000  1
  O  O5  1  0.39314000  0.10686000  0.39314000  1
  O  O6  1  0.89314000  0.60686000  0.89314000  1
  O  O7  1  0.89314000  0.60686000  0.60686000  1
  O  O8  1  0.60686000  0.89314000  0.89314000  1
  O  O9  1  0.60686000  0.60686000  0.89314000  1
  O  O10  1  0.89314000  0.89314000  0.60686000  1
  O  O11  1  0.60686000  0.89314000  0.60686000  1
loop_
_geom_bond_atom_site_label_1
_geom_bond_atom_site_label_2
_geom_bond_distance
_geom_bond_site_symmetry_2
Ag0 Ag16 2.837145 1_454
Ag0 Ag2 2.837145 1_554
Ag0 Ag9 2.837145 1_455
Ag0 Ag13 2.837145 1_544
Ag0 Ag14 2.837145 1_454
Ag0 Ag10 2.837145 1_545
Ag0 Ag24 2.837145 1_445
Ag0 Ag15 2.837145 1_455
Ag0 Ag12 2.837145 1_544
Ag0 Ag11 2.837145 1_545
Ag0 Ag23 2.837145 1_554
Ag0 Ag25 2.837145 1_445
Ag1 Ag22 2.837145 1_555
Ag1 Ag6 2.837145 1_555
Ag1 Ag3 2.837145 1_555
Ag1 Ag7 2.837145 1_555
Ag1 Ag4 2.837145 1_555
Ag1 Ag20 2.837145 1_555
Ag1 Ag8 2.837145 1_555
Ag1 Ag17 2.837145 1_555
Ag1 Ag18 2.837145 1_555
Ag1 Ag19 2.837145 1_555
Ag1 Ag5 2.837145 1_555
Ag1 Ag21 2.837145 1_555
Ag2 O0 2.510293 1_556
Ag2 O6 2.510293 1_455
Ag3 O1 2.510293 1_655
Ag3 O7 2.510293 1_555
Ag4 O8 2.510293 1_554
Ag4 O2 2.510293 1_565
Ag5 O6 2.510293 1_455
Ag5 O0 2.510293 1_556
Ag6 O0 2.510293 1_655
Ag6 O6 2.510293 1_554
Ag7 O3 2.510293 1_556
Ag7 O9 2.510293 1_555
Ag8 O4 2.510293 1_565
Ag8 O10 2.510293 1_455
Ag9 O4 2.510293 1_655
Ag9 O10 2.510293 1_545
Ag10 O2 2.510293 1_565
Ag10 O8 2.510293 1_554
Ag11 O1 2.510293 1_555
Ag11 O7 2.510293 1_455
Ag12 O4 2.510293 1_565
Ag12 O10 2.510293 1_455
Ag13 O9 2.510293 1_555
Ag13 O3 2.510293 1_556
Ag14 O8 2.510293 1_545
Ag14 O2 2.510293 1_556
Ag15 O3 2.510293 1_555
Ag15 O9 2.510293 1_554
Ag16 O7 2.510293 1_555
Ag16 O1 2.510293 1_655
Ag17 O5 2.510293 1_565
Ag17 O11 2.510293 1_555
Ag18 O8 2.510293 1_545
Ag18 O2 2.510293 1_556
Ag19 O4 2.510293 1_655
Ag19 O10 2.510293 1_545
Ag20 O9 2.510293 1_554
Ag20 O3 2.510293 1_555
Ag21 O7 2.510293 1_455
Ag21 O1 2.510293 1_555
Ag22 O11 2.510293 1_545
Ag22 O5 2.510293 1_555
Ag23 O11 2.510293 1_545
Ag23 O5 2.510293 1_555
Ag24 O0 2.510293 1_655
Ag24 O6 2.510293 1_554
Ag25 O11 2.510293 1_555
Ag25 O5 2.510293 1_565
O0 Os0 1.919110 1_555
O1 Os0 1.919110 1_555
O2 Os0 1.919110 1_555
O3 Os0 1.919110 1_555
O4 Os0 1.919110 1_555
O5 Os0 1.919110 1_555
O6 Os1 1.919110 1_555
O7 Os1 1.919110 1_555
O8 Os1 1.919110 1_555
O9 Os1 1.919110 1_555
O10 Os1 1.919110 1_555
O11 Os1 1.919110 1_555
