# generated using pymatgen
data_Pu(IO3)4
_symmetry_space_group_name_H-M   'P 1'
_cell_length_a   9.86175357
_cell_length_b   9.86175357
_cell_length_c   5.31641265
_cell_angle_alpha   90.00000000
_cell_angle_beta   90.00000000
_cell_angle_gamma   90.00000000
_symmetry_Int_Tables_number   1
_chemical_formula_structural   Pu(IO3)4
_chemical_formula_sum   'Pu2 I8 O24'
_cell_volume   517.04337083
_cell_formula_units_Z   2
loop_
 _symmetry_equiv_pos_site_id
 _symmetry_equiv_pos_as_xyz
  1  'x, y, z'
loop_
 _atom_site_type_symbol
 _atom_site_label
 _atom_site_symmetry_multiplicity
 _atom_site_fract_x
 _atom_site_fract_y
 _atom_site_fract_z
 _atom_site_occupancy
  Pu  Pu0  1  0.50000000  0.50000000  -0.00000000  1
  Pu  Pu1  1  0.00000000  0.00000000  0.50000000  1
  I  I0  1  -0.00029284  0.27634331  0.96967418  1
  I  I1  1  0.49970716  0.77634331  0.53032582  1
  I  I2  1  0.50029284  0.22365669  0.53032582  1
  I  I3  1  0.27634331  0.00029284  0.03032582  1
  I  I4  1  0.22365669  0.49970716  0.46967418  1
  I  I5  1  0.72365669  -0.00029284  0.03032582  1
  I  I6  1  0.77634331  0.50029284  0.46967418  1
  I  I7  1  0.00029284  0.72365669  0.96967418  1
  O  O0  1  0.58035969  0.69200998  0.79561409  1
  O  O1  1  0.69200998  0.41964031  0.20438591  1
  O  O2  1  0.90939402  0.37789821  0.50436524  1
  O  O3  1  0.57310034  0.65590733  0.30435442  1
  O  O4  1  0.34409267  0.57310034  0.69564558  1
  O  O5  1  0.19200998  0.91964031  0.29561409  1
  O  O6  1  0.15590733  0.92689966  0.80435442  1
  O  O7  1  0.30799002  0.58035969  0.20438591  1
  O  O8  1  0.80799002  0.08035969  0.29561409  1
  O  O9  1  0.65590733  0.42689966  0.69564558  1
  O  O10  1  0.59060598  0.12210179  0.99563476  1
  O  O11  1  0.09060598  0.62210179  0.50436524  1
  O  O12  1  0.37789821  0.09060598  0.49563476  1
  O  O13  1  0.91964031  0.80799002  0.70438591  1
  O  O14  1  0.08035969  0.19200998  0.70438591  1
  O  O15  1  0.62210179  0.90939402  0.49563476  1
  O  O16  1  0.07310034  0.15590733  0.19564558  1
  O  O17  1  0.42689966  0.34409267  0.30435442  1
  O  O18  1  0.12210179  0.40939402  0.00436524  1
  O  O19  1  0.87789821  0.59060598  0.00436524  1
  O  O20  1  0.40939402  0.87789821  0.99563476  1
  O  O21  1  0.92689966  0.84409267  0.19564558  1
  O  O22  1  0.41964031  0.30799002  0.79561409  1
  O  O23  1  0.84409267  0.07310034  0.80435442  1
loop_
_geom_bond_atom_site_label_1
_geom_bond_atom_site_label_2
_geom_bond_distance
_geom_bond_site_symmetry_2
I0 O18 1.792364 1_556
I0 O14 1.820297 1_555
I0 O16 1.837874 1_556
I1 O15 1.792364 1_555
I1 O0 1.820297 1_555
I1 O3 1.837874 1_555
I2 O12 1.792364 1_555
I2 O22 1.820297 1_555
I2 O17 1.837874 1_555
I3 O20 1.792364 1_544
I3 O5 1.820297 1_545
I3 O6 1.837874 1_544
I4 O11 1.792364 1_555
I4 O7 1.820297 1_555
I4 O4 1.837874 1_555
I5 O10 1.792364 1_554
I5 O8 1.820297 1_555
I5 O23 1.837874 1_554
I6 O2 1.792364 1_555
I6 O1 1.820297 1_555
I6 O9 1.837874 1_555
I7 O19 1.792364 1_456
I7 O13 1.820297 1_455
I7 O21 1.837874 1_456
O0 Pu0 2.322560 1_556
O1 Pu0 2.322560 1_555
O3 Pu0 2.345596 1_555
O4 Pu0 2.345596 1_556
O5 Pu1 2.322560 1_565
O6 Pu1 2.345596 1_565
O7 Pu0 2.322560 1_555
O8 Pu1 2.322560 1_655
O9 Pu0 2.345596 1_556
O13 Pu1 2.322560 1_665
O14 Pu1 2.322560 1_555
O16 Pu1 2.345596 1_555
O17 Pu0 2.345596 1_555
O21 Pu1 2.345596 1_665
O22 Pu0 2.322560 1_556
O23 Pu1 2.345596 1_655
