# generated using pymatgen
data_Cs4KLiFe2F12
_symmetry_space_group_name_H-M   'P 1'
_cell_length_a   10.87786325
_cell_length_b   10.87786325
_cell_length_c   10.87786308
_cell_angle_alpha   33.80485882
_cell_angle_beta   33.80485882
_cell_angle_gamma   33.80486179
_symmetry_Int_Tables_number   1
_chemical_formula_structural   Cs4KLiFe2F12
_chemical_formula_sum   'Cs4 K1 Li1 Fe2 F12'
_cell_volume   355.03602182
_cell_formula_units_Z   1
loop_
 _symmetry_equiv_pos_site_id
 _symmetry_equiv_pos_as_xyz
  1  'x, y, z'
loop_
 _atom_site_type_symbol
 _atom_site_label
 _atom_site_symmetry_multiplicity
 _atom_site_fract_x
 _atom_site_fract_y
 _atom_site_fract_z
 _atom_site_occupancy
  Cs  Cs0  1  0.28519117  0.28519117  0.28519117  1
  Cs  Cs1  1  0.71480883  0.71480883  0.71480883  1
  Cs  Cs2  1  0.86674315  0.86674315  0.86674315  1
  Cs  Cs3  1  0.13325685  0.13325685  0.13325685  1
  K  K0  1  0.00000000  -0.00000000  -0.00000000  1
  Li  Li0  1  0.50000000  0.50000000  0.50000000  1
  Fe  Fe0  1  0.41601464  0.41601464  0.41601464  1
  Fe  Fe1  1  0.58398536  0.58398536  0.58398536  1
  F  F0  1  0.32640807  0.76438677  0.76438677  1
  F  F1  1  0.23561323  0.67359193  0.23561323  1
  F  F2  1  0.76438677  0.32640807  0.76438677  1
  F  F3  1  0.76438677  0.76438677  0.32640807  1
  F  F4  1  0.23561323  0.23561323  0.67359193  1
  F  F5  1  0.67359193  0.23561323  0.23561323  1
  F  F6  1  0.40446744  0.40446744  0.82069799  1
  F  F7  1  0.17930201  0.59553256  0.59553256  1
  F  F8  1  0.59553256  0.59553256  0.17930201  1
  F  F9  1  0.59553256  0.17930201  0.59553256  1
  F  F10  1  0.40446744  0.82069799  0.40446744  1
  F  F11  1  0.82069799  0.40446744  0.40446744  1
loop_
_geom_bond_atom_site_label_1
_geom_bond_atom_site_label_2
_geom_bond_distance
_geom_bond_site_symmetry_2
Cs0 F6 3.147164 1_554
Cs0 F10 3.147165 1_545
Cs0 F11 3.147165 1_455
Cs0 F2 3.170763 1_554
Cs0 F0 3.170763 1_554
Cs0 F0 3.170763 1_545
Cs0 F2 3.170763 1_455
Cs0 F3 3.170763 1_545
Cs0 F3 3.170763 1_455
Cs0 F4 3.367809 1_555
Cs0 F1 3.367809 1_555
Cs0 F5 3.367809 1_555
Cs1 F8 3.147164 1_556
Cs1 F7 3.147165 1_655
Cs1 F9 3.147165 1_565
Cs1 F1 3.170763 1_556
Cs1 F5 3.170763 1_556
Cs1 F1 3.170763 1_655
Cs1 F5 3.170763 1_565
Cs1 F4 3.170763 1_655
Cs1 F4 3.170763 1_565
Cs1 F3 3.367809 1_555
Cs1 F0 3.367809 1_555
Cs1 F2 3.367809 1_555
Cs2 F8 3.176841 1_556
Cs2 F7 3.176841 1_655
Cs2 F9 3.176841 1_565
Cs2 F11 3.191673 1_556
Cs2 F10 3.191673 1_556
Cs2 F11 3.191673 1_565
Cs2 F10 3.191673 1_655
Cs2 F6 3.191673 1_565
Cs2 F6 3.191673 1_655
Cs2 F3 3.322212 1_556
Cs2 F0 3.322212 1_655
Cs2 F2 3.322212 1_565
Cs3 F6 3.176841 1_554
Cs3 F10 3.176841 1_545
Cs3 F11 3.176841 1_455
Cs3 F7 3.191673 1_554
Cs3 F9 3.191673 1_554
Cs3 F7 3.191673 1_545
Cs3 F9 3.191673 1_455
Cs3 F8 3.191673 1_545
Cs3 F8 3.191673 1_455
Cs3 F4 3.322212 1_554
Cs3 F1 3.322212 1_545
Cs3 F5 3.322212 1_455
F0 Fe1 1.917557 1_555
F0 K0 2.532688 1_566
F1 Fe0 1.917557 1_555
F1 K0 2.532688 1_565
F2 Fe1 1.917557 1_555
F2 K0 2.532688 1_656
F3 Fe1 1.917557 1_555
F3 K0 2.532688 1_665
F4 Fe0 1.917557 1_555
F4 K0 2.532688 1_556
F5 Fe0 1.917557 1_555
F5 K0 2.532688 1_655
F6 Fe1 1.970155 1_555
F6 Li0 2.018632 1_555
F7 Fe0 1.970155 1_555
F7 Li0 2.018632 1_555
F8 Fe0 1.970155 1_555
F8 Li0 2.018632 1_555
F9 Fe0 1.970155 1_555
F9 Li0 2.018632 1_555
F10 Fe1 1.970155 1_555
F10 Li0 2.018632 1_555
F11 Fe1 1.970155 1_555
F11 Li0 2.018632 1_555
