# generated using pymatgen
data_Nd3Co11B4
_symmetry_space_group_name_H-M   'P 1'
_cell_length_a   5.13145665
_cell_length_b   5.13145665
_cell_length_c   9.73408200
_cell_angle_alpha   90.00000000
_cell_angle_beta   90.00000000
_cell_angle_gamma   120.00000833
_symmetry_Int_Tables_number   1
_chemical_formula_structural   Nd3Co11B4
_chemical_formula_sum   'Nd3 Co11 B4'
_cell_volume   221.97646132
_cell_formula_units_Z   1
loop_
 _symmetry_equiv_pos_site_id
 _symmetry_equiv_pos_as_xyz
  1  'x, y, z'
loop_
 _atom_site_type_symbol
 _atom_site_label
 _atom_site_symmetry_multiplicity
 _atom_site_fract_x
 _atom_site_fract_y
 _atom_site_fract_z
 _atom_site_occupancy
  Nd  Nd0  1  0.00000000  0.00000000  0.65899600  1
  Nd  Nd1  1  0.00000000  0.00000000  0.34100400  1
  Nd  Nd2  1  0.00000000  0.00000000  0.00000000  1
  Co  Co0  1  0.50000000  0.50000000  0.50000000  1
  Co  Co1  1  0.00000000  0.50000000  0.50000000  1
  Co  Co2  1  0.50000000  0.00000000  0.20427800  1
  Co  Co3  1  0.50000000  0.50000000  0.20427800  1
  Co  Co4  1  0.00000000  0.50000000  0.20427800  1
  Co  Co5  1  0.50000000  0.00000000  0.79572200  1
  Co  Co6  1  0.50000000  0.50000000  0.79572200  1
  Co  Co7  1  0.00000000  0.50000000  0.79572200  1
  Co  Co8  1  0.33333300  0.66666700  0.00000000  1
  Co  Co9  1  0.66666700  0.33333300  0.00000000  1
  Co  Co10  1  0.50000000  0.00000000  0.50000000  1
  B  B0  1  0.33333300  0.66666700  0.65004600  1
  B  B1  1  0.66666700  0.33333300  0.65004600  1
  B  B2  1  0.66666700  0.33333300  0.34995400  1
  B  B3  1  0.33333300  0.66666700  0.34995400  1
loop_
_geom_bond_atom_site_label_1
_geom_bond_atom_site_label_2
_geom_bond_distance
_geom_bond_site_symmetry_2
Nd0 Nd1 3.095360 1_555
Nd0 Nd2 3.319361 1_556
Nd1 Nd2 3.319361 1_555
Co0 Nd0 2.996377 1_665
Co0 Nd0 2.996377 1_555
Co0 Nd1 2.996377 1_555
Co0 Nd1 2.996377 1_665
Co1 Nd0 2.996377 1_555
Co1 Nd0 2.996377 1_565
Co1 Nd1 2.996377 1_565
Co1 Nd1 2.996377 1_555
Co2 Co8 2.479573 1_545
Co2 Co9 2.479573 1_555
Co2 Nd1 2.890374 1_655
Co2 Nd1 2.890374 1_555
Co3 Co8 2.479576 1_555
Co3 Co9 2.479576 1_555
Co3 Nd1 2.890374 1_555
Co3 Nd1 2.890374 1_665
Co4 Co8 2.479573 1_555
Co4 Co9 2.479573 1_455
Co4 Nd1 2.890374 1_555
Co4 Nd1 2.890374 1_565
Co5 Co8 2.479573 1_546
Co5 Co9 2.479573 1_556
Co5 Nd0 2.890374 1_655
Co5 Nd0 2.890374 1_555
Co6 Co8 2.479576 1_556
Co6 Co9 2.479576 1_556
Co6 Nd0 2.890374 1_555
Co6 Nd0 2.890374 1_665
Co7 Co9 2.479573 1_456
Co7 Co8 2.479573 1_556
Co7 Nd0 2.890374 1_555
Co7 Nd0 2.890374 1_565
Co8 Nd2 2.962645 1_565
Co8 Nd2 2.962649 1_665
Co8 Nd2 2.962649 1_555
Co9 Nd2 2.962645 1_655
Co9 Nd2 2.962649 1_555
Co9 Nd2 2.962649 1_665
Co10 Nd0 2.996377 1_555
Co10 Nd0 2.996377 1_655
Co10 Nd1 2.996377 1_655
Co10 Nd1 2.996377 1_555
B0 Co7 2.050635 1_555
B0 Co5 2.050635 1_565
B0 Co6 2.050638 1_555
B0 Co10 2.080277 1_565
B0 Co1 2.080277 1_555
B0 Co0 2.080280 1_555
B0 Nd0 2.963926 1_565
B0 Nd0 2.963930 1_665
B0 Nd0 2.963930 1_555
B1 Co7 2.050635 1_655
B1 Co5 2.050635 1_555
B1 Co6 2.050638 1_555
B1 Co1 2.080277 1_655
B1 Co10 2.080277 1_555
B1 Co0 2.080280 1_555
B1 Nd0 2.963926 1_655
B1 Nd0 2.963930 1_665
B1 Nd0 2.963930 1_555
B2 Co2 2.050635 1_555
B2 Co4 2.050635 1_655
B2 Co3 2.050638 1_555
B2 Co1 2.080277 1_655
B2 Co10 2.080277 1_555
B2 Co0 2.080280 1_555
B2 Nd1 2.963926 1_655
B2 Nd1 2.963930 1_555
B2 Nd1 2.963930 1_665
B3 Co4 2.050635 1_555
B3 Co2 2.050635 1_565
B3 Co3 2.050638 1_555
B3 Co10 2.080277 1_565
B3 Co1 2.080277 1_555
B3 Co0 2.080280 1_555
B3 Nd1 2.963926 1_565
B3 Nd1 2.963930 1_665
B3 Nd1 2.963930 1_555
