# generated using pymatgen
data_Ho3ReO7
_symmetry_space_group_name_H-M   'P 1'
_cell_length_a   6.45206493
_cell_length_b   6.45206493
_cell_length_c   7.39104700
_cell_angle_alpha   90.00000000
_cell_angle_beta   90.00000000
_cell_angle_gamma   108.69529912
_symmetry_Int_Tables_number   1
_chemical_formula_structural   Ho3ReO7
_chemical_formula_sum   'Ho6 Re2 O14'
_cell_volume   291.44853942
_cell_formula_units_Z   2
loop_
 _symmetry_equiv_pos_site_id
 _symmetry_equiv_pos_as_xyz
  1  'x, y, z'
loop_
 _atom_site_type_symbol
 _atom_site_label
 _atom_site_symmetry_multiplicity
 _atom_site_fract_x
 _atom_site_fract_y
 _atom_site_fract_z
 _atom_site_occupancy
  Ho  Ho0  1  0.46509800  0.46509800  0.00000000  1
  Ho  Ho1  1  0.46522300  0.99965700  0.25675800  1
  Ho  Ho2  1  0.53477700  0.00034300  0.75675800  1
  Ho  Ho3  1  0.00034300  0.53477700  0.24324200  1
  Ho  Ho4  1  0.53490200  0.53490200  0.50000000  1
  Ho  Ho5  1  0.99965700  0.46522300  0.74324200  1
  Re  Re0  1  0.99874100  0.99874100  0.00000000  1
  Re  Re1  1  0.00125900  0.00125900  0.50000000  1
  O  O0  1  0.05372600  0.30997900  0.46196900  1
  O  O1  1  0.07265400  0.92734600  0.25000000  1
  O  O2  1  0.63037900  0.36962100  0.25000000  1
  O  O3  1  0.30997900  0.05372600  0.53803100  1
  O  O4  1  0.91795800  0.67321500  0.52446300  1
  O  O5  1  0.92734600  0.07265400  0.75000000  1
  O  O6  1  0.67321500  0.91795800  0.47553700  1
  O  O7  1  0.36225400  0.63774600  0.25000000  1
  O  O8  1  0.69002100  0.94627400  0.03803100  1
  O  O9  1  0.63774600  0.36225400  0.75000000  1
  O  O10  1  0.08204200  0.32678500  0.02446300  1
  O  O11  1  0.94627400  0.69002100  0.96196900  1
  O  O12  1  0.36962100  0.63037900  0.75000000  1
  O  O13  1  0.32678500  0.08204200  0.97553700  1
loop_
_geom_bond_atom_site_label_1
_geom_bond_atom_site_label_2
_geom_bond_distance
_geom_bond_site_symmetry_2
Ho0 O2 2.313453 1_555
Ho0 O12 2.313453 1_554
Ho0 O10 2.350206 1_555
Ho0 O13 2.350206 1_554
Ho0 O7 2.359923 1_555
Ho0 O9 2.359923 1_554
Ho1 O7 2.214029 1_555
Ho1 O6 2.268692 1_555
Ho1 O8 2.270693 1_555
Ho1 O2 2.281508 1_565
Ho1 O3 2.381352 1_565
Ho1 O13 2.388511 1_564
Ho1 O1 2.424476 1_555
Ho2 O9 2.214029 1_555
Ho2 O13 2.268692 1_555
Ho2 O3 2.270693 1_555
Ho2 O12 2.281508 1_545
Ho2 O8 2.381352 1_546
Ho2 O6 2.388511 1_545
Ho2 O5 2.424476 1_555
Ho3 O7 2.214029 1_555
Ho3 O10 2.268692 1_555
Ho3 O0 2.270693 1_555
Ho3 O2 2.281508 1_455
Ho3 O11 2.381352 1_454
Ho3 O4 2.388511 1_455
Ho3 O1 2.424476 1_555
Ho4 O12 2.313453 1_555
Ho4 O2 2.313453 1_555
Ho4 O6 2.350206 1_555
Ho4 O4 2.350206 1_555
Ho4 O7 2.359923 1_555
Ho4 O9 2.359923 1_555
Ho5 O9 2.214029 1_555
Ho5 O4 2.268692 1_555
Ho5 O11 2.270693 1_555
Ho5 O12 2.281508 1_655
Ho5 O0 2.381352 1_655
Ho5 O10 2.388511 1_656
Ho5 O5 2.424476 1_555
O0 Re1 1.931044 1_555
O1 Re1 1.998668 1_565
O1 Re0 1.998668 1_455
O3 Re1 1.931044 1_555
O4 Re1 2.017950 1_665
O5 Re1 1.998668 1_655
O5 Re0 1.998668 1_546
O6 Re1 2.017950 1_665
O8 Re0 1.931044 1_555
O10 Re0 2.017950 1_445
O11 Re0 1.931044 1_556
O13 Re0 2.017950 1_446
