# generated using pymatgen
data_GdPH5CO7
_symmetry_space_group_name_H-M   'P 1'
_cell_length_a   6.60790300
_cell_length_b   7.00049530
_cell_length_c   7.83768552
_cell_angle_alpha   111.67062822
_cell_angle_beta   96.28162075
_cell_angle_gamma   90.37917578
_symmetry_Int_Tables_number   1
_chemical_formula_structural   GdPH5CO7
_chemical_formula_sum   'Gd2 P2 H10 C2 O14'
_cell_volume   334.47815955
_cell_formula_units_Z   2
loop_
 _symmetry_equiv_pos_site_id
 _symmetry_equiv_pos_as_xyz
  1  'x, y, z'
loop_
 _atom_site_type_symbol
 _atom_site_label
 _atom_site_symmetry_multiplicity
 _atom_site_fract_x
 _atom_site_fract_y
 _atom_site_fract_z
 _atom_site_occupancy
  Gd  Gd0  1  0.12706500  0.22160000  0.93381900  1
  Gd  Gd1  1  0.87293500  0.77840000  0.06618100  1
  P  P0  1  0.67316500  0.25102400  0.01899200  1
  P  P1  1  0.32683500  0.74897600  0.98100800  1
  H  H0  1  0.48325300  0.88091100  0.59194900  1
  H  H1  1  0.71960200  0.67251900  0.64771500  1
  H  H2  1  0.52461000  0.74173800  0.39335400  1
  H  H3  1  0.51674700  0.11908900  0.40805100  1
  H  H4  1  0.28039800  0.32748100  0.35228500  1
  H  H5  1  0.83505100  0.47853000  0.67790700  1
  H  H6  1  0.47539000  0.25826200  0.60664600  1
  H  H7  1  0.62766500  0.29234600  0.19994000  1
  H  H8  1  0.16494900  0.52147000  0.32209300  1
  H  H9  1  0.37233500  0.70765400  0.80006000  1
  C  C0  1  0.94011900  0.09316900  0.49772700  1
  C  C1  1  0.05988100  0.90683100  0.50227300  1
  O  O0  1  0.15471700  0.91953000  0.65495800  1
  O  O1  1  0.58763200  0.79965800  0.52185700  1
  O  O2  1  0.80304900  0.05766600  0.96230700  1
  O  O3  1  0.41236800  0.20034200  0.47814300  1
  O  O4  1  0.18114300  0.57219300  0.97519300  1
  O  O5  1  0.21492900  0.38193200  0.26021300  1
  O  O6  1  0.81885700  0.42780700  0.02480700  1
  O  O7  1  0.05348300  0.75447300  0.34960100  1
  O  O8  1  0.47187400  0.22345000  0.89418100  1
  O  O9  1  0.52812600  0.77655000  0.10581900  1
  O  O10  1  0.19695100  0.94233400  0.03769300  1
  O  O11  1  0.78507100  0.61806800  0.73978700  1
  O  O12  1  0.94651700  0.24552700  0.65039900  1
  O  O13  1  0.84528300  0.08047000  0.34504200  1
loop_
_geom_bond_atom_site_label_1
_geom_bond_atom_site_label_2
_geom_bond_distance
_geom_bond_site_symmetry_2
Gd0 O8 2.333573 1_555
Gd0 O4 2.373142 1_555
Gd0 O5 2.384725 1_556
Gd0 O10 2.408994 1_546
Gd0 O0 2.441548 1_545
Gd0 O12 2.466442 1_455
Gd0 O2 2.492466 1_455
Gd0 O6 2.517265 1_456
Gd1 O9 2.333573 1_555
Gd1 O6 2.373142 1_555
Gd1 O11 2.384725 1_554
Gd1 O2 2.408994 1_564
Gd1 O13 2.441548 1_565
Gd1 O7 2.466442 1_655
Gd1 O10 2.492466 1_655
Gd1 O4 2.517265 1_654
H0 O1 0.978975 1_555
H1 O11 0.995101 1_555
H2 O1 0.978056 1_555
H3 O3 0.978975 1_555
H4 O5 0.995101 1_555
H5 O11 0.993947 1_555
H6 O3 0.978056 1_555
H7 P0 1.406015 1_555
H8 O5 0.993947 1_555
H9 P1 1.406015 1_555
C0 O13 1.260668 1_555
C0 O12 1.271606 1_555
C1 O0 1.260668 1_555
C1 O7 1.271606 1_555
O2 P0 1.555927 1_556
O4 P1 1.547079 1_555
O6 P0 1.547079 1_555
O8 P0 1.528333 1_556
O9 P1 1.528333 1_554
O10 P1 1.555927 1_554
