# generated using pymatgen
data_Pr3SbO7
_symmetry_space_group_name_H-M   'P 1'
_cell_length_a   6.69297289
_cell_length_b   6.69297289
_cell_length_c   7.70826692
_cell_angle_alpha   90.00000000
_cell_angle_beta   90.00000000
_cell_angle_gamma   110.96555304
_symmetry_Int_Tables_number   1
_chemical_formula_structural   Pr3SbO7
_chemical_formula_sum   'Pr6 Sb2 O14'
_cell_volume   322.43839662
_cell_formula_units_Z   2
loop_
 _symmetry_equiv_pos_site_id
 _symmetry_equiv_pos_as_xyz
  1  'x, y, z'
loop_
 _atom_site_type_symbol
 _atom_site_label
 _atom_site_symmetry_multiplicity
 _atom_site_fract_x
 _atom_site_fract_y
 _atom_site_fract_z
 _atom_site_occupancy
  Pr  Pr0  1  0.47879993  0.93149372  0.75000000  1
  Pr  Pr1  1  0.52120007  0.06850628  0.25000000  1
  Pr  Pr2  1  0.93149372  0.47879993  0.75000000  1
  Pr  Pr3  1  0.06850628  0.52120007  0.25000000  1
  Pr  Pr4  1  0.00000000  0.00000000  0.50000000  1
  Pr  Pr5  1  0.00000000  0.00000000  0.00000000  1
  Sb  Sb0  1  0.50000000  0.50000000  0.50000000  1
  Sb  Sb1  1  0.50000000  0.50000000  0.00000000  1
  O  O0  1  0.57784893  0.57784893  0.75000000  1
  O  O1  1  0.42215107  0.42215107  0.25000000  1
  O  O2  1  0.84724669  0.11018865  0.75000000  1
  O  O3  1  0.15275331  0.88981135  0.25000000  1
  O  O4  1  0.11018865  0.84724669  0.75000000  1
  O  O5  1  0.88981135  0.15275331  0.25000000  1
  O  O6  1  0.44049221  0.19015575  0.96556181  1
  O  O7  1  0.55950779  0.80984425  0.46556181  1
  O  O8  1  0.19015575  0.44049221  0.96556181  1
  O  O9  1  0.80984425  0.55950779  0.46556181  1
  O  O10  1  0.44049221  0.19015575  0.53443819  1
  O  O11  1  0.55950779  0.80984425  0.03443819  1
  O  O12  1  0.80984425  0.55950779  0.03443819  1
  O  O13  1  0.19015575  0.44049221  0.53443819  1
loop_
_geom_bond_atom_site_label_1
_geom_bond_atom_site_label_2
_geom_bond_distance
_geom_bond_site_symmetry_2
O0 Sb0 2.015509 1_555
O0 Sb1 2.015509 1_556
O0 Pr2 2.676704 1_555
O0 Pr0 2.676704 1_555
O1 Sb1 2.015509 1_555
O1 Sb0 2.015509 1_555
O1 Pr1 2.676704 1_555
O1 Pr3 2.676704 1_555
O2 Pr0 2.324006 1_545
O2 Pr2 2.325737 1_555
O2 Pr4 2.417083 1_655
O2 Pr5 2.417083 1_656
O3 Pr1 2.324006 1_565
O3 Pr3 2.325737 1_555
O3 Pr4 2.417083 1_565
O3 Pr5 2.417083 1_565
O4 Pr2 2.324006 1_455
O4 Pr0 2.325737 1_555
O4 Pr4 2.417083 1_565
O4 Pr5 2.417083 1_566
O5 Pr3 2.324006 1_655
O5 Pr1 2.325737 1_555
O5 Pr5 2.417083 1_655
O5 Pr4 2.417083 1_655
O6 Sb1 1.984590 1_556
O6 Pr1 2.465077 1_556
O6 Pr0 2.478192 1_545
O6 Pr5 2.774352 1_556
O7 Sb0 1.984590 1_555
O7 Pr0 2.465077 1_555
O7 Pr1 2.478192 1_565
O7 Pr4 2.774352 1_665
O8 Sb1 1.984590 1_556
O8 Pr3 2.465077 1_556
O8 Pr2 2.478192 1_455
O8 Pr5 2.774352 1_556
O9 Sb0 1.984590 1_555
O9 Pr2 2.465077 1_555
O9 Pr3 2.478192 1_655
O9 Pr4 2.774352 1_665
O10 Sb0 1.984590 1_555
O10 Pr1 2.465077 1_555
O10 Pr0 2.478192 1_545
O10 Pr4 2.774352 1_555
O11 Sb1 1.984590 1_555
O11 Pr0 2.465077 1_554
O11 Pr1 2.478192 1_565
O11 Pr5 2.774352 1_665
O12 Sb1 1.984590 1_555
O12 Pr2 2.465077 1_554
O12 Pr3 2.478192 1_655
O12 Pr5 2.774352 1_665
O13 Sb0 1.984590 1_555
O13 Pr3 2.465077 1_555
O13 Pr2 2.478192 1_455
O13 Pr4 2.774352 1_555
