# generated using pymatgen
data_Li2Ga2GeS6
_symmetry_space_group_name_H-M   'P 1'
_cell_length_a   13.06574094
_cell_length_b   12.02294295
_cell_length_c   7.06313358
_cell_angle_alpha   81.96989602
_cell_angle_beta   65.66695042
_cell_angle_gamma   32.36315356
_symmetry_Int_Tables_number   1
_chemical_formula_structural   Li2Ga2GeS6
_chemical_formula_sum   'Li4 Ga4 Ge2 S12'
_cell_volume   489.29861988
_cell_formula_units_Z   2
loop_
 _symmetry_equiv_pos_site_id
 _symmetry_equiv_pos_as_xyz
  1  'x, y, z'
loop_
 _atom_site_type_symbol
 _atom_site_label
 _atom_site_symmetry_multiplicity
 _atom_site_fract_x
 _atom_site_fract_y
 _atom_site_fract_z
 _atom_site_occupancy
  Li  Li0  1  0.10823500  0.98789400  0.22452200  1
  Li  Li1  1  0.67934900  0.22452200  0.98789400  1
  Li  Li2  1  0.26210600  0.14176500  0.57065100  1
  Li  Li3  1  0.02547800  0.57065100  0.14176500  1
  Ga  Ga0  1  0.71910800  0.55058200  0.55018000  1
  Ga  Ga1  1  0.18013100  0.55018000  0.55058200  1
  Ga  Ga2  1  0.69941800  0.53089200  0.06986900  1
  Ga  Ga3  1  0.69982000  0.06986900  0.53089200  1
  Ge  Ge0  1  0.65932100  0.84067900  0.84067900  1
  Ge  Ge1  1  0.40932100  0.59067900  0.59067900  1
  S  S0  1  0.45047600  0.90167900  0.15473400  1
  S  S1  1  0.66427000  0.79181100  0.53563800  1
  S  S2  1  0.09526600  0.75688900  0.79952400  1
  S  S3  1  0.45818900  0.58573000  0.24171900  1
  S  S4  1  0.49311100  0.15473400  0.90167900  1
  S  S5  1  0.94461200  0.31821600  0.18018600  1
  S  S6  1  0.00828100  0.53563800  0.79181100  1
  S  S7  1  0.34832100  0.79952400  0.75688900  1
  S  S8  1  0.71436200  0.24171900  0.58573000  1
  S  S9  1  0.93178400  0.30538800  0.69301400  1
  S  S10  1  0.55698600  0.18018600  0.31821600  1
  S  S11  1  0.06981400  0.69301400  0.30538800  1
loop_
_geom_bond_atom_site_label_1
_geom_bond_atom_site_label_2
_geom_bond_distance
_geom_bond_site_symmetry_2
Li0 S5 2.510362 1_465
Li0 S8 2.670263 1_465
Li0 S3 2.691752 1_555
Li0 S7 2.725570 1_554
Li1 S10 2.510362 1_556
Li1 S3 2.670263 1_556
Li1 S8 2.691752 1_555
Li1 S2 2.725570 1_645
Li2 S9 2.510362 1_455
Li2 S6 2.670263 1_555
Li2 S1 2.691752 1_545
Li2 S0 2.725570 1_545
Li3 S11 2.510362 1_555
Li3 S1 2.670263 1_455
Li3 S6 2.691752 1_554
Li3 S4 2.725570 1_554
Ga0 S9 2.251776 1_555
Ga0 S5 2.259281 1_555
Ga0 S1 2.324314 1_555
Ga0 S7 2.335921 1_555
Ga1 S11 2.251781 1_555
Ga1 S10 2.259278 1_555
Ga1 S6 2.324324 1_555
Ga1 S2 2.335912 1_555
Ga2 S5 2.251782 1_555
Ga2 S9 2.259275 1_554
Ga2 S3 2.324314 1_555
Ga2 S0 2.335921 1_555
Ga3 S10 2.251774 1_555
Ga3 S11 2.259277 1_645
Ga3 S8 2.324326 1_555
Ga3 S4 2.335917 1_555
Ge0 S0 2.233811 1_556
Ge0 S4 2.233811 1_565
Ge0 S1 2.272911 1_555
Ge0 S6 2.272911 1_655
Ge1 S7 2.233811 1_555
Ge1 S2 2.233811 1_555
Ge1 S8 2.272911 1_555
Ge1 S3 2.272911 1_555
