# generated using pymatgen
data_Y3Ga5O12
_symmetry_space_group_name_H-M   'P 1'
_cell_length_a   10.64798780
_cell_length_b   10.64798780
_cell_length_c   10.64798780
_cell_angle_alpha   109.47122063
_cell_angle_beta   109.47122063
_cell_angle_gamma   109.47122063
_symmetry_Int_Tables_number   1
_chemical_formula_structural   Y3Ga5O12
_chemical_formula_sum   'Y12 Ga20 O48'
_cell_volume   929.35308152
_cell_formula_units_Z   4
loop_
 _symmetry_equiv_pos_site_id
 _symmetry_equiv_pos_as_xyz
  1  'x, y, z'
loop_
 _atom_site_type_symbol
 _atom_site_label
 _atom_site_symmetry_multiplicity
 _atom_site_fract_x
 _atom_site_fract_y
 _atom_site_fract_z
 _atom_site_occupancy
  Y  Y0  1  0.87500000  0.75000000  0.62500000  1
  Y  Y1  1  0.87500000  0.62500000  0.25000000  1
  Y  Y2  1  0.62500000  0.87500000  0.75000000  1
  Y  Y3  1  0.25000000  0.87500000  0.62500000  1
  Y  Y4  1  0.75000000  0.62500000  0.87500000  1
  Y  Y5  1  0.62500000  0.25000000  0.87500000  1
  Y  Y6  1  0.12500000  0.25000000  0.37500000  1
  Y  Y7  1  0.12500000  0.37500000  0.75000000  1
  Y  Y8  1  0.37500000  0.12500000  0.25000000  1
  Y  Y9  1  0.75000000  0.12500000  0.37500000  1
  Y  Y10  1  0.25000000  0.37500000  0.12500000  1
  Y  Y11  1  0.37500000  0.75000000  0.12500000  1
  Ga  Ga0  1  0.12500000  0.75000000  0.87500000  1
  Ga  Ga1  1  0.87500000  0.25000000  0.12500000  1
  Ga  Ga2  1  0.75000000  0.37500000  0.62500000  1
  Ga  Ga3  1  0.12500000  0.87500000  0.25000000  1
  Ga  Ga4  1  0.25000000  0.12500000  0.87500000  1
  Ga  Ga5  1  0.37500000  0.62500000  0.75000000  1
  Ga  Ga6  1  0.37500000  0.25000000  0.62500000  1
  Ga  Ga7  1  0.87500000  0.12500000  0.75000000  1
  Ga  Ga8  1  0.62500000  0.37500000  0.25000000  1
  Ga  Ga9  1  0.75000000  0.87500000  0.12500000  1
  Ga  Ga10  1  0.25000000  0.62500000  0.37500000  1
  Ga  Ga11  1  0.62500000  0.75000000  0.37500000  1
  Ga  Ga12  1  0.50000000  -0.00000000  0.50000000  1
  Ga  Ga13  1  -0.00000000  0.50000000  0.00000000  1
  Ga  Ga14  1  0.50000000  0.50000000  0.50000000  1
  Ga  Ga15  1  -0.00000000  -0.00000000  0.50000000  1
  Ga  Ga16  1  -0.00000000  -0.00000000  0.00000000  1
  Ga  Ga17  1  -0.00000000  0.50000000  0.50000000  1
  Ga  Ga18  1  0.50000000  0.50000000  0.00000000  1
  Ga  Ga19  1  0.50000000  -0.00000000  0.00000000  1
  O  O0  1  0.52817065  0.40567474  0.82266873  1
  O  O1  1  0.82266773  0.52817065  0.40567474  1
  O  O2  1  0.79449808  0.87750510  0.97182935  1
  O  O3  1  0.41699299  0.09432526  0.62249490  1
  O  O4  1  0.87750510  0.40567474  0.08300701  1
  O  O5  1  0.67733127  0.08300701  0.70550192  1
  O  O6  1  0.82266773  0.79449808  0.41699299  1
  O  O7  1  0.40567474  0.82266773  0.52817065  1
  O  O8  1  0.62249490  0.70550192  0.52817065  1
  O  O9  1  0.41699299  0.82266773  0.79449808  1
  O  O10  1  0.40567474  0.08300701  0.87750510  1
  O  O11  1  0.09432526  0.97182935  0.67733127  1
  O  O12  1  0.97182935  0.67733127  0.09432526  1
  O  O13  1  0.79449808  0.41699299  0.82266873  1
  O  O14  1  0.52817065  0.62249490  0.70550192  1
  O  O15  1  0.70550192  0.52817065  0.62249490  1
  O  O16  1  0.08300701  0.87750510  0.40567474  1
  O  O17  1  0.97182935  0.79449808  0.87750510  1
  O  O18  1  0.08300701  0.70550192  0.67733127  1
  O  O19  1  0.37750510  0.29449808  0.47182935  1
  O  O20  1  0.62249490  0.41699299  0.09432526  1
  O  O21  1  0.09432526  0.62249490  0.41699299  1
  O  O22  1  0.70550192  0.67733127  0.08300701  1
  O  O23  1  0.67733127  0.09432526  0.97182935  1
  O  O24  1  0.47182935  0.59432526  0.17733127  1
  O  O25  1  0.17733127  0.47182935  0.59432526  1
  O  O26  1  0.20550192  0.12249490  0.02817065  1
  O  O27  1  0.58300701  0.90567474  0.37750510  1
  O  O28  1  0.12249490  0.59432526  0.91699299  1
  O  O29  1  0.32266773  0.91699299  0.29449808  1
  O  O30  1  0.17733127  0.20550192  0.58300701  1
  O  O31  1  0.59432526  0.17733127  0.47182935  1
  O  O32  1  0.32266873  0.90567474  0.02817065  1
  O  O33  1  0.29449808  0.32266773  0.91699299  1
  O  O34  1  0.90567474  0.37750510  0.58300701  1
  O  O35  1  0.12249490  0.02817065  0.20550192  1
  O  O36  1  0.37750510  0.58300701  0.90567474  1
  O  O37  1  0.91699299  0.29449808  0.32266873  1
  O  O38  1  0.02817065  0.20550192  0.12249490  1
  O  O39  1  0.91699299  0.12249490  0.59432526  1
  O  O40  1  0.29449808  0.47182935  0.37750510  1
  O  O41  1  0.47182935  0.37750510  0.29449808  1
  O  O42  1  0.20550192  0.58300701  0.17733127  1
  O  O43  1  0.02817065  0.32266773  0.90567474  1
  O  O44  1  0.90567474  0.02817065  0.32266873  1
  O  O45  1  0.59432526  0.91699299  0.12249490  1
  O  O46  1  0.58300701  0.17733127  0.20550192  1
  O  O47  1  0.87750510  0.97182935  0.79449808  1
loop_
_geom_bond_atom_site_label_1
_geom_bond_atom_site_label_2
_geom_bond_distance
_geom_bond_site_symmetry_2
Ga0 O28 1.849584 1_555
Ga0 O32 1.849592 1_556
Ga0 O18 1.849594 1_555
Ga0 O17 1.849594 1_455
Ga1 O4 1.849584 1_555
Ga1 O23 1.849592 1_554
Ga1 O37 1.849594 1_555
Ga1 O38 1.849594 1_655
Ga2 O34 1.849584 1_555
Ga2 O31 1.849592 1_555
Ga2 O13 1.849594 1_555
Ga2 O15 1.849594 1_555
Ga3 O16 1.849584 1_555
Ga3 O29 1.849584 1_555
Ga3 O12 1.849592 1_455
Ga3 O35 1.849594 1_565
Ga4 O10 1.849584 1_555
Ga4 O33 1.849584 1_555
Ga4 O11 1.849592 1_545
Ga4 O26 1.849594 1_556
Ga5 O36 1.849584 1_555
Ga5 O9 1.849584 1_555
Ga5 O25 1.849592 1_555
Ga5 O14 1.849594 1_555
Ga6 O3 1.849584 1_555
Ga6 O0 1.849592 1_555
Ga6 O30 1.849594 1_555
Ga6 O19 1.849594 1_555
Ga7 O39 1.849584 1_555
Ga7 O43 1.849586 1_655
Ga7 O5 1.849594 1_555
Ga7 O47 1.849594 1_545
Ga8 O20 1.849584 1_555
Ga8 O1 1.849586 1_555
Ga8 O46 1.849594 1_555
Ga8 O41 1.849594 1_555
Ga9 O45 1.849584 1_555
Ga9 O44 1.849592 1_565
Ga9 O22 1.849594 1_555
Ga9 O2 1.849594 1_554
Ga10 O21 1.849584 1_555
Ga10 O7 1.849586 1_555
Ga10 O42 1.849594 1_555
Ga10 O40 1.849594 1_555
Ga11 O27 1.849584 1_555
Ga11 O6 1.849584 1_555
Ga11 O24 1.849592 1_555
Ga11 O8 1.849594 1_555
Ga12 O5 1.994552 1_555
Ga12 O31 1.994554 1_555
Ga12 O3 1.994556 1_555
Ga12 O27 1.994556 1_545
Ga12 O29 1.994556 1_545
Ga12 O7 1.994563 1_545
Ga13 O13 1.994552 1_454
Ga13 O42 1.994552 1_555
Ga13 O12 1.994554 1_455
Ga13 O28 1.994556 1_554
Ga13 O4 1.994556 1_455
Ga13 O43 1.994563 1_554
Ga14 O8 1.994552 1_555
Ga14 O14 1.994552 1_555
Ga14 O15 1.994552 1_555
Ga14 O41 1.994552 1_555
Ga14 O19 1.994552 1_555
Ga14 O40 1.994552 1_555
Ga15 O30 1.994552 1_555
Ga15 O44 1.994554 1_455
Ga15 O11 1.994554 1_545
Ga15 O39 1.994556 1_455
Ga15 O16 1.994556 1_545
Ga15 O6 1.994556 1_445
Ga16 O38 1.994552 1_555
Ga16 O26 1.994552 1_555
Ga16 O35 1.994552 1_555
Ga16 O17 1.994552 1_444
Ga16 O47 1.994552 1_444
Ga16 O2 1.994552 1_444
Ga17 O37 1.994552 1_455
Ga17 O18 1.994552 1_555
Ga17 O25 1.994554 1_555
Ga17 O21 1.994556 1_555
Ga17 O34 1.994556 1_455
Ga17 O1 1.994563 1_455
Ga18 O22 1.994552 1_555
Ga18 O0 1.994554 1_554
Ga18 O24 1.994554 1_555
Ga18 O20 1.994556 1_555
Ga18 O36 1.994556 1_554
Ga18 O33 1.994556 1_554
Ga19 O46 1.994552 1_555
Ga19 O32 1.994554 1_545
Ga19 O23 1.994554 1_554
Ga19 O45 1.994556 1_545
Ga19 O10 1.994556 1_554
Ga19 O9 1.994556 1_544
O0 Y5 2.343799 1_555
O0 Y4 2.433349 1_555
O1 Y1 2.343803 1_555
O1 Y0 2.433344 1_555
O2 Y4 2.343809 1_555
O2 Y2 2.433343 1_555
O3 Y5 2.343809 1_555
O3 Y3 2.433350 1_545
O4 Y5 2.343809 1_554
O4 Y1 2.433350 1_555
O5 Y2 2.343809 1_545
O5 Y5 2.433343 1_555
O6 Y0 2.343809 1_555
O6 Y1 2.433350 1_555
O7 Y3 2.343803 1_555
O7 Y2 2.433344 1_555
O8 Y0 2.343809 1_555
O8 Y2 2.433343 1_555
O9 Y2 2.343809 1_555
O9 Y3 2.433350 1_555
O10 Y3 2.343809 1_545
O10 Y5 2.433350 1_555
O11 Y3 2.343799 1_555
O11 Y0 2.433349 1_455
O12 Y1 2.343799 1_555
O12 Y4 2.433349 1_554
O13 Y4 2.343809 1_555
O13 Y5 2.433343 1_555
O14 Y2 2.343809 1_555
O14 Y4 2.433343 1_555
O15 Y4 2.343809 1_555
O15 Y0 2.433343 1_555
O16 Y1 2.343809 1_455
O16 Y3 2.433350 1_555
O17 Y0 2.343809 1_555
O17 Y4 2.433343 1_555
O18 Y0 2.343809 1_455
O18 Y3 2.433343 1_555
O19 Y6 2.343809 1_555
O19 Y8 2.433343 1_555
O20 Y1 2.343809 1_555
O20 Y5 2.433350 1_554
O21 Y3 2.343809 1_555
O21 Y1 2.433350 1_455
O22 Y4 2.343809 1_554
O22 Y1 2.433343 1_555
O23 Y5 2.343799 1_555
O23 Y2 2.433349 1_545
O24 Y11 2.343799 1_555
O24 Y10 2.433349 1_555
O25 Y7 2.343799 1_555
O25 Y6 2.433349 1_555
O26 Y10 2.343809 1_555
O26 Y8 2.433343 1_555
O27 Y11 2.343809 1_555
O27 Y9 2.433350 1_565
O28 Y11 2.343809 1_556
O28 Y7 2.433350 1_555
O29 Y8 2.343809 1_565
O29 Y11 2.433350 1_555
O30 Y6 2.343809 1_555
O30 Y7 2.433343 1_555
O31 Y9 2.343799 1_555
O31 Y8 2.433349 1_555
O32 Y11 2.343799 1_555
O32 Y8 2.433349 1_565
O33 Y10 2.343809 1_556
O33 Y7 2.433350 1_555
O34 Y9 2.343809 1_555
O34 Y7 2.433350 1_655
O35 Y8 2.343809 1_555
O35 Y6 2.433343 1_555
O36 Y7 2.343809 1_555
O36 Y11 2.433350 1_556
O37 Y6 2.343809 1_655
O37 Y9 2.433343 1_555
O38 Y6 2.343809 1_555
O38 Y10 2.433343 1_555
O39 Y7 2.343809 1_655
O39 Y9 2.433350 1_555
O40 Y10 2.343809 1_555
O40 Y6 2.433343 1_555
O41 Y8 2.343809 1_555
O41 Y10 2.433343 1_555
O42 Y10 2.343809 1_555
O42 Y11 2.433343 1_555
O43 Y7 2.343803 1_555
O43 Y10 2.433344 1_556
O44 Y9 2.343799 1_555
O44 Y6 2.433349 1_655
O45 Y9 2.343809 1_565
O45 Y11 2.433350 1_555
O46 Y8 2.343809 1_555
O46 Y9 2.433343 1_555
O47 Y2 2.343809 1_555
O47 Y0 2.433343 1_555
