# generated using pymatgen
data_Pu13Zn58
_symmetry_space_group_name_H-M   'P 1'
_cell_length_a   14.47072931
_cell_length_b   14.47072968
_cell_length_c   13.96482265
_cell_angle_alpha   90.00000000
_cell_angle_beta   90.00000000
_cell_angle_gamma   119.99999917
_symmetry_Int_Tables_number   1
_chemical_formula_structural   Pu13Zn58
_chemical_formula_sum   'Pu26 Zn116'
_cell_volume   2532.48516760
_cell_formula_units_Z   2
loop_
 _symmetry_equiv_pos_site_id
 _symmetry_equiv_pos_as_xyz
  1  'x, y, z'
loop_
 _atom_site_type_symbol
 _atom_site_label
 _atom_site_symmetry_multiplicity
 _atom_site_fract_x
 _atom_site_fract_y
 _atom_site_fract_z
 _atom_site_occupancy
  Pu  Pu0  1  0.40953972  0.20476986  0.55277909  1
  Pu  Pu1  1  0.45842857  0.54157143  0.75000000  1
  Pu  Pu2  1  0.87460934  0.74921867  0.25000000  1
  Pu  Pu3  1  0.08314287  0.54157143  0.75000000  1
  Pu  Pu4  1  0.79523014  0.59046028  0.94722091  1
  Pu  Pu5  1  0.79523014  0.20476986  0.55277909  1
  Pu  Pu6  1  0.45842857  0.91685713  0.75000000  1
  Pu  Pu7  1  0.79523014  0.20476986  0.94722091  1
  Pu  Pu8  1  0.79523014  0.59046028  0.55277909  1
  Pu  Pu9  1  0.91685713  0.45842857  0.25000000  1
  Pu  Pu10  1  0.12539066  0.87460934  0.75000000  1
  Pu  Pu11  1  0.87460934  0.12539066  0.25000000  1
  Pu  Pu12  1  0.59046028  0.79523014  0.05277909  1
  Pu  Pu13  1  0.20476986  0.40953972  0.05277909  1
  Pu  Pu14  1  0.59046028  0.79523014  0.44722091  1
  Pu  Pu15  1  0.20476986  0.79523014  0.44722091  1
  Pu  Pu16  1  0.00000000  0.00000000  0.00000000  1
  Pu  Pu17  1  0.54157143  0.08314287  0.25000000  1
  Pu  Pu18  1  0.25078133  0.12539066  0.25000000  1
  Pu  Pu19  1  0.74921867  0.87460934  0.75000000  1
  Pu  Pu20  1  0.20476986  0.40953972  0.44722091  1
  Pu  Pu21  1  0.40953972  0.20476986  0.94722091  1
  Pu  Pu22  1  0.12539066  0.25078133  0.75000000  1
  Pu  Pu23  1  0.00000000  0.00000000  0.50000000  1
  Pu  Pu24  1  0.20476986  0.79523014  0.05277909  1
  Pu  Pu25  1  0.54157143  0.45842857  0.25000000  1
  Zn  Zn0  1  0.47146947  0.23573474  0.15858819  1
  Zn  Zn1  1  1.00000000  0.20044306  0.00000000  1
  Zn  Zn2  1  0.63486509  0.96432954  0.60208051  1
  Zn  Zn3  1  0.36513491  0.32946445  0.39791949  1
  Zn  Zn4  1  0.60137264  0.39862736  0.05121378  1
  Zn  Zn5  1  0.63486509  0.67053555  0.89791949  1
  Zn  Zn6  1  0.96432954  0.63486509  0.10208051  1
  Zn  Zn7  1  0.20274527  0.60137264  0.94878622  1
  Zn  Zn8  1  0.09508124  0.90491876  0.34432478  1
  Zn  Zn9  1  0.56413113  0.12826226  0.64362269  1
  Zn  Zn10  1  0.80983751  0.90491876  0.34432478  1
  Zn  Zn11  1  0.73076141  0.26923859  0.75000000  1
  Zn  Zn12  1  0.43586887  0.87173774  0.35637731  1
  Zn  Zn13  1  0.32946445  0.36513491  0.89791949  1
  Zn  Zn14  1  0.03567046  0.67053555  0.89791949  1
  Zn  Zn15  1  0.52853053  0.76426526  0.84141181  1
  Zn  Zn16  1  0.79955694  0.79955694  0.00000000  1
  Zn  Zn17  1  0.36513491  0.03567046  0.39791949  1
  Zn  Zn18  1  0.90491876  0.80983751  0.65567522  1
  Zn  Zn19  1  0.91603219  0.63538272  0.75000000  1
  Zn  Zn20  1  0.20044306  0.20044306  0.50000000  1
  Zn  Zn21  1  0.00000000  0.00000000  0.75000000  1
  Zn  Zn22  1  0.67053555  0.03567046  0.10208051  1
  Zn  Zn23  1  0.60137264  0.39862736  0.44878622  1
  Zn  Zn24  1  0.23573474  0.47146947  0.84141181  1
  Zn  Zn25  1  0.76426526  0.52853053  0.34141181  1
  Zn  Zn26  1  0.76426526  0.52853053  0.15858819  1
  Zn  Zn27  1  0.96432954  0.32946445  0.10208051  1
  Zn  Zn28  1  0.28064947  0.91603219  0.25000000  1
  Zn  Zn29  1  0.47146947  0.23573474  0.34141181  1
  Zn  Zn30  1  0.03567046  0.36513491  0.60208051  1
  Zn  Zn31  1  0.33333300  0.66666700  0.75000000  1
  Zn  Zn32  1  0.90491876  0.80983751  0.84432478  1
  Zn  Zn33  1  0.03567046  0.36513491  0.89791949  1
  Zn  Zn34  1  0.79955694  0.00000000  0.00000000  1
  Zn  Zn35  1  0.67053555  0.03567046  0.39791949  1
  Zn  Zn36  1  0.36513491  0.03567046  0.10208051  1
  Zn  Zn37  1  0.36461728  0.08396781  0.75000000  1
  Zn  Zn38  1  0.91603219  0.28064947  0.75000000  1
  Zn  Zn39  1  0.00000000  0.79955694  0.00000000  1
  Zn  Zn40  1  0.43586887  0.56413113  0.14362269  1
  Zn  Zn41  1  0.12826226  0.56413113  0.35637731  1
  Zn  Zn42  1  0.71935053  0.08396781  0.75000000  1
  Zn  Zn43  1  0.09508124  0.19016249  0.15567522  1
  Zn  Zn44  1  0.03567046  0.67053555  0.60208051  1
  Zn  Zn45  1  0.32946445  0.36513491  0.60208051  1
  Zn  Zn46  1  0.56413113  0.12826226  0.85637731  1
  Zn  Zn47  1  0.63486509  0.67053555  0.60208051  1
  Zn  Zn48  1  0.36513491  0.32946445  0.10208051  1
  Zn  Zn49  1  0.43586887  0.56413113  0.35637731  1
  Zn  Zn50  1  0.50000000  0.00000000  0.50000000  1
  Zn  Zn51  1  0.60137264  0.20274527  0.05121378  1
  Zn  Zn52  1  0.79725473  0.39862736  0.44878622  1
  Zn  Zn53  1  0.73076141  0.46152282  0.75000000  1
  Zn  Zn54  1  0.39862736  0.79725473  0.94878622  1
  Zn  Zn55  1  0.66666700  0.33333300  0.90381796  1
  Zn  Zn56  1  0.67053555  0.63486509  0.10208051  1
  Zn  Zn57  1  0.76426526  0.23573474  0.15858819  1
  Zn  Zn58  1  0.28064947  0.36461728  0.25000000  1
  Zn  Zn59  1  0.39862736  0.60137264  0.55121378  1
  Zn  Zn60  1  0.00000000  0.00000000  0.25000000  1
  Zn  Zn61  1  0.20274527  0.60137264  0.55121378  1
  Zn  Zn62  1  0.76426526  0.23573474  0.34141181  1
  Zn  Zn63  1  0.80983751  0.90491876  0.15567522  1
  Zn  Zn64  1  0.32946445  0.96432954  0.89791949  1
  Zn  Zn65  1  0.87173774  0.43586887  0.85637731  1
  Zn  Zn66  1  0.12826226  0.56413113  0.14362269  1
  Zn  Zn67  1  0.96432954  0.32946445  0.39791949  1
  Zn  Zn68  1  0.63538272  0.71935053  0.25000000  1
  Zn  Zn69  1  0.56413113  0.43586887  0.85637731  1
  Zn  Zn70  1  0.90491876  0.09508124  0.65567522  1
  Zn  Zn71  1  0.79955694  0.79955694  0.50000000  1
  Zn  Zn72  1  0.00000000  0.50000000  0.00000000  1
  Zn  Zn73  1  0.19016249  0.09508124  0.65567522  1
  Zn  Zn74  1  0.20044306  0.20044306  0.00000000  1
  Zn  Zn75  1  0.20044306  0.00000000  0.50000000  1
  Zn  Zn76  1  0.08396781  0.36461728  0.25000000  1
  Zn  Zn77  1  0.67053555  0.63486509  0.39791949  1
  Zn  Zn78  1  0.52853053  0.76426526  0.65858819  1
  Zn  Zn79  1  0.79725473  0.39862736  0.05121378  1
  Zn  Zn80  1  1.00000000  0.20044306  0.50000000  1
  Zn  Zn81  1  0.60137264  0.20274527  0.44878622  1
  Zn  Zn82  1  0.23573474  0.76426526  0.84141181  1
  Zn  Zn83  1  0.66666700  0.33333300  0.25000000  1
  Zn  Zn84  1  0.43586887  0.87173774  0.14362269  1
  Zn  Zn85  1  0.00000000  0.50000000  0.50000000  1
  Zn  Zn86  1  0.50000000  0.50000000  0.00000000  1
  Zn  Zn87  1  0.23573474  0.76426526  0.65858819  1
  Zn  Zn88  1  0.33333300  0.66666700  0.40381796  1
  Zn  Zn89  1  0.20044306  0.00000000  0.00000000  1
  Zn  Zn90  1  0.08396781  0.71935053  0.25000000  1
  Zn  Zn91  1  0.00000000  0.79955694  0.50000000  1
  Zn  Zn92  1  0.63486509  0.96432954  0.89791949  1
  Zn  Zn93  1  0.50000000  0.50000000  0.50000000  1
  Zn  Zn94  1  0.19016249  0.09508124  0.84432478  1
  Zn  Zn95  1  0.53847718  0.26923859  0.75000000  1
  Zn  Zn96  1  0.09508124  0.90491876  0.15567522  1
  Zn  Zn97  1  0.71935053  0.63538272  0.75000000  1
  Zn  Zn98  1  0.56413113  0.43586887  0.64362269  1
  Zn  Zn99  1  0.36461728  0.28064947  0.75000000  1
  Zn  Zn100  1  0.26923859  0.73076141  0.25000000  1
  Zn  Zn101  1  0.96432954  0.63486509  0.39791949  1
  Zn  Zn102  1  0.33333300  0.66666700  0.09618204  1
  Zn  Zn103  1  0.26923859  0.53847718  0.25000000  1
  Zn  Zn104  1  0.79955694  0.00000000  0.50000000  1
  Zn  Zn105  1  0.63538272  0.91603219  0.25000000  1
  Zn  Zn106  1  0.50000000  0.00000000  0.00000000  1
  Zn  Zn107  1  0.87173774  0.43586887  0.64362269  1
  Zn  Zn108  1  0.32946445  0.96432954  0.60208051  1
  Zn  Zn109  1  0.09508124  0.19016249  0.34432478  1
  Zn  Zn110  1  0.39862736  0.60137264  0.94878622  1
  Zn  Zn111  1  0.90491876  0.09508124  0.84432478  1
  Zn  Zn112  1  0.23573474  0.47146947  0.65858819  1
  Zn  Zn113  1  0.66666700  0.33333300  0.59618204  1
  Zn  Zn114  1  0.39862736  0.79725473  0.55121378  1
  Zn  Zn115  1  0.46152282  0.73076141  0.25000000  1
loop_
_geom_bond_atom_site_label_1
_geom_bond_atom_site_label_2
_geom_bond_distance
_geom_bond_site_symmetry_2
Pu0 Zn29 3.052034 1_555
Pu0 Zn3 3.083031 1_555
Pu0 Zn17 3.083031 1_555
Pu0 Zn20 3.084326 1_555
Pu0 Zn75 3.084326 1_555
Pu0 Zn73 3.102108 1_555
Pu0 Zn45 3.144977 1_555
Pu0 Zn108 3.144977 1_545
Pu0 Zn23 3.145975 1_555
Pu0 Zn81 3.145975 1_555
Pu0 Zn99 3.150780 1_555
Pu0 Zn37 3.150780 1_555
Pu0 Zn95 3.193169 1_555
Pu0 Zn9 3.211881 1_555
Pu0 Zn98 3.211881 1_555
Pu0 Zn113 3.278833 1_555
Pu1 Zn98 3.037399 1_555
Pu1 Zn69 3.037399 1_555
Pu1 Zn5 3.082796 1_555
Pu1 Zn47 3.082796 1_555
Pu1 Zn13 3.082796 1_555
Pu1 Zn45 3.082796 1_555
Pu1 Zn112 3.126401 1_555
Pu1 Zn24 3.126401 1_555
Pu1 Zn15 3.126402 1_555
Pu1 Zn78 3.126402 1_555
Pu1 Zn31 3.135400 1_555
Pu1 Zn110 3.154812 1_555
Pu1 Zn59 3.154812 1_555
Pu1 Zn97 3.312609 1_555
Pu1 Zn99 3.312609 1_555
Pu2 Zn25 3.046063 1_555
Pu2 Zn26 3.046063 1_555
Pu2 Zn8 3.130792 1_655
Pu2 Zn96 3.130792 1_655
Pu2 Zn10 3.130793 1_555
Pu2 Zn63 3.130793 1_555
Pu2 Zn60 3.142797 1_665
Pu2 Zn90 3.267189 1_655
Pu2 Zn68 3.267189 1_555
Pu2 Zn101 3.292315 1_555
Pu2 Zn6 3.292315 1_555
Pu2 Zn56 3.292316 1_555
Pu2 Zn77 3.292316 1_555
Pu3 Zn107 3.037400 1_455
Pu3 Zn65 3.037400 1_455
Pu3 Zn30 3.082796 1_555
Pu3 Zn33 3.082796 1_555
Pu3 Zn44 3.082797 1_555
Pu3 Zn14 3.082797 1_555
Pu3 Zn112 3.126401 1_555
Pu3 Zn24 3.126401 1_555
Pu3 Zn82 3.126402 1_555
Pu3 Zn87 3.126402 1_555
Pu3 Zn31 3.135388 1_555
Pu3 Zn7 3.154811 1_555
Pu3 Zn61 3.154811 1_555
Pu3 Zn38 3.312609 1_455
Pu3 Zn19 3.312609 1_455
Pu4 Zn26 3.052034 1_556
Pu4 Zn6 3.083031 1_556
Pu4 Zn56 3.083031 1_556
Pu4 Zn39 3.084326 1_656
Pu4 Zn16 3.084326 1_556
Pu4 Zn32 3.102108 1_555
Pu4 Zn14 3.144977 1_655
Pu4 Zn5 3.144977 1_555
Pu4 Zn4 3.145975 1_556
Pu4 Zn79 3.145975 1_556
Pu4 Zn19 3.150780 1_555
Pu4 Zn97 3.150780 1_555
Pu4 Zn53 3.193169 1_555
Pu4 Zn69 3.211881 1_555
Pu4 Zn65 3.211881 1_555
Pu4 Zn55 3.278833 1_555
Pu5 Zn62 3.052034 1_555
Pu5 Zn67 3.083031 1_555
Pu5 Zn35 3.083031 1_555
Pu5 Zn80 3.084326 1_555
Pu5 Zn104 3.084326 1_555
Pu5 Zn70 3.102108 1_555
Pu5 Zn30 3.144977 1_655
Pu5 Zn2 3.144977 1_545
Pu5 Zn81 3.145975 1_555
Pu5 Zn52 3.145975 1_555
Pu5 Zn38 3.150780 1_555
Pu5 Zn42 3.150780 1_555
Pu5 Zn11 3.193169 1_555
Pu5 Zn9 3.211881 1_555
Pu5 Zn107 3.211881 1_555
Pu5 Zn113 3.278821 1_555
Pu6 Zn9 3.037400 1_565
Pu6 Zn46 3.037400 1_565
Pu6 Zn92 3.082796 1_555
Pu6 Zn2 3.082796 1_555
Pu6 Zn108 3.082797 1_555
Pu6 Zn64 3.082797 1_555
Pu6 Zn87 3.126401 1_555
Pu6 Zn82 3.126401 1_555
Pu6 Zn15 3.126401 1_555
Pu6 Zn78 3.126401 1_555
Pu6 Zn31 3.135388 1_555
Pu6 Zn54 3.154812 1_555
Pu6 Zn114 3.154812 1_555
Pu6 Zn42 3.312609 1_565
Pu6 Zn37 3.312609 1_565
Pu7 Zn57 3.052034 1_556
Pu7 Zn27 3.083031 1_556
Pu7 Zn22 3.083031 1_556
Pu7 Zn1 3.084326 1_556
Pu7 Zn34 3.084326 1_556
Pu7 Zn111 3.102108 1_555
Pu7 Zn33 3.144977 1_655
Pu7 Zn92 3.144977 1_545
Pu7 Zn51 3.145975 1_556
Pu7 Zn79 3.145975 1_556
Pu7 Zn38 3.150780 1_555
Pu7 Zn42 3.150780 1_555
Pu7 Zn11 3.193169 1_555
Pu7 Zn46 3.211881 1_555
Pu7 Zn65 3.211881 1_555
Pu7 Zn55 3.278821 1_555
Pu8 Zn25 3.052034 1_555
Pu8 Zn101 3.083031 1_555
Pu8 Zn77 3.083031 1_555
Pu8 Zn91 3.084326 1_655
Pu8 Zn71 3.084326 1_555
Pu8 Zn18 3.102108 1_555
Pu8 Zn44 3.144977 1_655
Pu8 Zn47 3.144977 1_555
Pu8 Zn23 3.145975 1_555
Pu8 Zn52 3.145975 1_555
Pu8 Zn19 3.150780 1_555
Pu8 Zn97 3.150780 1_555
Pu8 Zn53 3.193169 1_555
Pu8 Zn98 3.211881 1_555
Pu8 Zn107 3.211881 1_555
Pu8 Zn113 3.278833 1_555
Pu9 Zn41 3.037400 1_655
Pu9 Zn66 3.037400 1_655
Pu9 Zn101 3.082796 1_555
Pu9 Zn6 3.082796 1_555
Pu9 Zn27 3.082797 1_555
Pu9 Zn67 3.082797 1_555
Pu9 Zn25 3.126401 1_555
Pu9 Zn26 3.126401 1_555
Pu9 Zn62 3.126402 1_555
Pu9 Zn57 3.126402 1_555
Pu9 Zn83 3.135388 1_555
Pu9 Zn79 3.154811 1_555
Pu9 Zn52 3.154811 1_555
Pu9 Zn90 3.312609 1_655
Pu9 Zn76 3.312609 1_655
Pu10 Zn82 3.046063 1_555
Pu10 Zn87 3.046063 1_555
Pu10 Zn18 3.130792 1_455
Pu10 Zn32 3.130792 1_455
Pu10 Zn94 3.130792 1_565
Pu10 Zn73 3.130792 1_565
Pu10 Zn21 3.142796 1_565
Pu10 Zn37 3.267189 1_565
Pu10 Zn19 3.267189 1_455
Pu10 Zn108 3.292316 1_555
Pu10 Zn64 3.292316 1_555
Pu10 Zn44 3.292316 1_555
Pu10 Zn14 3.292316 1_555
Pu11 Zn62 3.046063 1_555
Pu11 Zn57 3.046063 1_555
Pu11 Zn109 3.130792 1_655
Pu11 Zn43 3.130792 1_655
Pu11 Zn63 3.130792 1_545
Pu11 Zn10 3.130792 1_545
Pu11 Zn60 3.142796 1_655
Pu11 Zn105 3.267189 1_545
Pu11 Zn76 3.267189 1_655
Pu11 Zn35 3.292316 1_555
Pu11 Zn22 3.292316 1_555
Pu11 Zn27 3.292316 1_555
Pu11 Zn67 3.292316 1_555
Pu12 Zn15 3.052034 1_554
Pu12 Zn5 3.083031 1_554
Pu12 Zn92 3.083031 1_554
Pu12 Zn16 3.084326 1_555
Pu12 Zn34 3.084326 1_565
Pu12 Zn63 3.102108 1_555
Pu12 Zn56 3.144977 1_555
Pu12 Zn22 3.144977 1_565
Pu12 Zn110 3.145975 1_554
Pu12 Zn54 3.145975 1_554
Pu12 Zn68 3.150780 1_555
Pu12 Zn105 3.150780 1_555
Pu12 Zn115 3.193169 1_555
Pu12 Zn84 3.211881 1_555
Pu12 Zn40 3.211881 1_555
Pu12 Zn102 3.278833 1_555
Pu13 Zn24 3.052034 1_554
Pu13 Zn33 3.083031 1_554
Pu13 Zn13 3.083031 1_554
Pu13 Zn1 3.084326 1_455
Pu13 Zn74 3.084326 1_555
Pu13 Zn43 3.102108 1_555
Pu13 Zn27 3.144977 1_455
Pu13 Zn48 3.144977 1_555
Pu13 Zn110 3.145975 1_554
Pu13 Zn7 3.145975 1_554
Pu13 Zn76 3.150780 1_555
Pu13 Zn58 3.150780 1_555
Pu13 Zn103 3.193169 1_555
Pu13 Zn40 3.211881 1_555
Pu13 Zn66 3.211881 1_555
Pu13 Zn102 3.278833 1_555
Pu14 Zn78 3.052034 1_555
Pu14 Zn47 3.083031 1_555
Pu14 Zn2 3.083031 1_555
Pu14 Zn71 3.084326 1_555
Pu14 Zn104 3.084326 1_565
Pu14 Zn10 3.102108 1_555
Pu14 Zn77 3.144977 1_555
Pu14 Zn35 3.144977 1_565
Pu14 Zn59 3.145975 1_555
Pu14 Zn114 3.145975 1_555
Pu14 Zn68 3.150780 1_555
Pu14 Zn105 3.150780 1_555
Pu14 Zn115 3.193169 1_555
Pu14 Zn12 3.211881 1_555
Pu14 Zn49 3.211881 1_555
Pu14 Zn88 3.278833 1_555
Pu15 Zn87 3.052034 1_555
Pu15 Zn44 3.083031 1_555
Pu15 Zn108 3.083031 1_555
Pu15 Zn91 3.084326 1_555
Pu15 Zn75 3.084326 1_565
Pu15 Zn8 3.102108 1_555
Pu15 Zn101 3.144977 1_455
Pu15 Zn17 3.144977 1_565
Pu15 Zn114 3.145975 1_555
Pu15 Zn61 3.145975 1_555
Pu15 Zn90 3.150780 1_555
Pu15 Zn28 3.150780 1_555
Pu15 Zn100 3.193169 1_555
Pu15 Zn12 3.211881 1_555
Pu15 Zn41 3.211881 1_555
Pu15 Zn88 3.278821 1_555
Pu16 Zn34 2.900557 1_455
Pu16 Zn89 2.900557 1_555
Pu16 Zn16 2.900557 1_445
Pu16 Zn74 2.900557 1_555
Pu16 Zn1 2.900557 1_455
Pu16 Zn39 2.900557 1_545
Pu16 Zn96 3.225746 1_545
Pu16 Zn111 3.225746 1_454
Pu16 Zn63 3.225746 1_445
Pu16 Zn94 3.225746 1_554
Pu16 Zn32 3.225746 1_444
Pu16 Zn43 3.225746 1_555
Pu16 Zn21 3.491206 1_554
Pu16 Zn60 3.491206 1_555
Pu17 Zn84 3.037400 1_545
Pu17 Zn12 3.037400 1_545
Pu17 Zn36 3.082796 1_555
Pu17 Zn17 3.082796 1_555
Pu17 Zn22 3.082797 1_555
Pu17 Zn35 3.082797 1_555
Pu17 Zn62 3.126401 1_555
Pu17 Zn57 3.126401 1_555
Pu17 Zn29 3.126401 1_555
Pu17 Zn0 3.126401 1_555
Pu17 Zn83 3.135388 1_555
Pu17 Zn81 3.154812 1_555
Pu17 Zn51 3.154812 1_555
Pu17 Zn28 3.312609 1_545
Pu17 Zn105 3.312609 1_545
Pu18 Zn29 3.046063 1_555
Pu18 Zn0 3.046063 1_555
Pu18 Zn96 3.130792 1_545
Pu18 Zn8 3.130792 1_545
Pu18 Zn43 3.130793 1_555
Pu18 Zn109 3.130793 1_555
Pu18 Zn60 3.142796 1_555
Pu18 Zn28 3.267189 1_545
Pu18 Zn58 3.267189 1_555
Pu18 Zn17 3.292315 1_555
Pu18 Zn36 3.292315 1_555
Pu18 Zn3 3.292316 1_555
Pu18 Zn48 3.292316 1_555
Pu19 Zn15 3.046063 1_555
Pu19 Zn78 3.046063 1_555
Pu19 Zn70 3.130792 1_565
Pu19 Zn111 3.130792 1_565
Pu19 Zn32 3.130793 1_555
Pu19 Zn18 3.130793 1_555
Pu19 Zn21 3.142796 1_665
Pu19 Zn42 3.267189 1_565
Pu19 Zn97 3.267189 1_555
Pu19 Zn92 3.292315 1_555
Pu19 Zn2 3.292315 1_555
Pu19 Zn5 3.292316 1_555
Pu19 Zn47 3.292316 1_555
Pu20 Zn112 3.052034 1_555
Pu20 Zn30 3.083031 1_555
Pu20 Zn45 3.083031 1_555
Pu20 Zn80 3.084326 1_455
Pu20 Zn20 3.084326 1_555
Pu20 Zn109 3.102108 1_555
Pu20 Zn67 3.144977 1_455
Pu20 Zn3 3.144977 1_555
Pu20 Zn59 3.145975 1_555
Pu20 Zn61 3.145975 1_555
Pu20 Zn76 3.150780 1_555
Pu20 Zn58 3.150780 1_555
Pu20 Zn103 3.193169 1_555
Pu20 Zn49 3.211881 1_555
Pu20 Zn41 3.211881 1_555
Pu20 Zn88 3.278833 1_555
Pu21 Zn0 3.052034 1_556
Pu21 Zn48 3.083031 1_556
Pu21 Zn36 3.083031 1_556
Pu21 Zn74 3.084326 1_556
Pu21 Zn89 3.084326 1_556
Pu21 Zn94 3.102108 1_555
Pu21 Zn13 3.144977 1_555
Pu21 Zn64 3.144977 1_545
Pu21 Zn4 3.145975 1_556
Pu21 Zn51 3.145975 1_556
Pu21 Zn99 3.150780 1_555
Pu21 Zn37 3.150780 1_555
Pu21 Zn95 3.193169 1_555
Pu21 Zn46 3.211881 1_555
Pu21 Zn69 3.211881 1_555
Pu21 Zn55 3.278833 1_555
Pu22 Zn112 3.046063 1_555
Pu22 Zn24 3.046063 1_555
Pu22 Zn111 3.130792 1_455
Pu22 Zn70 3.130792 1_455
Pu22 Zn73 3.130793 1_555
Pu22 Zn94 3.130793 1_555
Pu22 Zn21 3.142797 1_555
Pu22 Zn38 3.267189 1_455
Pu22 Zn99 3.267189 1_555
Pu22 Zn30 3.292315 1_555
Pu22 Zn33 3.292315 1_555
Pu22 Zn13 3.292316 1_555
Pu22 Zn45 3.292316 1_555
Pu23 Zn75 2.900557 1_555
Pu23 Zn104 2.900557 1_455
Pu23 Zn20 2.900557 1_555
Pu23 Zn71 2.900557 1_445
Pu23 Zn80 2.900557 1_455
Pu23 Zn91 2.900557 1_545
Pu23 Zn8 3.225746 1_545
Pu23 Zn70 3.225746 1_455
Pu23 Zn10 3.225746 1_445
Pu23 Zn73 3.225746 1_555
Pu23 Zn18 3.225746 1_445
Pu23 Zn109 3.225746 1_555
Pu23 Zn21 3.491206 1_555
Pu23 Zn60 3.491206 1_555
Pu24 Zn82 3.052034 1_554
Pu24 Zn14 3.083031 1_554
Pu24 Zn64 3.083031 1_554
Pu24 Zn39 3.084326 1_555
Pu24 Zn89 3.084326 1_565
Pu24 Zn96 3.102108 1_555
Pu24 Zn6 3.144977 1_455
Pu24 Zn36 3.144977 1_565
Pu24 Zn54 3.145975 1_554
Pu24 Zn7 3.145975 1_554
Pu24 Zn90 3.150780 1_555
Pu24 Zn28 3.150780 1_555
Pu24 Zn100 3.193169 1_555
Pu24 Zn84 3.211881 1_555
Pu24 Zn66 3.211881 1_555
Pu24 Zn102 3.278821 1_555
Pu25 Zn40 3.037399 1_555
Pu25 Zn49 3.037399 1_555
Pu25 Zn48 3.082796 1_555
Pu25 Zn3 3.082796 1_555
Pu25 Zn56 3.082796 1_555
Pu25 Zn77 3.082796 1_555
Pu25 Zn25 3.126401 1_555
Pu25 Zn26 3.126401 1_555
Pu25 Zn0 3.126402 1_555
Pu25 Zn29 3.126402 1_555
Pu25 Zn83 3.135400 1_555
Pu25 Zn4 3.154812 1_555
Pu25 Zn23 3.154812 1_555
Pu25 Zn58 3.312609 1_555
Pu25 Zn68 3.312609 1_555
Zn0 Zn29 2.553099 1_555
Zn0 Zn4 2.628172 1_555
Zn0 Zn51 2.628172 1_555
Zn0 Zn48 2.630043 1_555
Zn0 Zn36 2.630043 1_555
Zn0 Zn83 2.759269 1_555
Zn1 Zn27 2.597716 1_555
Zn1 Zn33 2.597716 1_654
Zn1 Zn43 2.616502 1_655
Zn1 Zn111 2.616502 1_554
Zn1 Zn74 2.900557 1_655
Zn1 Zn34 2.900557 1_555
Zn2 Zn42 2.577271 1_565
Zn2 Zn78 2.630043 1_555
Zn2 Zn50 2.667338 1_565
Zn2 Zn9 3.072434 1_565
Zn3 Zn58 2.577271 1_555
Zn3 Zn93 2.667338 1_555
Zn3 Zn49 3.072434 1_555
Zn4 Zn55 2.629657 1_554
Zn4 Zn86 2.639546 1_555
Zn4 Zn79 2.834557 1_555
Zn4 Zn51 2.834557 1_555
Zn4 Zn69 2.876515 1_554
Zn5 Zn97 2.577271 1_555
Zn5 Zn86 2.667338 1_556
Zn5 Zn69 3.072434 1_555
Zn6 Zn90 2.577271 1_655
Zn6 Zn72 2.667338 1_655
Zn6 Zn66 3.072434 1_655
Zn7 Zn82 2.628172 1_555
Zn7 Zn72 2.639546 1_556
Zn8 Zn91 2.616502 1_555
Zn8 Zn96 2.634458 1_555
Zn8 Zn90 2.922325 1_555
Zn9 Zn95 2.695123 1_555
Zn10 Zn104 2.616502 1_565
Zn10 Zn71 2.616502 1_555
Zn10 Zn63 2.634458 1_555
Zn10 Zn60 2.722931 1_665
Zn10 Zn105 2.922325 1_555
Zn10 Zn68 2.922325 1_555
Zn11 Zn38 2.602373 1_555
Zn11 Zn42 2.602373 1_555
Zn11 Zn113 2.682314 1_555
Zn11 Zn55 2.682314 1_555
Zn11 Zn9 2.695123 1_555
Zn11 Zn46 2.695123 1_555
Zn11 Zn65 2.695123 1_555
Zn11 Zn95 2.782493 1_555
Zn11 Zn53 2.782493 1_555
Zn12 Zn50 2.570288 1_565
Zn12 Zn88 2.653969 1_555
Zn12 Zn84 2.971081 1_555
Zn12 Zn28 3.017039 1_555
Zn12 Zn35 3.072434 1_565
Zn12 Zn17 3.072434 1_565
Zn13 Zn99 2.577271 1_555
Zn13 Zn74 2.597716 1_556
Zn13 Zn24 2.630043 1_555
Zn13 Zn86 2.667338 1_556
Zn13 Zn69 3.072434 1_555
Zn14 Zn19 2.577271 1_455
Zn14 Zn39 2.597716 1_556
Zn14 Zn82 2.630043 1_555
Zn14 Zn72 2.667338 1_556
Zn14 Zn65 3.072434 1_455
Zn15 Zn78 2.553099 1_555
Zn15 Zn54 2.628172 1_555
Zn15 Zn5 2.630043 1_555
Zn15 Zn92 2.630043 1_555
Zn15 Zn31 2.759269 1_555
Zn16 Zn5 2.597716 1_554
Zn16 Zn56 2.597716 1_555
Zn16 Zn32 2.616502 1_554
Zn16 Zn63 2.616502 1_555
Zn16 Zn39 2.900557 1_655
Zn16 Zn34 2.900557 1_565
Zn17 Zn28 2.577271 1_545
Zn17 Zn75 2.597716 1_555
Zn17 Zn29 2.630043 1_555
Zn17 Zn50 2.667338 1_555
Zn18 Zn91 2.616502 1_655
Zn18 Zn71 2.616502 1_555
Zn18 Zn32 2.634458 1_555
Zn18 Zn21 2.722931 1_665
Zn18 Zn19 2.922325 1_555
Zn18 Zn97 2.922325 1_555
Zn19 Zn44 2.577271 1_655
Zn19 Zn53 2.602373 1_555
Zn19 Zn97 2.846127 1_555
Zn19 Zn32 2.922325 1_555
Zn19 Zn65 3.017039 1_555
Zn20 Zn3 2.597716 1_555
Zn20 Zn45 2.597716 1_555
Zn20 Zn73 2.616502 1_555
Zn20 Zn80 2.900557 1_455
Zn20 Zn75 2.900557 1_555
Zn21 Zn70 2.722931 1_455
Zn21 Zn94 2.722931 1_555
Zn21 Zn73 2.722931 1_555
Zn21 Zn32 2.722931 1_445
Zn22 Zn34 2.597716 1_555
Zn22 Zn57 2.630043 1_555
Zn22 Zn84 3.072434 1_545
Zn23 Zn25 2.628172 1_555
Zn23 Zn29 2.628172 1_555
Zn23 Zn93 2.639546 1_555
Zn23 Zn52 2.834557 1_555
Zn23 Zn81 2.834557 1_555
Zn23 Zn98 2.876515 1_555
Zn24 Zn7 2.628172 1_555
Zn24 Zn33 2.630043 1_555
Zn24 Zn31 2.759269 1_555
Zn25 Zn26 2.553099 1_555
Zn25 Zn52 2.628172 1_555
Zn25 Zn77 2.630043 1_555
Zn25 Zn83 2.759269 1_555
Zn26 Zn4 2.628172 1_555
Zn26 Zn79 2.628172 1_555
Zn26 Zn56 2.630043 1_555
Zn26 Zn6 2.630043 1_555
Zn26 Zn83 2.759269 1_555
Zn27 Zn76 2.577271 1_655
Zn27 Zn57 2.630043 1_555
Zn27 Zn72 2.667338 1_655
Zn27 Zn66 3.072434 1_655
Zn28 Zn36 2.577271 1_565
Zn28 Zn90 2.846127 1_555
Zn28 Zn8 2.922325 1_555
Zn28 Zn96 2.922325 1_555
Zn28 Zn84 3.017039 1_555
Zn29 Zn81 2.628172 1_555
Zn29 Zn3 2.630043 1_555
Zn29 Zn83 2.759269 1_555
Zn30 Zn38 2.577271 1_455
Zn30 Zn80 2.597716 1_455
Zn30 Zn85 2.667338 1_555
Zn31 Zn87 2.759258 1_555
Zn31 Zn82 2.759258 1_555
Zn31 Zn78 2.759269 1_555
Zn32 Zn39 2.616502 1_656
Zn32 Zn97 2.922325 1_555
Zn33 Zn38 2.577271 1_455
Zn33 Zn72 2.667338 1_556
Zn33 Zn65 3.072434 1_455
Zn34 Zn92 2.597716 1_544
Zn34 Zn63 2.616502 1_545
Zn35 Zn62 2.630043 1_555
Zn35 Zn50 2.667338 1_555
Zn36 Zn89 2.597716 1_555
Zn36 Zn84 3.072434 1_545
Zn37 Zn64 2.577271 1_545
Zn37 Zn95 2.602373 1_555
Zn37 Zn99 2.846127 1_555
Zn37 Zn94 2.922325 1_555
Zn37 Zn73 2.922325 1_555
Zn37 Zn9 3.017039 1_555
Zn37 Zn46 3.017039 1_555
Zn38 Zn42 2.846127 1_555
Zn38 Zn70 2.922325 1_555
Zn38 Zn65 3.017039 1_555
Zn39 Zn6 2.597716 1_455
Zn39 Zn96 2.616502 1_555
Zn39 Zn89 2.900557 1_565
Zn40 Zn86 2.570288 1_555
Zn40 Zn49 2.971081 1_555
Zn40 Zn68 3.017039 1_555
Zn40 Zn58 3.017039 1_555
Zn40 Zn56 3.072434 1_555
Zn40 Zn48 3.072434 1_555
Zn41 Zn85 2.570288 1_555
Zn41 Zn88 2.653969 1_555
Zn41 Zn61 2.876515 1_555
Zn41 Zn66 2.971081 1_555
Zn41 Zn90 3.017039 1_555
Zn41 Zn76 3.017039 1_555
Zn41 Zn67 3.072434 1_455
Zn42 Zn92 2.577271 1_545
Zn42 Zn70 2.922325 1_555
Zn42 Zn9 3.017039 1_555
Zn42 Zn46 3.017039 1_555
Zn43 Zn74 2.616502 1_555
Zn43 Zn60 2.722931 1_555
Zn43 Zn76 2.922325 1_555
Zn43 Zn58 2.922325 1_555
Zn44 Zn91 2.597716 1_555
Zn44 Zn87 2.630043 1_555
Zn44 Zn85 2.667338 1_555
Zn45 Zn99 2.577271 1_555
Zn45 Zn93 2.667338 1_555
Zn45 Zn98 3.072434 1_555
Zn46 Zn55 2.653969 1_555
Zn46 Zn95 2.695123 1_555
Zn46 Zn51 2.876515 1_556
Zn46 Zn9 2.971081 1_555
Zn46 Zn64 3.072434 1_545
Zn46 Zn92 3.072434 1_545
Zn47 Zn97 2.577271 1_555
Zn47 Zn71 2.597716 1_555
Zn47 Zn78 2.630043 1_555
Zn47 Zn93 2.667338 1_555
Zn47 Zn98 3.072434 1_555
Zn48 Zn58 2.577271 1_555
Zn48 Zn74 2.597716 1_555
Zn48 Zn86 2.667338 1_555
Zn49 Zn93 2.570288 1_555
Zn49 Zn88 2.653981 1_555
Zn49 Zn59 2.876515 1_555
Zn49 Zn68 3.017039 1_555
Zn49 Zn58 3.017039 1_555
Zn49 Zn77 3.072434 1_555
Zn50 Zn9 2.570288 1_555
Zn50 Zn81 2.639546 1_555
Zn51 Zn57 2.628172 1_555
Zn51 Zn55 2.629649 1_554
Zn51 Zn79 2.834557 1_555
Zn52 Zn62 2.628172 1_555
Zn52 Zn85 2.639546 1_655
Zn52 Zn81 2.834557 1_555
Zn53 Zn97 2.602373 1_555
Zn53 Zn55 2.682321 1_555
Zn53 Zn98 2.695123 1_555
Zn53 Zn69 2.695123 1_555
Zn53 Zn65 2.695123 1_555
Zn53 Zn95 2.782493 1_555
Zn54 Zn82 2.628172 1_555
Zn54 Zn7 2.834557 1_555
Zn54 Zn84 2.876515 1_556
Zn55 Zn79 2.629649 1_556
Zn55 Zn65 2.653969 1_555
Zn55 Zn69 2.653981 1_555
Zn55 Zn95 2.682321 1_555
Zn56 Zn68 2.577271 1_555
Zn56 Zn86 2.667338 1_555
Zn57 Zn62 2.553099 1_555
Zn57 Zn79 2.628172 1_555
Zn57 Zn83 2.759258 1_555
Zn58 Zn76 2.846127 1_555
Zn59 Zn78 2.628172 1_555
Zn59 Zn88 2.629657 1_555
Zn59 Zn93 2.639546 1_555
Zn59 Zn61 2.834557 1_555
Zn60 Zn96 2.722931 1_545
Zn60 Zn8 2.722931 1_545
Zn60 Zn63 2.722931 1_445
Zn61 Zn87 2.628172 1_555
Zn61 Zn88 2.629649 1_555
Zn61 Zn85 2.639546 1_555
Zn62 Zn81 2.628172 1_555
Zn62 Zn67 2.630043 1_555
Zn62 Zn83 2.759258 1_555
Zn63 Zn68 2.922325 1_555
Zn64 Zn89 2.597716 1_566
Zn64 Zn82 2.630043 1_555
Zn65 Zn72 2.570288 1_656
Zn65 Zn79 2.876515 1_556
Zn66 Zn72 2.570288 1_555
Zn66 Zn7 2.876515 1_554
Zn66 Zn90 3.017039 1_555
Zn66 Zn76 3.017039 1_555
Zn67 Zn76 2.577271 1_655
Zn67 Zn80 2.597716 1_555
Zn67 Zn85 2.667338 1_655
Zn68 Zn77 2.577271 1_555
Zn69 Zn86 2.570288 1_556
Zn69 Zn95 2.695123 1_555
Zn69 Zn98 2.971081 1_555
Zn69 Zn99 3.017039 1_555
Zn69 Zn97 3.017039 1_555
Zn70 Zn80 2.616502 1_555
Zn71 Zn77 2.597716 1_555
Zn71 Zn91 2.900557 1_655
Zn72 Zn79 2.639546 1_455
Zn73 Zn75 2.616502 1_555
Zn73 Zn94 2.634458 1_555
Zn73 Zn99 2.922325 1_555
Zn74 Zn94 2.616502 1_554
Zn74 Zn89 2.900557 1_555
Zn75 Zn8 2.616502 1_545
Zn75 Zn91 2.900557 1_545
Zn77 Zn93 2.667338 1_555
Zn81 Zn9 2.876515 1_555
Zn82 Zn87 2.553099 1_555
Zn89 Zn94 2.616502 1_554
Zn89 Zn96 2.616502 1_545
Zn90 Zn96 2.922325 1_555
Zn93 Zn98 2.570288 1_555
Zn94 Zn99 2.922325 1_555
Zn95 Zn99 2.602373 1_555
Zn95 Zn98 2.695123 1_555
Zn97 Zn98 3.017039 1_555
Zn98 Zn99 3.017039 1_555
Zn100 Zn90 2.602373 1_555
Zn100 Zn28 2.602373 1_555
Zn100 Zn102 2.682314 1_555
Zn100 Zn88 2.682314 1_555
Zn100 Zn84 2.695123 1_555
Zn100 Zn12 2.695123 1_555
Zn100 Zn66 2.695123 1_555
Zn100 Zn41 2.695123 1_555
Zn100 Zn115 2.782493 1_555
Zn100 Zn103 2.782493 1_555
Zn101 Zn90 2.577271 1_655
Zn101 Zn91 2.597716 1_655
Zn101 Zn25 2.630043 1_555
Zn101 Zn85 2.667338 1_655
Zn101 Zn41 3.072434 1_655
Zn102 Zn7 2.629649 1_554
Zn102 Zn54 2.629649 1_554
Zn102 Zn110 2.629657 1_554
Zn102 Zn66 2.653969 1_555
Zn102 Zn84 2.653969 1_555
Zn102 Zn40 2.653981 1_555
Zn102 Zn115 2.682321 1_555
Zn102 Zn103 2.682321 1_555
Zn103 Zn76 2.602373 1_555
Zn103 Zn58 2.602373 1_555
Zn103 Zn88 2.682321 1_555
Zn103 Zn40 2.695123 1_555
Zn103 Zn49 2.695123 1_555
Zn103 Zn66 2.695123 1_555
Zn103 Zn41 2.695123 1_555
Zn103 Zn115 2.782493 1_555
Zn104 Zn2 2.597716 1_545
Zn104 Zn35 2.597716 1_555
Zn104 Zn70 2.616502 1_555
Zn104 Zn80 2.900557 1_555
Zn104 Zn71 2.900557 1_545
Zn105 Zn35 2.577271 1_565
Zn105 Zn22 2.577271 1_565
Zn105 Zn115 2.602373 1_555
Zn105 Zn68 2.846127 1_555
Zn105 Zn63 2.922325 1_555
Zn105 Zn12 3.017039 1_555
Zn105 Zn84 3.017039 1_555
Zn106 Zn46 2.570288 1_554
Zn106 Zn84 2.570288 1_545
Zn106 Zn51 2.639546 1_555
Zn106 Zn54 2.639546 1_544
Zn106 Zn22 2.667338 1_555
Zn106 Zn64 2.667338 1_544
Zn106 Zn92 2.667338 1_544
Zn106 Zn36 2.667338 1_555
Zn107 Zn85 2.570288 1_655
Zn107 Zn113 2.653969 1_555
Zn107 Zn53 2.695123 1_555
Zn107 Zn11 2.695123 1_555
Zn107 Zn52 2.876515 1_555
Zn107 Zn65 2.971081 1_555
Zn107 Zn38 3.017039 1_555
Zn107 Zn19 3.017039 1_555
Zn107 Zn30 3.072434 1_655
Zn107 Zn44 3.072434 1_655
Zn108 Zn37 2.577271 1_565
Zn108 Zn75 2.597716 1_565
Zn108 Zn87 2.630043 1_555
Zn108 Zn50 2.667338 1_565
Zn108 Zn9 3.072434 1_565
Zn109 Zn80 2.616502 1_455
Zn109 Zn20 2.616502 1_555
Zn109 Zn43 2.634458 1_555
Zn109 Zn60 2.722931 1_555
Zn109 Zn76 2.922325 1_555
Zn109 Zn58 2.922325 1_555
Zn110 Zn24 2.628172 1_555
Zn110 Zn15 2.628172 1_555
Zn110 Zn86 2.639546 1_556
Zn110 Zn7 2.834557 1_555
Zn110 Zn54 2.834557 1_555
Zn110 Zn40 2.876515 1_556
Zn111 Zn34 2.616502 1_556
Zn111 Zn70 2.634458 1_555
Zn111 Zn21 2.722931 1_655
Zn111 Zn42 2.922325 1_555
Zn111 Zn38 2.922325 1_555
Zn112 Zn24 2.553099 1_555
Zn112 Zn59 2.628172 1_555
Zn112 Zn61 2.628172 1_555
Zn112 Zn45 2.630043 1_555
Zn112 Zn30 2.630043 1_555
Zn112 Zn31 2.759269 1_555
Zn113 Zn52 2.629649 1_555
Zn113 Zn81 2.629649 1_555
Zn113 Zn23 2.629657 1_555
Zn113 Zn9 2.653969 1_555
Zn113 Zn98 2.653981 1_555
Zn113 Zn95 2.682321 1_555
Zn113 Zn53 2.682321 1_555
Zn114 Zn87 2.628172 1_555
Zn114 Zn78 2.628172 1_555
Zn114 Zn88 2.629649 1_555
Zn114 Zn50 2.639546 1_565
Zn114 Zn61 2.834557 1_555
Zn114 Zn59 2.834557 1_555
Zn114 Zn12 2.876515 1_555
Zn115 Zn68 2.602373 1_555
Zn115 Zn88 2.682321 1_555
Zn115 Zn84 2.695123 1_555
Zn115 Zn12 2.695123 1_555
Zn115 Zn49 2.695123 1_555
Zn115 Zn40 2.695123 1_555
