# generated using pymatgen
data_Ce5(SiN3)3
_symmetry_space_group_name_H-M   'P 1'
_cell_length_a   7.71810538
_cell_length_b   7.71810538
_cell_length_c   15.74858600
_cell_angle_alpha   90.00000000
_cell_angle_beta   90.00000000
_cell_angle_gamma   93.61946353
_symmetry_Int_Tables_number   1
_chemical_formula_structural   Ce5(SiN3)3
_chemical_formula_sum   'Ce20 Si12 N36'
_cell_volume   936.25864338
_cell_formula_units_Z   4
loop_
 _symmetry_equiv_pos_site_id
 _symmetry_equiv_pos_as_xyz
  1  'x, y, z'
loop_
 _atom_site_type_symbol
 _atom_site_label
 _atom_site_symmetry_multiplicity
 _atom_site_fract_x
 _atom_site_fract_y
 _atom_site_fract_z
 _atom_site_occupancy
  Ce  Ce0  1  0.01478100  0.98521900  0.66142800  1
  Ce  Ce1  1  0.99429600  0.00570400  0.88815100  1
  Ce  Ce2  1  0.98521900  0.01478100  0.33857200  1
  Ce  Ce3  1  0.70477400  0.70477400  0.00000000  1
  Ce  Ce4  1  0.95571800  0.46863200  0.62793600  1
  Ce  Ce5  1  0.79522600  0.79522600  0.50000000  1
  Ce  Ce6  1  0.51478100  0.48521900  0.83857200  1
  Ce  Ce7  1  0.50570400  0.49429600  0.38815100  1
  Ce  Ce8  1  0.29522600  0.29522600  0.00000000  1
  Ce  Ce9  1  0.48521900  0.51478100  0.16142800  1
  Ce  Ce10  1  0.54428200  0.03136800  0.12793600  1
  Ce  Ce11  1  0.49429600  0.50570400  0.61184900  1
  Ce  Ce12  1  0.03136800  0.54428200  0.87206400  1
  Ce  Ce13  1  0.46863200  0.95571800  0.37206400  1
  Ce  Ce14  1  0.20477400  0.20477400  0.50000000  1
  Ce  Ce15  1  0.96863200  0.45571800  0.12793600  1
  Ce  Ce16  1  0.00570400  0.99429600  0.11184900  1
  Ce  Ce17  1  0.04428200  0.53136800  0.37206400  1
  Ce  Ce18  1  0.53136800  0.04428200  0.62793600  1
  Ce  Ce19  1  0.45571800  0.96863200  0.87206400  1
  Si  Si0  1  0.72681400  0.27318600  0.27305900  1
  Si  Si1  1  0.27318600  0.72681400  0.72694100  1
  Si  Si2  1  0.76041700  0.23958300  0.98394700  1
  Si  Si3  1  0.71595400  0.78404600  0.75000000  1
  Si  Si4  1  0.23958300  0.76041700  0.01605300  1
  Si  Si5  1  0.26041700  0.73958300  0.51605300  1
  Si  Si6  1  0.73958300  0.26041700  0.48394700  1
  Si  Si7  1  0.77318600  0.22681400  0.77305900  1
  Si  Si8  1  0.21595400  0.28404600  0.75000000  1
  Si  Si9  1  0.78404600  0.71595400  0.25000000  1
  Si  Si10  1  0.28404600  0.21595400  0.25000000  1
  Si  Si11  1  0.22681400  0.77318600  0.22694100  1
  N  N0  1  0.98759800  0.27798100  0.99861400  1
  N  N1  1  0.74345900  0.00691700  0.75840100  1
  N  N2  1  0.63580600  0.36419400  0.05028200  1
  N  N3  1  0.30373900  0.22624800  0.84670700  1
  N  N4  1  0.65605300  0.34394700  0.70285400  1
  N  N5  1  0.27375200  0.19626100  0.65329300  1
  N  N6  1  0.19626100  0.27375200  0.34670700  1
  N  N7  1  0.34394700  0.65605300  0.29714600  1
  N  N8  1  0.72201900  0.01240200  0.99861400  1
  N  N9  1  0.15605300  0.84394700  0.79714600  1
  N  N10  1  0.25654100  0.99308300  0.24159900  1
  N  N11  1  0.72262300  0.27737700  0.87648700  1
  N  N12  1  0.27737700  0.72262300  0.12351300  1
  N  N13  1  0.80373900  0.72624800  0.65329300  1
  N  N14  1  0.00691700  0.74345900  0.24159900  1
  N  N15  1  0.13580600  0.86419400  0.44971800  1
  N  N16  1  0.69626100  0.77375200  0.15329300  1
  N  N17  1  0.50691700  0.24345900  0.25840100  1
  N  N18  1  0.01240200  0.72201900  0.00138600  1
  N  N19  1  0.77737700  0.22262300  0.37648700  1
  N  N20  1  0.49308300  0.75654100  0.74159900  1
  N  N21  1  0.72624800  0.80373900  0.34670700  1
  N  N22  1  0.51240200  0.22201900  0.49861400  1
  N  N23  1  0.75654100  0.49308300  0.25840100  1
  N  N24  1  0.22624800  0.30373900  0.15329300  1
  N  N25  1  0.36419400  0.63580600  0.94971800  1
  N  N26  1  0.24345900  0.50691700  0.74159900  1
  N  N27  1  0.22201900  0.51240200  0.50138600  1
  N  N28  1  0.27798100  0.98759800  0.00138600  1
  N  N29  1  0.77375200  0.69626100  0.84670700  1
  N  N30  1  0.99308300  0.25654100  0.75840100  1
  N  N31  1  0.84394700  0.15605300  0.20285400  1
  N  N32  1  0.77798100  0.48759800  0.49861400  1
  N  N33  1  0.48759800  0.77798100  0.50138600  1
  N  N34  1  0.22262300  0.77737700  0.62351300  1
  N  N35  1  0.86419400  0.13580600  0.55028200  1
loop_
_geom_bond_atom_site_label_1
_geom_bond_atom_site_label_2
_geom_bond_distance
_geom_bond_site_symmetry_2
Ce0 N34 2.414127 1_555
Ce0 N35 2.436403 1_465
Ce0 N13 2.500710 1_455
Ce0 N5 2.500710 1_565
Ce0 N1 2.605733 1_465
Ce0 N30 2.605733 1_465
Ce0 N9 2.663865 1_555
Ce1 N9 2.316926 1_645
Ce1 N0 2.731093 1_555
Ce1 N8 2.731093 1_555
Ce1 N18 2.834121 1_646
Ce1 N28 2.834121 1_646
Ce2 N19 2.414127 1_555
Ce2 N15 2.436403 1_645
Ce2 N21 2.500710 1_545
Ce2 N6 2.500710 1_655
Ce2 N14 2.605733 1_645
Ce2 N10 2.605733 1_645
Ce2 N31 2.663865 1_555
Ce3 N18 2.369729 1_655
Ce3 N8 2.369729 1_564
Ce3 N16 2.473918 1_555
Ce3 N29 2.473918 1_554
Ce3 N2 2.764679 1_555
Ce3 N25 2.764679 1_554
Ce4 N13 2.404831 1_555
Ce4 N32 2.465055 1_555
Ce4 N30 2.654032 1_555
Ce4 N4 2.717788 1_555
Ce4 N26 2.853190 1_655
Ce4 N27 2.867553 1_655
Ce4 N35 2.892081 1_555
Ce4 N34 3.050739 1_655
Ce5 N32 2.369729 1_555
Ce5 N33 2.369729 1_555
Ce5 N13 2.473918 1_555
Ce5 N21 2.473918 1_555
Ce5 N35 2.764679 1_565
Ce5 N15 2.764679 1_655
Ce6 N11 2.414127 1_555
Ce6 N25 2.436403 1_555
Ce6 N3 2.500710 1_555
Ce6 N29 2.500710 1_555
Ce6 N26 2.605733 1_555
Ce6 N20 2.605733 1_555
Ce6 N4 2.663865 1_555
Ce7 N7 2.316926 1_555
Ce7 N22 2.731093 1_555
Ce7 N32 2.731093 1_555
Ce7 N27 2.834121 1_555
Ce7 N33 2.834121 1_555
Ce8 N28 2.369729 1_545
Ce8 N0 2.369729 1_454
Ce8 N24 2.473918 1_555
Ce8 N3 2.473918 1_554
Ce8 N2 2.764679 1_555
Ce8 N25 2.764679 1_554
Ce9 N12 2.414127 1_555
Ce9 N2 2.436403 1_555
Ce9 N24 2.500710 1_555
Ce9 N16 2.500710 1_555
Ce9 N17 2.605733 1_555
Ce9 N23 2.605733 1_555
Ce9 N7 2.663865 1_555
Ce10 N16 2.404831 1_545
Ce10 N8 2.465055 1_554
Ce10 N17 2.654032 1_555
Ce10 N31 2.717788 1_555
Ce10 N10 2.853190 1_545
Ce10 N28 2.867553 1_545
Ce10 N2 2.892081 1_555
Ce10 N12 3.050739 1_545
Ce11 N4 2.316926 1_555
Ce11 N27 2.731093 1_555
Ce11 N33 2.731093 1_555
Ce11 N22 2.834121 1_555
Ce11 N32 2.834121 1_555
Ce12 N29 2.404831 1_455
Ce12 N18 2.465055 1_556
Ce12 N26 2.654032 1_555
Ce12 N9 2.717788 1_555
Ce12 N30 2.853190 1_455
Ce12 N0 2.867553 1_455
Ce12 N25 2.892081 1_555
Ce12 N11 3.050739 1_455
Ce13 N21 2.404831 1_555
Ce13 N33 2.465055 1_555
Ce13 N10 2.654032 1_555
Ce13 N7 2.717788 1_555
Ce13 N17 2.853190 1_565
Ce13 N22 2.867553 1_565
Ce13 N15 2.892081 1_555
Ce13 N19 3.050739 1_565
Ce14 N27 2.369729 1_555
Ce14 N22 2.369729 1_555
Ce14 N5 2.473918 1_555
Ce14 N6 2.473918 1_555
Ce14 N35 2.764679 1_455
Ce14 N15 2.764679 1_545
Ce15 N24 2.404831 1_655
Ce15 N0 2.465055 1_554
Ce15 N23 2.654032 1_555
Ce15 N31 2.717788 1_555
Ce15 N14 2.853190 1_655
Ce15 N18 2.867553 1_655
Ce15 N2 2.892081 1_555
Ce15 N12 3.050739 1_655
Ce16 N31 2.316926 1_465
Ce16 N28 2.731093 1_555
Ce16 N18 2.731093 1_555
Ce16 N8 2.834121 1_464
Ce16 N0 2.834121 1_464
Ce17 N6 2.404831 1_555
Ce17 N27 2.465055 1_555
Ce17 N14 2.654032 1_555
Ce17 N7 2.717788 1_555
Ce17 N23 2.853190 1_455
Ce17 N32 2.867553 1_455
Ce17 N15 2.892081 1_555
Ce17 N19 3.050739 1_455
Ce18 N5 2.404831 1_555
Ce18 N22 2.465055 1_555
Ce18 N1 2.654032 1_555
Ce18 N4 2.717788 1_555
Ce18 N20 2.853190 1_545
Ce18 N33 2.867553 1_545
Ce18 N35 2.892081 1_555
Ce18 N34 3.050739 1_545
Ce19 N3 2.404831 1_565
Ce19 N28 2.465055 1_556
Ce19 N20 2.654032 1_555
Ce19 N9 2.717788 1_555
Ce19 N1 2.853190 1_565
Ce19 N8 2.867553 1_565
Ce19 N25 2.892081 1_555
Ce19 N11 3.050739 1_565
N0 Si2 1.774827 1_555
N1 Si7 1.713830 1_555
N1 Si3 1.724921 1_545
N2 Si2 1.748747 1_554
N3 Si8 1.736587 1_555
N4 Si7 1.720524 1_555
N5 Si8 1.736587 1_555
N6 Si10 1.736587 1_555
N7 Si11 1.720524 1_555
N8 Si2 1.774827 1_555
N9 Si1 1.720524 1_555
N10 Si11 1.713830 1_555
N10 Si10 1.724921 1_565
N11 Si7 1.725385 1_555
N11 Si2 1.744977 1_555
N12 Si11 1.725385 1_555
N12 Si4 1.744977 1_555
N13 Si3 1.736587 1_555
N14 Si11 1.713830 1_555
N14 Si9 1.724921 1_455
N15 Si5 1.748747 1_555
N16 Si9 1.736587 1_555
N17 Si0 1.713830 1_555
N17 Si10 1.724921 1_555
N18 Si4 1.774827 1_555
N19 Si0 1.725385 1_555
N19 Si6 1.744977 1_555
N20 Si1 1.713830 1_555
N20 Si3 1.724921 1_555
N21 Si9 1.736587 1_555
N22 Si6 1.774827 1_555
N23 Si0 1.713830 1_555
N23 Si9 1.724921 1_555
N24 Si10 1.736587 1_555
N25 Si4 1.748747 1_556
N26 Si1 1.713830 1_555
N26 Si8 1.724921 1_555
N27 Si5 1.774827 1_555
N28 Si4 1.774827 1_555
N29 Si3 1.736587 1_555
N30 Si7 1.713830 1_555
N30 Si8 1.724921 1_655
N31 Si0 1.720524 1_555
N32 Si6 1.774827 1_555
N33 Si5 1.774827 1_555
N34 Si1 1.725385 1_555
N34 Si5 1.744977 1_555
N35 Si6 1.748747 1_555
