# generated using pymatgen
data_Cs2As2OF10
_symmetry_space_group_name_H-M   'P 1'
_cell_length_a   10.92705000
_cell_length_b   5.70519700
_cell_length_c   9.39125755
_cell_angle_alpha   74.71285720
_cell_angle_beta   90.00000000
_cell_angle_gamma   90.00000000
_symmetry_Int_Tables_number   1
_chemical_formula_structural   Cs2As2OF10
_chemical_formula_sum   'Cs4 As4 O2 F20'
_cell_volume   564.74456669
_cell_formula_units_Z   2
loop_
 _symmetry_equiv_pos_site_id
 _symmetry_equiv_pos_as_xyz
  1  'x, y, z'
loop_
 _atom_site_type_symbol
 _atom_site_label
 _atom_site_symmetry_multiplicity
 _atom_site_fract_x
 _atom_site_fract_y
 _atom_site_fract_z
 _atom_site_occupancy
  Cs  Cs0  1  0.98433800  0.82406700  0.75269800  1
  Cs  Cs1  1  0.01566200  0.17593300  0.24730200  1
  Cs  Cs2  1  0.48433800  0.17593300  0.24730200  1
  Cs  Cs3  1  0.51566200  0.82406700  0.75269800  1
  As  As0  1  0.25000000  0.49438400  0.52260100  1
  As  As1  1  0.25000000  0.27491800  0.88639300  1
  As  As2  1  0.75000000  0.72508200  0.11360700  1
  As  As3  1  0.75000000  0.50561600  0.47739900  1
  O  O0  1  0.25000000  0.50727700  0.71355200  1
  O  O1  1  0.75000000  0.49272300  0.28644800  1
  F  F0  1  0.13316100  0.26828300  0.54856000  1
  F  F1  1  0.91513100  0.73278600  0.10636100  1
  F  F2  1  0.36430800  0.72708200  0.48338000  1
  F  F3  1  0.08486900  0.26721400  0.89363900  1
  F  F4  1  0.25000000  0.02129800  0.81031200  1
  F  F5  1  0.75000000  0.48809100  0.02322400  1
  F  F6  1  0.75000000  0.97870200  0.18968800  1
  F  F7  1  0.86430800  0.27291800  0.51662000  1
  F  F8  1  0.75000000  0.93525900  0.93368700  1
  F  F9  1  0.25000000  0.06474100  0.06631300  1
  F  F10  1  0.63316100  0.73171700  0.45144000  1
  F  F11  1  0.25000000  0.50109300  0.33092400  1
  F  F12  1  0.25000000  0.51190900  0.97677600  1
  F  F13  1  0.13569200  0.72708200  0.48338000  1
  F  F14  1  0.86683900  0.73171700  0.45144000  1
  F  F15  1  0.41513100  0.26721400  0.89363900  1
  F  F16  1  0.63569200  0.27291800  0.51662000  1
  F  F17  1  0.36683900  0.26828300  0.54856000  1
  F  F18  1  0.75000000  0.49890700  0.66907600  1
  F  F19  1  0.58486900  0.73278600  0.10636100  1
loop_
_geom_bond_atom_site_label_1
_geom_bond_atom_site_label_2
_geom_bond_distance
_geom_bond_site_symmetry_2
Cs0 F13 3.190044 1_655
Cs0 F0 3.190721 1_665
Cs0 F7 3.193657 1_565
Cs0 F4 3.210422 1_665
Cs0 F8 3.227510 1_555
Cs0 F14 3.273590 1_555
Cs0 F3 3.291555 1_655
Cs0 F1 3.310938 1_556
Cs0 F3 3.333959 1_665
Cs0 F18 3.373889 1_555
Cs1 F7 3.190044 1_455
Cs1 F14 3.190721 1_445
Cs1 F13 3.193657 1_545
Cs1 F6 3.210422 1_445
Cs1 F9 3.227510 1_555
Cs1 F0 3.273590 1_555
Cs1 F1 3.291555 1_455
Cs1 F3 3.310938 1_554
Cs1 F1 3.333959 1_445
Cs1 F11 3.373889 1_555
Cs2 F16 3.190044 1_555
Cs2 F10 3.190721 1_545
Cs2 F2 3.193657 1_545
Cs2 F6 3.210422 1_545
Cs2 F9 3.227510 1_555
Cs2 F17 3.273590 1_555
Cs2 F19 3.291555 1_555
Cs2 F15 3.310938 1_554
Cs2 F19 3.333959 1_545
Cs2 F11 3.373889 1_555
Cs3 F2 3.190044 1_555
Cs3 F17 3.190721 1_565
Cs3 F16 3.193657 1_565
Cs3 F4 3.210422 1_565
Cs3 F8 3.227510 1_555
Cs3 F10 3.273590 1_555
Cs3 F15 3.291555 1_555
Cs3 F19 3.310938 1_556
Cs3 F15 3.333959 1_565
Cs3 F18 3.373889 1_555
As0 F0 1.785373 1_555
As0 F17 1.785373 1_555
As0 F2 1.788974 1_555
As0 F13 1.788974 1_555
As0 F11 1.790377 1_555
As0 O0 1.814052 1_555
As1 F4 1.774636 1_555
As1 F12 1.775887 1_555
As1 F9 1.795678 1_556
As1 O0 1.804840 1_555
As1 F15 1.805776 1_555
As1 F3 1.805776 1_555
As2 F6 1.774636 1_555
As2 F5 1.775887 1_555
As2 F8 1.795678 1_554
As2 O1 1.804840 1_555
As2 F1 1.805776 1_555
As2 F19 1.805776 1_555
As3 F14 1.785373 1_555
As3 F10 1.785373 1_555
As3 F7 1.788974 1_555
As3 F16 1.788974 1_555
As3 F18 1.790377 1_555
As3 O1 1.814052 1_555
