# generated using pymatgen
data_Sm2Co7B3
_symmetry_space_group_name_H-M   'P 1'
_cell_length_a   5.02056986
_cell_length_b   5.02056986
_cell_length_c   12.71996100
_cell_angle_alpha   90.00000000
_cell_angle_beta   90.00000000
_cell_angle_gamma   119.99999816
_symmetry_Int_Tables_number   1
_chemical_formula_structural   Sm2Co7B3
_chemical_formula_sum   'Sm4 Co14 B6'
_cell_volume   277.66583677
_cell_formula_units_Z   2
loop_
 _symmetry_equiv_pos_site_id
 _symmetry_equiv_pos_as_xyz
  1  'x, y, z'
loop_
 _atom_site_type_symbol
 _atom_site_label
 _atom_site_symmetry_multiplicity
 _atom_site_fract_x
 _atom_site_fract_y
 _atom_site_fract_z
 _atom_site_occupancy
  Sm  Sm0  1  0.00000000  0.00000000  0.00000000  1
  Sm  Sm1  1  0.00000000  0.00000000  0.50000000  1
  Sm  Sm2  1  0.00000000  0.00000000  0.74057700  1
  Sm  Sm3  1  0.00000000  0.00000000  0.25942300  1
  Co  Co0  1  0.66666700  0.33333300  0.00000000  1
  Co  Co1  1  0.33333300  0.66666700  0.00000000  1
  Co  Co2  1  0.50000000  0.50000000  0.84666400  1
  Co  Co3  1  0.50000000  0.00000000  0.84666400  1
  Co  Co4  1  0.00000000  0.50000000  0.84666400  1
  Co  Co5  1  0.50000000  0.50000000  0.15333600  1
  Co  Co6  1  0.50000000  0.00000000  0.15333600  1
  Co  Co7  1  0.00000000  0.50000000  0.15333600  1
  Co  Co8  1  0.50000000  0.50000000  0.61769200  1
  Co  Co9  1  0.50000000  0.00000000  0.61769200  1
  Co  Co10  1  0.00000000  0.50000000  0.61769200  1
  Co  Co11  1  0.50000000  0.50000000  0.38230800  1
  Co  Co12  1  0.50000000  0.00000000  0.38230800  1
  Co  Co13  1  0.00000000  0.50000000  0.38230800  1
  B  B0  1  0.66666700  0.33333300  0.50000000  1
  B  B1  1  0.33333300  0.66666700  0.50000000  1
  B  B2  1  0.66666700  0.33333300  0.73388000  1
  B  B3  1  0.33333300  0.66666700  0.73388000  1
  B  B4  1  0.33333300  0.66666700  0.26612000  1
  B  B5  1  0.66666700  0.33333300  0.26612000  1
loop_
_geom_bond_atom_site_label_1
_geom_bond_atom_site_label_2
_geom_bond_distance
_geom_bond_site_symmetry_2
Sm1 Sm3 3.060130 1_555
Sm1 Sm2 3.060130 1_555
Co0 Co4 2.429954 1_654
Co0 Co3 2.429954 1_554
Co0 Co7 2.429954 1_655
Co0 Co6 2.429954 1_555
Co0 Co5 2.429956 1_555
Co0 Co2 2.429956 1_554
Co0 Sm0 2.898624 1_655
Co0 Sm0 2.898629 1_665
Co0 Sm0 2.898629 1_555
Co1 Co6 2.429954 1_565
Co1 Co7 2.429954 1_555
Co1 Co4 2.429954 1_554
Co1 Co3 2.429954 1_564
Co1 Co5 2.429956 1_555
Co1 Co2 2.429956 1_554
Co1 Sm0 2.898624 1_565
Co1 Sm0 2.898629 1_665
Co1 Sm0 2.898629 1_555
Co2 Sm2 2.849995 1_555
Co2 Sm2 2.849995 1_665
Co3 Sm2 2.849995 1_555
Co3 Sm2 2.849995 1_655
Co4 Sm2 2.849995 1_565
Co4 Sm2 2.849995 1_555
Co5 Sm3 2.849995 1_555
Co5 Sm3 2.849995 1_665
Co6 Sm3 2.849995 1_555
Co6 Sm3 2.849995 1_655
Co7 Sm3 2.849995 1_555
Co7 Sm3 2.849995 1_565
Co8 Sm1 2.922782 1_555
Co8 Sm1 2.922782 1_665
Co8 Sm2 2.957159 1_665
Co8 Sm2 2.957159 1_555
Co9 Sm1 2.922782 1_655
Co9 Sm1 2.922782 1_555
Co9 Sm2 2.957159 1_555
Co9 Sm2 2.957159 1_655
Co10 Sm1 2.922782 1_565
Co10 Sm1 2.922782 1_555
Co10 Sm2 2.957159 1_565
Co10 Sm2 2.957159 1_555
Co11 Sm1 2.922782 1_555
Co11 Sm1 2.922782 1_665
Co11 Sm3 2.957159 1_555
Co11 Sm3 2.957159 1_665
Co12 Sm1 2.922782 1_655
Co12 Sm1 2.922782 1_555
Co12 Sm3 2.957159 1_655
Co12 Sm3 2.957159 1_555
Co13 Sm1 2.922782 1_565
Co13 Sm1 2.922782 1_555
Co13 Sm3 2.957159 1_565
Co13 Sm3 2.957159 1_555
B0 Co13 2.083657 1_655
B0 Co10 2.083657 1_655
B0 Co12 2.083657 1_555
B0 Co9 2.083657 1_555
B0 Co11 2.083660 1_555
B0 Co8 2.083660 1_555
B0 Sm1 2.898624 1_655
B0 Sm1 2.898629 1_665
B0 Sm1 2.898629 1_555
B1 Co10 2.083657 1_555
B1 Co12 2.083657 1_565
B1 Co13 2.083657 1_555
B1 Co9 2.083657 1_565
B1 Co11 2.083660 1_555
B1 Co8 2.083660 1_555
B1 Sm1 2.898624 1_565
B1 Sm1 2.898629 1_665
B1 Sm1 2.898629 1_555
B2 Co4 2.039266 1_655
B2 Co3 2.039266 1_555
B2 Co2 2.039269 1_555
B2 Co10 2.069955 1_655
B2 Co9 2.069955 1_555
B2 Co8 2.069958 1_555
B2 Sm2 2.899876 1_655
B2 Sm2 2.899880 1_555
B2 Sm2 2.899880 1_665
B3 Co4 2.039266 1_555
B3 Co3 2.039266 1_565
B3 Co2 2.039269 1_555
B3 Co9 2.069955 1_565
B3 Co10 2.069955 1_555
B3 Co8 2.069958 1_555
B3 Sm2 2.899876 1_565
B3 Sm2 2.899880 1_665
B3 Sm2 2.899880 1_555
B4 Co6 2.039266 1_565
B4 Co7 2.039266 1_555
B4 Co5 2.039269 1_555
B4 Co12 2.069955 1_565
B4 Co13 2.069955 1_555
B4 Co11 2.069958 1_555
B4 Sm3 2.899876 1_565
B4 Sm3 2.899880 1_665
B4 Sm3 2.899880 1_555
B5 Co7 2.039266 1_655
B5 Co6 2.039266 1_555
B5 Co5 2.039269 1_555
B5 Co12 2.069955 1_555
B5 Co13 2.069955 1_655
B5 Co11 2.069958 1_555
B5 Sm3 2.899876 1_655
B5 Sm3 2.899880 1_555
B5 Sm3 2.899880 1_665
