# generated using pymatgen
data_BaYFe2O5
_symmetry_space_group_name_H-M   'P 1'
_cell_length_a   3.97091600
_cell_length_b   7.70350200
_cell_length_c   7.94883300
_cell_angle_alpha   90.00000000
_cell_angle_beta   90.00000000
_cell_angle_gamma   90.00000000
_symmetry_Int_Tables_number   1
_chemical_formula_structural   BaYFe2O5
_chemical_formula_sum   'Ba2 Y2 Fe4 O10'
_cell_volume   243.15447833
_cell_formula_units_Z   2
loop_
 _symmetry_equiv_pos_site_id
 _symmetry_equiv_pos_as_xyz
  1  'x, y, z'
loop_
 _atom_site_type_symbol
 _atom_site_label
 _atom_site_symmetry_multiplicity
 _atom_site_fract_x
 _atom_site_fract_y
 _atom_site_fract_z
 _atom_site_occupancy
  Ba  Ba0  1  0.00000000  0.00000000  0.50000000  1
  Ba  Ba1  1  0.00000000  0.00000000  0.00000000  1
  Y  Y0  1  0.00000000  0.50000000  0.50000000  1
  Y  Y1  1  0.00000000  0.50000000  0.00000000  1
  Fe  Fe0  1  0.50000000  0.27926200  0.75000000  1
  Fe  Fe1  1  0.50000000  0.25968800  0.25000000  1
  Fe  Fe2  1  0.50000000  0.74031200  0.75000000  1
  Fe  Fe3  1  0.50000000  0.72073800  0.25000000  1
  O  O0  1  0.50000000  0.31493400  0.00592100  1
  O  O1  1  0.00000000  0.68936500  0.75000000  1
  O  O2  1  0.50000000  0.31493400  0.49407900  1
  O  O3  1  0.50000000  0.68506600  0.99407900  1
  O  O4  1  0.50000000  0.01087100  0.25000000  1
  O  O5  1  0.00000000  0.32202000  0.75000000  1
  O  O6  1  0.50000000  0.68506600  0.50592100  1
  O  O7  1  0.00000000  0.31063500  0.25000000  1
  O  O8  1  0.00000000  0.67798000  0.25000000  1
  O  O9  1  0.50000000  0.98912900  0.75000000  1
loop_
_geom_bond_atom_site_label_1
_geom_bond_atom_site_label_2
_geom_bond_distance
_geom_bond_site_symmetry_2
Ba0 O4 2.810348 1_455
Ba0 O9 2.810348 1_445
Ba0 O4 2.810348 1_555
Ba0 O9 2.810348 1_545
Ba0 O1 3.110520 1_545
Ba0 O7 3.110520 1_555
Ba0 O2 3.135314 1_455
Ba0 O2 3.135314 1_555
Ba0 O6 3.135314 1_445
Ba0 O6 3.135314 1_545
Ba0 O8 3.178487 1_545
Ba0 O5 3.178487 1_555
Ba1 O4 2.810348 1_455
Ba1 O9 2.810348 1_544
Ba1 O9 2.810348 1_444
Ba1 O4 2.810348 1_555
Ba1 O7 3.110520 1_555
Ba1 O1 3.110520 1_544
Ba1 O0 3.135314 1_455
Ba1 O0 3.135314 1_555
Ba1 O3 3.135314 1_444
Ba1 O3 3.135314 1_544
Ba1 O8 3.178487 1_545
Ba1 O5 3.178487 1_554
Fe0 O5 2.012595 1_655
Fe0 O5 2.012595 1_555
Fe0 O2 2.052750 1_555
Fe0 O0 2.052750 1_556
Fe0 O9 2.235040 1_545
Fe1 O4 1.916762 1_555
Fe1 O2 1.986273 1_555
Fe1 O0 1.986273 1_555
Fe1 O7 2.023877 1_555
Fe1 O7 2.023877 1_655
Fe2 O9 1.916762 1_555
Fe2 O3 1.986273 1_555
Fe2 O6 1.986273 1_555
Fe2 O1 2.023877 1_555
Fe2 O1 2.023877 1_655
Fe3 O8 2.012595 1_655
Fe3 O8 2.012595 1_555
Fe3 O6 2.052750 1_555
Fe3 O3 2.052750 1_554
Fe3 O4 2.235040 1_565
O0 Y1 2.444740 1_555
O0 Y1 2.444740 1_655
O1 Y0 2.465161 1_555
O1 Y1 2.465161 1_556
O2 Y0 2.444740 1_655
O2 Y0 2.444740 1_555
O3 Y1 2.444740 1_656
O3 Y1 2.444740 1_556
O5 Y1 2.414297 1_556
O5 Y0 2.414297 1_555
O6 Y0 2.444740 1_555
O6 Y0 2.444740 1_655
O7 Y0 2.465161 1_555
O7 Y1 2.465161 1_555
O8 Y0 2.414297 1_555
O8 Y1 2.414297 1_555
