# generated using pymatgen
data_Ba3Tl2Cl2O5
_symmetry_space_group_name_H-M   'P 1'
_cell_length_a   13.32112850
_cell_length_b   13.32112850
_cell_length_c   13.32112850
_cell_angle_alpha   160.92209514
_cell_angle_beta   160.92209514
_cell_angle_gamma   27.10789112
_symmetry_Int_Tables_number   1
_chemical_formula_structural   Ba3Tl2Cl2O5
_chemical_formula_sum   'Ba3 Tl2 Cl2 O5'
_cell_volume   252.43875974
_cell_formula_units_Z   1
loop_
 _symmetry_equiv_pos_site_id
 _symmetry_equiv_pos_as_xyz
  1  'x, y, z'
loop_
 _atom_site_type_symbol
 _atom_site_label
 _atom_site_symmetry_multiplicity
 _atom_site_fract_x
 _atom_site_fract_y
 _atom_site_fract_z
 _atom_site_occupancy
  Ba  Ba0  1  0.16198100  0.16198100  0.00000000  1
  Ba  Ba1  1  0.83801900  0.83801900  0.00000000  1
  Ba  Ba2  1  0.00000000  0.00000000  0.00000000  1
  Tl  Tl0  1  0.41544600  0.41544600  0.00000000  1
  Tl  Tl1  1  0.58455400  0.58455400  0.00000000  1
  Cl  Cl0  1  0.70553600  0.70553600  0.00000000  1
  Cl  Cl1  1  0.29446400  0.29446400  0.00000000  1
  O  O0  1  0.59685500  0.09685500  0.50000000  1
  O  O1  1  0.40314500  0.90314500  0.50000000  1
  O  O2  1  0.09685500  0.59685500  0.50000000  1
  O  O3  1  0.90314500  0.40314500  0.50000000  1
  O  O4  1  0.50000000  0.50000000  0.00000000  1
loop_
_geom_bond_atom_site_label_1
_geom_bond_atom_site_label_2
_geom_bond_distance
_geom_bond_site_symmetry_2
Ba0 O2 2.778221 1_544
Ba0 O0 2.778221 1_454
Ba0 O2 2.778221 1_555
Ba0 O0 2.778221 1_555
Ba0 Cl0 3.319510 1_455
Ba0 Cl0 3.319510 1_556
Ba0 Cl0 3.319510 1_545
Ba0 Cl0 3.319510 1_444
Ba0 Cl1 3.431344 1_555
Ba1 O3 2.778221 1_565
Ba1 O1 2.778221 1_655
Ba1 O1 2.778221 1_554
Ba1 O3 2.778221 1_554
Ba1 Cl1 3.319510 1_666
Ba1 Cl1 3.319510 1_565
Ba1 Cl1 3.319510 1_655
Ba1 Cl1 3.319510 1_554
Ba1 Cl0 3.431344 1_555
Ba2 O4 3.121950 1_545
Ba2 O4 3.121950 1_455
Ba2 O4 3.121950 1_444
Ba2 O4 3.121950 1_556
Ba2 O0 3.341588 1_555
Ba2 O0 3.341588 1_454
Ba2 O3 3.341588 1_455
Ba2 O2 3.341588 1_555
Ba2 O1 3.341588 1_545
Ba2 O1 3.341588 1_444
Ba2 O2 3.341588 1_544
Ba2 O3 3.341588 1_444
Cl0 Tl1 3.133465 1_555
Cl1 Tl0 3.133465 1_555
O0 Tl1 2.230424 1_556
O0 Tl1 2.230424 1_545
O1 Tl0 2.230424 1_566
O1 Tl0 2.230424 1_555
O2 Tl1 2.230424 1_455
O2 Tl1 2.230424 1_556
O3 Tl0 2.230424 1_555
O3 Tl0 2.230424 1_656
O4 Tl1 2.189971 1_555
O4 Tl0 2.189971 1_555
