# generated using pymatgen
data_KY(WO4)2
_symmetry_space_group_name_H-M   'P 1'
_cell_length_a   7.60339251
_cell_length_b   7.60339251
_cell_length_c   7.49059302
_cell_angle_alpha   62.36365618
_cell_angle_beta   62.36365618
_cell_angle_gamma   88.31258136
_symmetry_Int_Tables_number   1
_chemical_formula_structural   KY(WO4)2
_chemical_formula_sum   'K2 Y2 W4 O16'
_cell_volume   330.21510365
_cell_formula_units_Z   2
loop_
 _symmetry_equiv_pos_site_id
 _symmetry_equiv_pos_as_xyz
  1  'x, y, z'
loop_
 _atom_site_type_symbol
 _atom_site_label
 _atom_site_symmetry_multiplicity
 _atom_site_fract_x
 _atom_site_fract_y
 _atom_site_fract_z
 _atom_site_occupancy
  K  K0  1  0.70558900  0.29441100  0.75000000  1
  K  K1  1  0.29441100  0.70558900  0.25000000  1
  Y  Y0  1  0.27693700  0.72306300  0.75000000  1
  Y  Y1  1  0.72306300  0.27693700  0.25000000  1
  W  W0  1  0.19189400  0.19605000  0.27628800  1
  W  W1  1  0.80395000  0.80810600  0.22371200  1
  W  W2  1  0.80810600  0.80395000  0.72371200  1
  W  W3  1  0.19605000  0.19189400  0.77628800  1
  O  O0  1  0.12019400  0.25526400  0.55343700  1
  O  O1  1  0.74473600  0.87980600  0.94656300  1
  O  O2  1  0.87980600  0.74473600  0.44656300  1
  O  O3  1  0.25526400  0.12019400  0.05343700  1
  O  O4  1  0.55992900  0.86805100  0.37622300  1
  O  O5  1  0.13194900  0.44007100  0.12377700  1
  O  O6  1  0.44007100  0.13194900  0.62377700  1
  O  O7  1  0.86805100  0.55992900  0.87622300  1
  O  O8  1  0.54145400  0.71408200  0.81224300  1
  O  O9  1  0.28591800  0.45854600  0.68775700  1
  O  O10  1  0.45854600  0.28591800  0.18775700  1
  O  O11  1  0.71408200  0.54145400  0.31224300  1
  O  O12  1  0.12910100  0.90560200  0.53209300  1
  O  O13  1  0.87089900  0.09439800  0.46790700  1
  O  O14  1  0.09439800  0.87089900  0.96790700  1
  O  O15  1  0.90560200  0.12910100  0.03209300  1
loop_
_geom_bond_atom_site_label_1
_geom_bond_atom_site_label_2
_geom_bond_distance
_geom_bond_site_symmetry_2
K0 O0 2.870442 1_655
K0 O1 2.870442 1_545
K0 O10 2.895048 1_556
K0 O11 2.895048 1_555
K0 O15 2.960107 1_556
K0 O13 2.960107 1_555
K0 O2 2.983055 1_555
K0 O3 2.983055 1_556
K0 O7 3.081671 1_555
K0 O6 3.081671 1_555
K1 O3 2.870442 1_565
K1 O2 2.870442 1_455
K1 O8 2.895048 1_554
K1 O9 2.895048 1_555
K1 O14 2.960107 1_554
K1 O12 2.960107 1_555
K1 O1 2.983055 1_554
K1 O0 2.983055 1_555
K1 O4 3.081671 1_555
K1 O5 3.081671 1_555
O0 W3 1.866007 1_555
O0 W0 2.147657 1_555
O1 W2 1.866007 1_555
O1 W1 2.147657 1_556
O2 W1 1.866007 1_555
O2 W2 2.147657 1_555
O3 W0 1.866007 1_555
O3 W3 2.147657 1_554
O4 W1 1.849904 1_555
O4 Y0 2.317637 1_555
O5 W0 1.849904 1_555
O5 Y0 2.317637 1_554
O6 W3 1.849904 1_555
O6 Y1 2.317637 1_555
O7 W2 1.849904 1_555
O7 Y1 2.317637 1_556
O8 W2 1.852337 1_555
O8 Y0 2.258180 1_555
O9 W3 1.852337 1_555
O9 Y0 2.258180 1_555
O10 W0 1.852337 1_555
O10 Y1 2.258180 1_555
O11 W1 1.852337 1_555
O11 Y1 2.258180 1_555
O12 W0 2.015983 1_565
O12 W2 2.108630 1_455
O12 Y0 2.315734 1_555
O13 W2 2.015983 1_545
O13 W0 2.108630 1_655
O13 Y1 2.315734 1_555
O14 W1 2.015983 1_456
O14 W3 2.108630 1_565
O14 Y0 2.315734 1_555
O15 W3 2.015983 1_654
O15 W1 2.108630 1_545
O15 Y1 2.315734 1_555
