# generated using pymatgen
data_BaCrO3
_symmetry_space_group_name_H-M   'P 1'
_cell_length_a   5.74069414
_cell_length_b   5.74069414
_cell_length_c   32.84612400
_cell_angle_alpha   90.00000000
_cell_angle_beta   90.00000000
_cell_angle_gamma   120.00000160
_symmetry_Int_Tables_number   1
_chemical_formula_structural   BaCrO3
_chemical_formula_sum   'Ba14 Cr14 O42'
_cell_volume   937.44019244
_cell_formula_units_Z   14
loop_
 _symmetry_equiv_pos_site_id
 _symmetry_equiv_pos_as_xyz
  1  'x, y, z'
loop_
 _atom_site_type_symbol
 _atom_site_label
 _atom_site_symmetry_multiplicity
 _atom_site_fract_x
 _atom_site_fract_y
 _atom_site_fract_z
 _atom_site_occupancy
  Ba  Ba0  1  0.00000000  0.00000000  0.60583300  1
  Ba  Ba1  1  0.00000000  0.00000000  0.10583300  1
  Ba  Ba2  1  0.33333300  0.66666700  0.32115800  1
  Ba  Ba3  1  0.66666700  0.33333300  0.67884200  1
  Ba  Ba4  1  0.00000000  0.00000000  0.39416700  1
  Ba  Ba5  1  0.33333300  0.66666700  0.03901700  1
  Ba  Ba6  1  0.33333300  0.66666700  0.17884200  1
  Ba  Ba7  1  0.66666700  0.33333300  0.53901700  1
  Ba  Ba8  1  0.66666700  0.33333300  0.96098300  1
  Ba  Ba9  1  0.66666700  0.33333300  0.82115800  1
  Ba  Ba10  1  0.66666700  0.33333300  0.25000000  1
  Ba  Ba11  1  0.00000000  0.00000000  0.89416700  1
  Ba  Ba12  1  0.33333300  0.66666700  0.46098300  1
  Ba  Ba13  1  0.33333300  0.66666700  0.75000000  1
  Cr  Cr0  1  0.33333300  0.66666700  0.64551200  1
  Cr  Cr1  1  0.66666700  0.33333300  0.35448800  1
  Cr  Cr2  1  0.33333300  0.66666700  0.56512000  1
  Cr  Cr3  1  0.66666700  0.33333300  0.43488000  1
  Cr  Cr4  1  0.00000000  0.00000000  0.20998200  1
  Cr  Cr5  1  0.00000000  0.00000000  0.29001800  1
  Cr  Cr6  1  0.66666700  0.33333300  0.14551200  1
  Cr  Cr7  1  0.00000000  0.00000000  0.70998200  1
  Cr  Cr8  1  0.00000000  0.00000000  0.50000000  1
  Cr  Cr9  1  0.00000000  0.00000000  0.79001800  1
  Cr  Cr10  1  0.33333300  0.66666700  0.93488000  1
  Cr  Cr11  1  0.66666700  0.33333300  0.06512000  1
  Cr  Cr12  1  0.33333300  0.66666700  0.85448800  1
  Cr  Cr13  1  0.00000000  0.00000000  0.00000000  1
  O  O0  1  0.29403400  0.14701700  0.75000000  1
  O  O1  1  0.85298300  0.70596600  0.75000000  1
  O  O2  1  0.32905200  0.16452600  0.32180500  1
  O  O3  1  0.85298300  0.14701700  0.75000000  1
  O  O4  1  0.47964400  0.52035600  0.60647100  1
  O  O5  1  0.16996200  0.33992500  0.53474200  1
  O  O6  1  0.16452600  0.32905200  0.82180500  1
  O  O7  1  0.95928700  0.47964400  0.10647100  1
  O  O8  1  0.04071300  0.52035600  0.60647100  1
  O  O9  1  0.47964400  0.95928700  0.89352900  1
  O  O10  1  0.14701700  0.29403400  0.25000000  1
  O  O11  1  0.33992500  0.16996200  0.03474200  1
  O  O12  1  0.16996200  0.83003800  0.96525800  1
  O  O13  1  0.32905200  0.16452600  0.17819500  1
  O  O14  1  0.83003800  0.16996200  0.46525800  1
  O  O15  1  0.66007500  0.83003800  0.96525800  1
  O  O16  1  0.67094800  0.83547400  0.82180500  1
  O  O17  1  0.16452600  0.83547400  0.67819500  1
  O  O18  1  0.04071300  0.52035600  0.89352900  1
  O  O19  1  0.16452600  0.83547400  0.82180500  1
  O  O20  1  0.83003800  0.16996200  0.03474200  1
  O  O21  1  0.66007500  0.83003800  0.53474200  1
  O  O22  1  0.16996200  0.83003800  0.53474200  1
  O  O23  1  0.83547400  0.67094800  0.17819500  1
  O  O24  1  0.95928700  0.47964400  0.39352900  1
  O  O25  1  0.47964400  0.95928700  0.60647100  1
  O  O26  1  0.33992500  0.16996200  0.46525800  1
  O  O27  1  0.52035600  0.04071300  0.39352900  1
  O  O28  1  0.16452600  0.32905200  0.67819500  1
  O  O29  1  0.52035600  0.47964400  0.10647100  1
  O  O30  1  0.70596600  0.85298300  0.25000000  1
  O  O31  1  0.14701700  0.85298300  0.25000000  1
  O  O32  1  0.83003800  0.66007500  0.03474200  1
  O  O33  1  0.83003800  0.66007500  0.46525800  1
  O  O34  1  0.16996200  0.33992500  0.96525800  1
  O  O35  1  0.52035600  0.47964400  0.39352900  1
  O  O36  1  0.83547400  0.16452600  0.17819500  1
  O  O37  1  0.67094800  0.83547400  0.67819500  1
  O  O38  1  0.47964400  0.52035600  0.89352900  1
  O  O39  1  0.83547400  0.67094800  0.32180500  1
  O  O40  1  0.83547400  0.16452600  0.32180500  1
  O  O41  1  0.52035600  0.04071300  0.10647100  1
loop_
_geom_bond_atom_site_label_1
_geom_bond_atom_site_label_2
_geom_bond_distance
_geom_bond_site_symmetry_2
Ba0 O25 2.877548 1_445
Ba0 O8 2.877548 1_555
Ba0 O4 2.877551 1_445
Ba0 O4 2.877551 1_555
Ba0 O8 2.877554 1_545
Ba0 O25 2.877554 1_545
Ba0 O22 2.882446 1_545
Ba0 O5 2.882449 1_555
Ba0 O21 2.882449 1_445
Ba0 O28 2.885383 1_555
Ba0 O37 2.885383 1_445
Ba0 O17 2.885383 1_545
Ba1 O41 2.877548 1_555
Ba1 O7 2.877548 1_445
Ba1 O29 2.877551 1_555
Ba1 O29 2.877551 1_445
Ba1 O41 2.877554 1_455
Ba1 O7 2.877554 1_455
Ba1 O20 2.882446 1_455
Ba1 O11 2.882449 1_555
Ba1 O32 2.882449 1_445
Ba1 O23 2.885383 1_445
Ba1 O13 2.885383 1_555
Ba1 O36 2.885383 1_455
Ba2 O2 2.870502 1_565
Ba2 O39 2.870502 1_455
Ba2 O40 2.870505 1_455
Ba2 O40 2.870505 1_565
Ba2 O2 2.870508 1_555
Ba2 O39 2.870508 1_555
Ba2 O31 2.982420 1_555
Ba2 O30 2.982423 1_555
Ba2 O10 2.982423 1_555
Ba2 O24 3.018072 1_455
Ba2 O27 3.018072 1_565
Ba2 O35 3.018072 1_555
Ba3 O37 2.870502 1_545
Ba3 O28 2.870502 1_655
Ba3 O17 2.870505 1_545
Ba3 O17 2.870505 1_655
Ba3 O28 2.870508 1_555
Ba3 O37 2.870508 1_555
Ba3 O3 2.982420 1_555
Ba3 O0 2.982423 1_555
Ba3 O1 2.982423 1_555
Ba3 O25 3.018072 1_545
Ba3 O8 3.018072 1_655
Ba3 O4 3.018072 1_555
Ba4 O27 2.877548 1_555
Ba4 O24 2.877548 1_445
Ba4 O35 2.877551 1_555
Ba4 O35 2.877551 1_445
Ba4 O24 2.877554 1_455
Ba4 O27 2.877554 1_455
Ba4 O14 2.882446 1_455
Ba4 O26 2.882449 1_555
Ba4 O33 2.882449 1_445
Ba4 O2 2.885383 1_555
Ba4 O39 2.885383 1_445
Ba4 O40 2.885383 1_455
Ba5 O11 2.873961 1_565
Ba5 O32 2.873961 1_455
Ba5 O20 2.873966 1_455
Ba5 O20 2.873966 1_565
Ba5 O11 2.873972 1_555
Ba5 O32 2.873972 1_555
Ba5 O41 2.892579 1_565
Ba5 O7 2.892579 1_455
Ba5 O29 2.892579 1_555
Ba5 O34 2.916886 1_554
Ba5 O15 2.916886 1_554
Ba5 O12 2.916886 1_554
Ba6 O13 2.870502 1_565
Ba6 O23 2.870502 1_455
Ba6 O36 2.870505 1_455
Ba6 O36 2.870505 1_565
Ba6 O13 2.870508 1_555
Ba6 O23 2.870508 1_555
Ba6 O31 2.982420 1_555
Ba6 O30 2.982423 1_555
Ba6 O10 2.982423 1_555
Ba6 O41 3.018072 1_565
Ba6 O7 3.018072 1_455
Ba6 O29 3.018072 1_555
Ba7 O21 2.873961 1_545
Ba7 O5 2.873961 1_655
Ba7 O22 2.873966 1_545
Ba7 O22 2.873966 1_655
Ba7 O5 2.873972 1_555
Ba7 O21 2.873972 1_555
Ba7 O8 2.892579 1_655
Ba7 O25 2.892579 1_545
Ba7 O4 2.892579 1_555
Ba7 O33 2.916886 1_555
Ba7 O26 2.916886 1_555
Ba7 O14 2.916886 1_555
Ba8 O15 2.873961 1_545
Ba8 O34 2.873961 1_655
Ba8 O12 2.873966 1_545
Ba8 O12 2.873966 1_655
Ba8 O34 2.873972 1_555
Ba8 O15 2.873972 1_555
Ba8 O9 2.892579 1_545
Ba8 O18 2.892579 1_655
Ba8 O38 2.892579 1_555
Ba8 O32 2.916886 1_556
Ba8 O11 2.916886 1_556
Ba8 O20 2.916886 1_556
Ba9 O6 2.870502 1_655
Ba9 O16 2.870502 1_545
Ba9 O19 2.870505 1_545
Ba9 O19 2.870505 1_655
Ba9 O6 2.870508 1_555
Ba9 O16 2.870508 1_555
Ba9 O3 2.982420 1_555
Ba9 O0 2.982423 1_555
Ba9 O1 2.982423 1_555
Ba9 O9 3.018072 1_545
Ba9 O18 3.018072 1_655
Ba9 O38 3.018072 1_555
Ba10 O10 2.876986 1_655
Ba10 O30 2.876986 1_545
Ba10 O31 2.876989 1_545
Ba10 O31 2.876989 1_655
Ba10 O10 2.876992 1_555
Ba10 O30 2.876992 1_555
Ba10 O36 2.894803 1_555
Ba10 O40 2.894803 1_555
Ba10 O13 2.894806 1_555
Ba10 O39 2.894806 1_555
Ba10 O23 2.894806 1_555
Ba10 O2 2.894806 1_555
Ba11 O18 2.877548 1_555
Ba11 O9 2.877548 1_445
Ba11 O38 2.877551 1_445
Ba11 O38 2.877551 1_555
Ba11 O9 2.877554 1_545
Ba11 O18 2.877554 1_545
Ba11 O12 2.882446 1_545
Ba11 O34 2.882449 1_555
Ba11 O15 2.882449 1_445
Ba11 O6 2.885383 1_555
Ba11 O16 2.885383 1_445
Ba11 O19 2.885383 1_545
Ba12 O26 2.873961 1_565
Ba12 O33 2.873961 1_455
Ba12 O14 2.873966 1_455
Ba12 O14 2.873966 1_565
Ba12 O26 2.873972 1_555
Ba12 O33 2.873972 1_555
Ba12 O27 2.892579 1_565
Ba12 O24 2.892579 1_455
Ba12 O35 2.892579 1_555
Ba12 O21 2.916886 1_555
Ba12 O5 2.916886 1_555
Ba12 O22 2.916886 1_555
Ba13 O1 2.876986 1_455
Ba13 O0 2.876986 1_565
Ba13 O3 2.876989 1_455
Ba13 O3 2.876989 1_565
Ba13 O0 2.876992 1_555
Ba13 O1 2.876992 1_555
Ba13 O19 2.894803 1_555
Ba13 O17 2.894803 1_555
Ba13 O28 2.894806 1_555
Ba13 O16 2.894806 1_555
Ba13 O6 2.894806 1_555
Ba13 O37 2.894806 1_555
Cr0 O8 1.939281 1_555
Cr0 O25 1.939281 1_555
Cr0 O4 1.939289 1_555
Cr0 O17 1.992413 1_555
Cr0 O28 1.992417 1_555
Cr0 O37 1.992417 1_555
Cr1 O24 1.939281 1_555
Cr1 O27 1.939281 1_555
Cr1 O35 1.939289 1_555
Cr1 O40 1.992413 1_555
Cr1 O39 1.992417 1_555
Cr1 O2 1.992417 1_555
Cr2 O21 1.906401 1_555
Cr2 O5 1.906401 1_555
Cr2 O22 1.906401 1_555
Cr2 O8 1.990267 1_555
Cr2 O25 1.990267 1_555
Cr2 O4 1.990274 1_555
Cr3 O26 1.906401 1_555
Cr3 O33 1.906401 1_555
Cr3 O14 1.906401 1_555
Cr3 O24 1.990267 1_555
Cr3 O27 1.990267 1_555
Cr3 O35 1.990274 1_555
Cr4 O13 1.940697 1_555
Cr4 O23 1.940697 1_445
Cr4 O36 1.940697 1_455
Cr4 O30 1.965871 1_445
Cr4 O10 1.965871 1_555
Cr4 O31 1.965871 1_545
Cr5 O39 1.940697 1_445
Cr5 O2 1.940697 1_555
Cr5 O40 1.940697 1_455
Cr5 O30 1.965871 1_445
Cr5 O10 1.965871 1_555
Cr5 O31 1.965871 1_545
Cr6 O7 1.939281 1_555
Cr6 O41 1.939281 1_555
Cr6 O29 1.939289 1_555
Cr6 O36 1.992413 1_555
Cr6 O23 1.992417 1_555
Cr6 O13 1.992417 1_555
Cr7 O37 1.940697 1_445
Cr7 O28 1.940697 1_555
Cr7 O17 1.940697 1_545
Cr7 O1 1.965871 1_445
Cr7 O0 1.965871 1_555
Cr7 O3 1.965871 1_455
Cr8 O14 2.039159 1_455
Cr8 O22 2.039159 1_545
Cr8 O26 2.039164 1_555
Cr8 O33 2.039164 1_445
Cr8 O5 2.039164 1_555
Cr8 O21 2.039164 1_445
Cr9 O6 1.940697 1_555
Cr9 O16 1.940697 1_445
Cr9 O19 1.940697 1_545
Cr9 O1 1.965871 1_445
Cr9 O0 1.965871 1_555
Cr9 O3 1.965871 1_455
Cr10 O15 1.906401 1_555
Cr10 O34 1.906401 1_555
Cr10 O12 1.906401 1_555
Cr10 O9 1.990267 1_555
Cr10 O18 1.990267 1_555
Cr10 O38 1.990274 1_555
Cr11 O11 1.906401 1_555
Cr11 O32 1.906401 1_555
Cr11 O20 1.906401 1_555
Cr11 O41 1.990267 1_555
Cr11 O7 1.990267 1_555
Cr11 O29 1.990274 1_555
Cr12 O18 1.939281 1_555
Cr12 O9 1.939281 1_555
Cr12 O38 1.939289 1_555
Cr12 O19 1.992413 1_555
Cr12 O16 1.992417 1_555
Cr12 O6 1.992417 1_555
Cr13 O20 2.039159 1_455
Cr13 O12 2.039159 1_544
Cr13 O11 2.039164 1_555
Cr13 O32 2.039164 1_445
Cr13 O34 2.039164 1_554
Cr13 O15 2.039164 1_444
