# generated using pymatgen
data_K3Ti3(PO4)5
_symmetry_space_group_name_H-M   'P 1'
_cell_length_a   6.36779800
_cell_length_b   14.87759400
_cell_length_c   18.34234000
_cell_angle_alpha   90.00000000
_cell_angle_beta   90.00000000
_cell_angle_gamma   90.00000000
_symmetry_Int_Tables_number   1
_chemical_formula_structural   K3Ti3(PO4)5
_chemical_formula_sum   'K12 Ti12 P20 O80'
_cell_volume   1737.70768003
_cell_formula_units_Z   4
loop_
 _symmetry_equiv_pos_site_id
 _symmetry_equiv_pos_as_xyz
  1  'x, y, z'
loop_
 _atom_site_type_symbol
 _atom_site_label
 _atom_site_symmetry_multiplicity
 _atom_site_fract_x
 _atom_site_fract_y
 _atom_site_fract_z
 _atom_site_occupancy
  K  K0  1  0.34269700  0.74726600  0.17805600  1
  K  K1  1  0.62142900  0.51998900  0.84720000  1
  K  K2  1  0.65730300  0.24726600  0.82194400  1
  K  K3  1  0.36217300  0.46872200  0.14576800  1
  K  K4  1  0.63782700  0.46872200  0.64576800  1
  K  K5  1  0.37857100  0.51998900  0.34720000  1
  K  K6  1  0.63782700  0.96872200  0.85423200  1
  K  K7  1  0.62142900  0.01998900  0.65280000  1
  K  K8  1  0.37857100  0.01998900  0.15280000  1
  K  K9  1  0.65730300  0.74726600  0.67805600  1
  K  K10  1  0.36217300  0.96872200  0.35423200  1
  K  K11  1  0.34269700  0.24726600  0.32194400  1
  Ti  Ti0  1  0.75398000  0.85499600  0.05314700  1
  Ti  Ti1  1  0.75040200  0.25017400  0.14847400  1
  Ti  Ti2  1  0.24893100  0.11698300  0.95753800  1
  Ti  Ti3  1  0.24602000  0.35499600  0.94685300  1
  Ti  Ti4  1  0.24959800  0.75017400  0.85152600  1
  Ti  Ti5  1  0.24959800  0.25017400  0.64847400  1
  Ti  Ti6  1  0.75106900  0.11698300  0.45753800  1
  Ti  Ti7  1  0.24893100  0.61698300  0.54246200  1
  Ti  Ti8  1  0.75398000  0.35499600  0.44685300  1
  Ti  Ti9  1  0.75106900  0.61698300  0.04246200  1
  Ti  Ti10  1  0.75040200  0.75017400  0.35152600  1
  Ti  Ti11  1  0.24602000  0.85499600  0.55314700  1
  P  P0  1  0.13585400  0.09807400  0.77991100  1
  P  P1  1  0.25336500  0.08925500  0.51259200  1
  P  P2  1  0.25474100  0.88454900  0.00575200  1
  P  P3  1  0.25474100  0.38454900  0.49424800  1
  P  P4  1  0.86634700  0.40784700  0.27224900  1
  P  P5  1  0.86634700  0.90784700  0.22775100  1
  P  P6  1  0.86414600  0.59807400  0.22008900  1
  P  P7  1  0.74757600  0.24521500  0.60406000  1
  P  P8  1  0.74663500  0.08925500  0.01259200  1
  P  P9  1  0.13365300  0.90784700  0.72775100  1
  P  P10  1  0.74525900  0.38454900  0.99424800  1
  P  P11  1  0.13365300  0.40784700  0.77224900  1
  P  P12  1  0.74757600  0.74521500  0.89594000  1
  P  P13  1  0.74525900  0.88454900  0.50575200  1
  P  P14  1  0.86414600  0.09807400  0.27991100  1
  P  P15  1  0.13585400  0.59807400  0.72008900  1
  P  P16  1  0.25242400  0.74521500  0.39594000  1
  P  P17  1  0.25336500  0.58925500  0.98740800  1
  P  P18  1  0.74663500  0.58925500  0.48740800  1
  P  P19  1  0.25242400  0.24521500  0.10406000  1
  O  O0  1  0.24872900  0.67637000  0.75973300  1
  O  O1  1  0.26232400  0.98457200  0.98690400  1
  O  O2  1  0.05303200  0.11245300  0.46893200  1
  O  O3  1  0.24856100  0.07975900  0.85346400  1
  O  O4  1  0.25074700  0.73400900  0.57011400  1
  O  O5  1  0.24856100  0.57975900  0.64653600  1
  O  O6  1  0.94403200  0.86135300  0.55013100  1
  O  O7  1  0.73683500  0.32662500  0.06418500  1
  O  O8  1  0.04937500  0.74684000  0.34971600  1
  O  O9  1  0.24872900  0.17637000  0.74026700  1
  O  O10  1  0.75127100  0.67637000  0.25973300  1
  O  O11  1  0.94696800  0.11245300  0.96893200  1
  O  O12  1  0.89805400  0.40198600  0.77284900  1
  O  O13  1  0.74991100  0.87782800  0.15815900  1
  O  O14  1  0.56273600  0.11318200  0.96028300  1
  O  O15  1  0.24656700  0.36275100  0.70711800  1
  O  O16  1  0.73659300  0.15532300  0.56254800  1
  O  O17  1  0.73683500  0.82662500  0.43581500  1
  O  O18  1  0.44006800  0.86001400  0.05677200  1
  O  O19  1  0.56277700  0.25100300  0.65894400  1
  O  O20  1  0.90033300  0.10253300  0.78387100  1
  O  O21  1  0.75127100  0.17637000  0.24026700  1
  O  O22  1  0.95062500  0.74684000  0.84971600  1
  O  O23  1  0.75343300  0.36275100  0.20711800  1
  O  O24  1  0.94696800  0.61245300  0.53106800  1
  O  O25  1  0.73909500  0.98874800  0.03101000  1
  O  O26  1  0.75143900  0.57975900  0.14653600  1
  O  O27  1  0.95062500  0.24684000  0.65028400  1
  O  O28  1  0.73909500  0.48874800  0.46899000  1
  O  O29  1  0.10194600  0.40198600  0.27284900  1
  O  O30  1  0.26316500  0.82662500  0.93581500  1
  O  O31  1  0.26641100  0.14354800  0.58494100  1
  O  O32  1  0.25613600  0.82888000  0.44593400  1
  O  O33  1  0.73358900  0.64354800  0.41505900  1
  O  O34  1  0.26340700  0.65532300  0.43745200  1
  O  O35  1  0.44006800  0.36001400  0.44322800  1
  O  O36  1  0.24656700  0.86275100  0.79288200  1
  O  O37  1  0.21116500  0.51255200  0.76951300  1
  O  O38  1  0.05596800  0.36135300  0.44986900  1
  O  O39  1  0.05596800  0.86135300  0.05013100  1
  O  O40  1  0.78883500  0.51255200  0.26951300  1
  O  O41  1  0.43722300  0.25100300  0.15894400  1
  O  O42  1  0.94403200  0.36135300  0.94986900  1
  O  O43  1  0.74386400  0.32888000  0.55406600  1
  O  O44  1  0.56277700  0.75100300  0.84105600  1
  O  O45  1  0.89805400  0.90198600  0.72715100  1
  O  O46  1  0.10194600  0.90198600  0.22715100  1
  O  O47  1  0.25074700  0.23400900  0.92988600  1
  O  O48  1  0.09966700  0.10253300  0.28387100  1
  O  O49  1  0.04937500  0.24684000  0.15028400  1
  O  O50  1  0.43726400  0.11318200  0.46028300  1
  O  O51  1  0.26232400  0.48457200  0.51309600  1
  O  O52  1  0.26340700  0.15532300  0.06254800  1
  O  O53  1  0.25008900  0.87782800  0.65815900  1
  O  O54  1  0.73767600  0.48457200  0.01309600  1
  O  O55  1  0.26090500  0.98874800  0.53101000  1
  O  O56  1  0.25008900  0.37782800  0.84184100  1
  O  O57  1  0.26090500  0.48874800  0.96899000  1
  O  O58  1  0.55993200  0.86001400  0.55677200  1
  O  O59  1  0.26641100  0.64354800  0.91505900  1
  O  O60  1  0.43726400  0.61318200  0.03971700  1
  O  O61  1  0.55993200  0.36001400  0.94322800  1
  O  O62  1  0.56273600  0.61318200  0.53971700  1
  O  O63  1  0.75343300  0.86275100  0.29288200  1
  O  O64  1  0.74386400  0.82888000  0.94593400  1
  O  O65  1  0.09966700  0.60253300  0.21612900  1
  O  O66  1  0.73767600  0.98457200  0.48690400  1
  O  O67  1  0.90033300  0.60253300  0.71612900  1
  O  O68  1  0.74991100  0.37782800  0.34184100  1
  O  O69  1  0.75143900  0.07975900  0.35346400  1
  O  O70  1  0.73659300  0.65532300  0.93745200  1
  O  O71  1  0.43722300  0.75100300  0.34105600  1
  O  O72  1  0.74925300  0.73400900  0.07011400  1
  O  O73  1  0.78883500  0.01255200  0.23048700  1
  O  O74  1  0.26316500  0.32662500  0.56418500  1
  O  O75  1  0.25613600  0.32888000  0.05406600  1
  O  O76  1  0.21116500  0.01255200  0.73048700  1
  O  O77  1  0.05303200  0.61245300  0.03106800  1
  O  O78  1  0.74925300  0.23400900  0.42988600  1
  O  O79  1  0.73358900  0.14354800  0.08494100  1
loop_
_geom_bond_atom_site_label_1
_geom_bond_atom_site_label_2
_geom_bond_distance
_geom_bond_site_symmetry_2
K0 O65 2.742127 1_555
K0 O18 2.854325 1_555
K0 O46 2.908565 1_555
K0 O71 3.050297 1_555
K0 O10 3.182122 1_555
K0 O13 3.260405 1_555
K0 O72 3.265145 1_555
K0 O60 3.283405 1_555
K1 O70 2.707804 1_555
K1 O12 2.836346 1_555
K1 O37 2.977885 1_555
K1 O61 2.986705 1_555
K1 O59 3.168462 1_555
K1 O56 3.174014 1_555
K1 O54 3.175683 1_556
K1 O67 3.231446 1_555
K1 O57 3.236795 1_555
K2 O20 2.742127 1_555
K2 O61 2.854325 1_555
K2 O12 2.908565 1_555
K2 O19 3.050297 1_555
K2 O9 3.182122 1_555
K2 O56 3.260405 1_555
K2 O47 3.265145 1_555
K2 O14 3.283405 1_555
K3 O75 2.759290 1_555
K3 O65 2.902247 1_555
K3 O60 2.937970 1_555
K3 O26 2.978837 1_555
K3 O29 3.027387 1_555
K3 O23 3.155844 1_555
K4 O43 2.759290 1_555
K4 O67 2.902247 1_555
K4 O62 2.937970 1_555
K4 O5 2.978837 1_555
K4 O12 3.027387 1_555
K4 O15 3.155844 1_555
K5 O34 2.707804 1_555
K5 O29 2.836346 1_555
K5 O40 2.977885 1_555
K5 O35 2.986705 1_555
K5 O33 3.168462 1_555
K5 O68 3.174014 1_555
K5 O51 3.175683 1_555
K5 O65 3.231446 1_555
K5 O28 3.236795 1_555
K6 O64 2.759290 1_555
K6 O20 2.902247 1_565
K6 O14 2.937970 1_565
K6 O3 2.978837 1_565
K6 O45 3.027387 1_555
K6 O36 3.155844 1_555
K7 O16 2.707804 1_555
K7 O45 2.836346 1_545
K7 O76 2.977885 1_555
K7 O58 2.986705 1_545
K7 O31 3.168462 1_555
K7 O53 3.174014 1_545
K7 O66 3.175683 1_545
K7 O20 3.231446 1_555
K7 O55 3.236795 1_545
K8 O52 2.707804 1_555
K8 O46 2.836346 1_545
K8 O73 2.977885 1_555
K8 O18 2.986705 1_545
K8 O79 3.168462 1_555
K8 O13 3.174014 1_545
K8 O1 3.175683 1_544
K8 O48 3.231446 1_555
K8 O25 3.236795 1_545
K9 O67 2.742127 1_555
K9 O58 2.854325 1_555
K9 O45 2.908565 1_555
K9 O44 3.050297 1_555
K9 O0 3.182122 1_555
K9 O53 3.260405 1_555
K9 O4 3.265145 1_555
K9 O62 3.283405 1_555
K10 O32 2.759290 1_555
K10 O48 2.902247 1_565
K10 O50 2.937970 1_565
K10 O69 2.978837 1_565
K10 O46 3.027387 1_555
K10 O63 3.155844 1_555
K11 O48 2.742127 1_555
K11 O35 2.854325 1_555
K11 O29 2.908565 1_555
K11 O41 3.050297 1_555
K11 O21 3.182122 1_555
K11 O68 3.260405 1_555
K11 O78 3.265145 1_555
K11 O50 3.283405 1_555
O0 P15 1.549929 1_555
O0 Ti4 2.010107 1_555
O1 P2 1.528495 1_556
O1 Ti2 2.044050 1_565
O2 P1 1.545250 1_555
O2 Ti6 1.935338 1_455
O3 P0 1.552255 1_555
O3 Ti2 1.987671 1_555
O4 Ti7 1.813476 1_555
O4 Ti11 1.826949 1_555
O5 P15 1.552255 1_555
O5 Ti7 1.987671 1_555
O6 P13 1.543965 1_555
O6 Ti11 1.926118 1_655
O7 P10 1.546325 1_554
O7 Ti1 1.921315 1_555
O8 P16 1.546360 1_555
O8 Ti10 1.904735 1_455
O9 P0 1.549929 1_555
O9 Ti5 2.010107 1_555
O10 P6 1.549929 1_555
O10 Ti10 2.010107 1_555
O11 P8 1.545250 1_556
O11 Ti2 1.935338 1_655
O12 P11 1.502819 1_655
O13 P5 1.542270 1_555
O13 Ti0 1.956060 1_555
O14 P8 1.555190 1_556
O14 Ti2 1.999681 1_555
O15 P11 1.547357 1_555
O15 Ti5 1.990638 1_555
O16 P7 1.540532 1_555
O16 Ti6 2.010929 1_555
O17 P13 1.546325 1_555
O17 Ti10 1.921315 1_555
O18 P2 1.549744 1_555
O18 Ti0 2.001427 1_555
O19 P7 1.551010 1_555
O19 Ti5 2.003524 1_555
O20 P0 1.502973 1_655
O21 P14 1.549929 1_555
O21 Ti1 2.010107 1_555
O22 P12 1.546360 1_555
O22 Ti4 1.904735 1_655
O23 P4 1.547357 1_555
O23 Ti1 1.990638 1_555
O24 P18 1.545250 1_555
O24 Ti7 1.935338 1_655
O25 P8 1.533741 1_565
O25 Ti0 2.033123 1_555
O26 P6 1.552255 1_555
O26 Ti9 1.987671 1_555
O27 P7 1.546360 1_555
O27 Ti5 1.904735 1_655
O28 P18 1.533741 1_555
O28 Ti8 2.033123 1_555
O29 P4 1.502819 1_455
O30 P2 1.546325 1_556
O30 Ti4 1.921315 1_555
O31 P1 1.555770 1_555
O31 Ti5 1.971283 1_555
O32 P16 1.546229 1_555
O32 Ti11 2.005588 1_555
O33 P18 1.555770 1_555
O33 Ti10 1.971283 1_555
O34 P16 1.540532 1_555
O34 Ti7 2.010929 1_555
O35 P3 1.549744 1_555
O35 Ti8 2.001427 1_555
O36 P9 1.547357 1_555
O36 Ti4 1.990638 1_555
O37 P15 1.634235 1_555
O37 P11 1.634855 1_555
O38 P3 1.543965 1_555
O38 Ti8 1.926118 1_455
O39 P2 1.543965 1_555
O39 Ti0 1.926118 1_455
O40 P6 1.634235 1_555
O40 P4 1.634855 1_555
O41 P19 1.551010 1_555
O41 Ti1 2.003524 1_555
O42 P10 1.543965 1_555
O42 Ti3 1.926118 1_655
O43 P7 1.546229 1_555
O43 Ti8 2.005588 1_555
O44 P12 1.551010 1_555
O44 Ti4 2.003524 1_555
O45 P9 1.502819 1_655
O46 P5 1.502819 1_455
O47 Ti2 1.813476 1_555
O47 Ti3 1.826949 1_555
O48 P14 1.502973 1_455
O49 P19 1.546360 1_555
O49 Ti1 1.904735 1_455
O50 P1 1.555190 1_555
O50 Ti6 1.999681 1_555
O51 P3 1.528495 1_555
O51 Ti7 2.044050 1_555
O52 P19 1.540532 1_555
O52 Ti2 2.010929 1_554
O53 P9 1.542270 1_555
O53 Ti11 1.956060 1_555
O54 P10 1.528495 1_554
O54 Ti9 2.044050 1_555
O55 P1 1.533741 1_565
O55 Ti11 2.033123 1_555
O56 P11 1.542270 1_555
O56 Ti3 1.956060 1_555
O57 P17 1.533741 1_555
O57 Ti3 2.033123 1_555
O58 P13 1.549744 1_555
O58 Ti11 2.001427 1_555
O59 P17 1.555770 1_555
O59 Ti4 1.971283 1_555
O60 P17 1.555190 1_554
O60 Ti9 1.999681 1_555
O61 P10 1.549744 1_555
O61 Ti3 2.001427 1_555
O62 P18 1.555190 1_555
O62 Ti7 1.999681 1_555
O63 P5 1.547357 1_555
O63 Ti10 1.990638 1_555
O64 P12 1.546229 1_555
O64 Ti0 2.005588 1_556
O65 P6 1.502973 1_455
O66 P13 1.528495 1_555
O66 Ti6 2.044050 1_565
O67 P15 1.502973 1_655
O68 P4 1.542270 1_555
O68 Ti8 1.956060 1_555
O69 P14 1.552255 1_555
O69 Ti6 1.987671 1_555
O70 P12 1.540532 1_555
O70 Ti9 2.010929 1_556
O71 P16 1.551010 1_555
O71 Ti10 2.003524 1_555
O72 Ti9 1.813476 1_555
O72 Ti0 1.826949 1_555
O73 P14 1.634235 1_555
O73 P5 1.634855 1_545
O74 P3 1.546325 1_555
O74 Ti5 1.921315 1_555
O75 P19 1.546229 1_555
O75 Ti3 2.005588 1_554
O76 P0 1.634235 1_555
O76 P9 1.634855 1_545
O77 P17 1.545250 1_554
O77 Ti9 1.935338 1_455
O78 Ti6 1.813476 1_555
O78 Ti8 1.826949 1_555
O79 P8 1.555770 1_555
O79 Ti1 1.971283 1_555
