# generated using pymatgen
data_Sr4CN4
_symmetry_space_group_name_H-M   'P 1'
_cell_length_a   3.82074641
_cell_length_b   12.29755643
_cell_length_c   14.41649143
_cell_angle_alpha   90.00000000
_cell_angle_beta   90.00000000
_cell_angle_gamma   90.00000000
_symmetry_Int_Tables_number   1
_chemical_formula_structural   Sr4CN4
_chemical_formula_sum   'Sr16 C4 N16'
_cell_volume   677.37102574
_cell_formula_units_Z   4
loop_
 _symmetry_equiv_pos_site_id
 _symmetry_equiv_pos_as_xyz
  1  'x, y, z'
loop_
 _atom_site_type_symbol
 _atom_site_label
 _atom_site_symmetry_multiplicity
 _atom_site_fract_x
 _atom_site_fract_y
 _atom_site_fract_z
 _atom_site_occupancy
  Sr  Sr0  1  0.25000000  0.11276254  0.40353470  1
  Sr  Sr1  1  0.25000000  0.40642965  0.68562761  1
  Sr  Sr2  1  0.75000000  0.66018970  0.73930972  1
  Sr  Sr3  1  0.25000000  0.61276254  0.09646530  1
  Sr  Sr4  1  0.25000000  0.90642965  0.81437239  1
  Sr  Sr5  1  0.75000000  0.16018970  0.76069028  1
  Sr  Sr6  1  0.75000000  0.59357035  0.31437239  1
  Sr  Sr7  1  0.25000000  0.62501643  0.53219087  1
  Sr  Sr8  1  0.75000000  0.87498357  0.03219087  1
  Sr  Sr9  1  0.75000000  0.38723746  0.90353470  1
  Sr  Sr10  1  0.25000000  0.33981030  0.26069028  1
  Sr  Sr11  1  0.25000000  0.83981030  0.23930972  1
  Sr  Sr12  1  0.75000000  0.09357035  0.18562761  1
  Sr  Sr13  1  0.75000000  0.37498357  0.46780913  1
  Sr  Sr14  1  0.75000000  0.88723746  0.59646530  1
  Sr  Sr15  1  0.25000000  0.12501643  0.96780913  1
  C  C0  1  0.25000000  0.14932201  0.59698456  1
  C  C1  1  0.25000000  0.64932201  0.90301544  1
  C  C2  1  0.75000000  0.35067799  0.09698456  1
  C  C3  1  0.75000000  0.85067799  0.40301544  1
  N  N0  1  0.25000000  0.05550383  0.62865871  1
  N  N1  1  0.75000000  0.51373710  0.62065457  1
  N  N2  1  0.75000000  0.01373710  0.87934543  1
  N  N3  1  0.75000000  0.44449617  0.12865871  1
  N  N4  1  0.25000000  0.98626290  0.12065457  1
  N  N5  1  0.25000000  0.28023228  0.83070950  1
  N  N6  1  0.25000000  0.55550383  0.87134129  1
  N  N7  1  0.75000000  0.75854496  0.43711104  1
  N  N8  1  0.25000000  0.74145504  0.93711104  1
  N  N9  1  0.25000000  0.24145504  0.56288896  1
  N  N10  1  0.75000000  0.71976772  0.16929050  1
  N  N11  1  0.25000000  0.48626290  0.37934543  1
  N  N12  1  0.75000000  0.25854496  0.06288896  1
  N  N13  1  0.75000000  0.21976772  0.33070950  1
  N  N14  1  0.75000000  0.94449617  0.37134129  1
  N  N15  1  0.25000000  0.78023228  0.66929050  1
loop_
_geom_bond_atom_site_label_1
_geom_bond_atom_site_label_2
_geom_bond_distance
_geom_bond_site_symmetry_2
C0 N9 1.235040 1_555
C0 N0 1.240812 1_555
C0 Sr0 2.824875 1_555
C0 Sr5 3.039289 1_555
C0 Sr5 3.039289 1_455
C1 N8 1.235040 1_555
C1 N6 1.240812 1_555
C1 Sr3 2.824875 1_556
C1 Sr2 3.039289 1_555
C1 Sr2 3.039289 1_455
C2 N12 1.235040 1_555
C2 N3 1.240812 1_555
C2 Sr9 2.824875 1_554
C2 Sr10 3.039289 1_555
C2 Sr10 3.039289 1_655
C3 N7 1.235040 1_555
C3 N14 1.240812 1_555
C3 Sr14 2.824875 1_555
C3 Sr11 3.039289 1_555
C3 Sr11 3.039289 1_655
N0 Sr14 2.854258 1_445
N0 Sr14 2.854258 1_545
N0 Sr5 2.988298 1_455
N0 Sr5 2.988298 1_555
N0 Sr4 3.244834 1_545
N1 Sr2 2.483899 1_555
N1 Sr1 2.503657 1_555
N1 Sr1 2.503657 1_655
N1 Sr7 2.673706 1_655
N1 Sr7 2.673706 1_555
N1 Sr13 2.786925 1_555
N2 Sr5 2.483899 1_555
N2 Sr4 2.503657 1_645
N2 Sr4 2.503657 1_545
N2 Sr15 2.673706 1_555
N2 Sr15 2.673706 1_655
N2 Sr8 2.786925 1_546
N3 Sr3 2.854258 1_555
N3 Sr3 2.854258 1_655
N3 Sr10 2.988298 1_655
N3 Sr10 2.988298 1_555
N3 Sr6 3.244834 1_555
N4 Sr11 2.483899 1_555
N4 Sr12 2.503657 1_565
N4 Sr12 2.503657 1_465
N4 Sr8 2.673706 1_455
N4 Sr8 2.673706 1_555
N4 Sr15 2.786925 1_564
N5 Sr9 2.546248 1_455
N5 Sr9 2.546248 1_555
N5 Sr1 2.604444 1_555
N5 Sr5 2.616818 1_555
N5 Sr5 2.616818 1_455
N5 Sr15 2.747719 1_555
N6 Sr9 2.854258 1_455
N6 Sr9 2.854258 1_555
N6 Sr2 2.988298 1_455
N6 Sr2 2.988298 1_555
N6 Sr1 3.244834 1_555
N7 Sr6 2.692017 1_555
N7 Sr14 2.789687 1_555
N7 Sr7 2.867891 1_555
N7 Sr7 2.867891 1_655
N8 Sr4 2.692017 1_555
N8 Sr3 2.789687 1_556
N8 Sr8 2.867891 1_556
N8 Sr8 2.867891 1_456
N9 Sr1 2.692017 1_555
N9 Sr0 2.789687 1_555
N9 Sr13 2.867891 1_455
N9 Sr13 2.867891 1_555
N10 Sr3 2.546248 1_555
N10 Sr3 2.546248 1_655
N10 Sr6 2.604444 1_555
N10 Sr11 2.616818 1_555
N10 Sr11 2.616818 1_655
N10 Sr8 2.747719 1_555
N11 Sr10 2.483899 1_555
N11 Sr6 2.503657 1_455
N11 Sr6 2.503657 1_555
N11 Sr13 2.673706 1_555
N11 Sr13 2.673706 1_455
N11 Sr7 2.786925 1_555
N12 Sr12 2.692017 1_555
N12 Sr9 2.789687 1_554
N12 Sr15 2.867891 1_554
N12 Sr15 2.867891 1_654
N13 Sr0 2.546248 1_655
N13 Sr0 2.546248 1_555
N13 Sr12 2.604444 1_555
N13 Sr10 2.616818 1_655
N13 Sr10 2.616818 1_555
N13 Sr13 2.747719 1_555
N14 Sr0 2.854258 1_665
N14 Sr0 2.854258 1_565
N14 Sr11 2.988298 1_555
N14 Sr11 2.988298 1_655
N14 Sr12 3.244834 1_565
N15 Sr14 2.546248 1_455
N15 Sr14 2.546248 1_555
N15 Sr4 2.604444 1_555
N15 Sr2 2.616818 1_555
N15 Sr2 2.616818 1_455
N15 Sr7 2.747719 1_555
