# generated using pymatgen
data_Na15SnGe8P
_symmetry_space_group_name_H-M   'P 1'
_cell_length_a   10.79854016
_cell_length_b   10.79854016
_cell_length_c   11.12861802
_cell_angle_alpha   90.00000000
_cell_angle_beta   90.00000000
_cell_angle_gamma   107.22841362
_symmetry_Int_Tables_number   1
_chemical_formula_structural   Na15SnGe8P
_chemical_formula_sum   'Na30 Sn2 Ge16 P2'
_cell_volume   1239.46579096
_cell_formula_units_Z   2
loop_
 _symmetry_equiv_pos_site_id
 _symmetry_equiv_pos_as_xyz
  1  'x, y, z'
loop_
 _atom_site_type_symbol
 _atom_site_label
 _atom_site_symmetry_multiplicity
 _atom_site_fract_x
 _atom_site_fract_y
 _atom_site_fract_z
 _atom_site_occupancy
  Na  Na0  1  0.54310843  0.28140049  0.38330104  1
  Na  Na1  1  0.22907737  0.06296720  0.25000000  1
  Na  Na2  1  0.06296720  0.22907737  0.25000000  1
  Na  Na3  1  0.45689157  0.71859951  0.88330104  1
  Na  Na4  1  0.80214367  0.98988977  0.25000000  1
  Na  Na5  1  0.75015892  0.75015792  0.50342123  1
  Na  Na6  1  0.71859951  0.45689157  0.88330104  1
  Na  Na7  1  0.32180635  0.94259365  0.49752081  1
  Na  Na8  1  0.24984208  0.24984108  0.00342123  1
  Na  Na9  1  0.94259365  0.32180635  0.49752081  1
  Na  Na10  1  0.67819365  0.05740635  0.99752081  1
  Na  Na11  1  0.19785633  0.01011023  0.75000000  1
  Na  Na12  1  0.75015892  0.75015792  0.99657877  1
  Na  Na13  1  0.01011023  0.19785633  0.75000000  1
  Na  Na14  1  0.43171313  0.43171313  0.75000000  1
  Na  Na15  1  0.05740635  0.67819365  0.50247919  1
  Na  Na16  1  0.05740635  0.67819365  0.99752081  1
  Na  Na17  1  0.67819365  0.05740635  0.50247919  1
  Na  Na18  1  0.98988977  0.80214367  0.25000000  1
  Na  Na19  1  0.28140049  0.54310843  0.38330104  1
  Na  Na20  1  0.71859951  0.45689157  0.61669896  1
  Na  Na21  1  0.28140049  0.54310843  0.11669896  1
  Na  Na22  1  0.77092263  0.93703280  0.75000000  1
  Na  Na23  1  0.94259365  0.32180635  0.00247919  1
  Na  Na24  1  0.45689157  0.71859951  0.61669896  1
  Na  Na25  1  0.24984208  0.24984108  0.49657877  1
  Na  Na26  1  0.93703280  0.77092263  0.75000000  1
  Na  Na27  1  0.32180635  0.94259365  0.00247919  1
  Na  Na28  1  0.54310843  0.28140049  0.11669896  1
  Na  Na29  1  0.56828687  0.56828687  0.25000000  1
  Sn  Sn0  1  0.00000000  0.00000000  0.50000000  1
  Sn  Sn1  1  0.00000000  0.00000000  -0.00000000  1
  Ge  Ge0  1  0.50276214  0.01112222  0.25000000  1
  Ge  Ge1  1  0.19511986  0.69584349  0.75000000  1
  Ge  Ge2  1  0.69584349  0.19511986  0.75000000  1
  Ge  Ge3  1  0.81007632  0.51657898  0.36324401  1
  Ge  Ge4  1  0.48342102  0.18992368  0.63675599  1
  Ge  Ge5  1  0.18992368  0.48342102  0.63675599  1
  Ge  Ge6  1  0.49723786  0.98887778  0.75000000  1
  Ge  Ge7  1  0.18992368  0.48342102  0.86324401  1
  Ge  Ge8  1  0.98887778  0.49723786  0.75000000  1
  Ge  Ge9  1  0.51657898  0.81007632  0.36324401  1
  Ge  Ge10  1  0.48342102  0.18992368  0.86324401  1
  Ge  Ge11  1  0.81007632  0.51657898  0.13675599  1
  Ge  Ge12  1  0.30415651  0.80488014  0.25000000  1
  Ge  Ge13  1  0.01112222  0.50276214  0.25000000  1
  Ge  Ge14  1  0.51657898  0.81007632  0.13675599  1
  Ge  Ge15  1  0.80488014  0.30415651  0.25000000  1
  P  P0  1  0.34432105  0.34432105  0.25000000  1
  P  P1  1  0.65567895  0.65567895  0.75000000  1
loop_
_geom_bond_atom_site_label_1
_geom_bond_atom_site_label_2
_geom_bond_distance
_geom_bond_site_symmetry_2
Na0 P0 2.852055 1_555
Na1 P0 2.922280 1_555
Na1 Sn0 3.650419 1_555
Na1 Sn1 3.650419 1_555
Na2 P0 2.922280 1_555
Na2 Sn0 3.650419 1_555
Na2 Sn1 3.650419 1_555
Na3 P1 2.852055 1_555
Na4 Sn0 3.489845 1_665
Na4 Sn1 3.489845 1_665
Na5 P1 2.999196 1_555
Na5 Sn0 3.201148 1_665
Na6 P1 2.852055 1_555
Na7 Sn0 3.706346 1_565
Na8 P0 2.999196 1_555
Na8 Sn1 3.201148 1_555
Na9 Sn0 3.706346 1_655
Na10 Sn1 3.706346 1_656
Na11 Sn1 3.489845 1_556
Na11 Sn0 3.489845 1_555
Na12 P1 2.999196 1_555
Na12 Sn1 3.201148 1_666
Na13 Sn1 3.489845 1_556
Na13 Sn0 3.489845 1_555
Na14 P1 2.869406 1_555
Na15 Sn0 3.706346 1_565
Na16 Sn1 3.706346 1_566
Na17 Sn0 3.706346 1_655
Na18 Sn0 3.489845 1_665
Na18 Sn1 3.489845 1_665
Na19 P0 2.852055 1_555
Na20 P1 2.852055 1_555
Na21 P0 2.852055 1_555
Na22 P1 2.922280 1_555
Na22 Sn0 3.650419 1_665
Na22 Sn1 3.650419 1_666
Na23 Sn1 3.706346 1_655
Na24 P1 2.852055 1_555
Na25 P0 2.999196 1_555
Na25 Sn0 3.201148 1_555
Na26 P1 2.922280 1_555
Na26 Sn0 3.650419 1_665
Na26 Sn1 3.650419 1_666
Na27 Sn1 3.706346 1_565
Na28 P0 2.852055 1_555
Na29 P0 2.869406 1_555
Ge0 Ge14 2.552571 1_545
Ge0 Ge9 2.552571 1_545
Ge0 Ge12 2.594264 1_545
Ge0 Na1 3.166687 1_555
Ge0 Na28 3.186771 1_555
Ge0 Na0 3.186771 1_555
Ge0 Na4 3.308048 1_545
Ge0 Na27 3.331218 1_545
Ge0 Na7 3.331218 1_545
Ge0 Na10 3.342509 1_554
Ge0 Na17 3.342509 1_555
Ge1 Ge8 2.594264 1_455
Ge1 Ge5 2.603247 1_555
Ge1 Ge7 2.603247 1_555
Ge1 Na15 3.109266 1_555
Ge1 Na16 3.109266 1_555
Ge1 Na26 3.124569 1_455
Ge1 Na3 3.136891 1_555
Ge1 Na24 3.136891 1_555
Ge1 Na11 3.384988 1_565
Ge2 Ge6 2.594264 1_545
Ge2 Ge4 2.603247 1_555
Ge2 Na10 3.109266 1_555
Ge2 Na17 3.109266 1_555
Ge2 Na22 3.124569 1_545
Ge2 Na6 3.136891 1_555
Ge2 Na20 3.136891 1_555
Ge2 Na13 3.384988 1_655
Ge3 Na20 2.994973 1_555
Ge3 Na29 3.095284 1_555
Ge3 Na15 3.133496 1_655
Ge3 Na5 3.190761 1_555
Ge3 Na0 3.236256 1_555
Ge3 Na9 3.238409 1_555
Ge3 Na18 3.364631 1_555
Ge4 Ge6 2.552571 1_545
Ge4 Na0 2.994973 1_555
Ge4 Na14 3.095284 1_555
Ge4 Na7 3.133496 1_545
Ge4 Na25 3.190761 1_555
Ge4 Na20 3.236256 1_555
Ge4 Na17 3.238409 1_555
Ge4 Na11 3.364631 1_555
Ge5 Ge7 2.520499 1_555
Ge5 Ge8 2.552571 1_455
Ge5 Na19 2.994973 1_555
Ge5 Na14 3.095284 1_555
Ge5 Na9 3.133496 1_455
Ge5 Na25 3.190775 1_555
Ge5 Na24 3.236256 1_555
Ge5 Na15 3.238409 1_555
Ge5 Na13 3.364631 1_555
Ge6 Na22 3.166687 1_555
Ge6 Na24 3.186771 1_555
Ge6 Na3 3.186771 1_555
Ge6 Na11 3.308048 1_565
Ge6 Na10 3.331218 1_565
Ge6 Na17 3.331218 1_565
Ge6 Na7 3.342509 1_555
Ge6 Na27 3.342509 1_556
Ge7 Ge8 2.552571 1_455
Ge7 Na21 2.994973 1_556
Ge7 Na14 3.095284 1_555
Ge7 Na23 3.133496 1_456
Ge7 Na8 3.190775 1_556
Ge7 Na3 3.236256 1_555
Ge7 Na16 3.238409 1_555
Ge7 Na13 3.364631 1_555
Ge8 Na26 3.166687 1_555
Ge8 Na20 3.186771 1_555
Ge8 Na6 3.186771 1_555
Ge8 Na13 3.308048 1_655
Ge8 Na15 3.331218 1_655
Ge8 Na16 3.331218 1_655
Ge8 Na9 3.342509 1_555
Ge8 Na23 3.342509 1_556
Ge9 Na24 2.994973 1_555
Ge9 Na29 3.095284 1_555
Ge9 Na17 3.133496 1_565
Ge9 Na5 3.190775 1_555
Ge9 Na19 3.236256 1_555
Ge9 Na7 3.238409 1_555
Ge9 Na4 3.364631 1_555
Ge10 Ge4 2.520499 1_555
Ge10 Ge6 2.552571 1_545
Ge10 Ge2 2.603247 1_555
Ge10 Na28 2.994973 1_556
Ge10 Na14 3.095284 1_555
Ge10 Na27 3.133496 1_546
Ge10 Na8 3.190761 1_556
Ge10 Na6 3.236256 1_555
Ge10 Na10 3.238409 1_555
Ge10 Na11 3.364631 1_555
Ge11 Ge3 2.520499 1_555
Ge11 Ge13 2.552571 1_655
Ge11 Ge15 2.603247 1_555
Ge11 Na6 2.994973 1_554
Ge11 Na29 3.095284 1_555
Ge11 Na16 3.133496 1_654
Ge11 Na12 3.190761 1_554
Ge11 Na28 3.236256 1_555
Ge11 Na23 3.238409 1_555
Ge11 Na18 3.364631 1_555
Ge12 Ge9 2.603247 1_555
Ge12 Ge14 2.603247 1_555
Ge12 Na7 3.109266 1_555
Ge12 Na27 3.109266 1_555
Ge12 Na1 3.124569 1_565
Ge12 Na19 3.136891 1_555
Ge12 Na21 3.136891 1_555
Ge12 Na18 3.384988 1_455
Ge13 Ge3 2.552571 1_455
Ge13 Ge15 2.594264 1_455
Ge13 Na2 3.166687 1_555
Ge13 Na19 3.186771 1_555
Ge13 Na21 3.186771 1_555
Ge13 Na18 3.308048 1_455
Ge13 Na9 3.331218 1_455
Ge13 Na23 3.331218 1_455
Ge13 Na16 3.342509 1_554
Ge13 Na15 3.342509 1_555
Ge14 Ge9 2.520499 1_555
Ge14 Na3 2.994973 1_554
Ge14 Na29 3.095284 1_555
Ge14 Na10 3.133496 1_564
Ge14 Na12 3.190775 1_554
Ge14 Na21 3.236256 1_555
Ge14 Na27 3.238409 1_555
Ge14 Na4 3.364631 1_555
Ge15 Ge3 2.603247 1_555
Ge15 Na9 3.109266 1_555
Ge15 Na23 3.109266 1_555
Ge15 Na2 3.124569 1_655
Ge15 Na28 3.136891 1_555
Ge15 Na0 3.136891 1_555
Ge15 Na4 3.384988 1_545
