# generated using pymatgen
data_YbMn4(CuO4)3
_symmetry_space_group_name_H-M   'P 1'
_cell_length_a   6.38479481
_cell_length_b   6.38479481
_cell_length_c   6.38479481
_cell_angle_alpha   109.47122063
_cell_angle_beta   109.47122063
_cell_angle_gamma   109.47122063
_symmetry_Int_Tables_number   1
_chemical_formula_structural   YbMn4(CuO4)3
_chemical_formula_sum   'Yb1 Mn4 Cu3 O12'
_cell_volume   200.36365378
_cell_formula_units_Z   1
loop_
 _symmetry_equiv_pos_site_id
 _symmetry_equiv_pos_as_xyz
  1  'x, y, z'
loop_
 _atom_site_type_symbol
 _atom_site_label
 _atom_site_symmetry_multiplicity
 _atom_site_fract_x
 _atom_site_fract_y
 _atom_site_fract_z
 _atom_site_occupancy
  Yb  Yb0  1  0.00000000  0.00000000  0.00000000  1
  Mn  Mn0  1  0.50000000  0.50000000  0.50000000  1
  Mn  Mn1  1  0.50000000  0.00000000  0.00000000  1
  Mn  Mn2  1  0.00000000  0.00000000  0.50000000  1
  Mn  Mn3  1  0.00000000  0.50000000  0.00000000  1
  Cu  Cu0  1  0.00000000  0.50000000  0.50000000  1
  Cu  Cu1  1  0.50000000  0.50000000  0.00000000  1
  Cu  Cu2  1  0.50000000  0.00000000  0.50000000  1
  O  O0  1  0.17080000  0.47792700  0.30712700  1
  O  O1  1  0.30712700  0.17080000  0.47792700  1
  O  O2  1  0.69287300  0.17080000  0.86367300  1
  O  O3  1  0.82920000  0.52207300  0.69287300  1
  O  O4  1  0.82920000  0.13632700  0.30712700  1
  O  O5  1  0.47792700  0.30712700  0.17080000  1
  O  O6  1  0.13632700  0.30712700  0.82920000  1
  O  O7  1  0.69287300  0.82920000  0.52207300  1
  O  O8  1  0.30712700  0.82920000  0.13632700  1
  O  O9  1  0.17080000  0.86367300  0.69287300  1
  O  O10  1  0.86367300  0.69287300  0.17080000  1
  O  O11  1  0.52207300  0.69287300  0.82920000  1
loop_
_geom_bond_atom_site_label_1
_geom_bond_atom_site_label_2
_geom_bond_distance
_geom_bond_site_symmetry_2
Mn0 O1 1.978753 1_555
Mn0 O5 1.978753 1_555
Mn0 O0 1.978753 1_555
Mn0 O11 1.978753 1_555
Mn0 O3 1.978753 1_555
Mn0 O7 1.978753 1_555
Mn1 O2 1.978753 1_554
Mn1 O8 1.978753 1_545
Mn1 O4 1.978753 1_555
Mn1 O9 1.978753 1_544
Mn1 O5 1.978753 1_555
Mn1 O11 1.978753 1_544
Mn2 O4 1.978753 1_455
Mn2 O9 1.978753 1_545
Mn2 O1 1.978753 1_555
Mn2 O6 1.978753 1_555
Mn2 O10 1.978753 1_445
Mn2 O7 1.978753 1_445
Mn3 O10 1.978753 1_455
Mn3 O8 1.978753 1_555
Mn3 O6 1.978753 1_554
Mn3 O0 1.978753 1_555
Mn3 O2 1.978753 1_454
Mn3 O3 1.978753 1_454
Cu0 O3 1.899376 1_455
Cu0 O0 1.899376 1_555
Cu0 O9 1.899376 1_555
Cu0 O4 1.899376 1_455
Cu1 O11 1.899376 1_554
Cu1 O5 1.899376 1_555
Cu1 O10 1.899376 1_555
Cu1 O6 1.899376 1_554
Cu2 O7 1.899376 1_545
Cu2 O1 1.899376 1_555
Cu2 O2 1.899376 1_555
Cu2 O8 1.899376 1_545
O0 Yb0 2.590891 1_555
O1 Yb0 2.590891 1_555
O2 Yb0 2.590891 1_656
O3 Yb0 2.590891 1_666
O4 Yb0 2.590891 1_655
O5 Yb0 2.590891 1_555
O6 Yb0 2.590891 1_556
O7 Yb0 2.590891 1_666
O8 Yb0 2.590891 1_565
O9 Yb0 2.590891 1_566
O10 Yb0 2.590891 1_665
O11 Yb0 2.590891 1_666
