# generated using pymatgen
data_YTaO4
_symmetry_space_group_name_H-M   'P 1'
_cell_length_a   5.06153817
_cell_length_b   5.33462180
_cell_length_c   6.50421774
_cell_angle_alpha   111.91267268
_cell_angle_beta   110.49878438
_cell_angle_gamma   95.46433187
_symmetry_Int_Tables_number   1
_chemical_formula_structural   YTaO4
_chemical_formula_sum   'Y2 Ta2 O8'
_cell_volume   147.37034696
_cell_formula_units_Z   2
loop_
 _symmetry_equiv_pos_site_id
 _symmetry_equiv_pos_as_xyz
  1  'x, y, z'
loop_
 _atom_site_type_symbol
 _atom_site_label
 _atom_site_symmetry_multiplicity
 _atom_site_fract_x
 _atom_site_fract_y
 _atom_site_fract_z
 _atom_site_occupancy
  Y  Y0  1  0.38168576  0.63170519  0.76342068  1
  Y  Y1  1  0.61831424  0.36829481  0.23657932  1
  Ta  Ta0  1  0.85162102  0.10167745  0.70328496  1
  Ta  Ta1  1  0.14837898  0.89832255  0.29671504  1
  O  O0  1  0.56036276  0.27368819  0.56261399  1
  O  O1  1  0.79290873  0.63200920  0.07965366  1
  O  O2  1  0.43963724  0.72631181  0.43738601  1
  O  O3  1  0.71326285  0.05233128  0.92035678  1
  O  O4  1  0.00223186  0.78896438  0.56263482  1
  O  O5  1  0.28673715  0.94766872  0.07964322  1
  O  O6  1  0.20709127  0.36799080  0.92034634  1
  O  O7  1  0.99776814  0.21103562  0.43736518  1
loop_
_geom_bond_atom_site_label_1
_geom_bond_atom_site_label_2
_geom_bond_distance
_geom_bond_site_symmetry_2
O0 Ta0 1.947319 1_555
O0 Ta1 2.333071 1_545
O0 Y0 2.337913 1_555
O0 Y1 2.458449 1_555
O1 Ta1 1.867035 1_655
O1 Y1 2.295337 1_555
O1 Y0 2.358259 1_554
O2 Ta1 1.947319 1_555
O2 Ta0 2.333071 1_565
O2 Y1 2.337913 1_555
O2 Y0 2.458449 1_555
O3 Ta0 1.867600 1_555
O3 Y0 2.294994 1_545
O3 Y1 2.358256 1_556
O4 Ta0 1.947436 1_465
O4 Ta1 2.333681 1_555
O4 Y0 2.337942 1_555
O4 Y1 2.457777 1_455
O5 Ta1 1.867600 1_555
O5 Y1 2.294994 1_565
O5 Y0 2.358256 1_554
O6 Ta0 1.867035 1_455
O6 Y0 2.295337 1_555
O6 Y1 2.358259 1_556
O7 Ta1 1.947436 1_645
O7 Ta0 2.333681 1_555
O7 Y1 2.337942 1_555
O7 Y0 2.457777 1_655
