# generated using pymatgen
data_Zr2Cu
_symmetry_space_group_name_H-M   'P 1'
_cell_length_a   8.68538822
_cell_length_b   8.68538988
_cell_length_c   8.68538987
_cell_angle_alpha   59.99998737
_cell_angle_beta   60.00000636
_cell_angle_gamma   60.00000627
_symmetry_Int_Tables_number   1
_chemical_formula_structural   Zr2Cu
_chemical_formula_sum   'Zr16 Cu8'
_cell_volume   463.28994377
_cell_formula_units_Z   8
loop_
 _symmetry_equiv_pos_site_id
 _symmetry_equiv_pos_as_xyz
  1  'x, y, z'
loop_
 _atom_site_type_symbol
 _atom_site_label
 _atom_site_symmetry_multiplicity
 _atom_site_fract_x
 _atom_site_fract_y
 _atom_site_fract_z
 _atom_site_occupancy
  Zr  Zr0  1  0.93528870  0.56471130  0.56471130  1
  Zr  Zr1  1  0.93528875  0.56471125  0.93528875  1
  Zr  Zr2  1  0.68528870  0.31471130  0.31471130  1
  Zr  Zr3  1  0.31471130  0.31471130  0.68528870  1
  Zr  Zr4  1  0.31471130  0.68528870  0.68528870  1
  Zr  Zr5  1  0.56471130  0.56471130  0.93528870  1
  Zr  Zr6  1  0.56471130  0.93528870  0.93528870  1
  Zr  Zr7  1  0.12500000  0.12500000  0.12500000  1
  Zr  Zr8  1  0.93528870  0.93528870  0.56471130  1
  Zr  Zr9  1  0.31471125  0.68528875  0.31471125  1
  Zr  Zr10  1  0.56471125  0.93528875  0.56471125  1
  Zr  Zr11  1  0.68528875  0.31471125  0.68528875  1
  Zr  Zr12  1  0.68528870  0.68528870  0.31471130  1
  Zr  Zr13  1  0.12500000  0.62500000  0.12500000  1
  Zr  Zr14  1  0.12500000  0.12500000  0.62500000  1
  Zr  Zr15  1  0.62500000  0.12500000  0.12500000  1
  Cu  Cu0  1  0.99892984  0.33369057  0.33369030  1
  Cu  Cu1  1  0.33369057  0.99892984  0.33369028  1
  Cu  Cu2  1  0.91630972  0.91630970  0.91630943  1
  Cu  Cu3  1  0.25107016  0.91630943  0.91630970  1
  Cu  Cu4  1  0.91630943  0.25107016  0.91630972  1
  Cu  Cu5  1  0.91630970  0.91630972  0.25107016  1
  Cu  Cu6  1  0.33369030  0.33369028  0.99892984  1
  Cu  Cu7  1  0.33369028  0.33369030  0.33369057  1
loop_
_geom_bond_atom_site_label_1
_geom_bond_atom_site_label_2
_geom_bond_distance
_geom_bond_site_symmetry_2
Cu0 Zr13 2.661882 1_655
Cu0 Zr14 2.661884 1_655
Cu0 Zr7 2.661892 1_655
Cu0 Zr12 2.898321 1_555
Cu0 Zr11 2.898322 1_555
Cu0 Zr2 2.898327 1_555
Cu0 Cu7 2.907524 1_655
Cu0 Cu6 2.907525 1_654
Cu0 Cu1 2.907527 1_645
Cu0 Zr0 3.188346 1_555
Cu0 Zr1 3.188352 1_554
Cu0 Zr8 3.188355 1_545
Cu1 Zr15 2.661882 1_565
Cu1 Zr14 2.661885 1_565
Cu1 Zr7 2.661891 1_565
Cu1 Zr12 2.898321 1_555
Cu1 Zr4 2.898322 1_555
Cu1 Zr9 2.898327 1_555
Cu1 Cu6 2.907524 1_564
Cu1 Cu7 2.907525 1_565
Cu1 Zr10 3.188345 1_555
Cu1 Zr6 3.188353 1_554
Cu1 Zr8 3.188355 1_455
Cu2 Zr14 2.661887 1_665
Cu2 Zr13 2.661888 1_656
Cu2 Zr15 2.661890 1_566
Cu2 Zr8 2.898317 1_555
Cu2 Zr6 2.898318 1_555
Cu2 Zr1 2.898319 1_555
Cu2 Cu3 2.907524 1_655
Cu2 Cu4 2.907525 1_565
Cu2 Cu5 2.907527 1_556
Cu2 Zr11 3.188349 1_565
Cu2 Zr4 3.188350 1_655
Cu2 Zr12 3.188351 1_556
Cu3 Zr13 2.661882 1_556
Cu3 Zr14 2.661884 1_565
Cu3 Zr7 2.661892 1_566
Cu3 Zr5 2.898321 1_555
Cu3 Zr10 2.898322 1_555
Cu3 Zr6 2.898327 1_555
Cu3 Cu5 2.907525 1_456
Cu3 Cu4 2.907527 1_465
Cu3 Zr4 3.188346 1_555
Cu3 Zr9 3.188352 1_556
Cu3 Zr3 3.188355 1_565
Cu4 Zr15 2.661882 1_556
Cu4 Zr14 2.661885 1_655
Cu4 Zr7 2.661891 1_656
Cu4 Zr5 2.898321 1_555
Cu4 Zr0 2.898322 1_555
Cu4 Zr1 2.898327 1_555
Cu4 Cu5 2.907524 1_546
Cu4 Zr11 3.188345 1_555
Cu4 Zr2 3.188353 1_556
Cu4 Zr3 3.188355 1_655
Cu5 Zr15 2.661884 1_565
Cu5 Zr13 2.661885 1_655
Cu5 Zr7 2.661889 1_665
Cu5 Zr0 2.898322 1_555
Cu5 Zr10 2.898322 1_555
Cu5 Zr8 2.898326 1_555
Cu5 Zr12 3.188347 1_555
Cu5 Zr9 3.188352 1_655
Cu5 Zr2 3.188353 1_565
Cu6 Zr15 2.661884 1_556
Cu6 Zr13 2.661885 1_556
Cu6 Zr7 2.661889 1_556
Cu6 Zr4 2.898322 1_555
Cu6 Zr11 2.898322 1_555
Cu6 Zr3 2.898326 1_555
Cu6 Cu7 2.907527 1_556
Cu6 Zr5 3.188347 1_555
Cu6 Zr1 3.188352 1_455
Cu6 Zr6 3.188353 1_545
Cu7 Zr14 2.661887 1_555
Cu7 Zr13 2.661888 1_555
Cu7 Zr15 2.661890 1_555
Cu7 Zr3 2.898317 1_555
Cu7 Zr2 2.898318 1_555
Cu7 Zr9 2.898319 1_555
Cu7 Zr10 3.188349 1_545
Cu7 Zr0 3.188350 1_455
Cu7 Zr5 3.188351 1_554
