# generated using pymatgen
data_Pr5B2C5
_symmetry_space_group_name_H-M   'P 1'
_cell_length_a   8.68167200
_cell_length_b   8.68167200
_cell_length_c   11.08934100
_cell_angle_alpha   90.00000000
_cell_angle_beta   90.00000000
_cell_angle_gamma   90.00000000
_symmetry_Int_Tables_number   1
_chemical_formula_structural   Pr5B2C5
_chemical_formula_sum   'Pr20 B8 C20'
_cell_volume   835.81947468
_cell_formula_units_Z   4
loop_
 _symmetry_equiv_pos_site_id
 _symmetry_equiv_pos_as_xyz
  1  'x, y, z'
loop_
 _atom_site_type_symbol
 _atom_site_label
 _atom_site_symmetry_multiplicity
 _atom_site_fract_x
 _atom_site_fract_y
 _atom_site_fract_z
 _atom_site_occupancy
  Pr  Pr0  1  0.59330700  0.71345900  0.89829400  1
  Pr  Pr1  1  0.40669300  0.28654100  0.89829400  1
  Pr  Pr2  1  0.50000000  0.00000000  0.64316400  1
  Pr  Pr3  1  0.50000000  0.00000000  0.14316400  1
  Pr  Pr4  1  0.71345900  0.59330700  0.60170600  1
  Pr  Pr5  1  0.90669300  0.21345900  0.60170600  1
  Pr  Pr6  1  0.09330700  0.21345900  0.10170600  1
  Pr  Pr7  1  0.78654100  0.90669300  0.39829400  1
  Pr  Pr8  1  0.21345900  0.90669300  0.89829400  1
  Pr  Pr9  1  0.40669300  0.71345900  0.39829400  1
  Pr  Pr10  1  0.21345900  0.09330700  0.39829400  1
  Pr  Pr11  1  0.28654100  0.40669300  0.60170600  1
  Pr  Pr12  1  0.71345900  0.40669300  0.10170600  1
  Pr  Pr13  1  0.78654100  0.09330700  0.89829400  1
  Pr  Pr14  1  0.28654100  0.59330700  0.10170600  1
  Pr  Pr15  1  0.59330700  0.28654100  0.39829400  1
  Pr  Pr16  1  0.09330700  0.78654100  0.60170600  1
  Pr  Pr17  1  0.00000000  0.50000000  0.35683600  1
  Pr  Pr18  1  0.00000000  0.50000000  0.85683600  1
  Pr  Pr19  1  0.90669300  0.78654100  0.10170600  1
  B  B0  1  0.84415200  0.15584800  0.25000000  1
  B  B1  1  0.65584800  0.65584800  0.25000000  1
  B  B2  1  0.34415200  0.34415200  0.25000000  1
  B  B3  1  0.15584800  0.84415200  0.25000000  1
  B  B4  1  0.84415200  0.84415200  0.75000000  1
  B  B5  1  0.15584800  0.15584800  0.75000000  1
  B  B6  1  0.65584800  0.34415200  0.75000000  1
  B  B7  1  0.34415200  0.65584800  0.75000000  1
  C  C0  1  0.10396000  0.80085400  0.37132100  1
  C  C1  1  0.00000000  0.50000000  0.09572400  1
  C  C2  1  0.00000000  0.50000000  0.59572400  1
  C  C3  1  0.50000000  0.00000000  0.90427600  1
  C  C4  1  0.60396000  0.69914600  0.12867900  1
  C  C5  1  0.10396000  0.19914600  0.87132100  1
  C  C6  1  0.39604000  0.30085400  0.12867900  1
  C  C7  1  0.89604000  0.19914600  0.37132100  1
  C  C8  1  0.80085400  0.10396000  0.12867900  1
  C  C9  1  0.80085400  0.89604000  0.62867900  1
  C  C10  1  0.30085400  0.60396000  0.87132100  1
  C  C11  1  0.69914600  0.39604000  0.87132100  1
  C  C12  1  0.19914600  0.89604000  0.12867900  1
  C  C13  1  0.50000000  0.00000000  0.40427600  1
  C  C14  1  0.60396000  0.30085400  0.62867900  1
  C  C15  1  0.89604000  0.80085400  0.87132100  1
  C  C16  1  0.39604000  0.69914600  0.62867900  1
  C  C17  1  0.30085400  0.39604000  0.37132100  1
  C  C18  1  0.19914600  0.10396000  0.62867900  1
  C  C19  1  0.69914600  0.60396000  0.37132100  1
loop_
_geom_bond_atom_site_label_1
_geom_bond_atom_site_label_2
_geom_bond_distance
_geom_bond_site_symmetry_2
B0 C8 1.467736 1_555
B0 C7 1.467736 1_555
B0 Pr6 2.762862 1_655
B0 Pr7 2.762862 1_545
B0 Pr15 2.955390 1_555
B0 Pr12 2.955390 1_555
B1 C19 1.467736 1_555
B1 C4 1.467736 1_555
B1 Pr9 2.762862 1_555
B1 Pr12 2.762862 1_555
B1 Pr7 2.955390 1_555
B1 Pr19 2.955390 1_555
B2 C6 1.467736 1_555
B2 C17 1.467736 1_555
B2 Pr15 2.762862 1_555
B2 Pr14 2.762862 1_555
B2 Pr6 2.955390 1_555
B2 Pr10 2.955390 1_555
B3 C12 1.467736 1_555
B3 C0 1.467736 1_555
B3 Pr10 2.762862 1_565
B3 Pr19 2.762862 1_455
B3 Pr14 2.955390 1_555
B3 Pr9 2.955390 1_555
B4 C15 1.467736 1_555
B4 C9 1.467736 1_555
B4 Pr13 2.762862 1_565
B4 Pr16 2.762862 1_655
B4 Pr0 2.955390 1_555
B4 Pr4 2.955390 1_555
B5 C18 1.467736 1_555
B5 C5 1.467736 1_555
B5 Pr8 2.762862 1_545
B5 Pr5 2.762862 1_455
B5 Pr11 2.955390 1_555
B5 Pr1 2.955390 1_555
B6 C14 1.467736 1_555
B6 C11 1.467736 1_555
B6 Pr1 2.762862 1_555
B6 Pr4 2.762862 1_555
B6 Pr5 2.955390 1_555
B6 Pr13 2.955390 1_555
B7 C10 1.467736 1_555
B7 C16 1.467736 1_555
B7 Pr11 2.762862 1_555
B7 Pr0 2.762862 1_555
B7 Pr8 2.955390 1_555
B7 Pr16 2.955390 1_555
C0 Pr16 2.559509 1_555
C0 Pr10 2.727563 1_565
C0 Pr9 2.751860 1_555
C0 Pr17 2.768121 1_555
C0 Pr7 2.920241 1_455
C1 Pr14 2.617064 1_555
C1 Pr6 2.617064 1_555
C1 Pr12 2.617064 1_455
C1 Pr19 2.617064 1_455
C1 Pr18 2.649110 1_554
C1 Pr17 2.895560 1_555
C2 Pr5 2.617064 1_455
C2 Pr11 2.617064 1_555
C2 Pr16 2.617064 1_555
C2 Pr4 2.617064 1_455
C2 Pr17 2.649110 1_555
C2 Pr18 2.895560 1_555
C3 Pr1 2.617064 1_555
C3 Pr8 2.617064 1_545
C3 Pr0 2.617064 1_545
C3 Pr13 2.617064 1_555
C3 Pr3 2.649110 1_556
C3 Pr2 2.895560 1_555
C4 Pr0 2.559509 1_554
C4 Pr12 2.727563 1_555
C4 Pr19 2.751860 1_555
C4 Pr3 2.768121 1_565
C4 Pr14 2.920241 1_555
C5 Pr6 2.559509 1_556
C5 Pr8 2.727563 1_545
C5 Pr1 2.751860 1_555
C5 Pr18 2.768121 1_555
C5 Pr13 2.920241 1_455
C6 Pr1 2.559509 1_554
C6 Pr14 2.727563 1_555
C6 Pr6 2.751860 1_555
C6 Pr3 2.768121 1_555
C6 Pr12 2.920241 1_555
C7 Pr5 2.559509 1_555
C7 Pr7 2.727563 1_545
C7 Pr15 2.751860 1_555
C7 Pr17 2.768121 1_655
C7 Pr10 2.920241 1_655
C8 Pr13 2.559509 1_554
C8 Pr6 2.727563 1_655
C8 Pr12 2.751860 1_555
C8 Pr3 2.768121 1_555
C8 Pr19 2.920241 1_545
C9 Pr7 2.559509 1_555
C9 Pr16 2.727563 1_655
C9 Pr4 2.751860 1_555
C9 Pr2 2.768121 1_565
C9 Pr5 2.920241 1_565
C10 Pr14 2.559509 1_556
C10 Pr0 2.727563 1_555
C10 Pr8 2.751860 1_555
C10 Pr18 2.768121 1_555
C10 Pr1 2.920241 1_555
C11 Pr12 2.559509 1_556
C11 Pr1 2.727563 1_555
C11 Pr13 2.751860 1_555
C11 Pr18 2.768121 1_655
C11 Pr0 2.920241 1_555
C12 Pr8 2.559509 1_554
C12 Pr19 2.727563 1_455
C12 Pr14 2.751860 1_555
C12 Pr3 2.768121 1_565
C12 Pr6 2.920241 1_565
C13 Pr15 2.617064 1_555
C13 Pr9 2.617064 1_545
C13 Pr10 2.617064 1_555
C13 Pr7 2.617064 1_545
C13 Pr2 2.649110 1_555
C13 Pr3 2.895560 1_555
C14 Pr15 2.559509 1_555
C14 Pr4 2.727563 1_555
C14 Pr5 2.751860 1_555
C14 Pr2 2.768121 1_555
C14 Pr11 2.920241 1_555
C15 Pr19 2.559509 1_556
C15 Pr13 2.727563 1_565
C15 Pr0 2.751860 1_555
C15 Pr18 2.768121 1_655
C15 Pr8 2.920241 1_655
C16 Pr9 2.559509 1_555
C16 Pr11 2.727563 1_555
C16 Pr16 2.751860 1_555
C16 Pr2 2.768121 1_565
C16 Pr4 2.920241 1_555
C17 Pr11 2.559509 1_555
C17 Pr15 2.727563 1_555
C17 Pr10 2.751860 1_555
C17 Pr17 2.768121 1_555
C17 Pr9 2.920241 1_555
C18 Pr10 2.559509 1_555
C18 Pr5 2.727563 1_455
C18 Pr11 2.751860 1_555
C18 Pr2 2.768121 1_555
C18 Pr16 2.920241 1_545
C19 Pr4 2.559509 1_555
C19 Pr9 2.727563 1_555
C19 Pr7 2.751860 1_555
C19 Pr17 2.768121 1_655
C19 Pr15 2.920241 1_555
