# generated using pymatgen
data_RbCuC2
_symmetry_space_group_name_H-M   'P 1'
_cell_length_a   4.54133700
_cell_length_b   4.54133700
_cell_length_c   4.94491400
_cell_angle_alpha   90.00000000
_cell_angle_beta   90.00000000
_cell_angle_gamma   90.00000000
_symmetry_Int_Tables_number   1
_chemical_formula_structural   RbCuC2
_chemical_formula_sum   'Rb1 Cu1 C2'
_cell_volume   101.98262930
_cell_formula_units_Z   1
loop_
 _symmetry_equiv_pos_site_id
 _symmetry_equiv_pos_as_xyz
  1  'x, y, z'
loop_
 _atom_site_type_symbol
 _atom_site_label
 _atom_site_symmetry_multiplicity
 _atom_site_fract_x
 _atom_site_fract_y
 _atom_site_fract_z
 _atom_site_occupancy
  Rb  Rb0  1  0.50000000  0.50000000  0.50000000  1
  Cu  Cu0  1  0.00000000  0.00000000  0.00000000  1
  C  C0  1  0.00000000  0.00000000  0.62693500  1
  C  C1  1  0.00000000  0.00000000  0.37306500  1
loop_
_geom_bond_atom_site_label_1
_geom_bond_atom_site_label_2
_geom_bond_distance
_geom_bond_site_symmetry_2
C0 C1 1.255365 1_555
C0 Cu0 1.844774 1_556
C0 Rb0 3.271981 1_455
C0 Rb0 3.271981 1_555
C0 Rb0 3.271981 1_545
C0 Rb0 3.271981 1_445
C1 Cu0 1.844774 1_555
C1 Rb0 3.271981 1_455
C1 Rb0 3.271981 1_555
C1 Rb0 3.271981 1_545
C1 Rb0 3.271981 1_445
