# generated using pymatgen
data_CaAl2B2O7
_symmetry_space_group_name_H-M   'P 1'
_cell_length_a   15.96034742
_cell_length_b   15.96034742
_cell_length_c   15.96034761
_cell_angle_alpha   17.52726594
_cell_angle_beta   17.52726594
_cell_angle_gamma   17.52726277
_symmetry_Int_Tables_number   1
_chemical_formula_structural   CaAl2B2O7
_chemical_formula_sum   'Ca2 Al4 B4 O14'
_cell_volume   321.82826377
_cell_formula_units_Z   2
loop_
 _symmetry_equiv_pos_site_id
 _symmetry_equiv_pos_as_xyz
  1  'x, y, z'
loop_
 _atom_site_type_symbol
 _atom_site_label
 _atom_site_symmetry_multiplicity
 _atom_site_fract_x
 _atom_site_fract_y
 _atom_site_fract_z
 _atom_site_occupancy
  Ca  Ca0  1  0.50000000  0.50000000  0.50000000  1
  Ca  Ca1  1  0.00000000  0.00000000  0.00000000  1
  Al  Al0  1  0.78585400  0.78585400  0.78585400  1
  Al  Al1  1  0.28585400  0.28585400  0.28585400  1
  Al  Al2  1  0.21414600  0.21414600  0.21414600  1
  Al  Al3  1  0.71414600  0.71414600  0.71414600  1
  B  B0  1  0.13415400  0.13415400  0.13415400  1
  B  B1  1  0.36584600  0.36584600  0.36584600  1
  B  B2  1  0.86584600  0.86584600  0.86584600  1
  B  B3  1  0.63415400  0.63415400  0.63415400  1
  O  O0  1  0.59703700  0.93648100  0.37182400  1
  O  O1  1  0.43648100  0.09703700  0.87182400  1
  O  O2  1  0.56351900  0.90296300  0.12817600  1
  O  O3  1  0.62817600  0.40296300  0.06351900  1
  O  O4  1  0.40296300  0.06351900  0.62817600  1
  O  O5  1  0.93648100  0.37182400  0.59703700  1
  O  O6  1  0.09703700  0.87182400  0.43648100  1
  O  O7  1  0.90296300  0.12817600  0.56351900  1
  O  O8  1  0.87182400  0.43648100  0.09703700  1
  O  O9  1  0.06351900  0.62817600  0.40296300  1
  O  O10  1  0.37182400  0.59703700  0.93648100  1
  O  O11  1  0.75000000  0.75000000  0.75000000  1
  O  O12  1  0.12817600  0.56351900  0.90296300  1
  O  O13  1  0.25000000  0.25000000  0.25000000  1
loop_
_geom_bond_atom_site_label_1
_geom_bond_atom_site_label_2
_geom_bond_distance
_geom_bond_site_symmetry_2
Ca0 O7 2.404070 1_555
Ca0 O6 2.404070 1_555
Ca0 O2 2.404070 1_555
Ca0 O1 2.404070 1_555
Ca0 O12 2.404070 1_555
Ca0 O8 2.404070 1_555
Ca1 O3 2.404070 1_455
Ca1 O10 2.404070 1_544
Ca1 O4 2.404070 1_554
Ca1 O0 2.404070 1_445
Ca1 O9 2.404070 1_545
Ca1 O5 2.404070 1_454
Al0 O11 1.689951 1_555
Al0 O1 1.797408 1_565
Al0 O8 1.797408 1_556
Al0 O6 1.797408 1_655
Al1 O13 1.689951 1_555
Al1 O0 1.797408 1_545
Al1 O5 1.797408 1_455
Al1 O10 1.797408 1_554
Al2 O13 1.689951 1_555
Al2 O2 1.797408 1_545
Al2 O12 1.797408 1_554
Al2 O7 1.797408 1_455
Al3 O11 1.689951 1_555
Al3 O4 1.797408 1_565
Al3 O9 1.797408 1_655
Al3 O3 1.797408 1_556
B0 O8 1.383148 1_455
B0 O1 1.383148 1_554
B0 O6 1.383148 1_545
B1 O9 1.383148 1_555
B1 O4 1.383148 1_555
B1 O3 1.383148 1_555
B2 O12 1.383148 1_655
B2 O2 1.383148 1_556
B2 O7 1.383148 1_565
B3 O5 1.383148 1_555
B3 O0 1.383148 1_555
B3 O10 1.383148 1_555
