# generated using pymatgen
data_Li2Cu(WO4)2
_symmetry_space_group_name_H-M   'P 1'
_cell_length_a   5.11741200
_cell_length_b   5.47539662
_cell_length_c   5.94654357
_cell_angle_alpha   106.57157867
_cell_angle_beta   85.35669760
_cell_angle_gamma   112.62079707
_symmetry_Int_Tables_number   1
_chemical_formula_structural   Li2Cu(WO4)2
_chemical_formula_sum   'Li2 Cu1 W2 O8'
_cell_volume   147.33705716
_cell_formula_units_Z   1
loop_
 _symmetry_equiv_pos_site_id
 _symmetry_equiv_pos_as_xyz
  1  'x, y, z'
loop_
 _atom_site_type_symbol
 _atom_site_label
 _atom_site_symmetry_multiplicity
 _atom_site_fract_x
 _atom_site_fract_y
 _atom_site_fract_z
 _atom_site_occupancy
  Li  Li0  1  0.06413000  0.58601100  0.77526500  1
  Li  Li1  1  0.93587000  0.41398900  0.22473500  1
  Cu  Cu0  1  0.50000000  0.50000000  0.00000000  1
  W  W0  1  0.72814600  0.97471000  0.65733000  1
  W  W1  1  0.27185400  0.02529000  0.34267000  1
  O  O0  1  0.27914500  0.72945200  0.08768900  1
  O  O1  1  0.86124200  0.77987400  0.35804700  1
  O  O2  1  0.72085500  0.27054800  0.91231100  1
  O  O3  1  0.33905000  0.79825300  0.56924400  1
  O  O4  1  0.24559800  0.25363900  0.17998200  1
  O  O5  1  0.13875800  0.22012600  0.64195300  1
  O  O6  1  0.75440200  0.74636100  0.82001800  1
  O  O7  1  0.66095000  0.20174700  0.43075600  1
loop_
_geom_bond_atom_site_label_1
_geom_bond_atom_site_label_2
_geom_bond_distance
_geom_bond_site_symmetry_2
Li0 O3 2.026345 1_555
Li0 O0 2.028049 1_556
Li0 O6 2.054956 1_455
Li0 O5 2.102707 1_555
Li0 O2 2.229484 1_455
Li1 O7 2.026345 1_555
Li1 O2 2.028049 1_554
Li1 O4 2.054956 1_655
Li1 O1 2.102707 1_555
Li1 O0 2.229484 1_655
Cu0 O2 1.936710 1_554
Cu0 O0 1.936710 1_555
Cu0 O6 1.976608 1_554
Cu0 O4 1.976608 1_555
Cu0 O1 2.625996 1_555
Cu0 O5 2.625996 1_554
O0 W1 1.886954 1_565
O1 W0 2.012212 1_555
O1 W1 2.023925 1_665
O2 W0 1.886954 1_545
O3 W0 1.890203 1_555
O3 W1 2.199578 1_565
O4 W1 1.832344 1_555
O5 W1 2.012212 1_555
O5 W0 2.023925 1_445
O6 W0 1.832344 1_555
O7 W1 1.890203 1_555
O7 W0 2.199578 1_545
