# generated using pymatgen
data_CaTeO3
_symmetry_space_group_name_H-M   'P 1'
_cell_length_a   10.45599300
_cell_length_b   11.46656368
_cell_length_c   14.21803649
_cell_angle_alpha   78.07817309
_cell_angle_beta   85.12928182
_cell_angle_gamma   72.65453033
_symmetry_Int_Tables_number   1
_chemical_formula_structural   CaTeO3
_chemical_formula_sum   'Ca18 Te18 O54'
_cell_volume   1591.54807997
_cell_formula_units_Z   18
loop_
 _symmetry_equiv_pos_site_id
 _symmetry_equiv_pos_as_xyz
  1  'x, y, z'
loop_
 _atom_site_type_symbol
 _atom_site_label
 _atom_site_symmetry_multiplicity
 _atom_site_fract_x
 _atom_site_fract_y
 _atom_site_fract_z
 _atom_site_occupancy
  Ca  Ca0  1  0.90620200  0.37562300  0.56910200  1
  Ca  Ca1  1  0.39918800  0.62807400  0.08005600  1
  Ca  Ca2  1  0.25129300  0.41646000  0.26463400  1
  Ca  Ca3  1  0.72555500  0.11706500  0.75657800  1
  Ca  Ca4  1  0.88650600  0.96258800  0.31959100  1
  Ca  Ca5  1  0.05819400  0.14399200  0.40480600  1
  Ca  Ca6  1  0.45891000  0.06170900  0.34665000  1
  Ca  Ca7  1  0.06720000  0.63810100  0.42567100  1
  Ca  Ca8  1  0.60884200  0.36309200  0.92537000  1
  Ca  Ca9  1  0.43347700  0.12954400  0.07200200  1
  Ca  Ca10  1  0.28467200  0.87691700  0.23880500  1
  Ca  Ca11  1  0.92895800  0.86815500  0.59212100  1
  Ca  Ca12  1  0.81800800  0.03454700  0.02150500  1
  Ca  Ca13  1  0.75770400  0.57847400  0.74540400  1
  Ca  Ca14  1  0.53468000  0.93578700  0.64933000  1
  Ca  Ca15  1  0.19021700  0.96104400  0.97741800  1
  Ca  Ca16  1  0.13913700  0.03898100  0.67202300  1
  Ca  Ca17  1  0.57412700  0.86583200  0.92516700  1
  Te  Te0  1  0.61074300  0.82829100  0.16372300  1
  Te  Te1  1  0.61115400  0.25380900  0.19840800  1
  Te  Te2  1  0.74126900  0.15835400  0.52256600  1
  Te  Te3  1  0.40012100  0.16338100  0.83281900  1
  Te  Te4  1  0.10931500  0.56274300  0.67088200  1
  Te  Te5  1  0.22292600  0.47578300  0.97867800  1
  Te  Te6  1  0.24509200  0.84934600  0.46967600  1
  Te  Te7  1  0.06365200  0.17947700  0.13284700  1
  Te  Te8  1  0.03576200  0.73587800  0.14187700  1
  Te  Te9  1  0.27854100  0.26055400  0.52986000  1
  Te  Te10  1  0.52992900  0.45999700  0.64988700  1
  Te  Te11  1  0.88875500  0.44424700  0.32104100  1
  Te  Te12  1  0.78283200  0.51848000  0.02864600  1
  Te  Te13  1  0.45573700  0.53727000  0.36192400  1
  Te  Te14  1  0.69349100  0.75563600  0.48168900  1
  Te  Te15  1  0.39695500  0.72999300  0.80920300  1
  Te  Te16  1  0.94803000  0.82515200  0.86037000  1
  Te  Te17  1  0.96838800  0.26131900  0.85394700  1
  O  O0  1  0.70430900  0.74405400  0.61471000  1
  O  O1  1  0.68121900  0.49077900  0.58053200  1
  O  O2  1  0.39447300  0.49706800  0.94939900  1
  O  O3  1  0.43016500  0.51148500  0.23840100  1
  O  O4  1  0.21565400  0.51876300  0.10116800  1
  O  O5  1  0.48864600  0.94997400  0.22433200  1
  O  O6  1  0.10776500  0.23090700  0.53389000  1
  O  O7  1  0.52799300  0.20530800  0.89535800  1
  O  O8  1  0.00302400  0.10321700  0.25192200  1
  O  O9  1  0.87614000  0.05280900  0.45552800  1
  O  O10  1  0.11679700  0.95646900  0.53975400  1
  O  O11  1  0.09971200  0.12338700  0.81419700  1
  O  O12  1  0.61382200  0.49228100  0.05967200  1
  O  O13  1  0.71640300  0.01907400  0.61659500  1
  O  O14  1  0.07219000  0.62729000  0.26228500  1
  O  O15  1  0.63526200  0.94790700  0.05552700  1
  O  O16  1  0.92045800  0.37227300  0.73536700  1
  O  O17  1  0.29030900  0.51520700  0.41322300  1
  O  O18  1  0.36816300  0.04818400  0.94251200  1
  O  O19  1  0.57892800  0.48150500  0.76892200  1
  O  O20  1  0.67293700  0.09899800  0.28347800  1
  O  O21  1  0.33086100  0.24207000  0.40176500  1
  O  O22  1  0.05071700  0.49825700  0.57761100  1
  O  O23  1  0.35387200  0.09831800  0.59716200  1
  O  O24  1  0.25528000  0.30313400  0.00455100  1
  O  O25  1  0.06206400  0.34433600  0.29235900  1
  O  O26  1  0.00994400  0.89492000  0.95138300  1
  O  O27  1  0.94942700  0.65490200  0.72418900  1
  O  O28  1  0.79023900  0.47523100  0.90637700  1
  O  O29  1  0.98948500  0.91609200  0.74057100  1
  O  O30  1  0.27186200  0.98772200  0.37567500  1
  O  O31  1  0.56663100  0.91445200  0.46988000  1
  O  O32  1  0.90603500  0.87793300  0.17818500  1
  O  O33  1  0.81350300  0.19979700  0.87386400  1
  O  O34  1  0.99959700  0.10763600  0.04454200  1
  O  O35  1  0.23783700  0.06843100  0.13330800  1
  O  O36  1  0.85187200  0.18573800  0.61004900  1
  O  O37  1  0.33072600  0.87924400  0.72015800  1
  O  O38  1  0.12804300  0.82784200  0.38202400  1
  O  O39  1  0.77060100  0.92665300  0.86843900  1
  O  O40  1  0.84377700  0.31238700  0.40747000  1
  O  O41  1  0.91629400  0.52115100  0.41830100  1
  O  O42  1  0.43049500  0.24757000  0.20375500  1
  O  O43  1  0.74482000  0.69191500  0.00359900  1
  O  O44  1  0.57464900  0.74331900  0.80167400  1
  O  O45  1  0.64998100  0.20441900  0.07649900  1
  O  O46  1  0.35547800  0.78600000  0.92855100  1
  O  O47  1  0.19217200  0.79448200  0.12646500  1
  O  O48  1  0.47340000  0.79012900  0.10912000  1
  O  O49  1  0.85691100  0.79928900  0.44749600  1
  O  O50  1  0.52695100  0.03626400  0.78075900  1
  O  O51  1  0.13379500  0.70051800  0.57929000  1
  O  O52  1  0.42893000  0.71008600  0.33960600  1
  O  O53  1  0.55943600  0.28667000  0.66962600  1
loop_
_geom_bond_atom_site_label_1
_geom_bond_atom_site_label_2
_geom_bond_distance
_geom_bond_site_symmetry_2
Ca0 O1 2.339970 1_555
Ca0 O6 2.350477 1_655
Ca0 O36 2.357973 1_555
Ca0 O16 2.372955 1_555
Ca0 O22 2.375618 1_655
Ca0 O41 2.445653 1_555
Ca0 O40 2.731008 1_555
Ca1 O48 2.336085 1_555
Ca1 O12 2.353163 1_555
Ca1 O3 2.362813 1_555
Ca1 O46 2.488042 1_554
Ca1 O4 2.554370 1_555
Ca1 O47 2.564484 1_555
Ca1 O2 2.631094 1_554
Ca2 O25 2.337231 1_555
Ca2 O4 2.382581 1_555
Ca2 O3 2.398558 1_555
Ca2 O21 2.482927 1_555
Ca2 O42 2.502796 1_555
Ca2 O14 2.574924 1_555
Ca2 O17 2.705894 1_555
Ca3 O39 2.365968 1_545
Ca3 O53 2.384259 1_555
Ca3 O33 2.441422 1_555
Ca3 O36 2.485949 1_555
Ca3 O50 2.486617 1_555
Ca3 O13 2.500661 1_555
Ca3 O7 2.840920 1_555
Ca3 O29 3.048953 1_545
Ca4 O8 2.311186 1_665
Ca4 O20 2.340312 1_565
Ca4 O9 2.353976 1_565
Ca4 O32 2.375825 1_555
Ca4 O49 2.398362 1_555
Ca4 O38 2.653447 1_655
Ca5 O6 2.419824 1_555
Ca5 O9 2.424639 1_455
Ca5 O8 2.463743 1_555
Ca5 O30 2.477121 1_545
Ca5 O40 2.488118 1_455
Ca5 O25 2.522325 1_555
Ca5 O10 2.527826 1_545
Ca6 O31 2.273410 1_545
Ca6 O5 2.313864 1_545
Ca6 O30 2.328675 1_545
Ca6 O21 2.350354 1_555
Ca6 O20 2.463358 1_555
Ca6 O42 2.587280 1_555
Ca7 O14 2.347145 1_555
Ca7 O17 2.352013 1_555
Ca7 O41 2.376296 1_455
Ca7 O38 2.392452 1_555
Ca7 O22 2.436846 1_555
Ca7 O49 2.458646 1_455
Ca7 O51 2.639872 1_555
Ca8 O7 2.337144 1_555
Ca8 O19 2.346572 1_555
Ca8 O2 2.352541 1_555
Ca8 O45 2.487488 1_556
Ca8 O33 2.555943 1_555
Ca8 O28 2.558810 1_555
Ca8 O12 2.659869 1_556
Ca9 O24 2.378389 1_555
Ca9 O35 2.394773 1_555
Ca9 O18 2.455479 1_554
Ca9 O15 2.518274 1_545
Ca9 O42 2.520718 1_555
Ca9 O5 2.631489 1_545
Ca9 O45 2.659321 1_555
Ca9 O7 2.688522 1_554
Ca10 O35 2.331257 1_565
Ca10 O52 2.345752 1_555
Ca10 O47 2.410681 1_555
Ca10 O5 2.492447 1_555
Ca10 O30 2.508993 1_555
Ca10 O38 2.579732 1_555
Ca10 O48 2.693240 1_555
Ca11 O13 2.424744 1_565
Ca11 O51 2.437035 1_655
Ca11 O10 2.462394 1_655
Ca11 O29 2.463975 1_555
Ca11 O9 2.519093 1_565
Ca11 O49 2.589974 1_555
Ca11 O27 2.722183 1_555
Ca11 O0 3.053145 1_555
Ca12 O34 2.362737 1_555
Ca12 O15 2.376650 1_545
Ca12 O45 2.418183 1_555
Ca12 O26 2.447196 1_644
Ca12 O33 2.513837 1_554
Ca12 O32 2.597017 1_545
Ca12 O39 2.858991 1_544
Ca13 O0 2.335799 1_555
Ca13 O28 2.351191 1_555
Ca13 O27 2.390245 1_555
Ca13 O19 2.412862 1_555
Ca13 O44 2.466570 1_555
Ca13 O16 2.491144 1_555
Ca14 O23 2.272377 1_565
Ca14 O13 2.342480 1_565
Ca14 O50 2.373638 1_565
Ca14 O37 2.484391 1_555
Ca14 O0 2.489047 1_555
Ca14 O31 2.597237 1_555
Ca14 O44 2.713988 1_555
Ca15 O26 2.313332 1_555
Ca15 O18 2.335246 1_565
Ca15 O46 2.408639 1_555
Ca15 O34 2.459865 1_466
Ca15 O47 2.539848 1_556
Ca15 O11 2.698901 1_565
Ca15 O35 2.890917 1_566
Ca16 O37 2.315895 1_545
Ca16 O10 2.329785 1_545
Ca16 O11 2.371027 1_555
Ca16 O29 2.423283 1_445
Ca16 O6 2.588681 1_555
Ca16 O23 2.615897 1_555
Ca17 O39 2.386984 1_555
Ca17 O43 2.388061 1_556
Ca17 O15 2.451574 1_556
Ca17 O44 2.463598 1_555
Ca17 O50 2.493496 1_565
Ca17 O18 2.551194 1_565
Ca17 O46 2.697762 1_555
Ca17 O48 2.800478 1_556
O0 Te14 1.879105 1_555
O1 Te10 1.877114 1_555
O2 Te5 1.882142 1_555
O3 Te13 1.893346 1_555
O4 Te5 1.895126 1_554
O5 Te0 1.888669 1_555
O6 Te9 1.908889 1_555
O7 Te3 1.889760 1_555
O8 Te7 1.889292 1_555
O9 Te2 1.895404 1_555
O10 Te6 1.896637 1_555
O11 Te17 1.910222 1_455
O12 Te12 1.880728 1_555
O13 Te2 1.926645 1_555
O14 Te8 1.890374 1_555
O15 Te0 1.893252 1_555
O16 Te17 1.894573 1_555
O17 Te13 1.886357 1_555
O18 Te3 1.900637 1_555
O19 Te10 1.892805 1_555
O20 Te1 1.895594 1_555
O21 Te9 1.892705 1_555
O22 Te4 1.869233 1_555
O23 Te9 1.874989 1_555
O24 Te5 1.868118 1_554
O25 Te11 1.895316 1_455
O26 Te16 1.900621 1_455
O27 Te4 1.883713 1_655
O28 Te12 1.893271 1_556
O29 Te16 1.893887 1_555
O30 Te6 1.925449 1_555
O31 Te14 1.890805 1_555
O32 Te8 1.915912 1_655
O33 Te17 1.929078 1_555
O34 Te7 1.898050 1_655
O35 Te7 1.885267 1_555
O36 Te2 1.898761 1_555
O37 Te15 1.886356 1_555
O38 Te6 1.917723 1_555
O39 Te16 1.881773 1_555
O40 Te11 1.890910 1_555
O40 Te2 2.565752 1_555
O41 Te11 1.869659 1_555
O42 Te1 1.906055 1_555
O43 Te12 1.870793 1_555
O44 Te15 1.901473 1_555
O45 Te1 1.907584 1_555
O46 Te15 1.907659 1_555
O47 Te8 1.925559 1_555
O48 Te0 1.887017 1_555
O49 Te14 1.917028 1_555
O50 Te3 1.886160 1_555
O51 Te4 1.895178 1_555
O51 Te6 2.544164 1_555
O52 Te13 1.878868 1_555
O53 Te10 1.882181 1_555
