# generated using pymatgen
data_MnH11C5NO6
_symmetry_space_group_name_H-M   'P 1'
_cell_length_a   8.36258900
_cell_length_b   9.17263800
_cell_length_c   12.18008000
_cell_angle_alpha   90.00000000
_cell_angle_beta   90.00000000
_cell_angle_gamma   90.00000000
_symmetry_Int_Tables_number   1
_chemical_formula_structural   MnH11C5NO6
_chemical_formula_sum   'Mn4 H44 C20 N4 O24'
_cell_volume   934.29741653
_cell_formula_units_Z   4
loop_
 _symmetry_equiv_pos_site_id
 _symmetry_equiv_pos_as_xyz
  1  'x, y, z'
loop_
 _atom_site_type_symbol
 _atom_site_label
 _atom_site_symmetry_multiplicity
 _atom_site_fract_x
 _atom_site_fract_y
 _atom_site_fract_z
 _atom_site_occupancy
  Mn  Mn0  1  0.99619800  0.02965000  0.00024000  1
  Mn  Mn1  1  0.49619800  0.47035000  0.50024000  1
  Mn  Mn2  1  0.00380200  0.97035000  0.50024000  1
  Mn  Mn3  1  0.50380200  0.52965000  0.00024000  1
  H  H0  1  0.70811700  0.17343600  0.46477400  1
  H  H1  1  0.36830100  0.15146000  0.80421800  1
  H  H2  1  0.00555000  0.67004700  0.30600600  1
  H  H3  1  0.15207500  0.38390500  0.72454300  1
  H  H4  1  0.82542100  0.50541400  0.71450100  1
  H  H5  1  0.17457900  0.49458600  0.21450100  1
  H  H6  1  0.93588000  0.72731600  0.79915900  1
  H  H7  1  0.13169900  0.65146000  0.80421800  1
  H  H8  1  0.92943500  0.01533800  0.74298600  1
  H  H9  1  0.97607700  0.57943800  0.88812100  1
  H  H10  1  0.07056500  0.98466200  0.24298600  1
  H  H11  1  0.06412000  0.27268400  0.29915900  1
  H  H12  1  0.57056500  0.51533800  0.74298600  1
  H  H13  1  0.49445000  0.17004700  0.30600600  1
  H  H14  1  0.56412000  0.22731600  0.79915900  1
  H  H15  1  0.50555000  0.82995300  0.80600600  1
  H  H16  1  0.49133300  0.93737400  0.13537600  1
  H  H17  1  0.29188300  0.82656400  0.96477400  1
  H  H18  1  0.76976200  0.75388000  0.04665200  1
  H  H19  1  0.47607700  0.92056200  0.38812100  1
  H  H20  1  0.32542100  0.99458600  0.21450100  1
  H  H21  1  0.79188300  0.67343600  0.46477400  1
  H  H22  1  0.26976200  0.74612000  0.54665200  1
  H  H23  1  0.20811700  0.32656400  0.96477400  1
  H  H24  1  0.42943500  0.48466200  0.24298600  1
  H  H25  1  0.43588000  0.77268400  0.29915900  1
  H  H26  1  0.52392300  0.07943800  0.88812100  1
  H  H27  1  0.34792500  0.88390500  0.72454300  1
  H  H28  1  0.98629800  0.30416400  0.66811100  1
  H  H29  1  0.99445000  0.32995300  0.80600600  1
  H  H30  1  0.23023800  0.24612000  0.54665200  1
  H  H31  1  0.67457900  0.00541400  0.71450100  1
  H  H32  1  0.65207500  0.11609500  0.22454300  1
  H  H33  1  0.84792500  0.61609500  0.22454300  1
  H  H34  1  0.50866700  0.06262600  0.63537600  1
  H  H35  1  0.99133300  0.56262600  0.63537600  1
  H  H36  1  0.48629800  0.19583600  0.16811100  1
  H  H37  1  0.63169900  0.84854000  0.30421800  1
  H  H38  1  0.86830100  0.34854000  0.30421800  1
  H  H39  1  0.51370200  0.80416400  0.66811100  1
  H  H40  1  0.73023800  0.25388000  0.04665200  1
  H  H41  1  0.01370200  0.69583600  0.16811100  1
  H  H42  1  0.02392300  0.42056200  0.38812100  1
  H  H43  1  0.00866700  0.43737400  0.13537600  1
  C  C0  1  0.05770100  0.98575200  0.75005300  1
  C  C1  1  0.78310900  0.30525800  0.97254500  1
  C  C2  1  0.04518900  0.47752500  0.21646100  1
  C  C3  1  0.00378800  0.62577900  0.80725200  1
  C  C4  1  0.22972200  0.76339700  0.02954500  1
  C  C5  1  0.54518900  0.02247500  0.71646100  1
  C  C6  1  0.49621200  0.12577900  0.80725200  1
  C  C7  1  0.99621200  0.37422100  0.30725200  1
  C  C8  1  0.44229900  0.48575200  0.75005300  1
  C  C9  1  0.95481100  0.52247500  0.71646100  1
  C  C10  1  0.45481100  0.97752500  0.21646100  1
  C  C11  1  0.21689100  0.69474200  0.47254500  1
  C  C12  1  0.71689100  0.80525800  0.97254500  1
  C  C13  1  0.77027800  0.23660300  0.52954500  1
  C  C14  1  0.72972200  0.73660300  0.52954500  1
  C  C15  1  0.94229900  0.01424800  0.25005300  1
  C  C16  1  0.28310900  0.19474200  0.47254500  1
  C  C17  1  0.55770100  0.51424800  0.25005300  1
  C  C18  1  0.50378800  0.87422100  0.30725200  1
  C  C19  1  0.27027800  0.26339700  0.02954500  1
  N  N0  1  0.52837500  0.12533100  0.23016800  1
  N  N1  1  0.02837500  0.37466900  0.73016800  1
  N  N2  1  0.47162500  0.87466900  0.73016800  1
  N  N3  1  0.97162500  0.62533100  0.23016800  1
  O  O0  1  0.40573000  0.25765200  0.43155100  1
  O  O1  1  0.12176200  0.99046800  0.84404900  1
  O  O2  1  0.09427000  0.75765200  0.43155100  1
  O  O3  1  0.59721900  0.68442100  0.56463500  1
  O  O4  1  0.86925500  0.05055000  0.16223900  1
  O  O5  1  0.79266900  0.85311500  0.56387100  1
  O  O6  1  0.90278100  0.18442100  0.56463500  1
  O  O7  1  0.63074500  0.55055000  0.16223900  1
  O  O8  1  0.62176200  0.50953200  0.34404900  1
  O  O9  1  0.21935600  0.08020700  0.43546500  1
  O  O10  1  0.59427000  0.74234800  0.93155100  1
  O  O11  1  0.40278100  0.31557900  0.06463500  1
  O  O12  1  0.90573000  0.24234800  0.93155100  1
  O  O13  1  0.71935600  0.41979300  0.93546500  1
  O  O14  1  0.09721900  0.81557900  0.06463500  1
  O  O15  1  0.37823800  0.49046800  0.84404900  1
  O  O16  1  0.87823800  0.00953200  0.34404900  1
  O  O17  1  0.20733100  0.14688500  0.06387100  1
  O  O18  1  0.36925500  0.44945000  0.66223900  1
  O  O19  1  0.78064400  0.91979300  0.93546500  1
  O  O20  1  0.29266900  0.64688500  0.06387100  1
  O  O21  1  0.13074500  0.94945000  0.66223900  1
  O  O22  1  0.28064400  0.58020700  0.43546500  1
  O  O23  1  0.70733100  0.35311500  0.56387100  1
loop_
_geom_bond_atom_site_label_1
_geom_bond_atom_site_label_2
_geom_bond_distance
_geom_bond_site_symmetry_2
Mn0 O1 2.202488 1_644
Mn0 O17 2.207820 1_655
Mn0 O19 2.210704 1_544
Mn0 O4 2.248789 1_555
Mn0 O12 2.253604 1_554
Mn0 O14 2.276966 1_645
Mn1 O8 2.202488 1_555
Mn1 O23 2.207820 1_555
Mn1 O22 2.210704 1_555
Mn1 O18 2.248789 1_555
Mn1 O0 2.253604 1_555
Mn1 O3 2.276966 1_555
Mn2 O16 2.202488 1_465
Mn2 O5 2.207820 1_455
Mn2 O9 2.210704 1_565
Mn2 O21 2.248789 1_555
Mn2 O2 2.253604 1_555
Mn2 O6 2.276966 1_465
Mn3 O15 2.202488 1_554
Mn3 O20 2.207820 1_555
Mn3 O13 2.210704 1_554
Mn3 O7 2.248789 1_555
Mn3 O10 2.253604 1_554
Mn3 O11 2.276966 1_555
H2 N3 1.049746 1_455
H3 N1 1.040174 1_555
H13 N0 1.049746 1_555
H15 N2 1.049746 1_555
H27 N2 1.040174 1_555
H28 N1 1.055168 1_655
H29 N1 1.049746 1_655
H32 N0 1.040174 1_555
H33 N3 1.040174 1_555
H36 N0 1.055168 1_555
H39 N2 1.055168 1_555
H41 N3 1.055168 1_455
C0 H8 1.109777 1_465
C0 O1 1.264757 1_555
C0 O21 1.275933 1_555
C1 H40 1.110100 1_556
C1 O13 1.261725 1_555
C1 O12 1.278203 1_555
C2 H5 1.093554 1_555
C2 H43 1.097413 1_555
C2 N3 1.498146 1_455
C3 H6 1.095284 1_455
C3 H7 1.095921 1_555
C3 H9 1.097539 1_455
C4 H17 1.108297 1_554
C4 O20 1.262563 1_555
C4 O14 1.280464 1_555
C5 H31 1.093554 1_555
C5 H34 1.097413 1_555
C5 N2 1.498146 1_545
C6 H14 1.095284 1_555
C6 H1 1.095921 1_555
C6 H26 1.097539 1_555
C7 H11 1.095284 1_655
C7 H38 1.095921 1_555
C7 H42 1.097539 1_655
C8 H12 1.109777 1_555
C8 O15 1.264757 1_555
C8 O18 1.275933 1_555
C9 H4 1.093554 1_555
C9 H35 1.097413 1_555
C9 N1 1.498146 1_655
C10 H20 1.093554 1_555
C10 H16 1.097413 1_555
C10 N0 1.498146 1_565
C11 H22 1.110100 1_555
C11 O22 1.261725 1_555
C11 O2 1.278203 1_555
C12 H18 1.110100 1_556
C12 O19 1.261725 1_555
C12 O10 1.278203 1_555
C13 H0 1.108297 1_555
C13 O23 1.262563 1_555
C13 O6 1.280464 1_555
C14 H21 1.108297 1_555
C14 O5 1.262563 1_555
C14 O3 1.280464 1_555
C15 H10 1.109777 1_645
C15 O16 1.264757 1_555
C15 O4 1.275933 1_555
C16 H30 1.110100 1_555
C16 O9 1.261725 1_555
C16 O0 1.278203 1_555
C17 H24 1.109777 1_555
C17 O8 1.264757 1_555
C17 O7 1.275933 1_555
C18 H25 1.095284 1_555
C18 H37 1.095921 1_555
C18 H19 1.097539 1_555
C19 H23 1.108297 1_554
C19 O17 1.262563 1_555
C19 O11 1.280464 1_555
