# generated using pymatgen
data_ReP(Cl2O)3
_symmetry_space_group_name_H-M   'P 1'
_cell_length_a   12.92678200
_cell_length_b   6.57914600
_cell_length_c   14.20479799
_cell_angle_alpha   80.17167145
_cell_angle_beta   90.00000000
_cell_angle_gamma   90.00000000
_symmetry_Int_Tables_number   1
_chemical_formula_structural   ReP(Cl2O)3
_chemical_formula_sum   'Re4 P4 Cl24 O12'
_cell_volume   1190.34788673
_cell_formula_units_Z   4
loop_
 _symmetry_equiv_pos_site_id
 _symmetry_equiv_pos_as_xyz
  1  'x, y, z'
loop_
 _atom_site_type_symbol
 _atom_site_label
 _atom_site_symmetry_multiplicity
 _atom_site_fract_x
 _atom_site_fract_y
 _atom_site_fract_z
 _atom_site_occupancy
  Re  Re0  1  0.70753800  0.38421200  0.00233800  1
  Re  Re1  1  0.29246200  0.61578800  0.99766200  1
  Re  Re2  1  0.79246200  0.38421200  0.50233800  1
  Re  Re3  1  0.20753800  0.61578800  0.49766200  1
  P  P0  1  0.90097000  0.09344800  0.17316400  1
  P  P1  1  0.09903000  0.90655200  0.82683600  1
  P  P2  1  0.59903000  0.09344800  0.67316400  1
  P  P3  1  0.40097000  0.90655200  0.32683600  1
  Cl  Cl0  1  0.98243900  0.09136600  0.84762300  1
  Cl  Cl1  1  0.66880500  0.64270200  0.49055400  1
  Cl  Cl2  1  0.30858700  0.07624400  0.23244600  1
  Cl  Cl3  1  0.03669700  0.69685700  0.75770400  1
  Cl  Cl4  1  0.69141300  0.92375600  0.76755400  1
  Cl  Cl5  1  0.80858700  0.92375600  0.26755400  1
  Cl  Cl6  1  0.18560300  0.54523600  0.33956700  1
  Cl  Cl7  1  0.96330300  0.30314300  0.24229600  1
  Cl  Cl8  1  0.48243900  0.90863400  0.65237700  1
  Cl  Cl9  1  0.19141300  0.07624400  0.73244600  1
  Cl  Cl10  1  0.01756100  0.90863400  0.15237700  1
  Cl  Cl11  1  0.16880500  0.35729800  0.00944600  1
  Cl  Cl12  1  0.38138700  0.91522600  0.94220200  1
  Cl  Cl13  1  0.83119500  0.64270200  0.99055400  1
  Cl  Cl14  1  0.46330300  0.69685700  0.25770400  1
  Cl  Cl15  1  0.68560300  0.45476400  0.16043300  1
  Cl  Cl16  1  0.61861300  0.08477400  0.05779800  1
  Cl  Cl17  1  0.53669700  0.30314300  0.74229600  1
  Cl  Cl18  1  0.31439700  0.54523600  0.83956700  1
  Cl  Cl19  1  0.81439700  0.45476400  0.66043300  1
  Cl  Cl20  1  0.51756100  0.09136600  0.34762300  1
  Cl  Cl21  1  0.88138700  0.08477400  0.55779800  1
  Cl  Cl22  1  0.11861300  0.91522600  0.44220200  1
  Cl  Cl23  1  0.33119500  0.35729800  0.50944600  1
  O  O0  1  0.73713100  0.28503400  0.40923500  1
  O  O1  1  0.26286900  0.71496600  0.59076500  1
  O  O2  1  0.15021400  0.81762700  0.91808300  1
  O  O3  1  0.34978600  0.81762700  0.41808300  1
  O  O4  1  0.84978600  0.18237300  0.08191700  1
  O  O5  1  0.10714700  0.47081500  0.55071600  1
  O  O6  1  0.60714700  0.52918500  0.94928400  1
  O  O7  1  0.39285300  0.47081500  0.05071600  1
  O  O8  1  0.65021400  0.18237300  0.58191700  1
  O  O9  1  0.76286900  0.28503400  0.90923500  1
  O  O10  1  0.89285300  0.52918500  0.44928400  1
  O  O11  1  0.23713100  0.71496600  0.09076500  1
loop_
_geom_bond_atom_site_label_1
_geom_bond_atom_site_label_2
_geom_bond_distance
_geom_bond_site_symmetry_2
Cl0 P1 1.989901 1_645
Cl1 Re2 2.319091 1_555
Cl2 P3 1.989787 1_545
Cl3 P1 1.994854 1_555
Cl4 P2 1.989787 1_565
Cl5 P0 1.989787 1_565
Cl6 Re3 2.386404 1_555
Cl7 P0 1.994854 1_555
Cl8 P2 1.989901 1_565
Cl9 P1 1.989787 1_545
Cl10 P0 1.989901 1_465
Cl11 Re1 2.319091 1_554
Cl12 Re1 2.300706 1_555
Cl13 Re0 2.319091 1_556
Cl14 P3 1.994854 1_555
Cl15 Re0 2.386404 1_555
Cl16 Re0 2.300706 1_555
Cl17 P2 1.994854 1_555
Cl18 Re1 2.386404 1_555
Cl19 Re2 2.386404 1_555
Cl20 P3 1.989901 1_545
Cl21 Re2 2.300706 1_555
Cl22 Re3 2.300706 1_555
Cl23 Re3 2.319091 1_555
O0 Re2 1.726553 1_555
O1 Re3 1.726553 1_555
O2 P1 1.483633 1_555
O2 Re1 2.431041 1_555
O3 P3 1.483633 1_555
O3 Re3 2.431041 1_555
O4 P0 1.483633 1_555
O4 Re0 2.431041 1_555
O5 Re3 1.707745 1_555
O6 Re0 1.707745 1_556
O7 Re1 1.707745 1_554
O8 P2 1.483633 1_555
O8 Re2 2.431041 1_555
O9 Re0 1.726553 1_556
O10 Re2 1.707745 1_555
O11 Re1 1.726553 1_554
