# generated using pymatgen
data_Nb2Cd2O7
_symmetry_space_group_name_H-M   'P 1'
_cell_length_a   7.41025242
_cell_length_b   7.41034403
_cell_length_c   7.41034591
_cell_angle_alpha   120.22970397
_cell_angle_beta   119.72642392
_cell_angle_gamma   90.03818931
_symmetry_Int_Tables_number   1
_chemical_formula_structural   Nb2Cd2O7
_chemical_formula_sum   'Nb4 Cd4 O14'
_cell_volume   287.82573956
_cell_formula_units_Z   2
loop_
 _symmetry_equiv_pos_site_id
 _symmetry_equiv_pos_as_xyz
  1  'x, y, z'
loop_
 _atom_site_type_symbol
 _atom_site_label
 _atom_site_symmetry_multiplicity
 _atom_site_fract_x
 _atom_site_fract_y
 _atom_site_fract_z
 _atom_site_occupancy
  Nb  Nb0  1  0.47795605  0.49422409  0.48374334  1
  Nb  Nb1  1  0.98962645  0.99995617  0.98958363  1
  Nb  Nb2  1  0.98961593  0.49996573  0.48958628  1
  Nb  Nb3  1  0.98952132  0.50577831  0.98373580  1
  Cd  Cd0  1  0.00103405  0.00691406  0.49407181  1
  Cd  Cd1  1  0.48697777  0.00001454  0.48697825  1
  Cd  Cd2  1  0.48697207  0.50000895  0.98699852  1
  Cd  Cd3  1  0.48717572  0.99305549  0.99409138  1
  O  O0  1  0.32521895  0.57151470  0.64805759  1
  O  O1  1  0.62696053  0.87578066  0.25118646  1
  O  O2  1  0.07919938  0.81774982  0.76144003  1
  O  O3  1  0.68105643  0.42855451  0.75251824  1
  O  O4  1  0.32521368  0.17717232  0.25372131  1
  O  O5  1  0.94148891  0.56863350  0.25566609  1
  O  O6  1  0.68705074  0.43139507  0.37289058  1
  O  O7  1  0.37540316  0.12422657  0.75118491  1
  O  O8  1  0.68704902  0.81417636  0.75567489  1
  O  O9  1  0.32395087  0.57145200  0.25250546  1
  O  O10  1  0.07654324  0.42850620  0.75372393  1
  O  O11  1  0.94150062  0.18584988  0.87289356  1
  O  O12  1  0.07653962  0.82282944  0.14805287  1
  O  O13  1  0.94369147  0.18224163  0.26144007  1
loop_
_geom_bond_atom_site_label_1
_geom_bond_atom_site_label_2
_geom_bond_distance
_geom_bond_site_symmetry_2
Nb0 O9 1.901348 1_555
Nb0 O0 1.938304 1_555
Nb0 O4 1.938334 1_555
Nb0 O6 2.042168 1_555
Nb0 O8 2.042217 1_555
Nb0 O3 2.114952 1_555
Nb1 O8 1.914651 1_555
Nb1 O11 1.914885 1_565
Nb1 O2 1.984285 1_655
Nb1 O13 1.984811 1_566
Nb1 O12 2.078408 1_656
Nb1 O4 2.078477 1_666
Nb2 O6 1.914724 1_555
Nb2 O5 1.914741 1_555
Nb2 O13 1.984367 1_555
Nb2 O2 1.984764 1_655
Nb2 O0 2.078434 1_655
Nb2 O10 2.078537 1_655
Nb3 O3 1.901317 1_555
Nb3 O10 1.938217 1_655
Nb3 O12 1.938318 1_656
Nb3 O11 2.042078 1_555
Nb3 O5 2.042223 1_556
Nb3 O9 2.114854 1_656
Cd0 O1 2.270478 1_445
Cd0 O7 2.273550 1_555
Cd0 O13 2.523866 1_455
Cd0 O12 2.578831 1_545
Cd0 O10 2.579270 1_555
Cd0 O5 2.703978 1_445
Cd0 O11 2.704450 1_455
Cd0 O2 2.808120 1_545
Cd1 O1 2.270593 1_545
Cd1 O7 2.270637 1_555
Cd1 O4 2.525929 1_555
Cd1 O12 2.526048 1_545
Cd1 O3 2.630628 1_555
Cd1 O9 2.630784 1_545
Cd1 O11 2.809802 1_555
Cd1 O8 2.809866 1_545
Cd2 O1 2.270595 1_556
Cd2 O7 2.270656 1_555
Cd2 O10 2.525984 1_555
Cd2 O0 2.526125 1_555
Cd2 O9 2.630546 1_556
Cd2 O3 2.630763 1_555
Cd2 O6 2.809705 1_556
Cd2 O5 2.809725 1_556
Cd3 O7 2.270518 1_565
Cd3 O1 2.273568 1_556
Cd3 O2 2.523948 1_555
Cd3 O0 2.578944 1_555
Cd3 O4 2.579238 1_566
Cd3 O8 2.704020 1_555
Cd3 O6 2.704357 1_566
Cd3 O13 2.807992 1_566
