# generated using pymatgen
data_Cs2GaP3O10
_symmetry_space_group_name_H-M   'P 1'
_cell_length_a   9.16220300
_cell_length_b   9.68903900
_cell_length_c   12.50495578
_cell_angle_alpha   84.81765482
_cell_angle_beta   90.00000000
_cell_angle_gamma   90.00000000
_symmetry_Int_Tables_number   1
_chemical_formula_structural   Cs2GaP3O10
_chemical_formula_sum   'Cs8 Ga4 P12 O40'
_cell_volume   1105.56392963
_cell_formula_units_Z   4
loop_
 _symmetry_equiv_pos_site_id
 _symmetry_equiv_pos_as_xyz
  1  'x, y, z'
loop_
 _atom_site_type_symbol
 _atom_site_label
 _atom_site_symmetry_multiplicity
 _atom_site_fract_x
 _atom_site_fract_y
 _atom_site_fract_z
 _atom_site_occupancy
  Cs  Cs0  1  0.39641300  0.26472300  0.53937100  1
  Cs  Cs1  1  0.10358700  0.76472300  0.53937100  1
  Cs  Cs2  1  0.60358700  0.73527700  0.46062900  1
  Cs  Cs3  1  0.87966400  0.99450600  0.14757000  1
  Cs  Cs4  1  0.12033600  0.00549400  0.85243000  1
  Cs  Cs5  1  0.37966400  0.50549400  0.85243000  1
  Cs  Cs6  1  0.62033600  0.49450600  0.14757000  1
  Cs  Cs7  1  0.89641300  0.23527700  0.46062900  1
  Ga  Ga0  1  0.85147200  0.64411900  0.84727500  1
  Ga  Ga1  1  0.64852800  0.14411900  0.84727500  1
  Ga  Ga2  1  0.35147200  0.85588100  0.15272500  1
  Ga  Ga3  1  0.14852800  0.35588100  0.15272500  1
  P  P0  1  0.91727000  0.32101500  0.95194600  1
  P  P1  1  0.28535000  0.56920000  0.31094500  1
  P  P2  1  0.46650200  0.91845400  0.74104600  1
  P  P3  1  0.03349800  0.41845400  0.74104600  1
  P  P4  1  0.21465000  0.06920000  0.31094500  1
  P  P5  1  0.96650200  0.58154600  0.25895400  1
  P  P6  1  0.08273000  0.67898500  0.04805400  1
  P  P7  1  0.41727000  0.17898500  0.04805400  1
  P  P8  1  0.71465000  0.43080000  0.68905500  1
  P  P9  1  0.53349800  0.08154600  0.25895400  1
  P  P10  1  0.78535000  0.93080000  0.68905500  1
  P  P11  1  0.58273000  0.82101500  0.95194600  1
  O  O0  1  0.00333700  0.28104800  0.05449300  1
  O  O1  1  0.28093700  0.43154800  0.25832400  1
  O  O2  1  0.12806000  0.17944500  0.24074000  1
  O  O3  1  0.37194000  0.67944500  0.24074000  1
  O  O4  1  0.11462600  0.62827500  0.31262500  1
  O  O5  1  0.52250400  0.93005900  0.23519600  1
  O  O6  1  0.81633900  0.19933200  0.93365100  1
  O  O7  1  0.49666300  0.78104800  0.05449300  1
  O  O8  1  0.31633900  0.30066800  0.06634900  1
  O  O9  1  0.45940400  0.82476500  0.85559600  1
  O  O10  1  0.87194000  0.82055500  0.75926000  1
  O  O11  1  0.33281100  0.55508200  0.42640100  1
  O  O12  1  0.71906300  0.56845200  0.74167600  1
  O  O13  1  0.62806000  0.32055500  0.75926000  1
  O  O14  1  0.66718900  0.44491800  0.57359900  1
  O  O15  1  0.02250400  0.56994100  0.76480400  1
  O  O16  1  0.34270800  0.03785000  0.05559800  1
  O  O17  1  0.65729200  0.96215000  0.94440200  1
  O  O18  1  0.84270800  0.46215000  0.94440200  1
  O  O19  1  0.04059600  0.32476500  0.85559600  1
  O  O20  1  0.38537400  0.12827500  0.31262500  1
  O  O21  1  0.78093700  0.06845200  0.74167600  1
  O  O22  1  0.54059600  0.17523500  0.14440400  1
  O  O23  1  0.97749600  0.43005900  0.23519600  1
  O  O24  1  0.21906300  0.93154800  0.25832400  1
  O  O25  1  0.66107300  0.12122700  0.32318800  1
  O  O26  1  0.88537400  0.37172500  0.68737500  1
  O  O27  1  0.83281100  0.94491800  0.57359900  1
  O  O28  1  0.50333700  0.21895200  0.94550700  1
  O  O29  1  0.16107300  0.37877300  0.67681200  1
  O  O30  1  0.99666300  0.71895200  0.94550700  1
  O  O31  1  0.61462600  0.87172500  0.68737500  1
  O  O32  1  0.83892700  0.62122700  0.32318800  1
  O  O33  1  0.95940400  0.67523500  0.14440400  1
  O  O34  1  0.16718900  0.05508200  0.42640100  1
  O  O35  1  0.18366100  0.80066800  0.06634900  1
  O  O36  1  0.47749600  0.06994100  0.76480400  1
  O  O37  1  0.33892700  0.87877300  0.67681200  1
  O  O38  1  0.68366100  0.69933200  0.93365100  1
  O  O39  1  0.15729200  0.53785000  0.05559800  1
loop_
_geom_bond_atom_site_label_1
_geom_bond_atom_site_label_2
_geom_bond_distance
_geom_bond_site_symmetry_2
Cs0 O29 3.027779 1_555
Cs0 O14 3.085662 1_555
Cs0 O11 3.087385 1_555
Cs0 O20 3.236511 1_555
Cs0 O34 3.324264 1_555
Cs0 O36 3.331582 1_555
Cs0 O13 3.553418 1_555
Cs1 O37 3.027779 1_555
Cs1 O27 3.085662 1_455
Cs1 O34 3.087385 1_565
Cs1 O4 3.236511 1_555
Cs1 O11 3.324264 1_555
Cs1 O15 3.331582 1_555
Cs1 O10 3.553418 1_455
Cs2 O32 3.027779 1_555
Cs2 O11 3.085662 1_555
Cs2 O14 3.087385 1_555
Cs2 O31 3.236511 1_555
Cs2 O27 3.324264 1_555
Cs2 O5 3.331582 1_555
Cs2 O3 3.553418 1_555
Cs3 O0 3.124555 1_665
Cs3 O2 3.181969 1_665
Cs3 O33 3.182258 1_555
Cs3 O6 3.236042 1_564
Cs3 O25 3.290676 1_565
Cs3 O17 3.293618 1_554
Cs3 O24 3.436206 1_655
Cs3 O5 3.489329 1_555
Cs3 O35 3.558264 1_655
Cs3 O22 3.564602 1_565
Cs4 O30 3.124555 1_445
Cs4 O10 3.181969 1_445
Cs4 O19 3.182258 1_555
Cs4 O35 3.236042 1_546
Cs4 O37 3.290676 1_545
Cs4 O16 3.293618 1_556
Cs4 O21 3.436206 1_455
Cs4 O36 3.489329 1_555
Cs4 O6 3.558264 1_455
Cs4 O9 3.564602 1_545
Cs5 O28 3.124555 1_555
Cs5 O13 3.181969 1_555
Cs5 O9 3.182258 1_555
Cs5 O8 3.236042 1_556
Cs5 O29 3.290676 1_555
Cs5 O39 3.293618 1_556
Cs5 O12 3.436206 1_555
Cs5 O15 3.489329 1_555
Cs5 O38 3.558264 1_555
Cs5 O19 3.564602 1_555
Cs6 O7 3.124555 1_555
Cs6 O3 3.181969 1_555
Cs6 O22 3.182258 1_555
Cs6 O38 3.236042 1_554
Cs6 O32 3.290676 1_555
Cs6 O18 3.293618 1_554
Cs6 O1 3.436206 1_555
Cs6 O23 3.489329 1_555
Cs6 O8 3.558264 1_555
Cs6 O33 3.564602 1_555
Cs7 O25 3.027779 1_555
Cs7 O34 3.085662 1_655
Cs7 O27 3.087385 1_545
Cs7 O26 3.236511 1_555
Cs7 O14 3.324264 1_555
Cs7 O23 3.331582 1_555
Cs7 O2 3.553418 1_655
Ga0 O10 1.956787 1_555
Ga0 O38 1.980204 1_555
Ga0 O12 1.981890 1_555
Ga0 O30 1.991271 1_555
Ga0 O15 2.041961 1_655
Ga0 O18 2.050199 1_555
Ga1 O13 1.956787 1_555
Ga1 O6 1.980204 1_555
Ga1 O21 1.981890 1_555
Ga1 O28 1.991271 1_555
Ga1 O36 2.041961 1_555
Ga1 O17 2.050199 1_545
Ga2 O3 1.956787 1_555
Ga2 O35 1.980204 1_555
Ga2 O24 1.981890 1_555
Ga2 O7 1.991271 1_555
Ga2 O5 2.041961 1_555
Ga2 O16 2.050199 1_565
Ga3 O2 1.956787 1_555
Ga3 O8 1.980204 1_555
Ga3 O1 1.981890 1_555
Ga3 O0 1.991271 1_555
Ga3 O23 2.041961 1_455
Ga3 O39 2.050199 1_555
O0 P0 1.525284 1_454
O1 P1 1.540120 1_555
O2 P4 1.540037 1_555
O3 P1 1.540037 1_555
O4 P5 1.597550 1_455
O4 P1 1.666427 1_555
O5 P9 1.526930 1_565
O6 P0 1.531747 1_555
O7 P11 1.525284 1_554
O8 P7 1.531747 1_555
O9 P2 1.626419 1_555
O9 P11 1.649800 1_555
O10 P10 1.540037 1_555
O11 P1 1.502200 1_555
O12 P8 1.540120 1_555
O13 P8 1.540037 1_555
O14 P8 1.502200 1_555
O15 P3 1.526930 1_555
O16 P7 1.523892 1_555
O17 P11 1.523892 1_555
O18 P0 1.523892 1_555
O19 P3 1.626419 1_555
O19 P0 1.649800 1_455
O20 P9 1.597550 1_555
O20 P4 1.666427 1_555
O21 P10 1.540120 1_545
O22 P9 1.626419 1_555
O22 P7 1.649800 1_555
O23 P5 1.526930 1_555
O24 P4 1.540120 1_565
O25 P9 1.488308 1_555
O26 P3 1.597550 1_655
O26 P8 1.666427 1_555
O27 P10 1.502200 1_555
O28 P7 1.525284 1_556
O29 P3 1.488308 1_555
O30 P6 1.525284 1_656
O31 P2 1.597550 1_555
O31 P10 1.666427 1_555
O32 P5 1.488308 1_555
O33 P5 1.626419 1_555
O33 P6 1.649800 1_655
O34 P4 1.502200 1_555
O35 P6 1.531747 1_555
O36 P2 1.526930 1_545
O37 P2 1.488308 1_555
O38 P11 1.531747 1_555
O39 P6 1.523892 1_555
