# generated using pymatgen
data_KAg(CN)2
_symmetry_space_group_name_H-M   'P 1'
_cell_length_a   7.57421063
_cell_length_b   7.57421063
_cell_length_c   17.69036100
_cell_angle_alpha   90.00000000
_cell_angle_beta   90.00000000
_cell_angle_gamma   120.00000549
_symmetry_Int_Tables_number   1
_chemical_formula_structural   KAg(CN)2
_chemical_formula_sum   'K6 Ag6 C12 N12'
_cell_volume   878.90525142
_cell_formula_units_Z   6
loop_
 _symmetry_equiv_pos_site_id
 _symmetry_equiv_pos_as_xyz
  1  'x, y, z'
loop_
 _atom_site_type_symbol
 _atom_site_label
 _atom_site_symmetry_multiplicity
 _atom_site_fract_x
 _atom_site_fract_y
 _atom_site_fract_z
 _atom_site_occupancy
  K  K0  1  0.33333300  0.66666700  0.99670600  1
  K  K1  1  0.66666700  0.33333300  0.00329400  1
  K  K2  1  0.66666700  0.33333300  0.49670600  1
  K  K3  1  0.33333300  0.66666700  0.50329400  1
  K  K4  1  0.00000000  0.00000000  0.00000000  1
  K  K5  1  0.00000000  0.00000000  0.50000000  1
  Ag  Ag0  1  0.16679000  0.83321000  0.25000000  1
  Ag  Ag1  1  0.33358100  0.16679000  0.75000000  1
  Ag  Ag2  1  0.83321000  0.16679000  0.75000000  1
  Ag  Ag3  1  0.83321000  0.66641900  0.75000000  1
  Ag  Ag4  1  0.66641900  0.83321000  0.25000000  1
  Ag  Ag5  1  0.16679000  0.33358100  0.25000000  1
  C  C0  1  0.94646200  0.66787100  0.85554500  1
  C  C1  1  0.94646200  0.27859100  0.64445500  1
  C  C2  1  0.66787100  0.72140900  0.14445500  1
  C  C3  1  0.05353800  0.33212900  0.14445500  1
  C  C4  1  0.72140900  0.66787100  0.64445500  1
  C  C5  1  0.72140900  0.05353800  0.85554500  1
  C  C6  1  0.33212900  0.27859100  0.85554500  1
  C  C7  1  0.66787100  0.94646200  0.35554500  1
  C  C8  1  0.27859100  0.94646200  0.14445500  1
  C  C9  1  0.33212900  0.05353800  0.64445500  1
  C  C10  1  0.27859100  0.33212900  0.35554500  1
  C  C11  1  0.05353800  0.72140900  0.35554500  1
  N  N0  1  0.66983600  0.00643200  0.41697000  1
  N  N1  1  0.00643200  0.66983600  0.91697000  1
  N  N2  1  0.33659600  0.00643200  0.08303000  1
  N  N3  1  0.66983600  0.66340400  0.08303000  1
  N  N4  1  0.99356800  0.33016400  0.08303000  1
  N  N5  1  0.99356800  0.66340400  0.41697000  1
  N  N6  1  0.33659600  0.33016400  0.41697000  1
  N  N7  1  0.33016400  0.99356800  0.58303000  1
  N  N8  1  0.66340400  0.99356800  0.91697000  1
  N  N9  1  0.00643200  0.33659600  0.58303000  1
  N  N10  1  0.66340400  0.66983600  0.58303000  1
  N  N11  1  0.33016400  0.33659600  0.91697000  1
loop_
_geom_bond_atom_site_label_1
_geom_bond_atom_site_label_2
_geom_bond_distance
_geom_bond_site_symmetry_2
K0 N1 2.860130 1_555
K0 N8 2.860133 1_555
K0 N11 2.860136 1_555
K0 N2 2.981896 1_566
K0 N4 2.981899 1_456
K0 N3 2.981903 1_556
K1 N4 2.860130 1_555
K1 N2 2.860133 1_555
K1 N3 2.860136 1_555
K1 N8 2.981896 1_544
K1 N1 2.981899 1_654
K1 N11 2.981903 1_554
K2 N0 2.860130 1_555
K2 N5 2.860133 1_555
K2 N6 2.860136 1_555
K2 N9 2.981896 1_655
K2 N7 2.981899 1_545
K2 N10 2.981903 1_555
K3 N7 2.860130 1_555
K3 N9 2.860133 1_555
K3 N10 2.860136 1_555
K3 N5 2.981896 1_455
K3 N0 2.981899 1_565
K3 N6 2.981903 1_555
K4 N11 2.921528 1_554
K4 N3 2.921528 1_445
K4 N8 2.921528 1_444
K4 N2 2.921528 1_555
K4 N4 2.921528 1_455
K4 N1 2.921528 1_544
K5 N6 2.921528 1_555
K5 N10 2.921528 1_445
K5 N5 2.921528 1_445
K5 N9 2.921528 1_555
K5 N7 2.921528 1_545
K5 N0 2.921528 1_455
Ag0 C8 2.052480 1_555
Ag0 C11 2.052480 1_555
Ag1 C9 2.052479 1_555
Ag1 C6 2.052482 1_555
Ag2 C1 2.052480 1_555
Ag2 C5 2.052480 1_555
Ag3 C0 2.052479 1_555
Ag3 C4 2.052482 1_555
Ag4 C7 2.052479 1_555
Ag4 C2 2.052482 1_555
Ag5 C3 2.052479 1_555
Ag5 C10 2.052482 1_555
C0 N1 1.174967 1_655
C1 N9 1.174967 1_655
C2 N3 1.174967 1_555
C3 N4 1.174967 1_455
C4 N10 1.174967 1_555
C5 N8 1.174967 1_545
C6 N11 1.174967 1_555
C7 N0 1.174967 1_565
C8 N2 1.174967 1_565
C9 N7 1.174967 1_545
C10 N6 1.174967 1_555
C11 N5 1.174967 1_455
