# generated using pymatgen
data_Na3B6PO13
_symmetry_space_group_name_H-M   'P 1'
_cell_length_a   6.66780559
_cell_length_b   9.37545673
_cell_length_c   16.10643093
_cell_angle_alpha   90.00000000
_cell_angle_beta   90.00000000
_cell_angle_gamma   90.00000000
_symmetry_Int_Tables_number   1
_chemical_formula_structural   Na3B6PO13
_chemical_formula_sum   'Na12 B24 P4 O52'
_cell_volume   1006.87295834
_cell_formula_units_Z   4
loop_
 _symmetry_equiv_pos_site_id
 _symmetry_equiv_pos_as_xyz
  1  'x, y, z'
loop_
 _atom_site_type_symbol
 _atom_site_label
 _atom_site_symmetry_multiplicity
 _atom_site_fract_x
 _atom_site_fract_y
 _atom_site_fract_z
 _atom_site_occupancy
  Na  Na0  1  0.75253294  0.06041218  0.25000000  1
  Na  Na1  1  0.74376438  0.93933702  0.86461467  1
  Na  Na2  1  0.24376438  0.56066298  0.13538533  1
  Na  Na3  1  0.75623562  0.43933702  0.63538533  1
  Na  Na4  1  0.75623562  0.43933702  0.86461467  1
  Na  Na5  1  0.24746706  0.93958782  0.75000000  1
  Na  Na6  1  0.74746706  0.56041218  0.25000000  1
  Na  Na7  1  0.25623562  0.06066298  0.36461467  1
  Na  Na8  1  0.25253294  0.43958782  0.75000000  1
  Na  Na9  1  0.74376438  0.93933702  0.63538533  1
  Na  Na10  1  0.24376438  0.56066298  0.36461467  1
  Na  Na11  1  0.25623562  0.06066298  0.13538533  1
  B  B0  1  0.18914257  0.31665723  0.95197709  1
  B  B1  1  0.69522591  0.43644618  0.44947489  1
  B  B2  1  0.68914257  0.18334277  0.45197709  1
  B  B3  1  0.53677770  0.30968998  0.33003089  1
  B  B4  1  0.68914257  0.18334277  0.04802291  1
  B  B5  1  0.80477409  0.93644618  0.05052511  1
  B  B6  1  0.96322230  0.80968998  0.33003089  1
  B  B7  1  0.69522591  0.43644618  0.05052511  1
  B  B8  1  0.18914257  0.31665723  0.54802291  1
  B  B9  1  0.80477409  0.93644618  0.44947489  1
  B  B10  1  0.81085743  0.68334277  0.04802291  1
  B  B11  1  0.19522591  0.06355382  0.94947489  1
  B  B12  1  0.31085743  0.81665723  0.54802291  1
  B  B13  1  0.03677770  0.19031002  0.83003089  1
  B  B14  1  0.46322230  0.69031002  0.83003089  1
  B  B15  1  0.30477409  0.56355382  0.94947489  1
  B  B16  1  0.53677770  0.30968998  0.16996911  1
  B  B17  1  0.96322230  0.80968998  0.16996911  1
  B  B18  1  0.30477409  0.56355382  0.55052511  1
  B  B19  1  0.46322230  0.69031002  0.66996911  1
  B  B20  1  0.03677770  0.19031002  0.66996911  1
  B  B21  1  0.31085743  0.81665723  0.95197709  1
  B  B22  1  0.81085743  0.68334277  0.45197709  1
  B  B23  1  0.19522591  0.06355382  0.55052511  1
  P  P0  1  0.32947558  0.81040677  0.25000000  1
  P  P1  1  0.82947558  0.68959323  0.75000000  1
  P  P2  1  0.67052442  0.18959323  0.75000000  1
  P  P3  1  0.17052442  0.31040677  0.25000000  1
  O  O0  1  0.39754352  0.55975137  0.62439139  1
  O  O1  1  0.81409561  0.18698219  0.67170859  1
  O  O2  1  0.73263481  0.31061172  0.49205378  1
  O  O3  1  0.90454389  0.68025269  0.12196736  1
  O  O4  1  0.74695467  0.05867009  0.49085561  1
  O  O5  1  0.75304533  0.55867009  0.00914439  1
  O  O6  1  0.59545611  0.18025269  0.12196736  1
  O  O7  1  0.09545611  0.31974731  0.62196736  1
  O  O8  1  0.74695467  0.05867009  0.00914439  1
  O  O9  1  0.73263481  0.31061172  0.00794622  1
  O  O10  1  0.60245648  0.44024863  0.37560861  1
  O  O11  1  0.94533002  0.55273511  0.75000000  1
  O  O12  1  0.93675777  0.83009589  0.75000000  1
  O  O13  1  0.18590439  0.81301781  0.32829141  1
  O  O14  1  0.09545611  0.31974731  0.87803264  1
  O  O15  1  0.18590439  0.81301781  0.17170859  1
  O  O16  1  0.56324223  0.33009589  0.75000000  1
  O  O17  1  0.59545611  0.18025269  0.37803264  1
  O  O18  1  0.37658302  0.69416609  0.75000000  1
  O  O19  1  0.81409561  0.18698219  0.82829141  1
  O  O20  1  0.60245648  0.44024863  0.12439139  1
  O  O21  1  0.39754352  0.55975137  0.87560861  1
  O  O22  1  0.24695467  0.44132991  0.99085561  1
  O  O23  1  0.10245648  0.05975137  0.62439139  1
  O  O24  1  0.06324223  0.16990411  0.25000000  1
  O  O25  1  0.89754352  0.94024863  0.37560861  1
  O  O26  1  0.25304533  0.94132991  0.99085561  1
  O  O27  1  0.26736519  0.68938828  0.99205378  1
  O  O28  1  0.40454389  0.81974731  0.87803264  1
  O  O29  1  0.75304533  0.55867009  0.49085561  1
  O  O30  1  0.68590439  0.68698219  0.82829141  1
  O  O31  1  0.76736519  0.81061172  0.00794622  1
  O  O32  1  0.12341698  0.19416609  0.75000000  1
  O  O33  1  0.23263481  0.18938828  0.99205378  1
  O  O34  1  0.43675777  0.66990411  0.25000000  1
  O  O35  1  0.31409561  0.31301781  0.17170859  1
  O  O36  1  0.89754352  0.94024863  0.12439139  1
  O  O37  1  0.05466998  0.44726489  0.25000000  1
  O  O38  1  0.76736519  0.81061172  0.49205378  1
  O  O39  1  0.31409561  0.31301781  0.32829141  1
  O  O40  1  0.62341698  0.30583391  0.25000000  1
  O  O41  1  0.23263481  0.18938828  0.50794622  1
  O  O42  1  0.44533002  0.94726489  0.25000000  1
  O  O43  1  0.90454389  0.68025269  0.37803264  1
  O  O44  1  0.87658302  0.80583391  0.25000000  1
  O  O45  1  0.55466998  0.05273511  0.75000000  1
  O  O46  1  0.40454389  0.81974731  0.62196736  1
  O  O47  1  0.26736519  0.68938828  0.50794622  1
  O  O48  1  0.25304533  0.94132991  0.50914439  1
  O  O49  1  0.10245648  0.05975137  0.87560861  1
  O  O50  1  0.24695467  0.44132991  0.50914439  1
  O  O51  1  0.68590439  0.68698219  0.67170859  1
loop_
_geom_bond_atom_site_label_1
_geom_bond_atom_site_label_2
_geom_bond_distance
_geom_bond_site_symmetry_2
Na0 O42 2.306757 1_545
Na0 O24 2.312125 1_655
Na0 O40 2.456728 1_555
Na0 O36 2.509394 1_545
Na0 O25 2.509394 1_545
Na0 O44 2.526048 1_545
Na0 O17 2.571342 1_555
Na0 O6 2.571342 1_555
Na1 O19 2.439853 1_565
Na1 O30 2.467548 1_555
Na1 O12 2.472399 1_555
Na1 O45 2.475455 1_565
Na1 O28 2.533734 1_555
Na1 O8 2.582846 1_566
Na1 O31 2.609735 1_556
Na1 O49 2.650667 1_665
Na2 O35 2.439853 1_555
Na2 O15 2.467548 1_555
Na2 O34 2.472399 1_555
Na2 O37 2.475455 1_555
Na2 O3 2.533734 1_455
Na2 O22 2.582846 1_554
Na2 O27 2.609735 1_554
Na2 O20 2.650667 1_555
Na3 O51 2.439853 1_555
Na3 O1 2.467548 1_555
Na3 O16 2.472399 1_555
Na3 O11 2.475455 1_555
Na3 O7 2.533734 1_655
Na3 O29 2.582846 1_555
Na3 O2 2.609735 1_555
Na3 O0 2.650667 1_555
Na4 O30 2.439853 1_555
Na4 O19 2.467548 1_555
Na4 O16 2.472399 1_555
Na4 O11 2.475455 1_555
Na4 O14 2.533734 1_655
Na4 O5 2.582846 1_556
Na4 O9 2.609735 1_556
Na4 O21 2.650667 1_555
Na5 O45 2.306757 1_565
Na5 O12 2.312125 1_455
Na5 O18 2.456728 1_555
Na5 O23 2.509394 1_565
Na5 O49 2.509394 1_565
Na5 O32 2.526048 1_565
Na5 O46 2.571342 1_555
Na5 O28 2.571342 1_555
Na6 O37 2.306757 1_655
Na6 O34 2.312125 1_555
Na6 O44 2.456728 1_555
Na6 O20 2.509394 1_555
Na6 O10 2.509394 1_555
Na6 O40 2.526048 1_555
Na6 O43 2.571342 1_555
Na6 O3 2.571342 1_555
Na7 O13 2.439853 1_545
Na7 O39 2.467548 1_555
Na7 O24 2.472399 1_555
Na7 O42 2.475455 1_545
Na7 O17 2.533734 1_555
Na7 O48 2.582846 1_545
Na7 O41 2.609735 1_555
Na7 O25 2.650667 1_445
Na8 O11 2.306757 1_455
Na8 O16 2.312125 1_555
Na8 O32 2.456728 1_555
Na8 O21 2.509394 1_555
Na8 O0 2.509394 1_555
Na8 O18 2.526048 1_555
Na8 O7 2.571342 1_555
Na8 O14 2.571342 1_555
Na9 O1 2.439853 1_565
Na9 O51 2.467548 1_555
Na9 O12 2.472399 1_555
Na9 O45 2.475455 1_565
Na9 O46 2.533734 1_555
Na9 O4 2.582846 1_565
Na9 O38 2.609735 1_555
Na9 O23 2.650667 1_665
Na10 O39 2.439853 1_555
Na10 O13 2.467548 1_555
Na10 O34 2.472399 1_555
Na10 O37 2.475455 1_555
Na10 O43 2.533734 1_455
Na10 O50 2.582846 1_555
Na10 O47 2.609735 1_555
Na10 O10 2.650667 1_555
Na11 O15 2.439853 1_545
Na11 O35 2.467548 1_555
Na11 O24 2.472399 1_555
Na11 O42 2.475455 1_545
Na11 O6 2.533734 1_555
Na11 O26 2.582846 1_544
Na11 O33 2.609735 1_554
Na11 O36 2.650667 1_445
B0 O14 1.345178 1_555
B0 O22 1.380926 1_555
B0 O33 1.387262 1_555
B1 O10 1.341394 1_555
B1 O29 1.380560 1_555
B1 O2 1.387211 1_555
B2 O17 1.345178 1_555
B2 O4 1.380926 1_555
B2 O2 1.387262 1_555
B3 O40 1.413007 1_555
B3 O39 1.485393 1_555
B3 O17 1.491136 1_555
B3 O10 1.492974 1_555
B4 O6 1.345178 1_555
B4 O8 1.380926 1_555
B4 O9 1.387262 1_555
B5 O36 1.341394 1_555
B5 O8 1.380560 1_565
B5 O31 1.387211 1_555
B6 O44 1.413007 1_555
B6 O13 1.485393 1_655
B6 O43 1.491136 1_555
B6 O25 1.492974 1_555
B7 O20 1.341394 1_555
B7 O5 1.380560 1_555
B7 O9 1.387211 1_555
B8 O7 1.345178 1_555
B8 O50 1.380926 1_555
B8 O41 1.387262 1_555
B9 O25 1.341394 1_555
B9 O4 1.380560 1_565
B9 O38 1.387211 1_555
B10 O3 1.345178 1_555
B10 O5 1.380926 1_555
B10 O31 1.387262 1_555
B11 O49 1.341394 1_555
B11 O26 1.380560 1_545
B11 O33 1.387211 1_555
B12 O46 1.345178 1_555
B12 O48 1.380926 1_555
B12 O47 1.387262 1_555
B13 O32 1.413007 1_555
B13 O19 1.485393 1_455
B13 O14 1.491136 1_555
B13 O49 1.492974 1_555
B14 O18 1.413007 1_555
B14 O30 1.485393 1_555
B14 O28 1.491136 1_555
B14 O21 1.492974 1_555
B15 O21 1.341394 1_555
B15 O22 1.380560 1_555
B15 O27 1.387211 1_555
B16 O40 1.413007 1_555
B16 O35 1.485393 1_555
B16 O6 1.491136 1_555
B16 O20 1.492974 1_555
B17 O44 1.413007 1_555
B17 O15 1.485393 1_655
B17 O3 1.491136 1_555
B17 O36 1.492974 1_555
B18 O0 1.341394 1_555
B18 O50 1.380560 1_555
B18 O47 1.387211 1_555
B19 O18 1.413007 1_555
B19 O51 1.485393 1_555
B19 O46 1.491136 1_555
B19 O0 1.492974 1_555
B20 O32 1.413007 1_555
B20 O1 1.485393 1_455
B20 O7 1.491136 1_555
B20 O23 1.492974 1_555
B21 O28 1.345178 1_555
B21 O26 1.380926 1_555
B21 O27 1.387262 1_555
B22 O43 1.345178 1_555
B22 O29 1.380926 1_555
B22 O38 1.387262 1_555
B23 O23 1.341394 1_555
B23 O48 1.380560 1_545
B23 O41 1.387211 1_555
O1 P2 1.583395 1_555
O11 P1 1.497703 1_555
O12 P1 1.498974 1_555
O13 P0 1.583395 1_555
O15 P0 1.583395 1_555
O16 P2 1.498974 1_555
O19 P2 1.583395 1_555
O24 P3 1.498974 1_555
O30 P1 1.583395 1_555
O34 P0 1.498974 1_555
O35 P3 1.583395 1_555
O37 P3 1.497703 1_555
O39 P3 1.583395 1_555
O42 P0 1.497703 1_555
O45 P2 1.497703 1_555
O51 P1 1.583395 1_555
