# generated using pymatgen
data_Cs4Pb9
_symmetry_space_group_name_H-M   'P 1'
_cell_length_a   10.12425342
_cell_length_b   14.92473385
_cell_length_c   15.99368213
_cell_angle_alpha   90.00000000
_cell_angle_beta   99.95914858
_cell_angle_gamma   90.00000000
_symmetry_Int_Tables_number   1
_chemical_formula_structural   Cs4Pb9
_chemical_formula_sum   'Cs16 Pb36'
_cell_volume   2380.25785725
_cell_formula_units_Z   4
loop_
 _symmetry_equiv_pos_site_id
 _symmetry_equiv_pos_as_xyz
  1  'x, y, z'
loop_
 _atom_site_type_symbol
 _atom_site_label
 _atom_site_symmetry_multiplicity
 _atom_site_fract_x
 _atom_site_fract_y
 _atom_site_fract_z
 _atom_site_occupancy
  Cs  Cs0  1  0.51365562  0.72954483  0.87922840  1
  Cs  Cs1  1  0.25686409  0.45838470  0.48542283  1
  Cs  Cs2  1  0.60944151  0.93116900  0.34039256  1
  Cs  Cs3  1  0.74313591  0.54161530  0.51457717  1
  Cs  Cs4  1  0.10328930  0.27116662  0.90775774  1
  Cs  Cs5  1  0.01365562  0.77045517  0.37922840  1
  Cs  Cs6  1  0.24313591  0.95838470  0.01457717  1
  Cs  Cs7  1  0.39671070  0.77116662  0.59224226  1
  Cs  Cs8  1  0.89055849  0.43116900  0.15960744  1
  Cs  Cs9  1  0.89671070  0.72883338  0.09224226  1
  Cs  Cs10  1  0.60328930  0.22883338  0.40775774  1
  Cs  Cs11  1  0.10944151  0.56883100  0.84039256  1
  Cs  Cs12  1  0.48634438  0.27045517  0.12077160  1
  Cs  Cs13  1  0.39055849  0.06883100  0.65960744  1
  Cs  Cs14  1  0.98634438  0.22954483  0.62077160  1
  Cs  Cs15  1  0.75686409  0.04161530  0.98542283  1
  Pb  Pb0  1  0.03453751  0.71345271  0.63375917  1
  Pb  Pb1  1  0.22055327  0.98981839  0.39795482  1
  Pb  Pb2  1  0.46546249  0.21345271  0.86624083  1
  Pb  Pb3  1  0.19318643  0.60279067  0.24491261  1
  Pb  Pb4  1  0.96546249  0.28654729  0.36624083  1
  Pb  Pb5  1  0.05513276  0.92119363  0.59425738  1
  Pb  Pb6  1  0.77944673  0.01018161  0.60204518  1
  Pb  Pb7  1  0.97822724  0.00658634  0.77614973  1
  Pb  Pb8  1  0.28509084  0.80188379  0.22627930  1
  Pb  Pb9  1  0.06118234  0.17729217  0.13045267  1
  Pb  Pb10  1  0.56118234  0.32270783  0.63045267  1
  Pb  Pb11  1  0.80681357  0.39720933  0.75508739  1
  Pb  Pb12  1  0.21490916  0.30188379  0.27372070  1
  Pb  Pb13  1  0.44486724  0.42119363  0.90574262  1
  Pb  Pb14  1  0.43881766  0.67729217  0.36954733  1
  Pb  Pb15  1  0.02177276  0.99341366  0.22385027  1
  Pb  Pb16  1  0.94486724  0.07880637  0.40574262  1
  Pb  Pb17  1  0.53453751  0.78654729  0.13375917  1
  Pb  Pb18  1  0.93881766  0.82270783  0.86954733  1
  Pb  Pb19  1  0.17769778  0.84466529  0.77299136  1
  Pb  Pb20  1  0.55513276  0.57880637  0.09425738  1
  Pb  Pb21  1  0.69318643  0.89720933  0.74491261  1
  Pb  Pb22  1  0.78509084  0.69811621  0.72627930  1
  Pb  Pb23  1  0.72055327  0.51018161  0.89795482  1
  Pb  Pb24  1  0.47822724  0.49341366  0.27614973  1
  Pb  Pb25  1  0.71490916  0.19811621  0.77372070  1
  Pb  Pb26  1  0.26756370  0.69072019  0.05886476  1
  Pb  Pb27  1  0.73243630  0.30927981  0.94113524  1
  Pb  Pb28  1  0.67769778  0.65533471  0.27299136  1
  Pb  Pb29  1  0.76756370  0.80927981  0.55886476  1
  Pb  Pb30  1  0.52177276  0.50658634  0.72385027  1
  Pb  Pb31  1  0.32230222  0.34466529  0.72700864  1
  Pb  Pb32  1  0.30681357  0.10279067  0.25508739  1
  Pb  Pb33  1  0.82230222  0.15533471  0.22700864  1
  Pb  Pb34  1  0.27944673  0.48981839  0.10204518  1
  Pb  Pb35  1  0.23243630  0.19072019  0.44113524  1
loop_
_geom_bond_atom_site_label_1
_geom_bond_atom_site_label_2
_geom_bond_distance
_geom_bond_site_symmetry_2
Cs0 Pb23 3.870281 1_555
Cs0 Pb19 3.925433 1_555
Cs0 Pb21 3.940917 1_555
Cs0 Pb22 4.010134 1_555
Cs0 Pb20 4.070079 1_556
Cs0 Pb17 4.128302 1_556
Cs0 Pb26 4.156161 1_556
Cs0 Pb30 4.162434 1_555
Cs0 Pb18 4.551492 1_555
Cs1 Pb35 4.057202 1_555
Cs1 Pb10 4.062185 1_555
Cs1 Pb12 4.074667 1_555
Cs1 Pb4 4.119396 1_455
Cs1 Pb31 4.166941 1_555
Cs1 Pb14 4.322404 1_555
Cs1 Pb30 4.326039 1_555
Cs1 Pb3 4.358841 1_555
Cs1 Pb24 4.369593 1_555
Cs2 Pb17 3.910112 1_555
Cs2 Pb8 3.970452 1_555
Cs2 Pb29 4.018280 1_555
Cs2 Pb16 4.031411 1_565
Cs2 Pb32 4.045210 1_565
Cs2 Pb14 4.223380 1_555
Cs2 Pb1 4.285918 1_555
Cs2 Pb28 4.341076 1_555
Cs2 Pb6 4.401607 1_565
Cs2 Pb33 4.525226 1_565
Cs3 Pb29 4.057202 1_555
Cs3 Pb14 4.062185 1_555
Cs3 Pb22 4.074667 1_555
Cs3 Pb0 4.119396 1_655
Cs3 Pb28 4.166941 1_555
Cs3 Pb10 4.322404 1_555
Cs3 Pb24 4.326039 1_555
Cs3 Pb11 4.358841 1_555
Cs3 Pb30 4.369593 1_555
Cs4 Pb9 3.918630 1_556
Cs4 Pb27 3.924145 1_455
Cs4 Pb2 3.933185 1_555
Cs4 Pb11 3.996925 1_455
Cs4 Pb31 4.085834 1_555
Cs4 Pb13 4.124623 1_555
Cs4 Pb25 4.281327 1_455
Cs4 Pb7 4.550258 1_455
Cs4 Pb34 4.644229 1_556
Cs5 Pb1 3.870281 1_555
Cs5 Pb28 3.925433 1_455
Cs5 Pb3 3.940917 1_555
Cs5 Pb8 4.010134 1_555
Cs5 Pb5 4.070079 1_555
Cs5 Pb0 4.128302 1_555
Cs5 Pb29 4.156161 1_455
Cs5 Pb15 4.162434 1_555
Cs5 Pb14 4.551492 1_555
Cs6 Pb26 4.057202 1_555
Cs6 Pb18 4.062185 1_454
Cs6 Pb8 4.074667 1_555
Cs6 Pb17 4.119396 1_555
Cs6 Pb19 4.166941 1_554
Cs6 Pb9 4.322404 1_565
Cs6 Pb7 4.326039 1_464
Cs6 Pb32 4.358841 1_565
Cs6 Pb15 4.369593 1_555
Cs7 Pb14 3.918630 1_555
Cs7 Pb29 3.924145 1_555
Cs7 Pb0 3.933185 1_555
Cs7 Pb21 3.996925 1_555
Cs7 Pb19 4.085834 1_555
Cs7 Pb5 4.124623 1_555
Cs7 Pb22 4.281327 1_555
Cs7 Pb30 4.550258 1_555
Cs7 Pb1 4.644229 1_555
Cs8 Pb4 3.910112 1_555
Cs8 Pb12 3.970452 1_655
Cs8 Pb27 4.018280 1_554
Cs8 Pb20 4.031411 1_555
Cs8 Pb3 4.045210 1_655
Cs8 Pb9 4.223380 1_655
Cs8 Pb34 4.285918 1_655
Cs8 Pb33 4.341076 1_555
Cs8 Pb23 4.401607 1_554
Cs8 Pb28 4.525226 1_555
Cs9 Pb18 3.918630 1_554
Cs9 Pb26 3.924145 1_655
Cs9 Pb17 3.933185 1_555
Cs9 Pb3 3.996925 1_655
Cs9 Pb28 4.085834 1_555
Cs9 Pb20 4.124623 1_555
Cs9 Pb8 4.281327 1_655
Cs9 Pb15 4.550258 1_655
Cs9 Pb23 4.644229 1_554
Cs10 Pb10 3.918630 1_555
Cs10 Pb35 3.924145 1_555
Cs10 Pb4 3.933185 1_555
Cs10 Pb32 3.996925 1_555
Cs10 Pb33 4.085834 1_555
Cs10 Pb16 4.124623 1_555
Cs10 Pb12 4.281327 1_555
Cs10 Pb24 4.550258 1_555
Cs10 Pb6 4.644229 1_555
Cs11 Pb0 3.910112 1_555
Cs11 Pb22 3.970452 1_455
Cs11 Pb26 4.018280 1_556
Cs11 Pb13 4.031411 1_555
Cs11 Pb11 4.045210 1_455
Cs11 Pb18 4.223380 1_455
Cs11 Pb23 4.285918 1_455
Cs11 Pb19 4.341076 1_555
Cs11 Pb34 4.401607 1_556
Cs11 Pb31 4.525226 1_555
Cs12 Pb34 3.870281 1_555
Cs12 Pb33 3.925433 1_555
Cs12 Pb32 3.940917 1_555
Cs12 Pb12 4.010134 1_555
Cs12 Pb13 4.070079 1_554
Cs12 Pb2 4.128302 1_554
Cs12 Pb27 4.156161 1_554
Cs12 Pb24 4.162434 1_555
Cs12 Pb9 4.551492 1_555
Cs13 Pb2 3.910112 1_555
Cs13 Pb25 3.970452 1_555
Cs13 Pb35 4.018280 1_555
Cs13 Pb5 4.031411 1_545
Cs13 Pb21 4.045210 1_545
Cs13 Pb10 4.223380 1_555
Cs13 Pb6 4.285918 1_555
Cs13 Pb31 4.341076 1_555
Cs13 Pb1 4.401607 1_545
Cs13 Pb19 4.525226 1_545
Cs14 Pb6 3.870281 1_555
Cs14 Pb31 3.925433 1_655
Cs14 Pb11 3.940917 1_555
Cs14 Pb25 4.010134 1_555
Cs14 Pb16 4.070079 1_555
Cs14 Pb4 4.128302 1_555
Cs14 Pb35 4.156161 1_655
Cs14 Pb7 4.162434 1_555
Cs14 Pb10 4.551492 1_555
Cs15 Pb27 4.057202 1_555
Cs15 Pb9 4.062185 1_656
Cs15 Pb25 4.074667 1_555
Cs15 Pb2 4.119396 1_555
Cs15 Pb33 4.166941 1_556
Cs15 Pb18 4.322404 1_545
Cs15 Pb15 4.326039 1_646
Cs15 Pb21 4.358841 1_545
Cs15 Pb7 4.369593 1_555
Pb0 Pb29 3.109038 1_455
Pb0 Pb19 3.127001 1_555
Pb0 Pb22 3.148424 1_455
Pb0 Pb5 3.178231 1_555
Pb1 Pb35 3.074593 1_565
Pb1 Pb32 3.084949 1_565
Pb1 Pb16 3.112876 1_465
Pb1 Pb15 3.141422 1_555
Pb2 Pb27 3.109038 1_555
Pb2 Pb31 3.127001 1_555
Pb2 Pb25 3.148424 1_555
Pb3 Pb34 3.084949 1_555
Pb3 Pb8 3.143211 1_555
Pb5 Pb6 3.112876 1_465
Pb5 Pb7 3.387771 1_465
Pb6 Pb7 3.141422 1_555
Pb10 Pb31 3.103726 1_555
Pb10 Pb11 3.111200 1_555
Pb10 Pb25 3.145937 1_555
Pb10 Pb30 3.182466 1_555
Pb11 Pb23 3.084949 1_555
Pb11 Pb25 3.143211 1_555
Pb11 Pb30 3.277758 1_555
Pb11 Pb27 3.452302 1_555
Pb12 Pb35 3.128757 1_555
Pb12 Pb32 3.143211 1_555
Pb12 Pb9 3.145937 1_555
Pb12 Pb4 3.148424 1_455
Pb13 Pb23 3.112876 1_555
Pb13 Pb31 3.128746 1_555
Pb13 Pb2 3.178231 1_555
Pb13 Pb27 3.319127 1_555
Pb13 Pb30 3.387771 1_555
Pb14 Pb28 3.103726 1_555
Pb14 Pb3 3.111200 1_555
Pb14 Pb8 3.145937 1_555
Pb14 Pb24 3.182466 1_555
Pb15 Pb33 3.155356 1_465
Pb15 Pb9 3.182466 1_565
Pb15 Pb32 3.277758 1_565
Pb15 Pb16 3.387771 1_465
Pb16 Pb33 3.128746 1_555
Pb16 Pb4 3.178231 1_555
Pb16 Pb35 3.319127 1_655
Pb17 Pb26 3.109038 1_555
Pb17 Pb28 3.127001 1_555
Pb17 Pb8 3.148424 1_555
Pb17 Pb20 3.178231 1_555
Pb18 Pb19 3.103726 1_655
Pb18 Pb21 3.111200 1_555
Pb18 Pb22 3.145937 1_555
Pb18 Pb7 3.182466 1_565
Pb19 Pb5 3.128746 1_555
Pb19 Pb7 3.155356 1_465
Pb20 Pb34 3.112876 1_555
Pb20 Pb28 3.128746 1_555
Pb20 Pb26 3.319127 1_555
Pb20 Pb24 3.387771 1_555
Pb21 Pb6 3.084949 1_565
Pb21 Pb22 3.143211 1_555
Pb21 Pb7 3.277758 1_565
Pb21 Pb29 3.452302 1_555
Pb22 Pb29 3.128757 1_555
Pb23 Pb27 3.074593 1_555
Pb23 Pb30 3.141422 1_555
Pb24 Pb34 3.141422 1_555
Pb24 Pb28 3.155356 1_555
Pb24 Pb3 3.277758 1_555
Pb25 Pb27 3.128757 1_555
Pb26 Pb34 3.074593 1_555
Pb26 Pb8 3.128757 1_555
Pb26 Pb3 3.452302 1_555
Pb29 Pb6 3.074593 1_565
Pb29 Pb5 3.319127 1_655
Pb30 Pb31 3.155356 1_555
Pb32 Pb9 3.111200 1_555
Pb32 Pb35 3.452302 1_555
Pb33 Pb9 3.103726 1_655
Pb33 Pb4 3.127001 1_555
Pb35 Pb4 3.109038 1_455
