# generated using pymatgen
data_SrAg
_symmetry_space_group_name_H-M   'P 1'
_cell_length_a   4.73141993
_cell_length_b   6.36950171
_cell_length_c   42.04407955
_cell_angle_alpha   90.00000000
_cell_angle_beta   90.00000000
_cell_angle_gamma   90.00000000
_symmetry_Int_Tables_number   1
_chemical_formula_structural   SrAg
_chemical_formula_sum   'Sr20 Ag20'
_cell_volume   1267.07348409
_cell_formula_units_Z   20
loop_
 _symmetry_equiv_pos_site_id
 _symmetry_equiv_pos_as_xyz
  1  'x, y, z'
loop_
 _atom_site_type_symbol
 _atom_site_label
 _atom_site_symmetry_multiplicity
 _atom_site_fract_x
 _atom_site_fract_y
 _atom_site_fract_z
 _atom_site_occupancy
  Sr  Sr0  1  0.75000000  0.86530508  0.63613029  1
  Sr  Sr1  1  0.75000000  0.62539315  0.33618922  1
  Sr  Sr2  1  0.75000000  0.62840755  0.93613651  1
  Sr  Sr3  1  0.75000000  0.87460685  0.83618922  1
  Sr  Sr4  1  0.25000000  0.13469492  0.36386971  1
  Sr  Sr5  1  0.25000000  0.88820580  0.26407378  1
  Sr  Sr6  1  0.25000000  0.12905871  0.96410439  1
  Sr  Sr7  1  0.25000000  0.36530508  0.86386971  1
  Sr  Sr8  1  0.75000000  0.38820580  0.23592622  1
  Sr  Sr9  1  0.25000000  0.12840755  0.56386349  1
  Sr  Sr10  1  0.75000000  0.87159245  0.43613651  1
  Sr  Sr11  1  0.25000000  0.12539315  0.16381078  1
  Sr  Sr12  1  0.75000000  0.63469492  0.13613029  1
  Sr  Sr13  1  0.25000000  0.37159245  0.06386249  1
  Sr  Sr14  1  0.75000000  0.62905871  0.53589561  1
  Sr  Sr15  1  0.75000000  0.11179420  0.73592622  1
  Sr  Sr16  1  0.25000000  0.37460685  0.66381078  1
  Sr  Sr17  1  0.25000000  0.37094129  0.46410439  1
  Sr  Sr18  1  0.75000000  0.87094129  0.03589561  1
  Sr  Sr19  1  0.25000000  0.61179420  0.76407378  1
  Ag  Ag0  1  0.75000000  0.37749821  0.60686266  1
  Ag  Ag1  1  0.25000000  0.88029885  0.49308728  1
  Ag  Ag2  1  0.75000000  0.13751973  0.30674652  1
  Ag  Ag3  1  0.75000000  0.11970115  0.50691272  1
  Ag  Ag4  1  0.75000000  0.62126155  0.70696129  1
  Ag  Ag5  1  0.25000000  0.61861971  0.59307065  1
  Ag  Ag6  1  0.75000000  0.36248027  0.80674652  1
  Ag  Ag7  1  0.25000000  0.61970115  0.99308728  1
  Ag  Ag8  1  0.25000000  0.37873845  0.29303871  1
  Ag  Ag9  1  0.75000000  0.38138029  0.40692935  1
  Ag  Ag10  1  0.25000000  0.87749821  0.89313734  1
  Ag  Ag11  1  0.75000000  0.87873845  0.20696129  1
  Ag  Ag12  1  0.25000000  0.12126155  0.79303871  1
  Ag  Ag13  1  0.75000000  0.11861971  0.90692935  1
  Ag  Ag14  1  0.75000000  0.38029885  0.00691272  1
  Ag  Ag15  1  0.75000000  0.12250179  0.10686266  1
  Ag  Ag16  1  0.25000000  0.86248027  0.69325348  1
  Ag  Ag17  1  0.25000000  0.88138029  0.09307065  1
  Ag  Ag18  1  0.25000000  0.62250179  0.39313734  1
  Ag  Ag19  1  0.25000000  0.63751973  0.19325348  1
loop_
_geom_bond_atom_site_label_1
_geom_bond_atom_site_label_2
_geom_bond_distance
_geom_bond_site_symmetry_2
Ag0 Ag5 2.879512 1_655
Ag0 Ag5 2.879512 1_555
Ag0 Sr0 3.341885 1_555
Ag0 Sr16 3.365969 1_655
Ag0 Sr16 3.365969 1_555
Ag0 Sr9 3.373750 1_555
Ag0 Sr9 3.373750 1_655
Ag0 Sr14 3.386760 1_555
Ag0 Sr0 3.486769 1_545
Ag1 Ag3 2.873970 1_465
Ag1 Ag3 2.873970 1_565
Ag1 Sr17 3.354316 1_565
Ag1 Sr10 3.366454 1_555
Ag1 Sr10 3.366454 1_455
Ag1 Sr9 3.369325 1_565
Ag1 Sr14 3.375926 1_455
Ag1 Sr14 3.375926 1_555
Ag1 Sr17 3.465648 1_555
Ag2 Ag8 2.879132 1_555
Ag2 Ag8 2.879132 1_655
Ag2 Sr1 3.344996 1_555
Ag2 Sr5 3.367086 1_645
Ag2 Sr5 3.367086 1_545
Ag2 Sr4 3.371206 1_555
Ag2 Sr4 3.371206 1_655
Ag2 Sr8 3.378690 1_555
Ag2 Sr1 3.488977 1_545
Ag3 Sr14 3.354316 1_545
Ag3 Sr9 3.366454 1_555
Ag3 Sr9 3.366454 1_655
Ag3 Sr10 3.369325 1_545
Ag3 Sr17 3.375926 1_555
Ag3 Sr17 3.375926 1_655
Ag3 Sr14 3.465648 1_555
Ag4 Sr15 3.353390 1_565
Ag4 Sr0 3.359300 1_555
Ag4 Sr16 3.369903 1_555
Ag4 Sr16 3.369903 1_655
Ag4 Sr19 3.371377 1_555
Ag4 Sr19 3.371377 1_655
Ag4 Sr15 3.466038 1_555
Ag5 Sr9 3.355202 1_555
Ag5 Sr16 3.355823 1_555
Ag5 Sr0 3.367938 1_555
Ag5 Sr0 3.367938 1_455
Ag5 Sr14 3.373367 1_555
Ag5 Sr14 3.373367 1_455
Ag5 Sr9 3.471538 1_565
Ag6 Sr3 3.344996 1_545
Ag6 Sr19 3.367086 1_555
Ag6 Sr19 3.367086 1_655
Ag6 Sr7 3.371206 1_555
Ag6 Sr7 3.371206 1_655
Ag6 Sr15 3.378690 1_555
Ag6 Sr3 3.488977 1_555
Ag7 Sr6 3.354316 1_555
Ag7 Sr2 3.366454 1_455
Ag7 Sr2 3.366454 1_555
Ag7 Sr13 3.369288 1_556
Ag7 Sr18 3.375926 1_556
Ag7 Sr18 3.375926 1_456
Ag7 Sr6 3.465648 1_565
Ag8 Sr5 3.353390 1_545
Ag8 Sr4 3.359300 1_555
Ag8 Sr1 3.369903 1_455
Ag8 Sr1 3.369903 1_555
Ag8 Sr8 3.371377 1_455
Ag8 Sr8 3.371377 1_555
Ag8 Sr5 3.466038 1_555
Ag9 Sr10 3.355202 1_555
Ag9 Sr1 3.355823 1_555
Ag9 Sr4 3.367938 1_655
Ag9 Sr4 3.367938 1_555
Ag9 Sr17 3.373367 1_655
Ag9 Sr17 3.373367 1_555
Ag9 Sr10 3.471538 1_545
Ag10 Ag13 2.879512 1_465
Ag10 Ag13 2.879512 1_565
Ag10 Sr7 3.341885 1_565
Ag10 Sr3 3.365969 1_455
Ag10 Sr3 3.365969 1_555
Ag10 Sr2 3.373750 1_455
Ag10 Sr2 3.373750 1_555
Ag10 Sr6 3.386760 1_565
Ag10 Sr7 3.486769 1_555
Ag11 Ag19 2.879132 1_555
Ag11 Ag19 2.879132 1_655
Ag11 Sr8 3.353390 1_555
Ag11 Sr12 3.359300 1_555
Ag11 Sr11 3.369903 1_565
Ag11 Sr11 3.369903 1_665
Ag11 Sr5 3.371377 1_555
Ag11 Sr5 3.371377 1_655
Ag11 Sr8 3.466038 1_565
Ag12 Ag6 2.879132 1_555
Ag12 Ag6 2.879132 1_455
Ag12 Sr19 3.353390 1_555
Ag12 Sr7 3.359300 1_555
Ag12 Sr3 3.369903 1_545
Ag12 Sr3 3.369903 1_445
Ag12 Sr15 3.371377 1_555
Ag12 Sr15 3.371377 1_455
Ag12 Sr19 3.466038 1_545
Ag13 Sr2 3.355202 1_545
Ag13 Sr3 3.355823 1_545
Ag13 Sr7 3.367938 1_655
Ag13 Sr7 3.367938 1_555
Ag13 Sr6 3.373367 1_655
Ag13 Sr6 3.373367 1_555
Ag13 Sr2 3.471538 1_555
Ag14 Ag7 2.873970 1_554
Ag14 Ag7 2.873970 1_654
Ag14 Sr18 3.354316 1_555
Ag14 Sr13 3.366424 1_555
Ag14 Sr13 3.366424 1_655
Ag14 Sr2 3.369325 1_554
Ag14 Sr6 3.375926 1_654
Ag14 Sr6 3.375926 1_554
Ag14 Sr18 3.465648 1_545
Ag15 Ag17 2.879512 1_645
Ag15 Ag17 2.879512 1_545
Ag15 Sr12 3.341885 1_545
Ag15 Sr11 3.365969 1_555
Ag15 Sr11 3.365969 1_655
Ag15 Sr13 3.373773 1_655
Ag15 Sr13 3.373773 1_555
Ag15 Sr18 3.386760 1_545
Ag15 Sr12 3.486769 1_555
Ag16 Ag4 2.879132 1_455
Ag16 Ag4 2.879132 1_555
Ag16 Sr16 3.344996 1_555
Ag16 Sr15 3.367086 1_465
Ag16 Sr15 3.367086 1_565
Ag16 Sr0 3.371206 1_455
Ag16 Sr0 3.371206 1_555
Ag16 Sr19 3.378690 1_555
Ag16 Sr16 3.488977 1_565
Ag17 Sr13 3.355218 1_565
Ag17 Sr11 3.355823 1_565
Ag17 Sr12 3.367938 1_555
Ag17 Sr12 3.367938 1_455
Ag17 Sr18 3.373367 1_455
Ag17 Sr18 3.373367 1_555
Ag17 Sr13 3.471553 1_555
Ag18 Ag9 2.879512 1_555
Ag18 Ag9 2.879512 1_455
Ag18 Sr4 3.341885 1_555
Ag18 Sr1 3.365969 1_455
Ag18 Sr1 3.365969 1_555
Ag18 Sr10 3.373750 1_555
Ag18 Sr10 3.373750 1_455
Ag18 Sr17 3.386760 1_555
Ag18 Sr4 3.486769 1_565
Ag19 Sr11 3.344996 1_565
Ag19 Sr8 3.367086 1_555
Ag19 Sr8 3.367086 1_455
Ag19 Sr12 3.371206 1_455
Ag19 Sr12 3.371206 1_555
Ag19 Sr5 3.378690 1_555
Ag19 Sr11 3.488977 1_555
