# generated using pymatgen
data_RbCrF6
_symmetry_space_group_name_H-M   'P 1'
_cell_length_a   4.94218961
_cell_length_b   4.94218316
_cell_length_c   4.94217497
_cell_angle_alpha   97.20781764
_cell_angle_beta   97.20794931
_cell_angle_gamma   97.20779764
_symmetry_Int_Tables_number   1
_chemical_formula_structural   RbCrF6
_chemical_formula_sum   'Rb1 Cr1 F6'
_cell_volume   117.58413523
_cell_formula_units_Z   1
loop_
 _symmetry_equiv_pos_site_id
 _symmetry_equiv_pos_as_xyz
  1  'x, y, z'
loop_
 _atom_site_type_symbol
 _atom_site_label
 _atom_site_symmetry_multiplicity
 _atom_site_fract_x
 _atom_site_fract_y
 _atom_site_fract_z
 _atom_site_occupancy
  Rb  Rb0  1  0.00000000  -0.00000000  0.00000000  1
  Cr  Cr0  1  0.50000000  0.50000000  0.50000000  1
  F  F0  1  0.20606848  0.29812274  0.58105661  1
  F  F1  1  0.29812474  0.58105761  0.20606748  1
  F  F2  1  0.41894439  0.79393252  0.70187526  1
  F  F3  1  0.70187526  0.41894239  0.79393252  1
  F  F4  1  0.79393152  0.70187726  0.41894339  1
  F  F5  1  0.58105561  0.20606748  0.29812474  1
loop_
_geom_bond_atom_site_label_1
_geom_bond_atom_site_label_2
_geom_bond_distance
_geom_bond_site_symmetry_2
Cr0 F5 1.774475 1_555
Cr0 F2 1.774475 1_555
Cr0 F3 1.774476 1_555
Cr0 F1 1.774476 1_555
Cr0 F4 1.774480 1_555
Cr0 F0 1.774480 1_555
F0 Rb0 2.900534 1_556
F0 Rb0 3.046708 1_555
F1 Rb0 2.900533 1_565
F1 Rb0 3.046720 1_555
F2 Rb0 2.900545 1_566
F2 Rb0 3.046711 1_666
F3 Rb0 2.900533 1_656
F3 Rb0 3.046720 1_666
F4 Rb0 2.900534 1_665
F4 Rb0 3.046708 1_666
F5 Rb0 2.900545 1_655
F5 Rb0 3.046711 1_555
