# generated using pymatgen
data_Li4Al3Ge3BrO12
_symmetry_space_group_name_H-M   'P 1'
_cell_length_a   8.77133300
_cell_length_b   8.77133300
_cell_length_c   8.77133300
_cell_angle_alpha   90.00000000
_cell_angle_beta   90.00000000
_cell_angle_gamma   90.00000000
_symmetry_Int_Tables_number   1
_chemical_formula_structural   Li4Al3Ge3BrO12
_chemical_formula_sum   'Li8 Al6 Ge6 Br2 O24'
_cell_volume   674.83375444
_cell_formula_units_Z   2
loop_
 _symmetry_equiv_pos_site_id
 _symmetry_equiv_pos_as_xyz
  1  'x, y, z'
loop_
 _atom_site_type_symbol
 _atom_site_label
 _atom_site_symmetry_multiplicity
 _atom_site_fract_x
 _atom_site_fract_y
 _atom_site_fract_z
 _atom_site_occupancy
  Li  Li0  1  0.81935700  0.81935700  0.18064300  1
  Li  Li1  1  0.68064300  0.68064300  0.68064300  1
  Li  Li2  1  0.81935700  0.18064300  0.81935700  1
  Li  Li3  1  0.68064300  0.31935700  0.31935700  1
  Li  Li4  1  0.18064300  0.81935700  0.81935700  1
  Li  Li5  1  0.31935700  0.68064300  0.31935700  1
  Li  Li6  1  0.31935700  0.31935700  0.68064300  1
  Li  Li7  1  0.18064300  0.18064300  0.18064300  1
  Al  Al0  1  0.00000000  0.75000000  0.50000000  1
  Al  Al1  1  0.25000000  0.50000000  0.00000000  1
  Al  Al2  1  0.50000000  0.00000000  0.75000000  1
  Al  Al3  1  0.50000000  0.00000000  0.25000000  1
  Al  Al4  1  0.00000000  0.25000000  0.50000000  1
  Al  Al5  1  0.75000000  0.50000000  0.00000000  1
  Ge  Ge0  1  0.00000000  0.50000000  0.25000000  1
  Ge  Ge1  1  0.50000000  0.75000000  0.00000000  1
  Ge  Ge2  1  0.50000000  0.25000000  0.00000000  1
  Ge  Ge3  1  0.00000000  0.50000000  0.75000000  1
  Ge  Ge4  1  0.75000000  0.00000000  0.50000000  1
  Ge  Ge5  1  0.25000000  0.00000000  0.50000000  1
  Br  Br0  1  0.00000000  0.00000000  0.00000000  1
  Br  Br1  1  0.50000000  0.50000000  0.50000000  1
  O  O0  1  0.63888400  0.36087100  0.09518500  1
  O  O1  1  0.90481500  0.36111600  0.36087100  1
  O  O2  1  0.63912900  0.09518500  0.36111600  1
  O  O3  1  0.59518500  0.86087100  0.13888400  1
  O  O4  1  0.86111600  0.40481500  0.86087100  1
  O  O5  1  0.09518500  0.36111600  0.63912900  1
  O  O6  1  0.13888400  0.40481500  0.13912900  1
  O  O7  1  0.40481500  0.13912900  0.13888400  1
  O  O8  1  0.13888400  0.59518500  0.86087100  1
  O  O9  1  0.86087100  0.86111600  0.40481500  1
  O  O10  1  0.09518500  0.63888400  0.36087100  1
  O  O11  1  0.86111600  0.59518500  0.13912900  1
  O  O12  1  0.36087100  0.90481500  0.36111600  1
  O  O13  1  0.36087100  0.09518500  0.63888400  1
  O  O14  1  0.63888400  0.63912900  0.90481500  1
  O  O15  1  0.59518500  0.13912900  0.86111600  1
  O  O16  1  0.63912900  0.90481500  0.63888400  1
  O  O17  1  0.13912900  0.13888400  0.40481500  1
  O  O18  1  0.36111600  0.63912900  0.09518500  1
  O  O19  1  0.13912900  0.86111600  0.59518500  1
  O  O20  1  0.40481500  0.86087100  0.86111600  1
  O  O21  1  0.86087100  0.13888400  0.59518500  1
  O  O22  1  0.36111600  0.36087100  0.90481500  1
  O  O23  1  0.90481500  0.63888400  0.63912900  1
loop_
_geom_bond_atom_site_label_1
_geom_bond_atom_site_label_2
_geom_bond_distance
_geom_bond_site_symmetry_2
Li0 O9 2.032988 1_555
Li0 O3 2.032988 1_555
Li0 O11 2.032988 1_555
Li1 O14 2.032988 1_555
Li1 O16 2.032988 1_555
Li1 O23 2.032988 1_555
Li2 O4 2.032988 1_555
Li2 O21 2.032988 1_555
Li2 O15 2.032988 1_555
Li3 O1 2.032988 1_555
Li3 O0 2.032988 1_555
Li3 O2 2.032988 1_555
Li4 O20 2.032988 1_555
Li4 O8 2.032988 1_555
Li4 O19 2.032988 1_555
Li5 O12 2.032988 1_555
Li5 O10 2.032988 1_555
Li5 O18 2.032988 1_555
Li6 O22 2.032988 1_555
Li6 O5 2.032988 1_555
Li6 O13 2.032988 1_555
Li7 O17 2.032988 1_555
Li7 O6 2.032988 1_555
Li7 O7 2.032988 1_555
Al0 O10 1.770937 1_555
Al0 O19 1.770937 1_555
Al0 O23 1.770937 1_455
Al0 O9 1.770937 1_455
Al1 O18 1.770937 1_555
Al1 O6 1.770937 1_555
Al1 O22 1.770937 1_554
Al1 O8 1.770937 1_554
Al2 O13 1.770937 1_555
Al2 O15 1.770937 1_555
Al2 O16 1.770937 1_545
Al2 O20 1.770937 1_545
Al3 O2 1.770937 1_555
Al3 O7 1.770937 1_555
Al3 O12 1.770937 1_545
Al3 O3 1.770937 1_545
Al4 O5 1.770937 1_555
Al4 O17 1.770937 1_555
Al4 O1 1.770937 1_455
Al4 O21 1.770937 1_455
Al5 O0 1.770937 1_555
Al5 O11 1.770937 1_555
Al5 O14 1.770937 1_554
Al5 O4 1.770937 1_554
Ge0 O10 1.768274 1_555
Ge0 O11 1.768274 1_455
Ge0 O6 1.768274 1_555
Ge0 O1 1.768274 1_455
Ge1 O3 1.768274 1_555
Ge1 O20 1.768274 1_554
Ge1 O18 1.768274 1_555
Ge1 O14 1.768274 1_554
Ge2 O0 1.768274 1_555
Ge2 O15 1.768274 1_554
Ge2 O7 1.768274 1_555
Ge2 O22 1.768274 1_554
Ge3 O8 1.768274 1_555
Ge3 O4 1.768274 1_455
Ge3 O5 1.768274 1_555
Ge3 O23 1.768274 1_455
Ge4 O21 1.768274 1_555
Ge4 O9 1.768274 1_545
Ge4 O2 1.768274 1_555
Ge4 O16 1.768274 1_545
Ge5 O13 1.768274 1_555
Ge5 O19 1.768274 1_545
Ge5 O17 1.768274 1_555
Ge5 O12 1.768274 1_545
Br0 Li4 2.744400 1_544
Br0 Li7 2.744400 1_555
Br0 Li2 2.744400 1_454
Br0 Li0 2.744400 1_445
Br1 Li1 2.744400 1_555
Br1 Li6 2.744400 1_555
Br1 Li3 2.744400 1_555
Br1 Li5 2.744400 1_555
