# generated using pymatgen
data_Ga(SbBr)4
_symmetry_space_group_name_H-M   'P 1'
_cell_length_a   10.39943500
_cell_length_b   13.91837200
_cell_length_c   18.88824700
_cell_angle_alpha   90.00000000
_cell_angle_beta   90.00000000
_cell_angle_gamma   90.00000000
_symmetry_Int_Tables_number   1
_chemical_formula_structural   Ga(SbBr)4
_chemical_formula_sum   'Ga8 Sb32 Br32'
_cell_volume   2733.94540610
_cell_formula_units_Z   8
loop_
 _symmetry_equiv_pos_site_id
 _symmetry_equiv_pos_as_xyz
  1  'x, y, z'
loop_
 _atom_site_type_symbol
 _atom_site_label
 _atom_site_symmetry_multiplicity
 _atom_site_fract_x
 _atom_site_fract_y
 _atom_site_fract_z
 _atom_site_occupancy
  Ga  Ga0  1  0.02243700  0.80335300  0.67662200  1
  Ga  Ga1  1  0.47756300  0.80335300  0.17662200  1
  Ga  Ga2  1  0.97756300  0.30335300  0.32337800  1
  Ga  Ga3  1  0.00773200  0.48765600  0.99806700  1
  Ga  Ga4  1  0.49226800  0.48765600  0.49806700  1
  Ga  Ga5  1  0.52243700  0.30335300  0.82337800  1
  Ga  Ga6  1  0.50773200  0.98765600  0.50193300  1
  Ga  Ga7  1  0.99226800  0.98765600  0.00193300  1
  Sb  Sb0  1  0.38540400  0.59787200  0.82322800  1
  Sb  Sb1  1  0.20323100  0.75455200  0.41512800  1
  Sb  Sb2  1  0.83488400  0.64704000  0.29975200  1
  Sb  Sb3  1  0.15045000  0.35608700  0.71592200  1
  Sb  Sb4  1  0.05685400  0.16169600  0.55746400  1
  Sb  Sb5  1  0.95838700  0.87179400  0.42727900  1
  Sb  Sb6  1  0.94314600  0.66169600  0.44253600  1
  Sb  Sb7  1  0.45272500  0.73432600  0.71019700  1
  Sb  Sb8  1  0.54161300  0.87179400  0.92727900  1
  Sb  Sb9  1  0.04727500  0.73432600  0.21019700  1
  Sb  Sb10  1  0.55685400  0.66169600  0.94253600  1
  Sb  Sb11  1  0.16511600  0.14704000  0.70024800  1
  Sb  Sb12  1  0.63694800  0.39073100  0.19732300  1
  Sb  Sb13  1  0.45838700  0.37179400  0.07272100  1
  Sb  Sb14  1  0.04161300  0.37179400  0.57272100  1
  Sb  Sb15  1  0.29676900  0.75455200  0.91512800  1
  Sb  Sb16  1  0.70323100  0.25455200  0.08487200  1
  Sb  Sb17  1  0.34955000  0.35608700  0.21592200  1
  Sb  Sb18  1  0.66511600  0.64704000  0.79975200  1
  Sb  Sb19  1  0.61459600  0.09787200  0.17677200  1
  Sb  Sb20  1  0.13694800  0.89073100  0.30267700  1
  Sb  Sb21  1  0.65045000  0.85608700  0.78407800  1
  Sb  Sb22  1  0.33488400  0.14704000  0.20024800  1
  Sb  Sb23  1  0.11459600  0.59787200  0.32322800  1
  Sb  Sb24  1  0.95272500  0.23432600  0.78980300  1
  Sb  Sb25  1  0.44314600  0.16169600  0.05746400  1
  Sb  Sb26  1  0.84955000  0.85608700  0.28407800  1
  Sb  Sb27  1  0.54727500  0.23432600  0.28980300  1
  Sb  Sb28  1  0.36305200  0.89073100  0.80267700  1
  Sb  Sb29  1  0.79676900  0.25455200  0.58487200  1
  Sb  Sb30  1  0.86305200  0.39073100  0.69732300  1
  Sb  Sb31  1  0.88540400  0.09787200  0.67677200  1
  Br  Br0  1  0.52321400  0.81875800  0.49909500  1
  Br  Br1  1  0.81750400  0.53716800  0.05808400  1
  Br  Br2  1  0.31530600  0.88773300  0.11466700  1
  Br  Br3  1  0.17235400  0.31210100  0.38737600  1
  Br  Br4  1  0.18249600  0.03716800  0.94191600  1
  Br  Br5  1  0.18853600  0.55681500  0.05592400  1
  Br  Br6  1  0.18469400  0.88773300  0.61466700  1
  Br  Br7  1  0.92066700  0.14077400  0.30722700  1
  Br  Br8  1  0.50529400  0.04640500  0.61971300  1
  Br  Br9  1  0.50368300  0.87575900  0.28956400  1
  Br  Br10  1  0.57933300  0.14077400  0.80722700  1
  Br  Br11  1  0.31146400  0.55681500  0.55592400  1
  Br  Br12  1  0.00368300  0.37575900  0.21043600  1
  Br  Br13  1  0.68469400  0.38773300  0.88533300  1
  Br  Br14  1  0.82764600  0.81210100  0.61262400  1
  Br  Br15  1  0.81530600  0.38773300  0.38533300  1
  Br  Br16  1  0.00529400  0.54640500  0.88028700  1
  Br  Br17  1  0.07933300  0.64077400  0.69277300  1
  Br  Br18  1  0.67235400  0.81210100  0.11262400  1
  Br  Br19  1  0.81146400  0.05681500  0.94407600  1
  Br  Br20  1  0.31750400  0.03716800  0.44191600  1
  Br  Br21  1  0.42066700  0.64077400  0.19277300  1
  Br  Br22  1  0.97678600  0.81875800  0.99909500  1
  Br  Br23  1  0.47678600  0.31875800  0.50090500  1
  Br  Br24  1  0.68249600  0.53716800  0.55808400  1
  Br  Br25  1  0.02321400  0.31875800  0.00090500  1
  Br  Br26  1  0.99631700  0.87575900  0.78956400  1
  Br  Br27  1  0.49470600  0.54640500  0.38028700  1
  Br  Br28  1  0.49631700  0.37575900  0.71043600  1
  Br  Br29  1  0.68853600  0.05681500  0.44407600  1
  Br  Br30  1  0.99470600  0.04640500  0.11971300  1
  Br  Br31  1  0.32764600  0.31210100  0.88737600  1
loop_
_geom_bond_atom_site_label_1
_geom_bond_atom_site_label_2
_geom_bond_distance
_geom_bond_site_symmetry_2
Sb0 Sb15 2.935698 1_555
Sb0 Sb7 2.941974 1_555
Sb0 Sb10 3.007740 1_555
Sb0 Sb18 3.020982 1_555
Sb1 Sb20 2.928998 1_555
Sb1 Sb23 2.935698 1_555
Sb1 Sb5 3.032959 1_455
Sb1 Sb6 3.042025 1_455
Sb2 Sb26 2.928591 1_555
Sb2 Sb6 2.929618 1_555
Sb2 Sb23 3.020982 1_655
Sb2 Sb9 3.035752 1_655
Sb3 Sb30 3.047738 1_455
Sb5 Sb6 2.942659 1_555
Sb10 Sb18 2.929618 1_555
Sb10 Sb8 2.942659 1_555
Sb10 Sb15 3.042025 1_555
Sb11 Sb3 2.928591 1_555
Sb11 Sb4 2.929618 1_555
Sb11 Sb31 3.020982 1_455
Sb11 Sb24 3.035752 1_455
Sb12 Sb16 2.928998 1_555
Sb12 Sb27 2.942756 1_555
Sb12 Sb13 3.009435 1_555
Sb12 Sb17 3.047738 1_555
Sb13 Sb17 2.940220 1_555
Sb13 Sb25 2.942659 1_555
Sb13 Sb16 3.032959 1_555
Sb14 Sb3 2.940220 1_555
Sb14 Sb4 2.942659 1_555
Sb14 Sb30 3.009435 1_455
Sb14 Sb29 3.032959 1_455
Sb15 Sb28 2.928998 1_555
Sb15 Sb8 3.032959 1_555
Sb16 Sb19 2.935698 1_555
Sb16 Sb25 3.042025 1_555
Sb17 Sb22 2.928591 1_555
Sb17 Sb27 3.007907 1_555
Sb18 Sb21 2.928591 1_555
Sb18 Sb7 3.035752 1_555
Sb19 Sb27 2.941974 1_555
Sb19 Sb25 3.007740 1_555
Sb19 Sb22 3.020982 1_555
Sb20 Sb9 2.942756 1_555
Sb20 Sb5 3.009435 1_455
Sb20 Sb26 3.047738 1_455
Sb21 Sb8 2.940220 1_555
Sb21 Sb7 3.007907 1_555
Sb21 Sb28 3.047738 1_555
Sb22 Sb25 2.929618 1_555
Sb22 Sb27 3.035752 1_555
Sb23 Sb9 2.941974 1_555
Sb23 Sb6 3.007740 1_455
Sb24 Sb31 2.941974 1_555
Sb24 Sb30 2.942756 1_555
Sb24 Sb3 3.007907 1_655
Sb26 Sb5 2.940220 1_555
Sb26 Sb9 3.007907 1_655
Sb28 Sb7 2.942756 1_555
Sb28 Sb8 3.009435 1_555
Sb29 Sb30 2.928998 1_555
Sb29 Sb31 2.935698 1_555
Sb29 Sb4 3.042025 1_655
Sb31 Sb4 3.007740 1_655
Br0 Ga6 2.356902 1_555
Br1 Ga3 2.381913 1_654
Br2 Ga1 2.365579 1_555
Br3 Ga2 2.362112 1_455
Br4 Ga7 2.381913 1_446
Br5 Ga3 2.378274 1_554
Br6 Ga0 2.365579 1_555
Br7 Ga2 2.358724 1_555
Br8 Ga6 2.370309 1_545
Br9 Ga1 2.374923 1_555
Br10 Ga5 2.358724 1_555
Br11 Ga4 2.378274 1_555
Br12 Ga2 2.374923 1_455
Br13 Ga5 2.365579 1_555
Br14 Ga0 2.362112 1_655
Br15 Ga2 2.365579 1_555
Br16 Ga3 2.370309 1_555
Br17 Ga0 2.358724 1_555
Br18 Ga1 2.362112 1_555
Br19 Ga7 2.378274 1_546
Br20 Ga6 2.381913 1_545
Br21 Ga1 2.358724 1_555
Br22 Ga7 2.356902 1_556
Br23 Ga4 2.356902 1_555
Br24 Ga4 2.381913 1_555
Br25 Ga3 2.356902 1_554
Br26 Ga0 2.374923 1_655
Br27 Ga4 2.370309 1_555
Br28 Ga5 2.374923 1_555
Br29 Ga6 2.378274 1_545
Br30 Ga7 2.370309 1_545
Br31 Ga5 2.362112 1_555
