# generated using pymatgen
data_Sr16Fe16O47
_symmetry_space_group_name_H-M   'P 1'
_cell_length_a   11.07842735
_cell_length_b   11.07842735
_cell_length_c   11.07842735
_cell_angle_alpha   120.06285854
_cell_angle_beta   120.06285854
_cell_angle_gamma   89.89116026
_symmetry_Int_Tables_number   1
_chemical_formula_structural   Sr16Fe16O47
_chemical_formula_sum   'Sr16 Fe16 O47'
_cell_volume   960.51836592
_cell_formula_units_Z   1
loop_
 _symmetry_equiv_pos_site_id
 _symmetry_equiv_pos_as_xyz
  1  'x, y, z'
loop_
 _atom_site_type_symbol
 _atom_site_label
 _atom_site_symmetry_multiplicity
 _atom_site_fract_x
 _atom_site_fract_y
 _atom_site_fract_z
 _atom_site_occupancy
  Sr  Sr0  1  0.74095400  0.00000000  0.74095400  1
  Sr  Sr1  1  0.25904600  0.00000000  0.25904600  1
  Sr  Sr2  1  0.25115300  0.99961800  0.74846500  1
  Sr  Sr3  1  0.74884700  0.00038200  0.25153500  1
  Sr  Sr4  1  0.25115300  0.50268800  0.25153500  1
  Sr  Sr5  1  0.50268800  0.25115300  0.25153500  1
  Sr  Sr6  1  0.74882200  0.50000000  0.24882200  1
  Sr  Sr7  1  0.74884700  0.49731200  0.74846500  1
  Sr  Sr8  1  0.00000000  0.25904600  0.25904600  1
  Sr  Sr9  1  0.99961800  0.25115300  0.74846500  1
  Sr  Sr10  1  0.00000000  0.74095400  0.74095400  1
  Sr  Sr11  1  0.25117800  0.50000000  0.75117800  1
  Sr  Sr12  1  0.50000000  0.25117800  0.75117800  1
  Sr  Sr13  1  0.49731200  0.74884700  0.74846500  1
  Sr  Sr14  1  0.50000000  0.74882200  0.24882200  1
  Sr  Sr15  1  0.00038200  0.74884700  0.25153500  1
  Fe  Fe0  1  0.37462300  0.87462300  0.50000000  1
  Fe  Fe1  1  0.86630100  0.86630100  0.00000000  1
  Fe  Fe2  1  0.87442700  0.37458200  0.00000000  1
  Fe  Fe3  1  0.13369900  0.13369900  0.00000000  1
  Fe  Fe4  1  0.37458200  0.87442700  0.00000000  1
  Fe  Fe5  1  0.37698900  0.37698900  0.00000000  1
  Fe  Fe6  1  0.37458200  0.37458200  0.50015500  1
  Fe  Fe7  1  0.62541800  0.12557300  0.00000000  1
  Fe  Fe8  1  0.62537700  0.12537700  0.50000000  1
  Fe  Fe9  1  0.87442700  0.87442700  0.49984500  1
  Fe  Fe10  1  0.62541800  0.62541800  0.49984500  1
  Fe  Fe11  1  0.87462300  0.37462300  0.50000000  1
  Fe  Fe12  1  0.12557300  0.12557300  0.50015500  1
  Fe  Fe13  1  0.12557300  0.62541800  0.00000000  1
  Fe  Fe14  1  0.12537700  0.62537700  0.50000000  1
  Fe  Fe15  1  0.62301100  0.62301100  0.00000000  1
  O  O0  1  0.99736700  0.99736700  0.76113100  1
  O  O1  1  0.99736700  0.23623600  0.00000000  1
  O  O2  1  0.23623600  0.99736700  0.00000000  1
  O  O3  1  0.50000000  0.00000000  0.50000000  1
  O  O4  1  0.23623600  0.23623600  0.23886900  1
  O  O5  1  0.50000000  0.00000000  0.00000000  1
  O  O6  1  0.25273000  0.25273000  0.00000000  1
  O  O7  1  0.49914900  0.99867500  0.74839700  1
  O  O8  1  0.50085100  0.00132500  0.25160300  1
  O  O9  1  0.49879300  0.25209500  0.00000000  1
  O  O10  1  0.50085100  0.24924800  0.49952600  1
  O  O11  1  0.76376400  0.00263300  0.00000000  1
  O  O12  1  0.74972100  0.00132500  0.50047400  1
  O  O13  1  0.75075200  0.25027900  0.25160300  1
  O  O14  1  0.75000000  0.25000000  0.50000000  1
  O  O15  1  0.00000000  0.00000000  0.50000000  1
  O  O16  1  0.49879300  0.49879300  0.24669800  1
  O  O17  1  0.74932100  0.25067900  0.00000000  1
  O  O18  1  0.00263300  0.00263300  0.23886900  1
  O  O19  1  0.74972100  0.24924800  0.74839700  1
  O  O20  1  0.50000000  0.50000000  0.50000000  1
  O  O21  1  0.75075200  0.49914900  0.50047400  1
  O  O22  1  0.99867500  0.25027900  0.49952600  1
  O  O23  1  0.25027900  0.99867500  0.49952600  1
  O  O24  1  0.49914900  0.75075200  0.50047400  1
  O  O25  1  0.00132500  0.50085100  0.25160300  1
  O  O26  1  0.99867500  0.49914900  0.74839700  1
  O  O27  1  0.25209500  0.25209500  0.75330200  1
  O  O28  1  0.00000000  0.50000000  0.50000000  1
  O  O29  1  0.25067900  0.25067900  0.50135800  1
  O  O30  1  0.00000000  0.50000000  0.00000000  1
  O  O31  1  0.74932100  0.74932100  0.49864200  1
  O  O32  1  0.76376400  0.76376400  0.76113100  1
  O  O33  1  0.00132500  0.74972100  0.50047400  1
  O  O34  1  0.00263300  0.76376400  0.00000000  1
  O  O35  1  0.25209500  0.49879300  0.00000000  1
  O  O36  1  0.24924800  0.50085100  0.49952600  1
  O  O37  1  0.50120700  0.50120700  0.75330200  1
  O  O38  1  0.50000000  0.50000000  0.00000000  1
  O  O39  1  0.25000000  0.75000000  0.50000000  1
  O  O40  1  0.24924800  0.74972100  0.74839700  1
  O  O41  1  0.25027900  0.75075200  0.25160300  1
  O  O42  1  0.25067900  0.74932100  0.00000000  1
  O  O43  1  0.50120700  0.74790500  0.00000000  1
  O  O44  1  0.74790500  0.50120700  0.00000000  1
  O  O45  1  0.74727000  0.74727000  0.00000000  1
  O  O46  1  0.74790500  0.74790500  0.24669800  1
loop_
_geom_bond_atom_site_label_1
_geom_bond_atom_site_label_2
_geom_bond_distance
_geom_bond_site_symmetry_2
Fe0 O23 1.943998 1_555
Fe0 O41 1.944005 1_555
Fe0 O24 1.944005 1_555
Fe0 O7 1.944005 1_555
Fe0 O39 1.954355 1_555
Fe0 O3 1.966179 1_565
Fe1 O45 1.866660 1_555
Fe1 O32 1.888121 1_554
Fe1 O18 1.888121 1_665
Fe1 O11 1.888121 1_565
Fe1 O34 1.888121 1_655
Fe2 O17 1.952519 1_555
Fe2 O30 1.968038 1_655
Fe2 O19 1.969136 1_554
Fe2 O25 1.969137 1_655
Fe2 O44 1.981176 1_555
Fe2 O1 2.048438 1_555
Fe3 O6 1.866660 1_555
Fe3 O2 1.888121 1_545
Fe3 O1 1.888121 1_455
Fe3 O4 1.888121 1_555
Fe3 O0 1.888121 1_444
Fe4 O42 1.952519 1_555
Fe4 O5 1.968038 1_565
Fe4 O40 1.969136 1_554
Fe4 O8 1.969137 1_565
Fe4 O43 1.981176 1_555
Fe4 O2 2.048438 1_555
Fe5 O38 1.929075 1_555
Fe5 O35 1.930857 1_555
Fe5 O9 1.930857 1_555
Fe5 O16 1.930857 1_555
Fe5 O27 1.930857 1_554
Fe5 O6 1.948647 1_555
Fe6 O29 1.952519 1_555
Fe6 O20 1.968038 1_555
Fe6 O36 1.969137 1_555
Fe6 O10 1.969137 1_555
Fe6 O37 1.981176 1_555
Fe6 O4 2.048438 1_555
Fe7 O17 1.952519 1_555
Fe7 O5 1.968038 1_555
Fe7 O13 1.969136 1_555
Fe7 O7 1.969137 1_544
Fe7 O9 1.981176 1_555
Fe7 O11 2.048438 1_555
Fe8 O12 1.943998 1_555
Fe8 O19 1.944005 1_555
Fe8 O10 1.944005 1_555
Fe8 O8 1.944005 1_555
Fe8 O14 1.954355 1_555
Fe8 O3 1.966179 1_555
Fe9 O31 1.952519 1_555
Fe9 O15 1.968038 1_665
Fe9 O12 1.969144 1_565
Fe9 O33 1.969144 1_655
Fe9 O46 1.981176 1_555
Fe9 O0 2.048438 1_555
Fe10 O31 1.952519 1_555
Fe10 O20 1.968038 1_555
Fe10 O24 1.969137 1_555
Fe10 O21 1.969137 1_555
Fe10 O16 1.981176 1_555
Fe10 O32 2.048438 1_555
Fe11 O22 1.943998 1_555
Fe11 O13 1.944005 1_555
Fe11 O21 1.944005 1_555
Fe11 O26 1.944005 1_555
Fe11 O14 1.954355 1_555
Fe11 O28 1.966179 1_655
Fe12 O29 1.952519 1_555
Fe12 O15 1.968038 1_555
Fe12 O22 1.969144 1_455
Fe12 O23 1.969144 1_545
Fe12 O27 1.981176 1_555
Fe12 O18 2.048438 1_555
Fe13 O42 1.952519 1_555
Fe13 O30 1.968038 1_555
Fe13 O41 1.969136 1_555
Fe13 O26 1.969137 1_454
Fe13 O35 1.981176 1_555
Fe13 O34 2.048438 1_555
Fe14 O33 1.943998 1_555
Fe14 O40 1.944005 1_555
Fe14 O36 1.944005 1_555
Fe14 O25 1.944005 1_555
Fe14 O39 1.954355 1_555
Fe14 O28 1.966179 1_555
Fe15 O38 1.929075 1_555
Fe15 O44 1.930857 1_555
Fe15 O43 1.930857 1_555
Fe15 O46 1.930857 1_555
Fe15 O37 1.930857 1_554
Fe15 O45 1.948647 1_555
O0 Sr10 2.736817 1_655
O0 Sr0 2.736817 1_565
O0 Sr2 2.885162 1_655
O0 Sr9 2.885162 1_565
O1 Sr8 2.736817 1_655
O1 Sr0 2.736817 1_554
O1 Sr4 2.885162 1_655
O1 Sr9 2.885162 1_554
O2 Sr1 2.736817 1_565
O2 Sr10 2.736817 1_554
O2 Sr5 2.885162 1_565
O2 Sr2 2.885162 1_554
O3 Sr1 2.666855 1_555
O3 Sr0 2.666855 1_555
O3 Sr12 2.780013 1_555
O3 Sr14 2.780013 1_545
O4 Sr1 2.736817 1_555
O4 Sr8 2.736817 1_555
O4 Sr4 2.885162 1_555
O4 Sr5 2.885162 1_555
O5 Sr5 2.767086 1_555
O5 Sr3 2.767086 1_555
O5 Sr2 2.767086 1_544
O5 Sr13 2.767086 1_544
O6 Sr4 2.784074 1_555
O6 Sr5 2.784074 1_555
O6 Sr9 2.784074 1_454
O6 Sr2 2.784074 1_544
O7 Sr0 2.721352 1_565
O7 Sr2 2.747782 1_555
O7 Sr13 2.768195 1_555
O7 Sr12 2.782012 1_565
O8 Sr1 2.721352 1_555
O8 Sr3 2.747782 1_555
O8 Sr5 2.768195 1_555
O8 Sr14 2.782012 1_545
O9 Sr6 2.758216 1_555
O9 Sr12 2.758216 1_554
O9 Sr2 2.770531 1_544
O9 Sr5 2.770531 1_555
O10 Sr1 2.721352 1_555
O10 Sr7 2.747782 1_555
O10 Sr5 2.768195 1_555
O10 Sr12 2.782012 1_555
O11 Sr8 2.736817 1_655
O11 Sr0 2.736817 1_554
O11 Sr13 2.885162 1_544
O11 Sr3 2.885162 1_555
O12 Sr0 2.721346 1_555
O12 Sr3 2.747787 1_555
O12 Sr9 2.768201 1_555
O12 Sr14 2.782006 1_545
O13 Sr8 2.721351 1_655
O13 Sr5 2.747782 1_555
O13 Sr3 2.768206 1_555
O13 Sr6 2.782001 1_555
O14 Sr9 2.750045 1_555
O14 Sr5 2.750045 1_555
O14 Sr7 2.750045 1_555
O14 Sr3 2.750045 1_555
O15 Sr2 2.767086 1_545
O15 Sr9 2.767086 1_455
O15 Sr15 2.767086 1_545
O15 Sr3 2.767086 1_455
O16 Sr14 2.758216 1_555
O16 Sr6 2.758216 1_555
O16 Sr5 2.770531 1_555
O16 Sr4 2.770531 1_555
O17 Sr12 2.759465 1_554
O17 Sr6 2.759465 1_555
O17 Sr8 2.776035 1_655
O17 Sr0 2.776035 1_554
O18 Sr1 2.736817 1_555
O18 Sr8 2.736817 1_555
O18 Sr15 2.885162 1_545
O18 Sr3 2.885162 1_455
O19 Sr0 2.721351 1_555
O19 Sr7 2.747782 1_555
O19 Sr9 2.768206 1_555
O19 Sr12 2.782001 1_555
O20 Sr13 2.767086 1_555
O20 Sr7 2.767086 1_555
O20 Sr5 2.767086 1_555
O20 Sr4 2.767086 1_555
O21 Sr10 2.721352 1_655
O21 Sr5 2.747782 1_555
O21 Sr7 2.768195 1_555
O21 Sr6 2.782012 1_555
O22 Sr8 2.721346 1_655
O22 Sr9 2.747787 1_555
O22 Sr3 2.768201 1_555
O22 Sr11 2.782006 1_655
O23 Sr1 2.721346 1_565
O23 Sr2 2.747787 1_555
O23 Sr15 2.768201 1_555
O23 Sr12 2.782006 1_565
O24 Sr0 2.721352 1_565
O24 Sr4 2.747782 1_555
O24 Sr13 2.768195 1_555
O24 Sr14 2.782012 1_555
O25 Sr8 2.721352 1_555
O25 Sr15 2.747782 1_555
O25 Sr4 2.768195 1_555
O25 Sr6 2.782012 1_455
O26 Sr10 2.721352 1_655
O26 Sr9 2.747782 1_555
O26 Sr7 2.768195 1_555
O26 Sr11 2.782012 1_655
O27 Sr11 2.758216 1_555
O27 Sr12 2.758216 1_555
O27 Sr2 2.770531 1_545
O27 Sr9 2.770531 1_455
O28 Sr10 2.666855 1_555
O28 Sr8 2.666855 1_555
O28 Sr11 2.780013 1_555
O28 Sr6 2.780013 1_455
O29 Sr11 2.759465 1_555
O29 Sr12 2.759465 1_555
O29 Sr1 2.776035 1_555
O29 Sr8 2.776035 1_555
O30 Sr4 2.767086 1_555
O30 Sr15 2.767086 1_555
O30 Sr9 2.767086 1_454
O30 Sr7 2.767086 1_454
O31 Sr14 2.759465 1_555
O31 Sr6 2.759465 1_555
O31 Sr10 2.776035 1_655
O31 Sr0 2.776035 1_565
O32 Sr10 2.736817 1_655
O32 Sr0 2.736817 1_565
O32 Sr7 2.885162 1_555
O32 Sr13 2.885162 1_555
O33 Sr10 2.721346 1_555
O33 Sr15 2.747787 1_555
O33 Sr2 2.768201 1_555
O33 Sr6 2.782006 1_455
O34 Sr1 2.736817 1_565
O34 Sr10 2.736817 1_554
O34 Sr7 2.885162 1_454
O34 Sr15 2.885162 1_555
O35 Sr11 2.758216 1_554
O35 Sr14 2.758216 1_555
O35 Sr9 2.770531 1_454
O35 Sr4 2.770531 1_555
O36 Sr8 2.721352 1_555
O36 Sr13 2.747782 1_555
O36 Sr4 2.768195 1_555
O36 Sr11 2.782012 1_555
O37 Sr11 2.758216 1_555
O37 Sr12 2.758216 1_555
O37 Sr7 2.770531 1_555
O37 Sr13 2.770531 1_555
O38 Sr14 2.753937 1_555
O38 Sr12 2.753937 1_554
O38 Sr11 2.753937 1_554
O38 Sr6 2.753937 1_555
O39 Sr2 2.750045 1_555
O39 Sr13 2.750045 1_555
O39 Sr4 2.750045 1_555
O39 Sr15 2.750045 1_555
O40 Sr10 2.721351 1_555
O40 Sr13 2.747782 1_555
O40 Sr2 2.768206 1_555
O40 Sr11 2.782001 1_555
O41 Sr1 2.721351 1_565
O41 Sr4 2.747782 1_555
O41 Sr15 2.768206 1_555
O41 Sr14 2.782001 1_555
O42 Sr11 2.759465 1_554
O42 Sr14 2.759465 1_555
O42 Sr1 2.776035 1_565
O42 Sr10 2.776035 1_554
O43 Sr11 2.758216 1_554
O43 Sr14 2.758216 1_555
O43 Sr3 2.770531 1_565
O43 Sr13 2.770531 1_554
O44 Sr6 2.758216 1_555
O44 Sr12 2.758216 1_554
O44 Sr15 2.770531 1_655
O44 Sr7 2.770531 1_554
O45 Sr15 2.784074 1_655
O45 Sr3 2.784074 1_565
O45 Sr13 2.784074 1_554
O45 Sr7 2.784074 1_554
O46 Sr6 2.758216 1_555
O46 Sr14 2.758216 1_555
O46 Sr3 2.770531 1_565
O46 Sr15 2.770531 1_655
