# generated using pymatgen
data_Pm2O3
_symmetry_space_group_name_H-M   'P 1'
_cell_length_a   3.64708689
_cell_length_b   7.36915388
_cell_length_c   8.91547933
_cell_angle_alpha   99.51490649
_cell_angle_beta   90.00000000
_cell_angle_gamma   104.32702676
_symmetry_Int_Tables_number   1
_chemical_formula_structural   Pm2O3
_chemical_formula_sum   'Pm6 O9'
_cell_volume   228.75599190
_cell_formula_units_Z   3
loop_
 _symmetry_equiv_pos_site_id
 _symmetry_equiv_pos_as_xyz
  1  'x, y, z'
loop_
 _atom_site_type_symbol
 _atom_site_label
 _atom_site_symmetry_multiplicity
 _atom_site_fract_x
 _atom_site_fract_y
 _atom_site_fract_z
 _atom_site_occupancy
  Pm  Pm0  1  0.96596220  0.93192340  0.18852961  1
  Pm  Pm1  1  0.36512240  0.73024480  0.51167184  1
  Pm  Pm2  1  0.03403780  0.06807660  0.81147039  1
  Pm  Pm3  1  0.69015665  0.38031330  0.13774010  1
  Pm  Pm4  1  0.63487760  0.26975520  0.48832816  1
  Pm  Pm5  1  0.30984335  0.61968670  0.86225990  1
  O  O0  1  0.12914175  0.25828650  0.28550101  1
  O  O1  1  0.52637367  0.05274633  0.65572986  1
  O  O2  1  0.20262750  0.40525499  0.62671699  1
  O  O3  1  0.79737250  0.59474501  0.37328301  1
  O  O4  1  0.50000000  0.00000000  -0.00000000  1
  O  O5  1  0.87085825  0.74171350  0.71449899  1
  O  O6  1  0.82469265  0.64938630  0.02714596  1
  O  O7  1  0.17530735  0.35061370  0.97285404  1
  O  O8  1  0.47362633  0.94725367  0.34427014  1
loop_
_geom_bond_atom_site_label_1
_geom_bond_atom_site_label_2
_geom_bond_distance
_geom_bond_site_symmetry_2
O0 Pm0 2.343065 1_445
O0 Pm3 2.492283 1_455
O0 Pm3 2.492292 1_555
O0 Pm4 2.559575 1_455
O0 Pm4 2.559583 1_555
O1 Pm2 2.283277 1_655
O1 Pm2 2.283283 1_555
O1 Pm4 2.327504 1_555
O1 Pm1 2.437748 1_545
O2 Pm4 2.318677 1_555
O2 Pm4 2.318678 1_455
O2 Pm5 2.378425 1_555
O2 Pm1 2.692298 1_555
O3 Pm1 2.318677 1_555
O3 Pm1 2.318678 1_655
O3 Pm3 2.378425 1_555
O3 Pm4 2.692298 1_555
O4 Pm2 2.581770 1_654
O4 Pm0 2.581770 1_445
O4 Pm0 2.581772 1_545
O4 Pm2 2.581772 1_554
O4 Pm3 2.782755 1_555
O4 Pm5 2.782755 1_544
O5 Pm2 2.343065 1_665
O5 Pm5 2.492283 1_655
O5 Pm5 2.492292 1_555
O5 Pm1 2.559575 1_655
O5 Pm1 2.559583 1_555
O6 Pm0 2.269207 1_555
O6 Pm3 2.304227 1_555
O6 Pm5 2.329145 1_554
O6 Pm5 2.329148 1_654
O7 Pm2 2.269207 1_555
O7 Pm5 2.304227 1_555
O7 Pm3 2.329145 1_556
O7 Pm3 2.329148 1_456
O8 Pm0 2.283277 1_455
O8 Pm0 2.283283 1_555
O8 Pm1 2.327504 1_555
O8 Pm4 2.437748 1_565
