# generated using pymatgen
data_V6Zn3(FeO6)4
_symmetry_space_group_name_H-M   'P 1'
_cell_length_a   6.76784000
_cell_length_b   8.14257566
_cell_length_c   9.94658239
_cell_angle_alpha   105.47728112
_cell_angle_beta   104.98154387
_cell_angle_gamma   102.29178970
_symmetry_Int_Tables_number   1
_chemical_formula_structural   V6Zn3(FeO6)4
_chemical_formula_sum   'V6 Zn3 Fe4 O24'
_cell_volume   486.34757161
_cell_formula_units_Z   1
loop_
 _symmetry_equiv_pos_site_id
 _symmetry_equiv_pos_as_xyz
  1  'x, y, z'
loop_
 _atom_site_type_symbol
 _atom_site_label
 _atom_site_symmetry_multiplicity
 _atom_site_fract_x
 _atom_site_fract_y
 _atom_site_fract_z
 _atom_site_occupancy
  V  V0  1  0.89528900  0.90203100  0.66615100  1
  V  V1  1  0.10471100  0.09796900  0.33384900  1
  V  V2  1  0.22247400  0.65932300  0.27087400  1
  V  V3  1  0.77752700  0.34067700  0.72912600  1
  V  V4  1  0.59528900  0.27293100  0.12789200  1
  V  V5  1  0.40471100  0.72706900  0.87210800  1
  Zn  Zn0  1  0.00000000  0.50000000  0.50000000  1
  Zn  Zn1  1  0.71502700  0.70832300  0.20365900  1
  Zn  Zn2  1  0.28497300  0.29167700  0.79634100  1
  Fe  Fe0  1  0.38003100  0.95141600  0.60756000  1
  Fe  Fe1  1  0.61996900  0.04858400  0.39244000  1
  Fe  Fe2  1  0.04252500  0.20914900  0.01513800  1
  Fe  Fe3  1  0.95747500  0.79085100  0.98486200  1
  O  O0  1  0.07410900  0.05622700  0.14388000  1
  O  O1  1  0.92589100  0.94377300  0.85612000  1
  O  O2  1  0.55742400  0.13648500  0.23144900  1
  O  O3  1  0.44257600  0.86351500  0.76855100  1
  O  O4  1  0.18018000  0.44029100  0.18326000  1
  O  O5  1  0.81982000  0.55970900  0.81674000  1
  O  O6  1  0.98292100  0.27725300  0.83311200  1
  O  O7  1  0.01707900  0.72274700  0.16688800  1
  O  O8  1  0.23585000  0.78350500  0.96635100  1
  O  O9  1  0.76415000  0.21649500  0.03364900  1
  O  O10  1  0.86982100  0.97316000  0.34817400  1
  O  O11  1  0.13017900  0.02684000  0.65182600  1
  O  O12  1  0.52699400  0.22371500  0.72917800  1
  O  O13  1  0.47300600  0.77628500  0.27082200  1
  O  O14  1  0.34628100  0.25380000  0.99552200  1
  O  O15  1  0.65371900  0.74620000  0.00447800  1
  O  O16  1  0.33249400  0.04039400  0.42586400  1
  O  O17  1  0.66750600  0.95960600  0.57413600  1
  O  O18  1  0.21377300  0.69850800  0.45496400  1
  O  O19  1  0.78622700  0.30149200  0.54503600  1
  O  O20  1  0.72049500  0.48999500  0.25283800  1
  O  O21  1  0.27950500  0.51000500  0.74716200  1
  O  O22  1  0.12441200  0.31247800  0.41593700  1
  O  O23  1  0.87558800  0.68752200  0.58406300  1
loop_
_geom_bond_atom_site_label_1
_geom_bond_atom_site_label_2
_geom_bond_distance
_geom_bond_site_symmetry_2
Fe0 O3 1.909426 1_555
Fe0 O11 2.028092 1_565
Fe0 O17 2.047261 1_555
Fe0 O18 2.067088 1_555
Fe0 O12 2.091921 1_565
Fe0 O16 2.095722 1_565
Fe1 O2 1.909426 1_555
Fe1 O10 2.028092 1_545
Fe1 O16 2.047261 1_555
Fe1 O19 2.067088 1_555
Fe1 O13 2.091921 1_545
Fe1 O17 2.095722 1_545
Fe2 O9 1.951505 1_455
Fe2 O4 1.993689 1_555
Fe2 O6 2.000446 1_454
Fe2 O0 2.014638 1_555
Fe2 O14 2.079291 1_554
Fe2 O1 2.144342 1_444
Fe3 O8 1.951505 1_655
Fe3 O5 1.993689 1_555
Fe3 O7 2.000446 1_656
Fe3 O1 2.014638 1_555
Fe3 O15 2.079291 1_556
Fe3 O0 2.144342 1_666
O0 V1 1.775871 1_555
O1 V0 1.775871 1_555
O2 V4 1.728307 1_555
O3 V5 1.728307 1_555
O4 V2 1.687112 1_555
O5 V3 1.687114 1_555
O6 V3 1.765275 1_555
O6 Zn2 2.152612 1_655
O7 V2 1.765280 1_555
O7 Zn1 2.152612 1_455
O8 V5 1.715663 1_555
O9 V4 1.715663 1_555
O10 V1 1.756917 1_665
O10 Zn1 2.102182 1_555
O11 V0 1.756917 1_445
O11 Zn2 2.102182 1_555
O12 V3 1.759296 1_555
O12 Zn2 2.046898 1_555
O13 V2 1.759290 1_555
O13 Zn1 2.046898 1_555
O14 V4 1.797058 1_556
O14 Zn2 2.036642 1_555
O15 V5 1.797058 1_554
O15 Zn1 2.036642 1_555
O16 V1 1.800336 1_555
O17 V0 1.800336 1_555
O18 V2 1.791650 1_555
O18 Zn0 2.152276 1_555
O19 V3 1.791648 1_555
O19 Zn0 2.152276 1_655
O20 V4 1.741256 1_555
O20 Zn1 1.970743 1_555
O21 V5 1.741256 1_555
O21 Zn2 1.970743 1_555
O22 V1 1.678886 1_555
O22 Zn0 1.992376 1_555
O23 V0 1.678886 1_555
O23 Zn0 1.992376 1_655
