# generated using pymatgen
data_Ba(ZnAs)2
_symmetry_space_group_name_H-M   'P 1'
_cell_length_a   4.10757123
_cell_length_b   4.10757221
_cell_length_c   7.40442052
_cell_angle_alpha   106.10348625
_cell_angle_beta   106.10349483
_cell_angle_gamma   89.99998307
_symmetry_Int_Tables_number   1
_chemical_formula_structural   Ba(ZnAs)2
_chemical_formula_sum   'Ba1 Zn2 As2'
_cell_volume   114.91573281
_cell_formula_units_Z   1
loop_
 _symmetry_equiv_pos_site_id
 _symmetry_equiv_pos_as_xyz
  1  'x, y, z'
loop_
 _atom_site_type_symbol
 _atom_site_label
 _atom_site_symmetry_multiplicity
 _atom_site_fract_x
 _atom_site_fract_y
 _atom_site_fract_z
 _atom_site_occupancy
  Ba  Ba0  1  0.00000000  0.00000000  0.00000000  1
  Zn  Zn0  1  0.25000000  0.75000000  0.50000000  1
  Zn  Zn1  1  0.75000000  0.25000000  0.50000000  1
  As  As0  1  0.63861138  0.63861138  0.27722177  1
  As  As1  1  0.36138862  0.36138862  0.72277823  1
loop_
_geom_bond_atom_site_label_1
_geom_bond_atom_site_label_2
_geom_bond_distance
_geom_bond_site_symmetry_2
As0 Zn0 2.553495 1_655
As0 Zn1 2.553495 1_565
As0 Zn0 2.553499 1_555
As0 Zn1 2.553499 1_555
As0 Ba0 3.464271 1_665
As0 Ba0 3.464272 1_565
As0 Ba0 3.464272 1_655
As0 Ba0 3.464275 1_555
As1 Zn1 2.553495 1_455
As1 Zn0 2.553495 1_545
As1 Zn1 2.553499 1_555
As1 Zn0 2.553499 1_555
As1 Ba0 3.464271 1_556
As1 Ba0 3.464272 1_656
As1 Ba0 3.464272 1_566
As1 Ba0 3.464275 1_666
