# generated using pymatgen
data_Cd2Ru(CN)6
_symmetry_space_group_name_H-M   'P 1'
_cell_length_a   6.44946925
_cell_length_b   6.44946925
_cell_length_c   6.63529200
_cell_angle_alpha   90.00000000
_cell_angle_beta   90.00000000
_cell_angle_gamma   119.99999235
_symmetry_Int_Tables_number   1
_chemical_formula_structural   Cd2Ru(CN)6
_chemical_formula_sum   'Cd2 Ru1 C6 N6'
_cell_volume   239.02243057
_cell_formula_units_Z   1
loop_
 _symmetry_equiv_pos_site_id
 _symmetry_equiv_pos_as_xyz
  1  'x, y, z'
loop_
 _atom_site_type_symbol
 _atom_site_label
 _atom_site_symmetry_multiplicity
 _atom_site_fract_x
 _atom_site_fract_y
 _atom_site_fract_z
 _atom_site_occupancy
  Cd  Cd0  1  0.66666700  0.33333300  0.50000000  1
  Cd  Cd1  1  0.33333300  0.66666700  0.50000000  1
  Ru  Ru0  1  0.00000000  0.00000000  0.00000000  1
  C  C0  1  0.24740700  0.00000000  0.18398200  1
  C  C1  1  0.00000000  0.75259300  0.81601800  1
  C  C2  1  0.75259300  0.75259300  0.18398200  1
  C  C3  1  0.75259300  0.00000000  0.81601800  1
  C  C4  1  0.00000000  0.24740700  0.18398200  1
  C  C5  1  0.24740700  0.24740700  0.81601800  1
  N  N0  1  0.38385000  0.38385000  0.69645400  1
  N  N1  1  0.00000000  0.38385000  0.30354600  1
  N  N2  1  0.61615000  0.61615000  0.30354600  1
  N  N3  1  0.38385000  0.00000000  0.30354600  1
  N  N4  1  0.00000000  0.61615000  0.69645400  1
  N  N5  1  0.61615000  0.00000000  0.69645400  1
loop_
_geom_bond_atom_site_label_1
_geom_bond_atom_site_label_2
_geom_bond_distance
_geom_bond_site_symmetry_2
Cd0 N1 2.393040 1_655
Cd0 N5 2.393040 1_555
Cd0 N3 2.393043 1_555
Cd0 N4 2.393043 1_655
Cd0 N0 2.393046 1_555
Cd0 N2 2.393046 1_555
Cd1 N3 2.393040 1_565
Cd1 N4 2.393040 1_555
Cd1 N5 2.393043 1_565
Cd1 N1 2.393043 1_555
Cd1 N2 2.393046 1_555
Cd1 N0 2.393046 1_555
C0 N3 1.184806 1_555
C0 Ru0 2.009072 1_555
C1 N4 1.184806 1_555
C1 Ru0 2.009072 1_566
C2 N2 1.184806 1_555
C2 Ru0 2.009072 1_665
C3 N5 1.184806 1_555
C3 Ru0 2.009072 1_656
C4 N1 1.184806 1_555
C4 Ru0 2.009072 1_555
C5 N0 1.184806 1_555
C5 Ru0 2.009072 1_556
