# generated using pymatgen
data_Li4Mn3Cl10
_symmetry_space_group_name_H-M   'P 1'
_cell_length_a   7.45310600
_cell_length_b   7.45310600
_cell_length_c   30.73705434
_cell_angle_alpha   83.32098255
_cell_angle_beta   83.32098255
_cell_angle_gamma   60.57176165
_symmetry_Int_Tables_number   1
_chemical_formula_structural   Li4Mn3Cl10
_chemical_formula_sum   'Li16 Mn12 Cl40'
_cell_volume   1473.55185535
_cell_formula_units_Z   4
loop_
 _symmetry_equiv_pos_site_id
 _symmetry_equiv_pos_as_xyz
  1  'x, y, z'
loop_
 _atom_site_type_symbol
 _atom_site_label
 _atom_site_symmetry_multiplicity
 _atom_site_fract_x
 _atom_site_fract_y
 _atom_site_fract_z
 _atom_site_occupancy
  Li  Li0  1  0.69309200  0.69309200  0.90093800  1
  Li  Li1  1  0.96848000  0.96848000  0.57253300  1
  Li  Li2  1  0.09859400  0.09859400  0.70017900  1
  Li  Li3  1  0.23266800  0.23266800  0.82471100  1
  Li  Li4  1  0.36835300  0.36835300  0.37294800  1
  Li  Li5  1  0.30044500  0.30044500  0.60011700  1
  Li  Li6  1  0.50004800  0.50004800  0.50006200  1
  Li  Li7  1  0.76767100  0.76767100  0.17436400  1
  Li  Li8  1  0.63130200  0.63130200  0.62773700  1
  Li  Li9  1  0.70002300  0.70002300  0.40007800  1
  Li  Li10  1  0.89994300  0.89994300  0.30020100  1
  Li  Li11  1  0.03167300  0.03167300  0.42724500  1
  Li  Li12  1  0.09998900  0.09998900  0.20112700  1
  Li  Li13  1  0.29482700  0.29482700  0.10068500  1
  Li  Li14  1  0.43181200  0.43181200  0.22670400  1
  Li  Li15  1  0.83375300  0.83375300  0.02329400  1
  Mn  Mn0  1  0.69361800  0.21101000  0.90064300  1
  Mn  Mn1  1  0.09765300  0.60133500  0.69981100  1
  Mn  Mn2  1  0.21101000  0.69361800  0.90064300  1
  Mn  Mn3  1  0.90032400  0.90032400  0.79646200  1
  Mn  Mn4  1  0.49998200  0.00004300  0.50009400  1
  Mn  Mn5  1  0.60133500  0.09765300  0.69981100  1
  Mn  Mn6  1  0.90001200  0.39980900  0.30017300  1
  Mn  Mn7  1  0.00004300  0.49998200  0.50009400  1
  Mn  Mn8  1  0.29618100  0.80901300  0.10091800  1
  Mn  Mn9  1  0.39980900  0.90001200  0.30017300  1
  Mn  Mn10  1  0.80901300  0.29618100  0.10091800  1
  Mn  Mn11  1  0.50084900  0.50084900  0.99699100  1
  Cl  Cl0  1  0.35492000  0.35492000  0.94879600  1
  Cl  Cl1  1  0.54319000  0.54319000  0.85492200  1
  Cl  Cl2  1  0.82670300  0.35606300  0.94928400  1
  Cl  Cl3  1  0.35606300  0.82670300  0.94928400  1
  Cl  Cl4  1  0.75685900  0.75685900  0.74763600  1
  Cl  Cl5  1  0.03942200  0.57521400  0.85103000  1
  Cl  Cl6  1  0.94685500  0.94685500  0.65246400  1
  Cl  Cl7  1  0.85457700  0.85457700  0.94455800  1
  Cl  Cl8  1  0.22233300  0.75583800  0.74814200  1
  Cl  Cl9  1  0.57521400  0.03942200  0.85103000  1
  Cl  Cl10  1  0.75583800  0.22233300  0.74814200  1
  Cl  Cl11  1  0.04252700  0.04252700  0.85123700  1
  Cl  Cl12  1  0.44357700  0.97145100  0.65269800  1
  Cl  Cl13  1  0.15720200  0.15720200  0.54790600  1
  Cl  Cl14  1  0.97145100  0.44357700  0.65269800  1
  Cl  Cl15  1  0.25257900  0.25257900  0.74606500  1
  Cl  Cl16  1  0.62831900  0.15711300  0.54756800  1
  Cl  Cl17  1  0.34635700  0.34635700  0.45327600  1
  Cl  Cl18  1  0.15711300  0.62831900  0.54756800  1
  Cl  Cl19  1  0.44300200  0.44300200  0.65285500  1
  Cl  Cl20  1  0.55696000  0.55696000  0.34779600  1
  Cl  Cl21  1  0.84328000  0.37165300  0.45244400  1
  Cl  Cl22  1  0.37165300  0.84328000  0.45244400  1
  Cl  Cl23  1  0.65379300  0.65379300  0.54691400  1
  Cl  Cl24  1  0.74648500  0.74648500  0.25360400  1
  Cl  Cl25  1  0.02898400  0.55710500  0.34754500  1
  Cl  Cl26  1  0.55710500  0.02898400  0.34754500  1
  Cl  Cl27  1  0.84304900  0.84304900  0.45216900  1
  Cl  Cl28  1  0.95496200  0.95496200  0.14858300  1
  Cl  Cl29  1  0.24342100  0.77139100  0.25214500  1
  Cl  Cl30  1  0.43188900  0.95754200  0.14838100  1
  Cl  Cl31  1  0.77139100  0.24342100  0.25214500  1
  Cl  Cl32  1  0.14293600  0.14293600  0.05590700  1
  Cl  Cl33  1  0.05366400  0.05366400  0.34666800  1
  Cl  Cl34  1  0.95754200  0.43188900  0.14838100  1
  Cl  Cl35  1  0.24332200  0.24332200  0.25200500  1
  Cl  Cl36  1  0.63982800  0.17440700  0.05104900  1
  Cl  Cl37  1  0.17440700  0.63982800  0.05104900  1
  Cl  Cl38  1  0.45571300  0.45571300  0.14538600  1
  Cl  Cl39  1  0.64301200  0.64301200  0.05103000  1
loop_
_geom_bond_atom_site_label_1
_geom_bond_atom_site_label_2
_geom_bond_distance
_geom_bond_site_symmetry_2
Cl0 Mn11 2.544072 1_555
Cl0 Mn2 2.559875 1_555
Cl0 Mn0 2.559875 1_555
Cl1 Mn2 2.488163 1_555
Cl1 Mn0 2.488163 1_555
Cl1 Li0 2.541394 1_555
Cl2 Mn0 2.482454 1_555
Cl2 Mn11 2.485418 1_555
Cl2 Li0 2.554894 1_555
Cl3 Mn2 2.482454 1_555
Cl3 Mn11 2.485418 1_555
Cl3 Li0 2.554894 1_555
Cl4 Mn3 2.531598 1_555
Cl4 Mn5 2.567227 1_565
Cl4 Mn1 2.567227 1_655
Cl5 Li3 2.417201 1_555
Cl5 Mn2 2.572051 1_555
Cl5 Mn3 2.598056 1_455
Cl5 Li0 2.636634 1_455
Cl6 Li1 2.435024 1_555
Cl6 Mn5 2.584050 1_565
Cl6 Mn1 2.584050 1_655
Cl6 Li2 2.595656 1_665
Cl7 Li15 2.398760 1_556
Cl7 Mn0 2.594075 1_565
Cl7 Mn2 2.594075 1_655
Cl7 Li0 2.620866 1_555
Cl8 Mn3 2.475600 1_455
Cl8 Mn1 2.483333 1_555
Cl8 Li2 2.583599 1_565
Cl9 Li3 2.417201 1_555
Cl9 Mn0 2.572051 1_555
Cl9 Mn3 2.598056 1_545
Cl9 Li0 2.636634 1_545
Cl10 Mn3 2.475600 1_545
Cl10 Mn5 2.483333 1_555
Cl10 Li2 2.583599 1_655
Cl11 Li3 2.473313 1_555
Cl11 Mn0 2.638460 1_455
Cl11 Mn2 2.638460 1_545
Cl11 Mn3 2.648610 1_445
Cl12 Li8 2.385472 1_555
Cl12 Mn5 2.482723 1_565
Cl12 Li5 2.582886 1_565
Cl12 Li2 2.587179 1_565
Cl13 Li1 2.445125 1_445
Cl13 Mn4 2.577804 1_555
Cl13 Mn7 2.577804 1_555
Cl13 Li5 2.602323 1_555
Cl14 Li8 2.385472 1_555
Cl14 Mn1 2.482723 1_655
Cl14 Li5 2.582886 1_655
Cl14 Li2 2.587179 1_655
Cl15 Li3 2.396321 1_555
Cl15 Li2 2.582802 1_555
Cl15 Mn5 2.585321 1_555
Cl15 Mn1 2.585321 1_555
Cl16 Li1 2.385782 1_545
Cl16 Mn4 2.497402 1_555
Cl16 Li6 2.575720 1_555
Cl16 Li5 2.576746 1_555
Cl17 Li4 2.447047 1_555
Cl17 Mn4 2.580534 1_555
Cl17 Mn7 2.580534 1_555
Cl17 Li6 2.597687 1_555
Cl18 Li1 2.385782 1_455
Cl18 Mn7 2.497402 1_555
Cl18 Li6 2.575720 1_555
Cl18 Li5 2.576746 1_555
Cl19 Li8 2.442664 1_555
Cl19 Mn5 2.578374 1_555
Cl19 Mn1 2.578374 1_555
Cl19 Li5 2.606923 1_555
Cl20 Li4 2.446607 1_555
Cl20 Mn6 2.576282 1_555
Cl20 Mn9 2.576282 1_555
Cl20 Li9 2.602045 1_555
Cl21 Li11 2.387356 1_655
Cl21 Mn7 2.499405 1_655
Cl21 Li9 2.576051 1_555
Cl21 Li6 2.579024 1_555
Cl22 Li11 2.387356 1_565
Cl22 Mn4 2.499405 1_565
Cl22 Li9 2.576051 1_555
Cl22 Li6 2.579024 1_555
Cl23 Li8 2.462037 1_555
Cl23 Mn7 2.580247 1_655
Cl23 Mn4 2.580247 1_565
Cl23 Li6 2.599600 1_555
Cl24 Li7 2.414045 1_555
Cl24 Mn9 2.578699 1_555
Cl24 Mn6 2.578699 1_555
Cl24 Li10 2.591369 1_555
Cl25 Li4 2.386138 1_555
Cl25 Mn6 2.499712 1_455
Cl25 Li10 2.572438 1_455
Cl25 Li9 2.581859 1_455
Cl26 Li4 2.386138 1_555
Cl26 Mn9 2.499712 1_545
Cl26 Li10 2.572438 1_545
Cl26 Li9 2.581859 1_545
Cl27 Li11 2.445547 1_665
Cl27 Mn4 2.581027 1_565
Cl27 Mn7 2.581027 1_655
Cl27 Li9 2.597486 1_555
Cl28 Li7 2.434166 1_555
Cl28 Mn8 2.565714 1_655
Cl28 Mn10 2.565714 1_565
Cl28 Li12 2.627798 1_665
Cl29 Li14 2.387769 1_555
Cl29 Mn9 2.506838 1_555
Cl29 Li12 2.554156 1_565
Cl29 Li10 2.587019 1_455
Cl30 Li7 2.371794 1_555
Cl30 Mn8 2.489168 1_555
Cl30 Li13 2.545534 1_565
Cl30 Li12 2.600291 1_565
Cl31 Li14 2.387769 1_555
Cl31 Mn6 2.506838 1_555
Cl31 Li12 2.554156 1_655
Cl31 Li10 2.587019 1_545
Cl32 Mn8 2.487147 1_545
Cl32 Mn10 2.487147 1_455
Cl32 Li13 2.538042 1_555
Cl33 Li11 2.454652 1_555
Cl33 Mn9 2.574753 1_545
Cl33 Mn6 2.574753 1_455
Cl33 Li10 2.591588 1_445
Cl34 Li7 2.371794 1_555
Cl34 Mn10 2.489168 1_555
Cl34 Li13 2.545534 1_655
Cl34 Li12 2.600291 1_655
Cl35 Li14 2.446017 1_555
Cl35 Li12 2.574232 1_555
Cl35 Mn6 2.585978 1_455
Cl35 Mn9 2.585978 1_545
Cl36 Li15 2.423629 1_545
Cl36 Mn10 2.580910 1_555
Cl36 Mn11 2.595536 1_554
Cl36 Li13 2.623566 1_555
Cl37 Li15 2.423629 1_455
Cl37 Mn8 2.580910 1_555
Cl37 Mn11 2.595536 1_554
Cl37 Li13 2.623566 1_555
Cl38 Li14 2.476870 1_555
Cl38 Mn10 2.584532 1_555
Cl38 Mn8 2.584532 1_555
Cl38 Li13 2.634937 1_555
Cl39 Li15 2.488147 1_555
Cl39 Mn11 2.631768 1_554
Cl39 Mn8 2.634512 1_555
Cl39 Mn10 2.634512 1_555
