# generated using pymatgen
data_Hf3Cd3AgF20
_symmetry_space_group_name_H-M   'P 1'
_cell_length_a   10.68098582
_cell_length_b   10.68098582
_cell_length_c   8.47265800
_cell_angle_alpha   90.00000000
_cell_angle_beta   90.00000000
_cell_angle_gamma   119.99999885
_symmetry_Int_Tables_number   1
_chemical_formula_structural   Hf3Cd3AgF20
_chemical_formula_sum   'Hf6 Cd6 Ag2 F40'
_cell_volume   837.09161118
_cell_formula_units_Z   2
loop_
 _symmetry_equiv_pos_site_id
 _symmetry_equiv_pos_as_xyz
  1  'x, y, z'
loop_
 _atom_site_type_symbol
 _atom_site_label
 _atom_site_symmetry_multiplicity
 _atom_site_fract_x
 _atom_site_fract_y
 _atom_site_fract_z
 _atom_site_occupancy
  Hf  Hf0  1  0.86104200  0.58284500  0.75000000  1
  Hf  Hf1  1  0.41715500  0.27819600  0.75000000  1
  Hf  Hf2  1  0.58284500  0.72180400  0.25000000  1
  Hf  Hf3  1  0.72180400  0.13895800  0.75000000  1
  Hf  Hf4  1  0.13895800  0.41715500  0.25000000  1
  Hf  Hf5  1  0.27819600  0.86104200  0.25000000  1
  Cd  Cd0  1  0.43270000  0.27037600  0.25000000  1
  Cd  Cd1  1  0.72962400  0.16232400  0.25000000  1
  Cd  Cd2  1  0.27037600  0.83767600  0.75000000  1
  Cd  Cd3  1  0.83767600  0.56730000  0.25000000  1
  Cd  Cd4  1  0.16232400  0.43270000  0.75000000  1
  Cd  Cd5  1  0.56730000  0.72962400  0.75000000  1
  Ag  Ag0  1  0.00000000  0.00000000  0.25000000  1
  Ag  Ag1  1  0.00000000  0.00000000  0.75000000  1
  F  F0  1  0.05630300  0.58472700  0.75000000  1
  F  F1  1  0.79713400  0.76456600  0.25000000  1
  F  F2  1  0.94369700  0.41527300  0.25000000  1
  F  F3  1  0.36602200  0.55139100  0.25000000  1
  F  F4  1  0.81463100  0.36602200  0.75000000  1
  F  F5  1  0.58472700  0.52842400  0.25000000  1
  F  F6  1  0.14550700  0.42523900  0.48530100  1
  F  F7  1  0.23543400  0.03256700  0.25000000  1
  F  F8  1  0.05808300  0.77468400  0.25000000  1
  F  F9  1  0.71660100  0.94191700  0.25000000  1
  F  F10  1  0.20286600  0.23543400  0.75000000  1
  F  F11  1  0.55139100  0.18536900  0.75000000  1
  F  F12  1  0.94191700  0.22531600  0.75000000  1
  F  F13  1  0.14550700  0.42523900  0.01469900  1
  F  F14  1  0.96743300  0.20286600  0.25000000  1
  F  F15  1  0.42523900  0.27973100  0.98530100  1
  F  F16  1  0.77468400  0.71660100  0.75000000  1
  F  F17  1  0.85449300  0.57476100  0.98530100  1
  F  F18  1  0.85449300  0.57476100  0.51469900  1
  F  F19  1  0.57476100  0.72026900  0.48530100  1
  F  F20  1  0.76456600  0.96743300  0.75000000  1
  F  F21  1  0.27973100  0.85449300  0.01469900  1
  F  F22  1  0.41527300  0.47157600  0.75000000  1
  F  F23  1  0.22531600  0.28339900  0.25000000  1
  F  F24  1  0.47157600  0.05630300  0.25000000  1
  F  F25  1  0.52842400  0.94369700  0.75000000  1
  F  F26  1  0.72026900  0.14550700  0.51469900  1
  F  F27  1  0.27973100  0.85449300  0.48530100  1
  F  F28  1  0.42523900  0.27973100  0.51469900  1
  F  F29  1  0.44860900  0.81463100  0.25000000  1
  F  F30  1  0.28339900  0.05808300  0.75000000  1
  F  F31  1  0.00000000  0.00000000  0.50000000  1
  F  F32  1  0.57476100  0.72026900  0.01469900  1
  F  F33  1  0.03256700  0.79713400  0.75000000  1
  F  F34  1  0.18536900  0.63397800  0.25000000  1
  F  F35  1  0.63397800  0.44860900  0.75000000  1
  F  F36  1  0.66666700  0.33333300  0.25000000  1
  F  F37  1  0.00000000  0.00000000  0.00000000  1
  F  F38  1  0.33333300  0.66666700  0.75000000  1
  F  F39  1  0.72026900  0.14550700  0.98530100  1
loop_
_geom_bond_atom_site_label_1
_geom_bond_atom_site_label_2
_geom_bond_distance
_geom_bond_site_symmetry_2
Cd0 F36 2.239808 1_555
Cd0 F28 2.248115 1_555
Cd0 F15 2.248115 1_554
Cd0 F23 2.287788 1_555
Cd0 F7 2.353585 1_555
Cd0 F5 2.399557 1_555
Cd0 F24 2.519918 1_555
Cd1 F36 2.239797 1_555
Cd1 F26 2.248115 1_555
Cd1 F39 2.248115 1_554
Cd1 F9 2.287788 1_545
Cd1 F14 2.353589 1_555
Cd1 F24 2.399557 1_555
Cd1 F2 2.519918 1_555
Cd2 F38 2.239797 1_555
Cd2 F21 2.248115 1_556
Cd2 F27 2.248115 1_555
Cd2 F30 2.287788 1_565
Cd2 F33 2.353589 1_555
Cd2 F25 2.399557 1_555
Cd2 F0 2.519918 1_555
Cd3 F36 2.239805 1_555
Cd3 F18 2.248115 1_555
Cd3 F17 2.248115 1_554
Cd3 F8 2.287789 1_655
Cd3 F1 2.353579 1_555
Cd3 F2 2.399557 1_555
Cd3 F5 2.519918 1_555
Cd4 F38 2.239805 1_555
Cd4 F13 2.248115 1_556
Cd4 F6 2.248115 1_555
Cd4 F12 2.287789 1_455
Cd4 F10 2.353579 1_555
Cd4 F0 2.399557 1_555
Cd4 F22 2.519918 1_555
Cd5 F38 2.239808 1_555
Cd5 F32 2.248115 1_556
Cd5 F19 2.248115 1_555
Cd5 F16 2.287788 1_555
Cd5 F20 2.353585 1_555
Cd5 F22 2.399557 1_555
Cd5 F25 2.519918 1_555
Ag0 F37 2.118164 1_555
Ag0 F31 2.118164 1_555
Ag0 F14 2.360038 1_455
Ag0 F1 2.360044 1_445
Ag0 F7 2.360048 1_555
Ag1 F31 2.118164 1_555
Ag1 F37 2.118164 1_556
Ag1 F33 2.360038 1_545
Ag1 F10 2.360044 1_555
Ag1 F20 2.360048 1_445
F0 Hf0 2.075602 1_455
F1 Hf2 2.098071 1_555
F2 Hf4 2.075602 1_655
F3 Hf4 2.111953 1_555
F3 Hf2 2.112119 1_555
F4 Hf3 2.111954 1_555
F4 Hf0 2.112115 1_555
F5 Hf2 2.075613 1_555
F6 Hf4 1.995206 1_555
F7 Hf5 2.098050 1_545
F8 Hf5 2.051720 1_555
F9 Hf2 2.051722 1_555
F10 Hf1 2.098071 1_555
F11 Hf1 2.111944 1_555
F11 Hf3 2.112126 1_555
F12 Hf3 2.051720 1_555
F13 Hf4 1.995206 1_555
F14 Hf4 2.098064 1_655
F15 Hf1 1.995206 1_555
F16 Hf0 2.051730 1_555
F17 Hf0 1.995206 1_555
F18 Hf0 1.995206 1_555
F19 Hf2 1.995206 1_555
F20 Hf3 2.098050 1_565
F21 Hf5 1.995206 1_555
F22 Hf1 2.075613 1_555
F23 Hf4 2.051730 1_555
F24 Hf5 2.075607 1_545
F25 Hf3 2.075607 1_565
F26 Hf3 1.995206 1_555
F27 Hf5 1.995206 1_555
F28 Hf1 1.995206 1_555
F29 Hf2 2.111944 1_555
F29 Hf5 2.112126 1_555
F30 Hf1 2.051722 1_555
F32 Hf2 1.995206 1_555
F33 Hf0 2.098064 1_455
F34 Hf5 2.111954 1_555
F34 Hf4 2.112115 1_555
F35 Hf0 2.111953 1_555
F35 Hf1 2.112119 1_555
F39 Hf3 1.995206 1_555
