# generated using pymatgen
data_Na2TiFe5(Si3O10)2
_symmetry_space_group_name_H-M   'P 1'
_cell_length_a   9.06161100
_cell_length_b   9.84138503
_cell_length_c   10.55470166
_cell_angle_alpha   115.11618673
_cell_angle_beta   83.24148425
_cell_angle_gamma   114.19552948
_symmetry_Int_Tables_number   1
_chemical_formula_structural   Na2TiFe5(Si3O10)2
_chemical_formula_sum   'Na4 Ti2 Fe10 Si12 O40'
_cell_volume   775.58283499
_cell_formula_units_Z   2
loop_
 _symmetry_equiv_pos_site_id
 _symmetry_equiv_pos_as_xyz
  1  'x, y, z'
loop_
 _atom_site_type_symbol
 _atom_site_label
 _atom_site_symmetry_multiplicity
 _atom_site_fract_x
 _atom_site_fract_y
 _atom_site_fract_z
 _atom_site_occupancy
  Na  Na0  1  0.62921600  0.38581900  0.04954900  1
  Na  Na1  1  0.37078400  0.61418100  0.95045100  1
  Na  Na2  1  0.38632700  0.63138000  0.42216100  1
  Na  Na3  1  0.61367300  0.36862000  0.57783900  1
  Ti  Ti0  1  0.25771000  0.74345200  0.74637400  1
  Ti  Ti1  1  0.74229000  0.25654800  0.25362600  1
  Fe  Fe0  1  0.82099300  0.14741600  0.46876400  1
  Fe  Fe1  1  0.84760000  0.18051400  0.94650500  1
  Fe  Fe2  1  0.94877600  0.06102400  0.15750700  1
  Fe  Fe3  1  0.17900700  0.85258400  0.53123600  1
  Fe  Fe4  1  0.06637400  0.94264100  0.34712600  1
  Fe  Fe5  1  0.50000000  0.00000000  0.00000000  1
  Fe  Fe6  1  0.15240000  0.81948600  0.05349500  1
  Fe  Fe7  1  0.93362600  0.05735900  0.65287400  1
  Fe  Fe8  1  0.05122400  0.93897600  0.84249300  1
  Fe  Fe9  1  0.00000000  0.50000000  0.50000000  1
  Si  Si0  1  0.22416600  0.33623100  0.05827700  1
  Si  Si1  1  0.05059900  0.55889100  0.20688200  1
  Si  Si2  1  0.55431600  0.05533600  0.70447300  1
  Si  Si3  1  0.94940100  0.44110900  0.79311800  1
  Si  Si4  1  0.65449700  0.76431000  0.75035700  1
  Si  Si5  1  0.75882900  0.65896600  0.44955700  1
  Si  Si6  1  0.67070900  0.76731100  0.24477100  1
  Si  Si7  1  0.44568400  0.94466400  0.29552700  1
  Si  Si8  1  0.24117100  0.34103400  0.55044300  1
  Si  Si9  1  0.77583400  0.66376900  0.94172300  1
  Si  Si10  1  0.34550300  0.23569000  0.24964300  1
  Si  Si11  1  0.32929100  0.23268900  0.75522900  1
  O  O0  1  0.87496700  0.39748900  0.14911400  1
  O  O1  1  0.63071300  0.67502400  0.57696900  1
  O  O2  1  0.17955000  0.06824300  0.20702000  1
  O  O3  1  0.70175400  0.04579200  0.60128000  1
  O  O4  1  0.73680600  0.07816300  0.09148700  1
  O  O5  1  0.82045000  0.93175700  0.79298000  1
  O  O6  1  0.26319400  0.92183700  0.90851300  1
  O  O7  1  0.50808400  0.80468800  0.29620600  1
  O  O8  1  0.39549200  0.87688000  0.64028700  1
  O  O9  1  0.11714000  0.60801700  0.36496100  1
  O  O10  1  0.07932200  0.73810700  0.66979800  1
  O  O11  1  0.93655300  0.83309000  0.99077300  1
  O  O12  1  0.06344700  0.16691000  0.00922700  1
  O  O13  1  0.35023100  0.33787300  0.92945700  1
  O  O14  1  0.67926600  0.63657300  0.80442500  1
  O  O15  1  0.18658000  0.49854800  0.09885200  1
  O  O16  1  0.83590500  0.93152500  0.29017000  1
  O  O17  1  0.07445000  0.17332100  0.50773700  1
  O  O18  1  0.12503300  0.60251100  0.85088600  1
  O  O19  1  0.60878700  0.12036000  0.87019500  1
  O  O20  1  0.36928700  0.32497600  0.42303100  1
  O  O21  1  0.60450800  0.12312000  0.35971300  1
  O  O22  1  0.29824600  0.95420800  0.39872000  1
  O  O23  1  0.81342000  0.50145200  0.90114800  1
  O  O24  1  0.51540600  0.22567600  0.18523100  1
  O  O25  1  0.64976900  0.66212700  0.07054300  1
  O  O26  1  0.92067800  0.26189300  0.33020200  1
  O  O27  1  0.22576300  0.51230900  0.58311500  1
  O  O28  1  0.77423700  0.48769100  0.41688500  1
  O  O29  1  0.16409500  0.06847500  0.70983000  1
  O  O30  1  0.92555000  0.82667900  0.49226300  1
  O  O31  1  0.49191600  0.19531200  0.70379400  1
  O  O32  1  0.66335500  0.64041600  0.31249400  1
  O  O33  1  0.88286000  0.39198300  0.63503900  1
  O  O34  1  0.39121300  0.87964000  0.12980500  1
  O  O35  1  0.95821300  0.28775000  0.81133900  1
  O  O36  1  0.04178700  0.71225000  0.18866100  1
  O  O37  1  0.32073400  0.36342700  0.19557500  1
  O  O38  1  0.48459400  0.77432400  0.81476900  1
  O  O39  1  0.33664500  0.35958400  0.68750600  1
loop_
_geom_bond_atom_site_label_1
_geom_bond_atom_site_label_2
_geom_bond_distance
_geom_bond_site_symmetry_2
Na0 O24 2.415444 1_555
Na0 O23 2.423906 1_554
Na0 O19 2.435295 1_554
Na0 O0 2.513032 1_555
Na0 O25 2.561484 1_555
Na0 O13 2.736610 1_554
Na0 O32 2.782009 1_555
Na1 O38 2.415444 1_555
Na1 O15 2.423906 1_556
Na1 O34 2.435295 1_556
Na1 O18 2.513032 1_555
Na1 O13 2.561484 1_555
Na1 O25 2.736610 1_556
Na1 O39 2.782009 1_555
Na2 O7 2.435322 1_555
Na2 O27 2.467124 1_555
Na2 O9 2.477183 1_555
Na2 O8 2.510613 1_555
Na2 O37 2.592829 1_555
Na2 O32 2.621051 1_555
Na2 O1 2.689729 1_555
Na3 O31 2.435322 1_555
Na3 O28 2.467124 1_555
Na3 O33 2.477183 1_555
Na3 O21 2.510613 1_555
Na3 O14 2.592829 1_555
Na3 O39 2.621051 1_555
Na3 O20 2.689729 1_555
Fe0 O3 2.017417 1_555
Fe0 O26 2.116044 1_555
Fe0 O33 2.174170 1_555
Fe0 O16 2.204814 1_545
Fe0 O21 2.267947 1_555
Fe0 O17 2.272124 1_655
Fe1 O35 2.056255 1_555
Fe1 O4 2.117107 1_556
Fe1 O19 2.153498 1_555
Fe1 O12 2.208273 1_656
Fe1 O5 2.216318 1_545
Fe1 O0 2.237981 1_556
Fe2 O26 2.130630 1_555
Fe2 O11 2.152252 1_544
Fe2 O12 2.174659 1_655
Fe2 O16 2.177214 1_545
Fe2 O2 2.180625 1_655
Fe2 O4 2.209936 1_555
Fe3 O22 2.017417 1_555
Fe3 O10 2.116044 1_555
Fe3 O9 2.174170 1_555
Fe3 O29 2.204814 1_565
Fe3 O8 2.267947 1_555
Fe3 O30 2.272124 1_455
Fe4 O36 2.107683 1_555
Fe4 O17 2.158456 1_565
Fe4 O22 2.178277 1_555
Fe4 O16 2.187978 1_455
Fe4 O2 2.218589 1_565
Fe4 O30 2.260021 1_455
Fe5 O19 2.086743 1_554
Fe5 O34 2.086743 1_545
Fe5 O4 2.152413 1_555
Fe5 O6 2.152413 1_544
Fe5 O24 2.213243 1_555
Fe5 O38 2.213243 1_544
Fe6 O36 2.056255 1_555
Fe6 O6 2.117107 1_554
Fe6 O34 2.153498 1_555
Fe6 O11 2.208273 1_454
Fe6 O2 2.216318 1_565
Fe6 O18 2.237981 1_554
Fe7 O35 2.107683 1_555
Fe7 O30 2.158456 1_545
Fe7 O3 2.178277 1_555
Fe7 O29 2.187978 1_655
Fe7 O5 2.218589 1_545
Fe7 O17 2.260021 1_655
Fe8 O10 2.130630 1_555
Fe8 O12 2.152252 1_566
Fe8 O11 2.174659 1_455
Fe8 O29 2.177214 1_565
Fe8 O5 2.180625 1_455
Fe8 O6 2.209936 1_555
Fe9 O33 2.072059 1_455
Fe9 O9 2.072059 1_555
Fe9 O10 2.139405 1_555
Fe9 O26 2.139405 1_455
Fe9 O27 2.257988 1_555
Fe9 O28 2.257988 1_455
O0 Si1 1.661858 1_655
O0 Ti1 2.050844 1_555
O1 Si4 1.655345 1_555
O1 Si5 1.668453 1_555
O2 Si10 1.636451 1_555
O3 Si2 1.628987 1_555
O4 Ti1 1.846940 1_555
O5 Si4 1.636451 1_555
O6 Ti0 1.846940 1_555
O7 Si6 1.639563 1_555
O7 Si7 1.692712 1_555
O8 Si2 1.662003 1_565
O8 Ti0 2.027834 1_555
O9 Si1 1.641397 1_555
O10 Ti0 1.862995 1_555
O11 Si9 1.619140 1_555
O12 Si0 1.619140 1_555
O13 Si0 1.670879 1_556
O13 Si11 1.671632 1_555
O14 Si9 1.647606 1_555
O14 Si4 1.681309 1_555
O15 Si0 1.637701 1_555
O15 Si1 1.692755 1_555
O16 Si6 1.615740 1_555
O17 Si8 1.641510 1_555
O18 Si3 1.661858 1_455
O18 Ti0 2.050844 1_555
O19 Si2 1.645219 1_555
O20 Si10 1.655345 1_555
O20 Si8 1.668453 1_555
O21 Si7 1.662003 1_545
O21 Ti1 2.027834 1_555
O22 Si7 1.628987 1_555
O23 Si9 1.637701 1_555
O23 Si3 1.692755 1_555
O24 Si10 1.631991 1_555
O24 Ti1 2.119296 1_555
O25 Si9 1.670879 1_554
O25 Si6 1.671632 1_555
O26 Ti1 1.862995 1_555
O27 Si8 1.633322 1_555
O27 Ti0 2.116058 1_555
O28 Si5 1.633322 1_555
O28 Ti1 2.116058 1_555
O29 Si11 1.615740 1_555
O30 Si5 1.641510 1_555
O31 Si11 1.639563 1_555
O31 Si2 1.692712 1_555
O32 Si6 1.659303 1_555
O32 Si5 1.677961 1_555
O33 Si3 1.641397 1_555
O34 Si7 1.645219 1_555
O35 Si3 1.634028 1_555
O36 Si1 1.634028 1_555
O37 Si0 1.647606 1_555
O37 Si10 1.681309 1_555
O38 Si4 1.631991 1_555
O38 Ti0 2.119296 1_555
O39 Si11 1.659303 1_555
O39 Si8 1.677961 1_555
