# generated using pymatgen
data_Nd2Zn15Ge2
_symmetry_space_group_name_H-M   'P 1'
_cell_length_a   6.89838081
_cell_length_b   6.89838081
_cell_length_c   6.89838143
_cell_angle_alpha   84.88699491
_cell_angle_beta   84.88699491
_cell_angle_gamma   84.88700270
_symmetry_Int_Tables_number   1
_chemical_formula_structural   Nd2Zn15Ge2
_chemical_formula_sum   'Nd2 Zn15 Ge2'
_cell_volume   324.57834853
_cell_formula_units_Z   1
loop_
 _symmetry_equiv_pos_site_id
 _symmetry_equiv_pos_as_xyz
  1  'x, y, z'
loop_
 _atom_site_type_symbol
 _atom_site_label
 _atom_site_symmetry_multiplicity
 _atom_site_fract_x
 _atom_site_fract_y
 _atom_site_fract_z
 _atom_site_occupancy
  Nd  Nd0  1  0.33357300  0.33357300  0.33357300  1
  Nd  Nd1  1  0.66642700  0.66642700  0.66642700  1
  Zn  Zn0  1  0.00000000  0.00000000  0.50000000  1
  Zn  Zn1  1  0.00000000  0.50000000  0.00000000  1
  Zn  Zn2  1  0.50000000  0.00000000  0.00000000  1
  Zn  Zn3  1  0.69117100  0.30882900  0.00000000  1
  Zn  Zn4  1  0.30882900  0.00000000  0.69117100  1
  Zn  Zn5  1  0.00000000  0.69117100  0.30882900  1
  Zn  Zn6  1  0.30882900  0.69117100  0.00000000  1
  Zn  Zn7  1  0.69117100  0.00000000  0.30882900  1
  Zn  Zn8  1  0.00000000  0.30882900  0.69117100  1
  Zn  Zn9  1  0.17053800  0.64841100  0.64841100  1
  Zn  Zn10  1  0.64841100  0.64841100  0.17053800  1
  Zn  Zn11  1  0.64841100  0.17053800  0.64841100  1
  Zn  Zn12  1  0.35158900  0.82946200  0.35158900  1
  Zn  Zn13  1  0.82946200  0.35158900  0.35158900  1
  Zn  Zn14  1  0.35158900  0.35158900  0.82946200  1
  Ge  Ge0  1  0.09913600  0.09913600  0.09913600  1
  Ge  Ge1  1  0.90086400  0.90086400  0.90086400  1
loop_
_geom_bond_atom_site_label_1
_geom_bond_atom_site_label_2
_geom_bond_distance
_geom_bond_site_symmetry_2
Nd0 Zn8 3.223782 1_555
Nd0 Zn4 3.223782 1_555
Nd0 Zn3 3.223782 1_555
Nd0 Zn6 3.223782 1_555
Nd0 Zn7 3.223782 1_555
Nd0 Zn5 3.223782 1_555
Nd0 Zn10 3.266338 1_555
Nd0 Zn9 3.266338 1_555
Nd0 Zn11 3.266338 1_555
Nd0 Zn13 3.447794 1_555
Nd0 Zn12 3.447794 1_555
Nd0 Zn14 3.447795 1_555
Nd0 Zn0 3.451139 1_555
Nd0 Zn2 3.451140 1_555
Nd0 Zn1 3.451140 1_555
Nd0 Zn12 3.460192 1_545
Nd0 Zn13 3.460192 1_455
Nd0 Zn14 3.460192 1_554
Nd1 Zn7 3.223782 1_565
Nd1 Zn5 3.223782 1_655
Nd1 Zn3 3.223782 1_556
Nd1 Zn6 3.223782 1_556
Nd1 Zn4 3.223782 1_565
Nd1 Zn8 3.223782 1_655
Nd1 Zn14 3.266338 1_555
Nd1 Zn13 3.266338 1_555
Nd1 Zn12 3.266338 1_555
Nd1 Zn11 3.447794 1_555
Nd1 Zn9 3.447794 1_555
Nd1 Zn10 3.447795 1_555
Nd1 Zn0 3.451139 1_665
Nd1 Zn2 3.451140 1_566
Nd1 Zn1 3.451140 1_656
Nd1 Zn11 3.460192 1_565
Nd1 Zn9 3.460192 1_655
Nd1 Zn10 3.460192 1_556
Zn0 Zn4 2.603578 1_555
Zn0 Zn8 2.603578 1_555
Zn0 Zn5 2.603578 1_545
Zn0 Zn7 2.603578 1_455
Zn0 Zn11 2.752855 1_455
Zn0 Zn9 2.752855 1_545
Zn0 Zn12 2.752855 1_545
Zn0 Zn13 2.752855 1_455
Zn1 Zn6 2.603578 1_555
Zn1 Zn3 2.603578 1_455
Zn1 Zn5 2.603578 1_555
Zn1 Zn8 2.603578 1_554
Zn1 Zn9 2.752855 1_554
Zn1 Zn13 2.752855 1_455
Zn1 Zn10 2.752855 1_455
Zn1 Zn14 2.752855 1_554
Zn2 Zn3 2.603578 1_555
Zn2 Zn6 2.603578 1_545
Zn2 Zn7 2.603578 1_555
Zn2 Zn4 2.603578 1_554
Zn3 Zn7 2.875483 1_555
Zn3 Zn8 2.875483 1_654
Zn4 Zn9 2.733079 1_545
Zn4 Zn6 2.875483 1_546
Zn4 Zn8 2.875483 1_555
Zn5 Zn9 2.695333 1_555
Zn5 Zn6 2.875483 1_555
Zn5 Zn7 2.875483 1_465
Zn6 Zn9 2.733080 1_554
Zn8 Zn9 2.695333 1_555
Zn10 Zn13 2.584340 1_555
Zn10 Zn12 2.584340 1_555
Zn10 Zn3 2.695333 1_555
Zn10 Zn6 2.695333 1_555
Zn10 Zn5 2.733079 1_655
Zn10 Zn7 2.733079 1_565
Zn10 Zn2 2.752855 1_565
Zn11 Zn13 2.584340 1_555
Zn11 Zn14 2.584340 1_555
Zn11 Zn4 2.695333 1_555
Zn11 Zn7 2.695333 1_555
Zn11 Zn8 2.733079 1_655
Zn11 Zn3 2.733080 1_556
Zn11 Zn2 2.752855 1_556
Zn12 Zn9 2.584340 1_555
Zn12 Zn7 2.695333 1_565
Zn12 Zn4 2.695333 1_565
Zn12 Zn5 2.733079 1_555
Zn12 Zn6 2.733080 1_555
Zn12 Zn2 2.752855 1_565
Zn13 Zn5 2.695333 1_655
Zn13 Zn8 2.695333 1_655
Zn13 Zn7 2.733079 1_555
Zn13 Zn3 2.733080 1_555
Zn14 Zn9 2.584340 1_555
Zn14 Zn3 2.695333 1_556
Zn14 Zn6 2.695333 1_556
Zn14 Zn8 2.733079 1_555
Zn14 Zn4 2.733079 1_555
Zn14 Zn2 2.752855 1_556
Ge0 Ge1 2.571498 1_444
Ge0 Zn1 2.826931 1_555
Ge0 Zn2 2.826931 1_555
Ge0 Zn0 2.826931 1_555
Ge0 Zn14 2.985330 1_554
Ge0 Zn13 2.985330 1_455
Ge0 Zn12 2.985330 1_545
Ge0 Nd0 3.040542 1_555
Ge0 Zn5 3.149849 1_545
Ge0 Zn7 3.149849 1_455
Ge0 Zn3 3.149849 1_455
Ge0 Zn6 3.149849 1_545
Ge0 Zn4 3.149850 1_554
Ge0 Zn8 3.149850 1_554
Ge1 Zn2 2.826931 1_566
Ge1 Zn1 2.826931 1_656
Ge1 Zn0 2.826931 1_665
Ge1 Zn10 2.985330 1_556
Ge1 Zn9 2.985330 1_655
Ge1 Zn11 2.985330 1_565
Ge1 Nd1 3.040542 1_555
Ge1 Zn8 3.149849 1_665
Ge1 Zn4 3.149849 1_665
Ge1 Zn6 3.149849 1_656
Ge1 Zn3 3.149849 1_566
Ge1 Zn7 3.149850 1_566
Ge1 Zn5 3.149850 1_656
