# generated using pymatgen
data_Sr2Cu3(IO2)2
_symmetry_space_group_name_H-M   'P 1'
_cell_length_a   9.62104884
_cell_length_b   9.62104884
_cell_length_c   9.62104884
_cell_angle_alpha   145.63744717
_cell_angle_beta   145.63744717
_cell_angle_gamma   49.38559095
_symmetry_Int_Tables_number   1
_chemical_formula_structural   Sr2Cu3(IO2)2
_chemical_formula_sum   'Sr2 Cu3 I2 O4'
_cell_volume   282.41646518
_cell_formula_units_Z   1
loop_
 _symmetry_equiv_pos_site_id
 _symmetry_equiv_pos_as_xyz
  1  'x, y, z'
loop_
 _atom_site_type_symbol
 _atom_site_label
 _atom_site_symmetry_multiplicity
 _atom_site_fract_x
 _atom_site_fract_y
 _atom_site_fract_z
 _atom_site_occupancy
  Sr  Sr0  1  0.85060100  0.85060100  0.00000000  1
  Sr  Sr1  1  0.14939900  0.14939900  0.00000000  1
  Cu  Cu0  1  0.50000000  0.00000000  0.50000000  1
  Cu  Cu1  1  0.00000000  0.50000000  0.50000000  1
  Cu  Cu2  1  0.00000000  0.00000000  0.00000000  1
  I  I0  1  0.75000000  0.25000000  0.50000000  1
  I  I1  1  0.25000000  0.75000000  0.50000000  1
  O  O0  1  0.22865300  0.77134700  0.00000000  1
  O  O1  1  0.22865300  0.22865300  0.45730600  1
  O  O2  1  0.77134700  0.77134700  0.54269400  1
  O  O3  1  0.77134700  0.22865300  0.00000000  1
loop_
_geom_bond_atom_site_label_1
_geom_bond_atom_site_label_2
_geom_bond_distance
_geom_bond_site_symmetry_2
Cu0 O3 2.016923 1_556
Cu0 O2 2.016923 1_545
Cu0 O1 2.016923 1_555
Cu0 O0 2.016923 1_545
Cu1 O2 2.016923 1_455
Cu1 O1 2.016923 1_555
Cu1 O0 2.016923 1_556
Cu1 O3 2.016923 1_455
Cu2 O2 1.838014 1_444
Cu2 O1 1.838014 1_555
Cu2 O0 1.838014 1_545
Cu2 O3 1.838014 1_455
Cu2 Sr1 2.611885 1_555
Cu2 Sr0 2.611885 1_445
I0 Sr0 3.342205 1_545
I0 Sr0 3.342205 1_556
I0 Sr1 3.342205 1_555
I0 Sr1 3.342205 1_656
I1 Sr0 3.342205 1_455
I1 Sr0 3.342205 1_556
I1 Sr1 3.342205 1_555
I1 Sr1 3.342205 1_566
O0 Sr1 3.193781 1_565
O0 Sr0 3.193781 1_455
O1 Sr1 3.193781 1_555
O1 Sr0 3.193781 1_445
O2 Sr1 3.193781 1_666
O2 Sr0 3.193781 1_556
O3 Sr1 3.193781 1_655
O3 Sr0 3.193781 1_545
