# generated using pymatgen
data_La3CuGeS7
_symmetry_space_group_name_H-M   'P 1'
_cell_length_a   10.36134836
_cell_length_b   10.36134836
_cell_length_c   5.92323900
_cell_angle_alpha   90.00000000
_cell_angle_beta   90.00000000
_cell_angle_gamma   120.00000229
_symmetry_Int_Tables_number   1
_chemical_formula_structural   La3CuGeS7
_chemical_formula_sum   'La6 Cu2 Ge2 S14'
_cell_volume   550.70932329
_cell_formula_units_Z   2
loop_
 _symmetry_equiv_pos_site_id
 _symmetry_equiv_pos_as_xyz
  1  'x, y, z'
loop_
 _atom_site_type_symbol
 _atom_site_label
 _atom_site_symmetry_multiplicity
 _atom_site_fract_x
 _atom_site_fract_y
 _atom_site_fract_z
 _atom_site_occupancy
  La  La0  1  0.35623200  0.22948700  0.31859000  1
  La  La1  1  0.22948700  0.87325400  0.81859000  1
  La  La2  1  0.87325400  0.64376800  0.31859000  1
  La  La3  1  0.77051300  0.12674600  0.31859000  1
  La  La4  1  0.12674600  0.35623200  0.81859000  1
  La  La5  1  0.64376800  0.77051300  0.81859000  1
  Cu  Cu0  1  0.00000000  0.00000000  0.28996200  1
  Cu  Cu1  1  0.00000000  0.00000000  0.78996200  1
  Ge  Ge0  1  0.33333300  0.66666700  0.40059100  1
  Ge  Ge1  1  0.66666700  0.33333300  0.90059100  1
  S  S0  1  0.52177500  0.10630000  0.05093100  1
  S  S1  1  0.75112200  0.83960900  0.30281800  1
  S  S2  1  0.47822500  0.89370000  0.55093100  1
  S  S3  1  0.33333300  0.66666700  0.02813200  1
  S  S4  1  0.10630000  0.58452500  0.55093100  1
  S  S5  1  0.89370000  0.41547500  0.05093100  1
  S  S6  1  0.24887800  0.16039100  0.80281800  1
  S  S7  1  0.41547500  0.52177500  0.55093100  1
  S  S8  1  0.58452500  0.47822500  0.05093100  1
  S  S9  1  0.08848700  0.24887800  0.30281800  1
  S  S10  1  0.66666700  0.33333300  0.52813200  1
  S  S11  1  0.91151300  0.75112200  0.80281800  1
  S  S12  1  0.83960900  0.08848700  0.80281800  1
  S  S13  1  0.16039100  0.91151300  0.30281800  1
loop_
_geom_bond_atom_site_label_1
_geom_bond_atom_site_label_2
_geom_bond_distance
_geom_bond_site_symmetry_2
La0 S13 2.880196 1_545
La0 S9 2.881434 1_555
La0 S8 2.941888 1_555
La0 S6 3.029859 1_555
La0 S0 3.045335 1_555
La0 S10 3.095697 1_555
La0 S7 3.095731 1_555
La0 S6 3.207298 1_554
La1 S11 2.880197 1_455
La1 S6 2.881444 1_565
La1 S2 2.941885 1_555
La1 S13 3.029862 1_556
La1 S4 3.045327 1_555
La1 S3 3.095679 1_556
La1 S0 3.095733 1_566
La1 S13 3.207300 1_555
La2 S1 2.880188 1_555
La2 S13 2.881439 1_655
La2 S5 2.941893 1_555
La2 S11 3.029859 1_555
La2 S8 3.045328 1_555
La2 S10 3.095694 1_555
La2 S4 3.095740 1_655
La2 S11 3.207297 1_554
La3 S9 2.880197 1_655
La3 S1 2.881444 1_545
La3 S0 2.941885 1_555
La3 S12 3.029862 1_555
La3 S5 3.045327 1_555
La3 S10 3.095679 1_555
La3 S2 3.095733 1_545
La3 S12 3.207300 1_554
La4 S6 2.880188 1_555
La4 S12 2.881439 1_455
La4 S4 2.941893 1_555
La4 S9 3.029859 1_556
La4 S7 3.045328 1_555
La4 S3 3.095694 1_556
La4 S5 3.095740 1_456
La4 S9 3.207297 1_555
La5 S12 2.880196 1_565
La5 S11 2.881434 1_555
La5 S7 2.941888 1_555
La5 S1 3.029859 1_556
La5 S2 3.045335 1_555
La5 S3 3.095697 1_556
La5 S8 3.095731 1_556
La5 S1 3.207298 1_555
Cu0 S1 2.265365 1_445
Cu0 S9 2.265365 1_555
Cu0 S13 2.265365 1_545
Cu1 S6 2.265365 1_555
Cu1 S11 2.265365 1_445
Cu1 S12 2.265365 1_455
Ge0 S3 2.206164 1_555
Ge0 S4 2.246975 1_555
Ge0 S2 2.246976 1_555
Ge0 S7 2.246983 1_555
Ge1 S10 2.206164 1_555
Ge1 S5 2.246975 1_556
Ge1 S0 2.246976 1_556
Ge1 S8 2.246983 1_556
