# generated using pymatgen
data_Ce3Si2S8I
_symmetry_space_group_name_H-M   'P 1'
_cell_length_a   8.95993051
_cell_length_b   8.95993051
_cell_length_c   10.91205918
_cell_angle_alpha   82.90136589
_cell_angle_beta   82.90136589
_cell_angle_gamma   52.24570015
_symmetry_Int_Tables_number   1
_chemical_formula_structural   Ce3Si2S8I
_chemical_formula_sum   'Ce6 Si4 S16 I2'
_cell_volume   686.03088964
_cell_formula_units_Z   2
loop_
 _symmetry_equiv_pos_site_id
 _symmetry_equiv_pos_as_xyz
  1  'x, y, z'
loop_
 _atom_site_type_symbol
 _atom_site_label
 _atom_site_symmetry_multiplicity
 _atom_site_fract_x
 _atom_site_fract_y
 _atom_site_fract_z
 _atom_site_occupancy
  Ce  Ce0  1  0.07688400  0.32102600  0.81902000  1
  Ce  Ce1  1  0.40464700  0.59535300  0.75000000  1
  Ce  Ce2  1  0.92311600  0.67897400  0.18098000  1
  Ce  Ce3  1  0.67897400  0.92311600  0.68098000  1
  Ce  Ce4  1  0.59535300  0.40464700  0.25000000  1
  Ce  Ce5  1  0.32102600  0.07688400  0.31902000  1
  Si  Si0  1  0.62302800  0.69667500  0.97018900  1
  Si  Si1  1  0.69667500  0.62302800  0.47018900  1
  Si  Si2  1  0.30332500  0.37697200  0.52981100  1
  Si  Si3  1  0.37697200  0.30332500  0.02981100  1
  S  S0  1  0.59978200  0.11101200  0.14809100  1
  S  S1  1  0.25021200  0.44981500  0.33891600  1
  S  S2  1  0.74978800  0.55018500  0.66108400  1
  S  S3  1  0.71287300  0.85039000  0.41412000  1
  S  S4  1  0.27739900  0.58522900  0.04343500  1
  S  S5  1  0.28712700  0.14961000  0.58588000  1
  S  S6  1  0.44981500  0.25021200  0.83891600  1
  S  S7  1  0.58522900  0.27739900  0.54343500  1
  S  S8  1  0.85039000  0.71287300  0.91412000  1
  S  S9  1  0.88898800  0.40021800  0.35190900  1
  S  S10  1  0.40021800  0.88898800  0.85190900  1
  S  S11  1  0.55018500  0.74978800  0.16108400  1
  S  S12  1  0.72260100  0.41477100  0.95656500  1
  S  S13  1  0.11101200  0.59978200  0.64809100  1
  S  S14  1  0.41477100  0.72260100  0.45656500  1
  S  S15  1  0.14961000  0.28712700  0.08588000  1
  I  I0  1  0.98631800  0.01368200  0.75000000  1
  I  I1  1  0.01368200  0.98631800  0.25000000  1
loop_
_geom_bond_atom_site_label_1
_geom_bond_atom_site_label_2
_geom_bond_distance
_geom_bond_site_symmetry_2
Ce0 S5 2.935635 1_555
Ce0 S2 2.963146 1_455
Ce0 S12 2.983914 1_455
Ce0 S15 3.000763 1_556
Ce0 S6 3.027206 1_555
Ce0 S8 3.029342 1_455
Ce0 S13 3.074653 1_555
Ce0 S10 3.112450 1_545
Ce0 I0 3.494146 1_455
Ce1 S2 2.913981 1_555
Ce1 S6 2.913981 1_555
Ce1 S13 2.957101 1_555
Ce1 S10 2.957101 1_555
Ce1 S14 3.273130 1_555
Ce1 S4 3.273130 1_556
Ce1 S7 3.294813 1_555
Ce1 S12 3.294813 1_555
Ce1 I0 3.300643 1_465
Ce2 S3 2.935635 1_555
Ce2 S1 2.963146 1_655
Ce2 S4 2.983914 1_655
Ce2 S8 3.000763 1_554
Ce2 S11 3.027206 1_555
Ce2 S15 3.029342 1_655
Ce2 S9 3.074653 1_555
Ce2 S0 3.112450 1_565
Ce2 I1 3.494146 1_655
Ce3 S8 2.935635 1_555
Ce3 S6 2.963146 1_565
Ce3 S7 2.983914 1_565
Ce3 S3 3.000763 1_555
Ce3 S2 3.027206 1_555
Ce3 S5 3.029342 1_565
Ce3 S10 3.074653 1_555
Ce3 S13 3.112450 1_655
Ce3 I0 3.494146 1_565
Ce4 S1 2.913981 1_555
Ce4 S11 2.913981 1_555
Ce4 S0 2.957101 1_555
Ce4 S9 2.957101 1_555
Ce4 S12 3.273130 1_554
Ce4 S7 3.273130 1_555
Ce4 S4 3.294813 1_555
Ce4 S14 3.294813 1_555
Ce4 I1 3.300643 1_645
Ce5 S15 2.935635 1_555
Ce5 S11 2.963146 1_545
Ce5 S14 2.983914 1_545
Ce5 S5 3.000763 1_555
Ce5 S1 3.027206 1_555
Ce5 S3 3.029342 1_545
Ce5 S0 3.074653 1_555
Ce5 S9 3.112450 1_455
Ce5 I1 3.494146 1_545
S0 Si3 2.120185 1_555
S1 Si2 2.126081 1_555
S2 Si1 2.126081 1_555
S3 Si1 2.139490 1_555
S4 Si3 2.120958 1_555
S5 Si2 2.139490 1_555
S6 Si3 2.126081 1_556
S7 Si2 2.120958 1_555
S8 Si0 2.139490 1_555
S9 Si1 2.120185 1_555
S10 Si0 2.120185 1_555
S11 Si0 2.126081 1_554
S12 Si0 2.120958 1_555
S13 Si2 2.120185 1_555
S14 Si1 2.120958 1_555
S15 Si3 2.139490 1_555
