# generated using pymatgen
data_K2NClO3
_symmetry_space_group_name_H-M   'P 1'
_cell_length_a   5.81044900
_cell_length_b   7.72704200
_cell_length_c   10.32134700
_cell_angle_alpha   90.00000000
_cell_angle_beta   90.00000000
_cell_angle_gamma   90.00000000
_symmetry_Int_Tables_number   1
_chemical_formula_structural   K2NClO3
_chemical_formula_sum   'K8 N4 Cl4 O12'
_cell_volume   463.40353837
_cell_formula_units_Z   4
loop_
 _symmetry_equiv_pos_site_id
 _symmetry_equiv_pos_as_xyz
  1  'x, y, z'
loop_
 _atom_site_type_symbol
 _atom_site_label
 _atom_site_symmetry_multiplicity
 _atom_site_fract_x
 _atom_site_fract_y
 _atom_site_fract_z
 _atom_site_occupancy
  K  K0  1  0.25000000  0.99115300  0.30660700  1
  K  K1  1  0.25000000  0.49115300  0.19339300  1
  K  K2  1  0.75000000  0.33644300  0.41167800  1
  K  K3  1  0.25000000  0.16355700  0.91167800  1
  K  K4  1  0.75000000  0.00884700  0.69339300  1
  K  K5  1  0.75000000  0.50884700  0.80660700  1
  K  K6  1  0.25000000  0.66355700  0.58832200  1
  K  K7  1  0.75000000  0.83644300  0.08832200  1
  N  N0  1  0.75000000  0.46219800  0.08781800  1
  N  N1  1  0.25000000  0.03780200  0.58781800  1
  N  N2  1  0.25000000  0.53780200  0.91218200  1
  N  N3  1  0.75000000  0.96219800  0.41218200  1
  Cl  Cl0  1  0.25000000  0.22363600  0.58244100  1
  Cl  Cl1  1  0.25000000  0.72363600  0.91755900  1
  Cl  Cl2  1  0.75000000  0.27636400  0.08244100  1
  Cl  Cl3  1  0.75000000  0.77636400  0.41755900  1
  O  O0  1  0.75000000  0.69521300  0.55456200  1
  O  O1  1  0.45809100  0.81107300  0.85293800  1
  O  O2  1  0.04190900  0.31107300  0.64706200  1
  O  O3  1  0.25000000  0.30478700  0.44543800  1
  O  O4  1  0.54190900  0.18892700  0.14706200  1
  O  O5  1  0.25000000  0.80478700  0.05456200  1
  O  O6  1  0.54190900  0.68892700  0.35293800  1
  O  O7  1  0.95809100  0.18892700  0.14706200  1
  O  O8  1  0.75000000  0.19521300  0.94543800  1
  O  O9  1  0.45809100  0.31107300  0.64706200  1
  O  O10  1  0.95809100  0.68892700  0.35293800  1
  O  O11  1  0.04190900  0.81107300  0.85293800  1
loop_
_geom_bond_atom_site_label_1
_geom_bond_atom_site_label_2
_geom_bond_distance
_geom_bond_site_symmetry_2
K0 O4 2.814949 1_565
K0 O7 2.814949 1_465
K0 O3 2.815394 1_565
K0 N1 2.924773 1_565
K0 O6 2.925610 1_555
K0 O10 2.925610 1_455
K0 O5 2.973429 1_555
K0 N3 3.110913 1_455
K0 N3 3.110913 1_555
K1 O6 2.814949 1_555
K1 O10 2.814949 1_455
K1 O5 2.815394 1_555
K1 N2 2.924773 1_554
K1 O7 2.925610 1_455
K1 O4 2.925610 1_555
K1 O3 2.973429 1_555
K1 N0 3.110913 1_555
K1 N0 3.110913 1_455
K2 N3 2.891812 1_545
K2 O3 2.936252 1_655
K2 O3 2.936252 1_555
K2 O2 2.969450 1_655
K2 O9 2.969450 1_555
K2 O6 3.041022 1_555
K2 O10 3.041022 1_555
K2 O0 3.140090 1_555
K2 O4 3.196972 1_555
K2 O7 3.196972 1_555
K3 N2 2.891812 1_555
K3 O8 2.936252 1_555
K3 O8 2.936252 1_455
K3 O4 2.969450 1_556
K3 O7 2.969450 1_456
K3 O1 3.041022 1_545
K3 O11 3.041022 1_545
K3 O5 3.140090 1_546
K3 O9 3.196972 1_555
K3 O2 3.196972 1_555
K4 O1 2.814949 1_545
K4 O11 2.814949 1_645
K4 O0 2.815394 1_545
K4 N3 2.924773 1_545
K4 O9 2.925610 1_555
K4 O2 2.925610 1_655
K4 O8 2.973429 1_555
K4 N1 3.110913 1_555
K4 N1 3.110913 1_655
K5 O2 2.814949 1_655
K5 O9 2.814949 1_555
K5 O8 2.815394 1_555
K5 N0 2.924773 1_556
K5 O1 2.925610 1_555
K5 O11 2.925610 1_655
K5 O0 2.973429 1_555
K5 N2 3.110913 1_655
K5 N2 3.110913 1_555
K6 N1 2.891812 1_565
K6 O0 2.936252 1_455
K6 O0 2.936252 1_555
K6 O6 2.969450 1_555
K6 O10 2.969450 1_455
K6 O9 3.041022 1_555
K6 O2 3.041022 1_555
K6 O3 3.140090 1_555
K6 O11 3.196972 1_555
K6 O1 3.196972 1_555
K7 N0 2.891812 1_555
K7 O5 2.936252 1_555
K7 O5 2.936252 1_655
K7 O11 2.969450 1_654
K7 O1 2.969450 1_554
K7 O7 3.041022 1_565
K7 O4 3.041022 1_565
K7 O8 3.140090 1_564
K7 O6 3.196972 1_555
K7 O10 3.196972 1_555
Cl0 N1 1.437019 1_555
Cl0 O2 1.537290 1_555
Cl0 O9 1.537290 1_555
Cl0 O3 1.546853 1_555
Cl1 N2 1.437019 1_555
Cl1 O11 1.537290 1_555
Cl1 O1 1.537290 1_555
Cl1 O5 1.546853 1_556
Cl2 N0 1.437019 1_555
Cl2 O4 1.537290 1_555
Cl2 O7 1.537290 1_555
Cl2 O8 1.546853 1_554
Cl3 N3 1.437019 1_555
Cl3 O10 1.537290 1_555
Cl3 O6 1.537290 1_555
Cl3 O0 1.546853 1_555
