# generated using pymatgen
data_Ni21(SnP3)2
_symmetry_space_group_name_H-M   'P 1'
_cell_length_a   7.85102922
_cell_length_b   7.85102922
_cell_length_c   7.85102922
_cell_angle_alpha   60.00000000
_cell_angle_beta   60.00000000
_cell_angle_gamma   60.00000000
_symmetry_Int_Tables_number   1
_chemical_formula_structural   Ni21(SnP3)2
_chemical_formula_sum   'Ni21 Sn2 P6'
_cell_volume   342.18800608
_cell_formula_units_Z   1
loop_
 _symmetry_equiv_pos_site_id
 _symmetry_equiv_pos_as_xyz
  1  'x, y, z'
loop_
 _atom_site_type_symbol
 _atom_site_label
 _atom_site_symmetry_multiplicity
 _atom_site_fract_x
 _atom_site_fract_y
 _atom_site_fract_z
 _atom_site_occupancy
  Ni  Ni0  1  0.00000000  0.65193700  0.00000000  1
  Ni  Ni1  1  0.15151100  0.61616300  0.61616300  1
  Ni  Ni2  1  0.00000000  0.00000000  0.65193700  1
  Ni  Ni3  1  0.00000000  0.00000000  0.34806300  1
  Ni  Ni4  1  0.65193700  0.00000000  0.34806300  1
  Ni  Ni5  1  0.34806300  0.00000000  0.00000000  1
  Ni  Ni6  1  0.84848900  0.38383700  0.38383700  1
  Ni  Ni7  1  0.00000000  0.65193700  0.34806300  1
  Ni  Ni8  1  0.61616300  0.61616300  0.61616300  1
  Ni  Ni9  1  0.38383700  0.84848900  0.38383700  1
  Ni  Ni10  1  0.65193700  0.34806300  0.00000000  1
  Ni  Ni11  1  0.00000000  0.34806300  0.65193700  1
  Ni  Ni12  1  0.34806300  0.65193700  0.00000000  1
  Ni  Ni13  1  0.34806300  0.00000000  0.65193700  1
  Ni  Ni14  1  0.38383700  0.38383700  0.38383700  1
  Ni  Ni15  1  0.65193700  0.00000000  0.00000000  1
  Ni  Ni16  1  0.00000000  0.34806300  0.00000000  1
  Ni  Ni17  1  0.61616300  0.61616300  0.15151100  1
  Ni  Ni18  1  0.38383700  0.38383700  0.84848900  1
  Ni  Ni19  1  0.61616300  0.15151100  0.61616300  1
  Ni  Ni20  1  0.00000000  0.00000000  0.00000000  1
  Sn  Sn0  1  0.75000000  0.75000000  0.75000000  1
  Sn  Sn1  1  0.25000000  0.25000000  0.25000000  1
  P  P0  1  0.26189500  0.73810500  0.26189500  1
  P  P1  1  0.73810500  0.73810500  0.26189500  1
  P  P2  1  0.73810500  0.26189500  0.26189500  1
  P  P3  1  0.26189500  0.73810500  0.73810500  1
  P  P4  1  0.26189500  0.26189500  0.73810500  1
  P  P5  1  0.73810500  0.26189500  0.73810500  1
loop_
_geom_bond_atom_site_label_1
_geom_bond_atom_site_label_2
_geom_bond_distance
_geom_bond_site_symmetry_2
Ni0 P1 2.164578 1_455
Ni0 P3 2.164578 1_554
Ni0 Ni20 2.732653 1_565
Ni1 P3 2.271582 1_555
Ni1 P4 2.271582 1_555
Ni1 P0 2.271582 1_555
Ni1 Sn0 2.573821 1_455
Ni2 P5 2.164578 1_455
Ni2 P3 2.164578 1_545
Ni2 Ni20 2.732653 1_556
Ni3 P0 2.164578 1_545
Ni3 P2 2.164578 1_455
Ni4 P1 2.164578 1_545
Ni4 P2 2.164578 1_555
Ni5 P0 2.164578 1_545
Ni5 P4 2.164578 1_554
Ni6 P2 2.271582 1_555
Ni6 P1 2.271582 1_555
Ni6 P5 2.271582 1_555
Ni6 Sn1 2.573821 1_655
Ni7 P1 2.164578 1_455
Ni7 P0 2.164578 1_555
Ni8 P3 2.271582 1_555
Ni8 P5 2.271582 1_555
Ni8 P1 2.271582 1_555
Ni8 Sn0 2.573821 1_555
Ni9 P0 2.271582 1_555
Ni9 P1 2.271582 1_555
Ni9 P3 2.271582 1_555
Ni9 Sn1 2.573821 1_565
Ni10 P5 2.164578 1_554
Ni10 P2 2.164578 1_555
Ni10 Ni20 2.732653 1_655
Ni11 P5 2.164578 1_455
Ni11 P4 2.164578 1_555
Ni11 Ni20 2.732653 1_556
Ni12 P3 2.164578 1_554
Ni12 P0 2.164578 1_555
Ni12 Ni20 2.732653 1_565
Ni13 P3 2.164578 1_545
Ni13 P4 2.164578 1_555
Ni13 Ni20 2.732653 1_556
Ni14 P2 2.271582 1_555
Ni14 P0 2.271582 1_555
Ni14 P4 2.271582 1_555
Ni14 Sn1 2.573821 1_555
Ni15 P5 2.164578 1_554
Ni15 P1 2.164578 1_545
Ni15 Ni20 2.732653 1_655
Ni16 P2 2.164578 1_455
Ni16 P4 2.164578 1_554
Ni16 Ni20 2.732653 1_555
Ni17 P1 2.271582 1_555
Ni17 P0 2.271582 1_555
Ni17 P2 2.271582 1_555
Ni17 Sn0 2.573821 1_554
Ni18 P4 2.271582 1_555
Ni18 P5 2.271582 1_555
Ni18 P3 2.271582 1_555
Ni18 Sn1 2.573821 1_556
Ni19 P5 2.271582 1_555
Ni19 P4 2.271582 1_555
Ni19 P2 2.271582 1_555
Ni19 Sn0 2.573821 1_545
Ni20 Ni3 2.732653 1_555
Ni20 Ni4 2.732653 1_455
Ni20 Ni5 2.732653 1_555
Ni20 Ni7 2.732653 1_545
Ni20 P3 2.907829 1_544
Ni20 P2 2.907829 1_455
Ni20 P4 2.907829 1_554
Ni20 P0 2.907829 1_545
Ni20 P1 2.907829 1_445
Ni20 P5 2.907829 1_454
