# generated using pymatgen
data_Mg2Sn
_symmetry_space_group_name_H-M   'P 1'
_cell_length_a   5.90314237
_cell_length_b   5.90314237
_cell_length_c   5.90314237
_cell_angle_alpha   60.00000000
_cell_angle_beta   60.00000000
_cell_angle_gamma   60.00000000
_symmetry_Int_Tables_number   1
_chemical_formula_structural   Mg2Sn
_chemical_formula_sum   'Mg4 Sn2'
_cell_volume   145.45704974
_cell_formula_units_Z   2
loop_
 _symmetry_equiv_pos_site_id
 _symmetry_equiv_pos_as_xyz
  1  'x, y, z'
loop_
 _atom_site_type_symbol
 _atom_site_label
 _atom_site_symmetry_multiplicity
 _atom_site_fract_x
 _atom_site_fract_y
 _atom_site_fract_z
 _atom_site_occupancy
  Mg  Mg0  1  0.12500000  0.12500000  0.12500000  1
  Mg  Mg1  1  0.12500000  0.12500000  0.62500000  1
  Mg  Mg2  1  0.62500000  0.12500000  0.12500000  1
  Mg  Mg3  1  0.12500000  0.62500000  0.12500000  1
  Sn  Sn0  1  0.50000000  0.50000000  0.50000000  1
  Sn  Sn1  1  0.75000000  0.75000000  0.75000000  1
loop_
_geom_bond_atom_site_label_1
_geom_bond_atom_site_label_2
_geom_bond_distance
_geom_bond_site_symmetry_2
Mg0 Mg2 2.951571 1_455
Mg0 Mg1 2.951571 1_555
Mg0 Mg2 2.951571 1_555
Mg0 Mg1 2.951571 1_554
Mg0 Mg3 2.951571 1_545
Mg0 Mg3 2.951571 1_555
Mg0 Sn1 3.461024 1_544
Mg0 Sn0 3.461024 1_455
Mg0 Sn1 3.461024 1_454
Mg0 Sn0 3.461024 1_545
Mg0 Sn1 3.461024 1_445
Mg0 Sn0 3.461024 1_554
Mg1 Mg3 2.951571 1_546
Mg1 Mg2 2.951571 1_555
Mg1 Mg2 2.951571 1_456
Mg1 Mg3 2.951571 1_555
Mg1 Sn1 3.461024 1_545
Mg1 Sn1 3.461024 1_455
Mg1 Sn0 3.461024 1_455
Mg1 Sn0 3.461024 1_545
Mg1 Sn0 3.461024 1_555
Mg1 Sn1 3.461024 1_445
Mg2 Mg3 2.951571 1_645
Mg2 Mg3 2.951571 1_555
Mg2 Sn1 3.461024 1_544
Mg2 Sn1 3.461024 1_545
Mg2 Sn0 3.461024 1_554
Mg2 Sn0 3.461024 1_555
Mg2 Sn0 3.461024 1_545
Mg2 Sn1 3.461024 1_554
Mg3 Sn1 3.461024 1_554
Mg3 Sn0 3.461024 1_455
Mg3 Sn0 3.461024 1_555
Mg3 Sn0 3.461024 1_554
Mg3 Sn1 3.461024 1_455
Mg3 Sn1 3.461024 1_454
