# generated using pymatgen
data_Ba(BO2)2
_symmetry_space_group_name_H-M   'P 1'
_cell_length_a   13.78362347
_cell_length_b   13.78362347
_cell_length_c   13.78362303
_cell_angle_alpha   30.61609526
_cell_angle_beta   30.61609526
_cell_angle_gamma   30.61609470
_symmetry_Int_Tables_number   1
_chemical_formula_structural   Ba(BO2)2
_chemical_formula_sum   'Ba6 B12 O24'
_cell_volume   602.19363029
_cell_formula_units_Z   6
loop_
 _symmetry_equiv_pos_site_id
 _symmetry_equiv_pos_as_xyz
  1  'x, y, z'
loop_
 _atom_site_type_symbol
 _atom_site_label
 _atom_site_symmetry_multiplicity
 _atom_site_fract_x
 _atom_site_fract_y
 _atom_site_fract_z
 _atom_site_occupancy
  Ba  Ba0  1  0.84956025  0.84956025  0.84956025  1
  Ba  Ba1  1  0.65043975  0.65043975  0.65043975  1
  Ba  Ba2  1  0.15043975  0.15043975  0.15043975  1
  Ba  Ba3  1  0.34956025  0.34956025  0.34956025  1
  Ba  Ba4  1  0.75000000  0.75000000  0.75000000  1
  Ba  Ba5  1  0.25000000  0.25000000  0.25000000  1
  B  B0  1  0.74911932  0.50414781  0.36122856  1
  B  B1  1  0.50414781  0.36122856  0.74911932  1
  B  B2  1  0.36122856  0.74911932  0.50414781  1
  B  B3  1  0.99585219  0.75088068  0.13877144  1
  B  B4  1  0.75088068  0.13877144  0.99585219  1
  B  B5  1  0.13877144  0.99585219  0.75088068  1
  B  B6  1  0.25088068  0.49585219  0.63877144  1
  B  B7  1  0.49585219  0.63877144  0.25088068  1
  B  B8  1  0.63877144  0.25088068  0.49585219  1
  B  B9  1  0.00414781  0.24911932  0.86122856  1
  B  B10  1  0.24911932  0.86122856  0.00414781  1
  B  B11  1  0.86122856  0.00414781  0.24911932  1
  O  O0  1  0.57175569  0.71067778  0.33515980  1
  O  O1  1  0.71067778  0.33515980  0.57175569  1
  O  O2  1  0.33515980  0.57175569  0.71067778  1
  O  O3  1  0.78932222  0.92824431  0.16484020  1
  O  O4  1  0.92824431  0.16484020  0.78932222  1
  O  O5  1  0.16484020  0.78932222  0.92824431  1
  O  O6  1  0.42824431  0.28932222  0.66484020  1
  O  O7  1  0.28932222  0.66484020  0.42824431  1
  O  O8  1  0.66484020  0.42824431  0.28932222  1
  O  O9  1  0.21067778  0.07175569  0.83515980  1
  O  O10  1  0.07175569  0.83515980  0.21067778  1
  O  O11  1  0.83515980  0.21067778  0.07175569  1
  O  O12  1  0.19316854  0.94066011  0.47427617  1
  O  O13  1  0.94066011  0.47427617  0.19316854  1
  O  O14  1  0.47427617  0.19316854  0.94066011  1
  O  O15  1  0.55933989  0.30683146  0.02572383  1
  O  O16  1  0.30683146  0.02572383  0.55933989  1
  O  O17  1  0.02572383  0.55933989  0.30683146  1
  O  O18  1  0.80683146  0.05933989  0.52572383  1
  O  O19  1  0.05933989  0.52572383  0.80683146  1
  O  O20  1  0.52572383  0.80683146  0.05933989  1
  O  O21  1  0.44066011  0.69316854  0.97427617  1
  O  O22  1  0.69316854  0.97427617  0.44066011  1
  O  O23  1  0.97427617  0.44066011  0.69316854  1
loop_
_geom_bond_atom_site_label_1
_geom_bond_atom_site_label_2
_geom_bond_distance
_geom_bond_site_symmetry_2
Ba0 O13 2.766613 1_556
Ba0 O14 2.766613 1_565
Ba0 O12 2.766613 1_655
Ba0 O18 2.830285 1_565
Ba0 O19 2.830285 1_655
Ba0 O20 2.830285 1_556
Ba0 O0 3.094593 1_556
Ba0 O2 3.094593 1_655
Ba0 O1 3.094594 1_565
Ba1 O17 2.766613 1_655
Ba1 O16 2.766613 1_565
Ba1 O15 2.766613 1_556
Ba1 O21 2.830285 1_555
Ba1 O23 2.830285 1_555
Ba1 O22 2.830285 1_555
Ba1 O3 3.094593 1_555
Ba1 O4 3.094593 1_555
Ba1 O5 3.094594 1_555
Ba2 O19 2.766613 1_554
Ba2 O20 2.766613 1_545
Ba2 O18 2.766613 1_455
Ba2 O12 2.830285 1_545
Ba2 O13 2.830285 1_455
Ba2 O14 2.830285 1_554
Ba2 O6 3.094593 1_554
Ba2 O8 3.094593 1_455
Ba2 O7 3.094594 1_545
Ba3 O23 2.766613 1_455
Ba3 O22 2.766613 1_545
Ba3 O21 2.766613 1_554
Ba3 O15 2.830285 1_555
Ba3 O17 2.830285 1_555
Ba3 O16 2.830285 1_555
Ba3 O9 3.094593 1_555
Ba3 O10 3.094593 1_555
Ba3 O11 3.094594 1_555
Ba4 O22 2.691481 1_555
Ba4 O20 2.691481 1_556
Ba4 O23 2.691481 1_555
Ba4 O19 2.691481 1_655
Ba4 O18 2.691481 1_565
Ba4 O21 2.691481 1_555
Ba5 O14 2.691481 1_554
Ba5 O16 2.691481 1_555
Ba5 O13 2.691481 1_455
Ba5 O17 2.691481 1_555
Ba5 O12 2.691481 1_545
Ba5 O15 2.691481 1_555
B0 O13 1.322878 1_555
B0 O1 1.403875 1_555
B0 O0 1.407978 1_555
B1 O14 1.322878 1_555
B1 O2 1.403875 1_555
B1 O1 1.407979 1_555
B2 O12 1.322878 1_555
B2 O0 1.403875 1_555
B2 O2 1.407978 1_555
B3 O17 1.322878 1_655
B3 O5 1.403875 1_654
B3 O3 1.407978 1_555
B4 O15 1.322878 1_556
B4 O3 1.403875 1_546
B4 O4 1.407978 1_555
B5 O16 1.322878 1_565
B5 O4 1.403875 1_465
B5 O5 1.407979 1_555
B6 O19 1.322878 1_555
B6 O7 1.403875 1_555
B6 O6 1.407978 1_555
B7 O20 1.322878 1_555
B7 O8 1.403875 1_555
B7 O7 1.407979 1_555
B8 O18 1.322878 1_555
B8 O6 1.403875 1_555
B8 O8 1.407978 1_555
B9 O23 1.322878 1_455
B9 O11 1.403875 1_456
B9 O9 1.407978 1_555
B10 O21 1.322878 1_554
B10 O9 1.403875 1_564
B10 O10 1.407978 1_555
B11 O22 1.322878 1_545
B11 O10 1.403875 1_645
B11 O11 1.407979 1_555
