# generated using pymatgen
data_Cs5Bi(MoO4)4
_symmetry_space_group_name_H-M   'P 1'
_cell_length_a   8.35805338
_cell_length_b   10.44947286
_cell_length_c   13.40080418
_cell_angle_alpha   83.89434780
_cell_angle_beta   71.74934070
_cell_angle_gamma   70.16595520
_symmetry_Int_Tables_number   1
_chemical_formula_structural   Cs5Bi(MoO4)4
_chemical_formula_sum   'Cs10 Bi2 Mo8 O32'
_cell_volume   1045.57784249
_cell_formula_units_Z   2
loop_
 _symmetry_equiv_pos_site_id
 _symmetry_equiv_pos_as_xyz
  1  'x, y, z'
loop_
 _atom_site_type_symbol
 _atom_site_label
 _atom_site_symmetry_multiplicity
 _atom_site_fract_x
 _atom_site_fract_y
 _atom_site_fract_z
 _atom_site_occupancy
  Cs  Cs0  1  0.43892852  0.55000218  0.37427304  1
  Cs  Cs1  1  0.83315336  0.43944522  0.11796873  1
  Cs  Cs2  1  0.17226907  0.55313771  0.88183480  1
  Cs  Cs3  1  0.19214598  0.94342096  0.37593452  1
  Cs  Cs4  1  0.05327134  0.05300828  0.11934999  1
  Cs  Cs5  1  0.56299683  0.74679153  0.87928080  1
  Cs  Cs6  1  0.95117901  0.93943744  0.88209676  1
  Cs  Cs7  1  0.81176661  0.05139496  0.62605479  1
  Cs  Cs8  1  0.44188218  0.24615213  0.12126162  1
  Cs  Cs9  1  0.56638989  0.44466381  0.62487698  1
  Bi  Bi0  1  0.80660645  0.74743790  0.39178904  1
  Bi  Bi1  1  0.19935280  0.24611511  0.60881013  1
  Mo  Mo0  1  0.35041773  0.14481206  0.85623879  1
  Mo  Mo1  1  0.40170239  0.85729692  0.62418949  1
  Mo  Mo2  1  0.02657853  0.35824484  0.37652936  1
  Mo  Mo3  1  0.20619707  0.64449560  0.14462621  1
  Mo  Mo4  1  0.97941660  0.63510444  0.62390529  1
  Mo  Mo5  1  0.60429307  0.13605163  0.37630350  1
  Mo  Mo6  1  0.79858316  0.34839043  0.85547385  1
  Mo  Mo7  1  0.65375012  0.84809473  0.14471647  1
  O  O0  1  0.13995210  0.51107830  0.12410227  1
  O  O1  1  0.80834953  0.23847942  0.96316537  1
  O  O2  1  0.57525786  0.89874396  0.64187487  1
  O  O3  1  0.21954425  0.39845488  0.35535524  1
  O  O4  1  0.48332653  0.76853332  0.50180987  1
  O  O5  1  0.05941203  0.73432347  0.26759933  1
  O  O6  1  0.98755374  0.27087616  0.49978555  1
  O  O7  1  0.43196426  0.09353919  0.35799158  1
  O  O8  1  0.67277092  0.24365649  0.27533923  1
  O  O9  1  0.84119158  0.51439423  0.38237954  1
  O  O10  1  0.22107964  0.01287446  0.61917543  1
  O  O11  1  0.86438325  0.48186266  0.87648400  1
  O  O12  1  0.42655446  0.57749303  0.14925858  1
  O  O13  1  0.26346671  0.01146384  0.87642889  1
  O  O14  1  0.42820829  0.91538700  0.15043026  1
  O  O15  1  0.19555867  0.75447746  0.03702139  1
  O  O16  1  0.78716161  0.59379357  0.64543830  1
  O  O17  1  0.23201170  0.25450927  0.96405098  1
  O  O18  1  0.77146600  0.73828751  0.03691711  1
  O  O19  1  0.67851236  0.75799493  0.26726259  1
  O  O20  1  0.95072472  0.74346421  0.72330870  1
  O  O21  1  0.57865619  0.41514373  0.84998904  1
  O  O22  1  0.74079818  0.98147355  0.12386154  1
  O  O23  1  0.33243581  0.75040616  0.72552657  1
  O  O24  1  0.32726157  0.23488213  0.73338285  1
  O  O25  1  0.57557888  0.07721972  0.85138248  1
  O  O26  1  0.16527024  0.47960431  0.61855100  1
  O  O27  1  0.01810463  0.72176822  0.50022536  1
  O  O28  1  0.78599506  0.98112022  0.38081111  1
  O  O29  1  0.05457002  0.25064010  0.27681706  1
  O  O30  1  0.94651283  0.25843893  0.73282556  1
  O  O31  1  0.52174765  0.22406272  0.49911517  1
loop_
_geom_bond_atom_site_label_1
_geom_bond_atom_site_label_2
_geom_bond_distance
_geom_bond_site_symmetry_2
Cs0 O3 2.877708 1_555
Cs0 O12 3.029292 1_555
Cs0 O4 3.174228 1_555
Cs0 O9 3.290206 1_555
Cs0 O8 3.295329 1_555
Cs0 O27 3.329210 1_555
Cs0 O19 3.358828 1_555
Cs0 O26 3.525394 1_555
Cs0 O31 3.576528 1_555
Cs1 O0 2.930866 1_655
Cs1 O8 3.098799 1_555
Cs1 O12 3.116916 1_555
Cs1 O18 3.119900 1_555
Cs1 O11 3.159301 1_554
Cs1 O1 3.201240 1_554
Cs1 O29 3.308313 1_655
Cs1 O17 3.357333 1_654
Cs2 O11 2.934173 1_455
Cs2 O23 3.102670 1_555
Cs2 O21 3.114113 1_555
Cs2 O17 3.123564 1_555
Cs2 O0 3.167674 1_556
Cs2 O15 3.201765 1_556
Cs2 O20 3.311063 1_455
Cs2 O18 3.373552 1_456
Cs3 O7 2.878840 1_565
Cs3 O14 3.028585 1_555
Cs3 O27 3.194197 1_555
Cs3 O28 3.262214 1_455
Cs3 O29 3.307105 1_565
Cs3 O4 3.317451 1_555
Cs3 O5 3.382447 1_555
Cs3 O10 3.510899 1_565
Cs3 O6 3.584251 1_465
Cs4 O22 2.932486 1_445
Cs4 O29 3.110372 1_555
Cs4 O14 3.113495 1_545
Cs4 O15 3.123390 1_545
Cs4 O13 3.173810 1_554
Cs4 O17 3.201786 1_554
Cs4 O8 3.297733 1_455
Cs4 O1 3.384635 1_454
Cs4 O28 3.675255 1_445
Cs4 O5 3.685036 1_545
Cs5 O11 3.039965 1_555
Cs5 O13 3.042513 1_565
Cs5 O18 3.109136 1_556
Cs5 O15 3.115909 1_556
Cs5 O23 3.222000 1_555
Cs5 O20 3.250878 1_555
Cs5 O16 3.352895 1_555
Cs5 O2 3.388924 1_555
Cs5 O25 3.466963 1_565
Cs5 O21 3.482903 1_555
Cs6 O13 2.929452 1_665
Cs6 O20 3.107855 1_555
Cs6 O25 3.116660 1_565
Cs6 O1 3.122234 1_565
Cs6 O22 3.160978 1_556
Cs6 O18 3.200235 1_556
Cs6 O23 3.298606 1_655
Cs6 O15 3.367683 1_656
Cs7 O2 2.881355 1_545
Cs7 O25 3.027517 1_555
Cs7 O6 3.191516 1_555
Cs7 O10 3.278731 1_655
Cs7 O20 3.304714 1_545
Cs7 O31 3.314640 1_555
Cs7 O30 3.364160 1_555
Cs7 O28 3.528540 1_545
Cs7 O27 3.614509 1_645
Cs8 O22 3.039314 1_545
Cs8 O0 3.042205 1_555
Cs8 O1 3.111530 1_554
Cs8 O17 3.113597 1_554
Cs8 O8 3.230804 1_555
Cs8 O29 3.243151 1_555
Cs8 O3 3.351257 1_555
Cs8 O7 3.385671 1_555
Cs8 O14 3.473426 1_545
Cs8 O12 3.477094 1_555
Cs9 O16 2.875798 1_555
Cs9 O21 3.029908 1_555
Cs9 O31 3.177612 1_555
Cs9 O26 3.274305 1_555
Cs9 O23 3.297766 1_555
Cs9 O6 3.333577 1_555
Cs9 O24 3.374759 1_555
Cs9 O9 3.510489 1_555
Cs9 O4 3.548320 1_555
Bi0 O5 2.214174 1_655
Bi0 O19 2.223255 1_555
Bi0 O9 2.365246 1_555
Bi0 O28 2.380753 1_555
Bi0 O27 2.551979 1_655
Bi0 O4 2.587055 1_555
Bi1 O30 2.214823 1_455
Bi1 O24 2.221371 1_555
Bi1 O26 2.371460 1_555
Bi1 O10 2.373997 1_555
Bi1 O6 2.562019 1_455
Bi1 O31 2.577699 1_555
Mo0 O13 1.739769 1_555
Mo0 O17 1.751469 1_555
Mo0 O25 1.753785 1_555
Mo0 O24 1.838521 1_555
Mo1 O2 1.735348 1_555
Mo1 O23 1.746602 1_555
Mo1 O4 1.791283 1_555
Mo1 O10 1.816960 1_565
Mo2 O3 1.733810 1_555
Mo2 O29 1.746376 1_555
Mo2 O6 1.792190 1_455
Mo2 O9 1.817929 1_455
Mo3 O0 1.739711 1_555
Mo3 O15 1.751131 1_555
Mo3 O12 1.753126 1_555
Mo3 O5 1.839342 1_555
Mo4 O16 1.733624 1_555
Mo4 O20 1.746591 1_555
Mo4 O27 1.793156 1_655
Mo4 O26 1.816748 1_655
Mo5 O7 1.735191 1_555
Mo5 O8 1.746582 1_555
Mo5 O31 1.791807 1_555
Mo5 O28 1.816384 1_545
Mo6 O11 1.740110 1_555
Mo6 O1 1.751004 1_555
Mo6 O21 1.753406 1_555
Mo6 O30 1.838680 1_555
Mo7 O22 1.740068 1_555
Mo7 O18 1.751501 1_555
Mo7 O14 1.753688 1_555
Mo7 O19 1.837900 1_555
