# generated using pymatgen
data_Sr5B3BrO9
_symmetry_space_group_name_H-M   'P 1'
_cell_length_a   8.81192917
_cell_length_b   8.81192917
_cell_length_c   7.61403800
_cell_angle_alpha   90.00000000
_cell_angle_beta   90.00000000
_cell_angle_gamma   109.79250639
_symmetry_Int_Tables_number   1
_chemical_formula_structural   Sr5B3BrO9
_chemical_formula_sum   'Sr10 B6 Br2 O18'
_cell_volume   556.30385887
_cell_formula_units_Z   2
loop_
 _symmetry_equiv_pos_site_id
 _symmetry_equiv_pos_as_xyz
  1  'x, y, z'
loop_
 _atom_site_type_symbol
 _atom_site_label
 _atom_site_symmetry_multiplicity
 _atom_site_fract_x
 _atom_site_fract_y
 _atom_site_fract_z
 _atom_site_occupancy
  Sr  Sr0  1  0.75709200  0.75709200  0.50000000  1
  Sr  Sr1  1  0.00579600  0.26646700  0.42727100  1
  Sr  Sr2  1  0.63618900  0.36381100  0.25000000  1
  Sr  Sr3  1  0.36337600  0.63662400  0.25000000  1
  Sr  Sr4  1  0.99420400  0.73353300  0.92727100  1
  Sr  Sr5  1  0.24290800  0.24290800  0.00000000  1
  Sr  Sr6  1  0.73353300  0.99420400  0.07272900  1
  Sr  Sr7  1  0.36381100  0.63618900  0.75000000  1
  Sr  Sr8  1  0.63662400  0.36337600  0.75000000  1
  Sr  Sr9  1  0.26646700  0.00579600  0.57272900  1
  B  B0  1  0.37254500  0.37254500  0.50000000  1
  B  B1  1  0.62745500  0.62745500  0.00000000  1
  B  B2  1  0.01386100  0.58995200  0.52752300  1
  B  B3  1  0.58995200  0.01386100  0.47247700  1
  B  B4  1  0.98613900  0.41004800  0.02752300  1
  B  B5  1  0.41004800  0.98613900  0.97247700  1
  Br  Br0  1  0.94130900  0.05869100  0.75000000  1
  Br  Br1  1  0.05869100  0.94130900  0.25000000  1
  O  O0  1  0.48888800  0.48888800  0.00000000  1
  O  O1  1  0.69491800  0.68949700  0.83945300  1
  O  O2  1  0.52164100  0.13920500  0.01319000  1
  O  O3  1  0.47835900  0.86079500  0.51319000  1
  O  O4  1  0.86079500  0.47835900  0.48681000  1
  O  O5  1  0.55581400  0.15289500  0.51315100  1
  O  O6  1  0.15289500  0.55581400  0.48684900  1
  O  O7  1  0.44418600  0.84710500  0.01315100  1
  O  O8  1  0.51111200  0.51111200  0.50000000  1
  O  O9  1  0.26781300  0.97422800  0.88662500  1
  O  O10  1  0.84710500  0.44418600  0.98684900  1
  O  O11  1  0.30508200  0.31050300  0.33945300  1
  O  O12  1  0.97422800  0.26781300  0.11337500  1
  O  O13  1  0.31050300  0.30508200  0.66054700  1
  O  O14  1  0.02577200  0.73218700  0.61337500  1
  O  O15  1  0.13920500  0.52164100  0.98681000  1
  O  O16  1  0.68949700  0.69491800  0.16054700  1
  O  O17  1  0.73218700  0.02577200  0.38662500  1
loop_
_geom_bond_atom_site_label_1
_geom_bond_atom_site_label_2
_geom_bond_distance
_geom_bond_site_symmetry_2
B0 O11 1.387977 1_555
B0 O13 1.387977 1_555
B0 O8 1.404342 1_555
B1 O16 1.387977 1_555
B1 O1 1.387977 1_554
B1 O0 1.404342 1_555
B2 O14 1.385694 1_555
B2 O6 1.391765 1_555
B2 O4 1.408583 1_455
B3 O17 1.385694 1_555
B3 O5 1.391765 1_555
B3 O3 1.408583 1_545
B4 O12 1.385694 1_555
B4 O10 1.391765 1_554
B4 O15 1.408583 1_654
B5 O9 1.385694 1_555
B5 O7 1.391765 1_556
B5 O2 1.408583 1_566
Br0 Sr6 3.001451 1_546
Br0 Sr1 3.001451 1_655
Br0 Sr5 3.224898 1_656
Br0 Sr0 3.224898 1_545
Br0 Sr4 3.339656 1_545
Br0 Sr9 3.339656 1_655
Br1 Sr9 3.001451 1_565
Br1 Sr4 3.001451 1_454
Br1 Sr5 3.224898 1_565
Br1 Sr0 3.224898 1_455
Br1 Sr1 3.339656 1_565
Br1 Sr6 3.339656 1_455
O0 Sr5 2.492947 1_555
O0 Sr7 2.737116 1_554
O0 Sr2 2.737116 1_555
O0 Sr3 2.741619 1_555
O0 Sr8 2.741619 1_554
O1 Sr4 2.619139 1_555
O1 Sr0 2.667236 1_555
O1 Sr8 2.826041 1_555
O1 Sr7 2.875637 1_555
O1 Sr6 3.140279 1_556
O2 Sr2 2.614245 1_555
O2 Sr6 2.634424 1_545
O2 Sr8 2.754821 1_554
O2 Sr5 2.897931 1_555
O3 Sr7 2.614245 1_555
O3 Sr9 2.634424 1_565
O3 Sr3 2.754821 1_555
O3 Sr0 2.897931 1_555
O4 Sr2 2.614245 1_555
O4 Sr1 2.634424 1_655
O4 Sr8 2.754821 1_555
O4 Sr0 2.897931 1_555
O5 Sr9 2.479665 1_555
O5 Sr8 2.510950 1_555
O5 Sr2 2.660647 1_555
O6 Sr1 2.479665 1_555
O6 Sr3 2.510950 1_555
O6 Sr7 2.660647 1_555
O7 Sr6 2.479665 1_555
O7 Sr3 2.510950 1_555
O7 Sr7 2.660647 1_554
O8 Sr0 2.492947 1_555
O8 Sr7 2.737116 1_555
O8 Sr2 2.737116 1_555
O8 Sr3 2.741619 1_555
O8 Sr8 2.741619 1_555
O9 Sr9 2.406644 1_565
O9 Sr5 2.598213 1_566
O9 Sr4 2.635188 1_455
O10 Sr4 2.479665 1_555
O10 Sr8 2.510950 1_555
O10 Sr2 2.660647 1_556
O11 Sr1 2.619139 1_555
O11 Sr5 2.667236 1_555
O11 Sr3 2.826041 1_555
O11 Sr2 2.875637 1_555
O11 Sr9 3.140279 1_555
O12 Sr1 2.406644 1_655
O12 Sr5 2.598213 1_655
O12 Sr6 2.635188 1_545
O13 Sr9 2.619139 1_555
O13 Sr5 2.667236 1_556
O13 Sr8 2.826041 1_555
O13 Sr7 2.875637 1_555
O13 Sr1 3.140279 1_555
O14 Sr4 2.406644 1_455
O14 Sr0 2.598213 1_455
O14 Sr9 2.635188 1_565
O15 Sr7 2.614245 1_555
O15 Sr4 2.634424 1_455
O15 Sr3 2.754821 1_556
O15 Sr5 2.897931 1_556
O16 Sr6 2.619139 1_555
O16 Sr0 2.667236 1_555
O16 Sr3 2.826041 1_555
O16 Sr2 2.875637 1_555
O16 Sr4 3.140279 1_554
O17 Sr6 2.406644 1_545
O17 Sr0 2.598213 1_545
O17 Sr1 2.635188 1_655
