# generated using pymatgen
data_Na15S5Cl(O5F)4
_symmetry_space_group_name_H-M   'P 1'
_cell_length_a   12.32685838
_cell_length_b   12.32685851
_cell_length_c   14.15477481
_cell_angle_alpha   90.00000000
_cell_angle_beta   90.00000000
_cell_angle_gamma   119.99999964
_symmetry_Int_Tables_number   1
_chemical_formula_structural   Na15S5Cl(O5F)4
_chemical_formula_sum   'Na45 S15 Cl3 O60 F12'
_cell_volume   1862.68070353
_cell_formula_units_Z   3
loop_
 _symmetry_equiv_pos_site_id
 _symmetry_equiv_pos_as_xyz
  1  'x, y, z'
loop_
 _atom_site_type_symbol
 _atom_site_label
 _atom_site_symmetry_multiplicity
 _atom_site_fract_x
 _atom_site_fract_y
 _atom_site_fract_z
 _atom_site_occupancy
  Na  Na0  1  0.85241294  0.52226896  0.14271835  1
  Na  Na1  1  0.66747906  0.84689144  0.32980027  1
  Na  Na2  1  0.33014398  0.47773104  0.14271835  1
  Na  Na3  1  0.82800438  0.66593162  0.71344376  1
  Na  Na4  1  0.00000000  0.81721614  0.52414081  1
  Na  Na5  1  0.84689144  0.66747906  0.32980027  1
  Na  Na6  1  0.48458322  0.48458322  0.71615597  1
  Na  Na7  1  0.66389538  0.51006540  0.90959660  1
  Na  Na8  1  0.33610462  0.84617002  0.90959660  1
  Na  Na9  1  0.33283957  0.48495018  0.53047664  1
  Na  Na10  1  0.48993460  0.15382998  0.90959660  1
  Na  Na11  1  0.82058762  0.15310856  0.32980027  1
  Na  Na12  1  0.17941238  0.33252094  0.32980027  1
  Na  Na13  1  0.47773104  0.33014398  0.14271835  1
  Na  Na14  1  1.00000000  0.82453762  0.13339856  1
  Na  Na15  1  0.81721614  0.00000000  0.52414081  1
  Na  Na16  1  0.19019227  0.00000000  0.89647999  1
  Na  Na17  1  0.48183672  0.48183672  0.32466257  1
  Na  Na18  1  0.00000000  0.19019227  0.89647999  1
  Na  Na19  1  0.48495018  0.33283957  0.53047664  1
  Na  Na20  1  0.18278386  0.18278386  0.52414081  1
  Na  Na21  1  0.16207276  0.33406838  0.71344376  1
  Na  Na22  1  0.00000000  0.51541678  0.71615597  1
  Na  Na23  1  0.33252094  0.17941238  0.32980027  1
  Na  Na24  1  0.83792724  0.17199562  0.71344376  1
  Na  Na25  1  0.80980773  0.80980773  0.89647999  1
  Na  Na26  1  0.51816328  0.00000000  0.32466257  1
  Na  Na27  1  0.15382998  0.48993460  0.90959660  1
  Na  Na28  1  0.51541678  0.00000000  0.71615597  1
  Na  Na29  1  0.15310856  0.82058762  0.32980027  1
  Na  Na30  1  0.33406838  0.16207276  0.71344376  1
  Na  Na31  1  0.14758706  0.66985602  0.14271835  1
  Na  Na32  1  0.66985602  0.14758706  0.14271835  1
  Na  Na33  1  0.66716043  0.15211061  0.53047664  1
  Na  Na34  1  0.84788939  0.51504982  0.53047664  1
  Na  Na35  1  0.51504982  0.84788939  0.53047664  1
  Na  Na36  1  0.15211061  0.66716043  0.53047664  1
  Na  Na37  1  0.82453762  0.00000000  0.13339856  1
  Na  Na38  1  0.17199562  0.83792724  0.71344376  1
  Na  Na39  1  0.17546238  0.17546238  0.13339856  1
  Na  Na40  1  1.00000000  0.51816328  0.32466257  1
  Na  Na41  1  0.52226896  0.85241294  0.14271835  1
  Na  Na42  1  0.66593162  0.82800438  0.71344376  1
  Na  Na43  1  0.84617002  0.33610462  0.90959660  1
  Na  Na44  1  0.51006540  0.66389538  0.90959660  1
  S  S0  1  1.00000000  0.66877354  0.91756422  1
  S  S1  1  0.33681376  0.00000000  0.50758896  1
  S  S2  1  0.66540954  0.66540954  0.12533964  1
  S  S3  1  0.33333300  0.66666700  0.72225936  1
  S  S4  1  0.66877354  0.00000000  0.91756422  1
  S  S5  1  0.00000000  0.00000000  0.69971977  1
  S  S6  1  0.66318624  0.66318624  0.50758896  1
  S  S7  1  0.00000000  0.33681376  0.50758896  1
  S  S8  1  0.33459046  0.00000000  0.12533964  1
  S  S9  1  0.33333300  0.66666700  0.34511504  1
  S  S10  1  0.66666700  0.33333300  0.34511504  1
  S  S11  1  0.66666700  0.33333300  0.72225936  1
  S  S12  1  0.00000000  0.33459046  0.12533964  1
  S  S13  1  0.00000000  0.00000000  0.32877871  1
  S  S14  1  0.33122646  0.33122646  0.91756422  1
  Cl  Cl0  1  0.66666700  0.33333300  0.04333293  1
  Cl  Cl1  1  0.33333300  0.66666700  0.04333293  1
  Cl  Cl2  1  0.00000000  0.00000000  0.99871920  1
  O  O0  1  0.67204602  0.00000000  0.02272376  1
  O  O1  1  0.22055190  0.88582152  0.53973914  1
  O  O2  1  0.55114462  0.33086469  0.68765654  1
  O  O3  1  0.33086469  0.55114462  0.68765654  1
  O  O4  1  0.44907252  0.77938160  0.31041126  1
  O  O5  1  0.22027992  0.66913531  0.68765654  1
  O  O6  1  0.55151285  0.55151285  0.54821800  1
  O  O7  1  0.66913531  0.22027992  0.68765654  1
  O  O8  1  1.00000000  0.44848715  0.54821800  1
  O  O9  1  0.66666700  0.33333300  0.82794960  1
  O  O10  1  0.11448839  0.00000000  0.73421508  1
  O  O11  1  1.00000000  0.33526051  0.01945255  1
  O  O12  1  0.88535645  0.66674585  0.88032083  1
  O  O13  1  0.77944810  0.66526962  0.53973914  1
  O  O14  1  0.21861060  0.33325415  0.88032083  1
  O  O15  1  0.66674585  0.88535645  0.88032083  1
  O  O16  1  0.32795398  0.32795398  0.02272376  1
  O  O17  1  0.00000000  0.11448839  0.73421508  1
  O  O18  1  0.66526962  0.77944810  0.53973914  1
  O  O19  1  0.77993340  0.66641105  0.16077918  1
  O  O20  1  0.00000000  0.44870337  0.16099311  1
  O  O21  1  0.77938160  0.44907252  0.31041126  1
  O  O22  1  0.44848715  0.00000000  0.54821800  1
  O  O23  1  1.00000000  0.34291137  0.40160178  1
  O  O24  1  0.11464355  0.78138940  0.88032083  1
  O  O25  1  0.33526051  0.00000000  0.01945255  1
  O  O26  1  0.66641105  0.77993340  0.16077918  1
  O  O27  1  0.33325415  0.21861060  0.88032083  1
  O  O28  1  0.88647765  0.22006660  0.16077918  1
  O  O29  1  0.22006660  0.88647765  0.16077918  1
  O  O30  1  0.00000000  0.88568351  0.36382298  1
  O  O31  1  0.66666700  0.33333300  0.45151198  1
  O  O32  1  0.33333300  0.66666700  0.45151198  1
  O  O33  1  0.66473949  0.66473949  0.01945255  1
  O  O34  1  0.00000000  0.00000000  0.59357769  1
  O  O35  1  0.44885538  0.77972008  0.68765654  1
  O  O36  1  0.88551161  0.88551161  0.73421508  1
  O  O37  1  0.88568351  0.00000000  0.36382298  1
  O  O38  1  0.11352235  0.33358895  0.16077918  1
  O  O39  1  0.11431649  0.11431649  0.36382298  1
  O  O40  1  0.55129663  0.55129663  0.16099311  1
  O  O41  1  0.77972008  0.44885538  0.68765654  1
  O  O42  1  0.55092748  0.33030909  0.31041126  1
  O  O43  1  0.00000000  0.00000000  0.22304709  1
  O  O44  1  0.33030909  0.55092748  0.31041126  1
  O  O45  1  0.34291137  0.00000000  0.40160178  1
  O  O46  1  0.88582152  0.22055190  0.53973914  1
  O  O47  1  0.00000000  0.67204602  0.02272376  1
  O  O48  1  0.65708863  0.65708863  0.40160178  1
  O  O49  1  0.44649370  0.44649370  0.88462152  1
  O  O50  1  0.00000000  0.55350630  0.88462152  1
  O  O51  1  0.55350630  0.00000000  0.88462152  1
  O  O52  1  0.33333300  0.66666700  0.82794960  1
  O  O53  1  0.66969091  0.22061840  0.31041126  1
  O  O54  1  0.78138940  0.11464355  0.88032083  1
  O  O55  1  0.33358895  0.11352235  0.16077918  1
  O  O56  1  0.33473038  0.11417848  0.53973914  1
  O  O57  1  0.44870337  0.00000000  0.16099311  1
  O  O58  1  0.22061840  0.66969091  0.31041126  1
  O  O59  1  0.11417848  0.33473038  0.53973914  1
  F  F0  1  0.34054251  0.34054251  0.43268575  1
  F  F1  1  0.65270847  0.65270847  0.79242384  1
  F  F2  1  0.34729153  0.00000000  0.79242384  1
  F  F3  1  0.65945749  0.00000000  0.43268575  1
  F  F4  1  0.00000000  0.65945749  0.43268575  1
  F  F5  1  0.31602754  0.31602754  0.64139355  1
  F  F6  1  0.68397246  0.00000000  0.64139355  1
  F  F7  1  1.00000000  0.34729153  0.79242384  1
  F  F8  1  0.00000000  0.68397246  0.64139355  1
  F  F9  1  0.32328413  0.32328413  0.23220549  1
  F  F10  1  0.67671587  0.00000000  0.23220549  1
  F  F11  1  0.00000000  0.67671587  0.23220549  1
loop_
_geom_bond_atom_site_label_1
_geom_bond_atom_site_label_2
_geom_bond_distance
_geom_bond_site_symmetry_2
Na0 O19 2.368159 1_555
Na0 O20 2.418438 1_655
Na0 O47 2.498906 1_655
Na0 O21 2.539000 1_555
Na1 O4 2.403266 1_555
Na1 O37 2.439745 1_565
Na1 O48 2.494742 1_555
Na1 O26 2.528716 1_555
Na2 O38 2.368159 1_555
Na2 O40 2.418438 1_555
Na2 O16 2.498906 1_555
Na2 O44 2.539000 1_555
Na3 O36 2.448795 1_555
Na3 O41 2.460711 1_555
Na3 O12 2.464217 1_555
Na3 O13 2.529603 1_555
Na4 O1 2.419948 1_555
Na4 O13 2.419948 1_455
Na4 O30 2.421130 1_555
Na4 O34 2.458192 1_565
Na5 O21 2.403266 1_555
Na5 O30 2.439745 1_655
Na5 O48 2.494742 1_555
Na5 O19 2.528716 1_555
Na6 O49 2.430377 1_555
Na6 O3 2.445646 1_555
Na6 O2 2.445646 1_555
Na6 O6 2.516227 1_555
Na7 O49 2.412625 1_555
Na7 O33 2.456328 1_556
Na7 O12 2.466150 1_555
Na7 O9 2.481397 1_555
Na8 O51 2.412625 1_565
Na8 O25 2.456328 1_566
Na8 O24 2.466150 1_555
Na8 O52 2.481386 1_555
Na9 O3 2.374069 1_555
Na9 O59 2.391682 1_555
Na9 O6 2.406364 1_555
Na9 O32 2.500663 1_555
Na10 O51 2.412625 1_555
Na10 O25 2.456328 1_556
Na10 O27 2.466150 1_555
Na10 O9 2.481392 1_555
Na11 O53 2.403266 1_555
Na11 O37 2.439745 1_555
Na11 O23 2.494742 1_555
Na11 O28 2.528716 1_555
Na12 O44 2.403266 1_555
Na12 O39 2.439745 1_555
Na12 O23 2.494742 1_455
Na12 O38 2.528716 1_555
Na13 O55 2.368159 1_555
Na13 O40 2.418438 1_555
Na13 O16 2.498906 1_555
Na13 O42 2.539000 1_555
Na14 O47 2.446956 1_655
Na14 O29 2.453741 1_655
Na14 O19 2.453741 1_555
Na14 O43 2.507665 1_665
Na15 O46 2.419948 1_555
Na15 O18 2.419948 1_545
Na15 O37 2.421130 1_555
Na15 O34 2.458192 1_655
Na16 O24 2.381565 1_545
Na16 O27 2.381565 1_555
Na16 O10 2.479162 1_555
Na16 O25 2.495525 1_556
Na17 O44 2.417797 1_555
Na17 O42 2.417797 1_555
Na17 O48 2.419290 1_555
Na17 O40 2.469866 1_555
Na18 O54 2.381565 1_455
Na18 O14 2.381565 1_555
Na18 O17 2.479162 1_555
Na18 O11 2.495525 1_456
Na19 O2 2.374069 1_555
Na19 O56 2.391683 1_555
Na19 O6 2.406364 1_555
Na19 O31 2.500663 1_555
Na20 O56 2.419948 1_555
Na20 O59 2.419948 1_555
Na20 O39 2.421130 1_555
Na20 O34 2.458192 1_555
Na21 O17 2.448795 1_555
Na21 O3 2.460711 1_555
Na21 O14 2.464217 1_555
Na21 O59 2.529603 1_555
Na22 O50 2.430377 1_555
Na22 O41 2.445646 1_455
Na22 O5 2.445646 1_555
Na22 O8 2.516227 1_455
Na23 O42 2.403266 1_555
Na23 O39 2.439745 1_555
Na23 O45 2.494742 1_555
Na23 O55 2.528716 1_555
Na24 O17 2.448795 1_655
Na24 O7 2.460711 1_555
Na24 O54 2.464217 1_555
Na24 O46 2.529603 1_555
Na25 O15 2.381565 1_555
Na25 O12 2.381565 1_555
Na25 O36 2.479162 1_555
Na25 O33 2.495525 1_556
Na26 O53 2.417797 1_555
Na26 O4 2.417797 1_545
Na26 O45 2.419290 1_555
Na26 O57 2.469866 1_555
Na27 O50 2.412625 1_555
Na27 O11 2.456328 1_456
Na27 O14 2.466150 1_555
Na27 O52 2.481392 1_555
Na28 O51 2.430377 1_555
Na28 O35 2.445646 1_545
Na28 O7 2.445646 1_555
Na28 O22 2.516227 1_555
Na29 O58 2.403266 1_555
Na29 O30 2.439745 1_555
Na29 O45 2.494742 1_565
Na29 O29 2.528716 1_555
Na30 O10 2.448795 1_555
Na30 O2 2.460711 1_555
Na30 O27 2.464217 1_555
Na30 O56 2.529603 1_555
Na31 O29 2.368159 1_555
Na31 O20 2.418438 1_555
Na31 O47 2.498906 1_555
Na31 O58 2.539000 1_555
Na32 O28 2.368159 1_555
Na32 O57 2.418438 1_555
Na32 O0 2.498906 1_555
Na32 O53 2.539000 1_555
Na33 O7 2.374069 1_555
Na33 O46 2.391682 1_555
Na33 O22 2.406364 1_555
Na33 O31 2.500652 1_555
Na34 O41 2.374069 1_555
Na34 O13 2.391682 1_555
Na34 O8 2.406364 1_555
Na34 O31 2.500657 1_555
Na35 O35 2.374069 1_555
Na35 O18 2.391682 1_555
Na35 O22 2.406364 1_565
Na35 O32 2.500657 1_555
Na36 O5 2.374069 1_555
Na36 O1 2.391683 1_555
Na36 O8 2.406364 1_455
Na36 O32 2.500652 1_555
Na37 O0 2.446956 1_555
Na37 O28 2.453741 1_555
Na37 O26 2.453741 1_545
Na37 O43 2.507665 1_655
Na38 O10 2.448795 1_565
Na38 O5 2.460711 1_555
Na38 O24 2.464217 1_555
Na38 O1 2.529603 1_555
Na39 O16 2.446956 1_555
Na39 O55 2.453741 1_555
Na39 O38 2.453741 1_555
Na39 O43 2.507665 1_555
Na40 O58 2.417797 1_655
Na40 O21 2.417797 1_555
Na40 O23 2.419290 1_555
Na40 O20 2.469866 1_655
Na41 O26 2.368159 1_555
Na41 O57 2.418438 1_565
Na41 O0 2.498906 1_565
Na41 O4 2.539000 1_555
Na42 O36 2.448795 1_555
Na42 O35 2.460711 1_555
Na42 O15 2.464217 1_555
Na42 O18 2.529603 1_555
Na43 O50 2.412625 1_655
Na43 O11 2.456328 1_556
Na43 O54 2.466150 1_555
Na43 O9 2.481386 1_555
Na44 O49 2.412625 1_555
Na44 O33 2.456328 1_556
Na44 O15 2.466150 1_555
Na44 O52 2.481397 1_555
Cl0 Na32 2.704282 1_555
Cl0 Na0 2.704287 1_555
Cl0 Na13 2.704292 1_555
Cl0 Na43 2.899159 1_554
Cl0 Na10 2.899164 1_554
Cl0 Na7 2.899169 1_554
Cl1 Na31 2.704282 1_555
Cl1 Na41 2.704287 1_555
Cl1 Na2 2.704292 1_555
Cl1 Na8 2.899159 1_554
Cl1 Na27 2.899164 1_554
Cl1 Na44 2.899169 1_554
Cl2 Na16 2.755152 1_555
Cl2 Na18 2.755152 1_555
Cl2 Na25 2.755152 1_445
Cl2 Na37 2.883111 1_456
Cl2 Na39 2.883111 1_556
Cl2 Na14 2.883111 1_446
O0 S4 1.489056 1_554
O1 S1 1.491593 1_565
O2 S11 1.491762 1_555
O3 S3 1.491762 1_555
O4 S9 1.491636 1_555
O5 S3 1.491750 1_555
O6 S6 1.491882 1_555
O7 S11 1.491750 1_555
O8 S7 1.491882 1_655
O9 S11 1.496022 1_555
O10 S5 1.493361 1_555
O11 S12 1.498831 1_655
O12 S0 1.496774 1_555
O13 S6 1.491593 1_555
O14 S14 1.496774 1_555
O15 S4 1.496774 1_565
O16 S14 1.489056 1_554
O17 S5 1.493361 1_555
O18 S6 1.491593 1_555
O19 S2 1.492420 1_555
O20 S12 1.494444 1_555
O21 S10 1.491636 1_555
O22 S1 1.491882 1_555
O23 S7 1.502106 1_655
O24 S0 1.496774 1_455
O25 S8 1.498831 1_555
O26 S2 1.492420 1_555
O27 S14 1.496774 1_555
O28 S12 1.492420 1_655
O29 S8 1.492420 1_565
O30 S13 1.493921 1_565
O31 S10 1.506025 1_555
O32 S9 1.506025 1_555
O33 S2 1.498831 1_555
O34 S5 1.502417 1_555
O35 S3 1.491756 1_555
O36 S5 1.493361 1_665
O37 S13 1.493921 1_655
O38 S12 1.492420 1_555
O39 S13 1.493921 1_555
O40 S2 1.494444 1_555
O41 S11 1.491756 1_555
O42 S10 1.491642 1_555
O43 S13 1.496607 1_555
O44 S9 1.491642 1_555
O45 S1 1.502106 1_555
O46 S7 1.491593 1_655
O47 S0 1.489056 1_454
O48 S6 1.502106 1_555
O49 S14 1.495440 1_555
O50 S0 1.495440 1_455
O51 S4 1.495440 1_555
O52 S3 1.496022 1_555
O53 S10 1.491630 1_555
O54 S4 1.496774 1_555
O55 S8 1.492420 1_555
O56 S1 1.491593 1_555
O57 S8 1.494444 1_555
O58 S9 1.491630 1_555
O59 S7 1.491593 1_555
F0 Na19 2.294080 1_555
F0 Na9 2.294080 1_555
F0 Na17 2.317659 1_555
F0 Na20 2.336136 1_555
F0 Na12 2.424737 1_555
F0 Na23 2.424737 1_555
F1 Na6 2.336774 1_555
F1 Na3 2.365040 1_555
F1 Na42 2.365040 1_555
F1 Na25 2.433022 1_555
F1 Na44 2.470639 1_555
F1 Na7 2.470639 1_555
F2 Na28 2.336774 1_555
F2 Na30 2.365040 1_555
F2 Na38 2.365040 1_545
F2 Na16 2.433022 1_555
F2 Na10 2.470639 1_555
F2 Na8 2.470639 1_545
F3 Na33 2.294080 1_555
F3 Na35 2.294080 1_545
F3 Na26 2.317659 1_555
F3 Na15 2.336136 1_555
F3 Na1 2.424737 1_545
F3 Na11 2.424737 1_555
F4 Na36 2.294080 1_555
F4 Na34 2.294080 1_455
F4 Na40 2.317659 1_455
F4 Na4 2.336136 1_555
F4 Na5 2.424737 1_455
F4 Na29 2.424737 1_555
F5 Na21 2.261231 1_555
F5 Na30 2.261231 1_555
F5 Na6 2.331733 1_555
F5 Na20 2.335013 1_555
F5 Na19 2.532240 1_555
F5 Na9 2.532240 1_555
F6 Na42 2.261231 1_545
F6 Na24 2.261231 1_555
F6 Na28 2.331733 1_555
F6 Na15 2.335013 1_555
F6 Na33 2.532240 1_555
F6 Na35 2.532240 1_545
F7 Na22 2.336774 1_655
F7 Na21 2.365040 1_655
F7 Na24 2.365040 1_555
F7 Na18 2.433022 1_655
F7 Na43 2.470639 1_555
F7 Na27 2.470639 1_655
F8 Na3 2.261231 1_455
F8 Na38 2.261231 1_555
F8 Na22 2.331733 1_555
F8 Na4 2.335013 1_555
F8 Na36 2.532240 1_555
F8 Na34 2.532240 1_455
F9 Na13 2.252829 1_555
F9 Na2 2.252830 1_555
F9 Na12 2.295322 1_555
F9 Na23 2.295322 1_555
F9 Na39 2.297038 1_555
F9 Na17 2.352151 1_555
F10 Na41 2.252830 1_545
F10 Na32 2.252830 1_555
F10 Na1 2.295322 1_545
F10 Na11 2.295322 1_555
F10 Na37 2.297038 1_555
F10 Na26 2.352151 1_555
F11 Na31 2.252829 1_555
F11 Na0 2.252830 1_455
F11 Na5 2.295322 1_455
F11 Na29 2.295322 1_555
F11 Na14 2.297038 1_455
F11 Na40 2.352151 1_455
