# generated using pymatgen
data_Ca2VClO4
_symmetry_space_group_name_H-M   'P 1'
_cell_length_a   6.31526353
_cell_length_b   7.14787495
_cell_length_c   11.05678986
_cell_angle_alpha   90.00000000
_cell_angle_beta   90.00000000
_cell_angle_gamma   90.00000000
_symmetry_Int_Tables_number   1
_chemical_formula_structural   Ca2VClO4
_chemical_formula_sum   'Ca8 V4 Cl4 O16'
_cell_volume   499.11138870
_cell_formula_units_Z   4
loop_
 _symmetry_equiv_pos_site_id
 _symmetry_equiv_pos_as_xyz
  1  'x, y, z'
loop_
 _atom_site_type_symbol
 _atom_site_label
 _atom_site_symmetry_multiplicity
 _atom_site_fract_x
 _atom_site_fract_y
 _atom_site_fract_z
 _atom_site_occupancy
  Ca  Ca0  1  0.85870733  0.97161529  0.25000000  1
  Ca  Ca1  1  0.14129267  0.47161529  0.25000000  1
  Ca  Ca2  1  0.37840912  0.75000000  -0.00000000  1
  Ca  Ca3  1  0.62159088  0.25000000  0.50000000  1
  Ca  Ca4  1  0.85870733  0.52838471  0.75000000  1
  Ca  Ca5  1  0.14129267  0.02838471  0.75000000  1
  Ca  Ca6  1  0.37840912  0.75000000  0.50000000  1
  Ca  Ca7  1  0.62159088  0.25000000  -0.00000000  1
  V  V0  1  0.87350881  0.75000000  -0.00000000  1
  V  V1  1  0.12649119  0.25000000  -0.00000000  1
  V  V2  1  0.87350881  0.75000000  0.50000000  1
  V  V3  1  0.12649119  0.25000000  0.50000000  1
  Cl  Cl0  1  0.51119854  0.80428485  0.75000000  1
  Cl  Cl1  1  0.48880146  0.19571515  0.25000000  1
  Cl  Cl2  1  0.48880146  0.30428485  0.75000000  1
  Cl  Cl3  1  0.51119854  0.69571515  0.25000000  1
  O  O0  1  0.03547376  0.73036332  0.12438146  1
  O  O1  1  0.29036025  0.43527564  0.02921854  1
  O  O2  1  0.03547376  0.76963668  0.87561854  1
  O  O3  1  0.29036025  0.06472436  0.52921854  1
  O  O4  1  0.96452624  0.26963668  0.87561854  1
  O  O5  1  0.70963975  0.56472436  0.52921854  1
  O  O6  1  0.03547376  0.73036332  0.37561854  1
  O  O7  1  0.29036025  0.43527564  0.47078146  1
  O  O8  1  0.70963975  0.93527564  0.02921854  1
  O  O9  1  0.29036025  0.06472436  0.97078146  1
  O  O10  1  0.70963975  0.93527564  0.47078146  1
  O  O11  1  0.96452624  0.23036332  0.37561854  1
  O  O12  1  0.70963975  0.56472436  0.97078146  1
  O  O13  1  0.96452624  0.26963668  0.62438146  1
  O  O14  1  0.96452624  0.23036332  0.12438146  1
  O  O15  1  0.03547376  0.76963668  0.62438146  1
loop_
_geom_bond_atom_site_label_1
_geom_bond_atom_site_label_2
_geom_bond_distance
_geom_bond_site_symmetry_2
Ca0 O14 2.407568 1_565
Ca0 O11 2.407568 1_565
Ca0 O6 2.479722 1_655
Ca0 O0 2.479722 1_655
Ca0 O10 2.629229 1_555
Ca0 O8 2.629229 1_555
Ca0 Cl1 2.832495 1_565
Ca0 Cl3 2.950506 1_555
Ca1 O0 2.407568 1_555
Ca1 O6 2.407568 1_555
Ca1 O14 2.479722 1_455
Ca1 O11 2.479722 1_455
Ca1 O7 2.629229 1_555
Ca1 O1 2.629229 1_555
Ca1 Cl3 2.832495 1_555
Ca1 Cl1 2.950506 1_555
Ca2 O1 2.339724 1_555
Ca2 O9 2.339724 1_564
Ca2 O8 2.496773 1_555
Ca2 O12 2.496773 1_554
Ca2 O2 2.569322 1_554
Ca2 O0 2.569322 1_555
Ca2 Cl3 2.914549 1_555
Ca2 Cl0 2.914549 1_554
Ca3 O10 2.339724 1_545
Ca3 O5 2.339724 1_555
Ca3 O7 2.496773 1_555
Ca3 O3 2.496773 1_555
Ca3 O11 2.569322 1_555
Ca3 O13 2.569322 1_555
Ca3 Cl1 2.914549 1_555
Ca3 Cl2 2.914549 1_555
Ca4 O13 2.407568 1_555
Ca4 O4 2.407568 1_555
Ca4 O15 2.479722 1_655
Ca4 O2 2.479722 1_655
Ca4 O12 2.629229 1_555
Ca4 O5 2.629229 1_555
Ca4 Cl2 2.832495 1_555
Ca4 Cl0 2.950506 1_555
Ca5 O15 2.407568 1_545
Ca5 O2 2.407568 1_545
Ca5 O13 2.479722 1_455
Ca5 O4 2.479722 1_455
Ca5 O9 2.629229 1_555
Ca5 O3 2.629229 1_555
Ca5 Cl0 2.832495 1_545
Ca5 Cl2 2.950506 1_555
Ca6 O7 2.339724 1_555
Ca6 O3 2.339724 1_565
Ca6 O5 2.496773 1_555
Ca6 O10 2.496773 1_555
Ca6 O6 2.569322 1_555
Ca6 O15 2.569322 1_555
Ca6 Cl0 2.914549 1_555
Ca6 Cl3 2.914549 1_555
Ca7 O8 2.339724 1_545
Ca7 O12 2.339724 1_554
Ca7 O9 2.496773 1_554
Ca7 O1 2.496773 1_555
Ca7 O4 2.569322 1_554
Ca7 O14 2.569322 1_555
Ca7 Cl1 2.914549 1_555
Ca7 Cl2 2.914549 1_554
O0 V0 1.719670 1_455
O1 V1 1.711485 1_555
O2 V0 1.719670 1_456
O3 V3 1.711485 1_555
O4 V1 1.719670 1_656
O5 V2 1.711485 1_555
O6 V2 1.719670 1_455
O7 V3 1.711485 1_555
O8 V0 1.711485 1_555
O9 V1 1.711485 1_556
O10 V2 1.711485 1_555
O11 V3 1.719670 1_655
O12 V0 1.711485 1_556
O13 V3 1.719670 1_655
O14 V1 1.719670 1_655
O15 V2 1.719670 1_455
