# generated using pymatgen
data_Hg7(P2Br3)2
_symmetry_space_group_name_H-M   'P 1'
_cell_length_a   20.28818400
_cell_length_b   6.19073600
_cell_length_c   7.73959486
_cell_angle_alpha   76.14638383
_cell_angle_beta   90.00000000
_cell_angle_gamma   90.00000000
_symmetry_Int_Tables_number   1
_chemical_formula_structural   Hg7(P2Br3)2
_chemical_formula_sum   'Hg14 P8 Br12'
_cell_volume   943.80646350
_cell_formula_units_Z   2
loop_
 _symmetry_equiv_pos_site_id
 _symmetry_equiv_pos_as_xyz
  1  'x, y, z'
loop_
 _atom_site_type_symbol
 _atom_site_label
 _atom_site_symmetry_multiplicity
 _atom_site_fract_x
 _atom_site_fract_y
 _atom_site_fract_z
 _atom_site_occupancy
  Hg  Hg0  1  0.00000000  0.00000000  0.00000000  1
  Hg  Hg1  1  0.50000000  0.00000000  0.50000000  1
  Hg  Hg2  1  0.86271700  0.49245500  0.92142600  1
  Hg  Hg3  1  0.36271700  0.50754500  0.57857400  1
  Hg  Hg4  1  0.13728300  0.50754500  0.07857400  1
  Hg  Hg5  1  0.63728300  0.49245500  0.42142600  1
  Hg  Hg6  1  0.76786700  0.90961000  0.18816000  1
  Hg  Hg7  1  0.26786700  0.09039000  0.31184000  1
  Hg  Hg8  1  0.23213300  0.09039000  0.81184000  1
  Hg  Hg9  1  0.73213300  0.90961000  0.68816000  1
  Hg  Hg10  1  0.91163200  0.21711100  0.50876000  1
  Hg  Hg11  1  0.41163200  0.78288900  0.99124000  1
  Hg  Hg12  1  0.08836800  0.78288900  0.49124000  1
  Hg  Hg13  1  0.58836800  0.21711100  0.00876000  1
  P  P0  1  0.89741000  0.14242400  0.83591800  1
  P  P1  1  0.39741000  0.85757600  0.66408200  1
  P  P2  1  0.10259000  0.85757600  0.16408200  1
  P  P3  1  0.60259000  0.14242400  0.33591800  1
  P  P4  1  0.82241500  0.87718000  0.90981400  1
  P  P5  1  0.32241500  0.12282000  0.59018600  1
  P  P6  1  0.17758500  0.12282000  0.09018600  1
  P  P7  1  0.67758500  0.87718000  0.40981400  1
  Br  Br0  1  0.97978700  0.39930400  0.22189300  1
  Br  Br1  1  0.47978700  0.60069600  0.27810700  1
  Br  Br2  1  0.02021300  0.60069600  0.77810700  1
  Br  Br3  1  0.52021300  0.39930400  0.72189300  1
  Br  Br4  1  0.78847500  0.36215500  0.29429700  1
  Br  Br5  1  0.28847500  0.63784500  0.20570300  1
  Br  Br6  1  0.21152500  0.63784500  0.70570300  1
  Br  Br7  1  0.71152500  0.36215500  0.79429700  1
  Br  Br8  1  0.88770700  0.81413900  0.41801900  1
  Br  Br9  1  0.38770700  0.18586100  0.08198100  1
  Br  Br10  1  0.11229300  0.18586100  0.58198100  1
  Br  Br11  1  0.61229300  0.81413900  0.91801900  1
loop_
_geom_bond_atom_site_label_1
_geom_bond_atom_site_label_2
_geom_bond_distance
_geom_bond_site_symmetry_2
Hg0 P0 2.487167 1_454
Hg0 P2 2.487167 1_545
Hg1 P3 2.487167 1_555
Hg1 P1 2.487167 1_545
Hg2 P4 2.499354 1_555
Hg2 P0 2.513130 1_555
Hg3 P5 2.499354 1_555
Hg3 P1 2.513130 1_555
Hg4 P6 2.499354 1_555
Hg4 P2 2.513130 1_555
Hg5 P7 2.499354 1_555
Hg5 P3 2.513130 1_555
Hg6 P4 2.472471 1_554
Hg6 P7 2.484617 1_555
Hg7 P5 2.472471 1_555
Hg7 P6 2.484617 1_555
Hg8 P6 2.472471 1_556
Hg8 P5 2.484617 1_555
Hg9 P7 2.472471 1_555
Hg9 P4 2.484617 1_555
Hg10 P0 2.479469 1_555
Hg11 P1 2.479469 1_555
Hg12 P2 2.479469 1_555
Hg13 P3 2.479469 1_555
P0 P4 2.211042 1_545
P1 P5 2.211042 1_565
P2 P6 2.211042 1_565
P3 P7 2.211042 1_545
Br0 Hg10 2.629517 1_555
Br1 Hg11 2.629517 1_554
Br2 Hg12 2.629517 1_555
Br3 Hg13 2.629517 1_556
Br4 Hg10 3.015098 1_555
Br4 Hg6 3.130588 1_545
Br4 Hg2 3.183220 1_554
Br5 Hg11 3.015098 1_554
Br5 Hg7 3.130588 1_565
Br5 Hg3 3.183220 1_555
Br6 Hg12 3.015098 1_555
Br6 Hg8 3.130588 1_565
Br6 Hg4 3.183220 1_556
Br7 Hg13 3.015098 1_556
Br7 Hg9 3.130588 1_545
Br7 Hg5 3.183220 1_555
Br8 Hg10 2.791297 1_565
Br8 Hg6 2.986986 1_555
Br9 Hg11 2.791297 1_544
Br9 Hg7 2.986986 1_555
Br10 Hg12 2.791297 1_545
Br10 Hg8 2.986986 1_555
Br11 Hg13 2.791297 1_566
Br11 Hg9 2.986986 1_555
