# generated using pymatgen
data_Sm5Si4
_symmetry_space_group_name_H-M   'P 1'
_cell_length_a   7.66701620
_cell_length_b   7.85082837
_cell_length_c   14.97128035
_cell_angle_alpha   90.00000000
_cell_angle_beta   90.00000000
_cell_angle_gamma   90.00042088
_symmetry_Int_Tables_number   1
_chemical_formula_structural   Sm5Si4
_chemical_formula_sum   'Sm20 Si16'
_cell_volume   901.15771896
_cell_formula_units_Z   4
loop_
 _symmetry_equiv_pos_site_id
 _symmetry_equiv_pos_as_xyz
  1  'x, y, z'
loop_
 _atom_site_type_symbol
 _atom_site_label
 _atom_site_symmetry_multiplicity
 _atom_site_fract_x
 _atom_site_fract_y
 _atom_site_fract_z
 _atom_site_occupancy
  Sm  Sm0  1  0.86133290  0.49044455  0.25000000  1
  Sm  Sm1  1  0.31230261  0.18092216  0.87812128  1
  Sm  Sm2  1  0.13866710  0.50955545  0.75000000  1
  Sm  Sm3  1  0.81230419  0.31908402  0.62188135  1
  Sm  Sm4  1  0.46285330  0.68585151  0.59968128  1
  Sm  Sm5  1  0.68769739  0.81907784  0.12187872  1
  Sm  Sm6  1  0.53714670  0.31414849  0.09968128  1
  Sm  Sm7  1  0.96286063  0.81414726  0.90032046  1
  Sm  Sm8  1  0.63867290  0.99044540  0.75000000  1
  Sm  Sm9  1  0.36132710  0.00955460  0.25000000  1
  Sm  Sm10  1  0.53714670  0.31414849  0.40031872  1
  Sm  Sm11  1  0.03713937  0.18585274  0.09967954  1
  Sm  Sm12  1  0.96286063  0.81414726  0.59967954  1
  Sm  Sm13  1  0.18769581  0.68091598  0.12188135  1
  Sm  Sm14  1  0.68769739  0.81907784  0.37812128  1
  Sm  Sm15  1  0.31230261  0.18092216  0.62187872  1
  Sm  Sm16  1  0.46285330  0.68585151  0.90031872  1
  Sm  Sm17  1  0.03713937  0.18585274  0.40032046  1
  Sm  Sm18  1  0.18769581  0.68091598  0.37811865  1
  Sm  Sm19  1  0.81230419  0.31908402  0.87811865  1
  Si  Si0  1  0.51801509  0.40291965  0.75000000  1
  Si  Si1  1  0.13597394  0.47515728  0.95904702  1
  Si  Si2  1  0.63597916  0.02484564  0.95904841  1
  Si  Si3  1  0.24972217  0.87723177  0.75000000  1
  Si  Si4  1  0.25027683  0.37722998  0.25000000  1
  Si  Si5  1  0.86402606  0.52484272  0.04095298  1
  Si  Si6  1  0.75027783  0.12276823  0.25000000  1
  Si  Si7  1  0.48198491  0.59708035  0.25000000  1
  Si  Si8  1  0.36402084  0.97515436  0.04095159  1
  Si  Si9  1  0.98198304  0.90291589  0.25000000  1
  Si  Si10  1  0.86402606  0.52484272  0.45904702  1
  Si  Si11  1  0.36402084  0.97515436  0.45904841  1
  Si  Si12  1  0.74972317  0.62277002  0.75000000  1
  Si  Si13  1  0.13597394  0.47515728  0.54095298  1
  Si  Si14  1  0.01801696  0.09708411  0.75000000  1
  Si  Si15  1  0.63597916  0.02484564  0.54095159  1
loop_
_geom_bond_atom_site_label_1
_geom_bond_atom_site_label_2
_geom_bond_distance
_geom_bond_site_symmetry_2
Si0 Si12 2.476902 1_555
Si0 Sm2 3.026563 1_555
Si0 Sm3 3.033695 1_555
Si0 Sm19 3.033695 1_555
Si0 Sm15 3.033868 1_555
Si0 Sm1 3.033868 1_555
Si0 Sm16 3.190206 1_555
Si0 Sm4 3.190206 1_555
Si0 Sm8 3.367816 1_545
Si1 Si5 2.450137 1_456
Si1 Sm1 2.937967 1_555
Si1 Sm13 2.951227 1_556
Si1 Sm19 3.021183 1_455
Si1 Sm7 3.101207 1_455
Si1 Sm16 3.128915 1_555
Si1 Sm2 3.141399 1_555
Si1 Sm11 3.188387 1_556
Si2 Si8 2.450187 1_546
Si2 Sm19 2.937984 1_555
Si2 Sm5 2.951216 1_546
Si2 Sm1 3.021244 1_555
Si2 Sm16 3.101273 1_545
Si2 Sm7 3.128963 1_545
Si2 Sm8 3.141421 1_545
Si2 Sm6 3.188385 1_556
Si3 Sm2 3.009518 1_555
Si3 Sm1 3.097413 1_565
Si3 Sm15 3.097413 1_565
Si3 Sm8 3.111725 1_555
Si3 Sm16 3.161064 1_555
Si3 Sm4 3.161064 1_555
Si3 Sm12 3.185469 1_455
Si3 Sm7 3.185469 1_455
Si4 Si7 2.476902 1_555
Si4 Sm9 3.009513 1_555
Si4 Sm13 3.097368 1_555
Si4 Sm18 3.097368 1_555
Si4 Sm0 3.111690 1_455
Si4 Sm17 3.161085 1_555
Si4 Sm11 3.161085 1_555
Si4 Sm6 3.185496 1_555
Si4 Sm10 3.185496 1_555
Si5 Sm5 2.937967 1_555
Si5 Sm19 2.951227 1_554
Si5 Sm13 3.021183 1_655
Si5 Sm11 3.101207 1_655
Si5 Sm6 3.128915 1_555
Si5 Sm0 3.141399 1_555
Si5 Sm7 3.188387 1_554
Si6 Si9 2.476915 1_545
Si6 Sm0 3.009518 1_555
Si6 Sm14 3.097413 1_545
Si6 Sm5 3.097413 1_545
Si6 Sm9 3.111725 1_555
Si6 Sm10 3.161064 1_555
Si6 Sm6 3.161064 1_555
Si6 Sm17 3.185469 1_655
Si6 Sm11 3.185469 1_655
Si7 Sm0 3.026563 1_555
Si7 Sm18 3.033695 1_555
Si7 Sm13 3.033695 1_555
Si7 Sm14 3.033868 1_555
Si7 Sm5 3.033868 1_555
Si7 Sm6 3.190206 1_555
Si7 Sm10 3.190206 1_555
Si7 Sm9 3.367816 1_565
Si8 Sm13 2.937984 1_555
Si8 Sm1 2.951216 1_564
Si8 Sm5 3.021244 1_555
Si8 Sm6 3.101273 1_565
Si8 Sm11 3.128963 1_565
Si8 Sm9 3.141421 1_565
Si8 Sm16 3.188385 1_554
Si9 Sm9 3.026529 1_665
Si9 Sm5 3.033697 1_555
Si9 Sm14 3.033697 1_555
Si9 Sm18 3.033869 1_655
Si9 Sm13 3.033869 1_655
Si9 Sm17 3.190242 1_665
Si9 Sm11 3.190242 1_665
Si9 Sm0 3.367765 1_555
Si10 Si13 2.450137 1_655
Si10 Sm14 2.937967 1_555
Si10 Sm3 2.951227 1_555
Si10 Sm18 3.021183 1_655
Si10 Sm17 3.101207 1_655
Si10 Sm10 3.128915 1_555
Si10 Sm0 3.141399 1_555
Si10 Sm12 3.188387 1_555
Si11 Si15 2.450187 1_565
Si11 Sm18 2.937984 1_555
Si11 Sm15 2.951216 1_565
Si11 Sm14 3.021244 1_555
Si11 Sm10 3.101273 1_565
Si11 Sm17 3.128963 1_565
Si11 Sm9 3.141421 1_565
Si11 Sm4 3.188385 1_555
Si12 Sm8 3.009513 1_555
Si12 Sm19 3.097368 1_555
Si12 Sm3 3.097368 1_555
Si12 Sm2 3.111690 1_655
Si12 Sm7 3.161085 1_555
Si12 Sm12 3.161085 1_555
Si12 Sm16 3.185496 1_555
Si12 Sm4 3.185496 1_555
Si13 Sm15 2.937967 1_555
Si13 Sm18 2.951227 1_555
Si13 Sm3 3.021183 1_455
Si13 Sm12 3.101207 1_455
Si13 Sm4 3.128915 1_555
Si13 Sm2 3.141399 1_555
Si13 Sm17 3.188387 1_555
Si14 Si3 2.476915 1_545
Si14 Sm8 3.026529 1_445
Si14 Sm15 3.033697 1_555
Si14 Sm1 3.033697 1_555
Si14 Sm3 3.033869 1_455
Si14 Sm19 3.033869 1_455
Si14 Sm12 3.190242 1_445
Si14 Sm7 3.190242 1_445
Si14 Sm2 3.367765 1_555
Si15 Sm3 2.937984 1_555
Si15 Sm14 2.951216 1_545
Si15 Sm15 3.021244 1_555
Si15 Sm4 3.101273 1_545
Si15 Sm12 3.128963 1_545
Si15 Sm8 3.141421 1_545
Si15 Sm10 3.188385 1_555
