# generated using pymatgen
data_CrP3H17N3O13
_symmetry_space_group_name_H-M   'P 1'
_cell_length_a   10.84072400
_cell_length_b   9.59869900
_cell_length_c   15.88430502
_cell_angle_alpha   55.38463602
_cell_angle_beta   90.00000000
_cell_angle_gamma   90.00000000
_symmetry_Int_Tables_number   1
_chemical_formula_structural   CrP3H17N3O13
_chemical_formula_sum   'Cr4 P12 H68 N12 O52'
_cell_volume   1360.28624912
_cell_formula_units_Z   4
loop_
 _symmetry_equiv_pos_site_id
 _symmetry_equiv_pos_as_xyz
  1  'x, y, z'
loop_
 _atom_site_type_symbol
 _atom_site_label
 _atom_site_symmetry_multiplicity
 _atom_site_fract_x
 _atom_site_fract_y
 _atom_site_fract_z
 _atom_site_occupancy
  Cr  Cr0  1  0.00000000  0.00000000  0.00000000  1
  Cr  Cr1  1  0.00000000  0.50000000  0.50000000  1
  Cr  Cr2  1  0.50000000  0.50000000  0.00000000  1
  Cr  Cr3  1  0.50000000  0.00000000  0.50000000  1
  P  P0  1  0.36771400  0.35794800  0.74333300  1
  P  P1  1  0.08476400  0.85139000  0.63971400  1
  P  P2  1  0.13228600  0.35794800  0.24333300  1
  P  P3  1  0.86771400  0.64205200  0.75666700  1
  P  P4  1  0.63228600  0.64205200  0.25666700  1
  P  P5  1  0.40052400  0.60708800  0.36781100  1
  P  P6  1  0.58476400  0.14861000  0.86028600  1
  P  P7  1  0.59947600  0.39291200  0.63218900  1
  P  P8  1  0.41523600  0.85139000  0.13971400  1
  P  P9  1  0.90052400  0.39291200  0.13218900  1
  P  P10  1  0.09947600  0.60708800  0.86781100  1
  P  P11  1  0.91523600  0.14861000  0.36028600  1
  H  H0  1  0.56286100  0.98640100  0.33996600  1
  H  H1  1  0.78100200  0.31952100  0.55117000  1
  H  H2  1  0.43713900  0.01359900  0.66003400  1
  H  H3  1  0.39879000  0.37198100  0.17972100  1
  H  H4  1  0.21210600  0.61436600  0.74150200  1
  H  H5  1  0.88677100  0.29848100  0.86285100  1
  H  H6  1  0.96773600  0.44741400  0.68431600  1
  H  H7  1  0.25050900  0.98630400  0.21237000  1
  H  H8  1  0.65213900  0.10177000  0.19732700  1
  H  H9  1  0.66176800  0.78863600  0.64377300  1
  H  H10  1  0.13466500  0.27369600  0.93044900  1
  H  H11  1  0.71210600  0.38563400  0.75849800  1
  H  H12  1  0.78789400  0.38563400  0.25849800  1
  H  H13  1  0.37656700  0.73665600  0.00426700  1
  H  H14  1  0.21899800  0.68047900  0.44883000  1
  H  H15  1  0.56032800  0.13200900  0.60283200  1
  H  H16  1  0.60182500  0.64396000  0.40176300  1
  H  H17  1  0.21264900  0.37162100  0.48592400  1
  H  H18  1  0.43967200  0.86799100  0.39716800  1
  H  H19  1  0.53226400  0.44741400  0.18431600  1
  H  H20  1  0.34786100  0.89823000  0.80267300  1
  H  H21  1  0.06032800  0.86799100  0.89716800  1
  H  H22  1  0.28100200  0.68047900  0.94883000  1
  H  H23  1  0.10182500  0.35604000  0.09823700  1
  H  H24  1  0.71703300  0.15563800  0.44056500  1
  H  H25  1  0.78735100  0.62837900  0.51407600  1
  H  H26  1  0.89817500  0.64396000  0.90176300  1
  H  H27  1  0.61798500  0.79156800  0.93869900  1
  H  H28  1  0.16176800  0.21136400  0.85622700  1
  H  H29  1  0.86533500  0.72630400  0.06955100  1
  H  H30  1  0.71899800  0.31952100  0.05117000  1
  H  H31  1  0.28789400  0.61436600  0.24150200  1
  H  H32  1  0.62343300  0.26334400  0.99573300  1
  H  H33  1  0.62206800  0.90344500  0.09758700  1
  H  H34  1  0.21703300  0.84436200  0.05943500  1
  H  H35  1  0.39817500  0.35604000  0.59823700  1
  H  H36  1  0.84786100  0.10177000  0.69732700  1
  H  H37  1  0.88201500  0.79156800  0.43869900  1
  H  H38  1  0.75050900  0.01369600  0.28763000  1
  H  H39  1  0.60121000  0.62801900  0.82027900  1
  H  H40  1  0.93713900  0.98640100  0.83996600  1
  H  H41  1  0.10121000  0.37198100  0.67972100  1
  H  H42  1  0.15213900  0.89823000  0.30267300  1
  H  H43  1  0.12343300  0.73665600  0.50426700  1
  H  H44  1  0.74949100  0.01369600  0.78763000  1
  H  H45  1  0.38677100  0.70151900  0.63714900  1
  H  H46  1  0.28296700  0.84436200  0.55943500  1
  H  H47  1  0.61322900  0.29848100  0.36285100  1
  H  H48  1  0.11322900  0.70151900  0.13714900  1
  H  H49  1  0.93967200  0.13200900  0.10283200  1
  H  H50  1  0.33823200  0.21136400  0.35622700  1
  H  H51  1  0.24949100  0.98630400  0.71237000  1
  H  H52  1  0.28735100  0.37162100  0.98592400  1
  H  H53  1  0.37793200  0.09655500  0.90241300  1
  H  H54  1  0.38201500  0.20843200  0.06130100  1
  H  H55  1  0.83823200  0.78863600  0.14377300  1
  H  H56  1  0.87656700  0.26334400  0.49573300  1
  H  H57  1  0.78296700  0.15563800  0.94056500  1
  H  H58  1  0.36533500  0.27369600  0.43044900  1
  H  H59  1  0.46773600  0.55258600  0.81568400  1
  H  H60  1  0.63466500  0.72630400  0.56955100  1
  H  H61  1  0.87793200  0.90344500  0.59758700  1
  H  H62  1  0.03226400  0.55258600  0.31568400  1
  H  H63  1  0.11798500  0.20843200  0.56130100  1
  H  H64  1  0.12206800  0.09655500  0.40241300  1
  H  H65  1  0.89879000  0.62801900  0.32027900  1
  H  H66  1  0.71264900  0.62837900  0.01407600  1
  H  H67  1  0.06286100  0.01359900  0.16003400  1
  N  N0  1  0.63979400  0.32339300  0.75186700  1
  N  N1  1  0.13979400  0.67660700  0.74813300  1
  N  N2  1  0.44590600  0.38032800  0.64409700  1
  N  N3  1  0.36020600  0.67660700  0.24813300  1
  N  N4  1  0.94590600  0.61967200  0.85590300  1
  N  N5  1  0.06614500  0.19262900  0.34888900  1
  N  N6  1  0.56614500  0.80737100  0.15111100  1
  N  N7  1  0.93385500  0.80737100  0.65111100  1
  N  N8  1  0.55409400  0.61967200  0.35590300  1
  N  N9  1  0.86020600  0.32339300  0.25186700  1
  N  N10  1  0.43385500  0.19262900  0.84888900  1
  N  N11  1  0.05409400  0.38032800  0.14409700  1
  O  O0  1  0.23457800  0.31426500  0.74042200  1
  O  O1  1  0.50883700  0.03794400  0.61134100  1
  O  O2  1  0.12837800  0.68168200  0.46576700  1
  O  O3  1  0.87162200  0.31831800  0.53423300  1
  O  O4  1  0.35100200  0.42644300  0.43819700  1
  O  O5  1  0.88808200  0.48201500  0.75879300  1
  O  O6  1  0.12720100  0.33661700  0.51567400  1
  O  O7  1  0.98448500  0.59809600  0.34966600  1
  O  O8  1  0.37414500  0.82042600  0.57453100  1
  O  O9  1  0.11191800  0.51798500  0.24120700  1
  O  O10  1  0.16550200  0.99422400  0.23213600  1
  O  O11  1  0.85663700  0.28234600  0.09765500  1
  O  O12  1  0.63591400  0.82921300  0.57278000  1
  O  O13  1  0.73457800  0.68573500  0.75957800  1
  O  O14  1  0.48448500  0.40190400  0.15033400  1
  O  O15  1  0.36408600  0.17078700  0.42722000  1
  O  O16  1  0.33449800  0.99422400  0.73213600  1
  O  O17  1  0.14899800  0.42644300  0.93819700  1
  O  O18  1  0.11061900  0.00792800  0.63801200  1
  O  O19  1  0.36150100  0.85360500  0.04970800  1
  O  O20  1  0.86150100  0.14639500  0.45029200  1
  O  O21  1  0.49116300  0.96205600  0.38865900  1
  O  O22  1  0.12585500  0.82042600  0.07453100  1
  O  O23  1  0.87414500  0.17957400  0.92546900  1
  O  O24  1  0.38938100  0.00792800  0.13801200  1
  O  O25  1  0.35663700  0.71765400  0.40234500  1
  O  O26  1  0.62585500  0.17957400  0.42546900  1
  O  O27  1  0.85100200  0.57355700  0.06180300  1
  O  O28  1  0.86408600  0.82921300  0.07278000  1
  O  O29  1  0.01551500  0.40190400  0.65033400  1
  O  O30  1  0.00883700  0.96205600  0.88865900  1
  O  O31  1  0.62837800  0.31831800  0.03423300  1
  O  O32  1  0.66550200  0.00577600  0.26786400  1
  O  O33  1  0.13849900  0.85360500  0.54970800  1
  O  O34  1  0.14336300  0.71765400  0.90234500  1
  O  O35  1  0.61191800  0.48201500  0.25879300  1
  O  O36  1  0.37279900  0.33661700  0.01567400  1
  O  O37  1  0.83449800  0.00577600  0.76786400  1
  O  O38  1  0.13591400  0.17078700  0.92722000  1
  O  O39  1  0.88938100  0.99207200  0.36198800  1
  O  O40  1  0.99116300  0.03794400  0.11134100  1
  O  O41  1  0.87279900  0.66338300  0.48432600  1
  O  O42  1  0.38808200  0.51798500  0.74120700  1
  O  O43  1  0.61061900  0.99207200  0.86198800  1
  O  O44  1  0.62720100  0.66338300  0.98432600  1
  O  O45  1  0.51551500  0.59809600  0.84966600  1
  O  O46  1  0.76542200  0.68573500  0.25957800  1
  O  O47  1  0.63849900  0.14639500  0.95029200  1
  O  O48  1  0.37162200  0.68168200  0.96576700  1
  O  O49  1  0.26542200  0.31426500  0.24042200  1
  O  O50  1  0.64336300  0.28234600  0.59765500  1
  O  O51  1  0.64899800  0.57355700  0.56180300  1
loop_
_geom_bond_atom_site_label_1
_geom_bond_atom_site_label_2
_geom_bond_distance
_geom_bond_site_symmetry_2
Cr0 O22 1.978811 1_545
Cr0 O23 1.978811 1_454
Cr0 O40 2.000377 1_455
Cr0 O30 2.000377 1_544
Cr0 O28 2.010388 1_445
Cr0 O38 2.010388 1_554
Cr1 O41 1.994829 1_455
Cr1 O6 1.994829 1_555
Cr1 O29 2.015598 1_555
Cr1 O7 2.015598 1_455
Cr1 O2 2.048511 1_555
Cr1 O3 2.048511 1_455
Cr2 O44 1.994829 1_554
Cr2 O36 1.994829 1_555
Cr2 O45 2.015598 1_554
Cr2 O14 2.015598 1_555
Cr2 O31 2.048511 1_555
Cr2 O48 2.048511 1_554
Cr3 O8 1.978811 1_545
Cr3 O26 1.978811 1_555
Cr3 O1 2.000377 1_555
Cr3 O21 2.000377 1_545
Cr3 O15 2.010388 1_555
Cr3 O12 2.010388 1_545
H0 O21 1.025487 1_555
H0 O32 1.530488 1_565
H1 O3 1.020355 1_555
H1 O50 1.612319 1_555
H2 O1 1.025487 1_555
H2 O16 1.530488 1_545
H3 O14 1.005535 1_555
H3 O49 1.649261 1_555
H4 N1 1.026662 1_555
H5 O23 1.010425 1_555
H5 O5 1.589819 1_555
H6 O29 1.009141 1_655
H6 O5 1.643737 1_555
H7 O10 0.990305 1_555
H8 O32 0.975930 1_555
H9 O12 1.001449 1_555
H9 O13 1.708238 1_555
H10 O38 1.017895 1_555
H10 O17 1.547242 1_555
H11 N0 1.026662 1_555
H12 N9 1.026662 1_555
H13 O48 1.010908 1_554
H13 O19 1.651777 1_555
H14 O2 1.020355 1_555
H14 O25 1.612319 1_555
H15 O1 1.003214 1_555
H15 O50 1.662707 1_555
H16 N8 1.022587 1_555
H17 O6 1.006915 1_555
H17 O4 1.627249 1_555
H18 O21 1.003214 1_555
H18 O25 1.662707 1_555
H19 O14 1.009141 1_555
H19 O35 1.643737 1_555
H20 O16 0.975930 1_555
H21 O30 1.003214 1_555
H21 O34 1.662707 1_555
H22 O48 1.020355 1_555
H22 O34 1.612319 1_555
H23 N11 1.022587 1_555
H24 O26 1.012274 1_555
H24 O20 1.571292 1_555
H25 O41 1.006915 1_555
H25 O51 1.627249 1_555
H26 N4 1.022587 1_555
H27 O44 1.017851 1_555
H27 O43 1.590844 1_555
H28 O38 1.001449 1_555
H28 O0 1.708238 1_555
H29 O28 1.017895 1_555
H29 O27 1.547242 1_555
H30 O31 1.020355 1_555
H30 O11 1.612319 1_555
H31 N3 1.026662 1_555
H32 O31 1.010908 1_556
H32 O47 1.651777 1_555
H33 N6 1.024706 1_555
H34 O22 1.012274 1_555
H34 O19 1.571292 1_555
H35 N2 1.022587 1_555
H36 O37 0.975930 1_555
H37 O41 1.017851 1_555
H37 O39 1.590844 1_555
H38 O32 0.990305 1_555
H39 O45 1.005535 1_555
H39 O13 1.649261 1_555
H40 O30 1.025487 1_655
H40 O37 1.530488 1_565
H41 O29 1.005535 1_555
H41 O0 1.649261 1_555
H42 O10 0.975930 1_555
H43 O2 1.010908 1_555
H43 O33 1.651777 1_555
H44 O37 0.990305 1_555
H45 O8 1.010425 1_555
H45 O42 1.589819 1_555
H46 O8 1.012274 1_555
H46 O33 1.571292 1_555
H47 O26 1.010425 1_555
H47 O35 1.589819 1_555
H48 O22 1.010425 1_555
H48 O9 1.589819 1_555
H49 O40 1.003214 1_555
H49 O11 1.662707 1_555
H50 O15 1.001449 1_555
H50 O49 1.708238 1_555
H51 O16 0.990305 1_555
H52 O36 1.006915 1_556
H52 O17 1.627249 1_555
H53 N10 1.024706 1_555
H54 O36 1.017851 1_555
H54 O24 1.590844 1_555
H55 O28 1.001449 1_555
H55 O46 1.708238 1_555
H56 O3 1.010908 1_555
H56 O20 1.651777 1_555
H57 O23 1.012274 1_555
H57 O47 1.571292 1_555
H58 O15 1.017895 1_555
H58 O4 1.547242 1_555
H59 O45 1.009141 1_555
H59 O42 1.643737 1_555
H60 O12 1.017895 1_555
H60 O51 1.547242 1_555
H61 N7 1.024706 1_555
H62 O7 1.009141 1_455
H62 O9 1.643737 1_555
H63 O6 1.017851 1_555
H63 O18 1.590844 1_555
H64 N5 1.024706 1_555
H65 O7 1.005535 1_555
H65 O46 1.649261 1_555
H66 O44 1.006915 1_554
H66 O27 1.627249 1_555
H67 O40 1.025487 1_455
H67 O10 1.530488 1_545
N0 P7 1.675982 1_555
N0 P6 1.689322 1_555
N1 P10 1.675982 1_555
N1 P1 1.689322 1_555
N2 P7 1.672125 1_555
N2 P0 1.692532 1_555
N3 P5 1.675982 1_555
N3 P8 1.689322 1_555
N4 P10 1.672125 1_655
N4 P3 1.692532 1_555
N5 P11 1.673550 1_455
N5 P2 1.679474 1_555
N6 P8 1.673550 1_555
N6 P4 1.679474 1_555
N7 P1 1.673550 1_655
N7 P3 1.679474 1_555
N8 P5 1.672125 1_555
N8 P4 1.692532 1_555
N9 P9 1.675982 1_555
N9 P11 1.689322 1_555
N10 P6 1.673550 1_555
N10 P0 1.679474 1_555
N11 P9 1.672125 1_455
N11 P2 1.692532 1_555
O0 P0 1.510982 1_555
O4 P5 1.530455 1_555
O5 P3 1.533201 1_555
O9 P2 1.533201 1_555
O11 P9 1.521517 1_555
O13 P3 1.510982 1_555
O17 P10 1.530455 1_555
O18 P1 1.513549 1_545
O19 P8 1.532725 1_555
O20 P11 1.532725 1_555
O24 P8 1.513549 1_545
O25 P5 1.521517 1_555
O27 P9 1.530455 1_555
O33 P1 1.532725 1_555
O34 P10 1.521517 1_555
O35 P4 1.533201 1_555
O39 P11 1.513549 1_565
O42 P0 1.533201 1_555
O43 P6 1.513549 1_565
O46 P4 1.510982 1_555
O47 P6 1.532725 1_555
O49 P2 1.510982 1_555
O50 P7 1.521517 1_555
O51 P7 1.530455 1_555
