# generated using pymatgen
data_Pr3(Al2Si3)2
_symmetry_space_group_name_H-M   'P 1'
_cell_length_a   4.17959982
_cell_length_b   4.17959963
_cell_length_c   18.21338897
_cell_angle_alpha   90.00000000
_cell_angle_beta   90.00000000
_cell_angle_gamma   119.99999360
_symmetry_Int_Tables_number   1
_chemical_formula_structural   Pr3(Al2Si3)2
_chemical_formula_sum   'Pr3 Al4 Si6'
_cell_volume   275.54390320
_cell_formula_units_Z   1
loop_
 _symmetry_equiv_pos_site_id
 _symmetry_equiv_pos_as_xyz
  1  'x, y, z'
loop_
 _atom_site_type_symbol
 _atom_site_label
 _atom_site_symmetry_multiplicity
 _atom_site_fract_x
 _atom_site_fract_y
 _atom_site_fract_z
 _atom_site_occupancy
  Pr  Pr0  1  -0.00000000  -0.00000000  0.38792556  1
  Pr  Pr1  1  0.00000000  -0.00000000  0.00000000  1
  Pr  Pr2  1  0.00000000  0.00000000  0.61207444  1
  Al  Al0  1  0.33333300  0.66666700  0.24303785  1
  Al  Al1  1  0.66666700  0.33333300  0.14050633  1
  Al  Al2  1  0.33333300  0.66666700  0.85949367  1
  Al  Al3  1  0.66666700  0.33333300  0.75696315  1
  Si  Si0  1  0.33333300  0.66666700  0.10439232  1
  Si  Si1  1  0.66666700  0.33333300  0.50320189  1
  Si  Si2  1  0.33333300  0.66666700  0.49679811  1
  Si  Si3  1  0.33333300  0.66666700  0.72030332  1
  Si  Si4  1  0.66666700  0.33333300  0.89560768  1
  Si  Si5  1  0.66666700  0.33333300  0.27969668  1
loop_
_geom_bond_atom_site_label_1
_geom_bond_atom_site_label_2
_geom_bond_distance
_geom_bond_site_symmetry_2
Pr0 Si5 3.115878 1_455
Pr0 Si5 3.115881 1_445
Pr0 Si5 3.115881 1_555
Pr0 Si2 3.123307 1_545
Pr0 Si2 3.123310 1_555
Pr0 Si2 3.123310 1_445
Pr0 Si1 3.198626 1_455
Pr0 Si1 3.198629 1_445
Pr0 Si1 3.198629 1_555
Pr1 Si0 3.072148 1_545
Pr1 Si4 3.072148 1_454
Pr1 Si4 3.072151 1_444
Pr1 Si0 3.072151 1_555
Pr1 Si4 3.072151 1_554
Pr1 Si0 3.072151 1_445
Pr2 Si3 3.115878 1_545
Pr2 Si3 3.115881 1_555
Pr2 Si3 3.115881 1_445
Pr2 Si1 3.123307 1_455
Pr2 Si1 3.123310 1_445
Pr2 Si1 3.123310 1_555
Pr2 Si2 3.198626 1_545
Pr2 Si2 3.198629 1_555
Pr2 Si2 3.198629 1_445
Al0 Si5 2.503758 1_565
Al0 Si5 2.503758 1_455
Al0 Si5 2.503765 1_555
Al0 Si0 2.525205 1_555
Al1 Si0 2.501130 1_545
Al1 Si0 2.501130 1_655
Al1 Si0 2.501137 1_555
Al1 Si5 2.535128 1_555
Al2 Si4 2.501130 1_565
Al2 Si4 2.501130 1_455
Al2 Si4 2.501137 1_555
Al2 Si3 2.535128 1_555
Al3 Si3 2.503763 1_545
Al3 Si3 2.503763 1_655
Al3 Si3 2.503770 1_555
Al3 Si4 2.525187 1_555
Si1 Si2 2.415908 1_545
Si1 Si2 2.415908 1_655
Si1 Si2 2.415915 1_555
