# generated using pymatgen
data_K2Mn2Zn4Si4O15
_symmetry_space_group_name_H-M   'P 1'
_cell_length_a   9.57890531
_cell_length_b   10.54807742
_cell_length_c   9.57902594
_cell_angle_alpha   105.97852222
_cell_angle_beta   66.94704190
_cell_angle_gamma   74.01374830
_symmetry_Int_Tables_number   1
_chemical_formula_structural   K2Mn2Zn4Si4O15
_chemical_formula_sum   'K4 Mn4 Zn8 Si8 O30'
_cell_volume   771.65669364
_cell_formula_units_Z   2
loop_
 _symmetry_equiv_pos_site_id
 _symmetry_equiv_pos_as_xyz
  1  'x, y, z'
loop_
 _atom_site_type_symbol
 _atom_site_label
 _atom_site_symmetry_multiplicity
 _atom_site_fract_x
 _atom_site_fract_y
 _atom_site_fract_z
 _atom_site_occupancy
  K  K0  1  0.61656900  0.96780300  0.61643000  1
  K  K1  1  0.61657400  0.46778500  0.61642000  1
  K  K2  1  0.38347400  0.46793100  0.38353600  1
  K  K3  1  0.38347600  0.96794000  0.38351200  1
  Mn  Mn0  1  0.15624000  0.11616100  0.84378000  1
  Mn  Mn1  1  0.84379700  0.77242100  0.15619300  1
  Mn  Mn2  1  0.15605700  0.61631600  0.84396100  1
  Mn  Mn3  1  0.84395100  0.27236000  0.15603500  1
  Zn  Zn0  1  0.99610900  0.91677300  0.61816700  1
  Zn  Zn1  1  0.99612200  0.41676500  0.61816900  1
  Zn  Zn2  1  0.61813700  0.10576900  0.99613700  1
  Zn  Zn3  1  0.61813700  0.60576200  0.99612400  1
  Zn  Zn4  1  0.38182700  0.41677200  0.00387900  1
  Zn  Zn5  1  0.38182900  0.91678000  0.00389200  1
  Zn  Zn6  1  0.00386300  0.60575700  0.38186000  1
  Zn  Zn7  1  0.00385000  0.10576800  0.38186100  1
  Si  Si0  1  0.67220400  0.63487400  0.32777200  1
  Si  Si1  1  0.67220300  0.13490100  0.32777400  1
  Si  Si2  1  0.32782100  0.30708200  0.67218500  1
  Si  Si3  1  0.32780100  0.80703200  0.67220500  1
  Si  Si4  1  0.19455000  0.25484300  0.19457000  1
  Si  Si5  1  0.19455800  0.75485700  0.19460500  1
  Si  Si6  1  0.80543800  0.25485100  0.80544300  1
  Si  Si7  1  0.80540800  0.75486500  0.80543700  1
  O  O0  1  0.49997600  0.27014400  0.49996400  1
  O  O1  1  0.49996300  0.77017600  0.49997700  1
  O  O2  1  0.67700500  0.98065600  0.32298400  1
  O  O3  1  0.67703100  0.48060500  0.32295500  1
  O  O4  1  0.32313500  0.15761600  0.67690100  1
  O  O5  1  0.32297800  0.65758000  0.67706200  1
  O  O6  1  0.21499500  0.41065100  0.21501400  1
  O  O7  1  0.21500000  0.91065500  0.21501000  1
  O  O8  1  0.78499100  0.91066000  0.78498400  1
  O  O9  1  0.78498500  0.41065900  0.78499000  1
  O  O10  1  0.90574200  0.22889800  0.90558000  1
  O  O11  1  0.90559400  0.72897000  0.90569200  1
  O  O12  1  0.09441000  0.22888200  0.09428900  1
  O  O13  1  0.09430100  0.72895500  0.09443800  1
  O  O14  1  0.66763300  0.16919800  0.17189400  1
  O  O15  1  0.66762300  0.66920200  0.17190700  1
  O  O16  1  0.17184800  0.41707300  0.66769900  1
  O  O17  1  0.17190500  0.91702000  0.66765600  1
  O  O18  1  0.33242400  0.91699500  0.82803900  1
  O  O19  1  0.33238300  0.41704600  0.82809500  1
  O  O20  1  0.82803900  0.66922500  0.33242000  1
  O  O21  1  0.82805000  0.16922500  0.33241000  1
  O  O22  1  0.91023100  0.11466500  0.61451900  1
  O  O23  1  0.91023300  0.61466300  0.61451600  1
  O  O24  1  0.38548200  0.11465300  0.08978100  1
  O  O25  1  0.38548800  0.61465200  0.08977900  1
  O  O26  1  0.61451200  0.26253100  0.91023300  1
  O  O27  1  0.61450200  0.76253800  0.91024300  1
  O  O28  1  0.08977700  0.26251700  0.38550200  1
  O  O29  1  0.08976500  0.76252300  0.38551600  1
loop_
_geom_bond_atom_site_label_1
_geom_bond_atom_site_label_2
_geom_bond_distance
_geom_bond_site_symmetry_2
K0 O4 2.689100 1_565
K0 O2 2.689507 1_555
K0 O8 2.759181 1_555
K0 O1 2.795624 1_555
K0 O20 2.979321 1_555
K0 O18 2.980757 1_555
K1 O3 2.689510 1_555
K1 O5 2.689545 1_555
K1 O9 2.759196 1_555
K1 O0 2.795686 1_555
K1 O21 2.979205 1_555
K1 O19 2.980849 1_555
K2 O5 2.689229 1_555
K2 O3 2.689522 1_555
K2 O6 2.759680 1_555
K2 O0 2.795540 1_555
K2 O14 2.980785 1_555
K2 O16 2.981262 1_555
K3 O4 2.688942 1_565
K3 O2 2.689528 1_555
K3 O7 2.759522 1_555
K3 O1 2.795578 1_555
K3 O15 2.980765 1_555
K3 O17 2.981344 1_555
Mn0 O4 2.017612 1_555
Mn0 O10 2.109602 1_455
Mn0 O12 2.109734 1_556
Mn0 O18 2.226604 1_545
Mn0 O17 2.226699 1_545
Mn1 O2 2.016336 1_555
Mn1 O11 2.109738 1_554
Mn1 O13 2.109747 1_655
Mn1 O15 2.226931 1_555
Mn1 O20 2.227078 1_555
Mn2 O5 2.016535 1_555
Mn2 O11 2.109370 1_455
Mn2 O13 2.109544 1_556
Mn2 O19 2.227446 1_555
Mn2 O16 2.227503 1_555
Mn3 O3 2.016854 1_555
Mn3 O10 2.109304 1_554
Mn3 O12 2.109327 1_655
Mn3 O14 2.227564 1_555
Mn3 O21 2.227716 1_555
O0 Si2 1.659634 1_555
O0 Si1 1.659654 1_555
O1 Si0 1.659950 1_555
O1 Si3 1.659977 1_555
O2 Si1 1.602291 1_565
O3 Si0 1.602414 1_555
O4 Si2 1.601955 1_555
O5 Si3 1.602575 1_555
O6 Si4 1.675661 1_555
O6 Zn6 2.060345 1_555
O6 Zn4 2.060551 1_555
O7 Si5 1.675585 1_555
O7 Zn5 2.060450 1_555
O7 Zn7 2.060458 1_565
O8 Si7 1.675539 1_555
O8 Zn0 2.060331 1_555
O8 Zn2 2.060514 1_565
O9 Si6 1.675636 1_555
O9 Zn3 2.060402 1_555
O9 Zn1 2.060433 1_555
O10 Si6 1.624698 1_555
O11 Si7 1.624700 1_555
O12 Si4 1.624607 1_555
O13 Si5 1.624629 1_555
O14 Si1 1.643850 1_555
O14 Zn2 1.920045 1_554
O15 Si0 1.643894 1_555
O15 Zn3 1.920219 1_554
O16 Si2 1.644092 1_555
O16 Zn1 1.919922 1_455
O17 Si3 1.643891 1_555
O17 Zn0 1.920231 1_455
O18 Si3 1.643901 1_555
O18 Zn5 1.920246 1_556
O19 Si2 1.644096 1_555
O19 Zn4 1.919931 1_556
O20 Si0 1.643958 1_555
O20 Zn6 1.920201 1_655
O21 Si1 1.643901 1_555
O21 Zn7 1.920051 1_655
O22 Si6 1.671734 1_555
O22 Zn7 2.013234 1_655
O22 Zn0 2.037630 1_545
O23 Si7 1.671765 1_555
O23 Zn6 2.013180 1_655
O23 Zn1 2.037724 1_555
O24 Si4 1.671692 1_555
O24 Zn2 2.013226 1_554
O24 Zn5 2.037597 1_545
O25 Si5 1.671721 1_555
O25 Zn3 2.013149 1_554
O25 Zn4 2.037713 1_555
O26 Si6 1.671763 1_555
O26 Zn4 2.013147 1_556
O26 Zn2 2.037740 1_555
O27 Si7 1.671656 1_555
O27 Zn5 2.013063 1_556
O27 Zn3 2.037732 1_555
O28 Si4 1.671834 1_555
O28 Zn1 2.013196 1_455
O28 Zn7 2.037830 1_555
O29 Si5 1.671730 1_555
O29 Zn0 2.013093 1_455
O29 Zn6 2.037836 1_555
