# generated using pymatgen
data_B2Se2O7
_symmetry_space_group_name_H-M   'P 1'
_cell_length_a   7.54156797
_cell_length_b   7.91362621
_cell_length_c   9.06623459
_cell_angle_alpha   90.00000000
_cell_angle_beta   90.00000000
_cell_angle_gamma   90.00000000
_symmetry_Int_Tables_number   1
_chemical_formula_structural   B2Se2O7
_chemical_formula_sum   'B8 Se8 O28'
_cell_volume   541.08330606
_cell_formula_units_Z   4
loop_
 _symmetry_equiv_pos_site_id
 _symmetry_equiv_pos_as_xyz
  1  'x, y, z'
loop_
 _atom_site_type_symbol
 _atom_site_label
 _atom_site_symmetry_multiplicity
 _atom_site_fract_x
 _atom_site_fract_y
 _atom_site_fract_z
 _atom_site_occupancy
  B  B0  1  0.09747917  0.94985028  0.85253955  1
  B  B1  1  0.07161383  0.98333105  0.35637611  1
  B  B2  1  0.90252083  0.44985028  0.64746045  1
  B  B3  1  0.59747917  0.55014972  0.14746045  1
  B  B4  1  0.42838617  0.01666895  0.85637611  1
  B  B5  1  0.92838617  0.48333105  0.14362389  1
  B  B6  1  0.57161383  0.51666895  0.64362389  1
  B  B7  1  0.40252083  0.05014972  0.35253955  1
  Se  Se0  1  0.59294888  0.89484129  0.12415689  1
  Se  Se1  1  0.07488186  0.16779074  0.09750634  1
  Se  Se2  1  0.92511814  0.66779074  0.40249366  1
  Se  Se3  1  0.42511814  0.83220926  0.59750634  1
  Se  Se4  1  0.40705112  0.39484129  0.37584311  1
  Se  Se5  1  0.90705112  0.10515871  0.62415689  1
  Se  Se6  1  0.57488186  0.33220926  0.90249366  1
  Se  Se7  1  0.09294888  0.60515871  0.87584311  1
  O  O0  1  0.99492498  0.49856082  0.29928449  1
  O  O1  1  0.51194267  0.20214118  0.38858678  1
  O  O2  1  0.91226292  0.03519672  0.44599265  1
  O  O3  1  0.41708823  0.01165370  0.19102856  1
  O  O4  1  0.91708823  0.48834630  0.80897144  1
  O  O5  1  0.22297172  0.08004405  0.38861783  1
  O  O6  1  0.08773708  0.53519672  0.05400735  1
  O  O7  1  0.98805733  0.79785882  0.88858678  1
  O  O8  1  0.41226292  0.46480328  0.55400735  1
  O  O9  1  0.00748907  0.09394330  0.92855931  1
  O  O10  1  0.48805733  0.70214118  0.11141322  1
  O  O11  1  0.50748907  0.40605670  0.07144069  1
  O  O12  1  0.99251093  0.59394330  0.57144069  1
  O  O13  1  0.08291177  0.98834630  0.69102856  1
  O  O14  1  0.01194267  0.29785882  0.61141322  1
  O  O15  1  0.10579338  0.79942722  0.38083602  1
  O  O16  1  0.58773708  0.96480328  0.94599265  1
  O  O17  1  0.49251093  0.90605670  0.42855931  1
  O  O18  1  0.58291177  0.51165370  0.30897144  1
  O  O19  1  0.00507502  0.99856082  0.20071551  1
  O  O20  1  0.27702828  0.91995595  0.88861783  1
  O  O21  1  0.89420662  0.29942722  0.11916398  1
  O  O22  1  0.72297172  0.41995595  0.61138217  1
  O  O23  1  0.50507502  0.50143918  0.79928449  1
  O  O24  1  0.77702828  0.58004405  0.11138217  1
  O  O25  1  0.49492498  0.00143918  0.70071551  1
  O  O26  1  0.60579338  0.70057278  0.61916398  1
  O  O27  1  0.39420662  0.20057278  0.88083602  1
loop_
_geom_bond_atom_site_label_1
_geom_bond_atom_site_label_2
_geom_bond_distance
_geom_bond_site_symmetry_2
B0 O20 1.412974 1_555
B0 O7 1.494831 1_455
B0 O9 1.495287 1_565
B0 O13 1.499680 1_555
B1 O5 1.405053 1_565
B1 O15 1.494541 1_555
B1 O19 1.502657 1_555
B1 O2 1.507585 1_465
B2 O22 1.412974 1_555
B2 O14 1.494831 1_655
B2 O12 1.495287 1_555
B2 O4 1.499680 1_555
B3 O24 1.412974 1_555
B3 O10 1.494831 1_555
B3 O11 1.495287 1_555
B3 O18 1.499680 1_555
B4 O20 1.405053 1_545
B4 O27 1.494541 1_555
B4 O25 1.502657 1_555
B4 O16 1.507585 1_545
B5 O24 1.405053 1_555
B5 O21 1.494541 1_555
B5 O0 1.502657 1_555
B5 O6 1.507585 1_655
B6 O22 1.405053 1_555
B6 O26 1.494541 1_555
B6 O23 1.502657 1_555
B6 O8 1.507585 1_555
B7 O5 1.412974 1_555
B7 O1 1.494831 1_555
B7 O17 1.495287 1_545
B7 O3 1.499680 1_555
O0 Se2 1.716461 1_555
O1 Se4 1.721800 1_555
O2 Se5 1.707982 1_555
O3 Se0 1.726581 1_545
O4 Se7 1.726581 1_655
O6 Se7 1.707982 1_554
O7 Se7 1.721800 1_655
O8 Se4 1.707982 1_555
O9 Se1 1.716387 1_556
O10 Se0 1.721800 1_555
O11 Se6 1.716387 1_554
O12 Se2 1.716387 1_555
O13 Se5 1.726581 1_465
O14 Se5 1.721800 1_455
O15 Se2 1.726369 1_455
O16 Se0 1.707982 1_556
O17 Se3 1.716387 1_555
O18 Se4 1.726581 1_555
O19 Se1 1.716461 1_565
O21 Se1 1.726369 1_655
O23 Se6 1.716461 1_555
O25 Se3 1.716461 1_545
O26 Se3 1.726369 1_555
O27 Se6 1.726369 1_555
