# generated using pymatgen
data_Ce3Si11Pt23
_symmetry_space_group_name_H-M   'P 1'
_cell_length_a   12.06293622
_cell_length_b   12.06293622
_cell_length_c   12.06293622
_cell_angle_alpha   60.00000000
_cell_angle_beta   60.00000000
_cell_angle_gamma   60.00000000
_symmetry_Int_Tables_number   1
_chemical_formula_structural   Ce3Si11Pt23
_chemical_formula_sum   'Ce6 Si22 Pt46'
_cell_volume   1241.20665826
_cell_formula_units_Z   2
loop_
 _symmetry_equiv_pos_site_id
 _symmetry_equiv_pos_as_xyz
  1  'x, y, z'
loop_
 _atom_site_type_symbol
 _atom_site_label
 _atom_site_symmetry_multiplicity
 _atom_site_fract_x
 _atom_site_fract_y
 _atom_site_fract_z
 _atom_site_occupancy
  Ce  Ce0  1  0.50000000  0.00000000  0.50000000  1
  Ce  Ce1  1  0.00000000  0.50000000  0.50000000  1
  Ce  Ce2  1  0.50000000  0.50000000  0.00000000  1
  Ce  Ce3  1  0.50000000  0.00000000  0.00000000  1
  Ce  Ce4  1  0.00000000  0.00000000  0.50000000  1
  Ce  Ce5  1  0.00000000  0.50000000  0.00000000  1
  Si  Si0  1  0.16563700  0.16563700  0.16563700  1
  Si  Si1  1  0.83436300  0.83436300  0.49691100  1
  Si  Si2  1  0.82945200  0.17054800  0.82945200  1
  Si  Si3  1  0.50308900  0.16563700  0.16563700  1
  Si  Si4  1  0.39368400  0.39368400  0.39368400  1
  Si  Si5  1  0.16563700  0.50308900  0.16563700  1
  Si  Si6  1  0.17054800  0.82945200  0.82945200  1
  Si  Si7  1  0.60631600  0.18105200  0.60631600  1
  Si  Si8  1  0.39368400  0.39368400  0.81894800  1
  Si  Si9  1  0.17054800  0.82945200  0.17054800  1
  Si  Si10  1  0.17054800  0.17054800  0.82945200  1
  Si  Si11  1  0.81894800  0.39368400  0.39368400  1
  Si  Si12  1  0.82945200  0.82945200  0.17054800  1
  Si  Si13  1  0.83436300  0.83436300  0.83436300  1
  Si  Si14  1  0.82945200  0.17054800  0.17054800  1
  Si  Si15  1  0.16563700  0.16563700  0.50308900  1
  Si  Si16  1  0.60631600  0.60631600  0.60631600  1
  Si  Si17  1  0.60631600  0.60631600  0.18105200  1
  Si  Si18  1  0.39368400  0.81894800  0.39368400  1
  Si  Si19  1  0.49691100  0.83436300  0.83436300  1
  Si  Si20  1  0.83436300  0.49691100  0.83436300  1
  Si  Si21  1  0.18105200  0.60631600  0.60631600  1
  Pt  Pt0  1  0.37426700  0.62573300  0.37426700  1
  Pt  Pt1  1  0.25193500  0.57926200  0.91686700  1
  Pt  Pt2  1  0.74806500  0.08313300  0.42073800  1
  Pt  Pt3  1  0.42073800  0.74806500  0.74806500  1
  Pt  Pt4  1  0.08307600  0.08307600  0.75077200  1
  Pt  Pt5  1  0.25193500  0.25193500  0.91686700  1
  Pt  Pt6  1  0.37426700  0.62573300  0.62573300  1
  Pt  Pt7  1  0.57926200  0.25193500  0.25193500  1
  Pt  Pt8  1  0.74806500  0.42073800  0.08313300  1
  Pt  Pt9  1  0.08313300  0.74806500  0.42073800  1
  Pt  Pt10  1  0.25193500  0.91686700  0.25193500  1
  Pt  Pt11  1  0.57926200  0.25193500  0.91686700  1
  Pt  Pt12  1  0.74806500  0.42073800  0.74806500  1
  Pt  Pt13  1  0.74806500  0.74806500  0.42073800  1
  Pt  Pt14  1  0.91692400  0.91692400  0.24922800  1
  Pt  Pt15  1  0.75077200  0.08307600  0.08307600  1
  Pt  Pt16  1  0.62573300  0.62573300  0.37426700  1
  Pt  Pt17  1  0.69140700  0.69140700  0.92578000  1
  Pt  Pt18  1  0.92578000  0.69140700  0.69140700  1
  Pt  Pt19  1  0.42073800  0.74806500  0.08313300  1
  Pt  Pt20  1  0.08307600  0.08307600  0.08307600  1
  Pt  Pt21  1  0.08313300  0.42073800  0.74806500  1
  Pt  Pt22  1  0.91692400  0.91692400  0.91692400  1
  Pt  Pt23  1  0.74806500  0.74806500  0.08313300  1
  Pt  Pt24  1  0.07422000  0.30859300  0.30859300  1
  Pt  Pt25  1  0.69140700  0.69140700  0.69140700  1
  Pt  Pt26  1  0.91686700  0.25193500  0.25193500  1
  Pt  Pt27  1  0.08313300  0.74806500  0.74806500  1
  Pt  Pt28  1  0.30859300  0.30859300  0.07422000  1
  Pt  Pt29  1  0.08307600  0.75077200  0.08307600  1
  Pt  Pt30  1  0.74806500  0.08313300  0.74806500  1
  Pt  Pt31  1  0.25193500  0.57926200  0.25193500  1
  Pt  Pt32  1  0.24922800  0.91692400  0.91692400  1
  Pt  Pt33  1  0.91692400  0.24922800  0.91692400  1
  Pt  Pt34  1  0.91686700  0.57926200  0.25193500  1
  Pt  Pt35  1  0.37426700  0.37426700  0.62573300  1
  Pt  Pt36  1  0.91686700  0.25193500  0.57926200  1
  Pt  Pt37  1  0.25193500  0.25193500  0.57926200  1
  Pt  Pt38  1  0.62573300  0.37426700  0.62573300  1
  Pt  Pt39  1  0.69140700  0.92578000  0.69140700  1
  Pt  Pt40  1  0.30859300  0.07422000  0.30859300  1
  Pt  Pt41  1  0.42073800  0.08313300  0.74806500  1
  Pt  Pt42  1  0.30859300  0.30859300  0.30859300  1
  Pt  Pt43  1  0.62573300  0.37426700  0.37426700  1
  Pt  Pt44  1  0.25193500  0.91686700  0.57926200  1
  Pt  Pt45  1  0.57926200  0.91686700  0.25193500  1
loop_
_geom_bond_atom_site_label_1
_geom_bond_atom_site_label_2
_geom_bond_distance
_geom_bond_site_symmetry_2
Ce0 Pt37 3.170980 1_555
Ce0 Pt13 3.170980 1_545
Ce0 Pt3 3.170980 1_545
Ce0 Pt7 3.170980 1_555
Ce0 Pt44 3.170987 1_545
Ce0 Pt2 3.170987 1_555
Ce0 Pt41 3.170987 1_555
Ce0 Pt45 3.170987 1_545
Ce1 Pt13 3.170980 1_455
Ce1 Pt12 3.170980 1_455
Ce1 Pt37 3.170980 1_555
Ce1 Pt31 3.170980 1_555
Ce1 Pt36 3.170987 1_455
Ce1 Pt9 3.170987 1_555
Ce1 Pt34 3.170987 1_455
Ce1 Pt21 3.170987 1_555
Ce2 Pt31 3.170980 1_555
Ce2 Pt3 3.170980 1_554
Ce2 Pt12 3.170980 1_554
Ce2 Pt7 3.170980 1_555
Ce2 Pt1 3.170987 1_554
Ce2 Pt8 3.170987 1_555
Ce2 Pt11 3.170987 1_554
Ce2 Pt19 3.170987 1_555
Ce3 Pt19 3.170976 1_545
Ce3 Pt41 3.170976 1_554
Ce3 Pt11 3.170976 1_554
Ce3 Pt45 3.170976 1_545
Ce3 Pt23 3.170983 1_545
Ce3 Pt30 3.170983 1_554
Ce3 Pt5 3.170983 1_554
Ce3 Pt10 3.170983 1_545
Ce4 Pt9 3.170976 1_545
Ce4 Pt2 3.170976 1_455
Ce4 Pt44 3.170976 1_545
Ce4 Pt36 3.170976 1_455
Ce4 Pt26 3.170983 1_455
Ce4 Pt10 3.170983 1_545
Ce4 Pt30 3.170983 1_455
Ce4 Pt27 3.170983 1_545
Ce5 Pt21 3.170976 1_554
Ce5 Pt8 3.170976 1_455
Ce5 Pt34 3.170976 1_455
Ce5 Pt1 3.170976 1_554
Ce5 Pt5 3.170983 1_554
Ce5 Pt27 3.170983 1_554
Ce5 Pt26 3.170983 1_455
Ce5 Pt23 3.170983 1_455
Pt0 Si17 2.586267 1_555
Pt0 Si21 2.586267 1_555
Pt0 Si18 2.586267 1_555
Pt0 Si4 2.586267 1_555
Pt1 Si5 2.451236 1_556
Pt1 Si6 2.464565 1_555
Pt1 Si8 2.475293 1_555
Pt2 Si1 2.451236 1_545
Pt2 Si14 2.464565 1_555
Pt2 Si7 2.475293 1_555
Pt3 Si19 2.451226 1_555
Pt3 Si6 2.464566 1_555
Pt3 Si16 2.475300 1_555
Pt4 Si15 2.439516 1_555
Pt4 Si10 2.498781 1_555
Pt4 Si2 2.498781 1_455
Pt4 Si6 2.498781 1_545
Pt5 Si0 2.451236 1_556
Pt5 Si10 2.464556 1_555
Pt5 Si8 2.475302 1_555
Pt6 Si16 2.586267 1_555
Pt6 Si8 2.586267 1_555
Pt6 Si18 2.586267 1_555
Pt6 Si21 2.586267 1_555
Pt7 Si3 2.451226 1_555
Pt7 Si14 2.464566 1_555
Pt7 Si4 2.475300 1_555
Pt8 Si20 2.451236 1_554
Pt8 Si14 2.464565 1_555
Pt8 Si17 2.475293 1_555
Pt9 Si1 2.451236 1_455
Pt9 Si9 2.464565 1_555
Pt9 Si21 2.475293 1_555
Pt10 Si0 2.451236 1_565
Pt10 Si9 2.464556 1_555
Pt10 Si18 2.475302 1_555
Pt11 Si3 2.451236 1_556
Pt11 Si2 2.464565 1_555
Pt11 Si8 2.475293 1_555
Pt12 Si20 2.451226 1_555
Pt12 Si2 2.464566 1_555
Pt12 Si16 2.475300 1_555
Pt13 Si1 2.451226 1_555
Pt13 Si12 2.464566 1_555
Pt13 Si16 2.475300 1_555
Pt14 Si1 2.439516 1_555
Pt14 Si9 2.498781 1_655
Pt14 Si14 2.498781 1_565
Pt14 Si12 2.498781 1_555
Pt15 Si3 2.439516 1_555
Pt15 Si14 2.498781 1_555
Pt15 Si2 2.498781 1_554
Pt15 Si12 2.498781 1_545
Pt16 Si16 2.586267 1_555
Pt16 Si11 2.586267 1_555
Pt16 Si18 2.586267 1_555
Pt16 Si17 2.586267 1_555
Pt17 Si17 2.514262 1_556
Pt17 Si13 2.516766 1_555
Pt17 Si19 2.516776 1_555
Pt17 Si20 2.516776 1_555
Pt18 Si21 2.514262 1_655
Pt18 Si13 2.516766 1_555
Pt18 Si20 2.516776 1_555
Pt18 Si1 2.516776 1_555
Pt19 Si19 2.451236 1_554
Pt19 Si9 2.464565 1_555
Pt19 Si17 2.475293 1_555
Pt20 Si0 2.439516 1_555
Pt20 Si10 2.498781 1_554
Pt20 Si14 2.498781 1_455
Pt20 Si9 2.498781 1_545
Pt21 Si20 2.451236 1_455
Pt21 Si10 2.464565 1_555
Pt21 Si21 2.475293 1_555
Pt22 Si13 2.439516 1_555
Pt22 Si6 2.498781 1_655
Pt22 Si2 2.498781 1_565
Pt22 Si12 2.498781 1_556
Pt23 Si13 2.451236 1_554
Pt23 Si12 2.464556 1_555
Pt23 Si17 2.475302 1_555
Pt24 Si11 2.514262 1_455
Pt24 Si0 2.516766 1_555
Pt24 Si15 2.516776 1_555
Pt24 Si5 2.516776 1_555
Pt25 Si16 2.514272 1_555
Pt25 Si19 2.516769 1_555
Pt25 Si1 2.516769 1_555
Pt25 Si20 2.516769 1_555
Pt26 Si0 2.451236 1_655
Pt26 Si14 2.464556 1_555
Pt26 Si11 2.475302 1_555
Pt27 Si13 2.451236 1_455
Pt27 Si6 2.464556 1_555
Pt27 Si21 2.475302 1_555
Pt28 Si8 2.514262 1_554
Pt28 Si0 2.516766 1_555
Pt28 Si3 2.516776 1_555
Pt28 Si5 2.516776 1_555
Pt29 Si5 2.439516 1_555
Pt29 Si9 2.498781 1_555
Pt29 Si6 2.498781 1_554
Pt29 Si12 2.498781 1_455
Pt30 Si13 2.451236 1_545
Pt30 Si2 2.464556 1_555
Pt30 Si7 2.475302 1_555
Pt31 Si5 2.451226 1_555
Pt31 Si9 2.464566 1_555
Pt31 Si4 2.475300 1_555
Pt32 Si19 2.439516 1_555
Pt32 Si9 2.498781 1_556
Pt32 Si10 2.498781 1_565
Pt32 Si6 2.498781 1_555
Pt33 Si20 2.439516 1_555
Pt33 Si10 2.498781 1_655
Pt33 Si2 2.498781 1_555
Pt33 Si14 2.498781 1_556
Pt34 Si5 2.451236 1_655
Pt34 Si12 2.464565 1_555
Pt34 Si11 2.475293 1_555
Pt35 Si8 2.586267 1_555
Pt35 Si7 2.586267 1_555
Pt35 Si21 2.586267 1_555
Pt35 Si4 2.586267 1_555
Pt36 Si15 2.451236 1_655
Pt36 Si2 2.464565 1_555
Pt36 Si11 2.475293 1_555
Pt37 Si15 2.451226 1_555
Pt37 Si10 2.464566 1_555
Pt37 Si4 2.475300 1_555
Pt38 Si16 2.586267 1_555
Pt38 Si11 2.586267 1_555
Pt38 Si8 2.586267 1_555
Pt38 Si7 2.586267 1_555
Pt39 Si7 2.514262 1_565
Pt39 Si13 2.516766 1_555
Pt39 Si19 2.516776 1_555
Pt39 Si1 2.516776 1_555
Pt40 Si18 2.514262 1_545
Pt40 Si0 2.516766 1_555
Pt40 Si3 2.516776 1_555
Pt40 Si15 2.516776 1_555
Pt41 Si19 2.451236 1_545
Pt41 Si10 2.464565 1_555
Pt41 Si7 2.475293 1_555
Pt42 Si4 2.514272 1_555
Pt42 Si15 2.516769 1_555
Pt42 Si5 2.516769 1_555
Pt42 Si3 2.516769 1_555
Pt43 Si7 2.586267 1_555
Pt43 Si17 2.586267 1_555
Pt43 Si4 2.586267 1_555
Pt43 Si11 2.586267 1_555
Pt44 Si15 2.451236 1_565
Pt44 Si6 2.464565 1_555
Pt44 Si18 2.475293 1_555
Pt45 Si3 2.451236 1_565
Pt45 Si12 2.464565 1_555
Pt45 Si18 2.475293 1_555
