# generated using pymatgen
data_B
_symmetry_space_group_name_H-M   'P 1'
_cell_length_a   5.05030670
_cell_length_b   8.60577013
_cell_length_c   8.60577013
_cell_angle_alpha   90.00000000
_cell_angle_beta   90.00000000
_cell_angle_gamma   90.00000000
_symmetry_Int_Tables_number   1
_chemical_formula_structural   B
_chemical_formula_sum   B50
_cell_volume   374.02207561
_cell_formula_units_Z   50
loop_
 _symmetry_equiv_pos_site_id
 _symmetry_equiv_pos_as_xyz
  1  'x, y, z'
loop_
 _atom_site_type_symbol
 _atom_site_label
 _atom_site_symmetry_multiplicity
 _atom_site_fract_x
 _atom_site_fract_y
 _atom_site_fract_z
 _atom_site_occupancy
  B  B0  1  0.36920418  0.88048516  0.38048516  1
  B  B1  1  0.15432241  0.07818614  0.16789804  1
  B  B2  1  0.34181039  0.33186575  0.97809346  1
  B  B3  1  0.34181039  0.02190654  0.66813425  1
  B  B4  1  0.84181039  0.97809346  0.16813425  1
  B  B5  1  0.83487603  0.00432247  0.50432247  1
  B  B6  1  0.84181039  0.83186575  0.02190654  1
  B  B7  1  0.65818961  0.83186575  0.47809346  1
  B  B8  1  0.86920418  0.11951484  0.88048516  1
  B  B9  1  0.75000000  0.75000000  0.25000000  1
  B  B10  1  0.34567759  0.83210196  0.57818614  1
  B  B11  1  0.34567759  0.42181386  0.16789804  1
  B  B12  1  0.34181039  0.16813425  0.52190654  1
  B  B13  1  0.36920418  0.61951484  0.11951484  1
  B  B14  1  0.13079582  0.88048516  0.11951484  1
  B  B15  1  0.15432241  0.66789804  0.57818614  1
  B  B16  1  0.65432241  0.16789804  0.42181386  1
  B  B17  1  0.66512397  0.00432247  0.99567753  1
  B  B18  1  0.65432241  0.57818614  0.83210196  1
  B  B19  1  0.34567759  0.07818614  0.33210196  1
  B  B20  1  0.16512397  0.99567753  0.49567753  1
  B  B21  1  0.15432241  0.42181386  0.33210196  1
  B  B22  1  0.33487603  0.50432247  0.49567753  1
  B  B23  1  0.66512397  0.49567753  0.50432247  1
  B  B24  1  0.33487603  0.99567753  0.00432247  1
  B  B25  1  0.84181039  0.66813425  0.47809346  1
  B  B26  1  0.86920418  0.38048516  0.61951484  1
  B  B27  1  0.83487603  0.49567753  0.99567753  1
  B  B28  1  0.65818961  0.52190654  0.16813425  1
  B  B29  1  0.13079582  0.61951484  0.38048516  1
  B  B30  1  0.84567759  0.33210196  0.42181386  1
  B  B31  1  0.15818961  0.47809346  0.66813425  1
  B  B32  1  0.34181039  0.47809346  0.83186575  1
  B  B33  1  0.15818961  0.02190654  0.83186575  1
  B  B34  1  0.65818961  0.66813425  0.02190654  1
  B  B35  1  0.84567759  0.16789804  0.07818614  1
  B  B36  1  0.15818961  0.16813425  0.97809346  1
  B  B37  1  0.84567759  0.57818614  0.66789804  1
  B  B38  1  0.65432241  0.33210196  0.07818614  1
  B  B39  1  0.63079582  0.38048516  0.88048516  1
  B  B40  1  0.34567759  0.66789804  0.92181386  1
  B  B41  1  0.15818961  0.33186575  0.52190654  1
  B  B42  1  0.65818961  0.97809346  0.33186575  1
  B  B43  1  0.65432241  0.92181386  0.66789804  1
  B  B44  1  0.25000000  0.25000000  0.75000000  1
  B  B45  1  0.84567759  0.92181386  0.83210196  1
  B  B46  1  0.16512397  0.50432247  0.00432247  1
  B  B47  1  0.63079582  0.11951484  0.61951484  1
  B  B48  1  0.15432241  0.83210196  0.92181386  1
  B  B49  1  0.84181039  0.52190654  0.33186575  1
loop_
_geom_bond_atom_site_label_1
_geom_bond_atom_site_label_2
_geom_bond_distance
_geom_bond_site_symmetry_2
B0 B7 1.735135 1_555
B0 B42 1.735135 1_555
B0 B20 1.740030 1_555
B0 B19 1.755603 1_565
B0 B10 1.755603 1_555
B1 B19 1.711955 1_555
B1 B14 1.755603 1_545
B1 B4 1.798039 1_445
B1 B36 1.807654 1_554
B1 B24 1.821331 1_545
B1 B35 1.903102 1_455
B2 B36 1.686815 1_555
B2 B39 1.735135 1_555
B2 B46 1.746370 1_556
B2 B32 1.779649 1_555
B2 B38 1.798039 1_556
B2 B44 2.136443 1_555
B3 B33 1.686815 1_555
B3 B47 1.735135 1_555
B3 B43 1.798039 1_545
B3 B44 2.136443 1_555
B4 B42 1.686815 1_555
B4 B6 1.779649 1_555
B4 B9 2.136443 1_555
B5 B7 1.746370 1_545
B6 B9 2.136443 1_555
B7 B9 2.136443 1_555
B10 B15 1.711955 1_555
B10 B7 1.798039 1_555
B10 B3 1.807654 1_565
B10 B20 1.821331 1_555
B10 B43 1.903102 1_555
B11 B21 1.711955 1_555
B11 B13 1.755603 1_555
B11 B28 1.798039 1_555
B11 B2 1.807654 1_554
B11 B46 1.821331 1_555
B11 B38 1.903102 1_555
B12 B41 1.686815 1_555
B12 B47 1.735135 1_555
B12 B20 1.746370 1_545
B12 B3 1.779649 1_555
B12 B16 1.798039 1_555
B12 B19 1.807654 1_555
B12 B44 2.136443 1_555
B13 B28 1.735135 1_555
B13 B34 1.735135 1_555
B13 B46 1.740030 1_555
B13 B40 1.755603 1_554
B14 B6 1.735135 1_455
B14 B4 1.735135 1_455
B14 B24 1.740030 1_555
B14 B48 1.755603 1_554
B15 B29 1.755603 1_555
B15 B25 1.798039 1_455
B15 B31 1.807654 1_555
B15 B22 1.821331 1_555
B15 B37 1.903102 1_455
B16 B30 1.711955 1_555
B16 B47 1.755603 1_555
B16 B42 1.807654 1_545
B16 B5 1.821331 1_555
B16 B19 1.903102 1_555
B17 B24 1.671169 1_546
B17 B8 1.740030 1_555
B17 B6 1.746370 1_546
B17 B4 1.746370 1_546
B17 B35 1.821331 1_556
B17 B45 1.821331 1_545
B18 B37 1.711955 1_555
B18 B39 1.755603 1_555
B18 B32 1.798039 1_555
B18 B34 1.807654 1_556
B18 B27 1.821331 1_555
B18 B40 1.903102 1_555
B19 B42 1.798039 1_545
B19 B20 1.821331 1_545
B20 B5 1.671169 1_465
B20 B3 1.746370 1_565
B21 B29 1.755603 1_555
B21 B49 1.798039 1_455
B21 B41 1.807654 1_555
B21 B22 1.821331 1_555
B21 B30 1.903102 1_455
B22 B23 1.671169 1_555
B22 B29 1.740030 1_555
B22 B41 1.746370 1_555
B22 B31 1.746370 1_555
B23 B26 1.740030 1_555
B23 B49 1.746370 1_555
B23 B25 1.746370 1_555
B23 B37 1.821331 1_555
B23 B30 1.821331 1_555
B24 B33 1.746370 1_564
B24 B36 1.746370 1_564
B24 B48 1.821331 1_554
B25 B7 1.686815 1_555
B25 B29 1.735135 1_655
B25 B49 1.779649 1_555
B25 B37 1.807654 1_555
B25 B9 2.136443 1_555
B26 B41 1.735135 1_655
B26 B31 1.735135 1_655
B26 B30 1.755603 1_555
B26 B37 1.755603 1_555
B27 B46 1.671169 1_656
B27 B39 1.740030 1_555
B27 B34 1.746370 1_556
B27 B28 1.746370 1_556
B27 B38 1.821331 1_556
B28 B49 1.686815 1_555
B28 B34 1.779649 1_555
B28 B38 1.807654 1_555
B28 B9 2.136443 1_555
B29 B49 1.735135 1_455
B30 B41 1.798039 1_655
B30 B49 1.807654 1_555
B31 B32 1.686815 1_555
B31 B41 1.779649 1_555
B31 B37 1.798039 1_455
B31 B44 2.136443 1_555
B32 B39 1.735135 1_555
B32 B46 1.746370 1_556
B32 B40 1.807654 1_555
B32 B44 2.136443 1_555
B33 B8 1.735135 1_455
B33 B36 1.779649 1_555
B33 B45 1.798039 1_445
B33 B48 1.807654 1_545
B33 B44 2.136443 1_555
B34 B6 1.686815 1_555
B34 B40 1.798039 1_554
B34 B9 2.136443 1_555
B35 B38 1.711955 1_555
B35 B8 1.755603 1_554
B35 B36 1.798039 1_654
B35 B4 1.807654 1_545
B36 B8 1.735135 1_455
B36 B44 2.136443 1_555
B38 B39 1.755603 1_554
B40 B48 1.711955 1_555
B40 B46 1.821331 1_556
B41 B44 2.136443 1_555
B42 B5 1.746370 1_565
B42 B7 1.779649 1_555
B42 B9 2.136443 1_555
B43 B45 1.711955 1_555
B43 B47 1.755603 1_565
B43 B7 1.807654 1_555
B43 B5 1.821331 1_565
B45 B8 1.755603 1_565
B45 B6 1.807654 1_556
B45 B48 1.903102 1_655
B47 B5 1.740030 1_555
B48 B6 1.798039 1_456
B49 B9 2.136443 1_555
