# generated using pymatgen
data_U3Tl2(IO5)4
_symmetry_space_group_name_H-M   'P 1'
_cell_length_a   7.09117700
_cell_length_b   8.22626366
_cell_length_c   9.27675696
_cell_angle_alpha   90.57414338
_cell_angle_beta   105.32521001
_cell_angle_gamma   91.68868151
_symmetry_Int_Tables_number   1
_chemical_formula_structural   U3Tl2(IO5)4
_chemical_formula_sum   'U3 Tl2 I4 O20'
_cell_volume   521.59103611
_cell_formula_units_Z   1
loop_
 _symmetry_equiv_pos_site_id
 _symmetry_equiv_pos_as_xyz
  1  'x, y, z'
loop_
 _atom_site_type_symbol
 _atom_site_label
 _atom_site_symmetry_multiplicity
 _atom_site_fract_x
 _atom_site_fract_y
 _atom_site_fract_z
 _atom_site_occupancy
  U  U0  1  0.55154100  0.92229600  0.19374200  1
  U  U1  1  0.44845900  0.07770400  0.80625800  1
  U  U2  1  0.00000000  0.00000000  0.00000000  1
  Tl  Tl0  1  0.75132300  0.41043600  0.15551500  1
  Tl  Tl1  1  0.24867700  0.58956400  0.84448500  1
  I  I0  1  0.29625400  0.35131800  0.44194200  1
  I  I1  1  0.87653800  0.20239800  0.62289700  1
  I  I2  1  0.12346200  0.79760200  0.37710300  1
  I  I3  1  0.70374600  0.64868200  0.55805800  1
  O  O0  1  0.90972000  0.39855600  0.71754800  1
  O  O1  1  0.69025800  0.01116500  0.01284100  1
  O  O2  1  0.56950300  0.81100000  0.44149700  1
  O  O3  1  0.30974200  0.98883500  0.98715900  1
  O  O4  1  0.22727700  0.90998200  0.23671300  1
  O  O5  1  0.42488100  0.87007700  0.72686100  1
  O  O6  1  0.89162500  0.89669900  0.29165200  1
  O  O7  1  0.46587500  0.28892000  0.87612400  1
  O  O8  1  0.04371200  0.28787100  0.44222800  1
  O  O9  1  0.35133000  0.52105600  0.57716600  1
  O  O10  1  0.64867000  0.47894400  0.42283400  1
  O  O11  1  0.10837500  0.10330100  0.70834800  1
  O  O12  1  0.57511900  0.12992300  0.27313900  1
  O  O13  1  0.95628800  0.71212900  0.55777200  1
  O  O14  1  0.77272300  0.09001800  0.76328700  1
  O  O15  1  0.53412500  0.71108000  0.12387600  1
  O  O16  1  0.95176200  0.79086200  0.92785600  1
  O  O17  1  0.09028000  0.60144400  0.28245200  1
  O  O18  1  0.04823800  0.20913800  0.07214400  1
  O  O19  1  0.43049700  0.18900000  0.55850300  1
loop_
_geom_bond_atom_site_label_1
_geom_bond_atom_site_label_2
_geom_bond_distance
_geom_bond_site_symmetry_2
I0 O9 1.830196 1_555
I0 O19 1.848814 1_555
I0 O8 1.851191 1_555
I1 O0 1.808375 1_555
I1 O11 1.843564 1_655
I1 O14 1.893028 1_555
I1 O8 2.394470 1_655
I2 O17 1.808375 1_555
I2 O6 1.843564 1_455
I2 O4 1.893028 1_555
I2 O13 2.394470 1_455
I3 O10 1.830196 1_555
I3 O2 1.848814 1_555
I3 O13 1.851191 1_555
O0 Tl1 2.806615 1_655
O1 U2 2.235381 1_655
O1 U0 2.274447 1_545
O1 U1 2.291650 1_554
O2 U0 2.455856 1_555
O3 U2 2.235381 1_566
O3 U1 2.274447 1_565
O3 U0 2.291650 1_556
O4 U0 2.434763 1_555
O4 U2 2.489999 1_565
O5 U1 1.838631 1_565
O6 U0 2.358185 1_555
O7 U1 1.837599 1_555
O9 Tl1 2.819136 1_555
O10 Tl0 2.819136 1_555
O11 U1 2.358185 1_555
O12 U0 1.838631 1_545
O14 U1 2.434763 1_555
O14 U2 2.489999 1_656
O15 U0 1.837599 1_555
O16 U2 1.829210 1_666
O17 Tl0 2.806615 1_455
O18 U2 1.829210 1_555
O19 U1 2.455856 1_555
