# generated using pymatgen
data_Pr3(AgSn)4
_symmetry_space_group_name_H-M   'P 1'
_cell_length_a   10.33003347
_cell_length_b   10.33003347
_cell_length_c   10.33003347
_cell_angle_alpha   159.17234279
_cell_angle_beta   128.86452307
_cell_angle_gamma   55.79640916
_symmetry_Int_Tables_number   1
_chemical_formula_structural   Pr3(AgSn)4
_chemical_formula_sum   'Pr3 Ag4 Sn4'
_cell_volume   303.99235884
_cell_formula_units_Z   1
loop_
 _symmetry_equiv_pos_site_id
 _symmetry_equiv_pos_as_xyz
  1  'x, y, z'
loop_
 _atom_site_type_symbol
 _atom_site_label
 _atom_site_symmetry_multiplicity
 _atom_site_fract_x
 _atom_site_fract_y
 _atom_site_fract_z
 _atom_site_occupancy
  Pr  Pr0  1  0.16892600  0.66892600  0.50000000  1
  Pr  Pr1  1  0.50000000  0.50000000  0.00000000  1
  Pr  Pr2  1  0.83107400  0.33107400  0.50000000  1
  Ag  Ag0  1  0.40130100  0.11578900  0.28551200  1
  Ag  Ag1  1  0.16972300  0.88421100  0.28551200  1
  Ag  Ag2  1  0.83027700  0.11578900  0.71448800  1
  Ag  Ag3  1  0.59869900  0.88421100  0.71448800  1
  Sn  Sn0  1  0.31646100  0.31646100  0.00000000  1
  Sn  Sn1  1  0.84447500  0.50000000  0.34447500  1
  Sn  Sn2  1  0.68353900  0.68353900  0.00000000  1
  Sn  Sn3  1  0.15552500  0.50000000  0.65552500  1
loop_
_geom_bond_atom_site_label_1
_geom_bond_atom_site_label_2
_geom_bond_distance
_geom_bond_site_symmetry_2
Pr0 Sn0 3.277692 1_566
Pr0 Sn0 3.277692 1_555
Pr0 Sn1 3.381807 1_455
Pr0 Sn3 3.381807 1_555
Pr1 Sn3 3.071487 1_554
Pr1 Sn1 3.071487 1_555
Pr1 Sn0 3.351231 1_555
Pr1 Sn2 3.351231 1_555
Pr2 Sn2 3.277692 1_545
Pr2 Sn2 3.277692 1_556
Pr2 Sn3 3.381807 1_655
Pr2 Sn1 3.381807 1_555
Ag0 Sn2 2.945220 1_545
Ag0 Sn2 2.945220 1_556
Ag0 Sn3 3.049529 1_555
Ag0 Sn3 3.049529 1_544
Ag0 Pr0 3.302829 1_544
Ag0 Pr0 3.302829 1_555
Ag0 Pr1 3.407907 1_556
Ag0 Pr1 3.407907 1_545
Ag1 Sn0 2.945220 1_555
Ag1 Sn0 2.945220 1_566
Ag1 Sn3 3.049529 1_565
Ag1 Sn3 3.049529 1_554
Ag1 Pr2 3.302829 1_454
Ag1 Pr2 3.302829 1_465
Ag1 Pr1 3.407907 1_555
Ag1 Pr1 3.407907 1_566
Ag2 Sn2 2.945220 1_556
Ag2 Sn2 2.945220 1_545
Ag2 Sn1 3.049529 1_545
Ag2 Sn1 3.049529 1_556
Ag2 Pr0 3.302829 1_645
Ag2 Pr0 3.302829 1_656
Ag2 Pr1 3.407907 1_556
Ag2 Pr1 3.407907 1_545
Ag3 Sn0 2.945220 1_566
Ag3 Sn0 2.945220 1_555
Ag3 Sn1 3.049529 1_555
Ag3 Sn1 3.049529 1_566
Ag3 Pr2 3.302829 1_566
Ag3 Pr2 3.302829 1_555
Ag3 Pr1 3.407907 1_566
Ag3 Pr1 3.407907 1_555
Sn1 Sn3 2.773455 1_655
