# generated using pymatgen
data_TlPPbS4
_symmetry_space_group_name_H-M   'P 1'
_cell_length_a   6.66462400
_cell_length_b   8.94671000
_cell_length_c   12.52310700
_cell_angle_alpha   90.00000000
_cell_angle_beta   90.00000000
_cell_angle_gamma   90.00000000
_symmetry_Int_Tables_number   1
_chemical_formula_structural   TlPPbS4
_chemical_formula_sum   'Tl4 P4 Pb4 S16'
_cell_volume   746.70851591
_cell_formula_units_Z   4
loop_
 _symmetry_equiv_pos_site_id
 _symmetry_equiv_pos_as_xyz
  1  'x, y, z'
loop_
 _atom_site_type_symbol
 _atom_site_label
 _atom_site_symmetry_multiplicity
 _atom_site_fract_x
 _atom_site_fract_y
 _atom_site_fract_z
 _atom_site_occupancy
  Tl  Tl0  1  0.75000000  0.62909100  0.39170400  1
  Tl  Tl1  1  0.25000000  0.37090900  0.60829600  1
  Tl  Tl2  1  0.25000000  0.12909100  0.10829600  1
  Tl  Tl3  1  0.75000000  0.87090900  0.89170400  1
  P  P0  1  0.25000000  0.87339700  0.34692200  1
  P  P1  1  0.75000000  0.12660300  0.65307800  1
  P  P2  1  0.75000000  0.37339700  0.15307800  1
  P  P3  1  0.25000000  0.62660300  0.84692200  1
  Pb  Pb0  1  0.25000000  0.89514600  0.62960100  1
  Pb  Pb1  1  0.75000000  0.10485400  0.37039900  1
  Pb  Pb2  1  0.75000000  0.39514600  0.87039900  1
  Pb  Pb3  1  0.25000000  0.60485400  0.12960100  1
  S  S0  1  0.25000000  0.69477000  0.45023700  1
  S  S1  1  0.75000000  0.30523000  0.54976300  1
  S  S2  1  0.75000000  0.19477000  0.04976300  1
  S  S3  1  0.25000000  0.80523000  0.95023700  1
  S  S4  1  0.25000000  0.07179100  0.43091400  1
  S  S5  1  0.75000000  0.92820900  0.56908600  1
  S  S6  1  0.75000000  0.57179100  0.06908600  1
  S  S7  1  0.25000000  0.42820900  0.93091400  1
  S  S8  1  0.00399200  0.86335800  0.24849700  1
  S  S9  1  0.50399200  0.13664200  0.75150300  1
  S  S10  1  0.99600800  0.36335800  0.25150300  1
  S  S11  1  0.49600800  0.63664200  0.74849700  1
  S  S12  1  0.99600800  0.13664200  0.75150300  1
  S  S13  1  0.49600800  0.86335800  0.24849700  1
  S  S14  1  0.00399200  0.63664200  0.74849700  1
  S  S15  1  0.50399200  0.36335800  0.25150300  1
loop_
_geom_bond_atom_site_label_1
_geom_bond_atom_site_label_2
_geom_bond_distance
_geom_bond_site_symmetry_2
P0 S8 2.053160 1_555
P0 S13 2.053160 1_555
P0 S0 2.056206 1_555
P0 S4 2.063226 1_565
P1 S12 2.053160 1_555
P1 S9 2.053160 1_555
P1 S1 2.056206 1_555
P1 S5 2.063226 1_545
P2 S10 2.053160 1_555
P2 S15 2.053160 1_555
P2 S2 2.056206 1_555
P2 S6 2.063226 1_555
P3 S14 2.053160 1_555
P3 S11 2.053160 1_555
P3 S3 2.056206 1_555
P3 S7 2.063226 1_555
Pb0 S0 2.873880 1_555
Pb0 S4 2.947655 1_565
Pb0 S9 3.140715 1_565
Pb0 S12 3.140715 1_465
Pb0 S14 3.202179 1_555
Pb0 S11 3.202179 1_555
Pb1 S1 2.873880 1_555
Pb1 S5 2.947655 1_545
Pb1 S13 3.140715 1_545
Pb1 S8 3.140715 1_645
Pb1 S15 3.202179 1_555
Pb1 S10 3.202179 1_555
Pb2 S2 2.873880 1_556
Pb2 S6 2.947655 1_556
Pb2 S11 3.140715 1_555
Pb2 S14 3.140715 1_655
Pb2 S9 3.202179 1_555
Pb2 S12 3.202179 1_555
Pb3 S3 2.873880 1_554
Pb3 S7 2.947655 1_554
Pb3 S15 3.140715 1_555
Pb3 S10 3.140715 1_455
Pb3 S8 3.202179 1_555
Pb3 S13 3.202179 1_555
S8 Tl0 3.236447 1_455
S9 Tl1 3.236447 1_555
S10 Tl2 3.236447 1_655
S11 Tl3 3.236447 1_555
S12 Tl1 3.236447 1_655
S13 Tl0 3.236447 1_555
S14 Tl3 3.236447 1_455
S15 Tl2 3.236447 1_555
