# generated using pymatgen
data_MnH4S2O9
_symmetry_space_group_name_H-M   'P 1'
_cell_length_a   5.12911900
_cell_length_b   8.86206900
_cell_length_c   16.87453061
_cell_angle_alpha   70.38240236
_cell_angle_beta   90.00000000
_cell_angle_gamma   90.00000000
_symmetry_Int_Tables_number   1
_chemical_formula_structural   MnH4S2O9
_chemical_formula_sum   'Mn4 H16 S8 O36'
_cell_volume   722.50269739
_cell_formula_units_Z   4
loop_
 _symmetry_equiv_pos_site_id
 _symmetry_equiv_pos_as_xyz
  1  'x, y, z'
loop_
 _atom_site_type_symbol
 _atom_site_label
 _atom_site_symmetry_multiplicity
 _atom_site_fract_x
 _atom_site_fract_y
 _atom_site_fract_z
 _atom_site_occupancy
  Mn  Mn0  1  0.75023800  0.24280400  0.01217400  1
  Mn  Mn1  1  0.25023800  0.75719600  0.48782600  1
  Mn  Mn2  1  0.24976200  0.75719600  0.98782600  1
  Mn  Mn3  1  0.74976200  0.24280400  0.51217400  1
  H  H0  1  0.22977300  0.40819800  0.78259400  1
  H  H1  1  0.72977300  0.59180200  0.71740600  1
  H  H2  1  0.77022700  0.59180200  0.21740600  1
  H  H3  1  0.27022700  0.40819800  0.28259400  1
  H  H4  1  0.92717400  0.15529100  0.77262100  1
  H  H5  1  0.42717400  0.84470900  0.72737900  1
  H  H6  1  0.07282600  0.84470900  0.22737900  1
  H  H7  1  0.57282600  0.15529100  0.27262100  1
  H  H8  1  0.21900900  0.29435600  0.68511100  1
  H  H9  1  0.71900900  0.70564400  0.81488900  1
  H  H10  1  0.78099100  0.70564400  0.31488900  1
  H  H11  1  0.28099100  0.29435600  0.18511100  1
  H  H12  1  0.36725400  0.18581200  0.76495500  1
  H  H13  1  0.86725400  0.81418800  0.73504500  1
  H  H14  1  0.63274600  0.81418800  0.23504500  1
  H  H15  1  0.13274600  0.18581200  0.26495500  1
  S  S0  1  0.24177100  0.46807300  0.89758700  1
  S  S1  1  0.74177100  0.53192700  0.60241300  1
  S  S2  1  0.75822900  0.53192700  0.10241300  1
  S  S3  1  0.25822900  0.46807300  0.39758700  1
  S  S4  1  0.75297600  0.99961500  0.88806900  1
  S  S5  1  0.25297600  0.00038500  0.61193100  1
  S  S6  1  0.24702400  0.00038500  0.11193100  1
  S  S7  1  0.74702400  0.99961500  0.38806900  1
  O  O0  1  0.40022000  0.32436500  0.93593700  1
  O  O1  1  0.90022000  0.67563500  0.56406300  1
  O  O2  1  0.59978000  0.67563500  0.06406300  1
  O  O3  1  0.09978000  0.32436500  0.43593700  1
  O  O4  1  0.96674600  0.44376400  0.92361900  1
  O  O5  1  0.46674600  0.55623600  0.57638100  1
  O  O6  1  0.03325400  0.55623600  0.07638100  1
  O  O7  1  0.53325400  0.44376400  0.42361900  1
  O  O8  1  0.35165700  0.61406600  0.90750900  1
  O  O9  1  0.85165700  0.38593400  0.59249100  1
  O  O10  1  0.64834300  0.38593400  0.09249100  1
  O  O11  1  0.14834300  0.61406600  0.40750900  1
  O  O12  1  0.25124500  0.50734500  0.79950200  1
  O  O13  1  0.75124500  0.49265500  0.70049800  1
  O  O14  1  0.74875500  0.49265500  0.20049800  1
  O  O15  1  0.24875500  0.50734500  0.29950200  1
  O  O16  1  0.47666800  0.95859100  0.90319600  1
  O  O17  1  0.97666800  0.04140900  0.59680400  1
  O  O18  1  0.52333200  0.04140900  0.09680400  1
  O  O19  1  0.02333200  0.95859100  0.40319600  1
  O  O20  1  0.92036600  0.85798000  0.90213300  1
  O  O21  1  0.42036600  0.14202000  0.59786700  1
  O  O22  1  0.07963400  0.14202000  0.09786700  1
  O  O23  1  0.57963400  0.85798000  0.40213300  1
  O  O24  1  0.85250000  0.10862800  0.92944200  1
  O  O25  1  0.35250000  0.89137200  0.57055800  1
  O  O26  1  0.14750000  0.89137200  0.07055800  1
  O  O27  1  0.64750000  0.10862800  0.42944200  1
  O  O28  1  0.75525100  0.09591800  0.78972100  1
  O  O29  1  0.25525100  0.90408200  0.71027900  1
  O  O30  1  0.24474900  0.90408200  0.21027900  1
  O  O31  1  0.74474900  0.09591800  0.28972100  1
  O  O32  1  0.21171600  0.25372700  0.74683200  1
  O  O33  1  0.71171600  0.74627300  0.75316800  1
  O  O34  1  0.78828400  0.74627300  0.25316800  1
  O  O35  1  0.28828400  0.25372700  0.24683200  1
loop_
_geom_bond_atom_site_label_1
_geom_bond_atom_site_label_2
_geom_bond_distance
_geom_bond_site_symmetry_2
Mn0 O24 2.180067 1_554
Mn0 O0 2.185427 1_554
Mn0 O4 2.202473 1_554
Mn0 O18 2.206327 1_555
Mn0 O10 2.207550 1_555
Mn0 O22 2.208152 1_655
Mn1 O25 2.180067 1_555
Mn1 O1 2.185427 1_455
Mn1 O5 2.202473 1_555
Mn1 O19 2.206327 1_555
Mn1 O11 2.207550 1_555
Mn1 O23 2.208152 1_555
Mn2 O26 2.180067 1_556
Mn2 O2 2.185427 1_556
Mn2 O6 2.202473 1_556
Mn2 O16 2.206327 1_555
Mn2 O8 2.207550 1_555
Mn2 O20 2.208152 1_455
Mn3 O27 2.180067 1_555
Mn3 O3 2.185427 1_655
Mn3 O7 2.202473 1_555
Mn3 O17 2.206327 1_555
Mn3 O9 2.207550 1_555
Mn3 O21 2.208152 1_555
H0 O12 1.016804 1_555
H1 O13 1.016804 1_555
H2 O14 1.016804 1_555
H3 O15 1.016804 1_555
H4 O28 1.017724 1_555
H5 O29 1.017724 1_555
H6 O30 1.017724 1_555
H7 O31 1.017724 1_555
H8 O32 0.981825 1_555
H9 O33 0.981825 1_555
H10 O34 0.981825 1_555
H11 O35 0.981825 1_555
H12 O32 0.984183 1_555
H13 O33 0.984183 1_555
H14 O34 0.984183 1_555
H15 O35 0.984183 1_555
O0 S0 1.465536 1_555
O1 S1 1.465536 1_555
O2 S2 1.465536 1_555
O3 S3 1.465536 1_555
O4 S0 1.471640 1_655
O5 S1 1.471640 1_555
O6 S2 1.471640 1_455
O7 S3 1.471640 1_555
O8 S0 1.471419 1_555
O9 S1 1.471419 1_555
O10 S2 1.471419 1_555
O11 S3 1.471419 1_555
O12 S0 1.573585 1_555
O13 S1 1.573585 1_555
O14 S2 1.573585 1_555
O15 S3 1.573585 1_555
O16 S4 1.464077 1_555
O17 S5 1.464077 1_655
O18 S6 1.464077 1_555
O19 S7 1.464077 1_455
O20 S4 1.472720 1_555
O21 S5 1.472720 1_555
O22 S6 1.472720 1_555
O23 S7 1.472720 1_555
O24 S4 1.460890 1_545
O25 S5 1.460890 1_565
O26 S6 1.460890 1_565
O27 S7 1.460890 1_545
O28 S4 1.591113 1_545
O29 S5 1.591113 1_565
O30 S6 1.591113 1_565
O31 S7 1.591113 1_545
