# generated using pymatgen
data_Nb2P
_symmetry_space_group_name_H-M   'P 1'
_cell_length_a   3.46254098
_cell_length_b   13.92368752
_cell_length_c   18.08919573
_cell_angle_alpha   90.00000000
_cell_angle_beta   90.00000000
_cell_angle_gamma   90.00000000
_symmetry_Int_Tables_number   1
_chemical_formula_structural   Nb2P
_chemical_formula_sum   'Nb36 P18'
_cell_volume   872.10434090
_cell_formula_units_Z   18
loop_
 _symmetry_equiv_pos_site_id
 _symmetry_equiv_pos_as_xyz
  1  'x, y, z'
loop_
 _atom_site_type_symbol
 _atom_site_label
 _atom_site_symmetry_multiplicity
 _atom_site_fract_x
 _atom_site_fract_y
 _atom_site_fract_z
 _atom_site_occupancy
  Nb  Nb0  1  0.00000000  0.34354981  0.06186526  1
  Nb  Nb1  1  -0.00000000  0.65645019  0.93813474  1
  Nb  Nb2  1  0.00000000  0.34354981  0.43813474  1
  Nb  Nb3  1  -0.00000000  0.65645019  0.56186526  1
  Nb  Nb4  1  -0.00000000  0.56936716  0.12060275  1
  Nb  Nb5  1  -0.00000000  0.43063284  0.87939725  1
  Nb  Nb6  1  0.00000000  0.56936716  0.37939725  1
  Nb  Nb7  1  0.00000000  0.43063284  0.62060275  1
  Nb  Nb8  1  0.50000000  0.16142940  0.00086057  1
  Nb  Nb9  1  0.50000000  0.83857060  0.99913943  1
  Nb  Nb10  1  0.50000000  0.16142940  0.49913943  1
  Nb  Nb11  1  0.50000000  0.83857060  0.50086057  1
  Nb  Nb12  1  0.50000000  0.00379822  0.14360739  1
  Nb  Nb13  1  0.50000000  0.99620178  0.85639261  1
  Nb  Nb14  1  0.50000000  0.00379822  0.35639261  1
  Nb  Nb15  1  0.50000000  0.99620178  0.64360739  1
  Nb  Nb16  1  0.50000000  0.24059195  0.16491245  1
  Nb  Nb17  1  0.50000000  0.75940805  0.83508755  1
  Nb  Nb18  1  0.50000000  0.24059195  0.33508855  1
  Nb  Nb19  1  0.50000000  0.75940805  0.66491245  1
  Nb  Nb20  1  0.50000000  0.23824182  0.66241124  1
  Nb  Nb21  1  0.50000000  0.76175818  0.33758876  1
  Nb  Nb22  1  0.50000000  0.23824182  0.83758876  1
  Nb  Nb23  1  0.50000000  0.76175818  0.16241124  1
  Nb  Nb24  1  -0.00000000  0.11894003  0.25000000  1
  Nb  Nb25  1  0.00000000  0.88105997  0.75000000  1
  Nb  Nb26  1  -0.00000000  0.38627481  0.25000000  1
  Nb  Nb27  1  0.00000000  0.61372519  0.75000000  1
  Nb  Nb28  1  -0.00000000  0.88804030  0.25000000  1
  Nb  Nb29  1  -0.00000000  0.11195870  0.75000000  1
  Nb  Nb30  1  0.50000000  0.56092509  0.25000000  1
  Nb  Nb31  1  0.50000000  0.43907491  0.75000000  1
  Nb  Nb32  1  0.50000000  0.50000000  -0.00000000  1
  Nb  Nb33  1  0.50000000  0.50000000  0.50000000  1
  Nb  Nb34  1  0.00000000  -0.00000000  -0.00000000  1
  Nb  Nb35  1  0.00000000  -0.00000000  0.50000000  1
  P  P0  1  -0.00000000  0.13651368  0.10360035  1
  P  P1  1  0.00000000  0.86348632  0.89639965  1
  P  P2  1  0.00000000  0.13651368  0.39639965  1
  P  P3  1  0.00000000  0.86348632  0.60360035  1
  P  P4  1  0.00000000  0.12735042  0.60452633  1
  P  P5  1  0.00000000  0.87264958  0.39547367  1
  P  P6  1  -0.00000000  0.12735042  0.89547367  1
  P  P7  1  0.00000000  0.87264958  0.10452733  1
  P  P8  1  0.50000000  0.43154740  0.14375919  1
  P  P9  1  0.50000000  0.56845260  0.85624081  1
  P  P10  1  0.50000000  0.43154740  0.35624081  1
  P  P11  1  0.50000000  0.56845260  0.64375919  1
  P  P12  1  0.50000000  0.32922578  0.54545410  1
  P  P13  1  0.50000000  0.67077422  0.45454590  1
  P  P14  1  0.50000000  0.32922578  0.95454590  1
  P  P15  1  0.50000000  0.67077422  0.04545410  1
  P  P16  1  0.00000000  0.69008237  0.25000000  1
  P  P17  1  -0.00000000  0.30991763  0.75000000  1
loop_
_geom_bond_atom_site_label_1
_geom_bond_atom_site_label_2
_geom_bond_distance
_geom_bond_site_symmetry_2
Nb0 P8 2.587097 1_455
Nb0 P8 2.587097 1_555
Nb0 P14 2.608793 1_554
Nb0 P14 2.608793 1_454
Nb0 P0 2.979925 1_555
Nb1 P9 2.587097 1_455
Nb1 P9 2.587097 1_555
Nb1 P15 2.608793 1_456
Nb1 P15 2.608793 1_556
Nb1 P1 2.979925 1_555
Nb2 P10 2.587097 1_555
Nb2 P10 2.587097 1_455
Nb2 P12 2.608793 1_555
Nb2 P12 2.608793 1_455
Nb2 P2 2.979925 1_555
Nb3 P11 2.587097 1_555
Nb3 P11 2.587097 1_455
Nb3 P13 2.608793 1_555
Nb3 P13 2.608793 1_455
Nb3 P3 2.979925 1_555
Nb4 P15 2.615117 1_555
Nb4 P15 2.615117 1_455
Nb4 P8 2.618237 1_555
Nb4 P8 2.618237 1_455
Nb4 P16 2.881654 1_555
Nb5 P14 2.615117 1_555
Nb5 P14 2.615117 1_455
Nb5 P9 2.618237 1_455
Nb5 P9 2.618237 1_555
Nb5 P17 2.881654 1_555
Nb6 P13 2.615117 1_555
Nb6 P13 2.615117 1_455
Nb6 P10 2.618237 1_555
Nb6 P10 2.618237 1_455
Nb6 P16 2.881654 1_555
Nb7 P12 2.615117 1_555
Nb7 P12 2.615117 1_455
Nb7 P11 2.618237 1_555
Nb7 P11 2.618237 1_455
Nb7 P17 2.881654 1_555
Nb8 P14 2.482016 1_554
Nb8 P0 2.563513 1_655
Nb8 P0 2.563513 1_555
Nb8 P6 2.618526 1_654
Nb8 P6 2.618526 1_554
Nb9 P15 2.482016 1_556
Nb9 P1 2.563513 1_655
Nb9 P1 2.563513 1_555
Nb9 P7 2.618539 1_656
Nb9 P7 2.618539 1_556
Nb10 P12 2.482016 1_555
Nb10 P2 2.563513 1_555
Nb10 P2 2.563513 1_655
Nb10 P4 2.618526 1_655
Nb10 P4 2.618526 1_555
Nb11 P13 2.482016 1_555
Nb11 P3 2.563513 1_555
Nb11 P3 2.563513 1_655
Nb11 P5 2.618526 1_555
Nb11 P5 2.618526 1_655
Nb12 P7 2.613730 1_545
Nb12 P7 2.613730 1_645
Nb12 P0 2.633576 1_655
Nb12 P0 2.633576 1_555
Nb13 P6 2.613735 1_665
Nb13 P6 2.613735 1_565
Nb13 P1 2.633576 1_555
Nb13 P1 2.633576 1_655
Nb14 P5 2.613735 1_645
Nb14 P5 2.613735 1_545
Nb14 P2 2.633576 1_555
Nb14 P2 2.633576 1_655
Nb15 P4 2.613735 1_565
Nb15 P4 2.613735 1_665
Nb15 P3 2.633576 1_555
Nb15 P3 2.633576 1_655
Nb16 P0 2.515436 1_655
Nb16 P0 2.515436 1_555
Nb16 P8 2.686197 1_555
Nb17 P1 2.515436 1_555
Nb17 P1 2.515436 1_655
Nb17 P9 2.686197 1_555
Nb18 P2 2.515428 1_655
Nb18 P2 2.515428 1_555
Nb18 P10 2.686195 1_555
Nb19 P3 2.515436 1_555
Nb19 P3 2.515436 1_655
Nb19 P11 2.686197 1_555
Nb20 P12 2.465945 1_555
Nb20 P4 2.545130 1_655
Nb20 P4 2.545130 1_555
Nb20 P17 2.550224 1_655
Nb20 P17 2.550224 1_555
Nb21 P13 2.465945 1_555
Nb21 P5 2.545130 1_655
Nb21 P5 2.545130 1_555
Nb21 P16 2.550224 1_655
Nb21 P16 2.550224 1_555
Nb22 P14 2.465945 1_555
Nb22 P6 2.545130 1_555
Nb22 P6 2.545130 1_655
Nb22 P17 2.550224 1_655
Nb22 P17 2.550224 1_555
Nb23 P15 2.465945 1_555
Nb23 P7 2.545123 1_655
Nb23 P7 2.545123 1_555
Nb23 P16 2.550224 1_655
Nb23 P16 2.550224 1_555
Nb24 P2 2.659532 1_555
Nb24 P0 2.659532 1_555
Nb25 P3 2.659532 1_555
Nb25 P1 2.659532 1_555
Nb26 P10 2.662332 1_555
Nb26 P8 2.662332 1_455
Nb26 P10 2.662332 1_455
Nb26 P8 2.662332 1_555
Nb27 P11 2.662332 1_555
Nb27 P9 2.662332 1_555
Nb27 P9 2.662332 1_455
Nb27 P11 2.662332 1_455
Nb28 P7 2.640195 1_555
Nb28 P5 2.640213 1_555
Nb28 P16 2.756304 1_555
Nb29 P6 2.640214 1_555
Nb29 P4 2.640214 1_555
Nb29 P17 2.756318 1_555
Nb30 P16 2.496266 1_655
Nb30 P16 2.496266 1_555
Nb30 P10 2.634094 1_555
Nb30 P8 2.634094 1_555
Nb31 P17 2.496266 1_555
Nb31 P17 2.496266 1_655
Nb31 P9 2.634094 1_555
Nb31 P11 2.634094 1_555
Nb32 P15 2.515954 1_555
Nb32 P14 2.515954 1_554
Nb32 P8 2.769650 1_555
Nb32 P9 2.769650 1_554
Nb33 P13 2.515954 1_555
Nb33 P12 2.515954 1_555
Nb33 P10 2.769650 1_555
Nb33 P11 2.769650 1_555
Nb34 P6 2.592163 1_554
Nb34 P7 2.592176 1_545
Nb34 P0 2.669268 1_555
Nb34 P1 2.669268 1_544
Nb35 P5 2.592163 1_545
Nb35 P4 2.592163 1_555
Nb35 P3 2.669268 1_545
Nb35 P2 2.669268 1_555
