# generated using pymatgen
data_ZrAlNi
_symmetry_space_group_name_H-M   'P 1'
_cell_length_a   6.87406186
_cell_length_b   6.87406165
_cell_length_c   3.48194567
_cell_angle_alpha   90.00000000
_cell_angle_beta   90.00000000
_cell_angle_gamma   119.99999610
_symmetry_Int_Tables_number   1
_chemical_formula_structural   ZrAlNi
_chemical_formula_sum   'Zr3 Al3 Ni3'
_cell_volume   142.48839612
_cell_formula_units_Z   3
loop_
 _symmetry_equiv_pos_site_id
 _symmetry_equiv_pos_as_xyz
  1  'x, y, z'
loop_
 _atom_site_type_symbol
 _atom_site_label
 _atom_site_symmetry_multiplicity
 _atom_site_fract_x
 _atom_site_fract_y
 _atom_site_fract_z
 _atom_site_occupancy
  Zr  Zr0  1  0.59013662  0.00000000  0.50000000  1
  Zr  Zr1  1  0.40986338  0.40986338  0.50000000  1
  Zr  Zr2  1  0.00000000  0.59013662  0.50000000  1
  Al  Al0  1  0.24749525  -0.00000000  -0.00000000  1
  Al  Al1  1  0.75250475  0.75250475  0.00000000  1
  Al  Al2  1  -0.00000000  0.24749525  -0.00000000  1
  Ni  Ni0  1  -0.00000000  0.00000000  0.50000000  1
  Ni  Ni1  1  0.33333300  0.66666700  0.00000000  1
  Ni  Ni2  1  0.66666700  0.33333300  -0.00000000  1
loop_
_geom_bond_atom_site_label_1
_geom_bond_atom_site_label_2
_geom_bond_distance
_geom_bond_site_symmetry_2
Al0 Ni0 2.434214 1_554
Al0 Ni0 2.434214 1_555
Al0 Ni1 2.636376 1_545
Al0 Ni2 2.636380 1_555
Al0 Zr0 2.928925 1_555
Al0 Zr0 2.928925 1_554
Al0 Zr1 3.011646 1_555
Al0 Zr1 3.011646 1_554
Al0 Zr2 3.011646 1_544
Al0 Zr2 3.011646 1_545
Al1 Ni0 2.434215 1_665
Al1 Ni0 2.434215 1_664
Al1 Ni2 2.636383 1_555
Al1 Ni1 2.636383 1_555
Al1 Zr1 2.928925 1_555
Al1 Zr1 2.928925 1_554
Al1 Zr0 3.011646 1_565
Al1 Zr0 3.011646 1_564
Al1 Zr2 3.011646 1_655
Al1 Zr2 3.011646 1_654
Al2 Ni0 2.434214 1_555
Al2 Ni0 2.434214 1_554
Al2 Ni2 2.636376 1_455
Al2 Ni1 2.636380 1_555
Al2 Zr2 2.928925 1_554
Al2 Zr2 2.928925 1_555
Al2 Zr1 3.011646 1_555
Al2 Zr1 3.011646 1_554
Al2 Zr0 3.011646 1_454
Al2 Zr0 3.011646 1_455
Ni0 Zr2 2.817426 1_545
Ni0 Zr0 2.817426 1_455
Ni0 Zr1 2.817426 1_555
Ni1 Zr2 2.711570 1_554
Ni1 Zr2 2.711570 1_555
Ni1 Zr0 2.711572 1_564
Ni1 Zr0 2.711572 1_565
Ni1 Zr1 2.711575 1_554
Ni1 Zr1 2.711575 1_555
Ni2 Zr0 2.711570 1_555
Ni2 Zr0 2.711570 1_554
Ni2 Zr2 2.711572 1_655
Ni2 Zr2 2.711572 1_654
Ni2 Zr1 2.711575 1_554
Ni2 Zr1 2.711575 1_555
