# generated using pymatgen
data_La2MnVO6
_symmetry_space_group_name_H-M   'P 1'
_cell_length_a   5.62648434
_cell_length_b   8.02529321
_cell_length_c   5.70176531
_cell_angle_alpha   90.00988810
_cell_angle_beta   89.96312878
_cell_angle_gamma   89.95075989
_symmetry_Int_Tables_number   1
_chemical_formula_structural   La2MnVO6
_chemical_formula_sum   'La4 Mn2 V2 O12'
_cell_volume   257.45842228
_cell_formula_units_Z   2
loop_
 _symmetry_equiv_pos_site_id
 _symmetry_equiv_pos_as_xyz
  1  'x, y, z'
loop_
 _atom_site_type_symbol
 _atom_site_label
 _atom_site_symmetry_multiplicity
 _atom_site_fract_x
 _atom_site_fract_y
 _atom_site_fract_z
 _atom_site_occupancy
  La  La0  1  0.49069600  0.75150300  0.45284300  1
  La  La1  1  0.50930600  0.24848300  0.54713500  1
  La  La2  1  0.00941500  0.74842400  0.95273000  1
  La  La3  1  0.99058800  0.25156300  0.04732800  1
  Mn  Mn0  1  0.99998200  0.50010600  0.50000900  1
  Mn  Mn1  1  0.50000600  0.00000100  0.99999100  1
  V  V0  1  0.50001000  0.49998100  0.00000300  1
  V  V1  1  0.00000000  0.00003000  0.49998500  1
  O  O0  1  0.40680400  0.26035100  0.97286500  1
  O  O1  1  0.90684700  0.76036500  0.52717100  1
  O  O2  1  0.59321500  0.73962000  0.02713600  1
  O  O3  1  0.09312500  0.23966300  0.47282900  1
  O  O4  1  0.71512400  0.04679600  0.30739600  1
  O  O5  1  0.78477300  0.45327500  0.80755900  1
  O  O6  1  0.28486500  0.95314900  0.69258800  1
  O  O7  1  0.21522300  0.54673100  0.19244000  1
  O  O8  1  0.31024500  0.55205400  0.72220500  1
  O  O9  1  0.81042400  0.05199900  0.77765200  1
  O  O10  1  0.18959100  0.94794500  0.22233800  1
  O  O11  1  0.68976000  0.44796000  0.27779700  1
loop_
_geom_bond_atom_site_label_1
_geom_bond_atom_site_label_2
_geom_bond_distance
_geom_bond_site_symmetry_2
La0 O1 2.380900 1_555
La0 O6 2.413003 1_555
La0 O8 2.439942 1_555
La0 O2 2.496304 1_555
La0 O10 2.661182 1_555
La0 O7 2.704431 1_555
La0 O4 2.811183 1_565
La0 O11 2.859694 1_555
La1 O3 2.381034 1_555
La1 O4 2.413169 1_555
La1 O11 2.440011 1_555
La1 O0 2.496405 1_555
La1 O9 2.661462 1_555
La1 O5 2.704575 1_555
La1 O6 2.811503 1_545
La1 O8 2.859926 1_555
La2 O2 2.380704 1_456
La2 O7 2.414241 1_556
La2 O10 2.441035 1_556
La2 O1 2.496320 1_455
La2 O8 2.658566 1_555
La2 O6 2.702526 1_555
La2 O5 2.810524 1_455
La2 O9 2.860612 1_465
La3 O0 2.380846 1_654
La3 O5 2.414553 1_554
La3 O9 2.441477 1_554
La3 O3 2.495945 1_655
La3 O11 2.658530 1_555
La3 O4 2.702545 1_555
La3 O7 2.810536 1_655
La3 O10 2.860797 1_645
Mn0 O1 2.158464 1_555
Mn0 O3 2.159911 1_655
Mn0 O7 2.163409 1_655
Mn0 O5 2.163508 1_555
Mn0 O8 2.197774 1_655
Mn0 O11 2.197946 1_555
Mn1 O0 2.159347 1_555
Mn1 O2 2.159605 1_546
Mn1 O4 2.163659 1_556
Mn1 O6 2.163802 1_545
Mn1 O9 2.197801 1_555
Mn1 O10 2.197903 1_546
O0 V0 1.999753 1_556
O1 V1 1.999966 1_665
O2 V0 1.999819 1_555
O3 V1 1.999664 1_555
O4 V1 1.979186 1_655
O5 V0 1.976905 1_556
O6 V1 1.979355 1_565
O7 V0 1.977059 1_555
O8 V0 1.955798 1_556
O9 V1 1.953205 1_655
O10 V1 1.953357 1_565
O11 V0 1.955645 1_555
