# generated using pymatgen
data_K2Th(MoO4)3
_symmetry_space_group_name_H-M   'P 1'
_cell_length_a   10.96486261
_cell_length_b   10.96486261
_cell_length_c   5.46564432
_cell_angle_alpha   77.67133927
_cell_angle_beta   77.67133927
_cell_angle_gamma   68.60768297
_symmetry_Int_Tables_number   1
_chemical_formula_structural   K2Th(MoO4)3
_chemical_formula_sum   'K4 Th2 Mo6 O24'
_cell_volume   591.05926872
_cell_formula_units_Z   2
loop_
 _symmetry_equiv_pos_site_id
 _symmetry_equiv_pos_as_xyz
  1  'x, y, z'
loop_
 _atom_site_type_symbol
 _atom_site_label
 _atom_site_symmetry_multiplicity
 _atom_site_fract_x
 _atom_site_fract_y
 _atom_site_fract_z
 _atom_site_occupancy
  K  K0  1  0.70970100  0.95606900  0.41222000  1
  K  K1  1  0.29029900  0.04393100  0.58778000  1
  K  K2  1  0.95606900  0.70970100  0.91222000  1
  K  K3  1  0.04393100  0.29029900  0.08778000  1
  Th  Th0  1  0.62795800  0.37204200  0.25000000  1
  Th  Th1  1  0.37204200  0.62795800  0.75000000  1
  Mo  Mo0  1  0.76357600  0.54279100  0.61047800  1
  Mo  Mo1  1  0.54279100  0.76357600  0.11047800  1
  Mo  Mo2  1  0.23642400  0.45720900  0.38952200  1
  Mo  Mo3  1  0.45720900  0.23642400  0.88952200  1
  Mo  Mo4  1  0.14403600  0.85596400  0.25000000  1
  Mo  Mo5  1  0.85596400  0.14403600  0.75000000  1
  O  O0  1  0.13594800  0.01193900  0.07286200  1
  O  O1  1  0.81167900  0.26831100  0.96562900  1
  O  O2  1  0.38701000  0.46952600  0.14453500  1
  O  O3  1  0.18832100  0.73168900  0.03437100  1
  O  O4  1  0.69560000  0.74587700  0.91228300  1
  O  O5  1  0.57647000  0.20855000  0.10291000  1
  O  O6  1  0.01193900  0.13594800  0.57286200  1
  O  O7  1  0.09514300  0.50008600  0.24713800  1
  O  O8  1  0.98806100  0.86405200  0.42713800  1
  O  O9  1  0.26831100  0.81167900  0.46562900  1
  O  O10  1  0.25412300  0.30440000  0.58771700  1
  O  O11  1  0.46952600  0.38701000  0.64453500  1
  O  O12  1  0.79145000  0.42353000  0.39709000  1
  O  O13  1  0.90485700  0.49991400  0.75286200  1
  O  O14  1  0.20855000  0.57647000  0.60291000  1
  O  O15  1  0.50008600  0.09514300  0.74713800  1
  O  O16  1  0.49991400  0.90485700  0.25286200  1
  O  O17  1  0.74587700  0.69560000  0.41228300  1
  O  O18  1  0.30440000  0.25412300  0.08771700  1
  O  O19  1  0.86405200  0.98806100  0.92713800  1
  O  O20  1  0.42353000  0.79145000  0.89709000  1
  O  O21  1  0.73168900  0.18832100  0.53437100  1
  O  O22  1  0.53047400  0.61299000  0.35546500  1
  O  O23  1  0.61299000  0.53047400  0.85546500  1
loop_
_geom_bond_atom_site_label_1
_geom_bond_atom_site_label_2
_geom_bond_distance
_geom_bond_site_symmetry_2
K0 O17 2.736296 1_555
K0 O15 2.792394 1_565
K0 O19 2.852450 1_554
K0 O8 2.857458 1_555
K0 O21 2.869108 1_565
K0 O16 2.893441 1_555
K0 O5 2.960071 1_565
K0 O4 3.193018 1_555
K1 O10 2.736296 1_555
K1 O16 2.792394 1_545
K1 O0 2.852450 1_556
K1 O6 2.857458 1_555
K1 O9 2.869108 1_545
K1 O15 2.893441 1_555
K1 O20 2.960071 1_545
K1 O18 3.193018 1_555
K2 O4 2.736296 1_555
K2 O7 2.792394 1_656
K2 O8 2.852450 1_555
K2 O19 2.857458 1_555
K2 O3 2.869108 1_656
K2 O13 2.893441 1_555
K2 O14 2.960071 1_655
K2 O17 3.193018 1_556
K3 O18 2.736296 1_555
K3 O13 2.792394 1_454
K3 O6 2.852450 1_555
K3 O0 2.857458 1_555
K3 O1 2.869108 1_454
K3 O7 2.893441 1_555
K3 O12 2.960071 1_455
K3 O10 3.193018 1_554
Mo0 O13 1.747492 1_555
Mo0 O17 1.759544 1_555
Mo0 O12 1.836087 1_555
Mo0 O23 1.918022 1_555
Mo1 O16 1.747492 1_555
Mo1 O4 1.759544 1_554
Mo1 O20 1.836087 1_554
Mo1 O22 1.918022 1_555
Mo2 O7 1.747492 1_555
Mo2 O10 1.759544 1_555
Mo2 O14 1.836087 1_555
Mo2 O2 1.918022 1_555
Mo3 O15 1.747492 1_555
Mo3 O18 1.759544 1_556
Mo3 O5 1.836087 1_556
Mo3 O11 1.918022 1_555
Mo4 O0 1.757580 1_565
Mo4 O8 1.757580 1_455
Mo4 O9 1.854814 1_555
Mo4 O3 1.854814 1_555
Mo5 O6 1.757580 1_655
Mo5 O19 1.757580 1_545
Mo5 O1 1.854814 1_555
Mo5 O21 1.854814 1_555
O1 Th0 2.348172 1_556
O2 Th1 2.457274 1_554
O2 Th0 2.604207 1_555
O3 Th1 2.348172 1_554
O5 Th0 2.392965 1_555
O9 Th1 2.348172 1_555
O11 Th0 2.457274 1_555
O11 Th1 2.604207 1_555
O12 Th0 2.392965 1_555
O14 Th1 2.392965 1_555
O20 Th1 2.392965 1_555
O21 Th0 2.348172 1_555
O22 Th1 2.457274 1_555
O22 Th0 2.604207 1_555
O23 Th0 2.457274 1_556
O23 Th1 2.604207 1_555
