# generated using pymatgen
data_Pr2B3Cl
_symmetry_space_group_name_H-M   'P 1'
_cell_length_a   3.58431538
_cell_length_b   3.58431538
_cell_length_c   17.80676600
_cell_angle_alpha   90.00000000
_cell_angle_beta   90.00000000
_cell_angle_gamma   119.99998863
_symmetry_Int_Tables_number   1
_chemical_formula_structural   Pr2B3Cl
_chemical_formula_sum   'Pr4 B6 Cl2'
_cell_volume   198.11992989
_cell_formula_units_Z   2
loop_
 _symmetry_equiv_pos_site_id
 _symmetry_equiv_pos_as_xyz
  1  'x, y, z'
loop_
 _atom_site_type_symbol
 _atom_site_label
 _atom_site_symmetry_multiplicity
 _atom_site_fract_x
 _atom_site_fract_y
 _atom_site_fract_z
 _atom_site_occupancy
  Pr  Pr0  1  0.66666700  0.33333300  0.37097800  1
  Pr  Pr1  1  0.33333300  0.66666700  0.87097800  1
  Pr  Pr2  1  0.66666700  0.33333300  0.12902200  1
  Pr  Pr3  1  0.33333300  0.66666700  0.62902200  1
  B  B0  1  0.83360700  0.16639300  0.75000000  1
  B  B1  1  0.16639300  0.33278500  0.25000000  1
  B  B2  1  0.66721500  0.83360700  0.25000000  1
  B  B3  1  0.33278500  0.16639300  0.75000000  1
  B  B4  1  0.83360700  0.66721500  0.75000000  1
  B  B5  1  0.16639300  0.83360700  0.25000000  1
  Cl  Cl0  1  0.00000000  0.00000000  0.50000000  1
  Cl  Cl1  1  0.00000000  0.00000000  0.00000000  1
loop_
_geom_bond_atom_site_label_1
_geom_bond_atom_site_label_2
_geom_bond_distance
_geom_bond_site_symmetry_2
B0 B3 1.789211 1_655
B0 B4 1.789211 1_545
B0 B4 1.795104 1_555
B0 B3 1.795104 1_555
B0 Pr1 2.802236 1_545
B0 Pr3 2.802236 1_655
B0 Pr3 2.802236 1_545
B0 Pr1 2.802236 1_655
B1 B5 1.789211 1_545
B1 B2 1.789212 1_445
B1 B5 1.795104 1_555
B1 B2 1.795104 1_555
B1 Pr0 2.802236 1_455
B1 Pr2 2.802236 1_455
B1 Pr0 2.802236 1_555
B1 Pr2 2.802236 1_555
B2 B5 1.789211 1_655
B2 B5 1.795104 1_555
B2 Pr0 2.802236 1_565
B2 Pr2 2.802236 1_565
B2 Pr0 2.802236 1_555
B2 Pr2 2.802236 1_555
B3 B4 1.789212 1_445
B3 B4 1.795104 1_555
B3 Pr3 2.802236 1_545
B3 Pr1 2.802236 1_545
B3 Pr1 2.802236 1_555
B3 Pr3 2.802236 1_555
B4 Pr3 2.802236 1_655
B4 Pr1 2.802236 1_655
B4 Pr1 2.802236 1_555
B4 Pr3 2.802236 1_555
B5 Pr0 2.802236 1_455
B5 Pr0 2.802236 1_565
B5 Pr2 2.802236 1_455
B5 Pr2 2.802236 1_565
Cl0 Pr3 3.092050 1_545
Cl0 Pr0 3.092050 1_455
Cl0 Pr3 3.092052 1_555
Cl0 Pr3 3.092052 1_445
Cl0 Pr0 3.092052 1_555
Cl0 Pr0 3.092052 1_445
Cl1 Pr1 3.092050 1_544
Cl1 Pr2 3.092050 1_455
Cl1 Pr1 3.092052 1_444
Cl1 Pr2 3.092052 1_445
Cl1 Pr1 3.092052 1_554
Cl1 Pr2 3.092052 1_555
