# generated using pymatgen
data_Rb4Nb2S10O
_symmetry_space_group_name_H-M   'P 1'
_cell_length_a   7.96500400
_cell_length_b   13.23490500
_cell_length_c   18.47804900
_cell_angle_alpha   90.00000000
_cell_angle_beta   90.00000000
_cell_angle_gamma   90.00000000
_symmetry_Int_Tables_number   1
_chemical_formula_structural   Rb4Nb2S10O
_chemical_formula_sum   'Rb16 Nb8 S40 O4'
_cell_volume   1947.88333022
_cell_formula_units_Z   4
loop_
 _symmetry_equiv_pos_site_id
 _symmetry_equiv_pos_as_xyz
  1  'x, y, z'
loop_
 _atom_site_type_symbol
 _atom_site_label
 _atom_site_symmetry_multiplicity
 _atom_site_fract_x
 _atom_site_fract_y
 _atom_site_fract_z
 _atom_site_occupancy
  Rb  Rb0  1  0.29081100  0.06285800  0.51692800  1
  Rb  Rb1  1  0.70918900  0.56285800  0.51692800  1
  Rb  Rb2  1  0.83368200  0.26607000  0.38462700  1
  Rb  Rb3  1  0.35287700  0.09374800  0.81246200  1
  Rb  Rb4  1  0.31580300  0.73901400  0.65118800  1
  Rb  Rb5  1  0.31580300  0.76098600  0.15118800  1
  Rb  Rb6  1  0.83368200  0.23393000  0.88462700  1
  Rb  Rb7  1  0.68419700  0.23901400  0.65118800  1
  Rb  Rb8  1  0.16631800  0.73393000  0.88462700  1
  Rb  Rb9  1  0.64712300  0.90625200  0.31246200  1
  Rb  Rb10  1  0.35287700  0.40625200  0.31246200  1
  Rb  Rb11  1  0.29081100  0.43714200  0.01692800  1
  Rb  Rb12  1  0.70918900  0.93714200  0.01692800  1
  Rb  Rb13  1  0.68419700  0.26098600  0.15118800  1
  Rb  Rb14  1  0.64712300  0.59374800  0.81246200  1
  Rb  Rb15  1  0.16631800  0.76607000  0.38462700  1
  Nb  Nb0  1  0.24205400  0.45911400  0.74435000  1
  Nb  Nb1  1  0.71890600  0.89716900  0.55660800  1
  Nb  Nb2  1  0.75794600  0.95911400  0.74435000  1
  Nb  Nb3  1  0.28109400  0.10283100  0.05660800  1
  Nb  Nb4  1  0.75794600  0.54088600  0.24435000  1
  Nb  Nb5  1  0.24205400  0.04088600  0.24435000  1
  Nb  Nb6  1  0.28109400  0.39716900  0.55660800  1
  Nb  Nb7  1  0.71890600  0.60283100  0.05660800  1
  S  S0  1  0.46140000  0.34789800  0.80022700  1
  S  S1  1  0.07097900  0.26313300  0.57308000  1
  S  S2  1  0.74718400  0.43331700  0.00187900  1
  S  S3  1  0.09440400  0.45968500  0.45565300  1
  S  S4  1  0.09440400  0.04031500  0.95565300  1
  S  S5  1  0.75647700  0.72805400  0.15714700  1
  S  S6  1  0.53666800  0.98651700  0.64842700  1
  S  S7  1  0.22791600  0.33979300  0.85037900  1
  S  S8  1  0.46333200  0.48651700  0.64842700  1
  S  S9  1  0.24352300  0.22805400  0.15714700  1
  S  S10  1  0.93420600  0.06416800  0.23166500  1
  S  S11  1  0.49111100  0.32539600  0.49107500  1
  S  S12  1  0.53860000  0.84789800  0.80022700  1
  S  S13  1  0.06579400  0.56416800  0.23166500  1
  S  S14  1  0.75647700  0.77194600  0.65714700  1
  S  S15  1  0.25281600  0.56668300  0.50187900  1
  S  S16  1  0.77208400  0.66020700  0.35037900  1
  S  S17  1  0.06579400  0.93583200  0.73166500  1
  S  S18  1  0.49111100  0.17460400  0.99107500  1
  S  S19  1  0.92902100  0.76313300  0.57308000  1
  S  S20  1  0.77208400  0.83979300  0.85037900  1
  S  S21  1  0.95353600  0.00932000  0.64436900  1
  S  S22  1  0.50888900  0.82539600  0.49107500  1
  S  S23  1  0.46140000  0.15210200  0.30022700  1
  S  S24  1  0.25281600  0.93331700  0.00187900  1
  S  S25  1  0.07097900  0.23686700  0.07308000  1
  S  S26  1  0.04646400  0.99068000  0.14436900  1
  S  S27  1  0.24352300  0.27194600  0.65714700  1
  S  S28  1  0.53666800  0.51348300  0.14842700  1
  S  S29  1  0.92902100  0.73686700  0.07308000  1
  S  S30  1  0.90559600  0.54031500  0.95565300  1
  S  S31  1  0.53860000  0.65210200  0.30022700  1
  S  S32  1  0.50888900  0.67460400  0.99107500  1
  S  S33  1  0.74718400  0.06668300  0.50187900  1
  S  S34  1  0.46333200  0.01348300  0.14842700  1
  S  S35  1  0.04646400  0.50932000  0.64436900  1
  S  S36  1  0.93420600  0.43583200  0.73166500  1
  S  S37  1  0.95353600  0.49068000  0.14436900  1
  S  S38  1  0.90559600  0.95968500  0.45565300  1
  S  S39  1  0.22791600  0.16020700  0.35037900  1
  O  O0  1  0.72861400  0.07697800  0.79075500  1
  O  O1  1  0.27138600  0.57697800  0.79075500  1
  O  O2  1  0.27138600  0.92302200  0.29075500  1
  O  O3  1  0.72861400  0.42302200  0.29075500  1
loop_
_geom_bond_atom_site_label_1
_geom_bond_atom_site_label_2
_geom_bond_distance
_geom_bond_site_symmetry_2
Rb0 S6 3.280204 1_545
Rb0 S1 3.341890 1_555
Rb0 S39 3.373716 1_555
Rb0 S38 3.544095 1_445
Rb0 S22 3.622494 1_545
Rb0 S21 3.642001 1_455
Rb0 S33 3.645985 1_555
Rb0 S27 3.809558 1_555
Rb0 S11 3.853152 1_555
Rb1 S8 3.280204 1_555
Rb1 S19 3.341890 1_555
Rb1 S16 3.373716 1_555
Rb1 S3 3.544095 1_655
Rb1 S11 3.622494 1_555
Rb1 S35 3.642001 1_655
Rb1 S15 3.645985 1_555
Rb1 S14 3.809558 1_555
Rb1 S22 3.853152 1_555
Rb2 S33 3.483158 1_555
Rb2 S39 3.496226 1_655
Rb2 S3 3.549819 1_655
Rb2 S23 3.674221 1_555
Rb3 S4 3.426258 1_555
Rb3 S17 3.438851 1_545
Rb3 S7 3.476430 1_555
Rb3 S0 3.480291 1_555
Rb3 S12 3.581427 1_545
Rb3 S18 3.640083 1_555
Rb3 S6 3.652991 1_545
Rb3 S27 3.815402 1_555
Rb4 S19 3.416987 1_455
Rb4 S22 3.524974 1_555
Rb4 S14 3.538641 1_555
Rb4 S8 3.542717 1_555
Rb4 S12 3.579113 1_555
Rb4 S17 3.600284 1_555
Rb4 S15 3.614612 1_555
Rb4 S6 3.718525 1_555
Rb4 S35 3.722848 1_555
Rb5 S29 3.416987 1_455
Rb5 S32 3.524974 1_554
Rb5 S5 3.538641 1_555
Rb5 S34 3.542717 1_565
Rb5 S31 3.579113 1_555
Rb5 S13 3.600284 1_555
Rb5 S24 3.614612 1_555
Rb5 S28 3.718525 1_555
Rb5 S26 3.722848 1_555
Rb6 S2 3.483158 1_556
Rb6 S7 3.496226 1_655
Rb6 S4 3.549819 1_655
Rb6 S0 3.674221 1_555
Rb7 S1 3.416987 1_655
Rb7 S11 3.524974 1_555
Rb7 S27 3.538641 1_555
Rb7 S6 3.542717 1_545
Rb7 S0 3.579113 1_555
Rb7 S36 3.600284 1_555
Rb7 S33 3.614612 1_555
Rb7 S8 3.718525 1_555
Rb7 S21 3.722848 1_555
Rb8 S24 3.483158 1_556
Rb8 S20 3.496226 1_455
Rb8 S30 3.549819 1_455
Rb8 S12 3.674221 1_555
Rb9 S38 3.426258 1_555
Rb9 S10 3.438851 1_565
Rb9 S16 3.476430 1_555
Rb9 S31 3.480291 1_555
Rb9 S23 3.581427 1_565
Rb9 S22 3.640083 1_555
Rb9 S34 3.652991 1_565
Rb9 S5 3.815402 1_555
Rb10 S3 3.426258 1_555
Rb10 S13 3.438851 1_555
Rb10 S39 3.476430 1_555
Rb10 S23 3.480291 1_555
Rb10 S31 3.581427 1_555
Rb10 S11 3.640083 1_555
Rb10 S28 3.652991 1_555
Rb10 S9 3.815402 1_555
Rb11 S28 3.280204 1_555
Rb11 S25 3.341890 1_555
Rb11 S7 3.373716 1_554
Rb11 S30 3.544095 1_454
Rb11 S32 3.622494 1_554
Rb11 S37 3.642001 1_455
Rb11 S2 3.645985 1_555
Rb11 S9 3.809558 1_555
Rb11 S18 3.853152 1_554
Rb12 S34 3.280204 1_565
Rb12 S29 3.341890 1_555
Rb12 S20 3.373716 1_554
Rb12 S4 3.544095 1_664
Rb12 S18 3.622494 1_564
Rb12 S26 3.642001 1_655
Rb12 S24 3.645985 1_555
Rb12 S5 3.809558 1_555
Rb12 S32 3.853152 1_554
Rb13 S25 3.416987 1_655
Rb13 S18 3.524974 1_554
Rb13 S9 3.538641 1_555
Rb13 S28 3.542717 1_555
Rb13 S23 3.579113 1_555
Rb13 S10 3.600284 1_555
Rb13 S2 3.614612 1_555
Rb13 S34 3.718525 1_555
Rb13 S37 3.722848 1_555
Rb14 S30 3.426258 1_555
Rb14 S36 3.438851 1_555
Rb14 S20 3.476430 1_555
Rb14 S12 3.480291 1_555
Rb14 S0 3.581427 1_555
Rb14 S32 3.640083 1_555
Rb14 S8 3.652991 1_555
Rb14 S14 3.815402 1_555
Rb15 S15 3.483158 1_555
Rb15 S16 3.496226 1_455
Rb15 S38 3.549819 1_455
Rb15 S31 3.674221 1_555
Nb0 O1 1.795325 1_555
Nb0 S36 2.482387 1_455
Nb0 S35 2.506309 1_555
Nb0 S0 2.506984 1_555
Nb0 S7 2.518940 1_555
Nb0 S8 2.525771 1_555
Nb0 S27 2.955137 1_555
Nb1 S22 2.273076 1_555
Nb1 S19 2.457718 1_555
Nb1 S33 2.471179 1_565
Nb1 S14 2.507495 1_555
Nb1 S38 2.524999 1_555
Nb1 S6 2.526626 1_555
Nb1 S21 2.885385 1_565
Nb2 O0 1.795325 1_565
Nb2 S17 2.482387 1_655
Nb2 S21 2.506309 1_565
Nb2 S12 2.506984 1_555
Nb2 S20 2.518940 1_555
Nb2 S6 2.525771 1_555
Nb2 S14 2.955137 1_555
Nb3 S18 2.273076 1_554
Nb3 S25 2.457718 1_555
Nb3 S24 2.471179 1_545
Nb3 S9 2.507495 1_555
Nb3 S4 2.524999 1_554
Nb3 S34 2.526626 1_555
Nb3 S26 2.885385 1_545
Nb4 O3 1.795325 1_555
Nb4 S13 2.482387 1_655
Nb4 S37 2.506309 1_555
Nb4 S31 2.506984 1_555
Nb4 S16 2.518940 1_555
Nb4 S28 2.525771 1_555
Nb4 S5 2.955137 1_555
Nb5 O2 1.795325 1_545
Nb5 S10 2.482387 1_455
Nb5 S26 2.506309 1_545
Nb5 S23 2.506984 1_555
Nb5 S39 2.518940 1_555
Nb5 S34 2.525771 1_555
Nb5 S9 2.955137 1_555
Nb6 S11 2.273076 1_555
Nb6 S1 2.457718 1_555
Nb6 S15 2.471179 1_555
Nb6 S27 2.507495 1_555
Nb6 S3 2.524999 1_555
Nb6 S8 2.526626 1_555
Nb6 S35 2.885385 1_555
Nb7 S32 2.273076 1_554
Nb7 S29 2.457718 1_555
Nb7 S2 2.471179 1_555
Nb7 S5 2.507495 1_555
Nb7 S30 2.524999 1_554
Nb7 S28 2.526626 1_555
Nb7 S37 2.885385 1_555
S0 S7 2.080574 1_555
S1 S27 2.077348 1_555
S2 S30 2.080140 1_554
S10 S26 2.085043 1_645
S12 S20 2.080574 1_555
S13 S37 2.085043 1_455
S14 S19 2.077348 1_555
S15 S3 2.080140 1_555
S16 S31 2.080574 1_555
S17 S21 2.085043 1_465
S23 S39 2.080574 1_555
S24 S4 2.080140 1_564
S25 S9 2.077348 1_555
S29 S5 2.077348 1_555
S33 S38 2.080140 1_545
S35 S36 2.085043 1_455
O0 Rb6 2.832672 1_555
O0 Rb3 3.027652 1_555
O0 Rb7 3.372689 1_555
O1 Rb8 2.832672 1_555
O1 Rb14 3.027652 1_555
O1 Rb4 3.372689 1_555
O2 Rb15 2.832672 1_555
O2 Rb9 3.027652 1_555
O2 Rb5 3.372689 1_555
O3 Rb2 2.832672 1_555
O3 Rb10 3.027652 1_555
O3 Rb13 3.372689 1_555
