# generated using pymatgen
data_MnPbO3
_symmetry_space_group_name_H-M   'P 1'
_cell_length_a   5.60775409
_cell_length_b   5.59410347
_cell_length_c   13.85591761
_cell_angle_alpha   88.94657284
_cell_angle_beta   87.89792105
_cell_angle_gamma   59.91925256
_symmetry_Int_Tables_number   1
_chemical_formula_structural   MnPbO3
_chemical_formula_sum   'Mn6 Pb6 O18'
_cell_volume   375.87122834
_cell_formula_units_Z   6
loop_
 _symmetry_equiv_pos_site_id
 _symmetry_equiv_pos_as_xyz
  1  'x, y, z'
loop_
 _atom_site_type_symbol
 _atom_site_label
 _atom_site_symmetry_multiplicity
 _atom_site_fract_x
 _atom_site_fract_y
 _atom_site_fract_z
 _atom_site_occupancy
  Mn  Mn0  1  0.00000000  0.00000000  0.00000000  1
  Mn  Mn1  1  0.00000000  0.00000000  0.50000000  1
  Mn  Mn2  1  0.68037900  0.67408300  0.84509700  1
  Mn  Mn3  1  0.64553900  0.67408300  0.65490300  1
  Mn  Mn4  1  0.31962100  0.32591700  0.15490300  1
  Mn  Mn5  1  0.35446100  0.32591700  0.34509700  1
  Pb  Pb0  1  0.01073000  0.97854100  0.25000000  1
  Pb  Pb1  1  0.98927000  0.02145900  0.75000000  1
  Pb  Pb2  1  0.66960300  0.65969800  0.08932200  1
  Pb  Pb3  1  0.67070000  0.65969800  0.41067800  1
  Pb  Pb4  1  0.33039700  0.34030200  0.91067800  1
  Pb  Pb5  1  0.32930000  0.34030200  0.58932200  1
  O  O0  1  0.48732300  0.02535500  0.25000000  1
  O  O1  1  0.51267700  0.97464500  0.75000000  1
  O  O2  1  0.04023900  0.47501500  0.26493400  1
  O  O3  1  0.48474700  0.47501500  0.23506600  1
  O  O4  1  0.95976100  0.52498500  0.73506600  1
  O  O5  1  0.51525300  0.52498500  0.76493400  1
  O  O6  1  0.10622300  0.66401500  0.07992000  1
  O  O7  1  0.22976200  0.66401500  0.42008000  1
  O  O8  1  0.89377700  0.33598500  0.92008000  1
  O  O9  1  0.77023800  0.33598500  0.57992000  1
  O  O10  1  0.10585900  0.16902200  0.10049300  1
  O  O11  1  0.72512000  0.16902200  0.39950700  1
  O  O12  1  0.89414100  0.83097800  0.89950700  1
  O  O13  1  0.27488000  0.83097800  0.60049300  1
  O  O14  1  0.61445800  0.16486800  0.05832400  1
  O  O15  1  0.22067500  0.16486800  0.44167600  1
  O  O16  1  0.38554200  0.83513200  0.94167600  1
  O  O17  1  0.77932500  0.83513200  0.55832400  1
loop_
_geom_bond_atom_site_label_1
_geom_bond_atom_site_label_2
_geom_bond_distance
_geom_bond_site_symmetry_2
Mn0 O10 1.963917 1_555
Mn0 O12 1.963917 1_444
Mn0 O6 1.990798 1_545
Mn0 O8 1.990798 1_454
Mn0 O16 2.019505 1_544
Mn0 O14 2.019505 1_455
Mn1 O11 1.963914 1_455
Mn1 O13 1.963914 1_545
Mn1 O7 1.990798 1_545
Mn1 O9 1.990798 1_455
Mn1 O15 2.019509 1_555
Mn1 O17 2.019509 1_445
Mn2 O5 1.915877 1_555
Mn2 O16 1.929995 1_555
Mn2 O8 1.959283 1_555
Mn2 O1 1.967744 1_555
Mn2 O12 1.980136 1_555
Mn2 O4 2.009026 1_555
Mn3 O4 1.915869 1_555
Mn3 O17 1.929989 1_555
Mn3 O9 1.959284 1_555
Mn3 O1 1.967744 1_555
Mn3 O13 1.980146 1_555
Mn3 O5 2.009032 1_555
Mn4 O3 1.915877 1_555
Mn4 O14 1.929995 1_555
Mn4 O6 1.959283 1_555
Mn4 O0 1.967744 1_555
Mn4 O10 1.980136 1_555
Mn4 O2 2.009026 1_555
Mn5 O2 1.915869 1_555
Mn5 O15 1.929989 1_555
Mn5 O7 1.959284 1_555
Mn5 O0 1.967744 1_555
Mn5 O11 1.980146 1_555
Mn5 O3 2.009032 1_555
O0 Pb0 2.813020 1_545
O0 Pb0 2.813020 1_645
O0 Pb2 2.844313 1_545
O0 Pb3 2.844314 1_545
O1 Pb1 2.813020 1_565
O1 Pb1 2.813020 1_465
O1 Pb4 2.844313 1_565
O1 Pb5 2.844314 1_565
O2 Pb3 2.657690 1_455
O2 Pb0 2.741944 1_555
O2 Pb0 2.875430 1_545
O3 Pb2 2.657690 1_555
O3 Pb0 2.741944 1_555
O3 Pb0 2.875431 1_645
O4 Pb5 2.657690 1_655
O4 Pb1 2.741944 1_555
O4 Pb1 2.875430 1_565
O5 Pb4 2.657690 1_555
O5 Pb1 2.741944 1_555
O5 Pb1 2.875431 1_465
O6 Pb2 2.459321 1_455
O6 Pb4 2.831345 1_554
O6 Pb0 2.837530 1_555
O7 Pb3 2.459326 1_555
O7 Pb5 2.831346 1_555
O7 Pb0 2.837529 1_555
O8 Pb4 2.459321 1_655
O8 Pb2 2.831345 1_556
O8 Pb1 2.837530 1_555
O9 Pb5 2.459326 1_555
O9 Pb3 2.831346 1_555
O9 Pb1 2.837529 1_555
O10 Pb0 2.473653 1_545
O10 Pb2 2.612272 1_455
O11 Pb0 2.473653 1_645
O11 Pb3 2.612272 1_555
O12 Pb1 2.473653 1_565
O12 Pb4 2.612272 1_655
O13 Pb1 2.473653 1_465
O13 Pb5 2.612272 1_555
O14 Pb4 2.506772 1_554
O14 Pb2 2.712067 1_545
O15 Pb5 2.506767 1_555
O15 Pb3 2.712067 1_545
O16 Pb2 2.506772 1_556
O16 Pb4 2.712067 1_565
O17 Pb3 2.506767 1_555
O17 Pb5 2.712067 1_565
