# generated using pymatgen
data_Ca20Er10F69
_symmetry_space_group_name_H-M   'P 1'
_cell_length_a   8.78343500
_cell_length_b   8.78423507
_cell_length_c   16.67017549
_cell_angle_alpha   90.28155372
_cell_angle_beta   90.20060570
_cell_angle_gamma   90.00729223
_symmetry_Int_Tables_number   1
_chemical_formula_structural   Ca20Er10F69
_chemical_formula_sum   'Ca20 Er10 F69'
_cell_volume   1286.17659571
_cell_formula_units_Z   1
loop_
 _symmetry_equiv_pos_site_id
 _symmetry_equiv_pos_as_xyz
  1  'x, y, z'
loop_
 _atom_site_type_symbol
 _atom_site_label
 _atom_site_symmetry_multiplicity
 _atom_site_fract_x
 _atom_site_fract_y
 _atom_site_fract_z
 _atom_site_occupancy
  Ca  Ca0  1  0.80744500  0.38059300  0.83678800  1
  Ca  Ca1  1  0.62237700  0.80891600  0.83820200  1
  Ca  Ca2  1  0.38041500  0.19399200  0.83618900  1
  Ca  Ca3  1  0.30582600  0.89367700  0.33137900  1
  Ca  Ca4  1  0.30554800  0.89124600  0.66772100  1
  Ca  Ca5  1  0.19248700  0.62247400  0.83750300  1
  Ca  Ca6  1  0.10844200  0.30678900  0.33267000  1
  Ca  Ca7  1  0.10667300  0.30457000  0.66889600  1
  Ca  Ca8  1  0.00025900  0.00132600  0.17811100  1
  Ca  Ca9  1  0.00000000  0.00000000  0.50000000  1
  Ca  Ca10  1  0.99974100  0.99867400  0.82188900  1
  Ca  Ca11  1  0.89332700  0.69543000  0.33110400  1
  Ca  Ca12  1  0.89155800  0.69321100  0.66733000  1
  Ca  Ca13  1  0.80751300  0.37752600  0.16249700  1
  Ca  Ca14  1  0.69445200  0.10875400  0.33227900  1
  Ca  Ca15  1  0.69417400  0.10632300  0.66862100  1
  Ca  Ca16  1  0.61958500  0.80600800  0.16381100  1
  Ca  Ca17  1  0.50000000  0.50000000  0.00000000  1
  Ca  Ca18  1  0.37762300  0.19108400  0.16179800  1
  Ca  Ca19  1  0.19255500  0.61940700  0.16321200  1
  Er  Er0  1  0.50017100  0.50138400  0.67974100  1
  Er  Er1  1  0.39322400  0.18911900  0.49969900  1
  Er  Er2  1  0.18918300  0.60674400  0.49970600  1
  Er  Er3  1  0.89193400  0.68530600  0.99979900  1
  Er  Er4  1  0.81081700  0.39325600  0.50029400  1
  Er  Er5  1  0.68531900  0.10808400  0.99970300  1
  Er  Er6  1  0.60677600  0.81088100  0.50030100  1
  Er  Er7  1  0.49982900  0.49861600  0.32025900  1
  Er  Er8  1  0.31468100  0.89191600  0.00029700  1
  Er  Er9  1  0.10806600  0.31469400  0.00020100  1
  F  F0  1  0.77608200  0.07974300  0.87709500  1
  F  F1  1  0.69669500  0.59301800  0.75819000  1
  F  F2  1  0.70552200  0.57923700  0.91960700  1
  F  F3  1  0.59247800  0.30396500  0.75727400  1
  F  F4  1  0.57631400  0.71639000  0.62276700  1
  F  F5  1  0.58135000  0.29446500  0.91902600  1
  F  F6  1  0.49996100  0.00109900  0.58120800  1
  F  F7  1  0.50003100  0.00058700  0.75106500  1
  F  F8  1  0.49709600  0.00174300  0.91891400  1
  F  F9  1  0.42303000  0.28727800  0.62150900  1
  F  F10  1  0.40763400  0.69734000  0.75812200  1
  F  F11  1  0.35529500  0.79083500  0.50067300  1
  F  F12  1  0.42025700  0.70522300  0.91977400  1
  F  F13  1  0.28442000  0.57435500  0.37750700  1
  F  F14  1  0.30344900  0.40823800  0.75729700  1
  F  F15  1  0.28638800  0.57880200  0.62184700  1
  F  F16  1  0.20455200  0.10176100  0.26073700  1
  F  F17  1  0.29477500  0.41820000  0.91924200  1
  F  F18  1  0.20698700  0.08269900  0.42036000  1
  F  F19  1  0.20919100  0.35524000  0.49708600  1
  F  F20  1  0.20685900  0.08551900  0.57986600  1
  F  F21  1  0.22046100  0.91325800  0.87788700  1
  F  F22  1  0.20433100  0.09994800  0.73978700  1
  F  F23  1  0.10102200  0.79627400  0.25993500  1
  F  F24  1  0.08269400  0.22414300  0.12304800  1
  F  F25  1  0.08487200  0.79288400  0.41994400  1
  F  F26  1  0.08349900  0.79315200  0.57945900  1
  F  F27  1  0.99970900  0.50084400  0.08111800  1
  F  F28  1  0.10066900  0.79486100  0.73894800  1
  F  F29  1  0.00037200  0.50040700  0.24900700  1
  F  F30  1  0.08356000  0.22022800  0.87808300  1
  F  F31  1  0.99753300  0.50165200  0.41883200  1
  F  F32  1  0.00246700  0.49834800  0.58116800  1
  F  F33  1  0.91644000  0.77977200  0.12191700  1
  F  F34  1  0.99962800  0.49959300  0.75099300  1
  F  F35  1  0.89933100  0.20513900  0.26105200  1
  F  F36  1  0.00029100  0.49915600  0.91888200  1
  F  F37  1  0.85306300  0.29408600  0.00007600  1
  F  F38  1  0.91650100  0.20684800  0.42054100  1
  F  F39  1  0.91512800  0.20711600  0.58005600  1
  F  F40  1  0.91730600  0.77585700  0.87695200  1
  F  F41  1  0.89897800  0.20372600  0.74006500  1
  F  F42  1  0.79566900  0.90005200  0.26021300  1
  F  F43  1  0.77953900  0.08674200  0.12211300  1
  F  F44  1  0.79314100  0.91448100  0.42013400  1
  F  F45  1  0.79080900  0.64476000  0.50291400  1
  F  F46  1  0.79301300  0.91730100  0.57964000  1
  F  F47  1  0.70586300  0.85300900  0.99700600  1
  F  F48  1  0.70522500  0.58180000  0.08075800  1
  F  F49  1  0.79544800  0.89823900  0.73926300  1
  F  F50  1  0.71361200  0.42119800  0.37815300  1
  F  F51  1  0.69655100  0.59176200  0.24270300  1
  F  F52  1  0.71558000  0.42564500  0.62249300  1
  F  F53  1  0.57974300  0.29477700  0.08022600  1
  F  F54  1  0.64470500  0.20916500  0.49932700  1
  F  F55  1  0.59236600  0.30266000  0.24187800  1
  F  F56  1  0.57697000  0.71272200  0.37849100  1
  F  F57  1  0.50290400  0.99825700  0.08108600  1
  F  F58  1  0.49996900  0.99941300  0.24893500  1
  F  F59  1  0.50003900  0.99890100  0.41879200  1
  F  F60  1  0.50000000  0.50000000  0.50000000  1
  F  F61  1  0.41865000  0.70553500  0.08097400  1
  F  F62  1  0.42368600  0.28361000  0.37723300  1
  F  F63  1  0.40752200  0.69603500  0.24272600  1
  F  F64  1  0.29413700  0.14699100  0.00299400  1
  F  F65  1  0.29447800  0.42076300  0.08039300  1
  F  F66  1  0.30330500  0.40698200  0.24181000  1
  F  F67  1  0.22391800  0.92025700  0.12290500  1
  F  F68  1  0.14693700  0.70591400  0.99992400  1
loop_
_geom_bond_atom_site_label_1
_geom_bond_atom_site_label_2
_geom_bond_distance
_geom_bond_site_symmetry_2
Ca0 F41 2.375868 1_555
Ca0 F2 2.395349 1_555
Ca0 F3 2.397615 1_555
Ca0 F36 2.407485 1_655
Ca0 F34 2.453326 1_555
Ca0 F1 2.482035 1_555
Ca0 F5 2.534652 1_555
Ca0 F0 2.744083 1_555
Ca0 F37 2.856617 1_556
Ca0 F30 2.887692 1_655
Ca1 F49 2.382602 1_555
Ca1 F1 2.404875 1_555
Ca1 F12 2.420571 1_555
Ca1 F8 2.424609 1_565
Ca1 F7 2.472483 1_565
Ca1 F10 2.503881 1_555
Ca1 F2 2.542784 1_555
Ca1 F40 2.683759 1_555
Ca1 F47 2.769863 1_555
Ca1 F0 2.807239 1_565
Ca2 F22 2.371979 1_555
Ca2 F14 2.397272 1_555
Ca2 F5 2.402349 1_555
Ca2 F8 2.411936 1_555
Ca2 F7 2.447654 1_555
Ca2 F3 2.482428 1_555
Ca2 F17 2.518427 1_555
Ca2 F30 2.711225 1_555
Ca2 F64 2.915960 1_556
Ca2 F21 2.925949 1_545
Ca3 F23 2.315401 1_555
Ca3 F16 2.352307 1_565
Ca3 F58 2.384942 1_555
Ca3 F18 2.386649 1_565
Ca3 F59 2.420054 1_555
Ca3 F63 2.445513 1_555
Ca3 F25 2.600496 1_555
Ca4 F28 2.321528 1_555
Ca4 F22 2.362376 1_565
Ca4 F7 2.395982 1_565
Ca4 F20 2.413431 1_565
Ca4 F6 2.440805 1_565
Ca4 F10 2.447958 1_555
Ca4 F26 2.584229 1_555
Ca4 F15 2.850300 1_555
Ca4 F4 2.928994 1_555
Ca4 F11 2.950941 1_555
Ca5 F28 2.378692 1_555
Ca5 F10 2.404252 1_555
Ca5 F36 2.427683 1_555
Ca5 F17 2.428907 1_555
Ca5 F34 2.466078 1_455
Ca5 F14 2.502799 1_555
Ca5 F12 2.526328 1_555
Ca5 F21 2.649507 1_555
Ca5 F68 2.831338 1_555
Ca5 F40 2.844843 1_455
Ca6 F16 2.319582 1_555
Ca6 F35 2.360069 1_455
Ca6 F29 2.398600 1_555
Ca6 F38 2.405878 1_455
Ca6 F31 2.434770 1_455
Ca6 F66 2.455425 1_555
Ca6 F18 2.603991 1_555
Ca6 F62 2.871844 1_555
Ca6 F13 2.906158 1_555
Ca6 F19 2.906528 1_555
Ca7 F22 2.318908 1_555
Ca7 F41 2.354847 1_455
Ca7 F34 2.382896 1_455
Ca7 F39 2.392991 1_455
Ca7 F32 2.426814 1_555
Ca7 F14 2.440652 1_555
Ca7 F20 2.580908 1_555
Ca8 F33 2.276853 1_445
Ca8 F43 2.277597 1_455
Ca8 F24 2.284668 1_555
Ca8 F67 2.284706 1_545
Ca8 F16 2.421932 1_555
Ca8 F35 2.426427 1_455
Ca8 F23 2.429890 1_545
Ca8 F42 2.433646 1_445
Ca9 F44 2.368762 1_445
Ca9 F20 2.368762 1_555
Ca9 F26 2.368781 1_545
Ca9 F38 2.368781 1_455
Ca9 F18 2.371003 1_555
Ca9 F46 2.371003 1_445
Ca9 F39 2.372813 1_455
Ca9 F25 2.372813 1_545
Ca10 F30 2.276853 1_665
Ca10 F21 2.277597 1_655
Ca10 F40 2.284668 1_555
Ca10 F0 2.284706 1_565
Ca10 F49 2.421932 1_555
Ca10 F28 2.426427 1_655
Ca10 F41 2.429890 1_565
Ca10 F22 2.433646 1_665
Ca11 F42 2.318908 1_555
Ca11 F23 2.354847 1_655
Ca11 F29 2.382896 1_655
Ca11 F25 2.392991 1_655
Ca11 F31 2.426814 1_555
Ca11 F51 2.440652 1_555
Ca11 F44 2.580908 1_555
Ca12 F49 2.319582 1_555
Ca12 F28 2.360069 1_655
Ca12 F34 2.398600 1_555
Ca12 F26 2.405878 1_655
Ca12 F32 2.434770 1_655
Ca12 F1 2.455425 1_555
Ca12 F46 2.603991 1_555
Ca12 F4 2.871844 1_555
Ca12 F52 2.906158 1_555
Ca12 F45 2.906528 1_555
Ca13 F35 2.378692 1_555
Ca13 F55 2.404252 1_555
Ca13 F27 2.427683 1_555
Ca13 F48 2.428907 1_555
Ca13 F29 2.466078 1_655
Ca13 F51 2.502799 1_555
Ca13 F53 2.526328 1_555
Ca13 F43 2.649507 1_555
Ca13 F37 2.831338 1_555
Ca13 F24 2.844843 1_655
Ca14 F35 2.321528 1_555
Ca14 F42 2.362376 1_545
Ca14 F58 2.395982 1_545
Ca14 F44 2.413431 1_545
Ca14 F59 2.440805 1_545
Ca14 F55 2.447958 1_555
Ca14 F38 2.584229 1_555
Ca14 F50 2.850300 1_555
Ca14 F62 2.928994 1_555
Ca14 F54 2.950941 1_555
Ca15 F41 2.315401 1_555
Ca15 F49 2.352307 1_545
Ca15 F7 2.384942 1_555
Ca15 F46 2.386649 1_545
Ca15 F6 2.420054 1_555
Ca15 F3 2.445513 1_555
Ca15 F39 2.600496 1_555
Ca16 F42 2.371979 1_555
Ca16 F51 2.397272 1_555
Ca16 F61 2.402349 1_555
Ca16 F57 2.411936 1_555
Ca16 F58 2.447654 1_555
Ca16 F63 2.482428 1_555
Ca16 F48 2.518427 1_555
Ca16 F33 2.711225 1_555
Ca16 F47 2.915960 1_554
Ca16 F43 2.925949 1_565
Ca17 F53 2.355091 1_555
Ca17 F12 2.355091 1_554
Ca17 F17 2.356092 1_554
Ca17 F48 2.356092 1_555
Ca17 F65 2.359027 1_555
Ca17 F2 2.359027 1_554
Ca17 F61 2.361249 1_555
Ca17 F5 2.361249 1_554
Ca18 F16 2.382602 1_555
Ca18 F66 2.404875 1_555
Ca18 F53 2.420571 1_555
Ca18 F57 2.424609 1_545
Ca18 F58 2.472483 1_545
Ca18 F55 2.503881 1_555
Ca18 F65 2.542784 1_555
Ca18 F24 2.683759 1_555
Ca18 F64 2.769863 1_555
Ca18 F67 2.807239 1_545
Ca19 F23 2.375868 1_555
Ca19 F65 2.395349 1_555
Ca19 F63 2.397615 1_555
Ca19 F27 2.407485 1_455
Ca19 F29 2.453326 1_555
Ca19 F66 2.482035 1_555
Ca19 F61 2.534652 1_555
Ca19 F67 2.744083 1_555
Ca19 F68 2.856617 1_554
Ca19 F33 2.887692 1_455
Er0 F15 2.216739 1_555
Er0 F9 2.217160 1_555
Er0 F4 2.222195 1_555
Er0 F52 2.222588 1_555
Er0 F1 2.304617 1_555
Er0 F10 2.305763 1_555
Er0 F3 2.313069 1_555
Er0 F14 2.313503 1_555
Er0 F60 2.996274 1_555
Er1 F19 2.178282 1_555
Er1 F54 2.215885 1_555
Er1 F9 2.216831 1_555
Er1 F62 2.224591 1_555
Er1 F18 2.295930 1_555
Er1 F20 2.306634 1_555
Er1 F6 2.338064 1_555
Er1 F59 2.340596 1_545
Er1 F60 2.887272 1_555
Er2 F11 2.177849 1_555
Er2 F19 2.216500 1_555
Er2 F15 2.219854 1_555
Er2 F13 2.221864 1_555
Er2 F25 2.300904 1_555
Er2 F26 2.301766 1_555
Er2 F32 2.338439 1_555
Er2 F31 2.339860 1_455
Er2 F60 2.886688 1_555
Er3 F47 2.200942 1_555
Er3 F33 2.204403 1_556
Er3 F40 2.212540 1_555
Er3 F68 2.247076 1_655
Er3 F2 2.303936 1_555
Er3 F48 2.316184 1_556
Er3 F27 2.317828 1_556
Er3 F36 2.320968 1_655
Er4 F54 2.177849 1_555
Er4 F45 2.216500 1_555
Er4 F50 2.219854 1_555
Er4 F52 2.221864 1_555
Er4 F39 2.300904 1_555
Er4 F38 2.301766 1_555
Er4 F31 2.338439 1_555
Er4 F32 2.339860 1_655
Er4 F60 2.886688 1_555
Er5 F37 2.199922 1_556
Er5 F43 2.208174 1_556
Er5 F0 2.209411 1_555
Er5 F47 2.248158 1_545
Er5 F5 2.310106 1_555
Er5 F53 2.310563 1_556
Er5 F57 2.316488 1_546
Er5 F8 2.321904 1_555
Er6 F45 2.178282 1_555
Er6 F11 2.215885 1_555
Er6 F56 2.216831 1_555
Er6 F4 2.224591 1_555
Er6 F46 2.295930 1_555
Er6 F44 2.306634 1_555
Er6 F59 2.338064 1_555
Er6 F6 2.340596 1_565
Er6 F60 2.887272 1_555
Er7 F50 2.216739 1_555
Er7 F56 2.217160 1_555
Er7 F62 2.222195 1_555
Er7 F13 2.222588 1_555
Er7 F66 2.304617 1_555
Er7 F55 2.305763 1_555
Er7 F63 2.313069 1_555
Er7 F51 2.313503 1_555
Er7 F60 2.996274 1_555
Er8 F68 2.199922 1_554
Er8 F21 2.208174 1_554
Er8 F67 2.209411 1_555
Er8 F64 2.248158 1_565
Er8 F61 2.310106 1_555
Er8 F12 2.310563 1_554
Er8 F8 2.316488 1_564
Er8 F57 2.321904 1_555
Er9 F64 2.200942 1_555
Er9 F30 2.204403 1_554
Er9 F24 2.212540 1_555
Er9 F37 2.247076 1_455
Er9 F65 2.303936 1_555
Er9 F17 2.316184 1_554
Er9 F36 2.317828 1_554
Er9 F27 2.320968 1_455
