# generated using pymatgen
data_Na3Ce2C4O12F
_symmetry_space_group_name_H-M   'P 1'
_cell_length_a   5.11927731
_cell_length_b   5.11927731
_cell_length_c   22.92006800
_cell_angle_alpha   90.00000000
_cell_angle_beta   90.00000000
_cell_angle_gamma   119.99999108
_symmetry_Int_Tables_number   1
_chemical_formula_structural   Na3Ce2C4O12F
_chemical_formula_sum   'Na6 Ce4 C8 O24 F2'
_cell_volume   520.19225773
_cell_formula_units_Z   2
loop_
 _symmetry_equiv_pos_site_id
 _symmetry_equiv_pos_as_xyz
  1  'x, y, z'
loop_
 _atom_site_type_symbol
 _atom_site_label
 _atom_site_symmetry_multiplicity
 _atom_site_fract_x
 _atom_site_fract_y
 _atom_site_fract_z
 _atom_site_occupancy
  Na  Na0  1  0.66666700  0.33333300  0.97720300  1
  Na  Na1  1  0.66666700  0.33333300  0.52279700  1
  Na  Na2  1  0.33333300  0.66666700  0.47720300  1
  Na  Na3  1  0.33333300  0.66666700  0.02279700  1
  Na  Na4  1  0.00000000  0.00000000  0.75000000  1
  Na  Na5  1  0.00000000  0.00000000  0.25000000  1
  Ce  Ce0  1  0.33333300  0.66666700  0.64537900  1
  Ce  Ce1  1  0.66666700  0.33333300  0.35462100  1
  Ce  Ce2  1  0.33333300  0.66666700  0.85462100  1
  Ce  Ce3  1  0.66666700  0.33333300  0.14537900  1
  C  C0  1  0.00000000  0.00000000  0.43671500  1
  C  C1  1  0.66666700  0.33333300  0.82316400  1
  C  C2  1  0.00000000  0.00000000  0.93671500  1
  C  C3  1  0.00000000  0.00000000  0.06328500  1
  C  C4  1  0.33333300  0.66666700  0.32316400  1
  C  C5  1  0.33333300  0.66666700  0.17683600  1
  C  C6  1  0.00000000  0.00000000  0.56328500  1
  C  C7  1  0.66666700  0.33333300  0.67683600  1
  O  O0  1  0.29305300  0.14652700  0.06242400  1
  O  O1  1  0.81253300  0.18746700  0.67547700  1
  O  O2  1  0.14652700  0.85347300  0.93757600  1
  O  O3  1  0.70694700  0.85347300  0.56242400  1
  O  O4  1  0.85347300  0.70694700  0.06242400  1
  O  O5  1  0.14652700  0.29305300  0.56242400  1
  O  O6  1  0.62506600  0.81253300  0.32452300  1
  O  O7  1  0.18746700  0.81253300  0.17547700  1
  O  O8  1  0.14652700  0.85347300  0.56242400  1
  O  O9  1  0.37493400  0.18746700  0.82452300  1
  O  O10  1  0.81253300  0.62506600  0.82452300  1
  O  O11  1  0.85347300  0.14652700  0.06242400  1
  O  O12  1  0.18746700  0.37493400  0.32452300  1
  O  O13  1  0.18746700  0.81253300  0.32452300  1
  O  O14  1  0.37493400  0.18746700  0.67547700  1
  O  O15  1  0.18746700  0.37493400  0.17547700  1
  O  O16  1  0.81253300  0.62506600  0.67547700  1
  O  O17  1  0.85347300  0.70694700  0.43757600  1
  O  O18  1  0.29305300  0.14652700  0.43757600  1
  O  O19  1  0.85347300  0.14652700  0.43757600  1
  O  O20  1  0.70694700  0.85347300  0.93757600  1
  O  O21  1  0.14652700  0.29305300  0.93757600  1
  O  O22  1  0.62506600  0.81253300  0.17547700  1
  O  O23  1  0.81253300  0.18746700  0.82452300  1
  F  F0  1  0.66666700  0.33333300  0.25000000  1
  F  F1  1  0.33333300  0.66666700  0.75000000  1
loop_
_geom_bond_atom_site_label_1
_geom_bond_atom_site_label_2
_geom_bond_distance
_geom_bond_site_symmetry_2
Na0 O11 2.561028 1_556
Na0 O0 2.561034 1_556
Na0 O4 2.561034 1_556
Na0 O20 2.721868 1_545
Na0 O21 2.721868 1_655
Na0 O21 2.721868 1_555
Na0 O20 2.721868 1_555
Na0 O2 2.721868 1_545
Na0 O2 2.721868 1_655
Na1 O19 2.561028 1_555
Na1 O17 2.561034 1_555
Na1 O18 2.561034 1_555
Na1 O3 2.721868 1_545
Na1 O5 2.721868 1_655
Na1 O3 2.721868 1_555
Na1 O5 2.721868 1_555
Na1 O8 2.721868 1_545
Na1 O8 2.721868 1_655
Na2 O8 2.561028 1_555
Na2 O3 2.561034 1_555
Na2 O5 2.561034 1_555
Na2 O17 2.721868 1_455
Na2 O18 2.721868 1_565
Na2 O18 2.721868 1_555
Na2 O17 2.721868 1_555
Na2 O19 2.721868 1_455
Na2 O19 2.721868 1_565
Na3 O2 2.561028 1_554
Na3 O21 2.561034 1_554
Na3 O20 2.561034 1_554
Na3 O4 2.721868 1_455
Na3 O0 2.721868 1_565
Na3 O4 2.721868 1_555
Na3 O0 2.721868 1_555
Na3 O11 2.721868 1_455
Na3 O11 2.721868 1_565
Na4 O23 2.383392 1_455
Na4 O1 2.383392 1_455
Na4 O9 2.383392 1_555
Na4 O14 2.383392 1_555
Na4 O16 2.383392 1_445
Na4 O10 2.383392 1_445
Na5 O13 2.383392 1_545
Na5 O7 2.383392 1_545
Na5 O12 2.383392 1_555
Na5 O6 2.383392 1_445
Na5 O22 2.383392 1_445
Na5 O15 2.383392 1_555
Ce0 F1 2.397920 1_555
Ce0 O8 2.521640 1_555
Ce0 O3 2.521646 1_555
Ce0 O5 2.521646 1_555
Ce0 O14 2.657375 1_565
Ce0 O16 2.657375 1_455
Ce0 O1 2.657378 1_565
Ce0 O1 2.657378 1_455
Ce0 O16 2.657380 1_555
Ce0 O14 2.657380 1_555
Ce1 F0 2.397920 1_555
Ce1 O19 2.521640 1_555
Ce1 O18 2.521646 1_555
Ce1 O17 2.521646 1_555
Ce1 O12 2.657375 1_655
Ce1 O6 2.657375 1_545
Ce1 O13 2.657378 1_655
Ce1 O13 2.657378 1_545
Ce1 O6 2.657380 1_555
Ce1 O12 2.657380 1_555
Ce2 F1 2.397920 1_555
Ce2 O2 2.521640 1_555
Ce2 O21 2.521646 1_555
Ce2 O20 2.521646 1_555
Ce2 O10 2.657375 1_455
Ce2 O9 2.657375 1_565
Ce2 O23 2.657378 1_565
Ce2 O23 2.657378 1_455
Ce2 O10 2.657380 1_555
Ce2 O9 2.657380 1_555
Ce3 F0 2.397920 1_555
Ce3 O11 2.521640 1_555
Ce3 O0 2.521646 1_555
Ce3 O4 2.521646 1_555
Ce3 O15 2.657375 1_655
Ce3 O22 2.657375 1_545
Ce3 O7 2.657378 1_545
Ce3 O7 2.657378 1_655
Ce3 O22 2.657380 1_555
Ce3 O15 2.657380 1_555
C0 O17 1.299378 1_445
C0 O18 1.299378 1_555
C0 O19 1.299383 1_455
C1 O23 1.293747 1_555
C1 O9 1.293751 1_555
C1 O10 1.293751 1_555
C2 O20 1.299378 1_445
C2 O21 1.299378 1_555
C2 O2 1.299383 1_545
C3 O4 1.299378 1_445
C3 O0 1.299378 1_555
C3 O11 1.299383 1_455
C4 O13 1.293747 1_555
C4 O12 1.293751 1_555
C4 O6 1.293751 1_555
C5 O7 1.293747 1_555
C5 O15 1.293751 1_555
C5 O22 1.293751 1_555
C6 O3 1.299378 1_445
C6 O5 1.299378 1_555
C6 O8 1.299383 1_545
C7 O1 1.293747 1_555
C7 O14 1.293751 1_555
C7 O16 1.293751 1_555
