# generated using pymatgen
data_ZnS
_symmetry_space_group_name_H-M   'P 1'
_cell_length_a   3.80866991
_cell_length_b   3.80866990
_cell_length_c   62.26385349
_cell_angle_alpha   90.00000000
_cell_angle_beta   90.00000000
_cell_angle_gamma   119.99999999
_symmetry_Int_Tables_number   1
_chemical_formula_structural   ZnS
_chemical_formula_sum   'Zn20 S20'
_cell_volume   782.19186707
_cell_formula_units_Z   20
loop_
 _symmetry_equiv_pos_site_id
 _symmetry_equiv_pos_as_xyz
  1  'x, y, z'
loop_
 _atom_site_type_symbol
 _atom_site_label
 _atom_site_symmetry_multiplicity
 _atom_site_fract_x
 _atom_site_fract_y
 _atom_site_fract_z
 _atom_site_occupancy
  Zn  Zn0  1  -0.00000000  0.00000000  0.40000403  1
  Zn  Zn1  1  0.33333300  0.66666700  0.44998259  1
  Zn  Zn2  1  0.66666700  0.33333300  0.20001900  1
  Zn  Zn3  1  0.66666700  0.33333300  0.65000435  1
  Zn  Zn4  1  0.33333300  0.66666700  0.70001900  1
  Zn  Zn5  1  0.00000000  -0.00000000  0.60000629  1
  Zn  Zn6  1  0.66666700  0.33333300  0.94998259  1
  Zn  Zn7  1  -0.00000000  0.00000000  0.10000629  1
  Zn  Zn8  1  0.66666700  0.33333300  0.35002224  1
  Zn  Zn9  1  0.66666700  0.33333300  0.05005324  1
  Zn  Zn10  1  0.00000000  -0.00000000  0.90000403  1
  Zn  Zn11  1  0.33333300  0.66666700  0.55005324  1
  Zn  Zn12  1  0.00000000  0.00000000  0.25000318  1
  Zn  Zn13  1  0.33333300  0.66666700  0.85002224  1
  Zn  Zn14  1  0.00000000  -0.00000000  0.75000318  1
  Zn  Zn15  1  0.66666700  0.33333300  0.50001964  1
  Zn  Zn16  1  0.33333300  0.66666700  0.15000435  1
  Zn  Zn17  1  0.66666700  0.33333300  0.80000660  1
  Zn  Zn18  1  0.33333300  0.66666700  0.30000660  1
  Zn  Zn19  1  0.33333300  0.66666700  0.00001964  1
  S  S0  1  0.66666700  0.33333300  0.23748632  1
  S  S1  1  0.66666700  0.33333300  0.83748948  1
  S  S2  1  0.33333300  0.66666700  0.88748952  1
  S  S3  1  0.33333300  0.66666700  0.33748948  1
  S  S4  1  0.00000000  0.00000000  0.78748593  1
  S  S5  1  0.66666700  0.33333300  0.08749740  1
  S  S6  1  0.33333300  0.66666700  0.48744179  1
  S  S7  1  0.00000000  -0.00000000  0.28748593  1
  S  S8  1  0.00000000  -0.00000000  0.13748610  1
  S  S9  1  0.66666700  0.33333300  0.68748650  1
  S  S10  1  0.33333300  0.66666700  0.03753052  1
  S  S11  1  0.66666700  0.33333300  0.98744179  1
  S  S12  1  0.66666700  0.33333300  0.53753052  1
  S  S13  1  0.66666700  0.33333300  0.38748952  1
  S  S14  1  0.33333300  0.66666700  0.73748632  1
  S  S15  1  0.33333300  0.66666700  0.18748650  1
  S  S16  1  0.00000000  0.00000000  0.63748610  1
  S  S17  1  0.33333300  0.66666700  0.58749740  1
  S  S18  1  0.00000000  -0.00000000  0.93748025  1
  S  S19  1  0.00000000  0.00000000  0.43748025  1
loop_
_geom_bond_atom_site_label_1
_geom_bond_atom_site_label_2
_geom_bond_distance
_geom_bond_site_symmetry_2
S0 Zn2 2.332860 1_555
S0 Zn12 2.332959 1_655
S0 Zn12 2.332962 1_665
S0 Zn12 2.332962 1_555
S1 Zn13 2.333289 1_545
S1 Zn13 2.333289 1_655
S1 Zn13 2.333296 1_555
S1 Zn17 2.333829 1_555
S2 Zn13 2.332857 1_555
S2 Zn10 2.332910 1_565
S2 Zn10 2.332913 1_555
S2 Zn10 2.332913 1_665
S3 Zn8 2.333289 1_565
S3 Zn8 2.333289 1_455
S3 Zn8 2.333296 1_555
S3 Zn18 2.333829 1_555
S4 Zn17 2.333038 1_455
S4 Zn17 2.333041 1_445
S4 Zn17 2.333041 1_555
S4 Zn14 2.333820 1_555
S5 Zn9 2.331418 1_555
S5 Zn7 2.332793 1_655
S5 Zn7 2.332796 1_665
S5 Zn7 2.332796 1_555
S6 Zn1 2.332354 1_555
S6 Zn15 2.334230 1_565
S6 Zn15 2.334230 1_455
S6 Zn15 2.334236 1_555
S7 Zn18 2.333038 1_545
S7 Zn18 2.333041 1_555
S7 Zn18 2.333041 1_445
S7 Zn12 2.333820 1_555
S8 Zn16 2.332987 1_545
S8 Zn16 2.332991 1_555
S8 Zn16 2.332991 1_445
S8 Zn7 2.333637 1_555
S9 Zn4 2.333284 1_545
S9 Zn4 2.333284 1_655
S9 Zn4 2.333290 1_555
S9 Zn3 2.333783 1_555
S10 Zn9 2.333080 1_565
S10 Zn9 2.333080 1_455
S10 Zn9 2.333087 1_555
S10 Zn19 2.335572 1_555
S11 Zn6 2.332354 1_555
S11 Zn19 2.334230 1_546
S11 Zn19 2.334230 1_656
S11 Zn19 2.334236 1_556
S12 Zn11 2.333080 1_545
S12 Zn11 2.333080 1_655
S12 Zn11 2.333087 1_555
S12 Zn15 2.335572 1_555
S13 Zn8 2.332857 1_555
S13 Zn0 2.332910 1_655
S13 Zn0 2.332913 1_665
S13 Zn0 2.332913 1_555
S14 Zn4 2.332860 1_555
S14 Zn14 2.332959 1_565
S14 Zn14 2.332962 1_555
S14 Zn14 2.332962 1_665
S15 Zn2 2.333284 1_565
S15 Zn2 2.333284 1_455
S15 Zn2 2.333290 1_555
S15 Zn16 2.333783 1_555
S16 Zn3 2.332987 1_455
S16 Zn3 2.332991 1_445
S16 Zn3 2.332991 1_555
S16 Zn5 2.333637 1_555
S17 Zn11 2.331418 1_555
S17 Zn5 2.332793 1_565
S17 Zn5 2.332796 1_555
S17 Zn5 2.332796 1_665
S18 Zn6 2.332657 1_455
S18 Zn6 2.332660 1_445
S18 Zn6 2.332660 1_555
S18 Zn10 2.333414 1_555
S19 Zn1 2.332657 1_545
S19 Zn1 2.332660 1_555
S19 Zn1 2.332660 1_445
S19 Zn0 2.333414 1_555
