# generated using pymatgen
data_Mn2Nb9Ge8
_symmetry_space_group_name_H-M   'P 1'
_cell_length_a   5.33645700
_cell_length_b   14.00256100
_cell_length_c   16.84898700
_cell_angle_alpha   90.00000000
_cell_angle_beta   90.00000000
_cell_angle_gamma   90.00000000
_symmetry_Int_Tables_number   1
_chemical_formula_structural   Mn2Nb9Ge8
_chemical_formula_sum   'Mn8 Nb36 Ge32'
_cell_volume   1259.02479415
_cell_formula_units_Z   4
loop_
 _symmetry_equiv_pos_site_id
 _symmetry_equiv_pos_as_xyz
  1  'x, y, z'
loop_
 _atom_site_type_symbol
 _atom_site_label
 _atom_site_symmetry_multiplicity
 _atom_site_fract_x
 _atom_site_fract_y
 _atom_site_fract_z
 _atom_site_occupancy
  Mn  Mn0  1  0.25000000  0.19352100  0.24940700  1
  Mn  Mn1  1  0.75000000  0.80647900  0.75059300  1
  Mn  Mn2  1  0.75000000  0.30647900  0.74940700  1
  Mn  Mn3  1  0.25000000  0.69352100  0.25059300  1
  Mn  Mn4  1  0.25000000  0.86383100  0.33935700  1
  Mn  Mn5  1  0.75000000  0.63616900  0.83935700  1
  Mn  Mn6  1  0.75000000  0.13616900  0.66064300  1
  Mn  Mn7  1  0.25000000  0.36383100  0.16064300  1
  Nb  Nb0  1  0.25000000  0.74709000  0.52731700  1
  Nb  Nb1  1  0.25000000  0.37434600  0.49728800  1
  Nb  Nb2  1  0.75000000  0.56684200  0.30460200  1
  Nb  Nb3  1  0.00357100  0.36444900  0.32393400  1
  Nb  Nb4  1  0.25000000  0.24709000  0.97268300  1
  Nb  Nb5  1  0.99955400  0.05883400  0.37982100  1
  Nb  Nb6  1  0.75000000  0.25291000  0.47268300  1
  Nb  Nb7  1  0.25000000  0.04947200  0.09486700  1
  Nb  Nb8  1  0.25000000  0.87434600  0.00271200  1
  Nb  Nb9  1  0.50044600  0.55883400  0.12017900  1
  Nb  Nb10  1  0.99955400  0.55883400  0.12017900  1
  Nb  Nb11  1  0.75000000  0.37090300  0.04173800  1
  Nb  Nb12  1  0.75000000  0.75291000  0.02731700  1
  Nb  Nb13  1  0.50044600  0.05883400  0.37982100  1
  Nb  Nb14  1  0.75000000  0.12565400  0.99728800  1
  Nb  Nb15  1  0.25000000  0.93315800  0.80460200  1
  Nb  Nb16  1  0.49642900  0.86444900  0.17606600  1
  Nb  Nb17  1  0.75000000  0.45052800  0.59486700  1
  Nb  Nb18  1  0.25000000  0.62909700  0.95826200  1
  Nb  Nb19  1  0.00044600  0.94116600  0.62017900  1
  Nb  Nb20  1  0.49955400  0.44116600  0.87982100  1
  Nb  Nb21  1  0.25000000  0.54947200  0.40513300  1
  Nb  Nb22  1  0.25000000  0.12909700  0.54173800  1
  Nb  Nb23  1  0.00357100  0.86444900  0.17606600  1
  Nb  Nb24  1  0.50357100  0.63555100  0.67606600  1
  Nb  Nb25  1  0.49642900  0.36444900  0.32393400  1
  Nb  Nb26  1  0.99642900  0.13555100  0.82393400  1
  Nb  Nb27  1  0.50357100  0.13555100  0.82393400  1
  Nb  Nb28  1  0.00044600  0.44116600  0.87982100  1
  Nb  Nb29  1  0.75000000  0.95052800  0.90513300  1
  Nb  Nb30  1  0.25000000  0.43315800  0.69539800  1
  Nb  Nb31  1  0.75000000  0.62565400  0.50271200  1
  Nb  Nb32  1  0.75000000  0.87090300  0.45826200  1
  Nb  Nb33  1  0.49955400  0.94116600  0.62017900  1
  Nb  Nb34  1  0.75000000  0.06684200  0.19539800  1
  Nb  Nb35  1  0.99642900  0.63555100  0.67606600  1
  Ge  Ge0  1  0.75000000  0.95139500  0.06033800  1
  Ge  Ge1  1  0.25000000  0.54860500  0.56033800  1
  Ge  Ge2  1  0.75000000  0.56135500  0.97975000  1
  Ge  Ge3  1  0.25000000  0.58691400  0.80557100  1
  Ge  Ge4  1  0.49744300  0.28084300  0.61930600  1
  Ge  Ge5  1  0.00255700  0.78084300  0.88069400  1
  Ge  Ge6  1  0.25000000  0.93864500  0.47975000  1
  Ge  Ge7  1  0.99744300  0.71915700  0.38069400  1
  Ge  Ge8  1  0.50255700  0.71915700  0.38069400  1
  Ge  Ge9  1  0.25000000  0.04860500  0.93966200  1
  Ge  Ge10  1  0.75000000  0.48921300  0.74704000  1
  Ge  Ge11  1  0.25000000  0.43864500  0.02025000  1
  Ge  Ge12  1  0.25000000  0.79677000  0.69470100  1
  Ge  Ge13  1  0.25000000  0.51078700  0.25296000  1
  Ge  Ge14  1  0.75000000  0.41308600  0.19442900  1
  Ge  Ge15  1  0.25000000  0.29677000  0.80529900  1
  Ge  Ge16  1  0.75000000  0.98921300  0.75296000  1
  Ge  Ge17  1  0.25000000  0.72446500  0.09737400  1
  Ge  Ge18  1  0.00255700  0.28084300  0.61930600  1
  Ge  Ge19  1  0.25000000  0.01078700  0.24704000  1
  Ge  Ge20  1  0.75000000  0.45139500  0.43966200  1
  Ge  Ge21  1  0.75000000  0.91308600  0.30557100  1
  Ge  Ge22  1  0.75000000  0.70323000  0.19470100  1
  Ge  Ge23  1  0.75000000  0.20323000  0.30529900  1
  Ge  Ge24  1  0.75000000  0.27553500  0.90262600  1
  Ge  Ge25  1  0.25000000  0.22446500  0.40262600  1
  Ge  Ge26  1  0.75000000  0.06135500  0.52025000  1
  Ge  Ge27  1  0.49744300  0.78084300  0.88069400  1
  Ge  Ge28  1  0.25000000  0.08691400  0.69442900  1
  Ge  Ge29  1  0.99744300  0.21915700  0.11930600  1
  Ge  Ge30  1  0.50255700  0.21915700  0.11930600  1
  Ge  Ge31  1  0.75000000  0.77553500  0.59737400  1
loop_
_geom_bond_atom_site_label_1
_geom_bond_atom_site_label_2
_geom_bond_distance
_geom_bond_site_symmetry_2
Ge0 Nb29 2.615075 1_554
Ge0 Nb14 2.661296 1_564
Ge0 Nb23 2.667472 1_655
Ge0 Nb16 2.667472 1_555
Ge0 Nb34 2.791364 1_565
Ge0 Nb12 2.834439 1_555
Ge0 Nb8 3.037459 1_555
Ge0 Nb8 3.037459 1_655
Ge0 Nb7 3.056786 1_665
Ge0 Nb7 3.056786 1_565
Ge1 Nb21 2.615075 1_555
Ge1 Nb1 2.661296 1_555
Ge1 Nb35 2.667472 1_455
Ge1 Nb24 2.667472 1_555
Ge1 Nb30 2.791364 1_555
Ge1 Nb0 2.834439 1_555
Ge1 Nb31 3.037459 1_455
Ge1 Nb31 3.037459 1_555
Ge1 Nb17 3.056786 1_455
Ge1 Nb17 3.056786 1_555
Ge2 Mn5 2.587071 1_555
Ge2 Nb10 2.715350 1_556
Ge2 Nb9 2.715350 1_556
Ge2 Nb28 2.730092 1_655
Ge2 Nb20 2.730092 1_555
Ge2 Nb12 2.799438 1_556
Ge2 Nb18 2.854872 1_555
Ge2 Nb18 2.854872 1_655
Ge2 Nb11 2.864044 1_556
Ge3 Nb18 2.639625 1_555
Ge3 Nb35 2.656339 1_455
Ge3 Nb24 2.656339 1_555
Ge3 Nb20 2.739281 1_555
Ge3 Nb28 2.739281 1_555
Ge3 Mn5 2.814104 1_555
Ge3 Mn5 2.814104 1_455
Ge3 Nb30 2.842741 1_555
Ge4 Mn6 2.530897 1_555
Ge4 Mn2 2.598170 1_555
Ge4 Nb17 2.762518 1_555
Ge4 Nb1 2.772093 1_555
Ge4 Nb30 2.817124 1_555
Ge4 Nb22 2.822525 1_555
Ge4 Nb6 2.841225 1_555
Ge5 Mn5 2.530897 1_455
Ge5 Mn1 2.598170 1_455
Ge5 Nb29 2.762518 1_455
Ge5 Nb8 2.772093 1_556
Ge5 Nb15 2.817124 1_555
Ge5 Nb18 2.822525 1_555
Ge5 Nb12 2.841225 1_456
Ge6 Mn4 2.587071 1_555
Ge6 Nb33 2.715350 1_555
Ge6 Nb19 2.715350 1_555
Ge6 Nb13 2.730092 1_565
Ge6 Nb5 2.730092 1_465
Ge6 Nb0 2.799438 1_555
Ge6 Nb32 2.854872 1_555
Ge6 Nb32 2.854872 1_455
Ge6 Nb22 2.864044 1_565
Ge7 Mn4 2.530897 1_655
Ge7 Mn3 2.598170 1_655
Ge7 Ge8 2.640938 1_555
Ge7 Ge8 2.695519 1_655
Ge7 Nb21 2.762518 1_655
Ge7 Nb31 2.772093 1_555
Ge7 Nb2 2.817124 1_555
Ge7 Nb32 2.822525 1_555
Ge7 Nb0 2.841225 1_655
Ge8 Mn4 2.530897 1_555
Ge8 Mn3 2.598170 1_555
Ge8 Nb21 2.762518 1_555
Ge8 Nb31 2.772093 1_555
Ge8 Nb2 2.817124 1_555
Ge8 Nb32 2.822525 1_555
Ge8 Nb0 2.841225 1_555
Ge9 Nb7 2.615075 1_556
Ge9 Nb8 2.661296 1_546
Ge9 Nb27 2.667472 1_555
Ge9 Nb26 2.667472 1_455
Ge9 Nb15 2.791364 1_545
Ge9 Nb4 2.834439 1_555
Ge9 Nb14 3.037459 1_455
Ge9 Nb14 3.037459 1_555
Ge9 Nb29 3.056786 1_445
Ge9 Nb29 3.056786 1_545
Ge10 Mn2 2.559055 1_555
Ge10 Mn5 2.579495 1_555
Ge10 Nb17 2.620558 1_555
Ge10 Nb28 2.691473 1_655
Ge10 Nb20 2.691473 1_555
Ge10 Nb24 2.712609 1_555
Ge10 Nb35 2.712609 1_555
Ge10 Nb30 2.914212 1_555
Ge10 Nb30 2.914212 1_655
Ge11 Mn7 2.587071 1_555
Ge11 Nb28 2.715350 1_554
Ge11 Nb20 2.715350 1_554
Ge11 Nb9 2.730092 1_555
Ge11 Nb10 2.730092 1_455
Ge11 Nb4 2.799438 1_554
Ge11 Nb11 2.854872 1_555
Ge11 Nb11 2.854872 1_455
Ge11 Nb18 2.864044 1_554
Ge12 Nb24 2.650635 1_555
Ge12 Nb35 2.650635 1_455
Ge12 Nb15 2.660100 1_555
Ge12 Nb33 2.727312 1_555
Ge12 Nb19 2.727312 1_555
Ge12 Mn1 2.832802 1_455
Ge12 Mn1 2.832802 1_555
Ge12 Nb0 2.904779 1_555
Ge13 Mn3 2.559055 1_555
Ge13 Mn7 2.579495 1_555
Ge13 Nb21 2.620558 1_555
Ge13 Nb9 2.691473 1_555
Ge13 Nb10 2.691473 1_455
Ge13 Nb25 2.712609 1_555
Ge13 Nb3 2.712609 1_555
Ge13 Nb2 2.914212 1_455
Ge13 Nb2 2.914212 1_555
Ge14 Nb11 2.639625 1_555
Ge14 Nb3 2.656339 1_655
Ge14 Nb25 2.656339 1_555
Ge14 Nb10 2.739281 1_555
Ge14 Nb9 2.739281 1_555
Ge14 Mn7 2.814104 1_655
Ge14 Mn7 2.814104 1_555
Ge14 Nb2 2.842741 1_555
Ge15 Nb26 2.650635 1_455
Ge15 Nb27 2.650635 1_555
Ge15 Nb30 2.660100 1_555
Ge15 Nb28 2.727312 1_555
Ge15 Nb20 2.727312 1_555
Ge15 Mn2 2.832802 1_455
Ge15 Mn2 2.832802 1_555
Ge15 Nb4 2.904779 1_555
Ge16 Mn1 2.559055 1_555
Ge16 Mn6 2.579495 1_565
Ge16 Nb29 2.620558 1_555
Ge16 Nb19 2.691473 1_655
Ge16 Nb33 2.691473 1_555
Ge16 Nb26 2.712609 1_565
Ge16 Nb27 2.712609 1_565
Ge16 Nb15 2.914212 1_555
Ge16 Nb15 2.914212 1_655
Ge17 Mn3 2.617695 1_555
Ge17 Nb8 2.636003 1_555
Ge17 Nb18 2.697616 1_554
Ge17 Nb9 2.704222 1_555
Ge17 Nb10 2.704222 1_455
Ge17 Nb16 2.707298 1_555
Ge17 Nb23 2.707298 1_555
Ge17 Nb12 2.944725 1_555
Ge17 Nb12 2.944725 1_455
Ge18 Mn6 2.530897 1_455
Ge18 Mn2 2.598170 1_455
Ge18 Ge4 2.640938 1_555
Ge18 Ge4 2.695519 1_455
Ge18 Nb17 2.762518 1_455
Ge18 Nb1 2.772093 1_555
Ge18 Nb30 2.817124 1_555
Ge18 Nb22 2.822525 1_555
Ge18 Nb6 2.841225 1_455
Ge19 Mn0 2.559055 1_555
Ge19 Mn4 2.579495 1_545
Ge19 Nb7 2.620558 1_555
Ge19 Nb13 2.691473 1_555
Ge19 Nb5 2.691473 1_455
Ge19 Nb16 2.712609 1_545
Ge19 Nb23 2.712609 1_545
Ge19 Nb34 2.914212 1_455
Ge19 Nb34 2.914212 1_555
Ge20 Nb17 2.615075 1_555
Ge20 Nb31 2.661296 1_555
Ge20 Nb3 2.667472 1_655
Ge20 Nb25 2.667472 1_555
Ge20 Nb2 2.791364 1_555
Ge20 Nb6 2.834439 1_555
Ge20 Nb1 3.037459 1_655
Ge20 Nb1 3.037459 1_555
Ge20 Nb21 3.056786 1_655
Ge20 Nb21 3.056786 1_555
Ge21 Nb32 2.639625 1_555
Ge21 Nb23 2.656339 1_655
Ge21 Nb16 2.656339 1_555
Ge21 Nb5 2.739281 1_565
Ge21 Nb13 2.739281 1_565
Ge21 Mn4 2.814104 1_655
Ge21 Mn4 2.814104 1_555
Ge21 Nb34 2.842741 1_565
Ge22 Nb23 2.650635 1_655
Ge22 Nb16 2.650635 1_555
Ge22 Nb2 2.660100 1_555
Ge22 Nb10 2.727312 1_555
Ge22 Nb9 2.727312 1_555
Ge22 Mn3 2.832802 1_655
Ge22 Mn3 2.832802 1_555
Ge22 Nb12 2.904779 1_555
Ge23 Nb3 2.650635 1_655
Ge23 Nb25 2.650635 1_555
Ge23 Nb34 2.660100 1_555
Ge23 Nb5 2.727312 1_555
Ge23 Nb13 2.727312 1_555
Ge23 Mn0 2.832802 1_655
Ge23 Mn0 2.832802 1_555
Ge23 Nb6 2.904779 1_555
Ge24 Mn2 2.617695 1_555
Ge24 Nb14 2.636003 1_555
Ge24 Nb11 2.697616 1_556
Ge24 Nb28 2.704222 1_655
Ge24 Nb20 2.704222 1_555
Ge24 Nb26 2.707298 1_555
Ge24 Nb27 2.707298 1_555
Ge24 Nb4 2.944725 1_655
Ge24 Nb4 2.944725 1_555
Ge25 Mn0 2.617695 1_555
Ge25 Nb1 2.636003 1_555
Ge25 Nb22 2.697616 1_555
Ge25 Nb13 2.704222 1_555
Ge25 Nb5 2.704222 1_455
Ge25 Nb25 2.707298 1_555
Ge25 Nb3 2.707298 1_555
Ge25 Nb6 2.944725 1_555
Ge25 Nb6 2.944725 1_455
Ge26 Mn6 2.587071 1_555
Ge26 Nb5 2.715350 1_555
Ge26 Nb13 2.715350 1_555
Ge26 Nb19 2.730092 1_645
Ge26 Nb33 2.730092 1_545
Ge26 Nb6 2.799438 1_555
Ge26 Nb22 2.854872 1_555
Ge26 Nb22 2.854872 1_655
Ge26 Nb32 2.864044 1_545
Ge27 Mn5 2.530897 1_555
Ge27 Mn1 2.598170 1_555
Ge27 Ge5 2.640938 1_555
Ge27 Ge5 2.695519 1_655
Ge27 Nb29 2.762518 1_555
Ge27 Nb8 2.772093 1_556
Ge27 Nb15 2.817124 1_555
Ge27 Nb18 2.822525 1_555
Ge27 Nb12 2.841225 1_556
Ge28 Nb22 2.639625 1_555
Ge28 Nb27 2.656339 1_555
Ge28 Nb26 2.656339 1_455
Ge28 Nb19 2.739281 1_545
Ge28 Nb33 2.739281 1_545
Ge28 Mn6 2.814104 1_455
Ge28 Mn6 2.814104 1_555
Ge28 Nb15 2.842741 1_545
Ge29 Mn7 2.530897 1_655
Ge29 Mn0 2.598170 1_655
Ge29 Ge30 2.640938 1_555
Ge29 Ge30 2.695519 1_655
Ge29 Nb7 2.762518 1_655
Ge29 Nb14 2.772093 1_554
Ge29 Nb34 2.817124 1_555
Ge29 Nb11 2.822525 1_555
Ge29 Nb4 2.841225 1_654
Ge30 Mn7 2.530897 1_555
Ge30 Mn0 2.598170 1_555
Ge30 Nb7 2.762518 1_555
Ge30 Nb14 2.772093 1_554
Ge30 Nb34 2.817124 1_555
Ge30 Nb11 2.822525 1_555
Ge30 Nb4 2.841225 1_554
Ge31 Mn1 2.617695 1_555
Ge31 Nb31 2.636003 1_555
Ge31 Nb32 2.697616 1_555
Ge31 Nb19 2.704222 1_655
Ge31 Nb33 2.704222 1_555
Ge31 Nb24 2.707298 1_555
Ge31 Nb35 2.707298 1_555
Ge31 Nb0 2.944725 1_555
Ge31 Nb0 2.944725 1_655
