# generated using pymatgen
data_K2Y4Sn2S11
_symmetry_space_group_name_H-M   'P 1'
_cell_length_a   8.69951100
_cell_length_b   8.69951100
_cell_length_c   28.33558200
_cell_angle_alpha   90.00000000
_cell_angle_beta   90.00000000
_cell_angle_gamma   90.00000000
_symmetry_Int_Tables_number   1
_chemical_formula_structural   K2Y4Sn2S11
_chemical_formula_sum   'K8 Y16 Sn8 S44'
_cell_volume   2144.47911222
_cell_formula_units_Z   4
loop_
 _symmetry_equiv_pos_site_id
 _symmetry_equiv_pos_as_xyz
  1  'x, y, z'
loop_
 _atom_site_type_symbol
 _atom_site_label
 _atom_site_symmetry_multiplicity
 _atom_site_fract_x
 _atom_site_fract_y
 _atom_site_fract_z
 _atom_site_occupancy
  K  K0  1  0.00000000  0.50000000  0.62743600  1
  K  K1  1  0.00000000  0.50000000  0.80393100  1
  K  K2  1  0.50000000  0.00000000  0.69606900  1
  K  K3  1  0.00000000  0.50000000  0.12743600  1
  K  K4  1  0.00000000  0.50000000  0.30393100  1
  K  K5  1  0.50000000  0.00000000  0.87256400  1
  K  K6  1  0.50000000  0.00000000  0.19606900  1
  K  K7  1  0.50000000  0.00000000  0.37256400  1
  Y  Y0  1  0.89361800  0.19881700  0.44554400  1
  Y  Y1  1  0.60638200  0.30118300  0.55445600  1
  Y  Y2  1  0.80118300  0.89361800  0.55445600  1
  Y  Y3  1  0.69881700  0.39361800  0.94554400  1
  Y  Y4  1  0.30118300  0.60638200  0.94554400  1
  Y  Y5  1  0.60638200  0.69881700  0.05445600  1
  Y  Y6  1  0.19881700  0.89361800  0.05445600  1
  Y  Y7  1  0.69881700  0.60638200  0.44554400  1
  Y  Y8  1  0.39361800  0.69881700  0.55445600  1
  Y  Y9  1  0.89361800  0.80118300  0.94554400  1
  Y  Y10  1  0.30118300  0.39361800  0.44554400  1
  Y  Y11  1  0.80118300  0.10638200  0.05445600  1
  Y  Y12  1  0.39361800  0.30118300  0.05445600  1
  Y  Y13  1  0.10638200  0.80118300  0.44554400  1
  Y  Y14  1  0.10638200  0.19881700  0.94554400  1
  Y  Y15  1  0.19881700  0.10638200  0.55445600  1
  Sn  Sn0  1  0.00000000  0.00000000  0.69062200  1
  Sn  Sn1  1  0.50000000  0.50000000  0.80937800  1
  Sn  Sn2  1  0.50000000  0.50000000  0.19062200  1
  Sn  Sn3  1  0.00000000  0.00000000  0.30937800  1
  Sn  Sn4  1  0.50000000  0.50000000  0.69062200  1
  Sn  Sn5  1  0.00000000  0.00000000  0.80937800  1
  Sn  Sn6  1  0.00000000  0.00000000  0.19062200  1
  Sn  Sn7  1  0.50000000  0.50000000  0.30937800  1
  S  S0  1  0.19005800  0.89468900  0.95506000  1
  S  S1  1  0.30994200  0.60531100  0.04494000  1
  S  S2  1  0.19005800  0.10531100  0.45506000  1
  S  S3  1  0.17565300  0.16091000  0.64796800  1
  S  S4  1  0.60531100  0.30994200  0.45506000  1
  S  S5  1  0.10531100  0.19005800  0.04494000  1
  S  S6  1  0.17565300  0.83909000  0.14796800  1
  S  S7  1  0.80994200  0.89468900  0.45506000  1
  S  S8  1  0.85261100  0.85261100  0.25000000  1
  S  S9  1  0.80994200  0.10531100  0.95506000  1
  S  S10  1  0.89468900  0.19005800  0.54494000  1
  S  S11  1  0.39468900  0.69005800  0.45506000  1
  S  S12  1  0.64738900  0.64738900  0.75000000  1
  S  S13  1  0.85261100  0.14738900  0.75000000  1
  S  S14  1  0.83909000  0.82434700  0.85203200  1
  S  S15  1  0.66091000  0.67565300  0.14796800  1
  S  S16  1  0.00000000  0.50000000  0.94145500  1
  S  S17  1  0.39468900  0.30994200  0.95506000  1
  S  S18  1  0.35261100  0.35261100  0.75000000  1
  S  S19  1  0.16091000  0.82434700  0.35203200  1
  S  S20  1  0.83909000  0.17565300  0.35203200  1
  S  S21  1  0.33909000  0.32434700  0.14796800  1
  S  S22  1  0.30994200  0.39468900  0.54494000  1
  S  S23  1  0.00000000  0.50000000  0.44145500  1
  S  S24  1  0.67565300  0.33909000  0.85203200  1
  S  S25  1  0.82434700  0.83909000  0.64796800  1
  S  S26  1  0.50000000  0.00000000  0.55854500  1
  S  S27  1  0.67565300  0.66091000  0.35203200  1
  S  S28  1  0.32434700  0.66091000  0.85203200  1
  S  S29  1  0.33909000  0.67565300  0.64796800  1
  S  S30  1  0.35261100  0.64738900  0.25000000  1
  S  S31  1  0.60531100  0.69005800  0.95506000  1
  S  S32  1  0.64738900  0.35261100  0.25000000  1
  S  S33  1  0.89468900  0.80994200  0.04494000  1
  S  S34  1  0.32434700  0.33909000  0.35203200  1
  S  S35  1  0.50000000  0.00000000  0.05854500  1
  S  S36  1  0.82434700  0.16091000  0.14796800  1
  S  S37  1  0.69005800  0.39468900  0.04494000  1
  S  S38  1  0.66091000  0.32434700  0.64796800  1
  S  S39  1  0.10531100  0.80994200  0.54494000  1
  S  S40  1  0.14738900  0.14738900  0.25000000  1
  S  S41  1  0.16091000  0.17565300  0.85203200  1
  S  S42  1  0.14738900  0.85261100  0.75000000  1
  S  S43  1  0.69005800  0.60531100  0.54494000  1
loop_
_geom_bond_atom_site_label_1
_geom_bond_atom_site_label_2
_geom_bond_distance
_geom_bond_site_symmetry_2
K0 S29 3.372768 1_555
K0 S25 3.372768 1_455
K0 S38 3.372768 1_455
K0 S3 3.372768 1_555
K0 S22 3.684271 1_555
K0 S10 3.684271 1_455
K0 S43 3.684271 1_455
K0 S39 3.684271 1_555
K1 S24 3.432055 1_455
K1 S14 3.432055 1_455
K1 S28 3.432055 1_555
K1 S41 3.432055 1_555
K1 S12 3.659123 1_455
K1 S18 3.659123 1_555
K1 S13 3.659123 1_455
K1 S42 3.659123 1_555
K2 S29 3.432055 1_545
K2 S38 3.432055 1_555
K2 S25 3.432055 1_545
K2 S3 3.432055 1_555
K2 S18 3.659123 1_555
K2 S42 3.659123 1_545
K2 S13 3.659123 1_555
K2 S12 3.659123 1_545
K3 S36 3.372768 1_455
K3 S15 3.372768 1_455
K3 S6 3.372768 1_555
K3 S21 3.372768 1_555
K3 S5 3.684271 1_555
K3 S1 3.684271 1_555
K3 S33 3.684271 1_455
K3 S37 3.684271 1_455
K4 S34 3.432055 1_555
K4 S27 3.432055 1_455
K4 S20 3.432055 1_455
K4 S19 3.432055 1_555
K4 S40 3.659123 1_555
K4 S30 3.659123 1_555
K4 S32 3.659123 1_455
K4 S8 3.659123 1_455
K5 S24 3.372768 1_555
K5 S14 3.372768 1_545
K5 S41 3.372768 1_555
K5 S28 3.372768 1_545
K5 S17 3.684271 1_555
K5 S0 3.684271 1_545
K5 S9 3.684271 1_555
K5 S31 3.684271 1_545
K6 S15 3.432055 1_545
K6 S6 3.432055 1_545
K6 S36 3.432055 1_555
K6 S21 3.432055 1_555
K6 S40 3.659123 1_555
K6 S30 3.659123 1_545
K6 S32 3.659123 1_555
K6 S8 3.659123 1_545
K7 S27 3.372768 1_545
K7 S19 3.372768 1_545
K7 S20 3.372768 1_555
K7 S34 3.372768 1_555
K7 S2 3.684271 1_555
K7 S4 3.684271 1_555
K7 S7 3.684271 1_545
K7 S11 3.684271 1_545
S0 Y4 2.701480 1_555
S0 Y9 2.717546 1_455
S0 Y14 2.757295 1_565
S0 Y6 2.817490 1_556
S1 Y6 2.701480 1_555
S1 Y5 2.717546 1_555
S1 Y12 2.757295 1_555
S1 Y4 2.817490 1_554
S2 Y10 2.701480 1_555
S2 Y0 2.717546 1_455
S2 Y13 2.757295 1_545
S2 Y15 2.817490 1_555
S3 Sn0 2.399041 1_555
S3 Y15 2.699376 1_555
S4 Y0 2.701480 1_555
S4 Y7 2.717546 1_555
S4 Y10 2.757295 1_555
S4 Y1 2.817490 1_555
S5 Y12 2.701480 1_555
S5 Y6 2.717546 1_545
S5 Y11 2.757295 1_455
S5 Y14 2.817490 1_554
S6 Sn6 2.399041 1_565
S6 Y6 2.699376 1_555
S7 Y7 2.701480 1_555
S7 Y13 2.717546 1_655
S7 Y0 2.757295 1_565
S7 Y2 2.817490 1_555
S8 Sn6 2.473657 1_665
S8 Sn3 2.473657 1_665
S9 Y3 2.701480 1_555
S9 Y14 2.717546 1_655
S9 Y9 2.757295 1_545
S9 Y11 2.817490 1_556
S10 Y1 2.701480 1_555
S10 Y2 2.717546 1_545
S10 Y15 2.757295 1_655
S10 Y0 2.817490 1_555
S11 Y13 2.701480 1_555
S11 Y10 2.717546 1_555
S11 Y7 2.757295 1_555
S11 Y8 2.817490 1_555
S12 Sn1 2.473657 1_555
S12 Sn4 2.473657 1_555
S13 Sn5 2.473657 1_655
S13 Sn0 2.473657 1_655
S14 Sn5 2.399041 1_665
S14 Y9 2.699376 1_555
S15 Sn2 2.399041 1_555
S15 Y5 2.699376 1_555
S16 Y14 2.781201 1_555
S16 Y3 2.781201 1_455
S16 Y4 2.781201 1_555
S16 Y9 2.781201 1_455
S17 Y14 2.701480 1_555
S17 Y4 2.717546 1_555
S17 Y3 2.757295 1_555
S17 Y12 2.817490 1_556
S18 Sn4 2.473657 1_555
S18 Sn1 2.473657 1_555
S19 Sn3 2.399041 1_565
S19 Y13 2.699376 1_555
S20 Sn3 2.399041 1_655
S20 Y0 2.699376 1_555
S21 Sn2 2.399041 1_555
S21 Y12 2.699376 1_555
S22 Y15 2.701480 1_555
S22 Y1 2.717546 1_555
S22 Y8 2.757295 1_555
S22 Y10 2.817490 1_555
S23 Y13 2.781201 1_555
S23 Y7 2.781201 1_455
S23 Y0 2.781201 1_455
S23 Y10 2.781201 1_555
S24 Sn1 2.399041 1_555
S24 Y3 2.699376 1_555
S25 Sn0 2.399041 1_665
S25 Y2 2.699376 1_555
S26 Y1 2.781201 1_555
S26 Y8 2.781201 1_545
S26 Y2 2.781201 1_545
S26 Y15 2.781201 1_555
S27 Sn7 2.399041 1_555
S27 Y7 2.699376 1_555
S28 Sn1 2.399041 1_555
S28 Y4 2.699376 1_555
S29 Sn4 2.399041 1_555
S29 Y8 2.699376 1_555
S30 Sn2 2.473657 1_555
S30 Sn7 2.473657 1_555
S31 Y9 2.701480 1_555
S31 Y3 2.717546 1_555
S31 Y4 2.757295 1_555
S31 Y5 2.817490 1_556
S32 Sn2 2.473657 1_555
S32 Sn7 2.473657 1_555
S33 Y5 2.701480 1_555
S33 Y11 2.717546 1_565
S33 Y6 2.757295 1_655
S33 Y9 2.817490 1_554
S34 Sn7 2.399041 1_555
S34 Y10 2.699376 1_555
S35 Y11 2.781201 1_555
S35 Y12 2.781201 1_555
S35 Y5 2.781201 1_545
S35 Y6 2.781201 1_545
S36 Sn6 2.399041 1_655
S36 Y11 2.699376 1_555
S37 Y11 2.701480 1_555
S37 Y12 2.717546 1_555
S37 Y5 2.757295 1_555
S37 Y3 2.817490 1_554
S38 Sn4 2.399041 1_555
S38 Y1 2.699376 1_555
S39 Y8 2.701480 1_555
S39 Y15 2.717546 1_565
S39 Y2 2.757295 1_455
S39 Y13 2.817490 1_555
S40 Sn6 2.473657 1_555
S40 Sn3 2.473657 1_555
S41 Sn5 2.399041 1_555
S41 Y14 2.699376 1_555
S42 Sn5 2.473657 1_565
S42 Sn0 2.473657 1_565
S43 Y2 2.701480 1_555
S43 Y8 2.717546 1_555
S43 Y1 2.757295 1_555
S43 Y7 2.817490 1_555
