# generated using pymatgen
data_NaGaSiO4
_symmetry_space_group_name_H-M   'P 1'
_cell_length_a   8.84417592
_cell_length_b   8.84417592
_cell_length_c   8.36032600
_cell_angle_alpha   90.00000000
_cell_angle_beta   90.00000000
_cell_angle_gamma   119.99999941
_symmetry_Int_Tables_number   1
_chemical_formula_structural   NaGaSiO4
_chemical_formula_sum   'Na6 Ga6 Si6 O24'
_cell_volume   566.32872734
_cell_formula_units_Z   6
loop_
 _symmetry_equiv_pos_site_id
 _symmetry_equiv_pos_as_xyz
  1  'x, y, z'
loop_
 _atom_site_type_symbol
 _atom_site_label
 _atom_site_symmetry_multiplicity
 _atom_site_fract_x
 _atom_site_fract_y
 _atom_site_fract_z
 _atom_site_occupancy
  Na  Na0  1  0.66666700  0.33333300  0.06333400  1
  Na  Na1  1  0.00000000  0.00000000  0.06941600  1
  Na  Na2  1  0.33333300  0.66666700  0.56333400  1
  Na  Na3  1  0.66666700  0.33333300  0.49079600  1
  Na  Na4  1  0.00000000  0.00000000  0.56941600  1
  Na  Na5  1  0.33333300  0.66666700  0.99079600  1
  Ga  Ga0  1  0.31527100  0.34280200  0.25021400  1
  Ga  Ga1  1  0.68472900  0.65719800  0.75021400  1
  Ga  Ga2  1  0.02753100  0.68472900  0.25021400  1
  Ga  Ga3  1  0.65719800  0.97246900  0.25021400  1
  Ga  Ga4  1  0.97246900  0.31527100  0.75021400  1
  Ga  Ga5  1  0.34280200  0.02753100  0.75021400  1
  Si  Si0  1  0.97529800  0.31698900  0.36517400  1
  Si  Si1  1  0.68301100  0.65830900  0.36517400  1
  Si  Si2  1  0.31698900  0.34169100  0.86517400  1
  Si  Si3  1  0.65830900  0.97529800  0.86517400  1
  Si  Si4  1  0.34169100  0.02470200  0.36517400  1
  Si  Si5  1  0.02470200  0.68301100  0.86517400  1
  O  O0  1  0.40925400  0.22050200  0.87970600  1
  O  O1  1  0.61877800  0.88623500  0.04413900  1
  O  O2  1  0.18875200  0.40925400  0.37970600  1
  O  O3  1  0.59074600  0.77949800  0.37970600  1
  O  O4  1  0.81124800  0.59074600  0.87970600  1
  O  O5  1  0.44630900  0.53348000  0.78247000  1
  O  O6  1  0.86686400  0.76150300  0.26414800  1
  O  O7  1  0.08717000  0.55369100  0.78247000  1
  O  O8  1  0.26745700  0.38122200  0.04413900  1
  O  O9  1  0.89463900  0.13313600  0.26414800  1
  O  O10  1  0.77949800  0.18875200  0.87970600  1
  O  O11  1  0.38122200  0.11376500  0.54413900  1
  O  O12  1  0.76150300  0.89463900  0.76414800  1
  O  O13  1  0.22050200  0.81124800  0.37970600  1
  O  O14  1  0.11376500  0.73254300  0.04413900  1
  O  O15  1  0.10536100  0.86686400  0.76414800  1
  O  O16  1  0.55369100  0.46652000  0.28247000  1
  O  O17  1  0.91283000  0.44630900  0.28247000  1
  O  O18  1  0.46652000  0.91283000  0.78247000  1
  O  O19  1  0.88623500  0.26745700  0.54413900  1
  O  O20  1  0.23849700  0.10536100  0.26414800  1
  O  O21  1  0.13313600  0.23849700  0.76414800  1
  O  O22  1  0.53348000  0.08717000  0.28247000  1
  O  O23  1  0.73254300  0.61877800  0.54413900  1
loop_
_geom_bond_atom_site_label_1
_geom_bond_atom_site_label_2
_geom_bond_distance
_geom_bond_site_symmetry_2
Na0 O10 2.502737 1_554
Na0 O4 2.502743 1_554
Na0 O0 2.502743 1_554
Na0 O16 2.630445 1_555
Na0 O17 2.630445 1_555
Na0 O22 2.630445 1_555
Na1 O9 2.449987 1_455
Na1 O20 2.449987 1_555
Na1 O6 2.449987 1_445
Na2 O13 2.502737 1_555
Na2 O2 2.502743 1_555
Na2 O3 2.502743 1_555
Na2 O5 2.630445 1_555
Na2 O7 2.630445 1_555
Na2 O18 2.630445 1_555
Na3 O19 2.332527 1_555
Na3 O11 2.332533 1_555
Na3 O23 2.332536 1_555
Na3 O16 2.568320 1_555
Na3 O17 2.568320 1_555
Na3 O22 2.568320 1_555
Na4 O15 2.449987 1_545
Na4 O12 2.449987 1_445
Na4 O21 2.449987 1_555
Na5 O14 2.332527 1_556
Na5 O1 2.332533 1_556
Na5 O8 2.332536 1_556
Na5 O5 2.568320 1_555
Na5 O7 2.568320 1_555
Na5 O18 2.568320 1_555
Ga0 O8 1.845589 1_555
Ga0 O16 1.846361 1_555
Ga0 O2 1.851245 1_555
Ga0 O20 1.859732 1_555
Ga1 O23 1.845589 1_555
Ga1 O5 1.846361 1_555
Ga1 O4 1.851245 1_555
Ga1 O12 1.859732 1_555
Ga2 O14 1.845589 1_555
Ga2 O17 1.846361 1_455
Ga2 O13 1.851245 1_555
Ga2 O6 1.859732 1_455
Ga3 O1 1.845589 1_555
Ga3 O22 1.846353 1_565
Ga3 O3 1.851245 1_555
Ga3 O9 1.859732 1_565
Ga4 O19 1.845589 1_555
Ga4 O7 1.846361 1_655
Ga4 O10 1.851245 1_555
Ga4 O21 1.859732 1_655
Ga5 O11 1.845589 1_555
Ga5 O18 1.846353 1_545
Ga5 O0 1.851245 1_555
Ga5 O15 1.859732 1_545
O0 Si2 1.644394 1_555
O1 Si3 1.644970 1_554
O2 Si0 1.644394 1_455
O3 Si1 1.644394 1_555
O4 Si5 1.644394 1_655
O5 Si2 1.650252 1_555
O6 Si1 1.645075 1_555
O7 Si5 1.650246 1_555
O8 Si2 1.644970 1_554
O9 Si0 1.645075 1_555
O10 Si3 1.644394 1_545
O11 Si4 1.644970 1_555
O12 Si3 1.645075 1_555
O13 Si4 1.644394 1_565
O14 Si5 1.644970 1_554
O15 Si5 1.645075 1_555
O16 Si1 1.650252 1_555
O17 Si0 1.650246 1_555
O18 Si3 1.650253 1_555
O19 Si0 1.644970 1_555
O20 Si4 1.645075 1_555
O21 Si2 1.645075 1_555
O22 Si4 1.650253 1_555
O23 Si1 1.644970 1_555
