# generated using pymatgen
data_Mg3Al8FeSi6
_symmetry_space_group_name_H-M   'P 1'
_cell_length_a   6.73319842
_cell_length_b   6.73319842
_cell_length_c   7.68737300
_cell_angle_alpha   90.00000000
_cell_angle_beta   90.00000000
_cell_angle_gamma   120.00000411
_symmetry_Int_Tables_number   1
_chemical_formula_structural   Mg3Al8FeSi6
_chemical_formula_sum   'Mg3 Al8 Fe1 Si6'
_cell_volume   301.82234792
_cell_formula_units_Z   1
loop_
 _symmetry_equiv_pos_site_id
 _symmetry_equiv_pos_as_xyz
  1  'x, y, z'
loop_
 _atom_site_type_symbol
 _atom_site_label
 _atom_site_symmetry_multiplicity
 _atom_site_fract_x
 _atom_site_fract_y
 _atom_site_fract_z
 _atom_site_occupancy
  Mg  Mg0  1  0.00000000  0.42976900  0.50000000  1
  Mg  Mg1  1  0.42976900  0.00000000  0.50000000  1
  Mg  Mg2  1  0.57023100  0.57023100  0.50000000  1
  Al  Al0  1  0.33333300  0.66666700  0.21439300  1
  Al  Al1  1  0.33333300  0.66666700  0.78560700  1
  Al  Al2  1  0.66666700  0.33333300  0.78560700  1
  Al  Al3  1  0.64216700  0.64216700  0.00000000  1
  Al  Al4  1  0.00000000  0.35783300  0.00000000  1
  Al  Al5  1  0.66666700  0.33333300  0.21439300  1
  Al  Al6  1  0.00000000  0.00000000  0.50000000  1
  Al  Al7  1  0.35783300  0.00000000  0.00000000  1
  Fe  Fe0  1  0.00000000  0.00000000  0.00000000  1
  Si  Si0  1  0.24180600  0.24180600  0.76688300  1
  Si  Si1  1  0.00000000  0.75819400  0.23311700  1
  Si  Si2  1  0.75819400  0.00000000  0.23311700  1
  Si  Si3  1  0.24180600  0.24180600  0.23311700  1
  Si  Si4  1  0.00000000  0.75819400  0.76688300  1
  Si  Si5  1  0.75819400  0.00000000  0.76688300  1
loop_
_geom_bond_atom_site_label_1
_geom_bond_atom_site_label_2
_geom_bond_distance
_geom_bond_site_symmetry_2
Mg0 Si4 3.016497 1_555
Mg0 Si1 3.016497 1_555
Mg1 Si2 3.016497 1_555
Mg1 Si5 3.016497 1_555
Mg2 Si0 3.016497 1_555
Mg2 Si3 3.016497 1_555
Al0 Si1 2.611700 1_555
Al0 Si2 2.611705 1_565
Al0 Si3 2.611707 1_555
Al0 Al7 2.722239 1_565
Al0 Al4 2.722241 1_555
Al0 Al3 2.722244 1_555
Al0 Mg1 2.970205 1_565
Al0 Mg0 2.970206 1_555
Al0 Mg2 2.970209 1_555
Al1 Si4 2.611700 1_555
Al1 Si5 2.611705 1_565
Al1 Si0 2.611707 1_555
Al1 Al7 2.722239 1_566
Al1 Al4 2.722241 1_556
Al1 Al3 2.722244 1_556
Al1 Mg1 2.970205 1_565
Al1 Mg0 2.970206 1_555
Al1 Mg2 2.970209 1_555
Al2 Si5 2.611700 1_555
Al2 Si4 2.611705 1_655
Al2 Si0 2.611707 1_555
Al2 Al4 2.722239 1_656
Al2 Al7 2.722241 1_556
Al2 Al3 2.722244 1_556
Al2 Mg0 2.970205 1_655
Al2 Mg1 2.970206 1_555
Al2 Mg2 2.970209 1_555
Al3 Fe0 2.409360 1_665
Al3 Al5 2.722244 1_555
Al3 Si4 2.782902 1_654
Al3 Si5 2.782902 1_564
Al3 Si2 2.782902 1_565
Al3 Si1 2.782902 1_655
Al4 Fe0 2.409361 1_555
Al4 Al5 2.722239 1_455
Al4 Si5 2.782901 1_454
Al4 Si2 2.782901 1_455
Al4 Si3 2.782902 1_555
Al4 Si0 2.782902 1_554
Al5 Si2 2.611700 1_555
Al5 Si1 2.611705 1_655
Al5 Si3 2.611707 1_555
Al5 Al7 2.722241 1_555
Al5 Mg0 2.970205 1_655
Al5 Mg1 2.970206 1_555
Al5 Mg2 2.970209 1_555
Al6 Si3 2.619157 1_555
Al6 Si0 2.619157 1_555
Al6 Si2 2.619157 1_455
Al6 Si4 2.619157 1_545
Al6 Si5 2.619157 1_455
Al6 Si1 2.619157 1_545
Al6 Mg2 2.893720 1_445
Al6 Mg1 2.893720 1_555
Al6 Mg0 2.893720 1_555
Al7 Fe0 2.409361 1_555
Al7 Si1 2.782901 1_545
Al7 Si4 2.782901 1_544
Al7 Si3 2.782902 1_555
Al7 Si0 2.782902 1_554
Fe0 Si3 2.421212 1_555
Fe0 Si0 2.421212 1_554
Fe0 Si2 2.421212 1_455
Fe0 Si4 2.421212 1_544
Fe0 Si1 2.421212 1_545
Fe0 Si5 2.421212 1_454
