# generated using pymatgen
data_TlAu(CN)2
_symmetry_space_group_name_H-M   'P 1'
_cell_length_a   7.16803400
_cell_length_b   9.20928000
_cell_length_c   30.88857500
_cell_angle_alpha   90.00000000
_cell_angle_beta   90.00000000
_cell_angle_gamma   90.00000000
_symmetry_Int_Tables_number   1
_chemical_formula_structural   TlAu(CN)2
_chemical_formula_sum   'Tl16 Au16 C32 N32'
_cell_volume   2039.02996157
_cell_formula_units_Z   16
loop_
 _symmetry_equiv_pos_site_id
 _symmetry_equiv_pos_as_xyz
  1  'x, y, z'
loop_
 _atom_site_type_symbol
 _atom_site_label
 _atom_site_symmetry_multiplicity
 _atom_site_fract_x
 _atom_site_fract_y
 _atom_site_fract_z
 _atom_site_occupancy
  Tl  Tl0  1  0.78055300  0.91340600  0.28273000  1
  Tl  Tl1  1  0.78055300  0.41340600  0.71727000  1
  Tl  Tl2  1  0.77615500  0.08259800  0.53068600  1
  Tl  Tl3  1  0.71944700  0.41340600  0.21727000  1
  Tl  Tl4  1  0.77615500  0.58259800  0.46931400  1
  Tl  Tl5  1  0.27615500  0.41740200  0.03068600  1
  Tl  Tl6  1  0.21944700  0.08659400  0.71727000  1
  Tl  Tl7  1  0.72384500  0.58259800  0.96931400  1
  Tl  Tl8  1  0.28055300  0.58659400  0.78273000  1
  Tl  Tl9  1  0.22384500  0.91740200  0.46931400  1
  Tl  Tl10  1  0.71944700  0.91340600  0.78273000  1
  Tl  Tl11  1  0.72384500  0.08259800  0.03068600  1
  Tl  Tl12  1  0.22384500  0.41740200  0.53068600  1
  Tl  Tl13  1  0.27615500  0.91740200  0.96931400  1
  Tl  Tl14  1  0.28055300  0.08659400  0.21727000  1
  Tl  Tl15  1  0.21944700  0.58659400  0.28273000  1
  Au  Au0  1  0.00000000  0.25000000  0.36848900  1
  Au  Au1  1  0.49786600  0.08220300  0.62371500  1
  Au  Au2  1  0.50213400  0.41779700  0.62371500  1
  Au  Au3  1  0.00000000  0.25000000  0.87895100  1
  Au  Au4  1  0.99786600  0.91779700  0.87628500  1
  Au  Au5  1  0.50213400  0.91779700  0.37628500  1
  Au  Au6  1  0.00213400  0.58220300  0.87628500  1
  Au  Au7  1  0.50000000  0.75000000  0.13151100  1
  Au  Au8  1  0.50000000  0.25000000  0.86848900  1
  Au  Au9  1  0.50000000  0.75000000  0.62104900  1
  Au  Au10  1  0.00000000  0.75000000  0.12104900  1
  Au  Au11  1  0.00213400  0.08220300  0.12371500  1
  Au  Au12  1  0.49786600  0.58220300  0.37628500  1
  Au  Au13  1  0.50000000  0.25000000  0.37895100  1
  Au  Au14  1  0.99786600  0.41779700  0.12371500  1
  Au  Au15  1  0.00000000  0.75000000  0.63151100  1
  C  C0  1  0.71481200  0.58816000  0.33559600  1
  C  C1  1  0.21873800  0.08679000  0.08294100  1
  C  C2  1  0.78518800  0.58816000  0.83559600  1
  C  C3  1  0.00000000  0.75000000  0.56691600  1
  C  C4  1  0.21481200  0.91184000  0.83559600  1
  C  C5  1  0.00000000  0.75000000  0.18582400  1
  C  C6  1  0.50000000  0.75000000  0.19627100  1
  C  C7  1  0.21873800  0.58679000  0.91705900  1
  C  C8  1  0.50000000  0.75000000  0.55614700  1
  C  C9  1  0.00000000  0.25000000  0.94385300  1
  C  C10  1  0.28126200  0.58679000  0.41705900  1
  C  C11  1  0.00000000  0.25000000  0.30372900  1
  C  C12  1  0.50000000  0.25000000  0.31417600  1
  C  C13  1  0.00000000  0.75000000  0.69627100  1
  C  C14  1  0.78518800  0.08816000  0.16440400  1
  C  C15  1  0.28518800  0.41184000  0.66440400  1
  C  C16  1  0.50000000  0.25000000  0.80372900  1
  C  C17  1  0.71873800  0.91321000  0.41705900  1
  C  C18  1  0.71481200  0.08816000  0.66440400  1
  C  C19  1  0.21481200  0.41184000  0.16440400  1
  C  C20  1  0.50000000  0.75000000  0.68582400  1
  C  C21  1  0.71873800  0.41321000  0.58294100  1
  C  C22  1  0.28518800  0.91184000  0.33559600  1
  C  C23  1  0.78126200  0.41321000  0.08294100  1
  C  C24  1  0.78126200  0.91321000  0.91705900  1
  C  C25  1  0.50000000  0.75000000  0.06691600  1
  C  C26  1  0.50000000  0.25000000  0.93308400  1
  C  C27  1  0.28126200  0.08679000  0.58294100  1
  C  C28  1  0.50000000  0.25000000  0.44385300  1
  C  C29  1  0.00000000  0.25000000  0.81417600  1
  C  C30  1  0.00000000  0.75000000  0.05614700  1
  C  C31  1  0.00000000  0.25000000  0.43308400  1
  N  N0  1  0.33967900  0.59555200  0.94256200  1
  N  N1  1  0.50000000  0.75000000  0.23446100  1
  N  N2  1  0.33967900  0.09555200  0.05743800  1
  N  N3  1  0.66235000  0.09802400  0.18937700  1
  N  N4  1  0.33765000  0.90197600  0.81062300  1
  N  N5  1  0.00000000  0.75000000  0.22396200  1
  N  N6  1  0.66032100  0.90444800  0.94256200  1
  N  N7  1  0.00000000  0.75000000  0.73446100  1
  N  N8  1  0.50000000  0.75000000  0.72396200  1
  N  N9  1  0.50000000  0.25000000  0.27603800  1
  N  N10  1  0.83967900  0.40444800  0.55743800  1
  N  N11  1  0.00000000  0.25000000  0.98202400  1
  N  N12  1  0.16235000  0.40197600  0.68937700  1
  N  N13  1  0.00000000  0.25000000  0.26553900  1
  N  N14  1  0.33765000  0.40197600  0.18937700  1
  N  N15  1  0.50000000  0.25000000  0.76553900  1
  N  N16  1  0.00000000  0.75000000  0.52873100  1
  N  N17  1  0.50000000  0.75000000  0.51797600  1
  N  N18  1  0.50000000  0.75000000  0.02873100  1
  N  N19  1  0.00000000  0.25000000  0.77603800  1
  N  N20  1  0.50000000  0.25000000  0.48202400  1
  N  N21  1  0.16032100  0.59555200  0.44256200  1
  N  N22  1  0.16032100  0.09555200  0.55743800  1
  N  N23  1  0.50000000  0.25000000  0.97126900  1
  N  N24  1  0.83765000  0.09802400  0.68937700  1
  N  N25  1  0.00000000  0.75000000  0.01797600  1
  N  N26  1  0.16235000  0.90197600  0.31062300  1
  N  N27  1  0.00000000  0.25000000  0.47126900  1
  N  N28  1  0.66235000  0.59802400  0.81062300  1
  N  N29  1  0.83967900  0.90444800  0.44256200  1
  N  N30  1  0.66032100  0.40444800  0.05743800  1
  N  N31  1  0.83765000  0.59802400  0.31062300  1
loop_
_geom_bond_atom_site_label_1
_geom_bond_atom_site_label_2
_geom_bond_distance
_geom_bond_site_symmetry_2
Au0 C31 1.995248 1_555
Au0 C11 2.000344 1_555
Au1 C27 1.999661 1_555
Au1 C18 2.000220 1_555
Au1 Tl2 3.498053 1_555
Au1 Tl6 3.512172 1_555
Au2 C21 1.999661 1_555
Au2 C15 2.000220 1_555
Au2 Tl12 3.498053 1_555
Au2 Tl1 3.512172 1_555
Au3 C29 2.000807 1_555
Au3 C9 2.004730 1_555
Au4 C24 1.999661 1_555
Au4 C4 2.000220 1_655
Au4 Tl13 3.498053 1_655
Au4 Tl10 3.512172 1_555
Au5 C17 1.999661 1_555
Au5 C22 2.000220 1_555
Au5 Tl9 3.498053 1_555
Au5 Tl0 3.512172 1_555
Au6 C7 1.999661 1_555
Au6 C2 2.000220 1_455
Au6 Tl7 3.498053 1_455
Au6 Tl8 3.512172 1_555
Au7 C25 1.995248 1_555
Au7 C6 2.000344 1_555
Au8 C26 1.995248 1_555
Au8 C16 2.000344 1_555
Au9 C20 2.000807 1_555
Au9 C8 2.004730 1_555
Au10 C5 2.000807 1_555
Au10 C30 2.004730 1_555
Au11 C1 1.999661 1_555
Au11 C14 2.000220 1_455
Au11 Tl11 3.498053 1_455
Au11 Tl14 3.512172 1_555
Au12 C10 1.999661 1_555
Au12 C0 2.000220 1_555
Au12 Tl4 3.498053 1_555
Au12 Tl15 3.512172 1_555
Au13 C12 2.000807 1_555
Au13 C28 2.004730 1_555
Au14 C23 1.999661 1_555
Au14 C19 2.000220 1_655
Au14 Tl5 3.498053 1_655
Au14 Tl3 3.512172 1_555
Au15 C3 1.995248 1_555
Au15 C13 2.000344 1_555
C0 N31 1.174126 1_555
C1 N2 1.174136 1_555
C2 N28 1.174126 1_555
C3 N16 1.179480 1_555
C4 N4 1.174126 1_555
C5 N5 1.178028 1_555
C6 N1 1.179635 1_555
C7 N0 1.174136 1_555
C8 N17 1.179048 1_555
C9 N11 1.179048 1_555
C10 N21 1.174136 1_555
C11 N13 1.179635 1_555
C12 N9 1.178028 1_555
C13 N7 1.179635 1_555
C14 N3 1.174126 1_555
C15 N12 1.174126 1_555
C16 N15 1.179635 1_555
C17 N29 1.174136 1_555
C18 N24 1.174126 1_555
C19 N14 1.174126 1_555
C20 N8 1.178028 1_555
C21 N10 1.174136 1_555
C22 N26 1.174126 1_555
C23 N30 1.174136 1_555
C24 N6 1.174136 1_555
C25 N18 1.179480 1_555
C26 N23 1.179480 1_555
C27 N22 1.174136 1_555
C28 N20 1.179048 1_555
C29 N19 1.178028 1_555
C30 N25 1.179048 1_555
C31 N27 1.179480 1_555
N0 Tl7 2.877499 1_555
N1 Tl15 2.920910 1_555
N1 Tl0 2.920910 1_555
N2 Tl11 2.877499 1_555
N3 Tl14 2.871081 1_555
N4 Tl10 2.871081 1_555
N5 Tl0 2.834446 1_455
N5 Tl15 2.834446 1_555
N6 Tl13 2.877499 1_555
N7 Tl10 2.920910 1_455
N7 Tl8 2.920910 1_555
N8 Tl10 2.834446 1_555
N8 Tl8 2.834446 1_555
N9 Tl14 2.834446 1_555
N9 Tl3 2.834446 1_555
N10 Tl12 2.877499 1_655
N11 Tl5 2.924786 1_556
N11 Tl11 2.924786 1_456
N12 Tl1 2.871081 1_455
N13 Tl3 2.920910 1_455
N13 Tl14 2.920910 1_555
N14 Tl3 2.871081 1_555
N15 Tl6 2.920910 1_555
N15 Tl1 2.920910 1_555
N16 Tl9 2.884363 1_555
N16 Tl4 2.884363 1_455
N17 Tl9 2.924786 1_555
N17 Tl4 2.924786 1_555
N18 Tl13 2.884363 1_554
N18 Tl7 2.884363 1_554
N19 Tl1 2.834446 1_455
N19 Tl6 2.834446 1_555
N20 Tl2 2.924786 1_555
N20 Tl12 2.924786 1_555
N21 Tl4 2.877499 1_455
N22 Tl2 2.877499 1_455
N23 Tl11 2.884363 1_556
N23 Tl5 2.884363 1_556
N24 Tl6 2.871081 1_655
N25 Tl7 2.924786 1_454
N25 Tl13 2.924786 1_554
N26 Tl0 2.871081 1_455
N27 Tl2 2.884363 1_455
N27 Tl12 2.884363 1_555
N28 Tl8 2.871081 1_555
N29 Tl9 2.877499 1_655
N30 Tl5 2.877499 1_555
N31 Tl15 2.871081 1_655
