# generated using pymatgen
data_Si2Bi14RhI12
_symmetry_space_group_name_H-M   'P 1'
_cell_length_a   10.51454100
_cell_length_b   10.51454100
_cell_length_c   20.82249800
_cell_angle_alpha   90.00000000
_cell_angle_beta   90.00000000
_cell_angle_gamma   90.00000000
_symmetry_Int_Tables_number   1
_chemical_formula_structural   Si2Bi14RhI12
_chemical_formula_sum   'Si4 Bi28 Rh2 I24'
_cell_volume   2302.04318603
_cell_formula_units_Z   2
loop_
 _symmetry_equiv_pos_site_id
 _symmetry_equiv_pos_as_xyz
  1  'x, y, z'
loop_
 _atom_site_type_symbol
 _atom_site_label
 _atom_site_symmetry_multiplicity
 _atom_site_fract_x
 _atom_site_fract_y
 _atom_site_fract_z
 _atom_site_occupancy
  Si  Si0  1  0.50000000  0.50000000  0.59606200  1
  Si  Si1  1  0.50000000  0.50000000  0.40393800  1
  Si  Si2  1  0.50000000  0.50000000  0.09606200  1
  Si  Si3  1  0.50000000  0.50000000  0.90393800  1
  Bi  Bi0  1  0.24998400  0.05496900  0.00000000  1
  Bi  Bi1  1  0.41279500  0.69867900  0.81774000  1
  Bi  Bi2  1  0.69867900  0.41279500  0.68226000  1
  Bi  Bi3  1  0.69867900  0.58720500  0.81774000  1
  Bi  Bi4  1  0.24998400  0.94503100  0.50000000  1
  Bi  Bi5  1  0.41279500  0.30132100  0.31774000  1
  Bi  Bi6  1  0.30132100  0.58720500  0.68226000  1
  Bi  Bi7  1  0.05496900  0.24998400  0.50000000  1
  Bi  Bi8  1  0.41279500  0.69867900  0.18226000  1
  Bi  Bi9  1  0.69867900  0.58720500  0.18226000  1
  Bi  Bi10  1  0.00000000  0.00000000  0.87141500  1
  Bi  Bi11  1  0.94503100  0.24998400  0.00000000  1
  Bi  Bi12  1  0.30132100  0.41279500  0.81774000  1
  Bi  Bi13  1  0.00000000  0.00000000  0.62858500  1
  Bi  Bi14  1  0.30132100  0.58720500  0.31774000  1
  Bi  Bi15  1  0.58720500  0.69867900  0.68226000  1
  Bi  Bi16  1  0.75001600  0.94503100  0.00000000  1
  Bi  Bi17  1  0.69867900  0.41279500  0.31774000  1
  Bi  Bi18  1  0.00000000  0.00000000  0.12858500  1
  Bi  Bi19  1  0.58720500  0.30132100  0.18226000  1
  Bi  Bi20  1  0.58720500  0.30132100  0.81774000  1
  Bi  Bi21  1  0.94503100  0.75001600  0.50000000  1
  Bi  Bi22  1  0.00000000  0.00000000  0.37141500  1
  Bi  Bi23  1  0.75001600  0.05496900  0.50000000  1
  Bi  Bi24  1  0.58720500  0.69867900  0.31774000  1
  Bi  Bi25  1  0.30132100  0.41279500  0.18226000  1
  Bi  Bi26  1  0.05496900  0.75001600  0.00000000  1
  Bi  Bi27  1  0.41279500  0.30132100  0.68226000  1
  Rh  Rh0  1  0.00000000  0.00000000  0.00000000  1
  Rh  Rh1  1  0.00000000  0.00000000  0.50000000  1
  I  I0  1  0.36711300  0.77674700  0.00000000  1
  I  I1  1  0.70186600  0.06268900  0.65233800  1
  I  I2  1  0.93731100  0.29813400  0.84766200  1
  I  I3  1  0.06268900  0.29813400  0.34766200  1
  I  I4  1  0.93731100  0.70186600  0.65233800  1
  I  I5  1  0.06268900  0.70186600  0.84766200  1
  I  I6  1  0.29813400  0.06268900  0.84766200  1
  I  I7  1  0.93731100  0.70186600  0.34766200  1
  I  I8  1  0.77674700  0.36711300  0.50000000  1
  I  I9  1  0.70186600  0.93731100  0.84766200  1
  I  I10  1  0.29813400  0.93731100  0.65233800  1
  I  I11  1  0.36711300  0.22325300  0.50000000  1
  I  I12  1  0.29813400  0.06268900  0.15233800  1
  I  I13  1  0.06268900  0.70186600  0.15233800  1
  I  I14  1  0.06268900  0.29813400  0.65233800  1
  I  I15  1  0.70186600  0.06268900  0.34766200  1
  I  I16  1  0.22325300  0.36711300  0.00000000  1
  I  I17  1  0.70186600  0.93731100  0.15233800  1
  I  I18  1  0.22325300  0.63288700  0.50000000  1
  I  I19  1  0.93731100  0.29813400  0.15233800  1
  I  I20  1  0.63288700  0.77674700  0.50000000  1
  I  I21  1  0.29813400  0.93731100  0.34766200  1
  I  I22  1  0.77674700  0.63288700  0.00000000  1
  I  I23  1  0.63288700  0.22325300  0.00000000  1
loop_
_geom_bond_atom_site_label_1
_geom_bond_atom_site_label_2
_geom_bond_distance
_geom_bond_site_symmetry_2
Bi0 Rh0 2.691262 1_555
Bi0 I0 3.174045 1_545
Bi0 I12 3.213231 1_555
Bi0 I6 3.213231 1_554
Bi0 I16 3.294064 1_555
Bi1 Si3 2.902801 1_555
Bi2 Si0 2.902801 1_555
Bi3 Si3 2.902801 1_555
Bi4 Rh1 2.691262 1_565
Bi4 I11 3.174045 1_565
Bi4 I10 3.213231 1_555
Bi4 I21 3.213231 1_555
Bi4 I18 3.294064 1_555
Bi5 Si1 2.902801 1_555
Bi6 Si0 2.902801 1_555
Bi7 Rh1 2.691262 1_555
Bi7 I8 3.174045 1_455
Bi7 I14 3.213231 1_555
Bi7 I3 3.213231 1_555
Bi7 I11 3.294064 1_555
Bi8 Si2 2.902801 1_555
Bi9 Si2 2.902801 1_555
Bi10 Rh0 2.677461 1_556
Bi10 I6 3.241251 1_555
Bi10 I2 3.241251 1_455
Bi10 I5 3.241251 1_545
Bi10 I9 3.241251 1_445
Bi11 Rh0 2.691262 1_655
Bi11 I16 3.174045 1_655
Bi11 I19 3.213231 1_555
Bi11 I2 3.213231 1_554
Bi11 I23 3.294064 1_555
Bi12 Si3 2.902801 1_555
Bi13 Rh1 2.677461 1_555
Bi13 I10 3.241251 1_545
Bi13 I4 3.241251 1_445
Bi13 I14 3.241251 1_555
Bi13 I1 3.241251 1_455
Bi14 Si1 2.902801 1_555
Bi15 Si0 2.902801 1_555
Bi16 Rh0 2.691262 1_665
Bi16 I23 3.174045 1_565
Bi16 I17 3.213231 1_555
Bi16 I9 3.213231 1_554
Bi16 I22 3.294064 1_555
Bi17 Si1 2.902801 1_555
Bi18 Rh0 2.677461 1_555
Bi18 I13 3.241251 1_545
Bi18 I19 3.241251 1_455
Bi18 I17 3.241251 1_445
Bi18 I12 3.241251 1_555
Bi19 Si2 2.902801 1_555
Bi20 Si3 2.902801 1_555
Bi21 Rh1 2.691262 1_665
Bi21 I18 3.174045 1_655
Bi21 I4 3.213231 1_555
Bi21 I7 3.213231 1_555
Bi21 I20 3.294064 1_555
Bi22 Rh1 2.677461 1_555
Bi22 I15 3.241251 1_455
Bi22 I3 3.241251 1_555
Bi22 I7 3.241251 1_445
Bi22 I21 3.241251 1_545
Bi23 Rh1 2.691262 1_655
Bi23 I20 3.174045 1_545
Bi23 I1 3.213231 1_555
Bi23 I15 3.213231 1_555
Bi23 I8 3.294064 1_555
Bi24 Si1 2.902801 1_555
Bi25 Si2 2.902801 1_555
Bi26 Rh0 2.691262 1_565
Bi26 I22 3.174045 1_455
Bi26 I13 3.213231 1_555
Bi26 I5 3.213231 1_554
Bi26 I0 3.294064 1_555
Bi27 Si0 2.902801 1_555
