# generated using pymatgen
data_Tb10B7C10
_symmetry_space_group_name_H-M   'P 1'
_cell_length_a   8.04987425
_cell_length_b   8.04987425
_cell_length_c   23.69018659
_cell_angle_alpha   84.04823097
_cell_angle_beta   84.04823097
_cell_angle_gamma   88.69488977
_symmetry_Int_Tables_number   1
_chemical_formula_structural   Tb10B7C10
_chemical_formula_sum   'Tb40 B28 C40'
_cell_volume   1518.51757765
_cell_formula_units_Z   4
loop_
 _symmetry_equiv_pos_site_id
 _symmetry_equiv_pos_as_xyz
  1  'x, y, z'
loop_
 _atom_site_type_symbol
 _atom_site_label
 _atom_site_symmetry_multiplicity
 _atom_site_fract_x
 _atom_site_fract_y
 _atom_site_fract_z
 _atom_site_occupancy
  Tb  Tb0  1  0.97121600  0.62407300  0.92227100  1
  Tb  Tb1  1  0.30266600  0.54600000  0.81805500  1
  Tb  Tb2  1  0.49609500  0.15590200  0.81790100  1
  Tb  Tb3  1  0.37592700  0.02878400  0.57772900  1
  Tb  Tb4  1  0.97890900  0.22761800  0.57759000  1
  Tb  Tb5  1  0.35371500  0.91271400  0.31751900  1
  Tb  Tb6  1  0.08728600  0.64628500  0.18248100  1
  Tb  Tb7  1  0.22293000  0.17309900  0.42429000  1
  Tb  Tb8  1  0.62407300  0.97121600  0.42227100  1
  Tb  Tb9  1  0.45400000  0.69733400  0.68194500  1
  Tb  Tb10  1  0.37521400  0.82248700  0.92197200  1
  Tb  Tb11  1  0.24138400  0.29155900  0.69630400  1
  Tb  Tb12  1  0.62478600  0.17751300  0.07802800  1
  Tb  Tb13  1  0.64628500  0.08728600  0.68248100  1
  Tb  Tb14  1  0.82248700  0.37521400  0.42197200  1
  Tb  Tb15  1  0.57563500  0.42596000  0.57733800  1
  Tb  Tb16  1  0.82690100  0.77707000  0.07571000  1
  Tb  Tb17  1  0.54600000  0.30266600  0.31805500  1
  Tb  Tb18  1  0.03657900  0.89394500  0.68229400  1
  Tb  Tb19  1  0.70844100  0.75861600  0.80369600  1
  Tb  Tb20  1  0.57404000  0.42436500  0.92266200  1
  Tb  Tb21  1  0.69733400  0.45400000  0.18194500  1
  Tb  Tb22  1  0.15590200  0.49609500  0.31790100  1
  Tb  Tb23  1  0.89394500  0.03657900  0.18229400  1
  Tb  Tb24  1  0.96342100  0.10605500  0.31770600  1
  Tb  Tb25  1  0.29155900  0.24138400  0.19630400  1
  Tb  Tb26  1  0.75861600  0.70844100  0.30369600  1
  Tb  Tb27  1  0.77238200  0.02109100  0.92241000  1
  Tb  Tb28  1  0.17751300  0.62478600  0.57802800  1
  Tb  Tb29  1  0.22761800  0.97890900  0.07759000  1
  Tb  Tb30  1  0.84409800  0.50390500  0.68209900  1
  Tb  Tb31  1  0.42596000  0.57563500  0.07733800  1
  Tb  Tb32  1  0.02878400  0.37592700  0.07772900  1
  Tb  Tb33  1  0.10605500  0.96342100  0.81770600  1
  Tb  Tb34  1  0.42436500  0.57404000  0.42266200  1
  Tb  Tb35  1  0.77707000  0.82690100  0.57571000  1
  Tb  Tb36  1  0.17309900  0.22293000  0.92429000  1
  Tb  Tb37  1  0.02109100  0.77238200  0.42241000  1
  Tb  Tb38  1  0.91271400  0.35371500  0.81751900  1
  Tb  Tb39  1  0.50390500  0.84409800  0.18209900  1
  B  B0  1  0.10298900  0.45823300  0.48008500  1
  B  B1  1  0.30541900  0.85510600  0.47931800  1
  B  B2  1  0.89701100  0.54176700  0.51991500  1
  B  B3  1  0.87845400  0.12154600  0.75000000  1
  B  B4  1  0.12154600  0.87845400  0.25000000  1
  B  B5  1  0.57132000  0.42868000  0.75000000  1
  B  B6  1  0.29414000  0.34294400  0.52459700  1
  B  B7  1  0.09564200  0.94253200  0.52061200  1
  B  B8  1  0.69458000  0.14489400  0.52068200  1
  B  B9  1  0.90435800  0.05746800  0.47938800  1
  B  B10  1  0.06903300  0.62066500  0.75044900  1
  B  B11  1  0.93096700  0.37933500  0.24955100  1
  B  B12  1  0.25563900  0.50950200  0.98035500  1
  B  B13  1  0.54176700  0.89701100  0.01991500  1
  B  B14  1  0.70586000  0.65705600  0.47540300  1
  B  B15  1  0.85510600  0.30542000  0.97931800  1
  B  B16  1  0.62066500  0.06903300  0.25044900  1
  B  B17  1  0.37933500  0.93096700  0.74955100  1
  B  B18  1  0.65705600  0.70586000  0.97540300  1
  B  B19  1  0.34294400  0.29414000  0.02459700  1
  B  B20  1  0.74436100  0.49049800  0.01964500  1
  B  B21  1  0.94253200  0.09564200  0.02061200  1
  B  B22  1  0.50950200  0.25563900  0.48035500  1
  B  B23  1  0.14489400  0.69458000  0.02068200  1
  B  B24  1  0.42868000  0.57132000  0.25000000  1
  B  B25  1  0.49049800  0.74436100  0.51964500  1
  B  B26  1  0.45823300  0.10298900  0.98008500  1
  B  B27  1  0.05746800  0.90435800  0.97938800  1
  C  C0  1  0.74509400  0.79536200  0.68222600  1
  C  C1  1  0.39197600  0.54399000  0.19225600  1
  C  C2  1  0.72368200  0.47403000  0.08283600  1
  C  C3  1  0.32439900  0.27419300  0.08816900  1
  C  C4  1  0.40596700  0.85806000  0.80734900  1
  C  C5  1  0.52359600  0.87488000  0.08307400  1
  C  C6  1  0.67560100  0.72580700  0.91183100  1
  C  C7  1  0.14194000  0.59403300  0.69265100  1
  C  C8  1  0.87311000  0.32488800  0.91617700  1
  C  C9  1  0.47403000  0.72368200  0.58283600  1
  C  C10  1  0.20463800  0.25490600  0.81777400  1
  C  C11  1  0.92341300  0.07452000  0.41628000  1
  C  C12  1  0.32488800  0.87311000  0.41617700  1
  C  C13  1  0.72580700  0.67560100  0.41183100  1
  C  C14  1  0.65735700  0.00854300  0.30847900  1
  C  C15  1  0.92548000  0.07658700  0.08372000  1
  C  C16  1  0.25490600  0.20463800  0.31777400  1
  C  C17  1  0.54399000  0.39197600  0.69225600  1
  C  C18  1  0.12689000  0.67511200  0.08382300  1
  C  C19  1  0.07658700  0.92548000  0.58372000  1
  C  C20  1  0.45601000  0.60802400  0.30774400  1
  C  C21  1  0.99145700  0.34264300  0.19152100  1
  C  C22  1  0.34264300  0.99145700  0.69152100  1
  C  C23  1  0.59403300  0.14194000  0.19265100  1
  C  C24  1  0.85806000  0.40596700  0.30734900  1
  C  C25  1  0.19344500  0.94116300  0.19246000  1
  C  C26  1  0.27631800  0.52597000  0.91716400  1
  C  C27  1  0.60802400  0.45601000  0.80774400  1
  C  C28  1  0.80655500  0.05883700  0.80754000  1
  C  C29  1  0.67511200  0.12689000  0.58382300  1
  C  C30  1  0.94116300  0.19344500  0.69246000  1
  C  C31  1  0.87488000  0.52359600  0.58307400  1
  C  C32  1  0.00854300  0.65735700  0.80847900  1
  C  C33  1  0.05883700  0.80655500  0.30754000  1
  C  C34  1  0.27419300  0.32439900  0.58816900  1
  C  C35  1  0.12512000  0.47640400  0.41692600  1
  C  C36  1  0.07452000  0.92341300  0.91628000  1
  C  C37  1  0.52597000  0.27631800  0.41716400  1
  C  C38  1  0.79536200  0.74509400  0.18222600  1
  C  C39  1  0.47640400  0.12512000  0.91692600  1
loop_
_geom_bond_atom_site_label_1
_geom_bond_atom_site_label_2
_geom_bond_distance
_geom_bond_site_symmetry_2
B0 C35 1.480680 1_555
B1 C12 1.480037 1_555
B2 C31 1.480680 1_555
B3 C30 1.467969 1_555
B3 C28 1.467969 1_555
B3 Tb38 2.619619 1_555
B3 Tb13 2.619619 1_555
B3 Tb33 2.762166 1_645
B3 Tb18 2.762166 1_645
B4 C25 1.467969 1_555
B4 C33 1.467969 1_555
B4 Tb5 2.619619 1_555
B4 Tb6 2.619619 1_555
B4 Tb24 2.762166 1_465
B4 Tb23 2.762166 1_465
B5 C27 1.468409 1_555
B5 C17 1.468409 1_555
B5 Tb30 2.627158 1_555
B5 Tb2 2.627158 1_555
B5 Tb9 2.769086 1_555
B5 Tb1 2.769086 1_555
B6 C34 1.490141 1_555
B7 C19 1.479310 1_555
B8 C29 1.480037 1_555
B9 C11 1.479310 1_555
B10 C32 1.467343 1_555
B10 C7 1.467559 1_555
B10 Tb1 2.614767 1_555
B10 Tb18 2.615209 1_555
B10 Tb38 2.779627 1_455
B10 Tb30 2.790181 1_455
B11 C21 1.467343 1_555
B11 C24 1.467559 1_555
B11 Tb21 2.614767 1_555
B11 Tb24 2.615209 1_555
B11 Tb6 2.779627 1_655
B11 Tb22 2.790181 1_655
B12 C26 1.481379 1_555
B13 C5 1.480680 1_555
B14 C13 1.490141 1_555
B15 C8 1.480037 1_555
B16 C14 1.467343 1_555
B16 C23 1.467559 1_555
B16 Tb17 2.614767 1_555
B16 Tb23 2.615209 1_555
B16 Tb5 2.779627 1_545
B16 Tb39 2.790181 1_545
B17 C22 1.467343 1_555
B17 C4 1.467559 1_555
B17 Tb9 2.614767 1_555
B17 Tb33 2.615209 1_555
B17 Tb13 2.779627 1_565
B17 Tb2 2.790181 1_565
B18 C6 1.490141 1_555
B19 C3 1.490141 1_555
B20 C2 1.481379 1_555
B21 C15 1.479310 1_555
B22 C37 1.481379 1_555
B23 C18 1.480037 1_555
B24 C20 1.468409 1_555
B24 C1 1.468409 1_555
B24 Tb22 2.627158 1_555
B24 Tb39 2.627158 1_555
B24 Tb17 2.769086 1_555
B24 Tb21 2.769086 1_555
B25 C9 1.481379 1_555
B26 C39 1.480680 1_555
B27 C36 1.479310 1_555
C0 Tb30 2.460808 1_555
C0 Tb13 2.464097 1_565
C0 Tb9 2.490425 1_555
C0 Tb18 2.494258 1_655
C0 Tb35 2.496717 1_555
C0 Tb19 2.847240 1_555
C1 Tb21 2.541204 1_555
C1 Tb25 2.573247 1_555
C1 Tb39 2.576744 1_555
C1 Tb6 2.594951 1_555
C1 Tb31 2.693743 1_555
C2 Tb21 2.324531 1_555
C2 Tb31 2.526479 1_555
C2 Tb12 2.550668 1_555
C2 Tb32 2.557386 1_655
C2 Tb16 2.578288 1_555
C3 Tb12 2.518548 1_555
C3 Tb32 2.527037 1_555
C3 Tb25 2.534673 1_555
C3 Tb31 2.557385 1_555
C3 Tb29 2.562866 1_545
C4 Tb33 2.536771 1_555
C4 Tb19 2.541420 1_555
C4 Tb2 2.564850 1_565
C4 Tb1 2.643004 1_555
C4 Tb10 2.686906 1_555
C5 Tb39 2.322497 1_555
C5 Tb29 2.519049 1_555
C5 Tb16 2.542479 1_555
C5 Tb31 2.572002 1_555
C5 Tb12 2.573418 1_565
C6 Tb10 2.518548 1_555
C6 Tb0 2.527037 1_555
C6 Tb19 2.534673 1_555
C6 Tb20 2.557385 1_555
C6 Tb27 2.562866 1_565
C7 Tb18 2.536771 1_555
C7 Tb11 2.541420 1_555
C7 Tb30 2.564850 1_455
C7 Tb9 2.643004 1_555
C7 Tb28 2.686906 1_555
C8 Tb38 2.313975 1_555
C8 Tb20 2.514315 1_555
C8 Tb36 2.552536 1_655
C8 Tb0 2.574359 1_555
C8 Tb27 2.578855 1_555
C9 Tb9 2.324531 1_555
C9 Tb15 2.526479 1_555
C9 Tb28 2.550668 1_555
C9 Tb3 2.557386 1_565
C9 Tb35 2.578288 1_555
C10 Tb2 2.460808 1_555
C10 Tb38 2.464097 1_455
C10 Tb1 2.490425 1_555
C10 Tb33 2.494258 1_545
C10 Tb36 2.496717 1_555
C10 Tb11 2.847240 1_555
C11 Tb24 2.312209 1_555
C11 Tb37 2.533403 1_645
C11 Tb14 2.548075 1_555
C11 Tb8 2.552247 1_545
C11 Tb7 2.586943 1_655
C12 Tb5 2.313975 1_555
C12 Tb34 2.514315 1_555
C12 Tb7 2.552536 1_565
C12 Tb8 2.574359 1_555
C12 Tb37 2.578855 1_555
C13 Tb14 2.518548 1_555
C13 Tb8 2.527037 1_555
C13 Tb26 2.534673 1_555
C13 Tb34 2.557385 1_555
C13 Tb37 2.562866 1_655
C14 Tb17 2.536401 1_555
C14 Tb26 2.541886 1_545
C14 Tb5 2.560960 1_545
C14 Tb24 2.639982 1_555
C14 Tb8 2.667407 1_545
C15 Tb23 2.312209 1_555
C15 Tb29 2.533403 1_645
C15 Tb12 2.548075 1_555
C15 Tb32 2.552247 1_655
C15 Tb16 2.586943 1_545
C16 Tb22 2.460808 1_555
C16 Tb5 2.464097 1_545
C16 Tb17 2.490425 1_555
C16 Tb24 2.494258 1_455
C16 Tb7 2.496717 1_555
C16 Tb25 2.847240 1_555
C17 Tb9 2.541204 1_555
C17 Tb11 2.573247 1_555
C17 Tb30 2.576744 1_555
C17 Tb13 2.594951 1_555
C17 Tb15 2.693743 1_555
C18 Tb6 2.313975 1_555
C18 Tb31 2.514315 1_555
C18 Tb16 2.552536 1_455
C18 Tb32 2.574359 1_555
C18 Tb29 2.578855 1_555
C19 Tb18 2.312209 1_555
C19 Tb4 2.533403 1_465
C19 Tb28 2.548075 1_555
C19 Tb3 2.552247 1_565
C19 Tb35 2.586943 1_455
C20 Tb17 2.541204 1_555
C20 Tb26 2.573247 1_555
C20 Tb22 2.576744 1_555
C20 Tb5 2.594951 1_555
C20 Tb34 2.693743 1_555
C21 Tb21 2.536401 1_555
C21 Tb25 2.541886 1_655
C21 Tb6 2.560960 1_655
C21 Tb23 2.639982 1_555
C21 Tb32 2.667407 1_655
C22 Tb9 2.536401 1_555
C22 Tb11 2.541886 1_565
C22 Tb13 2.560960 1_565
C22 Tb18 2.639982 1_555
C22 Tb3 2.667407 1_565
C23 Tb23 2.536771 1_555
C23 Tb25 2.541420 1_555
C23 Tb39 2.564850 1_545
C23 Tb21 2.643004 1_555
C23 Tb12 2.686906 1_555
C24 Tb24 2.536771 1_555
C24 Tb26 2.541420 1_555
C24 Tb22 2.564850 1_655
C24 Tb17 2.643004 1_555
C24 Tb14 2.686906 1_555
C25 Tb23 2.541313 1_465
C25 Tb25 2.572981 1_565
C25 Tb6 2.582914 1_555
C25 Tb39 2.596189 1_555
C25 Tb29 2.692677 1_555
C26 Tb1 2.324531 1_555
C26 Tb20 2.526479 1_555
C26 Tb10 2.550668 1_555
C26 Tb0 2.557386 1_455
C26 Tb36 2.578288 1_555
C27 Tb1 2.541204 1_555
C27 Tb19 2.573247 1_555
C27 Tb2 2.576744 1_555
C27 Tb38 2.594951 1_555
C27 Tb20 2.693743 1_555
C28 Tb33 2.541313 1_645
C28 Tb19 2.572981 1_545
C28 Tb38 2.582914 1_555
C28 Tb2 2.596189 1_555
C28 Tb27 2.692677 1_555
C29 Tb13 2.313975 1_555
C29 Tb15 2.514315 1_555
C29 Tb35 2.552536 1_545
C29 Tb3 2.574359 1_555
C29 Tb4 2.578855 1_555
C30 Tb18 2.541313 1_645
C30 Tb11 2.572981 1_655
C30 Tb13 2.582914 1_555
C30 Tb30 2.596189 1_555
C30 Tb4 2.692677 1_555
C31 Tb30 2.322497 1_555
C31 Tb4 2.519049 1_555
C31 Tb35 2.542479 1_555
C31 Tb15 2.572002 1_555
C31 Tb28 2.573418 1_655
C32 Tb1 2.536401 1_555
C32 Tb19 2.541886 1_455
C32 Tb38 2.560960 1_455
C32 Tb33 2.639982 1_555
C32 Tb0 2.667407 1_455
C33 Tb24 2.541313 1_465
C33 Tb26 2.572981 1_455
C33 Tb5 2.582914 1_555
C33 Tb22 2.596189 1_555
C33 Tb37 2.692677 1_555
C34 Tb28 2.518548 1_555
C34 Tb3 2.527037 1_555
C34 Tb11 2.534673 1_555
C34 Tb15 2.557385 1_555
C34 Tb4 2.562866 1_455
C35 Tb22 2.322497 1_555
C35 Tb37 2.519049 1_555
C35 Tb7 2.542479 1_555
C35 Tb34 2.572002 1_555
C35 Tb14 2.573418 1_455
C36 Tb33 2.312209 1_555
C36 Tb27 2.533403 1_465
C36 Tb10 2.548075 1_555
C36 Tb0 2.552247 1_455
C36 Tb36 2.586943 1_565
C37 Tb17 2.324531 1_555
C37 Tb34 2.526479 1_555
C37 Tb14 2.550668 1_555
C37 Tb8 2.557386 1_545
C37 Tb7 2.578288 1_555
C38 Tb39 2.460808 1_555
C38 Tb6 2.464097 1_655
C38 Tb21 2.490425 1_555
C38 Tb23 2.494258 1_565
C38 Tb16 2.496717 1_555
C38 Tb26 2.847240 1_555
C39 Tb2 2.322497 1_555
C39 Tb27 2.519049 1_555
C39 Tb36 2.542479 1_555
C39 Tb20 2.572002 1_555
C39 Tb10 2.573418 1_545
