# generated using pymatgen
data_Cs4Sn2Au7
_symmetry_space_group_name_H-M   'P 1'
_cell_length_a   10.67669446
_cell_length_b   10.67669412
_cell_length_c   10.67669560
_cell_angle_alpha   37.88136871
_cell_angle_beta   37.88136874
_cell_angle_gamma   37.88136971
_symmetry_Int_Tables_number   1
_chemical_formula_structural   Cs4Sn2Au7
_chemical_formula_sum   'Cs4 Sn2 Au7'
_cell_volume   411.81074994
_cell_formula_units_Z   1
loop_
 _symmetry_equiv_pos_site_id
 _symmetry_equiv_pos_as_xyz
  1  'x, y, z'
loop_
 _atom_site_type_symbol
 _atom_site_label
 _atom_site_symmetry_multiplicity
 _atom_site_fract_x
 _atom_site_fract_y
 _atom_site_fract_z
 _atom_site_occupancy
  Cs  Cs0  1  0.81288984  0.81288984  0.81288984  1
  Cs  Cs1  1  0.68494164  0.68494164  0.68494164  1
  Cs  Cs2  1  0.31505836  0.31505836  0.31505836  1
  Cs  Cs3  1  0.18711016  0.18711016  0.18711016  1
  Sn  Sn0  1  0.44955491  0.44955491  0.44955491  1
  Sn  Sn1  1  0.55044509  0.55044509  0.55044509  1
  Au  Au0  1  0.78820836  0.78820836  0.19384142  1
  Au  Au1  1  0.80615858  0.21179164  0.21179164  1
  Au  Au2  1  0.19384142  0.78820836  0.78820836  1
  Au  Au3  1  0.21179164  0.80615858  0.21179164  1
  Au  Au4  1  0.78820836  0.19384142  0.78820836  1
  Au  Au5  1  0.00000000  -0.00000000  -0.00000000  1
  Au  Au6  1  0.21179164  0.21179164  0.80615858  1
loop_
_geom_bond_atom_site_label_1
_geom_bond_atom_site_label_2
_geom_bond_distance
_geom_bond_site_symmetry_2
Au0 Sn1 2.653812 1_555
Au0 Au5 2.793963 1_665
Au0 Cs0 3.661644 1_554
Au0 Cs1 3.686622 1_555
Au0 Cs2 3.892339 1_565
Au0 Cs2 3.892339 1_655
Au1 Sn0 2.653813 1_555
Au1 Au5 2.793964 1_655
Au1 Cs3 3.661644 1_655
Au1 Cs2 3.686621 1_555
Au1 Cs1 3.892339 1_545
Au1 Cs1 3.892340 1_554
Au2 Sn1 2.653813 1_555
Au2 Au5 2.793964 1_566
Au2 Cs0 3.661644 1_455
Au2 Cs1 3.686621 1_555
Au2 Cs2 3.892339 1_565
Au2 Cs2 3.892340 1_556
Au3 Sn0 2.653813 1_555
Au3 Au5 2.793964 1_565
Au3 Cs3 3.661643 1_565
Au3 Cs2 3.686621 1_555
Au3 Cs1 3.892339 1_455
Au3 Cs1 3.892340 1_554
Au4 Sn1 2.653813 1_555
Au4 Au5 2.793964 1_656
Au4 Cs0 3.661643 1_545
Au4 Cs1 3.686621 1_555
Au4 Cs2 3.892339 1_655
Au4 Cs2 3.892340 1_556
Au5 Au6 2.793963 1_554
Au5 Cs2 4.038289 1_545
Au5 Cs1 4.038289 1_454
Au5 Cs2 4.038289 1_455
Au5 Cs1 4.038289 1_544
Au5 Cs2 4.038290 1_554
Au5 Cs1 4.038290 1_445
Au6 Sn0 2.653812 1_555
Au6 Cs3 3.661644 1_556
Au6 Cs2 3.686622 1_555
Au6 Cs1 3.892339 1_545
Au6 Cs1 3.892339 1_455
