# generated using pymatgen
data_Li10Mn21O48
_symmetry_space_group_name_H-M   'P 1'
_cell_length_a   5.86786418
_cell_length_b   5.86786418
_cell_length_c   28.70308492
_cell_angle_alpha   89.35187357
_cell_angle_beta   89.35187357
_cell_angle_gamma   59.85205899
_symmetry_Int_Tables_number   1
_chemical_formula_structural   Li10Mn21O48
_chemical_formula_sum   'Li10 Mn21 O48'
_cell_volume   854.54111148
_cell_formula_units_Z   1
loop_
 _symmetry_equiv_pos_site_id
 _symmetry_equiv_pos_as_xyz
  1  'x, y, z'
loop_
 _atom_site_type_symbol
 _atom_site_label
 _atom_site_symmetry_multiplicity
 _atom_site_fract_x
 _atom_site_fract_y
 _atom_site_fract_z
 _atom_site_occupancy
  Li  Li0  1  0.49364000  0.49364000  0.43979500  1
  Li  Li1  1  0.83195000  0.83195000  0.60149400  1
  Li  Li2  1  0.16088100  0.16088100  0.77165000  1
  Li  Li3  1  0.50636000  0.50636000  0.56020500  1
  Li  Li4  1  0.49967100  0.49967100  0.93381500  1
  Li  Li5  1  0.82812200  0.82812200  0.10624500  1
  Li  Li6  1  0.17187800  0.17187800  0.89375500  1
  Li  Li7  1  0.50032900  0.50032900  0.06618500  1
  Li  Li8  1  0.83911900  0.83911900  0.22835000  1
  Li  Li9  1  0.16805000  0.16805000  0.39850600  1
  Mn  Mn0  1  0.50000000  0.00000000  0.50000000  1
  Mn  Mn1  1  0.33439600  0.33439600  0.66675000  1
  Mn  Mn2  1  0.00000000  0.50000000  0.50000000  1
  Mn  Mn3  1  0.16616000  0.16616000  0.58081200  1
  Mn  Mn4  1  0.83185300  0.33424100  0.66676800  1
  Mn  Mn5  1  0.33424100  0.83185300  0.66676800  1
  Mn  Mn6  1  0.50005100  0.50005100  0.75198700  1
  Mn  Mn7  1  0.16853200  0.66620600  0.83329400  1
  Mn  Mn8  1  0.00000000  0.00000000  0.00000000  1
  Mn  Mn9  1  0.66620600  0.16853200  0.83329400  1
  Mn  Mn10  1  0.83265000  0.83265000  0.91383400  1
  Mn  Mn11  1  0.50000000  0.00000000  0.00000000  1
  Mn  Mn12  1  0.16735000  0.16735000  0.08616600  1
  Mn  Mn13  1  0.00000000  0.50000000  0.00000000  1
  Mn  Mn14  1  0.83146800  0.33379400  0.16670600  1
  Mn  Mn15  1  0.66560400  0.66560400  0.33325000  1
  Mn  Mn16  1  0.49994900  0.49994900  0.24801300  1
  Mn  Mn17  1  0.33379400  0.83146800  0.16670600  1
  Mn  Mn18  1  0.16814700  0.66575900  0.33323200  1
  Mn  Mn19  1  0.83384000  0.83384000  0.41918800  1
  Mn  Mn20  1  0.66575900  0.16814700  0.33323200  1
  O  O0  1  0.12609600  0.65691700  0.45517500  1
  O  O1  1  0.81839100  0.81839100  0.53411800  1
  O  O2  1  0.65691700  0.12609600  0.45517500  1
  O  O3  1  0.68079600  0.68079600  0.46075900  1
  O  O4  1  0.31920400  0.31920400  0.53924100  1
  O  O5  1  0.46548500  0.01944000  0.62837800  1
  O  O6  1  0.34308300  0.87390400  0.54482500  1
  O  O7  1  0.16544600  0.16544600  0.70106400  1
  O  O8  1  0.01944000  0.46548500  0.62837800  1
  O  O9  1  0.18160900  0.18160900  0.46588200  1
  O  O10  1  0.01953700  0.01953700  0.62730400  1
  O  O11  1  0.87390400  0.34308300  0.54482500  1
  O  O12  1  0.64505500  0.64505500  0.70477300  1
  O  O13  1  0.79315300  0.32030500  0.78827100  1
  O  O14  1  0.64665800  0.20517700  0.70381700  1
  O  O15  1  0.48591200  0.48591200  0.86716000  1
  O  O16  1  0.50168100  0.50168100  0.63145200  1
  O  O17  1  0.32030500  0.79315300  0.78827100  1
  O  O18  1  0.34764000  0.34764000  0.79420700  1
  O  O19  1  0.20517700  0.64665800  0.70381700  1
  O  O20  1  0.98579300  0.98579300  0.87282500  1
  O  O21  1  0.13305400  0.68615800  0.96196300  1
  O  O22  1  0.00864700  0.54096100  0.87809100  1
  O  O23  1  0.84625400  0.84625400  0.80056000  1
  O  O24  1  0.83607000  0.83607000  0.03566100  1
  O  O25  1  0.68615800  0.13305400  0.96196300  1
  O  O26  1  0.68588900  0.68588900  0.96079300  1
  O  O27  1  0.54096100  0.00864700  0.87809100  1
  O  O28  1  0.31411100  0.31411100  0.03920700  1
  O  O29  1  0.45903900  0.99135300  0.12190900  1
  O  O30  1  0.31384200  0.86694600  0.03803700  1
  O  O31  1  0.15374600  0.15374600  0.19944000  1
  O  O32  1  0.99135300  0.45903900  0.12190900  1
  O  O33  1  0.16393000  0.16393000  0.96433900  1
  O  O34  1  0.01420700  0.01420700  0.12717500  1
  O  O35  1  0.86694600  0.31384200  0.03803700  1
  O  O36  1  0.65236000  0.65236000  0.20579300  1
  O  O37  1  0.79482300  0.35334200  0.29618300  1
  O  O38  1  0.67969500  0.20684700  0.21172900  1
  O  O39  1  0.49831900  0.49831900  0.36854800  1
  O  O40  1  0.51408800  0.51408800  0.13284000  1
  O  O41  1  0.35334200  0.79482300  0.29618300  1
  O  O42  1  0.35494500  0.35494500  0.29522700  1
  O  O43  1  0.20684700  0.67969500  0.21172900  1
  O  O44  1  0.98046300  0.98046300  0.37269600  1
  O  O45  1  0.98056000  0.53451500  0.37162200  1
  O  O46  1  0.83455400  0.83455400  0.29893600  1
  O  O47  1  0.53451500  0.98056000  0.37162200  1
loop_
_geom_bond_atom_site_label_1
_geom_bond_atom_site_label_2
_geom_bond_distance
_geom_bond_site_symmetry_2
Li0 O0 1.917459 1_555
Li0 O2 1.917459 1_555
Li0 O3 2.003881 1_555
Li0 O39 2.044941 1_555
Li1 O1 1.940605 1_555
Li1 O8 2.008787 1_655
Li1 O5 2.008787 1_565
Li1 O10 2.055721 1_665
Li2 O17 1.928201 1_545
Li2 O13 1.928201 1_455
Li2 O18 2.014821 1_555
Li2 O7 2.025962 1_555
Li3 O6 1.917459 1_555
Li3 O11 1.917459 1_555
Li3 O4 2.003881 1_555
Li3 O16 2.044941 1_555
Li4 O15 1.920136 1_555
Li4 O25 2.023413 1_555
Li4 O21 2.023413 1_555
Li4 O26 2.055537 1_555
Li5 O29 1.927177 1_555
Li5 O32 1.927177 1_555
Li5 O34 1.993187 1_665
Li5 O24 2.026536 1_555
Li6 O27 1.927177 1_555
Li6 O22 1.927177 1_555
Li6 O20 1.993187 1_445
Li6 O33 2.026536 1_555
Li7 O40 1.920136 1_555
Li7 O35 2.023413 1_555
Li7 O30 2.023413 1_555
Li7 O28 2.055537 1_555
Li8 O43 1.928201 1_655
Li8 O38 1.928201 1_565
Li8 O36 2.014821 1_555
Li8 O46 2.025962 1_555
Li9 O9 1.940605 1_555
Li9 O45 2.008787 1_455
Li9 O47 2.008787 1_545
Li9 O44 2.055721 1_445
Mn0 O1 1.898166 1_545
Mn0 O9 1.898166 1_555
Mn0 O6 1.920068 1_545
Mn0 O2 1.920068 1_555
Mn0 O4 1.981702 1_555
Mn0 O3 1.981702 1_545
Mn1 O19 1.922126 1_555
Mn1 O14 1.922126 1_555
Mn1 O5 1.954287 1_555
Mn1 O8 1.954287 1_555
Mn1 O16 1.968871 1_555
Mn1 O7 1.969455 1_555
Mn2 O9 1.898166 1_555
Mn2 O1 1.898166 1_455
Mn2 O11 1.920068 1_455
Mn2 O0 1.920068 1_555
Mn2 O4 1.981702 1_555
Mn2 O3 1.981702 1_455
Mn3 O6 1.820215 1_545
Mn3 O11 1.820215 1_455
Mn3 O4 1.948928 1_555
Mn3 O10 1.988173 1_555
Mn3 O8 2.049127 1_555
Mn3 O5 2.049127 1_555
Mn4 O14 1.915106 1_555
Mn4 O12 1.930714 1_555
Mn4 O8 1.955445 1_655
Mn4 O7 1.963631 1_655
Mn4 O16 1.963741 1_555
Mn4 O10 1.970367 1_655
Mn5 O19 1.915106 1_555
Mn5 O12 1.930714 1_555
Mn5 O5 1.955445 1_565
Mn5 O7 1.963631 1_565
Mn5 O16 1.963741 1_555
Mn5 O10 1.970367 1_565
Mn6 O17 1.829931 1_555
Mn6 O13 1.829931 1_555
Mn6 O18 1.955138 1_555
Mn6 O12 1.989850 1_555
Mn6 O19 2.043929 1_555
Mn6 O14 2.043929 1_555
Mn7 O15 1.889734 1_555
Mn7 O23 1.893688 1_455
Mn7 O17 1.906991 1_555
Mn7 O22 1.928085 1_555
Mn7 O18 1.976092 1_555
Mn7 O20 1.988657 1_455
Mn8 O25 1.942921 1_454
Mn8 O21 1.942921 1_544
Mn8 O35 1.942921 1_455
Mn8 O30 1.942921 1_545
Mn8 O24 1.945036 1_445
Mn8 O33 1.945036 1_554
Mn9 O15 1.889734 1_555
Mn9 O23 1.893688 1_545
Mn9 O13 1.906991 1_555
Mn9 O27 1.928085 1_555
Mn9 O18 1.976092 1_555
Mn9 O20 1.988657 1_545
Mn10 O27 1.813522 1_565
Mn10 O22 1.813522 1_655
Mn10 O20 1.940063 1_555
Mn10 O26 1.998100 1_555
Mn10 O21 2.064158 1_655
Mn10 O25 2.064158 1_565
Mn11 O30 1.950682 1_545
Mn11 O25 1.950682 1_554
Mn11 O28 1.962948 1_555
Mn11 O26 1.962948 1_544
Mn11 O24 1.994953 1_545
Mn11 O33 1.994953 1_554
Mn12 O32 1.813522 1_455
Mn12 O29 1.813522 1_545
Mn12 O34 1.940063 1_555
Mn12 O28 1.998100 1_555
Mn12 O30 2.064158 1_545
Mn12 O35 2.064158 1_455
Mn13 O21 1.950682 1_554
Mn13 O35 1.950682 1_455
Mn13 O28 1.962948 1_555
Mn13 O26 1.962948 1_454
Mn13 O24 1.994953 1_455
Mn13 O33 1.994953 1_554
Mn14 O40 1.889734 1_555
Mn14 O31 1.893688 1_655
Mn14 O38 1.906991 1_555
Mn14 O32 1.928085 1_555
Mn14 O36 1.976092 1_555
Mn14 O34 1.988657 1_655
Mn15 O41 1.922126 1_555
Mn15 O37 1.922126 1_555
Mn15 O45 1.954287 1_555
Mn15 O47 1.954287 1_555
Mn15 O39 1.968871 1_555
Mn15 O46 1.969455 1_555
Mn16 O43 1.829931 1_555
Mn16 O38 1.829931 1_555
Mn16 O36 1.955138 1_555
Mn16 O42 1.989850 1_555
Mn16 O41 2.043929 1_555
Mn16 O37 2.043929 1_555
Mn17 O40 1.889734 1_555
Mn17 O31 1.893688 1_565
Mn17 O43 1.906991 1_555
Mn17 O29 1.928085 1_555
Mn17 O36 1.976092 1_555
Mn17 O34 1.988657 1_565
Mn18 O41 1.915106 1_555
Mn18 O42 1.930714 1_555
Mn18 O45 1.955445 1_455
Mn18 O46 1.963631 1_455
Mn18 O39 1.963741 1_555
Mn18 O44 1.970367 1_455
Mn19 O2 1.820215 1_565
Mn19 O0 1.820215 1_655
Mn19 O3 1.948928 1_555
Mn19 O44 1.988173 1_555
Mn19 O47 2.049127 1_555
Mn19 O45 2.049127 1_555
Mn20 O37 1.915106 1_555
Mn20 O42 1.930714 1_555
Mn20 O47 1.955445 1_545
Mn20 O46 1.963631 1_545
Mn20 O39 1.963741 1_555
Mn20 O44 1.970367 1_545
