# generated using pymatgen
data_KSbMoO5
_symmetry_space_group_name_H-M   'P 1'
_cell_length_a   11.72167800
_cell_length_b   5.82924400
_cell_length_c   9.30583067
_cell_angle_alpha   72.09282211
_cell_angle_beta   90.00000000
_cell_angle_gamma   90.00000000
_symmetry_Int_Tables_number   1
_chemical_formula_structural   KSbMoO5
_chemical_formula_sum   'K4 Sb4 Mo4 O20'
_cell_volume   605.05028471
_cell_formula_units_Z   4
loop_
 _symmetry_equiv_pos_site_id
 _symmetry_equiv_pos_as_xyz
  1  'x, y, z'
loop_
 _atom_site_type_symbol
 _atom_site_label
 _atom_site_symmetry_multiplicity
 _atom_site_fract_x
 _atom_site_fract_y
 _atom_site_fract_z
 _atom_site_occupancy
  K  K0  1  0.14397000  0.45699100  0.10742200  1
  K  K1  1  0.35603000  0.95699100  0.10742200  1
  K  K2  1  0.85603000  0.54300900  0.89257800  1
  K  K3  1  0.64397000  0.04300900  0.89257800  1
  Sb  Sb0  1  0.66873600  0.78497700  0.53695900  1
  Sb  Sb1  1  0.16873600  0.71502300  0.46304100  1
  Sb  Sb2  1  0.83126400  0.28497700  0.53695900  1
  Sb  Sb3  1  0.33126400  0.21502300  0.46304100  1
  Mo  Mo0  1  0.91297900  0.92778600  0.21672000  1
  Mo  Mo1  1  0.58702100  0.42778600  0.21672000  1
  Mo  Mo2  1  0.41297900  0.57221400  0.78328000  1
  Mo  Mo3  1  0.08702100  0.07221400  0.78328000  1
  O  O0  1  0.76183900  0.96405400  0.64826400  1
  O  O1  1  0.94794900  0.22424000  0.73265900  1
  O  O2  1  0.82086800  0.82685600  0.38308400  1
  O  O3  1  0.55205100  0.72424000  0.73265900  1
  O  O4  1  0.06678800  0.75742800  0.83130600  1
  O  O5  1  0.05205100  0.77576000  0.26734100  1
  O  O6  1  0.23816100  0.03594600  0.35173600  1
  O  O7  1  0.43321200  0.25742800  0.83130600  1
  O  O8  1  0.85177300  0.86125700  0.06061100  1
  O  O9  1  0.44794900  0.27576000  0.26734100  1
  O  O10  1  0.35177300  0.63874300  0.93938900  1
  O  O11  1  0.32086800  0.67314400  0.61691600  1
  O  O12  1  0.93321200  0.24257200  0.16869400  1
  O  O13  1  0.67913200  0.32685600  0.38308400  1
  O  O14  1  0.73816100  0.46405400  0.64826400  1
  O  O15  1  0.56678800  0.74257200  0.16869400  1
  O  O16  1  0.64822700  0.36125700  0.06061100  1
  O  O17  1  0.26183900  0.53594600  0.35173600  1
  O  O18  1  0.14822700  0.13874300  0.93938900  1
  O  O19  1  0.17913200  0.17314400  0.61691600  1
loop_
_geom_bond_atom_site_label_1
_geom_bond_atom_site_label_2
_geom_bond_distance
_geom_bond_site_symmetry_2
K0 O12 2.748120 1_455
K0 O18 2.770029 1_554
K0 O4 2.778597 1_554
K0 O17 2.816593 1_555
K0 O10 2.912378 1_554
K0 O5 2.920434 1_555
K0 O6 2.996737 1_555
K1 O15 2.748120 1_555
K1 O10 2.770029 1_554
K1 O7 2.778597 1_564
K1 O6 2.816593 1_565
K1 O18 2.912378 1_564
K1 O9 2.920434 1_565
K1 O17 2.996737 1_555
K2 O4 2.748120 1_655
K2 O8 2.770029 1_556
K2 O12 2.778597 1_556
K2 O14 2.816593 1_555
K2 O16 2.912378 1_556
K2 O1 2.920434 1_555
K2 O0 2.996737 1_555
K3 O7 2.748120 1_555
K3 O16 2.770029 1_556
K3 O15 2.778597 1_546
K3 O0 2.816593 1_545
K3 O8 2.912378 1_546
K3 O3 2.920434 1_545
K3 O14 2.996737 1_555
Mo0 O12 1.766003 1_565
Mo0 O8 1.766912 1_555
Mo0 O2 1.829904 1_555
Mo0 O5 1.846062 1_655
Mo1 O15 1.766003 1_555
Mo1 O16 1.766912 1_555
Mo1 O13 1.829904 1_555
Mo1 O9 1.846062 1_555
Mo2 O7 1.766003 1_555
Mo2 O10 1.766912 1_555
Mo2 O11 1.829904 1_555
Mo2 O3 1.846062 1_555
Mo3 O4 1.766003 1_545
Mo3 O18 1.766912 1_555
Mo3 O19 1.829904 1_555
Mo3 O1 1.846062 1_455
O0 Sb0 2.004605 1_555
O0 Sb2 2.010763 1_565
O1 Sb2 2.217241 1_555
O2 Sb0 2.252780 1_555
O3 Sb0 2.217241 1_555
O5 Sb1 2.217241 1_555
O6 Sb3 2.004605 1_555
O6 Sb1 2.010763 1_545
O9 Sb3 2.217241 1_555
O11 Sb1 2.252780 1_555
O13 Sb2 2.252780 1_555
O14 Sb2 2.004605 1_555
O14 Sb0 2.010763 1_555
O17 Sb1 2.004605 1_555
O17 Sb3 2.010763 1_555
O19 Sb3 2.252780 1_555
