# generated using pymatgen
data_KLiSO4
_symmetry_space_group_name_H-M   'P 1'
_cell_length_a   5.16844700
_cell_length_b   8.95062600
_cell_length_c   9.10292800
_cell_angle_alpha   90.00000000
_cell_angle_beta   90.00000000
_cell_angle_gamma   90.00000000
_symmetry_Int_Tables_number   1
_chemical_formula_structural   KLiSO4
_chemical_formula_sum   'K4 Li4 S4 O16'
_cell_volume   421.10906022
_cell_formula_units_Z   4
loop_
 _symmetry_equiv_pos_site_id
 _symmetry_equiv_pos_as_xyz
  1  'x, y, z'
loop_
 _atom_site_type_symbol
 _atom_site_label
 _atom_site_symmetry_multiplicity
 _atom_site_fract_x
 _atom_site_fract_y
 _atom_site_fract_z
 _atom_site_occupancy
  K  K0  1  0.73398500  0.99649000  0.71149600  1
  K  K1  1  0.73398500  0.49649000  0.78850400  1
  K  K2  1  0.23398500  0.50351000  0.21149600  1
  K  K3  1  0.23398500  0.00351000  0.28850400  1
  Li  Li0  1  0.71113700  0.34197500  0.38939200  1
  Li  Li1  1  0.71113700  0.84197500  0.11060800  1
  Li  Li2  1  0.21113700  0.65802500  0.61060800  1
  Li  Li3  1  0.21113700  0.15802500  0.88939200  1
  S  S0  1  0.20711200  0.78670800  0.93096500  1
  S  S1  1  0.70711200  0.21329200  0.06903500  1
  S  S2  1  0.70711200  0.71329200  0.43096500  1
  S  S3  1  0.20711200  0.28670800  0.56903500  1
  O  O0  1  0.92925700  0.75105100  0.96075200  1
  O  O1  1  0.85647100  0.22686000  0.92860200  1
  O  O2  1  0.23093300  0.44101800  0.62816400  1
  O  O3  1  0.80880400  0.82131300  0.32099000  1
  O  O4  1  0.42925700  0.74894900  0.46075200  1
  O  O5  1  0.35647100  0.77314000  0.07139800  1
  O  O6  1  0.80880400  0.32131300  0.17901000  1
  O  O7  1  0.23093300  0.94101800  0.87183600  1
  O  O8  1  0.35647100  0.27314000  0.42860200  1
  O  O9  1  0.30880400  0.17868700  0.67901000  1
  O  O10  1  0.85647100  0.72686000  0.57139800  1
  O  O11  1  0.30880400  0.67868700  0.82099000  1
  O  O12  1  0.92925700  0.25105100  0.53924800  1
  O  O13  1  0.42925700  0.24894900  0.03924800  1
  O  O14  1  0.73093300  0.55898200  0.37183600  1
  O  O15  1  0.73093300  0.05898200  0.12816400  1
loop_
_geom_bond_atom_site_label_1
_geom_bond_atom_site_label_2
_geom_bond_distance
_geom_bond_site_symmetry_2
K0 O9 2.752454 1_565
K0 O10 2.802045 1_555
K0 O1 2.925439 1_565
K0 O12 2.944243 1_565
K0 O7 2.995627 1_655
K0 O7 3.022720 1_555
K1 O11 2.752454 1_555
K1 O1 2.802045 1_555
K1 O10 2.925439 1_555
K1 O0 2.944243 1_555
K1 O2 2.995627 1_655
K1 O2 3.022720 1_555
K2 O6 2.752454 1_455
K2 O5 2.802045 1_555
K2 O8 2.925439 1_555
K2 O13 2.944243 1_555
K2 O14 2.995627 1_555
K2 O14 3.022720 1_455
K3 O3 2.752454 1_445
K3 O8 2.802045 1_555
K3 O5 2.925439 1_545
K3 O4 2.944243 1_545
K3 O15 2.995627 1_555
K3 O15 3.022720 1_455
Li0 O12 1.947835 1_555
Li0 O14 1.951596 1_555
Li0 O8 1.966507 1_555
Li0 O6 1.989118 1_555
Li1 O0 1.947835 1_554
Li1 O15 1.951596 1_565
Li1 O5 1.966507 1_555
Li1 O3 1.989118 1_555
Li2 O4 1.947835 1_555
Li2 O2 1.951596 1_555
Li2 O10 1.966507 1_455
Li2 O11 1.989118 1_555
Li3 O13 1.947835 1_556
Li3 O7 1.951596 1_545
Li3 O1 1.966507 1_455
Li3 O9 1.989118 1_555
O0 S0 1.495895 1_655
O1 S1 1.498280 1_556
O2 S3 1.487448 1_555
O3 S2 1.487698 1_555
O4 S2 1.495895 1_555
O5 S0 1.498280 1_554
O6 S1 1.487698 1_555
O7 S0 1.487448 1_555
O8 S3 1.498280 1_555
O9 S3 1.487698 1_555
O10 S2 1.498280 1_555
O11 S0 1.487698 1_555
O12 S3 1.495895 1_655
O13 S1 1.495895 1_555
O14 S2 1.487448 1_555
O15 S1 1.487448 1_555
