# generated using pymatgen
data_Cs2Ge2S5
_symmetry_space_group_name_H-M   'P 1'
_cell_length_a   11.31602457
_cell_length_b   11.31602457
_cell_length_c   9.57354286
_cell_angle_alpha   79.31031049
_cell_angle_beta   79.31031049
_cell_angle_gamma   90.39076557
_symmetry_Int_Tables_number   1
_chemical_formula_structural   Cs2Ge2S5
_chemical_formula_sum   'Cs8 Ge8 S20'
_cell_volume   1182.65643342
_cell_formula_units_Z   4
loop_
 _symmetry_equiv_pos_site_id
 _symmetry_equiv_pos_as_xyz
  1  'x, y, z'
loop_
 _atom_site_type_symbol
 _atom_site_label
 _atom_site_symmetry_multiplicity
 _atom_site_fract_x
 _atom_site_fract_y
 _atom_site_fract_z
 _atom_site_occupancy
  Cs  Cs0  1  0.94108110  0.79333956  0.13737170  1
  Cs  Cs1  1  0.05891890  0.20666044  0.86262830  1
  Cs  Cs2  1  0.48100474  0.21063426  0.86860532  1
  Cs  Cs3  1  0.78936574  0.51899526  0.63139468  1
  Cs  Cs4  1  0.20666044  0.05891890  0.36262830  1
  Cs  Cs5  1  0.79333956  0.94108110  0.63737170  1
  Cs  Cs6  1  0.21063426  0.48100474  0.36860532  1
  Cs  Cs7  1  0.51899526  0.78936574  0.13139468  1
  Ge  Ge0  1  0.14074952  0.73081987  0.61959437  1
  Ge  Ge1  1  0.53017323  0.26532404  0.39428061  1
  Ge  Ge2  1  0.85925048  0.26918013  0.38040563  1
  Ge  Ge3  1  0.26918013  0.85925048  0.88040563  1
  Ge  Ge4  1  0.46982677  0.73467596  0.60571939  1
  Ge  Ge5  1  0.26532404  0.53017323  0.89428061  1
  Ge  Ge6  1  0.73467596  0.46982677  0.10571939  1
  Ge  Ge7  1  0.73081987  0.14074952  0.11959437  1
  S  S0  1  0.54784496  0.11882402  0.25987638  1
  S  S1  1  0.36127999  0.24216466  0.53751725  1
  S  S2  1  0.87896128  0.12103872  0.25000000  1
  S  S3  1  0.75783534  0.63872001  0.96248275  1
  S  S4  1  0.98673741  0.24656552  0.51972841  1
  S  S5  1  0.24379636  0.67712884  0.02655621  1
  S  S6  1  0.55186140  0.44813860  0.25000000  1
  S  S7  1  0.44813860  0.55186140  0.75000000  1
  S  S8  1  0.11882402  0.54784496  0.75987638  1
  S  S9  1  0.32287116  0.75620364  0.47344379  1
  S  S10  1  0.01326259  0.75343448  0.48027159  1
  S  S11  1  0.88117598  0.45215504  0.24012362  1
  S  S12  1  0.24656552  0.98673741  0.01972841  1
  S  S13  1  0.12103872  0.87896128  0.75000000  1
  S  S14  1  0.24216466  0.36127999  0.03751725  1
  S  S15  1  0.75343448  0.01326259  0.98027159  1
  S  S16  1  0.45215504  0.88117598  0.74012362  1
  S  S17  1  0.63872001  0.75783534  0.46248275  1
  S  S18  1  0.75620364  0.32287116  0.97344379  1
  S  S19  1  0.67712884  0.24379636  0.52655621  1
loop_
_geom_bond_atom_site_label_1
_geom_bond_atom_site_label_2
_geom_bond_distance
_geom_bond_site_symmetry_2
Cs0 S10 3.478143 1_655
Cs0 S3 3.534097 1_554
Cs0 S15 3.582263 1_564
Cs0 S5 3.717518 1_655
Cs0 S11 3.826401 1_555
Cs0 S13 3.831091 1_654
Cs0 S12 3.942839 1_655
Cs0 S2 4.079902 1_565
Cs0 S17 4.137914 1_555
Cs1 S4 3.478143 1_455
Cs1 S14 3.534097 1_556
Cs1 S12 3.582263 1_546
Cs1 S18 3.717518 1_455
Cs1 S8 3.826401 1_555
Cs1 S2 3.831091 1_456
Cs1 S15 3.942839 1_455
Cs1 S13 4.079902 1_545
Cs1 S1 4.137914 1_555
Cs2 S14 3.505686 1_556
Cs2 S19 3.553326 1_555
Cs2 S12 3.560192 1_546
Cs2 S1 3.631785 1_555
Cs2 S18 3.727858 1_555
Cs2 S7 3.858399 1_555
Cs2 S0 3.911638 1_556
Cs2 S15 4.008212 1_555
Cs2 S16 4.165607 1_545
Cs3 S17 3.505686 1_555
Cs3 S18 3.553326 1_555
Cs3 S10 3.560192 1_655
Cs3 S3 3.631785 1_555
Cs3 S19 3.727858 1_555
Cs3 S7 3.858399 1_555
Cs3 S11 3.911638 1_555
Cs3 S4 4.008212 1_555
Cs3 S8 4.165607 1_655
Cs4 S12 3.478143 1_545
Cs4 S1 3.534097 1_555
Cs4 S4 3.582263 1_455
Cs4 S9 3.717518 1_545
Cs4 S0 3.826401 1_555
Cs4 S13 3.831091 1_545
Cs4 S10 3.942839 1_545
Cs4 S2 4.079902 1_455
Cs4 S14 4.137914 1_555
Cs5 S15 3.478143 1_565
Cs5 S17 3.534097 1_555
Cs5 S10 3.582263 1_655
Cs5 S19 3.717518 1_565
Cs5 S16 3.826401 1_555
Cs5 S2 3.831091 1_565
Cs5 S4 3.942839 1_565
Cs5 S13 4.079902 1_655
Cs5 S3 4.137914 1_555
Cs6 S1 3.505686 1_555
Cs6 S5 3.553326 1_555
Cs6 S4 3.560192 1_455
Cs6 S14 3.631785 1_555
Cs6 S9 3.727858 1_555
Cs6 S6 3.858399 1_555
Cs6 S8 3.911638 1_555
Cs6 S10 4.008212 1_555
Cs6 S11 4.165607 1_455
Cs7 S3 3.505686 1_554
Cs7 S9 3.553326 1_555
Cs7 S15 3.560192 1_564
Cs7 S17 3.631785 1_555
Cs7 S5 3.727858 1_555
Cs7 S6 3.858399 1_555
Cs7 S16 3.911638 1_554
Cs7 S12 4.008212 1_555
Cs7 S0 4.165607 1_565
Ge0 S10 2.125564 1_555
Ge0 S8 2.233864 1_555
Ge0 S9 2.249572 1_555
Ge0 S13 2.257607 1_555
Ge1 S1 2.118813 1_555
Ge1 S6 2.248346 1_555
Ge1 S19 2.258475 1_555
Ge1 S0 2.268117 1_555
Ge2 S4 2.125564 1_555
Ge2 S11 2.233864 1_555
Ge2 S19 2.249572 1_555
Ge2 S2 2.257607 1_555
Ge3 S12 2.125564 1_556
Ge3 S16 2.233864 1_555
Ge3 S5 2.249572 1_556
Ge3 S13 2.257607 1_555
Ge4 S17 2.118813 1_555
Ge4 S7 2.248346 1_555
Ge4 S9 2.258475 1_555
Ge4 S16 2.268117 1_555
Ge5 S14 2.118813 1_556
Ge5 S7 2.248346 1_555
Ge5 S5 2.258475 1_556
Ge5 S8 2.268117 1_555
Ge6 S3 2.118813 1_554
Ge6 S6 2.248346 1_555
Ge6 S18 2.258475 1_554
Ge6 S11 2.268117 1_555
Ge7 S15 2.125564 1_554
Ge7 S0 2.233864 1_555
Ge7 S18 2.249572 1_554
Ge7 S2 2.257607 1_555
