# generated using pymatgen
data_CaGeO3
_symmetry_space_group_name_H-M   'P 1'
_cell_length_a   10.79928468
_cell_length_b   10.79925874
_cell_length_c   10.79935735
_cell_angle_alpha   109.14424646
_cell_angle_beta   109.14418524
_cell_angle_gamma   110.12656338
_symmetry_Int_Tables_number   1
_chemical_formula_structural   CaGeO3
_chemical_formula_sum   'Ca16 Ge16 O48'
_cell_volume   969.45087859
_cell_formula_units_Z   16
loop_
 _symmetry_equiv_pos_site_id
 _symmetry_equiv_pos_as_xyz
  1  'x, y, z'
loop_
 _atom_site_type_symbol
 _atom_site_label
 _atom_site_symmetry_multiplicity
 _atom_site_fract_x
 _atom_site_fract_y
 _atom_site_fract_z
 _atom_site_occupancy
  Ca  Ca0  1  0.74960959  0.62846187  0.87215952  1
  Ca  Ca1  1  0.25039041  0.37153813  0.12784048  1
  Ca  Ca2  1  0.50000000  0.50000000  0.50000000  1
  Ca  Ca3  1  0.00000000  -0.00000000  0.00000000  1
  Ca  Ca4  1  0.37700183  0.62699384  0.74999864  1
  Ca  Ca5  1  0.12846344  0.75630357  0.87885243  1
  Ca  Ca6  1  0.62299817  0.37300616  0.25000136  1
  Ca  Ca7  1  0.37745069  0.24961622  0.62115397  1
  Ca  Ca8  1  0.12699394  0.87699827  0.24999836  1
  Ca  Ca9  1  0.50000000  -0.00000000  0.50000000  1
  Ca  Ca10  1  0.62254931  0.75038378  0.37884603  1
  Ca  Ca11  1  0.25629289  0.87744454  0.62783511  1
  Ca  Ca12  1  0.87153656  0.24369643  0.12114757  1
  Ca  Ca13  1  0.74370711  0.12255546  0.37216489  1
  Ca  Ca14  1  0.87300606  0.12300173  0.75000164  1
  Ca  Ca15  1  0.50000000  -0.00000000  0.00000000  1
  Ge  Ge0  1  0.88376168  0.74255278  0.61170267  1
  Ge  Ge1  1  0.00000000  0.50000000  0.50000000  1
  Ge  Ge2  1  0.24255152  0.13085144  0.85878525  1
  Ge  Ge3  1  0.22794161  0.61624454  0.35878592  1
  Ge  Ge4  1  0.12499664  0.37500438  0.74999681  1
  Ge  Ge5  1  0.87500336  0.62499562  0.25000319  1
  Ge  Ge6  1  0.77205839  0.38375546  0.64121408  1
  Ge  Ge7  1  0.63084448  0.27204988  0.88829076  1
  Ge  Ge8  1  0.36915552  0.72795012  0.11170924  1
  Ge  Ge9  1  0.37500751  0.12500061  0.25000760  1
  Ge  Ge10  1  0.62499249  0.87499939  0.74999240  1
  Ge  Ge11  1  0.11623832  0.25744722  0.38829733  1
  Ge  Ge12  1  0.00000000  0.50000000  0.00000000  1
  Ge  Ge13  1  0.75744848  0.86914856  0.14121475  1
  Ge  Ge14  1  0.00000000  -0.00000000  0.50000000  1
  Ge  Ge15  1  0.50000000  0.50000000  0.00000000  1
  O  O0  1  0.19972741  0.96532410  0.09896148  1
  O  O1  1  0.99398108  0.18131926  0.60569143  1
  O  O2  1  0.63362661  0.89921988  0.59895934  1
  O  O3  1  0.46532604  0.86636965  0.76560137  1
  O  O4  1  0.64016357  0.23756695  0.03622134  1
  O  O5  1  0.10396169  0.14017038  0.90262991  1
  O  O6  1  0.07562870  0.38828794  0.89430392  1
  O  O7  1  0.03029081  0.69554873  0.61290029  1
  O  O8  1  0.51200641  0.87900366  0.28987565  1
  O  O9  1  0.70133655  0.60396404  0.46378637  1
  O  O10  1  0.96970919  0.30445127  0.38709971  1
  O  O11  1  0.48799359  0.12099634  0.71012435  1
  O  O12  1  0.29866345  0.39603596  0.53621363  1
  O  O13  1  0.59601792  0.68149211  0.99857556  1
  O  O14  1  0.31867028  0.42436841  0.81266403  1
  O  O15  1  0.11170892  0.50600976  0.68733539  1
  O  O16  1  0.68132972  0.57563159  0.18733597  1
  O  O17  1  0.89603831  0.85982962  0.09737009  1
  O  O18  1  0.80027259  0.03467590  0.90103852  1
  O  O19  1  0.18149430  0.68292704  0.08547523  1
  O  O20  1  0.73754209  0.20132638  0.59736671  1
  O  O21  1  0.00601792  0.81868074  0.39430857  1
  O  O22  1  0.62100224  0.41086928  0.63300174  1
  O  O23  1  0.91738524  0.53028511  0.83474379  1
  O  O24  1  0.39923586  0.30027940  0.26559707  1
  O  O25  1  0.81850570  0.31707296  0.91452477  1
  O  O26  1  0.26245791  0.79867362  0.40263329  1
  O  O27  1  0.90255579  0.90398483  0.58548264  1
  O  O28  1  0.08913419  0.22216087  0.21013608  1
  O  O29  1  0.09744421  0.09601517  0.41451736  1
  O  O30  1  0.58263944  0.41738284  0.88708577  1
  O  O31  1  0.37899776  0.58913072  0.36699826  1
  O  O32  1  0.72213696  0.01200608  0.13301103  1
  O  O33  1  0.35983643  0.76243305  0.96377866  1
  O  O34  1  0.91086581  0.77783913  0.78986392  1
  O  O35  1  0.60076414  0.69972060  0.73440293  1
  O  O36  1  0.40398208  0.31850789  0.00142444  1
  O  O37  1  0.81708466  0.40255752  0.49858064  1
  O  O38  1  0.92437130  0.61171206  0.10569608  1
  O  O39  1  0.18291534  0.59744248  0.50141936  1
  O  O40  1  0.80445363  0.91735817  0.33474747  1
  O  O41  1  0.36637339  0.10078012  0.40104066  1
  O  O42  1  0.88829108  0.49399024  0.31266461  1
  O  O43  1  0.53467396  0.13363035  0.23439863  1
  O  O44  1  0.41736056  0.58261716  0.11291423  1
  O  O45  1  0.08261476  0.46971489  0.16525721  1
  O  O46  1  0.19554637  0.08264183  0.66525253  1
  O  O47  1  0.27786304  0.98799392  0.86698897  1
loop_
_geom_bond_atom_site_label_1
_geom_bond_atom_site_label_2
_geom_bond_distance
_geom_bond_site_symmetry_2
Ca0 O35 2.328715 1_555
Ca0 O17 2.330528 1_556
Ca0 O22 2.354123 1_555
Ca0 O30 2.465046 1_555
Ca0 O23 2.468077 1_555
Ca0 O34 2.539091 1_555
Ca0 O13 2.563034 1_555
Ca0 O38 2.714321 1_556
Ca1 O24 2.328715 1_555
Ca1 O5 2.330528 1_554
Ca1 O31 2.354123 1_555
Ca1 O44 2.465046 1_555
Ca1 O45 2.468080 1_555
Ca1 O28 2.539091 1_555
Ca1 O36 2.563034 1_555
Ca1 O6 2.714321 1_554
Ca2 O31 2.288768 1_555
Ca2 O22 2.288768 1_555
Ca2 O24 2.289337 1_555
Ca2 O35 2.289337 1_555
Ca2 O9 2.303641 1_555
Ca2 O12 2.303641 1_555
Ca3 O34 2.288969 1_444
Ca3 O28 2.288969 1_555
Ca3 O0 2.289344 1_545
Ca3 O18 2.289344 1_454
Ca3 O5 2.303558 1_554
Ca3 O17 2.303558 1_445
Ca4 O35 2.352052 1_555
Ca4 O3 2.352196 1_555
Ca4 O33 2.399209 1_555
Ca4 O12 2.399329 1_555
Ca4 O14 2.438303 1_555
Ca4 O15 2.438335 1_555
Ca4 O13 2.643535 1_555
Ca4 O39 2.643636 1_555
Ca5 O0 2.328772 1_556
Ca5 O33 2.330696 1_555
Ca5 O34 2.353968 1_455
Ca5 O23 2.465133 1_455
Ca5 O7 2.468125 1_555
Ca5 O47 2.539215 1_555
Ca5 O19 2.562985 1_556
Ca5 O15 2.714367 1_555
Ca6 O24 2.352052 1_555
Ca6 O43 2.352196 1_555
Ca6 O4 2.399209 1_555
Ca6 O9 2.399329 1_555
Ca6 O16 2.438303 1_555
Ca6 O42 2.438335 1_555
Ca6 O36 2.643535 1_555
Ca6 O37 2.643636 1_555
Ca7 O41 2.328835 1_555
Ca7 O12 2.330443 1_555
Ca7 O11 2.354099 1_555
Ca7 O46 2.465045 1_555
Ca7 O30 2.467965 1_555
Ca7 O22 2.539254 1_555
Ca7 O29 2.563088 1_555
Ca7 O14 2.714289 1_555
Ca8 O0 2.352119 1_555
Ca8 O41 2.352278 1_565
Ca8 O17 2.399357 1_455
Ca8 O26 2.399395 1_555
Ca8 O38 2.438276 1_455
Ca8 O21 2.438278 1_555
Ca8 O29 2.643447 1_565
Ca8 O19 2.643504 1_555
Ca9 O11 2.288730 1_555
Ca9 O8 2.288730 1_545
Ca9 O41 2.289386 1_555
Ca9 O2 2.289386 1_545
Ca9 O26 2.303564 1_545
Ca9 O20 2.303564 1_555
Ca10 O2 2.328835 1_555
Ca10 O9 2.330443 1_555
Ca10 O8 2.354099 1_555
Ca10 O40 2.465045 1_555
Ca10 O44 2.467965 1_555
Ca10 O31 2.539254 1_555
Ca10 O27 2.563088 1_555
Ca10 O16 2.714289 1_555
Ca11 O3 2.328814 1_555
Ca11 O26 2.330470 1_555
Ca11 O47 2.354055 1_555
Ca11 O7 2.464974 1_555
Ca11 O46 2.468035 1_565
Ca11 O11 2.539275 1_565
Ca11 O39 2.563005 1_555
Ca11 O21 2.714244 1_555
Ca12 O18 2.328772 1_554
Ca12 O4 2.330696 1_555
Ca12 O28 2.353968 1_655
Ca12 O45 2.465129 1_655
Ca12 O10 2.468125 1_555
Ca12 O32 2.539215 1_555
Ca12 O25 2.562985 1_554
Ca12 O42 2.714367 1_555
Ca13 O43 2.328814 1_555
Ca13 O20 2.330470 1_555
Ca13 O32 2.354055 1_555
Ca13 O10 2.464974 1_555
Ca13 O40 2.468035 1_545
Ca13 O8 2.539275 1_545
Ca13 O37 2.563005 1_555
Ca13 O1 2.714237 1_555
Ca14 O18 2.352119 1_555
Ca14 O2 2.352278 1_545
Ca14 O5 2.399357 1_655
Ca14 O20 2.399395 1_555
Ca14 O1 2.438271 1_555
Ca14 O6 2.438276 1_655
Ca14 O27 2.643447 1_545
Ca14 O25 2.643504 1_555
Ca15 O47 2.288805 1_544
Ca15 O32 2.288805 1_555
Ca15 O43 2.289312 1_555
Ca15 O3 2.289312 1_544
Ca15 O4 2.303724 1_555
Ca15 O33 2.303724 1_544
Ge0 O34 1.733706 1_555
Ge0 O9 1.735370 1_555
Ge0 O27 1.810690 1_555
Ge0 O7 1.818110 1_655
Ge1 O37 1.883785 1_455
Ge1 O39 1.883785 1_555
Ge1 O7 1.904575 1_555
Ge1 O10 1.904575 1_455
Ge1 O15 1.952360 1_555
Ge1 O42 1.952360 1_455
Ge2 O47 1.733702 1_545
Ge2 O5 1.735384 1_555
Ge2 O36 1.810733 1_556
Ge2 O46 1.818107 1_555
Ge3 O31 1.733666 1_555
Ge3 O26 1.735348 1_555
Ge3 O39 1.810746 1_555
Ge3 O45 1.818101 1_555
Ge4 O15 1.784384 1_555
Ge4 O14 1.784479 1_555
Ge4 O6 1.784504 1_555
Ge4 O1 1.784565 1_455
Ge5 O42 1.784384 1_555
Ge5 O16 1.784479 1_555
Ge5 O38 1.784504 1_555
Ge5 O21 1.784564 1_655
Ge6 O22 1.733666 1_555
Ge6 O20 1.735348 1_555
Ge6 O37 1.810746 1_555
Ge6 O23 1.818107 1_555
Ge7 O11 1.733679 1_555
Ge7 O4 1.735375 1_556
Ge7 O25 1.810732 1_555
Ge7 O30 1.818159 1_555
Ge8 O8 1.733679 1_555
Ge8 O33 1.735375 1_554
Ge8 O19 1.810732 1_555
Ge8 O44 1.818159 1_555
Ge9 O41 1.760754 1_555
Ge9 O43 1.760855 1_555
Ge9 O0 1.760956 1_545
Ge9 O24 1.760980 1_555
Ge10 O2 1.760754 1_555
Ge10 O3 1.760855 1_555
Ge10 O18 1.760956 1_565
Ge10 O35 1.760980 1_555
Ge11 O28 1.733706 1_555
Ge11 O12 1.735370 1_555
Ge11 O29 1.810690 1_555
Ge11 O10 1.818110 1_455
Ge12 O25 1.883845 1_454
Ge12 O19 1.883845 1_555
Ge12 O23 1.904540 1_454
Ge12 O45 1.904549 1_555
Ge12 O6 1.952365 1_554
Ge12 O38 1.952365 1_455
Ge13 O32 1.733702 1_565
Ge13 O17 1.735384 1_555
Ge13 O13 1.810733 1_554
Ge13 O40 1.818107 1_555
Ge14 O29 1.883839 1_555
Ge14 O27 1.883839 1_445
Ge14 O46 1.904566 1_555
Ge14 O40 1.904566 1_445
Ge14 O21 1.952316 1_545
Ge14 O1 1.952322 1_455
Ge15 O13 1.883764 1_554
Ge15 O36 1.883764 1_555
Ge15 O44 1.904623 1_555
Ge15 O30 1.904623 1_554
Ge15 O16 1.952377 1_555
Ge15 O14 1.952377 1_554
