# generated using pymatgen
data_CsPr9Nb(Br5N2)3
_symmetry_space_group_name_H-M   'P 1'
_cell_length_a   12.25557137
_cell_length_b   12.25557137
_cell_length_c   13.92276881
_cell_angle_alpha   90.00000000
_cell_angle_beta   90.00000000
_cell_angle_gamma   120.00000203
_symmetry_Int_Tables_number   1
_chemical_formula_structural   CsPr9Nb(Br5N2)3
_chemical_formula_sum   'Cs2 Pr18 Nb2 Br30 N12'
_cell_volume   1811.02047774
_cell_formula_units_Z   2
loop_
 _symmetry_equiv_pos_site_id
 _symmetry_equiv_pos_as_xyz
  1  'x, y, z'
loop_
 _atom_site_type_symbol
 _atom_site_label
 _atom_site_symmetry_multiplicity
 _atom_site_fract_x
 _atom_site_fract_y
 _atom_site_fract_z
 _atom_site_occupancy
  Cs  Cs0  1  0.00000000  0.00000000  0.25000000  1
  Cs  Cs1  1  0.00000000  0.00000000  0.75000000  1
  Pr  Pr0  1  0.97961079  0.41790904  0.25000000  1
  Pr  Pr1  1  0.72208671  0.18066943  0.06616813  1
  Pr  Pr2  1  0.18066943  0.45858272  0.56616813  1
  Pr  Pr3  1  0.81933057  0.54141728  0.43383187  1
  Pr  Pr4  1  0.27791329  0.81933057  0.93383187  1
  Pr  Pr5  1  0.58209096  0.56170174  0.25000000  1
  Pr  Pr6  1  0.54141728  0.72208671  0.93383187  1
  Pr  Pr7  1  0.54141728  0.72208671  0.56616813  1
  Pr  Pr8  1  0.81933057  0.54141728  0.06616813  1
  Pr  Pr9  1  0.27791329  0.81933057  0.56616813  1
  Pr  Pr10  1  0.45858272  0.27791329  0.43383187  1
  Pr  Pr11  1  0.18066943  0.45858272  0.93383187  1
  Pr  Pr12  1  0.43829826  0.02038921  0.25000000  1
  Pr  Pr13  1  0.56170174  0.97961079  0.75000000  1
  Pr  Pr14  1  0.45858272  0.27791329  0.06616813  1
  Pr  Pr15  1  0.02038921  0.58209096  0.75000000  1
  Pr  Pr16  1  0.41790904  0.43829826  0.75000000  1
  Pr  Pr17  1  0.72208671  0.18066943  0.43383187  1
  Nb  Nb0  1  0.66666700  0.33333300  0.25000000  1
  Nb  Nb1  1  0.33333300  0.66666700  0.75000000  1
  Br  Br0  1  0.13542353  0.61433867  0.09001666  1
  Br  Br1  1  0.05384112  0.32243301  0.75000000  1
  Br  Br2  1  0.86457647  0.38566133  0.59001666  1
  Br  Br3  1  0.76091946  0.01466355  0.59601455  1
  Br  Br4  1  0.67756699  0.73140711  0.75000000  1
  Br  Br5  1  0.01466355  0.25374509  0.09601455  1
  Br  Br6  1  0.98533645  0.74625491  0.90398545  1
  Br  Br7  1  0.61433867  0.47891514  0.59001666  1
  Br  Br8  1  0.73140711  0.05384112  0.25000000  1
  Br  Br9  1  0.32243301  0.26859289  0.25000000  1
  Br  Br10  1  0.86457647  0.38566133  0.90998334  1
  Br  Br11  1  0.98533645  0.74625491  0.59601455  1
  Br  Br12  1  0.38566133  0.52108486  0.09001666  1
  Br  Br13  1  0.26859289  0.94615888  0.75000000  1
  Br  Br14  1  0.13542353  0.61433867  0.40998334  1
  Br  Br15  1  0.94615888  0.67756699  0.25000000  1
  Br  Br16  1  0.23908054  0.98533645  0.09601455  1
  Br  Br17  1  0.01466355  0.25374509  0.40398545  1
  Br  Br18  1  0.25374509  0.23908054  0.59601455  1
  Br  Br19  1  0.52108486  0.13542353  0.59001666  1
  Br  Br20  1  0.61433867  0.47891514  0.90998334  1
  Br  Br21  1  0.74625491  0.76091946  0.09601455  1
  Br  Br22  1  0.23908054  0.98533645  0.40398545  1
  Br  Br23  1  0.38566133  0.52108486  0.40998334  1
  Br  Br24  1  0.47891514  0.86457647  0.09001666  1
  Br  Br25  1  0.76091946  0.01466355  0.90398545  1
  Br  Br26  1  0.25374509  0.23908054  0.90398545  1
  Br  Br27  1  0.47891514  0.86457647  0.40998334  1
  Br  Br28  1  0.74625491  0.76091946  0.40398545  1
  Br  Br29  1  0.52108486  0.13542353  0.90998334  1
  N  N0  1  0.37233518  0.55811796  0.85047700  1
  N  N1  1  0.37233518  0.55811796  0.64952300  1
  N  N2  1  0.44188204  0.81421622  0.85047700  1
  N  N3  1  0.81421622  0.37233518  0.35047700  1
  N  N4  1  0.55811796  0.18578378  0.35047700  1
  N  N5  1  0.55811796  0.18578378  0.14952300  1
  N  N6  1  0.18578378  0.62766482  0.85047700  1
  N  N7  1  0.62766482  0.44188204  0.35047700  1
  N  N8  1  0.81421622  0.37233518  0.14952300  1
  N  N9  1  0.18578378  0.62766482  0.64952300  1
  N  N10  1  0.62766482  0.44188204  0.14952300  1
  N  N11  1  0.44188204  0.81421622  0.64952300  1
loop_
_geom_bond_atom_site_label_1
_geom_bond_atom_site_label_2
_geom_bond_distance
_geom_bond_site_symmetry_2
Br0 Pr4 3.114886 1_554
Br0 Pr11 3.120635 1_554
Br0 Pr0 3.131481 1_455
Br0 Pr8 3.529017 1_455
Br1 Pr2 3.026121 1_555
Br1 Pr11 3.026121 1_555
Br1 Pr15 3.405800 1_555
Br1 Cs1 3.666480 1_555
Br2 Pr17 3.114886 1_555
Br2 Pr3 3.120635 1_555
Br2 Pr15 3.131481 1_655
Br2 Pr2 3.529017 1_655
Br3 Pr13 3.113369 1_545
Br3 Pr17 3.229959 1_555
Br3 Pr7 3.258941 1_545
Br3 Cs1 3.706816 1_655
Br4 Pr6 3.026124 1_555
Br4 Pr7 3.026124 1_555
Br4 Pr16 3.405792 1_555
Br4 Cs1 3.666485 1_665
Br5 Pr0 3.113360 1_455
Br5 Pr11 3.229953 1_554
Br5 Pr1 3.258938 1_455
Br5 Cs0 3.706826 1_555
Br6 Pr15 3.113360 1_655
Br6 Pr8 3.229953 1_556
Br6 Pr4 3.258938 1_655
Br6 Cs1 3.706826 1_665
Br7 Pr3 3.114886 1_555
Br7 Pr10 3.120635 1_555
Br7 Pr16 3.131481 1_555
Br7 Pr7 3.529017 1_555
Br8 Pr17 3.026118 1_555
Br8 Pr1 3.026118 1_555
Br8 Pr12 3.405787 1_555
Br8 Cs0 3.666492 1_655
Br9 Pr14 3.026124 1_555
Br9 Pr10 3.026124 1_555
Br9 Pr5 3.405792 1_555
Br9 Cs0 3.666485 1_555
Br10 Pr1 3.114886 1_556
Br10 Pr8 3.120635 1_556
Br10 Pr15 3.131481 1_655
Br10 Pr11 3.529017 1_655
Br11 Pr15 3.113360 1_655
Br11 Pr3 3.229953 1_555
Br11 Pr9 3.258938 1_655
Br11 Cs1 3.706826 1_665
Br12 Pr11 3.114886 1_554
Br12 Pr6 3.120635 1_554
Br12 Pr5 3.131481 1_555
Br12 Pr14 3.529017 1_555
Br13 Pr9 3.026118 1_555
Br13 Pr4 3.026118 1_555
Br13 Pr13 3.405787 1_555
Br13 Cs1 3.666492 1_565
Br14 Pr9 3.114886 1_555
Br14 Pr2 3.120635 1_555
Br14 Pr0 3.131481 1_455
Br14 Pr3 3.529017 1_455
Br15 Pr8 3.026121 1_555
Br15 Pr3 3.026121 1_555
Br15 Pr0 3.405800 1_555
Br15 Cs0 3.666480 1_665
Br16 Pr12 3.113369 1_565
Br16 Pr4 3.229959 1_554
Br16 Pr14 3.258941 1_565
Br16 Cs0 3.706816 1_565
Br17 Pr0 3.113360 1_455
Br17 Pr2 3.229953 1_555
Br17 Pr17 3.258938 1_455
Br17 Cs0 3.706826 1_555
Br18 Pr16 3.113366 1_555
Br18 Pr10 3.229951 1_555
Br18 Pr2 3.258949 1_555
Br18 Cs1 3.706821 1_555
Br19 Pr10 3.114886 1_555
Br19 Pr17 3.120635 1_555
Br19 Pr13 3.131481 1_545
Br19 Pr9 3.529017 1_545
Br20 Pr8 3.114886 1_556
Br20 Pr14 3.120635 1_556
Br20 Pr16 3.131481 1_555
Br20 Pr6 3.529017 1_555
Br21 Pr5 3.113366 1_555
Br21 Pr6 3.229951 1_554
Br21 Pr8 3.258949 1_555
Br21 Cs0 3.706821 1_665
Br22 Pr12 3.113369 1_565
Br22 Pr9 3.229959 1_555
Br22 Pr10 3.258941 1_565
Br22 Cs0 3.706816 1_565
Br23 Pr2 3.114886 1_555
Br23 Pr7 3.120635 1_555
Br23 Pr5 3.131481 1_555
Br23 Pr10 3.529017 1_555
Br24 Pr6 3.114886 1_554
Br24 Pr4 3.120635 1_554
Br24 Pr12 3.131481 1_565
Br24 Pr1 3.529017 1_565
Br25 Pr13 3.113369 1_545
Br25 Pr1 3.229959 1_556
Br25 Pr6 3.258941 1_545
Br25 Cs1 3.706816 1_655
Br26 Pr16 3.113366 1_555
Br26 Pr14 3.229951 1_556
Br26 Pr11 3.258949 1_555
Br26 Cs1 3.706821 1_555
Br27 Pr7 3.114886 1_555
Br27 Pr9 3.120635 1_555
Br27 Pr12 3.131481 1_565
Br27 Pr17 3.529017 1_565
Br28 Pr5 3.113366 1_555
Br28 Pr7 3.229951 1_555
Br28 Pr3 3.258949 1_555
Br28 Cs0 3.706821 1_665
Br29 Pr14 3.114886 1_556
Br29 Pr1 3.120635 1_556
Br29 Pr13 3.131481 1_545
Br29 Pr4 3.529017 1_545
N0 Nb1 2.142690 1_555
N0 Pr16 2.290303 1_555
N0 Pr11 2.342466 1_555
N0 Pr6 2.348383 1_555
N1 Nb1 2.142690 1_555
N1 Pr16 2.290303 1_555
N1 Pr2 2.342466 1_555
N1 Pr7 2.348383 1_555
N2 Nb1 2.142677 1_555
N2 Pr13 2.290310 1_555
N2 Pr6 2.342457 1_555
N2 Pr4 2.348389 1_555
N3 Nb0 2.142672 1_555
N3 Pr0 2.290312 1_555
N3 Pr17 2.342466 1_555
N3 Pr3 2.348378 1_555
N4 Nb0 2.142677 1_555
N4 Pr12 2.290310 1_555
N4 Pr10 2.342457 1_555
N4 Pr17 2.348389 1_555
N5 Nb0 2.142677 1_555
N5 Pr12 2.290310 1_555
N5 Pr14 2.342457 1_555
N5 Pr1 2.348389 1_555
N6 Nb1 2.142672 1_555
N6 Pr15 2.290312 1_555
N6 Pr4 2.342466 1_555
N6 Pr11 2.348378 1_555
N7 Nb0 2.142690 1_555
N7 Pr5 2.290303 1_555
N7 Pr3 2.342466 1_555
N7 Pr10 2.348383 1_555
N8 Nb0 2.142672 1_555
N8 Pr0 2.290312 1_555
N8 Pr1 2.342466 1_555
N8 Pr8 2.348378 1_555
N9 Nb1 2.142672 1_555
N9 Pr15 2.290312 1_555
N9 Pr9 2.342466 1_555
N9 Pr2 2.348378 1_555
N10 Nb0 2.142690 1_555
N10 Pr5 2.290303 1_555
N10 Pr8 2.342466 1_555
N10 Pr14 2.348383 1_555
N11 Nb1 2.142677 1_555
N11 Pr13 2.290310 1_555
N11 Pr7 2.342457 1_555
N11 Pr9 2.348389 1_555
