# generated using pymatgen
data_Ba9Nb2CN10O
_symmetry_space_group_name_H-M   'P 1'
_cell_length_a   8.10550200
_cell_length_b   9.76640957
_cell_length_c   12.78696910
_cell_angle_alpha   75.92934791
_cell_angle_beta   85.63340274
_cell_angle_gamma   87.79269104
_symmetry_Int_Tables_number   1
_chemical_formula_structural   Ba9Nb2CN10O
_chemical_formula_sum   'Ba18 Nb4 C2 N20 O2'
_cell_volume   978.80760743
_cell_formula_units_Z   2
loop_
 _symmetry_equiv_pos_site_id
 _symmetry_equiv_pos_as_xyz
  1  'x, y, z'
loop_
 _atom_site_type_symbol
 _atom_site_label
 _atom_site_symmetry_multiplicity
 _atom_site_fract_x
 _atom_site_fract_y
 _atom_site_fract_z
 _atom_site_occupancy
  Ba  Ba0  1  0.46876500  0.62054100  0.12786700  1
  Ba  Ba1  1  0.49922200  0.67775000  0.57933700  1
  Ba  Ba2  1  0.01647400  0.07007500  0.72332000  1
  Ba  Ba3  1  0.98352600  0.92992500  0.27668000  1
  Ba  Ba4  1  0.46200100  0.92980700  0.27404900  1
  Ba  Ba5  1  0.01116800  0.38280700  0.89260800  1
  Ba  Ba6  1  0.53123500  0.37945900  0.87213300  1
  Ba  Ba7  1  0.73332600  0.29083900  0.15895500  1
  Ba  Ba8  1  0.25646500  0.01441700  0.00248500  1
  Ba  Ba9  1  0.50077800  0.32225000  0.42066300  1
  Ba  Ba10  1  0.26667400  0.70916100  0.84104500  1
  Ba  Ba11  1  0.53799900  0.07019300  0.72595100  1
  Ba  Ba12  1  0.17220000  0.58091800  0.38242700  1
  Ba  Ba13  1  0.82780000  0.41908200  0.61757300  1
  Ba  Ba14  1  0.96396300  0.76103600  0.61867300  1
  Ba  Ba15  1  0.74353500  0.98558300  0.99751500  1
  Ba  Ba16  1  0.98883200  0.61719300  0.10739200  1
  Ba  Ba17  1  0.03603700  0.23896400  0.38132700  1
  Nb  Nb0  1  0.73011700  0.63503500  0.33650500  1
  Nb  Nb1  1  0.26988300  0.36496500  0.66349500  1
  Nb  Nb2  1  0.73125100  0.70314000  0.87952300  1
  Nb  Nb3  1  0.26874900  0.29686000  0.12047700  1
  C  C0  1  0.26112900  0.93935600  0.53431800  1
  C  C1  1  0.73887100  0.06064400  0.46568200  1
  N  N0  1  0.14546100  0.32639900  0.54624200  1
  N  N1  1  0.80524700  0.45386300  0.30106600  1
  N  N2  1  0.19475300  0.54613700  0.69893400  1
  N  N3  1  0.45792000  0.16935800  0.08405900  1
  N  N4  1  0.54208000  0.83064200  0.91594100  1
  N  N5  1  0.69746900  0.07595600  0.37177300  1
  N  N6  1  0.78617300  0.05486500  0.55694100  1
  N  N7  1  0.21382700  0.94513500  0.44305900  1
  N  N8  1  0.70749600  0.63369000  0.74753100  1
  N  N9  1  0.26205800  0.46817000  0.00156600  1
  N  N10  1  0.94006400  0.80756100  0.87612100  1
  N  N11  1  0.73794200  0.53183000  0.99843400  1
  N  N12  1  0.29250400  0.36631000  0.25246900  1
  N  N13  1  0.50625700  0.36820300  0.62181500  1
  N  N14  1  0.75791100  0.79451300  0.20533800  1
  N  N15  1  0.24208900  0.20548700  0.79466200  1
  N  N16  1  0.05993600  0.19243900  0.12387900  1
  N  N17  1  0.30253100  0.92404400  0.62822700  1
  N  N18  1  0.49374300  0.63179700  0.37818500  1
  N  N19  1  0.85453900  0.67360100  0.45375800  1
  O  O0  1  0.78334600  0.20064800  0.82136200  1
  O  O1  1  0.21665400  0.79935200  0.17863800  1
loop_
_geom_bond_atom_site_label_1
_geom_bond_atom_site_label_2
_geom_bond_distance
_geom_bond_site_symmetry_2
Ba0 O1 2.778735 1_555
Ba0 N11 2.872611 1_554
Ba0 N12 2.957647 1_555
Ba0 N4 3.008664 1_554
Ba0 N9 3.066366 1_555
Ba0 N18 3.251113 1_555
Ba0 N14 3.292369 1_555
Ba1 N18 2.720190 1_555
Ba1 N8 2.776232 1_555
Ba1 N13 2.937821 1_555
Ba1 N2 2.965667 1_555
Ba1 N17 3.000423 1_555
Ba1 C0 3.107690 1_555
Ba1 N19 3.192665 1_555
Ba2 N15 2.636730 1_555
Ba2 O0 2.645663 1_455
Ba2 N10 2.876916 1_445
Ba2 N6 2.968604 1_455
Ba2 N17 3.007961 1_545
Ba2 N0 3.093848 1_555
Ba3 N14 2.636730 1_555
Ba3 O1 2.645663 1_655
Ba3 N16 2.876916 1_665
Ba3 N7 2.968604 1_655
Ba3 N5 3.007961 1_565
Ba3 N19 3.093848 1_555
Ba4 N7 2.865560 1_555
Ba4 N14 2.875785 1_555
Ba4 O1 2.896017 1_555
Ba4 N18 2.901775 1_555
Ba4 N3 2.935851 1_565
Ba4 N5 2.946488 1_565
Ba5 N9 2.810421 1_556
Ba5 N15 2.918730 1_555
Ba5 N2 2.931334 1_555
Ba5 O0 2.949951 1_455
Ba5 N11 3.017777 1_455
Ba5 N16 3.131496 1_556
Ba6 O0 2.778735 1_555
Ba6 N9 2.872611 1_556
Ba6 N8 2.957647 1_555
Ba6 N3 3.008664 1_556
Ba6 N11 3.066366 1_555
Ba6 N13 3.251113 1_555
Ba6 N15 3.292369 1_555
Ba7 N11 2.720308 1_554
Ba7 N1 2.795802 1_555
Ba7 N16 2.822395 1_655
Ba7 N3 2.896553 1_555
Ba7 N5 3.007299 1_555
Ba8 O1 2.688968 1_545
Ba8 N3 2.694694 1_555
Ba8 N15 2.859526 1_554
Ba8 N16 2.948271 1_555
Ba8 N4 3.171920 1_544
Ba9 N13 2.720190 1_555
Ba9 N12 2.776232 1_555
Ba9 N18 2.937821 1_555
Ba9 N1 2.965667 1_555
Ba9 N5 3.000423 1_555
Ba9 C1 3.107690 1_555
Ba9 N0 3.192665 1_555
Ba10 N9 2.720308 1_556
Ba10 N2 2.795802 1_555
Ba10 N10 2.822395 1_455
Ba10 N4 2.896553 1_555
Ba10 N17 3.007299 1_555
Ba11 N6 2.865560 1_555
Ba11 N15 2.875785 1_555
Ba11 O0 2.896017 1_555
Ba11 N13 2.901775 1_555
Ba11 N4 2.935851 1_545
Ba11 N17 2.946488 1_545
Ba12 N18 2.666011 1_555
Ba12 N0 2.837995 1_555
Ba12 N19 2.853978 1_455
Ba12 O1 2.946946 1_555
Ba12 N12 3.065080 1_555
Ba13 N13 2.666011 1_555
Ba13 N19 2.837995 1_555
Ba13 N0 2.853978 1_655
Ba13 O0 2.946946 1_555
Ba13 N8 3.065080 1_555
Ba14 N19 2.679824 1_555
Ba14 N8 2.695233 1_555
Ba14 N2 2.810726 1_655
Ba14 C0 3.002049 1_655
Ba14 N6 3.112549 1_565
Ba14 N7 3.162572 1_655
Ba14 N17 3.250006 1_655
Ba14 N10 3.421192 1_555
Ba15 O0 2.688968 1_565
Ba15 N4 2.694694 1_555
Ba15 N14 2.859526 1_556
Ba15 N10 2.948271 1_555
Ba15 N3 3.171920 1_566
Ba16 N11 2.810421 1_554
Ba16 N14 2.918730 1_555
Ba16 N1 2.931334 1_555
Ba16 O1 2.949951 1_655
Ba16 N9 3.017777 1_655
Ba16 N10 3.131496 1_554
Ba17 N0 2.679824 1_555
Ba17 N12 2.695233 1_555
Ba17 N1 2.810726 1_455
Ba17 C1 3.002049 1_455
Ba17 N7 3.112549 1_545
Ba17 N6 3.162572 1_455
Ba17 N5 3.250006 1_455
Ba17 N16 3.421192 1_555
C0 N7 1.243519 1_555
C0 N17 1.243829 1_555
C1 N6 1.243519 1_555
C1 N5 1.243829 1_555
N0 Nb1 1.985188 1_555
N1 Nb0 1.992942 1_555
N2 Nb1 1.992942 1_555
N3 Nb3 2.035855 1_555
N4 Nb2 2.035855 1_555
N8 Nb2 1.990454 1_555
N9 Nb3 1.970461 1_555
N10 Nb2 2.001692 1_555
N11 Nb2 1.970461 1_555
N12 Nb3 1.990454 1_555
N13 Nb1 1.948542 1_555
N14 Nb0 1.997253 1_555
N15 Nb1 1.997253 1_555
N16 Nb3 2.001692 1_555
N18 Nb0 1.948542 1_555
N19 Nb0 1.985188 1_555
