# generated using pymatgen
data_Ba2Zn3(PO3)10
_symmetry_space_group_name_H-M   'P 1'
_cell_length_a   5.43476500
_cell_length_b   10.89607400
_cell_length_c   22.88097296
_cell_angle_alpha   71.60149651
_cell_angle_beta   90.00000000
_cell_angle_gamma   90.00000000
_symmetry_Int_Tables_number   1
_chemical_formula_structural   Ba2Zn3(PO3)10
_chemical_formula_sum   'Ba4 Zn6 P20 O60'
_cell_volume   1285.69673956
_cell_formula_units_Z   2
loop_
 _symmetry_equiv_pos_site_id
 _symmetry_equiv_pos_as_xyz
  1  'x, y, z'
loop_
 _atom_site_type_symbol
 _atom_site_label
 _atom_site_symmetry_multiplicity
 _atom_site_fract_x
 _atom_site_fract_y
 _atom_site_fract_z
 _atom_site_occupancy
  Ba  Ba0  1  0.50469700  0.38975500  0.42440800  1
  Ba  Ba1  1  0.49530300  0.61024500  0.57559200  1
  Ba  Ba2  1  0.49530300  0.38975500  0.92440800  1
  Ba  Ba3  1  0.50469700  0.61024500  0.07559200  1
  Zn  Zn0  1  0.55074100  0.50000000  0.75000000  1
  Zn  Zn1  1  0.50000000  0.00000000  0.50000000  1
  Zn  Zn2  1  0.44925900  0.50000000  0.25000000  1
  Zn  Zn3  1  0.47156500  0.00000000  0.75000000  1
  Zn  Zn4  1  0.50000000  0.00000000  0.00000000  1
  Zn  Zn5  1  0.52843500  0.00000000  0.25000000  1
  P  P0  1  0.95613700  0.68217400  0.19567800  1
  P  P1  1  0.90639000  0.62898600  0.92565600  1
  P  P2  1  0.77695500  0.72488200  0.79568000  1
  P  P3  1  0.01541300  0.16090000  0.52216900  1
  P  P4  1  0.04386300  0.31782600  0.80432200  1
  P  P5  1  0.98458700  0.16090000  0.02216900  1
  P  P6  1  0.09361000  0.62898600  0.42565600  1
  P  P7  1  0.22304500  0.27511800  0.20432000  1
  P  P8  1  0.01541300  0.83910000  0.97783100  1
  P  P9  1  0.95613700  0.31782600  0.30432200  1
  P  P10  1  0.77695500  0.27511800  0.70432000  1
  P  P11  1  0.98458700  0.83910000  0.47783100  1
  P  P12  1  0.21572600  0.95718000  0.62954300  1
  P  P13  1  0.21572600  0.04282000  0.87045700  1
  P  P14  1  0.04386300  0.68217400  0.69567800  1
  P  P15  1  0.78427400  0.04282000  0.37045700  1
  P  P16  1  0.90639000  0.37101400  0.57434400  1
  P  P17  1  0.09361000  0.37101400  0.07434400  1
  P  P18  1  0.22304500  0.72488200  0.29568000  1
  P  P19  1  0.78427400  0.95718000  0.12954300  1
  O  O0  1  0.34473600  0.39616200  0.04550900  1
  O  O1  1  0.95003200  0.48456700  0.07924800  1
  O  O2  1  0.56240000  0.05529500  0.40720200  1
  O  O3  1  0.99213000  0.04666300  0.08606900  1
  O  O4  1  0.76556600  0.14908700  0.98371000  1
  O  O5  1  0.75290500  0.00563400  0.18340600  1
  O  O6  1  0.60601800  0.39037900  0.69045000  1
  O  O7  1  0.97029200  0.69665900  0.26367000  1
  O  O8  1  0.23767900  0.16817700  0.99482500  1
  O  O9  1  0.24709500  0.00563400  0.68340600  1
  O  O10  1  0.68331100  0.85360300  0.75670700  1
  O  O11  1  0.02970800  0.30334100  0.73633000  1
  O  O12  1  0.31668900  0.14639700  0.24329300  1
  O  O13  1  0.05558200  0.82651200  0.64905800  1
  O  O14  1  0.00787000  0.95333700  0.91393100  1
  O  O15  1  0.75290500  0.99436600  0.31659400  1
  O  O16  1  0.68331100  0.14639700  0.74329300  1
  O  O17  1  0.92534900  0.28936100  0.04098100  1
  O  O18  1  0.76556600  0.85091300  0.51629000  1
  O  O19  1  0.04996800  0.51543300  0.92075200  1
  O  O20  1  0.94441800  0.17348800  0.35094200  1
  O  O21  1  0.34473600  0.60383800  0.45449100  1
  O  O22  1  0.71765400  0.38485600  0.30927100  1
  O  O23  1  0.00787000  0.04666300  0.58606900  1
  O  O24  1  0.88437400  0.26103600  0.64189300  1
  O  O25  1  0.65526400  0.39616200  0.54550900  1
  O  O26  1  0.39398200  0.39037900  0.19045000  1
  O  O27  1  0.43760000  0.05529500  0.90720200  1
  O  O28  1  0.43760000  0.94470500  0.59279800  1
  O  O29  1  0.28234600  0.61514400  0.69072900  1
  O  O30  1  0.60601800  0.60962100  0.80955000  1
  O  O31  1  0.88437400  0.73896400  0.85810700  1
  O  O32  1  0.92534900  0.71063900  0.45901900  1
  O  O33  1  0.76232100  0.16817700  0.49482500  1
  O  O34  1  0.65526400  0.60383800  0.95449100  1
  O  O35  1  0.04996800  0.48456700  0.57924800  1
  O  O36  1  0.07465100  0.28936100  0.54098100  1
  O  O37  1  0.23767900  0.83182300  0.50517500  1
  O  O38  1  0.23443400  0.14908700  0.48371000  1
  O  O39  1  0.19450800  0.62617600  0.18229700  1
  O  O40  1  0.71765400  0.61514400  0.19072900  1
  O  O41  1  0.23443400  0.85091300  0.01629000  1
  O  O42  1  0.19450800  0.37382400  0.31770300  1
  O  O43  1  0.76232100  0.83182300  0.00517500  1
  O  O44  1  0.28234600  0.38485600  0.80927100  1
  O  O45  1  0.02970800  0.69665900  0.76367000  1
  O  O46  1  0.95003200  0.51543300  0.42075200  1
  O  O47  1  0.31668900  0.85360300  0.25670700  1
  O  O48  1  0.11562600  0.73896400  0.35810700  1
  O  O49  1  0.80549200  0.37382400  0.81770300  1
  O  O50  1  0.94441800  0.82651200  0.14905800  1
  O  O51  1  0.99213000  0.95333700  0.41393100  1
  O  O52  1  0.11562600  0.26103600  0.14189300  1
  O  O53  1  0.97029200  0.30334100  0.23633000  1
  O  O54  1  0.56240000  0.94470500  0.09279800  1
  O  O55  1  0.80549200  0.62617600  0.68229700  1
  O  O56  1  0.07465100  0.71063900  0.95901900  1
  O  O57  1  0.05558200  0.17348800  0.85094200  1
  O  O58  1  0.24709500  0.99436600  0.81659400  1
  O  O59  1  0.39398200  0.60962100  0.30955000  1
loop_
_geom_bond_atom_site_label_1
_geom_bond_atom_site_label_2
_geom_bond_distance
_geom_bond_site_symmetry_2
Ba0 O46 2.769069 1_555
Ba0 O21 2.772083 1_555
Ba0 O33 2.815988 1_555
Ba0 O22 2.893344 1_555
Ba0 O25 2.911104 1_555
Ba0 O38 2.937532 1_555
Ba0 O59 3.005612 1_555
Ba0 O42 3.016718 1_555
Ba1 O35 2.769069 1_555
Ba1 O25 2.772083 1_555
Ba1 O37 2.815988 1_555
Ba1 O29 2.893344 1_555
Ba1 O21 2.911104 1_555
Ba1 O18 2.937532 1_555
Ba1 O6 3.005612 1_555
Ba1 O55 3.016718 1_555
Ba2 O19 2.769069 1_555
Ba2 O34 2.772083 1_555
Ba2 O8 2.815988 1_555
Ba2 O44 2.893344 1_555
Ba2 O0 2.911104 1_556
Ba2 O4 2.937532 1_555
Ba2 O30 3.005612 1_555
Ba2 O49 3.016718 1_555
Ba3 O1 2.769069 1_555
Ba3 O0 2.772083 1_555
Ba3 O43 2.815988 1_555
Ba3 O40 2.893344 1_555
Ba3 O34 2.911104 1_554
Ba3 O41 2.937532 1_555
Ba3 O26 3.005612 1_555
Ba3 O39 3.016718 1_555
O0 P17 1.502987 1_555
O1 P17 1.496657 1_655
O2 P15 1.500510 1_555
O2 Zn1 2.044236 1_555
O3 P5 1.593720 1_555
O3 P19 1.613694 1_545
O4 P5 1.509739 1_556
O4 Zn4 2.116289 1_556
O5 P19 1.495809 1_545
O5 Zn5 1.937718 1_555
O6 P10 1.513087 1_555
O6 Zn0 2.097824 1_555
O7 P0 1.614342 1_555
O7 P18 1.630984 1_655
O8 P5 1.502800 1_456
O8 Zn4 2.295099 1_556
O9 P12 1.495809 1_545
O9 Zn3 1.937718 1_555
O10 P2 1.493941 1_555
O10 Zn3 1.933353 1_565
O11 P4 1.614342 1_555
O11 P10 1.630984 1_455
O12 P7 1.493941 1_555
O12 Zn5 1.933353 1_555
O13 P14 1.598864 1_555
O13 P12 1.607074 1_555
O14 P8 1.593720 1_555
O14 P13 1.613694 1_565
O15 P15 1.495809 1_565
O15 Zn5 1.937718 1_565
O16 P10 1.493941 1_555
O16 Zn3 1.933353 1_555
O17 P5 1.621254 1_555
O17 P17 1.624583 1_655
O18 P11 1.509739 1_555
O18 Zn1 2.116289 1_565
O19 P1 1.496657 1_455
O20 P9 1.598864 1_555
O20 P15 1.607074 1_555
O21 P6 1.502987 1_555
O22 P9 1.509415 1_555
O22 Zn2 2.113510 1_555
O23 P3 1.593720 1_555
O23 P12 1.613694 1_545
O24 P10 1.594683 1_555
O24 P16 1.634013 1_555
O25 P16 1.502987 1_555
O26 P7 1.513087 1_555
O26 Zn2 2.097824 1_555
O27 P13 1.500510 1_555
O27 Zn4 2.044236 1_556
O28 P12 1.500510 1_555
O28 Zn1 2.044236 1_565
O29 P14 1.509415 1_555
O29 Zn0 2.113510 1_555
O30 P2 1.513087 1_555
O30 Zn0 2.097824 1_555
O31 P2 1.594683 1_555
O31 P1 1.634013 1_555
O32 P11 1.621254 1_555
O32 P6 1.624583 1_655
O33 P3 1.502800 1_655
O33 Zn1 2.295099 1_555
O34 P1 1.502987 1_555
O35 P16 1.496657 1_455
O36 P3 1.621254 1_555
O36 P16 1.624583 1_455
O37 P11 1.502800 1_455
O37 Zn1 2.295099 1_565
O38 P3 1.509739 1_555
O38 Zn1 2.116289 1_555
O39 P0 1.504079 1_455
O39 Zn2 2.205074 1_555
O40 P0 1.509415 1_555
O40 Zn2 2.113510 1_555
O41 P8 1.509739 1_554
O41 Zn4 2.116289 1_565
O42 P9 1.504079 1_455
O42 Zn2 2.205074 1_555
O43 P8 1.502800 1_654
O43 Zn4 2.295099 1_565
O44 P4 1.509415 1_555
O44 Zn0 2.113510 1_555
O45 P14 1.614342 1_555
O45 P2 1.630984 1_455
O46 P6 1.496657 1_655
O47 P18 1.493941 1_555
O47 Zn5 1.933353 1_565
O48 P18 1.594683 1_555
O48 P6 1.634013 1_555
O49 P4 1.504079 1_655
O49 Zn0 2.205074 1_555
O50 P0 1.598864 1_555
O50 P19 1.607074 1_555
O51 P11 1.593720 1_555
O51 P15 1.613694 1_565
O52 P7 1.594683 1_555
O52 P17 1.634013 1_555
O53 P9 1.614342 1_555
O53 P7 1.630984 1_655
O54 P19 1.500510 1_555
O54 Zn4 2.044236 1_565
O55 P14 1.504079 1_655
O55 Zn0 2.205074 1_555
O56 P8 1.621254 1_555
O56 P1 1.624583 1_455
O57 P4 1.598864 1_555
O57 P13 1.607074 1_555
O58 P13 1.495809 1_565
O58 Zn3 1.937718 1_565
O59 P18 1.513087 1_555
O59 Zn2 2.097824 1_555
