# generated using pymatgen
data_Sr2TmNbO6
_symmetry_space_group_name_H-M   'P 1'
_cell_length_a   5.90626400
_cell_length_b   5.93949000
_cell_length_c   8.35541000
_cell_angle_alpha   90.00000000
_cell_angle_beta   90.00000000
_cell_angle_gamma   90.00000000
_symmetry_Int_Tables_number   1
_chemical_formula_structural   Sr2TmNbO6
_chemical_formula_sum   'Sr4 Tm2 Nb2 O12'
_cell_volume   293.10942017
_cell_formula_units_Z   2
loop_
 _symmetry_equiv_pos_site_id
 _symmetry_equiv_pos_as_xyz
  1  'x, y, z'
loop_
 _atom_site_type_symbol
 _atom_site_label
 _atom_site_symmetry_multiplicity
 _atom_site_fract_x
 _atom_site_fract_y
 _atom_site_fract_z
 _atom_site_occupancy
  Sr  Sr0  1  0.50422000  0.98080200  0.74838100  1
  Sr  Sr1  1  0.00422000  0.51919800  0.24838100  1
  Sr  Sr2  1  0.00422000  0.48080200  0.75161900  1
  Sr  Sr3  1  0.50422000  0.01919800  0.25161900  1
  Tm  Tm0  1  0.00365300  0.00000000  0.50000000  1
  Tm  Tm1  1  0.50365300  0.50000000  0.00000000  1
  Nb  Nb0  1  0.00323900  0.00000000  0.00000000  1
  Nb  Nb1  1  0.50323900  0.50000000  0.50000000  1
  O  O0  1  0.27420800  0.24973200  0.50866100  1
  O  O1  1  0.48192100  0.51339800  0.73968000  1
  O  O2  1  0.77420800  0.25026800  0.00866100  1
  O  O3  1  0.48192100  0.48660200  0.26032000  1
  O  O4  1  0.77420800  0.74973200  0.99133900  1
  O  O5  1  0.27420800  0.75026800  0.49133900  1
  O  O6  1  0.25230500  0.23056900  0.99597400  1
  O  O7  1  0.75230500  0.73056900  0.50402600  1
  O  O8  1  0.98192100  0.01339800  0.76032000  1
  O  O9  1  0.25230500  0.76943100  0.00402600  1
  O  O10  1  0.75230500  0.26943100  0.49597400  1
  O  O11  1  0.98192100  0.98660200  0.23968000  1
loop_
_geom_bond_atom_site_label_1
_geom_bond_atom_site_label_2
_geom_bond_distance
_geom_bond_site_symmetry_2
Nb0 O8 2.008156 1_454
Nb0 O11 2.008156 1_445
Nb0 O6 2.010111 1_554
Nb0 O9 2.010111 1_545
Nb0 O2 2.011133 1_455
Nb0 O4 2.011133 1_444
Nb1 O3 2.008156 1_555
Nb1 O1 2.008156 1_555
Nb1 O10 2.010111 1_555
Nb1 O7 2.010111 1_555
Nb1 O0 2.011133 1_555
Nb1 O5 2.011133 1_555
O0 Tm0 2.181482 1_555
O0 Sr3 2.886692 1_555
O0 Sr0 2.899791 1_545
O0 Sr2 2.923586 1_555
O0 Sr1 3.135906 1_555
O1 Tm1 2.180317 1_556
O1 Sr0 2.780214 1_555
O1 Sr2 2.829822 1_555
O1 Sr2 3.092514 1_655
O1 Sr0 3.166924 1_545
O2 Tm1 2.181482 1_555
O2 Sr2 2.886692 1_654
O2 Sr1 2.899791 1_655
O2 Sr3 2.923586 1_555
O2 Sr0 3.135906 1_544
O3 Tm1 2.180317 1_555
O3 Sr3 2.780214 1_555
O3 Sr1 2.829822 1_555
O3 Sr1 3.092514 1_655
O3 Sr3 3.166924 1_565
O4 Tm1 2.181482 1_556
O4 Sr1 2.886692 1_656
O4 Sr2 2.899791 1_655
O4 Sr0 2.923586 1_555
O4 Sr3 3.135906 1_566
O5 Tm0 2.181482 1_565
O5 Sr0 2.886692 1_555
O5 Sr3 2.899791 1_565
O5 Sr1 2.923586 1_555
O5 Sr2 3.135906 1_555
O6 Tm1 2.183085 1_556
O6 Sr3 2.890064 1_556
O6 Sr2 2.919660 1_555
O6 Sr0 2.948594 1_545
O6 Sr1 3.087646 1_556
O7 Tm0 2.183085 1_665
O7 Sr1 2.890064 1_655
O7 Sr0 2.919660 1_555
O7 Sr2 2.948594 1_655
O7 Sr3 3.087646 1_565
O8 Tm0 2.180317 1_655
O8 Sr2 2.780214 1_655
O8 Sr0 2.829822 1_545
O8 Sr0 3.092514 1_645
O8 Sr2 3.166924 1_645
O9 Tm1 2.183085 1_555
O9 Sr0 2.890064 1_554
O9 Sr1 2.919660 1_555
O9 Sr3 2.948594 1_565
O9 Sr2 3.087646 1_554
O10 Tm0 2.183085 1_655
O10 Sr2 2.890064 1_655
O10 Sr3 2.919660 1_555
O10 Sr1 2.948594 1_655
O10 Sr0 3.087646 1_545
O11 Tm0 2.180317 1_665
O11 Sr1 2.780214 1_655
O11 Sr3 2.829822 1_565
O11 Sr3 3.092514 1_665
O11 Sr1 3.166924 1_665
