# generated using pymatgen
data_Zr2(Ni7B2)3
_symmetry_space_group_name_H-M   'P 1'
_cell_length_a   7.42184051
_cell_length_b   7.42184242
_cell_length_c   7.42184077
_cell_angle_alpha   60.00194033
_cell_angle_beta   60.00193352
_cell_angle_gamma   60.00194127
_symmetry_Int_Tables_number   1
_chemical_formula_structural   Zr2(Ni7B2)3
_chemical_formula_sum   'Zr2 Ni21 B6'
_cell_volume   289.09399279
_cell_formula_units_Z   1
loop_
 _symmetry_equiv_pos_site_id
 _symmetry_equiv_pos_as_xyz
  1  'x, y, z'
loop_
 _atom_site_type_symbol
 _atom_site_label
 _atom_site_symmetry_multiplicity
 _atom_site_fract_x
 _atom_site_fract_y
 _atom_site_fract_z
 _atom_site_occupancy
  Zr  Zr0  1  0.74999404  0.74999188  0.74999406  1
  Zr  Zr1  1  0.25000595  0.25000846  0.25000623  1
  Ni  Ni0  1  -0.00000006  0.00000026  0.00000038  1
  Ni  Ni1  1  0.61415953  0.61415969  0.15753074  1
  Ni  Ni2  1  0.61415958  0.15753000  0.61415919  1
  Ni  Ni3  1  0.15753098  0.61415971  0.61415930  1
  Ni  Ni4  1  0.61415439  0.61415541  0.61415460  1
  Ni  Ni5  1  0.38584029  0.38583974  0.84246963  1
  Ni  Ni6  1  0.38584047  0.84247032  0.38583980  1
  Ni  Ni7  1  0.84246938  0.38583999  0.38584030  1
  Ni  Ni8  1  0.38584562  0.38584415  0.38584563  1
  Ni  Ni9  1  0.00000226  0.00000273  0.33899926  1
  Ni  Ni10  1  0.66100474  0.00000005  0.33899539  1
  Ni  Ni11  1  -0.00000038  0.66100557  0.33899508  1
  Ni  Ni12  1  0.66100489  0.33899446  0.00000062  1
  Ni  Ni13  1  0.00000265  0.33899874  0.00000292  1
  Ni  Ni14  1  0.00000046  0.33899467  0.66100484  1
  Ni  Ni15  1  0.33899521  0.66100529  -0.00000018  1
  Ni  Ni16  1  0.33899535  0.00000019  0.66100453  1
  Ni  Ni17  1  0.33899916  0.00000267  0.00000257  1
  Ni  Ni18  1  -0.00000208  -0.00000220  0.66099987  1
  Ni  Ni19  1  -0.00000240  0.66100051  -0.00000262  1
  Ni  Ni20  1  0.66100004  -0.00000221  -0.00000201  1
  B  B0  1  0.73121350  0.73121264  0.26879198  1
  B  B1  1  0.26878688  0.73120747  0.26878690  1
  B  B2  1  0.73120778  0.26878742  0.26878664  1
  B  B3  1  0.26878662  0.26878738  0.73120772  1
  B  B4  1  0.73121326  0.26879223  0.73121312  1
  B  B5  1  0.26879190  0.73121277  0.73121350  1
loop_
_geom_bond_atom_site_label_1
_geom_bond_atom_site_label_2
_geom_bond_distance
_geom_bond_site_symmetry_2
Ni0 Ni13 2.516013 1_555
Ni0 Ni9 2.516013 1_555
Ni0 Ni17 2.516015 1_555
Ni0 Ni20 2.516021 1_455
Ni0 Ni19 2.516023 1_545
Ni0 Ni18 2.516024 1_554
Ni0 Ni12 2.516038 1_455
Ni0 Ni11 2.516039 1_545
Ni0 Ni14 2.516041 1_554
Ni0 Ni10 2.516041 1_455
Ni0 Ni15 2.516042 1_545
Ni0 Ni16 2.516045 1_554
Ni1 Zr0 2.469695 1_554
Ni2 Zr0 2.469704 1_545
Ni3 Zr0 2.469696 1_455
Ni4 Zr0 2.469471 1_555
Ni5 Zr1 2.469694 1_556
Ni6 Zr1 2.469704 1_565
Ni7 Zr1 2.469694 1_655
Ni8 Zr1 2.469466 1_555
B0 Ni11 2.061802 1_655
B0 Ni10 2.061809 1_565
B0 Ni19 2.061915 1_655
B0 Ni20 2.061918 1_565
B0 Ni1 2.093016 1_555
B0 Ni4 2.093065 1_555
B0 Ni7 2.093125 1_555
B0 Ni6 2.093127 1_555
B1 Ni15 2.061802 1_555
B1 Ni11 2.061802 1_555
B1 Ni17 2.061919 1_565
B1 Ni9 2.061921 1_565
B1 Ni6 2.093023 1_555
B1 Ni8 2.093070 1_555
B1 Ni3 2.093123 1_555
B1 Ni1 2.093125 1_555
B2 Ni12 2.061801 1_555
B2 Ni10 2.061807 1_555
B2 Ni13 2.061914 1_655
B2 Ni9 2.061918 1_655
B2 Ni7 2.093014 1_555
B2 Ni8 2.093063 1_555
B2 Ni1 2.093123 1_555
B2 Ni2 2.093124 1_555
B3 Ni14 2.061801 1_555
B3 Ni16 2.061806 1_555
B3 Ni13 2.061916 1_556
B3 Ni17 2.061919 1_556
B3 Ni5 2.093014 1_555
B3 Ni8 2.093062 1_555
B3 Ni3 2.093123 1_555
B3 Ni2 2.093126 1_555
B4 Ni14 2.061804 1_655
B4 Ni12 2.061805 1_556
B4 Ni18 2.061919 1_655
B4 Ni20 2.061919 1_556
B4 Ni2 2.093026 1_555
B4 Ni4 2.093070 1_555
B4 Ni7 2.093126 1_555
B4 Ni5 2.093127 1_555
B5 Ni15 2.061804 1_556
B5 Ni16 2.061809 1_565
B5 Ni19 2.061914 1_556
B5 Ni18 2.061918 1_565
B5 Ni3 2.093016 1_555
B5 Ni4 2.093065 1_555
B5 Ni5 2.093128 1_555
B5 Ni6 2.093131 1_555
