# generated using pymatgen
data_Ba4Al3Cu2F21
_symmetry_space_group_name_H-M   'P 1'
_cell_length_a   5.38013100
_cell_length_b   7.48108100
_cell_length_c   42.16759800
_cell_angle_alpha   90.00000000
_cell_angle_beta   90.00000000
_cell_angle_gamma   90.00000000
_symmetry_Int_Tables_number   1
_chemical_formula_structural   Ba4Al3Cu2F21
_chemical_formula_sum   'Ba16 Al12 Cu8 F84'
_cell_volume   1697.21190839
_cell_formula_units_Z   4
loop_
 _symmetry_equiv_pos_site_id
 _symmetry_equiv_pos_as_xyz
  1  'x, y, z'
loop_
 _atom_site_type_symbol
 _atom_site_label
 _atom_site_symmetry_multiplicity
 _atom_site_fract_x
 _atom_site_fract_y
 _atom_site_fract_z
 _atom_site_occupancy
  Ba  Ba0  1  0.74783500  0.98709100  0.35121800  1
  Ba  Ba1  1  0.67467700  0.99633700  0.51137500  1
  Ba  Ba2  1  0.25216500  0.48709100  0.14878200  1
  Ba  Ba3  1  0.76432700  0.01744900  0.11989600  1
  Ba  Ba4  1  0.74804100  0.21793700  0.23580700  1
  Ba  Ba5  1  0.23567300  0.51744900  0.38010400  1
  Ba  Ba6  1  0.75195900  0.78206300  0.73580700  1
  Ba  Ba7  1  0.75216500  0.01290900  0.85121800  1
  Ba  Ba8  1  0.24783500  0.51290900  0.64878200  1
  Ba  Ba9  1  0.24804100  0.28206300  0.76419300  1
  Ba  Ba10  1  0.26432700  0.48255100  0.88010400  1
  Ba  Ba11  1  0.73567300  0.98255100  0.61989600  1
  Ba  Ba12  1  0.32532300  0.49633700  0.98862500  1
  Ba  Ba13  1  0.17467700  0.50366300  0.48862500  1
  Ba  Ba14  1  0.25195900  0.71793700  0.26419300  1
  Ba  Ba15  1  0.82532300  0.00366300  0.01137500  1
  Al  Al0  1  0.23584800  0.98963400  0.68030500  1
  Al  Al1  1  0.76073400  0.68860600  0.19981900  1
  Al  Al2  1  0.23926600  0.18860600  0.30018100  1
  Al  Al3  1  0.33350100  0.20853000  0.06049500  1
  Al  Al4  1  0.26415200  0.01036600  0.18030500  1
  Al  Al5  1  0.26073400  0.81139400  0.80018100  1
  Al  Al6  1  0.73926600  0.31139400  0.69981900  1
  Al  Al7  1  0.66649900  0.70853000  0.43950500  1
  Al  Al8  1  0.83350100  0.29147000  0.93950500  1
  Al  Al9  1  0.16649900  0.79147000  0.56049500  1
  Al  Al10  1  0.76415200  0.48963400  0.81969500  1
  Al  Al11  1  0.73584800  0.51036600  0.31969500  1
  Cu  Cu0  1  0.18051900  0.27490800  0.56634600  1
  Cu  Cu1  1  0.68051900  0.22509200  0.43365400  1
  Cu  Cu2  1  0.29961000  0.99065700  0.92527100  1
  Cu  Cu3  1  0.31948100  0.72509200  0.06634600  1
  Cu  Cu4  1  0.81948100  0.77490800  0.93365400  1
  Cu  Cu5  1  0.70039000  0.49065700  0.57472900  1
  Cu  Cu6  1  0.20039000  0.00934300  0.42527100  1
  Cu  Cu7  1  0.79961000  0.50934300  0.07472900  1
  F  F0  1  0.98279800  0.99855100  0.56489400  1
  F  F1  1  0.86091000  0.68331900  0.55045100  1
  F  F2  1  0.46151400  0.18234700  0.68315100  1
  F  F3  1  0.49372900  0.68188600  0.10470100  1
  F  F4  1  0.10868000  0.86467400  0.38989900  1
  F  F5  1  0.26101100  0.92724800  0.83734700  1
  F  F6  1  0.89132000  0.36467400  0.11010100  1
  F  F7  1  0.44677300  0.91515600  0.56778300  1
  F  F8  1  0.46056100  0.35145100  0.31985100  1
  F  F9  1  0.53943900  0.85145100  0.18014900  1
  F  F10  1  0.51505600  0.69223900  0.32412900  1
  F  F11  1  0.18703400  0.84126100  0.51749400  1
  F  F12  1  0.66965600  0.73628100  0.97371400  1
  F  F13  1  0.55322700  0.41515600  0.93221700  1
  F  F14  1  0.39195600  0.26273500  0.10147800  1
  F  F15  1  0.64052900  0.66622800  0.04353800  1
  F  F16  1  0.50047800  0.55905100  0.21373300  1
  F  F17  1  0.22075900  0.98197800  0.72253800  1
  F  F18  1  0.13909000  0.18331900  0.94954900  1
  F  F19  1  0.72075900  0.51802200  0.27746200  1
  F  F20  1  0.96151400  0.31765300  0.31684900  1
  F  F21  1  0.51720200  0.00144900  0.06489400  1
  F  F22  1  0.50781700  0.33356500  0.82199800  1
  F  F23  1  0.03943900  0.64854900  0.81985100  1
  F  F24  1  0.33034400  0.23628100  0.52628600  1
  F  F25  1  0.01828500  0.03363100  0.28357100  1
  F  F26  1  0.51828500  0.46636900  0.71642900  1
  F  F27  1  0.25221700  0.97174200  0.13843600  1
  F  F28  1  0.10804400  0.73726500  0.60147800  1
  F  F29  1  0.48494400  0.19223900  0.17587100  1
  F  F30  1  0.49396400  0.29088400  0.59108300  1
  F  F31  1  0.74778300  0.47174200  0.36156400  1
  F  F32  1  0.26747800  0.66800600  0.76609900  1
  F  F33  1  0.35947100  0.16622800  0.45646200  1
  F  F34  1  0.81973700  0.91885400  0.44804700  1
  F  F35  1  0.63909000  0.31668100  0.05045100  1
  F  F36  1  0.99952200  0.44094900  0.71373300  1
  F  F37  1  0.89195600  0.23726500  0.89852200  1
  F  F38  1  0.23898900  0.07275200  0.33734700  1
  F  F39  1  0.50627100  0.18188600  0.39529900  1
  F  F40  1  0.73898900  0.42724800  0.66265300  1
  F  F41  1  0.01720200  0.49855100  0.93510600  1
  F  F42  1  0.01505600  0.80776100  0.67587100  1
  F  F43  1  0.05322700  0.08484400  0.06778300  1
  F  F44  1  0.27924100  0.01802200  0.22253800  1
  F  F45  1  0.81296600  0.34126100  0.98250600  1
  F  F46  1  0.73252200  0.16800600  0.73390100  1
  F  F47  1  0.18026300  0.41885400  0.05195300  1
  F  F48  1  0.75221700  0.52825800  0.86156400  1
  F  F49  1  0.76747800  0.83199400  0.23390100  1
  F  F50  1  0.68703400  0.65873900  0.48250600  1
  F  F51  1  0.00047800  0.94094900  0.78626700  1
  F  F52  1  0.99396400  0.20911600  0.40891700  1
  F  F53  1  0.39132000  0.13532600  0.88989900  1
  F  F54  1  0.68026300  0.08114600  0.94804700  1
  F  F55  1  0.00603600  0.70911600  0.09108300  1
  F  F56  1  0.00781700  0.16643500  0.17800200  1
  F  F57  1  0.96056100  0.14854900  0.68014900  1
  F  F58  1  0.85947100  0.33377200  0.54353800  1
  F  F59  1  0.76101100  0.57275200  0.16265300  1
  F  F60  1  0.49952200  0.05905100  0.28626700  1
  F  F61  1  0.14052900  0.83377200  0.95646200  1
  F  F62  1  0.36091000  0.81668100  0.44954900  1
  F  F63  1  0.60804400  0.76273500  0.39852200  1
  F  F64  1  0.03848600  0.81765300  0.18315100  1
  F  F65  1  0.99218300  0.66643500  0.32199800  1
  F  F66  1  0.99372900  0.81811400  0.89529900  1
  F  F67  1  0.48279800  0.50144900  0.43510600  1
  F  F68  1  0.00627100  0.31811400  0.60470100  1
  F  F69  1  0.31973700  0.58114600  0.55195300  1
  F  F70  1  0.49218300  0.83356500  0.67800200  1
  F  F71  1  0.77924100  0.48197800  0.77746200  1
  F  F72  1  0.83034400  0.26371900  0.47371400  1
  F  F73  1  0.24778300  0.02825800  0.63843600  1
  F  F74  1  0.98494400  0.30776100  0.82412900  1
  F  F75  1  0.98171500  0.53363100  0.21642900  1
  F  F76  1  0.31296600  0.15873900  0.01749400  1
  F  F77  1  0.94677300  0.58484400  0.43221700  1
  F  F78  1  0.16965600  0.76371900  0.02628600  1
  F  F79  1  0.53848600  0.68234700  0.81684900  1
  F  F80  1  0.48171500  0.96636900  0.78357100  1
  F  F81  1  0.60868000  0.63532600  0.61010100  1
  F  F82  1  0.50603600  0.79088400  0.90891700  1
  F  F83  1  0.23252200  0.33199400  0.26609900  1
loop_
_geom_bond_atom_site_label_1
_geom_bond_atom_site_label_2
_geom_bond_distance
_geom_bond_site_symmetry_2
Ba0 F39 2.695892 1_565
Ba0 F4 2.695952 1_655
Ba0 F63 2.713221 1_555
Ba0 F38 2.781268 1_665
Ba0 F10 2.781881 1_555
Ba0 F38 2.871857 1_565
Ba0 F65 3.000150 1_555
Ba0 F20 3.088287 1_565
Ba0 F60 3.094473 1_565
Ba0 F25 3.221061 1_665
Ba0 F52 3.229865 1_565
Ba1 F24 2.655085 1_565
Ba1 F72 2.687866 1_565
Ba1 F7 2.744081 1_555
Ba1 F0 2.800241 1_555
Ba1 F50 2.804456 1_555
Ba1 F34 2.841843 1_555
Ba1 F11 2.880222 1_555
Ba1 F11 3.001841 1_655
Ba1 F58 3.033205 1_565
Ba1 F1 3.033577 1_555
Ba1 F33 3.138954 1_565
Ba2 F3 2.695892 1_555
Ba2 F6 2.695952 1_455
Ba2 F14 2.713221 1_555
Ba2 F59 2.781268 1_455
Ba2 F29 2.781881 1_555
Ba2 F59 2.871857 1_555
Ba2 F56 3.000150 1_555
Ba2 F64 3.088287 1_555
Ba2 F16 3.094473 1_555
Ba2 F75 3.221061 1_455
Ba2 F55 3.229865 1_555
Ba3 F21 2.676048 1_555
Ba3 F6 2.717541 1_555
Ba3 F43 2.738436 1_655
Ba3 F27 2.760123 1_645
Ba3 F14 2.825605 1_555
Ba3 F27 2.884327 1_545
Ba3 F55 2.913412 1_645
Ba3 F3 2.971873 1_545
Ba3 F56 2.993632 1_655
Ba3 F9 3.075936 1_545
Ba3 F29 3.088752 1_555
Ba4 F60 2.779935 1_555
Ba4 F75 2.797502 1_555
Ba4 F56 2.836056 1_655
Ba4 F25 2.841065 1_655
Ba4 F19 2.854234 1_555
Ba4 F49 2.890282 1_545
Ba4 F29 2.903123 1_555
Ba4 F44 2.985188 1_555
Ba4 F16 3.025329 1_555
Ba4 F83 3.025538 1_655
Ba4 F83 3.170537 1_555
Ba4 F44 3.273769 1_655
Ba5 F67 2.676048 1_555
Ba5 F4 2.717541 1_555
Ba5 F77 2.738436 1_455
Ba5 F31 2.760123 1_455
Ba5 F63 2.825605 1_555
Ba5 F31 2.884327 1_555
Ba5 F52 2.913412 1_455
Ba5 F39 2.971873 1_555
Ba5 F65 2.993632 1_455
Ba5 F8 3.075936 1_555
Ba5 F10 3.088752 1_555
Ba6 F51 2.779935 1_655
Ba6 F26 2.797502 1_555
Ba6 F70 2.836056 1_555
Ba6 F80 2.841065 1_555
Ba6 F71 2.854234 1_555
Ba6 F46 2.890282 1_565
Ba6 F42 2.903123 1_655
Ba6 F17 2.985188 1_655
Ba6 F36 3.025329 1_555
Ba6 F32 3.025538 1_555
Ba6 F32 3.170537 1_655
Ba6 F17 3.273769 1_555
Ba7 F66 2.695892 1_545
Ba7 F53 2.695952 1_555
Ba7 F37 2.713221 1_555
Ba7 F5 2.781268 1_545
Ba7 F74 2.781881 1_555
Ba7 F5 2.871857 1_645
Ba7 F22 3.000150 1_555
Ba7 F79 3.088287 1_545
Ba7 F51 3.094473 1_645
Ba7 F80 3.221061 1_545
Ba7 F82 3.229865 1_545
Ba8 F68 2.695892 1_555
Ba8 F81 2.695952 1_555
Ba8 F28 2.713221 1_555
Ba8 F40 2.781268 1_555
Ba8 F42 2.781881 1_555
Ba8 F40 2.871857 1_455
Ba8 F70 3.000150 1_555
Ba8 F2 3.088287 1_555
Ba8 F36 3.094473 1_455
Ba8 F26 3.221061 1_555
Ba8 F30 3.229865 1_555
Ba9 F36 2.779935 1_455
Ba9 F80 2.797502 1_545
Ba9 F22 2.836056 1_555
Ba9 F26 2.841065 1_555
Ba9 F17 2.854234 1_545
Ba9 F32 2.890282 1_555
Ba9 F74 2.903123 1_455
Ba9 F71 2.985188 1_455
Ba9 F51 3.025329 1_545
Ba9 F46 3.025538 1_555
Ba9 F46 3.170537 1_455
Ba9 F71 3.273769 1_555
Ba10 F41 2.676048 1_555
Ba10 F53 2.717541 1_555
Ba10 F13 2.738436 1_555
Ba10 F48 2.760123 1_555
Ba10 F37 2.825605 1_455
Ba10 F48 2.884327 1_455
Ba10 F82 2.913412 1_555
Ba10 F66 2.971873 1_455
Ba10 F22 2.993632 1_555
Ba10 F23 3.075936 1_555
Ba10 F74 3.088752 1_455
Ba11 F0 2.676048 1_555
Ba11 F81 2.717541 1_555
Ba11 F7 2.738436 1_555
Ba11 F73 2.760123 1_565
Ba11 F28 2.825605 1_655
Ba11 F73 2.884327 1_665
Ba11 F30 2.913412 1_565
Ba11 F68 2.971873 1_665
Ba11 F70 2.993632 1_555
Ba11 F57 3.075936 1_565
Ba11 F42 3.088752 1_655
Ba12 F12 2.655085 1_555
Ba12 F78 2.687866 1_556
Ba12 F13 2.744081 1_555
Ba12 F41 2.800241 1_555
Ba12 F76 2.804456 1_556
Ba12 F47 2.841843 1_556
Ba12 F45 2.880222 1_555
Ba12 F45 3.001841 1_455
Ba12 F61 3.033205 1_555
Ba12 F18 3.033577 1_555
Ba12 F15 3.138954 1_556
Ba13 F72 2.655085 1_455
Ba13 F24 2.687866 1_555
Ba13 F77 2.744081 1_455
Ba13 F67 2.800241 1_555
Ba13 F11 2.804456 1_555
Ba13 F69 2.841843 1_555
Ba13 F50 2.880222 1_455
Ba13 F50 3.001841 1_555
Ba13 F33 3.033205 1_555
Ba13 F62 3.033577 1_555
Ba13 F58 3.138954 1_455
Ba14 F16 2.779935 1_555
Ba14 F25 2.797502 1_565
Ba14 F65 2.836056 1_455
Ba14 F75 2.841065 1_455
Ba14 F44 2.854234 1_565
Ba14 F83 2.890282 1_555
Ba14 F10 2.903123 1_555
Ba14 F19 2.985188 1_555
Ba14 F60 3.025329 1_565
Ba14 F49 3.025538 1_455
Ba14 F49 3.170537 1_555
Ba14 F19 3.273769 1_455
Ba15 F78 2.655085 1_645
Ba15 F12 2.687866 1_544
Ba15 F43 2.744081 1_655
Ba15 F21 2.800241 1_555
Ba15 F45 2.804456 1_554
Ba15 F54 2.841843 1_554
Ba15 F76 2.880222 1_655
Ba15 F76 3.001841 1_555
Ba15 F15 3.033205 1_545
Ba15 F35 3.033577 1_555
Ba15 F61 3.138954 1_644
Al0 F17 1.783633 1_555
Al0 F73 1.790156 1_565
Al0 F70 1.809585 1_555
Al0 F42 1.815844 1_555
Al0 F2 1.888644 1_565
Al0 F57 1.899216 1_465
Al1 F59 1.790897 1_555
Al1 F49 1.793715 1_555
Al1 F16 1.801167 1_555
Al1 F75 1.802284 1_555
Al1 F9 1.894633 1_555
Al1 F64 1.912871 1_655
Al2 F38 1.790897 1_555
Al2 F83 1.793715 1_555
Al2 F60 1.801167 1_555
Al2 F25 1.802284 1_555
Al2 F8 1.894633 1_555
Al2 F20 1.912871 1_455
Al3 F43 1.795669 1_555
Al3 F14 1.802738 1_555
Al3 F47 1.812510 1_555
Al3 F21 1.846945 1_555
Al3 F76 1.854407 1_555
Al3 F35 1.880716 1_555
Al4 F44 1.783633 1_555
Al4 F27 1.790156 1_545
Al4 F56 1.809585 1_555
Al4 F29 1.815844 1_555
Al4 F64 1.888644 1_545
Al4 F9 1.899216 1_545
Al5 F5 1.790897 1_555
Al5 F32 1.793715 1_555
Al5 F51 1.801167 1_555
Al5 F80 1.802284 1_555
Al5 F23 1.894633 1_555
Al5 F79 1.912871 1_555
Al6 F40 1.790897 1_555
Al6 F46 1.793715 1_555
Al6 F36 1.801167 1_555
Al6 F26 1.802284 1_555
Al6 F57 1.894633 1_555
Al6 F2 1.912871 1_555
Al7 F77 1.795669 1_555
Al7 F63 1.802738 1_555
Al7 F34 1.812510 1_555
Al7 F67 1.846945 1_555
Al7 F50 1.854407 1_555
Al7 F62 1.880716 1_555
Al8 F13 1.795669 1_555
Al8 F37 1.802738 1_555
Al8 F54 1.812510 1_555
Al8 F41 1.846945 1_655
Al8 F45 1.854407 1_555
Al8 F18 1.880716 1_655
Al9 F7 1.795669 1_555
Al9 F28 1.802738 1_555
Al9 F69 1.812510 1_555
Al9 F0 1.846945 1_455
Al9 F11 1.854407 1_555
Al9 F1 1.880716 1_455
Al10 F71 1.783633 1_555
Al10 F48 1.790156 1_555
Al10 F22 1.809585 1_555
Al10 F74 1.815844 1_555
Al10 F79 1.888644 1_555
Al10 F23 1.899216 1_655
Al11 F19 1.783633 1_555
Al11 F31 1.790156 1_555
Al11 F65 1.809585 1_555
Al11 F10 1.815844 1_555
Al11 F20 1.888644 1_555
Al11 F8 1.899216 1_555
Cu0 F24 1.893879 1_555
Cu0 F68 1.897135 1_555
Cu0 F30 1.986505 1_555
Cu0 F58 2.025438 1_455
Cu0 F0 2.325874 1_445
Cu0 F69 2.485560 1_555
Cu1 F72 1.893879 1_555
Cu1 F39 1.897135 1_555
Cu1 F52 1.986505 1_555
Cu1 F33 2.025438 1_555
Cu1 F67 2.325874 1_555
Cu1 F34 2.485560 1_545
Cu2 F53 1.907751 1_565
Cu2 F61 1.959568 1_555
Cu2 F18 1.967560 1_565
Cu2 F82 1.985592 1_555
Cu2 F54 2.361103 1_565
Cu2 F66 2.443718 1_455
Cu3 F78 1.893879 1_555
Cu3 F3 1.897135 1_555
Cu3 F55 1.986505 1_555
Cu3 F15 2.025438 1_555
Cu3 F21 2.325874 1_565
Cu3 F47 2.485560 1_555
Cu4 F12 1.893879 1_555
Cu4 F66 1.897135 1_555
Cu4 F82 1.986505 1_555
Cu4 F61 2.025438 1_655
Cu4 F41 2.325874 1_655
Cu4 F54 2.485560 1_565
Cu5 F81 1.907751 1_555
Cu5 F58 1.959568 1_555
Cu5 F1 1.967560 1_555
Cu5 F30 1.985592 1_555
Cu5 F69 2.361103 1_555
Cu5 F68 2.443718 1_655
Cu6 F4 1.907751 1_545
Cu6 F33 1.959568 1_555
Cu6 F62 1.967560 1_545
Cu6 F52 1.985592 1_455
Cu6 F34 2.361103 1_445
Cu6 F39 2.443718 1_555
Cu7 F6 1.907751 1_555
Cu7 F15 1.959568 1_555
Cu7 F35 1.967560 1_555
Cu7 F55 1.985592 1_655
Cu7 F47 2.361103 1_655
Cu7 F3 2.443718 1_555
