# generated using pymatgen
data_Rb2NaCoF6
_symmetry_space_group_name_H-M   'P 1'
_cell_length_a   5.98634480
_cell_length_b   5.98634480
_cell_length_c   5.98634480
_cell_angle_alpha   60.00000000
_cell_angle_beta   60.00000000
_cell_angle_gamma   60.00000000
_symmetry_Int_Tables_number   1
_chemical_formula_structural   Rb2NaCoF6
_chemical_formula_sum   'Rb2 Na1 Co1 F6'
_cell_volume   151.69462203
_cell_formula_units_Z   1
loop_
 _symmetry_equiv_pos_site_id
 _symmetry_equiv_pos_as_xyz
  1  'x, y, z'
loop_
 _atom_site_type_symbol
 _atom_site_label
 _atom_site_symmetry_multiplicity
 _atom_site_fract_x
 _atom_site_fract_y
 _atom_site_fract_z
 _atom_site_occupancy
  Rb  Rb0  1  0.75000000  0.75000000  0.75000000  1
  Rb  Rb1  1  0.25000000  0.25000000  0.25000000  1
  Na  Na0  1  0.50000000  0.50000000  0.50000000  1
  Co  Co0  1  0.00000000  0.00000000  0.00000000  1
  F  F0  1  0.22284700  0.22284700  0.77715300  1
  F  F1  1  0.77715300  0.22284700  0.77715300  1
  F  F2  1  0.22284700  0.77715300  0.22284700  1
  F  F3  1  0.22284700  0.77715300  0.77715300  1
  F  F4  1  0.77715300  0.77715300  0.22284700  1
  F  F5  1  0.77715300  0.22284700  0.22284700  1
loop_
_geom_bond_atom_site_label_1
_geom_bond_atom_site_label_2
_geom_bond_distance
_geom_bond_site_symmetry_2
Co0 F2 1.886616 1_545
Co0 F5 1.886616 1_455
Co0 F0 1.886616 1_554
Co0 F1 1.886616 1_454
Co0 F3 1.886616 1_544
Co0 F4 1.886616 1_445
F0 Na0 2.346369 1_555
F0 Rb0 3.001987 1_545
F0 Rb1 3.001987 1_556
F0 Rb0 3.001987 1_455
F0 Rb1 3.001987 1_555
F1 Na0 2.346369 1_555
F1 Rb0 3.001987 1_545
F1 Rb1 3.001987 1_556
F1 Rb1 3.001987 1_655
F1 Rb0 3.001987 1_555
F2 Na0 2.346369 1_555
F2 Rb1 3.001987 1_565
F2 Rb0 3.001987 1_455
F2 Rb0 3.001987 1_554
F2 Rb1 3.001987 1_555
F3 Na0 2.346369 1_555
F3 Rb1 3.001987 1_565
F3 Rb1 3.001987 1_556
F3 Rb0 3.001987 1_455
F3 Rb0 3.001987 1_555
F4 Na0 2.346369 1_555
F4 Rb1 3.001987 1_565
F4 Rb1 3.001987 1_655
F4 Rb0 3.001987 1_555
F4 Rb0 3.001987 1_554
F5 Na0 2.346369 1_555
F5 Rb0 3.001987 1_545
F5 Rb1 3.001987 1_655
F5 Rb0 3.001987 1_554
F5 Rb1 3.001987 1_555
