# generated using pymatgen
data_La3(NiO3)2
_symmetry_space_group_name_H-M   'P 1'
_cell_length_a   10.08335035
_cell_length_b   10.08335035
_cell_length_c   10.08335035
_cell_angle_alpha   157.15987715
_cell_angle_beta   157.15987715
_cell_angle_gamma   32.52220887
_symmetry_Int_Tables_number   1
_chemical_formula_structural   La3(NiO3)2
_chemical_formula_sum   'La3 Ni2 O6'
_cell_volume   154.33933937
_cell_formula_units_Z   1
loop_
 _symmetry_equiv_pos_site_id
 _symmetry_equiv_pos_as_xyz
  1  'x, y, z'
loop_
 _atom_site_type_symbol
 _atom_site_label
 _atom_site_symmetry_multiplicity
 _atom_site_fract_x
 _atom_site_fract_y
 _atom_site_fract_z
 _atom_site_occupancy
  La  La0  1  0.31594000  0.31594000  0.00000000  1
  La  La1  1  0.50000000  0.50000000  0.00000000  1
  La  La2  1  0.68406000  0.68406000  0.00000000  1
  Ni  Ni0  1  0.91747700  0.91747700  0.00000000  1
  Ni  Ni1  1  0.08252300  0.08252300  0.00000000  1
  O  O0  1  0.08306500  0.58306500  0.50000000  1
  O  O1  1  0.41693500  0.91693500  0.50000000  1
  O  O2  1  0.91693500  0.41693500  0.50000000  1
  O  O3  1  0.58306500  0.08306500  0.50000000  1
  O  O4  1  0.75000000  0.25000000  0.50000000  1
  O  O5  1  0.25000000  0.75000000  0.50000000  1
loop_
_geom_bond_atom_site_label_1
_geom_bond_atom_site_label_2
_geom_bond_distance
_geom_bond_site_symmetry_2
La0 O4 2.369756 1_454
La0 O4 2.369756 1_555
La0 O5 2.369756 1_555
La0 O5 2.369756 1_544
La0 O2 2.794473 1_555
La0 O1 2.794473 1_555
La0 O1 2.794473 1_544
La0 O2 2.794473 1_454
La1 O3 2.563619 1_554
La1 O0 2.563619 1_554
La1 O0 2.563619 1_655
La1 O3 2.563619 1_565
La1 O2 2.563619 1_555
La1 O1 2.563619 1_555
La1 O1 2.563619 1_544
La1 O2 2.563619 1_454
La2 O5 2.369756 1_655
La2 O4 2.369756 1_554
La2 O5 2.369756 1_554
La2 O4 2.369756 1_565
La2 O0 2.794473 1_554
La2 O3 2.794473 1_554
La2 O0 2.794473 1_655
La2 O3 2.794473 1_565
Ni0 O1 1.996537 1_554
Ni0 O2 1.996537 1_554
Ni0 O2 1.996537 1_565
Ni0 O1 1.996537 1_655
Ni1 O0 1.996537 1_555
Ni1 O3 1.996537 1_555
Ni1 O0 1.996537 1_544
Ni1 O3 1.996537 1_454
