# generated using pymatgen
data_Rb2HgPSe5
_symmetry_space_group_name_H-M   'P 1'
_cell_length_a   18.06491700
_cell_length_b   18.06491700
_cell_length_c   7.37690300
_cell_angle_alpha   90.00000000
_cell_angle_beta   90.00000000
_cell_angle_gamma   90.00000000
_symmetry_Int_Tables_number   1
_chemical_formula_structural   Rb2HgPSe5
_chemical_formula_sum   'Rb16 Hg8 P8 Se40'
_cell_volume   2407.38757070
_cell_formula_units_Z   8
loop_
 _symmetry_equiv_pos_site_id
 _symmetry_equiv_pos_as_xyz
  1  'x, y, z'
loop_
 _atom_site_type_symbol
 _atom_site_label
 _atom_site_symmetry_multiplicity
 _atom_site_fract_x
 _atom_site_fract_y
 _atom_site_fract_z
 _atom_site_occupancy
  Rb  Rb0  1  0.14732600  0.17349500  0.02182000  1
  Rb  Rb1  1  0.41165500  0.12131900  0.98535300  1
  Rb  Rb2  1  0.64732600  0.67349500  0.47818000  1
  Rb  Rb3  1  0.62131900  0.08834500  0.48535300  1
  Rb  Rb4  1  0.82650500  0.14732600  0.97818000  1
  Rb  Rb5  1  0.08834500  0.37868100  0.51464700  1
  Rb  Rb6  1  0.35267400  0.32650500  0.47818000  1
  Rb  Rb7  1  0.58834500  0.87868100  0.98535300  1
  Rb  Rb8  1  0.87868100  0.41165500  0.01464700  1
  Rb  Rb9  1  0.37868100  0.91165500  0.48535300  1
  Rb  Rb10  1  0.67349500  0.35267400  0.52182000  1
  Rb  Rb11  1  0.91165500  0.62131900  0.51464700  1
  Rb  Rb12  1  0.85267400  0.82650500  0.02182000  1
  Rb  Rb13  1  0.12131900  0.58834500  0.01464700  1
  Rb  Rb14  1  0.17349500  0.85267400  0.97818000  1
  Rb  Rb15  1  0.32650500  0.64732600  0.52182000  1
  Hg  Hg0  1  0.13016300  0.93779000  0.47418600  1
  Hg  Hg1  1  0.86983700  0.06221000  0.47418600  1
  Hg  Hg2  1  0.56221000  0.63016300  0.97418600  1
  Hg  Hg3  1  0.43779000  0.36983700  0.97418600  1
  Hg  Hg4  1  0.63016300  0.43779000  0.02581400  1
  Hg  Hg5  1  0.93779000  0.86983700  0.52581400  1
  Hg  Hg6  1  0.36983700  0.56221000  0.02581400  1
  Hg  Hg7  1  0.06221000  0.13016300  0.52581400  1
  P  P0  1  0.73178400  0.90608400  0.51875300  1
  P  P1  1  0.26821600  0.09391600  0.51875300  1
  P  P2  1  0.09391600  0.73178400  0.48124700  1
  P  P3  1  0.40608400  0.76821600  0.01875300  1
  P  P4  1  0.76821600  0.59391600  0.98124700  1
  P  P5  1  0.23178400  0.40608400  0.98124700  1
  P  P6  1  0.59391600  0.23178400  0.01875300  1
  P  P7  1  0.90608400  0.26821600  0.48124700  1
  Se  Se0  1  0.26611100  0.48029800  0.21150100  1
  Se  Se1  1  0.69639600  0.30429500  0.00525200  1
  Se  Se2  1  0.80360400  0.19570500  0.49474800  1
  Se  Se3  1  0.43272900  0.48952700  0.74005900  1
  Se  Se4  1  0.98952700  0.06727100  0.24005900  1
  Se  Se5  1  0.23388900  0.01970200  0.28849900  1
  Se  Se6  1  0.48952700  0.56727100  0.25994100  1
  Se  Se7  1  0.75384100  0.53781600  0.71780900  1
  Se  Se8  1  0.37175200  0.88376900  0.97205500  1
  Se  Se9  1  0.56727100  0.51047300  0.74005900  1
  Se  Se10  1  0.11623100  0.37175200  0.02794500  1
  Se  Se11  1  0.03781600  0.74615900  0.21780900  1
  Se  Se12  1  0.51970200  0.26611100  0.78849900  1
  Se  Se13  1  0.96218400  0.25384100  0.21780900  1
  Se  Se14  1  0.01970200  0.76611100  0.71150100  1
  Se  Se15  1  0.01047300  0.93272900  0.24005900  1
  Se  Se16  1  0.06727100  0.01047300  0.75994100  1
  Se  Se17  1  0.24615900  0.46218400  0.71780900  1
  Se  Se18  1  0.80429500  0.80360400  0.50525200  1
  Se  Se19  1  0.88376900  0.62824800  0.02794500  1
  Se  Se20  1  0.12824800  0.61623100  0.52794500  1
  Se  Se21  1  0.62824800  0.11623100  0.97205500  1
  Se  Se22  1  0.53781600  0.24615900  0.28219100  1
  Se  Se23  1  0.51047300  0.43272900  0.25994100  1
  Se  Se24  1  0.48029800  0.73388900  0.78849900  1
  Se  Se25  1  0.74615900  0.96218400  0.78219100  1
  Se  Se26  1  0.25384100  0.03781600  0.78219100  1
  Se  Se27  1  0.98029800  0.23388900  0.71150100  1
  Se  Se28  1  0.19639600  0.80429500  0.49474800  1
  Se  Se29  1  0.69570500  0.69639600  0.99474800  1
  Se  Se30  1  0.46218400  0.75384100  0.28219100  1
  Se  Se31  1  0.38376900  0.12824800  0.47205500  1
  Se  Se32  1  0.19570500  0.19639600  0.50525200  1
  Se  Se33  1  0.93272900  0.98952700  0.75994100  1
  Se  Se34  1  0.61623100  0.87175200  0.47205500  1
  Se  Se35  1  0.73388900  0.51970200  0.21150100  1
  Se  Se36  1  0.30360400  0.69570500  0.00525200  1
  Se  Se37  1  0.76611100  0.98029800  0.28849900  1
  Se  Se38  1  0.87175200  0.38376900  0.52794500  1
  Se  Se39  1  0.30429500  0.30360400  0.99474800  1
loop_
_geom_bond_atom_site_label_1
_geom_bond_atom_site_label_2
_geom_bond_distance
_geom_bond_site_symmetry_2
Rb0 Se26 3.582578 1_554
Rb0 Se10 3.625561 1_555
Rb0 Se39 3.688511 1_554
Rb0 Se32 3.694992 1_555
Rb0 Se5 3.746221 1_555
Rb0 Se4 3.794762 1_455
Rb0 Se16 3.807417 1_554
Rb0 Se13 3.922140 1_455
Rb0 Se32 3.931435 1_554
Rb0 Se27 3.941459 1_454
Rb1 Se26 3.556576 1_555
Rb1 Se12 3.572145 1_555
Rb1 Se31 3.627682 1_556
Rb1 Se31 3.821963 1_555
Rb1 Se39 3.822287 1_555
Rb1 Se22 3.882687 1_556
Rb1 Se21 3.915043 1_555
Rb2 Se7 3.582578 1_555
Rb2 Se34 3.625561 1_555
Rb2 Se18 3.688511 1_555
Rb2 Se29 3.694992 1_554
Rb2 Se35 3.746221 1_555
Rb2 Se6 3.794762 1_555
Rb2 Se9 3.807417 1_555
Rb2 Se30 3.922140 1_555
Rb2 Se29 3.931435 1_555
Rb2 Se24 3.941459 1_555
Rb3 Se22 3.556576 1_555
Rb3 Se37 3.572145 1_545
Rb3 Se21 3.627682 1_555
Rb3 Se21 3.821963 1_554
Rb3 Se2 3.822287 1_555
Rb3 Se25 3.882687 1_545
Rb3 Se34 3.915043 1_545
Rb4 Se13 3.582578 1_556
Rb4 Se21 3.625561 1_555
Rb4 Se1 3.688511 1_556
Rb4 Se2 3.694992 1_555
Rb4 Se27 3.746221 1_555
Rb4 Se33 3.794762 1_545
Rb4 Se4 3.807417 1_556
Rb4 Se25 3.922140 1_545
Rb4 Se2 3.931435 1_556
Rb4 Se37 3.941459 1_546
Rb5 Se17 3.556576 1_555
Rb5 Se27 3.572145 1_455
Rb5 Se10 3.627682 1_555
Rb5 Se10 3.821963 1_556
Rb5 Se32 3.822287 1_555
Rb5 Se13 3.882687 1_455
Rb5 Se38 3.915043 1_455
Rb6 Se17 3.582578 1_555
Rb6 Se31 3.625561 1_555
Rb6 Se32 3.688511 1_555
Rb6 Se39 3.694992 1_554
Rb6 Se0 3.746221 1_555
Rb6 Se23 3.794762 1_555
Rb6 Se3 3.807417 1_555
Rb6 Se22 3.922140 1_555
Rb6 Se39 3.931435 1_555
Rb6 Se12 3.941459 1_555
Rb7 Se25 3.556576 1_555
Rb7 Se24 3.572145 1_555
Rb7 Se34 3.627682 1_556
Rb7 Se34 3.821963 1_555
Rb7 Se29 3.822287 1_555
Rb7 Se30 3.882687 1_556
Rb7 Se8 3.915043 1_555
Rb8 Se13 3.556576 1_555
Rb8 Se35 3.572145 1_555
Rb8 Se38 3.627682 1_554
Rb8 Se38 3.821963 1_555
Rb8 Se1 3.822287 1_555
Rb8 Se7 3.882687 1_554
Rb8 Se19 3.915043 1_555
Rb9 Se30 3.556576 1_555
Rb9 Se5 3.572145 1_565
Rb9 Se8 3.627682 1_555
Rb9 Se8 3.821963 1_554
Rb9 Se28 3.822287 1_555
Rb9 Se26 3.882687 1_565
Rb9 Se31 3.915043 1_565
Rb10 Se22 3.582578 1_555
Rb10 Se38 3.625561 1_555
Rb10 Se2 3.688511 1_555
Rb10 Se1 3.694992 1_556
Rb10 Se12 3.746221 1_555
Rb10 Se9 3.794762 1_555
Rb10 Se23 3.807417 1_555
Rb10 Se7 3.922140 1_555
Rb10 Se1 3.931435 1_555
Rb10 Se35 3.941459 1_555
Rb11 Se7 3.556576 1_555
Rb11 Se14 3.572145 1_655
Rb11 Se19 3.627682 1_555
Rb11 Se19 3.821963 1_556
Rb11 Se18 3.822287 1_555
Rb11 Se11 3.882687 1_655
Rb11 Se20 3.915043 1_655
Rb12 Se25 3.582578 1_554
Rb12 Se19 3.625561 1_555
Rb12 Se29 3.688511 1_554
Rb12 Se18 3.694992 1_555
Rb12 Se37 3.746221 1_555
Rb12 Se15 3.794762 1_655
Rb12 Se33 3.807417 1_554
Rb12 Se11 3.922140 1_655
Rb12 Se18 3.931435 1_554
Rb12 Se14 3.941459 1_654
Rb13 Se11 3.556576 1_555
Rb13 Se0 3.572145 1_555
Rb13 Se20 3.627682 1_554
Rb13 Se20 3.821963 1_555
Rb13 Se36 3.822287 1_555
Rb13 Se17 3.882687 1_554
Rb13 Se10 3.915043 1_555
Rb14 Se11 3.582578 1_556
Rb14 Se8 3.625561 1_555
Rb14 Se36 3.688511 1_556
Rb14 Se28 3.694992 1_555
Rb14 Se14 3.746221 1_555
Rb14 Se16 3.794762 1_565
Rb14 Se15 3.807417 1_556
Rb14 Se26 3.922140 1_565
Rb14 Se28 3.931435 1_556
Rb14 Se5 3.941459 1_566
Rb15 Se30 3.582578 1_555
Rb15 Se20 3.625561 1_555
Rb15 Se28 3.688511 1_555
Rb15 Se36 3.694992 1_556
Rb15 Se24 3.746221 1_555
Rb15 Se3 3.794762 1_555
Rb15 Se6 3.807417 1_555
Rb15 Se17 3.922140 1_555
Rb15 Se36 3.931435 1_555
Rb15 Se0 3.941459 1_555
Hg0 Se28 2.696350 1_555
Hg0 Se16 2.731011 1_565
Hg0 Se5 2.752650 1_565
Hg0 Se15 2.768828 1_555
Hg1 Se2 2.696350 1_555
Hg1 Se33 2.731011 1_545
Hg1 Se37 2.752650 1_545
Hg1 Se4 2.768828 1_555
Hg2 Se29 2.696350 1_555
Hg2 Se6 2.731011 1_556
Hg2 Se24 2.752650 1_555
Hg2 Se9 2.768828 1_555
Hg3 Se39 2.696350 1_555
Hg3 Se23 2.731011 1_556
Hg3 Se12 2.752650 1_555
Hg3 Se3 2.768828 1_555
Hg4 Se1 2.696350 1_555
Hg4 Se9 2.731011 1_554
Hg4 Se35 2.752650 1_555
Hg4 Se23 2.768828 1_555
Hg5 Se18 2.696350 1_555
Hg5 Se15 2.731011 1_655
Hg5 Se14 2.752650 1_655
Hg5 Se33 2.768828 1_555
Hg6 Se36 2.696350 1_555
Hg6 Se3 2.731011 1_554
Hg6 Se0 2.752650 1_555
Hg6 Se6 2.768828 1_555
Hg7 Se32 2.696350 1_555
Hg7 Se4 2.731011 1_455
Hg7 Se27 2.752650 1_455
Hg7 Se16 2.768828 1_555
P0 Se34 2.204721 1_555
P0 Se25 2.207065 1_555
P0 Se37 2.251010 1_555
P0 Se18 2.270034 1_555
P1 Se31 2.204721 1_555
P1 Se26 2.207065 1_555
P1 Se5 2.251010 1_555
P1 Se32 2.270034 1_555
P2 Se20 2.204721 1_555
P2 Se11 2.207065 1_555
P2 Se14 2.251010 1_555
P2 Se28 2.270034 1_555
P3 Se8 2.204721 1_554
P3 Se30 2.207065 1_555
P3 Se24 2.251010 1_554
P3 Se36 2.270034 1_555
P4 Se19 2.204721 1_556
P4 Se7 2.207065 1_555
P4 Se35 2.251010 1_556
P4 Se29 2.270034 1_555
P5 Se10 2.204721 1_556
P5 Se17 2.207065 1_555
P5 Se0 2.251010 1_556
P5 Se39 2.270034 1_555
P6 Se21 2.204721 1_554
P6 Se22 2.207065 1_555
P6 Se12 2.251010 1_554
P6 Se1 2.270034 1_555
P7 Se38 2.204721 1_555
P7 Se13 2.207065 1_555
P7 Se27 2.251010 1_555
P7 Se2 2.270034 1_555
Se3 Se9 2.459768 1_555
Se15 Se4 2.459768 1_465
Se16 Se33 2.459768 1_445
Se23 Se6 2.459768 1_555
