# generated using pymatgen
data_USb2Ru
_symmetry_space_group_name_H-M   'P 1'
_cell_length_a   4.39753058
_cell_length_b   4.39753058
_cell_length_c   9.47986370
_cell_angle_alpha   90.00000000
_cell_angle_beta   90.00000000
_cell_angle_gamma   90.00000000
_symmetry_Int_Tables_number   1
_chemical_formula_structural   USb2Ru
_chemical_formula_sum   'U2 Sb4 Ru2'
_cell_volume   183.32421311
_cell_formula_units_Z   2
loop_
 _symmetry_equiv_pos_site_id
 _symmetry_equiv_pos_as_xyz
  1  'x, y, z'
loop_
 _atom_site_type_symbol
 _atom_site_label
 _atom_site_symmetry_multiplicity
 _atom_site_fract_x
 _atom_site_fract_y
 _atom_site_fract_z
 _atom_site_occupancy
  U  U0  1  0.50000000  -0.00000000  0.26340002  1
  U  U1  1  -0.00000000  0.50000000  0.73659998  1
  Sb  Sb0  1  -0.00000000  0.00000000  0.00000000  1
  Sb  Sb1  1  0.50000000  0.50000000  0.00000000  1
  Sb  Sb2  1  0.50000000  0.00000000  0.65767284  1
  Sb  Sb3  1  -0.00000000  0.50000000  0.34232716  1
  Ru  Ru0  1  -0.00000000  -0.00000000  0.50000000  1
  Ru  Ru1  1  0.50000000  0.50000000  0.50000000  1
loop_
_geom_bond_atom_site_label_1
_geom_bond_atom_site_label_2
_geom_bond_distance
_geom_bond_site_symmetry_2
Sb0 Sb1 3.109524 1_555
Sb0 Sb1 3.109524 1_455
Sb0 Sb1 3.109524 1_445
Sb0 Sb1 3.109524 1_545
Sb0 U1 3.327095 1_544
Sb0 U1 3.327095 1_554
Sb0 U0 3.327095 1_455
Sb0 U0 3.327095 1_555
Sb1 U1 3.327095 1_554
Sb1 U1 3.327095 1_654
Sb1 U0 3.327095 1_565
Sb1 U0 3.327095 1_555
Sb2 U1 3.198276 1_655
Sb2 U1 3.198276 1_645
Sb2 U1 3.198276 1_545
Sb2 U1 3.198276 1_555
Sb3 U0 3.198276 1_465
Sb3 U0 3.198276 1_555
Sb3 U0 3.198276 1_565
Sb3 U0 3.198276 1_455
Ru0 Sb3 2.658712 1_555
Ru0 Sb3 2.658712 1_545
Ru0 Sb2 2.658712 1_455
Ru0 Sb2 2.658712 1_555
Ru0 U0 3.140912 1_555
Ru0 U1 3.140912 1_545
Ru0 U1 3.140912 1_555
Ru0 U0 3.140912 1_455
Ru1 Sb3 2.658712 1_655
Ru1 Sb3 2.658712 1_555
Ru1 Sb2 2.658712 1_555
Ru1 Sb2 2.658712 1_565
Ru1 U0 3.140912 1_555
Ru1 U1 3.140912 1_555
Ru1 U0 3.140912 1_565
Ru1 U1 3.140912 1_655
