# generated using pymatgen
data_K2PbO2
_symmetry_space_group_name_H-M   'P 1'
_cell_length_a   7.32732357
_cell_length_b   7.51094697
_cell_length_c   9.97597018
_cell_angle_alpha   84.71945142
_cell_angle_beta   69.92506192
_cell_angle_gamma   61.17031928
_symmetry_Int_Tables_number   1
_chemical_formula_structural   K2PbO2
_chemical_formula_sum   'K8 Pb4 O8'
_cell_volume   449.95322655
_cell_formula_units_Z   4
loop_
 _symmetry_equiv_pos_site_id
 _symmetry_equiv_pos_as_xyz
  1  'x, y, z'
loop_
 _atom_site_type_symbol
 _atom_site_label
 _atom_site_symmetry_multiplicity
 _atom_site_fract_x
 _atom_site_fract_y
 _atom_site_fract_z
 _atom_site_occupancy
  K  K0  1  0.23523924  0.27301760  0.49434242  1
  K  K1  1  0.07846970  0.92807600  0.17356197  1
  K  K2  1  0.93328008  0.54819777  0.83178448  1
  K  K3  1  0.92153030  0.07192400  0.82643803  1
  K  K4  1  0.60366032  0.43145404  0.13812103  1
  K  K5  1  0.06671992  0.45180223  0.16821552  1
  K  K6  1  0.39633968  0.56854596  0.86187897  1
  K  K7  1  0.76476076  0.72698240  0.50565758  1
  Pb  Pb0  1  0.59956959  0.93909863  0.13381370  1
  Pb  Pb1  1  0.29760733  0.71775177  0.47463383  1
  Pb  Pb2  1  0.70239267  0.28224823  0.52536617  1
  Pb  Pb3  1  0.40043041  0.06090137  0.86618630  1
  O  O0  1  0.49924248  0.79783973  0.00637160  1
  O  O1  1  0.81035515  0.39957602  0.65095648  1
  O  O2  1  0.94299334  0.78236715  0.01514631  1
  O  O3  1  0.50075752  0.20216027  0.99362840  1
  O  O4  1  0.05700666  0.21763285  0.98485369  1
  O  O5  1  0.18964485  0.60042398  0.34904352  1
  O  O6  1  0.66390851  0.51895815  0.36888850  1
  O  O7  1  0.33609149  0.48104185  0.63111150  1
loop_
_geom_bond_atom_site_label_1
_geom_bond_atom_site_label_2
_geom_bond_distance
_geom_bond_site_symmetry_2
K0 O7 2.654631 1_555
K0 O1 2.667793 1_455
K0 O5 2.672826 1_555
K1 O0 2.665703 1_555
K1 O2 2.669028 1_455
K1 O4 2.723684 1_564
K1 O5 2.834995 1_555
K2 O2 2.692001 1_556
K2 O4 2.720281 1_655
K2 O7 2.769000 1_655
K2 O0 2.776906 1_556
K2 O1 2.786993 1_555
K3 O3 2.665703 1_555
K3 O4 2.669028 1_655
K3 O2 2.723684 1_546
K3 O1 2.834995 1_555
K4 O6 2.680046 1_555
K4 O5 2.763595 1_555
K4 O4 2.787786 1_654
K4 O0 2.807106 1_555
K4 O3 2.840376 1_554
K5 O4 2.692001 1_554
K5 O2 2.720281 1_455
K5 O6 2.769000 1_455
K5 O3 2.776906 1_554
K5 O5 2.786993 1_555
K6 O7 2.680046 1_555
K6 O1 2.763595 1_555
K6 O2 2.787786 1_456
K6 O3 2.807106 1_555
K6 O0 2.840376 1_556
K7 O6 2.654631 1_555
K7 O5 2.667793 1_655
K7 O1 2.672826 1_555
O0 Pb0 2.219136 1_555
O0 Pb3 2.278326 1_564
O1 Pb2 2.127925 1_555
O2 Pb0 2.115182 1_555
O3 Pb3 2.219136 1_555
O3 Pb0 2.278326 1_546
O4 Pb3 2.115182 1_555
O5 Pb1 2.127925 1_555
O6 Pb2 2.232735 1_555
O6 Pb1 2.242184 1_555
O7 Pb1 2.232735 1_555
O7 Pb2 2.242184 1_555
