# generated using pymatgen
data_CdCu2
_symmetry_space_group_name_H-M   'P 1'
_cell_length_a   5.00165549
_cell_length_b   5.00165495
_cell_length_c   15.90301274
_cell_angle_alpha   90.00000000
_cell_angle_beta   90.00000000
_cell_angle_gamma   120.00000363
_symmetry_Int_Tables_number   1
_chemical_formula_structural   CdCu2
_chemical_formula_sum   'Cd8 Cu16'
_cell_volume   344.53831467
_cell_formula_units_Z   8
loop_
 _symmetry_equiv_pos_site_id
 _symmetry_equiv_pos_as_xyz
  1  'x, y, z'
loop_
 _atom_site_type_symbol
 _atom_site_label
 _atom_site_symmetry_multiplicity
 _atom_site_fract_x
 _atom_site_fract_y
 _atom_site_fract_z
 _atom_site_occupancy
  Cd  Cd0  1  0.33333300  0.66666700  0.84439452  1
  Cd  Cd1  1  -0.00000000  -0.00000000  0.59433856  1
  Cd  Cd2  1  0.66666700  0.33333300  0.15560548  1
  Cd  Cd3  1  -0.00000000  -0.00000000  0.40566144  1
  Cd  Cd4  1  -0.00000000  -0.00000000  0.90566144  1
  Cd  Cd5  1  -0.00000000  -0.00000000  0.09433856  1
  Cd  Cd6  1  0.33333300  0.66666700  0.65560548  1
  Cd  Cd7  1  0.66666700  0.33333300  0.34439452  1
  Cu  Cu0  1  0.83544867  0.67089634  0.75000000  1
  Cu  Cu1  1  0.16455133  0.32910366  0.25000000  1
  Cu  Cu2  1  0.16455133  0.83544867  0.25000000  1
  Cu  Cu3  1  0.66666700  0.33333300  0.87475848  1
  Cu  Cu4  1  0.50000000  -0.00000000  0.50000000  1
  Cu  Cu5  1  0.66666700  0.33333300  0.62524152  1
  Cu  Cu6  1  0.32910366  0.16455133  0.75000000  1
  Cu  Cu7  1  -0.00000000  0.50000000  0.50000000  1
  Cu  Cu8  1  0.50000000  0.50000000  0.50000000  1
  Cu  Cu9  1  0.83544867  0.16455133  0.75000000  1
  Cu  Cu10  1  0.33333300  0.66666700  0.37475848  1
  Cu  Cu11  1  0.67089634  0.83544867  0.25000000  1
  Cu  Cu12  1  -0.00000000  0.50000000  0.00000000  1
  Cu  Cu13  1  0.50000000  0.50000000  0.00000000  1
  Cu  Cu14  1  0.33333300  0.66666700  0.12524152  1
  Cu  Cu15  1  0.50000000  -0.00000000  0.00000000  1
loop_
_geom_bond_atom_site_label_1
_geom_bond_atom_site_label_2
_geom_bond_distance
_geom_bond_site_symmetry_2
Cd0 Cu15 2.865019 1_566
Cd0 Cu12 2.865019 1_556
Cd0 Cu13 2.865021 1_556
Cd0 Cu6 2.916834 1_565
Cd0 Cu0 2.916834 1_455
Cd0 Cu9 2.916839 1_455
Cd0 Cu9 2.916839 1_565
Cd0 Cu6 2.916843 1_555
Cd0 Cu0 2.916843 1_555
Cd0 Cu3 2.927799 1_565
Cd0 Cu3 2.927799 1_455
Cd0 Cu3 2.927808 1_555
Cd0 Cd6 3.002315 1_555
Cd0 Cd4 3.047647 1_565
Cd0 Cd4 3.047651 1_555
Cd0 Cd4 3.047651 1_665
Cd1 Cu9 2.856599 1_455
Cd1 Cu0 2.856602 1_445
Cd1 Cu6 2.856602 1_555
Cd1 Cu8 2.916323 1_555
Cd1 Cu8 2.916323 1_445
Cd1 Cu7 2.916323 1_545
Cd1 Cu7 2.916323 1_555
Cd1 Cu4 2.916323 1_555
Cd1 Cu4 2.916323 1_455
Cd1 Cu5 2.929225 1_455
Cd1 Cu5 2.929229 1_445
Cd1 Cu5 2.929229 1_555
Cd1 Cd3 3.000535 1_555
Cd1 Cd6 3.047647 1_545
Cd1 Cd6 3.047651 1_555
Cd1 Cd6 3.047651 1_445
Cd2 Cu15 2.865019 1_555
Cd2 Cu12 2.865019 1_655
Cd2 Cu13 2.865021 1_555
Cd2 Cu11 2.916834 1_545
Cd2 Cu1 2.916834 1_655
Cd2 Cu2 2.916839 1_655
Cd2 Cu2 2.916839 1_545
Cd2 Cu11 2.916843 1_555
Cd2 Cu1 2.916843 1_555
Cd2 Cu14 2.927799 1_545
Cd2 Cu14 2.927799 1_655
Cd2 Cu14 2.927808 1_555
Cd2 Cd7 3.002315 1_555
Cd2 Cd5 3.047647 1_655
Cd2 Cd5 3.047651 1_665
Cd2 Cd5 3.047651 1_555
Cd3 Cu2 2.856599 1_545
Cd3 Cu1 2.856602 1_555
Cd3 Cu11 2.856602 1_445
Cd3 Cu8 2.916323 1_555
Cd3 Cu8 2.916323 1_445
Cd3 Cu7 2.916323 1_545
Cd3 Cu7 2.916323 1_555
Cd3 Cu4 2.916323 1_455
Cd3 Cu4 2.916323 1_555
Cd3 Cu10 2.929225 1_545
Cd3 Cu10 2.929229 1_555
Cd3 Cu10 2.929229 1_445
Cd3 Cd7 3.047647 1_455
Cd3 Cd7 3.047651 1_445
Cd3 Cd7 3.047651 1_555
Cd4 Cu9 2.856599 1_455
Cd4 Cu0 2.856602 1_445
Cd4 Cu6 2.856602 1_555
Cd4 Cu13 2.916323 1_556
Cd4 Cu13 2.916323 1_446
Cd4 Cu12 2.916323 1_556
Cd4 Cu12 2.916323 1_546
Cd4 Cu15 2.916323 1_456
Cd4 Cu15 2.916323 1_556
Cd4 Cu3 2.929225 1_455
Cd4 Cu3 2.929229 1_445
Cd4 Cu3 2.929229 1_555
Cd4 Cd5 3.000535 1_556
Cd5 Cu2 2.856599 1_545
Cd5 Cu1 2.856602 1_555
Cd5 Cu11 2.856602 1_445
Cd5 Cu13 2.916323 1_445
Cd5 Cu13 2.916323 1_555
Cd5 Cu12 2.916323 1_555
Cd5 Cu12 2.916323 1_545
Cd5 Cu15 2.916323 1_555
Cd5 Cu15 2.916323 1_455
Cd5 Cu14 2.929225 1_545
Cd5 Cu14 2.929229 1_555
Cd5 Cu14 2.929229 1_445
Cd6 Cu4 2.865019 1_565
Cd6 Cu7 2.865019 1_555
Cd6 Cu8 2.865021 1_555
Cd6 Cu6 2.916834 1_565
Cd6 Cu0 2.916834 1_455
Cd6 Cu9 2.916839 1_455
Cd6 Cu9 2.916839 1_565
Cd6 Cu6 2.916843 1_555
Cd6 Cu0 2.916843 1_555
Cd6 Cu5 2.927799 1_565
Cd6 Cu5 2.927799 1_455
Cd6 Cu5 2.927808 1_555
Cd7 Cu4 2.865019 1_555
Cd7 Cu7 2.865019 1_655
Cd7 Cu8 2.865021 1_555
Cd7 Cu11 2.916834 1_545
Cd7 Cu1 2.916834 1_655
Cd7 Cu2 2.916839 1_655
Cd7 Cu2 2.916839 1_545
Cd7 Cu11 2.916843 1_555
Cd7 Cu1 2.916843 1_555
Cd7 Cu10 2.927799 1_545
Cd7 Cu10 2.927799 1_655
Cd7 Cu10 2.927808 1_555
Cu0 Cu3 2.464621 1_555
Cu0 Cu5 2.464621 1_555
Cu0 Cu6 2.469092 1_665
Cu0 Cu9 2.469092 1_565
Cu0 Cu6 2.532563 1_555
Cu0 Cu9 2.532563 1_555
Cu1 Cu10 2.464621 1_555
Cu1 Cu14 2.464621 1_555
Cu1 Cu11 2.469092 1_445
Cu1 Cu2 2.469092 1_545
Cu1 Cu11 2.532563 1_555
Cu1 Cu2 2.532563 1_555
Cu3 Cu6 2.464621 1_555
Cu3 Cu9 2.464621 1_555
Cu4 Cu5 2.460010 1_555
Cu4 Cu7 2.500827 1_545
Cu4 Cu7 2.500827 1_655
Cu4 Cu8 2.500827 1_545
Cu4 Cu8 2.500827 1_555
Cu5 Cu7 2.460010 1_655
Cu5 Cu8 2.460012 1_555
Cu5 Cu6 2.464621 1_555
Cu5 Cu9 2.464621 1_555
Cu6 Cu9 2.469092 1_455
Cu6 Cu9 2.532563 1_555
Cu7 Cu8 2.500828 1_555
Cu7 Cu8 2.500828 1_455
Cu10 Cu4 2.460010 1_565
Cu10 Cu7 2.460010 1_555
Cu10 Cu8 2.460012 1_555
Cu10 Cu11 2.464621 1_555
Cu10 Cu2 2.464621 1_555
Cu11 Cu14 2.464621 1_555
Cu11 Cu2 2.469092 1_655
Cu11 Cu2 2.532563 1_555
Cu12 Cu3 2.460010 1_454
Cu12 Cu14 2.460010 1_555
Cu12 Cu15 2.500827 1_565
Cu12 Cu15 2.500827 1_455
Cu12 Cu13 2.500828 1_555
Cu12 Cu13 2.500828 1_455
Cu13 Cu14 2.460012 1_555
Cu13 Cu3 2.460012 1_554
Cu13 Cu15 2.500827 1_555
Cu13 Cu15 2.500827 1_565
Cu14 Cu15 2.460010 1_565
Cu14 Cu2 2.464621 1_555
Cu15 Cu3 2.460010 1_554
