# generated using pymatgen
data_CaCrF6
_symmetry_space_group_name_H-M   'P 1'
_cell_length_a   5.62734267
_cell_length_b   5.63348116
_cell_length_c   5.64093538
_cell_angle_alpha   55.45328682
_cell_angle_beta   55.45487642
_cell_angle_gamma   55.37584750
_symmetry_Int_Tables_number   1
_chemical_formula_structural   CaCrF6
_chemical_formula_sum   'Ca1 Cr1 F6'
_cell_volume   113.02192671
_cell_formula_units_Z   1
loop_
 _symmetry_equiv_pos_site_id
 _symmetry_equiv_pos_as_xyz
  1  'x, y, z'
loop_
 _atom_site_type_symbol
 _atom_site_label
 _atom_site_symmetry_multiplicity
 _atom_site_fract_x
 _atom_site_fract_y
 _atom_site_fract_z
 _atom_site_occupancy
  Ca  Ca0  1  0.50000000  0.50000000  0.50000000  1
  Cr  Cr0  1  -0.00000000  0.00000000  0.00000000  1
  F  F0  1  0.35285796  0.08538102  0.78601536  1
  F  F1  1  0.08618159  0.78486770  0.35301792  1
  F  F2  1  0.21573788  0.64731901  0.91428686  1
  F  F3  1  0.91381841  0.21513230  0.64698208  1
  F  F4  1  0.64714204  0.91461898  0.21398464  1
  F  F5  1  0.78426212  0.35268099  0.08571314  1
loop_
_geom_bond_atom_site_label_1
_geom_bond_atom_site_label_2
_geom_bond_distance
_geom_bond_site_symmetry_2
Ca0 F1 2.262635 1_555
Ca0 F3 2.262635 1_555
Ca0 F0 2.270035 1_555
Ca0 F4 2.270035 1_555
Ca0 F5 2.271658 1_555
Ca0 F2 2.271658 1_555
Cr0 F2 1.826987 1_544
Cr0 F5 1.826987 1_455
Cr0 F0 1.827508 1_554
Cr0 F4 1.827508 1_445
Cr0 F1 1.832937 1_545
Cr0 F3 1.832937 1_454
