# generated using pymatgen
data_MnGePd2
_symmetry_space_group_name_H-M   'P 1'
_cell_length_a   4.39991679
_cell_length_b   4.39991679
_cell_length_c   4.39991679
_cell_angle_alpha   60.00000000
_cell_angle_beta   60.00000000
_cell_angle_gamma   60.00000000
_symmetry_Int_Tables_number   1
_chemical_formula_structural   MnGePd2
_chemical_formula_sum   'Mn1 Ge1 Pd2'
_cell_volume   60.23076685
_cell_formula_units_Z   1
loop_
 _symmetry_equiv_pos_site_id
 _symmetry_equiv_pos_as_xyz
  1  'x, y, z'
loop_
 _atom_site_type_symbol
 _atom_site_label
 _atom_site_symmetry_multiplicity
 _atom_site_fract_x
 _atom_site_fract_y
 _atom_site_fract_z
 _atom_site_occupancy
  Mn  Mn0  1  0.50000000  0.50000000  0.50000000  1
  Ge  Ge0  1  0.00000000  0.00000000  0.00000000  1
  Pd  Pd0  1  0.25000000  0.25000000  0.25000000  1
  Pd  Pd1  1  0.75000000  0.75000000  0.75000000  1
loop_
_geom_bond_atom_site_label_1
_geom_bond_atom_site_label_2
_geom_bond_distance
_geom_bond_site_symmetry_2
Mn0 Pd0 2.694388 1_655
Mn0 Pd1 2.694388 1_455
Mn0 Pd0 2.694388 1_565
Mn0 Pd1 2.694388 1_545
Mn0 Pd1 2.694388 1_555
Mn0 Pd0 2.694388 1_556
Mn0 Pd1 2.694388 1_554
Mn0 Pd0 2.694388 1_555
Ge0 Pd1 2.694388 1_454
Ge0 Pd0 2.694388 1_455
Ge0 Pd0 2.694388 1_545
Ge0 Pd1 2.694388 1_544
Ge0 Pd1 2.694388 1_444
Ge0 Pd1 2.694388 1_445
Ge0 Pd0 2.694388 1_555
Ge0 Pd0 2.694388 1_554
Ge0 Mn0 3.111211 1_455
Ge0 Mn0 3.111211 1_454
Ge0 Mn0 3.111211 1_544
Ge0 Mn0 3.111211 1_554
Ge0 Mn0 3.111211 1_445
Ge0 Mn0 3.111211 1_545
