# generated using pymatgen
data_MnH8C2NCl3
_symmetry_space_group_name_H-M   'P 1'
_cell_length_a   13.39437700
_cell_length_b   6.49826900
_cell_length_c   9.02384105
_cell_angle_alpha   79.82574980
_cell_angle_beta   90.00000000
_cell_angle_gamma   90.00000000
_symmetry_Int_Tables_number   1
_chemical_formula_structural   MnH8C2NCl3
_chemical_formula_sum   'Mn4 H32 C8 N4 Cl12'
_cell_volume   773.08658392
_cell_formula_units_Z   4
loop_
 _symmetry_equiv_pos_site_id
 _symmetry_equiv_pos_as_xyz
  1  'x, y, z'
loop_
 _atom_site_type_symbol
 _atom_site_label
 _atom_site_symmetry_multiplicity
 _atom_site_fract_x
 _atom_site_fract_y
 _atom_site_fract_z
 _atom_site_occupancy
  Mn  Mn0  1  0.25444600  0.01866700  0.79680200  1
  Mn  Mn1  1  0.24555400  0.51866700  0.79680200  1
  Mn  Mn2  1  0.75444600  0.48133300  0.20319800  1
  Mn  Mn3  1  0.74555400  0.98133300  0.20319800  1
  H  H0  1  0.41934600  0.43077100  0.12941900  1
  H  H1  1  0.04181100  0.57134800  0.11204400  1
  H  H2  1  0.55820300  0.99476100  0.68779200  1
  H  H3  1  0.08994500  0.05624000  0.35927500  1
  H  H4  1  0.91934600  0.06922900  0.87058100  1
  H  H5  1  0.45818900  0.07134800  0.11204400  1
  H  H6  1  0.16248200  0.59698600  0.19188800  1
  H  H7  1  0.66248200  0.90301400  0.80811200  1
  H  H8  1  0.01867400  0.15729500  0.76571500  1
  H  H9  1  0.91005500  0.94376000  0.64072500  1
  H  H10  1  0.92143300  0.20638300  0.53902700  1
  H  H11  1  0.81243500  0.13069000  0.64912600  1
  H  H12  1  0.18756500  0.86931000  0.35087400  1
  H  H13  1  0.42143300  0.29361700  0.46097300  1
  H  H14  1  0.58065400  0.56922900  0.87058100  1
  H  H15  1  0.83751800  0.40301400  0.80811200  1
  H  H16  1  0.05820300  0.50523900  0.31220800  1
  H  H17  1  0.08065400  0.93077100  0.12941900  1
  H  H18  1  0.98132600  0.84270500  0.23428500  1
  H  H19  1  0.94179700  0.49476100  0.68779200  1
  H  H20  1  0.07856700  0.79361700  0.46097300  1
  H  H21  1  0.58994500  0.44376000  0.64072500  1
  H  H22  1  0.33751800  0.09698600  0.19188800  1
  H  H23  1  0.51867400  0.34270500  0.23428500  1
  H  H24  1  0.54181100  0.92865200  0.88795600  1
  H  H25  1  0.57856700  0.70638300  0.53902700  1
  H  H26  1  0.68756500  0.63069000  0.64912600  1
  H  H27  1  0.41005500  0.55624000  0.35927500  1
  H  H28  1  0.44179700  0.00523900  0.31220800  1
  H  H29  1  0.95818900  0.42865200  0.88795600  1
  H  H30  1  0.31243500  0.36931000  0.35087400  1
  H  H31  1  0.48132600  0.65729500  0.76571500  1
  C  C0  1  0.91804200  0.39116100  0.79075400  1
  C  C1  1  0.41804200  0.10883900  0.20924600  1
  C  C2  1  0.08195800  0.60883900  0.20924600  1
  C  C3  1  0.89312300  0.10818500  0.64150900  1
  C  C4  1  0.39312300  0.39181500  0.35849100  1
  C  C5  1  0.60687700  0.60818500  0.64150900  1
  C  C6  1  0.10687700  0.89181500  0.35849100  1
  C  C7  1  0.58195800  0.89116100  0.79075400  1
  N  N0  1  0.94188300  0.17217900  0.77481200  1
  N  N1  1  0.44188300  0.32782100  0.22518800  1
  N  N2  1  0.05811700  0.82782100  0.22518800  1
  N  N3  1  0.55811700  0.67217900  0.77481200  1
  Cl  Cl0  1  0.83287900  0.68951900  0.38760700  1
  Cl  Cl1  1  0.89301800  0.22427800  0.20048200  1
  Cl  Cl2  1  0.33287900  0.81048100  0.61239300  1
  Cl  Cl3  1  0.60698200  0.72427800  0.20048200  1
  Cl  Cl4  1  0.17119700  0.20868700  0.99429900  1
  Cl  Cl5  1  0.82880300  0.79131300  0.00570100  1
  Cl  Cl6  1  0.39301800  0.27572200  0.79951800  1
  Cl  Cl7  1  0.67119700  0.29131300  0.00570100  1
  Cl  Cl8  1  0.32880300  0.70868700  0.99429900  1
  Cl  Cl9  1  0.66712100  0.18951900  0.38760700  1
  Cl  Cl10  1  0.10698200  0.77572200  0.79951800  1
  Cl  Cl11  1  0.16712100  0.31048100  0.61239300  1
loop_
_geom_bond_atom_site_label_1
_geom_bond_atom_site_label_2
_geom_bond_distance
_geom_bond_site_symmetry_2
H0 N1 1.039846 1_555
H4 N0 1.039846 1_555
H8 N0 1.037714 1_455
H14 N3 1.039846 1_555
H17 N2 1.039846 1_555
H18 N2 1.037714 1_655
H23 N1 1.037714 1_555
H31 N3 1.037714 1_555
C0 H29 1.092421 1_555
C0 H19 1.093955 1_555
C0 H15 1.094550 1_555
C0 N0 1.489943 1_555
C1 H5 1.092421 1_555
C1 H28 1.093955 1_555
C1 H22 1.094550 1_555
C1 N1 1.489943 1_555
C2 H1 1.092421 1_555
C2 H16 1.093955 1_555
C2 H6 1.094550 1_555
C2 N2 1.489943 1_555
C3 H9 1.093527 1_545
C3 H11 1.094403 1_555
C3 H10 1.094405 1_555
C3 N0 1.491036 1_555
C4 H27 1.093527 1_555
C4 H30 1.094403 1_555
C4 H13 1.094405 1_555
C4 N1 1.491036 1_555
C5 H21 1.093527 1_555
C5 H26 1.094403 1_555
C5 H25 1.094405 1_555
C5 N3 1.491036 1_555
C6 H3 1.093527 1_565
C6 H12 1.094403 1_555
C6 H20 1.094405 1_555
C6 N2 1.491036 1_555
C7 H24 1.092421 1_555
C7 H2 1.093955 1_555
C7 H7 1.094550 1_555
C7 N3 1.489943 1_555
Cl0 Mn2 2.549189 1_555
Cl0 Mn3 2.572616 1_555
Cl1 Mn2 2.500079 1_555
Cl1 Mn3 2.525998 1_545
Cl2 Mn0 2.549189 1_565
Cl2 Mn1 2.572616 1_555
Cl3 Mn3 2.500079 1_555
Cl3 Mn2 2.525998 1_555
Cl4 Mn0 2.592631 1_555
Cl4 Mn1 2.637688 1_555
Cl5 Mn3 2.592631 1_555
Cl5 Mn2 2.637688 1_555
Cl6 Mn0 2.500079 1_555
Cl6 Mn1 2.525998 1_555
Cl7 Mn2 2.592631 1_555
Cl7 Mn3 2.637688 1_545
Cl8 Mn1 2.592631 1_555
Cl8 Mn0 2.637688 1_565
Cl9 Mn3 2.549189 1_545
Cl9 Mn2 2.572616 1_555
Cl10 Mn1 2.500079 1_555
Cl10 Mn0 2.525998 1_565
Cl11 Mn1 2.549189 1_555
Cl11 Mn0 2.572616 1_555
