# generated using pymatgen
data_MoPO5
_symmetry_space_group_name_H-M   'P 1'
_cell_length_a   6.48247000
_cell_length_b   10.86194600
_cell_length_c   13.05318300
_cell_angle_alpha   90.00000000
_cell_angle_beta   90.00000000
_cell_angle_gamma   90.00000000
_symmetry_Int_Tables_number   1
_chemical_formula_structural   MoPO5
_chemical_formula_sum   'Mo8 P8 O40'
_cell_volume   919.10384224
_cell_formula_units_Z   8
loop_
 _symmetry_equiv_pos_site_id
 _symmetry_equiv_pos_as_xyz
  1  'x, y, z'
loop_
 _atom_site_type_symbol
 _atom_site_label
 _atom_site_symmetry_multiplicity
 _atom_site_fract_x
 _atom_site_fract_y
 _atom_site_fract_z
 _atom_site_occupancy
  Mo  Mo0  1  0.02547000  0.52513900  0.11844000  1
  Mo  Mo1  1  0.25015800  0.25950100  0.24097500  1
  Mo  Mo2  1  0.75015800  0.75950100  0.25902500  1
  Mo  Mo3  1  0.52547000  0.02513900  0.38156000  1
  Mo  Mo4  1  0.47453000  0.52513900  0.61844000  1
  Mo  Mo5  1  0.24984200  0.25950100  0.74097500  1
  Mo  Mo6  1  0.74984200  0.75950100  0.75902500  1
  Mo  Mo7  1  0.97453000  0.02513900  0.88156000  1
  P  P0  1  0.84170500  0.76569600  0.00535500  1
  P  P1  1  0.52627700  0.50479500  0.18135300  1
  P  P2  1  0.02627700  0.00479500  0.31864700  1
  P  P3  1  0.34170500  0.26569600  0.49464500  1
  P  P4  1  0.65829500  0.76569600  0.50535500  1
  P  P5  1  0.97372300  0.50479500  0.68135300  1
  P  P6  1  0.47372300  0.00479500  0.81864700  1
  P  P7  1  0.15829500  0.26569600  0.99464500  1
  O  O0  1  0.95109500  0.89141100  0.98815500  1
  O  O1  1  0.00697400  0.66278700  0.01532600  1
  O  O2  1  0.29998000  0.24024000  0.08779600  1
  O  O3  1  0.71409800  0.49112100  0.10999400  1
  O  O4  1  0.71072000  0.77151800  0.10365700  1
  O  O5  1  0.33632300  0.54148200  0.11582800  1
  O  O6  1  0.06579300  0.37967500  0.21751300  1
  O  O7  1  0.06947300  0.10986500  0.23962700  1
  O  O8  1  0.97853600  0.63112800  0.22298800  1
  O  O9  1  0.48477100  0.38573300  0.24288100  1
  O  O10  1  0.98477100  0.88573300  0.25711900  1
  O  O11  1  0.47853600  0.13112800  0.27701200  1
  O  O12  1  0.56947300  0.60986500  0.26037300  1
  O  O13  1  0.56579300  0.87967500  0.28248700  1
  O  O14  1  0.83632300  0.04148200  0.38417200  1
  O  O15  1  0.21072000  0.27151800  0.39634300  1
  O  O16  1  0.21409800  0.99112100  0.39000600  1
  O  O17  1  0.79998000  0.74024000  0.41220400  1
  O  O18  1  0.50697400  0.16278700  0.48467400  1
  O  O19  1  0.45109500  0.39141100  0.51184500  1
  O  O20  1  0.54890500  0.89141100  0.48815500  1
  O  O21  1  0.49302600  0.66278700  0.51532600  1
  O  O22  1  0.20002000  0.24024000  0.58779600  1
  O  O23  1  0.78590200  0.49112100  0.60999400  1
  O  O24  1  0.78928000  0.77151800  0.60365700  1
  O  O25  1  0.16367700  0.54148200  0.61582800  1
  O  O26  1  0.43420700  0.37967500  0.71751300  1
  O  O27  1  0.43052700  0.10986500  0.73962700  1
  O  O28  1  0.52146400  0.63112800  0.72298800  1
  O  O29  1  0.01522900  0.38573300  0.74288100  1
  O  O30  1  0.51522900  0.88573300  0.75711900  1
  O  O31  1  0.02146400  0.13112800  0.77701200  1
  O  O32  1  0.93052700  0.60986500  0.76037300  1
  O  O33  1  0.93420700  0.87967500  0.78248700  1
  O  O34  1  0.66367700  0.04148200  0.88417200  1
  O  O35  1  0.28928000  0.27151800  0.89634300  1
  O  O36  1  0.28590200  0.99112100  0.89000600  1
  O  O37  1  0.70002000  0.74024000  0.91220400  1
  O  O38  1  0.99302600  0.16278700  0.98467400  1
  O  O39  1  0.04890500  0.39141100  0.01184500  1
loop_
_geom_bond_atom_site_label_1
_geom_bond_atom_site_label_2
_geom_bond_distance
_geom_bond_site_symmetry_2
Mo0 O8 1.811160 1_455
Mo0 O1 2.015291 1_555
Mo0 O39 2.017170 1_555
Mo0 O5 2.023186 1_555
Mo0 O3 2.054961 1_455
Mo0 O6 2.058448 1_555
Mo1 O6 1.796113 1_555
Mo1 O7 2.003483 1_555
Mo1 O2 2.036166 1_555
Mo1 O9 2.047841 1_555
Mo1 O15 2.048261 1_555
Mo1 O11 2.087418 1_555
Mo2 O13 1.796113 1_555
Mo2 O12 2.003483 1_555
Mo2 O17 2.036166 1_555
Mo2 O10 2.047841 1_555
Mo2 O4 2.048261 1_555
Mo2 O8 2.087418 1_555
Mo3 O11 1.811160 1_555
Mo3 O18 2.015291 1_555
Mo3 O20 2.017170 1_545
Mo3 O14 2.023186 1_555
Mo3 O16 2.054961 1_545
Mo3 O13 2.058448 1_545
Mo4 O28 1.811160 1_555
Mo4 O21 2.015291 1_555
Mo4 O19 2.017170 1_555
Mo4 O25 2.023186 1_555
Mo4 O23 2.054961 1_555
Mo4 O26 2.058448 1_555
Mo5 O26 1.796113 1_555
Mo5 O27 2.003483 1_555
Mo5 O22 2.036166 1_555
Mo5 O29 2.047841 1_555
Mo5 O35 2.048261 1_555
Mo5 O31 2.087418 1_555
Mo6 O33 1.796113 1_555
Mo6 O32 2.003483 1_555
Mo6 O37 2.036166 1_555
Mo6 O30 2.047841 1_555
Mo6 O24 2.048261 1_555
Mo6 O28 2.087418 1_555
Mo7 O31 1.811160 1_655
Mo7 O38 2.015291 1_555
Mo7 O0 2.017170 1_545
Mo7 O34 2.023186 1_555
Mo7 O36 2.054961 1_645
Mo7 O33 2.058448 1_545
O0 P0 1.554950 1_556
O1 P0 1.553767 1_455
O2 P7 1.548707 1_554
O3 P1 1.540161 1_555
O4 P0 1.539956 1_555
O5 P1 1.551330 1_555
O7 P2 1.563589 1_555
O9 P1 1.545932 1_555
O10 P2 1.545932 1_665
O12 P1 1.563589 1_555
O14 P2 1.551330 1_655
O15 P3 1.539956 1_555
O16 P2 1.540161 1_565
O17 P4 1.548707 1_555
O18 P3 1.553767 1_555
O19 P3 1.554950 1_555
O20 P4 1.554950 1_555
O21 P4 1.553767 1_555
O22 P3 1.548707 1_555
O23 P5 1.540161 1_555
O24 P4 1.539956 1_555
O25 P5 1.551330 1_455
O27 P6 1.563589 1_555
O29 P5 1.545932 1_455
O30 P6 1.545932 1_565
O32 P5 1.563589 1_555
O34 P6 1.551330 1_555
O35 P7 1.539956 1_555
O36 P6 1.540161 1_565
O37 P0 1.548707 1_556
O38 P7 1.553767 1_655
O39 P7 1.554950 1_554
