# generated using pymatgen
data_Ba3ErRu2O9
_symmetry_space_group_name_H-M   'P 1'
_cell_length_a   5.94147090
_cell_length_b   5.94147090
_cell_length_c   14.53691400
_cell_angle_alpha   90.00000000
_cell_angle_beta   90.00000000
_cell_angle_gamma   120.00001007
_symmetry_Int_Tables_number   1
_chemical_formula_structural   Ba3ErRu2O9
_chemical_formula_sum   'Ba6 Er2 Ru4 O18'
_cell_volume   444.41709704
_cell_formula_units_Z   2
loop_
 _symmetry_equiv_pos_site_id
 _symmetry_equiv_pos_as_xyz
  1  'x, y, z'
loop_
 _atom_site_type_symbol
 _atom_site_label
 _atom_site_symmetry_multiplicity
 _atom_site_fract_x
 _atom_site_fract_y
 _atom_site_fract_z
 _atom_site_occupancy
  Ba  Ba0  1  0.00000000  0.00000000  0.25000000  1
  Ba  Ba1  1  0.00000000  0.00000000  0.75000000  1
  Ba  Ba2  1  0.33333300  0.66666700  0.90648000  1
  Ba  Ba3  1  0.66666700  0.33333300  0.40648000  1
  Ba  Ba4  1  0.66666700  0.33333300  0.09352000  1
  Ba  Ba5  1  0.33333300  0.66666700  0.59352000  1
  Er  Er0  1  0.00000000  0.00000000  0.00000000  1
  Er  Er1  1  0.00000000  0.00000000  0.50000000  1
  Ru  Ru0  1  0.33333300  0.66666700  0.16397900  1
  Ru  Ru1  1  0.66666700  0.33333300  0.66397900  1
  Ru  Ru2  1  0.66666700  0.33333300  0.83602100  1
  Ru  Ru3  1  0.33333300  0.66666700  0.33602100  1
  O  O0  1  0.49041700  0.98083300  0.25000000  1
  O  O1  1  0.50958300  0.49041700  0.75000000  1
  O  O2  1  0.98083300  0.49041700  0.75000000  1
  O  O3  1  0.01916700  0.50958300  0.25000000  1
  O  O4  1  0.49041700  0.50958300  0.25000000  1
  O  O5  1  0.50958300  0.01916700  0.75000000  1
  O  O6  1  0.17542500  0.35084900  0.41264600  1
  O  O7  1  0.82457500  0.17542500  0.91264600  1
  O  O8  1  0.35084900  0.17542500  0.91264600  1
  O  O9  1  0.64915100  0.82457500  0.41264600  1
  O  O10  1  0.17542500  0.82457500  0.41264600  1
  O  O11  1  0.82457500  0.64915100  0.58735400  1
  O  O12  1  0.82457500  0.17542500  0.58735400  1
  O  O13  1  0.82457500  0.64915100  0.91264600  1
  O  O14  1  0.35084900  0.17542500  0.58735400  1
  O  O15  1  0.64915100  0.82457500  0.08735400  1
  O  O16  1  0.17542500  0.35084900  0.08735400  1
  O  O17  1  0.17542500  0.82457500  0.08735400  1
loop_
_geom_bond_atom_site_label_1
_geom_bond_atom_site_label_2
_geom_bond_distance
_geom_bond_site_symmetry_2
Ba0 O3 2.972369 1_555
Ba0 O0 2.972369 1_445
Ba0 O4 2.972371 1_555
Ba0 O4 2.972371 1_445
Ba0 O3 2.972375 1_545
Ba0 O0 2.972375 1_545
Ba0 O15 2.974775 1_445
Ba0 O16 2.974775 1_555
Ba0 O9 2.974775 1_445
Ba0 O6 2.974775 1_555
Ba0 O10 2.974779 1_545
Ba0 O17 2.974779 1_545
Ba1 O2 2.972369 1_445
Ba1 O5 2.972369 1_555
Ba1 O1 2.972371 1_445
Ba1 O1 2.972371 1_555
Ba1 O5 2.972375 1_455
Ba1 O2 2.972375 1_455
Ba1 O11 2.974775 1_445
Ba1 O13 2.974775 1_445
Ba1 O14 2.974775 1_555
Ba1 O8 2.974775 1_555
Ba1 O7 2.974779 1_455
Ba1 O12 2.974779 1_455
Ba2 O5 2.909331 1_565
Ba2 O2 2.909331 1_455
Ba2 O1 2.909332 1_555
Ba2 O7 2.973453 1_455
Ba2 O7 2.973453 1_565
Ba2 O8 2.973454 1_565
Ba2 O13 2.973454 1_455
Ba2 O13 2.973454 1_555
Ba2 O8 2.973454 1_555
Ba2 O17 3.090982 1_556
Ba2 O16 3.090987 1_556
Ba2 O15 3.090987 1_556
Ba3 O3 2.909331 1_655
Ba3 O0 2.909331 1_545
Ba3 O4 2.909332 1_555
Ba3 O10 2.973453 1_655
Ba3 O10 2.973453 1_545
Ba3 O6 2.973454 1_655
Ba3 O9 2.973454 1_545
Ba3 O9 2.973454 1_555
Ba3 O6 2.973454 1_555
Ba3 O12 3.090982 1_555
Ba3 O14 3.090987 1_555
Ba3 O11 3.090987 1_555
Ba4 O3 2.909331 1_655
Ba4 O0 2.909331 1_545
Ba4 O4 2.909332 1_555
Ba4 O17 2.973453 1_655
Ba4 O17 2.973453 1_545
Ba4 O16 2.973454 1_655
Ba4 O15 2.973454 1_545
Ba4 O15 2.973454 1_555
Ba4 O16 2.973454 1_555
Ba4 O7 3.090982 1_554
Ba4 O8 3.090987 1_554
Ba4 O13 3.090987 1_554
Ba5 O5 2.909331 1_565
Ba5 O2 2.909331 1_455
Ba5 O1 2.909332 1_555
Ba5 O12 2.973453 1_565
Ba5 O12 2.973453 1_455
Ba5 O14 2.973454 1_565
Ba5 O11 2.973454 1_455
Ba5 O11 2.973454 1_555
Ba5 O14 2.973454 1_555
Ba5 O10 3.090982 1_555
Ba5 O6 3.090987 1_555
Ba5 O9 3.090987 1_555
Er0 O15 2.207165 1_445
Er0 O16 2.207165 1_555
Er0 O13 2.207165 1_444
Er0 O8 2.207165 1_554
Er0 O17 2.207170 1_545
Er0 O7 2.207170 1_454
Er1 O9 2.207165 1_445
Er1 O6 2.207165 1_555
Er1 O11 2.207165 1_445
Er1 O14 2.207165 1_555
Er1 O10 2.207170 1_545
Er1 O12 2.207170 1_455
O0 Ru0 2.043739 1_555
O0 Ru3 2.043739 1_555
O1 Ru1 2.043747 1_555
O1 Ru2 2.043747 1_555
O2 Ru2 2.043739 1_555
O2 Ru1 2.043739 1_555
O3 Ru0 2.043739 1_555
O3 Ru3 2.043739 1_555
O4 Ru0 2.043747 1_555
O4 Ru3 2.043747 1_555
O5 Ru2 2.043739 1_555
O5 Ru1 2.043739 1_555
O6 Ru3 1.970146 1_555
O7 Ru2 1.970138 1_555
O8 Ru2 1.970146 1_555
O9 Ru3 1.970146 1_555
O10 Ru3 1.970138 1_555
O11 Ru1 1.970146 1_555
O12 Ru1 1.970138 1_555
O13 Ru2 1.970146 1_555
O14 Ru1 1.970146 1_555
O15 Ru0 1.970146 1_555
O16 Ru0 1.970146 1_555
O17 Ru0 1.970138 1_555
