# generated using pymatgen
data_BaCo(SeO3)2
_symmetry_space_group_name_H-M   'P 1'
_cell_length_a   5.55559700
_cell_length_b   7.34808500
_cell_length_c   15.34420800
_cell_angle_alpha   90.00000000
_cell_angle_beta   90.00000000
_cell_angle_gamma   90.00000000
_symmetry_Int_Tables_number   1
_chemical_formula_structural   BaCo(SeO3)2
_chemical_formula_sum   'Ba4 Co4 Se8 O24'
_cell_volume   626.39658756
_cell_formula_units_Z   4
loop_
 _symmetry_equiv_pos_site_id
 _symmetry_equiv_pos_as_xyz
  1  'x, y, z'
loop_
 _atom_site_type_symbol
 _atom_site_label
 _atom_site_symmetry_multiplicity
 _atom_site_fract_x
 _atom_site_fract_y
 _atom_site_fract_z
 _atom_site_occupancy
  Ba  Ba0  1  0.25000000  0.92135000  0.38251700  1
  Ba  Ba1  1  0.25000000  0.57865000  0.88251700  1
  Ba  Ba2  1  0.75000000  0.07865000  0.61748300  1
  Ba  Ba3  1  0.75000000  0.42135000  0.11748300  1
  Co  Co0  1  0.25000000  0.79350500  0.12457800  1
  Co  Co1  1  0.25000000  0.70649500  0.62457800  1
  Co  Co2  1  0.75000000  0.20649500  0.87542200  1
  Co  Co3  1  0.75000000  0.29350500  0.37542200  1
  Se  Se0  1  0.25000000  0.12798800  0.98428800  1
  Se  Se1  1  0.25000000  0.37201200  0.48428800  1
  Se  Se2  1  0.75000000  0.87201200  0.01571200  1
  Se  Se3  1  0.75000000  0.62798800  0.51571200  1
  Se  Se4  1  0.25000000  0.03439600  0.76861700  1
  Se  Se5  1  0.25000000  0.46560400  0.26861700  1
  Se  Se6  1  0.75000000  0.96560400  0.23138300  1
  Se  Se7  1  0.75000000  0.53439600  0.73138300  1
  O  O0  1  0.01063300  0.27986000  0.97497400  1
  O  O1  1  0.48936700  0.22014000  0.47497400  1
  O  O2  1  0.51063300  0.72014000  0.02502600  1
  O  O3  1  0.98936700  0.77986000  0.52502600  1
  O  O4  1  0.98936700  0.72014000  0.02502600  1
  O  O5  1  0.51063300  0.77986000  0.52502600  1
  O  O6  1  0.48936700  0.27986000  0.97497400  1
  O  O7  1  0.01063300  0.22014000  0.47497400  1
  O  O8  1  0.25000000  0.07105200  0.09287400  1
  O  O9  1  0.25000000  0.42894800  0.59287400  1
  O  O10  1  0.75000000  0.92894800  0.90712600  1
  O  O11  1  0.75000000  0.57105200  0.40712600  1
  O  O12  1  0.00730900  0.18125000  0.77397300  1
  O  O13  1  0.49269100  0.31875000  0.27397300  1
  O  O14  1  0.50730900  0.81875000  0.22602700  1
  O  O15  1  0.99269100  0.68125000  0.72602700  1
  O  O16  1  0.99269100  0.81875000  0.22602700  1
  O  O17  1  0.50730900  0.68125000  0.72602700  1
  O  O18  1  0.49269100  0.18125000  0.77397300  1
  O  O19  1  0.00730900  0.31875000  0.27397300  1
  O  O20  1  0.25000000  0.98772200  0.65717900  1
  O  O21  1  0.25000000  0.51227800  0.15717900  1
  O  O22  1  0.75000000  0.01227800  0.34282100  1
  O  O23  1  0.75000000  0.48772200  0.84282100  1
loop_
_geom_bond_atom_site_label_1
_geom_bond_atom_site_label_2
_geom_bond_distance
_geom_bond_site_symmetry_2
Ba0 O5 2.821199 1_555
Ba0 O3 2.821199 1_455
Ba0 O14 2.894426 1_555
Ba0 O16 2.894426 1_455
Ba0 O22 2.921231 1_465
Ba0 O22 2.921231 1_565
Ba0 O7 2.932825 1_565
Ba0 O1 2.932825 1_565
Ba1 O2 2.821199 1_556
Ba1 O4 2.821199 1_456
Ba1 O17 2.894426 1_555
Ba1 O15 2.894426 1_455
Ba1 O23 2.921231 1_455
Ba1 O23 2.921231 1_555
Ba1 O6 2.932825 1_555
Ba1 O0 2.932825 1_555
Ba2 O7 2.821199 1_655
Ba2 O1 2.821199 1_555
Ba2 O12 2.894426 1_655
Ba2 O18 2.894426 1_555
Ba2 O20 2.921231 1_545
Ba2 O20 2.921231 1_645
Ba2 O3 2.932825 1_545
Ba2 O5 2.932825 1_545
Ba3 O0 2.821199 1_654
Ba3 O6 2.821199 1_554
Ba3 O19 2.894426 1_655
Ba3 O13 2.894426 1_555
Ba3 O21 2.921231 1_655
Ba3 O21 2.921231 1_555
Ba3 O4 2.932825 1_555
Ba3 O2 2.932825 1_555
Co0 O8 2.096656 1_565
Co0 O14 2.121572 1_555
Co0 O16 2.121572 1_455
Co0 O21 2.126165 1_555
Co0 O4 2.172704 1_455
Co0 O2 2.172704 1_555
Co1 O9 2.096656 1_555
Co1 O17 2.121572 1_555
Co1 O15 2.121572 1_455
Co1 O20 2.126165 1_555
Co1 O5 2.172704 1_555
Co1 O3 2.172704 1_455
Co2 O10 2.096656 1_545
Co2 O12 2.121572 1_655
Co2 O18 2.121572 1_555
Co2 O23 2.126165 1_555
Co2 O0 2.172704 1_655
Co2 O6 2.172704 1_555
Co3 O11 2.096656 1_555
Co3 O19 2.121572 1_655
Co3 O13 2.121572 1_555
Co3 O22 2.126165 1_555
Co3 O7 2.172704 1_655
Co3 O1 2.172704 1_555
O0 Se0 1.741910 1_555
O1 Se1 1.741910 1_555
O2 Se2 1.741910 1_555
O3 Se3 1.741910 1_555
O4 Se2 1.741910 1_555
O5 Se3 1.741910 1_555
O6 Se0 1.741910 1_555
O7 Se1 1.741910 1_555
O8 Se0 1.717889 1_554
O9 Se1 1.717889 1_555
O10 Se2 1.717889 1_556
O11 Se3 1.717889 1_555
O12 Se4 1.728900 1_555
O13 Se5 1.728900 1_555
O14 Se6 1.728900 1_555
O15 Se7 1.728900 1_555
O16 Se6 1.728900 1_555
O17 Se7 1.728900 1_555
O18 Se4 1.728900 1_555
O19 Se5 1.728900 1_555
O20 Se4 1.743983 1_565
O21 Se5 1.743983 1_555
O22 Se6 1.743983 1_545
O23 Se7 1.743983 1_555
