# generated using pymatgen
data_Sm2MnNiO6
_symmetry_space_group_name_H-M   'P 1'
_cell_length_a   5.37049506
_cell_length_b   5.63323800
_cell_length_c   7.67716721
_cell_angle_alpha   90.00000000
_cell_angle_beta   89.75695763
_cell_angle_gamma   90.00000000
_symmetry_Int_Tables_number   1
_chemical_formula_structural   Sm2MnNiO6
_chemical_formula_sum   'Sm4 Mn2 Ni2 O12'
_cell_volume   232.25737526
_cell_formula_units_Z   2
loop_
 _symmetry_equiv_pos_site_id
 _symmetry_equiv_pos_as_xyz
  1  'x, y, z'
loop_
 _atom_site_type_symbol
 _atom_site_label
 _atom_site_symmetry_multiplicity
 _atom_site_fract_x
 _atom_site_fract_y
 _atom_site_fract_z
 _atom_site_occupancy
  Sm  Sm0  1  0.51641700  0.56416600  0.25088900  1
  Sm  Sm1  1  0.01641700  0.93583400  0.75088900  1
  Sm  Sm2  1  0.48358300  0.43583400  0.74911100  1
  Sm  Sm3  1  0.98358300  0.06416600  0.24911100  1
  Mn  Mn0  1  0.00000000  0.50000000  0.50000000  1
  Mn  Mn1  1  0.50000000  0.00000000  0.00000000  1
  Ni  Ni0  1  0.50000000  0.00000000  0.50000000  1
  Ni  Ni1  1  0.00000000  0.50000000  0.00000000  1
  O  O0  1  0.59654700  0.02907900  0.75890800  1
  O  O1  1  0.20886000  0.19097000  0.95200900  1
  O  O2  1  0.29114000  0.69097000  0.54799100  1
  O  O3  1  0.09654700  0.47092100  0.25890800  1
  O  O4  1  0.40345300  0.97092100  0.24109200  1
  O  O5  1  0.79114000  0.80903000  0.04799000  1
  O  O6  1  0.90345300  0.52907900  0.74109200  1
  O  O7  1  0.81222100  0.78749500  0.44780900  1
  O  O8  1  0.18777900  0.21250500  0.55219100  1
  O  O9  1  0.31222100  0.71250500  0.94780900  1
  O  O10  1  0.70886000  0.30903000  0.45201000  1
  O  O11  1  0.68777900  0.28749500  0.05219100  1
loop_
_geom_bond_atom_site_label_1
_geom_bond_atom_site_label_2
_geom_bond_distance
_geom_bond_site_symmetry_2
Mn0 O6 1.927014 1_455
Mn0 O3 1.927014 1_555
Mn0 O10 1.934597 1_455
Mn0 O2 1.934599 1_555
Mn0 O8 1.950345 1_555
Mn0 O7 1.950345 1_455
Mn1 O4 1.927014 1_545
Mn1 O0 1.927014 1_554
Mn1 O5 1.934597 1_545
Mn1 O1 1.934599 1_554
Mn1 O11 1.950345 1_555
Mn1 O9 1.950345 1_544
Ni0 O0 2.062837 1_555
Ni0 O4 2.062837 1_545
Ni0 O8 2.097491 1_555
Ni0 O7 2.097491 1_545
Ni0 O10 2.102599 1_555
Ni0 O2 2.102601 1_545
Ni1 O3 2.062837 1_555
Ni1 O6 2.062837 1_454
Ni1 O9 2.097491 1_554
Ni1 O11 2.097491 1_455
Ni1 O5 2.102599 1_455
Ni1 O1 2.102601 1_554
O0 Sm1 2.315845 1_645
O0 Sm2 2.371575 1_555
O1 Sm1 2.351890 1_545
O1 Sm2 2.546833 1_555
O1 Sm3 2.674525 1_456
O2 Sm2 2.351890 1_555
O2 Sm1 2.546833 1_555
O2 Sm0 2.674525 1_555
O3 Sm0 2.315845 1_555
O3 Sm3 2.371575 1_455
O4 Sm3 2.315845 1_465
O4 Sm0 2.371575 1_555
O5 Sm3 2.351895 1_565
O5 Sm0 2.546838 1_555
O5 Sm1 2.674519 1_654
O6 Sm2 2.315845 1_555
O6 Sm1 2.371575 1_655
O7 Sm3 2.364548 1_565
O7 Sm0 2.532252 1_555
O7 Sm1 2.708599 1_655
O8 Sm1 2.364548 1_545
O8 Sm2 2.532252 1_555
O8 Sm3 2.708599 1_455
O9 Sm2 2.364548 1_555
O9 Sm1 2.532252 1_555
O9 Sm0 2.708599 1_556
O10 Sm0 2.351895 1_555
O10 Sm3 2.546838 1_555
O10 Sm2 2.674519 1_555
O11 Sm0 2.364548 1_555
O11 Sm3 2.532252 1_555
O11 Sm2 2.708599 1_554
