# generated using pymatgen
data_K3SnTe3
_symmetry_space_group_name_H-M   'P 1'
_cell_length_a   13.76239399
_cell_length_b   9.66050730
_cell_length_c   9.65844137
_cell_angle_alpha   63.31865141
_cell_angle_beta   90.00000000
_cell_angle_gamma   90.00000000
_symmetry_Int_Tables_number   1
_chemical_formula_structural   K3SnTe3
_chemical_formula_sum   'K12 Sn4 Te12'
_cell_volume   1147.37156364
_cell_formula_units_Z   4
loop_
 _symmetry_equiv_pos_site_id
 _symmetry_equiv_pos_as_xyz
  1  'x, y, z'
loop_
 _atom_site_type_symbol
 _atom_site_label
 _atom_site_symmetry_multiplicity
 _atom_site_fract_x
 _atom_site_fract_y
 _atom_site_fract_z
 _atom_site_occupancy
  K  K0  1  0.71875212  0.05483811  0.79521616  1
  K  K1  1  0.21875212  0.94516189  0.70478384  1
  K  K2  1  0.28124788  0.94516189  0.20478384  1
  K  K3  1  0.78124788  0.05483811  0.29521616  1
  K  K4  1  0.06552687  0.27636370  0.20375876  1
  K  K5  1  0.56552687  0.72363630  0.29624124  1
  K  K6  1  0.93447313  0.72363630  0.79624124  1
  K  K7  1  0.43447313  0.27636370  0.70375876  1
  K  K8  1  0.65654597  0.50073040  0.01145435  1
  K  K9  1  0.15654597  0.49926960  0.48854565  1
  K  K10  1  0.34345403  0.49926960  0.98854565  1
  K  K11  1  0.84345403  0.50073040  0.51145435  1
  Sn  Sn0  1  0.99162435  0.84698698  0.12362622  1
  Sn  Sn1  1  0.49162435  0.15301302  0.37637378  1
  Sn  Sn2  1  0.00837565  0.15301302  0.87637378  1
  Sn  Sn3  1  0.50837565  0.84698698  0.62362622  1
  Te  Te0  1  0.02504098  0.85594177  0.40059895  1
  Te  Te1  1  0.52504098  0.14405823  0.09940105  1
  Te  Te2  1  0.97495902  0.14405823  0.59940105  1
  Te  Te3  1  0.47495902  0.85594177  0.90059895  1
  Te  Te4  1  0.80672967  0.74058120  0.11964542  1
  Te  Te5  1  0.30672967  0.25941880  0.38035458  1
  Te  Te6  1  0.19327033  0.25941880  0.88035458  1
  Te  Te7  1  0.69327033  0.74058120  0.61964542  1
  Te  Te8  1  0.13293701  0.67070689  0.07514019  1
  Te  Te9  1  0.63293701  0.32929311  0.42485981  1
  Te  Te10  1  0.86706299  0.32929311  0.92485981  1
  Te  Te11  1  0.36706299  0.67070689  0.57514019  1
loop_
_geom_bond_atom_site_label_1
_geom_bond_atom_site_label_2
_geom_bond_distance
_geom_bond_site_symmetry_2
K0 Te4 3.458059 1_546
K0 Te9 3.564085 1_555
K0 Te3 3.772107 1_545
K0 Te2 3.910074 1_555
K0 Te10 3.968036 1_555
K0 Te7 4.103455 1_545
K1 Te5 3.458059 1_565
K1 Te8 3.564085 1_556
K1 Te2 3.772107 1_465
K1 Te3 3.910074 1_555
K1 Te11 3.968036 1_555
K1 Te6 4.103455 1_565
K2 Te6 3.458059 1_564
K2 Te11 3.564085 1_555
K2 Te1 3.772107 1_565
K2 Te0 3.910074 1_555
K2 Te8 3.968036 1_555
K2 Te5 4.103455 1_565
K3 Te7 3.458059 1_545
K3 Te10 3.564085 1_554
K3 Te0 3.772107 1_645
K3 Te1 3.910074 1_555
K3 Te9 3.968036 1_555
K3 Te4 4.103455 1_545
K4 Te8 3.559015 1_555
K4 Te6 3.651507 1_554
K4 Te2 3.661044 1_455
K4 Te0 3.672353 1_545
K4 Te5 3.701963 1_555
K4 Te10 3.706869 1_454
K4 Sn2 3.926945 1_554
K5 Te9 3.559015 1_555
K5 Te7 3.651507 1_555
K5 Te3 3.661044 1_554
K5 Te1 3.672353 1_565
K5 Te4 3.701963 1_555
K5 Te11 3.706869 1_555
K5 Sn3 3.926945 1_555
K6 Te10 3.559015 1_555
K6 Te4 3.651507 1_556
K6 Te0 3.661044 1_655
K6 Te2 3.672353 1_565
K6 Te7 3.701963 1_555
K6 Te8 3.706869 1_656
K6 Sn0 3.926945 1_556
K7 Te11 3.559015 1_555
K7 Te5 3.651507 1_555
K7 Te1 3.661044 1_556
K7 Te3 3.672353 1_545
K7 Te6 3.701963 1_555
K7 Te9 3.706869 1_555
K7 Sn1 3.926945 1_555
K8 Te7 3.474248 1_554
K8 Te9 3.585057 1_555
K8 Te4 3.592665 1_555
K8 Te10 3.616663 1_554
K8 Te1 3.638810 1_555
K8 Te3 3.983407 1_554
K9 Te6 3.474248 1_555
K9 Te8 3.585057 1_555
K9 Te5 3.592665 1_555
K9 Te11 3.616663 1_555
K9 Te0 3.638810 1_555
K9 Te2 3.983407 1_455
K10 Te5 3.474248 1_556
K10 Te11 3.585057 1_555
K10 Te6 3.592665 1_555
K10 Te8 3.616663 1_556
K10 Te3 3.638810 1_555
K10 Te1 3.983407 1_556
K11 Te4 3.474248 1_555
K11 Te10 3.585057 1_555
K11 Te7 3.592665 1_555
K11 Te9 3.616663 1_555
K11 Te2 3.638810 1_555
K11 Te0 3.983407 1_655
Sn0 Te4 2.751104 1_555
Sn0 Te0 2.753744 1_655
Sn0 Te8 2.760037 1_655
Sn0 Sn2 2.855845 1_664
Sn1 Te5 2.751104 1_555
Sn1 Te1 2.753744 1_555
Sn1 Te9 2.760037 1_555
Sn1 Sn3 2.855845 1_545
Sn2 Te6 2.751104 1_555
Sn2 Te2 2.753744 1_455
Sn2 Te10 2.760037 1_455
Sn3 Te7 2.751104 1_555
Sn3 Te3 2.753744 1_555
Sn3 Te11 2.760037 1_555
