# generated using pymatgen
data_PH10C3N2O4F
_symmetry_space_group_name_H-M   'P 1'
_cell_length_a   17.88410200
_cell_length_b   5.59783200
_cell_length_c   8.70142739
_cell_angle_alpha   78.17495867
_cell_angle_beta   90.00000000
_cell_angle_gamma   90.00000000
_symmetry_Int_Tables_number   1
_chemical_formula_structural   PH10C3N2O4F
_chemical_formula_sum   'P4 H40 C12 N8 O16 F4'
_cell_volume   852.63206798
_cell_formula_units_Z   4
loop_
 _symmetry_equiv_pos_site_id
 _symmetry_equiv_pos_as_xyz
  1  'x, y, z'
loop_
 _atom_site_type_symbol
 _atom_site_label
 _atom_site_symmetry_multiplicity
 _atom_site_fract_x
 _atom_site_fract_y
 _atom_site_fract_z
 _atom_site_occupancy
  P  P0  1  0.56781400  0.53399400  0.18814700  1
  P  P1  1  0.93218600  0.53399400  0.68814700  1
  P  P2  1  0.43218600  0.46600600  0.81185300  1
  P  P3  1  0.06781400  0.46600600  0.31185300  1
  H  H0  1  0.70890200  0.27567300  0.76754300  1
  H  H1  1  0.49820200  0.73063200  0.91344200  1
  H  H2  1  0.93291600  0.08407500  0.00830300  1
  H  H3  1  0.56708400  0.08407500  0.50830300  1
  H  H4  1  0.29109800  0.72432700  0.23245700  1
  H  H5  1  0.10860500  0.07392100  0.81358500  1
  H  H6  1  0.20560200  0.33940700  0.31109900  1
  H  H7  1  0.10100000  0.21966500  0.97716300  1
  H  H8  1  0.86051600  0.93957800  0.51653200  1
  H  H9  1  0.60100000  0.78033500  0.52283700  1
  H  H10  1  0.70383600  0.42579500  0.92956100  1
  H  H11  1  0.13948400  0.06042200  0.48346800  1
  H  H12  1  0.29616400  0.57420500  0.07043900  1
  H  H13  1  0.06708400  0.91592500  0.99169700  1
  H  H14  1  0.12116600  0.68584000  0.64488300  1
  H  H15  1  0.79109800  0.27567300  0.26754300  1
  H  H16  1  0.62116600  0.31416000  0.85511700  1
  H  H17  1  0.63948400  0.93957800  0.01653200  1
  H  H18  1  0.60860500  0.92607900  0.68641500  1
  H  H19  1  0.20383600  0.57420500  0.57043900  1
  H  H20  1  0.79439800  0.66059300  0.68890100  1
  H  H21  1  0.81898700  0.21943300  0.91542700  1
  H  H22  1  0.18101300  0.78056700  0.08457300  1
  H  H23  1  0.37883400  0.68584000  0.14488300  1
  H  H24  1  0.36051600  0.06042200  0.98346800  1
  H  H25  1  0.31898700  0.78056700  0.58457300  1
  H  H26  1  0.43291600  0.91592500  0.49169700  1
  H  H27  1  0.00179800  0.73063200  0.41344200  1
  H  H28  1  0.99820200  0.26936800  0.58655800  1
  H  H29  1  0.89139500  0.92607900  0.18641500  1
  H  H30  1  0.87883400  0.31416000  0.35511700  1
  H  H31  1  0.20890200  0.72432700  0.73245700  1
  H  H32  1  0.89900000  0.78033500  0.02283700  1
  H  H33  1  0.68101300  0.21943300  0.41542700  1
  H  H34  1  0.50179800  0.26936800  0.08655800  1
  H  H35  1  0.79616400  0.42579500  0.42956100  1
  H  H36  1  0.70560200  0.66059300  0.18890100  1
  H  H37  1  0.39139500  0.07392100  0.31358500  1
  H  H38  1  0.39900000  0.21966500  0.47716300  1
  H  H39  1  0.29439800  0.33940700  0.81109900  1
  C  C0  1  0.24734400  0.05167600  0.95752900  1
  C  C1  1  0.81952100  0.27697000  0.37937600  1
  C  C2  1  0.74734400  0.94832400  0.54247100  1
  C  C3  1  0.11095300  0.04486200  0.94207200  1
  C  C4  1  0.25265600  0.05167600  0.45752900  1
  C  C5  1  0.18047900  0.72303000  0.62062400  1
  C  C6  1  0.61095300  0.95513800  0.55792800  1
  C  C7  1  0.31952100  0.72303000  0.12062400  1
  C  C8  1  0.38904700  0.04486200  0.44207200  1
  C  C9  1  0.75265600  0.94832400  0.04247100  1
  C  C10  1  0.88904700  0.95513800  0.05792800  1
  C  C11  1  0.68047900  0.27697000  0.87937600  1
  N  N0  1  0.18255900  0.93968200  0.00160700  1
  N  N1  1  0.81744100  0.06031800  0.99839300  1
  N  N2  1  0.68255900  0.06031800  0.49839300  1
  N  N3  1  0.31744100  0.93968200  0.50160700  1
  N  N4  1  0.81290200  0.04376400  0.48832300  1
  N  N5  1  0.68709800  0.04376400  0.98832300  1
  N  N6  1  0.31290200  0.95623600  0.01167700  1
  N  N7  1  0.18709800  0.95623600  0.51167700  1
  O  O0  1  0.04240800  0.72705900  0.32990100  1
  O  O1  1  0.45759200  0.72705900  0.82990100  1
  O  O2  1  0.74317500  0.73922100  0.64348400  1
  O  O3  1  0.85635800  0.51801700  0.76740700  1
  O  O4  1  0.55941800  0.72709900  0.03957000  1
  O  O5  1  0.64364200  0.51801700  0.26740700  1
  O  O6  1  0.75682500  0.73922100  0.14348400  1
  O  O7  1  0.25682500  0.26077900  0.35651600  1
  O  O8  1  0.95759200  0.27294100  0.67009900  1
  O  O9  1  0.44058200  0.27290100  0.96043000  1
  O  O10  1  0.94058200  0.72709900  0.53957000  1
  O  O11  1  0.24317500  0.26077900  0.85651600  1
  O  O12  1  0.14364200  0.48198300  0.23259300  1
  O  O13  1  0.54240800  0.27294100  0.17009900  1
  O  O14  1  0.05941800  0.27290100  0.46043000  1
  O  O15  1  0.35635800  0.48198300  0.73259300  1
  F  F0  1  0.49045700  0.40183300  0.68729300  1
  F  F1  1  0.99045700  0.59816700  0.81270700  1
  F  F2  1  0.00954300  0.40183300  0.18729300  1
  F  F3  1  0.50954300  0.59816700  0.31270700  1
loop_
_geom_bond_atom_site_label_1
_geom_bond_atom_site_label_2
_geom_bond_distance
_geom_bond_site_symmetry_2
H1 O1 1.030657 1_555
H1 O4 1.547436 1_556
H6 O7 1.057267 1_555
H6 O12 1.451919 1_555
H8 N4 1.032874 1_565
H11 N7 1.032874 1_545
H17 N5 1.032874 1_564
H20 O2 1.057267 1_555
H20 O3 1.451919 1_555
H21 N1 1.025545 1_555
H22 N0 1.025545 1_555
H24 N6 1.032874 1_546
H25 N3 1.025545 1_555
H27 O0 1.030657 1_555
H27 O10 1.547436 1_455
H28 O8 1.030657 1_555
H28 O14 1.547436 1_655
H33 N2 1.025545 1_555
H34 O13 1.030657 1_555
H34 O9 1.547436 1_554
H36 O6 1.057267 1_555
H36 O5 1.451919 1_555
H39 O11 1.057267 1_555
H39 O15 1.451919 1_555
C0 O11 1.313995 1_555
C0 N6 1.333750 1_546
C0 N0 1.335662 1_546
C1 H30 1.093206 1_555
C1 H15 1.099215 1_555
C1 H35 1.099242 1_555
C1 N4 1.452477 1_555
C2 O2 1.313995 1_555
C2 N4 1.333750 1_565
C2 N2 1.335662 1_565
C3 H13 1.093253 1_545
C3 H5 1.097113 1_555
C3 H7 1.097666 1_555
C3 N0 1.459444 1_546
C4 O7 1.313995 1_555
C4 N7 1.333750 1_545
C4 N3 1.335662 1_545
C5 H14 1.093206 1_555
C5 H31 1.099215 1_555
C5 H19 1.099242 1_555
C5 N7 1.452477 1_555
C6 H3 1.093253 1_565
C6 H18 1.097113 1_555
C6 H9 1.097666 1_555
C6 N2 1.459444 1_565
C7 H23 1.093206 1_555
C7 H4 1.099215 1_555
C7 H12 1.099242 1_555
C7 N6 1.452477 1_555
C8 H26 1.093253 1_545
C8 H37 1.097113 1_555
C8 H38 1.097666 1_555
C8 N3 1.459444 1_545
C9 O6 1.313995 1_555
C9 N5 1.333750 1_564
C9 N1 1.335662 1_564
C10 H2 1.093253 1_565
C10 H29 1.097113 1_555
C10 H32 1.097666 1_555
C10 N1 1.459444 1_564
C11 H16 1.093206 1_555
C11 H0 1.099215 1_555
C11 H10 1.099242 1_555
C11 N5 1.452477 1_555
O0 P3 1.568647 1_555
O1 P2 1.568647 1_555
O3 P1 1.515724 1_555
O4 P0 1.513172 1_555
O5 P0 1.515724 1_555
O8 P1 1.568647 1_555
O9 P2 1.513172 1_555
O10 P1 1.513172 1_555
O12 P3 1.515724 1_555
O13 P0 1.568647 1_555
O14 P3 1.513172 1_555
O15 P2 1.515724 1_555
F0 P2 1.596676 1_555
F1 P1 1.596676 1_555
F2 P3 1.596676 1_555
F3 P0 1.596676 1_555
