# generated using pymatgen
data_Cs2Cu2Si8O19
_symmetry_space_group_name_H-M   'P 1'
_cell_length_a   8.65341600
_cell_length_b   10.13748918
_cell_length_c   11.84531179
_cell_angle_alpha   94.53544557
_cell_angle_beta   90.00023705
_cell_angle_gamma   89.99997335
_symmetry_Int_Tables_number   1
_chemical_formula_structural   Cs2Cu2Si8O19
_chemical_formula_sum   'Cs4 Cu4 Si16 O38'
_cell_volume   1035.86319166
_cell_formula_units_Z   2
loop_
 _symmetry_equiv_pos_site_id
 _symmetry_equiv_pos_as_xyz
  1  'x, y, z'
loop_
 _atom_site_type_symbol
 _atom_site_label
 _atom_site_symmetry_multiplicity
 _atom_site_fract_x
 _atom_site_fract_y
 _atom_site_fract_z
 _atom_site_occupancy
  Cs  Cs0  1  0.24999600  0.49139500  0.45424600  1
  Cs  Cs1  1  0.75000400  0.50861200  0.54575900  1
  Cs  Cs2  1  0.75000400  0.89910600  0.01921600  1
  Cs  Cs3  1  0.24999900  0.10088900  0.98078100  1
  Cu  Cu0  1  0.50791000  0.84927600  0.51487200  1
  Cu  Cu1  1  0.49207300  0.15079700  0.48510400  1
  Cu  Cu2  1  0.99213600  0.84919600  0.51486400  1
  Cu  Cu3  1  0.00783100  0.15074900  0.48517200  1
  Si  Si0  1  0.56966400  0.67685300  0.27962600  1
  Si  Si1  1  0.93418100  0.55226300  0.88396700  1
  Si  Si2  1  0.06582400  0.44773500  0.11603700  1
  Si  Si3  1  0.43033600  0.32315300  0.72038100  1
  Si  Si4  1  0.43584200  0.79226200  0.76590300  1
  Si  Si5  1  0.56416400  0.20774400  0.23407900  1
  Si  Si6  1  0.43344900  0.94230900  0.26396100  1
  Si  Si7  1  0.06416100  0.79225900  0.76591300  1
  Si  Si8  1  0.93033600  0.67684100  0.27961400  1
  Si  Si9  1  0.93584500  0.20773400  0.23409500  1
  Si  Si10  1  0.06654500  0.94230500  0.26396800  1
  Si  Si11  1  0.56655300  0.05769500  0.73603000  1
  Si  Si12  1  0.56582500  0.55226400  0.88396400  1
  Si  Si13  1  0.06966600  0.32314900  0.72038600  1
  Si  Si14  1  0.43417900  0.44774600  0.11603800  1
  Si  Si15  1  0.93345200  0.05768800  0.73603900  1
  O  O0  1  0.53187300  0.69485100  0.41214700  1
  O  O1  1  0.02413200  0.97708300  0.39697300  1
  O  O2  1  0.25001000  0.81638700  0.77955200  1
  O  O3  1  0.01504500  0.69321800  0.86396800  1
  O  O4  1  0.53808800  0.44458000  0.77759600  1
  O  O5  1  0.48625600  0.06275600  0.18653200  1
  O  O6  1  0.02902000  0.18944700  0.78728500  1
  O  O7  1  0.96813000  0.69480000  0.41213500  1
  O  O8  1  0.25000700  0.91485400  0.23885900  1
  O  O9  1  0.97098700  0.81054300  0.21271300  1
  O  O10  1  0.99572200  0.25780800  0.35794400  1
  O  O11  1  0.97585100  0.02288400  0.60303500  1
  O  O12  1  0.98626600  0.93724800  0.81347100  1
  O  O13  1  0.50426900  0.25786300  0.35791200  1
  O  O14  1  0.75000000  0.58136300  0.89948500  1
  O  O15  1  0.03808200  0.55540000  0.22241000  1
  O  O16  1  0.47098600  0.18945000  0.78728100  1
  O  O17  1  0.74999600  0.08513800  0.76114000  1
  O  O18  1  0.25000500  0.36231100  0.75208700  1
  O  O19  1  0.03187900  0.30516100  0.58786800  1
  O  O20  1  0.98496600  0.30677300  0.13603200  1
  O  O21  1  0.01374000  0.06274400  0.18652900  1
  O  O22  1  0.51373700  0.93725000  0.81345700  1
  O  O23  1  0.52415500  0.02293200  0.60301900  1
  O  O24  1  0.46811800  0.30518200  0.58786100  1
  O  O25  1  0.25000600  0.41864500  0.10051800  1
  O  O26  1  0.52902400  0.81055700  0.21271900  1
  O  O27  1  0.00425000  0.74214500  0.64207900  1
  O  O28  1  0.96192000  0.44458400  0.77759800  1
  O  O29  1  0.74999200  0.18360500  0.22042500  1
  O  O30  1  0.49574200  0.74217400  0.64206000  1
  O  O31  1  0.51504600  0.30678300  0.13602700  1
  O  O32  1  0.48495900  0.69321900  0.86395400  1
  O  O33  1  0.50000100  0.50001300  0.00000400  1
  O  O34  1  0.46191900  0.55541800  0.22241300  1
  O  O35  1  0.47584900  0.97711600  0.39696700  1
  O  O36  1  0.00000100  0.50000800  0.00000500  1
  O  O37  1  0.74999200  0.63768500  0.24792500  1
loop_
_geom_bond_atom_site_label_1
_geom_bond_atom_site_label_2
_geom_bond_distance
_geom_bond_site_symmetry_2
Cs0 O24 3.178624 1_555
Cs0 O19 3.178788 1_555
Cs0 O7 3.257700 1_455
Cs0 O0 3.258081 1_555
Cs0 O13 3.364679 1_555
Cs0 O10 3.364950 1_455
Cs0 O15 3.406899 1_555
Cs0 O34 3.406971 1_555
Cs1 O7 3.178551 1_555
Cs1 O0 3.178818 1_555
Cs1 O24 3.257976 1_555
Cs1 O19 3.258055 1_655
Cs1 O27 3.364481 1_655
Cs1 O30 3.364712 1_555
Cs1 O28 3.406997 1_555
Cs1 O4 3.407001 1_555
Cs2 O9 3.168849 1_555
Cs2 O26 3.168850 1_555
Cs2 O12 3.227689 1_554
Cs2 O22 3.227834 1_554
Cs2 O21 3.371681 1_665
Cs2 O5 3.371835 1_565
Cs2 O14 3.415338 1_554
Cs2 O3 3.520131 1_654
Cs2 O32 3.520218 1_554
Cs2 O29 3.593252 1_565
Cs2 O17 3.716661 1_564
Cs3 O6 3.168802 1_555
Cs3 O16 3.168902 1_555
Cs3 O5 3.227687 1_556
Cs3 O21 3.227706 1_556
Cs3 O12 3.371658 1_445
Cs3 O22 3.371779 1_545
Cs3 O25 3.415482 1_556
Cs3 O20 3.520080 1_456
Cs3 O31 3.520178 1_556
Cs3 O2 3.593417 1_545
Cs3 O8 3.716699 1_546
Cu0 O0 1.916533 1_555
Cu0 O30 1.928320 1_555
Cu0 O23 1.979494 1_565
Cu0 O35 1.998331 1_555
Cu1 O24 1.916431 1_555
Cu1 O13 1.928144 1_555
Cu1 O35 1.979642 1_545
Cu1 O23 1.998624 1_555
Cu2 O7 1.916374 1_555
Cu2 O27 1.928235 1_655
Cu2 O11 1.979924 1_565
Cu2 O1 1.998466 1_655
Cu3 O19 1.916315 1_555
Cu3 O10 1.928410 1_455
Cu3 O1 1.979897 1_545
Cu3 O11 1.998041 1_455
O0 Si0 1.599707 1_555
O1 Si10 1.628900 1_555
O2 Si4 1.632675 1_555
O2 Si7 1.632813 1_555
O3 Si1 1.625160 1_455
O3 Si7 1.649913 1_555
O4 Si12 1.618417 1_555
O4 Si3 1.646833 1_555
O5 Si6 1.648650 1_545
O5 Si5 1.673661 1_555
O6 Si15 1.645681 1_455
O6 Si13 1.660921 1_555
O7 Si8 1.599696 1_555
O8 Si6 1.634816 1_555
O8 Si10 1.634994 1_555
O9 Si10 1.645694 1_655
O9 Si8 1.660943 1_555
O10 Si9 1.600171 1_555
O11 Si15 1.628898 1_555
O12 Si15 1.648631 1_565
O12 Si7 1.673661 1_655
O13 Si5 1.600168 1_555
O14 Si12 1.628575 1_555
O14 Si1 1.628626 1_555
O15 Si2 1.618350 1_555
O15 Si8 1.646862 1_455
O16 Si11 1.645665 1_555
O16 Si3 1.660941 1_555
O17 Si11 1.634821 1_555
O17 Si15 1.634926 1_555
O18 Si3 1.646254 1_555
O18 Si13 1.646314 1_555
O19 Si13 1.599659 1_555
O20 Si2 1.625191 1_655
O20 Si9 1.649982 1_555
O21 Si10 1.648652 1_545
O21 Si9 1.673695 1_455
O22 Si11 1.648641 1_565
O22 Si4 1.673638 1_555
O23 Si11 1.628914 1_555
O24 Si3 1.599670 1_555
O25 Si14 1.628561 1_555
O25 Si2 1.628618 1_555
O26 Si6 1.645644 1_555
O26 Si0 1.660977 1_555
O27 Si7 1.600207 1_555
O28 Si1 1.618399 1_555
O28 Si13 1.646852 1_655
O29 Si5 1.632666 1_555
O29 Si9 1.632880 1_555
O30 Si4 1.600211 1_555
O31 Si14 1.625217 1_555
O31 Si5 1.649875 1_555
O32 Si12 1.625195 1_555
O32 Si4 1.649890 1_555
O33 Si14 1.615393 1_555
O33 Si12 1.615398 1_554
O34 Si14 1.618407 1_555
O34 Si0 1.646849 1_555
O35 Si6 1.628924 1_555
O36 Si1 1.615376 1_454
O36 Si2 1.615395 1_555
O37 Si0 1.646240 1_555
O37 Si8 1.646311 1_555
