# generated using pymatgen
data_KMgPO4
_symmetry_space_group_name_H-M   'P 1'
_cell_length_a   5.14746900
_cell_length_b   8.66519300
_cell_length_c   19.26251231
_cell_angle_alpha   88.30460767
_cell_angle_beta   90.00000000
_cell_angle_gamma   90.00000000
_symmetry_Int_Tables_number   1
_chemical_formula_structural   KMgPO4
_chemical_formula_sum   'K8 Mg8 P8 O32'
_cell_volume   858.80537122
_cell_formula_units_Z   8
loop_
 _symmetry_equiv_pos_site_id
 _symmetry_equiv_pos_as_xyz
  1  'x, y, z'
loop_
 _atom_site_type_symbol
 _atom_site_label
 _atom_site_symmetry_multiplicity
 _atom_site_fract_x
 _atom_site_fract_y
 _atom_site_fract_z
 _atom_site_occupancy
  K  K0  1  0.26556700  0.51825900  0.84042800  1
  K  K1  1  0.72455000  0.99562800  0.09315700  1
  K  K2  1  0.23443300  0.51825900  0.34042800  1
  K  K3  1  0.22455000  0.00437200  0.40684300  1
  K  K4  1  0.27545000  0.00437200  0.90684300  1
  K  K5  1  0.77545000  0.99562800  0.59315700  1
  K  K6  1  0.73443300  0.48174100  0.15957200  1
  K  K7  1  0.76556700  0.48174100  0.65957200  1
  Mg  Mg0  1  0.27881000  0.67807600  0.03050400  1
  Mg  Mg1  1  0.77549600  0.84387600  0.26894400  1
  Mg  Mg2  1  0.72119000  0.32192400  0.96949600  1
  Mg  Mg3  1  0.22119000  0.67807600  0.53050400  1
  Mg  Mg4  1  0.22450400  0.15612400  0.73105600  1
  Mg  Mg5  1  0.72450400  0.84387600  0.76894400  1
  Mg  Mg6  1  0.77881000  0.32192400  0.46949600  1
  Mg  Mg7  1  0.27549600  0.15612400  0.23105600  1
  P  P0  1  0.74652700  0.70503300  0.43706600  1
  P  P1  1  0.70549400  0.20736000  0.31019100  1
  P  P2  1  0.79450600  0.20736000  0.81019100  1
  P  P3  1  0.75347300  0.70503300  0.93706600  1
  P  P4  1  0.24652700  0.29496700  0.06293400  1
  P  P5  1  0.25347300  0.29496700  0.56293400  1
  P  P6  1  0.20549400  0.79264000  0.18980900  1
  P  P7  1  0.29450600  0.79264000  0.68980900  1
  O  O0  1  0.03754600  0.67064400  0.22934100  1
  O  O1  1  0.46245400  0.67064400  0.72934100  1
  O  O2  1  0.31795300  0.21265000  0.13254000  1
  O  O3  1  0.18204700  0.21265000  0.63254000  1
  O  O4  1  0.55052400  0.28143800  0.54978800  1
  O  O5  1  0.32454300  0.46776300  0.06612200  1
  O  O6  1  0.81795300  0.78735000  0.36746000  1
  O  O7  1  0.59408400  0.05062200  0.28219000  1
  O  O8  1  0.89985900  0.78081400  0.49702400  1
  O  O9  1  0.10014100  0.21918600  0.50297600  1
  O  O10  1  0.05052400  0.71856200  0.95021200  1
  O  O11  1  0.44947600  0.71856200  0.45021200  1
  O  O12  1  0.82454300  0.53223700  0.43387800  1
  O  O13  1  0.49838000  0.77337100  0.20543400  1
  O  O14  1  0.99838000  0.22662900  0.29456600  1
  O  O15  1  0.96245400  0.32935600  0.77065900  1
  O  O16  1  0.39985900  0.21918600  0.00297600  1
  O  O17  1  0.53754600  0.32935600  0.27065900  1
  O  O18  1  0.67545700  0.53223700  0.93387800  1
  O  O19  1  0.09408400  0.94937800  0.21781000  1
  O  O20  1  0.00162000  0.77337100  0.70543400  1
  O  O21  1  0.33952300  0.79297200  0.61030800  1
  O  O22  1  0.94947600  0.28143800  0.04978800  1
  O  O23  1  0.66047700  0.20702800  0.38969200  1
  O  O24  1  0.60014100  0.78081400  0.99702400  1
  O  O25  1  0.83952300  0.20702800  0.88969200  1
  O  O26  1  0.50162000  0.22662900  0.79456600  1
  O  O27  1  0.90591600  0.05062200  0.78219000  1
  O  O28  1  0.16047700  0.79297200  0.11030800  1
  O  O29  1  0.17545700  0.46776300  0.56612200  1
  O  O30  1  0.68204700  0.78735000  0.86746000  1
  O  O31  1  0.40591600  0.94937800  0.71781000  1
loop_
_geom_bond_atom_site_label_1
_geom_bond_atom_site_label_2
_geom_bond_distance
_geom_bond_site_symmetry_2
K0 O15 2.655205 1_455
K0 O1 2.679984 1_555
K0 O18 2.778404 1_555
K0 O26 2.962231 1_555
K0 O10 2.987813 1_555
K0 O30 3.221160 1_555
K1 O24 2.740057 1_554
K1 O22 2.837165 1_565
K1 O28 2.862468 1_655
K1 O2 2.928610 1_565
K1 O16 3.060139 1_565
K1 O19 3.080151 1_655
K1 O13 3.081465 1_555
K2 O17 2.655205 1_555
K2 O0 2.679984 1_555
K2 O12 2.778404 1_455
K2 O14 2.962231 1_455
K2 O11 2.987813 1_555
K2 O6 3.221160 1_455
K3 O9 2.740057 1_555
K3 O11 2.837165 1_545
K3 O23 2.862468 1_555
K3 O6 2.928610 1_445
K3 O8 3.060139 1_445
K3 O7 3.080151 1_555
K3 O14 3.081465 1_455
K4 O16 2.740057 1_556
K4 O10 2.837165 1_545
K4 O25 2.862468 1_455
K4 O30 2.928610 1_545
K4 O24 3.060139 1_545
K4 O27 3.080151 1_455
K4 O26 3.081465 1_555
K5 O8 2.740057 1_555
K5 O4 2.837165 1_565
K5 O21 2.862468 1_555
K5 O3 2.928610 1_665
K5 O9 3.060139 1_665
K5 O31 3.080151 1_555
K5 O20 3.081465 1_655
K6 O0 2.655205 1_655
K6 O17 2.679984 1_555
K6 O5 2.778404 1_555
K6 O13 2.962231 1_555
K6 O22 2.987813 1_555
K6 O2 3.221160 1_555
K7 O1 2.655205 1_555
K7 O15 2.679984 1_555
K7 O29 2.778404 1_655
K7 O20 2.962231 1_655
K7 O4 2.987813 1_555
K7 O3 3.221160 1_655
Mg0 O5 1.942500 1_555
Mg0 O28 1.953421 1_555
Mg0 O10 1.965672 1_554
Mg0 O24 1.977454 1_554
Mg1 O6 1.958012 1_555
Mg1 O13 1.987168 1_555
Mg1 O7 2.042941 1_565
Mg1 O19 2.107600 1_655
Mg1 O0 2.173128 1_655
Mg2 O18 1.942500 1_555
Mg2 O25 1.953421 1_555
Mg2 O22 1.965672 1_556
Mg2 O16 1.977454 1_556
Mg3 O29 1.942500 1_555
Mg3 O21 1.953421 1_555
Mg3 O11 1.965672 1_555
Mg3 O8 1.977454 1_455
Mg4 O3 1.958012 1_555
Mg4 O26 1.987168 1_555
Mg4 O31 2.042941 1_545
Mg4 O27 2.107600 1_455
Mg4 O15 2.173128 1_455
Mg5 O30 1.958012 1_555
Mg5 O20 1.987168 1_655
Mg5 O27 2.042941 1_565
Mg5 O31 2.107600 1_555
Mg5 O1 2.173128 1_555
Mg6 O12 1.942500 1_555
Mg6 O23 1.953421 1_555
Mg6 O4 1.965672 1_555
Mg6 O9 1.977454 1_655
Mg7 O2 1.958012 1_555
Mg7 O14 1.987168 1_455
Mg7 O19 2.042941 1_545
Mg7 O7 2.107600 1_555
Mg7 O17 2.173128 1_555
O0 P6 1.548257 1_555
O1 P7 1.548257 1_555
O2 P4 1.544371 1_555
O3 P5 1.544371 1_555
O4 P5 1.554879 1_555
O5 P4 1.553197 1_555
O6 P0 1.544371 1_555
O7 P1 1.583590 1_555
O8 P0 1.559780 1_555
O9 P5 1.559780 1_555
O10 P3 1.554879 1_455
O11 P0 1.554879 1_555
O12 P0 1.553197 1_555
O13 P6 1.545450 1_555
O14 P1 1.545450 1_555
O15 P2 1.548257 1_555
O16 P4 1.559780 1_555
O17 P1 1.548257 1_555
O18 P3 1.553197 1_555
O19 P6 1.583590 1_555
O20 P7 1.545450 1_555
O21 P7 1.548740 1_555
O22 P4 1.554879 1_655
O23 P1 1.548740 1_555
O24 P3 1.559780 1_555
O25 P2 1.548740 1_555
O26 P2 1.545450 1_555
O27 P2 1.583590 1_555
O28 P6 1.548740 1_555
O29 P5 1.553197 1_555
O30 P3 1.544371 1_555
O31 P7 1.583590 1_555
