# generated using pymatgen
data_Mg(FeO2)2
_symmetry_space_group_name_H-M   'P 1'
_cell_length_a   5.91218200
_cell_length_b   5.91218200
_cell_length_c   8.36623700
_cell_angle_alpha   90.00000000
_cell_angle_beta   90.00000000
_cell_angle_gamma   90.00000000
_symmetry_Int_Tables_number   1
_chemical_formula_structural   Mg(FeO2)2
_chemical_formula_sum   'Mg4 Fe8 O16'
_cell_volume   292.43257802
_cell_formula_units_Z   4
loop_
 _symmetry_equiv_pos_site_id
 _symmetry_equiv_pos_as_xyz
  1  'x, y, z'
loop_
 _atom_site_type_symbol
 _atom_site_label
 _atom_site_symmetry_multiplicity
 _atom_site_fract_x
 _atom_site_fract_y
 _atom_site_fract_z
 _atom_site_occupancy
  Mg  Mg0  1  0.24764800  0.50000000  0.75000000  1
  Mg  Mg1  1  0.50000000  0.75235200  0.50000000  1
  Mg  Mg2  1  0.75235200  0.50000000  0.25000000  1
  Mg  Mg3  1  0.50000000  0.24764800  0.00000000  1
  Fe  Fe0  1  0.24765600  0.00000000  0.75000000  1
  Fe  Fe1  1  0.75147400  0.24852600  0.62500000  1
  Fe  Fe2  1  0.75234400  0.00000000  0.25000000  1
  Fe  Fe3  1  0.24852600  0.75147400  0.12500000  1
  Fe  Fe4  1  0.75147400  0.75147400  0.87500000  1
  Fe  Fe5  1  0.00000000  0.75234400  0.50000000  1
  Fe  Fe6  1  0.24852600  0.24852600  0.37500000  1
  Fe  Fe7  1  0.00000000  0.24765600  0.00000000  1
  O  O0  1  0.51909700  0.23839300  0.24962800  1
  O  O1  1  0.76159700  0.01359500  0.01333600  1
  O  O2  1  0.98640500  0.23840300  0.23666400  1
  O  O3  1  0.23840300  0.01359500  0.98666400  1
  O  O4  1  0.48090300  0.23839300  0.75037200  1
  O  O5  1  0.01359500  0.23840300  0.76333600  1
  O  O6  1  0.98640500  0.76159700  0.26333600  1
  O  O7  1  0.01359500  0.76159700  0.73666400  1
  O  O8  1  0.48090300  0.76160700  0.74962800  1
  O  O9  1  0.76160700  0.51909700  0.49962800  1
  O  O10  1  0.76160700  0.48090300  0.00037200  1
  O  O11  1  0.51909700  0.76160700  0.25037200  1
  O  O12  1  0.76159700  0.98640500  0.48666400  1
  O  O13  1  0.23839300  0.48090300  0.99962800  1
  O  O14  1  0.23839300  0.51909700  0.50037200  1
  O  O15  1  0.23840300  0.98640500  0.51333600  1
loop_
_geom_bond_atom_site_label_1
_geom_bond_atom_site_label_2
_geom_bond_distance
_geom_bond_site_symmetry_2
Mg0 O8 2.072187 1_555
Mg0 O4 2.072187 1_555
Mg0 O7 2.078281 1_555
Mg0 O5 2.078281 1_555
Mg0 O13 2.092212 1_555
Mg0 O14 2.092212 1_555
Mg1 O9 2.072187 1_555
Mg1 O14 2.072187 1_555
Mg1 O12 2.078281 1_555
Mg1 O15 2.078281 1_555
Mg1 O11 2.092212 1_555
Mg1 O8 2.092212 1_555
Mg2 O11 2.072187 1_555
Mg2 O0 2.072187 1_555
Mg2 O6 2.078281 1_555
Mg2 O2 2.078281 1_555
Mg2 O9 2.092212 1_555
Mg2 O10 2.092212 1_555
Mg3 O10 2.072187 1_555
Mg3 O13 2.072187 1_554
Mg3 O1 2.078281 1_555
Mg3 O3 2.078281 1_554
Mg3 O0 2.092212 1_555
Mg3 O4 2.092212 1_554
Fe0 O4 1.971832 1_555
Fe0 O8 1.971832 1_545
Fe0 O5 1.978389 1_555
Fe0 O7 1.978389 1_545
Fe0 O15 1.982373 1_545
Fe0 O3 1.982373 1_555
Fe1 O4 1.913816 1_555
Fe1 O9 1.913816 1_555
Fe1 O5 1.935106 1_655
Fe1 O12 1.935106 1_545
Fe2 O0 1.971832 1_555
Fe2 O11 1.971832 1_545
Fe2 O2 1.978389 1_555
Fe2 O6 1.978389 1_545
Fe2 O12 1.982373 1_545
Fe2 O1 1.982373 1_555
Fe3 O11 1.913816 1_555
Fe3 O13 1.913816 1_554
Fe3 O6 1.935106 1_455
Fe3 O3 1.935106 1_564
Fe4 O8 1.913816 1_555
Fe4 O10 1.913816 1_556
Fe4 O1 1.935106 1_566
Fe4 O7 1.935106 1_655
Fe5 O14 1.971832 1_555
Fe5 O9 1.971832 1_455
Fe5 O15 1.978389 1_555
Fe5 O12 1.978389 1_455
Fe5 O7 1.982373 1_555
Fe5 O6 1.982373 1_455
Fe6 O14 1.913816 1_555
Fe6 O0 1.913816 1_555
Fe6 O15 1.935106 1_545
Fe6 O2 1.935106 1_455
Fe7 O13 1.971832 1_554
Fe7 O10 1.971832 1_455
Fe7 O3 1.978389 1_554
Fe7 O1 1.978389 1_455
Fe7 O2 1.982373 1_455
Fe7 O5 1.982373 1_554
