# generated using pymatgen
data_SbAsPd5
_symmetry_space_group_name_H-M   'P 1'
_cell_length_a   8.78174721
_cell_length_b   8.78174721
_cell_length_c   8.78174721
_cell_angle_alpha   60.00000000
_cell_angle_beta   60.00000000
_cell_angle_gamma   60.00000000
_symmetry_Int_Tables_number   1
_chemical_formula_structural   SbAsPd5
_chemical_formula_sum   'Sb4 As4 Pd20'
_cell_volume   478.88120887
_cell_formula_units_Z   4
loop_
 _symmetry_equiv_pos_site_id
 _symmetry_equiv_pos_as_xyz
  1  'x, y, z'
loop_
 _atom_site_type_symbol
 _atom_site_label
 _atom_site_symmetry_multiplicity
 _atom_site_fract_x
 _atom_site_fract_y
 _atom_site_fract_z
 _atom_site_occupancy
  Sb  Sb0  1  0.62500000  0.62500000  0.62500000  1
  Sb  Sb1  1  0.12500000  0.62500000  0.62500000  1
  Sb  Sb2  1  0.62500000  0.12500000  0.62500000  1
  Sb  Sb3  1  0.62500000  0.62500000  0.12500000  1
  As  As0  1  0.12500000  0.12500000  0.12500000  1
  As  As1  1  0.62500000  0.12500000  0.12500000  1
  As  As2  1  0.12500000  0.62500000  0.12500000  1
  As  As3  1  0.12500000  0.12500000  0.62500000  1
  Pd  Pd0  1  0.78580000  0.21420000  0.78580000  1
  Pd  Pd1  1  0.03580000  0.46420000  0.46420000  1
  Pd  Pd2  1  0.46420000  0.03580000  0.03580000  1
  Pd  Pd3  1  0.03580000  0.46420000  0.03580000  1
  Pd  Pd4  1  0.46420000  0.46420000  0.03580000  1
  Pd  Pd5  1  0.03580000  0.03580000  0.46420000  1
  Pd  Pd6  1  0.78580000  0.78580000  0.21420000  1
  Pd  Pd7  1  0.21420000  0.78580000  0.78580000  1
  Pd  Pd8  1  0.78580000  0.21420000  0.21420000  1
  Pd  Pd9  1  0.21420000  0.21420000  0.78580000  1
  Pd  Pd10  1  0.46420000  0.03580000  0.46420000  1
  Pd  Pd11  1  0.21420000  0.78580000  0.21420000  1
  Pd  Pd12  1  0.83935600  0.83935600  0.83935600  1
  Pd  Pd13  1  0.76806700  0.41064400  0.41064400  1
  Pd  Pd14  1  0.41064400  0.76806700  0.41064400  1
  Pd  Pd15  1  0.41064400  0.41064400  0.76806700  1
  Pd  Pd16  1  0.83935600  0.48193300  0.83935600  1
  Pd  Pd17  1  0.83935600  0.83935600  0.48193300  1
  Pd  Pd18  1  0.48193300  0.83935600  0.83935600  1
  Pd  Pd19  1  0.41064400  0.41064400  0.41064400  1
loop_
_geom_bond_atom_site_label_1
_geom_bond_atom_site_label_2
_geom_bond_distance
_geom_bond_site_symmetry_2
As0 Pd9 2.459097 1_554
As0 Pd11 2.459097 1_545
As0 Pd8 2.459097 1_455
As0 Pd2 2.459097 1_555
As0 Pd5 2.459097 1_555
As0 Pd3 2.459097 1_555
As1 Pd0 2.459097 1_554
As1 Pd6 2.459097 1_545
As1 Pd2 2.459097 1_555
As1 Pd10 2.459097 1_555
As1 Pd4 2.459097 1_555
As1 Pd8 2.459097 1_555
As2 Pd6 2.459097 1_455
As2 Pd7 2.459097 1_554
As2 Pd3 2.459097 1_555
As2 Pd4 2.459097 1_555
As2 Pd1 2.459097 1_555
As2 Pd11 2.459097 1_555
As3 Pd7 2.459097 1_545
As3 Pd0 2.459097 1_455
As3 Pd10 2.459097 1_555
As3 Pd5 2.459097 1_555
As3 Pd1 2.459097 1_555
As3 Pd9 2.459097 1_555
Pd0 Pd12 2.898808 1_545
Pd0 Pd16 2.898816 1_555
Pd0 Pd13 2.900885 1_555
Pd0 Pd15 2.900885 1_555
Pd0 Sb0 2.967831 1_555
Pd0 Sb2 2.967831 1_555
Pd1 Pd19 2.898808 1_555
Pd1 Pd13 2.898816 1_455
Pd1 Pd16 2.900885 1_455
Pd1 Pd17 2.900885 1_455
Pd1 Sb1 2.967831 1_555
Pd1 Sb0 2.967831 1_455
Pd2 Sb3 2.967831 1_545
Pd2 Sb2 2.967831 1_554
Pd3 Sb3 2.967831 1_455
Pd3 Sb1 2.967831 1_554
Pd4 Sb0 2.967831 1_554
Pd4 Sb3 2.967831 1_555
Pd5 Sb1 2.967831 1_545
Pd5 Sb2 2.967831 1_455
Pd6 Sb0 2.967831 1_555
Pd6 Sb3 2.967831 1_555
Pd7 Sb0 2.967831 1_555
Pd7 Sb1 2.967831 1_555
Pd8 Sb2 2.967831 1_555
Pd8 Sb3 2.967831 1_555
Pd9 Sb1 2.967831 1_555
Pd9 Sb2 2.967831 1_555
Pd10 Pd19 2.898808 1_555
Pd10 Pd14 2.898816 1_545
Pd10 Pd18 2.900885 1_545
Pd10 Pd17 2.900885 1_545
Pd10 Sb0 2.967831 1_545
Pd10 Sb2 2.967831 1_555
Pd11 Pd17 2.898811 1_455
Pd11 Pd18 2.898811 1_554
Pd11 Pd14 2.900877 1_555
Pd11 Pd19 2.900882 1_555
Pd11 Sb1 2.967831 1_555
Pd11 Sb3 2.967831 1_555
Pd12 Sb2 2.734763 1_565
Pd12 Sb1 2.734763 1_655
Pd12 Sb3 2.734763 1_556
Pd12 Pd6 2.898808 1_556
Pd12 Pd7 2.898808 1_655
Pd12 Pd5 2.900882 1_665
Pd12 Pd3 2.900882 1_656
Pd12 Pd2 2.900882 1_566
Pd13 Sb2 2.734758 1_555
Pd13 Sb3 2.734758 1_555
Pd13 Sb0 2.734765 1_555
Pd13 Pd5 2.898811 1_655
Pd13 Pd3 2.898811 1_655
Pd13 Pd8 2.900877 1_555
Pd13 Pd6 2.900885 1_555
Pd14 Sb1 2.734758 1_555
Pd14 Sb3 2.734758 1_555
Pd14 Sb0 2.734765 1_555
Pd14 Pd5 2.898811 1_565
Pd14 Pd2 2.898811 1_565
Pd14 Pd6 2.900885 1_555
Pd14 Pd7 2.900885 1_555
Pd15 Sb2 2.734758 1_555
Pd15 Sb1 2.734758 1_555
Pd15 Sb0 2.734765 1_555
Pd15 Pd3 2.898811 1_556
Pd15 Pd2 2.898811 1_556
Pd15 Pd4 2.898816 1_556
Pd15 Pd9 2.900877 1_555
Pd15 Pd7 2.900885 1_555
Pd16 Sb3 2.734758 1_556
Pd16 Sb1 2.734758 1_655
Pd16 Sb0 2.734765 1_555
Pd16 Pd9 2.898811 1_655
Pd16 Pd8 2.898811 1_556
Pd16 Pd3 2.900877 1_656
Pd16 Pd4 2.900885 1_556
Pd17 Sb2 2.734758 1_565
Pd17 Sb1 2.734758 1_655
Pd17 Sb0 2.734765 1_555
Pd17 Pd8 2.898811 1_565
Pd17 Pd6 2.898816 1_555
Pd17 Pd5 2.900877 1_665
Pd18 Sb3 2.734758 1_556
Pd18 Sb2 2.734758 1_565
Pd18 Sb0 2.734765 1_555
Pd18 Pd9 2.898811 1_565
Pd18 Pd7 2.898816 1_555
Pd18 Pd2 2.900877 1_566
Pd18 Pd4 2.900885 1_556
Pd19 Sb3 2.734763 1_555
Pd19 Sb2 2.734763 1_555
Pd19 Sb1 2.734763 1_555
Pd19 Pd4 2.898808 1_555
Pd19 Pd9 2.900882 1_555
Pd19 Pd8 2.900882 1_555
