# generated using pymatgen
data_ZnCoP2O7
_symmetry_space_group_name_H-M   'P 1'
_cell_length_a   8.41778700
_cell_length_b   7.06567600
_cell_length_c   9.14607737
_cell_angle_alpha   66.78176812
_cell_angle_beta   90.00000000
_cell_angle_gamma   90.00000000
_symmetry_Int_Tables_number   1
_chemical_formula_structural   ZnCoP2O7
_chemical_formula_sum   'Zn4 Co4 P8 O28'
_cell_volume   499.92715803
_cell_formula_units_Z   4
loop_
 _symmetry_equiv_pos_site_id
 _symmetry_equiv_pos_as_xyz
  1  'x, y, z'
loop_
 _atom_site_type_symbol
 _atom_site_label
 _atom_site_symmetry_multiplicity
 _atom_site_fract_x
 _atom_site_fract_y
 _atom_site_fract_z
 _atom_site_occupancy
  Zn  Zn0  1  0.94159300  0.69746200  0.18119900  1
  Zn  Zn1  1  0.44159300  0.30253800  0.31880100  1
  Zn  Zn2  1  0.55840700  0.69746200  0.68119900  1
  Zn  Zn3  1  0.05840700  0.30253800  0.81880100  1
  Co  Co0  1  0.07110900  0.23281700  0.39251400  1
  Co  Co1  1  0.92889100  0.76718300  0.60748600  1
  Co  Co2  1  0.57110900  0.76718300  0.10748600  1
  Co  Co3  1  0.42889100  0.23281700  0.89251400  1
  P  P0  1  0.73337700  0.05947400  0.75947400  1
  P  P1  1  0.22610600  0.53250300  0.03122200  1
  P  P2  1  0.76662300  0.05947400  0.25947400  1
  P  P3  1  0.27389400  0.53250300  0.53122200  1
  P  P4  1  0.23337700  0.94052600  0.74052600  1
  P  P5  1  0.72610600  0.46749700  0.46877800  1
  P  P6  1  0.77389400  0.46749700  0.96877800  1
  P  P7  1  0.26662300  0.94052600  0.24052600  1
  O  O0  1  0.17438200  0.74883400  0.89809800  1
  O  O1  1  0.60985900  0.10860400  0.31624900  1
  O  O2  1  0.89014100  0.10860400  0.81624900  1
  O  O3  1  0.38891600  0.55391800  0.10103900  1
  O  O4  1  0.82561800  0.25116600  0.10190200  1
  O  O5  1  0.09677200  0.97618900  0.62056400  1
  O  O6  1  0.61108400  0.44608200  0.89896100  1
  O  O7  1  0.09161600  0.48459900  0.15417800  1
  O  O8  1  0.26506400  0.37610100  0.45214300  1
  O  O9  1  0.90322800  0.02381100  0.37943600  1
  O  O10  1  0.40322800  0.97618900  0.12056400  1
  O  O11  1  0.75677100  0.88054900  0.20306500  1
  O  O12  1  0.25677100  0.11945100  0.29693500  1
  O  O13  1  0.32561800  0.74883400  0.39809800  1
  O  O14  1  0.59677200  0.02381100  0.87943600  1
  O  O15  1  0.10985900  0.89139600  0.18375100  1
  O  O16  1  0.24322900  0.11945100  0.79693500  1
  O  O17  1  0.90838400  0.51540100  0.84582200  1
  O  O18  1  0.23493600  0.37610100  0.95214300  1
  O  O19  1  0.76506400  0.62389900  0.04785700  1
  O  O20  1  0.88891600  0.44608200  0.39896100  1
  O  O21  1  0.40838400  0.48459900  0.65417800  1
  O  O22  1  0.59161600  0.51540100  0.34582200  1
  O  O23  1  0.39014100  0.89139600  0.68375100  1
  O  O24  1  0.74322900  0.88054900  0.70306500  1
  O  O25  1  0.11108400  0.55391800  0.60103900  1
  O  O26  1  0.73493600  0.62389900  0.54785700  1
  O  O27  1  0.67438200  0.25116600  0.60190200  1
loop_
_geom_bond_atom_site_label_1
_geom_bond_atom_site_label_2
_geom_bond_distance
_geom_bond_site_symmetry_2
Co0 O9 2.081231 1_455
Co0 O12 2.097721 1_555
Co0 O8 2.103173 1_555
Co0 O20 2.167091 1_455
Co0 O5 2.168630 1_545
Co0 O7 2.211047 1_555
Co1 O5 2.081231 1_655
Co1 O24 2.097721 1_555
Co1 O26 2.103173 1_555
Co1 O25 2.167091 1_655
Co1 O9 2.168630 1_565
Co1 O17 2.211047 1_555
Co2 O10 2.081231 1_555
Co2 O11 2.097721 1_555
Co2 O19 2.103173 1_555
Co2 O3 2.167091 1_555
Co2 O14 2.168630 1_564
Co2 O22 2.211047 1_555
Co3 O14 2.081231 1_555
Co3 O16 2.097721 1_555
Co3 O18 2.103173 1_555
Co3 O6 2.167091 1_555
Co3 O10 2.168630 1_546
Co3 O21 2.211047 1_555
O0 P1 1.594058 1_556
O0 P4 1.618334 1_555
O1 P2 1.507856 1_555
O1 Zn1 1.977292 1_555
O2 P0 1.507856 1_555
O2 Zn3 1.977292 1_655
O3 P1 1.544375 1_555
O3 Zn1 2.128122 1_555
O4 P6 1.594058 1_554
O4 P2 1.618334 1_555
O5 P4 1.540004 1_555
O6 P6 1.544375 1_555
O6 Zn2 2.128122 1_555
O7 P1 1.536477 1_555
O7 Zn0 2.052084 1_455
O8 P3 1.542740 1_555
O8 Zn1 2.113157 1_555
O9 P2 1.540004 1_555
O10 P7 1.540004 1_555
O11 P2 1.544536 1_565
O11 Zn0 2.082776 1_555
O12 P7 1.544536 1_545
O12 Zn1 2.082776 1_555
O13 P3 1.594058 1_555
O13 P7 1.618334 1_555
O14 P0 1.540004 1_555
O15 P7 1.507856 1_555
O15 Zn0 1.977292 1_455
O16 P4 1.544536 1_545
O16 Zn3 2.082776 1_555
O17 P6 1.536477 1_555
O17 Zn3 2.052084 1_655
O18 P1 1.542740 1_556
O18 Zn3 2.113157 1_555
O19 P6 1.542740 1_554
O19 Zn0 2.113157 1_555
O20 P5 1.544375 1_555
O20 Zn0 2.128122 1_555
O21 P3 1.536477 1_555
O21 Zn2 2.052084 1_555
O22 P5 1.536477 1_555
O22 Zn1 2.052084 1_555
O23 P4 1.507856 1_555
O23 Zn2 1.977292 1_555
O24 P0 1.544536 1_565
O24 Zn2 2.082776 1_555
O25 P3 1.544375 1_555
O25 Zn3 2.128122 1_555
O26 P5 1.542740 1_555
O26 Zn2 2.113157 1_555
O27 P5 1.594058 1_555
O27 P0 1.618334 1_555
