# generated using pymatgen
data_Nd2Co7B3
_symmetry_space_group_name_H-M   'P 1'
_cell_length_a   5.13013901
_cell_length_b   5.13013901
_cell_length_c   12.70695900
_cell_angle_alpha   90.00000000
_cell_angle_beta   90.00000000
_cell_angle_gamma   120.00001303
_symmetry_Int_Tables_number   1
_chemical_formula_structural   Nd2Co7B3
_chemical_formula_sum   'Nd4 Co14 B6'
_cell_volume   289.62128085
_cell_formula_units_Z   2
loop_
 _symmetry_equiv_pos_site_id
 _symmetry_equiv_pos_as_xyz
  1  'x, y, z'
loop_
 _atom_site_type_symbol
 _atom_site_label
 _atom_site_symmetry_multiplicity
 _atom_site_fract_x
 _atom_site_fract_y
 _atom_site_fract_z
 _atom_site_occupancy
  Nd  Nd0  1  0.00000000  0.00000000  0.26030400  1
  Nd  Nd1  1  0.00000000  0.00000000  0.50000000  1
  Nd  Nd2  1  0.00000000  0.00000000  0.00000000  1
  Nd  Nd3  1  0.00000000  0.00000000  0.73969600  1
  Co  Co0  1  0.50000000  0.50000000  0.15659400  1
  Co  Co1  1  0.50000000  0.50000000  0.38498400  1
  Co  Co2  1  0.00000000  0.50000000  0.84340600  1
  Co  Co3  1  0.50000000  0.00000000  0.15659400  1
  Co  Co4  1  0.50000000  0.00000000  0.84340600  1
  Co  Co5  1  0.50000000  0.50000000  0.61501600  1
  Co  Co6  1  0.50000000  0.00000000  0.38498400  1
  Co  Co7  1  0.00000000  0.50000000  0.15659400  1
  Co  Co8  1  0.00000000  0.50000000  0.38498400  1
  Co  Co9  1  0.50000000  0.50000000  0.84340600  1
  Co  Co10  1  0.50000000  0.00000000  0.61501600  1
  Co  Co11  1  0.00000000  0.50000000  0.61501600  1
  Co  Co12  1  0.66666700  0.33333300  0.00000000  1
  Co  Co13  1  0.33333300  0.66666700  0.00000000  1
  B  B0  1  0.33333300  0.66666700  0.26876800  1
  B  B1  1  0.66666700  0.33333300  0.50000000  1
  B  B2  1  0.33333300  0.66666700  0.73123200  1
  B  B3  1  0.66666700  0.33333300  0.26876800  1
  B  B4  1  0.66666700  0.33333300  0.73123200  1
  B  B5  1  0.33333300  0.66666700  0.50000000  1
loop_
_geom_bond_atom_site_label_1
_geom_bond_atom_site_label_2
_geom_bond_distance
_geom_bond_site_symmetry_2
Nd0 Nd1 3.045807 1_555
Nd0 Nd2 3.307672 1_555
Nd1 Nd3 3.045807 1_555
Nd2 Nd3 3.307672 1_554
Co0 Co13 2.480452 1_555
Co0 Co12 2.480452 1_555
Co0 Nd0 2.883796 1_665
Co0 Nd0 2.883796 1_555
Co1 Nd1 2.952215 1_555
Co1 Nd1 2.952215 1_665
Co1 Nd0 3.014896 1_665
Co1 Nd0 3.014896 1_555
Co2 Nd3 2.883796 1_555
Co2 Nd3 2.883796 1_565
Co3 Nd0 2.883796 1_655
Co3 Nd0 2.883796 1_555
Co4 Nd3 2.883796 1_655
Co4 Nd3 2.883796 1_555
Co5 Nd1 2.952215 1_555
Co5 Nd1 2.952215 1_665
Co5 Nd3 3.014896 1_665
Co5 Nd3 3.014896 1_555
Co6 Nd1 2.952215 1_555
Co6 Nd1 2.952215 1_655
Co6 Nd0 3.014896 1_655
Co6 Nd0 3.014896 1_555
Co7 Nd0 2.883796 1_565
Co7 Nd0 2.883796 1_555
Co8 Nd1 2.952215 1_555
Co8 Nd1 2.952215 1_565
Co8 Nd0 3.014896 1_565
Co8 Nd0 3.014896 1_555
Co9 Nd3 2.883796 1_665
Co9 Nd3 2.883796 1_555
Co10 Nd1 2.952215 1_555
Co10 Nd1 2.952215 1_655
Co10 Nd3 3.014896 1_655
Co10 Nd3 3.014896 1_555
Co11 Nd1 2.952215 1_555
Co11 Nd1 2.952215 1_565
Co11 Nd3 3.014896 1_565
Co11 Nd3 3.014896 1_555
Co12 Co7 2.480449 1_655
Co12 Co3 2.480449 1_555
Co12 Co2 2.480449 1_654
Co12 Co4 2.480449 1_554
Co12 Co9 2.480452 1_554
Co12 Nd2 2.961884 1_655
Co12 Nd2 2.961888 1_665
Co12 Nd2 2.961888 1_555
Co13 Co7 2.480449 1_555
Co13 Co3 2.480449 1_565
Co13 Co4 2.480449 1_564
Co13 Co2 2.480449 1_554
Co13 Co9 2.480452 1_554
Co13 Nd2 2.961884 1_565
Co13 Nd2 2.961888 1_665
Co13 Nd2 2.961888 1_555
B0 Co7 2.055463 1_555
B0 Co3 2.055463 1_565
B0 Co0 2.055466 1_555
B0 Co8 2.091407 1_555
B0 Co6 2.091407 1_565
B0 Co1 2.091411 1_555
B0 Nd0 2.963836 1_565
B0 Nd0 2.963840 1_555
B0 Nd0 2.963840 1_665
B1 Co10 2.080669 1_555
B1 Co11 2.080669 1_655
B1 Co6 2.080669 1_555
B1 Co8 2.080669 1_655
B1 Co1 2.080672 1_555
B1 Co5 2.080672 1_555
B1 Nd1 2.961884 1_655
B1 Nd1 2.961888 1_555
B1 Nd1 2.961888 1_665
B2 Co4 2.055463 1_565
B2 Co2 2.055463 1_555
B2 Co9 2.055466 1_555
B2 Co11 2.091407 1_555
B2 Co10 2.091407 1_565
B2 Co5 2.091411 1_555
B2 Nd3 2.963836 1_565
B2 Nd3 2.963840 1_555
B2 Nd3 2.963840 1_665
B3 Co3 2.055463 1_555
B3 Co7 2.055463 1_655
B3 Co0 2.055466 1_555
B3 Co6 2.091407 1_555
B3 Co8 2.091407 1_655
B3 Co1 2.091411 1_555
B3 Nd0 2.963836 1_655
B3 Nd0 2.963840 1_555
B3 Nd0 2.963840 1_665
B4 Co4 2.055463 1_555
B4 Co2 2.055463 1_655
B4 Co9 2.055466 1_555
B4 Co11 2.091407 1_655
B4 Co10 2.091407 1_555
B4 Co5 2.091411 1_555
B4 Nd3 2.963836 1_655
B4 Nd3 2.963840 1_555
B4 Nd3 2.963840 1_665
B5 Co10 2.080669 1_565
B5 Co11 2.080669 1_555
B5 Co8 2.080669 1_555
B5 Co6 2.080669 1_565
B5 Co1 2.080672 1_555
B5 Co5 2.080672 1_555
B5 Nd1 2.961884 1_565
B5 Nd1 2.961888 1_555
B5 Nd1 2.961888 1_665
