# generated using pymatgen
data_Li2FeP2O7
_symmetry_space_group_name_H-M   'P 1'
_cell_length_a   7.58481773
_cell_length_b   7.58481797
_cell_length_c   11.05104976
_cell_angle_alpha   89.56597694
_cell_angle_beta   90.43402502
_cell_angle_gamma   64.77823884
_symmetry_Int_Tables_number   1
_chemical_formula_structural   Li2FeP2O7
_chemical_formula_sum   'Li8 Fe4 P8 O28'
_cell_volume   575.09333773
_cell_formula_units_Z   4
loop_
 _symmetry_equiv_pos_site_id
 _symmetry_equiv_pos_as_xyz
  1  'x, y, z'
loop_
 _atom_site_type_symbol
 _atom_site_label
 _atom_site_symmetry_multiplicity
 _atom_site_fract_x
 _atom_site_fract_y
 _atom_site_fract_z
 _atom_site_occupancy
  Li  Li0  1  0.28325600  0.28879600  0.99975100  1
  Li  Li1  1  0.71120400  0.71674400  0.49975100  1
  Li  Li2  1  0.28560600  0.28560600  0.75000000  1
  Li  Li3  1  0.71085300  0.71085300  0.75000000  1
  Li  Li4  1  0.28914700  0.28914700  0.25000000  1
  Li  Li5  1  0.71439400  0.71439400  0.25000000  1
  Li  Li6  1  0.28879600  0.28325600  0.50024900  1
  Li  Li7  1  0.71674400  0.71120400  0.00024900  1
  Fe  Fe0  1  0.30925600  0.69185900  0.88058200  1
  Fe  Fe1  1  0.30814100  0.69074400  0.38058200  1
  Fe  Fe2  1  0.69185900  0.30925600  0.61941800  1
  Fe  Fe3  1  0.69074400  0.30814100  0.11941800  1
  P  P0  1  0.30857800  0.91025300  0.62817400  1
  P  P1  1  0.08974700  0.69142200  0.12817400  1
  P  P2  1  0.09074300  0.68370900  0.62928100  1
  P  P3  1  0.31629100  0.90925700  0.12928100  1
  P  P4  1  0.68370900  0.09074300  0.87071900  1
  P  P5  1  0.90925700  0.31629100  0.37071900  1
  P  P6  1  0.91025300  0.30857800  0.87182600  1
  P  P7  1  0.69142200  0.08974700  0.37182600  1
  O  O0  1  0.10094300  0.89438600  0.62644100  1
  O  O1  1  0.10561400  0.89905700  0.12644100  1
  O  O2  1  0.41676000  0.80179100  0.74497600  1
  O  O3  1  0.41988000  0.80060700  0.51464600  1
  O  O4  1  0.19827700  0.57903900  0.74707800  1
  O  O5  1  0.19820900  0.58324000  0.24497600  1
  O  O6  1  0.19939300  0.58012000  0.01464600  1
  O  O7  1  0.42096100  0.80172300  0.24707800  1
  O  O8  1  0.20482300  0.57361900  0.51661400  1
  O  O9  1  0.42638100  0.79517700  0.01661400  1
  O  O10  1  0.72733700  0.87795000  0.87363800  1
  O  O11  1  0.12205000  0.27266300  0.37363800  1
  O  O12  1  0.12423800  0.26013500  0.87422300  1
  O  O13  1  0.73986500  0.87576200  0.37422300  1
  O  O14  1  0.26013500  0.12423800  0.62577700  1
  O  O15  1  0.87576200  0.73986500  0.12577700  1
  O  O16  1  0.87795000  0.72733700  0.62636200  1
  O  O17  1  0.27266300  0.12205000  0.12636200  1
  O  O18  1  0.57361900  0.20482300  0.98338600  1
  O  O19  1  0.79517700  0.42638100  0.48338600  1
  O  O20  1  0.57903900  0.19827700  0.75292200  1
  O  O21  1  0.80060700  0.41988000  0.98535400  1
  O  O22  1  0.80179100  0.41676000  0.75502400  1
  O  O23  1  0.80172300  0.42096100  0.25292200  1
  O  O24  1  0.58012000  0.19939300  0.48535400  1
  O  O25  1  0.58324000  0.19820900  0.25502400  1
  O  O26  1  0.89438600  0.10094300  0.87355900  1
  O  O27  1  0.89905700  0.10561400  0.37355900  1
loop_
_geom_bond_atom_site_label_1
_geom_bond_atom_site_label_2
_geom_bond_distance
_geom_bond_site_symmetry_2
Li0 O17 1.904004 1_556
Li0 O12 1.905003 1_555
Li0 O18 2.025102 1_555
Li0 O6 2.030629 1_556
Li1 O16 1.904004 1_555
Li1 O13 1.905003 1_555
Li1 O19 2.025102 1_555
Li1 O3 2.030629 1_555
Li2 O14 1.908636 1_555
Li2 O12 1.908636 1_555
Li2 O20 2.033578 1_555
Li2 O4 2.033578 1_555
Li3 O10 1.909840 1_555
Li3 O16 1.909840 1_555
Li3 O2 2.034918 1_555
Li3 O22 2.034918 1_555
Li4 O17 1.909840 1_555
Li4 O11 1.909840 1_555
Li4 O25 2.034918 1_555
Li4 O5 2.034918 1_555
Li5 O13 1.908636 1_555
Li5 O15 1.908636 1_555
Li5 O7 2.033578 1_555
Li5 O23 2.033578 1_555
Li6 O11 1.904004 1_555
Li6 O14 1.905003 1_555
Li6 O8 2.025102 1_555
Li6 O24 2.030629 1_555
Li7 O10 1.904004 1_554
Li7 O15 1.905003 1_555
Li7 O9 2.025102 1_555
Li7 O21 2.030629 1_554
Fe0 O2 2.045704 1_555
Fe0 O6 2.051636 1_556
Fe0 O4 2.057105 1_555
Fe0 O9 2.062555 1_556
Fe1 O5 2.045704 1_555
Fe1 O3 2.051636 1_555
Fe1 O7 2.057105 1_555
Fe1 O8 2.062555 1_555
Fe2 O22 2.045704 1_555
Fe2 O24 2.051636 1_555
Fe2 O20 2.057105 1_555
Fe2 O19 2.062555 1_555
Fe3 O25 2.045704 1_555
Fe3 O21 2.051636 1_554
Fe3 O23 2.057105 1_555
Fe3 O18 2.062555 1_554
O0 P0 1.629780 1_555
O0 P2 1.632495 1_555
O1 P1 1.629781 1_555
O1 P3 1.632495 1_555
O2 P0 1.552019 1_555
O3 P0 1.553015 1_555
O4 P2 1.551310 1_555
O5 P1 1.552019 1_555
O6 P1 1.553015 1_555
O7 P3 1.551310 1_555
O8 P2 1.553224 1_555
O9 P3 1.553224 1_555
O10 P4 1.503130 1_565
O11 P5 1.503130 1_455
O12 P6 1.503635 1_455
O13 P7 1.503635 1_565
O14 P0 1.503635 1_545
O15 P1 1.503635 1_655
O16 P2 1.503130 1_655
O17 P3 1.503130 1_545
O18 P4 1.553224 1_555
O19 P5 1.553224 1_555
O20 P4 1.551310 1_555
O21 P6 1.553015 1_555
O22 P6 1.552019 1_555
O23 P5 1.551310 1_555
O24 P7 1.553015 1_555
O25 P7 1.552019 1_555
O26 P6 1.629781 1_555
O26 P4 1.632495 1_555
O27 P7 1.629780 1_555
O27 P5 1.632495 1_555
