# generated using pymatgen
data_ScSb
_symmetry_space_group_name_H-M   'P 1'
_cell_length_a   4.16572993
_cell_length_b   4.16572895
_cell_length_c   4.16572991
_cell_angle_alpha   60.00000071
_cell_angle_beta   60.00000849
_cell_angle_gamma   60.00000269
_symmetry_Int_Tables_number   1
_chemical_formula_structural   ScSb
_chemical_formula_sum   'Sc1 Sb1'
_cell_volume   51.11616562
_cell_formula_units_Z   1
loop_
 _symmetry_equiv_pos_site_id
 _symmetry_equiv_pos_as_xyz
  1  'x, y, z'
loop_
 _atom_site_type_symbol
 _atom_site_label
 _atom_site_symmetry_multiplicity
 _atom_site_fract_x
 _atom_site_fract_y
 _atom_site_fract_z
 _atom_site_occupancy
  Sc  Sc0  1  -0.00000000  0.00000000  -0.00000000  1
  Sb  Sb0  1  0.50000000  0.50000000  0.50000000  1
loop_
_geom_bond_atom_site_label_1
_geom_bond_atom_site_label_2
_geom_bond_distance
_geom_bond_site_symmetry_2
Sb0 Sc0 2.945616 1_665
Sb0 Sc0 2.945616 1_556
Sb0 Sc0 2.945616 1_566
Sb0 Sc0 2.945616 1_655
Sb0 Sc0 2.945616 1_565
Sb0 Sc0 2.945616 1_656
