# generated using pymatgen
data_LuRu2
_symmetry_space_group_name_H-M   'P 1'
_cell_length_a   5.17159066
_cell_length_b   5.17158964
_cell_length_c   8.80029776
_cell_angle_alpha   90.00000000
_cell_angle_beta   90.00000000
_cell_angle_gamma   120.00001303
_symmetry_Int_Tables_number   1
_chemical_formula_structural   LuRu2
_chemical_formula_sum   'Lu4 Ru8'
_cell_volume   203.83377183
_cell_formula_units_Z   4
loop_
 _symmetry_equiv_pos_site_id
 _symmetry_equiv_pos_as_xyz
  1  'x, y, z'
loop_
 _atom_site_type_symbol
 _atom_site_label
 _atom_site_symmetry_multiplicity
 _atom_site_fract_x
 _atom_site_fract_y
 _atom_site_fract_z
 _atom_site_occupancy
  Lu  Lu0  1  0.33333300  0.66666700  0.43271531  1
  Lu  Lu1  1  0.66666700  0.33333300  0.56728469  1
  Lu  Lu2  1  0.66666700  0.33333300  0.93271531  1
  Lu  Lu3  1  0.33333300  0.66666700  0.06728469  1
  Ru  Ru0  1  0.17151750  0.34303200  0.75000000  1
  Ru  Ru1  1  0.17151750  0.82848250  0.75000000  1
  Ru  Ru2  1  0.34303200  0.17151750  0.25000000  1
  Ru  Ru3  1  0.82848250  0.65696800  0.25000000  1
  Ru  Ru4  1  0.65696800  0.82848250  0.75000000  1
  Ru  Ru5  1  0.00000000  0.00000000  0.00000000  1
  Ru  Ru6  1  0.82848250  0.17151750  0.25000000  1
  Ru  Ru7  1  0.00000000  0.00000000  0.50000000  1
loop_
_geom_bond_atom_site_label_1
_geom_bond_atom_site_label_2
_geom_bond_distance
_geom_bond_site_symmetry_2
Lu0 Ru7 3.043963 1_565
Lu0 Ru7 3.043967 1_555
Lu0 Ru7 3.043967 1_665
Lu0 Ru2 3.045274 1_555
Lu0 Ru3 3.045275 1_555
Lu0 Ru6 3.045279 1_565
Lu0 Ru6 3.045279 1_455
Lu0 Ru2 3.045283 1_565
Lu0 Ru3 3.045283 1_455
Lu0 Ru1 3.145998 1_555
Lu0 Ru0 3.146006 1_555
Lu0 Ru4 3.146006 1_555
Lu1 Ru7 3.043963 1_655
Lu1 Ru7 3.043967 1_665
Lu1 Ru7 3.043967 1_555
Lu1 Ru4 3.045274 1_555
Lu1 Ru0 3.045275 1_555
Lu1 Ru1 3.045279 1_545
Lu1 Ru1 3.045279 1_655
Lu1 Ru4 3.045283 1_545
Lu1 Ru0 3.045283 1_655
Lu1 Ru6 3.145998 1_555
Lu1 Ru3 3.146006 1_555
Lu1 Ru2 3.146006 1_555
Lu2 Ru5 3.043963 1_656
Lu2 Ru5 3.043967 1_666
Lu2 Ru5 3.043967 1_556
Lu2 Ru4 3.045274 1_555
Lu2 Ru0 3.045275 1_555
Lu2 Ru1 3.045279 1_545
Lu2 Ru1 3.045279 1_655
Lu2 Ru4 3.045283 1_545
Lu2 Ru0 3.045283 1_655
Lu2 Ru6 3.145998 1_556
Lu2 Ru3 3.146006 1_556
Lu2 Ru2 3.146006 1_556
Lu3 Ru5 3.043963 1_565
Lu3 Ru5 3.043967 1_555
Lu3 Ru5 3.043967 1_665
Lu3 Ru2 3.045274 1_555
Lu3 Ru3 3.045275 1_555
Lu3 Ru6 3.045279 1_565
Lu3 Ru6 3.045279 1_455
Lu3 Ru2 3.045283 1_565
Lu3 Ru3 3.045283 1_455
Lu3 Ru1 3.145998 1_554
Lu3 Ru0 3.146006 1_554
Lu3 Ru4 3.146006 1_554
Ru0 Ru4 2.510551 1_555
Ru0 Ru1 2.510551 1_555
Ru0 Ru4 2.661039 1_445
Ru0 Ru1 2.661039 1_545
Ru0 Ru7 2.683410 1_555
Ru0 Ru5 2.683410 1_556
Ru1 Ru4 2.510551 1_555
Ru1 Ru4 2.661039 1_455
Ru1 Ru5 2.683418 1_566
Ru1 Ru7 2.683418 1_565
Ru2 Ru3 2.510551 1_555
Ru2 Ru6 2.510551 1_555
Ru2 Ru3 2.661039 1_445
Ru2 Ru6 2.661039 1_455
Ru2 Ru7 2.683410 1_555
Ru2 Ru5 2.683410 1_555
Ru3 Ru6 2.510551 1_555
Ru3 Ru6 2.661039 1_565
Ru3 Ru5 2.683410 1_665
Ru3 Ru7 2.683410 1_665
Ru4 Ru7 2.683410 1_665
Ru4 Ru5 2.683410 1_666
Ru5 Ru6 2.683418 1_455
Ru6 Ru7 2.683418 1_655
