# generated using pymatgen
data_Np(SiNi)2
_symmetry_space_group_name_H-M   'P 1'
_cell_length_a   5.62464260
_cell_length_b   5.62464260
_cell_length_c   5.62464260
_cell_angle_alpha   139.13900571
_cell_angle_beta   139.13900571
_cell_angle_gamma   59.16295969
_symmetry_Int_Tables_number   1
_chemical_formula_structural   Np(SiNi)2
_chemical_formula_sum   'Np1 Si2 Ni2'
_cell_volume   75.42560892
_cell_formula_units_Z   1
loop_
 _symmetry_equiv_pos_site_id
 _symmetry_equiv_pos_as_xyz
  1  'x, y, z'
loop_
 _atom_site_type_symbol
 _atom_site_label
 _atom_site_symmetry_multiplicity
 _atom_site_fract_x
 _atom_site_fract_y
 _atom_site_fract_z
 _atom_site_occupancy
  Np  Np0  1  0.00000000  0.00000000  0.00000000  1
  Si  Si0  1  0.37649900  0.37649900  0.00000000  1
  Si  Si1  1  0.62350100  0.62350100  0.00000000  1
  Ni  Ni0  1  0.25000000  0.75000000  0.50000000  1
  Ni  Ni1  1  0.75000000  0.25000000  0.50000000  1
loop_
_geom_bond_atom_site_label_1
_geom_bond_atom_site_label_2
_geom_bond_distance
_geom_bond_site_symmetry_2
Np0 Si1 3.028142 1_455
Np0 Si1 3.028142 1_444
Np0 Si1 3.028142 1_545
Np0 Si1 3.028142 1_556
Np0 Si0 3.028142 1_455
Np0 Si0 3.028142 1_444
Np0 Si0 3.028142 1_545
Np0 Si0 3.028142 1_556
Si0 Si1 2.416419 1_555
Ni0 Si0 2.320870 1_566
Ni0 Si0 2.320870 1_555
Ni0 Si1 2.320870 1_556
Ni0 Si1 2.320870 1_455
Ni0 Ni1 2.776665 1_555
Ni0 Ni1 2.776665 1_454
Ni0 Ni1 2.776665 1_566
Ni0 Ni1 2.776665 1_465
Ni0 Np0 3.136338 1_565
Ni0 Np0 3.136338 1_666
Ni0 Np0 3.136338 1_555
Ni0 Np0 3.136338 1_566
Ni1 Si0 2.320870 1_555
Ni1 Si0 2.320870 1_656
Ni1 Si1 2.320870 1_545
Ni1 Si1 2.320870 1_556
Ni1 Np0 3.136338 1_656
Ni1 Np0 3.136338 1_655
Ni1 Np0 3.136338 1_666
Ni1 Np0 3.136338 1_555
