# generated using pymatgen
data_Fe2O3
_symmetry_space_group_name_H-M   'P 1'
_cell_length_a   5.43536460
_cell_length_b   5.43536460
_cell_length_c   15.04000100
_cell_angle_alpha   90.00000000
_cell_angle_beta   90.00000000
_cell_angle_gamma   120.00000735
_symmetry_Int_Tables_number   1
_chemical_formula_structural   Fe2O3
_chemical_formula_sum   'Fe12 O18'
_cell_volume   384.80067779
_cell_formula_units_Z   6
loop_
 _symmetry_equiv_pos_site_id
 _symmetry_equiv_pos_as_xyz
  1  'x, y, z'
loop_
 _atom_site_type_symbol
 _atom_site_label
 _atom_site_symmetry_multiplicity
 _atom_site_fract_x
 _atom_site_fract_y
 _atom_site_fract_z
 _atom_site_occupancy
  Fe  Fe0  1  0.99231800  0.69406900  0.77175400  1
  Fe  Fe1  1  0.30593100  0.29824900  0.77175400  1
  Fe  Fe2  1  0.70175100  0.00768200  0.77175400  1
  Fe  Fe3  1  0.35547300  0.04225200  0.26952400  1
  Fe  Fe4  1  0.95774800  0.31322100  0.26952400  1
  Fe  Fe5  1  0.68677900  0.64452700  0.26952400  1
  Fe  Fe6  1  0.33333300  0.66666700  0.08981600  1
  Fe  Fe7  1  0.33333300  0.66666700  0.91897100  1
  Fe  Fe8  1  0.33333300  0.66666700  0.42694900  1
  Fe  Fe9  1  0.00000000  0.00000000  0.06938900  1
  Fe  Fe10  1  0.66666700  0.33333300  0.95839600  1
  Fe  Fe11  1  0.33333300  0.66666700  0.59837500  1
  O  O0  1  0.04070900  0.32100500  0.14884200  1
  O  O1  1  0.67899500  0.71970300  0.14884200  1
  O  O2  1  0.28029700  0.95929100  0.14884200  1
  O  O3  1  0.01036100  0.66524800  0.99875100  1
  O  O4  1  0.65488600  0.98963900  0.99875100  1
  O  O5  1  0.33475200  0.34511400  0.99875100  1
  O  O6  1  0.32167600  0.35480700  0.65772300  1
  O  O7  1  0.64519300  0.96686900  0.65772300  1
  O  O8  1  0.03313100  0.67832400  0.65772300  1
  O  O9  1  0.60002500  0.66357200  0.48521300  1
  O  O10  1  0.06354700  0.39997500  0.48521300  1
  O  O11  1  0.33642800  0.93645300  0.48521300  1
  O  O12  1  0.36467500  0.00292100  0.83234000  1
  O  O13  1  0.99707900  0.36175400  0.83234000  1
  O  O14  1  0.63824600  0.63532500  0.83234000  1
  O  O15  1  0.03851100  0.67842800  0.31525300  1
  O  O16  1  0.63991800  0.96148900  0.31525300  1
  O  O17  1  0.32157200  0.36008200  0.31525300  1
loop_
_geom_bond_atom_site_label_1
_geom_bond_atom_site_label_2
_geom_bond_distance
_geom_bond_site_symmetry_2
Fe0 O8 1.736904 1_655
Fe0 O14 2.005371 1_555
Fe0 O13 2.034766 1_555
Fe0 O12 2.084950 1_665
Fe1 O6 1.736904 1_555
Fe1 O12 2.005371 1_555
Fe1 O14 2.034766 1_555
Fe1 O13 2.084950 1_455
Fe2 O7 1.736904 1_545
Fe2 O13 2.005371 1_555
Fe2 O12 2.034766 1_555
Fe2 O14 2.084950 1_545
Fe3 O2 1.865603 1_545
Fe3 O16 1.932541 1_545
Fe3 O17 1.951826 1_555
Fe3 O15 1.986144 1_545
Fe4 O0 1.865604 1_655
Fe4 O15 1.932536 1_655
Fe4 O16 1.951829 1_545
Fe4 O17 1.986147 1_655
Fe5 O1 1.865602 1_555
Fe5 O17 1.932537 1_555
Fe5 O15 1.951831 1_655
Fe5 O16 1.986142 1_555
Fe6 O2 1.964548 1_555
Fe6 O0 1.964554 1_555
Fe6 O1 1.964557 1_555
Fe6 O4 2.223522 1_554
Fe6 O3 2.223522 1_554
Fe6 O5 2.223522 1_554
Fe7 O4 2.123190 1_555
Fe7 O3 2.123190 1_555
Fe7 O5 2.123190 1_555
Fe7 O12 2.180745 1_565
Fe7 O13 2.180747 1_455
Fe7 O14 2.180749 1_555
Fe8 O11 1.701113 1_555
Fe8 O10 1.701115 1_555
Fe8 O9 1.701118 1_555
Fe8 O15 2.344464 1_555
Fe8 O16 2.344467 1_555
Fe8 O17 2.344471 1_555
Fe9 O0 2.033497 1_555
Fe9 O1 2.033499 1_445
Fe9 O2 2.033502 1_545
Fe9 O3 2.131877 1_544
Fe9 O5 2.131879 1_554
Fe9 O4 2.131882 1_444
Fe10 O4 1.934595 1_545
Fe10 O3 1.934600 1_655
Fe10 O5 1.934606 1_555
Fe10 O13 2.562439 1_555
Fe10 O12 2.562441 1_555
Fe10 O14 2.562443 1_555
Fe11 O8 1.888542 1_555
Fe11 O7 1.888545 1_555
Fe11 O6 1.888547 1_555
Fe11 O11 2.241106 1_555
Fe11 O10 2.241108 1_555
Fe11 O9 2.241110 1_555
