# generated using pymatgen
data_Th7Os3
_symmetry_space_group_name_H-M   'P 1'
_cell_length_a   10.00461563
_cell_length_b   10.00461655
_cell_length_c   6.38057902
_cell_angle_alpha   90.00000000
_cell_angle_beta   90.00000000
_cell_angle_gamma   120.00000372
_symmetry_Int_Tables_number   1
_chemical_formula_structural   Th7Os3
_chemical_formula_sum   'Th14 Os6'
_cell_volume   553.08459597
_cell_formula_units_Z   2
loop_
 _symmetry_equiv_pos_site_id
 _symmetry_equiv_pos_as_xyz
  1  'x, y, z'
loop_
 _atom_site_type_symbol
 _atom_site_label
 _atom_site_symmetry_multiplicity
 _atom_site_fract_x
 _atom_site_fract_y
 _atom_site_fract_z
 _atom_site_occupancy
  Th  Th0  1  0.46116159  0.53883841  0.30171176  1
  Th  Th1  1  0.07767581  0.53883841  0.30171176  1
  Th  Th2  1  0.92232419  0.46116159  0.80171176  1
  Th  Th3  1  0.25216238  0.12608119  0.50525630  1
  Th  Th4  1  0.53883841  0.07767581  0.80171176  1
  Th  Th5  1  0.74783762  0.87391881  0.00525630  1
  Th  Th6  1  0.66666700  0.33333300  0.28046520  1
  Th  Th7  1  0.12608119  0.87391881  0.00525630  1
  Th  Th8  1  0.46116159  0.92232419  0.30171176  1
  Th  Th9  1  0.53883841  0.46116159  0.80171176  1
  Th  Th10  1  0.87391881  0.12608119  0.50525630  1
  Th  Th11  1  0.12608119  0.25216238  0.00525630  1
  Th  Th12  1  0.87391881  0.74783762  0.50525630  1
  Th  Th13  1  0.33333300  0.66666700  0.78046520  1
  Os  Os0  1  0.81325117  0.62650334  0.04687488  1
  Os  Os1  1  0.81325117  0.18674883  0.04687488  1
  Os  Os2  1  0.62650334  0.81325117  0.54687488  1
  Os  Os3  1  0.37349666  0.18674883  0.04687488  1
  Os  Os4  1  0.18674883  0.37349666  0.54687488  1
  Os  Os5  1  0.18674883  0.81325117  0.54687488  1
loop_
_geom_bond_atom_site_label_1
_geom_bond_atom_site_label_2
_geom_bond_distance
_geom_bond_site_symmetry_2
Os0 Th9 2.859913 1_554
Os0 Th2 2.859927 1_554
Os0 Th5 2.871555 1_555
Os0 Th7 2.871561 1_655
Os0 Th6 2.945086 1_555
Os0 Th12 3.107936 1_555
Os0 Th0 3.568170 1_555
Os0 Th1 3.568170 1_655
Os0 Th12 3.612202 1_554
Os1 Th4 2.859911 1_554
Os1 Th2 2.859912 1_554
Os1 Th11 2.871564 1_655
Os1 Th5 2.871565 1_545
Os1 Th6 2.945071 1_555
Os1 Th10 3.107939 1_555
Os1 Th8 3.568170 1_545
Os1 Th1 3.568170 1_655
Os1 Th10 3.612204 1_554
Os2 Th0 2.859914 1_555
Os2 Th8 2.859927 1_555
Os2 Th12 2.871555 1_555
Os2 Th10 2.871561 1_565
Os2 Th13 2.945086 1_555
Os2 Th5 3.107936 1_556
Os2 Th4 3.568170 1_565
Os2 Th9 3.568170 1_555
Os2 Th5 3.612202 1_555
Os3 Th9 2.859914 1_554
Os3 Th4 2.859927 1_554
Os3 Th11 2.871555 1_555
Os3 Th7 2.871561 1_545
Os3 Th6 2.945086 1_555
Os3 Th3 3.107936 1_555
Os3 Th8 3.568170 1_545
Os3 Th0 3.568170 1_555
Os3 Th3 3.612202 1_554
Os4 Th0 2.859913 1_555
Os4 Th1 2.859927 1_555
Os4 Th3 2.871555 1_555
Os4 Th10 2.871561 1_455
Os4 Th13 2.945086 1_555
Os4 Th11 3.107936 1_556
Os4 Th9 3.568170 1_555
Os4 Th2 3.568170 1_455
Os4 Th11 3.612202 1_555
Os5 Th8 2.859911 1_555
Os5 Th1 2.859912 1_555
Os5 Th12 2.871564 1_455
Os5 Th3 2.871565 1_565
Os5 Th13 2.945071 1_555
Os5 Th7 3.107939 1_556
Os5 Th4 3.568170 1_565
Os5 Th2 3.568170 1_455
Os5 Th7 3.612204 1_555
