# generated using pymatgen
data_Tl(MoO3)3
_symmetry_space_group_name_H-M   'P 1'
_cell_length_a   8.64807498
_cell_length_b   8.64807498
_cell_length_c   6.57871766
_cell_angle_alpha   87.52736704
_cell_angle_beta   87.52736704
_cell_angle_gamma   53.99084118
_symmetry_Int_Tables_number   1
_chemical_formula_structural   Tl(MoO3)3
_chemical_formula_sum   'Tl2 Mo6 O18'
_cell_volume   397.53712194
_cell_formula_units_Z   2
loop_
 _symmetry_equiv_pos_site_id
 _symmetry_equiv_pos_as_xyz
  1  'x, y, z'
loop_
 _atom_site_type_symbol
 _atom_site_label
 _atom_site_symmetry_multiplicity
 _atom_site_fract_x
 _atom_site_fract_y
 _atom_site_fract_z
 _atom_site_occupancy
  Tl  Tl0  1  0.69849800  0.69849800  0.17705200  1
  Tl  Tl1  1  0.30150200  0.30150200  0.82294800  1
  Mo  Mo0  1  0.88296700  0.88296700  0.63804200  1
  Mo  Mo1  1  0.11703300  0.11703300  0.36195800  1
  Mo  Mo2  1  0.68440700  0.20409900  0.26837800  1
  Mo  Mo3  1  0.79590100  0.31559300  0.73162200  1
  Mo  Mo4  1  0.31559300  0.79590100  0.73162200  1
  Mo  Mo5  1  0.20409900  0.68440700  0.26837800  1
  O  O0  1  0.74832100  0.25167900  0.00000000  1
  O  O1  1  0.25167900  0.74832100  0.00000000  1
  O  O2  1  0.78533200  0.78533200  0.51624900  1
  O  O3  1  0.21466800  0.21466800  0.48375100  1
  O  O4  1  0.85224200  0.85224200  0.89449200  1
  O  O5  1  0.14775800  0.14775800  0.10550800  1
  O  O6  1  0.46332000  0.46332000  0.29591500  1
  O  O7  1  0.53668000  0.53668000  0.70408500  1
  O  O8  1  0.96463800  0.96463800  0.30665500  1
  O  O9  1  0.03536200  0.03536200  0.69334500  1
  O  O10  1  0.57614500  0.09705600  0.21110400  1
  O  O11  1  0.90294400  0.42385500  0.78889600  1
  O  O12  1  0.42385500  0.90294400  0.78889600  1
  O  O13  1  0.09705600  0.57614500  0.21110400  1
  O  O14  1  0.68474700  0.15698900  0.58652700  1
  O  O15  1  0.84301100  0.31525300  0.41347300  1
  O  O16  1  0.31525300  0.84301100  0.41347300  1
  O  O17  1  0.15698900  0.68474700  0.58652700  1
loop_
_geom_bond_atom_site_label_1
_geom_bond_atom_site_label_2
_geom_bond_distance
_geom_bond_site_symmetry_2
Mo0 O4 1.730090 1_555
Mo0 O2 1.738648 1_555
Mo0 O14 1.968108 1_565
Mo0 O17 1.968108 1_655
Mo0 O9 2.394009 1_665
Mo0 O8 2.464021 1_555
Mo1 O5 1.730090 1_555
Mo1 O3 1.738648 1_555
Mo1 O16 1.968108 1_545
Mo1 O15 1.968108 1_455
Mo1 O8 2.394009 1_445
Mo1 O9 2.464021 1_555
Mo2 O10 1.719051 1_555
Mo2 O6 1.918148 1_555
Mo2 O0 1.926823 1_555
Mo2 O8 2.081259 1_545
Mo2 O14 2.114767 1_555
Mo2 O15 2.336447 1_555
Mo3 O11 1.719051 1_555
Mo3 O7 1.918148 1_555
Mo3 O0 1.926823 1_556
Mo3 O9 2.081259 1_655
Mo3 O15 2.114767 1_555
Mo3 O14 2.336447 1_555
Mo4 O12 1.719051 1_555
Mo4 O7 1.918148 1_555
Mo4 O1 1.926823 1_556
Mo4 O9 2.081259 1_565
Mo4 O16 2.114767 1_555
Mo4 O17 2.336447 1_555
Mo5 O13 1.719051 1_555
Mo5 O6 1.918148 1_555
Mo5 O1 1.926823 1_555
Mo5 O8 2.081259 1_455
Mo5 O17 2.114767 1_555
Mo5 O16 2.336447 1_555
O2 Tl0 2.656992 1_555
O3 Tl1 2.656992 1_555
