# generated using pymatgen
data_Pr2Ni7P4
_symmetry_space_group_name_H-M   'P 1'
_cell_length_a   3.77270900
_cell_length_b   9.26319600
_cell_length_c   10.47778200
_cell_angle_alpha   90.00000000
_cell_angle_beta   90.00000000
_cell_angle_gamma   90.00000000
_symmetry_Int_Tables_number   1
_chemical_formula_structural   Pr2Ni7P4
_chemical_formula_sum   'Pr4 Ni14 P8'
_cell_volume   366.17064057
_cell_formula_units_Z   2
loop_
 _symmetry_equiv_pos_site_id
 _symmetry_equiv_pos_as_xyz
  1  'x, y, z'
loop_
 _atom_site_type_symbol
 _atom_site_label
 _atom_site_symmetry_multiplicity
 _atom_site_fract_x
 _atom_site_fract_y
 _atom_site_fract_z
 _atom_site_occupancy
  Pr  Pr0  1  0.00000000  0.56308700  0.00038500  1
  Pr  Pr1  1  0.50000000  0.43691300  0.50038500  1
  Pr  Pr2  1  0.00000000  0.93942900  0.78341000  1
  Pr  Pr3  1  0.50000000  0.06057100  0.28341000  1
  Ni  Ni0  1  0.00000000  0.58280900  0.30389400  1
  Ni  Ni1  1  0.50000000  0.41719100  0.80389400  1
  Ni  Ni2  1  0.00000000  0.31820500  0.26026400  1
  Ni  Ni3  1  0.50000000  0.68179500  0.76026400  1
  Ni  Ni4  1  0.00000000  0.25298100  0.90258700  1
  Ni  Ni5  1  0.50000000  0.74701900  0.40258700  1
  Ni  Ni6  1  0.00000000  0.90359700  0.08590100  1
  Ni  Ni7  1  0.50000000  0.09640300  0.58590100  1
  Ni  Ni8  1  0.00000000  0.93888600  0.47976000  1
  Ni  Ni9  1  0.50000000  0.06111400  0.97976000  1
  Ni  Ni10  1  0.00000000  0.27474000  0.67235400  1
  Ni  Ni11  1  0.50000000  0.72526000  0.17235400  1
  Ni  Ni12  1  0.00000000  0.69514600  0.57464500  1
  Ni  Ni13  1  0.50000000  0.30485400  0.07464500  1
  P  P0  1  0.00000000  0.52403100  0.71784000  1
  P  P1  1  0.50000000  0.47596900  0.21784000  1
  P  P2  1  0.00000000  0.81566400  0.28839800  1
  P  P3  1  0.50000000  0.18433600  0.78839800  1
  P  P4  1  0.00000000  0.15736300  0.08925900  1
  P  P5  1  0.50000000  0.84263700  0.58925900  1
  P  P6  1  0.00000000  0.18496400  0.47250300  1
  P  P7  1  0.50000000  0.81503600  0.97250300  1
loop_
_geom_bond_atom_site_label_1
_geom_bond_atom_site_label_2
_geom_bond_distance
_geom_bond_site_symmetry_2
Ni0 P2 2.163084 1_555
Ni0 P1 2.313176 1_555
Ni0 P1 2.313176 1_455
Ni0 Pr1 3.102161 1_455
Ni0 Pr1 3.102161 1_555
Ni0 Pr0 3.185344 1_555
Ni1 P3 2.163084 1_555
Ni1 P0 2.313176 1_555
Ni1 P0 2.313176 1_655
Ni1 Pr0 3.102161 1_556
Ni1 Pr0 3.102161 1_656
Ni1 Pr1 3.185344 1_555
Ni2 P4 2.330282 1_555
Ni2 P1 2.427264 1_455
Ni2 P1 2.427264 1_555
Ni2 P6 2.543345 1_555
Ni2 Pr3 3.051655 1_455
Ni2 Pr3 3.051655 1_555
Ni2 Pr1 3.331279 1_555
Ni2 Pr1 3.331279 1_455
Ni3 P5 2.330282 1_555
Ni3 P0 2.427264 1_655
Ni3 P0 2.427264 1_555
Ni3 P7 2.543345 1_555
Ni3 Pr2 3.051655 1_655
Ni3 Pr2 3.051655 1_555
Ni3 Pr0 3.331279 1_556
Ni3 Pr0 3.331279 1_656
Ni4 P4 2.147113 1_556
Ni4 P3 2.322532 1_555
Ni4 P3 2.322532 1_455
Ni4 Pr0 3.049868 1_556
Ni4 Pr2 3.161544 1_545
Ni5 P5 2.147113 1_555
Ni5 P2 2.322532 1_655
Ni5 P2 2.322532 1_555
Ni5 Pr1 3.049868 1_555
Ni5 Pr3 3.161544 1_565
Ni6 P2 2.272701 1_555
Ni6 P4 2.350947 1_565
Ni6 P7 2.375509 1_454
Ni6 P7 2.375509 1_554
Ni6 Pr3 3.155207 1_565
Ni6 Pr3 3.155207 1_465
Ni6 Pr2 3.186767 1_554
Ni6 Pr0 3.279008 1_555
Ni7 P3 2.272701 1_555
Ni7 P5 2.350947 1_545
Ni7 P6 2.375509 1_555
Ni7 P6 2.375509 1_655
Ni7 Pr2 3.155207 1_545
Ni7 Pr2 3.155207 1_645
Ni7 Pr3 3.186767 1_555
Ni7 Pr1 3.279008 1_555
Ni8 P6 2.280737 1_565
Ni8 P2 2.307181 1_555
Ni8 P5 2.381081 1_455
Ni8 P5 2.381081 1_555
Ni8 Pr3 3.010221 1_565
Ni8 Pr3 3.010221 1_465
Ni8 Pr2 3.181582 1_555
Ni9 P7 2.280737 1_545
Ni9 P3 2.307181 1_555
Ni9 P4 2.381081 1_556
Ni9 P4 2.381081 1_656
Ni9 Pr2 3.010221 1_645
Ni9 Pr2 3.010221 1_545
Ni9 Pr3 3.181582 1_556
Ni10 P6 2.253086 1_555
Ni10 P0 2.357899 1_555
Ni10 P3 2.395411 1_555
Ni10 P3 2.395411 1_455
Ni10 Pr1 3.010272 1_555
Ni10 Pr1 3.010272 1_455
Ni10 Pr2 3.316861 1_545
Ni11 P7 2.253086 1_554
Ni11 P1 2.357899 1_555
Ni11 P2 2.395411 1_555
Ni11 P2 2.395411 1_655
Ni11 Pr0 3.010272 1_555
Ni11 Pr0 3.010272 1_655
Ni11 Pr3 3.316861 1_565
Ni12 P0 2.182556 1_555
Ni12 P5 2.334178 1_455
Ni12 P5 2.334178 1_555
Ni12 Pr1 3.144154 1_555
Ni12 Pr1 3.144154 1_455
Ni12 Pr2 3.147244 1_555
Ni13 P1 2.182556 1_555
Ni13 P4 2.334178 1_655
Ni13 P4 2.334178 1_555
Ni13 Pr0 3.144154 1_655
Ni13 Pr0 3.144154 1_555
Ni13 Pr3 3.147244 1_555
P0 Pr0 2.982469 1_556
P0 Pr1 3.066086 1_555
P0 Pr1 3.066086 1_455
P1 Pr1 2.982469 1_555
P1 Pr0 3.066086 1_555
P1 Pr0 3.066086 1_655
P2 Pr3 2.950883 1_565
P2 Pr3 2.950883 1_465
P3 Pr2 2.950883 1_545
P3 Pr2 2.950883 1_645
P4 Pr3 2.915560 1_455
P4 Pr3 2.915560 1_555
P5 Pr2 2.915560 1_655
P5 Pr2 2.915560 1_555
P6 Pr3 2.968422 1_455
P6 Pr3 2.968422 1_555
P6 Pr1 3.015054 1_555
P6 Pr1 3.015054 1_455
P7 Pr2 2.968422 1_555
P7 Pr2 2.968422 1_655
P7 Pr0 3.015054 1_656
P7 Pr0 3.015054 1_556
