# generated using pymatgen
data_Na2SrVP2O9
_symmetry_space_group_name_H-M   'P 1'
_cell_length_a   6.72136200
_cell_length_b   10.38060400
_cell_length_c   10.80425300
_cell_angle_alpha   90.00000000
_cell_angle_beta   90.00000000
_cell_angle_gamma   90.00000000
_symmetry_Int_Tables_number   1
_chemical_formula_structural   Na2SrVP2O9
_chemical_formula_sum   'Na8 Sr4 V4 P8 O36'
_cell_volume   753.83214989
_cell_formula_units_Z   4
loop_
 _symmetry_equiv_pos_site_id
 _symmetry_equiv_pos_as_xyz
  1  'x, y, z'
loop_
 _atom_site_type_symbol
 _atom_site_label
 _atom_site_symmetry_multiplicity
 _atom_site_fract_x
 _atom_site_fract_y
 _atom_site_fract_z
 _atom_site_occupancy
  Na  Na0  1  0.99990000  0.36531600  0.78271400  1
  Na  Na1  1  0.99990000  0.13468400  0.28271400  1
  Na  Na2  1  0.50010000  0.13468400  0.28271400  1
  Na  Na3  1  0.50010000  0.36531600  0.78271400  1
  Na  Na4  1  0.49990000  0.63468400  0.21728600  1
  Na  Na5  1  0.00010000  0.86531600  0.71728600  1
  Na  Na6  1  0.00010000  0.63468400  0.21728600  1
  Na  Na7  1  0.49990000  0.86531600  0.71728600  1
  Sr  Sr0  1  0.75000000  0.09559500  0.94271900  1
  Sr  Sr1  1  0.25000000  0.59559500  0.55728100  1
  Sr  Sr2  1  0.75000000  0.40440500  0.44271900  1
  Sr  Sr3  1  0.25000000  0.90440500  0.05728100  1
  V  V0  1  0.25000000  0.18781700  0.52818300  1
  V  V1  1  0.75000000  0.68781700  0.97181700  1
  V  V2  1  0.25000000  0.31218300  0.02818300  1
  V  V3  1  0.75000000  0.81218300  0.47181700  1
  P  P0  1  0.75000000  0.36827400  0.08648900  1
  P  P1  1  0.25000000  0.41490400  0.31610700  1
  P  P2  1  0.75000000  0.13172600  0.58648900  1
  P  P3  1  0.25000000  0.08509600  0.81610700  1
  P  P4  1  0.75000000  0.58509600  0.68389300  1
  P  P5  1  0.75000000  0.91490400  0.18389300  1
  P  P6  1  0.25000000  0.86827400  0.41351100  1
  P  P7  1  0.25000000  0.63172600  0.91351100  1
  O  O0  1  0.75000000  0.51734300  0.09565200  1
  O  O1  1  0.75000000  0.56915100  0.82748500  1
  O  O2  1  0.25000000  0.80299100  0.28481700  1
  O  O3  1  0.93327500  0.51514600  0.63138900  1
  O  O4  1  0.06672500  0.48485400  0.36861100  1
  O  O5  1  0.75000000  0.73018100  0.64741100  1
  O  O6  1  0.93463600  0.31920100  0.00801900  1
  O  O7  1  0.56672500  0.98485400  0.13138900  1
  O  O8  1  0.06536400  0.81920100  0.49198100  1
  O  O9  1  0.43463600  0.81920100  0.49198100  1
  O  O10  1  0.56536400  0.31920100  0.00801900  1
  O  O11  1  0.93463600  0.18079900  0.50801900  1
  O  O12  1  0.75000000  0.98265700  0.59565200  1
  O  O13  1  0.25000000  0.32749700  0.60345400  1
  O  O14  1  0.25000000  0.23018100  0.85258900  1
  O  O15  1  0.25000000  0.43084900  0.17251500  1
  O  O16  1  0.25000000  0.06915100  0.67251500  1
  O  O17  1  0.25000000  0.26981900  0.35258900  1
  O  O18  1  0.43463600  0.68079900  0.99198100  1
  O  O19  1  0.75000000  0.93084900  0.32748500  1
  O  O20  1  0.06536400  0.68079900  0.99198100  1
  O  O21  1  0.06672500  0.01514600  0.86861100  1
  O  O22  1  0.25000000  0.48265700  0.90434800  1
  O  O23  1  0.43327500  0.01514600  0.86861100  1
  O  O24  1  0.75000000  0.67250300  0.39654600  1
  O  O25  1  0.25000000  0.69700900  0.78481700  1
  O  O26  1  0.75000000  0.30299100  0.21518300  1
  O  O27  1  0.93327500  0.98485400  0.13138900  1
  O  O28  1  0.75000000  0.76981900  0.14741100  1
  O  O29  1  0.75000000  0.19700900  0.71518300  1
  O  O30  1  0.75000000  0.82749700  0.89654600  1
  O  O31  1  0.25000000  0.01734300  0.40434800  1
  O  O32  1  0.43327500  0.48485400  0.36861100  1
  O  O33  1  0.56672500  0.51514600  0.63138900  1
  O  O34  1  0.25000000  0.17250300  0.10345400  1
  O  O35  1  0.56536400  0.18079900  0.50801900  1
loop_
_geom_bond_atom_site_label_1
_geom_bond_atom_site_label_2
_geom_bond_distance
_geom_bond_site_symmetry_2
Na0 O3 2.300575 1_555
Na0 O14 2.315934 1_655
Na0 O22 2.456935 1_655
Na0 O6 2.519358 1_556
Na0 O29 2.531026 1_555
Na0 O13 2.594418 1_655
Na0 O1 2.744527 1_555
Na1 O27 2.300575 1_545
Na1 O17 2.315934 1_655
Na1 O31 2.456935 1_655
Na1 O11 2.519358 1_555
Na1 O26 2.531026 1_555
Na1 O34 2.594418 1_655
Na1 O19 2.744527 1_545
Na2 O7 2.300575 1_545
Na2 O17 2.315934 1_555
Na2 O31 2.456935 1_555
Na2 O35 2.519358 1_555
Na2 O26 2.531026 1_555
Na2 O34 2.594418 1_555
Na2 O19 2.744527 1_545
Na3 O33 2.300575 1_555
Na3 O14 2.315934 1_555
Na3 O22 2.456935 1_555
Na3 O10 2.519358 1_556
Na3 O29 2.531026 1_555
Na3 O13 2.594418 1_555
Na3 O1 2.744527 1_555
Na4 O32 2.300575 1_555
Na4 O28 2.315934 1_555
Na4 O0 2.456935 1_555
Na4 O18 2.519358 1_554
Na4 O2 2.531026 1_555
Na4 O24 2.594418 1_555
Na4 O15 2.744527 1_555
Na5 O21 2.300575 1_565
Na5 O5 2.315934 1_455
Na5 O12 2.456935 1_455
Na5 O8 2.519358 1_555
Na5 O25 2.531026 1_555
Na5 O30 2.594418 1_455
Na5 O16 2.744527 1_565
Na6 O4 2.300575 1_555
Na6 O28 2.315934 1_455
Na6 O0 2.456935 1_455
Na6 O20 2.519358 1_554
Na6 O2 2.531026 1_555
Na6 O24 2.594418 1_455
Na6 O15 2.744527 1_555
Na7 O23 2.300575 1_565
Na7 O5 2.315934 1_555
Na7 O12 2.456935 1_555
Na7 O9 2.519358 1_555
Na7 O25 2.531026 1_555
Na7 O30 2.594418 1_555
Na7 O16 2.744527 1_565
O0 P0 1.550590 1_555
O0 V1 2.218482 1_554
O1 P4 1.560209 1_555
O1 V1 1.987239 1_555
O2 P6 1.546796 1_555
O2 Sr3 2.674280 1_555
O3 P4 1.538350 1_555
O3 Sr1 2.422888 1_655
O3 Sr2 2.644653 1_555
O4 P1 1.538350 1_555
O4 Sr2 2.422888 1_455
O4 Sr1 2.644653 1_555
O5 P4 1.556795 1_555
O5 V3 2.079379 1_555
O6 P0 1.586938 1_555
O6 V2 2.132087 1_655
O6 Sr0 2.725006 1_554
O7 P5 1.538350 1_555
O7 Sr3 2.422888 1_555
O7 Sr0 2.644653 1_564
O8 P6 1.586938 1_555
O8 V3 2.132087 1_455
O8 Sr1 2.725006 1_555
O9 P6 1.586938 1_555
O9 V3 2.132087 1_555
O9 Sr1 2.725006 1_555
O10 P0 1.586938 1_555
O10 V2 2.132087 1_555
O10 Sr0 2.725006 1_554
O11 P2 1.586938 1_555
O11 V0 2.132087 1_655
O11 Sr2 2.725006 1_555
O12 P2 1.550590 1_565
O12 V3 2.218482 1_555
O13 V0 1.662457 1_555
O13 Sr1 2.827377 1_555
O14 P3 1.556795 1_555
O14 V2 2.079379 1_556
O15 P1 1.560209 1_555
O15 V2 1.987239 1_555
O16 P3 1.560209 1_555
O16 V0 1.987239 1_555
O17 P1 1.556795 1_555
O17 V0 2.079379 1_555
O18 P7 1.586938 1_555
O18 V1 2.132087 1_555
O18 Sr3 2.725006 1_556
O19 P5 1.560209 1_555
O19 V3 1.987239 1_555
O20 P7 1.586938 1_555
O20 V1 2.132087 1_455
O20 Sr3 2.725006 1_556
O21 P3 1.538350 1_555
O21 Sr0 2.422888 1_455
O21 Sr3 2.644653 1_546
O22 P7 1.550590 1_555
O22 V2 2.218482 1_556
O23 P3 1.538350 1_555
O23 Sr0 2.422888 1_555
O23 Sr3 2.644653 1_546
O24 V3 1.662457 1_555
O24 Sr2 2.827377 1_555
O25 P7 1.546796 1_555
O25 Sr1 2.674280 1_555
O26 P0 1.546796 1_555
O26 Sr2 2.674280 1_555
O27 P5 1.538350 1_555
O27 Sr3 2.422888 1_655
O27 Sr0 2.644653 1_564
O28 P5 1.556795 1_555
O28 V1 2.079379 1_554
O29 P2 1.546796 1_555
O29 Sr0 2.674280 1_555
O30 V1 1.662457 1_555
O30 Sr0 2.827377 1_565
O31 P6 1.550590 1_545
O31 V0 2.218482 1_555
O32 P1 1.538350 1_555
O32 Sr2 2.422888 1_555
O32 Sr1 2.644653 1_555
O33 P4 1.538350 1_555
O33 Sr1 2.422888 1_555
O33 Sr2 2.644653 1_555
O34 V2 1.662457 1_555
O34 Sr3 2.827377 1_545
O35 P2 1.586938 1_555
O35 V0 2.132087 1_555
O35 Sr2 2.725006 1_555
