# generated using pymatgen
data_SiC
_symmetry_space_group_name_H-M   'P 1'
_cell_length_a   3.07637091
_cell_length_b   3.07636943
_cell_length_c   25.16872034
_cell_angle_alpha   90.00000000
_cell_angle_beta   90.00000000
_cell_angle_gamma   119.99999447
_symmetry_Int_Tables_number   1
_chemical_formula_structural   SiC
_chemical_formula_sum   'Si10 C10'
_cell_volume   206.28562954
_cell_formula_units_Z   10
loop_
 _symmetry_equiv_pos_site_id
 _symmetry_equiv_pos_as_xyz
  1  'x, y, z'
loop_
 _atom_site_type_symbol
 _atom_site_label
 _atom_site_symmetry_multiplicity
 _atom_site_fract_x
 _atom_site_fract_y
 _atom_site_fract_z
 _atom_site_occupancy
  Si  Si0  1  0.66666700  0.33333300  0.19989744  1
  Si  Si1  1  0.66666700  0.33333300  0.39993394  1
  Si  Si2  1  -0.00000000  0.00000000  0.29992609  1
  Si  Si3  1  0.66666700  0.33333300  0.59997804  1
  Si  Si4  1  -0.00000000  0.00000000  0.99997590  1
  Si  Si5  1  -0.00000000  0.00000000  0.70000626  1
  Si  Si6  1  0.33333300  0.66666700  0.89989017  1
  Si  Si7  1  0.66666700  0.33333300  0.80000688  1
  Si  Si8  1  0.33333300  0.66666700  0.10002384  1
  Si  Si9  1  0.33333300  0.66666700  0.49997826  1
  C  C0  1  -0.00000000  0.00000000  0.77520187  1
  C  C1  1  -0.00000000  0.00000000  0.07521580  1
  C  C2  1  0.66666700  0.33333300  0.67493727  1
  C  C3  1  0.66666700  0.33333300  0.27487874  1
  C  C4  1  0.33333300  0.66666700  0.17502826  1
  C  C5  1  0.33333300  0.66666700  0.57518757  1
  C  C6  1  0.66666700  0.33333300  0.47489835  1
  C  C7  1  0.33333300  0.66666700  0.97489882  1
  C  C8  1  -0.00000000  0.00000000  0.37513705  1
  C  C9  1  0.66666700  0.33333300  0.87500344  1
loop_
_geom_bond_atom_site_label_1
_geom_bond_atom_site_label_2
_geom_bond_distance
_geom_bond_site_symmetry_2
C0 Si7 1.882669 1_455
C0 Si7 1.882671 1_445
C0 Si7 1.882672 1_555
C0 Si5 1.892577 1_555
C1 Si8 1.882694 1_545
C1 Si8 1.882696 1_555
C1 Si8 1.882697 1_445
C1 Si4 1.893692 1_554
C2 Si5 1.884882 1_655
C2 Si5 1.884885 1_665
C2 Si5 1.884885 1_555
C2 Si3 1.886628 1_555
C3 Si2 1.884700 1_655
C3 Si2 1.884702 1_665
C3 Si2 1.884703 1_555
C3 Si0 1.887183 1_555
C4 Si0 1.883205 1_565
C4 Si0 1.883205 1_455
C4 Si0 1.883210 1_555
C4 Si8 1.887765 1_555
C5 Si3 1.882547 1_565
C5 Si3 1.882548 1_455
C5 Si3 1.882552 1_555
C5 Si9 1.892922 1_555
C6 Si9 1.884974 1_545
C6 Si9 1.884975 1_655
C6 Si9 1.884979 1_555
C6 Si1 1.886758 1_555
C7 Si4 1.884951 1_565
C7 Si4 1.884953 1_555
C7 Si4 1.884954 1_665
C7 Si6 1.887872 1_555
C8 Si1 1.882601 1_455
C8 Si1 1.882603 1_445
C8 Si1 1.882604 1_555
C8 Si2 1.892964 1_555
C9 Si6 1.883351 1_545
C9 Si6 1.883352 1_655
C9 Si6 1.883357 1_555
C9 Si7 1.887567 1_555
