# generated using pymatgen
data_KTiPSe5
_symmetry_space_group_name_H-M   'P 1'
_cell_length_a   10.01635871
_cell_length_b   10.01635871
_cell_length_c   6.75109851
_cell_angle_alpha   82.11033846
_cell_angle_beta   82.11033846
_cell_angle_gamma   43.52960363
_symmetry_Int_Tables_number   1
_chemical_formula_structural   KTiPSe5
_chemical_formula_sum   'K2 Ti2 P2 Se10'
_cell_volume   461.36693264
_cell_formula_units_Z   2
loop_
 _symmetry_equiv_pos_site_id
 _symmetry_equiv_pos_as_xyz
  1  'x, y, z'
loop_
 _atom_site_type_symbol
 _atom_site_label
 _atom_site_symmetry_multiplicity
 _atom_site_fract_x
 _atom_site_fract_y
 _atom_site_fract_z
 _atom_site_occupancy
  K  K0  1  0.73064194  0.73064194  0.76743009  1
  K  K1  1  0.26935806  0.26935806  0.23256991  1
  Ti  Ti0  1  0.72331476  0.27668524  0.00000000  1
  Ti  Ti1  1  0.27668524  0.72331476  0.00000000  1
  P  P0  1  0.86412790  0.86412790  0.21192411  1
  P  P1  1  0.13587210  0.13587210  0.78807589  1
  Se  Se0  1  0.08439391  0.08439391  0.11010509  1
  Se  Se1  1  0.56077010  0.56077010  0.18056543  1
  Se  Se2  1  0.32559867  0.84647151  0.66855730  1
  Se  Se3  1  0.91560609  0.91560609  0.88989491  1
  Se  Se4  1  0.67440133  0.15352849  0.33144270  1
  Se  Se5  1  0.84647151  0.32559867  0.66855730  1
  Se  Se6  1  0.43922990  0.43922990  0.81943457  1
  Se  Se7  1  0.74723971  0.74723971  0.25759801  1
  Se  Se8  1  0.15352849  0.67440133  0.33144270  1
  Se  Se9  1  0.25276029  0.25276029  0.74240199  1
loop_
_geom_bond_atom_site_label_1
_geom_bond_atom_site_label_2
_geom_bond_distance
_geom_bond_site_symmetry_2
K0 Se7 3.368685 1_556
K0 Se7 3.409990 1_555
K0 Se2 3.457876 1_555
K0 Se5 3.457876 1_555
K0 Se3 3.656008 1_555
K0 Se9 3.737836 1_565
K0 Se9 3.737836 1_655
K0 Se1 3.893800 1_556
K1 Se9 3.368685 1_554
K1 Se9 3.409990 1_555
K1 Se4 3.457876 1_555
K1 Se8 3.457876 1_555
K1 Se0 3.656008 1_555
K1 Se7 3.737836 1_545
K1 Se7 3.737836 1_455
K1 Se6 3.893800 1_554
P0 Se7 2.150820 1_555
P0 Se8 2.213261 1_655
P0 Se4 2.213261 1_565
P0 Se3 2.242377 1_554
P1 Se9 2.150820 1_555
P1 Se5 2.213261 1_455
P1 Se2 2.213261 1_545
P1 Se0 2.242377 1_556
Se0 Ti0 2.754421 1_455
Se0 Ti1 2.754421 1_545
Se1 Ti1 2.433782 1_555
Se1 Ti0 2.433782 1_555
Se2 Ti1 2.566368 1_556
Se3 Ti1 2.754421 1_656
Se3 Ti0 2.754421 1_566
Se4 Ti0 2.566368 1_555
Se5 Ti0 2.566368 1_556
Se6 Ti0 2.433782 1_556
Se6 Ti1 2.433782 1_556
Se8 Ti1 2.566368 1_555
