# generated using pymatgen
data_Li3(CuO2)2
_symmetry_space_group_name_H-M   'P 1'
_cell_length_a   5.14344976
_cell_length_b   5.14344976
_cell_length_c   7.15945632
_cell_angle_alpha   62.57232134
_cell_angle_beta   62.57232134
_cell_angle_gamma   31.11964219
_symmetry_Int_Tables_number   1
_chemical_formula_structural   Li3(CuO2)2
_chemical_formula_sum   'Li3 Cu2 O4'
_cell_volume   85.97368548
_cell_formula_units_Z   1
loop_
 _symmetry_equiv_pos_site_id
 _symmetry_equiv_pos_as_xyz
  1  'x, y, z'
loop_
 _atom_site_type_symbol
 _atom_site_label
 _atom_site_symmetry_multiplicity
 _atom_site_fract_x
 _atom_site_fract_y
 _atom_site_fract_z
 _atom_site_occupancy
  Li  Li0  1  0.35963240  0.35963240  0.87113670  1
  Li  Li1  1  0.00000000  -0.00000000  0.50000000  1
  Li  Li2  1  0.64036760  0.64036760  0.12886330  1
  Cu  Cu0  1  0.84191817  0.84191817  0.26871733  1
  Cu  Cu1  1  0.15808183  0.15808183  0.73128267  1
  O  O0  1  0.74396397  0.74396397  0.82064502  1
  O  O1  1  0.25603603  0.25603603  0.17935498  1
  O  O2  1  0.43511136  0.43511136  0.34528973  1
  O  O3  1  0.56488864  0.56488864  0.65471027  1
loop_
_geom_bond_atom_site_label_1
_geom_bond_atom_site_label_2
_geom_bond_distance
_geom_bond_site_symmetry_2
Li0 O3 1.877313 1_555
Li0 O0 1.935053 1_545
Li0 O0 1.935053 1_455
Li0 O1 1.938281 1_556
Li1 O2 2.055500 1_545
Li1 O2 2.055500 1_455
Li1 O3 2.055500 1_545
Li1 O3 2.055500 1_455
Li1 O1 2.477422 1_555
Li1 O0 2.477422 1_445
Li2 O2 1.877313 1_555
Li2 O1 1.935053 1_565
Li2 O1 1.935053 1_655
Li2 O0 1.938281 1_554
Cu0 O2 1.881810 1_565
Cu0 O2 1.881810 1_655
Cu0 O1 1.886256 1_565
Cu0 O1 1.886256 1_655
Cu1 O3 1.881810 1_545
Cu1 O3 1.881810 1_455
Cu1 O0 1.886256 1_455
Cu1 O0 1.886256 1_545
