# generated using pymatgen
data_VO2
_symmetry_space_group_name_H-M   'P 1'
_cell_length_a   7.26698000
_cell_length_b   4.62020800
_cell_length_c   9.09218557
_cell_angle_alpha   78.78118842
_cell_angle_beta   90.00000000
_cell_angle_gamma   90.00000000
_symmetry_Int_Tables_number   1
_chemical_formula_structural   VO2
_chemical_formula_sum   'V4 O8'
_cell_volume   299.43645997
_cell_formula_units_Z   4
loop_
 _symmetry_equiv_pos_site_id
 _symmetry_equiv_pos_as_xyz
  1  'x, y, z'
loop_
 _atom_site_type_symbol
 _atom_site_label
 _atom_site_symmetry_multiplicity
 _atom_site_fract_x
 _atom_site_fract_y
 _atom_site_fract_z
 _atom_site_occupancy
  V  V0  1  0.00000000  0.65557800  0.29315400  1
  V  V1  1  0.00000000  0.34442200  0.70684600  1
  V  V2  1  0.18733200  0.00000000  0.50000000  1
  V  V3  1  0.81266800  0.00000000  0.50000000  1
  O  O0  1  0.00000000  0.24703200  0.38360700  1
  O  O1  1  0.00000000  0.75296800  0.61639300  1
  O  O2  1  0.77381500  0.23665200  0.64168400  1
  O  O3  1  0.77381500  0.76334800  0.35831600  1
  O  O4  1  0.22618500  0.76334800  0.35831600  1
  O  O5  1  0.22618500  0.23665200  0.64168400  1
  O  O6  1  0.00000000  0.31721500  0.88653700  1
  O  O7  1  0.00000000  0.68278500  0.11346300  1
loop_
_geom_bond_atom_site_label_1
_geom_bond_atom_site_label_2
_geom_bond_distance
_geom_bond_site_symmetry_2
O0 V0 1.906629 1_555
O0 V2 1.950856 1_555
O0 V3 1.950856 1_455
O1 V1 1.906629 1_555
O1 V2 1.950856 1_565
O1 V3 1.950856 1_465
O2 V1 1.848085 1_655
O2 V3 1.866219 1_555
O3 V0 1.848085 1_655
O3 V3 1.866219 1_565
O4 V0 1.848085 1_555
O4 V2 1.866219 1_565
O5 V1 1.848085 1_555
O5 V2 1.866219 1_555
O6 V1 1.614044 1_555
O7 V0 1.614044 1_555
