# generated using pymatgen
data_NaCa2ScZn2(SiO3)6
_symmetry_space_group_name_H-M   'P 1'
_cell_length_a   14.50546724
_cell_length_b   14.50546724
_cell_length_c   5.34732461
_cell_angle_alpha   84.49021010
_cell_angle_beta   84.49021010
_cell_angle_gamma   139.83472754
_symmetry_Int_Tables_number   1
_chemical_formula_structural   NaCa2ScZn2(SiO3)6
_chemical_formula_sum   'Na2 Ca4 Sc2 Zn4 Si12 O36'
_cell_volume   696.74992049
_cell_formula_units_Z   2
loop_
 _symmetry_equiv_pos_site_id
 _symmetry_equiv_pos_as_xyz
  1  'x, y, z'
loop_
 _atom_site_type_symbol
 _atom_site_label
 _atom_site_symmetry_multiplicity
 _atom_site_fract_x
 _atom_site_fract_y
 _atom_site_fract_z
 _atom_site_occupancy
  Na  Na0  1  0.76798300  0.23201700  0.25000000  1
  Na  Na1  1  0.23201700  0.76798300  0.75000000  1
  Ca  Ca0  1  0.09942500  0.90057500  0.25000000  1
  Ca  Ca1  1  0.43305900  0.56694100  0.25000000  1
  Ca  Ca2  1  0.56694100  0.43305900  0.75000000  1
  Ca  Ca3  1  0.90057500  0.09942500  0.75000000  1
  Sc  Sc0  1  0.29887300  0.70112700  0.25000000  1
  Sc  Sc1  1  0.70112700  0.29887300  0.75000000  1
  Zn  Zn0  1  0.63431400  0.36568600  0.25000000  1
  Zn  Zn1  1  0.96799700  0.03200300  0.25000000  1
  Zn  Zn2  1  0.03200300  0.96799700  0.75000000  1
  Zn  Zn3  1  0.36568600  0.63431400  0.75000000  1
  Si  Si0  1  0.74434900  0.68296900  0.23038100  1
  Si  Si1  1  0.31703100  0.25565100  0.26961900  1
  Si  Si2  1  0.07472600  0.34720400  0.23719800  1
  Si  Si3  1  0.34720400  0.07472600  0.73719800  1
  Si  Si4  1  0.65279600  0.92527400  0.26280200  1
  Si  Si5  1  0.40939500  0.01643400  0.23733900  1
  Si  Si6  1  0.92527400  0.65279600  0.76280200  1
  Si  Si7  1  0.68296900  0.74434900  0.73038100  1
  Si  Si8  1  0.98356600  0.59060500  0.26266100  1
  Si  Si9  1  0.25565100  0.31703100  0.76961900  1
  Si  Si10  1  0.01643400  0.40939500  0.73733900  1
  Si  Si11  1  0.59060500  0.98356600  0.76266100  1
  O  O0  1  0.35478100  0.34294100  0.50347600  1
  O  O1  1  0.71859200  0.55444800  0.32418100  1
  O  O2  1  0.91326500  0.85331500  0.14442900  1
  O  O3  1  0.68715100  0.00878200  0.49809700  1
  O  O4  1  0.14668500  0.08673500  0.35557100  1
  O  O5  1  0.05574200  0.22317800  0.32249200  1
  O  O6  1  0.00878200  0.68715100  0.99809700  1
  O  O7  1  0.44555200  0.28140800  0.17581900  1
  O  O8  1  0.24425500  0.52021200  0.15113400  1
  O  O9  1  0.22317800  0.05574200  0.82249200  1
  O  O10  1  0.65705900  0.64521900  0.99652400  1
  O  O11  1  0.02048200  0.67966700  0.49096600  1
  O  O12  1  0.52021200  0.24425500  0.65113400  1
  O  O13  1  0.47978800  0.75574500  0.34886600  1
  O  O14  1  0.38916500  0.89065200  0.31232900  1
  O  O15  1  0.34294100  0.35478100  0.00347600  1
  O  O16  1  0.77682200  0.94425800  0.17750800  1
  O  O17  1  0.75574500  0.47978800  0.84886600  1
  O  O18  1  0.57769700  0.18791400  0.14306600  1
  O  O19  1  0.55444800  0.71859200  0.82418100  1
  O  O20  1  0.99121800  0.31284900  0.00190300  1
  O  O21  1  0.94425800  0.77682200  0.67750800  1
  O  O22  1  0.85331500  0.91326500  0.64442900  1
  O  O23  1  0.81208600  0.42230300  0.35693400  1
  O  O24  1  0.31284900  0.99121800  0.50190300  1
  O  O25  1  0.67966700  0.02048200  0.99096600  1
  O  O26  1  0.10934800  0.61083500  0.18767100  1
  O  O27  1  0.08673500  0.14668500  0.85557100  1
  O  O28  1  0.89065200  0.38916500  0.81232900  1
  O  O29  1  0.32033300  0.97951800  0.00903400  1
  O  O30  1  0.28140800  0.44555200  0.67581900  1
  O  O31  1  0.18791400  0.57769700  0.64306600  1
  O  O32  1  0.64521900  0.65705900  0.49652400  1
  O  O33  1  0.42230300  0.81208600  0.85693400  1
  O  O34  1  0.61083500  0.10934800  0.68767100  1
  O  O35  1  0.97951800  0.32033300  0.50903400  1
loop_
_geom_bond_atom_site_label_1
_geom_bond_atom_site_label_2
_geom_bond_distance
_geom_bond_site_symmetry_2
Na0 O34 2.411691 1_555
Na0 O28 2.411691 1_554
Na0 O18 2.455486 1_555
Na0 O23 2.455486 1_555
Na0 O3 2.587236 1_555
Na0 O20 2.587236 1_555
Na0 O35 2.850269 1_555
Na0 O25 2.850269 1_554
Na1 O26 2.411691 1_556
Na1 O14 2.411691 1_555
Na1 O31 2.455486 1_555
Na1 O33 2.455486 1_555
Na1 O6 2.587236 1_555
Na1 O24 2.587236 1_555
Na1 O11 2.850269 1_555
Na1 O29 2.850269 1_556
Ca0 O21 2.358598 1_455
Ca0 O9 2.358598 1_564
Ca0 O4 2.370284 1_565
Ca0 O2 2.370284 1_455
Ca0 O11 2.560315 1_555
Ca0 O29 2.560315 1_555
Ca0 O24 2.836721 1_555
Ca0 O6 2.836721 1_554
Ca1 O19 2.339312 1_554
Ca1 O30 2.339312 1_555
Ca1 O13 2.397708 1_555
Ca1 O8 2.397708 1_555
Ca1 O10 2.627528 1_554
Ca1 O0 2.627528 1_555
Ca1 O32 2.806938 1_555
Ca1 O15 2.806938 1_555
Ca2 O1 2.339312 1_555
Ca2 O7 2.339312 1_556
Ca2 O17 2.397708 1_555
Ca2 O12 2.397708 1_555
Ca2 O32 2.627528 1_555
Ca2 O15 2.627528 1_556
Ca2 O10 2.806938 1_555
Ca2 O0 2.806938 1_555
Ca3 O5 2.358598 1_655
Ca3 O16 2.358598 1_546
Ca3 O27 2.370284 1_655
Ca3 O22 2.370284 1_545
Ca3 O35 2.560315 1_555
Ca3 O25 2.560315 1_555
Ca3 O20 2.836721 1_556
Ca3 O3 2.836721 1_555
O0 Si1 1.686034 1_555
O0 Si9 1.706633 1_555
O1 Si0 1.608271 1_555
O1 Zn0 2.081997 1_555
O2 Si0 1.622563 1_555
O2 Zn2 2.105200 1_654
O2 Zn1 2.211150 1_565
O3 Si4 1.670086 1_545
O3 Si11 1.683364 1_545
O4 Si1 1.622563 1_555
O4 Zn2 2.105200 1_545
O4 Zn1 2.211150 1_455
O5 Si2 1.606734 1_555
O5 Zn1 2.089725 1_455
O6 Si6 1.670086 1_455
O6 Si8 1.683364 1_456
O7 Si1 1.608271 1_555
O7 Zn0 2.081997 1_555
O8 Si2 1.638829 1_555
O8 Zn3 2.140083 1_554
O8 Sc0 2.227803 1_555
O9 Si3 1.606734 1_555
O9 Zn2 2.089725 1_545
O10 Si0 1.686034 1_556
O10 Si7 1.706633 1_555
O11 Si8 1.678455 1_455
O11 Si6 1.689708 1_455
O12 Si3 1.638829 1_555
O12 Zn0 2.140083 1_555
O12 Sc1 2.227803 1_555
O13 Si4 1.638829 1_555
O13 Zn3 2.140083 1_555
O13 Sc0 2.227803 1_555
O14 Si5 1.610721 1_565
O14 Sc0 2.034932 1_555
O15 Si9 1.686034 1_554
O15 Si1 1.706633 1_555
O16 Si4 1.606734 1_555
O16 Zn1 2.089725 1_565
O17 Si6 1.638829 1_555
O17 Zn0 2.140083 1_556
O17 Sc1 2.227803 1_555
O18 Si5 1.625751 1_555
O18 Sc1 2.106489 1_554
O18 Zn0 2.188052 1_555
O19 Si7 1.608271 1_555
O19 Zn3 2.081997 1_555
O20 Si2 1.670086 1_655
O20 Si10 1.683364 1_654
O21 Si6 1.606734 1_555
O21 Zn2 2.089725 1_655
O22 Si7 1.622563 1_555
O22 Zn1 2.105200 1_565
O22 Zn2 2.211150 1_655
O23 Si8 1.625751 1_555
O23 Sc1 2.106489 1_555
O23 Zn0 2.188052 1_555
O24 Si3 1.670086 1_565
O24 Si5 1.683364 1_565
O25 Si11 1.678455 1_545
O25 Si4 1.689708 1_546
O26 Si8 1.610721 1_455
O26 Sc0 2.034932 1_555
O27 Si9 1.622563 1_555
O27 Zn1 2.105200 1_456
O27 Zn2 2.211150 1_545
O28 Si10 1.610721 1_655
O28 Sc1 2.034932 1_555
O29 Si5 1.678455 1_565
O29 Si3 1.689708 1_564
O30 Si9 1.608271 1_555
O30 Zn3 2.081997 1_555
O31 Si10 1.625751 1_555
O31 Sc0 2.106489 1_555
O31 Zn3 2.188052 1_555
O32 Si7 1.686034 1_555
O32 Si0 1.706633 1_555
O33 Si11 1.625751 1_555
O33 Sc0 2.106489 1_556
O33 Zn3 2.188052 1_555
O34 Si11 1.610721 1_545
O34 Sc1 2.034932 1_555
O35 Si10 1.678455 1_655
O35 Si2 1.689708 1_655
