# generated using pymatgen
data_UAg2(SeO4)2
_symmetry_space_group_name_H-M   'P 1'
_cell_length_a   6.63315700
_cell_length_b   5.99861100
_cell_length_c   21.68985918
_cell_angle_alpha   80.49377908
_cell_angle_beta   90.00000000
_cell_angle_gamma   90.00000000
_symmetry_Int_Tables_number   1
_chemical_formula_structural   UAg2(SeO4)2
_chemical_formula_sum   'U4 Ag8 Se8 O32'
_cell_volume   851.18215156
_cell_formula_units_Z   4
loop_
 _symmetry_equiv_pos_site_id
 _symmetry_equiv_pos_as_xyz
  1  'x, y, z'
loop_
 _atom_site_type_symbol
 _atom_site_label
 _atom_site_symmetry_multiplicity
 _atom_site_fract_x
 _atom_site_fract_y
 _atom_site_fract_z
 _atom_site_occupancy
  U  U0  1  0.58937200  0.27775400  0.14517100  1
  U  U1  1  0.08937200  0.72224600  0.35482900  1
  U  U2  1  0.41062800  0.72224600  0.85482900  1
  U  U3  1  0.91062800  0.27775400  0.64517100  1
  Ag  Ag0  1  0.59638400  0.26939900  0.33950800  1
  Ag  Ag1  1  0.09638400  0.73060100  0.16049200  1
  Ag  Ag2  1  0.60406400  0.76145000  0.45847900  1
  Ag  Ag3  1  0.10406400  0.23855000  0.04152100  1
  Ag  Ag4  1  0.39593600  0.23855000  0.54152100  1
  Ag  Ag5  1  0.40361600  0.73060100  0.66049200  1
  Ag  Ag6  1  0.89593600  0.76145000  0.95847900  1
  Ag  Ag7  1  0.90361600  0.26939900  0.83950800  1
  Se  Se0  1  0.56148600  0.80431100  0.27511000  1
  Se  Se1  1  0.15521300  0.73777700  0.52379500  1
  Se  Se2  1  0.43851400  0.19568900  0.72489000  1
  Se  Se3  1  0.65521300  0.26222300  0.97620500  1
  Se  Se4  1  0.84478700  0.26222300  0.47620500  1
  Se  Se5  1  0.06148600  0.19568900  0.22489000  1
  Se  Se6  1  0.93851400  0.80431100  0.77511000  1
  Se  Se7  1  0.34478700  0.73777700  0.02379500  1
  O  O0  1  0.74837300  0.33285800  0.54506900  1
  O  O1  1  0.80868300  0.54024900  0.66442100  1
  O  O2  1  0.64020500  0.08626700  0.25087400  1
  O  O3  1  0.63968500  0.53285400  0.93226200  1
  O  O4  1  0.30868300  0.45975100  0.83557900  1
  O  O5  1  0.72132400  0.66220800  0.80351500  1
  O  O6  1  0.55846400  0.15126000  0.65677800  1
  O  O7  1  0.05846400  0.84874000  0.84322200  1
  O  O8  1  0.62348500  0.16692600  0.44807600  1
  O  O9  1  0.49233200  0.01217500  0.12700800  1
  O  O10  1  0.99233200  0.98782500  0.37299200  1
  O  O11  1  0.50766800  0.98782500  0.87299200  1
  O  O12  1  0.75162700  0.33285800  0.04506900  1
  O  O13  1  0.87651500  0.16692600  0.94807600  1
  O  O14  1  0.36031500  0.46714600  0.06773800  1
  O  O15  1  0.27867600  0.33779200  0.19648500  1
  O  O16  1  0.22132400  0.33779200  0.69648500  1
  O  O17  1  0.44153600  0.84874000  0.34322200  1
  O  O18  1  0.24837300  0.66714200  0.95493100  1
  O  O19  1  0.69131700  0.54024900  0.16442100  1
  O  O20  1  0.77867600  0.66220800  0.30351500  1
  O  O21  1  0.86031500  0.53285400  0.43226200  1
  O  O22  1  0.25162700  0.66714200  0.45493100  1
  O  O23  1  0.14020500  0.91373300  0.24912600  1
  O  O24  1  0.00766800  0.01217500  0.62700800  1
  O  O25  1  0.35979500  0.91373300  0.74912600  1
  O  O26  1  0.94153600  0.15126000  0.15677800  1
  O  O27  1  0.85979500  0.08626700  0.75087400  1
  O  O28  1  0.13968500  0.46714600  0.56773800  1
  O  O29  1  0.12348500  0.83307400  0.05192400  1
  O  O30  1  0.19131700  0.45975100  0.33557900  1
  O  O31  1  0.37651500  0.83307400  0.55192400  1
loop_
_geom_bond_atom_site_label_1
_geom_bond_atom_site_label_2
_geom_bond_distance
_geom_bond_site_symmetry_2
Ag0 O8 2.340351 1_555
Ag0 O2 2.384261 1_555
Ag0 O20 2.648799 1_555
Ag0 O17 2.713253 1_545
Ag1 O29 2.340351 1_555
Ag1 O23 2.384261 1_555
Ag1 O15 2.648799 1_555
Ag1 O26 2.713253 1_465
Ag2 O21 2.313099 1_555
Ag2 O8 2.408791 1_565
Ag2 O22 2.409462 1_555
Ag2 O31 2.618850 1_555
Ag2 O17 2.693248 1_555
Ag3 O14 2.313099 1_555
Ag3 O29 2.408791 1_545
Ag3 O12 2.409462 1_455
Ag3 O13 2.618850 1_454
Ag3 O26 2.693248 1_455
Ag4 O28 2.313099 1_555
Ag4 O31 2.408791 1_545
Ag4 O0 2.409462 1_555
Ag4 O8 2.618850 1_555
Ag4 O6 2.693248 1_555
Ag5 O31 2.340351 1_555
Ag5 O25 2.384261 1_555
Ag5 O16 2.648799 1_555
Ag5 O6 2.713253 1_565
Ag6 O3 2.313099 1_555
Ag6 O13 2.408791 1_565
Ag6 O18 2.409462 1_655
Ag6 O29 2.618850 1_656
Ag6 O7 2.693248 1_655
Ag7 O13 2.340351 1_555
Ag7 O27 2.384261 1_555
Ag7 O5 2.648799 1_555
Ag7 O7 2.713253 1_645
O0 Se4 1.740278 1_555
O0 U3 2.396799 1_555
O1 U3 1.824320 1_555
O2 Se0 1.765205 1_545
O2 U0 2.412391 1_555
O3 Se3 1.744538 1_555
O3 U2 2.406177 1_555
O4 U2 1.824320 1_555
O5 Se6 1.734421 1_555
O5 U2 2.397530 1_555
O6 Se2 1.736856 1_555
O6 U3 2.456165 1_555
O7 Se6 1.736856 1_455
O7 U2 2.456165 1_555
O8 Se4 1.723092 1_555
O9 U0 1.820663 1_555
O10 U1 1.820663 1_655
O11 U2 1.820663 1_555
O12 Se3 1.740278 1_554
O12 U0 2.396799 1_555
O13 Se3 1.723092 1_555
O14 Se7 1.744538 1_555
O14 U0 2.406177 1_555
O15 Se5 1.734421 1_555
O15 U0 2.397530 1_555
O16 Se2 1.734421 1_555
O16 U3 2.397530 1_455
O17 Se0 1.736856 1_555
O17 U1 2.456165 1_555
O18 Se7 1.740278 1_556
O18 U2 2.396799 1_555
O19 U0 1.824320 1_555
O20 Se0 1.734421 1_555
O20 U1 2.397530 1_655
O21 Se4 1.744538 1_555
O21 U1 2.406177 1_655
O22 Se1 1.740278 1_555
O22 U1 2.396799 1_555
O23 Se5 1.765205 1_565
O23 U1 2.412391 1_555
O24 U3 1.820663 1_455
O25 Se2 1.765205 1_565
O25 U2 2.412391 1_555
O26 Se5 1.736856 1_655
O26 U0 2.456165 1_555
O27 Se6 1.765205 1_545
O27 U3 2.412391 1_555
O28 Se1 1.744538 1_555
O28 U3 2.406177 1_455
O29 Se7 1.723092 1_555
O30 U1 1.824320 1_555
O31 Se1 1.723092 1_555
