# generated using pymatgen
data_Na2TiS2O
_symmetry_space_group_name_H-M   'P 1'
_cell_length_a   13.72007400
_cell_length_b   5.79476900
_cell_length_c   6.92986745
_cell_angle_alpha   66.72478862
_cell_angle_beta   90.00000000
_cell_angle_gamma   90.00000000
_symmetry_Int_Tables_number   1
_chemical_formula_structural   Na2TiS2O
_chemical_formula_sum   'Na8 Ti4 S8 O4'
_cell_volume   506.11847335
_cell_formula_units_Z   4
loop_
 _symmetry_equiv_pos_site_id
 _symmetry_equiv_pos_as_xyz
  1  'x, y, z'
loop_
 _atom_site_type_symbol
 _atom_site_label
 _atom_site_symmetry_multiplicity
 _atom_site_fract_x
 _atom_site_fract_y
 _atom_site_fract_z
 _atom_site_occupancy
  Na  Na0  1  0.36051300  0.45527000  0.60390000  1
  Na  Na1  1  0.94217800  0.35208700  0.78611700  1
  Na  Na2  1  0.13948700  0.95527000  0.60390000  1
  Na  Na3  1  0.44217800  0.14791300  0.21388300  1
  Na  Na4  1  0.55782200  0.85208700  0.78611700  1
  Na  Na5  1  0.86051300  0.04473000  0.39610000  1
  Na  Na6  1  0.05782200  0.64791300  0.21388300  1
  Na  Na7  1  0.63948700  0.54473000  0.39610000  1
  Ti  Ti0  1  0.31707100  0.83743900  0.97861300  1
  Ti  Ti1  1  0.68292900  0.16256100  0.02138700  1
  Ti  Ti2  1  0.18292900  0.33743900  0.97861300  1
  Ti  Ti3  1  0.81707100  0.66256100  0.02138700  1
  S  S0  1  0.55830900  0.35217400  0.80840300  1
  S  S1  1  0.35702100  0.94116700  0.63961700  1
  S  S2  1  0.85702100  0.55883300  0.36038300  1
  S  S3  1  0.94169100  0.85217400  0.80840300  1
  S  S4  1  0.64297900  0.05883300  0.36038300  1
  S  S5  1  0.14297900  0.44116700  0.63961700  1
  S  S6  1  0.44169100  0.64782600  0.19159700  1
  S  S7  1  0.05830900  0.14782600  0.19159700  1
  O  O0  1  0.70857500  0.86864800  0.97994400  1
  O  O1  1  0.20857500  0.63135200  0.02005600  1
  O  O2  1  0.79142500  0.36864800  0.97994400  1
  O  O3  1  0.29142500  0.13135200  0.02005600  1
loop_
_geom_bond_atom_site_label_1
_geom_bond_atom_site_label_2
_geom_bond_distance
_geom_bond_site_symmetry_2
Na0 S6 2.851244 1_555
Na0 S1 2.890658 1_545
Na0 O3 2.908718 1_556
Na0 S1 2.922717 1_555
Na0 S5 2.993274 1_555
Na0 S0 3.010113 1_555
Na1 O2 2.488633 1_555
Na1 S3 2.839408 1_545
Na1 S5 2.910847 1_655
Na1 S2 2.951470 1_555
Na1 S3 2.962322 1_555
Na1 S7 3.034284 1_656
Na2 S7 2.851244 1_565
Na2 S5 2.890658 1_555
Na2 O1 2.908718 1_556
Na2 S5 2.922717 1_565
Na2 S1 2.993274 1_555
Na2 S3 3.010113 1_455
Na3 O3 2.488633 1_555
Na3 S6 2.839408 1_555
Na3 S4 2.910847 1_555
Na3 S1 2.951470 1_545
Na3 S6 2.962322 1_545
Na3 S0 3.034284 1_554
Na4 O0 2.488633 1_555
Na4 S0 2.839408 1_555
Na4 S1 2.910847 1_555
Na4 S4 2.951470 1_565
Na4 S0 2.962322 1_565
Na4 S6 3.034284 1_556
Na5 S3 2.851244 1_545
Na5 S2 2.890658 1_555
Na5 O2 2.908718 1_554
Na5 S2 2.922717 1_545
Na5 S4 2.993274 1_555
Na5 S7 3.010113 1_655
Na6 O1 2.488633 1_555
Na6 S7 2.839408 1_565
Na6 S2 2.910847 1_455
Na6 S5 2.951470 1_555
Na6 S7 2.962322 1_555
Na6 S3 3.034284 1_454
Na7 S0 2.851244 1_555
Na7 S4 2.890658 1_565
Na7 O0 2.908718 1_554
Na7 S4 2.922717 1_555
Na7 S2 2.993274 1_555
Na7 S6 3.010113 1_555
S0 Ti1 2.242203 1_556
S1 Ti0 2.250448 1_555
S2 Ti3 2.250448 1_555
S3 Ti3 2.242203 1_556
S4 Ti1 2.250448 1_555
S5 Ti2 2.250448 1_555
S6 Ti0 2.242203 1_554
S7 Ti2 2.242203 1_554
O0 Ti3 1.858348 1_556
O0 Ti1 1.869117 1_566
O1 Ti0 1.858348 1_554
O1 Ti2 1.869117 1_554
O2 Ti1 1.858348 1_556
O2 Ti3 1.869117 1_556
O3 Ti2 1.858348 1_554
O3 Ti0 1.869117 1_544
