# generated using pymatgen
data_Cs2PbO2
_symmetry_space_group_name_H-M   'P 1'
_cell_length_a   7.86817695
_cell_length_b   8.14940633
_cell_length_c   10.96008745
_cell_angle_alpha   84.55272704
_cell_angle_beta   70.55910592
_cell_angle_gamma   61.06835448
_symmetry_Int_Tables_number   1
_chemical_formula_structural   Cs2PbO2
_chemical_formula_sum   'Cs8 Pb4 O8'
_cell_volume   578.13377325
_cell_formula_units_Z   4
loop_
 _symmetry_equiv_pos_site_id
 _symmetry_equiv_pos_as_xyz
  1  'x, y, z'
loop_
 _atom_site_type_symbol
 _atom_site_label
 _atom_site_symmetry_multiplicity
 _atom_site_fract_x
 _atom_site_fract_y
 _atom_site_fract_z
 _atom_site_occupancy
  Cs  Cs0  1  0.24629287  0.25390381  0.49406466  1
  Cs  Cs1  1  0.06634702  0.94052600  0.18382529  1
  Cs  Cs2  1  0.93655798  0.54931366  0.82493750  1
  Cs  Cs3  1  0.93365298  0.05947500  0.81617471  1
  Cs  Cs4  1  0.60229938  0.43109713  0.14170769  1
  Cs  Cs5  1  0.06344202  0.45068634  0.17506250  1
  Cs  Cs6  1  0.39770062  0.56890287  0.85829231  1
  Cs  Cs7  1  0.75370713  0.74609619  0.50593534  1
  Pb  Pb0  1  0.59580140  0.94169430  0.12192486  1
  Pb  Pb1  1  0.30925034  0.69742041  0.47197130  1
  Pb  Pb2  1  0.69074966  0.30257959  0.52802870  1
  Pb  Pb3  1  0.40419860  0.05830570  0.87807514  1
  O  O0  1  0.49390873  0.81708163  0.00686807  1
  O  O1  1  0.79603049  0.41116120  0.63954624  1
  O  O2  1  0.91769754  0.79214816  0.02297240  1
  O  O3  1  0.50609127  0.18291837  0.99313193  1
  O  O4  1  0.08230246  0.20785184  0.97702760  1
  O  O5  1  0.20396951  0.58883880  0.36045376  1
  O  O6  1  0.65002791  0.51406887  0.37981054  1
  O  O7  1  0.34997209  0.48593113  0.62018946  1
loop_
_geom_bond_atom_site_label_1
_geom_bond_atom_site_label_2
_geom_bond_distance
_geom_bond_site_symmetry_2
Cs0 O5 2.896878 1_555
Cs0 O7 2.981800 1_555
Cs0 O1 2.995113 1_455
Cs1 O0 2.973838 1_555
Cs1 O4 3.006107 1_564
Cs1 O2 3.013936 1_455
Cs1 O5 3.236295 1_555
Cs2 O2 2.994367 1_556
Cs2 O4 3.023483 1_655
Cs2 O7 3.101419 1_655
Cs2 O0 3.117342 1_556
Cs2 O1 3.122990 1_555
Cs3 O3 2.973840 1_555
Cs3 O2 3.006112 1_546
Cs3 O4 3.013931 1_655
Cs3 O1 3.236290 1_555
Cs4 O6 2.939635 1_555
Cs4 O5 2.984688 1_555
Cs4 O0 3.188525 1_555
Cs4 O3 3.200376 1_554
Cs4 O4 3.204562 1_654
Cs5 O4 2.994367 1_554
Cs5 O2 3.023483 1_455
Cs5 O6 3.101419 1_455
Cs5 O3 3.117342 1_554
Cs5 O5 3.122990 1_555
Cs6 O7 2.939635 1_555
Cs6 O1 2.984688 1_555
Cs6 O3 3.188525 1_555
Cs6 O0 3.200376 1_556
Cs6 O2 3.204562 1_456
Cs7 O1 2.896878 1_555
Cs7 O6 2.981800 1_555
Cs7 O5 2.995113 1_655
O0 Pb0 2.228913 1_555
O0 Pb3 2.269176 1_564
O1 Pb2 2.133444 1_555
O2 Pb0 2.124199 1_555
O3 Pb3 2.228913 1_555
O3 Pb0 2.269176 1_546
O4 Pb3 2.124199 1_555
O5 Pb1 2.133444 1_555
O6 Pb2 2.234438 1_555
O6 Pb1 2.247143 1_555
O7 Pb1 2.234438 1_555
O7 Pb2 2.247143 1_555
