# generated using pymatgen
data_Cs2NaFe(CN)6
_symmetry_space_group_name_H-M   'P 1'
_cell_length_a   7.78050900
_cell_length_b   7.62823700
_cell_length_c   13.34469304
_cell_angle_alpha   55.20146599
_cell_angle_beta   90.00000000
_cell_angle_gamma   90.00000000
_symmetry_Int_Tables_number   1
_chemical_formula_structural   Cs2NaFe(CN)6
_chemical_formula_sum   'Cs4 Na2 Fe2 C12 N12'
_cell_volume   650.38509109
_cell_formula_units_Z   2
loop_
 _symmetry_equiv_pos_site_id
 _symmetry_equiv_pos_as_xyz
  1  'x, y, z'
loop_
 _atom_site_type_symbol
 _atom_site_label
 _atom_site_symmetry_multiplicity
 _atom_site_fract_x
 _atom_site_fract_y
 _atom_site_fract_z
 _atom_site_occupancy
  Cs  Cs0  1  0.54155400  0.75860500  0.24995900  1
  Cs  Cs1  1  0.04155400  0.24139500  0.25004100  1
  Cs  Cs2  1  0.45844600  0.24139500  0.75004100  1
  Cs  Cs3  1  0.95844600  0.75860500  0.74995900  1
  Na  Na0  1  0.50000000  0.50000000  0.00000000  1
  Na  Na1  1  0.00000000  0.50000000  0.50000000  1
  Fe  Fe0  1  0.50000000  0.00000000  0.50000000  1
  Fe  Fe1  1  0.00000000  0.00000000  0.00000000  1
  C  C0  1  0.49199600  0.21369000  0.32832400  1
  C  C1  1  0.99199600  0.78631000  0.17167600  1
  C  C2  1  0.50800400  0.78631000  0.67167600  1
  C  C3  1  0.00800400  0.21369000  0.82832400  1
  C  C4  1  0.85937900  0.18361700  0.01977200  1
  C  C5  1  0.35937900  0.81638300  0.48022800  1
  C  C6  1  0.14062100  0.81638300  0.98022800  1
  C  C7  1  0.64062100  0.18361700  0.51977200  1
  C  C8  1  0.79921000  0.88252700  0.97692500  1
  C  C9  1  0.29921000  0.11747300  0.52307500  1
  C  C10  1  0.20079000  0.11747300  0.02307500  1
  C  C11  1  0.70079000  0.88252700  0.47692500  1
  N  N0  1  0.48550600  0.34622200  0.22260200  1
  N  N1  1  0.98550600  0.65377800  0.27739800  1
  N  N2  1  0.51449400  0.65377800  0.77739800  1
  N  N3  1  0.01449400  0.34622200  0.72260200  1
  N  N4  1  0.77363400  0.29673400  0.03259300  1
  N  N5  1  0.27363400  0.70326600  0.46740700  1
  N  N6  1  0.22636600  0.70326600  0.96740700  1
  N  N7  1  0.72636600  0.29673400  0.53259300  1
  N  N8  1  0.67553200  0.81165500  0.96155000  1
  N  N9  1  0.17553200  0.18834500  0.53845000  1
  N  N10  1  0.32446800  0.18834500  0.03845000  1
  N  N11  1  0.82446800  0.81165500  0.46155000  1
loop_
_geom_bond_atom_site_label_1
_geom_bond_atom_site_label_2
_geom_bond_distance
_geom_bond_site_symmetry_2
Cs0 N10 3.317370 1_565
Cs0 N0 3.395587 1_555
Cs0 N5 3.397901 1_555
Cs1 N11 3.317370 1_445
Cs1 N1 3.395587 1_455
Cs1 N4 3.397901 1_455
Cs2 N8 3.317370 1_545
Cs2 N2 3.395587 1_555
Cs2 N7 3.397901 1_555
Cs3 N9 3.317370 1_665
Cs3 N3 3.395587 1_655
Cs3 N6 3.397901 1_655
C0 N0 1.177747 1_555
C0 Fe0 1.909739 1_555
C1 N1 1.177747 1_555
C1 Fe1 1.909739 1_665
C2 N2 1.177747 1_555
C2 Fe0 1.909739 1_565
C3 N3 1.177747 1_555
C3 Fe1 1.909739 1_556
C4 N4 1.177889 1_555
C4 Fe1 1.910599 1_655
C5 N5 1.177889 1_555
C5 Fe0 1.910599 1_565
C6 N6 1.177889 1_555
C6 Fe1 1.910599 1_566
C7 N7 1.177889 1_555
C7 Fe0 1.910599 1_555
C8 N8 1.177693 1_555
C8 Fe1 1.911389 1_666
C9 N9 1.177693 1_555
C9 Fe0 1.911389 1_555
C10 N10 1.177693 1_555
C10 Fe1 1.911389 1_555
C11 N11 1.177693 1_555
C11 Fe0 1.911389 1_565
N0 Na0 2.497133 1_555
N1 Na1 2.497133 1_655
N2 Na0 2.497133 1_556
N3 Na1 2.497133 1_555
N4 Na0 2.521180 1_555
N5 Na1 2.521180 1_555
N6 Na0 2.521180 1_556
N7 Na1 2.521180 1_655
N8 Na0 2.527471 1_556
N9 Na1 2.527471 1_555
N10 Na0 2.527471 1_555
N11 Na1 2.527471 1_655
