# generated using pymatgen
data_Er5BiAu2
_symmetry_space_group_name_H-M   'P 1'
_cell_length_a   10.12748349
_cell_length_b   10.12748349
_cell_length_c   10.12748349
_cell_angle_alpha   137.16804386
_cell_angle_beta   137.16804386
_cell_angle_gamma   62.17959776
_symmetry_Int_Tables_number   1
_chemical_formula_structural   Er5BiAu2
_chemical_formula_sum   'Er10 Bi2 Au4'
_cell_volume   474.38483661
_cell_formula_units_Z   2
loop_
 _symmetry_equiv_pos_site_id
 _symmetry_equiv_pos_as_xyz
  1  'x, y, z'
loop_
 _atom_site_type_symbol
 _atom_site_label
 _atom_site_symmetry_multiplicity
 _atom_site_fract_x
 _atom_site_fract_y
 _atom_site_fract_z
 _atom_site_occupancy
  Er  Er0  1  0.82803100  0.00028900  0.50000000  1
  Er  Er1  1  0.32803100  0.82803100  0.82774200  1
  Er  Er2  1  0.67196900  0.17196900  0.17225800  1
  Er  Er3  1  0.17196900  0.99971100  0.50000000  1
  Er  Er4  1  0.50000000  0.50000000  0.00000000  1
  Er  Er5  1  0.99971100  0.49971100  0.82774200  1
  Er  Er6  1  0.00028900  0.50028900  0.17225800  1
  Er  Er7  1  0.50028900  0.32803100  0.50000000  1
  Er  Er8  1  0.49971100  0.67196900  0.50000000  1
  Er  Er9  1  0.00000000  0.00000000  0.00000000  1
  Bi  Bi0  1  0.75000000  0.75000000  0.00000000  1
  Bi  Bi1  1  0.25000000  0.25000000  0.00000000  1
  Au  Au0  1  0.12844700  0.62844700  0.75689400  1
  Au  Au1  1  0.87155300  0.37155300  0.24310600  1
  Au  Au2  1  0.62844700  0.87155300  0.50000000  1
  Au  Au3  1  0.37155300  0.12844700  0.50000000  1
loop_
_geom_bond_atom_site_label_1
_geom_bond_atom_site_label_2
_geom_bond_distance
_geom_bond_site_symmetry_2
Bi0 Er2 3.140979 1_565
Bi0 Er3 3.140979 1_655
Bi0 Er8 3.140979 1_554
Bi0 Er5 3.140979 1_554
Bi0 Er6 3.140979 1_655
Bi0 Er0 3.140979 1_565
Bi0 Er7 3.140979 1_554
Bi0 Er1 3.140979 1_554
Bi1 Er3 3.140979 1_544
Bi1 Er5 3.140979 1_454
Bi1 Er8 3.140979 1_555
Bi1 Er2 3.140979 1_555
Bi1 Er1 3.140979 1_544
Bi1 Er0 3.140979 1_454
Bi1 Er6 3.140979 1_555
Bi1 Er7 3.140979 1_555
Au0 Au1 2.686926 1_455
Au0 Er1 2.871445 1_555
Au0 Er5 2.871445 1_455
Au0 Er4 2.907512 1_556
Au0 Er9 2.907512 1_566
Au1 Er2 2.871445 1_555
Au1 Er6 2.871445 1_655
Au1 Er9 2.907512 1_655
Au1 Er4 2.907512 1_555
Au2 Au3 2.686926 1_565
Au2 Er8 2.871445 1_555
Au2 Er0 2.871445 1_565
Au2 Er4 2.907512 1_555
Au2 Er9 2.907512 1_666
Au3 Er7 2.871445 1_555
Au3 Er3 2.871445 1_545
Au3 Er4 2.907512 1_556
Au3 Er9 2.907512 1_555
