# generated using pymatgen
data_Cs3U2Ge2O11
_symmetry_space_group_name_H-M   'P 1'
_cell_length_a   12.76625900
_cell_length_b   7.20347300
_cell_length_c   15.80267097
_cell_angle_alpha   78.76753740
_cell_angle_beta   90.00000000
_cell_angle_gamma   90.00000000
_symmetry_Int_Tables_number   1
_chemical_formula_structural   Cs3U2Ge2O11
_chemical_formula_sum   'Cs12 U8 Ge8 O44'
_cell_volume   1425.39897243
_cell_formula_units_Z   4
loop_
 _symmetry_equiv_pos_site_id
 _symmetry_equiv_pos_as_xyz
  1  'x, y, z'
loop_
 _atom_site_type_symbol
 _atom_site_label
 _atom_site_symmetry_multiplicity
 _atom_site_fract_x
 _atom_site_fract_y
 _atom_site_fract_z
 _atom_site_occupancy
  Cs  Cs0  1  0.17304500  0.08150000  0.92507400  1
  Cs  Cs1  1  0.84554500  0.92304700  0.59103800  1
  Cs  Cs2  1  0.65445500  0.42304700  0.09103800  1
  Cs  Cs3  1  0.82695500  0.91850000  0.07492600  1
  Cs  Cs4  1  0.32695500  0.58150000  0.42507400  1
  Cs  Cs5  1  0.35075800  0.38904500  0.16574700  1
  Cs  Cs6  1  0.14924200  0.88904500  0.66574700  1
  Cs  Cs7  1  0.67304500  0.41850000  0.57492600  1
  Cs  Cs8  1  0.85075800  0.11095500  0.33425300  1
  Cs  Cs9  1  0.34554500  0.57695300  0.90896200  1
  Cs  Cs10  1  0.64924200  0.61095500  0.83425300  1
  Cs  Cs11  1  0.15445500  0.07695300  0.40896200  1
  U  U0  1  0.05477100  0.60740700  0.24081700  1
  U  U1  1  0.44522900  0.10740700  0.74081700  1
  U  U2  1  0.94522900  0.39259300  0.75918300  1
  U  U3  1  0.55477100  0.89259300  0.25918300  1
  U  U4  1  0.50000000  0.00000000  0.00000000  1
  U  U5  1  0.50000000  0.00000000  0.50000000  1
  U  U6  1  0.00000000  0.50000000  0.50000000  1
  U  U7  1  0.00000000  0.50000000  0.00000000  1
  Ge  Ge0  1  0.42262400  0.62874400  0.67410700  1
  Ge  Ge1  1  0.79190600  0.61230000  0.33856100  1
  Ge  Ge2  1  0.57737600  0.37125600  0.32589300  1
  Ge  Ge3  1  0.29190600  0.88770000  0.16143900  1
  Ge  Ge4  1  0.20809400  0.38770000  0.66143900  1
  Ge  Ge5  1  0.07737600  0.12874400  0.17410700  1
  Ge  Ge6  1  0.92262400  0.87125600  0.82589300  1
  Ge  Ge7  1  0.70809400  0.11230000  0.83856100  1
  O  O0  1  0.47706500  0.14648100  0.61352700  1
  O  O1  1  0.95501000  0.26189900  0.48096000  1
  O  O2  1  0.14491700  0.46807500  0.99369700  1
  O  O3  1  0.27836000  0.18880900  0.71654300  1
  O  O4  1  0.52293500  0.85351900  0.38647300  1
  O  O5  1  0.97039400  0.08257100  0.76039300  1
  O  O6  1  0.04499000  0.73810100  0.51904000  1
  O  O7  1  0.14574400  0.35150000  0.56603300  1
  O  O8  1  0.51066100  0.71662800  0.59014900  1
  O  O9  1  0.85425600  0.64850000  0.43396700  1
  O  O10  1  0.22164000  0.68880900  0.21654300  1
  O  O11  1  0.72164000  0.81119100  0.28345700  1
  O  O12  1  0.70188300  0.41811600  0.37186200  1
  O  O13  1  0.90320400  0.69629300  0.76197600  1
  O  O14  1  0.40320400  0.80370700  0.73802400  1
  O  O15  1  0.79811700  0.91811600  0.87186200  1
  O  O16  1  0.58379600  0.94987000  0.12894000  1
  O  O17  1  0.64491700  0.03192500  0.50630300  1
  O  O18  1  0.77836000  0.31119100  0.78345700  1
  O  O19  1  0.47039400  0.41742900  0.73960700  1
  O  O20  1  0.02960600  0.91742900  0.23960700  1
  O  O21  1  0.45501000  0.23810100  0.01904000  1
  O  O22  1  0.35508300  0.96807500  0.49369700  1
  O  O23  1  0.09679600  0.30370700  0.23802400  1
  O  O24  1  0.41620400  0.05013000  0.87106000  1
  O  O25  1  0.98933900  0.21662800  0.09014900  1
  O  O26  1  0.64574400  0.14850000  0.93396700  1
  O  O27  1  0.29811700  0.58188400  0.62813800  1
  O  O28  1  0.35425600  0.85150000  0.06603300  1
  O  O29  1  0.97706500  0.35351900  0.88647300  1
  O  O30  1  0.02293500  0.64648100  0.11352700  1
  O  O31  1  0.11454100  0.45399300  0.73301700  1
  O  O32  1  0.85508300  0.53192500  0.00630300  1
  O  O33  1  0.20188300  0.08188400  0.12813800  1
  O  O34  1  0.54499000  0.76189900  0.98096000  1
  O  O35  1  0.88545900  0.54600700  0.26698300  1
  O  O36  1  0.01066100  0.78337200  0.90985100  1
  O  O37  1  0.08379600  0.55013000  0.37106000  1
  O  O38  1  0.52960600  0.58257100  0.26039300  1
  O  O39  1  0.61454100  0.04600700  0.76698300  1
  O  O40  1  0.48933900  0.28337200  0.40985100  1
  O  O41  1  0.59679600  0.19629300  0.26197600  1
  O  O42  1  0.38545900  0.95399300  0.23301700  1
  O  O43  1  0.91620400  0.44987000  0.62894000  1
loop_
_geom_bond_atom_site_label_1
_geom_bond_atom_site_label_2
_geom_bond_distance
_geom_bond_site_symmetry_2
Cs0 O36 3.027973 1_545
Cs0 O29 3.163174 1_455
Cs0 O2 3.199349 1_555
Cs0 O33 3.230540 1_556
Cs0 O24 3.238986 1_555
Cs0 O28 3.408937 1_546
Cs0 O3 3.503153 1_555
Cs1 O17 2.925596 1_565
Cs1 O13 2.964427 1_555
Cs1 O1 3.046756 1_565
Cs1 O6 3.184789 1_655
Cs1 O43 3.463393 1_555
Cs1 O9 3.463679 1_555
Cs1 O5 3.495903 1_565
Cs2 O32 2.925596 1_555
Cs2 O41 2.964427 1_555
Cs2 O34 3.046756 1_554
Cs2 O21 3.184789 1_555
Cs2 O16 3.463393 1_545
Cs2 O26 3.463679 1_554
Cs2 O38 3.495903 1_555
Cs3 O25 3.027973 1_565
Cs3 O30 3.163174 1_655
Cs3 O32 3.199349 1_555
Cs3 O15 3.230540 1_554
Cs3 O16 3.238986 1_555
Cs3 O26 3.408937 1_564
Cs3 O11 3.503153 1_555
Cs4 O40 3.027973 1_555
Cs4 O4 3.163174 1_555
Cs4 O22 3.199349 1_555
Cs4 O27 3.230540 1_555
Cs4 O37 3.238986 1_555
Cs4 O7 3.408937 1_555
Cs4 O10 3.503153 1_555
Cs5 O10 2.949482 1_555
Cs5 O21 3.051302 1_555
Cs5 O33 3.061606 1_555
Cs5 O42 3.138420 1_545
Cs5 O38 3.194649 1_555
Cs5 O28 3.396676 1_555
Cs5 O23 3.452595 1_555
Cs5 O41 3.644661 1_555
Cs5 O2 3.744152 1_554
Cs6 O3 2.949482 1_565
Cs6 O6 3.051302 1_555
Cs6 O27 3.061606 1_555
Cs6 O31 3.138420 1_555
Cs6 O5 3.194649 1_465
Cs6 O7 3.396676 1_565
Cs6 O14 3.452595 1_555
Cs6 O13 3.644661 1_455
Cs6 O22 3.744152 1_555
Cs7 O8 3.027973 1_555
Cs7 O0 3.163174 1_555
Cs7 O17 3.199349 1_555
Cs7 O12 3.230540 1_555
Cs7 O43 3.238986 1_555
Cs7 O9 3.408937 1_555
Cs7 O18 3.503153 1_555
Cs8 O11 2.949482 1_545
Cs8 O1 3.051302 1_555
Cs8 O12 3.061606 1_555
Cs8 O35 3.138420 1_555
Cs8 O20 3.194649 1_645
Cs8 O9 3.396676 1_545
Cs8 O41 3.452595 1_555
Cs8 O23 3.644661 1_655
Cs8 O17 3.744152 1_555
Cs9 O2 2.925596 1_555
Cs9 O14 2.964427 1_555
Cs9 O21 3.046756 1_556
Cs9 O34 3.184789 1_555
Cs9 O24 3.463393 1_565
Cs9 O28 3.463679 1_556
Cs9 O19 3.495903 1_555
Cs10 O18 2.949482 1_555
Cs10 O34 3.051302 1_555
Cs10 O15 3.061606 1_555
Cs10 O39 3.138420 1_565
Cs10 O19 3.194649 1_555
Cs10 O26 3.396676 1_555
Cs10 O13 3.452595 1_555
Cs10 O14 3.644661 1_555
Cs10 O32 3.744152 1_556
Cs11 O22 2.925596 1_545
Cs11 O23 2.964427 1_555
Cs11 O6 3.046756 1_545
Cs11 O1 3.184789 1_455
Cs11 O37 3.463393 1_555
Cs11 O7 3.463679 1_555
Cs11 O20 3.495903 1_545
Ge0 O8 1.759832 1_555
Ge0 O19 1.773857 1_555
Ge0 O14 1.779350 1_555
Ge0 O27 1.806558 1_555
Ge1 O9 1.768561 1_555
Ge1 O11 1.769055 1_555
Ge1 O35 1.773224 1_555
Ge1 O12 1.807648 1_555
Ge2 O40 1.759832 1_555
Ge2 O38 1.773857 1_555
Ge2 O41 1.779350 1_555
Ge2 O12 1.806558 1_555
Ge3 O28 1.768561 1_555
Ge3 O10 1.769055 1_555
Ge3 O42 1.773224 1_555
Ge3 O33 1.807648 1_565
Ge4 O7 1.768561 1_555
Ge4 O3 1.769055 1_555
Ge4 O31 1.773224 1_555
Ge4 O27 1.807648 1_555
Ge5 O25 1.759832 1_455
Ge5 O20 1.773857 1_545
Ge5 O23 1.779350 1_555
Ge5 O33 1.806558 1_555
Ge6 O36 1.759832 1_655
Ge6 O5 1.773857 1_565
Ge6 O13 1.779350 1_555
Ge6 O15 1.806558 1_555
Ge7 O26 1.768561 1_555
Ge7 O18 1.769055 1_555
Ge7 O39 1.773224 1_555
Ge7 O15 1.807648 1_545
O0 U1 2.017438 1_555
O0 U5 2.270493 1_555
O1 U6 1.887648 1_655
O2 U7 1.869334 1_556
O3 U1 2.222949 1_555
O4 U3 2.017438 1_555
O4 U5 2.270493 1_565
O5 U2 2.252616 1_555
O6 U6 1.887648 1_555
O7 U6 2.293505 1_555
O8 U5 2.254298 1_565
O9 U6 2.293505 1_655
O10 U0 2.222949 1_555
O11 U3 2.222949 1_555
O13 U2 2.261285 1_555
O14 U1 2.261285 1_565
O16 U3 2.052520 1_555
O16 U4 2.267143 1_565
O17 U5 1.869334 1_555
O18 U2 2.222949 1_555
O19 U1 2.252616 1_555
O20 U0 2.252616 1_555
O21 U4 1.887648 1_555
O22 U5 1.869334 1_565
O23 U0 2.261285 1_555
O24 U1 2.052520 1_555
O24 U4 2.267143 1_556
O25 U7 2.254298 1_655
O26 U4 2.293505 1_556
O28 U4 2.293505 1_565
O29 U2 2.017438 1_555
O29 U7 2.270493 1_656
O30 U0 2.017438 1_555
O30 U7 2.270493 1_555
O31 U2 2.228755 1_455
O32 U7 1.869334 1_655
O34 U4 1.887648 1_566
O35 U0 2.228755 1_655
O36 U7 2.254298 1_556
O37 U0 2.052520 1_555
O37 U6 2.267143 1_555
O38 U3 2.252616 1_555
O39 U1 2.228755 1_555
O40 U5 2.254298 1_555
O41 U3 2.261285 1_545
O42 U3 2.228755 1_555
O43 U2 2.052520 1_555
O43 U6 2.267143 1_655
