# generated using pymatgen
data_La8Ni4Br7
_symmetry_space_group_name_H-M   'P 1'
_cell_length_a   14.96866138
_cell_length_b   14.96866138
_cell_length_c   8.79183926
_cell_angle_alpha   85.79592309
_cell_angle_beta   85.79592309
_cell_angle_gamma   15.48216926
_symmetry_Int_Tables_number   1
_chemical_formula_structural   La8Ni4Br7
_chemical_formula_sum   'La8 Ni4 Br7'
_cell_volume   524.40281633
_cell_formula_units_Z   1
loop_
 _symmetry_equiv_pos_site_id
 _symmetry_equiv_pos_as_xyz
  1  'x, y, z'
loop_
 _atom_site_type_symbol
 _atom_site_label
 _atom_site_symmetry_multiplicity
 _atom_site_fract_x
 _atom_site_fract_y
 _atom_site_fract_z
 _atom_site_occupancy
  La  La0  1  0.21005600  0.21005600  0.77682300  1
  La  La1  1  0.01256500  0.01256500  0.18928200  1
  La  La2  1  0.59778700  0.59778700  0.64988400  1
  La  La3  1  0.40221300  0.40221300  0.35011600  1
  La  La4  1  0.37389500  0.37389500  0.93889200  1
  La  La5  1  0.78994400  0.78994400  0.22317700  1
  La  La6  1  0.98743500  0.98743500  0.81071800  1
  La  La7  1  0.62610500  0.62610500  0.06110800  1
  Ni  Ni0  1  0.45901700  0.45901700  0.05412900  1
  Ni  Ni1  1  0.89965700  0.89965700  0.13468500  1
  Ni  Ni2  1  0.10034300  0.10034300  0.86531500  1
  Ni  Ni3  1  0.54098300  0.54098300  0.94587100  1
  Br  Br0  1  0.78759500  0.78759500  0.86817200  1
  Br  Br1  1  0.21240500  0.21240500  0.13182800  1
  Br  Br2  1  0.30181000  0.30181000  0.48335600  1
  Br  Br3  1  0.69819000  0.69819000  0.51664400  1
  Br  Br4  1  0.50000000  0.50000000  0.50000000  1
  Br  Br5  1  0.10351400  0.10351400  0.35391800  1
  Br  Br6  1  0.89648600  0.89648600  0.64608200  1
loop_
_geom_bond_atom_site_label_1
_geom_bond_atom_site_label_2
_geom_bond_distance
_geom_bond_site_symmetry_2
La0 Ni2 3.289822 1_555
La1 Ni0 2.877437 1_455
La1 Ni0 2.877437 1_545
La1 Ni3 3.014736 1_454
La1 Ni3 3.014736 1_544
La2 Ni2 2.771200 1_565
La2 Ni2 2.771200 1_655
La2 Ni3 2.993729 1_555
La3 Ni1 2.771200 1_455
La3 Ni1 2.771200 1_545
La3 Ni0 2.993729 1_555
La4 Ni0 2.789470 1_556
La4 Ni1 2.794103 1_546
La4 Ni1 2.794103 1_456
La5 Ni1 3.289822 1_555
La6 Ni3 2.877437 1_655
La6 Ni3 2.877437 1_565
La6 Ni0 3.014736 1_566
La6 Ni0 3.014736 1_656
La7 Ni3 2.789470 1_554
La7 Ni2 2.794103 1_564
La7 Ni2 2.794103 1_654
Ni0 Ni3 2.544713 1_554
Ni0 Ni1 2.735501 1_455
Ni0 Ni1 2.735501 1_545
Ni2 Ni3 2.735501 1_545
Ni2 Ni3 2.735501 1_455
Br0 La5 3.127074 1_556
Br0 La0 3.205347 1_655
Br0 La0 3.205347 1_565
Br0 La4 3.352779 1_565
Br0 La4 3.352779 1_655
Br1 La0 3.127074 1_554
Br1 La5 3.205347 1_455
Br1 La5 3.205347 1_545
Br1 La7 3.352779 1_545
Br1 La7 3.352779 1_455
Br2 La5 3.088796 1_545
Br2 La5 3.088796 1_455
Br2 La3 3.118794 1_555
Br2 La0 3.609192 1_555
Br3 La0 3.088796 1_655
Br3 La0 3.088796 1_565
Br3 La2 3.118794 1_555
Br3 La5 3.609192 1_555
Br4 La2 3.273644 1_555
Br4 La3 3.273644 1_555
Br4 La1 3.393536 1_655
Br4 La1 3.393536 1_565
Br4 La6 3.393536 1_545
Br4 La6 3.393536 1_455
Br5 La1 3.154667 1_555
Br5 La2 3.286257 1_545
Br5 La2 3.286257 1_455
Br5 La7 3.299429 1_455
Br5 La7 3.299429 1_545
Br6 La6 3.154667 1_555
Br6 La3 3.286257 1_565
Br6 La3 3.286257 1_655
Br6 La4 3.299429 1_655
Br6 La4 3.299429 1_565
