# generated using pymatgen
data_Sr8Tl3Cr(CuO5)4
_symmetry_space_group_name_H-M   'P 1'
_cell_length_a   11.79078411
_cell_length_b   11.79078411
_cell_length_c   3.70275800
_cell_angle_alpha   90.00000000
_cell_angle_beta   90.00000000
_cell_angle_gamma   99.44153167
_symmetry_Int_Tables_number   1
_chemical_formula_structural   Sr8Tl3Cr(CuO5)4
_chemical_formula_sum   'Sr8 Tl3 Cr1 Cu4 O20'
_cell_volume   507.79372288
_cell_formula_units_Z   1
loop_
 _symmetry_equiv_pos_site_id
 _symmetry_equiv_pos_as_xyz
  1  'x, y, z'
loop_
 _atom_site_type_symbol
 _atom_site_label
 _atom_site_symmetry_multiplicity
 _atom_site_fract_x
 _atom_site_fract_y
 _atom_site_fract_z
 _atom_site_occupancy
  Sr  Sr0  1  0.47237700  0.77464400  0.50000000  1
  Sr  Sr1  1  0.22535600  0.52762300  0.50000000  1
  Sr  Sr2  1  0.01320000  0.73244100  0.50000000  1
  Sr  Sr3  1  0.73244100  0.01320000  0.50000000  1
  Sr  Sr4  1  0.77464400  0.47237700  0.50000000  1
  Sr  Sr5  1  0.98680000  0.26755900  0.50000000  1
  Sr  Sr6  1  0.26755900  0.98680000  0.50000000  1
  Sr  Sr7  1  0.52762300  0.22535600  0.50000000  1
  Tl  Tl0  1  0.72674100  0.72674100  0.00000000  1
  Tl  Tl1  1  0.50000000  0.50000000  0.00000000  1
  Tl  Tl2  1  0.27325900  0.27325900  0.00000000  1
  Cr  Cr0  1  0.00000000  0.00000000  0.00000000  1
  Cu  Cu0  1  0.75275700  0.24724300  0.00000000  1
  Cu  Cu1  1  0.00000000  0.50000000  0.00000000  1
  Cu  Cu2  1  0.50000000  0.00000000  0.00000000  1
  Cu  Cu3  1  0.24724300  0.75275700  0.00000000  1
  O  O0  1  0.61648000  0.38352000  0.00000000  1
  O  O1  1  0.91607600  0.91607600  0.50000000  1
  O  O2  1  0.09698000  0.90302000  0.00000000  1
  O  O3  1  0.13692100  0.36500300  0.00000000  1
  O  O4  1  0.36920900  0.87971000  0.00000000  1
  O  O5  1  0.08392400  0.08392400  0.50000000  1
  O  O6  1  0.12029000  0.63079100  0.00000000  1
  O  O7  1  0.90302000  0.09698000  0.00000000  1
  O  O8  1  0.37482600  0.37482600  0.50000000  1
  O  O9  1  0.38352000  0.61648000  0.00000000  1
  O  O10  1  0.63499700  0.86307900  0.00000000  1
  O  O11  1  0.87971000  0.36920900  0.00000000  1
  O  O12  1  0.86307900  0.63499700  0.00000000  1
  O  O13  1  0.00000000  0.50000000  0.50000000  1
  O  O14  1  0.76399400  0.23600600  0.50000000  1
  O  O15  1  0.50000000  0.00000000  0.50000000  1
  O  O16  1  0.36500300  0.13692100  0.00000000  1
  O  O17  1  0.23600600  0.76399400  0.50000000  1
  O  O18  1  0.62517400  0.62517400  0.50000000  1
  O  O19  1  0.63079100  0.12029000  0.00000000  1
loop_
_geom_bond_atom_site_label_1
_geom_bond_atom_site_label_2
_geom_bond_distance
_geom_bond_site_symmetry_2
Cr0 O7 1.744713 1_455
Cr0 O2 1.744713 1_545
Cr0 O1 2.250488 1_444
Cr0 O5 2.250488 1_554
Cr0 O5 2.250488 1_555
Cr0 O1 2.250488 1_445
Cu0 O14 1.862383 1_555
Cu0 O14 1.862383 1_554
Cu0 O19 1.898015 1_555
Cu0 O11 1.898015 1_555
Cu0 O0 2.451683 1_555
Cu1 O13 1.851379 1_555
Cu1 O13 1.851379 1_554
Cu1 O11 1.916295 1_455
Cu1 O6 1.916295 1_555
Cu1 O12 2.446006 1_455
Cu1 O3 2.446006 1_555
Cu2 O15 1.851379 1_555
Cu2 O15 1.851379 1_554
Cu2 O4 1.916295 1_545
Cu2 O19 1.916295 1_555
Cu2 O10 2.446006 1_545
Cu2 O16 2.446006 1_555
Cu3 O17 1.862383 1_555
Cu3 O17 1.862383 1_554
Cu3 O6 1.898015 1_555
Cu3 O4 1.898015 1_555
Cu3 O9 2.451683 1_555
O0 Tl1 2.095527 1_555
O0 Sr4 2.713304 1_555
O0 Sr4 2.713304 1_554
O0 Sr7 2.713304 1_554
O0 Sr7 2.713304 1_555
O1 Sr2 2.610170 1_655
O1 Sr3 2.610170 1_565
O2 Sr6 2.792267 1_555
O2 Sr6 2.792267 1_554
O2 Sr2 2.792267 1_555
O2 Sr2 2.792267 1_554
O3 Tl2 2.079619 1_555
O3 Sr5 2.685799 1_455
O3 Sr5 2.685799 1_454
O3 Sr1 2.745070 1_554
O3 Sr1 2.745070 1_555
O4 Sr0 2.633697 1_555
O4 Sr0 2.633697 1_554
O4 Sr6 2.637222 1_555
O4 Sr6 2.637222 1_554
O5 Sr6 2.610170 1_545
O5 Sr5 2.610170 1_455
O6 Sr1 2.633697 1_554
O6 Sr1 2.633697 1_555
O6 Sr2 2.637222 1_555
O6 Sr2 2.637222 1_554
O7 Sr5 2.792267 1_555
O7 Sr5 2.792267 1_554
O7 Sr3 2.792267 1_554
O7 Sr3 2.792267 1_555
O8 Tl2 2.413579 1_556
O8 Tl2 2.413579 1_555
O8 Tl1 2.658855 1_555
O8 Tl1 2.658855 1_556
O8 Sr1 2.719077 1_555
O8 Sr7 2.719077 1_555
O9 Tl1 2.095527 1_555
O9 Sr0 2.713304 1_554
O9 Sr0 2.713304 1_555
O9 Sr1 2.713304 1_554
O9 Sr1 2.713304 1_555
O10 Tl0 2.079619 1_555
O10 Sr3 2.685799 1_565
O10 Sr3 2.685799 1_564
O10 Sr0 2.745070 1_554
O10 Sr0 2.745070 1_555
O11 Sr4 2.633697 1_555
O11 Sr4 2.633697 1_554
O11 Sr5 2.637222 1_554
O11 Sr5 2.637222 1_555
O12 Tl0 2.079619 1_555
O12 Sr2 2.685799 1_654
O12 Sr2 2.685799 1_655
O12 Sr4 2.745070 1_555
O12 Sr4 2.745070 1_554
O13 Sr4 2.623444 1_455
O13 Sr1 2.623444 1_555
O13 Sr5 2.719468 1_455
O13 Sr2 2.719468 1_555
O14 Sr3 2.592140 1_555
O14 Sr5 2.592140 1_555
O14 Sr7 2.769172 1_555
O14 Sr4 2.769172 1_555
O15 Sr7 2.623444 1_555
O15 Sr0 2.623444 1_545
O15 Sr6 2.719468 1_545
O15 Sr3 2.719468 1_555
O16 Tl2 2.079619 1_555
O16 Sr6 2.685799 1_544
O16 Sr6 2.685799 1_545
O16 Sr7 2.745070 1_555
O16 Sr7 2.745070 1_554
O17 Sr2 2.592140 1_555
O17 Sr6 2.592140 1_555
O17 Sr0 2.769172 1_555
O17 Sr1 2.769172 1_555
O18 Tl0 2.413579 1_555
O18 Tl0 2.413579 1_556
O18 Tl1 2.658855 1_555
O18 Tl1 2.658855 1_556
O18 Sr0 2.719077 1_555
O18 Sr4 2.719077 1_555
O19 Sr7 2.633697 1_554
O19 Sr7 2.633697 1_555
O19 Sr3 2.637222 1_554
O19 Sr3 2.637222 1_555
