# generated using pymatgen
data_P2WO7
_symmetry_space_group_name_H-M   'P 1'
_cell_length_a   8.27459439
_cell_length_b   8.27459439
_cell_length_c   8.27459439
_cell_angle_alpha   90.00000000
_cell_angle_beta   90.00000000
_cell_angle_gamma   90.00000000
_symmetry_Int_Tables_number   1
_chemical_formula_structural   P2WO7
_chemical_formula_sum   'P8 W4 O28'
_cell_volume   566.55247776
_cell_formula_units_Z   4
loop_
 _symmetry_equiv_pos_site_id
 _symmetry_equiv_pos_as_xyz
  1  'x, y, z'
loop_
 _atom_site_type_symbol
 _atom_site_label
 _atom_site_symmetry_multiplicity
 _atom_site_fract_x
 _atom_site_fract_y
 _atom_site_fract_z
 _atom_site_occupancy
  P  P0  1  0.39019886  0.39019886  0.39019886  1
  P  P1  1  0.10980114  0.60980114  0.89019886  1
  P  P2  1  0.89019886  0.10980114  0.60980114  1
  P  P3  1  0.60980114  0.89019886  0.10980114  1
  P  P4  1  0.60980114  0.60980114  0.60980114  1
  P  P5  1  0.89019886  0.39019886  0.10980114  1
  P  P6  1  0.10980114  0.89019886  0.39019886  1
  P  P7  1  0.39019886  0.10980114  0.89019886  1
  W  W0  1  -0.00000000  0.00000000  0.00000000  1
  W  W1  1  0.50000000  0.00000000  0.50000000  1
  W  W2  1  0.50000000  0.50000000  0.00000000  1
  W  W3  1  -0.00000000  0.50000000  0.50000000  1
  O  O0  1  0.50000000  0.50000000  0.50000000  1
  O  O1  1  -0.00000000  0.50000000  0.00000000  1
  O  O2  1  -0.00000000  0.00000000  0.50000000  1
  O  O3  1  0.50000000  0.00000000  0.00000000  1
  O  O4  1  0.21839169  0.08837827  0.94422557  1
  O  O5  1  0.94422557  0.21839169  0.08837827  1
  O  O6  1  0.08837827  0.94422557  0.21839169  1
  O  O7  1  0.41162173  0.05577443  0.71839169  1
  O  O8  1  0.44422557  0.28160831  0.91162173  1
  O  O9  1  0.91162173  0.44422557  0.28160831  1
  O  O10  1  0.55577443  0.78160831  0.58837827  1
  O  O11  1  0.05577443  0.71839169  0.41162173  1
  O  O12  1  0.58837827  0.55577443  0.78160831  1
  O  O13  1  0.71839169  0.41162173  0.05577443  1
  O  O14  1  0.78160831  0.58837827  0.55577443  1
  O  O15  1  0.28160831  0.91162173  0.44422557  1
  O  O16  1  0.78160831  0.91162173  0.05577443  1
  O  O17  1  0.05577443  0.78160831  0.91162173  1
  O  O18  1  0.91162173  0.05577443  0.78160831  1
  O  O19  1  0.58837827  0.94422557  0.28160831  1
  O  O20  1  0.55577443  0.71839169  0.08837827  1
  O  O21  1  0.08837827  0.55577443  0.71839169  1
  O  O22  1  0.44422557  0.21839169  0.41162173  1
  O  O23  1  0.94422557  0.28160831  0.58837827  1
  O  O24  1  0.41162173  0.44422557  0.21839169  1
  O  O25  1  0.28160831  0.58837827  0.94422557  1
  O  O26  1  0.21839169  0.41162173  0.44422557  1
  O  O27  1  0.71839169  0.08837827  0.55577443  1
loop_
_geom_bond_atom_site_label_1
_geom_bond_atom_site_label_2
_geom_bond_distance
_geom_bond_site_symmetry_2
O0 P4 1.573672 1_555
O0 P0 1.573672 1_555
O1 P1 1.573672 1_554
O1 P5 1.573672 1_455
O2 P2 1.573672 1_455
O2 P6 1.573672 1_545
O3 P3 1.573672 1_545
O3 P7 1.573672 1_554
O4 P7 1.500773 1_555
O4 W0 2.003348 1_556
O5 P5 1.500773 1_555
O5 W0 2.003348 1_655
O6 P6 1.500773 1_555
O6 W0 2.003348 1_565
O7 P7 1.500773 1_555
O7 W1 2.003348 1_555
O8 P7 1.500773 1_555
O8 W2 2.003348 1_556
O9 P5 1.500773 1_555
O9 W3 2.003348 1_655
O10 P4 1.500773 1_555
O10 W1 2.003348 1_565
O11 P6 1.500773 1_555
O11 W3 2.003348 1_555
O12 P4 1.500773 1_555
O12 W2 2.003348 1_556
O13 P5 1.500773 1_555
O13 W2 2.003348 1_555
O14 P4 1.500773 1_555
O14 W3 2.003348 1_655
O15 P6 1.500773 1_555
O15 W1 2.003348 1_565
O16 P3 1.500773 1_555
O16 W0 2.003348 1_665
O17 P1 1.500773 1_555
O17 W0 2.003348 1_566
O18 P2 1.500773 1_555
O18 W0 2.003348 1_656
O19 P3 1.500773 1_555
O19 W1 2.003348 1_565
O20 P3 1.500773 1_555
O20 W2 2.003348 1_555
O21 P1 1.500773 1_555
O21 W3 2.003348 1_555
O22 P0 1.500773 1_555
O22 W1 2.003348 1_555
O23 P2 1.500773 1_555
O23 W3 2.003348 1_655
O24 P0 1.500773 1_555
O24 W2 2.003348 1_555
O25 P1 1.500773 1_555
O25 W2 2.003348 1_556
O26 P0 1.500773 1_555
O26 W3 2.003348 1_555
O27 P2 1.500773 1_555
O27 W1 2.003348 1_555
