# generated using pymatgen
data_CaCO3
_symmetry_space_group_name_H-M   'P 1'
_cell_length_a   5.04083719
_cell_length_b   5.04083719
_cell_length_c   8.74457788
_cell_angle_alpha   89.35453170
_cell_angle_beta   89.35453170
_cell_angle_gamma   59.59667762
_symmetry_Int_Tables_number   1
_chemical_formula_structural   CaCO3
_chemical_formula_sum   'Ca3 C3 O9'
_cell_volume   191.62792800
_cell_formula_units_Z   3
loop_
 _symmetry_equiv_pos_site_id
 _symmetry_equiv_pos_as_xyz
  1  'x, y, z'
loop_
 _atom_site_type_symbol
 _atom_site_label
 _atom_site_symmetry_multiplicity
 _atom_site_fract_x
 _atom_site_fract_y
 _atom_site_fract_z
 _atom_site_occupancy
  Ca  Ca0  1  0.34679900  0.32309700  0.33448700  1
  Ca  Ca1  1  0.01679700  0.98320300  0.00000000  1
  Ca  Ca2  1  0.67690300  0.65320100  0.66551300  1
  C  C0  1  0.68936200  0.65062100  0.16916400  1
  C  C1  1  0.34937900  0.31063800  0.83083600  1
  C  C2  1  0.00869800  0.99130200  0.50000000  1
  O  O0  1  0.60914200  0.05131800  0.83405100  1
  O  O1  1  0.09219700  0.30984900  0.82633100  1
  O  O2  1  0.34770600  0.56920200  0.83254200  1
  O  O3  1  0.43079800  0.65229400  0.16745800  1
  O  O4  1  0.00942400  0.73325900  0.49990200  1
  O  O5  1  0.26674100  0.99057600  0.50009800  1
  O  O6  1  0.69015100  0.90780300  0.17366900  1
  O  O7  1  0.94868200  0.39085800  0.16594900  1
  O  O8  1  0.74922000  0.25078000  0.50000000  1
loop_
_geom_bond_atom_site_label_1
_geom_bond_atom_site_label_2
_geom_bond_distance
_geom_bond_site_symmetry_2
Ca0 O8 2.376645 1_555
Ca0 O7 2.382778 1_455
Ca0 O5 2.384647 1_545
Ca0 O6 2.387431 1_545
Ca0 O3 2.389349 1_555
Ca0 O4 2.390045 1_555
Ca1 O6 2.392923 1_455
Ca1 O1 2.392923 1_564
Ca1 O2 2.402563 1_554
Ca1 O3 2.402563 1_555
Ca1 O7 2.405879 1_465
Ca1 O0 2.405879 1_464
Ca2 O8 2.376645 1_555
Ca2 O0 2.382778 1_565
Ca2 O4 2.384647 1_655
Ca2 O1 2.387431 1_655
Ca2 O2 2.389349 1_555
Ca2 O5 2.390045 1_555
C0 O3 1.299385 1_555
C0 O6 1.299472 1_555
C0 O7 1.300629 1_555
C1 O2 1.299385 1_555
C1 O1 1.299472 1_555
C1 O0 1.300629 1_555
C2 O4 1.298914 1_555
C2 O5 1.298914 1_555
C2 O8 1.300005 1_465
