# generated using pymatgen
data_Cs2PuCl6
_symmetry_space_group_name_H-M   'P 1'
_cell_length_a   7.52225386
_cell_length_b   7.52227269
_cell_length_c   6.04072939
_cell_angle_alpha   90.00000127
_cell_angle_beta   90.00003375
_cell_angle_gamma   120.00008115
_symmetry_Int_Tables_number   1
_chemical_formula_structural   Cs2PuCl6
_chemical_formula_sum   'Cs2 Pu1 Cl6'
_cell_volume   296.01704327
_cell_formula_units_Z   1
loop_
 _symmetry_equiv_pos_site_id
 _symmetry_equiv_pos_as_xyz
  1  'x, y, z'
loop_
 _atom_site_type_symbol
 _atom_site_label
 _atom_site_symmetry_multiplicity
 _atom_site_fract_x
 _atom_site_fract_y
 _atom_site_fract_z
 _atom_site_occupancy
  Cs  Cs0  1  0.66666700  0.33333300  0.26246223  1
  Cs  Cs1  1  0.33333300  0.66666700  0.73753777  1
  Pu  Pu0  1  -0.00000000  -0.00000000  0.00000000  1
  Cl  Cl0  1  0.83297374  0.16702526  0.76547286  1
  Cl  Cl1  1  0.66594648  0.83297374  0.23452814  1
  Cl  Cl2  1  0.33405352  0.16702626  0.76547186  1
  Cl  Cl3  1  0.16702626  0.33405352  0.23452714  1
  Cl  Cl4  1  0.16702626  0.83297474  0.23452714  1
  Cl  Cl5  1  0.83297374  0.66594648  0.76547286  1
loop_
_geom_bond_atom_site_label_1
_geom_bond_atom_site_label_2
_geom_bond_distance
_geom_bond_site_symmetry_2
Cl0 Pu0 2.596689 1_656
Cl0 Cs0 3.702450 1_556
Cl0 Cs0 3.732003 1_555
Cl0 Cs1 3.764910 1_545
Cl0 Cs1 3.764917 1_655
Cl1 Pu0 2.596700 1_665
Cl1 Cs1 3.702446 1_554
Cl1 Cs1 3.731993 1_555
Cl1 Cs0 3.764915 1_565
Cl1 Cs0 3.764930 1_555
Cl2 Pu0 2.596700 1_556
Cl2 Cs0 3.702446 1_556
Cl2 Cs0 3.731993 1_555
Cl2 Cs1 3.764915 1_545
Cl2 Cs1 3.764930 1_555
Cl3 Pu0 2.596700 1_555
Cl3 Cs1 3.702446 1_554
Cl3 Cs1 3.731999 1_555
Cl3 Cs0 3.764906 1_455
Cl3 Cs0 3.764921 1_555
Cl4 Pu0 2.596689 1_565
Cl4 Cs1 3.702450 1_554
Cl4 Cs1 3.732003 1_555
Cl4 Cs0 3.764910 1_565
Cl4 Cs0 3.764917 1_455
Cl5 Pu0 2.596700 1_666
Cl5 Cs0 3.702446 1_556
Cl5 Cs0 3.731999 1_555
Cl5 Cs1 3.764906 1_655
Cl5 Cs1 3.764921 1_555
