# generated using pymatgen
data_Sc2Te5O13
_symmetry_space_group_name_H-M   'P 1'
_cell_length_a   6.62993057
_cell_length_b   8.58280541
_cell_length_c   10.47459385
_cell_angle_alpha   86.45748334
_cell_angle_beta   86.41821756
_cell_angle_gamma   74.07342914
_symmetry_Int_Tables_number   1
_chemical_formula_structural   Sc2Te5O13
_chemical_formula_sum   'Sc4 Te10 O26'
_cell_volume   571.42166306
_cell_formula_units_Z   2
loop_
 _symmetry_equiv_pos_site_id
 _symmetry_equiv_pos_as_xyz
  1  'x, y, z'
loop_
 _atom_site_type_symbol
 _atom_site_label
 _atom_site_symmetry_multiplicity
 _atom_site_fract_x
 _atom_site_fract_y
 _atom_site_fract_z
 _atom_site_occupancy
  Sc  Sc0  1  0.98884185  0.24443040  0.75324952  1
  Sc  Sc1  1  0.01115815  0.75556960  0.24675048  1
  Sc  Sc2  1  0.44649441  0.45605820  0.80948112  1
  Sc  Sc3  1  0.55350559  0.54394180  0.19051888  1
  Te  Te0  1  0.45632774  0.90941889  0.29857451  1
  Te  Te1  1  0.83576834  0.20207499  0.35887553  1
  Te  Te2  1  0.73474557  0.60131949  0.51907127  1
  Te  Te3  1  0.71046737  0.11984886  0.02274769  1
  Te  Te4  1  0.85811155  0.63828653  0.89994460  1
  Te  Te5  1  0.16423166  0.79792501  0.64112447  1
  Te  Te6  1  0.28953263  0.88015114  0.97725231  1
  Te  Te7  1  0.54367226  0.09058111  0.70142549  1
  Te  Te8  1  0.14188845  0.36171347  0.10005540  1
  Te  Te9  1  0.26525443  0.39868051  0.48092873  1
  O  O0  1  0.44822076  0.18757178  0.52201039  1
  O  O1  1  0.47952746  0.67678796  0.01694309  1
  O  O2  1  0.52047254  0.32321204  0.98305691  1
  O  O3  1  0.30436557  0.23203473  0.77732242  1
  O  O4  1  0.85879199  0.49814961  0.08835993  1
  O  O5  1  0.06618202  0.27220626  0.28007624  1
  O  O6  1  0.32042274  0.74456819  0.29029861  1
  O  O7  1  0.69563443  0.76796527  0.22267758  1
  O  O8  1  0.66455851  0.49232148  0.38414029  1
  O  O9  1  0.93381798  0.72779374  0.71992376  1
  O  O10  1  0.64686705  0.00913877  0.88221594  1
  O  O11  1  0.02580023  0.35468572  0.56708378  1
  O  O12  1  0.35212746  0.71708816  0.77265907  1
  O  O13  1  0.95072067  0.17145274  0.94695977  1
  O  O14  1  0.04927933  0.82854726  0.05304023  1
  O  O15  1  0.92108223  0.98863055  0.30216593  1
  O  O16  1  0.07891777  0.01136945  0.69783407  1
  O  O17  1  0.64787254  0.28291184  0.22734093  1
  O  O18  1  0.33544149  0.50767852  0.61585971  1
  O  O19  1  0.22978409  0.51672117  0.18467749  1
  O  O20  1  0.35313295  0.99086123  0.11778406  1
  O  O21  1  0.55177924  0.81242822  0.47798961  1
  O  O22  1  0.97419977  0.64531428  0.43291622  1
  O  O23  1  0.67957726  0.25543181  0.70970139  1
  O  O24  1  0.77021591  0.48327883  0.81532251  1
  O  O25  1  0.14120801  0.50185039  0.91164007  1
loop_
_geom_bond_atom_site_label_1
_geom_bond_atom_site_label_2
_geom_bond_distance
_geom_bond_site_symmetry_2
O0 Te9 1.924133 1_555
O0 Te7 2.071565 1_555
O1 Te6 1.890822 1_554
O1 Sc3 2.096317 1_555
O1 Te4 2.668636 1_554
O2 Te3 1.890822 1_556
O2 Sc2 2.096317 1_555
O2 Te8 2.668636 1_556
O3 Te7 1.878237 1_555
O3 Sc0 2.095566 1_455
O3 Sc2 2.410895 1_555
O4 Te8 1.927132 1_655
O4 Sc3 2.177383 1_555
O4 Te4 2.246432 1_554
O5 Te1 1.913876 1_455
O5 Te8 2.076560 1_555
O6 Te0 1.883044 1_555
O6 Sc1 2.103907 1_555
O6 Sc3 2.237338 1_555
O7 Te0 1.878237 1_555
O7 Sc1 2.095566 1_655
O7 Sc3 2.410895 1_555
O8 Te2 1.890435 1_555
O8 Sc3 2.179016 1_555
O8 Te1 2.460954 1_555
O9 Te5 1.913876 1_655
O9 Te4 2.076560 1_555
O10 Te3 1.928161 1_556
O10 Te7 2.068493 1_555
O11 Te9 1.893465 1_555
O11 Sc0 2.144197 1_455
O11 Te2 2.491061 1_455
O12 Te5 1.885064 1_555
O12 Sc2 2.171073 1_555
O12 Te6 2.581527 1_555
O13 Te3 1.883961 1_556
O13 Sc0 2.106878 1_555
O14 Te6 1.883961 1_554
O14 Sc1 2.106878 1_555
O15 Te1 1.884847 1_565
O15 Sc1 2.034555 1_655
O16 Te5 1.884847 1_545
O16 Sc0 2.034555 1_455
O17 Te1 1.885064 1_555
O17 Sc3 2.171073 1_555
O17 Te3 2.581527 1_555
O18 Te9 1.890435 1_555
O18 Sc2 2.179016 1_555
O18 Te5 2.460954 1_555
O19 Te8 1.879090 1_555
O19 Sc3 2.226675 1_555
O19 Sc1 2.267687 1_555
O20 Te6 1.928161 1_554
O20 Te0 2.068493 1_555
O21 Te2 1.924133 1_555
O21 Te0 2.071565 1_555
O22 Te2 1.893465 1_555
O22 Sc1 2.144197 1_655
O22 Te9 2.491061 1_655
O23 Te7 1.883044 1_555
O23 Sc0 2.103907 1_555
O23 Sc2 2.237338 1_555
O24 Te4 1.879090 1_555
O24 Sc2 2.226675 1_555
O24 Sc0 2.267687 1_555
O25 Te4 1.927132 1_455
O25 Sc2 2.177383 1_555
O25 Te8 2.246432 1_556
