# generated using pymatgen
data_SiO2
_symmetry_space_group_name_H-M   'P 1'
_cell_length_a   17.37358615
_cell_length_b   17.37358615
_cell_length_c   13.02581000
_cell_angle_alpha   90.00000000
_cell_angle_beta   90.00000000
_cell_angle_gamma   120.00000056
_symmetry_Int_Tables_number   1
_chemical_formula_structural   SiO2
_chemical_formula_sum   'Si24 O48'
_cell_volume   3404.97801715
_cell_formula_units_Z   24
loop_
 _symmetry_equiv_pos_site_id
 _symmetry_equiv_pos_as_xyz
  1  'x, y, z'
loop_
 _atom_site_type_symbol
 _atom_site_label
 _atom_site_symmetry_multiplicity
 _atom_site_fract_x
 _atom_site_fract_y
 _atom_site_fract_z
 _atom_site_occupancy
  Si  Si0  1  0.87416500  0.43708200  0.16666700  1
  Si  Si1  1  0.83635000  0.27614200  0.28381700  1
  Si  Si2  1  0.12583500  0.56291800  0.16666700  1
  Si  Si3  1  0.83635000  0.56020800  0.04951700  1
  Si  Si4  1  0.62016500  0.00000000  0.50000000  1
  Si  Si5  1  0.27614200  0.43979200  0.95048300  1
  Si  Si6  1  0.56291800  0.12583500  0.50000000  1
  Si  Si7  1  0.43979200  0.16365000  0.61715000  1
  Si  Si8  1  0.27614200  0.83635000  0.38285000  1
  Si  Si9  1  0.37983500  0.37983500  0.83333300  1
  Si  Si10  1  0.16365000  0.43979200  0.04951700  1
  Si  Si11  1  0.37983500  0.00000000  0.50000000  1
  Si  Si12  1  0.62016500  0.62016500  0.83333300  1
  Si  Si13  1  0.00000000  0.62016500  0.16666700  1
  Si  Si14  1  0.43708200  0.56291800  0.83333300  1
  Si  Si15  1  0.56020800  0.83635000  0.61715000  1
  Si  Si16  1  0.43708200  0.87416500  0.50000000  1
  Si  Si17  1  0.72385800  0.56020800  0.95048300  1
  Si  Si18  1  0.00000000  0.37983500  0.16666700  1
  Si  Si19  1  0.43979200  0.27614200  0.71618300  1
  Si  Si20  1  0.16365000  0.72385800  0.28381700  1
  Si  Si21  1  0.56020800  0.72385800  0.71618300  1
  Si  Si22  1  0.72385800  0.16365000  0.38285000  1
  Si  Si23  1  0.56291800  0.43708200  0.83333300  1
  O  O0  1  0.25356800  0.43175400  0.07615000  1
  O  O1  1  0.93456400  0.52973500  0.23253900  1
  O  O2  1  0.29584700  0.36228500  0.90703800  1
  O  O3  1  0.53824100  0.18135600  0.58176100  1
  O  O4  1  0.36228500  0.29584700  0.75962900  1
  O  O5  1  0.46175900  0.81864400  0.58176100  1
  O  O6  1  0.70415300  0.63771500  0.90703800  1
  O  O7  1  0.56824600  0.74643200  0.59051600  1
  O  O8  1  0.40482800  0.93456400  0.56587200  1
  O  O9  1  0.56824600  0.82181400  0.74281700  1
  O  O10  1  0.40482800  0.47026500  0.76746100  1
  O  O11  1  0.59517200  0.06543600  0.56587200  1
  O  O12  1  0.74643200  0.56824600  0.07615000  1
  O  O13  1  0.64311400  0.46175900  0.91509400  1
  O  O14  1  0.59517200  0.52973500  0.76746100  1
  O  O15  1  0.47026500  0.06543600  0.43412800  1
  O  O16  1  0.52973500  0.59517200  0.89920500  1
  O  O17  1  0.06543600  0.47026500  0.23253900  1
  O  O18  1  0.82181400  0.56824600  0.92385000  1
  O  O19  1  0.35688600  0.53824100  0.91509400  1
  O  O20  1  0.36228500  0.06643800  0.57370500  1
  O  O21  1  0.06643800  0.70415300  0.24037100  1
  O  O22  1  0.64311400  0.18135600  0.41823900  1
  O  O23  1  0.74643200  0.17818600  0.25718300  1
  O  O24  1  0.82181400  0.25356800  0.40948400  1
  O  O25  1  0.63771500  0.70415300  0.75962900  1
  O  O26  1  0.25356800  0.82181400  0.25718300  1
  O  O27  1  0.81864400  0.35688600  0.24842800  1
  O  O28  1  0.70415300  0.06643800  0.42629500  1
  O  O29  1  0.43175400  0.17818600  0.74281700  1
  O  O30  1  0.06543600  0.59517200  0.10079500  1
  O  O31  1  0.43175400  0.25356800  0.59051600  1
  O  O32  1  0.18135600  0.64311400  0.24842800  1
  O  O33  1  0.63771500  0.93356200  0.57370500  1
  O  O34  1  0.52973500  0.93456400  0.43412800  1
  O  O35  1  0.35688600  0.81864400  0.41823900  1
  O  O36  1  0.93456400  0.40482800  0.10079500  1
  O  O37  1  0.06643800  0.36228500  0.09296200  1
  O  O38  1  0.93356200  0.29584700  0.24037100  1
  O  O39  1  0.29584700  0.93356200  0.42629500  1
  O  O40  1  0.53824100  0.35688600  0.75157200  1
  O  O41  1  0.17818600  0.74643200  0.40948400  1
  O  O42  1  0.47026500  0.40482800  0.89920500  1
  O  O43  1  0.18135600  0.53824100  0.08490600  1
  O  O44  1  0.46175900  0.64311400  0.75157200  1
  O  O45  1  0.17818600  0.43175400  0.92385000  1
  O  O46  1  0.81864400  0.46175900  0.08490600  1
  O  O47  1  0.93356200  0.63771500  0.09296200  1
loop_
_geom_bond_atom_site_label_1
_geom_bond_atom_site_label_2
_geom_bond_distance
_geom_bond_site_symmetry_2
O0 Si5 1.672733 1_554
O0 Si10 1.672864 1_555
O1 Si13 1.646480 1_655
O1 Si0 1.655110 1_555
O2 Si9 1.642855 1_555
O2 Si5 1.646727 1_555
O3 Si6 1.631576 1_555
O3 Si7 1.645138 1_555
O4 Si9 1.642847 1_555
O4 Si19 1.646731 1_555
O5 Si16 1.631576 1_555
O5 Si15 1.645138 1_555
O6 Si12 1.642855 1_555
O6 Si17 1.646727 1_555
O7 Si21 1.672733 1_555
O7 Si15 1.672867 1_555
O8 Si11 1.646469 1_565
O8 Si16 1.655110 1_555
O9 Si15 1.672733 1_555
O9 Si21 1.672867 1_555
O10 Si9 1.646484 1_555
O10 Si14 1.655110 1_555
O11 Si4 1.646469 1_555
O11 Si6 1.655110 1_555
O12 Si17 1.672733 1_554
O12 Si3 1.672864 1_555
O13 Si23 1.631551 1_555
O13 Si17 1.645144 1_555
O14 Si12 1.646484 1_555
O14 Si23 1.655110 1_555
O15 Si11 1.646480 1_555
O15 Si6 1.655110 1_555
O16 Si12 1.646484 1_555
O16 Si14 1.655110 1_555
O17 Si18 1.646480 1_555
O17 Si2 1.655110 1_555
O18 Si3 1.672733 1_556
O18 Si17 1.672864 1_555
O19 Si14 1.631551 1_555
O19 Si5 1.645144 1_555
O20 Si11 1.642855 1_555
O20 Si7 1.646727 1_555
O21 Si13 1.642847 1_555
O21 Si20 1.646731 1_555
O22 Si6 1.631557 1_555
O22 Si22 1.645155 1_555
O23 Si22 1.672733 1_555
O23 Si1 1.672867 1_555
O24 Si1 1.672733 1_555
O24 Si22 1.672867 1_555
O25 Si12 1.642847 1_555
O25 Si21 1.646731 1_555
O26 Si8 1.672733 1_555
O26 Si20 1.672867 1_555
O27 Si0 1.631557 1_555
O27 Si1 1.645155 1_555
O28 Si4 1.642855 1_555
O28 Si22 1.646727 1_555
O29 Si7 1.672733 1_555
O29 Si19 1.672867 1_555
O30 Si13 1.646469 1_555
O30 Si2 1.655110 1_555
O31 Si19 1.672733 1_555
O31 Si7 1.672867 1_555
O32 Si2 1.631557 1_555
O32 Si20 1.645155 1_555
O33 Si4 1.642855 1_565
O33 Si15 1.646727 1_555
O34 Si4 1.646480 1_565
O34 Si16 1.655110 1_555
O35 Si16 1.631557 1_555
O35 Si8 1.645155 1_555
O36 Si18 1.646469 1_655
O36 Si0 1.655110 1_555
O37 Si18 1.642855 1_555
O37 Si10 1.646727 1_555
O38 Si18 1.642847 1_655
O38 Si1 1.646731 1_555
O39 Si11 1.642855 1_565
O39 Si8 1.646727 1_555
O40 Si23 1.631551 1_555
O40 Si19 1.645144 1_555
O41 Si20 1.672733 1_555
O41 Si8 1.672867 1_555
O42 Si9 1.646484 1_555
O42 Si23 1.655110 1_555
O43 Si2 1.631576 1_555
O43 Si10 1.645138 1_555
O44 Si14 1.631551 1_555
O44 Si21 1.645144 1_555
O45 Si10 1.672733 1_556
O45 Si5 1.672864 1_555
O46 Si0 1.631576 1_555
O46 Si3 1.645138 1_555
O47 Si13 1.642855 1_655
O47 Si3 1.646727 1_555
