# generated using pymatgen
data_NaPr2S2O8F3
_symmetry_space_group_name_H-M   'P 1'
_cell_length_a   8.65380432
_cell_length_b   8.65380432
_cell_length_c   8.30392041
_cell_angle_alpha   66.56926724
_cell_angle_beta   66.56926724
_cell_angle_gamma   47.67354479
_symmetry_Int_Tables_number   1
_chemical_formula_structural   NaPr2S2O8F3
_chemical_formula_sum   'Na2 Pr4 S4 O16 F6'
_cell_volume   414.04250878
_cell_formula_units_Z   2
loop_
 _symmetry_equiv_pos_site_id
 _symmetry_equiv_pos_as_xyz
  1  'x, y, z'
loop_
 _atom_site_type_symbol
 _atom_site_label
 _atom_site_symmetry_multiplicity
 _atom_site_fract_x
 _atom_site_fract_y
 _atom_site_fract_z
 _atom_site_occupancy
  Na  Na0  1  0.61780300  0.38219700  0.25000000  1
  Na  Na1  1  0.38219700  0.61780300  0.75000000  1
  Pr  Pr0  1  0.78900800  0.97130100  0.96213800  1
  Pr  Pr1  1  0.02869900  0.21099200  0.53786200  1
  Pr  Pr2  1  0.97130100  0.78900800  0.46213800  1
  Pr  Pr3  1  0.21099200  0.02869900  0.03786200  1
  S  S0  1  0.40756300  0.23397300  0.66121100  1
  S  S1  1  0.59243700  0.76602700  0.33878900  1
  S  S2  1  0.76602700  0.59243700  0.83878900  1
  S  S3  1  0.23397300  0.40756300  0.16121100  1
  O  O0  1  0.84578800  0.54360600  0.65554900  1
  O  O1  1  0.39430200  0.86993700  0.47373000  1
  O  O2  1  0.86993700  0.39430200  0.97373000  1
  O  O3  1  0.82347700  0.72745300  0.82051900  1
  O  O4  1  0.70730800  0.53256900  0.38881700  1
  O  O5  1  0.15421200  0.45639400  0.34445100  1
  O  O6  1  0.45639400  0.15421200  0.84445100  1
  O  O7  1  0.29269200  0.46743100  0.61118300  1
  O  O8  1  0.13006300  0.60569800  0.02627000  1
  O  O9  1  0.72745300  0.82347700  0.32051900  1
  O  O10  1  0.46743100  0.29269200  0.11118300  1
  O  O11  1  0.27254700  0.17652300  0.67948100  1
  O  O12  1  0.53256900  0.70730800  0.88881700  1
  O  O13  1  0.60569800  0.13006300  0.52627000  1
  O  O14  1  0.54360600  0.84578800  0.15554900  1
  O  O15  1  0.17652300  0.27254700  0.17948100  1
  F  F0  1  0.89737700  0.01241500  0.16009200  1
  F  F1  1  0.01241500  0.89737700  0.66009200  1
  F  F2  1  0.10262300  0.98758500  0.83990800  1
  F  F3  1  0.98758500  0.10262300  0.33990800  1
  F  F4  1  0.28386800  0.71613200  0.25000000  1
  F  F5  1  0.71613200  0.28386800  0.75000000  1
loop_
_geom_bond_atom_site_label_1
_geom_bond_atom_site_label_2
_geom_bond_distance
_geom_bond_site_symmetry_2
Na0 O2 2.484067 1_554
Na0 O13 2.484067 1_555
Na0 O10 2.623445 1_555
Na0 O4 2.623445 1_555
Na1 O8 2.484067 1_556
Na1 O1 2.484067 1_555
Na1 O7 2.623445 1_555
Na1 O12 2.623445 1_555
O0 S2 1.501196 1_555
O0 Pr1 2.572294 1_655
O0 Pr2 2.697350 1_555
O1 S1 1.483613 1_555
O1 Pr1 2.517762 1_565
O2 S2 1.483613 1_555
O2 Pr3 2.517762 1_656
O3 S2 1.488850 1_555
O3 Pr0 2.602276 1_555
O3 Pr2 2.721387 1_555
O4 S1 1.482801 1_555
O4 Pr1 2.566437 1_655
O5 S3 1.501196 1_555
O5 Pr2 2.572294 1_455
O5 Pr1 2.697350 1_555
O6 S0 1.501196 1_555
O6 Pr0 2.572294 1_545
O6 Pr3 2.697350 1_556
O7 S0 1.482801 1_555
O7 Pr2 2.566437 1_455
O8 S3 1.483613 1_555
O8 Pr0 2.517762 1_454
O9 S1 1.488850 1_555
O9 Pr2 2.602276 1_555
O9 Pr0 2.721387 1_554
O10 S3 1.482801 1_555
O10 Pr0 2.566437 1_544
O11 S0 1.488850 1_555
O11 Pr1 2.602276 1_555
O11 Pr3 2.721387 1_556
O12 S2 1.482801 1_555
O12 Pr3 2.566437 1_566
O13 S0 1.483613 1_555
O13 Pr2 2.517762 1_545
O14 S1 1.501196 1_555
O14 Pr3 2.572294 1_565
O14 Pr0 2.697350 1_554
O15 S3 1.488850 1_555
O15 Pr3 2.602276 1_555
O15 Pr1 2.721387 1_555
F0 Pr0 2.418380 1_544
F0 Pr2 2.488362 1_545
F0 Pr3 2.574148 1_655
F0 Na0 2.586142 1_555
F1 Pr2 2.418380 1_455
F1 Pr0 2.488362 1_455
F1 Pr1 2.574148 1_565
F1 Na1 2.586142 1_555
F2 Pr3 2.418380 1_566
F2 Pr1 2.488362 1_565
F2 Pr0 2.574148 1_455
F2 Na1 2.586142 1_555
F3 Pr1 2.418380 1_655
F3 Pr3 2.488362 1_655
F3 Pr2 2.574148 1_545
F3 Na0 2.586142 1_555
F4 Na0 2.335730 1_555
F4 Pr2 2.369418 1_455
F4 Pr3 2.369418 1_565
F5 Na1 2.335730 1_555
F5 Pr0 2.369418 1_545
F5 Pr1 2.369418 1_655
