# generated using pymatgen
data_S
_symmetry_space_group_name_H-M   'P 1'
_cell_length_a   8.94087234
_cell_length_b   13.55814763
_cell_length_c   18.81083780
_cell_angle_alpha   90.00000000
_cell_angle_beta   90.00000000
_cell_angle_gamma   90.00000000
_symmetry_Int_Tables_number   1
_chemical_formula_structural   S
_chemical_formula_sum   S80
_cell_volume   2280.28111817
_cell_formula_units_Z   80
loop_
 _symmetry_equiv_pos_site_id
 _symmetry_equiv_pos_as_xyz
  1  'x, y, z'
loop_
 _atom_site_type_symbol
 _atom_site_label
 _atom_site_symmetry_multiplicity
 _atom_site_fract_x
 _atom_site_fract_y
 _atom_site_fract_z
 _atom_site_occupancy
  S  S0  1  0.28382856  0.97718922  0.55243105  1
  S  S1  1  0.63470518  0.73524233  0.23462572  1
  S  S2  1  0.77385010  0.29586171  0.55331273  1
  S  S3  1  0.22614990  0.70413829  0.44668727  1
  S  S4  1  0.52723413  0.80184269  0.31829746  1
  S  S5  1  0.06148602  0.10203996  0.07252758  1
  S  S6  1  0.21617144  0.97718922  0.44756895  1
  S  S7  1  0.78382856  0.02281078  0.55243105  1
  S  S8  1  0.56148602  0.39796004  0.42747242  1
  S  S9  1  0.71617144  0.52281078  0.05243105  1
  S  S10  1  0.72614990  0.79586171  0.05331273  1
  S  S11  1  0.86529482  0.23524233  0.73462572  1
  S  S12  1  0.81774504  0.40491971  0.10055039  1
  S  S13  1  0.66662418  0.79099150  0.40472320  1
  S  S14  1  0.86529482  0.73524233  0.76537428  1
  S  S15  1  0.33200767  0.47112282  0.59344585  1
  S  S16  1  0.16799233  0.47112282  0.40655415  1
  S  S17  1  0.83200767  0.52887718  0.59344585  1
  S  S18  1  0.91101086  0.08700096  0.73895253  1
  S  S19  1  0.68225496  0.90491971  0.60055039  1
  S  S20  1  0.72614990  0.29586171  0.44668727  1
  S  S21  1  0.27385010  0.70413829  0.55331273  1
  S  S22  1  0.63470518  0.23524233  0.26537428  1
  S  S23  1  0.56148602  0.89796004  0.07252758  1
  S  S24  1  0.74642272  0.02311351  0.19633382  1
  S  S25  1  0.47276587  0.19815731  0.68170254  1
  S  S26  1  0.02723413  0.19815731  0.31829746  1
  S  S27  1  0.77385010  0.79586171  0.94668727  1
  S  S28  1  0.75357728  0.52311451  0.69633382  1
  S  S29  1  0.71617144  0.02281078  0.44756895  1
  S  S30  1  0.83200767  0.02887718  0.90655415  1
  S  S31  1  0.78382856  0.52281078  0.94756895  1
  S  S32  1  0.68225496  0.40491971  0.89944961  1
  S  S33  1  0.52723413  0.30184269  0.18170254  1
  S  S34  1  0.21617144  0.47718922  0.05243105  1
  S  S35  1  0.31774504  0.09508029  0.39944961  1
  S  S36  1  0.33337582  0.20900850  0.59527680  1
  S  S37  1  0.58898914  0.08700096  0.26104747  1
  S  S38  1  0.66662418  0.29099150  0.09527680  1
  S  S39  1  0.33337582  0.70900850  0.90472320  1
  S  S40  1  0.97276587  0.30184269  0.81829746  1
  S  S41  1  0.81774504  0.90491971  0.39944961  1
  S  S42  1  0.74642272  0.52311451  0.30366618  1
  S  S43  1  0.27385010  0.20413829  0.94668727  1
  S  S44  1  0.06148602  0.60203996  0.42747242  1
  S  S45  1  0.13470518  0.26475767  0.23462572  1
  S  S46  1  0.93851398  0.89796004  0.92747242  1
  S  S47  1  0.97276587  0.80184269  0.68170254  1
  S  S48  1  0.08898914  0.91299904  0.26104747  1
  S  S49  1  0.28382856  0.47718922  0.94756895  1
  S  S50  1  0.22614990  0.20413829  0.05331273  1
  S  S51  1  0.31774504  0.59508029  0.10055039  1
  S  S52  1  0.33200767  0.97112282  0.90655415  1
  S  S53  1  0.36529482  0.26475767  0.76537428  1
  S  S54  1  0.66799233  0.52887718  0.40655415  1
  S  S55  1  0.16662418  0.20900850  0.40472320  1
  S  S56  1  0.25357728  0.97688549  0.80366618  1
  S  S57  1  0.18225496  0.59508029  0.89944961  1
  S  S58  1  0.66799233  0.02887718  0.09344585  1
  S  S59  1  0.16662418  0.70900850  0.09527680  1
  S  S60  1  0.43851398  0.10203996  0.92747242  1
  S  S61  1  0.25357728  0.47688649  0.69633382  1
  S  S62  1  0.75357728  0.02311351  0.80366618  1
  S  S63  1  0.24642372  0.97688549  0.19633382  1
  S  S64  1  0.83337582  0.79099150  0.59527680  1
  S  S65  1  0.41101086  0.91299904  0.73895253  1
  S  S66  1  0.24642372  0.47688649  0.30366618  1
  S  S67  1  0.83337582  0.29099150  0.90472320  1
  S  S68  1  0.02723413  0.69815731  0.18170254  1
  S  S69  1  0.93851398  0.39796004  0.57252758  1
  S  S70  1  0.47276587  0.69815731  0.81829746  1
  S  S71  1  0.08898914  0.41299904  0.23895253  1
  S  S72  1  0.16799233  0.97112282  0.09344585  1
  S  S73  1  0.36529482  0.76475767  0.73462572  1
  S  S74  1  0.43851398  0.60203996  0.57252758  1
  S  S75  1  0.41101086  0.41299904  0.76104747  1
  S  S76  1  0.18225496  0.09508029  0.60055039  1
  S  S77  1  0.13470518  0.76475767  0.26537428  1
  S  S78  1  0.58898914  0.58700096  0.23895253  1
  S  S79  1  0.91101086  0.58700096  0.76104747  1
loop_
_geom_bond_atom_site_label_1
_geom_bond_atom_site_label_2
_geom_bond_distance
_geom_bond_site_symmetry_2
S0 S76 2.049123 1_565
S0 S6 2.063214 1_555
S1 S78 2.052634 1_555
S1 S4 2.053276 1_555
S2 S20 2.050555 1_555
S2 S69 2.052881 1_555
S3 S44 2.052881 1_555
S5 S72 2.052373 1_545
S5 S50 2.052881 1_555
S10 S27 2.050555 1_554
S10 S23 2.052881 1_555
S11 S18 2.052634 1_555
S11 S40 2.053276 1_555
S12 S9 2.049123 1_555
S12 S38 2.054608 1_555
S13 S4 2.053744 1_555
S13 S41 2.054608 1_555
S14 S79 2.052634 1_555
S14 S47 2.053276 1_555
S15 S74 2.052373 1_555
S15 S61 2.060011 1_555
S16 S44 2.052373 1_555
S16 S66 2.060014 1_555
S17 S69 2.052373 1_555
S17 S28 2.060011 1_555
S18 S62 2.052676 1_555
S19 S7 2.049123 1_565
S19 S64 2.054608 1_555
S20 S8 2.052881 1_555
S21 S3 2.050555 1_555
S21 S74 2.052881 1_555
S22 S37 2.052634 1_555
S22 S33 2.053276 1_555
S23 S58 2.052373 1_565
S24 S37 2.052676 1_555
S24 S58 2.060011 1_555
S25 S53 2.053276 1_555
S25 S36 2.053744 1_555
S26 S45 2.053276 1_555
S26 S55 2.053744 1_555
S27 S46 2.052881 1_555
S28 S79 2.052670 1_555
S29 S41 2.049123 1_545
S29 S7 2.063214 1_555
S30 S46 2.052373 1_545
S30 S62 2.060011 1_555
S31 S32 2.049123 1_555
S31 S9 2.063214 1_556
S32 S67 2.054608 1_555
S33 S38 2.053744 1_555
S34 S51 2.049123 1_555
S34 S49 2.063214 1_554
S35 S6 2.049123 1_545
S35 S55 2.054608 1_555
S36 S76 2.054608 1_555
S39 S70 2.053744 1_555
S39 S57 2.054608 1_555
S40 S67 2.053744 1_555
S42 S78 2.052670 1_555
S42 S54 2.060011 1_555
S43 S50 2.050555 1_556
S43 S60 2.052881 1_555
S45 S71 2.052634 1_555
S47 S64 2.053744 1_555
S48 S77 2.052634 1_555
S48 S63 2.052676 1_555
S49 S57 2.049123 1_555
S51 S59 2.054608 1_555
S52 S60 2.052373 1_565
S52 S56 2.060011 1_555
S53 S75 2.052634 1_555
S54 S8 2.052373 1_555
S56 S65 2.052670 1_555
S59 S68 2.053744 1_555
S61 S75 2.052676 1_555
S63 S72 2.060014 1_555
S65 S73 2.052634 1_555
S66 S71 2.052682 1_555
S68 S77 2.053276 1_555
S70 S73 2.053276 1_555
