# generated using pymatgen
data_K6Si2S6O
_symmetry_space_group_name_H-M   'P 1'
_cell_length_a   11.71922160
_cell_length_b   8.34951744
_cell_length_c   8.73788645
_cell_angle_alpha   68.12925215
_cell_angle_beta   90.00000000
_cell_angle_gamma   90.00000000
_symmetry_Int_Tables_number   1
_chemical_formula_structural   K6Si2S6O
_chemical_formula_sum   'K12 Si4 S12 O2'
_cell_volume   793.46348515
_cell_formula_units_Z   2
loop_
 _symmetry_equiv_pos_site_id
 _symmetry_equiv_pos_as_xyz
  1  'x, y, z'
loop_
 _atom_site_type_symbol
 _atom_site_label
 _atom_site_symmetry_multiplicity
 _atom_site_fract_x
 _atom_site_fract_y
 _atom_site_fract_z
 _atom_site_occupancy
  K  K0  1  0.32767539  0.98877548  0.00706257  1
  K  K1  1  0.22107985  0.69308702  0.45606940  1
  K  K2  1  0.56212645  0.28292491  0.22570960  1
  K  K3  1  0.82767539  0.51122452  0.99293743  1
  K  K4  1  0.43787355  0.71707509  0.77429040  1
  K  K5  1  0.77892015  0.30691298  0.54393060  1
  K  K6  1  0.06212645  0.21707509  0.77429040  1
  K  K7  1  0.93787355  0.78292491  0.22570960  1
  K  K8  1  0.27892015  0.19308702  0.45606940  1
  K  K9  1  0.72107985  0.80691298  0.54393060  1
  K  K10  1  0.67232461  0.01122452  0.99293743  1
  K  K11  1  0.17232461  0.48877548  0.00706257  1
  Si  Si0  1  0.48970700  0.35018750  0.68445061  1
  Si  Si1  1  0.98970700  0.14981250  0.31554939  1
  Si  Si2  1  0.51029300  0.64981250  0.31554939  1
  Si  Si3  1  0.01029300  0.85018750  0.68445061  1
  S  S0  1  0.97764474  0.60908219  0.66459944  1
  S  S1  1  0.88388920  0.91174834  0.82763928  1
  S  S2  1  0.82024562  0.13039757  0.23940123  1
  S  S3  1  0.61611080  0.41174834  0.82763928  1
  S  S4  1  0.32024562  0.36960243  0.76059877  1
  S  S5  1  0.11611080  0.08825166  0.17236072  1
  S  S6  1  0.47764474  0.89091781  0.33540056  1
  S  S7  1  0.38388920  0.58825166  0.17236072  1
  S  S8  1  0.02235526  0.39091781  0.33540056  1
  S  S9  1  0.67975438  0.63039757  0.23940123  1
  S  S10  1  0.52235526  0.10908219  0.66459944  1
  S  S11  1  0.17975438  0.86960243  0.76059877  1
  O  O0  1  0.50000000  0.50000000  0.50000000  1
  O  O1  1  0.00000000  -0.00000000  0.50000000  1
loop_
_geom_bond_atom_site_label_1
_geom_bond_atom_site_label_2
_geom_bond_distance
_geom_bond_site_symmetry_2
K0 S4 3.107139 1_564
K0 S5 3.133223 1_565
K0 S7 3.178848 1_555
K0 S11 3.198370 1_554
K0 S6 3.200169 1_555
K0 S10 3.595729 1_564
K1 S4 3.220516 1_555
K1 S0 3.316437 1_455
K1 S6 3.403392 1_555
K1 S7 3.488385 1_555
K1 S11 3.522658 1_555
K1 S5 3.528628 1_565
K2 S7 3.192820 1_555
K2 S6 3.205404 1_545
K2 S9 3.254277 1_555
K2 S2 3.266961 1_555
K2 S3 3.296718 1_554
K2 S10 3.589417 1_555
K3 S2 3.107139 1_556
K3 S3 3.133223 1_555
K3 S1 3.178848 1_555
K3 S9 3.198370 1_556
K3 S0 3.200169 1_555
K3 S8 3.595729 1_656
K4 S3 3.192820 1_555
K4 S10 3.205404 1_565
K4 S4 3.254277 1_555
K4 S11 3.266961 1_555
K4 S7 3.296718 1_556
K4 S6 3.589417 1_555
K5 S9 3.220516 1_555
K5 S8 3.316437 1_655
K5 S10 3.403392 1_555
K5 S3 3.488385 1_555
K5 S2 3.522658 1_555
K5 S1 3.528628 1_545
K6 S1 3.192820 1_445
K6 S0 3.205404 1_455
K6 S11 3.254277 1_545
K6 S4 3.266961 1_555
K6 S5 3.296718 1_556
K6 S8 3.589417 1_555
K7 S5 3.192820 1_665
K7 S8 3.205404 1_655
K7 S2 3.254277 1_565
K7 S9 3.266961 1_555
K7 S1 3.296718 1_554
K7 S0 3.589417 1_555
K8 S11 3.220516 1_545
K8 S10 3.316437 1_555
K8 S8 3.403392 1_555
K8 S5 3.488385 1_555
K8 S4 3.522658 1_555
K8 S7 3.528628 1_555
K9 S2 3.220516 1_565
K9 S6 3.316437 1_555
K9 S0 3.403392 1_555
K9 S1 3.488385 1_555
K9 S9 3.522658 1_555
K9 S3 3.528628 1_555
K10 S9 3.107139 1_546
K10 S1 3.133223 1_545
K10 S3 3.178848 1_555
K10 S2 3.198370 1_556
K10 S10 3.200169 1_555
K10 S6 3.595729 1_546
K11 S11 3.107139 1_554
K11 S7 3.133223 1_555
K11 S5 3.178848 1_555
K11 S4 3.198370 1_554
K11 S8 3.200169 1_555
K11 S0 3.595729 1_454
S0 Si3 2.118787 1_655
S1 Si3 2.122064 1_655
S2 Si1 2.119759 1_555
S3 Si0 2.122064 1_555
S4 Si0 2.119759 1_555
S5 Si1 2.122064 1_455
S6 Si2 2.118787 1_555
S7 Si2 2.122064 1_555
S8 Si1 2.118787 1_455
S9 Si2 2.119759 1_555
S10 Si0 2.118787 1_555
S11 Si3 2.119759 1_555
O0 Si0 1.635486 1_555
O0 Si2 1.635486 1_555
O1 Si3 1.635486 1_545
O1 Si1 1.635486 1_455
