# generated using pymatgen
data_KUNbO6
_symmetry_space_group_name_H-M   'P 1'
_cell_length_a   7.63426300
_cell_length_b   10.47445300
_cell_length_c   13.63424900
_cell_angle_alpha   90.00000000
_cell_angle_beta   90.00000000
_cell_angle_gamma   90.00000000
_symmetry_Int_Tables_number   1
_chemical_formula_structural   KUNbO6
_chemical_formula_sum   'K8 U8 Nb8 O48'
_cell_volume   1090.25902617
_cell_formula_units_Z   8
loop_
 _symmetry_equiv_pos_site_id
 _symmetry_equiv_pos_as_xyz
  1  'x, y, z'
loop_
 _atom_site_type_symbol
 _atom_site_label
 _atom_site_symmetry_multiplicity
 _atom_site_fract_x
 _atom_site_fract_y
 _atom_site_fract_z
 _atom_site_occupancy
  K  K0  1  0.50776700  0.35608000  0.55895200  1
  K  K1  1  0.99223300  0.85608000  0.94104800  1
  K  K2  1  0.49223300  0.64392000  0.44104800  1
  K  K3  1  0.50776700  0.85608000  0.94104800  1
  K  K4  1  0.00776700  0.64392000  0.44104800  1
  K  K5  1  0.00776700  0.14392000  0.05895200  1
  K  K6  1  0.49223300  0.14392000  0.05895200  1
  K  K7  1  0.99223300  0.35608000  0.55895200  1
  U  U0  1  0.75000000  0.85359200  0.22496500  1
  U  U1  1  0.75000000  0.35359200  0.27503500  1
  U  U2  1  0.75000000  0.18434000  0.79812500  1
  U  U3  1  0.25000000  0.14640800  0.77503500  1
  U  U4  1  0.25000000  0.64640800  0.72496500  1
  U  U5  1  0.75000000  0.68434000  0.70187500  1
  U  U6  1  0.25000000  0.81566000  0.20187500  1
  U  U7  1  0.25000000  0.31566000  0.29812500  1
  Nb  Nb0  1  0.99951200  0.45100900  0.89181700  1
  Nb  Nb1  1  0.50048800  0.95100900  0.60818300  1
  Nb  Nb2  1  0.50048800  0.45100900  0.89181700  1
  Nb  Nb3  1  0.49951200  0.04899100  0.39181700  1
  Nb  Nb4  1  0.49951200  0.54899100  0.10818300  1
  Nb  Nb5  1  0.00048800  0.54899100  0.10818300  1
  Nb  Nb6  1  0.00048800  0.04899100  0.39181700  1
  Nb  Nb7  1  0.99951200  0.95100900  0.60818300  1
  O  O0  1  0.75000000  0.08787100  0.91335400  1
  O  O1  1  0.53372600  0.56036300  0.76910600  1
  O  O2  1  0.96876900  0.73273800  0.15826800  1
  O  O3  1  0.75000000  0.45399900  0.38762800  1
  O  O4  1  0.75000000  0.28319200  0.68655000  1
  O  O5  1  0.75000000  0.39302700  0.88341800  1
  O  O6  1  0.25000000  0.48102100  0.85525600  1
  O  O7  1  0.75000000  0.74702100  0.33227900  1
  O  O8  1  0.44917900  0.39348600  0.02739700  1
  O  O9  1  0.75000000  0.78319200  0.81345000  1
  O  O10  1  0.53123100  0.23273800  0.34173200  1
  O  O11  1  0.25000000  0.54600100  0.61237200  1
  O  O12  1  0.46627400  0.93963700  0.26910600  1
  O  O13  1  0.25000000  0.21680800  0.18655000  1
  O  O14  1  0.25000000  0.75297900  0.83227900  1
  O  O15  1  0.55082100  0.60651400  0.97260300  1
  O  O16  1  0.75000000  0.01897900  0.35525600  1
  O  O17  1  0.96876900  0.23273800  0.34173200  1
  O  O18  1  0.94917900  0.10651400  0.52739700  1
  O  O19  1  0.25000000  0.91212900  0.08664600  1
  O  O20  1  0.75000000  0.24702100  0.16772100  1
  O  O21  1  0.25000000  0.04600100  0.88762800  1
  O  O22  1  0.25000000  0.71680800  0.31345000  1
  O  O23  1  0.03372600  0.93963700  0.26910600  1
  O  O24  1  0.25000000  0.41212900  0.41335400  1
  O  O25  1  0.96627400  0.56036300  0.76910600  1
  O  O26  1  0.94917900  0.60651400  0.97260300  1
  O  O27  1  0.46876900  0.76726200  0.65826800  1
  O  O28  1  0.53372600  0.06036300  0.73089400  1
  O  O29  1  0.46876900  0.26726200  0.84173200  1
  O  O30  1  0.53123100  0.73273800  0.15826800  1
  O  O31  1  0.03123100  0.76726200  0.65826800  1
  O  O32  1  0.46627400  0.43963700  0.23089400  1
  O  O33  1  0.75000000  0.51897900  0.14474400  1
  O  O34  1  0.05082100  0.89348600  0.47260300  1
  O  O35  1  0.25000000  0.25297900  0.66772100  1
  O  O36  1  0.75000000  0.89302700  0.61658200  1
  O  O37  1  0.75000000  0.58787100  0.58664600  1
  O  O38  1  0.25000000  0.10697300  0.38341800  1
  O  O39  1  0.55082100  0.10651400  0.52739700  1
  O  O40  1  0.25000000  0.98102100  0.64474400  1
  O  O41  1  0.05082100  0.39348600  0.02739700  1
  O  O42  1  0.75000000  0.95399900  0.11237200  1
  O  O43  1  0.03372600  0.43963700  0.23089400  1
  O  O44  1  0.25000000  0.60697300  0.11658200  1
  O  O45  1  0.44917900  0.89348600  0.47260300  1
  O  O46  1  0.03123100  0.26726200  0.84173200  1
  O  O47  1  0.96627400  0.06036300  0.73089400  1
loop_
_geom_bond_atom_site_label_1
_geom_bond_atom_site_label_2
_geom_bond_distance
_geom_bond_site_symmetry_2
K0 O4 2.651272 1_555
K0 O39 2.669547 1_555
K0 O35 2.690346 1_555
K0 O24 2.856194 1_555
K0 O11 2.891426 1_555
K0 O37 3.075222 1_555
K0 O3 3.150883 1_555
K0 O10 3.236118 1_555
K1 O9 2.651272 1_555
K1 O26 2.669547 1_555
K1 O14 2.690346 1_655
K1 O19 2.856194 1_656
K1 O21 2.891426 1_665
K1 O0 3.075222 1_565
K1 O42 3.150883 1_556
K1 O2 3.236118 1_556
K2 O22 2.651272 1_555
K2 O45 2.669547 1_555
K2 O7 2.690346 1_555
K2 O37 2.856194 1_555
K2 O3 2.891426 1_555
K2 O24 3.075222 1_555
K2 O11 3.150883 1_555
K2 O27 3.236118 1_555
K3 O9 2.651272 1_555
K3 O15 2.669547 1_555
K3 O14 2.690346 1_555
K3 O19 2.856194 1_556
K3 O21 2.891426 1_565
K3 O0 3.075222 1_565
K3 O42 3.150883 1_556
K3 O30 3.236118 1_556
K4 O22 2.651272 1_555
K4 O34 2.669547 1_555
K4 O7 2.690346 1_455
K4 O37 2.856194 1_455
K4 O3 2.891426 1_455
K4 O24 3.075222 1_555
K4 O11 3.150883 1_555
K4 O31 3.236118 1_555
K5 O13 2.651272 1_555
K5 O41 2.669547 1_555
K5 O20 2.690346 1_455
K5 O0 2.856194 1_454
K5 O42 2.891426 1_445
K5 O19 3.075222 1_545
K5 O21 3.150883 1_554
K5 O46 3.236118 1_554
K6 O13 2.651272 1_555
K6 O8 2.669547 1_555
K6 O20 2.690346 1_555
K6 O0 2.856194 1_554
K6 O42 2.891426 1_545
K6 O19 3.075222 1_545
K6 O21 3.150883 1_554
K6 O29 3.236118 1_554
K7 O4 2.651272 1_555
K7 O18 2.669547 1_555
K7 O35 2.690346 1_655
K7 O24 2.856194 1_655
K7 O11 2.891426 1_655
K7 O37 3.075222 1_555
K7 O3 3.150883 1_555
K7 O17 3.236118 1_555
Nb0 O41 1.983314 1_656
Nb0 O6 2.001041 1_655
Nb0 O5 2.002593 1_555
Nb0 O26 2.003483 1_555
Nb0 O25 2.043417 1_555
Nb0 O46 2.056508 1_655
Nb1 O45 1.983314 1_555
Nb1 O40 2.001041 1_555
Nb1 O36 2.002593 1_555
Nb1 O39 2.003483 1_565
Nb1 O28 2.043417 1_565
Nb1 O27 2.056508 1_555
Nb2 O8 1.983314 1_556
Nb2 O6 2.001041 1_555
Nb2 O5 2.002593 1_555
Nb2 O15 2.003483 1_555
Nb2 O1 2.043417 1_555
Nb2 O29 2.056508 1_555
Nb3 O39 1.983314 1_555
Nb3 O16 2.001041 1_555
Nb3 O38 2.002593 1_555
Nb3 O45 2.003483 1_545
Nb3 O12 2.043417 1_545
Nb3 O10 2.056508 1_555
Nb4 O15 1.983314 1_554
Nb4 O33 2.001041 1_555
Nb4 O44 2.002593 1_555
Nb4 O8 2.003483 1_555
Nb4 O32 2.043417 1_555
Nb4 O30 2.056508 1_555
Nb5 O26 1.983314 1_454
Nb5 O33 2.001041 1_455
Nb5 O44 2.002593 1_555
Nb5 O41 2.003483 1_555
Nb5 O43 2.043417 1_555
Nb5 O2 2.056508 1_455
Nb6 O18 1.983314 1_455
Nb6 O16 2.001041 1_455
Nb6 O38 2.002593 1_555
Nb6 O34 2.003483 1_545
Nb6 O23 2.043417 1_545
Nb6 O17 2.056508 1_455
Nb7 O34 1.983314 1_655
Nb7 O40 2.001041 1_655
Nb7 O36 2.002593 1_555
Nb7 O18 2.003483 1_565
Nb7 O47 2.043417 1_565
Nb7 O31 2.056508 1_655
O0 U2 1.867957 1_555
O1 U5 2.291873 1_555
O1 U4 2.422028 1_555
O2 U0 2.284461 1_555
O2 U6 2.391121 1_655
O3 U1 1.860830 1_555
O4 U2 1.840182 1_555
O5 U2 2.475971 1_555
O6 U4 2.481263 1_555
O7 U0 1.840343 1_555
O9 U5 1.840182 1_555
O10 U1 2.284461 1_555
O10 U7 2.391121 1_555
O11 U4 1.860830 1_555
O12 U6 2.291873 1_555
O12 U0 2.422028 1_555
O13 U7 1.840182 1_555
O14 U4 1.840343 1_555
O16 U0 2.481263 1_545
O17 U1 2.284461 1_555
O17 U7 2.391121 1_655
O19 U6 1.867957 1_555
O20 U1 1.840343 1_555
O21 U3 1.860830 1_555
O22 U6 1.840182 1_555
O23 U6 2.291873 1_555
O23 U0 2.422028 1_455
O24 U7 1.867957 1_555
O25 U5 2.291873 1_555
O25 U4 2.422028 1_655
O27 U4 2.284461 1_555
O27 U5 2.391121 1_555
O28 U2 2.291873 1_555
O28 U3 2.422028 1_555
O29 U3 2.284461 1_555
O29 U2 2.391121 1_555
O30 U0 2.284461 1_555
O30 U6 2.391121 1_555
O31 U4 2.284461 1_555
O31 U5 2.391121 1_455
O32 U7 2.291873 1_555
O32 U1 2.422028 1_555
O33 U1 2.481263 1_555
O35 U3 1.840343 1_555
O36 U5 2.475971 1_555
O37 U5 1.867957 1_555
O38 U7 2.475971 1_555
O40 U3 2.481263 1_565
O42 U0 1.860830 1_555
O43 U7 2.291873 1_555
O43 U1 2.422028 1_455
O44 U6 2.475971 1_555
O46 U3 2.284461 1_555
O46 U2 2.391121 1_455
O47 U2 2.291873 1_555
O47 U3 2.422028 1_655
