# generated using pymatgen
data_Ba
_symmetry_space_group_name_H-M   'P 1'
_cell_length_a   7.67354129
_cell_length_b   6.98958920
_cell_length_c   6.98958891
_cell_angle_alpha   72.46307841
_cell_angle_beta   56.70659431
_cell_angle_gamma   56.70659536
_symmetry_Int_Tables_number   1
_chemical_formula_structural   Ba
_chemical_formula_sum   Ba4
_cell_volume   261.92512928
_cell_formula_units_Z   4
loop_
 _symmetry_equiv_pos_site_id
 _symmetry_equiv_pos_as_xyz
  1  'x, y, z'
loop_
 _atom_site_type_symbol
 _atom_site_label
 _atom_site_symmetry_multiplicity
 _atom_site_fract_x
 _atom_site_fract_y
 _atom_site_fract_z
 _atom_site_occupancy
  Ba  Ba0  1  0.18185688  0.50000000  0.13628523  1
  Ba  Ba1  1  0.81814312  0.50000000  0.86371477  1
  Ba  Ba2  1  0.68185688  0.13628523  0.50000000  1
  Ba  Ba3  1  0.31814312  0.86371477  0.50000000  1
loop_
_geom_bond_atom_site_label_1
_geom_bond_atom_site_label_2
_geom_bond_distance
_geom_bond_site_symmetry_2
Ba0 Ba1 4.154117 1_454
Ba0 Ba1 4.154131 1_554
Ba0 Ba1 4.249928 1_455
Ba0 Ba2 4.281908 1_554
Ba0 Ba2 4.281908 1_465
Ba0 Ba3 4.281909 1_554
Ba0 Ba3 4.281909 1_545
Ba1 Ba3 4.281908 1_556
Ba1 Ba3 4.281908 1_645
Ba1 Ba2 4.281909 1_556
Ba1 Ba2 4.281909 1_565
Ba2 Ba3 4.154117 1_545
Ba2 Ba3 4.154131 1_645
Ba2 Ba3 4.249928 1_555
