# generated using pymatgen
data_K4Ba(GeO3)3
_symmetry_space_group_name_H-M   'P 1'
_cell_length_a   7.56790919
_cell_length_b   7.56790919
_cell_length_c   11.56563123
_cell_angle_alpha   89.72421371
_cell_angle_beta   89.72421371
_cell_angle_gamma   111.61380254
_symmetry_Int_Tables_number   1
_chemical_formula_structural   K4Ba(GeO3)3
_chemical_formula_sum   'K8 Ba2 Ge6 O18'
_cell_volume   615.80378780
_cell_formula_units_Z   2
loop_
 _symmetry_equiv_pos_site_id
 _symmetry_equiv_pos_as_xyz
  1  'x, y, z'
loop_
 _atom_site_type_symbol
 _atom_site_label
 _atom_site_symmetry_multiplicity
 _atom_site_fract_x
 _atom_site_fract_y
 _atom_site_fract_z
 _atom_site_occupancy
  K  K0  1  0.29327700  0.15783500  0.74907100  1
  K  K1  1  0.05010400  0.94989600  0.00000000  1
  K  K2  1  0.84216500  0.70672300  0.25092900  1
  K  K3  1  0.56680200  0.43319800  0.00000000  1
  K  K4  1  0.58685900  0.41314100  0.50000000  1
  K  K5  1  0.31042600  0.58320200  0.25429600  1
  K  K6  1  0.99844800  0.00155200  0.50000000  1
  K  K7  1  0.41679800  0.68957400  0.74570400  1
  Ba  Ba0  1  0.81724900  0.19761000  0.22965300  1
  Ba  Ba1  1  0.80239000  0.18275100  0.77034700  1
  Ge  Ge0  1  0.88977400  0.66731000  0.74190300  1
  Ge  Ge1  1  0.33269000  0.11022600  0.25809700  1
  Ge  Ge2  1  0.48640400  0.90765600  0.47564000  1
  Ge  Ge3  1  0.10048500  0.50751300  0.96911100  1
  Ge  Ge4  1  0.09234400  0.51359600  0.52436000  1
  Ge  Ge5  1  0.49248700  0.89951500  0.03088900  1
  O  O0  1  0.34606000  0.65394000  0.50000000  1
  O  O1  1  0.10200300  0.09741700  0.23916900  1
  O  O2  1  0.90258300  0.89799700  0.76083100  1
  O  O3  1  0.99158900  0.66851400  0.59814000  1
  O  O4  1  0.34906700  0.65093300  0.00000000  1
  O  O5  1  0.48976900  0.05106200  0.91769000  1
  O  O6  1  0.36801900  0.94015400  0.15863600  1
  O  O7  1  0.33148600  0.00841100  0.40186000  1
  O  O8  1  0.05984600  0.63198100  0.84136400  1
  O  O9  1  0.70729100  0.89345700  0.07816300  1
  O  O10  1  0.51765400  0.33336800  0.24905900  1
  O  O11  1  0.09595600  0.32982000  0.61435700  1
  O  O12  1  0.67018000  0.90404400  0.38564300  1
  O  O13  1  0.53839300  0.02541400  0.60781600  1
  O  O14  1  0.94893800  0.51023100  0.08231000  1
  O  O15  1  0.10654300  0.29270900  0.92183700  1
  O  O16  1  0.97458600  0.46160700  0.39218400  1
  O  O17  1  0.66663200  0.48234600  0.75094100  1
loop_
_geom_bond_atom_site_label_1
_geom_bond_atom_site_label_2
_geom_bond_distance
_geom_bond_site_symmetry_2
K0 O5 2.750526 1_555
K0 O11 2.790398 1_555
K0 O15 2.843704 1_555
K0 O2 2.887538 1_445
K0 O13 2.910410 1_555
K0 O17 2.984023 1_555
K1 O15 2.624464 1_564
K1 O9 2.624464 1_455
K1 O2 2.961310 1_454
K1 O1 2.961310 1_565
K1 O8 3.054853 1_554
K1 O6 3.054853 1_555
K1 O14 3.263344 1_455
K1 O5 3.263344 1_564
K2 O14 2.750526 1_555
K2 O12 2.790398 1_555
K2 O9 2.843704 1_555
K2 O1 2.887538 1_665
K2 O16 2.910410 1_555
K2 O10 2.984023 1_555
K3 O4 2.725948 1_555
K3 O14 2.898173 1_555
K3 O5 2.898173 1_554
K3 O17 2.961127 1_554
K3 O10 2.961127 1_555
K4 O10 2.976681 1_555
K4 O17 2.976681 1_555
K4 O0 3.014699 1_555
K4 O16 3.076842 1_555
K4 O13 3.076842 1_555
K4 O7 3.177860 1_555
K4 O3 3.177860 1_555
K5 O6 2.794756 1_555
K5 O16 2.841421 1_455
K5 O10 2.867514 1_555
K5 O0 2.889699 1_555
K5 O4 2.977427 1_555
K5 O14 3.270425 1_455
K5 O12 3.289541 1_555
K5 O1 3.430914 1_555
K6 O12 2.675085 1_545
K6 O11 2.675085 1_655
K6 O3 2.742074 1_545
K6 O7 2.742074 1_655
K6 O2 3.127005 1_545
K6 O1 3.127005 1_655
K7 O8 2.794756 1_555
K7 O13 2.841421 1_565
K7 O17 2.867514 1_555
K7 O0 2.889699 1_555
K7 O4 2.977427 1_556
K7 O5 3.270425 1_565
K7 O11 3.289541 1_555
K7 O2 3.430914 1_555
Ba0 O1 2.536989 1_655
Ba0 O16 2.692233 1_555
Ba0 O12 2.747713 1_545
Ba0 O9 2.775302 1_545
Ba0 O14 2.775332 1_555
Ba0 O10 2.821353 1_555
Ba1 O2 2.536989 1_545
Ba1 O13 2.692233 1_555
Ba1 O11 2.747713 1_655
Ba1 O15 2.775302 1_655
Ba1 O5 2.775332 1_555
Ba1 O17 2.821353 1_555
Ge0 O2 1.727545 1_555
Ge0 O17 1.754297 1_555
Ge0 O8 1.821030 1_655
Ge0 O3 1.827771 1_555
Ge1 O1 1.727545 1_555
Ge1 O10 1.754297 1_555
Ge1 O6 1.821030 1_545
Ge1 O7 1.827771 1_555
Ge2 O12 1.741503 1_555
Ge2 O13 1.745429 1_565
Ge2 O7 1.829218 1_565
Ge2 O0 1.839500 1_555
Ge3 O15 1.734039 1_555
Ge3 O14 1.741558 1_456
Ge3 O4 1.830502 1_556
Ge3 O8 1.835542 1_555
Ge4 O11 1.741503 1_555
Ge4 O16 1.745429 1_455
Ge4 O3 1.829218 1_455
Ge4 O0 1.839500 1_555
Ge5 O9 1.734039 1_555
Ge5 O5 1.741558 1_564
Ge5 O4 1.830502 1_555
Ge5 O6 1.835542 1_555
