# generated using pymatgen
data_Dy2Tc2O7
_symmetry_space_group_name_H-M   'P 1'
_cell_length_a   7.29519945
_cell_length_b   7.29519945
_cell_length_c   7.29519945
_cell_angle_alpha   60.00000000
_cell_angle_beta   60.00000000
_cell_angle_gamma   60.00000000
_symmetry_Int_Tables_number   1
_chemical_formula_structural   Dy2Tc2O7
_chemical_formula_sum   'Dy4 Tc4 O14'
_cell_volume   274.53423635
_cell_formula_units_Z   2
loop_
 _symmetry_equiv_pos_site_id
 _symmetry_equiv_pos_as_xyz
  1  'x, y, z'
loop_
 _atom_site_type_symbol
 _atom_site_label
 _atom_site_symmetry_multiplicity
 _atom_site_fract_x
 _atom_site_fract_y
 _atom_site_fract_z
 _atom_site_occupancy
  Dy  Dy0  1  0.62500000  0.12500000  0.12500000  1
  Dy  Dy1  1  0.12500000  0.62500000  0.12500000  1
  Dy  Dy2  1  0.12500000  0.12500000  0.62500000  1
  Dy  Dy3  1  0.12500000  0.12500000  0.12500000  1
  Tc  Tc0  1  0.62500000  0.12500000  0.62500000  1
  Tc  Tc1  1  0.62500000  0.62500000  0.12500000  1
  Tc  Tc2  1  0.12500000  0.62500000  0.62500000  1
  Tc  Tc3  1  0.62500000  0.62500000  0.62500000  1
  O  O0  1  0.53668400  0.96331600  0.53668400  1
  O  O1  1  0.28668400  0.71331600  0.28668400  1
  O  O2  1  0.28668400  0.28668400  0.71331600  1
  O  O3  1  0.28668400  0.71331600  0.71331600  1
  O  O4  1  0.53668400  0.96331600  0.96331600  1
  O  O5  1  0.71331600  0.28668400  0.28668400  1
  O  O6  1  0.53668400  0.53668400  0.96331600  1
  O  O7  1  0.00000000  0.00000000  0.00000000  1
  O  O8  1  0.96331600  0.53668400  0.53668400  1
  O  O9  1  0.71331600  0.28668400  0.71331600  1
  O  O10  1  0.96331600  0.53668400  0.96331600  1
  O  O11  1  0.25000000  0.25000000  0.25000000  1
  O  O12  1  0.96331600  0.96331600  0.53668400  1
  O  O13  1  0.71331600  0.71331600  0.28668400  1
loop_
_geom_bond_atom_site_label_1
_geom_bond_atom_site_label_2
_geom_bond_distance
_geom_bond_site_symmetry_2
Dy0 O7 2.233690 1_655
Dy0 O11 2.233690 1_555
Dy0 O5 2.471592 1_555
Dy0 O9 2.471592 1_554
Dy0 O4 2.471592 1_544
Dy0 O6 2.471592 1_554
Dy0 O0 2.471592 1_545
Dy0 O13 2.471592 1_545
Dy1 O11 2.233690 1_555
Dy1 O7 2.233690 1_565
Dy1 O1 2.471592 1_555
Dy1 O10 2.471592 1_454
Dy1 O3 2.471592 1_554
Dy1 O6 2.471592 1_554
Dy1 O13 2.471592 1_455
Dy1 O8 2.471592 1_455
Dy2 O7 2.233690 1_556
Dy2 O11 2.233690 1_555
Dy2 O2 2.471592 1_555
Dy2 O3 2.471592 1_545
Dy2 O12 2.471592 1_445
Dy2 O9 2.471592 1_455
Dy2 O0 2.471592 1_545
Dy2 O8 2.471592 1_455
Dy3 O7 2.233690 1_555
Dy3 O11 2.233690 1_555
Dy3 O10 2.471592 1_454
Dy3 O4 2.471592 1_544
Dy3 O1 2.471592 1_545
Dy3 O12 2.471592 1_445
Dy3 O5 2.471592 1_455
Dy3 O2 2.471592 1_554
O0 Tc0 2.038737 1_565
O0 Tc3 2.038737 1_555
O1 Tc2 2.038737 1_555
O1 Tc1 2.038737 1_555
O2 Tc2 2.038737 1_555
O2 Tc0 2.038737 1_555
O3 Tc2 2.038737 1_555
O3 Tc3 2.038737 1_555
O4 Tc1 2.038737 1_556
O4 Tc0 2.038737 1_565
O5 Tc0 2.038737 1_555
O5 Tc1 2.038737 1_555
O6 Tc1 2.038737 1_556
O6 Tc3 2.038737 1_555
O8 Tc3 2.038737 1_555
O8 Tc2 2.038737 1_655
O9 Tc0 2.038737 1_555
O9 Tc3 2.038737 1_555
O10 Tc1 2.038737 1_556
O10 Tc2 2.038737 1_655
O12 Tc0 2.038737 1_565
O12 Tc2 2.038737 1_655
O13 Tc1 2.038737 1_555
O13 Tc3 2.038737 1_555
