# generated using pymatgen
data_Th(NiP)2
_symmetry_space_group_name_H-M   'P 1'
_cell_length_a   4.07752222
_cell_length_b   4.07752222
_cell_length_c   8.93042657
_cell_angle_alpha   90.00000000
_cell_angle_beta   90.00000000
_cell_angle_gamma   90.00000000
_symmetry_Int_Tables_number   1
_chemical_formula_structural   Th(NiP)2
_chemical_formula_sum   'Th2 Ni4 P4'
_cell_volume   148.47894620
_cell_formula_units_Z   2
loop_
 _symmetry_equiv_pos_site_id
 _symmetry_equiv_pos_as_xyz
  1  'x, y, z'
loop_
 _atom_site_type_symbol
 _atom_site_label
 _atom_site_symmetry_multiplicity
 _atom_site_fract_x
 _atom_site_fract_y
 _atom_site_fract_z
 _atom_site_occupancy
  Th  Th0  1  0.75000000  0.75000000  0.75338173  1
  Th  Th1  1  0.25000000  0.25000000  0.24661827  1
  Ni  Ni0  1  0.75000000  0.75000000  0.38864537  1
  Ni  Ni1  1  0.25000000  0.25000000  0.61135463  1
  Ni  Ni2  1  0.25000000  0.75000000  -0.00000000  1
  Ni  Ni3  1  0.75000000  0.25000000  -0.00000000  1
  P  P0  1  0.25000000  0.25000000  0.87290424  1
  P  P1  1  0.75000000  0.75000000  0.12709576  1
  P  P2  1  0.75000000  0.25000000  0.50000000  1
  P  P3  1  0.25000000  0.75000000  0.50000000  1
loop_
_geom_bond_atom_site_label_1
_geom_bond_atom_site_label_2
_geom_bond_distance
_geom_bond_site_symmetry_2
Ni0 P2 2.268362 1_565
Ni0 P2 2.268362 1_555
Ni0 P3 2.268362 1_555
Ni0 P3 2.268362 1_655
Ni0 P1 2.335750 1_555
Ni0 Th1 3.149895 1_565
Ni0 Th1 3.149895 1_555
Ni0 Th1 3.149895 1_655
Ni0 Th1 3.149895 1_665
Ni0 Th0 3.257251 1_555
Ni1 P2 2.268362 1_555
Ni1 P3 2.268362 1_555
Ni1 P2 2.268362 1_455
Ni1 P3 2.268362 1_545
Ni1 P0 2.335750 1_555
Ni1 Th0 3.149895 1_555
Ni1 Th0 3.149895 1_445
Ni1 Th0 3.149895 1_545
Ni1 Th0 3.149895 1_455
Ni1 Th1 3.257251 1_555
Ni2 P1 2.333413 1_455
Ni2 P1 2.333413 1_555
Ni2 P0 2.333413 1_554
Ni2 P0 2.333413 1_564
Ni2 Th0 3.001190 1_554
Ni2 Th0 3.001190 1_454
Ni2 Th1 3.001190 1_565
Ni2 Th1 3.001190 1_555
Ni3 P1 2.333413 1_555
Ni3 P0 2.333413 1_654
Ni3 P1 2.333413 1_545
Ni3 P0 2.333413 1_554
Ni3 Th1 3.001190 1_655
Ni3 Th0 3.001190 1_544
Ni3 Th1 3.001190 1_555
Ni3 Th0 3.001190 1_554
P0 Th0 3.074477 1_455
P0 Th0 3.074477 1_445
P0 Th0 3.074477 1_555
P0 Th0 3.074477 1_545
P0 Th1 3.337426 1_556
P1 Th1 3.074477 1_655
P1 Th1 3.074477 1_665
P1 Th1 3.074477 1_565
P1 Th1 3.074477 1_555
P1 Th0 3.337426 1_554
P2 Th0 3.045791 1_555
P2 Th0 3.045791 1_545
P2 Th1 3.045791 1_555
P2 Th1 3.045791 1_655
P3 Th0 3.045791 1_555
P3 Th1 3.045791 1_565
P3 Th0 3.045791 1_455
P3 Th1 3.045791 1_555
