# generated using pymatgen
data_Th2Zn17
_symmetry_space_group_name_H-M   'P 1'
_cell_length_a   6.76804965
_cell_length_b   6.76804806
_cell_length_c   6.76804876
_cell_angle_alpha   82.87865740
_cell_angle_beta   82.87867511
_cell_angle_gamma   82.87865593
_symmetry_Int_Tables_number   1
_chemical_formula_structural   Th2Zn17
_chemical_formula_sum   'Th2 Zn17'
_cell_volume   303.39340094
_cell_formula_units_Z   1
loop_
 _symmetry_equiv_pos_site_id
 _symmetry_equiv_pos_as_xyz
  1  'x, y, z'
loop_
 _atom_site_type_symbol
 _atom_site_label
 _atom_site_symmetry_multiplicity
 _atom_site_fract_x
 _atom_site_fract_y
 _atom_site_fract_z
 _atom_site_occupancy
  Th  Th0  1  0.33763068  0.33763068  0.33763068  1
  Th  Th1  1  0.66236932  0.66236932  0.66236932  1
  Zn  Zn0  1  -0.00000000  -0.00000000  0.50000000  1
  Zn  Zn1  1  0.50000000  -0.00000000  0.00000000  1
  Zn  Zn2  1  -0.00000000  0.50000000  0.00000000  1
  Zn  Zn3  1  0.29105557  0.70894443  0.00000000  1
  Zn  Zn4  1  -0.00000000  0.29105557  0.70894443  1
  Zn  Zn5  1  0.70894443  0.00000000  0.29105557  1
  Zn  Zn6  1  0.70894443  0.29105557  -0.00000000  1
  Zn  Zn7  1  0.00000000  0.70894443  0.29105557  1
  Zn  Zn8  1  0.29105557  -0.00000000  0.70894443  1
  Zn  Zn9  1  0.65023224  0.16057763  0.65023224  1
  Zn  Zn10  1  0.65023224  0.65023224  0.16057763  1
  Zn  Zn11  1  0.16057763  0.65023224  0.65023224  1
  Zn  Zn12  1  0.83942237  0.34976776  0.34976776  1
  Zn  Zn13  1  0.34976776  0.83942237  0.34976776  1
  Zn  Zn14  1  0.34976776  0.34976776  0.83942237  1
  Zn  Zn15  1  0.09881686  0.09881686  0.09881686  1
  Zn  Zn16  1  0.90118314  0.90118314  0.90118314  1
loop_
_geom_bond_atom_site_label_1
_geom_bond_atom_site_label_2
_geom_bond_distance
_geom_bond_site_symmetry_2
Th0 Zn15 3.127381 1_555
Th0 Zn3 3.192948 1_555
Th0 Zn7 3.192948 1_555
Th0 Zn8 3.192948 1_555
Th0 Zn5 3.192948 1_555
Th0 Zn4 3.192949 1_555
Th0 Zn6 3.192949 1_555
Th0 Zn9 3.200152 1_555
Th0 Zn11 3.200152 1_555
Th0 Zn10 3.200152 1_555
Th0 Zn13 3.353731 1_545
Th0 Zn14 3.353731 1_554
Th0 Zn12 3.353732 1_455
Th0 Zn13 3.418676 1_555
Th0 Zn14 3.418676 1_555
Th0 Zn12 3.418677 1_555
Th0 Zn2 3.420590 1_555
Th0 Zn1 3.420591 1_555
Th0 Zn0 3.420591 1_555
Th1 Zn16 3.127381 1_555
Th1 Zn6 3.192948 1_556
Th1 Zn4 3.192948 1_655
Th1 Zn5 3.192948 1_565
Th1 Zn8 3.192948 1_565
Th1 Zn7 3.192949 1_655
Th1 Zn3 3.192949 1_556
Th1 Zn13 3.200152 1_555
Th1 Zn12 3.200152 1_555
Th1 Zn14 3.200152 1_555
Th1 Zn9 3.353731 1_565
Th1 Zn10 3.353731 1_556
Th1 Zn11 3.353732 1_655
Th1 Zn9 3.418676 1_555
Th1 Zn10 3.418676 1_555
Th1 Zn11 3.418677 1_555
Th1 Zn2 3.420590 1_656
Th1 Zn1 3.420591 1_566
Th1 Zn0 3.420591 1_665
Zn0 Zn7 2.563381 1_545
Zn0 Zn4 2.563381 1_555
Zn0 Zn5 2.563381 1_455
Zn0 Zn8 2.563381 1_555
Zn0 Zn11 2.618803 1_545
Zn0 Zn12 2.618803 1_455
Zn0 Zn13 2.618803 1_545
Zn0 Zn9 2.618803 1_455
Zn0 Zn16 2.734492 1_445
Zn0 Zn15 2.734492 1_555
Zn1 Zn8 2.563381 1_554
Zn1 Zn5 2.563381 1_555
Zn1 Zn3 2.563381 1_545
Zn1 Zn6 2.563381 1_555
Zn1 Zn10 2.618803 1_545
Zn1 Zn14 2.618803 1_554
Zn1 Zn13 2.618803 1_545
Zn1 Zn9 2.618803 1_554
Zn1 Zn16 2.734492 1_544
Zn1 Zn15 2.734492 1_555
Zn2 Zn4 2.563381 1_554
Zn2 Zn7 2.563381 1_555
Zn2 Zn6 2.563381 1_455
Zn2 Zn3 2.563381 1_555
Zn3 Zn8 2.607436 1_564
Zn3 Zn7 2.607436 1_555
Zn4 Zn8 2.607436 1_555
Zn4 Zn6 2.607436 1_456
Zn4 Zn9 2.716640 1_455
Zn5 Zn6 2.607436 1_555
Zn5 Zn7 2.607436 1_645
Zn5 Zn9 2.748980 1_555
Zn6 Zn9 2.716640 1_554
Zn8 Zn9 2.748980 1_555
Zn10 Zn12 2.555337 1_555
Zn10 Zn13 2.555338 1_555
Zn10 Zn2 2.618803 1_655
Zn10 Zn5 2.716640 1_565
Zn10 Zn7 2.716640 1_655
Zn10 Zn6 2.748980 1_555
Zn10 Zn3 2.748980 1_555
Zn10 Zn16 2.843974 1_554
Zn11 Zn14 2.555337 1_555
Zn11 Zn13 2.555338 1_555
Zn11 Zn2 2.618803 1_556
Zn11 Zn8 2.716640 1_565
Zn11 Zn3 2.716640 1_556
Zn11 Zn7 2.748980 1_555
Zn11 Zn4 2.748980 1_555
Zn11 Zn16 2.843974 1_455
Zn12 Zn9 2.555338 1_555
Zn12 Zn2 2.618803 1_655
Zn12 Zn5 2.716640 1_555
Zn12 Zn6 2.716640 1_555
Zn12 Zn4 2.748980 1_655
Zn12 Zn7 2.748980 1_655
Zn12 Zn15 2.843974 1_655
Zn13 Zn3 2.716640 1_555
Zn13 Zn7 2.716640 1_555
Zn13 Zn8 2.748980 1_565
Zn13 Zn5 2.748980 1_565
Zn13 Zn15 2.843974 1_565
Zn14 Zn9 2.555338 1_555
Zn14 Zn2 2.618803 1_556
Zn14 Zn8 2.716640 1_555
Zn14 Zn4 2.716640 1_555
Zn14 Zn3 2.748980 1_556
Zn14 Zn6 2.748980 1_556
Zn14 Zn15 2.843974 1_556
Zn15 Zn16 2.588108 1_444
Zn15 Zn2 2.734491 1_555
Zn15 Zn4 2.910893 1_554
Zn15 Zn3 2.910893 1_545
Zn15 Zn7 2.910893 1_545
Zn15 Zn6 2.910893 1_455
Zn15 Zn8 2.910893 1_554
Zn15 Zn5 2.910893 1_455
Zn16 Zn2 2.734491 1_656
Zn16 Zn9 2.843974 1_565
Zn16 Zn7 2.910893 1_656
Zn16 Zn6 2.910893 1_566
Zn16 Zn4 2.910893 1_665
Zn16 Zn3 2.910893 1_656
Zn16 Zn5 2.910893 1_566
Zn16 Zn8 2.910893 1_665
