# generated using pymatgen
data_TmZrSb
_symmetry_space_group_name_H-M   'P 1'
_cell_length_a   4.24870907
_cell_length_b   4.24870940
_cell_length_c   8.73679879
_cell_angle_alpha   104.07254207
_cell_angle_beta   104.07254238
_cell_angle_gamma   89.99999004
_symmetry_Int_Tables_number   1
_chemical_formula_structural   TmZrSb
_chemical_formula_sum   'Tm2 Zr2 Sb2'
_cell_volume   148.09505717
_cell_formula_units_Z   2
loop_
 _symmetry_equiv_pos_site_id
 _symmetry_equiv_pos_as_xyz
  1  'x, y, z'
loop_
 _atom_site_type_symbol
 _atom_site_label
 _atom_site_symmetry_multiplicity
 _atom_site_fract_x
 _atom_site_fract_y
 _atom_site_fract_z
 _atom_site_occupancy
  Tm  Tm0  1  0.32459505  0.32459505  0.64919110  1
  Tm  Tm1  1  0.67540495  0.67540495  0.35080890  1
  Zr  Zr0  1  0.50000000  0.00000000  -0.00000000  1
  Zr  Zr1  1  -0.00000000  0.50000000  -0.00000000  1
  Sb  Sb0  1  0.13557708  0.13557708  0.27115516  1
  Sb  Sb1  1  0.86442292  0.86442292  0.72884484  1
loop_
_geom_bond_atom_site_label_1
_geom_bond_atom_site_label_2
_geom_bond_distance
_geom_bond_site_symmetry_2
Sb0 Tm1 3.074535 1_445
Sb0 Tm1 3.074541 1_545
Sb0 Tm1 3.074541 1_455
Sb0 Tm1 3.074547 1_555
Sb0 Zr0 3.075963 1_455
Sb0 Zr1 3.075963 1_545
Sb0 Zr0 3.075966 1_555
Sb0 Zr1 3.075966 1_555
Sb0 Tm0 3.101413 1_555
Sb1 Tm0 3.074535 1_665
Sb1 Tm0 3.074541 1_565
Sb1 Tm0 3.074541 1_655
Sb1 Tm0 3.074547 1_555
Sb1 Zr0 3.075963 1_666
Sb1 Zr1 3.075963 1_666
Sb1 Zr0 3.075966 1_566
Sb1 Zr1 3.075966 1_656
Sb1 Tm1 3.101413 1_555
