# generated using pymatgen
data_Li4Ti7O16
_symmetry_space_group_name_H-M   'P 1'
_cell_length_a   5.99388000
_cell_length_b   8.47172200
_cell_length_c   11.79651200
_cell_angle_alpha   90.00000000
_cell_angle_beta   90.00000000
_cell_angle_gamma   90.00000000
_symmetry_Int_Tables_number   1
_chemical_formula_structural   Li4Ti7O16
_chemical_formula_sum   'Li8 Ti14 O32'
_cell_volume   599.00900837
_cell_formula_units_Z   2
loop_
 _symmetry_equiv_pos_site_id
 _symmetry_equiv_pos_as_xyz
  1  'x, y, z'
loop_
 _atom_site_type_symbol
 _atom_site_label
 _atom_site_symmetry_multiplicity
 _atom_site_fract_x
 _atom_site_fract_y
 _atom_site_fract_z
 _atom_site_occupancy
  Li  Li0  1  0.50000000  0.38436100  0.87292100  1
  Li  Li1  1  0.00000000  0.87706200  0.12856600  1
  Li  Li2  1  0.50000000  0.37706200  0.37143400  1
  Li  Li3  1  0.50000000  0.61563900  0.12707900  1
  Li  Li4  1  0.00000000  0.11563900  0.37292100  1
  Li  Li5  1  0.00000000  0.88436100  0.62707900  1
  Li  Li6  1  0.50000000  0.62293800  0.62856600  1
  Li  Li7  1  0.00000000  0.12293800  0.87143400  1
  Ti  Ti0  1  0.26083600  0.76198800  0.88155700  1
  Ti  Ti1  1  0.73916400  0.76198800  0.88155700  1
  Ti  Ti2  1  0.73916400  0.23801200  0.11844300  1
  Ti  Ti3  1  0.00000000  0.50000000  0.00000000  1
  Ti  Ti4  1  0.00000000  0.48573100  0.25876500  1
  Ti  Ti5  1  0.26083600  0.23801200  0.11844300  1
  Ti  Ti6  1  0.23916400  0.73801200  0.38155700  1
  Ti  Ti7  1  0.50000000  0.98573100  0.24123500  1
  Ti  Ti8  1  0.50000000  0.00000000  0.50000000  1
  Ti  Ti9  1  0.76083600  0.73801200  0.38155700  1
  Ti  Ti10  1  0.76083600  0.26198800  0.61844300  1
  Ti  Ti11  1  0.00000000  0.51426900  0.74123500  1
  Ti  Ti12  1  0.23916400  0.26198800  0.61844300  1
  Ti  Ti13  1  0.50000000  0.01426900  0.75876500  1
  O  O0  1  0.50000000  0.74073300  0.98310500  1
  O  O1  1  0.78246800  0.51409600  0.87648600  1
  O  O2  1  0.78246800  0.48590400  0.12351400  1
  O  O3  1  0.00000000  0.73904400  0.98887300  1
  O  O4  1  0.00000000  0.26555100  0.24027300  1
  O  O5  1  0.00000000  0.26095600  0.01112700  1
  O  O6  1  0.25846600  0.02069000  0.13916800  1
  O  O7  1  0.28246800  0.98590400  0.37648600  1
  O  O8  1  0.21753200  0.51409600  0.87648600  1
  O  O9  1  0.21753200  0.48590400  0.12351400  1
  O  O10  1  0.50000000  0.23923300  0.23445900  1
  O  O11  1  0.50000000  0.25926700  0.01689500  1
  O  O12  1  0.50000000  0.76555100  0.25972700  1
  O  O13  1  0.50000000  0.76095600  0.48887300  1
  O  O14  1  0.75846600  0.52069000  0.36083200  1
  O  O15  1  0.75846600  0.47931000  0.63916800  1
  O  O16  1  0.74153400  0.02069000  0.13916800  1
  O  O17  1  0.71753200  0.98590400  0.37648600  1
  O  O18  1  0.00000000  0.75926700  0.48310500  1
  O  O19  1  0.00000000  0.73923300  0.26554100  1
  O  O20  1  0.00000000  0.24073300  0.51689500  1
  O  O21  1  0.00000000  0.26076700  0.73445900  1
  O  O22  1  0.24153400  0.52069000  0.36083200  1
  O  O23  1  0.28246800  0.01409600  0.62351400  1
  O  O24  1  0.25846600  0.97931000  0.86083200  1
  O  O25  1  0.24153400  0.47931000  0.63916800  1
  O  O26  1  0.50000000  0.23444900  0.74027300  1
  O  O27  1  0.50000000  0.23904400  0.51112700  1
  O  O28  1  0.50000000  0.76076700  0.76554100  1
  O  O29  1  0.71753200  0.01409600  0.62351400  1
  O  O30  1  0.74153400  0.97931000  0.86083200  1
  O  O31  1  0.00000000  0.73444900  0.75972700  1
loop_
_geom_bond_atom_site_label_1
_geom_bond_atom_site_label_2
_geom_bond_distance
_geom_bond_site_symmetry_2
Li0 O11 2.001906 1_556
Li0 O26 2.015312 1_555
Li0 O8 2.018975 1_555
Li0 O1 2.018975 1_555
Li1 O6 1.973892 1_565
Li1 O16 1.973892 1_465
Li1 O19 1.993565 1_555
Li1 O3 2.020566 1_554
Li2 O14 1.973892 1_555
Li2 O22 1.973892 1_555
Li2 O10 1.993565 1_555
Li2 O27 2.020566 1_555
Li3 O0 2.001906 1_554
Li3 O12 2.015312 1_555
Li3 O9 2.018975 1_555
Li3 O2 2.018975 1_555
Li4 O20 2.001906 1_555
Li4 O4 2.015312 1_555
Li4 O17 2.018975 1_445
Li4 O7 2.018975 1_545
Li5 O18 2.001906 1_555
Li5 O31 2.015312 1_555
Li5 O29 2.018975 1_465
Li5 O23 2.018975 1_565
Li6 O25 1.973892 1_555
Li6 O15 1.973892 1_555
Li6 O28 1.993565 1_555
Li6 O13 2.020566 1_555
Li7 O24 1.973892 1_545
Li7 O30 1.973892 1_445
Li7 O21 1.993565 1_555
Li7 O5 2.020566 1_556
O0 Ti0 1.876805 1_555
O0 Ti1 1.876805 1_555
O1 Ti3 1.958893 1_656
O1 Ti11 2.060496 1_655
O1 Ti1 2.116897 1_555
O2 Ti3 1.958893 1_655
O2 Ti4 2.060496 1_655
O2 Ti2 2.116897 1_555
O3 Ti1 2.021065 1_455
O3 Ti0 2.021065 1_555
O3 Ti3 2.029364 1_556
O4 Ti4 1.878016 1_555
O4 Ti2 2.136391 1_455
O4 Ti5 2.136391 1_555
O5 Ti2 2.021065 1_455
O5 Ti5 2.021065 1_555
O5 Ti3 2.029364 1_555
O6 Ti5 1.857308 1_555
O6 Ti7 1.906127 1_545
O7 Ti8 1.958893 1_565
O7 Ti7 2.060496 1_555
O7 Ti6 2.116897 1_555
O8 Ti3 1.958893 1_556
O8 Ti11 2.060496 1_555
O8 Ti0 2.116897 1_555
O9 Ti3 1.958893 1_555
O9 Ti4 2.060496 1_555
O9 Ti5 2.116897 1_555
O10 Ti5 1.981946 1_555
O10 Ti2 1.981946 1_555
O10 Ti7 2.149086 1_545
O11 Ti5 1.876805 1_555
O11 Ti2 1.876805 1_555
O12 Ti7 1.878016 1_555
O12 Ti9 2.136391 1_555
O12 Ti6 2.136391 1_555
O13 Ti9 2.021065 1_555
O13 Ti6 2.021065 1_555
O13 Ti8 2.029364 1_565
O14 Ti9 1.857308 1_555
O14 Ti4 1.906127 1_655
O15 Ti10 1.857308 1_555
O15 Ti11 1.906127 1_655
O16 Ti2 1.857308 1_555
O16 Ti7 1.906127 1_545
O17 Ti8 1.958893 1_565
O17 Ti7 2.060496 1_555
O17 Ti9 2.116897 1_555
O18 Ti6 1.876805 1_555
O18 Ti9 1.876805 1_455
O19 Ti6 1.981946 1_555
O19 Ti9 1.981946 1_455
O19 Ti4 2.149086 1_555
O20 Ti12 1.876805 1_555
O20 Ti10 1.876805 1_455
O21 Ti12 1.981946 1_555
O21 Ti10 1.981946 1_455
O21 Ti11 2.149086 1_555
O22 Ti6 1.857308 1_555
O22 Ti4 1.906127 1_555
O23 Ti8 1.958893 1_555
O23 Ti13 2.060496 1_555
O23 Ti12 2.116897 1_555
O24 Ti0 1.857308 1_555
O24 Ti13 1.906127 1_565
O25 Ti12 1.857308 1_555
O25 Ti11 1.906127 1_555
O26 Ti13 1.878016 1_555
O26 Ti10 2.136391 1_555
O26 Ti12 2.136391 1_555
O27 Ti10 2.021065 1_555
O27 Ti12 2.021065 1_555
O27 Ti8 2.029364 1_555
O28 Ti0 1.981946 1_555
O28 Ti1 1.981946 1_555
O28 Ti13 2.149086 1_565
O29 Ti8 1.958893 1_555
O29 Ti13 2.060496 1_555
O29 Ti10 2.116897 1_555
O30 Ti1 1.857308 1_555
O30 Ti13 1.906127 1_565
O31 Ti11 1.878016 1_555
O31 Ti1 2.136391 1_455
O31 Ti0 2.136391 1_555
