# generated using pymatgen
data_Gd4Ti(SeO)4
_symmetry_space_group_name_H-M   'P 1'
_cell_length_a   8.20491479
_cell_length_b   8.20491479
_cell_length_c   9.77818429
_cell_angle_alpha   62.88853742
_cell_angle_beta   62.88853742
_cell_angle_gamma   26.61606649
_symmetry_Int_Tables_number   1
_chemical_formula_structural   Gd4Ti(SeO)4
_chemical_formula_sum   'Gd4 Ti1 Se4 O4'
_cell_volume   260.57637198
_cell_formula_units_Z   1
loop_
 _symmetry_equiv_pos_site_id
 _symmetry_equiv_pos_as_xyz
  1  'x, y, z'
loop_
 _atom_site_type_symbol
 _atom_site_label
 _atom_site_symmetry_multiplicity
 _atom_site_fract_x
 _atom_site_fract_y
 _atom_site_fract_z
 _atom_site_occupancy
  Gd  Gd0  1  0.52479200  0.52479200  0.66944000  1
  Gd  Gd1  1  0.47520800  0.47520800  0.33056000  1
  Gd  Gd2  1  0.22358100  0.22358100  0.67406800  1
  Gd  Gd3  1  0.77641900  0.77641900  0.32593200  1
  Ti  Ti0  1  0.00000000  0.00000000  0.00000000  1
  Se  Se0  1  0.88448400  0.88448400  0.63176900  1
  Se  Se1  1  0.37853900  0.37853900  0.01610500  1
  Se  Se2  1  0.11551600  0.11551600  0.36823100  1
  Se  Se3  1  0.62146100  0.62146100  0.98389500  1
  O  O0  1  0.31708500  0.31708500  0.40994800  1
  O  O1  1  0.94841700  0.94841700  0.22057400  1
  O  O2  1  0.05158300  0.05158300  0.77942600  1
  O  O3  1  0.68291500  0.68291500  0.59005200  1
loop_
_geom_bond_atom_site_label_1
_geom_bond_atom_site_label_2
_geom_bond_distance
_geom_bond_site_symmetry_2
Gd0 O3 2.267778 1_555
Gd0 O2 2.310332 1_655
Gd0 O2 2.310332 1_565
Gd0 Se0 3.081561 1_545
Gd0 Se0 3.081561 1_455
Gd0 Se1 3.087107 1_556
Gd0 Se2 3.216230 1_655
Gd0 Se2 3.216230 1_565
Gd1 O0 2.267778 1_555
Gd1 O1 2.310332 1_455
Gd1 O1 2.310332 1_545
Gd1 Se2 3.081561 1_565
Gd1 Se2 3.081561 1_655
Gd1 Se3 3.087107 1_554
Gd1 Se0 3.216230 1_545
Gd1 Se0 3.216230 1_455
Gd2 O3 2.272296 1_545
Gd2 O3 2.272296 1_455
Gd2 O0 2.299495 1_555
Gd2 O2 2.440342 1_555
Gd2 Se0 3.056957 1_455
Gd2 Se0 3.056957 1_545
Gd2 Se3 3.282886 1_455
Gd2 Se3 3.282886 1_545
Gd3 O0 2.272296 1_565
Gd3 O0 2.272296 1_655
Gd3 O3 2.299495 1_555
Gd3 O1 2.440342 1_555
Gd3 Se2 3.056957 1_655
Gd3 Se2 3.056957 1_565
Gd3 Se1 3.282886 1_655
Gd3 Se1 3.282886 1_565
Se1 Ti0 2.658555 1_565
Se1 Ti0 2.658555 1_655
Se3 Ti0 2.658555 1_566
Se3 Ti0 2.658555 1_656
O1 Ti0 1.914780 1_665
O2 Ti0 1.914780 1_556
