# generated using pymatgen
data_Co21(B3Mo)2
_symmetry_space_group_name_H-M   'P 1'
_cell_length_a   7.35822387
_cell_length_b   7.35822156
_cell_length_c   7.35821422
_cell_angle_alpha   59.99979429
_cell_angle_beta   59.99932754
_cell_angle_gamma   59.99955194
_symmetry_Int_Tables_number   1
_chemical_formula_structural   Co21(B3Mo)2
_chemical_formula_sum   'Co21 B6 Mo2'
_cell_volume   281.70784012
_cell_formula_units_Z   1
loop_
 _symmetry_equiv_pos_site_id
 _symmetry_equiv_pos_as_xyz
  1  'x, y, z'
loop_
 _atom_site_type_symbol
 _atom_site_label
 _atom_site_symmetry_multiplicity
 _atom_site_fract_x
 _atom_site_fract_y
 _atom_site_fract_z
 _atom_site_occupancy
  Co  Co0  1  0.00000337  0.00000324  -0.00000357  1
  Co  Co1  1  0.61801194  0.61801267  0.14596012  1
  Co  Co2  1  0.61801213  0.14596335  0.61801578  1
  Co  Co3  1  0.14596294  0.61801113  0.61801028  1
  Co  Co4  1  0.61801312  0.61801058  0.61801640  1
  Co  Co5  1  0.38197745  0.38197527  0.85406975  1
  Co  Co6  1  0.38197482  0.85407106  0.38197669  1
  Co  Co7  1  0.85407032  0.38197630  0.38197791  1
  Co  Co8  1  0.38197346  0.38198077  0.38197522  1
  Co  Co9  1  0.00000467  0.00000518  0.34246883  1
  Co  Co10  1  0.65751084  0.00000956  0.34247072  1
  Co  Co11  1  0.00001240  0.65751120  0.34246841  1
  Co  Co12  1  0.65751356  0.34246078  0.00001352  1
  Co  Co13  1  0.00001055  0.34246206  0.00000791  1
  Co  Co14  1  0.00000912  0.34246981  0.65750892  1
  Co  Co15  1  0.34246345  0.65751269  0.00001335  1
  Co  Co16  1  0.34246544  0.00001204  0.65751521  1
  Co  Co17  1  0.34247098  0.00000347  0.00000978  1
  Co  Co18  1  0.00000630  0.00000873  0.65751780  1
  Co  Co19  1  0.00001301  0.65751038  0.00000822  1
  Co  Co20  1  0.65751289  0.00001308  0.00000742  1
  B  B0  1  0.72513731  0.72513646  0.27486696  1
  B  B1  1  0.27486682  0.72512904  0.27486696  1
  B  B2  1  0.72513084  0.27486529  0.27486516  1
  B  B3  1  0.27486714  0.27486765  0.72512936  1
  B  B4  1  0.72513196  0.27487146  0.72513333  1
  B  B5  1  0.27486810  0.72513506  0.72513651  1
  Mo  Mo0  1  0.74999880  0.75000205  0.74999311  1
  Mo  Mo1  1  0.25000627  0.25000962  0.24999991  1
loop_
_geom_bond_atom_site_label_1
_geom_bond_atom_site_label_2
_geom_bond_distance
_geom_bond_site_symmetry_2
Co0 Co16 2.519956 1_554
Co0 Co13 2.519957 1_555
Co0 Co12 2.519981 1_455
Co0 Co15 2.519993 1_545
Co0 Co9 2.519997 1_555
Co0 Co18 2.520000 1_554
Co0 Co17 2.520003 1_555
Co0 Co14 2.520013 1_554
Co0 Co10 2.520042 1_455
Co0 Co20 2.520045 1_455
Co0 Co11 2.520049 1_545
Co0 Co19 2.520060 1_545
Co1 Mo0 2.378940 1_554
Co2 Mo0 2.378913 1_545
Co3 Mo0 2.378920 1_455
Co4 Mo0 2.378883 1_555
Co5 Mo1 2.378718 1_556
Co6 Mo1 2.378776 1_565
Co7 Mo1 2.378750 1_655
Co8 Mo1 2.378642 1_555
B0 Co4 2.063690 1_555
B0 Co1 2.063750 1_555
B0 Co7 2.063769 1_555
B0 Co6 2.063775 1_555
B0 Co10 2.082787 1_565
B0 Co11 2.082799 1_655
B0 Co19 2.082811 1_655
B0 Co20 2.082831 1_565
B1 Co3 2.063654 1_555
B1 Co1 2.063663 1_555
B1 Co8 2.063700 1_555
B1 Co6 2.063783 1_555
B1 Co15 2.082781 1_555
B1 Co11 2.082785 1_555
B1 Co17 2.082806 1_565
B1 Co9 2.082815 1_565
B2 Co1 2.063686 1_555
B2 Co2 2.063698 1_555
B2 Co8 2.063745 1_555
B2 Co7 2.063803 1_555
B2 Co12 2.082781 1_555
B2 Co10 2.082795 1_555
B2 Co13 2.082807 1_655
B2 Co9 2.082809 1_655
B3 Co3 2.063662 1_555
B3 Co2 2.063662 1_555
B3 Co8 2.063728 1_555
B3 Co5 2.063774 1_555
B3 Co16 2.082784 1_555
B3 Co13 2.082792 1_556
B3 Co14 2.082823 1_555
B3 Co17 2.082854 1_556
B4 Co4 2.063637 1_555
B4 Co2 2.063689 1_555
B4 Co5 2.063727 1_555
B4 Co7 2.063735 1_555
B4 Co12 2.082792 1_556
B4 Co14 2.082799 1_655
B4 Co20 2.082807 1_556
B4 Co18 2.082812 1_655
B5 Co4 2.063663 1_555
B5 Co3 2.063746 1_555
B5 Co6 2.063762 1_555
B5 Co5 2.063768 1_555
B5 Co19 2.082785 1_556
B5 Co15 2.082791 1_556
B5 Co16 2.082804 1_565
B5 Co18 2.082819 1_565
