# generated using pymatgen
data_Sc4Ge6Rh7
_symmetry_space_group_name_H-M   'P 1'
_cell_length_a   7.04153468
_cell_length_b   7.04153414
_cell_length_c   7.04153415
_cell_angle_alpha   109.47122066
_cell_angle_beta   109.47121910
_cell_angle_gamma   109.47121540
_symmetry_Int_Tables_number   1
_chemical_formula_structural   Sc4Ge6Rh7
_chemical_formula_sum   'Sc4 Ge6 Rh7'
_cell_volume   268.76953963
_cell_formula_units_Z   1
loop_
 _symmetry_equiv_pos_site_id
 _symmetry_equiv_pos_as_xyz
  1  'x, y, z'
loop_
 _atom_site_type_symbol
 _atom_site_label
 _atom_site_symmetry_multiplicity
 _atom_site_fract_x
 _atom_site_fract_y
 _atom_site_fract_z
 _atom_site_occupancy
  Sc  Sc0  1  0.50000000  0.50000000  0.50000000  1
  Sc  Sc1  1  0.50000000  0.00000000  0.00000000  1
  Sc  Sc2  1  -0.00000000  0.50000000  0.00000000  1
  Sc  Sc3  1  -0.00000000  0.00000000  0.50000000  1
  Ge  Ge0  1  0.00000000  0.31511833  0.31511833  1
  Ge  Ge1  1  0.31511833  0.00000000  0.31511833  1
  Ge  Ge2  1  0.68488167  -0.00000000  0.68488167  1
  Ge  Ge3  1  0.68488167  0.68488167  -0.00000000  1
  Ge  Ge4  1  0.31511833  0.31511833  0.00000000  1
  Ge  Ge5  1  -0.00000000  0.68488167  0.68488167  1
  Rh  Rh0  1  0.50000000  0.75000000  0.25000000  1
  Rh  Rh1  1  0.75000000  0.50000000  0.25000000  1
  Rh  Rh2  1  0.25000000  0.50000000  0.75000000  1
  Rh  Rh3  1  0.75000000  0.25000000  0.50000000  1
  Rh  Rh4  1  0.25000000  0.75000000  0.50000000  1
  Rh  Rh5  1  0.50000000  0.25000000  0.75000000  1
  Rh  Rh6  1  -0.00000000  0.00000000  0.00000000  1
loop_
_geom_bond_atom_site_label_1
_geom_bond_atom_site_label_2
_geom_bond_distance
_geom_bond_site_symmetry_2
Ge0 Rh1 2.528179 1_455
Ge0 Rh3 2.528179 1_455
Ge0 Rh2 2.528179 1_555
Ge0 Rh4 2.528179 1_555
Ge0 Rh6 2.562184 1_555
Ge0 Sc3 2.923047 1_555
Ge0 Sc2 2.923047 1_555
Ge0 Sc0 2.923047 1_555
Ge0 Sc1 2.923047 1_455
Ge1 Rh0 2.528179 1_545
Ge1 Rh4 2.528179 1_545
Ge1 Rh5 2.528179 1_555
Ge1 Rh3 2.528179 1_555
Ge1 Rh6 2.562184 1_555
Ge1 Sc1 2.923047 1_555
Ge1 Sc3 2.923047 1_555
Ge1 Sc0 2.923047 1_555
Ge1 Sc2 2.923047 1_545
Ge2 Rh5 2.528179 1_555
Ge2 Rh3 2.528179 1_555
Ge2 Rh0 2.528179 1_545
Ge2 Rh4 2.528179 1_545
Ge2 Rh6 2.562184 1_656
Ge2 Sc1 2.923047 1_556
Ge2 Sc3 2.923047 1_655
Ge2 Sc0 2.923047 1_545
Ge2 Sc2 2.923047 1_656
Ge3 Rh1 2.528179 1_555
Ge3 Rh0 2.528179 1_555
Ge3 Rh5 2.528179 1_554
Ge3 Rh2 2.528179 1_554
Ge3 Rh6 2.562184 1_665
Ge3 Sc1 2.923047 1_565
Ge3 Sc2 2.923047 1_655
Ge3 Sc0 2.923047 1_554
Ge3 Sc3 2.923047 1_665
Ge4 Rh2 2.528179 1_554
Ge4 Rh5 2.528179 1_554
Ge4 Rh0 2.528179 1_555
Ge4 Rh1 2.528179 1_555
Ge4 Rh6 2.562184 1_555
Ge4 Sc1 2.923047 1_555
Ge4 Sc2 2.923047 1_555
Ge4 Sc0 2.923047 1_555
Ge4 Sc3 2.923047 1_554
Ge5 Rh2 2.528179 1_555
Ge5 Rh4 2.528179 1_555
Ge5 Rh1 2.528179 1_455
Ge5 Rh3 2.528179 1_455
Ge5 Rh6 2.562184 1_566
Ge5 Sc3 2.923047 1_565
Ge5 Sc2 2.923047 1_556
Ge5 Sc0 2.923047 1_455
Ge5 Sc1 2.923047 1_566
Rh0 Sc1 2.874694 1_565
Rh0 Sc0 2.874694 1_555
Rh0 Sc2 2.874695 1_555
Rh0 Sc3 2.874695 1_665
Rh1 Sc0 2.874694 1_555
Rh1 Sc2 2.874694 1_655
Rh1 Sc3 2.874694 1_665
Rh1 Sc1 2.874694 1_555
Rh2 Sc0 2.874694 1_555
Rh2 Sc2 2.874694 1_556
Rh2 Sc1 2.874694 1_566
Rh2 Sc3 2.874694 1_555
Rh3 Sc3 2.874694 1_655
Rh3 Sc0 2.874694 1_555
Rh3 Sc1 2.874694 1_555
Rh3 Sc2 2.874694 1_656
Rh4 Sc3 2.874694 1_565
Rh4 Sc0 2.874694 1_555
Rh4 Sc2 2.874694 1_555
Rh4 Sc1 2.874694 1_566
Rh5 Sc0 2.874694 1_555
Rh5 Sc1 2.874694 1_556
Rh5 Sc3 2.874695 1_555
Rh5 Sc2 2.874695 1_656
