# generated using pymatgen
data_K2CoCl4
_symmetry_space_group_name_H-M   'P 1'
_cell_length_a   9.55811793
_cell_length_b   6.77610761
_cell_length_c   12.67395891
_cell_angle_alpha   73.31620875
_cell_angle_beta   90.00000000
_cell_angle_gamma   90.00000000
_symmetry_Int_Tables_number   1
_chemical_formula_structural   K2CoCl4
_chemical_formula_sum   'K8 Co4 Cl16'
_cell_volume   786.29741314
_cell_formula_units_Z   4
loop_
 _symmetry_equiv_pos_site_id
 _symmetry_equiv_pos_as_xyz
  1  'x, y, z'
loop_
 _atom_site_type_symbol
 _atom_site_label
 _atom_site_symmetry_multiplicity
 _atom_site_fract_x
 _atom_site_fract_y
 _atom_site_fract_z
 _atom_site_occupancy
  K  K0  1  0.35490414  0.77734276  0.99191083  1
  K  K1  1  0.64509586  0.22265724  0.00808917  1
  K  K2  1  0.40463654  0.40767105  0.33290493  1
  K  K3  1  0.90463654  0.59232895  0.16709507  1
  K  K4  1  0.85490414  0.22265724  0.50808917  1
  K  K5  1  0.09536346  0.40767105  0.83290493  1
  K  K6  1  0.59536346  0.59232895  0.66709507  1
  K  K7  1  0.14509586  0.77734276  0.49191083  1
  Co  Co0  1  0.14714427  0.11947901  0.18010527  1
  Co  Co1  1  0.85285573  0.88052099  0.81989473  1
  Co  Co2  1  0.35285573  0.11947901  0.68010527  1
  Co  Co3  1  0.64714427  0.88052099  0.31989473  1
  Cl  Cl0  1  0.03826585  0.79242773  0.93272321  1
  Cl  Cl1  1  0.96173415  0.20757227  0.06727679  1
  Cl  Cl2  1  0.09966460  0.21649453  0.33353178  1
  Cl  Cl3  1  0.31075795  0.77872378  0.72065070  1
  Cl  Cl4  1  0.18924205  0.77872378  0.22065070  1
  Cl  Cl5  1  0.83851619  0.69891574  0.39863526  1
  Cl  Cl6  1  0.33851619  0.30108426  0.10136474  1
  Cl  Cl7  1  0.81075795  0.22127622  0.77934930  1
  Cl  Cl8  1  0.90033540  0.78350547  0.66646822  1
  Cl  Cl9  1  0.16148381  0.30108426  0.60136474  1
  Cl  Cl10  1  0.66148381  0.69891574  0.89863526  1
  Cl  Cl11  1  0.68924205  0.22127622  0.27934930  1
  Cl  Cl12  1  0.40033540  0.21649453  0.83353178  1
  Cl  Cl13  1  0.53826585  0.20757227  0.56727679  1
  Cl  Cl14  1  0.59966460  0.78350547  0.16646822  1
  Cl  Cl15  1  0.46173415  0.79242773  0.43272321  1
loop_
_geom_bond_atom_site_label_1
_geom_bond_atom_site_label_2
_geom_bond_distance
_geom_bond_site_symmetry_2
Cl0 Co1 2.247588 1_455
Cl0 K0 3.112657 1_555
Cl0 K3 3.159215 1_456
Cl0 K5 3.254128 1_555
Cl1 Co0 2.247588 1_655
Cl1 K1 3.112657 1_555
Cl1 K5 3.159215 1_654
Cl1 K3 3.254128 1_555
Cl2 Co0 2.270076 1_555
Cl2 K7 3.105339 1_545
Cl2 K2 3.188931 1_555
Cl2 K4 3.228348 1_455
Cl2 K3 3.365359 1_455
Cl3 Co2 2.253030 1_565
Cl3 K6 3.154077 1_555
Cl3 K5 3.245055 1_555
Cl3 K7 3.305648 1_555
Cl3 K0 3.461082 1_555
Cl4 Co0 2.253030 1_565
Cl4 K3 3.154077 1_455
Cl4 K2 3.245055 1_555
Cl4 K0 3.305648 1_554
Cl4 K7 3.461082 1_555
Cl5 Co3 2.269563 1_555
Cl5 K4 3.129394 1_555
Cl5 K7 3.259980 1_655
Cl5 K3 3.278636 1_555
Cl6 Co0 2.269563 1_555
Cl6 K0 3.129394 1_554
Cl6 K1 3.259980 1_555
Cl6 K2 3.278636 1_555
Cl7 Co1 2.253030 1_545
Cl7 K5 3.154077 1_655
Cl7 K6 3.245055 1_555
Cl7 K1 3.305648 1_556
Cl7 K4 3.461082 1_555
Cl8 Co1 2.270076 1_555
Cl8 K4 3.105339 1_565
Cl8 K6 3.188931 1_555
Cl8 K7 3.228348 1_655
Cl8 K5 3.365359 1_655
Cl9 Co2 2.269563 1_555
Cl9 K7 3.129394 1_555
Cl9 K4 3.259980 1_455
Cl9 K5 3.278636 1_555
Cl10 Co1 2.269563 1_555
Cl10 K1 3.129394 1_556
Cl10 K0 3.259980 1_555
Cl10 K6 3.278636 1_555
Cl11 Co3 2.253030 1_545
Cl11 K2 3.154077 1_555
Cl11 K3 3.245055 1_555
Cl11 K4 3.305648 1_555
Cl11 K1 3.461082 1_555
Cl12 Co2 2.270076 1_555
Cl12 K0 3.105339 1_545
Cl12 K5 3.188931 1_555
Cl12 K1 3.228348 1_556
Cl12 K6 3.365359 1_555
Cl13 Co2 2.247588 1_555
Cl13 K4 3.112657 1_555
Cl13 K2 3.159215 1_555
Cl13 K6 3.254128 1_555
Cl14 Co3 2.270076 1_555
Cl14 K1 3.105339 1_565
Cl14 K3 3.188931 1_555
Cl14 K0 3.228348 1_554
Cl14 K2 3.365359 1_555
Cl15 Co3 2.247588 1_555
Cl15 K7 3.112657 1_555
Cl15 K6 3.159215 1_555
Cl15 K2 3.254128 1_555
