# generated using pymatgen
data_Ba2(Mo2S3)3
_symmetry_space_group_name_H-M   'P 1'
_cell_length_a   10.75414399
_cell_length_b   10.75408266
_cell_length_c   14.40079213
_cell_angle_alpha   89.99996399
_cell_angle_beta   89.99993264
_cell_angle_gamma   119.99961601
_symmetry_Int_Tables_number   1
_chemical_formula_structural   Ba2(Mo2S3)3
_chemical_formula_sum   'Ba8 Mo24 S36'
_cell_volume   1442.34087363
_cell_formula_units_Z   4
loop_
 _symmetry_equiv_pos_site_id
 _symmetry_equiv_pos_as_xyz
  1  'x, y, z'
loop_
 _atom_site_type_symbol
 _atom_site_label
 _atom_site_symmetry_multiplicity
 _atom_site_fract_x
 _atom_site_fract_y
 _atom_site_fract_z
 _atom_site_occupancy
  Ba  Ba0  1  0.18758227  0.81241810  0.74524166  1
  Ba  Ba1  1  0.18758516  0.37516833  0.74524019  1
  Ba  Ba2  1  0.00000304  0.00000027  0.44522064  1
  Ba  Ba3  1  -0.00000163  0.00000016  0.94526244  1
  Ba  Ba4  1  0.62482880  0.81241204  0.74523926  1
  Ba  Ba5  1  0.37516844  0.18758375  0.24517029  1
  Ba  Ba6  1  0.81241865  0.62483591  0.24517003  1
  Ba  Ba7  1  0.81242151  0.18758185  0.24517062  1
  Mo  Mo0  1  0.24329278  0.75670813  0.36127732  1
  Mo  Mo1  1  0.24303294  0.75696944  0.13922327  1
  Mo  Mo2  1  0.16715557  0.58357868  0.50958790  1
  Mo  Mo3  1  0.16749977  0.58374741  0.99033215  1
  Mo  Mo4  1  0.24303372  0.48606396  0.13922332  1
  Mo  Mo5  1  0.41642028  0.83284207  0.50958810  1
  Mo  Mo6  1  0.41625375  0.83250106  0.99033318  1
  Mo  Mo7  1  0.24329426  0.48659127  0.36127934  1
  Mo  Mo8  1  0.41625392  0.58374955  0.99033343  1
  Mo  Mo9  1  0.41642021  0.58357704  0.50958872  1
  Mo  Mo10  1  0.51393570  0.75696751  0.13922358  1
  Mo  Mo11  1  0.51340292  0.75670135  0.36128054  1
  Mo  Mo12  1  0.48605736  0.24302950  0.63924326  1
  Mo  Mo13  1  0.48659829  0.24329933  0.86130454  1
  Mo  Mo14  1  0.58357062  0.41642795  0.00961622  1
  Mo  Mo15  1  0.58373605  0.41626180  0.49034933  1
  Mo  Mo16  1  0.58373586  0.16747737  0.49034771  1
  Mo  Mo17  1  0.75670241  0.51340311  0.86130374  1
  Mo  Mo18  1  0.58357217  0.16714411  0.00961668  1
  Mo  Mo19  1  0.75696886  0.51394353  0.63924337  1
  Mo  Mo20  1  0.83285793  0.41642959  0.00961760  1
  Mo  Mo21  1  0.83252165  0.41626287  0.49034413  1
  Mo  Mo22  1  0.75697017  0.24302542  0.63924336  1
  Mo  Mo23  1  0.75670274  0.24329637  0.86130335  1
  S  S0  1  0.13687373  0.86313402  0.25481464  1
  S  S1  1  0.18091708  0.81908857  0.51062568  1
  S  S2  1  0.18116086  0.81884143  0.98893303  1
  S  S3  1  0.02787940  0.51393959  0.13556531  1
  S  S4  1  0.02746595  0.51373646  0.36447614  1
  S  S5  1  0.33333134  0.66666679  0.25009943  1
  S  S6  1  0.48606215  0.97212208  0.13556583  1
  S  S7  1  0.48626247  0.97253359  0.36447727  1
  S  S8  1  0.33332992  0.66666644  0.63899807  1
  S  S9  1  0.33333154  0.66666666  0.86028217  1
  S  S10  1  0.18116404  0.36231852  0.98893417  1
  S  S11  1  0.13687802  0.27374467  0.25481804  1
  S  S12  1  0.18091961  0.36183114  0.51062552  1
  S  S13  1  0.27376725  0.13688400  0.75487305  1
  S  S14  1  0.48606133  0.51393982  0.13556681  1
  S  S15  1  0.48626251  0.51373002  0.36447758  1
  S  S16  1  0.63768148  0.81883857  0.98893513  1
  S  S17  1  0.63816557  0.81907972  0.51062594  1
  S  S18  1  0.36232422  0.18116432  0.48894602  1
  S  S19  1  0.36182701  0.18091515  0.01065282  1
  S  S20  1  0.51373717  0.48626983  0.86449058  1
  S  S21  1  0.51392619  0.48607363  0.63557261  1
  S  S22  1  0.72624931  0.86312586  0.25481923  1
  S  S23  1  0.66667151  0.33333434  0.13902818  1
  S  S24  1  0.51392610  0.02785246  0.63556983  1
  S  S25  1  0.81908304  0.63817466  0.01065190  1
  S  S26  1  0.66666890  0.33333407  0.36029907  1
  S  S27  1  0.86311900  0.72623916  0.75487493  1
  S  S28  1  0.66666675  0.33333248  0.75011479  1
  S  S29  1  0.81883539  0.63767695  0.48894600  1
  S  S30  1  0.51373503  0.02746623  0.86449216  1
  S  S31  1  0.97253429  0.48626217  0.86449306  1
  S  S32  1  0.97213677  0.48606921  0.63555977  1
  S  S33  1  0.81908865  0.18091109  0.01065156  1
  S  S34  1  0.81883747  0.18116089  0.48894538  1
  S  S35  1  0.86312276  0.13687655  0.75488103  1
loop_
_geom_bond_atom_site_label_1
_geom_bond_atom_site_label_2
_geom_bond_distance
_geom_bond_site_symmetry_2
Ba0 S8 3.116272 1_555
Ba0 S13 3.133639 1_565
Ba0 S27 3.133650 1_455
Ba0 S9 3.180396 1_555
Ba0 S1 3.380938 1_555
Ba0 S24 3.471027 1_565
Ba0 S32 3.471143 1_455
Ba0 S2 3.511387 1_555
Ba0 S30 3.533906 1_565
Ba0 S31 3.533918 1_455
Ba1 S8 3.116257 1_555
Ba1 S13 3.133648 1_555
Ba1 S35 3.133674 1_455
Ba1 S9 3.180397 1_555
Ba1 S12 3.380920 1_555
Ba1 S21 3.470978 1_555
Ba1 S32 3.471130 1_455
Ba1 S10 3.511426 1_555
Ba1 S31 3.533845 1_455
Ba1 S20 3.533900 1_555
Ba2 S29 3.432688 1_445
Ba2 S18 3.432690 1_555
Ba2 S34 3.432704 1_455
Ba2 S1 3.498955 1_545
Ba2 S12 3.499011 1_555
Ba2 S17 3.499087 1_445
Ba2 S0 3.744059 1_545
Ba2 S11 3.744074 1_555
Ba2 S22 3.744136 1_445
Ba3 S10 3.432503 1_555
Ba3 S16 3.432509 1_445
Ba3 S2 3.432516 1_545
Ba3 S33 3.498847 1_456
Ba3 S25 3.498901 1_446
Ba3 S19 3.498954 1_556
Ba3 S35 3.743897 1_455
Ba3 S27 3.744025 1_445
Ba3 S13 3.744099 1_555
Ba4 S8 3.116275 1_555
Ba4 S27 3.133651 1_555
Ba4 S35 3.133687 1_565
Ba4 S9 3.180404 1_555
Ba4 S17 3.380900 1_555
Ba4 S21 3.470939 1_555
Ba4 S24 3.470992 1_565
Ba4 S16 3.511455 1_555
Ba4 S20 3.533815 1_555
Ba4 S30 3.533869 1_565
Ba5 S23 3.115604 1_555
Ba5 S11 3.133570 1_555
Ba5 S0 3.133578 1_545
Ba5 S26 3.181079 1_555
Ba5 S19 3.379523 1_555
Ba5 S6 3.470693 1_545
Ba5 S14 3.470698 1_555
Ba5 S18 3.512601 1_555
Ba5 S7 3.534214 1_545
Ba5 S15 3.534242 1_555
Ba6 S23 3.115580 1_555
Ba6 S22 3.133620 1_555
Ba6 S0 3.133639 1_655
Ba6 S26 3.181074 1_555
Ba6 S25 3.379531 1_555
Ba6 S3 3.470711 1_655
Ba6 S14 3.470724 1_555
Ba6 S29 3.512604 1_555
Ba6 S4 3.534229 1_655
Ba6 S15 3.534325 1_555
Ba7 S23 3.115584 1_555
Ba7 S22 3.133582 1_545
Ba7 S11 3.133634 1_655
Ba7 S26 3.181088 1_555
Ba7 S33 3.379544 1_555
Ba7 S3 3.470722 1_655
Ba7 S6 3.470750 1_545
Ba7 S34 3.512585 1_555
Ba7 S4 3.534286 1_655
Ba7 S7 3.534339 1_545
Mo0 S5 2.318655 1_555
Mo0 S1 2.444515 1_555
Mo0 S7 2.480331 1_555
Mo0 S4 2.480346 1_555
Mo0 S0 2.505998 1_555
Mo1 S5 2.319175 1_555
Mo1 S2 2.452014 1_554
Mo1 S6 2.477887 1_555
Mo1 S3 2.477892 1_555
Mo1 S0 2.584798 1_555
Mo2 S8 2.422450 1_555
Mo2 S4 2.461609 1_555
Mo2 S1 2.462081 1_555
Mo2 S12 2.462086 1_555
Mo2 S32 2.567066 1_455
Mo3 S9 2.427510 1_555
Mo3 S10 2.458117 1_555
Mo3 S2 2.458142 1_555
Mo3 S3 2.462749 1_556
Mo3 S31 2.565368 1_455
Mo4 S5 2.319192 1_555
Mo4 S10 2.452009 1_554
Mo4 S14 2.477867 1_555
Mo4 S3 2.477888 1_555
Mo4 S11 2.584800 1_555
Mo5 S8 2.422446 1_555
Mo5 S7 2.461600 1_555
Mo5 S1 2.462063 1_555
Mo5 S17 2.462065 1_555
Mo5 S24 2.567108 1_565
Mo6 S9 2.427535 1_555
Mo6 S16 2.458107 1_555
Mo6 S2 2.458152 1_555
Mo6 S6 2.462745 1_556
Mo6 S30 2.565375 1_565
Mo7 S5 2.318648 1_555
Mo7 S12 2.444506 1_555
Mo7 S15 2.480333 1_555
Mo7 S4 2.480355 1_555
Mo7 S11 2.506004 1_555
Mo8 S9 2.427564 1_555
Mo8 S16 2.458107 1_555
Mo8 S10 2.458130 1_555
Mo8 S14 2.462732 1_556
Mo8 S20 2.565376 1_555
Mo9 S8 2.422461 1_555
Mo9 S15 2.461592 1_555
Mo9 S12 2.462036 1_555
Mo9 S17 2.462044 1_555
Mo9 S21 2.567118 1_555
Mo10 S5 2.319203 1_555
Mo10 S16 2.452001 1_554
Mo10 S14 2.477859 1_555
Mo10 S6 2.477865 1_555
Mo10 S22 2.584781 1_555
Mo11 S5 2.318644 1_555
Mo11 S17 2.444513 1_555
Mo11 S15 2.480342 1_555
Mo11 S7 2.480355 1_555
Mo11 S22 2.506007 1_555
Mo12 S28 2.319198 1_555
Mo12 S18 2.452061 1_555
Mo12 S21 2.478063 1_555
Mo12 S24 2.478080 1_555
Mo12 S13 2.584926 1_555
Mo13 S28 2.318705 1_555
Mo13 S19 2.444585 1_556
Mo13 S20 2.480337 1_555
Mo13 S30 2.480338 1_555
Mo13 S13 2.505636 1_555
Mo14 S23 2.422579 1_555
Mo14 S20 2.461701 1_554
Mo14 S19 2.462094 1_555
Mo14 S25 2.462109 1_555
Mo14 S14 2.566856 1_555
Mo15 S26 2.427677 1_555
Mo15 S18 2.458080 1_555
Mo15 S29 2.458109 1_555
Mo15 S21 2.462630 1_555
Mo15 S15 2.565531 1_555
Mo16 S26 2.427637 1_555
Mo16 S18 2.458078 1_555
Mo16 S34 2.458129 1_555
Mo16 S24 2.462633 1_555
Mo16 S7 2.565536 1_545
Mo17 S28 2.318708 1_555
Mo17 S25 2.444584 1_556
Mo17 S20 2.480321 1_555
Mo17 S31 2.480365 1_555
Mo17 S27 2.505636 1_555
Mo18 S23 2.422553 1_555
Mo18 S30 2.461703 1_554
Mo18 S19 2.462114 1_555
Mo18 S33 2.462139 1_555
Mo18 S6 2.566849 1_545
Mo19 S28 2.319197 1_555
Mo19 S29 2.452058 1_555
Mo19 S32 2.478033 1_555
Mo19 S21 2.478058 1_555
Mo19 S27 2.584977 1_555
Mo20 S23 2.422522 1_555
Mo20 S31 2.461696 1_554
Mo20 S25 2.462122 1_555
Mo20 S33 2.462135 1_555
Mo20 S3 2.566842 1_655
Mo21 S26 2.427583 1_555
Mo21 S29 2.458086 1_555
Mo21 S34 2.458115 1_555
Mo21 S32 2.462513 1_555
Mo21 S4 2.565518 1_655
Mo22 S28 2.319191 1_555
Mo22 S34 2.452058 1_555
Mo22 S32 2.478045 1_555
Mo22 S24 2.478075 1_555
Mo22 S35 2.585069 1_555
Mo23 S28 2.318709 1_555
Mo23 S33 2.444581 1_556
Mo23 S31 2.480327 1_555
Mo23 S30 2.480336 1_555
Mo23 S35 2.505604 1_555
