# generated using pymatgen
data_Rb2MnF5
_symmetry_space_group_name_H-M   'P 1'
_cell_length_a   4.16371982
_cell_length_b   5.98546436
_cell_length_c   5.98546436
_cell_angle_alpha   90.00000000
_cell_angle_beta   90.00000000
_cell_angle_gamma   90.00000000
_symmetry_Int_Tables_number   1
_chemical_formula_structural   Rb2MnF5
_chemical_formula_sum   'Rb2 Mn1 F5'
_cell_volume   149.16852526
_cell_formula_units_Z   1
loop_
 _symmetry_equiv_pos_site_id
 _symmetry_equiv_pos_as_xyz
  1  'x, y, z'
loop_
 _atom_site_type_symbol
 _atom_site_label
 _atom_site_symmetry_multiplicity
 _atom_site_fract_x
 _atom_site_fract_y
 _atom_site_fract_z
 _atom_site_occupancy
  Rb  Rb0  1  0.50000000  0.00000000  0.50000000  1
  Rb  Rb1  1  0.50000000  0.50000000  -0.00000000  1
  Mn  Mn0  1  0.00000000  0.00000000  0.00000000  1
  F  F0  1  0.50000000  0.00000000  0.00000000  1
  F  F1  1  0.00000000  0.77948169  0.77948169  1
  F  F2  1  0.00000000  0.22051831  0.77948169  1
  F  F3  1  0.00000000  0.22051831  0.22051831  1
  F  F4  1  0.00000000  0.77948169  0.22051831  1
loop_
_geom_bond_atom_site_label_1
_geom_bond_atom_site_label_2
_geom_bond_distance
_geom_bond_site_symmetry_2
F0 Mn0 2.081860 1_655
F0 Mn0 2.081860 1_555
F0 Rb0 2.992732 1_554
F0 Rb0 2.992732 1_555
F0 Rb1 2.992732 1_555
F0 Rb1 2.992732 1_545
F1 Mn0 1.866627 1_566
F1 Rb0 2.979034 1_565
F1 Rb0 2.979034 1_465
F1 Rb1 2.979034 1_456
F1 Rb1 2.979034 1_556
F2 Mn0 1.866627 1_556
F2 Rb0 2.979034 1_455
F2 Rb0 2.979034 1_555
F2 Rb1 2.979034 1_456
F2 Rb1 2.979034 1_556
F3 Mn0 1.866627 1_555
F3 Rb0 2.979034 1_455
F3 Rb0 2.979034 1_555
F3 Rb1 2.979034 1_555
F3 Rb1 2.979034 1_455
F4 Mn0 1.866627 1_565
F4 Rb0 2.979034 1_565
F4 Rb0 2.979034 1_465
F4 Rb1 2.979034 1_555
F4 Rb1 2.979034 1_455
