# generated using pymatgen
data_Yb2PrDyS6
_symmetry_space_group_name_H-M   'P 1'
_cell_length_a   3.94969924
_cell_length_b   10.98978848
_cell_length_c   11.25225369
_cell_angle_alpha   71.22738012
_cell_angle_beta   90.00000000
_cell_angle_gamma   90.00000000
_symmetry_Int_Tables_number   1
_chemical_formula_structural   Yb2PrDyS6
_chemical_formula_sum   'Yb4 Pr2 Dy2 S12'
_cell_volume   462.43699551
_cell_formula_units_Z   2
loop_
 _symmetry_equiv_pos_site_id
 _symmetry_equiv_pos_as_xyz
  1  'x, y, z'
loop_
 _atom_site_type_symbol
 _atom_site_label
 _atom_site_symmetry_multiplicity
 _atom_site_fract_x
 _atom_site_fract_y
 _atom_site_fract_z
 _atom_site_occupancy
  Yb  Yb0  1  0.25000000  0.33896561  0.58660298  1
  Yb  Yb1  1  0.25000000  0.05695139  0.33505048  1
  Yb  Yb2  1  0.75000000  0.94304861  0.66494952  1
  Yb  Yb3  1  0.75000000  0.66103439  0.41339702  1
  Pr  Pr0  1  0.25000000  0.44877586  0.19725431  1
  Pr  Pr1  1  0.75000000  0.55122414  0.80274569  1
  Dy  Dy0  1  0.75000000  0.17890804  0.99765844  1
  Dy  Dy1  1  0.25000000  0.82109196  0.00234156  1
  S  S0  1  0.25000000  0.38069440  0.96319420  1
  S  S1  1  0.75000000  0.41881445  0.40887782  1
  S  S2  1  0.75000000  0.61930560  0.03680580  1
  S  S3  1  0.25000000  0.58118555  0.59112218  1
  S  S4  1  0.75000000  0.89365742  0.44189963  1
  S  S5  1  0.75000000  0.30366096  0.74559246  1
  S  S6  1  0.25000000  0.01975042  0.11583448  1
  S  S7  1  0.75000000  0.98024958  0.88416552  1
  S  S8  1  0.25000000  0.69633904  0.25440754  1
  S  S9  1  0.75000000  0.23028767  0.23202633  1
  S  S10  1  0.25000000  0.10634258  0.55810037  1
  S  S11  1  0.25000000  0.76971233  0.76797367  1
loop_
_geom_bond_atom_site_label_1
_geom_bond_atom_site_label_2
_geom_bond_distance
_geom_bond_site_symmetry_2
Pr0 S2 2.914450 1_555
Pr0 S2 2.914450 1_455
Pr0 S0 2.960488 1_554
Pr0 S8 2.990275 1_555
Pr0 S1 3.028880 1_555
Pr0 S1 3.028880 1_455
Pr0 S9 3.035443 1_455
Pr0 S9 3.035443 1_555
Pr1 S0 2.914450 1_555
Pr1 S0 2.914450 1_655
Pr1 S2 2.960488 1_556
Pr1 S5 2.990275 1_555
Pr1 S3 3.028880 1_555
Pr1 S3 3.028880 1_655
Pr1 S11 3.035443 1_555
Pr1 S11 3.035443 1_655
Dy0 S6 2.688986 1_556
Dy0 S6 2.688986 1_656
Dy0 S5 2.724245 1_555
Dy0 S7 2.862126 1_545
Dy0 S9 2.869127 1_556
Dy0 S0 2.900796 1_555
Dy0 S0 2.900796 1_655
Dy1 S7 2.688986 1_454
Dy1 S7 2.688986 1_554
Dy1 S8 2.724245 1_555
Dy1 S6 2.862126 1_565
Dy1 S11 2.869127 1_554
Dy1 S2 2.900796 1_555
Dy1 S2 2.900796 1_455
S1 Yb3 2.678743 1_555
S1 Yb0 2.745874 1_555
S1 Yb0 2.745874 1_655
S3 Yb0 2.678743 1_555
S3 Yb3 2.745874 1_455
S3 Yb3 2.745874 1_555
S4 Yb3 2.676968 1_555
S4 Yb1 2.679053 1_565
S4 Yb1 2.679053 1_665
S4 Yb2 2.733244 1_555
S5 Yb0 2.608506 1_655
S5 Yb0 2.608506 1_555
S6 Yb1 2.626917 1_555
S7 Yb2 2.626917 1_555
S8 Yb3 2.608506 1_455
S8 Yb3 2.608506 1_555
S9 Yb1 2.729714 1_655
S9 Yb1 2.729714 1_555
S10 Yb0 2.676968 1_555
S10 Yb2 2.679053 1_445
S10 Yb2 2.679053 1_545
S10 Yb1 2.733244 1_555
S11 Yb2 2.729714 1_455
S11 Yb2 2.729714 1_555
