# generated using pymatgen
data_Ba3Fe2Br2O5
_symmetry_space_group_name_H-M   'P 1'
_cell_length_a   8.85838412
_cell_length_b   8.85835447
_cell_length_c   8.85836626
_cell_angle_alpha   109.33093403
_cell_angle_beta   109.57843499
_cell_angle_gamma   109.50457660
_symmetry_Int_Tables_number   1
_chemical_formula_structural   Ba3Fe2Br2O5
_chemical_formula_sum   'Ba6 Fe4 Br4 O10'
_cell_volume   535.10151805
_cell_formula_units_Z   2
loop_
 _symmetry_equiv_pos_site_id
 _symmetry_equiv_pos_as_xyz
  1  'x, y, z'
loop_
 _atom_site_type_symbol
 _atom_site_label
 _atom_site_symmetry_multiplicity
 _atom_site_fract_x
 _atom_site_fract_y
 _atom_site_fract_z
 _atom_site_occupancy
  Ba  Ba0  1  0.65386400  0.40386600  0.24999900  1
  Ba  Ba1  1  0.25000300  0.65355400  0.40355000  1
  Ba  Ba2  1  0.84613600  0.09613300  0.75000100  1
  Ba  Ba3  1  0.40338200  0.24999900  0.65338400  1
  Ba  Ba4  1  0.09662100  0.75000000  0.84662100  1
  Ba  Ba5  1  0.74999900  0.84644600  0.09644900  1
  Fe  Fe0  1  0.50066900  0.00107000  0.31003800  1
  Fe  Fe1  1  0.30896500  0.49892700  0.99960100  1
  Fe  Fe2  1  0.99935200  0.30940800  0.50039400  1
  Fe  Fe3  1  0.19099100  0.19059600  0.18994900  1
  Br  Br0  1  0.99991000  0.88256000  0.50003500  1
  Br  Br1  1  0.61747300  0.61743700  0.61734800  1
  Br  Br2  1  0.88253400  0.49987700  0.99996900  1
  Br  Br3  1  0.50009000  0.00012300  0.88265600  1
  O  O0  1  0.98082100  0.98075600  0.98048500  1
  O  O1  1  0.99972800  0.51924400  0.50006500  1
  O  O2  1  0.51917800  0.49966500  0.99994100  1
  O  O3  1  0.50027500  0.00033600  0.51950600  1
  O  O4  1  0.11131800  0.36131700  0.75000800  1
  O  O5  1  0.75000000  0.11188400  0.36188500  1
  O  O6  1  0.13982200  0.25000100  0.38982800  1
  O  O7  1  0.25000200  0.38811600  0.13811300  1
  O  O8  1  0.38868600  0.13868200  0.24999800  1
  O  O9  1  0.36017900  0.75000000  0.11017800  1
loop_
_geom_bond_atom_site_label_1
_geom_bond_atom_site_label_2
_geom_bond_distance
_geom_bond_site_symmetry_2
Ba0 O2 2.683232 1_554
Ba0 O1 2.683286 1_555
Ba0 O8 2.711352 1_555
Ba0 O7 3.316553 1_555
Ba0 O5 3.316597 1_555
Ba0 Br3 3.362560 1_554
Ba0 Br1 3.362568 1_555
Ba0 Br0 3.582653 1_555
Ba0 Br2 3.582697 1_554
Ba1 O3 2.691443 1_565
Ba1 O1 2.691492 1_455
Ba1 O7 2.719788 1_555
Ba1 O9 3.324034 1_555
Ba1 O6 3.324095 1_555
Ba1 Br2 3.354097 1_454
Ba1 Br1 3.354152 1_555
Ba1 Br0 3.588328 1_455
Ba1 Br3 3.588341 1_565
Ba2 O0 2.683257 1_545
Ba2 O3 2.683291 1_555
Ba2 O4 2.711342 1_655
Ba2 O7 3.316563 1_656
Ba2 O5 3.316585 1_555
Ba2 Br0 3.362572 1_545
Ba2 Br2 3.362576 1_555
Ba2 Br1 3.582662 1_545
Ba2 Br3 3.582713 1_555
Ba3 O2 2.692137 1_555
Ba3 O3 2.692154 1_555
Ba3 O6 2.692316 1_555
Ba3 O4 3.320790 1_555
Ba3 O8 3.320811 1_555
Ba3 Br0 3.356257 1_445
Ba3 Br1 3.356268 1_555
Ba3 Br3 3.582561 1_555
Ba3 Br2 3.582585 1_555
Ba4 O1 2.692113 1_455
Ba4 O0 2.692121 1_455
Ba4 O9 2.692301 1_556
Ba4 O8 3.320731 1_566
Ba4 O4 3.320757 1_555
Ba4 Br3 3.356233 1_565
Ba4 Br2 3.356241 1_455
Ba4 Br0 3.582554 1_455
Ba4 Br1 3.582568 1_455
Ba5 O2 2.691430 1_554
Ba5 O0 2.691465 1_554
Ba5 O5 2.719783 1_565
Ba5 O9 3.324051 1_555
Ba5 O6 3.324076 1_665
Ba5 Br3 3.354133 1_564
Ba5 Br0 3.354143 1_555
Ba5 Br1 3.588326 1_554
Ba5 Br2 3.588336 1_554
Fe0 O3 1.858874 1_555
Fe0 O5 1.904379 1_555
Fe0 O8 1.906842 1_555
Fe0 O9 1.922997 1_545
Fe1 O2 1.858963 1_555
Fe1 O7 1.904308 1_556
Fe1 O4 1.906814 1_555
Fe1 O9 1.923010 1_556
Fe2 O1 1.858661 1_555
Fe2 O5 1.904609 1_555
Fe2 O4 1.907080 1_655
Fe2 O6 1.922872 1_655
Fe3 O0 1.858697 1_444
Fe3 O7 1.904620 1_555
Fe3 O8 1.907029 1_555
Fe3 O6 1.922941 1_555
