# generated using pymatgen
data_Hg3PClO4
_symmetry_space_group_name_H-M   'P 1'
_cell_length_a   8.50610800
_cell_length_b   8.50610800
_cell_length_c   8.50610800
_cell_angle_alpha   90.00000000
_cell_angle_beta   90.00000000
_cell_angle_gamma   90.00000000
_symmetry_Int_Tables_number   1
_chemical_formula_structural   Hg3PClO4
_chemical_formula_sum   'Hg12 P4 Cl4 O16'
_cell_volume   615.44986057
_cell_formula_units_Z   4
loop_
 _symmetry_equiv_pos_site_id
 _symmetry_equiv_pos_as_xyz
  1  'x, y, z'
loop_
 _atom_site_type_symbol
 _atom_site_label
 _atom_site_symmetry_multiplicity
 _atom_site_fract_x
 _atom_site_fract_y
 _atom_site_fract_z
 _atom_site_occupancy
  Hg  Hg0  1  0.35565300  0.95733100  0.11303800  1
  Hg  Hg1  1  0.38696200  0.64434700  0.45733100  1
  Hg  Hg2  1  0.88696200  0.85565300  0.54266900  1
  Hg  Hg3  1  0.61303800  0.14434700  0.04266900  1
  Hg  Hg4  1  0.64434700  0.45733100  0.38696200  1
  Hg  Hg5  1  0.45733100  0.38696200  0.64434700  1
  Hg  Hg6  1  0.95733100  0.11303800  0.35565300  1
  Hg  Hg7  1  0.04266900  0.61303800  0.14434700  1
  Hg  Hg8  1  0.54266900  0.88696200  0.85565300  1
  Hg  Hg9  1  0.85565300  0.54266900  0.88696200  1
  Hg  Hg10  1  0.14434700  0.04266900  0.61303800  1
  Hg  Hg11  1  0.11303800  0.35565300  0.95733100  1
  P  P0  1  0.51593700  0.01593700  0.48406300  1
  P  P1  1  0.98406300  0.98406300  0.98406300  1
  P  P2  1  0.01593700  0.48406300  0.51593700  1
  P  P3  1  0.48406300  0.51593700  0.01593700  1
  Cl  Cl0  1  0.23526000  0.23526000  0.23526000  1
  Cl  Cl1  1  0.73526000  0.26474000  0.76474000  1
  Cl  Cl2  1  0.26474000  0.76474000  0.73526000  1
  Cl  Cl3  1  0.76474000  0.73526000  0.26474000  1
  O  O0  1  0.40727700  0.90266400  0.38379300  1
  O  O1  1  0.40266400  0.11620700  0.59272300  1
  O  O2  1  0.59272300  0.40266400  0.11620700  1
  O  O3  1  0.38033800  0.61966200  0.11966200  1
  O  O4  1  0.88033800  0.88033800  0.88033800  1
  O  O5  1  0.61620700  0.90727700  0.59733600  1
  O  O6  1  0.88379300  0.09272300  0.09733600  1
  O  O7  1  0.09733600  0.88379300  0.09272300  1
  O  O8  1  0.90266400  0.38379300  0.40727700  1
  O  O9  1  0.11966200  0.38033800  0.61966200  1
  O  O10  1  0.61966200  0.11966200  0.38033800  1
  O  O11  1  0.90727700  0.59733600  0.61620700  1
  O  O12  1  0.09272300  0.09733600  0.88379300  1
  O  O13  1  0.11620700  0.59272300  0.40266400  1
  O  O14  1  0.59733600  0.61620700  0.90727700  1
  O  O15  1  0.38379300  0.40727700  0.90266400  1
loop_
_geom_bond_atom_site_label_1
_geom_bond_atom_site_label_2
_geom_bond_distance
_geom_bond_site_symmetry_2
Hg0 O7 2.291101 1_555
Hg0 O0 2.390228 1_555
Hg1 O0 2.291101 1_555
Hg1 O13 2.390228 1_555
Hg2 O11 2.291101 1_555
Hg2 O5 2.390228 1_555
Hg3 O2 2.291101 1_555
Hg3 O6 2.390228 1_555
Hg4 O8 2.291101 1_555
Hg4 O2 2.390228 1_555
Hg5 O15 2.291101 1_555
Hg5 O1 2.390228 1_555
Hg6 O6 2.291101 1_555
Hg6 O8 2.390228 1_555
Hg7 O13 2.291101 1_555
Hg7 O7 2.390228 1_555
Hg8 O5 2.291101 1_555
Hg8 O14 2.390228 1_555
Hg9 O14 2.291101 1_555
Hg9 O11 2.390228 1_555
Hg10 O1 2.291101 1_555
Hg10 O12 2.390228 1_555
Hg11 O12 2.291101 1_555
Hg11 O15 2.390228 1_555
Cl0 Hg0 2.778221 1_545
Cl0 Hg11 2.778221 1_554
Cl0 Hg6 2.778221 1_455
Cl1 Hg5 2.778221 1_555
Cl1 Hg9 2.778221 1_555
Cl1 Hg3 2.778221 1_556
Cl2 Hg8 2.778221 1_555
Cl2 Hg1 2.778221 1_555
Cl2 Hg10 2.778221 1_565
Cl3 Hg2 2.778221 1_555
Cl3 Hg4 2.778221 1_555
Cl3 Hg7 2.778221 1_655
O0 P0 1.584326 1_565
O1 P0 1.584326 1_555
O2 P3 1.584326 1_555
O3 P3 1.528182 1_555
O4 P1 1.528182 1_555
O5 P0 1.584326 1_565
O6 P1 1.584326 1_544
O7 P1 1.584326 1_454
O8 P2 1.584326 1_655
O9 P2 1.528182 1_555
O10 P0 1.528182 1_555
O11 P2 1.584326 1_655
O12 P1 1.584326 1_445
O13 P2 1.584326 1_555
O14 P3 1.584326 1_556
O15 P3 1.584326 1_556
