# generated using pymatgen
data_Cs2Ni(PS3)2
_symmetry_space_group_name_H-M   'P 1'
_cell_length_a   12.93796600
_cell_length_b   5.94557800
_cell_length_c   9.56936279
_cell_angle_alpha   55.20133565
_cell_angle_beta   90.00000000
_cell_angle_gamma   90.00000000
_symmetry_Int_Tables_number   1
_chemical_formula_structural   Cs2Ni(PS3)2
_chemical_formula_sum   'Cs4 Ni2 P4 S12'
_cell_volume   604.46647855
_cell_formula_units_Z   2
loop_
 _symmetry_equiv_pos_site_id
 _symmetry_equiv_pos_as_xyz
  1  'x, y, z'
loop_
 _atom_site_type_symbol
 _atom_site_label
 _atom_site_symmetry_multiplicity
 _atom_site_fract_x
 _atom_site_fract_y
 _atom_site_fract_z
 _atom_site_occupancy
  Cs  Cs0  1  0.67193000  0.29587300  0.96905300  1
  Cs  Cs1  1  0.32807000  0.70412700  0.03094700  1
  Cs  Cs2  1  0.82807000  0.29587300  0.46905300  1
  Cs  Cs3  1  0.17193000  0.70412700  0.53094700  1
  Ni  Ni0  1  0.00000000  0.00000000  0.00000000  1
  Ni  Ni1  1  0.50000000  0.00000000  0.50000000  1
  P  P0  1  0.96199100  0.66657700  0.88128600  1
  P  P1  1  0.03800900  0.33342300  0.11871400  1
  P  P2  1  0.53800900  0.66657700  0.38128600  1
  P  P3  1  0.46199100  0.33342300  0.61871400  1
  S  S0  1  0.42672400  0.52835300  0.72988100  1
  S  S1  1  0.92672400  0.47164700  0.77011900  1
  S  S2  1  0.06719100  0.97539100  0.76817900  1
  S  S3  1  0.43280900  0.97539100  0.26817900  1
  S  S4  1  0.56719100  0.02460900  0.73182100  1
  S  S5  1  0.65442500  0.79614200  0.46182300  1
  S  S6  1  0.15442500  0.20385800  0.03817700  1
  S  S7  1  0.84557500  0.79614200  0.96182300  1
  S  S8  1  0.57327600  0.47164700  0.27011900  1
  S  S9  1  0.07327600  0.52835300  0.22988100  1
  S  S10  1  0.93280900  0.02460900  0.23182100  1
  S  S11  1  0.34557500  0.20385800  0.53817700  1
loop_
_geom_bond_atom_site_label_1
_geom_bond_atom_site_label_2
_geom_bond_distance
_geom_bond_site_symmetry_2
Cs0 S1 3.648616 1_555
Cs0 S0 3.688161 1_555
Cs0 S7 3.696506 1_555
Cs0 S4 3.710818 1_555
Cs0 S7 3.756948 1_545
Cs0 S8 3.802386 1_556
Cs0 S4 3.812607 1_565
Cs0 S5 3.888904 1_546
Cs0 S3 3.894886 1_546
Cs0 S10 3.960734 1_556
Cs0 S5 3.997468 1_555
Cs1 S9 3.648616 1_555
Cs1 S8 3.688161 1_555
Cs1 S6 3.696506 1_555
Cs1 S3 3.710818 1_555
Cs1 S6 3.756948 1_565
Cs1 S0 3.802386 1_554
Cs1 S3 3.812607 1_545
Cs1 S11 3.888904 1_564
Cs1 S4 3.894886 1_564
Cs1 S2 3.960734 1_554
Cs1 S11 3.997468 1_555
Cs2 S8 3.648616 1_555
Cs2 S9 3.688161 1_655
Cs2 S5 3.696506 1_555
Cs2 S10 3.710818 1_555
Cs2 S5 3.756948 1_545
Cs2 S1 3.802386 1_555
Cs2 S10 3.812607 1_565
Cs2 S7 3.888904 1_545
Cs2 S2 3.894886 1_645
Cs2 S4 3.960734 1_555
Cs2 S7 3.997468 1_554
Cs3 S0 3.648616 1_555
Cs3 S1 3.688161 1_455
Cs3 S11 3.696506 1_555
Cs3 S2 3.710818 1_555
Cs3 S11 3.756948 1_565
Cs3 S9 3.802386 1_555
Cs3 S2 3.812607 1_545
Cs3 S6 3.888904 1_565
Cs3 S10 3.894886 1_465
Cs3 S3 3.960734 1_555
Cs3 S6 3.997468 1_556
Ni0 S10 2.463493 1_455
Ni0 S2 2.463493 1_544
Ni0 S6 2.469763 1_555
Ni0 S7 2.469763 1_444
Ni0 S1 2.561375 1_454
Ni0 S9 2.561375 1_545
Ni1 S3 2.463493 1_545
Ni1 S4 2.463493 1_555
Ni1 S11 2.469763 1_555
Ni1 S5 2.469763 1_545
Ni1 S8 2.561375 1_555
Ni1 S0 2.561375 1_545
P0 S1 2.022450 1_555
P0 S2 2.031484 1_655
P0 S7 2.033128 1_555
P1 S9 2.022450 1_555
P1 S10 2.031484 1_455
P1 S6 2.033128 1_555
P2 S8 2.022450 1_555
P2 S3 2.031484 1_555
P2 S5 2.033128 1_555
P3 S0 2.022450 1_555
P3 S4 2.031484 1_555
P3 S11 2.033128 1_555
