# generated using pymatgen
data_Li4Mo3O8
_symmetry_space_group_name_H-M   'P 1'
_cell_length_a   11.34249410
_cell_length_b   11.34249410
_cell_length_c   11.34249469
_cell_angle_alpha   29.78663507
_cell_angle_beta   29.78663507
_cell_angle_gamma   29.78663754
_symmetry_Int_Tables_number   1
_chemical_formula_structural   Li4Mo3O8
_chemical_formula_sum   'Li8 Mo6 O16'
_cell_volume   318.88130236
_cell_formula_units_Z   2
loop_
 _symmetry_equiv_pos_site_id
 _symmetry_equiv_pos_as_xyz
  1  'x, y, z'
loop_
 _atom_site_type_symbol
 _atom_site_label
 _atom_site_symmetry_multiplicity
 _atom_site_fract_x
 _atom_site_fract_y
 _atom_site_fract_z
 _atom_site_occupancy
  Li  Li0  1  0.24559800  0.24559800  0.24559800  1
  Li  Li1  1  0.17420300  0.17420300  0.17420300  1
  Li  Li2  1  0.82579700  0.82579700  0.82579700  1
  Li  Li3  1  0.68498500  0.68498500  0.68498500  1
  Li  Li4  1  0.75440200  0.75440200  0.75440200  1
  Li  Li5  1  0.00000000  0.00000000  0.00000000  1
  Li  Li6  1  0.50000000  0.50000000  0.50000000  1
  Li  Li7  1  0.31501500  0.31501500  0.31501500  1
  Mo  Mo0  1  0.71448400  0.26788600  0.26788600  1
  Mo  Mo1  1  0.73211400  0.73211400  0.28551600  1
  Mo  Mo2  1  0.26788600  0.71448400  0.26788600  1
  Mo  Mo3  1  0.28551600  0.73211400  0.73211400  1
  Mo  Mo4  1  0.73211400  0.28551600  0.73211400  1
  Mo  Mo5  1  0.26788600  0.26788600  0.71448400  1
  O  O0  1  0.62197000  0.11265600  0.11265600  1
  O  O1  1  0.61971000  0.61971000  0.12857100  1
  O  O2  1  0.88734400  0.37803000  0.88734400  1
  O  O3  1  0.11265600  0.11265600  0.62197000  1
  O  O4  1  0.88421700  0.88421700  0.88421700  1
  O  O5  1  0.38029000  0.38029000  0.87142900  1
  O  O6  1  0.12857100  0.61971000  0.61971000  1
  O  O7  1  0.38029000  0.87142900  0.38029000  1
  O  O8  1  0.62813100  0.62813100  0.62813100  1
  O  O9  1  0.11578300  0.11578300  0.11578300  1
  O  O10  1  0.88734400  0.88734400  0.37803000  1
  O  O11  1  0.87142900  0.38029000  0.38029000  1
  O  O12  1  0.37803000  0.88734400  0.88734400  1
  O  O13  1  0.11265600  0.62197000  0.11265600  1
  O  O14  1  0.37186900  0.37186900  0.37186900  1
  O  O15  1  0.61971000  0.12857100  0.61971000  1
loop_
_geom_bond_atom_site_label_1
_geom_bond_atom_site_label_2
_geom_bond_distance
_geom_bond_site_symmetry_2
Li0 O11 2.054838 1_455
Li0 O7 2.054838 1_545
Li0 O5 2.054838 1_554
Li0 O13 2.090842 1_555
Li0 O0 2.090842 1_555
Li0 O3 2.090842 1_555
Li1 O9 1.898322 1_555
Li1 O5 2.082865 1_554
Li1 O11 2.082865 1_455
Li1 O7 2.082865 1_545
Li2 O4 1.898322 1_555
Li2 O1 2.082865 1_556
Li2 O15 2.082865 1_565
Li2 O6 2.082865 1_655
Li3 O8 1.847436 1_555
Li3 O10 2.015123 1_555
Li3 O12 2.015123 1_555
Li3 O2 2.015123 1_555
Li4 O15 2.054838 1_565
Li4 O6 2.054838 1_655
Li4 O1 2.054838 1_556
Li4 O12 2.090842 1_555
Li4 O2 2.090842 1_555
Li4 O10 2.090842 1_555
Li5 O2 2.337643 1_454
Li5 O12 2.337643 1_544
Li5 O13 2.337643 1_545
Li5 O0 2.337643 1_455
Li5 O10 2.337643 1_445
Li5 O3 2.337643 1_554
Li6 O15 2.185828 1_555
Li6 O6 2.185828 1_555
Li6 O7 2.185828 1_555
Li6 O11 2.185828 1_555
Li6 O1 2.185828 1_555
Li6 O5 2.185828 1_555
Li7 O14 1.847436 1_555
Li7 O3 2.015123 1_555
Li7 O0 2.015123 1_555
Li7 O13 2.015123 1_555
Mo0 O1 2.033275 1_555
Mo0 O15 2.033276 1_555
Mo0 O10 2.058584 1_545
Mo0 O2 2.058584 1_554
Mo0 O14 2.094551 1_555
Mo0 O9 2.139234 1_655
Mo1 O7 2.033275 1_555
Mo1 O11 2.033275 1_555
Mo1 O0 2.058584 1_565
Mo1 O13 2.058584 1_655
Mo1 O8 2.094551 1_555
Mo1 O4 2.139234 1_554
Mo2 O1 2.033275 1_555
Mo2 O6 2.033276 1_555
Mo2 O10 2.058584 1_455
Mo2 O12 2.058584 1_554
Mo2 O14 2.094551 1_555
Mo2 O9 2.139234 1_565
Mo3 O5 2.033275 1_555
Mo3 O7 2.033276 1_555
Mo3 O3 2.058584 1_565
Mo3 O13 2.058584 1_556
Mo3 O8 2.094551 1_555
Mo3 O4 2.139234 1_455
Mo4 O5 2.033275 1_555
Mo4 O11 2.033276 1_555
Mo4 O3 2.058584 1_655
Mo4 O0 2.058584 1_556
Mo4 O8 2.094551 1_555
Mo4 O4 2.139234 1_545
Mo5 O15 2.033275 1_555
Mo5 O6 2.033275 1_555
Mo5 O12 2.058584 1_545
Mo5 O2 2.058584 1_455
Mo5 O14 2.094551 1_555
Mo5 O9 2.139234 1_556
