# generated using pymatgen
data_Sm4Al23Ni6
_symmetry_space_group_name_H-M   'P 1'
_cell_length_a   8.20693048
_cell_length_b   8.20693048
_cell_length_c   18.21799627
_cell_angle_alpha   67.74009954
_cell_angle_beta   67.74009954
_cell_angle_gamma   28.73620026
_symmetry_Int_Tables_number   1
_chemical_formula_structural   Sm4Al23Ni6
_chemical_formula_sum   'Sm4 Al23 Ni6'
_cell_volume   542.96344779
_cell_formula_units_Z   1
loop_
 _symmetry_equiv_pos_site_id
 _symmetry_equiv_pos_as_xyz
  1  'x, y, z'
loop_
 _atom_site_type_symbol
 _atom_site_label
 _atom_site_symmetry_multiplicity
 _atom_site_fract_x
 _atom_site_fract_y
 _atom_site_fract_z
 _atom_site_occupancy
  Sm  Sm0  1  0.26500490  0.26500490  0.78210270  1
  Sm  Sm1  1  0.57094246  0.57094246  0.59345549  1
  Sm  Sm2  1  0.73499510  0.73499510  0.21789730  1
  Sm  Sm3  1  0.42905754  0.42905754  0.40654451  1
  Al  Al0  1  0.46836463  0.46836463  0.78264482  1
  Al  Al1  1  0.08119146  0.08119146  0.31216676  1
  Al  Al2  1  0.60792157  0.60792157  0.83951697  1
  Al  Al3  1  0.25441214  0.25441214  0.95473899  1
  Al  Al4  1  0.62448661  0.62448661  0.40435501  1
  Al  Al5  1  0.09000718  0.09000718  0.95089706  1
  Al  Al6  1  0.53163537  0.53163537  0.21735518  1
  Al  Al7  1  0.20303015  0.20303015  0.47881274  1
  Al  Al8  1  0.90910733  0.90910733  0.27850590  1
  Al  Al9  1  0.39207843  0.39207843  0.16048303  1
  Al  Al10  1  0.90999282  0.90999282  0.04910294  1
  Al  Al11  1  0.74558786  0.74558786  0.04526101  1
  Al  Al12  1  0.37551339  0.37551339  0.59564499  1
  Al  Al13  1  0.27694609  0.27694609  0.32406221  1
  Al  Al14  1  0.85583270  0.85583270  0.85908328  1
  Al  Al15  1  0.14416730  0.14416730  0.14091672  1
  Al  Al16  1  0.43084148  0.43084148  0.93962266  1
  Al  Al17  1  0.79696985  0.79696985  0.52118726  1
  Al  Al18  1  0.56915852  0.56915852  0.06037734  1
  Al  Al19  1  0.72305391  0.72305391  0.67593779  1
  Al  Al20  1  0.91880854  0.91880854  0.68783324  1
  Al  Al21  1  0.09089267  0.09089267  0.72149410  1
  Al  Al22  1  0.00000000  0.00000000  0.50000000  1
  Ni  Ni0  1  0.99276474  0.99276474  0.13452403  1
  Ni  Ni1  1  0.00723526  0.00723526  0.86547597  1
  Ni  Ni2  1  0.31068756  0.31068756  0.06688347  1
  Ni  Ni3  1  0.68931244  0.68931244  0.93311653  1
  Ni  Ni4  1  0.77321832  0.77321832  0.39823304  1
  Ni  Ni5  1  0.22678168  0.22678168  0.60176696  1
loop_
_geom_bond_atom_site_label_1
_geom_bond_atom_site_label_2
_geom_bond_distance
_geom_bond_site_symmetry_2
Al0 Al16 2.683303 1_555
Al0 Al14 2.709184 1_455
Al0 Al14 2.709184 1_545
Al0 Al21 2.736216 1_565
Al0 Al21 2.736216 1_655
Al0 Ni1 2.745197 1_565
Al0 Ni1 2.745197 1_655
Al0 Al2 2.792067 1_555
Al0 Al20 2.969236 1_455
Al0 Al20 2.969236 1_545
Al0 Sm1 3.184828 1_555
Al0 Sm0 3.237388 1_555
Al1 Al15 2.879724 1_555
Al1 Al4 2.889007 1_455
Al1 Al4 2.889007 1_545
Al1 Al6 2.969236 1_455
Al1 Al6 2.969236 1_545
Al1 Al8 3.029062 1_445
Al1 Sm3 3.114893 1_455
Al1 Sm3 3.114893 1_545
Al1 Sm2 3.129378 1_545
Al1 Sm2 3.129378 1_455
Al1 Al22 3.149822 1_555
Al2 Ni3 2.511654 1_555
Al2 Ni1 2.518361 1_655
Al2 Ni1 2.518361 1_565
Al2 Al5 2.809625 1_565
Al2 Al5 2.809625 1_655
Al2 Al21 3.049474 1_655
Al2 Al21 3.049474 1_565
Al2 Sm0 3.071954 1_565
Al2 Sm0 3.071954 1_655
Al3 Ni3 2.386018 1_455
Al3 Ni3 2.386018 1_545
Al3 Ni2 2.530704 1_556
Al3 Al5 2.642270 1_555
Al3 Sm0 3.083124 1_555
Al4 Ni4 2.323558 1_555
Al4 Al7 2.978617 1_565
Al4 Al7 2.978617 1_655
Al4 Sm3 3.092032 1_555
Al4 Sm2 3.155676 1_555
Al4 Sm1 3.209242 1_555
Al5 Ni1 2.399107 1_555
Al5 Ni3 2.519068 1_455
Al5 Ni3 2.519068 1_545
Al5 Sm0 3.241424 1_555
Al6 Al8 2.736216 1_455
Al6 Al8 2.736216 1_545
Al6 Ni0 2.745197 1_455
Al6 Ni0 2.745197 1_545
Al6 Al9 2.792067 1_555
Al6 Sm3 3.184828 1_555
Al6 Sm2 3.237388 1_555
Al7 Ni5 2.412827 1_555
Al7 Ni4 2.503356 1_545
Al7 Ni4 2.503356 1_455
Al7 Sm1 3.080603 1_545
Al7 Sm1 3.080603 1_455
Al7 Sm3 3.308959 1_555
Al8 Ni4 2.395902 1_555
Al8 Ni0 2.433320 1_555
Al8 Al9 3.049474 1_655
Al8 Al9 3.049474 1_565
Al8 Sm3 3.204361 1_565
Al8 Sm3 3.204361 1_655
Al8 Sm2 3.357719 1_555
Al9 Ni2 2.511654 1_555
Al9 Ni0 2.518361 1_545
Al9 Ni0 2.518361 1_455
Al9 Sm2 3.071954 1_455
Al9 Sm2 3.071954 1_545
Al10 Ni0 2.399107 1_555
Al10 Ni2 2.519068 1_655
Al10 Ni2 2.519068 1_565
Al10 Al11 2.642270 1_555
Al10 Al5 2.718221 1_664
Al10 Al16 2.778205 1_654
Al10 Al16 2.778205 1_564
Al10 Al9 2.809625 1_655
Al10 Al9 2.809625 1_565
Al10 Sm2 3.241424 1_555
Al11 Ni2 2.386018 1_565
Al11 Ni2 2.386018 1_655
Al11 Ni3 2.530704 1_554
Al11 Al3 2.589576 1_564
Al11 Al3 2.589576 1_654
Al11 Al18 2.709501 1_555
Al11 Al15 2.754476 1_565
Al11 Al15 2.754476 1_655
Al11 Sm2 3.083124 1_555
Al12 Ni5 2.323558 1_555
Al12 Al20 2.889007 1_455
Al12 Al20 2.889007 1_545
Al12 Al22 2.899020 1_655
Al12 Al22 2.899020 1_565
Al12 Al17 2.978617 1_455
Al12 Al17 2.978617 1_545
Al12 Sm1 3.092032 1_555
Al12 Sm0 3.155676 1_555
Al12 Sm3 3.209242 1_555
Al13 Ni4 2.431931 1_455
Al13 Ni4 2.431931 1_545
Al13 Al7 2.595782 1_555
Al13 Al8 2.808621 1_545
Al13 Al8 2.808621 1_455
Al13 Al9 2.822334 1_555
Al13 Sm2 3.056513 1_545
Al13 Sm2 3.056513 1_455
Al13 Sm3 3.309111 1_555
Al14 Ni1 2.455252 1_665
Al14 Ni3 2.456984 1_555
Al14 Al3 2.754476 1_565
Al14 Al3 2.754476 1_655
Al14 Al20 2.879724 1_555
Al14 Al16 3.015213 1_565
Al14 Al16 3.015213 1_655
Al14 Sm0 3.127957 1_655
Al14 Sm0 3.127957 1_565
Al15 Ni0 2.455252 1_445
Al15 Ni2 2.456984 1_555
Al15 Al6 2.709184 1_545
Al15 Al6 2.709184 1_455
Al15 Al18 3.015213 1_545
Al15 Al18 3.015213 1_455
Al15 Sm2 3.127957 1_455
Al15 Sm2 3.127957 1_545
Al16 Ni2 2.358186 1_556
Al16 Ni1 2.482834 1_565
Al16 Ni1 2.482834 1_655
Al16 Al2 2.690339 1_555
Al16 Al3 2.709501 1_555
Al17 Ni4 2.412827 1_555
Al17 Ni5 2.503356 1_655
Al17 Ni5 2.503356 1_565
Al17 Al19 2.595782 1_555
Al17 Al7 2.806494 1_565
Al17 Al7 2.806494 1_655
Al17 Sm3 3.080603 1_565
Al17 Sm3 3.080603 1_655
Al17 Al22 3.097773 1_665
Al17 Sm1 3.308959 1_555
Al18 Ni3 2.358186 1_554
Al18 Ni0 2.482834 1_455
Al18 Ni0 2.482834 1_545
Al18 Al6 2.683303 1_555
Al18 Al9 2.690339 1_555
Al18 Al5 2.778205 1_564
Al18 Al5 2.778205 1_654
Al19 Ni5 2.431931 1_655
Al19 Ni5 2.431931 1_565
Al19 Al21 2.808621 1_565
Al19 Al21 2.808621 1_655
Al19 Al2 2.822334 1_555
Al19 Sm0 3.056513 1_565
Al19 Sm0 3.056513 1_655
Al19 Sm1 3.309111 1_555
Al20 Al21 3.029062 1_665
Al20 Sm1 3.114893 1_565
Al20 Sm1 3.114893 1_655
Al20 Sm0 3.129378 1_565
Al20 Sm0 3.129378 1_655
Al20 Al22 3.149822 1_665
Al21 Ni5 2.395902 1_555
Al21 Ni1 2.433320 1_555
Al21 Sm1 3.204361 1_545
Al21 Sm1 3.204361 1_455
Al21 Sm0 3.357719 1_555
Al22 Al4 2.899020 1_455
Al22 Al4 2.899020 1_545
Al22 Al7 3.097773 1_555
Al22 Sm3 3.133806 1_545
Al22 Sm3 3.133806 1_455
Al22 Sm1 3.133806 1_545
Al22 Sm1 3.133806 1_455
Ni2 Sm2 3.251987 1_455
Ni2 Sm2 3.251987 1_545
Ni3 Sm0 3.251987 1_565
Ni3 Sm0 3.251987 1_655
Ni4 Sm3 3.256376 1_565
Ni4 Sm3 3.256376 1_655
Ni5 Sm1 3.256376 1_545
Ni5 Sm1 3.256376 1_455
