# generated using pymatgen
data_KC(NO2)3
_symmetry_space_group_name_H-M   'P 1'
_cell_length_a   9.38823064
_cell_length_b   9.38823064
_cell_length_c   9.38823064
_cell_angle_alpha   103.41750413
_cell_angle_beta   103.41750413
_cell_angle_gamma   122.40563555
_symmetry_Int_Tables_number   1
_chemical_formula_structural   KC(NO2)3
_chemical_formula_sum   'K4 C4 N12 O24'
_cell_volume   612.21385789
_cell_formula_units_Z   4
loop_
 _symmetry_equiv_pos_site_id
 _symmetry_equiv_pos_as_xyz
  1  'x, y, z'
loop_
 _atom_site_type_symbol
 _atom_site_label
 _atom_site_symmetry_multiplicity
 _atom_site_fract_x
 _atom_site_fract_y
 _atom_site_fract_z
 _atom_site_occupancy
  K  K0  1  0.62500000  0.85090600  0.72590600  1
  K  K1  1  0.10090600  0.37500000  0.22590600  1
  K  K2  1  0.12500000  0.89909400  0.27409400  1
  K  K3  1  0.14909400  0.87500000  0.77409400  1
  C  C0  1  0.56248900  0.87500000  0.18748900  1
  C  C1  1  0.68751100  0.37500000  0.81251100  1
  C  C2  1  0.12500000  0.31248900  0.68748900  1
  C  C3  1  0.62500000  0.43751100  0.31251100  1
  N  N0  1  0.54159700  0.87332200  0.33252900  1
  N  N1  1  0.62500000  0.55759500  0.43259500  1
  N  N2  1  0.70840300  0.54093100  0.83172400  1
  N  N3  1  0.70920700  0.87667800  0.16827600  1
  N  N4  1  0.12332200  0.29159700  0.83252900  1
  N  N5  1  0.12500000  0.19240500  0.56740500  1
  N  N6  1  0.12667800  0.45920700  0.66827600  1
  N  N7  1  0.54079300  0.20906900  0.66747100  1
  N  N8  1  0.44240500  0.87500000  0.06740500  1
  N  N9  1  0.79093100  0.45840300  0.33172400  1
  N  N10  1  0.80759500  0.37500000  0.93259500  1
  N  N11  1  0.45906900  0.29079300  0.16747100  1
  O  O0  1  0.47752300  0.24851600  0.04023500  1
  O  O1  1  0.49851600  0.22752300  0.54023500  1
  O  O2  1  0.44933400  0.85243100  0.93276400  1
  O  O3  1  0.20828100  0.43728800  0.95976500  1
  O  O4  1  0.68728800  0.95828100  0.45976500  1
  O  O5  1  0.10243100  0.19933400  0.43276400  1
  O  O6  1  0.21049800  0.53876500  0.59247800  1
  O  O7  1  0.76657000  0.66966700  0.56723600  1
  O  O8  1  0.78876500  0.96049800  0.09247800  1
  O  O9  1  0.94628800  0.61802000  0.40752200  1
  O  O10  1  0.80066600  0.23343000  0.90309700  1
  O  O11  1  0.33033300  0.89756900  0.09690300  1
  O  O12  1  0.91966700  0.51657000  0.06723600  1
  O  O13  1  0.04171900  0.50148400  0.72900700  1
  O  O14  1  0.03950200  0.13198000  0.82826800  1
  O  O15  1  0.75148400  0.79171900  0.22900700  1
  O  O16  1  0.38198000  0.78950200  0.32826800  1
  O  O17  1  0.48343000  0.55066600  0.40309700  1
  O  O18  1  0.14756900  0.08033300  0.59690300  1
  O  O19  1  0.86802000  0.69628800  0.90752200  1
  O  O20  1  0.30371200  0.21123500  0.17173200  1
  O  O21  1  0.56271200  0.52247700  0.77099300  1
  O  O22  1  0.77247700  0.31271200  0.27099300  1
  O  O23  1  0.46123500  0.05371200  0.67173200  1
loop_
_geom_bond_atom_site_label_1
_geom_bond_atom_site_label_2
_geom_bond_distance
_geom_bond_site_symmetry_2
K0 O2 2.826713 1_555
K0 O10 2.826713 1_565
K0 O4 2.969225 1_555
K0 O21 2.969225 1_555
K0 O17 3.007832 1_555
K0 O7 3.007832 1_555
K0 O14 3.018515 1_665
K0 O6 3.018517 1_555
K0 O23 3.077614 1_565
K0 O8 3.077621 1_556
K1 O17 2.826713 1_555
K1 O5 2.826713 1_555
K1 O3 2.969225 1_554
K1 O22 2.969225 1_455
K1 O12 3.007832 1_455
K1 O10 3.007832 1_454
K1 O16 3.018515 1_555
K1 O8 3.018517 1_445
K1 O20 3.077614 1_555
K1 O6 3.077621 1_555
K2 O12 2.826713 1_455
K2 O11 2.826713 1_555
K2 O1 2.969225 1_565
K2 O15 2.969225 1_455
K2 O5 3.007832 1_565
K2 O18 3.007832 1_565
K2 O9 3.018515 1_455
K2 O20 3.018522 1_565
K2 O19 3.077622 1_454
K2 O16 3.077622 1_555
K3 O7 2.826713 1_455
K3 O18 2.826713 1_565
K3 O0 2.969225 1_566
K3 O13 2.969225 1_555
K3 O11 3.007832 1_556
K3 O2 3.007832 1_555
K3 O19 3.018515 1_455
K3 O23 3.018522 1_565
K3 O9 3.077622 1_455
K3 O14 3.077622 1_565
C0 N8 1.397178 1_555
C0 N3 1.422478 1_555
C0 N0 1.422481 1_555
C1 N10 1.397178 1_555
C1 N2 1.422473 1_555
C1 N7 1.422478 1_555
C2 N5 1.397178 1_555
C2 N6 1.422478 1_555
C2 N4 1.422481 1_555
C3 N1 1.397178 1_555
C3 N9 1.422473 1_555
C3 N11 1.422478 1_555
N0 O16 1.249029 1_555
N0 O4 1.250663 1_555
N1 O17 1.255214 1_555
N1 O7 1.255214 1_555
N2 O19 1.249032 1_555
N2 O21 1.250667 1_555
N3 O8 1.249033 1_555
N3 O15 1.250658 1_555
N4 O14 1.249029 1_555
N4 O3 1.250663 1_555
N5 O5 1.255214 1_555
N5 O18 1.255214 1_555
N6 O6 1.249033 1_555
N6 O13 1.250658 1_555
N7 O23 1.249037 1_555
N7 O1 1.250658 1_555
N8 O2 1.255214 1_554
N8 O11 1.255214 1_555
N9 O9 1.249032 1_555
N9 O22 1.250667 1_555
N10 O12 1.255214 1_556
N10 O10 1.255214 1_555
N11 O20 1.249037 1_555
N11 O0 1.250658 1_555
