# generated using pymatgen
data_LiMo(PO4)2
_symmetry_space_group_name_H-M   'P 1'
_cell_length_a   4.92582784
_cell_length_b   4.92582784
_cell_length_c   7.85481500
_cell_angle_alpha   90.00000000
_cell_angle_beta   90.00000000
_cell_angle_gamma   119.99999788
_symmetry_Int_Tables_number   1
_chemical_formula_structural   LiMo(PO4)2
_chemical_formula_sum   'Li1 Mo1 P2 O8'
_cell_volume   165.05362237
_cell_formula_units_Z   1
loop_
 _symmetry_equiv_pos_site_id
 _symmetry_equiv_pos_as_xyz
  1  'x, y, z'
loop_
 _atom_site_type_symbol
 _atom_site_label
 _atom_site_symmetry_multiplicity
 _atom_site_fract_x
 _atom_site_fract_y
 _atom_site_fract_z
 _atom_site_occupancy
  Li  Li0  1  0.00000000  0.00000000  0.64770300  1
  Mo  Mo0  1  0.66666700  0.33333300  0.00405100  1
  P  P0  1  0.00000000  0.00000000  0.22601700  1
  P  P1  1  0.33333300  0.66666700  0.77625800  1
  O  O0  1  0.02639800  0.64193700  0.85220300  1
  O  O1  1  0.33333300  0.66666700  0.58785100  1
  O  O2  1  0.35806300  0.38446000  0.85220300  1
  O  O3  1  0.00000000  0.00000000  0.41328800  1
  O  O4  1  0.94906500  0.26436300  0.14523200  1
  O  O5  1  0.31529700  0.05093500  0.14523200  1
  O  O6  1  0.61554000  0.97360200  0.85220300  1
  O  O7  1  0.73563700  0.68470300  0.14523200  1
loop_
_geom_bond_atom_site_label_1
_geom_bond_atom_site_label_2
_geom_bond_distance
_geom_bond_site_symmetry_2
Li0 O3 1.841286 1_555
Li0 O6 2.436658 1_445
Li0 O2 2.436660 1_555
Li0 O0 2.436662 1_545
Mo0 O4 1.937209 1_555
Mo0 O5 1.937215 1_555
Mo0 O7 1.937217 1_555
Mo0 O2 2.044426 1_554
Mo0 O6 2.044426 1_544
Mo0 O0 2.044426 1_654
O0 P1 1.572382 1_555
O1 P1 1.479902 1_555
O2 P1 1.572391 1_555
O3 P0 1.470979 1_555
O4 P0 1.577361 1_655
O5 P0 1.577356 1_555
O6 P1 1.572386 1_555
O7 P0 1.577358 1_665
