# generated using pymatgen
data_Tl4V5CdClO15
_symmetry_space_group_name_H-M   'P 1'
_cell_length_a   9.27444200
_cell_length_b   9.27444200
_cell_length_c   5.71441900
_cell_angle_alpha   90.00000000
_cell_angle_beta   90.00000000
_cell_angle_gamma   90.00000000
_symmetry_Int_Tables_number   1
_chemical_formula_structural   Tl4V5CdClO15
_chemical_formula_sum   'Tl4 V5 Cd1 Cl1 O15'
_cell_volume   491.52731839
_cell_formula_units_Z   1
loop_
 _symmetry_equiv_pos_site_id
 _symmetry_equiv_pos_as_xyz
  1  'x, y, z'
loop_
 _atom_site_type_symbol
 _atom_site_label
 _atom_site_symmetry_multiplicity
 _atom_site_fract_x
 _atom_site_fract_y
 _atom_site_fract_z
 _atom_site_occupancy
  Tl  Tl0  1  0.83418700  0.31321900  0.92012200  1
  Tl  Tl1  1  0.16581300  0.68678100  0.92012200  1
  Tl  Tl2  1  0.68678100  0.83418700  0.92012200  1
  Tl  Tl3  1  0.31321900  0.16581300  0.92012200  1
  V  V0  1  0.85651700  0.61943000  0.44698400  1
  V  V1  1  0.38057000  0.85651700  0.44698400  1
  V  V2  1  0.61943000  0.14348300  0.44698400  1
  V  V3  1  0.50000000  0.50000000  0.47174900  1
  V  V4  1  0.14348300  0.38057000  0.44698400  1
  Cd  Cd0  1  0.00000000  0.00000000  0.48917300  1
  Cl  Cl0  1  0.00000000  0.00000000  0.03416600  1
  O  O0  1  0.14531200  0.37563600  0.15480700  1
  O  O1  1  0.00000000  0.50000000  0.55063400  1
  O  O2  1  0.37563600  0.85468800  0.15480700  1
  O  O3  1  0.85468800  0.62436400  0.15480700  1
  O  O4  1  0.11640000  0.21128900  0.56053900  1
  O  O5  1  0.78871100  0.11640000  0.56053900  1
  O  O6  1  0.44788400  0.69055100  0.55958100  1
  O  O7  1  0.88360000  0.78871100  0.56053900  1
  O  O8  1  0.55211600  0.30944900  0.55958100  1
  O  O9  1  0.30944900  0.44788400  0.55958100  1
  O  O10  1  0.62436400  0.14531200  0.15480700  1
  O  O11  1  0.50000000  0.00000000  0.55063400  1
  O  O12  1  0.69055100  0.55211600  0.55958100  1
  O  O13  1  0.21128900  0.88360000  0.56053900  1
  O  O14  1  0.50000000  0.50000000  0.18855100  1
loop_
_geom_bond_atom_site_label_1
_geom_bond_atom_site_label_2
_geom_bond_distance
_geom_bond_site_symmetry_2
Cd0 O4 2.274140 1_555
Cd0 O13 2.274140 1_545
Cd0 O7 2.274140 1_445
Cd0 O5 2.274140 1_455
Cd0 Cl0 2.600101 1_555
O0 V4 1.670335 1_555
O0 Tl3 2.830266 1_554
O1 V4 1.829898 1_555
O1 V0 1.829898 1_455
O2 V1 1.670335 1_555
O2 Tl1 2.830266 1_554
O3 V0 1.670335 1_555
O3 Tl2 2.830266 1_554
O4 V4 1.717272 1_555
O4 Tl3 2.780676 1_555
O5 V2 1.717272 1_555
O5 Tl0 2.780676 1_555
O6 V1 1.781296 1_555
O6 V3 1.899664 1_555
O7 V0 1.717272 1_555
O7 Tl2 2.780676 1_555
O8 V2 1.781296 1_555
O8 V3 1.899664 1_555
O9 V4 1.781296 1_555
O9 V3 1.899664 1_555
O10 V2 1.670335 1_555
O10 Tl0 2.830266 1_554
O11 V2 1.829898 1_555
O11 V1 1.829898 1_545
O12 V0 1.781296 1_555
O12 V3 1.899664 1_555
O13 V1 1.717272 1_555
O13 Tl1 2.780676 1_555
O14 V3 1.618312 1_555
