# generated using pymatgen
data_WO2
_symmetry_space_group_name_H-M   'P 1'
_cell_length_a   6.43977419
_cell_length_b   6.43977419
_cell_length_c   6.43977419
_cell_angle_alpha   60.00000000
_cell_angle_beta   60.00000000
_cell_angle_gamma   60.00000000
_symmetry_Int_Tables_number   1
_chemical_formula_structural   WO2
_chemical_formula_sum   'W4 O8'
_cell_volume   188.84127320
_cell_formula_units_Z   4
loop_
 _symmetry_equiv_pos_site_id
 _symmetry_equiv_pos_as_xyz
  1  'x, y, z'
loop_
 _atom_site_type_symbol
 _atom_site_label
 _atom_site_symmetry_multiplicity
 _atom_site_fract_x
 _atom_site_fract_y
 _atom_site_fract_z
 _atom_site_occupancy
  W  W0  1  0.12500000  0.62500000  0.12500000  1
  W  W1  1  0.12500000  0.12500000  0.12500000  1
  W  W2  1  0.62500000  0.12500000  0.12500000  1
  W  W3  1  0.12500000  0.12500000  0.62500000  1
  O  O0  1  0.89548900  0.89548900  0.31353200  1
  O  O1  1  0.89548900  0.31353200  0.89548900  1
  O  O2  1  0.35451100  0.35451100  0.93646800  1
  O  O3  1  0.35451100  0.35451100  0.35451100  1
  O  O4  1  0.35451100  0.93646800  0.35451100  1
  O  O5  1  0.93646800  0.35451100  0.35451100  1
  O  O6  1  0.89548900  0.89548900  0.89548900  1
  O  O7  1  0.31353200  0.89548900  0.89548900  1
loop_
_geom_bond_atom_site_label_1
_geom_bond_atom_site_label_2
_geom_bond_distance
_geom_bond_site_symmetry_2
O0 W2 2.106794 1_565
O0 W0 2.106794 1_655
O0 W1 2.106799 1_665
O1 W2 2.106794 1_556
O1 W3 2.106794 1_655
O1 W1 2.106799 1_656
O2 W2 2.106794 1_556
O2 W0 2.106794 1_556
O2 W1 2.106799 1_556
O3 W2 2.106798 1_555
O3 W3 2.106798 1_555
O3 W0 2.106798 1_555
O4 W2 2.106794 1_565
O4 W3 2.106794 1_565
O4 W1 2.106799 1_565
O5 W3 2.106794 1_655
O5 W0 2.106794 1_655
O5 W1 2.106799 1_655
O6 W2 2.106798 1_566
O6 W0 2.106798 1_656
O6 W3 2.106798 1_665
O7 W3 2.106794 1_565
O7 W0 2.106794 1_556
O7 W1 2.106799 1_566
