# generated using pymatgen
data_La3BWO9
_symmetry_space_group_name_H-M   'P 1'
_cell_length_a   8.84506582
_cell_length_b   8.84506582
_cell_length_c   5.61262916
_cell_angle_alpha   90.00000000
_cell_angle_beta   90.00000000
_cell_angle_gamma   120.00000059
_symmetry_Int_Tables_number   1
_chemical_formula_structural   La3BWO9
_chemical_formula_sum   'La6 B2 W2 O18'
_cell_volume   380.27617362
_cell_formula_units_Z   2
loop_
 _symmetry_equiv_pos_site_id
 _symmetry_equiv_pos_as_xyz
  1  'x, y, z'
loop_
 _atom_site_type_symbol
 _atom_site_label
 _atom_site_symmetry_multiplicity
 _atom_site_fract_x
 _atom_site_fract_y
 _atom_site_fract_z
 _atom_site_occupancy
  La  La0  1  0.91537608  0.27648843  0.22015743  1
  La  La1  1  0.72351157  0.63888765  0.22015743  1
  La  La2  1  0.27648843  0.36111235  0.72015743  1
  La  La3  1  0.08462392  0.72351157  0.72015743  1
  La  La4  1  0.36111235  0.08462392  0.22015743  1
  La  La5  1  0.63888765  0.91537608  0.72015743  1
  B  B0  1  0.00000000  0.00000000  0.87624173  1
  B  B1  1  0.00000000  0.00000000  0.37624173  1
  W  W0  1  0.66666700  0.33333300  0.75631119  1
  W  W1  1  0.33333300  0.66666700  0.25631119  1
  O  O0  1  0.37837171  0.85774993  0.47708194  1
  O  O1  1  0.47937822  0.62162829  0.47708194  1
  O  O2  1  0.12818731  0.17349899  0.36950699  1
  O  O3  1  0.52404073  0.72004463  0.05026900  1
  O  O4  1  0.17349899  0.04531168  0.86950699  1
  O  O5  1  0.87181269  0.82650101  0.86950699  1
  O  O6  1  0.27995537  0.80399610  0.05026900  1
  O  O7  1  0.19600390  0.47595927  0.05026900  1
  O  O8  1  0.85774993  0.47937822  0.97708194  1
  O  O9  1  0.95468832  0.12818731  0.86950699  1
  O  O10  1  0.72004463  0.19600390  0.55026900  1
  O  O11  1  0.04531168  0.87181269  0.36950699  1
  O  O12  1  0.62162829  0.14225007  0.97708194  1
  O  O13  1  0.82650101  0.95468832  0.36950699  1
  O  O14  1  0.80399610  0.52404073  0.55026900  1
  O  O15  1  0.47595927  0.27995537  0.55026900  1
  O  O16  1  0.52062178  0.37837171  0.97708194  1
  O  O17  1  0.14225007  0.52062178  0.47708194  1
loop_
_geom_bond_atom_site_label_1
_geom_bond_atom_site_label_2
_geom_bond_distance
_geom_bond_site_symmetry_2
La0 O10 2.386357 1_555
La0 O7 2.409122 1_655
La0 O9 2.484144 1_554
La0 O8 2.501259 1_554
La0 O17 2.536924 1_655
La0 O2 2.605830 1_655
La0 O12 2.633788 1_554
La0 O13 2.680440 1_545
La1 O14 2.386357 1_555
La1 O3 2.409122 1_555
La1 O5 2.484144 1_554
La1 O16 2.501259 1_554
La1 O1 2.536924 1_555
La1 O13 2.605830 1_555
La1 O8 2.633788 1_554
La1 O11 2.680440 1_655
La2 O7 2.386357 1_556
La2 O15 2.409122 1_555
La2 O2 2.484144 1_555
La2 O1 2.501259 1_555
La2 O16 2.536924 1_555
La2 O4 2.605830 1_555
La2 O17 2.633788 1_555
La2 O9 2.680440 1_455
La3 O6 2.386357 1_556
La3 O14 2.409122 1_455
La3 O11 2.484144 1_555
La3 O17 2.501259 1_555
La3 O8 2.536924 1_455
La3 O5 2.605830 1_455
La3 O0 2.633788 1_555
La3 O4 2.680440 1_565
La4 O15 2.386357 1_555
La4 O6 2.409122 1_545
La4 O4 2.484144 1_554
La4 O12 2.501259 1_554
La4 O0 2.536924 1_545
La4 O11 2.605830 1_545
La4 O16 2.633788 1_554
La4 O2 2.680440 1_555
La5 O3 2.386357 1_556
La5 O10 2.409122 1_565
La5 O13 2.484144 1_555
La5 O0 2.501259 1_555
La5 O12 2.536924 1_565
La5 O9 2.605830 1_565
La5 O1 2.633788 1_555
La5 O5 2.680440 1_555
B0 O5 1.379143 1_445
B0 O4 1.379143 1_555
B0 O9 1.379143 1_455
B1 O2 1.379143 1_555
B1 O13 1.379143 1_445
B1 O11 1.379143 1_545
O0 W1 1.969100 1_555
O1 W1 1.969106 1_555
O3 W1 1.899797 1_555
O6 W1 1.899790 1_555
O7 W1 1.899795 1_555
O8 W0 1.969102 1_555
O10 W0 1.899790 1_555
O12 W0 1.969100 1_555
O14 W0 1.899795 1_555
O15 W0 1.899797 1_555
O16 W0 1.969106 1_555
O17 W1 1.969102 1_555
