# generated using pymatgen
data_Fe2P2H4O9
_symmetry_space_group_name_H-M   'P 1'
_cell_length_a   14.36251600
_cell_length_b   6.53391200
_cell_length_c   9.39588865
_cell_angle_alpha   52.25326523
_cell_angle_beta   90.00000000
_cell_angle_gamma   90.00000000
_symmetry_Int_Tables_number   1
_chemical_formula_structural   Fe2P2H4O9
_chemical_formula_sum   'Fe8 P8 H16 O36'
_cell_volume   697.21519328
_cell_formula_units_Z   4
loop_
 _symmetry_equiv_pos_site_id
 _symmetry_equiv_pos_as_xyz
  1  'x, y, z'
loop_
 _atom_site_type_symbol
 _atom_site_label
 _atom_site_symmetry_multiplicity
 _atom_site_fract_x
 _atom_site_fract_y
 _atom_site_fract_z
 _atom_site_occupancy
  Fe  Fe0  1  0.61014000  0.81838700  0.91836000  1
  Fe  Fe1  1  0.11014000  0.18161300  0.58164000  1
  Fe  Fe2  1  0.38986000  0.18161300  0.08164000  1
  Fe  Fe3  1  0.88986000  0.81838700  0.41836000  1
  Fe  Fe4  1  0.24720900  0.70372300  0.34591300  1
  Fe  Fe5  1  0.74720900  0.29627700  0.15408700  1
  Fe  Fe6  1  0.75279100  0.29627700  0.65408700  1
  Fe  Fe7  1  0.25279100  0.70372300  0.84591300  1
  P  P0  1  0.41434100  0.61102500  0.14752600  1
  P  P1  1  0.91434100  0.38897500  0.35247400  1
  P  P2  1  0.58565900  0.38897500  0.85247400  1
  P  P3  1  0.08565900  0.61102500  0.64752600  1
  P  P4  1  0.31295200  0.14664300  0.42196500  1
  P  P5  1  0.81295200  0.85335700  0.07803500  1
  P  P6  1  0.68704800  0.85335700  0.57803500  1
  P  P7  1  0.18704800  0.14664300  0.92196500  1
  H  H0  1  0.44873100  0.97814900  0.68372300  1
  H  H1  1  0.94873100  0.02185100  0.81627700  1
  H  H2  1  0.55126900  0.02185100  0.31627700  1
  H  H3  1  0.05126900  0.97814900  0.18372300  1
  H  H4  1  0.47469700  0.16503400  0.72916100  1
  H  H5  1  0.97469700  0.83496600  0.77083900  1
  H  H6  1  0.52530300  0.83496600  0.27083900  1
  H  H7  1  0.02530300  0.16503400  0.22916100  1
  H  H8  1  0.39711300  0.63817800  0.53560900  1
  H  H9  1  0.89711300  0.36182200  0.96439100  1
  H  H10  1  0.60288700  0.36182200  0.46439100  1
  H  H11  1  0.10288700  0.63817800  0.03560900  1
  H  H12  1  0.32497300  0.44056800  0.68249800  1
  H  H13  1  0.82497300  0.55943200  0.81750200  1
  H  H14  1  0.67502700  0.55943200  0.31750200  1
  H  H15  1  0.17502700  0.44056800  0.18249800  1
  O  O0  1  0.51785500  0.67283500  0.12612600  1
  O  O1  1  0.01785500  0.32716500  0.37387400  1
  O  O2  1  0.48214500  0.32716500  0.87387400  1
  O  O3  1  0.98214500  0.67283500  0.62612600  1
  O  O4  1  0.35750600  0.80190500  0.15648300  1
  O  O5  1  0.85750600  0.19809500  0.34351700  1
  O  O6  1  0.64249400  0.19809500  0.84351700  1
  O  O7  1  0.14249400  0.80190500  0.65648300  1
  O  O8  1  0.37328600  0.57057900  0.01497500  1
  O  O9  1  0.87328600  0.42942100  0.48502500  1
  O  O10  1  0.62671400  0.42942100  0.98502500  1
  O  O11  1  0.12671400  0.57057900  0.51497500  1
  O  O12  1  0.40542300  0.32867600  0.34431600  1
  O  O13  1  0.90542300  0.67132400  0.15568400  1
  O  O14  1  0.59457700  0.67132400  0.65568400  1
  O  O15  1  0.09457700  0.32867600  0.84431600  1
  O  O16  1  0.23088600  0.32159700  0.39601800  1
  O  O17  1  0.73088600  0.67840300  0.10398200  1
  O  O18  1  0.76911400  0.67840300  0.60398200  1
  O  O19  1  0.26911400  0.32159700  0.89601800  1
  O  O20  1  0.29904000  0.05587400  0.30581600  1
  O  O21  1  0.79904000  0.94412600  0.19418400  1
  O  O22  1  0.70096000  0.94412600  0.69418400  1
  O  O23  1  0.20096000  0.05587400  0.80581600  1
  O  O24  1  0.33823400  0.93009600  0.61771500  1
  O  O25  1  0.83823400  0.06990400  0.88228500  1
  O  O26  1  0.66176600  0.06990400  0.38228500  1
  O  O27  1  0.16176600  0.93009600  0.11771500  1
  O  O28  1  0.50205900  0.04230500  0.71365100  1
  O  O29  1  0.00205900  0.95769500  0.78634900  1
  O  O30  1  0.49794100  0.95769500  0.28634900  1
  O  O31  1  0.99794100  0.04230500  0.21365100  1
  O  O32  1  0.34917100  0.51322600  0.56103900  1
  O  O33  1  0.84917100  0.48677400  0.93896100  1
  O  O34  1  0.65082900  0.48677400  0.43896100  1
  O  O35  1  0.15082900  0.51322600  0.06103900  1
loop_
_geom_bond_atom_site_label_1
_geom_bond_atom_site_label_2
_geom_bond_distance
_geom_bond_site_symmetry_2
Fe0 O0 2.049167 1_556
Fe0 O22 2.166647 1_555
Fe0 O6 2.174771 1_565
Fe0 O28 2.191889 1_565
Fe0 O17 2.220994 1_556
Fe0 O10 2.226887 1_555
Fe1 O1 2.049167 1_555
Fe1 O23 2.166647 1_555
Fe1 O7 2.174771 1_545
Fe1 O29 2.191889 1_545
Fe1 O16 2.220994 1_555
Fe1 O11 2.226887 1_555
Fe2 O2 2.049167 1_554
Fe2 O20 2.166647 1_555
Fe2 O4 2.174771 1_545
Fe2 O30 2.191889 1_545
Fe2 O19 2.220994 1_554
Fe2 O8 2.226887 1_555
Fe3 O3 2.049167 1_555
Fe3 O21 2.166647 1_555
Fe3 O5 2.174771 1_565
Fe3 O31 2.191889 1_565
Fe3 O18 2.220994 1_555
Fe3 O9 2.226887 1_555
Fe4 O27 2.099550 1_555
Fe4 O11 2.140840 1_555
Fe4 O4 2.165871 1_555
Fe4 O32 2.167751 1_555
Fe4 O20 2.220138 1_565
Fe4 O16 2.251967 1_555
Fe5 O26 2.099550 1_555
Fe5 O10 2.140840 1_554
Fe5 O5 2.165871 1_555
Fe5 O33 2.167751 1_554
Fe5 O21 2.220138 1_545
Fe5 O17 2.251967 1_555
Fe6 O25 2.099550 1_555
Fe6 O9 2.140840 1_555
Fe6 O6 2.165871 1_555
Fe6 O34 2.167751 1_555
Fe6 O22 2.220138 1_545
Fe6 O18 2.251967 1_555
Fe7 O24 2.099550 1_555
Fe7 O8 2.140840 1_556
Fe7 O7 2.165871 1_555
Fe7 O35 2.167751 1_556
Fe7 O23 2.220138 1_565
Fe7 O19 2.251967 1_555
H0 O28 0.992852 1_565
H1 O29 0.992852 1_645
H2 O30 0.992852 1_545
H3 O31 0.992852 1_465
H4 O28 0.980713 1_555
H5 O29 0.980713 1_655
H6 O30 0.980713 1_555
H7 O31 0.980713 1_455
H8 O32 0.979249 1_555
H9 O33 0.979249 1_555
H10 O34 0.979249 1_555
H11 O35 0.979249 1_555
H12 O32 0.992578 1_555
H13 O33 0.992578 1_555
H14 O34 0.992578 1_555
H15 O35 0.992578 1_555
O0 P0 1.521332 1_555
O1 P1 1.521332 1_455
O2 P2 1.521332 1_555
O3 P3 1.521332 1_655
O4 P0 1.535389 1_555
O5 P1 1.535389 1_555
O6 P2 1.535389 1_555
O7 P3 1.535389 1_555
O8 P0 1.540002 1_555
O9 P1 1.540002 1_555
O10 P2 1.540002 1_555
O11 P3 1.540002 1_555
O12 P4 1.627389 1_555
O12 P0 1.631655 1_555
O13 P5 1.627389 1_555
O13 P1 1.631655 1_555
O14 P6 1.627389 1_555
O14 P2 1.631655 1_555
O15 P7 1.627389 1_555
O15 P3 1.631655 1_555
O16 P4 1.553786 1_555
O17 P5 1.553786 1_555
O18 P6 1.553786 1_555
O19 P7 1.553786 1_555
O20 P4 1.541134 1_555
O21 P5 1.541134 1_555
O22 P6 1.541134 1_555
O23 P7 1.541134 1_555
O24 P4 1.526580 1_565
O25 P5 1.526580 1_546
O26 P6 1.526580 1_545
O27 P7 1.526580 1_564
