# generated using pymatgen
data_Rb3(FeSe2)2
_symmetry_space_group_name_H-M   'P 1'
_cell_length_a   7.73082191
_cell_length_b   11.53967210
_cell_length_c   12.55272797
_cell_angle_alpha   90.00000000
_cell_angle_beta   90.00000000
_cell_angle_gamma   90.00000000
_symmetry_Int_Tables_number   1
_chemical_formula_structural   Rb3(FeSe2)2
_chemical_formula_sum   'Rb12 Fe8 Se16'
_cell_volume   1119.84329665
_cell_formula_units_Z   4
loop_
 _symmetry_equiv_pos_site_id
 _symmetry_equiv_pos_as_xyz
  1  'x, y, z'
loop_
 _atom_site_type_symbol
 _atom_site_label
 _atom_site_symmetry_multiplicity
 _atom_site_fract_x
 _atom_site_fract_y
 _atom_site_fract_z
 _atom_site_occupancy
  Rb  Rb0  1  0.91022052  0.75000000  0.23204207  1
  Rb  Rb1  1  0.07616537  0.43249899  0.13608452  1
  Rb  Rb2  1  0.92383463  0.56750101  0.86391548  1
  Rb  Rb3  1  0.92383463  0.93249899  0.86391548  1
  Rb  Rb4  1  0.41022052  0.75000000  0.26795793  1
  Rb  Rb5  1  0.07616537  0.06750101  0.13608452  1
  Rb  Rb6  1  0.58977948  0.25000000  0.73204207  1
  Rb  Rb7  1  0.42383463  0.56750101  0.63608452  1
  Rb  Rb8  1  0.42383463  0.93249899  0.63608452  1
  Rb  Rb9  1  0.57616537  0.06750101  0.36391548  1
  Rb  Rb10  1  0.57616537  0.43249899  0.36391548  1
  Rb  Rb11  1  0.08977948  0.25000000  0.76795793  1
  Fe  Fe0  1  0.55202772  0.36662575  0.03037180  1
  Fe  Fe1  1  0.05202772  0.13337425  0.46962820  1
  Fe  Fe2  1  0.44797228  0.86662575  0.96962820  1
  Fe  Fe3  1  0.55202772  0.13337425  0.03037180  1
  Fe  Fe4  1  0.94797228  0.63337425  0.53037180  1
  Fe  Fe5  1  0.94797228  0.86662575  0.53037180  1
  Fe  Fe6  1  0.05202772  0.36662575  0.46962820  1
  Fe  Fe7  1  0.44797228  0.63337425  0.96962820  1
  Se  Se0  1  0.58528665  0.75000000  0.83396753  1
  Se  Se1  1  0.91471335  0.25000000  0.33396753  1
  Se  Se2  1  0.41471335  0.25000000  0.16603247  1
  Se  Se3  1  0.20253126  0.75000000  0.03092901  1
  Se  Se4  1  0.08528665  0.75000000  0.66603247  1
  Se  Se5  1  0.70253126  0.75000000  0.46907099  1
  Se  Se6  1  0.79746874  0.25000000  0.96907099  1
  Se  Se7  1  0.85360063  0.05625166  0.60566525  1
  Se  Se8  1  0.14639937  0.55625166  0.39433475  1
  Se  Se9  1  0.64639937  0.94374834  0.10566525  1
  Se  Se10  1  0.35360063  0.05625166  0.89433475  1
  Se  Se11  1  0.29746874  0.25000000  0.53092901  1
  Se  Se12  1  0.35360063  0.44374834  0.89433475  1
  Se  Se13  1  0.85360063  0.44374834  0.60566525  1
  Se  Se14  1  0.64639937  0.55625166  0.10566525  1
  Se  Se15  1  0.14639937  0.94374834  0.39433475  1
loop_
_geom_bond_atom_site_label_1
_geom_bond_atom_site_label_2
_geom_bond_distance
_geom_bond_site_symmetry_2
Rb0 Se5 3.380938 1_555
Rb0 Se3 3.388199 1_655
Rb0 Se14 3.416889 1_555
Rb0 Se9 3.416889 1_555
Rb0 Se8 3.533096 1_655
Rb0 Se15 3.533096 1_655
Rb1 Se2 3.380309 1_555
Rb1 Se1 3.487572 1_455
Rb1 Se8 3.583726 1_555
Rb1 Se14 3.636456 1_455
Rb1 Se6 3.670485 1_454
Rb1 Se12 3.718325 1_554
Rb1 Se3 4.015044 1_555
Rb2 Se0 3.380309 1_555
Rb2 Se4 3.487572 1_655
Rb2 Se13 3.583726 1_555
Rb2 Se12 3.636456 1_655
Rb2 Se3 3.670485 1_656
Rb2 Se14 3.718325 1_556
Rb2 Se6 4.015044 1_555
Rb3 Se0 3.380309 1_555
Rb3 Se4 3.487572 1_655
Rb3 Se7 3.583726 1_565
Rb3 Se10 3.636456 1_665
Rb3 Se3 3.670485 1_656
Rb3 Se9 3.718325 1_556
Rb3 Se6 4.015044 1_565
Rb4 Se3 3.380938 1_555
Rb4 Se5 3.388199 1_555
Rb4 Se8 3.416889 1_555
Rb4 Se15 3.416889 1_555
Rb4 Se14 3.533096 1_555
Rb4 Se9 3.533096 1_555
Rb5 Se2 3.380309 1_555
Rb5 Se1 3.487572 1_455
Rb5 Se15 3.583726 1_545
Rb5 Se9 3.636456 1_445
Rb5 Se6 3.670485 1_454
Rb5 Se10 3.718325 1_554
Rb5 Se3 4.015044 1_545
Rb6 Se6 3.380938 1_555
Rb6 Se11 3.388199 1_555
Rb6 Se7 3.416889 1_555
Rb6 Se13 3.416889 1_555
Rb6 Se10 3.533096 1_555
Rb6 Se12 3.533096 1_555
Rb7 Se4 3.380309 1_555
Rb7 Se0 3.487572 1_555
Rb7 Se12 3.583726 1_555
Rb7 Se13 3.636456 1_555
Rb7 Se5 3.670485 1_555
Rb7 Se8 3.718325 1_555
Rb7 Se11 4.015044 1_555
Rb8 Se4 3.380309 1_555
Rb8 Se0 3.487572 1_555
Rb8 Se10 3.583726 1_565
Rb8 Se7 3.636456 1_565
Rb8 Se5 3.670485 1_555
Rb8 Se15 3.718325 1_555
Rb8 Se11 4.015044 1_565
Rb9 Se1 3.380309 1_555
Rb9 Se2 3.487572 1_555
Rb9 Se9 3.583726 1_545
Rb9 Se15 3.636456 1_545
Rb9 Se11 3.670485 1_555
Rb9 Se7 3.718325 1_555
Rb9 Se5 4.015044 1_545
Rb10 Se1 3.380309 1_555
Rb10 Se2 3.487572 1_555
Rb10 Se14 3.583726 1_555
Rb10 Se8 3.636456 1_555
Rb10 Se11 3.670485 1_555
Rb10 Se13 3.718325 1_555
Rb10 Se5 4.015044 1_555
Rb11 Se11 3.380938 1_555
Rb11 Se6 3.388199 1_455
Rb11 Se10 3.416889 1_555
Rb11 Se12 3.416889 1_555
Rb11 Se7 3.533096 1_455
Rb11 Se13 3.533096 1_455
Fe0 Se2 2.416204 1_555
Fe0 Se6 2.450248 1_554
Fe0 Se12 2.461958 1_554
Fe0 Se14 2.492763 1_555
Fe1 Se1 2.416204 1_455
Fe1 Se11 2.450248 1_555
Fe1 Se7 2.461958 1_455
Fe1 Se15 2.492763 1_545
Fe2 Se0 2.416204 1_555
Fe2 Se3 2.450248 1_556
Fe2 Se9 2.461958 1_556
Fe2 Se10 2.492763 1_565
Fe3 Se2 2.416204 1_555
Fe3 Se6 2.450248 1_554
Fe3 Se10 2.461958 1_554
Fe3 Se9 2.492763 1_545
Fe4 Se4 2.416204 1_655
Fe4 Se5 2.450248 1_555
Fe4 Se8 2.461958 1_655
Fe4 Se13 2.492763 1_555
Fe5 Se4 2.416204 1_655
Fe5 Se5 2.450248 1_555
Fe5 Se15 2.461958 1_655
Fe5 Se7 2.492763 1_565
Fe6 Se1 2.416204 1_455
Fe6 Se11 2.450248 1_555
Fe6 Se13 2.461958 1_455
Fe6 Se8 2.492763 1_555
Fe7 Se0 2.416204 1_555
Fe7 Se3 2.450248 1_556
Fe7 Se14 2.461958 1_556
Fe7 Se12 2.492763 1_555
