# generated using pymatgen
data_La3B(CBr)2
_symmetry_space_group_name_H-M   'P 1'
_cell_length_a   3.99713600
_cell_length_b   11.53863700
_cell_length_c   15.48124100
_cell_angle_alpha   90.00000000
_cell_angle_beta   90.00000000
_cell_angle_gamma   90.00000000
_symmetry_Int_Tables_number   1
_chemical_formula_structural   La3B(CBr)2
_chemical_formula_sum   'La12 B4 C8 Br8'
_cell_volume   714.01807758
_cell_formula_units_Z   4
loop_
 _symmetry_equiv_pos_site_id
 _symmetry_equiv_pos_as_xyz
  1  'x, y, z'
loop_
 _atom_site_type_symbol
 _atom_site_label
 _atom_site_symmetry_multiplicity
 _atom_site_fract_x
 _atom_site_fract_y
 _atom_site_fract_z
 _atom_site_occupancy
  La  La0  1  0.75000000  0.30071100  0.66961000  1
  La  La1  1  0.25000000  0.80071100  0.83039000  1
  La  La2  1  0.75000000  0.94669900  0.66036600  1
  La  La3  1  0.25000000  0.44669900  0.83963400  1
  La  La4  1  0.25000000  0.05330100  0.33963400  1
  La  La5  1  0.25000000  0.87762200  0.13810500  1
  La  La6  1  0.25000000  0.62237800  0.63810500  1
  La  La7  1  0.75000000  0.12237800  0.86189500  1
  La  La8  1  0.25000000  0.69928900  0.33039000  1
  La  La9  1  0.75000000  0.37762200  0.36189500  1
  La  La10  1  0.75000000  0.55330100  0.16036600  1
  La  La11  1  0.75000000  0.19928900  0.16961000  1
  B  B0  1  0.75000000  0.62464800  0.75435000  1
  B  B1  1  0.25000000  0.12464800  0.74565000  1
  B  B2  1  0.25000000  0.37535200  0.24565000  1
  B  B3  1  0.75000000  0.87535200  0.25435000  1
  C  C0  1  0.75000000  0.75218100  0.22426500  1
  C  C1  1  0.75000000  0.00087100  0.23167700  1
  C  C2  1  0.75000000  0.49912900  0.73167700  1
  C  C3  1  0.25000000  0.25218100  0.27573500  1
  C  C4  1  0.75000000  0.74781900  0.72426500  1
  C  C5  1  0.25000000  0.99912900  0.76832300  1
  C  C6  1  0.25000000  0.24781900  0.77573500  1
  C  C7  1  0.25000000  0.50087100  0.26832300  1
  Br  Br0  1  0.25000000  0.38499200  0.52821100  1
  Br  Br1  1  0.75000000  0.13463200  0.48872700  1
  Br  Br2  1  0.25000000  0.86536800  0.51127300  1
  Br  Br3  1  0.75000000  0.61500800  0.47178900  1
  Br  Br4  1  0.75000000  0.88499200  0.97178900  1
  Br  Br5  1  0.25000000  0.63463200  0.01127300  1
  Br  Br6  1  0.25000000  0.11500800  0.02821100  1
  Br  Br7  1  0.75000000  0.36536800  0.98872700  1
loop_
_geom_bond_atom_site_label_1
_geom_bond_atom_site_label_2
_geom_bond_distance
_geom_bond_site_symmetry_2
B0 C2 1.490245 1_555
B0 C4 1.495596 1_555
B0 La6 2.689532 1_555
B0 La6 2.689532 1_655
B0 La1 3.083368 1_555
B0 La1 3.083368 1_655
B1 C5 1.490245 1_545
B1 C6 1.495596 1_555
B1 La7 2.689532 1_555
B1 La7 2.689532 1_455
B1 La0 3.083368 1_555
B1 La0 3.083368 1_455
B2 C7 1.490245 1_555
B2 C3 1.495596 1_555
B2 La9 2.689532 1_455
B2 La9 2.689532 1_555
B2 La11 3.083368 1_455
B2 La11 3.083368 1_555
B3 C1 1.490245 1_565
B3 C0 1.495596 1_555
B3 La5 2.689532 1_555
B3 La5 2.689532 1_655
B3 La8 3.083368 1_655
B3 La8 3.083368 1_555
C0 La10 2.498942 1_555
C0 La8 2.658198 1_655
C0 La8 2.658198 1_555
C0 La5 2.805082 1_655
C0 La5 2.805082 1_555
C1 La11 2.482935 1_555
C1 La4 2.674609 1_555
C1 La4 2.674609 1_655
C1 La5 2.848717 1_645
C1 La5 2.848717 1_545
C2 La0 2.482935 1_555
C2 La3 2.674609 1_555
C2 La3 2.674609 1_655
C2 La6 2.848717 1_655
C2 La6 2.848717 1_555
C3 La4 2.498942 1_555
C3 La11 2.658198 1_555
C3 La11 2.658198 1_455
C3 La9 2.805082 1_455
C3 La9 2.805082 1_555
C4 La2 2.498942 1_555
C4 La1 2.658198 1_655
C4 La1 2.658198 1_555
C4 La6 2.805082 1_555
C4 La6 2.805082 1_655
C5 La1 2.482935 1_555
C5 La2 2.674609 1_555
C5 La2 2.674609 1_455
C5 La7 2.848717 1_465
C5 La7 2.848717 1_565
C6 La3 2.498942 1_555
C6 La0 2.658198 1_455
C6 La0 2.658198 1_555
C6 La7 2.805082 1_455
C6 La7 2.805082 1_555
C7 La8 2.482935 1_555
C7 La10 2.674609 1_455
C7 La10 2.674609 1_555
C7 La9 2.848717 1_455
C7 La9 2.848717 1_555
Br0 La0 3.119594 1_455
Br0 La0 3.119594 1_555
Br0 La6 3.224459 1_555
Br0 La9 3.260520 1_555
Br0 La9 3.260520 1_455
Br1 La4 3.194134 1_555
Br1 La4 3.194134 1_655
Br1 La0 3.393220 1_555
Br1 La9 3.422944 1_555
Br1 La2 3.429720 1_545
Br2 La2 3.194134 1_455
Br2 La2 3.194134 1_555
Br2 La8 3.393220 1_555
Br2 La6 3.422944 1_555
Br2 La4 3.429720 1_565
Br3 La8 3.119594 1_555
Br3 La8 3.119594 1_655
Br3 La9 3.224459 1_555
Br3 La6 3.260520 1_555
Br3 La6 3.260520 1_655
Br4 La1 3.119594 1_555
Br4 La1 3.119594 1_655
Br4 La7 3.224459 1_565
Br4 La5 3.260520 1_556
Br4 La5 3.260520 1_656
Br5 La10 3.194134 1_455
Br5 La10 3.194134 1_555
Br5 La1 3.393220 1_554
Br5 La5 3.422944 1_555
Br5 La3 3.429720 1_554
Br6 La11 3.119594 1_455
Br6 La11 3.119594 1_555
Br6 La5 3.224459 1_545
Br6 La7 3.260520 1_454
Br6 La7 3.260520 1_554
Br7 La3 3.194134 1_655
Br7 La3 3.194134 1_555
Br7 La11 3.393220 1_556
Br7 La7 3.422944 1_555
Br7 La10 3.429720 1_556
