# generated using pymatgen
data_LaCoSb3
_symmetry_space_group_name_H-M   'P 1'
_cell_length_a   6.23094700
_cell_length_b   12.19955500
_cell_length_c   13.02169500
_cell_angle_alpha   90.00000000
_cell_angle_beta   90.00000000
_cell_angle_gamma   90.00000000
_symmetry_Int_Tables_number   1
_chemical_formula_structural   LaCoSb3
_chemical_formula_sum   'La8 Co8 Sb24'
_cell_volume   989.84128884
_cell_formula_units_Z   8
loop_
 _symmetry_equiv_pos_site_id
 _symmetry_equiv_pos_as_xyz
  1  'x, y, z'
loop_
 _atom_site_type_symbol
 _atom_site_label
 _atom_site_symmetry_multiplicity
 _atom_site_fract_x
 _atom_site_fract_y
 _atom_site_fract_z
 _atom_site_occupancy
  La  La0  1  0.72760300  0.25000000  0.69768500  1
  La  La1  1  0.75000000  0.00000000  0.29870600  1
  La  La2  1  0.25000000  0.00000000  0.70129400  1
  La  La3  1  0.25000000  0.50000000  0.70129400  1
  La  La4  1  0.75000000  0.50000000  0.29870600  1
  La  La5  1  0.22760300  0.25000000  0.30231500  1
  La  La6  1  0.77239700  0.75000000  0.69768500  1
  La  La7  1  0.27239700  0.75000000  0.30231500  1
  Co  Co0  1  0.53837800  0.86371400  0.90423600  1
  Co  Co1  1  0.96162200  0.13628600  0.90423600  1
  Co  Co2  1  0.96162200  0.36371400  0.90423600  1
  Co  Co3  1  0.03837800  0.63628600  0.09576400  1
  Co  Co4  1  0.03837800  0.86371400  0.09576400  1
  Co  Co5  1  0.53837800  0.63628600  0.90423600  1
  Co  Co6  1  0.46162200  0.36371400  0.09576400  1
  Co  Co7  1  0.46162200  0.13628600  0.09576400  1
  Sb  Sb0  1  0.75000000  0.00000000  0.02722200  1
  Sb  Sb1  1  0.25000000  0.00000000  0.97277800  1
  Sb  Sb2  1  0.88520400  0.75000000  0.94496100  1
  Sb  Sb3  1  0.75000000  0.00000000  0.78587400  1
  Sb  Sb4  1  0.48881600  0.37601900  0.49787800  1
  Sb  Sb5  1  0.38520400  0.75000000  0.05503900  1
  Sb  Sb6  1  0.25000000  0.00000000  0.21412600  1
  Sb  Sb7  1  0.98881600  0.37601900  0.50212200  1
  Sb  Sb8  1  0.51118400  0.62398100  0.50212200  1
  Sb  Sb9  1  0.75000000  0.50000000  0.78587400  1
  Sb  Sb10  1  0.98881600  0.12398100  0.50212200  1
  Sb  Sb11  1  0.23213700  0.25000000  0.79179500  1
  Sb  Sb12  1  0.25000000  0.50000000  0.97277800  1
  Sb  Sb13  1  0.11479600  0.25000000  0.05503900  1
  Sb  Sb14  1  0.01118400  0.87601900  0.49787800  1
  Sb  Sb15  1  0.73213700  0.25000000  0.20820500  1
  Sb  Sb16  1  0.61479600  0.25000000  0.94496100  1
  Sb  Sb17  1  0.76786300  0.75000000  0.20820500  1
  Sb  Sb18  1  0.26786300  0.75000000  0.79179500  1
  Sb  Sb19  1  0.75000000  0.50000000  0.02722200  1
  Sb  Sb20  1  0.48881600  0.12398100  0.49787800  1
  Sb  Sb21  1  0.25000000  0.50000000  0.21412600  1
  Sb  Sb22  1  0.01118400  0.62398100  0.49787800  1
  Sb  Sb23  1  0.51118400  0.87601900  0.50212200  1
loop_
_geom_bond_atom_site_label_1
_geom_bond_atom_site_label_2
_geom_bond_distance
_geom_bond_site_symmetry_2
La0 Sb9 3.261909 1_555
La0 Sb3 3.261909 1_555
La0 Sb16 3.295778 1_555
La0 Sb11 3.321554 1_555
La0 Sb20 3.368498 1_555
La0 Sb4 3.368498 1_555
La0 Sb11 3.374135 1_655
La0 Sb10 3.390811 1_555
La0 Sb7 3.390811 1_555
La1 Sb17 3.271547 1_545
La1 Sb15 3.271547 1_555
La1 Sb6 3.304422 1_555
La1 Sb6 3.304422 1_655
La1 Sb10 3.393853 1_555
La1 Sb23 3.393853 1_545
La1 Sb20 3.415076 1_555
La1 Sb14 3.415076 1_645
La1 Sb0 3.535182 1_555
La2 Sb11 3.271547 1_555
La2 Sb18 3.271547 1_545
La2 Sb3 3.304422 1_455
La2 Sb3 3.304422 1_555
La2 Sb20 3.393853 1_555
La2 Sb14 3.393853 1_545
La2 Sb10 3.415076 1_455
La2 Sb23 3.415076 1_545
La2 Sb1 3.535182 1_555
La3 Sb18 3.271547 1_555
La3 Sb11 3.271547 1_555
La3 Sb9 3.304422 1_455
La3 Sb9 3.304422 1_555
La3 Sb22 3.393853 1_555
La3 Sb4 3.393853 1_555
La3 Sb8 3.415076 1_555
La3 Sb7 3.415076 1_455
La3 Sb12 3.535182 1_555
La4 Sb17 3.271547 1_555
La4 Sb15 3.271547 1_555
La4 Sb21 3.304422 1_555
La4 Sb21 3.304422 1_655
La4 Sb7 3.393853 1_555
La4 Sb8 3.393853 1_555
La4 Sb22 3.415076 1_655
La4 Sb4 3.415076 1_555
La4 Sb19 3.535182 1_555
La5 Sb21 3.261909 1_555
La5 Sb6 3.261909 1_555
La5 Sb13 3.295778 1_555
La5 Sb15 3.321554 1_455
La5 Sb10 3.368498 1_455
La5 Sb7 3.368498 1_455
La5 Sb15 3.374135 1_555
La5 Sb4 3.390811 1_555
La5 Sb20 3.390811 1_555
La6 Sb9 3.261909 1_555
La6 Sb3 3.261909 1_565
La6 Sb2 3.295778 1_555
La6 Sb18 3.321554 1_655
La6 Sb14 3.368498 1_655
La6 Sb22 3.368498 1_655
La6 Sb18 3.374135 1_555
La6 Sb23 3.390811 1_555
La6 Sb8 3.390811 1_555
La7 Sb6 3.261909 1_565
La7 Sb21 3.261909 1_555
La7 Sb5 3.295778 1_555
La7 Sb17 3.321554 1_555
La7 Sb8 3.368498 1_555
La7 Sb23 3.368498 1_555
La7 Sb17 3.374135 1_455
La7 Sb22 3.390811 1_555
La7 Sb14 3.390811 1_555
Co0 Sb5 2.586806 1_556
Co0 Sb1 2.605702 1_565
Co0 Sb2 2.622189 1_555
Co0 Sb3 2.622705 1_565
Co0 Sb18 2.628578 1_555
Co0 Sb0 2.658536 1_566
Co0 La6 3.359302 1_555
Co0 La2 3.602313 1_565
Co1 Sb13 2.586806 1_656
Co1 Sb1 2.605702 1_655
Co1 Sb16 2.622189 1_555
Co1 Sb3 2.622705 1_555
Co1 Sb11 2.628578 1_655
Co1 Sb0 2.658536 1_556
Co1 La0 3.359302 1_555
Co1 La2 3.602313 1_655
Co2 Sb13 2.586806 1_656
Co2 Sb12 2.605702 1_655
Co2 Sb16 2.622189 1_555
Co2 Sb9 2.622705 1_555
Co2 Sb11 2.628578 1_655
Co2 Sb19 2.658536 1_556
Co2 La0 3.359302 1_555
Co2 La3 3.602313 1_655
Co3 Sb2 2.586806 1_454
Co3 Sb19 2.605702 1_455
Co3 Sb5 2.622189 1_555
Co3 Sb21 2.622705 1_555
Co3 Sb17 2.628578 1_455
Co3 Sb12 2.658536 1_554
Co3 La7 3.359302 1_555
Co3 La4 3.602313 1_455
Co4 Sb2 2.586806 1_454
Co4 Sb0 2.605702 1_465
Co4 Sb5 2.622189 1_555
Co4 Sb6 2.622705 1_565
Co4 Sb17 2.628578 1_455
Co4 Sb1 2.658536 1_564
Co4 La7 3.359302 1_555
Co4 La1 3.602313 1_465
Co5 Sb5 2.586806 1_556
Co5 Sb12 2.605702 1_555
Co5 Sb2 2.622189 1_555
Co5 Sb9 2.622705 1_555
Co5 Sb18 2.628578 1_555
Co5 Sb19 2.658536 1_556
Co5 La6 3.359302 1_555
Co5 La3 3.602313 1_555
Co6 Sb16 2.586806 1_554
Co6 Sb19 2.605702 1_555
Co6 Sb13 2.622189 1_555
Co6 Sb21 2.622705 1_555
Co6 Sb15 2.628578 1_555
Co6 Sb12 2.658536 1_554
Co6 La5 3.359302 1_555
Co6 La4 3.602313 1_555
Co7 Sb16 2.586806 1_554
Co7 Sb0 2.605702 1_555
Co7 Sb13 2.622189 1_555
Co7 Sb6 2.622705 1_555
Co7 Sb15 2.628578 1_555
Co7 Sb1 2.658536 1_554
Co7 La5 3.359302 1_555
Co7 La1 3.602313 1_555
Sb4 Sb8 3.028739 1_555
Sb4 Sb7 3.115964 1_455
Sb4 Sb7 3.115964 1_555
Sb10 Sb14 3.028739 1_645
Sb10 Sb7 3.074751 1_555
Sb10 Sb20 3.115964 1_655
Sb10 Sb20 3.115964 1_555
Sb11 Sb16 3.108532 1_555
Sb13 Sb15 3.108532 1_455
Sb14 Sb22 3.074751 1_555
Sb14 Sb23 3.115964 1_455
Sb14 Sb23 3.115964 1_555
Sb17 Sb5 3.108532 1_555
Sb18 Sb2 3.108532 1_455
Sb20 Sb23 3.028739 1_545
Sb20 Sb4 3.074751 1_555
Sb22 Sb7 3.028739 1_455
Sb22 Sb8 3.115964 1_555
Sb22 Sb8 3.115964 1_455
Sb23 Sb8 3.074751 1_555
