# generated using pymatgen
data_HoPH5CO7
_symmetry_space_group_name_H-M   'P 1'
_cell_length_a   6.50756000
_cell_length_b   6.90756642
_cell_length_c   7.75747793
_cell_angle_alpha   111.87905679
_cell_angle_beta   96.33683186
_cell_angle_gamma   90.67786212
_symmetry_Int_Tables_number   1
_chemical_formula_structural   HoPH5CO7
_chemical_formula_sum   'Ho2 P2 H10 C2 O14'
_cell_volume   321.08508743
_cell_formula_units_Z   2
loop_
 _symmetry_equiv_pos_site_id
 _symmetry_equiv_pos_as_xyz
  1  'x, y, z'
loop_
 _atom_site_type_symbol
 _atom_site_label
 _atom_site_symmetry_multiplicity
 _atom_site_fract_x
 _atom_site_fract_y
 _atom_site_fract_z
 _atom_site_occupancy
  Ho  Ho0  1  0.87597200  0.77929000  0.06634300  1
  Ho  Ho1  1  0.12402800  0.22071000  0.93365700  1
  P  P0  1  0.67182800  0.25141900  0.01995700  1
  P  P1  1  0.32817200  0.74858100  0.98004300  1
  H  H0  1  0.48370600  0.88391100  0.59372200  1
  H  H1  1  0.72187400  0.67717800  0.65257300  1
  H  H2  1  0.52486100  0.74091700  0.39265100  1
  H  H3  1  0.51629400  0.11608900  0.40627800  1
  H  H4  1  0.27812600  0.32282200  0.34742700  1
  H  H5  1  0.83741600  0.47987100  0.68280600  1
  H  H6  1  0.47513900  0.25908300  0.60734900  1
  H  H7  1  0.62689000  0.29415000  0.20310900  1
  H  H8  1  0.16258400  0.52012900  0.31719400  1
  H  H9  1  0.37311000  0.70585000  0.79689100  1
  C  C0  1  0.05836900  0.90527300  0.50251500  1
  C  C1  1  0.94163100  0.09472700  0.49748500  1
  O  O0  1  0.85013500  0.08342400  0.34196800  1
  O  O1  1  0.46644400  0.22093400  0.89401500  1
  O  O2  1  0.41077800  0.19857900  0.47726000  1
  O  O3  1  0.81968200  0.43046200  0.02448300  1
  O  O4  1  0.05286200  0.75207200  0.34674700  1
  O  O5  1  0.80487600  0.05670400  0.96231600  1
  O  O6  1  0.53355600  0.77906600  0.10598500  1
  O  O7  1  0.58922200  0.80142100  0.52274000  1
  O  O8  1  0.94713800  0.24792800  0.65325300  1
  O  O9  1  0.14986500  0.91657600  0.65803200  1
  O  O10  1  0.78645700  0.62137100  0.74557200  1
  O  O11  1  0.19512400  0.94329600  0.03768400  1
  O  O12  1  0.18031800  0.56953800  0.97551700  1
  O  O13  1  0.21354300  0.37862900  0.25442800  1
loop_
_geom_bond_atom_site_label_1
_geom_bond_atom_site_label_2
_geom_bond_distance
_geom_bond_site_symmetry_2
Ho0 O6 2.282849 1_555
Ho0 O10 2.315860 1_554
Ho0 O3 2.327074 1_555
Ho0 O5 2.372425 1_564
Ho0 O0 2.398618 1_565
Ho0 O4 2.418518 1_655
Ho0 O11 2.424940 1_655
Ho0 O12 2.476561 1_654
Ho1 O1 2.282849 1_555
Ho1 O13 2.315860 1_556
Ho1 O12 2.327074 1_555
Ho1 O11 2.372425 1_546
Ho1 O9 2.398618 1_545
Ho1 O8 2.418518 1_455
Ho1 O5 2.424940 1_455
Ho1 O3 2.476561 1_456
H0 O7 0.978904 1_555
H1 O10 0.994929 1_555
H2 O7 0.978118 1_555
H3 O2 0.978904 1_555
H4 O13 0.994929 1_555
H5 O10 0.995498 1_555
H5 O8 1.708438 1_555
H6 O2 0.978118 1_555
H7 P0 1.404462 1_555
H8 O13 0.995498 1_555
H8 O4 1.708438 1_555
H9 P1 1.404462 1_555
C0 O9 1.259443 1_555
C0 O4 1.271933 1_555
C1 O0 1.259443 1_555
C1 O8 1.271933 1_555
O1 P0 1.528718 1_556
O3 P0 1.545503 1_555
O5 P0 1.556730 1_556
O6 P1 1.528718 1_554
O11 P1 1.556730 1_554
O12 P1 1.545503 1_555
