# generated using pymatgen
data_InSeI
_symmetry_space_group_name_H-M   'P 1'
_cell_length_a   14.63527098
_cell_length_b   14.63527098
_cell_length_c   14.63527098
_cell_angle_alpha   97.24963831
_cell_angle_beta   97.24963831
_cell_angle_gamma   138.38416632
_symmetry_Int_Tables_number   1
_chemical_formula_structural   InSeI
_chemical_formula_sum   'In16 Se16 I16'
_cell_volume   1946.09973150
_cell_formula_units_Z   16
loop_
 _symmetry_equiv_pos_site_id
 _symmetry_equiv_pos_as_xyz
  1  'x, y, z'
loop_
 _atom_site_type_symbol
 _atom_site_label
 _atom_site_symmetry_multiplicity
 _atom_site_fract_x
 _atom_site_fract_y
 _atom_site_fract_z
 _atom_site_occupancy
  In  In0  1  0.26001400  0.83546700  0.85940200  1
  In  In1  1  0.65061200  0.01001400  0.92454700  1
  In  In2  1  0.08546700  0.72606500  0.07545300  1
  In  In3  1  0.97606500  0.40061200  0.14059800  1
  In  In4  1  0.98998600  0.91453300  0.64059800  1
  In  In5  1  0.59938800  0.73998600  0.57545300  1
  In  In6  1  0.16453300  0.02393500  0.42454700  1
  In  In7  1  0.27393500  0.34938800  0.35940200  1
  In  In8  1  0.94635600  0.39888000  0.85101700  1
  In  In9  1  0.34534000  0.69635600  0.04747600  1
  In  In10  1  0.64888000  0.29786400  0.95252400  1
  In  In11  1  0.54786400  0.09534000  0.14898300  1
  In  In12  1  0.30364400  0.35112000  0.64898300  1
  In  In13  1  0.90466000  0.05364400  0.45252400  1
  In  In14  1  0.60112000  0.45213600  0.54747600  1
  In  In15  1  0.70213600  0.65466000  0.35101700  1
  Se  Se0  1  0.00084800  0.62278300  0.88195300  1
  Se  Se1  1  0.36889600  0.75084800  0.87806600  1
  Se  Se2  1  0.87278300  0.49083000  0.12193400  1
  Se  Se3  1  0.74083000  0.11889600  0.11804700  1
  Se  Se4  1  0.24915200  0.12721700  0.61804700  1
  Se  Se5  1  0.88110400  0.99915200  0.62193400  1
  Se  Se6  1  0.37721700  0.25917000  0.37806600  1
  Se  Se7  1  0.50917000  0.63110400  0.38195300  1
  Se  Se8  1  0.41351300  0.08509500  0.00002100  1
  Se  Se9  1  0.66349200  0.16351300  0.82841900  1
  Se  Se10  1  0.33509500  0.83507400  0.17158100  1
  Se  Se11  1  0.08507400  0.41349200  0.99997900  1
  Se  Se12  1  0.83648700  0.66490500  0.49997900  1
  Se  Se13  1  0.58650800  0.58648700  0.67158100  1
  Se  Se14  1  0.91490500  0.91492600  0.32841900  1
  Se  Se15  1  0.16492600  0.33650800  0.50002100  1
  I  I0  1  0.22660100  0.84321100  0.67480300  1
  I  I1  1  0.80179800  0.97660100  0.88339000  1
  I  I2  1  0.09321100  0.91840800  0.11661000  1
  I  I3  1  0.16840800  0.55179800  0.32519700  1
  I  I4  1  0.02339900  0.90678900  0.82519700  1
  I  I5  1  0.44820200  0.77339900  0.61661000  1
  I  I6  1  0.15678900  0.83159200  0.38339000  1
  I  I7  1  0.08159200  0.19820200  0.17480300  1
  I  I8  1  0.97181900  0.35840300  0.67460500  1
  I  I9  1  0.54721500  0.72181900  0.11341600  1
  I  I10  1  0.60840300  0.43379900  0.88658400  1
  I  I11  1  0.68379900  0.29721500  0.32539500  1
  I  I12  1  0.27818100  0.39159700  0.82539500  1
  I  I13  1  0.70278500  0.02818100  0.38658400  1
  I  I14  1  0.64159700  0.31620100  0.61341600  1
  I  I15  1  0.56620100  0.45278500  0.17460500  1
loop_
_geom_bond_atom_site_label_1
_geom_bond_atom_site_label_2
_geom_bond_distance
_geom_bond_site_symmetry_2
In0 Se1 2.659676 1_555
In0 Se0 2.665785 1_555
In0 Se8 2.700557 1_566
In1 Se3 2.659662 1_556
In1 Se1 2.665780 1_545
In1 Se9 2.700548 1_555
In2 Se0 2.659661 1_554
In2 Se2 2.665776 1_455
In2 Se10 2.700553 1_555
In3 Se2 2.659662 1_555
In3 Se3 2.665776 1_555
In3 Se11 2.700557 1_654
In4 Se5 2.659676 1_555
In4 Se4 2.665785 1_665
In4 Se12 2.700557 1_555
In5 Se7 2.659662 1_555
In5 Se5 2.665780 1_555
In5 Se13 2.700548 1_555
In6 Se4 2.659661 1_555
In6 Se6 2.665776 1_555
In6 Se14 2.700553 1_445
In7 Se6 2.659662 1_555
In7 Se7 2.665776 1_555
In7 Se15 2.700557 1_555
In8 Se11 2.652602 1_655
In8 Se9 2.675374 1_555
In8 Se0 2.684371 1_655
In9 Se10 2.652604 1_555
In9 Se11 2.675374 1_554
In9 Se1 2.684357 1_554
In10 Se9 2.652604 1_555
In10 Se8 2.675374 1_556
In10 Se2 2.684362 1_556
In11 Se8 2.652602 1_555
In11 Se10 2.675374 1_545
In11 Se3 2.684357 1_555
In12 Se15 2.652602 1_555
In12 Se13 2.675374 1_555
In12 Se4 2.684371 1_555
In13 Se14 2.652604 1_545
In13 Se15 2.675374 1_655
In13 Se5 2.684357 1_545
In14 Se13 2.652604 1_555
In14 Se12 2.675374 1_555
In14 Se6 2.684362 1_555
In15 Se12 2.652602 1_555
In15 Se14 2.675374 1_555
In15 Se7 2.684357 1_555
I0 In0 2.716180 1_555
I1 In1 2.716180 1_565
I2 In2 2.716180 1_555
I3 In3 2.716180 1_455
I4 In4 2.716180 1_455
I5 In5 2.716180 1_555
I6 In6 2.716180 1_565
I7 In7 2.716180 1_555
I8 In8 2.709721 1_555
I9 In9 2.709721 1_555
I10 In10 2.709721 1_555
I11 In11 2.709721 1_555
I12 In12 2.709721 1_555
I13 In13 2.709721 1_555
I14 In14 2.709721 1_555
I15 In15 2.709721 1_555
