# generated using pymatgen
data_NaGe4(PO4)3
_symmetry_space_group_name_H-M   'P 1'
_cell_length_a   9.78453162
_cell_length_b   9.78453162
_cell_length_c   9.78453176
_cell_angle_alpha   59.12625257
_cell_angle_beta   59.12625257
_cell_angle_gamma   59.12625801
_symmetry_Int_Tables_number   1
_chemical_formula_structural   NaGe4(PO4)3
_chemical_formula_sum   'Na2 Ge8 P6 O24'
_cell_volume   649.18507116
_cell_formula_units_Z   2
loop_
 _symmetry_equiv_pos_site_id
 _symmetry_equiv_pos_as_xyz
  1  'x, y, z'
loop_
 _atom_site_type_symbol
 _atom_site_label
 _atom_site_symmetry_multiplicity
 _atom_site_fract_x
 _atom_site_fract_y
 _atom_site_fract_z
 _atom_site_occupancy
  Na  Na0  1  0.78435000  0.78435000  0.78435000  1
  Na  Na1  1  0.28435000  0.28435000  0.28435000  1
  Ge  Ge0  1  0.92509500  0.92509500  0.92509500  1
  Ge  Ge1  1  0.48296100  0.84063600  0.36942300  1
  Ge  Ge2  1  0.86942300  0.34063600  0.98296100  1
  Ge  Ge3  1  0.42509500  0.42509500  0.42509500  1
  Ge  Ge4  1  0.34063600  0.98296100  0.86942300  1
  Ge  Ge5  1  0.84063600  0.36942300  0.48296100  1
  Ge  Ge6  1  0.98296100  0.86942300  0.34063600  1
  Ge  Ge7  1  0.36942300  0.48296100  0.84063600  1
  P  P0  1  0.02694700  0.48051700  0.56798400  1
  P  P1  1  0.56798400  0.02694700  0.48051700  1
  P  P2  1  0.52694700  0.06798400  0.98051700  1
  P  P3  1  0.48051700  0.56798400  0.02694700  1
  P  P4  1  0.98051700  0.52694700  0.06798400  1
  P  P5  1  0.06798400  0.98051700  0.52694700  1
  O  O0  1  0.66324000  0.54662500  0.99162400  1
  O  O1  1  0.71662400  0.04443600  0.87120900  1
  O  O2  1  0.39594700  0.74522500  0.91566500  1
  O  O3  1  0.54662500  0.99162400  0.66324000  1
  O  O4  1  0.41566500  0.24522500  0.89594700  1
  O  O5  1  0.37120900  0.54443600  0.21662400  1
  O  O6  1  0.48285200  0.93155900  0.98749600  1
  O  O7  1  0.04662500  0.16324000  0.49162400  1
  O  O8  1  0.89594700  0.41566500  0.24522500  1
  O  O9  1  0.93155900  0.98749600  0.48285200  1
  O  O10  1  0.16324000  0.49162400  0.04662500  1
  O  O11  1  0.91566500  0.39594700  0.74522500  1
  O  O12  1  0.48749600  0.43155900  0.98285200  1
  O  O13  1  0.74522500  0.91566500  0.39594700  1
  O  O14  1  0.54443600  0.21662400  0.37120900  1
  O  O15  1  0.24522500  0.89594700  0.41566500  1
  O  O16  1  0.99162400  0.66324000  0.54662500  1
  O  O17  1  0.21662400  0.37120900  0.54443600  1
  O  O18  1  0.98285200  0.48749600  0.43155900  1
  O  O19  1  0.04443600  0.87120900  0.71662400  1
  O  O20  1  0.43155900  0.98285200  0.48749600  1
  O  O21  1  0.98749600  0.48285200  0.93155900  1
  O  O22  1  0.87120900  0.71662400  0.04443600  1
  O  O23  1  0.49162400  0.04662500  0.16324000  1
loop_
_geom_bond_atom_site_label_1
_geom_bond_atom_site_label_2
_geom_bond_distance
_geom_bond_site_symmetry_2
Na0 O0 2.539426 1_555
Na0 O16 2.539426 1_555
Na0 O3 2.539426 1_555
Na0 O9 2.699575 1_555
Na0 O6 2.699575 1_555
Na0 O21 2.699576 1_555
Na0 O19 2.747447 1_655
Na0 O22 2.747447 1_556
Na0 O1 2.747447 1_565
Na1 O7 2.539426 1_555
Na1 O10 2.539426 1_555
Na1 O23 2.539426 1_555
Na1 O12 2.699575 1_554
Na1 O20 2.699575 1_545
Na1 O18 2.699576 1_455
Na1 O5 2.747447 1_555
Na1 O17 2.747447 1_555
Na1 O14 2.747447 1_555
Ge0 O22 1.956953 1_556
Ge0 O19 1.956954 1_655
Ge0 O1 1.956954 1_565
Ge1 O15 1.946195 1_555
Ge1 O20 1.964500 1_555
Ge1 O23 1.991530 1_565
Ge2 O11 1.946195 1_555
Ge2 O21 1.964499 1_555
Ge2 O0 1.991530 1_555
Ge3 O17 1.956953 1_555
Ge3 O5 1.956954 1_555
Ge3 O14 1.956954 1_555
Ge4 O2 1.946195 1_555
Ge4 O6 1.964500 1_555
Ge4 O3 1.991530 1_555
Ge5 O8 1.946195 1_555
Ge5 O18 1.964499 1_555
Ge5 O7 1.991530 1_655
Ge6 O13 1.946195 1_555
Ge6 O9 1.964500 1_555
Ge6 O16 1.991530 1_555
Ge7 O4 1.946195 1_555
Ge7 O12 1.964500 1_555
Ge7 O10 1.991530 1_556
O0 P3 1.554370 1_556
O1 P2 1.555076 1_555
O2 P3 1.546542 1_556
O3 P1 1.554370 1_565
O4 P2 1.546542 1_555
O5 P3 1.555076 1_555
O6 P2 1.562027 1_565
O7 P5 1.554370 1_545
O8 P4 1.546542 1_555
O9 P5 1.562027 1_655
O10 P4 1.554370 1_455
O11 P0 1.546542 1_655
O12 P3 1.562027 1_556
O13 P1 1.546542 1_565
O14 P1 1.555076 1_555
O15 P5 1.546542 1_555
O16 P0 1.554370 1_655
O17 P0 1.555076 1_555
O18 P0 1.562027 1_655
O19 P5 1.555076 1_555
O20 P1 1.562027 1_565
O21 P4 1.562027 1_556
O22 P4 1.555076 1_555
O23 P2 1.554370 1_554
