# generated using pymatgen
data_Ba(RuO2)6
_symmetry_space_group_name_H-M   'P 1'
_cell_length_a   9.96700000
_cell_length_b   9.96700000
_cell_length_c   9.50200300
_cell_angle_alpha   90.00000000
_cell_angle_beta   90.00000000
_cell_angle_gamma   90.00000000
_symmetry_Int_Tables_number   1
_chemical_formula_structural   Ba(RuO2)6
_chemical_formula_sum   'Ba4 Ru24 O48'
_cell_volume   943.93932570
_cell_formula_units_Z   4
loop_
 _symmetry_equiv_pos_site_id
 _symmetry_equiv_pos_as_xyz
  1  'x, y, z'
loop_
 _atom_site_type_symbol
 _atom_site_label
 _atom_site_symmetry_multiplicity
 _atom_site_fract_x
 _atom_site_fract_y
 _atom_site_fract_z
 _atom_site_occupancy
  Ba  Ba0  1  0.00000000  0.50000000  0.87501700  1
  Ba  Ba1  1  0.50000000  0.00000000  0.70471000  1
  Ba  Ba2  1  0.00000000  0.50000000  0.29529000  1
  Ba  Ba3  1  0.50000000  0.00000000  0.12498300  1
  Ru  Ru0  1  0.16858600  0.85406800  0.41697100  1
  Ru  Ru1  1  0.85277900  0.83358700  0.24912900  1
  Ru  Ru2  1  0.83139200  0.15335500  0.08120200  1
  Ru  Ru3  1  0.14722100  0.16641300  0.24912900  1
  Ru  Ru4  1  0.66858600  0.35406800  0.58302900  1
  Ru  Ru5  1  0.66641300  0.35277900  0.24912900  1
  Ru  Ru6  1  0.35277900  0.33358700  0.75087100  1
  Ru  Ru7  1  0.65335500  0.66860800  0.08120200  1
  Ru  Ru8  1  0.15335500  0.16860800  0.91879800  1
  Ru  Ru9  1  0.14593200  0.16858600  0.58302900  1
  Ru  Ru10  1  0.33139200  0.65335500  0.91879800  1
  Ru  Ru11  1  0.83141400  0.14593200  0.41697100  1
  Ru  Ru12  1  0.16641300  0.85277900  0.75087100  1
  Ru  Ru13  1  0.33141400  0.64593200  0.58302900  1
  Ru  Ru14  1  0.16860800  0.84664500  0.08120200  1
  Ru  Ru15  1  0.35406800  0.33141400  0.41697100  1
  Ru  Ru16  1  0.64593200  0.66858600  0.41697100  1
  Ru  Ru17  1  0.83358700  0.14722100  0.75087100  1
  Ru  Ru18  1  0.66860800  0.34664500  0.91879800  1
  Ru  Ru19  1  0.64722100  0.66641300  0.75087100  1
  Ru  Ru20  1  0.33358700  0.64722100  0.24912900  1
  Ru  Ru21  1  0.34664500  0.33139200  0.08120200  1
  Ru  Ru22  1  0.85406800  0.83141400  0.58302900  1
  Ru  Ru23  1  0.84664500  0.83139200  0.91879800  1
  O  O0  1  0.65872300  0.54796700  0.24956200  1
  O  O1  1  0.85883600  0.69318400  0.08441900  1
  O  O2  1  0.45203300  0.65872300  0.75043800  1
  O  O3  1  0.69939700  0.14969100  0.58457700  1
  O  O4  1  0.66036900  0.54375600  0.91635800  1
  O  O5  1  0.14969100  0.30060300  0.41542300  1
  O  O6  1  0.16036900  0.04375600  0.08364200  1
  O  O7  1  0.15602400  0.04787800  0.41646800  1
  O  O8  1  0.69883800  0.14976800  0.24926900  1
  O  O9  1  0.19939700  0.64969100  0.41542300  1
  O  O10  1  0.34127700  0.45203300  0.24956200  1
  O  O11  1  0.64969100  0.80060300  0.58457700  1
  O  O12  1  0.45624400  0.66036900  0.08364200  1
  O  O13  1  0.84397600  0.95212200  0.41646800  1
  O  O14  1  0.19883800  0.64976800  0.75073100  1
  O  O15  1  0.35883600  0.19318400  0.91558100  1
  O  O16  1  0.95203300  0.15872300  0.24956200  1
  O  O17  1  0.30060300  0.85030900  0.58457700  1
  O  O18  1  0.80681600  0.35883600  0.08441900  1
  O  O19  1  0.54375600  0.33963100  0.08364200  1
  O  O20  1  0.64116400  0.80681600  0.91558100  1
  O  O21  1  0.85023200  0.69883800  0.75073100  1
  O  O22  1  0.35023200  0.19883800  0.24926900  1
  O  O23  1  0.95624400  0.16036900  0.91635800  1
  O  O24  1  0.04375600  0.83963100  0.91635800  1
  O  O25  1  0.80060300  0.35030900  0.41542300  1
  O  O26  1  0.19318400  0.64116400  0.08441900  1
  O  O27  1  0.65602400  0.54787800  0.58353200  1
  O  O28  1  0.04796700  0.84127700  0.24956200  1
  O  O29  1  0.30681600  0.85883600  0.91558100  1
  O  O30  1  0.54787800  0.34397600  0.41646800  1
  O  O31  1  0.80116200  0.35023200  0.75073100  1
  O  O32  1  0.34397600  0.45212200  0.58353200  1
  O  O33  1  0.69318400  0.14116400  0.91558100  1
  O  O34  1  0.14116400  0.30681600  0.08441900  1
  O  O35  1  0.35030900  0.19939700  0.58457700  1
  O  O36  1  0.85030900  0.69939700  0.41542300  1
  O  O37  1  0.95212200  0.15602400  0.58353200  1
  O  O38  1  0.14976800  0.30116200  0.75073100  1
  O  O39  1  0.64976800  0.80116200  0.24926900  1
  O  O40  1  0.04787800  0.84397600  0.58353200  1
  O  O41  1  0.83963100  0.95624400  0.08364200  1
  O  O42  1  0.45212200  0.65602400  0.41646800  1
  O  O43  1  0.84127700  0.95203300  0.75043800  1
  O  O44  1  0.54796700  0.34127700  0.75043800  1
  O  O45  1  0.15872300  0.04796700  0.75043800  1
  O  O46  1  0.30116200  0.85023200  0.24926900  1
  O  O47  1  0.33963100  0.45624400  0.91635800  1
loop_
_geom_bond_atom_site_label_1
_geom_bond_atom_site_label_2
_geom_bond_distance
_geom_bond_site_symmetry_2
Ba0 O31 2.747826 1_455
Ba0 O21 2.747826 1_455
Ba0 O14 2.747826 1_555
Ba0 O38 2.747826 1_555
Ba0 O26 3.105813 1_556
Ba0 O1 3.105813 1_456
Ba0 O34 3.105813 1_556
Ba0 O18 3.105813 1_456
Ba1 O3 2.734726 1_555
Ba1 O35 2.734726 1_555
Ba1 O17 2.734726 1_545
Ba1 O11 2.734726 1_545
Ba1 O29 3.114773 1_545
Ba1 O20 3.114773 1_545
Ba1 O15 3.114773 1_555
Ba1 O33 3.114773 1_555
Ba2 O5 2.734726 1_555
Ba2 O9 2.734726 1_555
Ba2 O36 2.734726 1_455
Ba2 O25 2.734726 1_455
Ba2 O26 3.114773 1_555
Ba2 O34 3.114773 1_555
Ba2 O1 3.114773 1_455
Ba2 O18 3.114773 1_455
Ba3 O39 2.747826 1_545
Ba3 O22 2.747826 1_555
Ba3 O8 2.747826 1_555
Ba3 O46 2.747826 1_545
Ba3 O29 3.105813 1_544
Ba3 O20 3.105813 1_544
Ba3 O15 3.105813 1_554
Ba3 O33 3.105813 1_554
O0 Ru5 1.946952 1_555
O0 Ru16 1.997987 1_555
O0 Ru7 2.001979 1_555
O1 Ru7 2.062852 1_555
O1 Ru23 2.094983 1_554
O1 Ru1 2.100337 1_555
O2 Ru19 1.946952 1_555
O2 Ru13 1.997987 1_555
O2 Ru10 2.001979 1_555
O3 Ru4 2.060096 1_555
O3 Ru11 2.066185 1_555
O3 Ru17 2.070322 1_555
O4 Ru18 1.966457 1_555
O4 Ru19 1.996086 1_555
O4 Ru7 2.001715 1_556
O5 Ru15 2.060096 1_555
O5 Ru9 2.066185 1_555
O5 Ru3 2.070322 1_555
O6 Ru14 1.966457 1_545
O6 Ru3 1.996086 1_555
O6 Ru8 2.001715 1_554
O7 Ru0 1.935764 1_545
O7 Ru3 1.982870 1_555
O7 Ru9 1.990573 1_555
O8 Ru5 2.049058 1_555
O8 Ru11 2.070454 1_555
O8 Ru2 2.072940 1_555
O9 Ru0 2.060096 1_555
O9 Ru13 2.066185 1_555
O9 Ru20 2.070322 1_555
O10 Ru20 1.946952 1_555
O10 Ru15 1.997987 1_555
O10 Ru21 2.001979 1_555
O11 Ru22 2.060096 1_555
O11 Ru16 2.066185 1_555
O11 Ru19 2.070322 1_555
O12 Ru7 1.966457 1_555
O12 Ru20 1.996086 1_555
O12 Ru10 2.001715 1_554
O13 Ru11 1.935764 1_565
O13 Ru1 1.982870 1_555
O13 Ru22 1.990573 1_555
O14 Ru12 2.049058 1_555
O14 Ru13 2.070454 1_555
O14 Ru10 2.072940 1_555
O15 Ru8 2.062852 1_555
O15 Ru21 2.094983 1_556
O15 Ru6 2.100337 1_555
O16 Ru3 1.946952 1_655
O16 Ru11 1.997987 1_555
O16 Ru2 2.001979 1_555
O17 Ru13 2.060096 1_555
O17 Ru0 2.066185 1_555
O17 Ru12 2.070322 1_555
O18 Ru2 2.062852 1_555
O18 Ru18 2.094983 1_554
O18 Ru5 2.100337 1_555
O19 Ru21 1.966457 1_555
O19 Ru5 1.996086 1_555
O19 Ru18 2.001715 1_554
O20 Ru23 2.062852 1_555
O20 Ru7 2.094983 1_556
O20 Ru19 2.100337 1_555
O21 Ru19 2.049058 1_555
O21 Ru22 2.070454 1_555
O21 Ru23 2.072940 1_555
O22 Ru3 2.049058 1_555
O22 Ru15 2.070454 1_555
O22 Ru21 2.072940 1_555
O23 Ru8 1.966457 1_655
O23 Ru17 1.996086 1_555
O23 Ru2 2.001715 1_556
O24 Ru23 1.966457 1_455
O24 Ru12 1.996086 1_555
O24 Ru14 2.001715 1_556
O25 Ru11 2.060096 1_555
O25 Ru4 2.066185 1_555
O25 Ru5 2.070322 1_555
O26 Ru14 2.062852 1_555
O26 Ru10 2.094983 1_554
O26 Ru20 2.100337 1_555
O27 Ru4 1.935764 1_555
O27 Ru19 1.982870 1_555
O27 Ru16 1.990573 1_555
O28 Ru1 1.946952 1_455
O28 Ru0 1.997987 1_555
O28 Ru14 2.001979 1_555
O29 Ru10 2.062852 1_555
O29 Ru14 2.094983 1_556
O29 Ru12 2.100337 1_555
O30 Ru15 1.935764 1_555
O30 Ru5 1.982870 1_555
O30 Ru4 1.990573 1_555
O31 Ru17 2.049058 1_555
O31 Ru4 2.070454 1_555
O31 Ru18 2.072940 1_555
O32 Ru13 1.935764 1_555
O32 Ru6 1.982870 1_555
O32 Ru15 1.990573 1_555
O33 Ru18 2.062852 1_555
O33 Ru2 2.094983 1_556
O33 Ru17 2.100337 1_555
O34 Ru21 2.062852 1_555
O34 Ru8 2.094983 1_554
O34 Ru3 2.100337 1_555
O35 Ru9 2.060096 1_555
O35 Ru15 2.066185 1_555
O35 Ru6 2.070322 1_555
O36 Ru16 2.060096 1_555
O36 Ru22 2.066185 1_555
O36 Ru1 2.070322 1_555
O37 Ru9 1.935764 1_655
O37 Ru17 1.982870 1_555
O37 Ru11 1.990573 1_555
O38 Ru6 2.049058 1_555
O38 Ru9 2.070454 1_555
O38 Ru8 2.072940 1_555
O39 Ru1 2.049058 1_555
O39 Ru16 2.070454 1_555
O39 Ru7 2.072940 1_555
O40 Ru22 1.935764 1_455
O40 Ru12 1.982870 1_555
O40 Ru0 1.990573 1_555
O41 Ru2 1.966457 1_565
O41 Ru1 1.996086 1_555
O41 Ru23 2.001715 1_554
O42 Ru16 1.935764 1_555
O42 Ru20 1.982870 1_555
O42 Ru13 1.990573 1_555
O43 Ru17 1.946952 1_565
O43 Ru22 1.997987 1_555
O43 Ru23 2.001979 1_555
O44 Ru6 1.946952 1_555
O44 Ru4 1.997987 1_555
O44 Ru18 2.001979 1_555
O45 Ru12 1.946952 1_545
O45 Ru9 1.997987 1_555
O45 Ru8 2.001979 1_555
O46 Ru20 2.049058 1_555
O46 Ru0 2.070454 1_555
O46 Ru14 2.072940 1_555
O47 Ru10 1.966457 1_555
O47 Ru6 1.996086 1_555
O47 Ru21 2.001715 1_556
