# generated using pymatgen
data_PH9AuC3ClO3
_symmetry_space_group_name_H-M   'P 1'
_cell_length_a   6.54865000
_cell_length_b   14.91569100
_cell_length_c   17.85706100
_cell_angle_alpha   90.00000000
_cell_angle_beta   90.00000000
_cell_angle_gamma   90.00000000
_symmetry_Int_Tables_number   1
_chemical_formula_structural   PH9AuC3ClO3
_chemical_formula_sum   'P8 H72 Au8 C24 Cl8 O24'
_cell_volume   1744.23557344
_cell_formula_units_Z   8
loop_
 _symmetry_equiv_pos_site_id
 _symmetry_equiv_pos_as_xyz
  1  'x, y, z'
loop_
 _atom_site_type_symbol
 _atom_site_label
 _atom_site_symmetry_multiplicity
 _atom_site_fract_x
 _atom_site_fract_y
 _atom_site_fract_z
 _atom_site_occupancy
  P  P0  1  0.69177100  0.12727500  0.36379100  1
  P  P1  1  0.19177100  0.12727500  0.13620900  1
  P  P2  1  0.80822900  0.62727500  0.36379100  1
  P  P3  1  0.30822900  0.62727500  0.13620900  1
  P  P4  1  0.19177100  0.37272500  0.63620900  1
  P  P5  1  0.69177100  0.37272500  0.86379100  1
  P  P6  1  0.30822900  0.87272500  0.63620900  1
  P  P7  1  0.80822900  0.87272500  0.86379100  1
  H  H0  1  0.24275500  0.47886800  0.98541700  1
  H  H1  1  0.44387500  0.17312400  0.68520800  1
  H  H2  1  0.31793500  0.25097400  0.74647100  1
  H  H3  1  0.74275500  0.47886800  0.51458300  1
  H  H4  1  0.46341900  0.21575900  0.93408000  1
  H  H5  1  0.36884800  0.95235800  0.07503300  1
  H  H6  1  0.55404400  0.81419200  0.50810100  1
  H  H7  1  0.67011000  0.18150700  0.81549600  1
  H  H8  1  0.44387500  0.32687600  0.18520800  1
  H  H9  1  0.59564400  0.96363800  0.43386700  1
  H  H10  1  0.25724500  0.97886800  0.98541700  1
  H  H11  1  0.81793500  0.25097400  0.75352900  1
  H  H12  1  0.03658100  0.71575900  0.93408000  1
  H  H13  1  0.76777400  0.72015000  0.06450900  1
  H  H14  1  0.25724500  0.52113200  0.48541700  1
  H  H15  1  0.17011000  0.18150700  0.68450400  1
  H  H16  1  0.09564400  0.96363800  0.06613300  1
  H  H17  1  0.36884800  0.54764200  0.57503300  1
  H  H18  1  0.05612500  0.82687600  0.18520800  1
  H  H19  1  0.75724500  0.52113200  0.01458300  1
  H  H20  1  0.90435600  0.03636200  0.93386700  1
  H  H21  1  0.82989000  0.81849300  0.31549600  1
  H  H22  1  0.94595600  0.18580800  0.00810100  1
  H  H23  1  0.73222600  0.27985000  0.56450900  1
  H  H24  1  0.74275500  0.02113200  0.01458300  1
  H  H25  1  0.82989000  0.68150700  0.81549600  1
  H  H26  1  0.73222600  0.22015000  0.06450900  1
  H  H27  1  0.13115200  0.04764200  0.57503300  1
  H  H28  1  0.75724500  0.97886800  0.51458300  1
  H  H29  1  0.96341900  0.21575900  0.56592000  1
  H  H30  1  0.90435600  0.46363800  0.43386700  1
  H  H31  1  0.67011000  0.31849300  0.31549600  1
  H  H32  1  0.86884800  0.54764200  0.92496700  1
  H  H33  1  0.96341900  0.28424100  0.06592000  1
  H  H34  1  0.18206500  0.74902600  0.24647100  1
  H  H35  1  0.32989000  0.81849300  0.18450400  1
  H  H36  1  0.53658100  0.71575900  0.56592000  1
  H  H37  1  0.31793500  0.24902600  0.24647100  1
  H  H38  1  0.05404400  0.68580800  0.49189900  1
  H  H39  1  0.13115200  0.45235800  0.07503300  1
  H  H40  1  0.55612500  0.67312400  0.81479200  1
  H  H41  1  0.26777400  0.72015000  0.43549100  1
  H  H42  1  0.26777400  0.77985000  0.93549100  1
  H  H43  1  0.68206500  0.74902600  0.25352900  1
  H  H44  1  0.94387500  0.32687600  0.31479200  1
  H  H45  1  0.44595600  0.18580800  0.49189900  1
  H  H46  1  0.55612500  0.82687600  0.31479200  1
  H  H47  1  0.81793500  0.24902600  0.25352900  1
  H  H48  1  0.63115200  0.04764200  0.92496700  1
  H  H49  1  0.17011000  0.31849300  0.18450400  1
  H  H50  1  0.03658100  0.78424100  0.43408000  1
  H  H51  1  0.32989000  0.68150700  0.68450400  1
  H  H52  1  0.18206500  0.75097400  0.74647100  1
  H  H53  1  0.76777400  0.77985000  0.56450900  1
  H  H54  1  0.55404400  0.68580800  0.00810100  1
  H  H55  1  0.05404400  0.81419200  0.99189900  1
  H  H56  1  0.40435600  0.03636200  0.56613300  1
  H  H57  1  0.23222600  0.27985000  0.93549100  1
  H  H58  1  0.86884800  0.95235800  0.42496700  1
  H  H59  1  0.24275500  0.02113200  0.48541700  1
  H  H60  1  0.05612500  0.67312400  0.68520800  1
  H  H61  1  0.53658100  0.78424100  0.06592000  1
  H  H62  1  0.23222600  0.22015000  0.43549100  1
  H  H63  1  0.09564400  0.53636200  0.56613300  1
  H  H64  1  0.94387500  0.17312400  0.81479200  1
  H  H65  1  0.63115200  0.45235800  0.42496700  1
  H  H66  1  0.44595600  0.31419200  0.99189900  1
  H  H67  1  0.46341900  0.28424100  0.43408000  1
  H  H68  1  0.59564400  0.53636200  0.93386700  1
  H  H69  1  0.68206500  0.75097400  0.75352900  1
  H  H70  1  0.94595600  0.31419200  0.50810100  1
  H  H71  1  0.40435600  0.46363800  0.06613300  1
  Au  Au0  1  0.20411800  0.04007700  0.23834000  1
  Au  Au1  1  0.20411800  0.45992300  0.73834000  1
  Au  Au2  1  0.29588200  0.54007700  0.23834000  1
  Au  Au3  1  0.70411800  0.04007700  0.26166000  1
  Au  Au4  1  0.79588200  0.95992300  0.76166000  1
  Au  Au5  1  0.29588200  0.95992300  0.73834000  1
  Au  Au6  1  0.79588200  0.54007700  0.26166000  1
  Au  Au7  1  0.70411800  0.45992300  0.76166000  1
  C  C0  1  0.10100700  0.78340100  0.93882200  1
  C  C1  1  0.24460300  0.51231000  0.54616600  1
  C  C2  1  0.60100700  0.71659900  0.06117800  1
  C  C3  1  0.89899300  0.28340100  0.56117800  1
  C  C4  1  0.25539700  0.48769000  0.04616600  1
  C  C5  1  0.60100700  0.78340100  0.56117800  1
  C  C6  1  0.25539700  0.01231000  0.54616600  1
  C  C7  1  0.18622600  0.71867000  0.69118100  1
  C  C8  1  0.10100700  0.71659900  0.43882200  1
  C  C9  1  0.31377400  0.21867000  0.69118100  1
  C  C10  1  0.18622600  0.78133000  0.19118100  1
  C  C11  1  0.81377400  0.21867000  0.80881900  1
  C  C12  1  0.68622600  0.71867000  0.80881900  1
  C  C13  1  0.81377400  0.28133000  0.30881900  1
  C  C14  1  0.39899300  0.28340100  0.93882200  1
  C  C15  1  0.74460300  0.98769000  0.45383400  1
  C  C16  1  0.75539700  0.01231000  0.95383400  1
  C  C17  1  0.31377400  0.28133000  0.19118100  1
  C  C18  1  0.75539700  0.48769000  0.45383400  1
  C  C19  1  0.39899300  0.21659900  0.43882200  1
  C  C20  1  0.74460300  0.51231000  0.95383400  1
  C  C21  1  0.24460300  0.98769000  0.04616600  1
  C  C22  1  0.68622600  0.78133000  0.30881900  1
  C  C23  1  0.89899300  0.21659900  0.06117800  1
  Cl  Cl0  1  0.78310400  0.05931100  0.66036100  1
  Cl  Cl1  1  0.78310400  0.44068900  0.16036100  1
  Cl  Cl2  1  0.28310400  0.44068900  0.33963900  1
  Cl  Cl3  1  0.21689600  0.94068900  0.33963900  1
  Cl  Cl4  1  0.28310400  0.05931100  0.83963900  1
  Cl  Cl5  1  0.71689600  0.55931100  0.66036100  1
  Cl  Cl6  1  0.21689600  0.55931100  0.83963900  1
  Cl  Cl7  1  0.71689600  0.94068900  0.16036100  1
  O  O0  1  0.96198200  0.33857700  0.62433300  1
  O  O1  1  0.83503400  0.28551300  0.86800100  1
  O  O2  1  0.26630700  0.08373100  0.05900000  1
  O  O3  1  0.16496600  0.78551300  0.63199900  1
  O  O4  1  0.66496600  0.71448700  0.36800100  1
  O  O5  1  0.23369300  0.58373100  0.05900000  1
  O  O6  1  0.76630700  0.41626900  0.94100000  1
  O  O7  1  0.73369300  0.91626900  0.94100000  1
  O  O8  1  0.33503400  0.21448700  0.13199900  1
  O  O9  1  0.33503400  0.28551300  0.63199900  1
  O  O10  1  0.53801800  0.83857700  0.62433300  1
  O  O11  1  0.66496600  0.78551300  0.86800100  1
  O  O12  1  0.23369300  0.91626900  0.55900000  1
  O  O13  1  0.16496600  0.71448700  0.13199900  1
  O  O14  1  0.53801800  0.66142300  0.12433300  1
  O  O15  1  0.46198200  0.16142300  0.37566700  1
  O  O16  1  0.76630700  0.08373100  0.44100000  1
  O  O17  1  0.46198200  0.33857700  0.87566700  1
  O  O18  1  0.03801800  0.66142300  0.37566700  1
  O  O19  1  0.83503400  0.21448700  0.36800100  1
  O  O20  1  0.73369300  0.58373100  0.44100000  1
  O  O21  1  0.03801800  0.83857700  0.87566700  1
  O  O22  1  0.26630700  0.41626900  0.55900000  1
  O  O23  1  0.96198200  0.16142300  0.12433300  1
loop_
_geom_bond_atom_site_label_1
_geom_bond_atom_site_label_2
_geom_bond_distance
_geom_bond_site_symmetry_2
Au0 P1 2.241483 1_555
Au0 Cl3 2.340248 1_545
Au1 P4 2.241483 1_555
Au1 Cl6 2.340248 1_555
Au2 P3 2.241483 1_555
Au2 Cl2 2.340248 1_555
Au3 P0 2.241483 1_555
Au3 Cl7 2.340248 1_545
Au4 P7 2.241483 1_555
Au4 Cl0 2.340248 1_565
Au5 P6 2.241483 1_555
Au5 Cl4 2.340248 1_565
Au6 P2 2.241483 1_555
Au6 Cl1 2.340248 1_555
Au7 P5 2.241483 1_555
Au7 Cl5 2.340248 1_555
C0 H42 1.094999 1_555
C0 H12 1.096862 1_555
C0 H55 1.097194 1_555
C0 O21 1.455785 1_555
C1 H14 1.095882 1_555
C1 H17 1.097932 1_555
C1 H63 1.098815 1_555
C1 O22 1.457680 1_555
C2 H13 1.094999 1_555
C2 H61 1.096862 1_555
C2 H54 1.097194 1_555
C2 O14 1.455785 1_555
C3 H23 1.094999 1_555
C3 H29 1.096862 1_555
C3 H70 1.097194 1_555
C3 O0 1.455785 1_555
C4 H0 1.095882 1_554
C4 H39 1.097932 1_555
C4 H71 1.098815 1_555
C4 O5 1.457680 1_555
C5 H53 1.094999 1_555
C5 H36 1.096862 1_555
C5 H6 1.097194 1_555
C5 O10 1.455785 1_555
C6 H59 1.095882 1_555
C6 H27 1.097932 1_555
C6 H56 1.098815 1_555
C6 O12 1.457680 1_545
C7 H60 1.094885 1_555
C7 H51 1.098450 1_555
C7 H52 1.098956 1_555
C7 O3 1.459545 1_555
C8 H41 1.094999 1_555
C8 H50 1.096862 1_555
C8 H38 1.097194 1_555
C8 O18 1.455785 1_555
C9 H1 1.094885 1_555
C9 H15 1.098450 1_555
C9 H2 1.098956 1_555
C9 O9 1.459545 1_555
C10 H18 1.094885 1_555
C10 H35 1.098450 1_555
C10 H34 1.098956 1_555
C10 O13 1.459545 1_555
C11 H64 1.094885 1_555
C11 H7 1.098450 1_555
C11 H11 1.098956 1_555
C11 O1 1.459545 1_555
C12 H40 1.094885 1_555
C12 H25 1.098450 1_555
C12 H69 1.098956 1_555
C12 O11 1.459545 1_555
C13 H44 1.094885 1_555
C13 H31 1.098450 1_555
C13 H47 1.098956 1_555
C13 O19 1.459545 1_555
C14 H57 1.094999 1_555
C14 H4 1.096862 1_555
C14 H66 1.097194 1_555
C14 O17 1.455785 1_555
C15 H28 1.095882 1_555
C15 H58 1.097932 1_555
C15 H9 1.098815 1_555
C15 O16 1.457680 1_565
C16 H24 1.095882 1_556
C16 H48 1.097932 1_555
C16 H20 1.098815 1_555
C16 O7 1.457680 1_545
C17 H8 1.094885 1_555
C17 H49 1.098450 1_555
C17 H37 1.098956 1_555
C17 O8 1.459545 1_555
C18 H3 1.095882 1_555
C18 H65 1.097932 1_555
C18 H30 1.098815 1_555
C18 O20 1.457680 1_555
C19 H62 1.094999 1_555
C19 H67 1.096862 1_555
C19 H45 1.097194 1_555
C19 O15 1.455785 1_555
C20 H19 1.095882 1_556
C20 H32 1.097932 1_555
C20 H68 1.098815 1_555
C20 O6 1.457680 1_555
C21 H10 1.095882 1_554
C21 H5 1.097932 1_555
C21 H16 1.098815 1_555
C21 O2 1.457680 1_565
C22 H46 1.094885 1_555
C22 H21 1.098450 1_555
C22 H43 1.098956 1_555
C22 O4 1.459545 1_555
C23 H26 1.094999 1_555
C23 H33 1.096862 1_555
C23 H22 1.097194 1_555
C23 O23 1.455785 1_555
O0 P4 1.602763 1_655
O1 P5 1.605610 1_555
O2 P1 1.600304 1_555
O3 P6 1.605610 1_555
O4 P2 1.605610 1_555
O5 P3 1.600304 1_555
O6 P5 1.600304 1_555
O7 P7 1.600304 1_555
O8 P1 1.605610 1_555
O9 P4 1.605610 1_555
O10 P6 1.602763 1_555
O11 P7 1.605610 1_555
O12 P6 1.600304 1_555
O13 P3 1.605610 1_555
O14 P3 1.602763 1_555
O15 P0 1.602763 1_555
O16 P0 1.600304 1_555
O17 P5 1.602763 1_555
O18 P2 1.602763 1_455
O19 P0 1.605610 1_555
O20 P2 1.600304 1_555
O21 P7 1.602763 1_455
O22 P4 1.600304 1_555
O23 P1 1.602763 1_655
