# generated using pymatgen
data_Ce2Ti2SiO9
_symmetry_space_group_name_H-M   'P 1'
_cell_length_a   8.94220444
_cell_length_b   8.94220444
_cell_length_c   7.66798933
_cell_angle_alpha   69.68741346
_cell_angle_beta   69.68741346
_cell_angle_gamma   37.58091716
_symmetry_Int_Tables_number   1
_chemical_formula_structural   Ce2Ti2SiO9
_chemical_formula_sum   'Ce4 Ti4 Si2 O18'
_cell_volume   347.90453455
_cell_formula_units_Z   2
loop_
 _symmetry_equiv_pos_site_id
 _symmetry_equiv_pos_as_xyz
  1  'x, y, z'
loop_
 _atom_site_type_symbol
 _atom_site_label
 _atom_site_symmetry_multiplicity
 _atom_site_fract_x
 _atom_site_fract_y
 _atom_site_fract_z
 _atom_site_occupancy
  Ce  Ce0  1  0.10303300  0.10303300  0.30349200  1
  Ce  Ce1  1  0.89696700  0.89696700  0.69650800  1
  Ce  Ce2  1  0.21259300  0.21259300  0.68329900  1
  Ce  Ce3  1  0.78740700  0.78740700  0.31670100  1
  Ti  Ti0  1  0.41789100  0.41789100  0.45079200  1
  Ti  Ti1  1  0.75936900  0.24063100  0.00000000  1
  Ti  Ti2  1  0.24063100  0.75936900  0.00000000  1
  Ti  Ti3  1  0.58210900  0.58210900  0.54920800  1
  Si  Si0  1  0.33476400  0.33476400  0.98493500  1
  Si  Si1  1  0.66523600  0.66523600  0.01506500  1
  O  O0  1  0.52776300  0.52776300  0.80987000  1
  O  O1  1  0.57940300  0.09304900  0.48474200  1
  O  O2  1  0.65690900  0.65690900  0.23362500  1
  O  O3  1  0.97929900  0.97929900  0.18437000  1
  O  O4  1  0.90695100  0.42059700  0.51525800  1
  O  O5  1  0.13450500  0.62372500  0.02071800  1
  O  O6  1  0.72839000  0.27161000  0.50000000  1
  O  O7  1  0.02070100  0.02070100  0.81563000  1
  O  O8  1  0.09304900  0.57940300  0.48474200  1
  O  O9  1  0.27161000  0.72839000  0.50000000  1
  O  O10  1  0.34309100  0.34309100  0.76637500  1
  O  O11  1  0.86549500  0.37627500  0.97928200  1
  O  O12  1  0.23918700  0.23918700  0.13731700  1
  O  O13  1  0.42059700  0.90695100  0.51525800  1
  O  O14  1  0.62372500  0.13450500  0.02071800  1
  O  O15  1  0.76081300  0.76081300  0.86268300  1
  O  O16  1  0.47223700  0.47223700  0.19013000  1
  O  O17  1  0.37627500  0.86549500  0.97928200  1
loop_
_geom_bond_atom_site_label_1
_geom_bond_atom_site_label_2
_geom_bond_distance
_geom_bond_site_symmetry_2
Ce0 O12 2.187153 1_555
Ce0 O9 2.415397 1_545
Ce0 O6 2.415397 1_455
Ce0 O3 2.574221 1_445
Ce0 O13 2.666085 1_545
Ce0 O4 2.666085 1_455
Ce0 O11 2.808058 1_454
Ce0 O17 2.808058 1_544
Ce0 O2 3.009511 1_545
Ce0 O2 3.009511 1_455
Ce1 O15 2.187153 1_555
Ce1 O9 2.415397 1_655
Ce1 O6 2.415397 1_565
Ce1 O7 2.574221 1_665
Ce1 O8 2.666085 1_655
Ce1 O1 2.666085 1_565
Ce1 O5 2.808058 1_656
Ce1 O14 2.808058 1_566
Ce1 O10 3.009511 1_565
Ce1 O10 3.009511 1_655
Ce2 O4 2.305101 1_455
Ce2 O13 2.305101 1_545
Ce2 O10 2.513935 1_555
Ce2 O1 2.514953 1_555
Ce2 O8 2.514953 1_555
Ce2 O17 2.672470 1_545
Ce2 O11 2.672470 1_455
Ce3 O1 2.305101 1_565
Ce3 O8 2.305101 1_655
Ce3 O2 2.513935 1_555
Ce3 O4 2.514953 1_555
Ce3 O13 2.514953 1_555
Ce3 O14 2.672470 1_565
Ce3 O5 2.672470 1_655
O0 Ti3 1.868933 1_555
O0 Ti1 2.019003 1_556
O0 Ti2 2.019003 1_556
O1 Ti0 1.917828 1_555
O2 Si1 1.629506 1_555
O2 Ti3 2.283029 1_555
O3 Ti2 1.918255 1_655
O3 Ti1 1.918255 1_565
O4 Ti3 1.917828 1_555
O5 Si0 1.666105 1_554
O5 Ti2 1.995774 1_555
O6 Ti3 2.047140 1_555
O6 Ti0 2.047140 1_555
O7 Ti1 1.918255 1_456
O7 Ti2 1.918255 1_546
O8 Ti0 1.917828 1_555
O9 Ti3 2.047140 1_555
O9 Ti0 2.047140 1_555
O10 Si0 1.629506 1_555
O10 Ti0 2.283029 1_555
O11 Si1 1.666105 1_556
O11 Ti1 1.995774 1_556
O12 Si0 1.611614 1_554
O13 Ti3 1.917828 1_555
O14 Si0 1.666105 1_554
O14 Ti1 1.995774 1_555
O15 Si1 1.611614 1_556
O16 Ti0 1.868933 1_555
O16 Ti1 2.019003 1_555
O16 Ti2 2.019003 1_555
O17 Si1 1.666105 1_556
O17 Ti2 1.995774 1_556
