# generated using pymatgen
data_TlMo2Cl7O2
_symmetry_space_group_name_H-M   'P 1'
_cell_length_a   7.23457400
_cell_length_b   9.59986200
_cell_length_c   9.84460300
_cell_angle_alpha   90.00000000
_cell_angle_beta   90.00000000
_cell_angle_gamma   90.00000000
_symmetry_Int_Tables_number   1
_chemical_formula_structural   TlMo2Cl7O2
_chemical_formula_sum   'Tl2 Mo4 Cl14 O4'
_cell_volume   683.71665691
_cell_formula_units_Z   2
loop_
 _symmetry_equiv_pos_site_id
 _symmetry_equiv_pos_as_xyz
  1  'x, y, z'
loop_
 _atom_site_type_symbol
 _atom_site_label
 _atom_site_symmetry_multiplicity
 _atom_site_fract_x
 _atom_site_fract_y
 _atom_site_fract_z
 _atom_site_occupancy
  Tl  Tl0  1  0.50000000  0.47262500  0.00000000  1
  Tl  Tl1  1  0.00000000  0.52737500  0.50000000  1
  Mo  Mo0  1  0.00000000  0.18847700  0.82073300  1
  Mo  Mo1  1  0.50000000  0.81152300  0.67926700  1
  Mo  Mo2  1  0.50000000  0.81152300  0.32073300  1
  Mo  Mo3  1  0.00000000  0.18847700  0.17926700  1
  Cl  Cl0  1  0.73128500  0.88391400  0.50000000  1
  Cl  Cl1  1  0.50000000  0.60054700  0.50000000  1
  Cl  Cl2  1  0.76735200  0.30806400  0.29877600  1
  Cl  Cl3  1  0.26735200  0.69193600  0.20122400  1
  Cl  Cl4  1  0.23264800  0.30806400  0.29877600  1
  Cl  Cl5  1  0.26871500  0.88391400  0.50000000  1
  Cl  Cl6  1  0.26735200  0.69193600  0.79877600  1
  Cl  Cl7  1  0.00000000  0.39945300  0.00000000  1
  Cl  Cl8  1  0.23264800  0.30806400  0.70122400  1
  Cl  Cl9  1  0.76735200  0.30806400  0.70122400  1
  Cl  Cl10  1  0.23128500  0.11608600  0.00000000  1
  Cl  Cl11  1  0.73264800  0.69193600  0.79877600  1
  Cl  Cl12  1  0.73264800  0.69193600  0.20122400  1
  Cl  Cl13  1  0.76871500  0.11608600  0.00000000  1
  O  O0  1  0.50000000  0.97022000  0.75476500  1
  O  O1  1  0.00000000  0.02978000  0.74523500  1
  O  O2  1  0.50000000  0.97022000  0.24523500  1
  O  O3  1  0.00000000  0.02978000  0.25476500  1
loop_
_geom_bond_atom_site_label_1
_geom_bond_atom_site_label_2
_geom_bond_distance
_geom_bond_site_symmetry_2
Mo0 O1 1.695104 1_555
Mo1 O0 1.695104 1_555
Mo2 O2 1.695104 1_555
Mo3 O3 1.695104 1_555
Cl0 Mo2 2.529282 1_555
Cl0 Mo1 2.529282 1_555
Cl1 Mo1 2.686367 1_555
Cl1 Mo2 2.686367 1_555
Cl2 Mo3 2.352658 1_655
Cl3 Mo2 2.352658 1_555
Cl4 Mo3 2.352658 1_555
Cl5 Mo1 2.529282 1_555
Cl5 Mo2 2.529282 1_555
Cl6 Mo1 2.352658 1_555
Cl7 Mo3 2.686367 1_555
Cl7 Mo0 2.686367 1_554
Cl8 Mo0 2.352658 1_555
Cl9 Mo0 2.352658 1_655
Cl10 Mo3 2.529282 1_555
Cl10 Mo0 2.529282 1_554
Cl11 Mo1 2.352658 1_555
Cl12 Mo2 2.352658 1_555
Cl13 Mo3 2.529282 1_655
Cl13 Mo0 2.529282 1_654
