# generated using pymatgen
data_Al5Mo
_symmetry_space_group_name_H-M   'P 1'
_cell_length_a   9.18891273
_cell_length_b   9.18891371
_cell_length_c   9.18891285
_cell_angle_alpha   30.89846169
_cell_angle_beta   30.89846003
_cell_angle_gamma   30.89845641
_symmetry_Int_Tables_number   1
_chemical_formula_structural   Al5Mo
_chemical_formula_sum   'Al10 Mo2'
_cell_volume   181.47526515
_cell_formula_units_Z   2
loop_
 _symmetry_equiv_pos_site_id
 _symmetry_equiv_pos_as_xyz
  1  'x, y, z'
loop_
 _atom_site_type_symbol
 _atom_site_label
 _atom_site_symmetry_multiplicity
 _atom_site_fract_x
 _atom_site_fract_y
 _atom_site_fract_z
 _atom_site_occupancy
  Al  Al0  1  0.33104220  0.33104220  0.33104220  1
  Al  Al1  1  0.75000000  0.40636324  0.09363676  1
  Al  Al2  1  0.25000000  0.59363676  0.90636324  1
  Al  Al3  1  0.16895780  0.16895780  0.16895780  1
  Al  Al4  1  0.59363676  0.90636324  0.25000000  1
  Al  Al5  1  0.66895780  0.66895780  0.66895780  1
  Al  Al6  1  0.40636324  0.09363676  0.75000000  1
  Al  Al7  1  0.83104220  0.83104220  0.83104220  1
  Al  Al8  1  0.90636324  0.25000000  0.59363676  1
  Al  Al9  1  0.09363676  0.75000000  0.40636324  1
  Mo  Mo0  1  0.50000000  0.50000000  0.50000000  1
  Mo  Mo1  1  -0.00000000  0.00000000  0.00000000  1
loop_
_geom_bond_atom_site_label_1
_geom_bond_atom_site_label_2
_geom_bond_distance
_geom_bond_site_symmetry_2
Al0 Al2 2.710897 1_554
Al0 Al8 2.710897 1_455
Al0 Al4 2.710897 1_545
Al0 Al6 2.761788 1_555
Al0 Al1 2.761788 1_555
Al0 Al9 2.761789 1_555
Al0 Mo1 2.827095 1_655
Al0 Mo1 2.827095 1_565
Al0 Mo1 2.827095 1_556
Al0 Al5 2.829011 1_455
Al0 Al5 2.829011 1_545
Al0 Al5 2.829011 1_554
Al1 Al5 2.710897 1_554
Al1 Al7 2.710897 1_554
Al1 Mo0 2.713142 1_555
Al1 Mo1 2.713142 1_655
Al1 Al3 2.761788 1_655
Al1 Al9 2.783801 1_555
Al1 Al6 2.783801 1_654
Al1 Al9 2.783802 1_645
Al1 Al6 2.783802 1_555
Al1 Al6 2.913823 1_564
Al1 Al9 2.913823 1_654
Al2 Al3 2.710897 1_556
Al2 Mo0 2.713142 1_555
Al2 Mo1 2.713142 1_566
Al2 Al7 2.761788 1_455
Al2 Al5 2.761788 1_555
Al2 Al8 2.783801 1_555
Al2 Al4 2.783801 1_456
Al2 Al8 2.783802 1_465
Al2 Al4 2.783802 1_555
Al2 Al4 2.913823 1_546
Al2 Al8 2.913823 1_456
Al3 Al4 2.710896 1_545
Al3 Al8 2.710897 1_455
Al3 Al6 2.761788 1_554
Al3 Al9 2.761789 1_545
Al3 Mo0 2.827095 1_455
Al3 Mo0 2.827095 1_545
Al3 Mo0 2.827095 1_554
Al3 Al7 2.829011 1_544
Al3 Al7 2.829011 1_454
Al3 Al7 2.829011 1_445
Al4 Mo1 2.713142 1_665
Al4 Mo0 2.713142 1_555
Al4 Al5 2.761788 1_555
Al4 Al7 2.761788 1_554
Al4 Al8 2.783802 1_555
Al4 Al8 2.783802 1_564
Al4 Al8 2.913823 1_465
Al5 Al9 2.710897 1_655
Al5 Al6 2.710897 1_565
Al5 Al8 2.761789 1_555
Al5 Mo1 2.827095 1_566
Al5 Mo1 2.827095 1_656
Al5 Mo1 2.827095 1_665
Al6 Al7 2.710896 1_545
Al6 Mo1 2.713142 1_556
Al6 Mo0 2.713142 1_555
Al6 Al9 2.783802 1_555
Al6 Al9 2.783802 1_546
Al6 Al9 2.913823 1_645
Al7 Al9 2.710897 1_655
Al7 Al8 2.761789 1_565
Al7 Mo0 2.827095 1_655
Al7 Mo0 2.827095 1_565
Al7 Mo0 2.827095 1_556
Al8 Mo0 2.713141 1_555
Al8 Mo1 2.713142 1_656
Al9 Mo0 2.713141 1_555
Al9 Mo1 2.713142 1_565
