# generated using pymatgen
data_Co3P2H2O9
_symmetry_space_group_name_H-M   'P 1'
_cell_length_a   4.92648300
_cell_length_b   8.79472600
_cell_length_c   17.07390617
_cell_angle_alpha   83.94905737
_cell_angle_beta   90.00000000
_cell_angle_gamma   90.00000000
_symmetry_Int_Tables_number   1
_chemical_formula_structural   Co3P2H2O9
_chemical_formula_sum   'Co12 P8 H8 O36'
_cell_volume   735.64075780
_cell_formula_units_Z   4
loop_
 _symmetry_equiv_pos_site_id
 _symmetry_equiv_pos_as_xyz
  1  'x, y, z'
loop_
 _atom_site_type_symbol
 _atom_site_label
 _atom_site_symmetry_multiplicity
 _atom_site_fract_x
 _atom_site_fract_y
 _atom_site_fract_z
 _atom_site_occupancy
  Co  Co0  1  0.71257200  0.42972300  0.34770200  1
  Co  Co1  1  0.78742800  0.42972300  0.84770200  1
  Co  Co2  1  0.29494300  0.66723000  0.44195900  1
  Co  Co3  1  0.50503500  0.93419100  0.17736300  1
  Co  Co4  1  0.79494300  0.33277000  0.05804100  1
  Co  Co5  1  0.00503500  0.06580900  0.32263700  1
  Co  Co6  1  0.99496500  0.93419100  0.67736300  1
  Co  Co7  1  0.49496500  0.06580900  0.82263700  1
  Co  Co8  1  0.70505700  0.33277000  0.55804100  1
  Co  Co9  1  0.28742800  0.57027700  0.65229800  1
  Co  Co10  1  0.21257200  0.57027700  0.15229800  1
  Co  Co11  1  0.20505700  0.66723000  0.94195900  1
  P  P0  1  0.21110100  0.31285700  0.44585300  1
  P  P1  1  0.78889900  0.68714300  0.55414700  1
  P  P2  1  0.51386900  0.23738500  0.22015100  1
  P  P3  1  0.48613100  0.76261500  0.77984900  1
  P  P4  1  0.98613100  0.23738500  0.72015100  1
  P  P5  1  0.28889900  0.31285700  0.94585300  1
  P  P6  1  0.01386900  0.76261500  0.27984900  1
  P  P7  1  0.71110100  0.68714300  0.05414700  1
  H  H0  1  0.79649000  0.91285300  0.93276500  1
  H  H1  1  0.70351000  0.91285300  0.43276500  1
  H  H2  1  0.44794000  0.92742700  0.59341700  1
  H  H3  1  0.55206000  0.07257300  0.40658300  1
  H  H4  1  0.05206000  0.92742700  0.09341700  1
  H  H5  1  0.94794000  0.07257300  0.90658300  1
  H  H6  1  0.20351000  0.08714700  0.06723500  1
  H  H7  1  0.29649000  0.08714700  0.56723500  1
  O  O0  1  0.90377100  0.35764000  0.45314300  1
  O  O1  1  0.26226200  0.74499200  0.71551400  1
  O  O2  1  0.25164900  0.18039100  0.89635600  1
  O  O3  1  0.24835100  0.18039100  0.39635600  1
  O  O4  1  0.64522700  0.61278300  0.79070800  1
  O  O5  1  0.14392100  0.46022400  0.90390900  1
  O  O6  1  0.85607900  0.53977600  0.09609100  1
  O  O7  1  0.09622900  0.64236000  0.54685700  1
  O  O8  1  0.35477300  0.38721700  0.20929200  1
  O  O9  1  0.76809900  0.02214400  0.91380400  1
  O  O10  1  0.33015500  0.27722200  0.52963200  1
  O  O11  1  0.67075300  0.90377400  0.75542800  1
  O  O12  1  0.40377100  0.64236000  0.04685700  1
  O  O13  1  0.26809900  0.97785600  0.58619600  1
  O  O14  1  0.23190100  0.97785600  0.08619600  1
  O  O15  1  0.15816100  0.80756600  0.35562800  1
  O  O16  1  0.35607900  0.46022400  0.40390900  1
  O  O17  1  0.65816100  0.19243400  0.14437200  1
  O  O18  1  0.59622900  0.35764000  0.95314300  1
  O  O19  1  0.75164900  0.81960900  0.60364400  1
  O  O20  1  0.85477300  0.61278300  0.29070800  1
  O  O21  1  0.82924700  0.90377400  0.25542800  1
  O  O22  1  0.32924700  0.09622600  0.24457200  1
  O  O23  1  0.66984500  0.72277800  0.47036800  1
  O  O24  1  0.84183900  0.19243400  0.64437200  1
  O  O25  1  0.64392100  0.53977600  0.59609100  1
  O  O26  1  0.73190100  0.02214400  0.41380400  1
  O  O27  1  0.16984500  0.27722200  0.02963200  1
  O  O28  1  0.23773800  0.74499200  0.21551400  1
  O  O29  1  0.17075300  0.09622600  0.74457200  1
  O  O30  1  0.34183900  0.80756600  0.85562800  1
  O  O31  1  0.83015500  0.72277800  0.97036800  1
  O  O32  1  0.14522700  0.38721700  0.70929200  1
  O  O33  1  0.73773800  0.25500800  0.28448600  1
  O  O34  1  0.76226200  0.25500800  0.78448600  1
  O  O35  1  0.74835100  0.81960900  0.10364400  1
loop_
_geom_bond_atom_site_label_1
_geom_bond_atom_site_label_2
_geom_bond_distance
_geom_bond_site_symmetry_2
Co0 O20 1.923383 1_555
Co0 O33 1.972576 1_555
Co0 O16 2.032644 1_555
Co0 O0 2.071128 1_555
Co1 O4 1.923383 1_555
Co1 O34 1.972576 1_555
Co1 O5 2.032644 1_655
Co1 O18 2.071128 1_555
Co2 O15 1.940754 1_555
Co2 O23 1.983712 1_555
Co2 O16 2.019052 1_555
Co2 O7 2.032576 1_555
Co3 O14 2.062764 1_555
Co3 O35 2.074613 1_555
Co3 O21 2.079440 1_555
Co3 O22 2.107682 1_565
Co3 O28 2.167623 1_555
Co3 O17 2.403102 1_565
Co4 O17 1.940754 1_555
Co4 O27 1.983712 1_655
Co4 O6 2.019052 1_555
Co4 O18 2.032576 1_554
Co5 O26 2.062764 1_455
Co5 O3 2.074613 1_555
Co5 O22 2.079440 1_555
Co5 O21 2.107682 1_445
Co5 O33 2.167623 1_455
Co5 O15 2.403102 1_545
Co6 O13 2.062764 1_655
Co6 O19 2.074613 1_555
Co6 O11 2.079440 1_555
Co6 O29 2.107682 1_665
Co6 O1 2.167623 1_655
Co6 O24 2.403102 1_565
Co7 O9 2.062764 1_555
Co7 O2 2.074613 1_555
Co7 O29 2.079440 1_555
Co7 O11 2.107682 1_545
Co7 O34 2.167623 1_555
Co7 O30 2.403102 1_545
Co8 O24 1.940754 1_555
Co8 O10 1.983712 1_555
Co8 O25 2.019052 1_555
Co8 O0 2.032576 1_555
Co9 O32 1.923383 1_555
Co9 O1 1.972576 1_555
Co9 O25 2.032644 1_555
Co9 O7 2.071128 1_555
Co10 O8 1.923383 1_555
Co10 O28 1.972576 1_555
Co10 O6 2.032644 1_455
Co10 O12 2.071128 1_555
Co11 O30 1.940754 1_555
Co11 O31 1.983712 1_455
Co11 O5 2.019052 1_555
Co11 O12 2.032576 1_556
H0 O9 0.991283 1_565
H0 O31 1.734324 1_555
H1 O26 0.991283 1_565
H1 O23 1.734324 1_555
H2 O13 0.992643 1_555
H3 O26 0.992643 1_555
H4 O14 0.992643 1_555
H5 O9 0.992643 1_555
H6 O14 0.991283 1_545
H6 O27 1.734324 1_555
H7 O13 0.991283 1_545
H7 O10 1.734324 1_555
O0 P0 1.572677 1_655
O1 P3 1.575711 1_555
O2 P5 1.520750 1_555
O3 P0 1.520750 1_555
O4 P3 1.527613 1_555
O5 P5 1.583372 1_555
O6 P7 1.583372 1_555
O7 P1 1.572677 1_455
O8 P2 1.527613 1_555
O10 P0 1.547208 1_555
O11 P3 1.559870 1_555
O12 P7 1.572677 1_555
O15 P6 1.563159 1_555
O16 P0 1.583372 1_555
O17 P2 1.563159 1_555
O18 P5 1.572677 1_555
O19 P1 1.520750 1_555
O20 P6 1.527613 1_655
O21 P6 1.559870 1_655
O22 P2 1.559870 1_555
O23 P1 1.547208 1_555
O24 P4 1.563159 1_555
O25 P1 1.583372 1_555
O27 P5 1.547208 1_554
O28 P6 1.575711 1_555
O29 P4 1.559870 1_455
O30 P3 1.563159 1_555
O31 P7 1.547208 1_556
O32 P4 1.527613 1_455
O33 P2 1.575711 1_555
O34 P4 1.575711 1_555
O35 P7 1.520750 1_555
