# generated using pymatgen
data_Ca4Al6WO16
_symmetry_space_group_name_H-M   'P 1'
_cell_length_a   7.93259138
_cell_length_b   7.86549601
_cell_length_c   7.47473785
_cell_angle_alpha   62.21562377
_cell_angle_beta   61.30941807
_cell_angle_gamma   56.47495815
_symmetry_Int_Tables_number   1
_chemical_formula_structural   Ca4Al6WO16
_chemical_formula_sum   'Ca4 Al6 W1 O16'
_cell_volume   327.92341646
_cell_formula_units_Z   1
loop_
 _symmetry_equiv_pos_site_id
 _symmetry_equiv_pos_as_xyz
  1  'x, y, z'
loop_
 _atom_site_type_symbol
 _atom_site_label
 _atom_site_symmetry_multiplicity
 _atom_site_fract_x
 _atom_site_fract_y
 _atom_site_fract_z
 _atom_site_occupancy
  Ca  Ca0  1  0.66291400  0.95013300  0.33708600  1
  Ca  Ca1  1  0.38235800  0.61764200  0.99947100  1
  Ca  Ca2  1  0.04986700  0.33708600  0.95013300  1
  Ca  Ca3  1  0.00052900  0.99947100  0.61764200  1
  Al  Al0  1  0.49499600  0.20406000  0.85518800  1
  Al  Al1  1  0.44575500  0.85518800  0.20406000  1
  Al  Al2  1  0.79594000  0.50500400  0.55424500  1
  Al  Al3  1  0.19045400  0.30954600  0.30954600  1
  Al  Al4  1  0.69045400  0.80954600  0.80954600  1
  Al  Al5  1  0.14481200  0.55424500  0.50500400  1
  W  W0  1  0.61528500  0.38471500  0.38471500  1
  O  O0  1  0.71334200  0.06766600  0.53456800  1
  O  O1  1  0.62917600  0.71280700  0.68287800  1
  O  O2  1  0.97514000  0.68287800  0.71280700  1
  O  O3  1  0.36208700  0.38537500  0.63791300  1
  O  O4  1  0.68442400  0.53456800  0.06766600  1
  O  O5  1  0.61462500  0.63791300  0.38537500  1
  O  O6  1  0.05798500  0.31704200  0.61482400  1
  O  O7  1  0.68295800  0.94201500  0.98985100  1
  O  O8  1  0.93233400  0.28665800  0.31557600  1
  O  O9  1  0.28719300  0.37082400  0.02486000  1
  O  O10  1  0.46543200  0.31557600  0.28665800  1
  O  O11  1  0.01014900  0.61482400  0.31704200  1
  O  O12  1  0.68710600  0.31289400  0.69661200  1
  O  O13  1  0.38517600  0.98985100  0.94201500  1
  O  O14  1  0.31712200  0.02486000  0.37082400  1
  O  O15  1  0.30338800  0.69661200  0.31289400  1
loop_
_geom_bond_atom_site_label_1
_geom_bond_atom_site_label_2
_geom_bond_distance
_geom_bond_site_symmetry_2
Ca0 O0 2.332649 1_565
Ca0 O10 2.332649 1_565
Ca0 O1 2.371993 1_555
Ca0 O14 2.371995 1_565
Ca0 O5 2.527401 1_555
Ca0 O11 2.552054 1_655
Ca0 O7 2.552054 1_554
Ca1 O1 2.347872 1_555
Ca1 O9 2.347876 1_556
Ca1 O4 2.358212 1_556
Ca1 O10 2.358212 1_556
Ca1 O15 2.405090 1_556
Ca1 O13 2.765271 1_555
Ca1 O11 2.765271 1_556
Ca2 O8 2.332649 1_456
Ca2 O4 2.332649 1_456
Ca2 O9 2.371988 1_556
Ca2 O2 2.371993 1_455
Ca2 O3 2.527401 1_555
Ca2 O13 2.552054 1_545
Ca2 O6 2.552054 1_555
Ca3 O2 2.347868 1_455
Ca3 O14 2.347870 1_565
Ca3 O8 2.358212 1_465
Ca3 O0 2.358212 1_465
Ca3 O12 2.405090 1_465
Ca3 O6 2.765271 1_565
Ca3 O7 2.765271 1_455
Al0 O9 1.789266 1_556
Al0 O12 1.794654 1_555
Al0 O7 1.896508 1_545
Al0 O3 1.899189 1_555
Al0 O13 2.019376 1_545
Al0 O0 2.500646 1_555
Al1 O14 1.789266 1_565
Al1 O15 1.794648 1_555
Al1 O13 1.896504 1_554
Al1 O5 1.899193 1_555
Al1 O7 2.019382 1_554
Al1 O4 2.500646 1_555
Al2 O1 1.789266 1_555
Al2 O12 1.794654 1_555
Al2 O6 1.896505 1_655
Al2 O5 1.899194 1_555
Al2 O11 2.019378 1_655
Al2 O8 2.500652 1_555
Al3 O9 1.798287 1_555
Al3 O14 1.798287 1_555
Al3 O6 2.017258 1_555
Al3 O11 2.017258 1_555
Al3 O10 2.130244 1_555
Al3 O8 2.130244 1_455
Al4 O1 1.798281 1_555
Al4 O2 1.798287 1_555
Al4 O7 2.017258 1_555
Al4 O13 2.017258 1_555
Al4 O0 2.130244 1_565
Al4 O4 2.130244 1_556
Al5 O2 1.789266 1_455
Al5 O15 1.794649 1_555
Al5 O11 1.896511 1_555
Al5 O3 1.899188 1_555
Al5 O6 2.019383 1_555
Al5 O10 2.500650 1_555
O0 W0 2.041625 1_555
O3 W0 1.990943 1_555
O4 W0 2.041625 1_555
O5 W0 1.990943 1_555
O8 W0 2.041625 1_555
O10 W0 2.041625 1_555
O12 W0 2.402264 1_555
O15 W0 2.402264 1_555
