# generated using pymatgen
data_RbB3O5
_symmetry_space_group_name_H-M   'P 1'
_cell_length_a   5.32808985
_cell_length_b   8.18909511
_cell_length_c   10.20333436
_cell_angle_alpha   90.00000000
_cell_angle_beta   90.00000000
_cell_angle_gamma   90.00000000
_symmetry_Int_Tables_number   1
_chemical_formula_structural   RbB3O5
_chemical_formula_sum   'Rb4 B12 O20'
_cell_volume   445.19427785
_cell_formula_units_Z   4
loop_
 _symmetry_equiv_pos_site_id
 _symmetry_equiv_pos_as_xyz
  1  'x, y, z'
loop_
 _atom_site_type_symbol
 _atom_site_label
 _atom_site_symmetry_multiplicity
 _atom_site_fract_x
 _atom_site_fract_y
 _atom_site_fract_z
 _atom_site_occupancy
  Rb  Rb0  1  0.49701157  0.20632579  0.86931404  1
  Rb  Rb1  1  0.50298843  0.70632579  0.63068596  1
  Rb  Rb2  1  0.00298843  0.79367421  0.36931404  1
  Rb  Rb3  1  -0.00298843  0.29367421  0.13068596  1
  B  B0  1  0.04190286  0.05975671  0.68590696  1
  B  B1  1  0.70022222  0.11289716  0.53704824  1
  B  B2  1  0.79977778  0.88710284  0.03704824  1
  B  B3  1  0.95809714  0.55975671  0.81409304  1
  B  B4  1  0.09869045  0.84667135  0.85192011  1
  B  B5  1  0.54190286  0.44024329  0.31409304  1
  B  B6  1  0.29977778  0.61289716  0.96295176  1
  B  B7  1  0.59869045  0.65332865  0.14807989  1
  B  B8  1  0.90130955  0.34667135  0.64807989  1
  B  B9  1  0.40130955  0.15332865  0.35192011  1
  B  B10  1  0.45809714  0.94024329  0.18590696  1
  B  B11  1  0.20022222  0.38710284  0.46295176  1
  O  O0  1  0.19112504  0.22939099  0.42173092  1
  O  O1  1  0.69112504  0.27060901  0.57826908  1
  O  O2  1  0.36024549  0.49937222  0.40047492  1
  O  O3  1  0.55315431  0.04991149  0.44094081  1
  O  O4  1  0.69968343  0.54632519  0.25103397  1
  O  O5  1  0.94684569  0.95008851  0.94094081  1
  O  O6  1  0.06153849  0.22160873  0.70947335  1
  O  O7  1  0.30031657  0.04632519  0.24896603  1
  O  O8  1  0.86024549  0.00062778  0.59952508  1
  O  O9  1  0.13975451  0.50062778  0.90047492  1
  O  O10  1  0.05315431  0.45008851  0.55905919  1
  O  O11  1  0.44684569  0.54991149  0.05905919  1
  O  O12  1  0.19968343  0.95367481  0.74896603  1
  O  O13  1  0.93846151  0.72160873  0.79052665  1
  O  O14  1  0.43846151  0.77839127  0.20947335  1
  O  O15  1  0.63975451  -0.00062778  0.09952508  1
  O  O16  1  0.56153849  0.27839127  0.29052665  1
  O  O17  1  0.80031657  0.45367481  0.75103397  1
  O  O18  1  0.80887496  0.72939099  0.07826908  1
  O  O19  1  0.30887496  0.77060901  0.92173092  1
loop_
_geom_bond_atom_site_label_1
_geom_bond_atom_site_label_2
_geom_bond_distance
_geom_bond_site_symmetry_2
B0 O6 1.351113 1_555
B0 O12 1.369441 1_545
B0 O8 1.395745 1_455
B1 O3 1.357081 1_555
B1 O1 1.359140 1_555
B1 O8 1.406626 1_555
B2 O5 1.357081 1_554
B2 O18 1.359140 1_555
B2 O15 1.406626 1_565
B3 O13 1.351113 1_555
B3 O17 1.369441 1_555
B3 O9 1.395745 1_655
B4 O19 1.466115 1_555
B4 O12 1.469994 1_555
B4 O13 1.473129 1_455
B4 O5 1.482161 1_455
B5 O16 1.351113 1_555
B5 O4 1.369441 1_555
B5 O2 1.395745 1_555
B6 O11 1.357081 1_556
B6 O19 1.359140 1_555
B6 O9 1.406626 1_555
B7 O18 1.466115 1_555
B7 O4 1.469994 1_555
B7 O14 1.473129 1_555
B7 O11 1.482161 1_555
B8 O1 1.466115 1_555
B8 O17 1.469994 1_555
B8 O6 1.473129 1_655
B8 O10 1.482161 1_655
B9 O0 1.466115 1_555
B9 O7 1.469994 1_555
B9 O16 1.473129 1_555
B9 O3 1.482161 1_555
B10 O14 1.351113 1_555
B10 O7 1.369441 1_565
B10 O15 1.395745 1_565
B11 O10 1.357081 1_555
B11 O0 1.359140 1_555
B11 O2 1.406626 1_555
O0 Rb3 3.188338 1_555
O1 Rb0 3.188338 1_555
O2 Rb1 2.994675 1_555
O2 Rb2 3.087526 1_555
O3 Rb2 3.268277 1_645
O3 Rb1 3.425832 1_545
O4 Rb2 2.858492 1_655
O4 Rb3 2.880662 1_655
O5 Rb0 3.268277 1_565
O5 Rb3 3.425832 1_666
O6 Rb0 2.838844 1_555
O6 Rb0 3.423841 1_455
O7 Rb3 2.858492 1_555
O7 Rb2 2.880662 1_545
O8 Rb2 2.994675 1_645
O8 Rb1 3.087526 1_545
O9 Rb3 2.994675 1_556
O9 Rb0 3.087526 1_555
O10 Rb1 3.268277 1_555
O10 Rb2 3.425832 1_555
O11 Rb3 3.268277 1_555
O11 Rb0 3.425832 1_554
O12 Rb1 2.858492 1_555
O12 Rb0 2.880662 1_565
O13 Rb1 2.838844 1_555
O13 Rb1 3.423841 1_655
O14 Rb2 2.838844 1_555
O14 Rb2 3.423841 1_655
O15 Rb0 2.994675 1_554
O15 Rb3 3.087526 1_655
O16 Rb3 2.838844 1_655
O16 Rb3 3.423841 1_555
O17 Rb0 2.858492 1_555
O17 Rb1 2.880662 1_555
O18 Rb2 3.188338 1_655
O19 Rb1 3.188338 1_555
