# generated using pymatgen
data_Li18Fe5N12
_symmetry_space_group_name_H-M   'P 1'
_cell_length_a   9.52552200
_cell_length_b   6.74113400
_cell_length_c   10.58327699
_cell_angle_alpha   72.20329266
_cell_angle_beta   90.00000000
_cell_angle_gamma   90.00000000
_symmetry_Int_Tables_number   1
_chemical_formula_structural   Li18Fe5N12
_chemical_formula_sum   'Li36 Fe10 N24'
_cell_volume   647.06199426
_cell_formula_units_Z   2
loop_
 _symmetry_equiv_pos_site_id
 _symmetry_equiv_pos_as_xyz
  1  'x, y, z'
loop_
 _atom_site_type_symbol
 _atom_site_label
 _atom_site_symmetry_multiplicity
 _atom_site_fract_x
 _atom_site_fract_y
 _atom_site_fract_z
 _atom_site_occupancy
  Li  Li0  1  0.00635000  0.66281400  0.41390300  1
  Li  Li1  1  0.50909400  0.16318100  0.41385600  1
  Li  Li2  1  0.74731500  0.16583600  0.41311500  1
  Li  Li3  1  0.98727400  0.16812300  0.41843700  1
  Li  Li4  1  0.00285600  0.50000000  0.25000000  1
  Li  Li5  1  0.24771700  0.71896400  0.39177800  1
  Li  Li6  1  0.49057800  0.67125500  0.42176200  1
  Li  Li7  1  0.46098000  0.00000000  0.25000000  1
  Li  Li8  1  0.74839300  0.00000000  0.25000000  1
  Li  Li9  1  0.03288500  0.00000000  0.25000000  1
  Li  Li10  1  0.00635000  0.33718600  0.08609700  1
  Li  Li11  1  0.24352100  0.50000000  0.25000000  1
  Li  Li12  1  0.48843400  0.50000000  0.25000000  1
  Li  Li13  1  0.50909400  0.83681900  0.08614400  1
  Li  Li14  1  0.74731500  0.83416400  0.08688500  1
  Li  Li15  1  0.98727400  0.83187700  0.08156300  1
  Li  Li16  1  0.01272600  0.16812300  0.91843700  1
  Li  Li17  1  0.24771700  0.28103600  0.10822200  1
  Li  Li18  1  0.49057800  0.32874500  0.07823800  1
  Li  Li19  1  0.50942200  0.67125500  0.92176200  1
  Li  Li20  1  0.75228300  0.71896400  0.89177800  1
  Li  Li21  1  0.99365000  0.66281400  0.91390300  1
  Li  Li22  1  0.96711500  0.00000000  0.75000000  1
  Li  Li23  1  0.25268500  0.16583600  0.91311500  1
  Li  Li24  1  0.49090600  0.16318100  0.91385600  1
  Li  Li25  1  0.51156600  0.50000000  0.75000000  1
  Li  Li26  1  0.75647900  0.50000000  0.75000000  1
  Li  Li27  1  0.99714400  0.50000000  0.75000000  1
  Li  Li28  1  0.01272600  0.83187700  0.58156300  1
  Li  Li29  1  0.25160700  0.00000000  0.75000000  1
  Li  Li30  1  0.53902000  0.00000000  0.75000000  1
  Li  Li31  1  0.50942200  0.32874500  0.57823800  1
  Li  Li32  1  0.75228300  0.28103600  0.60822200  1
  Li  Li33  1  0.99365000  0.33718600  0.58609700  1
  Li  Li34  1  0.25268500  0.83416400  0.58688500  1
  Li  Li35  1  0.49090600  0.83681900  0.58614400  1
  Fe  Fe0  1  0.24840500  0.16080100  0.41030800  1
  Fe  Fe1  1  0.74868400  0.65324900  0.42227500  1
  Fe  Fe2  1  0.24840500  0.83919900  0.08969200  1
  Fe  Fe3  1  0.74715100  0.50000000  0.25000000  1
  Fe  Fe4  1  0.25131600  0.65324900  0.92227500  1
  Fe  Fe5  1  0.74868400  0.34675100  0.07772500  1
  Fe  Fe6  1  0.25284900  0.50000000  0.75000000  1
  Fe  Fe7  1  0.75159500  0.16080100  0.91030800  1
  Fe  Fe8  1  0.25131600  0.34675100  0.57772500  1
  Fe  Fe9  1  0.75159500  0.83919900  0.58969200  1
  N  N0  1  0.85992900  0.43213000  0.40984800  1
  N  N1  1  0.12851900  0.75386200  0.22980700  1
  N  N2  1  0.36642000  0.94222200  0.42393800  1
  N  N3  1  0.63515200  0.27389000  0.23320800  1
  N  N4  1  0.85954600  0.88779900  0.43114600  1
  N  N5  1  0.12851900  0.24613800  0.27019300  1
  N  N6  1  0.36105300  0.39410700  0.42339500  1
  N  N7  1  0.63515200  0.72611000  0.26679200  1
  N  N8  1  0.85954600  0.11220100  0.06885400  1
  N  N9  1  0.14007100  0.43213000  0.90984800  1
  N  N10  1  0.36105300  0.60589300  0.07660500  1
  N  N11  1  0.63358000  0.94222200  0.92393800  1
  N  N12  1  0.85992900  0.56787000  0.09015200  1
  N  N13  1  0.14045400  0.88779900  0.93114600  1
  N  N14  1  0.36642000  0.05777800  0.07606200  1
  N  N15  1  0.63894700  0.39410700  0.92339500  1
  N  N16  1  0.87148100  0.75386200  0.72980700  1
  N  N17  1  0.14045400  0.11220100  0.56885400  1
  N  N18  1  0.36484800  0.27389000  0.73320800  1
  N  N19  1  0.63894700  0.60589300  0.57660500  1
  N  N20  1  0.87148100  0.24613800  0.77019300  1
  N  N21  1  0.14007100  0.56787000  0.59015200  1
  N  N22  1  0.36484800  0.72611000  0.76679200  1
  N  N23  1  0.63358000  0.05777800  0.57606200  1
loop_
_geom_bond_atom_site_label_1
_geom_bond_atom_site_label_2
_geom_bond_distance
_geom_bond_site_symmetry_2
Li0 N0 2.099089 1_455
Li0 N4 2.111446 1_455
Li0 N21 2.186698 1_555
Li0 N1 2.189977 1_555
Li1 N2 1.994965 1_545
Li1 N23 2.027884 1_555
Li1 N6 2.125595 1_555
Li1 N3 2.186730 1_555
Li2 N23 1.977473 1_555
Li2 N0 2.082408 1_555
Li2 N3 2.109392 1_555
Li2 N4 2.115091 1_545
Li3 N5 2.010937 1_655
Li3 N17 2.106766 1_655
Li3 N0 2.132643 1_555
Li3 N4 2.216753 1_545
Li4 N5 2.045371 1_555
Li4 N1 2.045371 1_555
Li4 N12 2.109895 1_455
Li4 N0 2.109895 1_455
Li5 N2 1.993121 1_555
Li5 N1 2.009091 1_555
Li5 N21 2.278019 1_555
Li5 N6 2.371755 1_555
Li6 N7 2.086248 1_555
Li6 N19 2.106098 1_555
Li6 N2 2.182089 1_555
Li6 N6 2.234574 1_555
Li7 N2 1.978235 1_545
Li7 N14 1.978235 1_555
Li7 N7 2.447955 1_545
Li7 N3 2.447955 1_555
Li8 N7 2.098450 1_545
Li8 N3 2.098450 1_555
Li8 N4 2.117093 1_545
Li8 N8 2.117093 1_555
Li9 N1 1.960967 1_545
Li9 N5 1.960967 1_555
Li9 N4 2.467250 1_445
Li9 N8 2.467250 1_455
Li10 N12 2.099089 1_455
Li10 N8 2.111446 1_455
Li10 N9 2.186698 1_554
Li10 N5 2.189977 1_555
Li11 N5 1.987647 1_555
Li11 N1 1.987647 1_555
Li11 N10 2.080808 1_555
Li11 N6 2.080808 1_555
Li12 N7 2.115102 1_555
Li12 N3 2.115102 1_555
Li12 N10 2.132751 1_555
Li12 N6 2.132751 1_555
Li13 N14 1.994965 1_565
Li13 N11 2.027884 1_554
Li13 N10 2.125595 1_555
Li13 N7 2.186730 1_555
Li14 N11 1.977473 1_554
Li14 N12 2.082408 1_555
Li14 N7 2.109392 1_555
Li14 N8 2.115091 1_565
Li15 N1 2.010937 1_655
Li15 N13 2.106766 1_654
Li15 N12 2.132643 1_555
Li15 N8 2.216753 1_565
Li16 N20 2.010937 1_455
Li16 N8 2.106766 1_456
Li16 N9 2.132643 1_555
Li16 N13 2.216753 1_545
Li17 N14 1.993121 1_555
Li17 N5 2.009091 1_555
Li17 N9 2.278019 1_554
Li17 N10 2.371755 1_555
Li18 N3 2.086248 1_555
Li18 N15 2.106098 1_554
Li18 N14 2.182089 1_555
Li18 N10 2.234574 1_555
Li19 N22 2.086248 1_555
Li19 N10 2.106098 1_556
Li19 N11 2.182089 1_555
Li19 N15 2.234574 1_555
Li20 N11 1.993121 1_555
Li20 N16 2.009091 1_555
Li20 N12 2.278019 1_556
Li20 N15 2.371755 1_555
Li21 N9 2.099089 1_655
Li21 N13 2.111446 1_655
Li21 N12 2.186698 1_556
Li21 N16 2.189977 1_555
Li22 N16 1.960967 1_545
Li22 N20 1.960967 1_555
Li22 N17 2.467250 1_655
Li22 N13 2.467250 1_645
Li23 N14 1.977473 1_556
Li23 N9 2.082408 1_555
Li23 N18 2.109392 1_555
Li23 N13 2.115091 1_545
Li24 N11 1.994965 1_545
Li24 N14 2.027884 1_556
Li24 N15 2.125595 1_555
Li24 N18 2.186730 1_555
Li25 N22 2.115102 1_555
Li25 N18 2.115102 1_555
Li25 N15 2.132751 1_555
Li25 N19 2.132751 1_555
Li26 N16 1.987647 1_555
Li26 N20 1.987647 1_555
Li26 N19 2.080808 1_555
Li26 N15 2.080808 1_555
Li27 N16 2.045371 1_555
Li27 N20 2.045371 1_555
Li27 N9 2.109895 1_655
Li27 N21 2.109895 1_655
Li28 N16 2.010937 1_455
Li28 N4 2.106766 1_455
Li28 N21 2.132643 1_555
Li28 N17 2.216753 1_565
Li29 N22 2.098450 1_545
Li29 N18 2.098450 1_555
Li29 N13 2.117093 1_545
Li29 N17 2.117093 1_555
Li30 N11 1.978235 1_545
Li30 N23 1.978235 1_555
Li30 N22 2.447955 1_545
Li30 N18 2.447955 1_555
Li31 N18 2.086248 1_555
Li31 N6 2.106098 1_555
Li31 N23 2.182089 1_555
Li31 N19 2.234574 1_555
Li32 N23 1.993121 1_555
Li32 N20 2.009091 1_555
Li32 N0 2.278019 1_555
Li32 N19 2.371755 1_555
Li33 N21 2.099089 1_655
Li33 N17 2.111446 1_655
Li33 N0 2.186698 1_555
Li33 N20 2.189977 1_555
Li34 N2 1.977473 1_555
Li34 N21 2.082408 1_555
Li34 N22 2.109392 1_555
Li34 N17 2.115091 1_565
Li35 N23 1.994965 1_565
Li35 N2 2.027884 1_555
Li35 N19 2.125595 1_555
Li35 N22 2.186730 1_555
Fe0 N5 1.820030 1_555
Fe0 N2 1.823656 1_545
Fe0 N17 1.908965 1_555
Fe0 N6 1.943519 1_555
Fe1 N0 1.865983 1_555
Fe1 N19 1.882436 1_555
Fe1 N7 1.903803 1_555
Fe1 N4 1.927359 1_555
Fe2 N1 1.820030 1_555
Fe2 N14 1.823656 1_565
Fe2 N13 1.908965 1_554
Fe2 N10 1.943519 1_555
Fe3 N7 1.912755 1_555
Fe3 N3 1.912755 1_555
Fe3 N0 1.937048 1_555
Fe3 N12 1.937048 1_555
Fe4 N9 1.865983 1_555
Fe4 N10 1.882436 1_556
Fe4 N22 1.903803 1_555
Fe4 N13 1.927359 1_555
Fe5 N12 1.865983 1_555
Fe5 N15 1.882436 1_554
Fe5 N3 1.903803 1_555
Fe5 N8 1.927359 1_555
Fe6 N18 1.912755 1_555
Fe6 N22 1.912755 1_555
Fe6 N21 1.937048 1_555
Fe6 N9 1.937048 1_555
Fe7 N20 1.820030 1_555
Fe7 N11 1.823656 1_545
Fe7 N8 1.908965 1_556
Fe7 N15 1.943519 1_555
Fe8 N21 1.865983 1_555
Fe8 N6 1.882436 1_555
Fe8 N18 1.903803 1_555
Fe8 N17 1.927359 1_555
Fe9 N16 1.820030 1_555
Fe9 N23 1.823656 1_565
Fe9 N4 1.908965 1_555
Fe9 N19 1.943519 1_555
