# generated using pymatgen
data_CsErS2
_symmetry_space_group_name_H-M   'P 1'
_cell_length_a   8.38632187
_cell_length_b   8.38632187
_cell_length_c   8.38632193
_cell_angle_alpha   27.88730296
_cell_angle_beta   27.88730296
_cell_angle_gamma   27.88730885
_symmetry_Int_Tables_number   1
_chemical_formula_structural   CsErS2
_chemical_formula_sum   'Cs1 Er1 S2'
_cell_volume   113.95259115
_cell_formula_units_Z   1
loop_
 _symmetry_equiv_pos_site_id
 _symmetry_equiv_pos_as_xyz
  1  'x, y, z'
loop_
 _atom_site_type_symbol
 _atom_site_label
 _atom_site_symmetry_multiplicity
 _atom_site_fract_x
 _atom_site_fract_y
 _atom_site_fract_z
 _atom_site_occupancy
  Cs  Cs0  1  0.00000000  0.00000000  -0.00000000  1
  Er  Er0  1  0.50000000  0.50000000  0.50000000  1
  S  S0  1  0.22663085  0.22663085  0.22663085  1
  S  S1  1  0.77336915  0.77336915  0.77336915  1
loop_
_geom_bond_atom_site_label_1
_geom_bond_atom_site_label_2
_geom_bond_distance
_geom_bond_site_symmetry_2
Cs0 S1 3.477605 1_445
Cs0 S0 3.477605 1_554
Cs0 S1 3.477605 1_544
Cs0 S1 3.477605 1_454
Cs0 S0 3.477605 1_545
Cs0 S0 3.477605 1_455
Er0 S0 2.746778 1_556
Er0 S1 2.746778 1_554
Er0 S0 2.746778 1_565
Er0 S0 2.746778 1_655
Er0 S1 2.746778 1_545
Er0 S1 2.746778 1_455
