# generated using pymatgen
data_KH5S2O9
_symmetry_space_group_name_H-M   'P 1'
_cell_length_a   13.46586200
_cell_length_b   7.14426755
_cell_length_c   8.38809337
_cell_angle_alpha   74.42388975
_cell_angle_beta   90.00000000
_cell_angle_gamma   90.00000000
_symmetry_Int_Tables_number   1
_chemical_formula_structural   KH5S2O9
_chemical_formula_sum   'K4 H20 S8 O36'
_cell_volume   777.32966096
_cell_formula_units_Z   4
loop_
 _symmetry_equiv_pos_site_id
 _symmetry_equiv_pos_as_xyz
  1  'x, y, z'
loop_
 _atom_site_type_symbol
 _atom_site_label
 _atom_site_symmetry_multiplicity
 _atom_site_fract_x
 _atom_site_fract_y
 _atom_site_fract_z
 _atom_site_occupancy
  K  K0  1  0.47027192  0.90462521  0.77495566  1
  K  K1  1  0.97027192  0.09537479  0.72504434  1
  K  K2  1  0.52972808  0.09537479  0.22504434  1
  K  K3  1  0.02972808  0.90462521  0.27495566  1
  H  H0  1  0.43012076  0.37616407  0.51038890  1
  H  H1  1  0.93012076  0.62383593  0.98961110  1
  H  H2  1  0.56987924  0.62383593  0.48961110  1
  H  H3  1  0.06987924  0.37616407  0.01038890  1
  H  H4  1  0.72540636  0.83979240  0.96785773  1
  H  H5  1  0.22540636  0.16020760  0.53214227  1
  H  H6  1  0.27459364  0.16020760  0.03214227  1
  H  H7  1  0.77459364  0.83979240  0.46785773  1
  H  H8  1  0.79321869  0.44546277  0.79638338  1
  H  H9  1  0.29321869  0.55453723  0.70361662  1
  H  H10  1  0.20678131  0.55453723  0.20361662  1
  H  H11  1  0.70678131  0.44546277  0.29638338  1
  H  H12  1  0.66876727  0.45730099  0.78517545  1
  H  H13  1  0.16876727  0.54269901  0.71482455  1
  H  H14  1  0.33123273  0.54269901  0.21482455  1
  H  H15  1  0.83123273  0.45730099  0.28517545  1
  H  H16  1  0.72379935  0.30389564  0.95238174  1
  H  H17  1  0.22379935  0.69610436  0.54761826  1
  H  H18  1  0.27620065  0.69610436  0.04761826  1
  H  H19  1  0.77620065  0.30389564  0.45238174  1
  S  S0  1  0.47375771  0.40035327  0.75478843  1
  S  S1  1  0.97375771  0.59964673  0.74521157  1
  S  S2  1  0.52624229  0.59964673  0.24521157  1
  S  S3  1  0.02624229  0.40035327  0.25478843  1
  S  S4  1  0.79769314  0.98699595  0.12477993  1
  S  S5  1  0.29769314  0.01300405  0.37522007  1
  S  S6  1  0.20230686  0.01300405  0.87522007  1
  S  S7  1  0.70230686  0.98699595  0.62477993  1
  O  O0  1  0.49582371  0.24649096  0.89932674  1
  O  O1  1  0.99582371  0.75350904  0.60067326  1
  O  O2  1  0.50417629  0.75350904  0.10067326  1
  O  O3  1  0.00417629  0.24649096  0.39932674  1
  O  O4  1  0.56493425  0.50297550  0.67806340  1
  O  O5  1  0.06493425  0.49702450  0.82193660  1
  O  O6  1  0.43506575  0.49702450  0.32193660  1
  O  O7  1  0.93506575  0.50297550  0.17806340  1
  O  O8  1  0.40041624  0.54031145  0.77846674  1
  O  O9  1  0.90041624  0.45968855  0.72153326  1
  O  O10  1  0.59958376  0.45968855  0.22153326  1
  O  O11  1  0.09958376  0.54031145  0.27846674  1
  O  O12  1  0.42960648  0.29613524  0.62952433  1
  O  O13  1  0.92960648  0.70386476  0.87047567  1
  O  O14  1  0.57039352  0.70386476  0.37047567  1
  O  O15  1  0.07039352  0.29613524  0.12952433  1
  O  O16  1  0.82612003  0.91687255  0.29763272  1
  O  O17  1  0.32612003  0.08312745  0.20236728  1
  O  O18  1  0.17387997  0.08312745  0.70236728  1
  O  O19  1  0.67387997  0.91687255  0.79763272  1
  O  O20  1  0.88176918  0.05537273  0.01856429  1
  O  O21  1  0.38176918  0.94462727  0.48143571  1
  O  O22  1  0.11823082  0.94462727  0.98143571  1
  O  O23  1  0.61823082  0.05537273  0.51856429  1
  O  O24  1  0.71794591  0.13301529  0.09899225  1
  O  O25  1  0.21794591  0.86698471  0.40100775  1
  O  O26  1  0.28205409  0.86698471  0.90100775  1
  O  O27  1  0.78205409  0.13301529  0.59899225  1
  O  O28  1  0.75333361  0.80361714  0.08394190  1
  O  O29  1  0.25333361  0.19638286  0.41605810  1
  O  O30  1  0.24666639  0.19638286  0.91605810  1
  O  O31  1  0.74666639  0.80361714  0.58394190  1
  O  O32  1  0.72832294  0.43169467  0.85894189  1
  O  O33  1  0.22832294  0.56830533  0.64105811  1
  O  O34  1  0.27167706  0.56830533  0.14105811  1
  O  O35  1  0.77167706  0.43169467  0.35894189  1
loop_
_geom_bond_atom_site_label_1
_geom_bond_atom_site_label_2
_geom_bond_distance
_geom_bond_site_symmetry_2
K0 O21 2.680655 1_555
K0 O2 2.693431 1_556
K0 O26 2.731547 1_555
K0 O19 2.751366 1_555
K0 O8 2.760233 1_555
K0 O12 2.789099 1_565
K0 O23 2.917340 1_565
K0 O0 2.922381 1_565
K1 O20 2.680655 1_556
K1 O3 2.693431 1_655
K1 O27 2.731547 1_555
K1 O18 2.751366 1_655
K1 O9 2.760233 1_555
K1 O13 2.789099 1_545
K1 O22 2.917340 1_645
K1 O1 2.922381 1_545
K2 O23 2.680655 1_555
K2 O0 2.693431 1_554
K2 O24 2.731547 1_555
K2 O17 2.751366 1_555
K2 O10 2.760233 1_555
K2 O14 2.789099 1_545
K2 O21 2.917340 1_545
K2 O2 2.922381 1_545
K3 O22 2.680655 1_554
K3 O1 2.693431 1_455
K3 O25 2.731547 1_555
K3 O16 2.751366 1_455
K3 O11 2.760233 1_555
K3 O15 2.789099 1_565
K3 O20 2.917340 1_465
K3 O3 2.922381 1_565
H0 O12 1.009327 1_555
H0 O6 1.586119 1_555
H1 O13 1.009327 1_555
H1 O7 1.586119 1_556
H2 O14 1.009327 1_555
H2 O4 1.586119 1_555
H3 O15 1.009327 1_555
H3 O5 1.586119 1_554
H4 O28 1.010550 1_556
H4 O19 1.549580 1_555
H5 O29 1.010550 1_555
H5 O18 1.549580 1_555
H6 O30 1.010550 1_554
H6 O17 1.549580 1_555
H7 O31 1.010550 1_555
H7 O16 1.549580 1_555
H8 O32 1.010434 1_555
H8 O9 1.566515 1_555
H9 O33 1.010434 1_555
H9 O8 1.566515 1_555
H10 O34 1.010434 1_555
H10 O11 1.566515 1_555
H11 O35 1.010434 1_555
H11 O10 1.566515 1_555
H12 O32 0.999347 1_555
H12 O4 1.646584 1_555
H13 O33 0.999347 1_555
H13 O5 1.646584 1_555
H14 O34 0.999347 1_555
H14 O6 1.646584 1_555
H15 O35 0.999347 1_555
H15 O7 1.646584 1_555
H16 O32 1.033120 1_555
H16 O24 1.484148 1_556
H17 O33 1.033120 1_555
H17 O25 1.484148 1_555
H18 O34 1.033120 1_555
H18 O26 1.484148 1_554
H19 O35 1.033120 1_555
H19 O27 1.484148 1_555
O0 S0 1.432064 1_555
O1 S1 1.432064 1_555
O2 S2 1.432064 1_555
O3 S3 1.432064 1_555
O4 S0 1.485173 1_555
O5 S1 1.485173 1_455
O6 S2 1.485173 1_555
O7 S3 1.485173 1_655
O8 S0 1.456456 1_555
O9 S1 1.456456 1_555
O10 S2 1.456456 1_555
O11 S3 1.456456 1_555
O12 S0 1.559490 1_555
O13 S1 1.559490 1_555
O14 S2 1.559490 1_555
O15 S3 1.559490 1_555
O16 S4 1.452463 1_555
O17 S5 1.452463 1_555
O18 S6 1.452463 1_555
O19 S7 1.452463 1_555
O20 S4 1.442381 1_545
O21 S5 1.442381 1_565
O22 S6 1.442381 1_565
O23 S7 1.442381 1_545
O24 S4 1.472094 1_545
O25 S5 1.472094 1_565
O26 S6 1.472094 1_565
O27 S7 1.472094 1_545
O28 S4 1.559343 1_555
O29 S5 1.559343 1_555
O30 S6 1.559343 1_555
O31 S7 1.559343 1_555
