# generated using pymatgen
data_Cs2AlP3O10
_symmetry_space_group_name_H-M   'P 1'
_cell_length_a   9.14982600
_cell_length_b   9.53760300
_cell_length_c   12.45827903
_cell_angle_alpha   85.16849556
_cell_angle_beta   90.00000000
_cell_angle_gamma   90.00000000
_symmetry_Int_Tables_number   1
_chemical_formula_structural   Cs2AlP3O10
_chemical_formula_sum   'Cs8 Al4 P12 O40'
_cell_volume   1083.33856170
_cell_formula_units_Z   4
loop_
 _symmetry_equiv_pos_site_id
 _symmetry_equiv_pos_as_xyz
  1  'x, y, z'
loop_
 _atom_site_type_symbol
 _atom_site_label
 _atom_site_symmetry_multiplicity
 _atom_site_fract_x
 _atom_site_fract_y
 _atom_site_fract_z
 _atom_site_occupancy
  Cs  Cs0  1  0.87678700  0.99684900  0.14662300  1
  Cs  Cs1  1  0.37678700  0.50315100  0.85337700  1
  Cs  Cs2  1  0.12321300  0.00315100  0.85337700  1
  Cs  Cs3  1  0.62321300  0.49684900  0.14662300  1
  Cs  Cs4  1  0.89248300  0.23805200  0.45844700  1
  Cs  Cs5  1  0.39248300  0.26194800  0.54155300  1
  Cs  Cs6  1  0.10751700  0.76194800  0.54155300  1
  Cs  Cs7  1  0.60751700  0.73805200  0.45844700  1
  Al  Al0  1  0.85102900  0.64507800  0.85289100  1
  Al  Al1  1  0.35102900  0.85492200  0.14710900  1
  Al  Al2  1  0.14897100  0.35492200  0.14710900  1
  Al  Al3  1  0.64897100  0.14507800  0.85289100  1
  P  P0  1  0.91604900  0.32228600  0.95193200  1
  P  P1  1  0.41604900  0.17771400  0.04806800  1
  P  P2  1  0.08395100  0.67771400  0.04806800  1
  P  P3  1  0.58395100  0.82228600  0.95193200  1
  P  P4  1  0.97101500  0.57696200  0.25946700  1
  P  P5  1  0.47101500  0.92303800  0.74053300  1
  P  P6  1  0.02898500  0.42303800  0.74053300  1
  P  P7  1  0.52898500  0.07696200  0.25946700  1
  P  P8  1  0.78883500  0.93315500  0.69561300  1
  P  P9  1  0.28883500  0.56684500  0.30438700  1
  P  P10  1  0.21116500  0.06684500  0.30438700  1
  P  P11  1  0.71116500  0.43315500  0.69561300  1
  O  O0  1  0.86432400  0.81612300  0.76734600  1
  O  O1  1  0.36432400  0.68387700  0.23265400  1
  O  O2  1  0.13567600  0.18387700  0.23265400  1
  O  O3  1  0.63567600  0.31612300  0.76734600  1
  O  O4  1  0.69163400  0.70306800  0.93703700  1
  O  O5  1  0.19163400  0.79693200  0.06296300  1
  O  O6  1  0.30836600  0.29693200  0.06296300  1
  O  O7  1  0.80836600  0.20306800  0.93703700  1
  O  O8  1  0.72087500  0.56879300  0.75346400  1
  O  O9  1  0.22087500  0.93120700  0.24653600  1
  O  O10  1  0.27912500  0.43120700  0.24653600  1
  O  O11  1  0.77912500  0.06879300  0.75346400  1
  O  O12  1  0.99253500  0.71737800  0.94801400  1
  O  O13  1  0.49253500  0.78262200  0.05198600  1
  O  O14  1  0.00746500  0.28262200  0.05198600  1
  O  O15  1  0.50746500  0.21737800  0.94801400  1
  O  O16  1  0.84722300  0.46811000  0.94448400  1
  O  O17  1  0.34722300  0.03189000  0.05551600  1
  O  O18  1  0.15277700  0.53189000  0.05551600  1
  O  O19  1  0.65277700  0.96811000  0.94448400  1
  O  O20  1  0.01416500  0.57341600  0.77184200  1
  O  O21  1  0.51416500  0.92658400  0.22815800  1
  O  O22  1  0.98583500  0.42658400  0.22815800  1
  O  O23  1  0.48583500  0.07341600  0.77184200  1
  O  O24  1  0.03380500  0.32032200  0.85145100  1
  O  O25  1  0.53380500  0.17967800  0.14854900  1
  O  O26  1  0.96619500  0.67967800  0.14854900  1
  O  O27  1  0.46619500  0.82032200  0.85145100  1
  O  O28  1  0.84069200  0.61042600  0.32428100  1
  O  O29  1  0.34069200  0.88957400  0.67571900  1
  O  O30  1  0.15930800  0.38957400  0.67571900  1
  O  O31  1  0.65930800  0.11042600  0.32428100  1
  O  O32  1  0.11653700  0.62106200  0.31901100  1
  O  O33  1  0.61653700  0.87893800  0.68098900  1
  O  O34  1  0.88346300  0.37893800  0.68098900  1
  O  O35  1  0.38346300  0.12106200  0.31901100  1
  O  O36  1  0.84806800  0.95122600  0.58291700  1
  O  O37  1  0.34806800  0.54877400  0.41708300  1
  O  O38  1  0.15193200  0.04877400  0.41708300  1
  O  O39  1  0.65193200  0.45122600  0.58291700  1
loop_
_geom_bond_atom_site_label_1
_geom_bond_atom_site_label_2
_geom_bond_distance
_geom_bond_site_symmetry_2
Cs0 O14 3.115645 1_665
Cs0 O26 3.131855 1_555
Cs0 O7 3.195781 1_564
Cs0 O2 3.203734 1_665
Cs0 O31 3.230441 1_565
Cs0 O19 3.276330 1_554
Cs0 O9 3.423763 1_655
Cs0 O21 3.517799 1_555
Cs0 O25 3.591204 1_565
Cs0 O5 3.654541 1_655
Cs1 O15 3.115645 1_555
Cs1 O27 3.131855 1_555
Cs1 O6 3.195781 1_556
Cs1 O3 3.203734 1_555
Cs1 O30 3.230441 1_555
Cs1 O18 3.276330 1_556
Cs1 O8 3.423763 1_555
Cs1 O20 3.517799 1_555
Cs1 O24 3.591204 1_555
Cs1 O4 3.654541 1_555
Cs2 O12 3.115645 1_445
Cs2 O24 3.131855 1_555
Cs2 O5 3.195781 1_546
Cs2 O0 3.203734 1_445
Cs2 O29 3.230441 1_545
Cs2 O17 3.276330 1_556
Cs2 O11 3.423763 1_455
Cs2 O23 3.517799 1_555
Cs2 O27 3.591204 1_545
Cs2 O7 3.654541 1_455
Cs3 O13 3.115645 1_555
Cs3 O25 3.131855 1_555
Cs3 O4 3.195781 1_554
Cs3 O1 3.203734 1_555
Cs3 O28 3.230441 1_555
Cs3 O16 3.276330 1_554
Cs3 O10 3.423763 1_555
Cs3 O22 3.517799 1_555
Cs3 O26 3.591204 1_555
Cs3 O6 3.654541 1_555
Cs4 O31 3.028221 1_555
Cs4 O38 3.052325 1_655
Cs4 O36 3.055956 1_545
Cs4 O34 3.182238 1_555
Cs4 O22 3.365273 1_555
Cs4 O39 3.451650 1_555
Cs5 O30 3.028221 1_555
Cs5 O39 3.052325 1_555
Cs5 O37 3.055956 1_555
Cs5 O35 3.182238 1_555
Cs5 O23 3.365273 1_555
Cs5 O38 3.451650 1_555
Cs6 O29 3.028221 1_555
Cs6 O36 3.052325 1_455
Cs6 O38 3.055956 1_565
Cs6 O32 3.182238 1_555
Cs6 O20 3.365273 1_555
Cs6 O37 3.451650 1_555
Cs7 O28 3.028221 1_555
Cs7 O37 3.052325 1_555
Cs7 O39 3.055956 1_555
Cs7 O33 3.182238 1_555
Cs7 O21 3.365273 1_555
Cs7 O36 3.451650 1_555
Al0 O0 1.875918 1_555
Al0 O4 1.905144 1_555
Al0 O8 1.906238 1_555
Al0 O12 1.921963 1_555
Al0 O16 1.956452 1_555
Al0 O20 1.957297 1_655
Al1 O1 1.875918 1_555
Al1 O5 1.905144 1_555
Al1 O9 1.906238 1_555
Al1 O13 1.921963 1_555
Al1 O17 1.956452 1_565
Al1 O21 1.957297 1_555
Al2 O2 1.875918 1_555
Al2 O6 1.905144 1_555
Al2 O10 1.906238 1_555
Al2 O14 1.921963 1_555
Al2 O18 1.956452 1_555
Al2 O22 1.957297 1_455
Al3 O3 1.875918 1_555
Al3 O7 1.905144 1_555
Al3 O11 1.906238 1_555
Al3 O15 1.921963 1_555
Al3 O19 1.956452 1_545
Al3 O23 1.957297 1_555
O0 P8 1.534147 1_555
O1 P9 1.534147 1_555
O2 P10 1.534147 1_555
O3 P11 1.534147 1_555
O4 P3 1.527628 1_555
O5 P2 1.527628 1_555
O6 P1 1.527628 1_555
O7 P0 1.527628 1_555
O8 P11 1.535564 1_555
O9 P10 1.535564 1_565
O10 P9 1.535564 1_555
O11 P8 1.535564 1_545
O12 P2 1.522194 1_656
O13 P3 1.522194 1_554
O14 P0 1.522194 1_454
O15 P1 1.522194 1_556
O16 P0 1.522435 1_555
O17 P1 1.522435 1_555
O18 P2 1.522435 1_555
O19 P3 1.522435 1_555
O20 P6 1.523755 1_555
O21 P7 1.523755 1_565
O22 P4 1.523755 1_555
O23 P5 1.523755 1_545
O24 P6 1.625776 1_555
O24 P0 1.652951 1_455
O25 P7 1.625776 1_555
O25 P1 1.652951 1_555
O26 P4 1.625776 1_555
O26 P2 1.652951 1_655
O27 P5 1.625776 1_555
O27 P3 1.652951 1_555
O28 P4 1.489693 1_555
O29 P5 1.489693 1_555
O30 P6 1.489693 1_555
O31 P7 1.489693 1_555
O32 P4 1.597703 1_455
O32 P9 1.673857 1_555
O33 P5 1.597703 1_555
O33 P8 1.673857 1_555
O34 P6 1.597703 1_655
O34 P11 1.673857 1_555
O35 P7 1.597703 1_555
O35 P10 1.673857 1_555
O36 P8 1.501295 1_555
O37 P9 1.501295 1_555
O38 P10 1.501295 1_555
O39 P11 1.501295 1_555
