# generated using pymatgen
data_SbAs3(Se2F3)2
_symmetry_space_group_name_H-M   'P 1'
_cell_length_a   9.97960300
_cell_length_b   6.45269700
_cell_length_c   10.77324510
_cell_angle_alpha   87.64149053
_cell_angle_beta   90.00000000
_cell_angle_gamma   90.00000000
_symmetry_Int_Tables_number   1
_chemical_formula_structural   SbAs3(Se2F3)2
_chemical_formula_sum   'Sb2 As6 Se8 F12'
_cell_volume   693.15925716
_cell_formula_units_Z   2
loop_
 _symmetry_equiv_pos_site_id
 _symmetry_equiv_pos_as_xyz
  1  'x, y, z'
loop_
 _atom_site_type_symbol
 _atom_site_label
 _atom_site_symmetry_multiplicity
 _atom_site_fract_x
 _atom_site_fract_y
 _atom_site_fract_z
 _atom_site_occupancy
  Sb  Sb0  1  0.75000000  0.49905900  0.83257200  1
  Sb  Sb1  1  0.25000000  0.50094100  0.16742800  1
  As  As0  1  0.25000000  0.05855700  0.51750400  1
  As  As1  1  0.12401900  0.97393800  0.84457900  1
  As  As2  1  0.62401900  0.02606200  0.15542100  1
  As  As3  1  0.75000000  0.94144300  0.48249600  1
  As  As4  1  0.87598100  0.02606200  0.15542100  1
  As  As5  1  0.37598100  0.97393800  0.84457900  1
  Se  Se0  1  0.06578900  0.13630600  0.65258500  1
  Se  Se1  1  0.43421100  0.13630600  0.65258500  1
  Se  Se2  1  0.75000000  0.34056300  0.22569700  1
  Se  Se3  1  0.25000000  0.65943700  0.77430300  1
  Se  Se4  1  0.56578900  0.86369400  0.34741500  1
  Se  Se5  1  0.75000000  0.31427500  0.44268700  1
  Se  Se6  1  0.93421100  0.86369400  0.34741500  1
  Se  Se7  1  0.25000000  0.68572500  0.55731300  1
  F  F0  1  0.75000000  0.27700300  0.71719900  1
  F  F1  1  0.61522600  0.35190400  0.92935900  1
  F  F2  1  0.38662800  0.36109400  0.26453100  1
  F  F3  1  0.75000000  0.71770200  0.94856600  1
  F  F4  1  0.11337200  0.36109400  0.26453100  1
  F  F5  1  0.25000000  0.28229800  0.05143400  1
  F  F6  1  0.11522600  0.64809600  0.07064100  1
  F  F7  1  0.61337200  0.63890600  0.73546900  1
  F  F8  1  0.88662800  0.63890600  0.73546900  1
  F  F9  1  0.88477400  0.35190400  0.92935900  1
  F  F10  1  0.38477400  0.64809600  0.07064100  1
  F  F11  1  0.25000000  0.72299700  0.28280100  1
loop_
_geom_bond_atom_site_label_1
_geom_bond_atom_site_label_2
_geom_bond_distance
_geom_bond_site_symmetry_2
As0 Se0 2.410209 1_555
As0 Se1 2.410209 1_555
As0 Se7 2.426263 1_545
As1 Se0 2.352722 1_565
As1 As5 2.514481 1_555
As1 Se3 2.529564 1_555
As2 Se4 2.352722 1_545
As2 As4 2.514481 1_555
As2 Se2 2.529564 1_555
As3 Se4 2.410209 1_555
As3 Se6 2.410209 1_555
As3 Se5 2.426263 1_565
As4 Se6 2.352722 1_545
As4 Se2 2.529564 1_555
As5 Se1 2.352722 1_565
As5 Se3 2.529564 1_555
Se2 Se5 2.336860 1_555
Se3 Se7 2.336860 1_555
F0 Sb0 1.935090 1_555
F1 Sb0 1.927795 1_555
F2 Sb1 1.920959 1_555
F3 Sb0 1.922796 1_555
F4 Sb1 1.920959 1_555
F5 Sb1 1.922796 1_555
F6 Sb1 1.927795 1_555
F7 Sb0 1.920959 1_555
F8 Sb0 1.920959 1_555
F9 Sb0 1.927795 1_555
F10 Sb1 1.927795 1_555
F11 Sb1 1.935090 1_555
