# generated using pymatgen
data_AsSe
_symmetry_space_group_name_H-M   'P 1'
_cell_length_a   6.91857494
_cell_length_b   9.84752116
_cell_length_c   14.38513039
_cell_angle_alpha   90.00000000
_cell_angle_beta   90.00000000
_cell_angle_gamma   107.01839947
_symmetry_Int_Tables_number   1
_chemical_formula_structural   AsSe
_chemical_formula_sum   'As16 Se16'
_cell_volume   937.15413751
_cell_formula_units_Z   16
loop_
 _symmetry_equiv_pos_site_id
 _symmetry_equiv_pos_as_xyz
  1  'x, y, z'
loop_
 _atom_site_type_symbol
 _atom_site_label
 _atom_site_symmetry_multiplicity
 _atom_site_fract_x
 _atom_site_fract_y
 _atom_site_fract_z
 _atom_site_occupancy
  As  As0  1  0.23807038  0.88079823  0.00998016  1
  As  As1  1  0.26192962  0.61920177  0.50998016  1
  As  As2  1  0.76192962  0.11920177  0.99001984  1
  As  As3  1  0.73807038  0.38079823  0.49001984  1
  As  As4  1  0.11703954  0.57507448  0.85743640  1
  As  As5  1  0.38296046  0.92492552  0.35743640  1
  As  As6  1  0.88296046  0.42492552  0.14256360  1
  As  As7  1  0.61703954  0.07507448  0.64256360  1
  As  As8  1  0.81314718  0.67523114  0.87371632  1
  As  As9  1  0.68685282  0.82476886  0.37371632  1
  As  As10  1  0.18685282  0.32476886  0.12628368  1
  As  As11  1  0.31314718  0.17523114  0.62628368  1
  As  As12  1  0.27420332  0.95639554  0.83654562  1
  As  As13  1  0.22579668  0.54360446  0.33654562  1
  As  As14  1  0.72579668  0.04360446  0.16345438  1
  As  As15  1  0.77420332  0.45639554  0.66345438  1
  Se  Se0  1  0.29529206  0.65360513  -0.00087072  1
  Se  Se1  1  0.20470794  0.84639487  0.49912928  1
  Se  Se2  1  0.70470794  0.34639487  0.00087072  1
  Se  Se3  1  0.79529206  0.15360513  0.50087072  1
  Se  Se4  1  0.88005052  0.78505051  0.02298441  1
  Se  Se5  1  0.61994948  0.71494949  0.52298441  1
  Se  Se6  1  0.11994948  0.21494949  0.97701559  1
  Se  Se7  1  0.38005052  0.28505051  0.47701559  1
  Se  Se8  1  0.34017862  0.75600478  0.76562638  1
  Se  Se9  1  0.15982138  0.74399522  0.26562638  1
  Se  Se10  1  0.65982138  0.24399522  0.23437362  1
  Se  Se11  1  0.84017862  0.25600478  0.73437362  1
  Se  Se12  1  0.93009579  0.89218779  0.78890981  1
  Se  Se13  1  0.56990421  0.60781221  0.28890981  1
  Se  Se14  1  0.06990421  0.10781221  0.21109019  1
  Se  Se15  1  0.43009579  0.39218779  0.71109019  1
loop_
_geom_bond_atom_site_label_1
_geom_bond_atom_site_label_2
_geom_bond_distance
_geom_bond_site_symmetry_2
As0 Se4 2.385871 1_455
As0 Se0 2.388519 1_555
As0 As12 2.594644 1_554
As1 Se5 2.385871 1_555
As1 Se1 2.388519 1_555
As1 As13 2.594644 1_555
As2 Se6 2.385871 1_655
As2 Se2 2.388519 1_556
As3 Se7 2.385871 1_555
As3 Se3 2.388519 1_555
As4 Se8 2.385789 1_555
As4 Se0 2.390657 1_556
As4 As8 2.581082 1_455
As5 Se9 2.385789 1_555
As5 Se1 2.390657 1_555
As5 As9 2.581082 1_555
As6 Se10 2.385789 1_555
As6 Se2 2.390657 1_555
As7 Se11 2.385789 1_555
As7 Se3 2.390657 1_555
As8 Se12 2.386553 1_555
As8 Se4 2.387763 1_556
As9 Se13 2.386553 1_555
As9 Se5 2.387763 1_555
As10 Se14 2.386553 1_555
As10 Se6 2.387763 1_554
As10 As6 2.581082 1_455
As11 Se15 2.386553 1_555
As11 Se7 2.387763 1_555
As11 As7 2.581082 1_555
As12 Se12 2.378256 1_455
As12 Se8 2.381281 1_555
As13 Se13 2.378256 1_555
As13 Se9 2.381281 1_555
As14 Se14 2.378256 1_655
As14 Se10 2.381281 1_555
As14 As2 2.594644 1_554
As15 Se15 2.378256 1_555
As15 Se11 2.381281 1_555
As15 As3 2.594644 1_555
