# generated using pymatgen
data_Nd5As4(ClO4)3
_symmetry_space_group_name_H-M   'P 1'
_cell_length_a   5.44127742
_cell_length_b   10.27690974
_cell_length_c   16.90226344
_cell_angle_alpha   55.99952330
_cell_angle_beta   90.00000000
_cell_angle_gamma   90.00000000
_symmetry_Int_Tables_number   1
_chemical_formula_structural   Nd5As4(ClO4)3
_chemical_formula_sum   'Nd10 As8 Cl6 O24'
_cell_volume   783.57406557
_cell_formula_units_Z   2
loop_
 _symmetry_equiv_pos_site_id
 _symmetry_equiv_pos_as_xyz
  1  'x, y, z'
loop_
 _atom_site_type_symbol
 _atom_site_label
 _atom_site_symmetry_multiplicity
 _atom_site_fract_x
 _atom_site_fract_y
 _atom_site_fract_z
 _atom_site_occupancy
  Nd  Nd0  1  0.76307057  0.49534847  0.58531938  1
  Nd  Nd1  1  0.74420606  0.84126476  0.96661493  1
  Nd  Nd2  1  0.23692943  0.49534847  0.08531938  1
  Nd  Nd3  1  0.70978869  0.50000000  0.25000000  1
  Nd  Nd4  1  0.74420606  0.15873524  0.53338507  1
  Nd  Nd5  1  0.25579394  0.15873524  0.03338507  1
  Nd  Nd6  1  0.23692943  0.50465153  0.41468062  1
  Nd  Nd7  1  0.29021131  0.50000000  0.75000000  1
  Nd  Nd8  1  0.76307057  0.50465153  0.91468062  1
  Nd  Nd9  1  0.25579394  0.84126476  0.46661493  1
  As  As0  1  0.26125856  0.22866404  0.36203649  1
  As  As1  1  0.73874144  0.22866404  0.86203649  1
  As  As2  1  0.76325801  0.75826783  0.35008554  1
  As  As3  1  0.73874144  0.77133596  0.63796351  1
  As  As4  1  0.23674199  0.75826783  0.85008554  1
  As  As5  1  0.23674199  0.24173217  0.64991446  1
  As  As6  1  0.76325801  0.24173217  0.14991446  1
  As  As7  1  0.26125856  0.77133596  0.13796351  1
  Cl  Cl0  1  0.75427942  0.99414088  0.08219632  1
  Cl  Cl1  1  0.75427942  0.00585912  0.41780368  1
  Cl  Cl2  1  0.74583644  -0.00000000  0.75000000  1
  Cl  Cl3  1  0.25416356  -0.00000000  0.25000000  1
  Cl  Cl4  1  0.24572058  0.99414088  0.58219632  1
  Cl  Cl5  1  0.24572058  0.00585912  0.91780368  1
  O  O0  1  0.48691502  0.32522231  0.56424408  1
  O  O1  1  -0.00067976  0.31363760  0.05574638  1
  O  O2  1  0.00067976  0.31363760  0.55574638  1
  O  O3  1  0.51308498  0.32522231  0.06424408  1
  O  O4  1  0.65510713  0.63815915  0.75706173  1
  O  O5  1  0.17757235  0.59260204  0.84615240  1
  O  O6  1  0.00753924  0.68064327  0.12063955  1
  O  O7  1  0.99246076  0.68064327  0.62063955  1
  O  O8  1  0.00067976  0.68636240  0.94425362  1
  O  O9  1  0.82242765  0.59260204  0.34615240  1
  O  O10  1  0.34489287  0.36184085  0.24293827  1
  O  O11  1  0.99246076  0.31935673  0.87936045  1
  O  O12  1  0.00753924  0.31935673  0.37936045  1
  O  O13  1  -0.00067976  0.68636240  0.44425362  1
  O  O14  1  0.51496486  0.69119369  0.59680684  1
  O  O15  1  0.48691502  0.67477769  0.93575592  1
  O  O16  1  0.48503514  0.30880631  0.40319316  1
  O  O17  1  0.65510713  0.36184085  0.74293827  1
  O  O18  1  0.51308498  0.67477769  0.43575592  1
  O  O19  1  0.17757235  0.40739796  0.65384760  1
  O  O20  1  0.34489287  0.63815915  0.25706173  1
  O  O21  1  0.82242765  0.40739796  0.15384760  1
  O  O22  1  0.51496486  0.30880631  0.90319316  1
  O  O23  1  0.48503514  0.69119369  0.09680684  1
loop_
_geom_bond_atom_site_label_1
_geom_bond_atom_site_label_2
_geom_bond_distance
_geom_bond_site_symmetry_2
Nd0 O17 2.288462 1_555
Nd0 O13 2.440563 1_655
Nd0 O19 2.464673 1_655
Nd0 O0 2.477532 1_555
Nd0 O14 2.519561 1_555
Nd0 O18 2.535285 1_555
Nd0 O2 2.540210 1_655
Nd0 O7 2.609974 1_555
Nd1 O8 2.301632 1_655
Nd1 O23 2.326808 1_556
Nd1 O15 2.481439 1_555
Nd1 O6 2.597931 1_656
Nd2 O10 2.288462 1_555
Nd2 O8 2.440563 1_554
Nd2 O21 2.464673 1_455
Nd2 O3 2.477532 1_555
Nd2 O23 2.519561 1_555
Nd2 O15 2.535285 1_554
Nd2 O1 2.540210 1_555
Nd2 O6 2.609974 1_555
Nd3 O21 2.377460 1_555
Nd3 O9 2.377460 1_555
Nd3 O20 2.482330 1_555
Nd3 O10 2.482330 1_555
Nd3 O12 2.512428 1_655
Nd3 O6 2.512428 1_655
Nd3 O16 2.524048 1_555
Nd3 O23 2.524048 1_555
Nd4 O2 2.301632 1_655
Nd4 O16 2.326808 1_555
Nd4 O0 2.481439 1_555
Nd4 O12 2.597931 1_655
Nd5 O1 2.301632 1_555
Nd5 O22 2.326808 1_554
Nd5 O3 2.481439 1_555
Nd5 O11 2.597931 1_454
Nd6 O20 2.288462 1_555
Nd6 O2 2.440563 1_555
Nd6 O9 2.464673 1_455
Nd6 O18 2.477532 1_555
Nd6 O16 2.519561 1_555
Nd6 O0 2.535285 1_555
Nd6 O13 2.540210 1_555
Nd6 O12 2.609974 1_555
Nd7 O19 2.377460 1_555
Nd7 O5 2.377460 1_555
Nd7 O17 2.482330 1_555
Nd7 O4 2.482330 1_555
Nd7 O7 2.512428 1_455
Nd7 O11 2.512428 1_455
Nd7 O14 2.524048 1_555
Nd7 O22 2.524048 1_555
Nd8 O4 2.288462 1_555
Nd8 O1 2.440563 1_656
Nd8 O5 2.464673 1_655
Nd8 O15 2.477532 1_555
Nd8 O22 2.519561 1_555
Nd8 O3 2.535285 1_556
Nd8 O8 2.540210 1_655
Nd8 O11 2.609974 1_555
Nd9 O13 2.301632 1_555
Nd9 O14 2.326808 1_555
Nd9 O18 2.481439 1_555
Nd9 O7 2.597931 1_455
As0 O10 1.746781 1_555
As0 O12 1.779215 1_555
As0 O16 1.812638 1_555
As0 Nd9 3.332457 1_545
As1 O17 1.746781 1_555
As1 O11 1.779215 1_555
As1 O22 1.812638 1_555
As1 Nd1 3.332457 1_545
As2 O9 1.770106 1_555
As2 O18 1.815617 1_555
As2 O13 1.847670 1_655
As3 O4 1.746781 1_555
As3 O7 1.779215 1_555
As3 O14 1.812638 1_555
As3 Nd4 3.332457 1_565
As4 O5 1.770106 1_555
As4 O15 1.815617 1_555
As4 O8 1.847670 1_555
As5 O19 1.770106 1_555
As5 O0 1.815617 1_555
As5 O2 1.847670 1_555
As6 O21 1.770106 1_555
As6 O3 1.815617 1_555
As6 O1 1.847670 1_655
As7 O20 1.746781 1_555
As7 O6 1.779215 1_555
As7 O23 1.812638 1_555
As7 Nd5 3.332457 1_565
Cl0 Nd5 3.055852 1_565
Cl0 Nd5 3.070491 1_665
Cl0 Nd1 3.117774 1_554
Cl1 Nd9 3.055852 1_545
Cl1 Nd9 3.070491 1_645
Cl1 Nd4 3.117774 1_555
Cl2 Nd1 3.063722 1_545
Cl2 Nd4 3.063722 1_555
Cl3 Nd9 3.063722 1_545
Cl3 Nd5 3.063722 1_555
Cl4 Nd4 3.055852 1_565
Cl4 Nd4 3.070491 1_465
Cl4 Nd9 3.117774 1_555
Cl5 Nd1 3.055852 1_545
Cl5 Nd1 3.070491 1_445
Cl5 Nd5 3.117774 1_556
