# generated using pymatgen
data_Ba5Ru2Br2O9
_symmetry_space_group_name_H-M   'P 1'
_cell_length_a   5.93661577
_cell_length_b   5.93661577
_cell_length_c   25.92824800
_cell_angle_alpha   90.00000000
_cell_angle_beta   90.00000000
_cell_angle_gamma   119.99999741
_symmetry_Int_Tables_number   1
_chemical_formula_structural   Ba5Ru2Br2O9
_chemical_formula_sum   'Ba10 Ru4 Br4 O18'
_cell_volume   791.37385374
_cell_formula_units_Z   2
loop_
 _symmetry_equiv_pos_site_id
 _symmetry_equiv_pos_as_xyz
  1  'x, y, z'
loop_
 _atom_site_type_symbol
 _atom_site_label
 _atom_site_symmetry_multiplicity
 _atom_site_fract_x
 _atom_site_fract_y
 _atom_site_fract_z
 _atom_site_occupancy
  Ba  Ba0  1  0.33333300  0.66666700  0.91370600  1
  Ba  Ba1  1  0.66666700  0.33333300  0.41370600  1
  Ba  Ba2  1  0.66666700  0.33333300  0.08629400  1
  Ba  Ba3  1  0.33333300  0.66666700  0.17350700  1
  Ba  Ba4  1  0.66666700  0.33333300  0.67350700  1
  Ba  Ba5  1  0.33333300  0.66666700  0.32649300  1
  Ba  Ba6  1  0.66666700  0.33333300  0.82649300  1
  Ba  Ba7  1  0.66666700  0.33333300  0.25000000  1
  Ba  Ba8  1  0.33333300  0.66666700  0.58629400  1
  Ba  Ba9  1  0.33333300  0.66666700  0.75000000  1
  Ru  Ru0  1  0.00000000  0.00000000  0.80511900  1
  Ru  Ru1  1  0.00000000  0.00000000  0.30511900  1
  Ru  Ru2  1  0.00000000  0.00000000  0.69488100  1
  Ru  Ru3  1  0.00000000  0.00000000  0.19488100  1
  Br  Br0  1  0.33333300  0.66666700  0.45401900  1
  Br  Br1  1  0.33333300  0.66666700  0.04598100  1
  Br  Br2  1  0.66666700  0.33333300  0.54598100  1
  Br  Br3  1  0.66666700  0.33333300  0.95401900  1
  O  O0  1  0.15984600  0.84015400  0.65794600  1
  O  O1  1  0.68030900  0.84015400  0.84205400  1
  O  O2  1  0.15984600  0.31969100  0.65794600  1
  O  O3  1  0.84905900  0.15094100  0.75000000  1
  O  O4  1  0.30188200  0.15094100  0.75000000  1
  O  O5  1  0.15094100  0.30188200  0.25000000  1
  O  O6  1  0.15094100  0.84905900  0.25000000  1
  O  O7  1  0.69811800  0.84905900  0.25000000  1
  O  O8  1  0.84015400  0.15984600  0.34205400  1
  O  O9  1  0.31969100  0.15984600  0.15794600  1
  O  O10  1  0.84905900  0.69811800  0.75000000  1
  O  O11  1  0.84015400  0.68030900  0.15794600  1
  O  O12  1  0.31969100  0.15984600  0.34205400  1
  O  O13  1  0.84015400  0.15984600  0.15794600  1
  O  O14  1  0.15984600  0.31969100  0.84205400  1
  O  O15  1  0.84015400  0.68030900  0.34205400  1
  O  O16  1  0.68030900  0.84015400  0.65794600  1
  O  O17  1  0.15984600  0.84015400  0.84205400  1
loop_
_geom_bond_atom_site_label_1
_geom_bond_atom_site_label_2
_geom_bond_distance
_geom_bond_site_symmetry_2
Ba0 O17 2.575597 1_555
Ba0 O14 2.575604 1_555
Ba0 O1 2.575604 1_555
Ba0 Br1 3.429659 1_556
Ba0 Br3 3.583339 1_455
Ba0 Br3 3.583339 1_565
Ba0 Br3 3.583349 1_555
Ba1 O8 2.575597 1_555
Ba1 O12 2.575604 1_555
Ba1 O15 2.575604 1_555
Ba1 Br2 3.429659 1_555
Ba1 Br0 3.583339 1_545
Ba1 Br0 3.583339 1_655
Ba1 Br0 3.583349 1_555
Ba2 O13 2.575597 1_555
Ba2 O9 2.575604 1_555
Ba2 O11 2.575604 1_555
Ba2 Br3 3.429659 1_554
Ba2 Br1 3.583339 1_545
Ba2 Br1 3.583339 1_655
Ba2 Br1 3.583349 1_555
Ba3 O6 2.729635 1_555
Ba3 O5 2.729638 1_555
Ba3 O7 2.729638 1_555
Ba3 O9 2.996424 1_565
Ba3 O11 2.996424 1_455
Ba3 O11 2.996424 1_555
Ba3 O9 2.996424 1_555
Ba3 O13 2.996424 1_565
Ba3 O13 2.996424 1_455
Ba3 Br1 3.306526 1_555
Ba4 O3 2.729635 1_555
Ba4 O4 2.729638 1_555
Ba4 O10 2.729638 1_555
Ba4 O2 2.996424 1_655
Ba4 O16 2.996424 1_545
Ba4 O2 2.996424 1_555
Ba4 O16 2.996424 1_555
Ba4 O0 2.996424 1_655
Ba4 O0 2.996424 1_545
Ba4 Br2 3.306526 1_555
Ba5 O6 2.729635 1_555
Ba5 O5 2.729638 1_555
Ba5 O7 2.729638 1_555
Ba5 O12 2.996424 1_565
Ba5 O15 2.996424 1_455
Ba5 O15 2.996424 1_555
Ba5 O12 2.996424 1_555
Ba5 O8 2.996424 1_565
Ba5 O8 2.996424 1_455
Ba5 Br0 3.306526 1_555
Ba6 O3 2.729635 1_555
Ba6 O4 2.729638 1_555
Ba6 O10 2.729638 1_555
Ba6 O14 2.996424 1_655
Ba6 O1 2.996424 1_545
Ba6 O1 2.996424 1_555
Ba6 O14 2.996424 1_555
Ba6 O17 2.996424 1_655
Ba6 O17 2.996424 1_545
Ba6 Br3 3.306526 1_555
Ba7 O5 2.972706 1_655
Ba7 O7 2.972706 1_545
Ba7 O6 2.972709 1_545
Ba7 O6 2.972709 1_655
Ba7 O7 2.972712 1_555
Ba7 O5 2.972712 1_555
Ba7 O13 2.979773 1_555
Ba7 O8 2.979773 1_555
Ba7 O9 2.979780 1_555
Ba7 O11 2.979780 1_555
Ba7 O15 2.979780 1_555
Ba7 O12 2.979780 1_555
Ba8 O0 2.575597 1_555
Ba8 O2 2.575604 1_555
Ba8 O16 2.575604 1_555
Ba8 Br0 3.429659 1_555
Ba8 Br2 3.583339 1_455
Ba8 Br2 3.583339 1_565
Ba8 Br2 3.583349 1_555
Ba9 O10 2.972706 1_455
Ba9 O4 2.972706 1_565
Ba9 O3 2.972709 1_455
Ba9 O3 2.972709 1_565
Ba9 O4 2.972712 1_555
Ba9 O10 2.972712 1_555
Ba9 O17 2.979773 1_555
Ba9 O0 2.979773 1_555
Ba9 O2 2.979780 1_555
Ba9 O14 2.979780 1_555
Ba9 O16 2.979780 1_555
Ba9 O1 2.979780 1_555
O0 Ru2 1.902261 1_565
O1 Ru0 1.902257 1_665
O2 Ru2 1.902257 1_555
O3 Ru0 2.109813 1_655
O3 Ru2 2.109813 1_655
O4 Ru2 2.109813 1_555
O4 Ru0 2.109813 1_555
O5 Ru1 2.109813 1_555
O5 Ru3 2.109813 1_555
O6 Ru1 2.109813 1_565
O6 Ru3 2.109813 1_565
O7 Ru1 2.109813 1_665
O7 Ru3 2.109813 1_665
O8 Ru1 1.902261 1_655
O9 Ru3 1.902257 1_555
O10 Ru0 2.109813 1_665
O10 Ru2 2.109813 1_665
O11 Ru3 1.902257 1_665
O12 Ru1 1.902257 1_555
O13 Ru3 1.902261 1_655
O14 Ru0 1.902257 1_555
O15 Ru1 1.902257 1_665
O16 Ru2 1.902257 1_665
O17 Ru0 1.902261 1_565
