# generated using pymatgen
data_Dy5CoSb2
_symmetry_space_group_name_H-M   'P 1'
_cell_length_a   7.90390836
_cell_length_b   8.69446351
_cell_length_c   12.18637390
_cell_angle_alpha   89.99928339
_cell_angle_beta   90.00043532
_cell_angle_gamma   90.00106716
_symmetry_Int_Tables_number   1
_chemical_formula_structural   Dy5CoSb2
_chemical_formula_sum   'Dy20 Co4 Sb8'
_cell_volume   837.45057342
_cell_formula_units_Z   4
loop_
 _symmetry_equiv_pos_site_id
 _symmetry_equiv_pos_as_xyz
  1  'x, y, z'
loop_
 _atom_site_type_symbol
 _atom_site_label
 _atom_site_symmetry_multiplicity
 _atom_site_fract_x
 _atom_site_fract_y
 _atom_site_fract_z
 _atom_site_occupancy
  Dy  Dy0  1  0.15336472  0.75003195  0.20043630  1
  Dy  Dy1  1  0.34680857  0.75002237  0.70035328  1
  Dy  Dy2  1  0.84659595  0.24995263  0.79965375  1
  Dy  Dy3  1  0.65330758  0.24996476  0.29953157  1
  Dy  Dy4  1  0.45949595  0.74999492  0.99831493  1
  Dy  Dy5  1  0.04047617  0.75000547  0.49827281  1
  Dy  Dy6  1  0.54044518  0.24999064  0.00178879  1
  Dy  Dy7  1  0.95958064  0.24999209  0.50173728  1
  Dy  Dy8  1  0.62698177  0.75003768  0.30747553  1
  Dy  Dy9  1  0.87299899  0.75003214  0.80754686  1
  Dy  Dy10  1  0.37304380  0.24996182  0.69249893  1
  Dy  Dy11  1  0.12700190  0.24997565  0.19246054  1
  Dy  Dy12  1  0.82305909  0.53048427  0.06448033  1
  Dy  Dy13  1  0.67695853  0.96951574  0.56439755  1
  Dy  Dy14  1  0.17698622  0.03055062  0.93560768  1
  Dy  Dy15  1  0.32305727  0.46955354  0.43551140  1
  Dy  Dy16  1  0.17693149  0.46943919  0.93561221  1
  Dy  Dy17  1  0.32302688  0.03045548  0.43549601  1
  Dy  Dy18  1  0.82301729  0.96952860  0.06448447  1
  Dy  Dy19  1  0.67693342  0.53048673  0.56438282  1
  Co  Co0  1  0.44346731  0.75000251  0.49149901  1
  Co  Co1  1  0.05640403  0.75000905  0.99159485  1
  Co  Co2  1  0.55644797  0.24999624  0.50841847  1
  Co  Co3  1  0.94357922  0.24999175  0.00847208  1
  Sb  Sb0  1  0.93195060  0.50640099  0.32671771  1
  Sb  Sb1  1  0.56810025  0.99352693  0.82677225  1
  Sb  Sb2  1  0.06813884  0.00644497  0.67327545  1
  Sb  Sb3  1  0.43180420  0.49358974  0.17322846  1
  Sb  Sb4  1  0.06809781  0.49355351  0.67328581  1
  Sb  Sb5  1  0.43179243  0.00646389  0.17321699  1
  Sb  Sb6  1  0.93198528  0.99364431  0.32668118  1
  Sb  Sb7  1  0.56816067  0.50639977  0.82679474  1
loop_
_geom_bond_atom_site_label_1
_geom_bond_atom_site_label_2
_geom_bond_distance
_geom_bond_site_symmetry_2
Dy0 Sb6 3.148820 1_455
Dy0 Sb0 3.149229 1_455
Dy0 Sb5 3.150177 1_565
Dy0 Sb3 3.150354 1_555
Dy1 Sb1 3.148785 1_555
Dy1 Sb7 3.149892 1_555
Dy1 Sb2 3.151329 1_565
Dy1 Sb4 3.151775 1_555
Dy2 Sb2 3.149721 1_655
Dy2 Sb4 3.149954 1_655
Dy2 Sb7 3.150276 1_555
Dy2 Sb1 3.150385 1_545
Dy3 Sb5 3.149123 1_555
Dy3 Sb3 3.149746 1_555
Dy3 Sb6 3.150837 1_545
Dy3 Sb0 3.151352 1_555
Dy4 Sb3 3.092108 1_556
Dy4 Sb5 3.092463 1_566
Dy4 Sb1 3.096791 1_555
Dy4 Sb7 3.097172 1_555
Dy5 Sb2 3.093092 1_565
Dy5 Sb4 3.093202 1_555
Dy5 Sb0 3.097179 1_455
Dy5 Sb6 3.097594 1_455
Dy6 Sb7 3.092823 1_554
Dy6 Sb1 3.093364 1_544
Dy6 Sb5 3.095925 1_555
Dy6 Sb3 3.096481 1_555
Dy7 Sb6 3.092929 1_545
Dy7 Sb0 3.092992 1_555
Dy7 Sb2 3.096756 1_655
Dy7 Sb4 3.096850 1_655
Dy8 Sb5 3.166643 1_565
Dy8 Sb3 3.166646 1_555
Dy8 Sb6 3.217485 1_555
Dy8 Sb0 3.217539 1_555
Dy9 Sb2 3.166423 1_665
Dy9 Sb4 3.166672 1_655
Dy9 Sb1 3.216304 1_555
Dy9 Sb7 3.216690 1_555
Dy10 Sb1 3.166277 1_545
Dy10 Sb7 3.166659 1_555
Dy10 Sb2 3.216403 1_555
Dy10 Sb4 3.217121 1_555
Dy11 Sb6 3.165130 1_445
Dy11 Sb0 3.166138 1_455
Dy11 Sb5 3.215776 1_555
Dy11 Sb3 3.216358 1_555
Dy12 Sb0 3.316201 1_555
Dy12 Sb3 3.379703 1_555
Dy12 Sb7 3.534489 1_554
Dy13 Sb1 3.317723 1_555
Dy13 Sb2 3.379797 1_665
Dy13 Sb6 3.535418 1_555
Dy14 Sb2 3.317239 1_555
Dy14 Sb1 3.379222 1_545
Dy14 Sb5 3.533313 1_556
Dy15 Sb3 3.316424 1_555
Dy15 Sb0 3.378802 1_455
Dy15 Sb4 3.535637 1_555
Dy16 Sb4 3.317145 1_555
Dy16 Sb7 3.379903 1_555
Dy16 Sb3 3.533715 1_556
Dy17 Sb5 3.316399 1_555
Dy17 Sb6 3.378395 1_445
Dy17 Sb2 3.535362 1_555
Dy18 Sb6 3.315901 1_555
Dy18 Sb5 3.379459 1_565
Dy18 Sb1 3.534794 1_554
Dy19 Sb7 3.318020 1_555
Dy19 Sb4 3.379813 1_655
Dy19 Sb0 3.534850 1_555
Co0 Dy1 2.657371 1_555
Co0 Dy8 2.670788 1_555
Co0 Dy15 2.704954 1_555
Co0 Dy17 2.705134 1_565
Co0 Dy19 2.799411 1_555
Co0 Dy13 2.799552 1_555
Co0 Dy5 3.186275 1_555
Co1 Dy0 2.657897 1_556
Co1 Dy9 2.670550 1_455
Co1 Dy14 2.706146 1_565
Co1 Dy16 2.706249 1_555
Co1 Dy12 2.798802 1_456
Co1 Dy18 2.799067 1_456
Co1 Dy4 3.187053 1_555
Co2 Dy3 2.658209 1_555
Co2 Dy10 2.670897 1_555
Co2 Dy19 2.705418 1_555
Co2 Dy13 2.705471 1_545
Co2 Dy15 2.799355 1_555
Co2 Dy17 2.799443 1_555
Co2 Dy7 3.187364 1_555
Co3 Dy2 2.657679 1_554
Co3 Dy11 2.670017 1_655
Co3 Dy18 2.705553 1_545
Co3 Dy12 2.705701 1_555
Co3 Dy16 2.798283 1_654
Co3 Dy14 2.798610 1_654
Co3 Dy6 3.187375 1_555
