# generated using pymatgen
data_ZrNCl
_symmetry_space_group_name_H-M   'P 1'
_cell_length_a   9.73152996
_cell_length_b   9.73153004
_cell_length_c   9.73152956
_cell_angle_alpha   21.41792582
_cell_angle_beta   21.41791685
_cell_angle_gamma   21.41793297
_symmetry_Int_Tables_number   1
_chemical_formula_structural   ZrNCl
_chemical_formula_sum   'Zr2 N2 Cl2'
_cell_volume   107.66776975
_cell_formula_units_Z   2
loop_
 _symmetry_equiv_pos_site_id
 _symmetry_equiv_pos_as_xyz
  1  'x, y, z'
loop_
 _atom_site_type_symbol
 _atom_site_label
 _atom_site_symmetry_multiplicity
 _atom_site_fract_x
 _atom_site_fract_y
 _atom_site_fract_z
 _atom_site_occupancy
  Zr  Zr0  1  0.12072310  0.12072310  0.12072310  1
  Zr  Zr1  1  0.87927690  0.87927690  0.87927690  1
  N  N0  1  0.19676308  0.19676308  0.19676308  1
  N  N1  1  0.80323792  0.80323792  0.80323792  1
  Cl  Cl0  1  0.39082161  0.39082161  0.39082161  1
  Cl  Cl1  1  0.60917839  0.60917839  0.60917839  1
loop_
_geom_bond_atom_site_label_1
_geom_bond_atom_site_label_2
_geom_bond_distance
_geom_bond_site_symmetry_2
N0 Zr1 2.136398 1_445
N0 Zr1 2.136399 1_544
N0 Zr1 2.136400 1_454
N0 Zr0 2.168252 1_555
N1 Zr0 2.136404 1_665
N1 Zr0 2.136405 1_566
N1 Zr0 2.136406 1_656
N1 Zr1 2.168223 1_555
Cl0 Zr0 2.758847 1_556
Cl0 Zr0 2.758848 1_655
Cl0 Zr0 2.758848 1_565
Cl1 Zr1 2.758847 1_554
Cl1 Zr1 2.758848 1_455
Cl1 Zr1 2.758848 1_545
