# generated using pymatgen
data_Sm3RuO7
_symmetry_space_group_name_H-M   'P 1'
_cell_length_a   6.51117963
_cell_length_b   6.51117963
_cell_length_c   7.46006972
_cell_angle_alpha   90.00000000
_cell_angle_beta   90.00000000
_cell_angle_gamma   111.59133278
_symmetry_Int_Tables_number   1
_chemical_formula_structural   Sm3RuO7
_chemical_formula_sum   'Sm6 Ru2 O14'
_cell_volume   294.08089004
_cell_formula_units_Z   2
loop_
 _symmetry_equiv_pos_site_id
 _symmetry_equiv_pos_as_xyz
  1  'x, y, z'
loop_
 _atom_site_type_symbol
 _atom_site_label
 _atom_site_symmetry_multiplicity
 _atom_site_fract_x
 _atom_site_fract_y
 _atom_site_fract_z
 _atom_site_occupancy
  Sm  Sm0  1  0.47127891  0.91511261  0.75000000  1
  Sm  Sm1  1  0.52872109  0.08488739  0.25000000  1
  Sm  Sm2  1  0.91511261  0.47127891  0.75000000  1
  Sm  Sm3  1  0.08488739  0.52872109  0.25000000  1
  Sm  Sm4  1  -0.00000000  -0.00000000  0.50000000  1
  Sm  Sm5  1  -0.00000000  -0.00000000  0.00000000  1
  Ru  Ru0  1  0.50000000  0.50000000  0.50000000  1
  Ru  Ru1  1  0.50000000  0.50000000  0.00000000  1
  O  O0  1  0.58516988  0.58516988  0.75000000  1
  O  O1  1  0.41483012  0.41483012  0.25000000  1
  O  O2  1  0.84055619  0.10384521  0.75000000  1
  O  O3  1  0.15944381  0.89615479  0.25000000  1
  O  O4  1  0.10384521  0.84055619  0.75000000  1
  O  O5  1  0.89615479  0.15944381  0.25000000  1
  O  O6  1  0.44016951  0.18738873  0.95926028  1
  O  O7  1  0.55983049  0.81261127  0.45926028  1
  O  O8  1  0.18738873  0.44016951  0.95926028  1
  O  O9  1  0.81261127  0.55983049  0.45926028  1
  O  O10  1  0.44016951  0.18738873  0.54073972  1
  O  O11  1  0.55983049  0.81261127  0.04073972  1
  O  O12  1  0.81261127  0.55983049  0.04073972  1
  O  O13  1  0.18738873  0.44016951  0.54073972  1
loop_
_geom_bond_atom_site_label_1
_geom_bond_atom_site_label_2
_geom_bond_distance
_geom_bond_site_symmetry_2
O0 Ru0 1.966474 1_555
O0 Ru1 1.966474 1_556
O0 Sm0 2.517472 1_555
O0 Sm2 2.517472 1_555
O1 Ru1 1.966474 1_555
O1 Ru0 1.966474 1_555
O1 Sm3 2.517472 1_555
O1 Sm1 2.517472 1_555
O2 Sm2 2.259339 1_555
O2 Sm0 2.262039 1_545
O2 Sm4 2.351571 1_655
O2 Sm5 2.351571 1_656
O3 Sm3 2.259339 1_555
O3 Sm1 2.262039 1_565
O3 Sm5 2.351571 1_565
O3 Sm4 2.351571 1_565
O4 Sm0 2.259339 1_555
O4 Sm2 2.262039 1_455
O4 Sm5 2.351571 1_566
O4 Sm4 2.351571 1_565
O5 Sm1 2.259339 1_555
O5 Sm3 2.262039 1_655
O5 Sm5 2.351571 1_655
O5 Sm4 2.351571 1_655
O6 Ru1 1.950301 1_556
O6 Sm1 2.401118 1_556
O6 Sm0 2.425963 1_545
O6 Sm5 2.687294 1_556
O7 Ru0 1.950301 1_555
O7 Sm0 2.401118 1_555
O7 Sm1 2.425963 1_565
O7 Sm4 2.687294 1_665
O8 Ru1 1.950301 1_556
O8 Sm3 2.401118 1_556
O8 Sm2 2.425963 1_455
O8 Sm5 2.687294 1_556
O9 Ru0 1.950301 1_555
O9 Sm2 2.401118 1_555
O9 Sm3 2.425963 1_655
O9 Sm4 2.687294 1_665
O10 Ru0 1.950301 1_555
O10 Sm1 2.401118 1_555
O10 Sm0 2.425963 1_545
O10 Sm4 2.687294 1_555
O11 Ru1 1.950301 1_555
O11 Sm0 2.401118 1_554
O11 Sm1 2.425963 1_565
O11 Sm5 2.687294 1_665
O12 Ru1 1.950301 1_555
O12 Sm2 2.401118 1_554
O12 Sm3 2.425963 1_655
O12 Sm5 2.687294 1_665
O13 Ru0 1.950301 1_555
O13 Sm3 2.401118 1_555
O13 Sm2 2.425963 1_455
O13 Sm4 2.687294 1_555
