# generated using pymatgen
data_Ba3Y(BO2)9
_symmetry_space_group_name_H-M   'P 1'
_cell_length_a   7.28584401
_cell_length_b   7.28584401
_cell_length_c   17.43704500
_cell_angle_alpha   90.00000000
_cell_angle_beta   90.00000000
_cell_angle_gamma   120.00000006
_symmetry_Int_Tables_number   1
_chemical_formula_structural   Ba3Y(BO2)9
_chemical_formula_sum   'Ba6 Y2 B18 O36'
_cell_volume   801.61024101
_cell_formula_units_Z   2
loop_
 _symmetry_equiv_pos_site_id
 _symmetry_equiv_pos_as_xyz
  1  'x, y, z'
loop_
 _atom_site_type_symbol
 _atom_site_label
 _atom_site_symmetry_multiplicity
 _atom_site_fract_x
 _atom_site_fract_y
 _atom_site_fract_z
 _atom_site_occupancy
  Ba  Ba0  1  0.66666700  0.33333300  0.36762600  1
  Ba  Ba1  1  0.00000000  0.00000000  0.25000000  1
  Ba  Ba2  1  0.33333300  0.66666700  0.63237400  1
  Ba  Ba3  1  0.33333300  0.66666700  0.86762600  1
  Ba  Ba4  1  0.00000000  0.00000000  0.75000000  1
  Ba  Ba5  1  0.66666700  0.33333300  0.13237400  1
  Y  Y0  1  0.00000000  0.00000000  0.00000000  1
  Y  Y1  1  0.00000000  0.00000000  0.50000000  1
  B  B0  1  0.44999700  0.28447500  0.91812700  1
  B  B1  1  0.28447500  0.83447800  0.41812700  1
  B  B2  1  0.71552500  0.16552200  0.58187300  1
  B  B3  1  0.55000300  0.71552500  0.08187300  1
  B  B4  1  0.62164800  0.50425600  0.75000000  1
  B  B5  1  0.49574400  0.11739200  0.75000000  1
  B  B6  1  0.83447800  0.55000300  0.91812700  1
  B  B7  1  0.83447800  0.55000300  0.58187300  1
  B  B8  1  0.16552200  0.44999700  0.08187300  1
  B  B9  1  0.28447500  0.83447800  0.08187300  1
  B  B10  1  0.16552200  0.44999700  0.41812700  1
  B  B11  1  0.55000300  0.71552500  0.41812700  1
  B  B12  1  0.37835200  0.49574400  0.25000000  1
  B  B13  1  0.88260800  0.37835200  0.75000000  1
  B  B14  1  0.44999700  0.28447500  0.58187300  1
  B  B15  1  0.71552500  0.16552200  0.91812700  1
  B  B16  1  0.11739200  0.62164800  0.25000000  1
  B  B17  1  0.50425600  0.88260800  0.25000000  1
  O  O0  1  0.25054600  0.24518900  0.58099100  1
  O  O1  1  0.49610700  0.87646300  0.41804700  1
  O  O2  1  0.49610700  0.87646300  0.08195300  1
  O  O3  1  0.99464400  0.74945400  0.58099100  1
  O  O4  1  0.75481100  0.00535600  0.91900900  1
  O  O5  1  0.24518900  0.99464400  0.41900900  1
  O  O6  1  0.33346300  0.91985200  0.75000000  1
  O  O7  1  0.00535600  0.25054600  0.08099100  1
  O  O8  1  0.38035700  0.50389300  0.41804700  1
  O  O9  1  0.16766100  0.45822200  0.25000000  1
  O  O10  1  0.50389300  0.12353700  0.91804700  1
  O  O11  1  0.41361200  0.33346300  0.25000000  1
  O  O12  1  0.75481100  0.00535600  0.58099100  1
  O  O13  1  0.08014800  0.41361200  0.75000000  1
  O  O14  1  0.24518900  0.99464400  0.08099100  1
  O  O15  1  0.87646300  0.38035700  0.91804700  1
  O  O16  1  0.61964300  0.49610700  0.91804700  1
  O  O17  1  0.00535600  0.25054600  0.41900900  1
  O  O18  1  0.29056100  0.83233900  0.25000000  1
  O  O19  1  0.54177800  0.70943900  0.25000000  1
  O  O20  1  0.74945400  0.75481100  0.08099100  1
  O  O21  1  0.91985200  0.58638800  0.25000000  1
  O  O22  1  0.61964300  0.49610700  0.58195300  1
  O  O23  1  0.87646300  0.38035700  0.58195300  1
  O  O24  1  0.83233900  0.54177800  0.75000000  1
  O  O25  1  0.50389300  0.12353700  0.58195300  1
  O  O26  1  0.66653700  0.08014800  0.25000000  1
  O  O27  1  0.74945400  0.75481100  0.41900900  1
  O  O28  1  0.12353700  0.61964300  0.41804700  1
  O  O29  1  0.70943900  0.16766100  0.75000000  1
  O  O30  1  0.45822200  0.29056100  0.75000000  1
  O  O31  1  0.38035700  0.50389300  0.08195300  1
  O  O32  1  0.99464400  0.74945400  0.91900900  1
  O  O33  1  0.58638800  0.66653700  0.75000000  1
  O  O34  1  0.12353700  0.61964300  0.08195300  1
  O  O35  1  0.25054600  0.24518900  0.91900900  1
loop_
_geom_bond_atom_site_label_1
_geom_bond_atom_site_label_2
_geom_bond_distance
_geom_bond_site_symmetry_2
Ba0 O21 2.758234 1_555
Ba0 O26 2.758234 1_555
Ba0 O11 2.758234 1_555
Ba0 O17 2.957061 1_655
Ba0 O5 2.957070 1_545
Ba0 O27 2.957075 1_555
Ba0 O28 3.043170 1_655
Ba0 O1 3.043170 1_545
Ba0 O8 3.043170 1_555
Ba1 O26 2.768119 1_455
Ba1 O11 2.768124 1_555
Ba1 O21 2.768126 1_445
Ba1 O19 2.925715 1_445
Ba1 O9 2.925715 1_555
Ba1 O18 2.925715 1_545
Ba2 O13 2.758234 1_555
Ba2 O6 2.758234 1_555
Ba2 O33 2.758234 1_555
Ba2 O3 2.957061 1_455
Ba2 O12 2.957070 1_565
Ba2 O0 2.957075 1_555
Ba2 O23 3.043170 1_455
Ba2 O25 3.043170 1_565
Ba2 O22 3.043170 1_555
Ba3 O13 2.758234 1_555
Ba3 O6 2.758234 1_555
Ba3 O33 2.758234 1_555
Ba3 O32 2.957061 1_455
Ba3 O4 2.957070 1_565
Ba3 O35 2.957075 1_555
Ba3 O15 3.043170 1_455
Ba3 O10 3.043170 1_565
Ba3 O16 3.043170 1_555
Ba4 O6 2.768119 1_545
Ba4 O33 2.768124 1_445
Ba4 O13 2.768126 1_555
Ba4 O30 2.925715 1_555
Ba4 O24 2.925715 1_445
Ba4 O29 2.925715 1_455
Ba5 O21 2.758234 1_555
Ba5 O26 2.758234 1_555
Ba5 O11 2.758234 1_555
Ba5 O7 2.957061 1_655
Ba5 O14 2.957070 1_545
Ba5 O20 2.957075 1_555
Ba5 O34 3.043170 1_655
Ba5 O2 3.043170 1_545
Ba5 O31 3.043170 1_555
B0 O35 1.333387 1_555
B0 O10 1.410517 1_555
B0 O16 1.414005 1_555
B1 O5 1.333395 1_555
B1 O28 1.410522 1_555
B1 O1 1.414008 1_555
B2 O12 1.333395 1_555
B2 O23 1.410522 1_555
B2 O25 1.414008 1_555
B3 O20 1.333387 1_555
B3 O2 1.410517 1_555
B3 O31 1.414005 1_555
B4 O33 1.329550 1_555
B4 O30 1.409962 1_555
B4 O24 1.418272 1_555
B5 O6 1.329545 1_545
B5 O29 1.409962 1_555
B5 O30 1.418272 1_555
B6 O32 1.333390 1_555
B6 O16 1.410524 1_555
B6 O15 1.414001 1_555
B7 O3 1.333390 1_555
B7 O22 1.410524 1_555
B7 O23 1.414001 1_555
B8 O7 1.333390 1_555
B8 O31 1.410524 1_555
B8 O34 1.414001 1_555
B9 O14 1.333395 1_555
B9 O34 1.410522 1_555
B9 O2 1.414008 1_555
B10 O17 1.333390 1_555
B10 O8 1.410524 1_555
B10 O28 1.414001 1_555
B11 O27 1.333387 1_555
B11 O1 1.410517 1_555
B11 O8 1.414005 1_555
B12 O11 1.329550 1_555
B12 O19 1.409962 1_555
B12 O9 1.418272 1_555
B13 O13 1.329543 1_655
B13 O24 1.409962 1_555
B13 O29 1.418272 1_555
B14 O0 1.333387 1_555
B14 O25 1.410517 1_555
B14 O22 1.414005 1_555
B15 O4 1.333395 1_555
B15 O15 1.410522 1_555
B15 O10 1.414008 1_555
B16 O21 1.329543 1_455
B16 O9 1.409962 1_555
B16 O18 1.418272 1_555
B17 O26 1.329545 1_565
B17 O18 1.409962 1_555
B17 O19 1.418272 1_555
O0 Y1 2.292801 1_555
O3 Y1 2.292804 1_665
O4 Y0 2.292798 1_656
O5 Y1 2.292798 1_565
O7 Y0 2.292804 1_555
O12 Y1 2.292798 1_655
O14 Y0 2.292798 1_565
O17 Y1 2.292804 1_555
O20 Y0 2.292801 1_665
O27 Y1 2.292801 1_665
O32 Y0 2.292804 1_666
O35 Y0 2.292801 1_556
