# generated using pymatgen
data_Na10(Ga2Sn)3
_symmetry_space_group_name_H-M   'P 1'
_cell_length_a   14.64147600
_cell_length_b   14.64147600
_cell_length_c   9.04263800
_cell_angle_alpha   90.00000000
_cell_angle_beta   90.00000000
_cell_angle_gamma   90.00000000
_symmetry_Int_Tables_number   1
_chemical_formula_structural   Na10(Ga2Sn)3
_chemical_formula_sum   'Na40 Ga24 Sn12'
_cell_volume   1938.49580340
_cell_formula_units_Z   4
loop_
 _symmetry_equiv_pos_site_id
 _symmetry_equiv_pos_as_xyz
  1  'x, y, z'
loop_
 _atom_site_type_symbol
 _atom_site_label
 _atom_site_symmetry_multiplicity
 _atom_site_fract_x
 _atom_site_fract_y
 _atom_site_fract_z
 _atom_site_occupancy
  Na  Na0  1  0.77627400  0.50669300  0.30735900  1
  Na  Na1  1  0.58986100  0.58986100  0.50000000  1
  Na  Na2  1  0.81504900  0.63347900  0.00000000  1
  Na  Na3  1  0.36652100  0.18495100  0.00000000  1
  Na  Na4  1  0.77627400  0.50669300  0.69264100  1
  Na  Na5  1  0.22372600  0.49330700  0.69264100  1
  Na  Na6  1  0.63347900  0.81504900  0.00000000  1
  Na  Na7  1  0.73584700  0.26415300  0.18417000  1
  Na  Na8  1  0.49330700  0.22372600  0.69264100  1
  Na  Na9  1  0.31504900  0.86652100  0.50000000  1
  Na  Na10  1  0.91013900  0.08986100  0.00000000  1
  Na  Na11  1  0.26415300  0.73584700  0.81583000  1
  Na  Na12  1  0.76415300  0.76415300  0.68417000  1
  Na  Na13  1  0.99330700  0.27627400  0.80735900  1
  Na  Na14  1  0.27627400  0.99330700  0.19264100  1
  Na  Na15  1  0.68495100  0.13347900  0.50000000  1
  Na  Na16  1  0.73584700  0.26415300  0.81583000  1
  Na  Na17  1  0.50669300  0.77627400  0.69264100  1
  Na  Na18  1  0.49330700  0.22372600  0.30735900  1
  Na  Na19  1  0.72372600  0.00669300  0.80735900  1
  Na  Na20  1  0.41013900  0.41013900  0.50000000  1
  Na  Na21  1  0.23584700  0.23584700  0.31583000  1
  Na  Na22  1  0.18495100  0.36652100  0.00000000  1
  Na  Na23  1  0.00000000  0.50000000  0.25000000  1
  Na  Na24  1  0.27627400  0.99330700  0.80735900  1
  Na  Na25  1  0.50669300  0.77627400  0.30735900  1
  Na  Na26  1  0.99330700  0.27627400  0.19264100  1
  Na  Na27  1  0.00669300  0.72372600  0.19264100  1
  Na  Na28  1  0.26415300  0.73584700  0.18417000  1
  Na  Na29  1  0.22372600  0.49330700  0.30735900  1
  Na  Na30  1  0.00669300  0.72372600  0.80735900  1
  Na  Na31  1  0.13347900  0.68495100  0.50000000  1
  Na  Na32  1  0.86652100  0.31504900  0.50000000  1
  Na  Na33  1  0.76415300  0.76415300  0.31583000  1
  Na  Na34  1  0.08986100  0.91013900  0.00000000  1
  Na  Na35  1  0.00000000  0.50000000  0.75000000  1
  Na  Na36  1  0.23584700  0.23584700  0.68417000  1
  Na  Na37  1  0.72372600  0.00669300  0.19264100  1
  Na  Na38  1  0.50000000  0.00000000  0.75000000  1
  Na  Na39  1  0.50000000  0.00000000  0.25000000  1
  Ga  Ga0  1  0.06539000  0.06539000  0.25958600  1
  Ga  Ga1  1  0.61048400  0.61048400  0.15093500  1
  Ga  Ga2  1  0.88951600  0.11048400  0.65093500  1
  Ga  Ga3  1  0.56539000  0.43461000  0.75958600  1
  Ga  Ga4  1  0.38951600  0.38951600  0.84906500  1
  Ga  Ga5  1  0.88951600  0.11048400  0.34906500  1
  Ga  Ga6  1  0.95821800  0.82473100  0.50000000  1
  Ga  Ga7  1  0.17526900  0.04178200  0.50000000  1
  Ga  Ga8  1  0.32473100  0.54178200  0.00000000  1
  Ga  Ga9  1  0.56539000  0.43461000  0.24041400  1
  Ga  Ga10  1  0.38951600  0.38951600  0.15093500  1
  Ga  Ga11  1  0.11048400  0.88951600  0.65093500  1
  Ga  Ga12  1  0.54178200  0.32473100  0.00000000  1
  Ga  Ga13  1  0.04178200  0.17526900  0.50000000  1
  Ga  Ga14  1  0.45821800  0.67526900  0.00000000  1
  Ga  Ga15  1  0.93461000  0.93461000  0.74041400  1
  Ga  Ga16  1  0.93461000  0.93461000  0.25958600  1
  Ga  Ga17  1  0.43461000  0.56539000  0.75958600  1
  Ga  Ga18  1  0.11048400  0.88951600  0.34906500  1
  Ga  Ga19  1  0.67526900  0.45821800  0.00000000  1
  Ga  Ga20  1  0.82473100  0.95821800  0.50000000  1
  Ga  Ga21  1  0.43461000  0.56539000  0.24041400  1
  Ga  Ga22  1  0.06539000  0.06539000  0.74041400  1
  Ga  Ga23  1  0.61048400  0.61048400  0.84906500  1
  Sn  Sn0  1  0.35922000  0.08507400  0.50000000  1
  Sn  Sn1  1  0.85922000  0.41492600  0.00000000  1
  Sn  Sn2  1  0.14209500  0.14209500  0.00000000  1
  Sn  Sn3  1  0.08507400  0.35922000  0.50000000  1
  Sn  Sn4  1  0.14078000  0.58507400  0.00000000  1
  Sn  Sn5  1  0.85790500  0.85790500  0.00000000  1
  Sn  Sn6  1  0.41492600  0.85922000  0.00000000  1
  Sn  Sn7  1  0.64078000  0.91492600  0.50000000  1
  Sn  Sn8  1  0.35790500  0.64209500  0.50000000  1
  Sn  Sn9  1  0.64209500  0.35790500  0.50000000  1
  Sn  Sn10  1  0.58507400  0.14078000  0.00000000  1
  Sn  Sn11  1  0.91492600  0.64078000  0.50000000  1
loop_
_geom_bond_atom_site_label_1
_geom_bond_atom_site_label_2
_geom_bond_distance
_geom_bond_site_symmetry_2
Na0 Sn1 3.317360 1_555
Na0 Na23 3.317936 1_655
Na0 Sn11 3.318127 1_555
Na0 Na2 3.390132 1_555
Na0 Sn9 3.411720 1_555
Na0 Na1 3.459294 1_555
Na0 Na4 3.483966 1_555
Na0 Na32 3.557222 1_555
Na0 Na7 3.768537 1_555
Na0 Na33 3.774547 1_555
Na1 Na25 3.459294 1_555
Na1 Na17 3.459294 1_555
Na1 Na4 3.459294 1_555
Na1 Sn9 3.481224 1_555
Na1 Sn8 3.481224 1_555
Na1 Na20 3.721355 1_555
Na1 Na33 3.974645 1_555
Na1 Na12 3.974645 1_555
Na2 Sn1 3.264638 1_555
Na2 Sn5 3.345302 1_555
Na2 Na4 3.390132 1_554
Na2 Na33 3.517421 1_555
Na2 Na27 3.557222 1_655
Na2 Na30 3.557222 1_654
Na3 Sn10 3.264638 1_555
Na3 Sn2 3.345302 1_555
Na3 Na8 3.390132 1_554
Na3 Na36 3.517421 1_554
Na4 Sn1 3.317360 1_556
Na4 Sn11 3.318127 1_555
Na4 Sn9 3.411720 1_555
Na5 Sn4 3.317360 1_556
Na5 Sn3 3.318127 1_555
Na5 Sn8 3.411720 1_555
Na6 Sn6 3.264638 1_555
Na6 Sn5 3.345302 1_555
Na7 Sn10 3.302980 1_555
Na7 Sn1 3.302980 1_555
Na7 Sn9 3.453231 1_555
Na8 Sn10 3.317360 1_556
Na8 Sn0 3.318127 1_555
Na8 Sn9 3.411720 1_555
Na9 Sn0 3.264638 1_565
Na9 Sn8 3.345302 1_555
Na10 Na26 3.459294 1_555
Na10 Na37 3.459294 1_555
Na10 Na13 3.459294 1_554
Na10 Na19 3.459294 1_554
Na10 Sn5 3.481224 1_545
Na10 Sn2 3.481224 1_655
Na10 Na34 3.721355 1_645
Na10 Na16 3.974645 1_554
Na10 Na7 3.974645 1_555
Na11 Sn4 3.302980 1_556
Na11 Sn6 3.302980 1_556
Na11 Na28 3.330765 1_556
Na11 Sn8 3.453231 1_555
Na11 Na31 3.517421 1_555
Na11 Na9 3.517421 1_555
Na11 Na5 3.768537 1_555
Na11 Na17 3.768537 1_555
Na11 Na30 3.774547 1_555
Na11 Na24 3.774547 1_555
Na11 Na34 3.974645 1_556
Na12 Sn7 3.302980 1_555
Na12 Sn11 3.302980 1_555
Na12 Na33 3.330765 1_555
Na12 Sn5 3.453231 1_556
Na12 Na2 3.517421 1_556
Na12 Na6 3.517421 1_556
Na12 Na30 3.768537 1_655
Na12 Na19 3.768537 1_565
Na12 Na4 3.774547 1_555
Na12 Na17 3.774547 1_555
Na13 Sn3 3.317360 1_655
Na13 Na35 3.317936 1_655
Na13 Sn1 3.318127 1_556
Na13 Na32 3.390132 1_555
Na13 Sn2 3.411720 1_656
Na13 Na26 3.483966 1_556
Na13 Na22 3.557222 1_656
Na13 Na36 3.768537 1_655
Na13 Na16 3.774547 1_555
Na14 Sn0 3.317360 1_565
Na14 Na39 3.317936 1_565
Na14 Sn6 3.318127 1_555
Na14 Na9 3.390132 1_555
Na14 Sn2 3.411720 1_565
Na14 Na34 3.459294 1_555
Na14 Na24 3.483966 1_554
Na14 Na3 3.557222 1_565
Na14 Na21 3.768537 1_565
Na14 Na28 3.774547 1_555
Na15 Sn7 3.264638 1_545
Na15 Sn9 3.345302 1_555
Na15 Na19 3.390132 1_555
Na15 Na37 3.390132 1_555
Na15 Na7 3.517421 1_555
Na15 Na16 3.517421 1_555
Na15 Na8 3.557222 1_555
Na15 Na18 3.557222 1_555
Na16 Sn10 3.302980 1_556
Na16 Sn1 3.302980 1_556
Na16 Na7 3.330765 1_556
Na16 Sn9 3.453231 1_555
Na16 Na32 3.517421 1_555
Na16 Na8 3.768537 1_555
Na16 Na4 3.768537 1_555
Na16 Na19 3.774547 1_555
Na17 Sn6 3.317360 1_556
Na17 Na38 3.317936 1_565
Na17 Sn7 3.318127 1_555
Na17 Na6 3.390132 1_556
Na17 Sn8 3.411720 1_555
Na17 Na25 3.483966 1_555
Na17 Na9 3.557222 1_555
Na18 Sn10 3.317360 1_555
Na18 Na39 3.317936 1_555
Na18 Sn0 3.318127 1_555
Na18 Na3 3.390132 1_555
Na18 Sn9 3.411720 1_555
Na18 Na20 3.459294 1_555
Na18 Na8 3.483966 1_555
Na18 Na7 3.768537 1_555
Na18 Na21 3.774547 1_555
Na19 Sn7 3.317360 1_545
Na19 Na38 3.317936 1_555
Na19 Sn10 3.318127 1_556
Na19 Sn5 3.411720 1_546
Na19 Na37 3.483966 1_556
Na19 Na6 3.557222 1_546
Na20 Na8 3.459294 1_555
Na20 Na5 3.459294 1_555
Na20 Na29 3.459294 1_555
Na20 Sn9 3.481224 1_555
Na20 Sn8 3.481224 1_555
Na20 Na36 3.974645 1_555
Na20 Na21 3.974645 1_555
Na21 Sn0 3.302980 1_555
Na21 Sn3 3.302980 1_555
Na21 Na36 3.330765 1_555
Na21 Sn2 3.453231 1_555
Na21 Na22 3.517421 1_555
Na21 Na3 3.517421 1_555
Na21 Na26 3.768537 1_455
Na21 Na29 3.774547 1_555
Na22 Sn4 3.264638 1_555
Na22 Sn2 3.345302 1_555
Na22 Na5 3.390132 1_554
Na22 Na29 3.390132 1_555
Na22 Na36 3.517421 1_554
Na22 Na26 3.557222 1_455
Na23 Sn3 3.303147 1_555
Na23 Sn4 3.303147 1_555
Na23 Sn1 3.303147 1_455
Na23 Sn11 3.303147 1_455
Na23 Na29 3.317936 1_555
Na23 Na27 3.317936 1_555
Na23 Na26 3.317936 1_455
Na24 Sn0 3.317360 1_565
Na24 Na38 3.317936 1_565
Na24 Sn6 3.318127 1_556
Na24 Na9 3.390132 1_555
Na24 Sn2 3.411720 1_566
Na24 Na34 3.459294 1_556
Na24 Na3 3.557222 1_566
Na24 Na36 3.768537 1_565
Na25 Sn6 3.317360 1_555
Na25 Na39 3.317936 1_565
Na25 Sn7 3.318127 1_555
Na25 Na6 3.390132 1_555
Na25 Sn8 3.411720 1_555
Na25 Na9 3.557222 1_555
Na25 Na28 3.768537 1_555
Na25 Na33 3.774547 1_555
Na26 Sn3 3.317360 1_655
Na26 Sn1 3.318127 1_555
Na26 Na32 3.390132 1_555
Na26 Sn2 3.411720 1_655
Na26 Na7 3.774547 1_555
Na27 Sn11 3.317360 1_455
Na27 Sn4 3.318127 1_555
Na27 Na31 3.390132 1_555
Na27 Sn5 3.411720 1_455
Na27 Na34 3.459294 1_555
Na27 Na30 3.483966 1_554
Na27 Na33 3.768537 1_455
Na27 Na28 3.774547 1_555
Na28 Sn4 3.302980 1_555
Na28 Sn6 3.302980 1_555
Na28 Sn8 3.453231 1_555
Na28 Na31 3.517421 1_555
Na28 Na9 3.517421 1_555
Na28 Na29 3.768537 1_555
Na28 Na34 3.974645 1_555
Na29 Sn4 3.317360 1_555
Na29 Sn3 3.318127 1_555
Na29 Sn8 3.411720 1_555
Na29 Na5 3.483966 1_555
Na29 Na31 3.557222 1_555
Na30 Sn11 3.317360 1_455
Na30 Na35 3.317936 1_555
Na30 Sn4 3.318127 1_556
Na30 Na31 3.390132 1_555
Na30 Sn5 3.411720 1_456
Na30 Na34 3.459294 1_556
Na31 Sn11 3.264638 1_455
Na31 Sn8 3.345302 1_555
Na31 Na5 3.557222 1_555
Na32 Sn3 3.264638 1_655
Na32 Sn9 3.345302 1_555
Na32 Na7 3.517421 1_555
Na32 Na4 3.557222 1_555
Na33 Sn7 3.302980 1_555
Na33 Sn11 3.302980 1_555
Na33 Sn5 3.453231 1_555
Na33 Na6 3.517421 1_555
Na33 Na37 3.768537 1_565
Na34 Sn5 3.481224 1_455
Na34 Sn2 3.481224 1_565
Na35 Sn3 3.303147 1_555
Na35 Sn4 3.303147 1_556
Na35 Sn1 3.303147 1_456
Na35 Sn11 3.303147 1_455
Na35 Na5 3.317936 1_555
Na35 Na4 3.317936 1_455
Na36 Sn0 3.302980 1_555
Na36 Sn3 3.302980 1_555
Na36 Sn2 3.453231 1_556
Na36 Na8 3.774547 1_555
Na36 Na5 3.774547 1_555
Na37 Sn7 3.317360 1_545
Na37 Na39 3.317936 1_555
Na37 Sn10 3.318127 1_555
Na37 Sn5 3.411720 1_545
Na37 Na6 3.557222 1_545
Na37 Na7 3.774547 1_555
Na38 Sn0 3.303147 1_555
Na38 Sn10 3.303147 1_556
Na38 Sn6 3.303147 1_546
Na38 Sn7 3.303147 1_545
Na38 Na8 3.317936 1_555
Na39 Sn0 3.303147 1_555
Na39 Sn10 3.303147 1_555
Na39 Sn6 3.303147 1_545
Na39 Sn7 3.303147 1_545
Ga0 Ga16 2.707953 1_445
Ga0 Ga7 2.726511 1_555
Ga0 Ga13 2.726511 1_555
Ga0 Ga5 2.778761 1_455
Ga0 Ga18 2.778761 1_545
Ga0 Sn2 2.834186 1_555
Ga0 Na34 3.287155 1_545
Ga0 Na10 3.287155 1_455
Ga0 Na14 3.318725 1_545
Ga0 Na26 3.318725 1_455
Ga0 Na21 3.565968 1_555
Ga1 Ga23 2.729701 1_554
Ga1 Ga9 2.778761 1_555
Ga1 Ga21 2.778761 1_555
Ga1 Ga14 2.780788 1_555
Ga1 Ga19 2.780788 1_555
Ga1 Na1 3.185222 1_555
Ga1 Na0 3.194125 1_555
Ga1 Na25 3.194125 1_555
Ga1 Na2 3.308624 1_555
Ga1 Na6 3.308624 1_555
Ga1 Na33 3.513944 1_555
Ga2 Ga5 2.729701 1_555
Ga2 Ga22 2.778761 1_655
Ga2 Ga20 2.780788 1_545
Ga2 Na10 3.185222 1_556
Ga2 Na13 3.194125 1_555
Ga2 Na19 3.194125 1_555
Ga2 Na32 3.308624 1_555
Ga2 Na15 3.308624 1_555
Ga2 Na16 3.513944 1_555
Ga3 Ga4 2.778761 1_555
Ga3 Sn9 2.834186 1_555
Ga3 Na1 3.287155 1_555
Ga3 Na20 3.287155 1_555
Ga3 Na4 3.318725 1_555
Ga3 Na8 3.318725 1_555
Ga3 Na16 3.565968 1_555
Ga4 Ga8 2.780788 1_556
Ga4 Na20 3.185222 1_555
Ga4 Na5 3.194125 1_555
Ga4 Na8 3.194125 1_555
Ga4 Na3 3.308624 1_556
Ga4 Na22 3.308624 1_556
Ga4 Na36 3.513944 1_555
Ga5 Na10 3.185222 1_555
Ga5 Na26 3.194125 1_555
Ga5 Na37 3.194125 1_555
Ga5 Na32 3.308624 1_555
Ga5 Na15 3.308624 1_555
Ga5 Na7 3.513944 1_555
Ga6 Sn11 2.766897 1_555
Ga6 Na30 3.227303 1_655
Ga6 Na27 3.227303 1_655
Ga6 Na31 3.282267 1_655
Ga6 Na12 3.410825 1_555
Ga6 Na33 3.410825 1_555
Ga7 Sn0 2.766897 1_555
Ga7 Na24 3.227303 1_545
Ga7 Na14 3.227303 1_545
Ga7 Na9 3.282267 1_545
Ga7 Na21 3.410825 1_555
Ga7 Na36 3.410825 1_555
Ga8 Sn4 2.766897 1_555
Ga8 Na5 3.227303 1_554
Ga8 Na29 3.227303 1_555
Ga8 Na22 3.282267 1_555
Ga8 Na11 3.410825 1_554
Ga8 Na28 3.410825 1_555
Ga9 Sn9 2.834186 1_555
Ga9 Na1 3.287155 1_555
Ga9 Na20 3.287155 1_555
Ga9 Na0 3.318725 1_555
Ga9 Na18 3.318725 1_555
Ga9 Na7 3.565968 1_555
Ga10 Ga4 2.729701 1_554
Ga10 Ga9 2.778761 1_555
Ga10 Ga21 2.778761 1_555
Ga10 Ga12 2.780788 1_555
Ga10 Ga8 2.780788 1_555
Ga10 Na20 3.185222 1_555
Ga10 Na29 3.194125 1_555
Ga10 Na18 3.194125 1_555
Ga10 Na22 3.308624 1_555
Ga10 Na3 3.308624 1_555
Ga10 Na21 3.513944 1_555
Ga11 Ga18 2.729701 1_555
Ga11 Ga15 2.778761 1_455
Ga11 Ga22 2.778761 1_565
Ga11 Ga7 2.780788 1_565
Ga11 Ga6 2.780788 1_455
Ga11 Na34 3.185222 1_556
Ga11 Na24 3.194125 1_555
Ga11 Na30 3.194125 1_555
Ga11 Na9 3.308624 1_555
Ga11 Na31 3.308624 1_555
Ga11 Na11 3.513944 1_555
Ga12 Ga9 2.726511 1_555
Ga12 Ga3 2.726511 1_554
Ga12 Ga19 2.764005 1_555
Ga12 Sn10 2.766897 1_555
Ga12 Ga4 2.780788 1_554
Ga12 Na18 3.227303 1_555
Ga12 Na8 3.227303 1_554
Ga12 Na3 3.282267 1_555
Ga12 Na16 3.410825 1_554
Ga12 Na7 3.410825 1_555
Ga13 Ga22 2.726511 1_555
Ga13 Ga7 2.764005 1_555
Ga13 Sn3 2.766897 1_555
Ga13 Ga2 2.780788 1_455
Ga13 Ga5 2.780788 1_455
Ga13 Na13 3.227303 1_455
Ga13 Na26 3.227303 1_455
Ga13 Na32 3.282267 1_455
Ga13 Na21 3.410825 1_555
Ga13 Na36 3.410825 1_555
Ga14 Ga21 2.726511 1_555
Ga14 Ga17 2.726511 1_554
Ga14 Ga8 2.764005 1_555
Ga14 Sn6 2.766897 1_555
Ga14 Ga23 2.780788 1_554
Ga14 Na25 3.227303 1_555
Ga14 Na17 3.227303 1_554
Ga14 Na6 3.282267 1_555
Ga14 Na11 3.410825 1_554
Ga14 Na28 3.410825 1_555
Ga15 Ga22 2.707953 1_665
Ga15 Ga20 2.726511 1_555
Ga15 Ga6 2.726511 1_555
Ga15 Ga2 2.778761 1_565
Ga15 Sn5 2.834186 1_556
Ga15 Na10 3.287155 1_566
Ga15 Na34 3.287155 1_656
Ga15 Na30 3.318725 1_655
Ga15 Na19 3.318725 1_565
Ga15 Na12 3.565968 1_555
Ga16 Ga20 2.726511 1_555
Ga16 Ga6 2.726511 1_555
Ga16 Ga5 2.778761 1_565
Ga16 Ga18 2.778761 1_655
Ga16 Sn5 2.834186 1_555
Ga16 Na10 3.287155 1_565
Ga16 Na34 3.287155 1_655
Ga16 Na37 3.318725 1_565
Ga16 Na27 3.318725 1_655
Ga16 Na33 3.565968 1_555
Ga17 Ga3 2.707953 1_555
Ga17 Ga8 2.726511 1_556
Ga17 Ga23 2.778761 1_555
Ga17 Ga4 2.778761 1_555
Ga17 Sn8 2.834186 1_555
Ga17 Na1 3.287155 1_555
Ga17 Na20 3.287155 1_555
Ga17 Na17 3.318725 1_555
Ga17 Na5 3.318725 1_555
Ga17 Na11 3.565968 1_555
Ga18 Ga7 2.780788 1_565
Ga18 Ga6 2.780788 1_455
Ga18 Na34 3.185222 1_555
Ga18 Na14 3.194125 1_555
Ga18 Na27 3.194125 1_555
Ga18 Na9 3.308624 1_555
Ga18 Na31 3.308624 1_555
Ga18 Na28 3.513944 1_555
Ga19 Ga9 2.726511 1_555
Ga19 Ga3 2.726511 1_554
Ga19 Sn1 2.766897 1_555
Ga19 Ga23 2.780788 1_554
Ga19 Na0 3.227303 1_555
Ga19 Na4 3.227303 1_554
Ga19 Na2 3.282267 1_555
Ga19 Na16 3.410825 1_554
Ga19 Na7 3.410825 1_555
Ga20 Ga6 2.764005 1_555
Ga20 Sn7 2.766897 1_555
Ga20 Ga5 2.780788 1_565
Ga20 Na19 3.227303 1_565
Ga20 Na37 3.227303 1_565
Ga20 Na15 3.282267 1_565
Ga20 Na33 3.410825 1_555
Ga20 Na12 3.410825 1_555
Ga21 Ga9 2.707953 1_555
Ga21 Ga8 2.726511 1_555
Ga21 Sn8 2.834186 1_555
Ga21 Na1 3.287155 1_555
Ga21 Na20 3.287155 1_555
Ga21 Na25 3.318725 1_555
Ga21 Na29 3.318725 1_555
Ga21 Na28 3.565968 1_555
Ga22 Ga7 2.726511 1_555
Ga22 Sn2 2.834186 1_556
Ga22 Na10 3.287155 1_456
Ga22 Na34 3.287155 1_546
Ga22 Na13 3.318725 1_455
Ga22 Na24 3.318725 1_545
Ga22 Na36 3.565968 1_555
Ga23 Ga3 2.778761 1_555
Ga23 Na1 3.185222 1_555
Ga23 Na17 3.194125 1_555
Ga23 Na4 3.194125 1_555
Ga23 Na2 3.308624 1_556
Ga23 Na6 3.308624 1_556
Ga23 Na12 3.513944 1_555
