# generated using pymatgen
data_Te(CF4)2
_symmetry_space_group_name_H-M   'P 1'
_cell_length_a   12.29744555
_cell_length_b   12.29744555
_cell_length_c   9.18492640
_cell_angle_alpha   88.31753089
_cell_angle_beta   88.31753089
_cell_angle_gamma   47.87945479
_symmetry_Int_Tables_number   1
_chemical_formula_structural   Te(CF4)2
_chemical_formula_sum   'Te6 C12 F48'
_cell_volume   1029.74643799
_cell_formula_units_Z   6
loop_
 _symmetry_equiv_pos_site_id
 _symmetry_equiv_pos_as_xyz
  1  'x, y, z'
loop_
 _atom_site_type_symbol
 _atom_site_label
 _atom_site_symmetry_multiplicity
 _atom_site_fract_x
 _atom_site_fract_y
 _atom_site_fract_z
 _atom_site_occupancy
  Te  Te0  1  0.06510300  0.93489700  0.75000000  1
  Te  Te1  1  0.35578400  0.97679300  0.42113700  1
  Te  Te2  1  0.64421600  0.02320700  0.57886300  1
  Te  Te3  1  0.02320700  0.64421600  0.07886300  1
  Te  Te4  1  0.97679300  0.35578400  0.92113700  1
  Te  Te5  1  0.93489700  0.06510300  0.25000000  1
  C  C0  1  0.43886100  0.00519100  0.21502400  1
  C  C1  1  0.25173100  0.54514700  0.13095100  1
  C  C2  1  0.15541600  0.72352500  0.64767200  1
  C  C3  1  0.72352500  0.15541600  0.14767200  1
  C  C4  1  0.54514700  0.25173100  0.63095100  1
  C  C5  1  0.27647500  0.84458400  0.85232800  1
  C  C6  1  0.56113900  0.99480900  0.78497600  1
  C  C7  1  0.45485300  0.74826900  0.36904900  1
  C  C8  1  0.00519100  0.43886100  0.71502400  1
  C  C9  1  0.74826900  0.45485300  0.86904900  1
  C  C10  1  0.99480900  0.56113900  0.28497600  1
  C  C11  1  0.84458400  0.27647500  0.35232800  1
  F  F0  1  0.95122800  0.80938500  0.21212300  1
  F  F1  1  0.90963200  0.24471100  0.48203400  1
  F  F2  1  0.69850200  0.36578100  0.37571200  1
  F  F3  1  0.55942000  0.85874300  0.50078600  1
  F  F4  1  0.63421900  0.30149800  0.12428800  1
  F  F5  1  0.04822700  0.42410200  0.26966300  1
  F  F6  1  0.42469700  0.31915700  0.71678800  1
  F  F7  1  0.68084300  0.57530300  0.78321200  1
  F  F8  1  0.49481000  0.67164700  0.49541700  1
  F  F9  1  0.65160700  0.12883600  0.23190300  1
  F  F10  1  0.15013500  0.34771300  0.68331700  1
  F  F11  1  0.30149800  0.63421900  0.62428800  1
  F  F12  1  0.43870600  0.93703900  0.10236800  1
  F  F13  1  0.94398500  0.15104200  0.06464200  1
  F  F14  1  0.05601500  0.84895800  0.93535800  1
  F  F15  1  0.50519100  0.32835300  0.50458300  1
  F  F16  1  0.32835300  0.50519000  0.00458300  1
  F  F17  1  0.42410200  0.04822700  0.76966300  1
  F  F18  1  0.56129400  0.06296100  0.89763200  1
  F  F19  1  0.12883600  0.65160700  0.73190300  1
  F  F20  1  0.04877200  0.19061500  0.78787700  1
  F  F21  1  0.36578100  0.69850200  0.87571200  1
  F  F22  1  0.44058000  0.14125700  0.49921400  1
  F  F23  1  0.24471100  0.90963200  0.98203400  1
  F  F24  1  0.09036800  0.75528900  0.51796600  1
  F  F25  1  0.34771300  0.15013500  0.18331700  1
  F  F26  1  0.87116400  0.34839300  0.26809700  1
  F  F27  1  0.25053500  0.64137600  0.19873100  1
  F  F28  1  0.65228700  0.84986500  0.81668300  1
  F  F29  1  0.35862400  0.74946500  0.30126900  1
  F  F30  1  0.31915700  0.42469700  0.21678800  1
  F  F31  1  0.74946500  0.35862400  0.80126900  1
  F  F32  1  0.84986500  0.65228700  0.31668300  1
  F  F33  1  0.85874300  0.55942000  0.00078600  1
  F  F34  1  0.06296100  0.56129400  0.39763200  1
  F  F35  1  0.93703900  0.43870600  0.60236800  1
  F  F36  1  0.80938500  0.95122800  0.71212300  1
  F  F37  1  0.34839300  0.87116400  0.76809700  1
  F  F38  1  0.64137600  0.25053500  0.69873100  1
  F  F39  1  0.57530300  0.68084300  0.28321200  1
  F  F40  1  0.95177300  0.57589800  0.73033700  1
  F  F41  1  0.14125700  0.44058000  0.99921400  1
  F  F42  1  0.57589800  0.95177300  0.23033700  1
  F  F43  1  0.84895800  0.05601500  0.43535800  1
  F  F44  1  0.15104200  0.94398500  0.56464200  1
  F  F45  1  0.67164700  0.49481000  0.99541700  1
  F  F46  1  0.75528900  0.09036800  0.01796600  1
  F  F47  1  0.19061500  0.04877200  0.28787700  1
loop_
_geom_bond_atom_site_label_1
_geom_bond_atom_site_label_2
_geom_bond_distance
_geom_bond_site_symmetry_2
C0 F42 1.347136 1_545
C0 F12 1.351396 1_545
C0 F25 1.351669 1_555
C0 Te1 2.252960 1_545
C1 F27 1.344445 1_555
C1 F16 1.350808 1_555
C1 F30 1.351103 1_555
C1 Te3 2.250086 1_555
C2 F19 1.349187 1_555
C2 F24 1.349537 1_555
C2 F11 1.350628 1_555
C2 Te0 2.254582 1_555
C3 F9 1.349187 1_555
C3 F46 1.349537 1_555
C3 F4 1.350628 1_555
C3 Te5 2.254582 1_555
C4 F38 1.344445 1_555
C4 F15 1.350809 1_555
C4 F6 1.351103 1_555
C4 Te2 2.250086 1_555
C5 F37 1.349187 1_555
C5 F23 1.349537 1_555
C5 F21 1.350628 1_555
C5 Te0 2.254582 1_555
C6 F17 1.347136 1_565
C6 F18 1.351396 1_565
C6 F28 1.351669 1_555
C6 Te2 2.252960 1_565
C7 F29 1.344445 1_555
C7 F8 1.350808 1_555
C7 F39 1.351103 1_555
C7 Te1 2.250086 1_555
C8 F40 1.347136 1_455
C8 F35 1.351396 1_455
C8 F10 1.351669 1_555
C8 Te4 2.252960 1_455
C9 F31 1.344445 1_555
C9 F45 1.350808 1_555
C9 F7 1.351103 1_555
C9 Te4 2.250086 1_555
C10 F5 1.347136 1_655
C10 F34 1.351396 1_655
C10 F32 1.351669 1_555
C10 Te3 2.252960 1_655
C11 F26 1.349187 1_555
C11 F1 1.349537 1_555
C11 F2 1.350628 1_555
C11 Te5 2.254582 1_555
F0 Te3 2.019390 1_655
F3 Te1 2.020510 1_555
F13 Te5 2.017298 1_555
F14 Te0 2.017298 1_555
F20 Te4 2.019390 1_455
F22 Te2 2.020510 1_555
F33 Te4 2.020510 1_554
F36 Te2 2.019390 1_565
F41 Te3 2.020510 1_556
F43 Te5 2.017298 1_555
F44 Te0 2.017298 1_555
F47 Te1 2.019390 1_545
