# generated using pymatgen
data_SrCuAs2O7
_symmetry_space_group_name_H-M   'P 1'
_cell_length_a   8.38065800
_cell_length_b   5.71585700
_cell_length_c   14.04577958
_cell_angle_alpha   68.24411955
_cell_angle_beta   90.00000000
_cell_angle_gamma   90.00000000
_symmetry_Int_Tables_number   1
_chemical_formula_structural   SrCuAs2O7
_chemical_formula_sum   'Sr4 Cu4 As8 O28'
_cell_volume   624.90530279
_cell_formula_units_Z   4
loop_
 _symmetry_equiv_pos_site_id
 _symmetry_equiv_pos_as_xyz
  1  'x, y, z'
loop_
 _atom_site_type_symbol
 _atom_site_label
 _atom_site_symmetry_multiplicity
 _atom_site_fract_x
 _atom_site_fract_y
 _atom_site_fract_z
 _atom_site_occupancy
  Sr  Sr0  1  0.65872500  0.49130100  0.21734000  1
  Sr  Sr1  1  0.34127500  0.50869900  0.78266000  1
  Sr  Sr2  1  0.84127500  0.49130100  0.71734000  1
  Sr  Sr3  1  0.15872500  0.50869900  0.28266000  1
  Cu  Cu0  1  0.85798000  0.82496200  0.38075200  1
  Cu  Cu1  1  0.35798000  0.17503800  0.11924800  1
  Cu  Cu2  1  0.14202000  0.17503800  0.61924800  1
  Cu  Cu3  1  0.64202000  0.82496200  0.88075200  1
  As  As0  1  0.18143600  0.83078400  0.49466700  1
  As  As1  1  0.03315700  0.90400700  0.84289300  1
  As  As2  1  0.31856400  0.83078400  0.99466700  1
  As  As3  1  0.46684300  0.90400700  0.34289300  1
  As  As4  1  0.81856400  0.16921600  0.50533300  1
  As  As5  1  0.96684300  0.09599300  0.15710700  1
  As  As6  1  0.53315700  0.09599300  0.65710700  1
  As  As7  1  0.68143600  0.16921600  0.00533300  1
  O  O0  1  0.55368000  0.34182600  0.69528500  1
  O  O1  1  0.15933000  0.59872300  0.61047700  1
  O  O2  1  0.10875800  0.81310300  0.96977600  1
  O  O3  1  0.84067000  0.40127700  0.38952300  1
  O  O4  1  0.89124200  0.18689700  0.03022400  1
  O  O5  1  0.35185500  0.14077000  0.98202500  1
  O  O6  1  0.59202200  0.22174500  0.10664200  1
  O  O7  1  0.15743700  0.99400200  0.15271400  1
  O  O8  1  0.90797800  0.22174500  0.60664200  1
  O  O9  1  0.64814500  0.85923000  0.01797500  1
  O  O10  1  0.63081900  0.82676400  0.73458400  1
  O  O11  1  0.86918100  0.82676400  0.23458400  1
  O  O12  1  0.84256300  0.00599800  0.84728600  1
  O  O13  1  0.36918100  0.17323600  0.26541600  1
  O  O14  1  0.39124200  0.81310300  0.46977600  1
  O  O15  1  0.40797800  0.77825500  0.89335800  1
  O  O16  1  0.14814500  0.14077000  0.48202500  1
  O  O17  1  0.34067000  0.59872300  0.11047700  1
  O  O18  1  0.34256300  0.99400200  0.65271400  1
  O  O19  1  0.44632000  0.65817400  0.30471500  1
  O  O20  1  0.13081900  0.17323600  0.76541600  1
  O  O21  1  0.94632000  0.34182600  0.19528500  1
  O  O22  1  0.09202200  0.77825500  0.39335800  1
  O  O23  1  0.85185500  0.85923000  0.51797500  1
  O  O24  1  0.65933000  0.40127700  0.88952300  1
  O  O25  1  0.65743700  0.00599800  0.34728600  1
  O  O26  1  0.60875800  0.18689700  0.53022400  1
  O  O27  1  0.05368000  0.65817400  0.80471500  1
loop_
_geom_bond_atom_site_label_1
_geom_bond_atom_site_label_2
_geom_bond_distance
_geom_bond_site_symmetry_2
Cu0 O25 1.937997 1_565
Cu0 O22 1.978579 1_655
Cu0 O23 2.008917 1_555
Cu0 O11 2.051397 1_555
Cu0 O3 2.383233 1_555
Cu1 O7 1.937997 1_545
Cu1 O6 1.978579 1_555
Cu1 O5 2.008917 1_554
Cu1 O13 2.051397 1_555
Cu1 O17 2.383233 1_555
Cu2 O18 1.937997 1_545
Cu2 O8 1.978579 1_455
Cu2 O16 2.008917 1_555
Cu2 O20 2.051397 1_555
Cu2 O1 2.383233 1_555
Cu3 O12 1.937997 1_565
Cu3 O15 1.978579 1_555
Cu3 O9 2.008917 1_556
Cu3 O10 2.051397 1_555
Cu3 O24 2.383233 1_555
As0 O1 1.685301 1_555
As0 O22 1.730091 1_555
As0 O16 1.736532 1_565
As0 O14 1.802858 1_555
As1 O27 1.688236 1_555
As1 O12 1.709298 1_465
As1 O20 1.726512 1_565
As1 O2 1.777945 1_555
As2 O17 1.685301 1_556
As2 O15 1.730091 1_555
As2 O5 1.736532 1_565
As2 O2 1.802858 1_555
As3 O19 1.688236 1_555
As3 O25 1.709298 1_565
As3 O13 1.726512 1_565
As3 O14 1.777945 1_555
As4 O3 1.685301 1_555
As4 O8 1.730091 1_555
As4 O23 1.736532 1_545
As4 O26 1.802858 1_555
As5 O21 1.688236 1_555
As5 O7 1.709298 1_645
As5 O11 1.726512 1_545
As5 O4 1.777945 1_555
As6 O0 1.688236 1_555
As6 O18 1.709298 1_545
As6 O10 1.726512 1_545
As6 O26 1.777945 1_555
As7 O24 1.685301 1_554
As7 O6 1.730091 1_555
As7 O9 1.736532 1_545
As7 O4 1.802858 1_555
O0 Sr1 2.540159 1_555
O0 Sr2 2.613687 1_555
O1 Sr1 2.741570 1_555
O1 Sr2 3.008601 1_455
O3 Sr0 2.741570 1_555
O3 Sr3 3.008601 1_655
O5 Sr1 2.811830 1_555
O6 Sr0 2.622936 1_555
O7 Sr3 2.696832 1_555
O8 Sr2 2.622936 1_555
O9 Sr0 2.811830 1_555
O10 Sr2 2.681499 1_555
O10 Sr1 2.956237 1_555
O11 Sr0 2.681499 1_555
O11 Sr3 2.956237 1_655
O12 Sr2 2.696832 1_555
O13 Sr3 2.681499 1_555
O13 Sr0 2.956237 1_555
O15 Sr1 2.622936 1_555
O16 Sr3 2.811830 1_555
O17 Sr3 2.741570 1_555
O17 Sr0 3.008601 1_555
O18 Sr1 2.696832 1_555
O19 Sr0 2.540159 1_555
O19 Sr3 2.613687 1_555
O20 Sr1 2.681499 1_555
O20 Sr2 2.956237 1_455
O21 Sr3 2.540159 1_655
O21 Sr0 2.613687 1_555
O22 Sr3 2.622936 1_555
O23 Sr2 2.811830 1_555
O24 Sr2 2.741570 1_555
O24 Sr1 3.008601 1_555
O25 Sr0 2.696832 1_555
O27 Sr2 2.540159 1_455
O27 Sr1 2.613687 1_555
