# generated using pymatgen
data_K3Bi(PS4)2
_symmetry_space_group_name_H-M   'P 1'
_cell_length_a   6.86589835
_cell_length_b   9.09030379
_cell_length_c   24.08288089
_cell_angle_alpha   90.00000000
_cell_angle_beta   90.00000000
_cell_angle_gamma   90.00000000
_symmetry_Int_Tables_number   1
_chemical_formula_structural   K3Bi(PS4)2
_chemical_formula_sum   'K12 Bi4 P8 S32'
_cell_volume   1503.08729645
_cell_formula_units_Z   4
loop_
 _symmetry_equiv_pos_site_id
 _symmetry_equiv_pos_as_xyz
  1  'x, y, z'
loop_
 _atom_site_type_symbol
 _atom_site_label
 _atom_site_symmetry_multiplicity
 _atom_site_fract_x
 _atom_site_fract_y
 _atom_site_fract_z
 _atom_site_occupancy
  K  K0  1  0.98529254  0.74681939  0.91939480  1
  K  K1  1  0.01470746  0.24681939  0.58060520  1
  K  K2  1  0.48896159  0.47683024  0.81114941  1
  K  K3  1  0.51103841  0.97683024  0.68885059  1
  K  K4  1  0.00270848  0.09121376  0.78536947  1
  K  K5  1  0.49729152  0.90878624  0.28536947  1
  K  K6  1  0.48529254  0.75318061  0.08060520  1
  K  K7  1  0.99729152  0.59121376  0.71463053  1
  K  K8  1  0.98896159  0.02316976  0.18885059  1
  K  K9  1  0.50270848  0.40878624  0.21463053  1
  K  K10  1  0.01103841  0.52316976  0.31114941  1
  K  K11  1  0.51470746  0.25318061  0.41939480  1
  Bi  Bi0  1  0.05962048  0.35458177  0.05206981  1
  Bi  Bi1  1  0.44037952  0.64541823  0.55206981  1
  Bi  Bi2  1  0.55962048  0.14541823  0.94793019  1
  Bi  Bi3  1  0.94037952  0.85458177  0.44793019  1
  P  P0  1  0.50820418  0.38804709  0.65617242  1
  P  P1  1  0.03216047  0.84973914  0.59165927  1
  P  P2  1  0.96783953  0.34973914  0.90834073  1
  P  P3  1  0.00820418  0.11195291  0.34382758  1
  P  P4  1  0.46783953  0.15026086  0.09165927  1
  P  P5  1  0.49179582  0.88804709  0.84382758  1
  P  P6  1  0.99179582  0.61195291  0.15617242  1
  P  P7  1  0.53216047  0.65026086  0.40834073  1
  S  S0  1  0.25912094  0.93789473  0.54841668  1
  S  S1  1  0.73035150  0.81132181  0.80579935  1
  S  S2  1  0.24907969  0.20834355  0.31469437  1
  S  S3  1  0.74087906  0.43789473  0.95158332  1
  S  S4  1  0.96728845  0.38571757  0.16489157  1
  S  S5  1  0.56284338  0.87697447  0.41842978  1
  S  S6  1  0.52763091  0.58782280  0.32930879  1
  S  S7  1  0.51530654  0.85374459  0.92987660  1
  S  S8  1  0.24087906  0.06210527  0.04841668  1
  S  S9  1  0.23035150  0.68867819  0.19420065  1
  S  S10  1  0.77825888  0.91491393  0.55405048  1
  S  S11  1  0.74907969  0.29165645  0.68530563  1
  S  S12  1  0.06284338  0.62302553  0.58157022  1
  S  S13  1  0.97236909  0.41217720  0.82930879  1
  S  S14  1  0.48469346  0.35374459  0.57012340  1
  S  S15  1  0.03271155  0.88571757  0.33510843  1
  S  S16  1  0.98469346  0.14625541  0.42987660  1
  S  S17  1  0.93715662  0.12302553  0.91842978  1
  S  S18  1  0.22174112  0.41491393  0.94594952  1
  S  S19  1  0.46728845  0.11428243  0.83510843  1
  S  S20  1  0.43715662  0.37697447  0.08157022  1
  S  S21  1  0.25092031  0.79165645  0.81469437  1
  S  S22  1  0.02763091  0.91217720  0.67069121  1
  S  S23  1  0.72174112  0.08508607  0.05405048  1
  S  S24  1  0.26964850  0.31132181  0.69420065  1
  S  S25  1  0.75092031  0.70834355  0.18530563  1
  S  S26  1  0.76964850  0.18867819  0.30579935  1
  S  S27  1  0.53271155  0.61428243  0.66489157  1
  S  S28  1  0.27825888  0.58508607  0.44594952  1
  S  S29  1  0.01530654  0.64625541  0.07012340  1
  S  S30  1  0.47236909  0.08782280  0.17069121  1
  S  S31  1  0.75912094  0.56210527  0.45158332  1
loop_
_geom_bond_atom_site_label_1
_geom_bond_atom_site_label_2
_geom_bond_distance
_geom_bond_site_symmetry_2
K0 S21 3.138499 1_655
K0 S1 3.300271 1_555
K0 S3 3.362008 1_555
K0 S7 3.379527 1_555
K0 S17 3.435839 1_565
K0 S18 3.485331 1_655
K0 P2 3.621367 1_555
K0 S13 3.737445 1_555
K0 S29 3.748986 1_656
K0 S7 3.775044 1_655
K1 S11 3.138499 1_455
K1 S24 3.300271 1_555
K1 S0 3.362008 1_545
K1 S14 3.379527 1_555
K1 S12 3.435839 1_555
K1 S10 3.485331 1_445
K1 P1 3.621367 1_545
K1 S22 3.737445 1_545
K1 S16 3.748986 1_455
K1 S14 3.775044 1_455
K2 S21 3.296774 1_555
K2 S19 3.349106 1_555
K2 S13 3.398912 1_555
K2 S1 3.465382 1_555
K2 S24 3.530358 1_555
K2 S13 3.621735 1_455
K3 S11 3.296774 1_565
K3 S27 3.349106 1_555
K3 S22 3.398912 1_555
K3 S24 3.465382 1_565
K3 S1 3.530358 1_555
K3 S22 3.621735 1_655
K4 S13 3.110604 1_455
K4 S1 3.195678 1_445
K4 S22 3.210213 1_545
K4 S17 3.248823 1_455
K4 S21 3.289094 1_545
K4 S19 3.413707 1_555
K4 S11 3.487075 1_455
K4 S24 3.490442 1_555
K5 S6 3.110604 1_555
K5 S26 3.195678 1_565
K5 S30 3.210213 1_565
K5 S5 3.248823 1_555
K5 S2 3.289094 1_565
K5 S15 3.413707 1_555
K5 S25 3.487075 1_555
K5 S9 3.490442 1_555
K6 S25 3.138499 1_555
K6 S9 3.300271 1_555
K6 S8 3.362008 1_565
K6 S29 3.379527 1_555
K6 S20 3.435839 1_555
K6 S23 3.485331 1_565
K6 P4 3.621367 1_565
K6 S30 3.737445 1_565
K6 S7 3.748986 1_554
K6 S29 3.775044 1_655
K7 S22 3.110604 1_655
K7 S24 3.195678 1_655
K7 S13 3.210213 1_555
K7 S12 3.248823 1_655
K7 S11 3.289094 1_555
K7 S27 3.413707 1_555
K7 S21 3.487075 1_655
K7 S1 3.490442 1_555
K8 S25 3.296774 1_545
K8 S4 3.349106 1_555
K8 S30 3.398912 1_655
K8 S9 3.465382 1_645
K8 S26 3.530358 1_555
K8 S30 3.621735 1_555
K9 S30 3.110604 1_555
K9 S9 3.195678 1_555
K9 S6 3.210213 1_555
K9 S20 3.248823 1_555
K9 S25 3.289094 1_555
K9 S4 3.413707 1_555
K9 S2 3.487075 1_555
K9 S26 3.490442 1_555
K10 S2 3.296774 1_555
K10 S15 3.349106 1_555
K10 S6 3.398912 1_455
K10 S26 3.465382 1_455
K10 S9 3.530358 1_555
K10 S6 3.621735 1_555
K11 S2 3.138499 1_555
K11 S26 3.300271 1_555
K11 S31 3.362008 1_555
K11 S16 3.379527 1_555
K11 S5 3.435839 1_545
K11 S28 3.485331 1_555
K11 P7 3.621367 1_555
K11 S6 3.737445 1_555
K11 S14 3.748986 1_555
K11 S16 3.775044 1_455
Bi0 S20 2.695421 1_555
Bi0 S29 2.703986 1_555
Bi0 S4 2.804367 1_455
Bi0 S18 2.841003 1_554
Bi0 S8 2.936872 1_555
Bi1 S12 2.695421 1_555
Bi1 S14 2.703986 1_555
Bi1 S27 2.804367 1_555
Bi1 S28 2.841003 1_555
Bi1 S0 2.936872 1_555
Bi2 S17 2.695421 1_555
Bi2 S7 2.703986 1_545
Bi2 S19 2.804367 1_555
Bi2 S23 2.841003 1_556
Bi2 S3 2.936872 1_555
Bi3 S5 2.695421 1_555
Bi3 S16 2.703986 1_565
Bi3 S15 2.804367 1_655
Bi3 S10 2.841003 1_555
Bi3 S31 2.936872 1_555
P0 S11 1.998791 1_555
P0 S24 2.001974 1_555
P0 S27 2.074077 1_555
P0 S14 2.101845 1_555
P1 S22 1.986386 1_555
P1 S0 2.038373 1_555
P1 S10 2.051905 1_455
P1 S12 2.085835 1_555
P2 S13 1.986386 1_555
P2 S3 2.038373 1_555
P2 S18 2.051905 1_655
P2 S17 2.085835 1_555
P3 S2 1.998791 1_555
P3 S26 2.001974 1_455
P3 S15 2.074077 1_545
P3 S16 2.101845 1_455
P4 S30 1.986386 1_555
P4 S8 2.038373 1_555
P4 S23 2.051905 1_555
P4 S20 2.085835 1_555
P5 S21 1.998791 1_555
P5 S1 2.001974 1_555
P5 S19 2.074077 1_565
P5 S7 2.101845 1_555
P6 S25 1.998791 1_555
P6 S9 2.001974 1_655
P6 S4 2.074077 1_555
P6 S29 2.101845 1_655
P7 S6 1.986386 1_555
P7 S31 2.038373 1_555
P7 S28 2.051905 1_555
P7 S5 2.085835 1_555
