# generated using pymatgen
data_Al(BH4)3
_symmetry_space_group_name_H-M   'P 1'
_cell_length_a   6.33583193
_cell_length_b   6.09407497
_cell_length_c   17.99698594
_cell_angle_alpha   90.00066539
_cell_angle_beta   89.99937448
_cell_angle_gamma   89.99861649
_symmetry_Int_Tables_number   1
_chemical_formula_structural   Al(BH4)3
_chemical_formula_sum   'Al4 B12 H48'
_cell_volume   694.88224990
_cell_formula_units_Z   4
loop_
 _symmetry_equiv_pos_site_id
 _symmetry_equiv_pos_as_xyz
  1  'x, y, z'
loop_
 _atom_site_type_symbol
 _atom_site_label
 _atom_site_symmetry_multiplicity
 _atom_site_fract_x
 _atom_site_fract_y
 _atom_site_fract_z
 _atom_site_occupancy
  Al  Al0  1  0.78575099  0.85157057  0.86721831  1
  Al  Al1  1  0.28578108  0.14845165  0.13277714  1
  Al  Al2  1  0.78579996  0.64847154  0.36723491  1
  Al  Al3  1  0.28575856  0.35151376  0.63277141  1
  B  B0  1  0.49621074  0.51669506  0.40847752  1
  B  B1  1  0.95962878  0.48663660  0.28148455  1
  B  B2  1  0.99617283  0.48330478  0.59152693  1
  B  B3  1  0.49615605  0.98332684  0.90846788  1
  B  B4  1  0.99619903  0.01668975  0.09152763  1
  B  B5  1  0.95958869  0.01338605  0.78147476  1
  B  B6  1  0.42641943  0.43857262  0.08927643  1
  B  B7  1  0.92636766  0.56143039  0.91071195  1
  B  B8  1  0.92643013  0.93859161  0.41072988  1
  B  B9  1  0.42639030  0.06138441  0.58927558  1
  B  B10  1  0.45962233  0.98662613  0.21852526  1
  B  B11  1  0.45957206  0.51334013  0.71851781  1
  H  H0  1  0.00993236  0.18472254  0.13264008  1
  H  H1  1  0.10969864  0.95209067  0.39578735  1
  H  H2  1  0.17526029  0.92868270  0.08297144  1
  H  H3  1  0.51121444  0.51135831  0.65070834  1
  H  H4  1  0.93331793  0.29801316  0.26619333  1
  H  H5  1  0.67521419  0.07133247  0.91703143  1
  H  H6  1  0.78276353  0.92081170  0.77201287  1
  H  H7  1  0.00991848  0.31525026  0.63262810  1
  H  H8  1  0.28275079  0.42076163  0.72797513  1
  H  H9  1  0.34072398  0.57766867  0.05383973  1
  H  H10  1  0.43325499  0.70197285  0.73380525  1
  H  H11  1  0.39319714  0.11389347  0.87493429  1
  H  H12  1  0.94104297  0.08052653  0.03185461  1
  H  H13  1  0.60965169  0.04787678  0.60421899  1
  H  H14  1  0.58765859  0.09442451  0.25069223  1
  H  H15  1  0.89324014  0.88614019  0.12506815  1
  H  H16  1  0.08767651  0.59441693  0.24931575  1
  H  H17  1  0.89325097  0.61385557  0.62508436  1
  H  H18  1  0.34071424  0.92229747  0.55383190  1
  H  H19  1  0.84075405  0.07770162  0.44616890  1
  H  H20  1  0.60968531  0.45210104  0.10421565  1
  H  H21  1  0.43333325  0.79800358  0.23382049  1
  H  H22  1  0.51123508  0.98859113  0.15071710  1
  H  H23  1  0.08764128  0.90560052  0.74930773  1
  H  H24  1  0.28277479  0.07919537  0.22798518  1
  H  H25  1  0.40002369  0.23682474  0.55265861  1
  H  H26  1  0.40005771  0.26314204  0.05266794  1
  H  H27  1  0.58761839  0.40556366  0.75068934  1
  H  H28  1  0.39328560  0.38613764  0.37492747  1
  H  H29  1  0.44099864  0.91945756  0.96813772  1
  H  H30  1  0.67527691  0.42871020  0.41704049  1
  H  H31  1  0.94097037  0.41948627  0.53185817  1
  H  H32  1  0.44102488  0.58050667  0.46815039  1
  H  H33  1  0.01120675  0.01140812  0.84928539  1
  H  H34  1  0.84067304  0.42233867  0.94614989  1
  H  H35  1  0.93327981  0.20201577  0.76618755  1
  H  H36  1  0.90005379  0.76317095  0.44734489  1
  H  H37  1  0.50990317  0.81531669  0.86734837  1
  H  H38  1  0.78279255  0.57922845  0.27202537  1
  H  H39  1  0.50994752  0.68474573  0.36737357  1
  H  H40  1  0.82557812  0.92880753  0.34990361  1
  H  H41  1  0.32557816  0.42879167  0.15010937  1
  H  H42  1  0.01124734  0.48860957  0.34929116  1
  H  H43  1  0.82553119  0.57123051  0.84988644  1
  H  H44  1  0.17523905  0.57127685  0.58295579  1
  H  H45  1  0.10963195  0.54790785  0.89577432  1
  H  H46  1  0.32553450  0.07117579  0.65009764  1
  H  H47  1  0.89999762  0.73686654  0.94733021  1
loop_
_geom_bond_atom_site_label_1
_geom_bond_atom_site_label_2
_geom_bond_distance
_geom_bond_site_symmetry_2
Al0 H43 1.754839 1_555
Al0 H5 1.757173 1_565
Al0 H47 1.758211 1_555
Al0 H33 1.758832 1_665
Al0 H37 1.761641 1_555
Al0 H6 1.764711 1_555
Al1 H41 1.754868 1_555
Al1 H2 1.757131 1_545
Al1 H26 1.758218 1_555
Al1 H22 1.758891 1_545
Al1 H0 1.761650 1_555
Al1 H24 1.764779 1_555
Al2 H40 1.754830 1_555
Al2 H30 1.757109 1_555
Al2 H36 1.758191 1_555
Al2 H42 1.758865 1_655
Al2 H39 1.761675 1_555
Al2 H38 1.764777 1_555
Al3 H46 1.754813 1_555
Al3 H44 1.757182 1_555
Al3 H25 1.758210 1_555
Al3 H3 1.758871 1_555
Al3 H7 1.761600 1_555
Al3 H8 1.764682 1_555
B0 H28 1.192843 1_555
B0 H32 1.194479 1_555
B0 H30 1.264273 1_555
B0 H39 1.266345 1_555
B1 H16 1.193651 1_655
B1 H4 1.193667 1_555
B1 H42 1.263440 1_655
B1 H38 1.265960 1_555
B2 H17 1.192844 1_555
B2 H31 1.194470 1_555
B2 H44 1.264279 1_655
B2 H7 1.266336 1_655
B3 H11 1.192836 1_565
B3 H29 1.194506 1_555
B3 H5 1.264304 1_565
B3 H37 1.266296 1_555
B4 H15 1.192843 1_545
B4 H12 1.194491 1_555
B4 H2 1.264283 1_645
B4 H0 1.266332 1_655
B5 H23 1.193644 1_645
B5 H35 1.193684 1_555
B5 H33 1.263509 1_655
B5 H6 1.265879 1_545
B6 H9 1.191661 1_555
B6 H20 1.194715 1_555
B6 H26 1.266851 1_555
B6 H41 1.268999 1_555
B7 H34 1.191664 1_555
B7 H45 1.194687 1_655
B7 H47 1.266970 1_555
B7 H43 1.268885 1_555
B8 H19 1.191671 1_565
B8 H1 1.194727 1_655
B8 H36 1.266885 1_555
B8 H40 1.268942 1_555
B9 H18 1.191641 1_545
B9 H13 1.194692 1_555
B9 H25 1.266991 1_555
B9 H46 1.268877 1_555
B10 H14 1.193647 1_565
B10 H21 1.193665 1_555
B10 H22 1.263450 1_555
B10 H24 1.265959 1_565
B11 H27 1.193642 1_555
B11 H10 1.193703 1_555
B11 H3 1.263522 1_555
B11 H8 1.265856 1_555
