# generated using pymatgen
data_TiH2SO6
_symmetry_space_group_name_H-M   'P 1'
_cell_length_a   5.15117700
_cell_length_b   8.78034400
_cell_length_c   10.01118900
_cell_angle_alpha   90.00000000
_cell_angle_beta   90.00000000
_cell_angle_gamma   90.00000000
_symmetry_Int_Tables_number   1
_chemical_formula_structural   TiH2SO6
_chemical_formula_sum   'Ti4 H8 S4 O24'
_cell_volume   452.79712912
_cell_formula_units_Z   4
loop_
 _symmetry_equiv_pos_site_id
 _symmetry_equiv_pos_as_xyz
  1  'x, y, z'
loop_
 _atom_site_type_symbol
 _atom_site_label
 _atom_site_symmetry_multiplicity
 _atom_site_fract_x
 _atom_site_fract_y
 _atom_site_fract_z
 _atom_site_occupancy
  Ti  Ti0  1  0.24076000  0.71161600  0.37839700  1
  Ti  Ti1  1  0.74076000  0.78838400  0.62160300  1
  Ti  Ti2  1  0.75924000  0.21161600  0.12160300  1
  Ti  Ti3  1  0.25924000  0.28838400  0.87839700  1
  H  H0  1  0.88483400  0.92950200  0.02792900  1
  H  H1  1  0.38483400  0.57049800  0.97207100  1
  H  H2  1  0.11516600  0.42950200  0.47207100  1
  H  H3  1  0.61516600  0.07049800  0.52792900  1
  H  H4  1  0.57079300  0.92999300  0.04563900  1
  H  H5  1  0.07079300  0.57000700  0.95436000  1
  H  H6  1  0.42920700  0.42999300  0.45436100  1
  H  H7  1  0.92920700  0.07000700  0.54564000  1
  S  S0  1  0.76282500  0.58366000  0.17655400  1
  S  S1  1  0.26282500  0.91634000  0.82344600  1
  S  S2  1  0.23717500  0.08366000  0.32344600  1
  S  S3  1  0.73717500  0.41634000  0.67655400  1
  O  O0  1  0.96586100  0.73659700  0.48120100  1
  O  O1  1  0.46586100  0.76340300  0.51879900  1
  O  O2  1  0.03413900  0.23659700  0.01879900  1
  O  O3  1  0.53413900  0.26340300  0.98120100  1
  O  O4  1  0.72222100  0.61215400  0.03360000  1
  O  O5  1  0.22222100  0.88784600  0.96640000  1
  O  O6  1  0.27777900  0.11215400  0.46640000  1
  O  O7  1  0.77777900  0.38784600  0.53360000  1
  O  O8  1  0.25277300  0.91492800  0.29392900  1
  O  O9  1  0.75277300  0.58507200  0.70607100  1
  O  O10  1  0.74722700  0.41492800  0.20607100  1
  O  O11  1  0.24722700  0.08507200  0.79392900  1
  O  O12  1  0.56609600  0.66011900  0.25979700  1
  O  O13  1  0.06609600  0.83988100  0.74020300  1
  O  O14  1  0.43390400  0.16011900  0.24020300  1
  O  O15  1  0.93390400  0.33988100  0.75979700  1
  O  O16  1  0.02778100  0.63600800  0.21502100  1
  O  O17  1  0.52778100  0.86399200  0.78497900  1
  O  O18  1  0.97221900  0.13600800  0.28497900  1
  O  O19  1  0.47221900  0.36399200  0.71502100  1
  O  O20  1  0.73497000  0.97953700  0.07169100  1
  O  O21  1  0.23497000  0.52046300  0.92830900  1
  O  O22  1  0.26503000  0.47953700  0.42830900  1
  O  O23  1  0.76503000  0.02046300  0.57169100  1
loop_
_geom_bond_atom_site_label_1
_geom_bond_atom_site_label_2
_geom_bond_distance
_geom_bond_site_symmetry_2
H0 O20 0.990400 1_555
H1 O21 0.990400 1_555
H2 O22 0.990400 1_555
H3 O23 0.990400 1_555
H4 O20 0.986142 1_555
H5 O21 0.986139 1_555
H6 O22 0.986142 1_555
H7 O23 0.986139 1_555
O0 Ti0 1.764242 1_655
O0 Ti1 1.878022 1_555
O1 Ti1 1.764242 1_555
O1 Ti0 1.878022 1_555
O2 Ti2 1.764242 1_455
O2 Ti3 1.878022 1_554
O3 Ti3 1.764242 1_555
O3 Ti2 1.878022 1_556
O4 S0 1.467822 1_555
O5 S1 1.467822 1_555
O6 S2 1.467822 1_555
O7 S3 1.467822 1_555
O8 S2 1.512843 1_565
O8 Ti0 1.976277 1_555
O9 S3 1.512843 1_555
O9 Ti1 1.976277 1_555
O10 S0 1.512843 1_555
O10 Ti2 1.976277 1_555
O11 S1 1.512843 1_545
O11 Ti3 1.976277 1_555
O12 S0 1.473816 1_555
O12 Ti0 2.103025 1_555
O13 S1 1.473816 1_555
O13 Ti1 2.103025 1_455
O14 S2 1.473816 1_555
O14 Ti2 2.103025 1_555
O15 S3 1.473816 1_555
O15 Ti3 2.103025 1_655
O16 S0 1.490752 1_455
O16 Ti0 2.078335 1_555
O17 S1 1.490752 1_555
O17 Ti1 2.078335 1_555
O18 S2 1.490752 1_655
O18 Ti2 2.078335 1_555
O19 S3 1.490752 1_555
O19 Ti3 2.078335 1_555
O20 Ti2 2.101824 1_565
O21 Ti3 2.101824 1_555
O22 Ti0 2.101824 1_555
O23 Ti1 2.101824 1_545
