# generated using pymatgen
data_Pr3MnBi5
_symmetry_space_group_name_H-M   'P 1'
_cell_length_a   9.72923554
_cell_length_b   9.72923554
_cell_length_c   6.53015800
_cell_angle_alpha   90.00000000
_cell_angle_beta   90.00000000
_cell_angle_gamma   119.99999685
_symmetry_Int_Tables_number   1
_chemical_formula_structural   Pr3MnBi5
_chemical_formula_sum   'Pr6 Mn2 Bi10'
_cell_volume   535.31790501
_cell_formula_units_Z   2
loop_
 _symmetry_equiv_pos_site_id
 _symmetry_equiv_pos_as_xyz
  1  'x, y, z'
loop_
 _atom_site_type_symbol
 _atom_site_label
 _atom_site_symmetry_multiplicity
 _atom_site_fract_x
 _atom_site_fract_y
 _atom_site_fract_z
 _atom_site_occupancy
  Pr  Pr0  1  0.62063700  0.62063700  0.75000000  1
  Pr  Pr1  1  0.37936300  0.00000000  0.75000000  1
  Pr  Pr2  1  0.62063700  0.00000000  0.25000000  1
  Pr  Pr3  1  0.00000000  0.37936300  0.75000000  1
  Pr  Pr4  1  0.37936300  0.37936300  0.25000000  1
  Pr  Pr5  1  0.00000000  0.62063700  0.25000000  1
  Mn  Mn0  1  0.00000000  0.00000000  0.00000000  1
  Mn  Mn1  1  0.00000000  0.00000000  0.50000000  1
  Bi  Bi0  1  0.25426200  0.00000000  0.25000000  1
  Bi  Bi1  1  0.00000000  0.25426200  0.25000000  1
  Bi  Bi2  1  0.00000000  0.74573800  0.75000000  1
  Bi  Bi3  1  0.33333300  0.66666700  0.50000000  1
  Bi  Bi4  1  0.33333300  0.66666700  0.00000000  1
  Bi  Bi5  1  0.25426200  0.25426200  0.75000000  1
  Bi  Bi6  1  0.66666700  0.33333300  0.50000000  1
  Bi  Bi7  1  0.74573800  0.74573800  0.25000000  1
  Bi  Bi8  1  0.74573800  0.00000000  0.75000000  1
  Bi  Bi9  1  0.66666700  0.33333300  0.00000000  1
loop_
_geom_bond_atom_site_label_1
_geom_bond_atom_site_label_2
_geom_bond_distance
_geom_bond_site_symmetry_2
Bi0 Mn0 2.963907 1_555
Bi0 Mn1 2.963907 1_555
Bi0 Pr4 3.257592 1_555
Bi0 Pr5 3.257593 1_545
Bi0 Pr1 3.484561 1_555
Bi0 Pr1 3.484561 1_554
Bi0 Pr2 3.564549 1_555
Bi1 Mn0 2.963907 1_555
Bi1 Mn1 2.963907 1_555
Bi1 Pr4 3.257592 1_555
Bi1 Pr2 3.257593 1_455
Bi1 Pr3 3.484561 1_554
Bi1 Pr3 3.484561 1_555
Bi1 Pr5 3.564549 1_555
Bi2 Mn1 2.963907 1_565
Bi2 Mn0 2.963907 1_566
Bi2 Pr0 3.257592 1_455
Bi2 Pr1 3.257593 1_565
Bi2 Pr5 3.484561 1_555
Bi2 Pr5 3.484561 1_556
Bi2 Pr3 3.564549 1_555
Bi3 Bi4 3.265079 1_555
Bi3 Bi4 3.265079 1_556
Bi3 Pr1 3.454115 1_565
Bi3 Pr5 3.454115 1_555
Bi3 Pr2 3.454119 1_565
Bi3 Pr3 3.454119 1_555
Bi3 Pr4 3.454124 1_555
Bi3 Pr0 3.454124 1_555
Bi4 Pr1 3.454115 1_564
Bi4 Pr5 3.454115 1_555
Bi4 Pr3 3.454119 1_554
Bi4 Pr2 3.454119 1_565
Bi4 Pr4 3.454124 1_555
Bi4 Pr0 3.454124 1_554
Bi5 Mn0 2.963908 1_556
Bi5 Mn1 2.963908 1_555
Bi5 Pr3 3.257592 1_555
Bi5 Pr1 3.257592 1_555
Bi5 Pr4 3.484561 1_555
Bi5 Pr4 3.484561 1_556
Bi5 Pr0 3.564549 1_555
Bi6 Bi9 3.265079 1_555
Bi6 Bi9 3.265079 1_556
Bi6 Pr2 3.454115 1_555
Bi6 Pr3 3.454115 1_655
Bi6 Pr1 3.454119 1_555
Bi6 Pr5 3.454119 1_655
Bi6 Pr4 3.454124 1_555
Bi6 Pr0 3.454124 1_555
Bi7 Mn1 2.963908 1_665
Bi7 Mn0 2.963908 1_665
Bi7 Pr2 3.257592 1_565
Bi7 Pr5 3.257592 1_655
Bi7 Pr0 3.484561 1_555
Bi7 Pr0 3.484561 1_554
Bi7 Pr4 3.564549 1_555
Bi8 Mn0 2.963907 1_656
Bi8 Mn1 2.963907 1_655
Bi8 Pr0 3.257592 1_545
Bi8 Pr3 3.257593 1_655
Bi8 Pr2 3.484561 1_556
Bi8 Pr2 3.484561 1_555
Bi8 Pr1 3.564549 1_555
Bi9 Pr2 3.454115 1_555
Bi9 Pr3 3.454115 1_654
Bi9 Pr5 3.454119 1_655
Bi9 Pr1 3.454119 1_554
Bi9 Pr4 3.454124 1_555
Bi9 Pr0 3.454124 1_554
