# generated using pymatgen
data_Ba21Al40
_symmetry_space_group_name_H-M   'P 1'
_cell_length_a   10.61725300
_cell_length_b   10.61725242
_cell_length_c   17.39700891
_cell_angle_alpha   90.00000000
_cell_angle_beta   90.00000000
_cell_angle_gamma   119.99999528
_symmetry_Int_Tables_number   1
_chemical_formula_structural   Ba21Al40
_chemical_formula_sum   'Ba21 Al40'
_cell_volume   1698.35919608
_cell_formula_units_Z   1
loop_
 _symmetry_equiv_pos_site_id
 _symmetry_equiv_pos_as_xyz
  1  'x, y, z'
loop_
 _atom_site_type_symbol
 _atom_site_label
 _atom_site_symmetry_multiplicity
 _atom_site_fract_x
 _atom_site_fract_y
 _atom_site_fract_z
 _atom_site_occupancy
  Ba  Ba0  1  0.00000000  0.33419887  0.39199665  1
  Ba  Ba1  1  0.66666700  0.33333300  0.32130702  1
  Ba  Ba2  1  0.67205163  0.00000000  0.68053836  1
  Ba  Ba3  1  0.32794837  0.32794837  0.68053836  1
  Ba  Ba4  1  -0.00000000  0.00000000  0.10665092  1
  Ba  Ba5  1  -0.00000000  0.32270398  0.60765363  1
  Ba  Ba6  1  0.32790440  -0.00000000  0.00224104  1
  Ba  Ba7  1  0.00000000  0.67205163  0.68053836  1
  Ba  Ba8  1  0.66580113  0.66580113  0.39199665  1
  Ba  Ba9  1  0.32270398  -0.00000000  0.60765363  1
  Ba  Ba10  1  0.33333300  0.66666700  0.10469897  1
  Ba  Ba11  1  0.00000000  0.66477396  0.89335818  1
  Ba  Ba12  1  0.67729602  0.67729602  0.60765363  1
  Ba  Ba13  1  0.33522604  0.33522604  0.89335818  1
  Ba  Ba14  1  0.66666700  0.33333300  0.10469897  1
  Ba  Ba15  1  0.33333300  0.66666700  0.32130702  1
  Ba  Ba16  1  -0.00000000  0.32790440  0.00224104  1
  Ba  Ba17  1  0.33419887  0.00000000  0.39199665  1
  Ba  Ba18  1  0.67209560  0.67209560  0.00224104  1
  Ba  Ba19  1  0.66477396  0.00000000  0.89335818  1
  Ba  Ba20  1  -0.00000000  0.00000000  0.32250900  1
  Al  Al0  1  0.33353031  0.52125557  0.51212383  1
  Al  Al1  1  0.15403390  0.33391280  0.21052116  1
  Al  Al2  1  0.50173650  0.16520967  0.78442349  1
  Al  Al3  1  0.82012210  0.66608720  0.21052116  1
  Al  Al4  1  0.48950591  -0.00000000  0.21212191  1
  Al  Al5  1  -0.00000000  0.00000000  0.53148367  1
  Al  Al6  1  0.33333300  0.66666700  0.90144907  1
  Al  Al7  1  0.17987790  0.84596610  0.21052116  1
  Al  Al8  1  0.19865905  0.00000000  0.79361159  1
  Al  Al9  1  -0.00000000  0.67269526  0.32544640  1
  Al  Al10  1  0.33391280  0.15403390  0.21052116  1
  Al  Al11  1  0.24713697  0.24713697  0.47635277  1
  Al  Al12  1  0.80134095  0.80134095  0.79361159  1
  Al  Al13  1  0.66666700  0.33333300  0.90144907  1
  Al  Al14  1  0.00000000  0.75286303  0.47635277  1
  Al  Al15  1  0.51049409  0.51049409  0.21212191  1
  Al  Al16  1  0.81227375  0.47874443  0.51212383  1
  Al  Al17  1  0.49826350  0.66347317  0.78442349  1
  Al  Al18  1  -0.00000000  0.48950591  0.21212191  1
  Al  Al19  1  0.84596610  0.17987790  0.21052116  1
  Al  Al20  1  0.00000000  0.66540009  0.09985308  1
  Al  Al21  1  0.32730474  0.32730474  0.32544640  1
  Al  Al22  1  0.33333300  0.66666700  0.65283394  1
  Al  Al23  1  0.00000000  0.19865905  0.79361159  1
  Al  Al24  1  0.66666700  0.33333300  0.65283394  1
  Al  Al25  1  0.16520967  0.50173650  0.78442349  1
  Al  Al26  1  0.47874443  0.81227375  0.51212383  1
  Al  Al27  1  0.18772625  0.66646969  0.51212383  1
  Al  Al28  1  0.66540009  0.00000000  0.09985308  1
  Al  Al29  1  0.33459991  0.33459991  0.09985308  1
  Al  Al30  1  0.83479033  0.33652683  0.78442349  1
  Al  Al31  1  0.67269526  -0.00000000  0.32544640  1
  Al  Al32  1  0.52125557  0.33353031  0.51212383  1
  Al  Al33  1  0.66608720  0.82012210  0.21052116  1
  Al  Al34  1  0.75286303  0.00000000  0.47635277  1
  Al  Al35  1  0.66646969  0.18772625  0.51212383  1
  Al  Al36  1  0.33652683  0.83479033  0.78442349  1
  Al  Al37  1  -0.00000000  0.00000000  0.89534155  1
  Al  Al38  1  0.66347317  0.49826350  0.78442349  1
  Al  Al39  1  -0.00000000  0.00000000  0.69527607  1
loop_
_geom_bond_atom_site_label_1
_geom_bond_atom_site_label_2
_geom_bond_distance
_geom_bond_site_symmetry_2
Ba0 Ba1 3.742328 1_455
Ba0 Ba15 3.742333 1_555
Ba0 Ba20 3.748551 1_555
Ba0 Ba5 3.753771 1_555
Ba1 Ba17 3.742333 1_555
Ba1 Ba8 3.742338 1_555
Ba2 Ba5 3.679768 1_655
Ba2 Ba9 3.919857 1_555
Ba3 Ba9 3.679768 1_555
Ba3 Ba5 3.679768 1_555
Ba4 Ba6 3.926809 1_555
Ba5 Ba7 3.919857 1_555
Ba7 Ba9 3.679768 1_565
Ba10 Ba6 3.988679 1_565
Ba10 Ba16 3.988685 1_555
Ba10 Ba18 3.988689 1_555
Ba11 Ba18 3.998157 1_456
Ba11 Ba6 3.998157 1_566
Ba11 Ba16 4.047271 1_556
Ba12 Ba2 3.679768 1_565
Ba12 Ba7 3.679768 1_655
Ba12 Ba8 3.753771 1_555
Ba12 Ba3 3.919857 1_555
Ba13 Ba6 3.998157 1_556
Ba13 Ba16 3.998157 1_556
Ba13 Ba18 4.047272 1_556
Ba14 Ba16 3.988680 1_655
Ba14 Ba6 3.988685 1_555
Ba14 Ba18 3.988689 1_555
Ba15 Ba17 3.742328 1_565
Ba15 Ba8 3.742338 1_555
Ba16 Ba4 3.926809 1_555
Ba16 Ba19 3.998157 1_454
Ba17 Ba20 3.748551 1_555
Ba17 Ba9 3.753771 1_555
Ba18 Ba4 3.926810 1_665
Ba18 Ba19 3.998157 1_564
Ba19 Ba6 4.047272 1_556
Ba20 Ba8 3.748551 1_445
Ba20 Ba4 3.755285 1_555
Al0 Al11 2.651302 1_555
Al0 Al27 2.675859 1_555
Al0 Al26 2.675859 1_555
Al0 Al22 2.894678 1_555
Al0 Ba5 3.504406 1_555
Al0 Ba3 3.560696 1_555
Al0 Ba12 3.575102 1_555
Al0 Ba15 3.661529 1_555
Al0 Ba8 3.708649 1_555
Al0 Ba0 3.717371 1_555
Al1 Al29 2.714434 1_555
Al1 Al21 2.741489 1_555
Al1 Al19 2.832625 1_455
Al1 Al18 2.847110 1_555
Al1 Ba0 3.556268 1_555
Al1 Ba4 3.565209 1_555
Al1 Ba10 3.573414 1_555
Al1 Ba15 3.618660 1_555
Al1 Ba20 3.638824 1_555
Al1 Ba16 3.962793 1_555
Al2 Al8 2.795092 1_555
Al2 Al24 2.892685 1_555
Al2 Al36 3.038143 1_545
Al2 Al38 3.062789 1_555
Al2 Al30 3.062789 1_555
Al2 Ba19 3.563851 1_555
Al2 Ba2 3.575583 1_555
Al2 Ba9 3.579526 1_555
Al2 Ba3 3.583913 1_555
Al2 Ba13 3.628579 1_555
Al3 Al9 2.741482 1_655
Al3 Al33 2.832643 1_555
Al3 Ba8 3.556272 1_555
Al3 Ba4 3.565208 1_665
Al3 Ba14 3.573414 1_555
Al3 Ba1 3.618660 1_555
Al3 Ba20 3.638824 1_665
Al3 Ba18 3.962797 1_555
Al4 Al7 2.847119 1_545
Al4 Ba17 3.537145 1_555
Al4 Ba10 3.591488 1_545
Al4 Ba14 3.591489 1_555
Al4 Ba15 3.607535 1_545
Al4 Ba1 3.607536 1_555
Al4 Ba6 4.034332 1_555
Al5 Ba20 3.635534 1_555
Al5 Ba5 3.673557 1_555
Al5 Ba9 3.673557 1_555
Al5 Ba12 3.673557 1_445
Al6 Ba11 3.531880 1_555
Al6 Ba19 3.531886 1_565
Al6 Ba13 3.531891 1_555
Al6 Ba10 3.535940 1_556
Al6 Ba6 3.975812 1_566
Al6 Ba16 3.975817 1_556
Al6 Ba18 3.975822 1_556
Al7 Al9 2.741486 1_555
Al7 Ba17 3.556270 1_565
Al7 Ba4 3.565201 1_565
Al7 Ba10 3.573414 1_555
Al7 Ba15 3.618659 1_555
Al7 Ba20 3.638816 1_565
Al7 Ba6 3.962795 1_565
Al8 Ba9 3.492919 1_555
Al8 Ba13 3.552564 1_555
Al8 Ba11 3.552564 1_545
Al8 Ba3 3.619118 1_555
Al8 Ba7 3.619118 1_545
Al8 Ba6 3.880270 1_556
Al9 Ba20 3.475453 1_565
Al9 Ba15 3.572239 1_555
Al9 Ba1 3.572244 1_455
Al9 Ba8 3.698152 1_455
Al9 Ba17 3.698152 1_565
Al9 Ba0 3.775788 1_555
Al10 Al29 2.714434 1_555
Al10 Al21 2.741489 1_555
Al10 Al7 2.832625 1_545
Al10 Al4 2.847110 1_555
Al10 Ba17 3.556268 1_555
Al10 Ba4 3.565209 1_555
Al10 Ba14 3.573415 1_555
Al10 Ba1 3.618660 1_555
Al10 Ba20 3.638825 1_555
Al10 Ba6 3.962793 1_555
Al11 Al32 2.651302 1_555
Al11 Al21 2.759851 1_555
Al11 Al5 2.793713 1_555
Al11 Ba17 3.509771 1_555
Al11 Ba0 3.509771 1_555
Al11 Ba3 3.654369 1_555
Al11 Ba20 3.748088 1_555
Al11 Ba9 3.853778 1_555
Al11 Ba5 3.853778 1_555
Al12 Al39 2.715774 1_665
Al12 Al37 2.753355 1_665
Al12 Al38 2.795092 1_555
Al12 Al17 2.795092 1_555
Al12 Ba12 3.492919 1_555
Al12 Ba19 3.552564 1_565
Al12 Ba11 3.552564 1_655
Al12 Ba2 3.619118 1_565
Al12 Ba7 3.619118 1_655
Al12 Ba18 3.880270 1_556
Al13 Al30 2.696617 1_555
Al13 Al2 2.696620 1_555
Al13 Al38 2.696624 1_555
Al13 Ba19 3.531880 1_555
Al13 Ba11 3.531886 1_655
Al13 Ba13 3.531891 1_555
Al13 Ba14 3.535940 1_556
Al13 Ba16 3.975812 1_656
Al13 Ba6 3.975817 1_556
Al13 Ba18 3.975822 1_556
Al14 Al16 2.651304 1_455
Al14 Al27 2.651312 1_555
Al14 Al9 2.759851 1_555
Al14 Al5 2.793713 1_565
Al14 Ba8 3.509772 1_455
Al14 Ba17 3.509772 1_565
Al14 Ba7 3.654369 1_555
Al14 Ba20 3.748088 1_565
Al14 Ba12 3.853779 1_455
Al14 Ba9 3.853779 1_565
Al15 Al29 2.702289 1_555
Al15 Al21 2.769430 1_555
Al15 Al33 2.847119 1_555
Al15 Al3 2.847119 1_555
Al15 Ba8 3.537145 1_555
Al15 Ba14 3.591496 1_555
Al15 Ba10 3.591496 1_555
Al15 Ba1 3.607543 1_555
Al15 Ba15 3.607543 1_555
Al15 Ba18 4.034332 1_555
Al16 Al35 2.675859 1_555
Al16 Al32 2.675859 1_555
Al16 Al24 2.894672 1_555
Al16 Ba12 3.504398 1_555
Al16 Ba7 3.560699 1_655
Al16 Ba5 3.575110 1_655
Al16 Ba1 3.661525 1_555
Al16 Ba0 3.708657 1_655
Al16 Ba8 3.717364 1_555
Al17 Al6 2.696624 1_555
Al17 Al22 2.892688 1_555
Al17 Al38 3.038143 1_555
Al17 Al36 3.062789 1_555
Al17 Al25 3.062789 1_555
Al17 Ba13 3.563851 1_555
Al17 Ba3 3.575583 1_555
Al17 Ba12 3.579526 1_555
Al17 Ba2 3.583913 1_565
Al17 Ba19 3.628580 1_565
Al18 Al20 2.702289 1_555
Al18 Al9 2.769429 1_555
Al18 Al19 2.847119 1_455
Al18 Ba0 3.537145 1_555
Al18 Ba14 3.591488 1_455
Al18 Ba10 3.591489 1_555
Al18 Ba1 3.607535 1_455
Al18 Ba15 3.607536 1_555
Al18 Ba16 4.034332 1_555
Al19 Al28 2.714430 1_555
Al19 Al31 2.741486 1_555
Al19 Ba0 3.556270 1_655
Al19 Ba4 3.565201 1_655
Al19 Ba14 3.573414 1_555
Al19 Ba1 3.618659 1_555
Al19 Ba20 3.638816 1_655
Al19 Ba16 3.962795 1_655
Al20 Al3 2.714427 1_455
Al20 Al7 2.714430 1_555
Al20 Ba10 3.533380 1_555
Al20 Ba14 3.533386 1_455
Al20 Ba4 3.554500 1_565
Al20 Ba11 3.592400 1_554
Al20 Ba18 3.905987 1_455
Al20 Ba6 3.905987 1_565
Al20 Ba16 3.965301 1_555
Al21 Ba20 3.475453 1_555
Al21 Ba15 3.572249 1_555
Al21 Ba1 3.572249 1_555
Al21 Ba17 3.698152 1_555
Al21 Ba0 3.698152 1_555
Al21 Ba8 3.775788 1_555
Al22 Al36 2.892681 1_555
Al22 Al25 2.892685 1_555
Al22 Al27 2.894666 1_555
Al22 Al26 2.894672 1_555
Al22 Ba7 3.600415 1_555
Al22 Ba2 3.600421 1_565
Al22 Ba3 3.600426 1_555
Al22 Ba9 3.681714 1_565
Al22 Ba5 3.681719 1_555
Al22 Ba12 3.681724 1_555
Al23 Al39 2.715773 1_555
Al23 Al37 2.753355 1_555
Al23 Al30 2.795092 1_455
Al23 Al25 2.795092 1_555
Al23 Ba5 3.492919 1_555
Al23 Ba13 3.552564 1_555
Al23 Ba19 3.552564 1_455
Al23 Ba3 3.619118 1_555
Al23 Ba2 3.619118 1_455
Al23 Ba16 3.880270 1_556
Al24 Al30 2.892682 1_555
Al24 Al38 2.892688 1_555
Al24 Al35 2.894666 1_555
Al24 Al32 2.894678 1_555
Al24 Ba2 3.600415 1_555
Al24 Ba7 3.600421 1_655
Al24 Ba3 3.600426 1_555
Al24 Ba5 3.681714 1_655
Al24 Ba9 3.681719 1_555
Al24 Ba12 3.681724 1_555
Al25 Al6 2.696620 1_555
Al25 Al30 3.038143 1_455
Al25 Al36 3.062789 1_555
Al25 Ba11 3.563851 1_555
Al25 Ba7 3.575583 1_555
Al25 Ba5 3.579526 1_555
Al25 Ba3 3.583913 1_555
Al25 Ba13 3.628579 1_555
Al26 Al34 2.651305 1_565
Al26 Al27 2.675859 1_555
Al26 Ba12 3.504398 1_555
Al26 Ba2 3.560699 1_565
Al26 Ba9 3.575110 1_565
Al26 Ba15 3.661525 1_555
Al26 Ba17 3.708657 1_565
Al26 Ba8 3.717364 1_555
Al27 Ba9 3.504407 1_565
Al27 Ba7 3.560702 1_555
Al27 Ba5 3.575102 1_555
Al27 Ba15 3.661520 1_555
Al27 Ba0 3.708650 1_555
Al27 Ba17 3.717372 1_565
Al28 Al4 2.702289 1_555
Al28 Al33 2.714427 1_545
Al28 Ba14 3.533380 1_555
Al28 Ba10 3.533386 1_545
Al28 Ba4 3.554500 1_655
Al28 Ba19 3.592400 1_554
Al28 Ba18 3.905987 1_545
Al28 Ba16 3.905987 1_655
Al28 Ba6 3.965301 1_555
Al29 Ba10 3.533391 1_555
Al29 Ba14 3.533391 1_555
Al29 Ba4 3.554500 1_555
Al29 Ba13 3.592400 1_554
Al29 Ba6 3.905987 1_555
Al29 Ba16 3.905987 1_555
Al29 Ba18 3.965301 1_555
Al30 Al38 3.062789 1_555
Al30 Ba11 3.563851 1_655
Al30 Ba7 3.575583 1_655
Al30 Ba5 3.579526 1_655
Al30 Ba2 3.583913 1_555
Al30 Ba19 3.628580 1_555
Al31 Al33 2.741482 1_545
Al31 Al34 2.759851 1_555
Al31 Al4 2.769429 1_555
Al31 Ba20 3.475453 1_655
Al31 Ba1 3.572238 1_555
Al31 Ba15 3.572244 1_545
Al31 Ba8 3.698152 1_545
Al31 Ba0 3.698152 1_655
Al31 Ba17 3.775788 1_555
Al32 Al35 2.675859 1_555
Al32 Ba9 3.504406 1_555
Al32 Ba3 3.560696 1_555
Al32 Ba12 3.575102 1_555
Al32 Ba1 3.661529 1_555
Al32 Ba8 3.708649 1_555
Al32 Ba17 3.717371 1_555
Al33 Ba8 3.556272 1_555
Al33 Ba4 3.565209 1_665
Al33 Ba10 3.573415 1_555
Al33 Ba15 3.618660 1_555
Al33 Ba20 3.638824 1_665
Al33 Ba18 3.962797 1_555
Al34 Al35 2.651312 1_555
Al34 Al5 2.793713 1_655
Al34 Ba8 3.509771 1_545
Al34 Ba0 3.509772 1_655
Al34 Ba2 3.654369 1_555
Al34 Ba20 3.748088 1_655
Al34 Ba12 3.853778 1_545
Al34 Ba5 3.853779 1_655
Al35 Ba5 3.504407 1_655
Al35 Ba2 3.560702 1_555
Al35 Ba9 3.575102 1_555
Al35 Ba1 3.661520 1_555
Al35 Ba17 3.708650 1_555
Al35 Ba0 3.717372 1_655
Al36 Al6 2.696617 1_555
Al36 Al8 2.795091 1_565
Al36 Ba19 3.563851 1_565
Al36 Ba2 3.575583 1_565
Al36 Ba9 3.579526 1_565
Al36 Ba7 3.583914 1_555
Al36 Ba11 3.628580 1_555
Al37 Al8 2.753355 1_555
Al37 Ba11 3.559347 1_545
Al37 Ba19 3.559347 1_455
Al37 Ba13 3.559347 1_555
Al37 Ba4 3.676151 1_556
Al37 Ba16 3.947031 1_556
Al37 Ba6 3.947031 1_556
Al37 Ba18 3.947031 1_446
Al38 Ba13 3.563851 1_555
Al38 Ba3 3.575583 1_555
Al38 Ba12 3.579526 1_555
Al38 Ba7 3.583914 1_655
Al38 Ba11 3.628580 1_655
Al39 Al8 2.715774 1_555
Al39 Al5 2.849498 1_555
Al39 Ba7 3.491338 1_545
Al39 Ba2 3.491338 1_455
Al39 Ba3 3.491338 1_555
Al39 Ba5 3.750033 1_555
Al39 Ba9 3.750033 1_555
Al39 Ba12 3.750033 1_445
