# generated using pymatgen
data_Zn(FeO2)2
_symmetry_space_group_name_H-M   'P 1'
_cell_length_a   6.05165528
_cell_length_b   6.05165528
_cell_length_c   29.60790800
_cell_angle_alpha   90.00000000
_cell_angle_beta   90.00000000
_cell_angle_gamma   119.99999213
_symmetry_Int_Tables_number   1
_chemical_formula_structural   Zn(FeO2)2
_chemical_formula_sum   'Zn12 Fe24 O48'
_cell_volume   939.04575015
_cell_formula_units_Z   12
loop_
 _symmetry_equiv_pos_site_id
 _symmetry_equiv_pos_as_xyz
  1  'x, y, z'
loop_
 _atom_site_type_symbol
 _atom_site_label
 _atom_site_symmetry_multiplicity
 _atom_site_fract_x
 _atom_site_fract_y
 _atom_site_fract_z
 _atom_site_occupancy
  Zn  Zn0  1  0.33333300  0.66666700  0.97797600  1
  Zn  Zn1  1  0.66666700  0.33333300  0.99911100  1
  Zn  Zn2  1  0.66666700  0.33333300  0.81082400  1
  Zn  Zn3  1  0.00000000  0.00000000  0.83237600  1
  Zn  Zn4  1  0.00000000  0.00000000  0.64577700  1
  Zn  Zn5  1  0.33333300  0.66666700  0.47933200  1
  Zn  Zn6  1  0.66666700  0.33333300  0.68800900  1
  Zn  Zn7  1  0.66666700  0.33333300  0.31270800  1
  Zn  Zn8  1  0.00000000  0.00000000  0.52103200  1
  Zn  Zn9  1  0.00000000  0.00000000  0.14607900  1
  Zn  Zn10  1  0.33333300  0.66666700  0.35447600  1
  Zn  Zn11  1  0.66666700  0.33333300  0.18781700  1
  Fe  Fe0  1  0.83072000  0.16928000  0.91684000  1
  Fe  Fe1  1  0.83072000  0.66144100  0.91684000  1
  Fe  Fe2  1  0.16478800  0.83521200  0.75012700  1
  Fe  Fe3  1  0.33855900  0.16928000  0.91684000  1
  Fe  Fe4  1  0.33333300  0.66666700  0.85499500  1
  Fe  Fe5  1  0.33333300  0.66666700  0.66729500  1
  Fe  Fe6  1  0.16478800  0.32957700  0.75012700  1
  Fe  Fe7  1  0.67042300  0.83521200  0.75012700  1
  Fe  Fe8  1  0.49963000  0.50037000  0.58377500  1
  Fe  Fe9  1  0.66666700  0.33333300  0.50048800  1
  Fe  Fe10  1  0.49963000  0.99926000  0.58377500  1
  Fe  Fe11  1  0.83317100  0.16682900  0.41686900  1
  Fe  Fe12  1  0.00074000  0.50037000  0.58377500  1
  Fe  Fe13  1  0.66691100  0.83345500  0.25021500  1
  Fe  Fe14  1  0.83317100  0.66634100  0.41686900  1
  Fe  Fe15  1  0.00000000  0.00000000  0.33372600  1
  Fe  Fe16  1  0.16654500  0.83345500  0.25021500  1
  Fe  Fe17  1  0.33365900  0.16682900  0.41686900  1
  Fe  Fe18  1  0.33333300  0.66666700  0.16695900  1
  Fe  Fe19  1  0.16654500  0.33308900  0.25021500  1
  Fe  Fe20  1  0.49909400  0.50090600  0.08329100  1
  Fe  Fe21  1  0.49909400  0.99818900  0.08329100  1
  Fe  Fe22  1  0.00181100  0.50090600  0.08329100  1
  Fe  Fe23  1  0.00000000  0.00000000  0.02110200  1
  O  O0  1  0.51105600  0.48894400  0.95515600  1
  O  O1  1  0.66666700  0.33333300  0.87976600  1
  O  O2  1  0.51105600  0.02211300  0.95515600  1
  O  O3  1  0.97788700  0.48894400  0.95515600  1
  O  O4  1  0.84393000  0.15607000  0.78809900  1
  O  O5  1  0.68120200  0.84060100  0.87792900  1
  O  O6  1  0.00000000  0.00000000  0.95515400  1
  O  O7  1  0.15939900  0.31879800  0.87792900  1
  O  O8  1  0.00000000  0.00000000  0.71307900  1
  O  O9  1  0.84393000  0.68786000  0.78809900  1
  O  O10  1  0.31214000  0.15607000  0.78809900  1
  O  O11  1  0.15939900  0.84060100  0.87792900  1
  O  O12  1  0.18068900  0.81931100  0.62359900  1
  O  O13  1  0.02997200  0.51498600  0.70976500  1
  O  O14  1  0.33333300  0.66666700  0.78911500  1
  O  O15  1  0.48501400  0.97002800  0.70976500  1
  O  O16  1  0.33333300  0.66666700  0.54676100  1
  O  O17  1  0.18068900  0.36137900  0.62359900  1
  O  O18  1  0.63862100  0.81931100  0.62359900  1
  O  O19  1  0.48501400  0.51498600  0.70976500  1
  O  O20  1  0.51353400  0.48646600  0.45640800  1
  O  O21  1  0.36069500  0.18034800  0.54329900  1
  O  O22  1  0.66666700  0.33333300  0.61985200  1
  O  O23  1  0.81965200  0.63930500  0.54329900  1
  O  O24  1  0.51353400  0.02706800  0.45640800  1
  O  O25  1  0.66666700  0.33333300  0.38003100  1
  O  O26  1  0.97293200  0.48646600  0.45640800  1
  O  O27  1  0.81965200  0.18034800  0.54329900  1
  O  O28  1  0.84687500  0.15312500  0.28977600  1
  O  O29  1  0.69415600  0.84707800  0.37650800  1
  O  O30  1  0.15292200  0.30584400  0.37650800  1
  O  O31  1  0.00000000  0.00000000  0.45306500  1
  O  O32  1  0.00000000  0.00000000  0.21338700  1
  O  O33  1  0.84687500  0.69375100  0.28977600  1
  O  O34  1  0.30624900  0.15312500  0.28977600  1
  O  O35  1  0.15292200  0.84707800  0.37650800  1
  O  O36  1  0.18069700  0.81930300  0.12320100  1
  O  O37  1  0.02722000  0.51361000  0.20985500  1
  O  O38  1  0.18069700  0.36139500  0.12320100  1
  O  O39  1  0.33333300  0.66666700  0.28643100  1
  O  O40  1  0.33333300  0.66666700  0.04659900  1
  O  O41  1  0.48639000  0.97278000  0.20985500  1
  O  O42  1  0.63860500  0.81930300  0.12320100  1
  O  O43  1  0.48639000  0.51361000  0.20985500  1
  O  O44  1  0.34453000  0.17226500  0.04452600  1
  O  O45  1  0.66666700  0.33333300  0.11896300  1
  O  O46  1  0.82773500  0.65547000  0.04452600  1
  O  O47  1  0.82773500  0.17226500  0.04452600  1
loop_
_geom_bond_atom_site_label_1
_geom_bond_atom_site_label_2
_geom_bond_distance
_geom_bond_site_symmetry_2
Fe0 O3 2.024740 1_555
Fe0 O2 2.024740 1_555
Fe0 O1 2.040053 1_555
Fe0 O7 2.074262 1_655
Fe0 O5 2.074262 1_545
Fe0 O6 2.105990 1_655
Fe1 O3 2.024740 1_555
Fe1 O0 2.024740 1_555
Fe1 O1 2.040062 1_555
Fe1 O5 2.074258 1_555
Fe1 O11 2.074262 1_655
Fe1 O6 2.105985 1_665
Fe2 O9 2.024343 1_455
Fe2 O10 2.024343 1_565
Fe2 O8 2.046139 1_565
Fe2 O15 2.065945 1_555
Fe2 O13 2.065945 1_555
Fe2 O14 2.110352 1_555
Fe3 O2 2.024740 1_555
Fe3 O0 2.024740 1_555
Fe3 O1 2.040062 1_555
Fe3 O7 2.074258 1_555
Fe3 O11 2.074262 1_545
Fe3 O6 2.105985 1_555
Fe4 O11 1.945484 1_555
Fe4 O5 1.945489 1_555
Fe4 O7 1.945489 1_555
Fe4 O14 1.950569 1_555
Fe5 O15 2.027041 1_555
Fe5 O13 2.027041 1_555
Fe5 O19 2.027045 1_555
Fe5 O12 2.057600 1_555
Fe5 O18 2.057600 1_555
Fe5 O17 2.057600 1_555
Fe6 O4 2.024343 1_455
Fe6 O10 2.024347 1_555
Fe6 O8 2.046143 1_555
Fe6 O13 2.065940 1_555
Fe6 O19 2.065944 1_555
Fe6 O14 2.110352 1_555
Fe7 O4 2.024343 1_565
Fe7 O9 2.024347 1_555
Fe7 O8 2.046143 1_665
Fe7 O15 2.065940 1_555
Fe7 O19 2.065944 1_555
Fe7 O14 2.110352 1_555
Fe8 O18 2.049311 1_555
Fe8 O17 2.049311 1_555
Fe8 O22 2.050958 1_555
Fe8 O16 2.058972 1_555
Fe8 O23 2.065297 1_555
Fe8 O21 2.065297 1_555
Fe9 O27 2.044029 1_555
Fe9 O23 2.044037 1_555
Fe9 O21 2.044037 1_555
Fe9 O26 2.068738 1_555
Fe9 O24 2.068738 1_555
Fe9 O20 2.068742 1_555
Fe10 O18 2.049306 1_555
Fe10 O12 2.049310 1_555
Fe10 O22 2.050954 1_565
Fe10 O16 2.058968 1_555
Fe10 O27 2.065297 1_565
Fe10 O21 2.065301 1_565
Fe11 O26 2.047298 1_555
Fe11 O24 2.047298 1_555
Fe11 O31 2.050936 1_655
Fe11 O25 2.058043 1_555
Fe11 O29 2.062088 1_545
Fe11 O30 2.062088 1_655
Fe12 O17 2.049306 1_555
Fe12 O12 2.049310 1_555
Fe12 O22 2.050954 1_455
Fe12 O16 2.058968 1_555
Fe12 O27 2.065297 1_455
Fe12 O23 2.065301 1_455
Fe13 O33 2.047829 1_555
Fe13 O28 2.047837 1_565
Fe13 O39 2.050889 1_555
Fe13 O32 2.058246 1_665
Fe13 O43 2.062375 1_555
Fe13 O41 2.062379 1_555
Fe14 O26 2.047293 1_555
Fe14 O20 2.047297 1_555
Fe14 O31 2.050941 1_665
Fe14 O25 2.058043 1_555
Fe14 O35 2.062089 1_655
Fe14 O29 2.062093 1_555
Fe15 O35 2.042978 1_545
Fe15 O30 2.042979 1_555
Fe15 O29 2.042979 1_445
Fe15 O34 2.066247 1_555
Fe15 O33 2.066247 1_445
Fe15 O28 2.066251 1_455
Fe16 O34 2.047838 1_565
Fe16 O33 2.047838 1_455
Fe16 O39 2.050880 1_555
Fe16 O32 2.058251 1_565
Fe16 O37 2.062375 1_555
Fe16 O41 2.062375 1_555
Fe17 O24 2.047293 1_555
Fe17 O20 2.047297 1_555
Fe17 O31 2.050941 1_555
Fe17 O25 2.058043 1_555
Fe17 O35 2.062089 1_545
Fe17 O30 2.062093 1_555
Fe18 O37 2.046178 1_555
Fe18 O41 2.046178 1_555
Fe18 O43 2.046182 1_555
Fe18 O36 2.058689 1_555
Fe18 O42 2.058690 1_555
Fe18 O38 2.058690 1_555
Fe19 O34 2.047829 1_555
Fe19 O28 2.047837 1_455
Fe19 O39 2.050889 1_555
Fe19 O32 2.058246 1_555
Fe19 O43 2.062375 1_555
Fe19 O37 2.062379 1_555
Fe20 O38 2.048169 1_555
Fe20 O42 2.048169 1_555
Fe20 O40 2.049148 1_555
Fe20 O45 2.049552 1_555
Fe20 O44 2.070598 1_555
Fe20 O46 2.070598 1_555
Fe21 O42 2.048169 1_555
Fe21 O36 2.048169 1_555
Fe21 O40 2.049148 1_555
Fe21 O45 2.049543 1_565
Fe21 O44 2.070594 1_565
Fe21 O47 2.070598 1_565
Fe22 O38 2.048169 1_555
Fe22 O36 2.048169 1_555
Fe22 O40 2.049148 1_555
Fe22 O45 2.049543 1_455
Fe22 O46 2.070594 1_455
Fe22 O47 2.070598 1_455
Fe23 O47 1.934254 1_455
Fe23 O46 1.934254 1_445
Fe23 O44 1.934254 1_555
Fe23 O6 1.952582 1_554
O0 Zn0 1.981597 1_555
O0 Zn1 2.086649 1_555
O1 Zn2 2.041228 1_555
O2 Zn0 1.981597 1_545
O2 Zn1 2.086641 1_555
O3 Zn0 1.981597 1_655
O3 Zn1 2.086641 1_555
O4 Zn2 1.976105 1_555
O4 Zn3 2.096360 1_655
O5 Zn3 2.147229 1_665
O7 Zn3 2.147229 1_555
O8 Zn4 1.992671 1_555
O9 Zn2 1.976110 1_555
O9 Zn3 2.096360 1_665
O10 Zn2 1.976110 1_555
O10 Zn3 2.096360 1_555
O11 Zn3 2.147228 1_565
O12 Zn4 2.004544 1_565
O13 Zn6 2.010050 1_455
O15 Zn6 2.010050 1_565
O16 Zn5 1.996432 1_555
O17 Zn4 2.004549 1_555
O18 Zn4 2.004549 1_665
O19 Zn6 2.010054 1_555
O20 Zn5 2.007073 1_555
O21 Zn8 2.002028 1_555
O22 Zn6 2.017986 1_555
O23 Zn8 2.002028 1_665
O24 Zn5 2.007068 1_545
O25 Zn7 1.993293 1_555
O26 Zn5 2.007068 1_655
O27 Zn8 2.002033 1_655
O28 Zn7 2.007222 1_555
O29 Zn10 2.000382 1_555
O30 Zn10 2.000382 1_555
O31 Zn8 2.012361 1_555
O32 Zn9 1.992849 1_555
O33 Zn7 2.007232 1_555
O34 Zn7 2.007232 1_555
O35 Zn10 2.000377 1_555
O36 Zn9 2.011507 1_565
O37 Zn11 1.999102 1_455
O38 Zn9 2.011512 1_555
O39 Zn10 2.014670 1_555
O40 Zn0 2.031783 1_554
O41 Zn11 1.999102 1_565
O42 Zn9 2.011512 1_665
O43 Zn11 1.999107 1_555
O44 Zn1 2.158325 1_554
O45 Zn11 2.038623 1_555
O46 Zn1 2.158325 1_554
O47 Zn1 2.158321 1_554
