# generated using pymatgen
data_EuCuSeO
_symmetry_space_group_name_H-M   'P 1'
_cell_length_a   4.02216300
_cell_length_b   4.02216300
_cell_length_c   8.99274000
_cell_angle_alpha   90.00000000
_cell_angle_beta   90.00000000
_cell_angle_gamma   90.00000000
_symmetry_Int_Tables_number   1
_chemical_formula_structural   EuCuSeO
_chemical_formula_sum   'Eu2 Cu2 Se2 O2'
_cell_volume   145.48270599
_cell_formula_units_Z   2
loop_
 _symmetry_equiv_pos_site_id
 _symmetry_equiv_pos_as_xyz
  1  'x, y, z'
loop_
 _atom_site_type_symbol
 _atom_site_label
 _atom_site_symmetry_multiplicity
 _atom_site_fract_x
 _atom_site_fract_y
 _atom_site_fract_z
 _atom_site_occupancy
  Eu  Eu0  1  0.50000000  0.00000000  0.62498800  1
  Eu  Eu1  1  0.00000000  0.50000000  0.37501200  1
  Cu  Cu0  1  0.00000000  0.00000000  0.00000000  1
  Cu  Cu1  1  0.50000000  0.50000000  0.00000000  1
  Se  Se0  1  0.50000000  0.00000000  0.16401900  1
  Se  Se1  1  0.00000000  0.50000000  0.83598100  1
  O  O0  1  0.00000000  0.00000000  0.50000000  1
  O  O1  1  0.50000000  0.50000000  0.50000000  1
loop_
_geom_bond_atom_site_label_1
_geom_bond_atom_site_label_2
_geom_bond_distance
_geom_bond_site_symmetry_2
Eu0 O1 2.303864 1_545
Eu0 O0 2.303864 1_655
Eu0 O1 2.303864 1_555
Eu0 O0 2.303864 1_555
Eu0 Se1 3.418924 1_655
Eu0 Se1 3.418924 1_545
Eu0 Se1 3.418924 1_645
Eu0 Se1 3.418924 1_555
Eu1 O1 2.303864 1_555
Eu1 O1 2.303864 1_455
Eu1 O0 2.303864 1_555
Eu1 O0 2.303864 1_565
Eu1 Se0 3.418924 1_565
Eu1 Se0 3.418924 1_455
Eu1 Se0 3.418924 1_555
Eu1 Se0 3.418924 1_465
Cu0 Se0 2.493996 1_455
Cu0 Se1 2.493996 1_554
Cu0 Se0 2.493996 1_555
Cu0 Se1 2.493996 1_544
Cu1 Se0 2.493996 1_555
Cu1 Se1 2.493996 1_554
Cu1 Se0 2.493996 1_565
Cu1 Se1 2.493996 1_654
