# generated using pymatgen
data_Cs2Zr(IO3)6
_symmetry_space_group_name_H-M   'P 1'
_cell_length_a   8.05073173
_cell_length_b   8.05073173
_cell_length_c   8.05073128
_cell_angle_alpha   97.29798284
_cell_angle_beta   97.29798284
_cell_angle_gamma   97.29797917
_symmetry_Int_Tables_number   1
_chemical_formula_structural   Cs2Zr(IO3)6
_chemical_formula_sum   'Cs2 Zr1 I6 O18'
_cell_volume   507.91791541
_cell_formula_units_Z   1
loop_
 _symmetry_equiv_pos_site_id
 _symmetry_equiv_pos_as_xyz
  1  'x, y, z'
loop_
 _atom_site_type_symbol
 _atom_site_label
 _atom_site_symmetry_multiplicity
 _atom_site_fract_x
 _atom_site_fract_y
 _atom_site_fract_z
 _atom_site_occupancy
  Cs  Cs0  1  0.16379300  0.16379300  0.16379300  1
  Cs  Cs1  1  0.83620700  0.83620700  0.83620700  1
  Zr  Zr0  1  0.50000000  0.50000000  0.50000000  1
  I  I0  1  0.70163400  0.33876400  0.12248200  1
  I  I1  1  0.66123600  0.87751800  0.29836600  1
  I  I2  1  0.12248200  0.70163400  0.33876400  1
  I  I3  1  0.87751800  0.29836600  0.66123600  1
  I  I4  1  0.29836600  0.66123600  0.87751800  1
  I  I5  1  0.33876400  0.12248200  0.70163400  1
  O  O0  1  0.89239800  0.40128200  0.27794300  1
  O  O1  1  0.59871800  0.72205700  0.10760200  1
  O  O2  1  0.72205700  0.10760200  0.59871800  1
  O  O3  1  0.64280000  0.72399100  0.45526200  1
  O  O4  1  0.68904300  0.10985000  0.09485500  1
  O  O5  1  0.45526200  0.64280000  0.72399100  1
  O  O6  1  0.27600900  0.54473800  0.35720000  1
  O  O7  1  0.35720000  0.27600900  0.54473800  1
  O  O8  1  0.10985000  0.09485500  0.68904300  1
  O  O9  1  0.90514500  0.31095700  0.89015000  1
  O  O10  1  0.72399100  0.45526200  0.64280000  1
  O  O11  1  0.10760200  0.59871800  0.72205700  1
  O  O12  1  0.54473800  0.35720000  0.27600900  1
  O  O13  1  0.31095700  0.89015000  0.90514500  1
  O  O14  1  0.89015000  0.90514500  0.31095700  1
  O  O15  1  0.40128200  0.27794300  0.89239800  1
  O  O16  1  0.27794300  0.89239800  0.40128200  1
  O  O17  1  0.09485500  0.68904300  0.10985000  1
loop_
_geom_bond_atom_site_label_1
_geom_bond_atom_site_label_2
_geom_bond_distance
_geom_bond_site_symmetry_2
Cs0 O7 3.220543 1_555
Cs0 O6 3.220543 1_555
Cs0 O12 3.220543 1_555
Cs0 O16 3.224765 1_545
Cs0 O0 3.224765 1_455
Cs0 O15 3.224765 1_554
Cs0 O9 3.273753 1_454
Cs0 O13 3.273753 1_544
Cs0 O14 3.273753 1_445
Cs1 O3 3.220543 1_555
Cs1 O10 3.220543 1_555
Cs1 O5 3.220543 1_555
Cs1 O2 3.224765 1_565
Cs1 O11 3.224765 1_655
Cs1 O1 3.224765 1_556
Cs1 O17 3.273753 1_656
Cs1 O4 3.273753 1_566
Cs1 O8 3.273753 1_665
I0 O4 1.816257 1_555
I0 O0 1.825828 1_555
I0 O12 1.882258 1_555
I1 O14 1.816257 1_555
I1 O1 1.825828 1_555
I1 O3 1.882258 1_555
I2 O17 1.816257 1_555
I2 O16 1.825828 1_555
I2 O6 1.882258 1_555
I3 O9 1.816257 1_555
I3 O2 1.825828 1_555
I3 O10 1.882258 1_555
I4 O13 1.816257 1_555
I4 O11 1.825828 1_555
I4 O5 1.882258 1_555
I5 O8 1.816257 1_555
I5 O15 1.825828 1_555
I5 O7 1.882258 1_555
O3 Zr0 2.108738 1_555
O5 Zr0 2.108738 1_555
O6 Zr0 2.108738 1_555
O7 Zr0 2.108738 1_555
O10 Zr0 2.108738 1_555
O12 Zr0 2.108738 1_555
