# generated using pymatgen
data_CsZnPO4
_symmetry_space_group_name_H-M   'P 1'
_cell_length_a   5.43247321
_cell_length_b   9.19042607
_cell_length_c   18.46018376
_cell_angle_alpha   90.34544383
_cell_angle_beta   90.00000000
_cell_angle_gamma   90.00000000
_symmetry_Int_Tables_number   1
_chemical_formula_structural   CsZnPO4
_chemical_formula_sum   'Cs8 Zn8 P8 O32'
_cell_volume   921.64010725
_cell_formula_units_Z   8
loop_
 _symmetry_equiv_pos_site_id
 _symmetry_equiv_pos_as_xyz
  1  'x, y, z'
loop_
 _atom_site_type_symbol
 _atom_site_label
 _atom_site_symmetry_multiplicity
 _atom_site_fract_x
 _atom_site_fract_y
 _atom_site_fract_z
 _atom_site_occupancy
  Cs  Cs0  1  0.24302306  0.20858344  0.00318918  1
  Cs  Cs1  1  0.25697694  0.20858344  0.50318918  1
  Cs  Cs2  1  0.28411989  0.31001500  0.74897118  1
  Cs  Cs3  1  0.78411989  0.68998500  0.75102882  1
  Cs  Cs4  1  0.71588011  0.68998500  0.25102882  1
  Cs  Cs5  1  0.74302306  0.79141656  0.49681082  1
  Cs  Cs6  1  0.21588011  0.31001500  0.24897118  1
  Cs  Cs7  1  0.75697694  0.79141656  0.99681082  1
  Zn  Zn0  1  0.78635850  0.08789254  0.66683822  1
  Zn  Zn1  1  0.21364150  0.91210746  0.33316178  1
  Zn  Zn2  1  0.71364150  0.08789254  0.16683822  1
  Zn  Zn3  1  0.25290796  0.58402372  0.08769090  1
  Zn  Zn4  1  0.75290796  0.41597628  0.41230910  1
  Zn  Zn5  1  0.74709204  0.41597628  0.91230910  1
  Zn  Zn6  1  0.28635850  0.91210746  0.83316178  1
  Zn  Zn7  1  0.24709204  0.58402372  0.58769090  1
  P  P0  1  0.25276660  0.58255674  0.40333445  1
  P  P1  1  0.71653506  0.09249786  0.34531133  1
  P  P2  1  0.21653506  0.90750214  0.15468867  1
  P  P3  1  0.24723340  0.58255674  0.90333445  1
  P  P4  1  0.78346494  0.09249786  0.84531133  1
  P  P5  1  0.74723340  0.41744326  0.59666555  1
  P  P6  1  0.75276660  0.41744326  0.09666555  1
  P  P7  1  0.28346494  0.90750214  0.65468867  1
  O  O0  1  0.26326756  0.85260169  0.73271146  1
  O  O1  1  0.18773717  0.78916962  0.60283834  1
  O  O2  1  0.75155167  0.44086238  0.51533731  1
  O  O3  1  0.74844833  0.44086238  0.01533731  1
  O  O4  1  0.81226283  0.21083038  0.39716166  1
  O  O5  1  0.81204815  0.25823631  0.11307622  1
  O  O6  1  0.23673244  0.85260169  0.23271146  1
  O  O7  1  0.45125677  0.48399240  0.36879202  1
  O  O8  1  0.31226283  0.78916962  0.10283834  1
  O  O9  1  0.99731102  0.45939499  0.63019046  1
  O  O10  1  0.04874323  0.48399240  0.86879202  1
  O  O11  1  0.55379904  0.94045006  0.63588606  1
  O  O12  1  0.12744491  0.04555308  0.64395312  1
  O  O13  1  0.68773717  0.21083038  0.89716166  1
  O  O14  1  0.76326756  0.14739831  0.76728854  1
  O  O15  1  0.44620096  0.05954994  0.36411394  1
  O  O16  1  0.00268898  0.54060501  0.36980954  1
  O  O17  1  0.54874323  0.51600760  0.63120798  1
  O  O18  1  0.95125677  0.51600760  0.13120798  1
  O  O19  1  0.25155167  0.55913762  0.98466269  1
  O  O20  1  0.73673244  0.14739831  0.26728854  1
  O  O21  1  0.37255509  0.04555308  0.14395312  1
  O  O22  1  0.18795185  0.74176369  0.88692378  1
  O  O23  1  0.62744491  0.95444692  0.85604688  1
  O  O24  1  0.24844833  0.55913762  0.48466269  1
  O  O25  1  0.05379904  0.05954994  0.86411394  1
  O  O26  1  0.31204815  0.74176369  0.38692378  1
  O  O27  1  0.49731102  0.54060501  0.86980954  1
  O  O28  1  0.68795185  0.25823631  0.61307622  1
  O  O29  1  0.87255509  0.95444692  0.35604688  1
  O  O30  1  0.50268898  0.45939499  0.13019046  1
  O  O31  1  0.94620096  0.94045006  0.13588606  1
loop_
_geom_bond_atom_site_label_1
_geom_bond_atom_site_label_2
_geom_bond_distance
_geom_bond_site_symmetry_2
Cs0 O25 3.079225 1_554
Cs0 O21 3.088595 1_555
Cs0 O13 3.109413 1_554
Cs0 O5 3.129461 1_455
Cs0 O19 3.242225 1_554
Cs1 O15 3.079225 1_555
Cs1 O12 3.088595 1_555
Cs1 O4 3.109413 1_455
Cs1 O28 3.129461 1_555
Cs1 O24 3.242225 1_555
Cs2 O10 3.006909 1_555
Cs2 O14 3.021489 1_555
Cs2 O9 3.025999 1_455
Cs2 O12 3.214561 1_555
Cs2 O14 3.218723 1_455
Cs2 O17 3.228967 1_555
Cs2 O27 3.278937 1_555
Cs2 O28 3.364245 1_555
Cs2 O25 3.382480 1_555
Cs2 O13 3.626610 1_555
Cs3 O17 3.006909 1_555
Cs3 O0 3.021489 1_655
Cs3 O27 3.025999 1_555
Cs3 O23 3.214561 1_555
Cs3 O0 3.218723 1_555
Cs3 O10 3.228967 1_655
Cs3 O9 3.278937 1_555
Cs3 O22 3.364245 1_655
Cs3 O11 3.382480 1_555
Cs3 O1 3.626610 1_655
Cs4 O18 3.006909 1_555
Cs4 O6 3.021489 1_555
Cs4 O16 3.025999 1_655
Cs4 O29 3.214561 1_555
Cs4 O6 3.218723 1_655
Cs4 O7 3.228967 1_555
Cs4 O30 3.278937 1_555
Cs4 O26 3.364245 1_555
Cs4 O31 3.382480 1_555
Cs4 O8 3.626610 1_555
Cs5 O11 3.079225 1_555
Cs5 O29 3.088595 1_555
Cs5 O1 3.109413 1_655
Cs5 O26 3.129461 1_555
Cs5 O2 3.242225 1_555
Cs6 O7 3.006909 1_555
Cs6 O20 3.021489 1_455
Cs6 O30 3.025999 1_555
Cs6 O21 3.214561 1_555
Cs6 O20 3.218723 1_555
Cs6 O18 3.228967 1_455
Cs6 O16 3.278937 1_555
Cs6 O5 3.364245 1_455
Cs6 O15 3.382480 1_555
Cs6 O4 3.626610 1_455
Cs7 O31 3.079225 1_556
Cs7 O23 3.088595 1_555
Cs7 O8 3.109413 1_556
Cs7 O22 3.129461 1_655
Cs7 O3 3.242225 1_556
O0 P7 1.532935 1_555
O0 Zn6 1.934201 1_555
O1 P7 1.535177 1_555
O1 Zn7 1.931438 1_555
O2 P5 1.518149 1_555
O2 Zn4 1.914267 1_555
O3 P6 1.518149 1_555
O3 Zn5 1.914267 1_554
O4 P1 1.535177 1_555
O4 Zn4 1.931438 1_555
O5 P6 1.530271 1_555
O5 Zn2 1.934007 1_555
O6 P2 1.532935 1_555
O6 Zn1 1.934201 1_555
O7 P0 1.543671 1_555
O7 Zn4 1.930679 1_555
O8 P2 1.535177 1_555
O8 Zn3 1.931438 1_555
O9 P5 1.540913 1_555
O9 Zn7 1.944101 1_655
O10 P3 1.543671 1_555
O10 Zn5 1.930679 1_455
O11 P7 1.539536 1_555
O11 Zn0 1.936347 1_565
O12 P7 1.539613 1_545
O12 Zn0 1.939408 1_455
O13 P4 1.535177 1_555
O13 Zn5 1.931438 1_555
O14 P4 1.532935 1_555
O14 Zn0 1.934201 1_555
O15 P1 1.539536 1_555
O15 Zn1 1.936347 1_545
O16 P0 1.540913 1_555
O16 Zn4 1.944101 1_455
O17 P5 1.543671 1_555
O17 Zn7 1.930679 1_555
O18 P6 1.543671 1_555
O18 Zn3 1.930679 1_655
O19 P3 1.518149 1_555
O19 Zn3 1.914267 1_556
O20 P1 1.532935 1_555
O20 Zn2 1.934201 1_555
O21 P2 1.539613 1_545
O21 Zn2 1.939408 1_555
O22 P3 1.530271 1_555
O22 Zn6 1.934007 1_555
O23 P4 1.539613 1_565
O23 Zn6 1.939408 1_555
O24 P0 1.518149 1_555
O24 Zn7 1.914267 1_555
O25 P4 1.539536 1_455
O25 Zn6 1.936347 1_545
O26 P0 1.530271 1_555
O26 Zn1 1.934007 1_555
O27 P3 1.540913 1_555
O27 Zn5 1.944101 1_555
O28 P5 1.530271 1_555
O28 Zn0 1.934007 1_555
O29 P1 1.539613 1_565
O29 Zn1 1.939408 1_655
O30 P6 1.540913 1_555
O30 Zn3 1.944101 1_555
O31 P2 1.539536 1_655
O31 Zn2 1.936347 1_565
