# generated using pymatgen
data_Tb2Zn17
_symmetry_space_group_name_H-M   'P 1'
_cell_length_a   6.69812258
_cell_length_b   6.69812153
_cell_length_c   6.69812175
_cell_angle_alpha   82.93294010
_cell_angle_beta   82.93294334
_cell_angle_gamma   82.93293664
_symmetry_Int_Tables_number   1
_chemical_formula_structural   Tb2Zn17
_chemical_formula_sum   'Tb2 Zn17'
_cell_volume   294.18005584
_cell_formula_units_Z   1
loop_
 _symmetry_equiv_pos_site_id
 _symmetry_equiv_pos_as_xyz
  1  'x, y, z'
loop_
 _atom_site_type_symbol
 _atom_site_label
 _atom_site_symmetry_multiplicity
 _atom_site_fract_x
 _atom_site_fract_y
 _atom_site_fract_z
 _atom_site_occupancy
  Tb  Tb0  1  0.33571932  0.33571932  0.33571932  1
  Tb  Tb1  1  0.66428068  0.66428068  0.66428068  1
  Zn  Zn0  1  0.35047650  0.83862506  0.35047650  1
  Zn  Zn1  1  0.29582653  0.00000000  0.70417347  1
  Zn  Zn2  1  0.70417347  0.29582653  -0.00000000  1
  Zn  Zn3  1  -0.00000000  0.29582653  0.70417347  1
  Zn  Zn4  1  0.70417347  -0.00000000  0.29582653  1
  Zn  Zn5  1  0.64952350  0.64952350  0.16137494  1
  Zn  Zn6  1  0.90062878  0.90062878  0.90062878  1
  Zn  Zn7  1  0.00000000  0.70417347  0.29582653  1
  Zn  Zn8  1  -0.00000000  0.00000000  0.50000000  1
  Zn  Zn9  1  0.16137494  0.64952350  0.64952350  1
  Zn  Zn10  1  0.64952350  0.16137494  0.64952350  1
  Zn  Zn11  1  0.09937122  0.09937122  0.09937122  1
  Zn  Zn12  1  0.83862506  0.35047650  0.35047650  1
  Zn  Zn13  1  0.35047650  0.35047650  0.83862506  1
  Zn  Zn14  1  0.29582653  0.70417347  0.00000000  1
  Zn  Zn15  1  -0.00000000  0.50000000  0.00000000  1
  Zn  Zn16  1  0.50000000  0.00000000  0.00000000  1
loop_
_geom_bond_atom_site_label_1
_geom_bond_atom_site_label_2
_geom_bond_distance
_geom_bond_site_symmetry_2
Tb0 Zn11 3.060805 1_555
Tb0 Zn14 3.136687 1_555
Tb0 Zn1 3.136687 1_555
Tb0 Zn7 3.136687 1_555
Tb0 Zn4 3.136687 1_555
Tb0 Zn3 3.136688 1_555
Tb0 Zn2 3.136688 1_555
Tb0 Zn9 3.174715 1_555
Tb0 Zn10 3.174715 1_555
Tb0 Zn5 3.174715 1_555
Tb0 Zn0 3.308504 1_545
Tb0 Zn13 3.308504 1_554
Tb0 Zn12 3.308505 1_455
Tb0 Zn16 3.369058 1_555
Tb0 Zn15 3.369058 1_555
Tb0 Zn8 3.369058 1_555
Tb0 Zn0 3.395991 1_555
Tb0 Zn13 3.395991 1_555
Tb0 Zn12 3.395992 1_555
Tb1 Zn6 3.060805 1_555
Tb1 Zn2 3.136687 1_556
Tb1 Zn4 3.136687 1_565
Tb1 Zn3 3.136687 1_655
Tb1 Zn1 3.136687 1_565
Tb1 Zn7 3.136688 1_655
Tb1 Zn14 3.136688 1_556
Tb1 Zn12 3.174715 1_555
Tb1 Zn0 3.174715 1_555
Tb1 Zn13 3.174715 1_555
Tb1 Zn10 3.308504 1_565
Tb1 Zn5 3.308504 1_556
Tb1 Zn9 3.308505 1_655
Tb1 Zn16 3.369058 1_566
Tb1 Zn15 3.369058 1_656
Tb1 Zn8 3.369058 1_665
Tb1 Zn10 3.395991 1_555
Tb1 Zn5 3.395991 1_555
Tb1 Zn9 3.395992 1_555
Zn0 Zn5 2.523310 1_555
Zn0 Zn9 2.523310 1_555
Zn0 Zn16 2.597271 1_565
Zn0 Zn8 2.597271 1_565
Zn0 Zn1 2.689681 1_565
Zn0 Zn4 2.689681 1_565
Zn0 Zn14 2.696055 1_555
Zn0 Zn7 2.696055 1_555
Zn0 Zn11 2.821092 1_565
Zn1 Zn16 2.542308 1_556
Zn1 Zn8 2.542308 1_555
Zn1 Zn14 2.624202 1_546
Zn1 Zn3 2.624202 1_555
Zn1 Zn10 2.689681 1_555
Zn1 Zn13 2.696055 1_555
Zn1 Zn9 2.696055 1_545
Zn1 Zn11 2.922763 1_556
Zn1 Zn6 2.922763 1_445
Zn2 Zn4 2.624202 1_555
Zn2 Zn3 2.624202 1_654
Zn2 Zn5 2.689681 1_555
Zn2 Zn6 2.922763 1_544
Zn3 Zn8 2.542308 1_555
Zn3 Zn9 2.689681 1_555
Zn3 Zn6 2.922763 1_445
Zn4 Zn8 2.542308 1_655
Zn4 Zn7 2.624202 1_645
Zn4 Zn5 2.696055 1_545
Zn4 Zn6 2.922763 1_544
Zn5 Zn7 2.696055 1_655
Zn5 Zn6 2.821093 1_554
Zn6 Zn8 2.705001 1_665
Zn6 Zn9 2.821092 1_655
Zn6 Zn7 2.922763 1_656
Zn7 Zn8 2.542308 1_565
Zn7 Zn9 2.689681 1_555
Zn8 Zn9 2.597271 1_545
Zn10 Zn13 2.523310 1_555
Zn10 Zn12 2.523310 1_555
Zn10 Zn16 2.597271 1_556
Zn10 Zn8 2.597271 1_655
Zn10 Zn4 2.689681 1_555
Zn10 Zn2 2.696055 1_556
Zn10 Zn3 2.696055 1_655
Zn10 Zn6 2.821092 1_545
Zn11 Zn6 2.573796 1_444
Zn11 Zn15 2.705001 1_555
Zn11 Zn8 2.705001 1_555
Zn11 Zn16 2.705001 1_555
Zn11 Zn12 2.821092 1_455
Zn11 Zn13 2.821093 1_554
Zn11 Zn14 2.922763 1_545
Zn11 Zn3 2.922763 1_554
Zn11 Zn7 2.922763 1_545
Zn11 Zn2 2.922763 1_455
Zn11 Zn4 2.922763 1_455
Zn12 Zn5 2.523310 1_555
Zn12 Zn8 2.597271 1_655
Zn12 Zn15 2.597271 1_655
Zn12 Zn3 2.689681 1_655
Zn12 Zn7 2.689681 1_655
Zn12 Zn2 2.696055 1_555
Zn12 Zn4 2.696055 1_555
Zn13 Zn9 2.523310 1_555
Zn13 Zn16 2.597271 1_556
Zn13 Zn15 2.597271 1_556
Zn13 Zn14 2.689681 1_556
Zn13 Zn2 2.689681 1_556
Zn13 Zn3 2.696055 1_555
Zn14 Zn16 2.542308 1_565
Zn14 Zn15 2.542308 1_555
Zn14 Zn7 2.624202 1_555
Zn14 Zn5 2.689681 1_555
Zn14 Zn9 2.696055 1_554
Zn14 Zn6 2.922763 1_454
Zn15 Zn3 2.542308 1_554
Zn15 Zn7 2.542308 1_555
Zn15 Zn2 2.542308 1_455
Zn15 Zn9 2.597271 1_554
Zn15 Zn5 2.597271 1_455
Zn15 Zn6 2.705001 1_454
Zn16 Zn4 2.542308 1_555
Zn16 Zn2 2.542308 1_555
Zn16 Zn5 2.597271 1_545
Zn16 Zn6 2.705001 1_544
