# generated using pymatgen
data_CoSnF6
_symmetry_space_group_name_H-M   'P 1'
_cell_length_a   5.46645598
_cell_length_b   5.46108741
_cell_length_c   5.45905150
_cell_angle_alpha   56.92043239
_cell_angle_beta   56.92726424
_cell_angle_gamma   56.98146815
_symmetry_Int_Tables_number   1
_chemical_formula_structural   CoSnF6
_chemical_formula_sum   'Co1 Sn1 F6'
_cell_volume   107.11084981
_cell_formula_units_Z   1
loop_
 _symmetry_equiv_pos_site_id
 _symmetry_equiv_pos_as_xyz
  1  'x, y, z'
loop_
 _atom_site_type_symbol
 _atom_site_label
 _atom_site_symmetry_multiplicity
 _atom_site_fract_x
 _atom_site_fract_y
 _atom_site_fract_z
 _atom_site_occupancy
  Co  Co0  1  0.50000000  0.50000000  0.50000000  1
  Sn  Sn0  1  0.00000000  -0.00000000  0.00000000  1
  F  F0  1  0.24598476  0.88128166  0.62416460  1
  F  F1  1  0.88123224  0.62429069  0.24548831  1
  F  F2  1  0.37476909  0.75466608  0.11922328  1
  F  F3  1  0.11876776  0.37570931  0.75451169  1
  F  F4  1  0.75401524  0.11871834  0.37583540  1
  F  F5  1  0.62523091  0.24533392  0.88077672  1
loop_
_geom_bond_atom_site_label_1
_geom_bond_atom_site_label_2
_geom_bond_distance
_geom_bond_site_symmetry_2
Co0 F2 2.020760 1_555
Co0 F5 2.020760 1_555
Co0 F4 2.021288 1_555
Co0 F0 2.021288 1_555
Co0 F3 2.021417 1_555
Co0 F1 2.021417 1_555
F0 Sn0 1.982136 1_566
F1 Sn0 1.981887 1_665
F2 Sn0 1.981841 1_565
F3 Sn0 1.981887 1_556
F4 Sn0 1.982136 1_655
F5 Sn0 1.981841 1_656
