# generated using pymatgen
data_Ba2Co2ClF7
_symmetry_space_group_name_H-M   'P 1'
_cell_length_a   5.87827800
_cell_length_b   7.82753100
_cell_length_c   9.03869585
_cell_angle_alpha   73.22335612
_cell_angle_beta   90.00000000
_cell_angle_gamma   90.00000000
_symmetry_Int_Tables_number   1
_chemical_formula_structural   Ba2Co2ClF7
_chemical_formula_sum   'Ba4 Co4 Cl2 F14'
_cell_volume   398.19060171
_cell_formula_units_Z   2
loop_
 _symmetry_equiv_pos_site_id
 _symmetry_equiv_pos_as_xyz
  1  'x, y, z'
loop_
 _atom_site_type_symbol
 _atom_site_label
 _atom_site_symmetry_multiplicity
 _atom_site_fract_x
 _atom_site_fract_y
 _atom_site_fract_z
 _atom_site_occupancy
  Ba  Ba0  1  0.25000000  0.69799500  0.07316900  1
  Ba  Ba1  1  0.75000000  0.30200500  0.92683100  1
  Ba  Ba2  1  0.75000000  0.33126100  0.41245400  1
  Ba  Ba3  1  0.25000000  0.66873900  0.58754600  1
  Co  Co0  1  0.75000000  0.82600200  0.26622800  1
  Co  Co1  1  0.25000000  0.17399800  0.73377200  1
  Co  Co2  1  0.25000000  0.18219600  0.17559200  1
  Co  Co3  1  0.75000000  0.81780400  0.82440800  1
  Cl  Cl0  1  0.25000000  0.11715200  0.46934500  1
  Cl  Cl1  1  0.75000000  0.88284800  0.53065500  1
  F  F0  1  0.00736300  0.37000000  0.16060200  1
  F  F1  1  0.99714000  0.63859600  0.34544300  1
  F  F2  1  0.75000000  0.74576600  0.06582300  1
  F  F3  1  0.50214300  0.00506200  0.17222000  1
  F  F4  1  0.49263700  0.37000000  0.16060200  1
  F  F5  1  0.00286000  0.36140400  0.65455700  1
  F  F6  1  0.50286000  0.63859600  0.34544300  1
  F  F7  1  0.99263700  0.63000000  0.83939800  1
  F  F8  1  0.00214300  0.99493800  0.82778000  1
  F  F9  1  0.49785700  0.99493800  0.82778000  1
  F  F10  1  0.50736300  0.63000000  0.83939800  1
  F  F11  1  0.99785700  0.00506200  0.17222000  1
  F  F12  1  0.25000000  0.25423400  0.93417700  1
  F  F13  1  0.49714000  0.36140400  0.65455700  1
loop_
_geom_bond_atom_site_label_1
_geom_bond_atom_site_label_2
_geom_bond_distance
_geom_bond_site_symmetry_2
Ba0 F7 2.772347 1_454
Ba0 F10 2.772347 1_554
Ba0 F1 2.796692 1_455
Ba0 F6 2.796692 1_555
Ba0 F0 2.842367 1_555
Ba0 F4 2.842367 1_555
Ba0 F2 2.961155 1_555
Ba0 F2 2.961155 1_455
Ba0 F8 3.077124 1_554
Ba0 F9 3.077124 1_554
Ba0 F3 3.165091 1_565
Ba0 F11 3.165091 1_465
Ba1 F0 2.772347 1_656
Ba1 F4 2.772347 1_556
Ba1 F13 2.796692 1_555
Ba1 F5 2.796692 1_655
Ba1 F10 2.842367 1_555
Ba1 F7 2.842367 1_555
Ba1 F12 2.961155 1_655
Ba1 F12 2.961155 1_555
Ba1 F3 3.077124 1_556
Ba1 F11 3.077124 1_556
Ba1 F9 3.165091 1_545
Ba1 F8 3.165091 1_645
Ba2 F4 2.676610 1_555
Ba2 F0 2.676610 1_655
Ba2 F13 2.711401 1_555
Ba2 F5 2.711401 1_655
Ba2 F6 2.724606 1_555
Ba2 F1 2.724606 1_555
Ba2 Cl0 3.348768 1_555
Ba2 Cl0 3.348768 1_655
Ba2 Cl1 3.361027 1_545
Ba3 F7 2.676610 1_455
Ba3 F10 2.676610 1_555
Ba3 F6 2.711401 1_555
Ba3 F1 2.711401 1_455
Ba3 F5 2.724606 1_555
Ba3 F13 2.724606 1_555
Ba3 Cl1 3.348768 1_555
Ba3 Cl1 3.348768 1_455
Ba3 Cl0 3.361027 1_565
Co0 F3 2.030206 1_565
Co0 F11 2.030206 1_565
Co0 F6 2.041740 1_555
Co0 F1 2.041740 1_555
Co0 F2 2.081433 1_555
Co1 F8 2.030206 1_545
Co1 F9 2.030206 1_545
Co1 F5 2.041740 1_555
Co1 F13 2.041740 1_555
Co1 F12 2.081433 1_555
Co2 F0 2.024524 1_555
Co2 F4 2.024524 1_555
Co2 F3 2.035825 1_555
Co2 F11 2.035825 1_455
Co2 F12 2.090242 1_554
Co3 F10 2.024524 1_555
Co3 F7 2.024524 1_555
Co3 F8 2.035825 1_655
Co3 F9 2.035825 1_555
Co3 F2 2.090242 1_556
Cl0 Co1 2.554289 1_555
Cl0 Co2 2.555117 1_555
Cl1 Co0 2.554289 1_555
Cl1 Co3 2.555117 1_555
