# generated using pymatgen
data_PrBC
_symmetry_space_group_name_H-M   'P 1'
_cell_length_a   8.54195100
_cell_length_b   8.57789400
_cell_length_c   12.35109100
_cell_angle_alpha   90.00000000
_cell_angle_beta   90.00000000
_cell_angle_gamma   90.00000000
_symmetry_Int_Tables_number   1
_chemical_formula_structural   PrBC
_chemical_formula_sum   'Pr20 B20 C20'
_cell_volume   904.98852505
_cell_formula_units_Z   20
loop_
 _symmetry_equiv_pos_site_id
 _symmetry_equiv_pos_as_xyz
  1  'x, y, z'
loop_
 _atom_site_type_symbol
 _atom_site_label
 _atom_site_symmetry_multiplicity
 _atom_site_fract_x
 _atom_site_fract_y
 _atom_site_fract_z
 _atom_site_occupancy
  Pr  Pr0  1  0.34015100  0.00856000  0.42045200  1
  Pr  Pr1  1  0.06110100  0.69776400  0.13342100  1
  Pr  Pr2  1  0.25492200  0.71134500  0.67322300  1
  Pr  Pr3  1  0.65804600  0.90822400  0.59709400  1
  Pr  Pr4  1  0.95020000  0.59789100  0.85944600  1
  Pr  Pr5  1  0.65984900  0.50856000  0.07954800  1
  Pr  Pr6  1  0.45020000  0.90210900  0.14055400  1
  Pr  Pr7  1  0.04980000  0.09789100  0.64055400  1
  Pr  Pr8  1  0.43889900  0.30223600  0.63342100  1
  Pr  Pr9  1  0.93889900  0.19776400  0.36657900  1
  Pr  Pr10  1  0.75492200  0.78865500  0.32677700  1
  Pr  Pr11  1  0.15804600  0.59177600  0.40290600  1
  Pr  Pr12  1  0.74507800  0.21134500  0.82677700  1
  Pr  Pr13  1  0.15984900  0.99144000  0.92045200  1
  Pr  Pr14  1  0.24507800  0.28865500  0.17322300  1
  Pr  Pr15  1  0.34195400  0.40822400  0.90290600  1
  Pr  Pr16  1  0.84195400  0.09177600  0.09709400  1
  Pr  Pr17  1  0.84015100  0.49144000  0.57954800  1
  Pr  Pr18  1  0.56110100  0.80223600  0.86657900  1
  Pr  Pr19  1  0.54980000  0.40210900  0.35944600  1
  B  B0  1  0.47994300  0.11229400  0.95944500  1
  B  B1  1  0.11681900  0.39678200  0.71279100  1
  B  B2  1  0.61681900  0.10321800  0.28720900  1
  B  B3  1  0.31552400  0.69173000  0.99174300  1
  B  B4  1  0.02005700  0.88770600  0.45944500  1
  B  B5  1  0.56167200  0.20039300  0.17910400  1
  B  B6  1  0.09797300  0.97392400  0.24065100  1
  B  B7  1  0.38318100  0.60321800  0.21279100  1
  B  B8  1  0.68447600  0.19173000  0.50825700  1
  B  B9  1  0.81552400  0.80827000  0.00825700  1
  B  B10  1  0.97994300  0.38770600  0.04055500  1
  B  B11  1  0.40202700  0.02607600  0.74065100  1
  B  B12  1  0.43832800  0.70039300  0.32089600  1
  B  B13  1  0.90202700  0.47392400  0.25934900  1
  B  B14  1  0.93832800  0.79960700  0.67910400  1
  B  B15  1  0.88318100  0.89678200  0.78720900  1
  B  B16  1  0.59797300  0.52607600  0.75934900  1
  B  B17  1  0.18447600  0.30827000  0.49174300  1
  B  B18  1  0.06167200  0.29960700  0.82089600  1
  B  B19  1  0.52005700  0.61229400  0.54055500  1
  C  C0  1  0.64623800  0.10524300  0.40691700  1
  C  C1  1  0.85376200  0.89475700  0.90691700  1
  C  C2  1  0.94300500  0.38937500  0.15795600  1
  C  C3  1  0.44300500  0.11062500  0.84204400  1
  C  C4  1  0.25563000  0.70145900  0.88050500  1
  C  C5  1  0.75563000  0.79854100  0.11949500  1
  C  C6  1  0.47486800  0.69242400  0.43868600  1
  C  C7  1  0.55699500  0.61062500  0.65795600  1
  C  C8  1  0.97486800  0.80757600  0.56131400  1
  C  C9  1  0.52513200  0.19242400  0.06131400  1
  C  C10  1  0.24437000  0.29854100  0.38050500  1
  C  C11  1  0.14461100  0.99671700  0.12736900  1
  C  C12  1  0.02513200  0.30757600  0.93868600  1
  C  C13  1  0.35376200  0.60524300  0.09308300  1
  C  C14  1  0.64461100  0.50328300  0.87263100  1
  C  C15  1  0.85538900  0.49671700  0.37263100  1
  C  C16  1  0.14623800  0.39475700  0.59308300  1
  C  C17  1  0.74437000  0.20145900  0.61949500  1
  C  C18  1  0.35538900  0.00328300  0.62736900  1
  C  C19  1  0.05699500  0.88937500  0.34204400  1
loop_
_geom_bond_atom_site_label_1
_geom_bond_atom_site_label_2
_geom_bond_distance
_geom_bond_site_symmetry_2
B0 C3 1.484031 1_555
B0 C9 1.484754 1_556
B0 Pr6 2.884242 1_546
B0 Pr15 2.884568 1_555
B0 Pr12 2.921657 1_555
B0 Pr13 2.963551 1_545
B0 Pr18 2.978238 1_545
B1 C16 1.499829 1_555
B1 Pr7 2.774367 1_555
B1 Pr4 2.877946 1_455
B1 Pr2 2.985166 1_555
B1 Pr17 2.992110 1_455
B1 Pr8 3.031136 1_555
B1 Pr15 3.036712 1_555
B2 C0 1.499829 1_555
B2 Pr19 2.774367 1_555
B2 Pr6 2.877946 1_545
B2 Pr10 2.985166 1_545
B2 Pr0 2.992110 1_555
B2 Pr9 3.031136 1_555
B2 Pr16 3.036712 1_555
B3 C4 1.468449 1_555
B3 C13 1.491213 1_556
B3 Pr15 2.677490 1_555
B3 Pr18 2.772859 1_555
B3 Pr1 2.790672 1_556
B3 Pr6 2.821026 1_556
B3 Pr13 3.025397 1_555
B4 C19 1.484031 1_555
B4 C8 1.484754 1_455
B4 Pr7 2.884242 1_565
B4 Pr11 2.884568 1_555
B4 Pr10 2.921657 1_455
B4 Pr0 2.963551 1_565
B4 Pr9 2.978238 1_465
B5 C9 1.489509 1_555
B5 Pr16 2.761530 1_555
B5 Pr6 2.771290 1_545
B5 Pr14 2.809250 1_555
B5 Pr19 2.822343 1_555
B5 Pr5 3.033638 1_555
B6 C11 1.467846 1_555
B6 C19 1.488894 1_555
B6 Pr1 2.732180 1_555
B6 Pr9 2.819954 1_465
B6 Pr16 2.991377 1_465
B6 Pr0 3.049485 1_565
B6 Pr14 3.092097 1_565
B7 C13 1.499829 1_555
B7 Pr6 2.774367 1_555
B7 Pr19 2.877946 1_555
B7 Pr14 2.985166 1_555
B7 Pr5 2.992110 1_555
B7 Pr1 3.031136 1_555
B7 Pr11 3.036712 1_555
B8 C17 1.468449 1_555
B8 C0 1.491213 1_555
B8 Pr3 2.677490 1_545
B8 Pr8 2.772859 1_555
B8 Pr9 2.790672 1_555
B8 Pr19 2.821026 1_555
B8 Pr17 3.025397 1_555
B9 C5 1.468449 1_555
B9 C1 1.491213 1_554
B9 Pr16 2.677490 1_565
B9 Pr1 2.772859 1_655
B9 Pr18 2.790672 1_554
B9 Pr4 2.821026 1_554
B9 Pr5 3.025397 1_555
B10 C2 1.484031 1_555
B10 C12 1.484754 1_654
B10 Pr4 2.884242 1_554
B10 Pr16 2.884568 1_555
B10 Pr14 2.921657 1_655
B10 Pr5 2.963551 1_555
B10 Pr1 2.978238 1_655
B11 C18 1.467846 1_555
B11 C3 1.488894 1_555
B11 Pr8 2.732180 1_555
B11 Pr18 2.819954 1_545
B11 Pr3 2.991377 1_545
B11 Pr13 3.049485 1_545
B11 Pr2 3.092097 1_545
B12 C6 1.489509 1_555
B12 Pr11 2.761530 1_555
B12 Pr19 2.771290 1_555
B12 Pr10 2.809250 1_555
B12 Pr6 2.822343 1_555
B12 Pr0 3.033638 1_565
B13 C15 1.467846 1_555
B13 C2 1.488894 1_555
B13 Pr9 2.732180 1_555
B13 Pr1 2.819954 1_655
B13 Pr11 2.991377 1_655
B13 Pr5 3.049485 1_555
B13 Pr10 3.092097 1_555
B14 C8 1.489509 1_555
B14 Pr3 2.761530 1_555
B14 Pr7 2.771290 1_665
B14 Pr2 2.809250 1_655
B14 Pr4 2.822343 1_555
B14 Pr17 3.033638 1_555
B15 C1 1.499829 1_555
B15 Pr4 2.774367 1_555
B15 Pr7 2.877946 1_665
B15 Pr12 2.985166 1_565
B15 Pr13 2.992110 1_655
B15 Pr18 3.031136 1_555
B15 Pr3 3.036712 1_555
B16 C14 1.467846 1_555
B16 C7 1.488894 1_555
B16 Pr18 2.732180 1_555
B16 Pr8 2.819954 1_555
B16 Pr15 2.991377 1_555
B16 Pr17 3.049485 1_555
B16 Pr12 3.092097 1_555
B17 C10 1.468449 1_555
B17 C16 1.491213 1_555
B17 Pr11 2.677490 1_555
B17 Pr9 2.772859 1_455
B17 Pr8 2.790672 1_555
B17 Pr7 2.821026 1_555
B17 Pr0 3.025397 1_555
B18 C12 1.489509 1_555
B18 Pr15 2.761530 1_555
B18 Pr4 2.771290 1_455
B18 Pr12 2.809250 1_455
B18 Pr7 2.822343 1_555
B18 Pr13 3.033638 1_545
B19 C7 1.484031 1_555
B19 C6 1.484754 1_555
B19 Pr19 2.884242 1_555
B19 Pr3 2.884568 1_555
B19 Pr2 2.921657 1_555
B19 Pr17 2.963551 1_555
B19 Pr8 2.978238 1_555
C0 Pr9 2.669749 1_555
C0 Pr19 2.739882 1_555
C0 Pr0 2.748049 1_555
C0 Pr3 2.895445 1_545
C0 Pr10 3.035855 1_545
C1 Pr18 2.669749 1_555
C1 Pr4 2.739882 1_555
C1 Pr13 2.748049 1_655
C1 Pr16 2.895445 1_566
C1 Pr12 3.035855 1_565
C2 Pr14 2.727619 1_655
C2 Pr16 2.797639 1_555
C2 Pr5 2.798784 1_555
C2 Pr1 2.847316 1_655
C2 Pr9 3.056503 1_555
C3 Pr12 2.727619 1_555
C3 Pr15 2.797639 1_555
C3 Pr13 2.798784 1_545
C3 Pr18 2.847316 1_545
C3 Pr8 3.056503 1_555
C4 Pr2 2.561570 1_555
C4 Pr15 2.635754 1_555
C4 Pr13 2.664602 1_555
C4 Pr18 2.754162 1_555
C4 Pr4 2.768323 1_455
C5 Pr10 2.561570 1_555
C5 Pr16 2.635754 1_565
C5 Pr5 2.664602 1_555
C5 Pr1 2.754162 1_655
C5 Pr6 2.768323 1_555
C6 Pr19 2.751198 1_555
C6 Pr11 2.874823 1_555
C6 Pr10 2.883490 1_555
C6 Pr0 2.954436 1_565
C6 Pr3 3.114935 1_555
C7 Pr2 2.727619 1_555
C7 Pr3 2.797639 1_555
C7 Pr17 2.798784 1_555
C7 Pr8 2.847316 1_555
C7 Pr18 3.056503 1_555
C8 Pr7 2.751198 1_665
C8 Pr3 2.874823 1_555
C8 Pr2 2.883490 1_655
C8 Pr17 2.954436 1_555
C8 Pr11 3.114935 1_655
C9 Pr6 2.751198 1_545
C9 Pr16 2.874823 1_555
C9 Pr14 2.883490 1_555
C9 Pr5 2.954436 1_555
C9 Pr15 3.114935 1_554
C10 Pr14 2.561570 1_555
C10 Pr11 2.635754 1_555
C10 Pr0 2.664602 1_555
C10 Pr9 2.754162 1_455
C10 Pr19 2.768323 1_555
C11 Pr13 2.559364 1_554
C11 Pr1 2.662803 1_555
C11 Pr14 2.707086 1_565
C11 Pr16 2.736492 1_465
C11 Pr6 2.738415 1_555
C12 Pr4 2.751198 1_455
C12 Pr15 2.874823 1_555
C12 Pr12 2.883490 1_455
C12 Pr13 2.954436 1_545
C12 Pr16 3.114935 1_456
C13 Pr1 2.669749 1_555
C13 Pr6 2.739882 1_555
C13 Pr5 2.748049 1_555
C13 Pr15 2.895445 1_554
C13 Pr14 3.035855 1_555
C14 Pr5 2.559364 1_556
C14 Pr18 2.662803 1_555
C14 Pr12 2.707086 1_555
C14 Pr15 2.736492 1_555
C14 Pr4 2.738415 1_555
C15 Pr17 2.559364 1_555
C15 Pr9 2.662803 1_555
C15 Pr10 2.707086 1_555
C15 Pr11 2.736492 1_655
C15 Pr19 2.738415 1_555
C16 Pr8 2.669749 1_555
C16 Pr7 2.739882 1_555
C16 Pr17 2.748049 1_455
C16 Pr11 2.895445 1_555
C16 Pr2 3.035855 1_555
C17 Pr12 2.561570 1_555
C17 Pr3 2.635754 1_545
C17 Pr17 2.664602 1_555
C17 Pr8 2.754162 1_555
C17 Pr7 2.768323 1_655
C18 Pr0 2.559364 1_555
C18 Pr8 2.662803 1_555
C18 Pr2 2.707086 1_545
C18 Pr3 2.736492 1_545
C18 Pr7 2.738415 1_555
C19 Pr10 2.727619 1_455
C19 Pr11 2.797639 1_555
C19 Pr0 2.798784 1_565
C19 Pr9 2.847316 1_465
C19 Pr1 3.056503 1_555
