# generated using pymatgen
data_Na4TiSe4
_symmetry_space_group_name_H-M   'P 1'
_cell_length_a   14.60421782
_cell_length_b   14.60421782
_cell_length_c   24.26408291
_cell_angle_alpha   49.75940177
_cell_angle_beta   49.75940177
_cell_angle_gamma   29.37949095
_symmetry_Int_Tables_number   1
_chemical_formula_structural   Na4TiSe4
_chemical_formula_sum   'Na32 Ti8 Se32'
_cell_volume   1889.72242085
_cell_formula_units_Z   8
loop_
 _symmetry_equiv_pos_site_id
 _symmetry_equiv_pos_as_xyz
  1  'x, y, z'
loop_
 _atom_site_type_symbol
 _atom_site_label
 _atom_site_symmetry_multiplicity
 _atom_site_fract_x
 _atom_site_fract_y
 _atom_site_fract_z
 _atom_site_occupancy
  Na  Na0  1  0.47091300  0.98898600  0.68451800  1
  Na  Na1  1  0.01101400  0.52908700  0.81548200  1
  Na  Na2  1  0.52908700  0.01101400  0.31548200  1
  Na  Na3  1  0.98898600  0.47091300  0.18451800  1
  Na  Na4  1  0.49583900  0.04079600  0.82633400  1
  Na  Na5  1  0.95920400  0.50416100  0.67366600  1
  Na  Na6  1  0.50416100  0.95920400  0.17366600  1
  Na  Na7  1  0.04079600  0.49583900  0.32633400  1
  Na  Na8  1  0.51640400  0.55503800  0.56332700  1
  Na  Na9  1  0.44496200  0.48359600  0.93667300  1
  Na  Na10  1  0.48359600  0.44496200  0.43667300  1
  Na  Na11  1  0.55503800  0.51640400  0.06332700  1
  Na  Na12  1  0.20359300  0.93858200  0.86402400  1
  Na  Na13  1  0.06141800  0.79640700  0.63597600  1
  Na  Na14  1  0.79640700  0.06141800  0.13597600  1
  Na  Na15  1  0.93858200  0.20359300  0.36402400  1
  Na  Na16  1  0.08659500  0.11307600  0.47988800  1
  Na  Na17  1  0.88692400  0.91340500  0.02011200  1
  Na  Na18  1  0.91340500  0.88692400  0.52011200  1
  Na  Na19  1  0.11307600  0.08659500  0.97988800  1
  Na  Na20  1  0.25324000  0.83838600  0.27678400  1
  Na  Na21  1  0.16161400  0.74676000  0.22321600  1
  Na  Na22  1  0.74676000  0.16161400  0.72321600  1
  Na  Na23  1  0.83838600  0.25324000  0.77678400  1
  Na  Na24  1  0.40510500  0.74958700  0.71102200  1
  Na  Na25  1  0.25041300  0.59489500  0.78897800  1
  Na  Na26  1  0.59489500  0.25041300  0.28897800  1
  Na  Na27  1  0.74958700  0.40510500  0.21102200  1
  Na  Na28  1  0.69438400  0.72203900  0.49287600  1
  Na  Na29  1  0.27796100  0.30561600  0.00712400  1
  Na  Na30  1  0.30561600  0.27796100  0.50712400  1
  Na  Na31  1  0.72203900  0.69438400  0.99287600  1
  Ti  Ti0  1  0.07174900  0.17791200  0.59680200  1
  Ti  Ti1  1  0.82208800  0.92825100  0.90319800  1
  Ti  Ti2  1  0.92825100  0.82208800  0.40319800  1
  Ti  Ti3  1  0.17791200  0.07174900  0.09680200  1
  Ti  Ti4  1  0.45338400  0.78295300  0.37193200  1
  Ti  Ti5  1  0.21704700  0.54661600  0.12806800  1
  Ti  Ti6  1  0.54661600  0.21704700  0.62806800  1
  Ti  Ti7  1  0.78295300  0.45338400  0.87193200  1
  Se  Se0  1  0.14014100  0.17662500  0.16295700  1
  Se  Se1  1  0.82337500  0.85985900  0.33704300  1
  Se  Se2  1  0.85985900  0.82337500  0.83704300  1
  Se  Se3  1  0.17662500  0.14014100  0.66295700  1
  Se  Se4  1  0.44444900  0.72599400  0.13021200  1
  Se  Se5  1  0.27400600  0.55555100  0.36978800  1
  Se  Se6  1  0.55555100  0.27400600  0.86978800  1
  Se  Se7  1  0.72599400  0.44444900  0.63021200  1
  Se  Se8  1  0.20159600  0.22181300  0.46721300  1
  Se  Se9  1  0.77818700  0.79840400  0.03278700  1
  Se  Se10  1  0.79840400  0.77818700  0.53278700  1
  Se  Se11  1  0.22181300  0.20159600  0.96721300  1
  Se  Se12  1  0.16719100  0.90361600  0.63746700  1
  Se  Se13  1  0.09638400  0.83280900  0.86253300  1
  Se  Se14  1  0.83280900  0.09638400  0.36253300  1
  Se  Se15  1  0.90361600  0.16719100  0.13746700  1
  Se  Se16  1  0.24836200  0.77879400  0.47558500  1
  Se  Se17  1  0.22120600  0.75163800  0.02441500  1
  Se  Se18  1  0.75163800  0.22120600  0.52441500  1
  Se  Se19  1  0.77879400  0.24836200  0.97558500  1
  Se  Se20  1  0.11782400  0.24704800  0.81280500  1
  Se  Se21  1  0.75295200  0.88217600  0.68719500  1
  Se  Se22  1  0.88217600  0.75295200  0.18719500  1
  Se  Se23  1  0.24704800  0.11782400  0.31280500  1
  Se  Se24  1  0.61201400  0.61559500  0.78853800  1
  Se  Se25  1  0.38440500  0.38798600  0.71146200  1
  Se  Se26  1  0.38798600  0.38440500  0.21146200  1
  Se  Se27  1  0.61559500  0.61201400  0.28853800  1
  Se  Se28  1  0.64423000  0.67467400  0.91284100  1
  Se  Se29  1  0.32532600  0.35577000  0.58715900  1
  Se  Se30  1  0.35577000  0.32532600  0.08715900  1
  Se  Se31  1  0.67467400  0.64423000  0.41284100  1
loop_
_geom_bond_atom_site_label_1
_geom_bond_atom_site_label_2
_geom_bond_distance
_geom_bond_site_symmetry_2
Na0 Se21 2.901818 1_555
Na0 Se3 2.914880 1_565
Na0 Se29 3.014308 1_565
Na0 Se24 3.115564 1_555
Na0 Se20 3.321578 1_565
Na0 Se10 3.484198 1_555
Na1 Se20 2.901818 1_555
Na1 Se2 2.914880 1_455
Na1 Se28 3.014308 1_455
Na1 Se25 3.115564 1_555
Na1 Se21 3.321578 1_455
Na1 Se11 3.484198 1_555
Na2 Se23 2.901818 1_555
Na2 Se1 2.914880 1_545
Na2 Se31 3.014308 1_545
Na2 Se26 3.115564 1_555
Na2 Se22 3.321578 1_545
Na2 Se8 3.484198 1_555
Na3 Se22 2.901818 1_555
Na3 Se0 2.914880 1_655
Na3 Se30 3.014308 1_655
Na3 Se27 3.115564 1_555
Na3 Se23 3.321578 1_655
Na3 Se9 3.484198 1_555
Na4 Se28 2.978949 1_545
Na4 Se25 3.057283 1_555
Na4 Se21 3.070857 1_545
Na4 Se11 3.087642 1_555
Na4 Se2 3.116409 1_545
Na4 Se20 3.426566 1_555
Na5 Se29 2.978949 1_655
Na5 Se24 3.057283 1_555
Na5 Se20 3.070857 1_655
Na5 Se10 3.087642 1_555
Na5 Se3 3.116409 1_655
Na5 Se21 3.426566 1_555
Na6 Se30 2.978949 1_565
Na6 Se27 3.057283 1_555
Na6 Se23 3.070857 1_565
Na6 Se9 3.087642 1_555
Na6 Se0 3.116409 1_565
Na6 Se22 3.426566 1_555
Na7 Se31 2.978949 1_455
Na7 Se26 3.057283 1_555
Na7 Se22 3.070857 1_455
Na7 Se8 3.087642 1_555
Na7 Se1 3.116409 1_455
Na7 Se23 3.426566 1_555
Na8 Se31 2.927432 1_555
Na8 Se7 3.004569 1_555
Na8 Se18 3.004925 1_555
Na8 Se12 3.145286 1_555
Na8 Se16 3.165470 1_555
Na8 Se25 3.240698 1_555
Na9 Se30 2.927432 1_556
Na9 Se6 3.004569 1_555
Na9 Se19 3.004925 1_555
Na9 Se13 3.145286 1_555
Na9 Se17 3.165470 1_556
Na9 Se24 3.240698 1_555
Na10 Se29 2.927432 1_555
Na10 Se5 3.004569 1_555
Na10 Se16 3.004925 1_555
Na10 Se14 3.145286 1_555
Na10 Se18 3.165470 1_555
Na10 Se27 3.240698 1_555
Na11 Se28 2.927432 1_554
Na11 Se4 3.004569 1_555
Na11 Se17 3.004925 1_555
Na11 Se15 3.145286 1_555
Na11 Se19 3.165470 1_554
Na11 Se26 3.240698 1_555
Na12 Se20 2.889872 1_565
Na12 Se17 3.001246 1_556
Na12 Se24 3.032472 1_555
Na12 Se13 3.033050 1_555
Na12 Se19 3.390240 1_465
Na13 Se21 2.889872 1_455
Na13 Se16 3.001246 1_555
Na13 Se25 3.032472 1_555
Na13 Se12 3.033050 1_555
Na13 Se18 3.390240 1_465
Na14 Se22 2.889872 1_545
Na14 Se19 3.001246 1_554
Na14 Se26 3.032472 1_555
Na14 Se15 3.033050 1_555
Na14 Se17 3.390240 1_645
Na15 Se23 2.889872 1_655
Na15 Se18 3.001246 1_555
Na15 Se27 3.032472 1_555
Na15 Se14 3.033050 1_555
Na15 Se16 3.390240 1_645
Na16 Se8 2.964268 1_555
Na16 Se18 3.082817 1_455
Na16 Se23 3.094788 1_555
Na16 Se16 3.108862 1_545
Na16 Se12 3.128950 1_545
Na17 Se9 2.964268 1_555
Na17 Se19 3.082817 1_564
Na17 Se22 3.094788 1_555
Na17 Se17 3.108862 1_655
Na17 Se13 3.128950 1_654
Na18 Se10 2.964268 1_555
Na18 Se16 3.082817 1_655
Na18 Se21 3.094788 1_555
Na18 Se18 3.108862 1_565
Na18 Se14 3.128950 1_565
Na19 Se11 2.964268 1_555
Na19 Se17 3.082817 1_546
Na19 Se20 3.094788 1_555
Na19 Se19 3.108862 1_455
Na19 Se15 3.128950 1_456
Na20 Se0 2.967307 1_565
Na20 Se5 2.983982 1_555
Na20 Se27 3.042546 1_555
Na20 Se14 3.087113 1_465
Na20 Se4 3.140563 1_555
Na21 Se1 2.967307 1_455
Na21 Se4 2.983982 1_555
Na21 Se26 3.042546 1_555
Na21 Se15 3.087113 1_465
Na21 Se5 3.140563 1_555
Na22 Se2 2.967307 1_545
Na22 Se7 2.983982 1_555
Na22 Se25 3.042546 1_555
Na22 Se12 3.087113 1_645
Na22 Se6 3.140563 1_555
Na23 Se3 2.967307 1_655
Na23 Se6 2.983982 1_555
Na23 Se24 3.042546 1_555
Na23 Se13 3.087113 1_645
Na23 Se7 3.140563 1_555
Na24 Se3 2.879510 1_565
Na24 Se7 2.947297 1_555
Na24 Se24 2.963165 1_555
Na24 Se12 3.085680 1_555
Na24 Se13 3.182437 1_555
Na25 Se2 2.879510 1_455
Na25 Se6 2.947297 1_555
Na25 Se25 2.963165 1_555
Na25 Se13 3.085680 1_555
Na25 Se12 3.182437 1_555
Na26 Se1 2.879510 1_545
Na26 Se5 2.947297 1_555
Na26 Se26 2.963165 1_555
Na26 Se14 3.085680 1_555
Na26 Se15 3.182437 1_555
Na27 Se0 2.879510 1_655
Na27 Se4 2.947297 1_555
Na27 Se27 2.963165 1_555
Na27 Se15 3.085680 1_555
Na27 Se14 3.182437 1_555
Na28 Se10 3.002594 1_555
Na28 Se7 3.004066 1_555
Na28 Se31 3.047750 1_555
Na28 Se1 3.077234 1_555
Na29 Se11 3.002594 1_554
Na29 Se6 3.004066 1_554
Na29 Se30 3.047750 1_555
Na29 Se0 3.077234 1_555
Na30 Se8 3.002594 1_555
Na30 Se5 3.004066 1_555
Na30 Se29 3.047750 1_555
Na30 Se3 3.077234 1_555
Na31 Se9 3.002594 1_556
Na31 Se4 3.004066 1_556
Na31 Se28 3.047750 1_555
Na31 Se2 3.077234 1_555
Se0 Ti3 2.405586 1_555
Se1 Ti2 2.405586 1_555
Se2 Ti1 2.405586 1_555
Se3 Ti0 2.405586 1_555
Se4 Ti3 2.416546 1_565
Se5 Ti2 2.416546 1_455
Se6 Ti1 2.416546 1_545
Se7 Ti0 2.416546 1_655
Se8 Ti0 2.388413 1_555
Se9 Ti1 2.388413 1_554
Se10 Ti2 2.388413 1_555
Se11 Ti3 2.388413 1_556
Se12 Ti0 2.429531 1_565
Se13 Ti1 2.429531 1_455
Se14 Ti2 2.429531 1_545
Se15 Ti3 2.429531 1_655
Se16 Ti4 2.384212 1_555
Se17 Ti5 2.384212 1_555
Se18 Ti6 2.384212 1_555
Se19 Ti7 2.384212 1_555
Se20 Ti7 2.427586 1_455
Se21 Ti6 2.427586 1_565
Se22 Ti5 2.427586 1_655
Se23 Ti4 2.427586 1_545
Se24 Ti7 2.442365 1_555
Se25 Ti6 2.442365 1_555
Se26 Ti5 2.442365 1_555
Se27 Ti4 2.442365 1_555
Se28 Ti7 2.381146 1_555
Se29 Ti6 2.381146 1_555
Se30 Ti5 2.381146 1_555
Se31 Ti4 2.381146 1_555
