# generated using pymatgen
data_Na3ScSi2O7
_symmetry_space_group_name_H-M   'P 1'
_cell_length_a   5.40083800
_cell_length_b   9.45824800
_cell_length_c   13.23271700
_cell_angle_alpha   90.00000000
_cell_angle_beta   90.00000000
_cell_angle_gamma   90.00000000
_symmetry_Int_Tables_number   1
_chemical_formula_structural   Na3ScSi2O7
_chemical_formula_sum   'Na12 Sc4 Si8 O28'
_cell_volume   675.95980581
_cell_formula_units_Z   4
loop_
 _symmetry_equiv_pos_site_id
 _symmetry_equiv_pos_as_xyz
  1  'x, y, z'
loop_
 _atom_site_type_symbol
 _atom_site_label
 _atom_site_symmetry_multiplicity
 _atom_site_fract_x
 _atom_site_fract_y
 _atom_site_fract_z
 _atom_site_occupancy
  Na  Na0  1  0.01635800  0.34634000  0.40714300  1
  Na  Na1  1  0.98364200  0.65366000  0.90714300  1
  Na  Na2  1  0.51635800  0.15366000  0.59285700  1
  Na  Na3  1  0.98272600  0.98073600  0.75000000  1
  Na  Na4  1  0.48364200  0.84634000  0.09285700  1
  Na  Na5  1  0.48272600  0.51926400  0.25000000  1
  Na  Na6  1  0.01635800  0.34634000  0.09285700  1
  Na  Na7  1  0.51635800  0.15366000  0.90714300  1
  Na  Na8  1  0.48364200  0.84634000  0.40714300  1
  Na  Na9  1  0.51727400  0.48073600  0.75000000  1
  Na  Na10  1  0.98364200  0.65366000  0.59285700  1
  Na  Na11  1  0.01727400  0.01926400  0.25000000  1
  Sc  Sc0  1  0.50000000  0.50000000  0.00000000  1
  Sc  Sc1  1  0.00000000  0.00000000  0.50000000  1
  Sc  Sc2  1  0.00000000  0.00000000  0.00000000  1
  Sc  Sc3  1  0.50000000  0.50000000  0.50000000  1
  Si  Si0  1  0.51329400  0.17553800  0.13162200  1
  Si  Si1  1  0.01329400  0.32446200  0.63162200  1
  Si  Si2  1  0.51329400  0.17553800  0.36837800  1
  Si  Si3  1  0.48670600  0.82446200  0.86837800  1
  Si  Si4  1  0.48670600  0.82446200  0.63162200  1
  Si  Si5  1  0.98670600  0.67553800  0.13162200  1
  Si  Si6  1  0.01329400  0.32446200  0.86837800  1
  Si  Si7  1  0.98670600  0.67553800  0.36837800  1
  O  O0  1  0.47438700  0.34600500  0.11928400  1
  O  O1  1  0.31890100  0.08929800  0.43997700  1
  O  O2  1  0.68109900  0.91070200  0.56002300  1
  O  O3  1  0.20116400  0.87173500  0.60722400  1
  O  O4  1  0.31890100  0.08929800  0.06002300  1
  O  O5  1  0.47438700  0.34600500  0.38071600  1
  O  O6  1  0.29883600  0.37173500  0.60722400  1
  O  O7  1  0.18109900  0.58929800  0.43997700  1
  O  O8  1  0.97438700  0.15399500  0.61928400  1
  O  O9  1  0.52561300  0.65399500  0.61928400  1
  O  O10  1  0.02561300  0.84600500  0.38071600  1
  O  O11  1  0.02561300  0.84600500  0.11928400  1
  O  O12  1  0.18109900  0.58929800  0.06002300  1
  O  O13  1  0.79883600  0.12826500  0.39277600  1
  O  O14  1  0.79883600  0.12826500  0.10722400  1
  O  O15  1  0.29883600  0.37173500  0.89277600  1
  O  O16  1  0.55851000  0.87495600  0.75000000  1
  O  O17  1  0.52561300  0.65399500  0.88071600  1
  O  O18  1  0.44149000  0.12504400  0.25000000  1
  O  O19  1  0.97438700  0.15399500  0.88071600  1
  O  O20  1  0.20116400  0.87173500  0.89277600  1
  O  O21  1  0.68109900  0.91070200  0.93997700  1
  O  O22  1  0.70116400  0.62826500  0.10722400  1
  O  O23  1  0.70116400  0.62826500  0.39277600  1
  O  O24  1  0.81890100  0.41070200  0.93997700  1
  O  O25  1  0.94149000  0.37495600  0.75000000  1
  O  O26  1  0.05851000  0.62504400  0.25000000  1
  O  O27  1  0.81890100  0.41070200  0.56002300  1
loop_
_geom_bond_atom_site_label_1
_geom_bond_atom_site_label_2
_geom_bond_distance
_geom_bond_site_symmetry_2
Na0 O27 2.366529 1_455
Na0 O13 2.381313 1_455
Na0 O5 2.498338 1_555
Na0 O7 2.502203 1_555
Na1 O12 2.366529 1_656
Na1 O20 2.381313 1_655
Na1 O17 2.498338 1_555
Na1 O24 2.502203 1_555
Na2 O1 2.366529 1_555
Na2 O6 2.381313 1_555
Na2 O8 2.498338 1_555
Na2 O2 2.502203 1_545
Na3 O19 2.383152 1_565
Na3 O8 2.383152 1_565
Na3 O3 2.454423 1_655
Na3 O20 2.454423 1_655
Na3 O16 2.500045 1_555
Na4 O21 2.366529 1_554
Na4 O22 2.381313 1_555
Na4 O11 2.498338 1_555
Na4 O4 2.502203 1_565
Na5 O0 2.383152 1_555
Na5 O5 2.383152 1_555
Na5 O23 2.454423 1_555
Na5 O22 2.454423 1_555
Na5 O26 2.500045 1_555
Na6 O24 2.366529 1_454
Na6 O14 2.381313 1_455
Na6 O0 2.498338 1_555
Na6 O12 2.502203 1_555
Na7 O4 2.366529 1_556
Na7 O15 2.381313 1_555
Na7 O19 2.498338 1_555
Na7 O21 2.502203 1_545
Na8 O2 2.366529 1_555
Na8 O23 2.381313 1_555
Na8 O10 2.498338 1_555
Na8 O1 2.502203 1_565
Na9 O17 2.383152 1_555
Na9 O9 2.383152 1_555
Na9 O15 2.454423 1_555
Na9 O6 2.454423 1_555
Na9 O25 2.500045 1_555
Na10 O7 2.366529 1_655
Na10 O3 2.381313 1_655
Na10 O9 2.498338 1_555
Na10 O27 2.502203 1_555
Na11 O11 2.383152 1_545
Na11 O10 2.383152 1_545
Na11 O13 2.454423 1_455
Na11 O14 2.454423 1_455
Na11 O18 2.500045 1_555
O0 Si0 1.634131 1_555
O0 Sc0 2.152232 1_555
O1 Si2 1.632560 1_555
O1 Sc1 2.076209 1_555
O2 Si4 1.632560 1_555
O2 Sc1 2.076209 1_665
O3 Si4 1.637811 1_555
O3 Sc1 2.159936 1_565
O4 Si0 1.632560 1_555
O4 Sc2 2.076209 1_555
O5 Si2 1.634131 1_555
O5 Sc3 2.152232 1_555
O6 Si1 1.637811 1_555
O6 Sc3 2.159936 1_555
O7 Si7 1.632560 1_455
O7 Sc3 2.076209 1_555
O8 Si1 1.634131 1_655
O8 Sc1 2.152232 1_655
O9 Si4 1.634131 1_555
O9 Sc3 2.152232 1_555
O10 Si7 1.634131 1_455
O10 Sc1 2.152232 1_565
O11 Si5 1.634131 1_455
O11 Sc2 2.152232 1_565
O12 Si5 1.632560 1_455
O12 Sc0 2.076209 1_555
O13 Si2 1.637811 1_555
O13 Sc1 2.159936 1_655
O14 Si0 1.637811 1_555
O14 Sc2 2.159936 1_655
O15 Si6 1.637811 1_555
O15 Sc0 2.159936 1_556
O16 Si4 1.682939 1_555
O16 Si3 1.682939 1_555
O17 Si3 1.634131 1_555
O17 Sc0 2.152232 1_556
O18 Si2 1.682939 1_555
O18 Si0 1.682939 1_555
O19 Si6 1.634131 1_655
O19 Sc2 2.152232 1_656
O20 Si3 1.637811 1_555
O20 Sc2 2.159936 1_566
O21 Si3 1.632560 1_555
O21 Sc2 2.076209 1_666
O22 Si5 1.637811 1_555
O22 Sc0 2.159936 1_555
O23 Si7 1.637811 1_555
O23 Sc3 2.159936 1_555
O24 Si6 1.632560 1_655
O24 Sc0 2.076209 1_556
O25 Si6 1.682939 1_655
O25 Si1 1.682939 1_655
O26 Si7 1.682939 1_455
O26 Si5 1.682939 1_455
O27 Si1 1.632560 1_655
O27 Sc3 2.076209 1_555
