# generated using pymatgen
data_Al22PbO34
_symmetry_space_group_name_H-M   'P 1'
_cell_length_a   11.30684600
_cell_length_b   9.78194400
_cell_length_c   11.89227608
_cell_angle_alpha   74.29384029
_cell_angle_beta   90.00000000
_cell_angle_gamma   90.00000000
_symmetry_Int_Tables_number   1
_chemical_formula_structural   Al22PbO34
_chemical_formula_sum   'Al44 Pb2 O68'
_cell_volume   1266.21004361
_cell_formula_units_Z   2
loop_
 _symmetry_equiv_pos_site_id
 _symmetry_equiv_pos_as_xyz
  1  'x, y, z'
loop_
 _atom_site_type_symbol
 _atom_site_label
 _atom_site_symmetry_multiplicity
 _atom_site_fract_x
 _atom_site_fract_y
 _atom_site_fract_z
 _atom_site_occupancy
  Al  Al0  1  0.00000000  0.00000000  0.00000000  1
  Al  Al1  1  0.12444000  0.34366200  0.21558800  1
  Al  Al2  1  0.00004200  0.09649100  0.21602500  1
  Al  Al3  1  0.00067600  0.35015100  0.95105600  1
  Al  Al4  1  0.00120300  0.45013600  0.64934100  1
  Al  Al5  1  0.99879700  0.54986400  0.35065900  1
  Al  Al6  1  0.37619200  0.84803100  0.20543000  1
  Al  Al7  1  0.12380800  0.84803100  0.20543000  1
  Al  Al8  1  0.25000000  0.59678200  0.20947000  1
  Al  Al9  1  0.99932400  0.64984900  0.04894400  1
  Al  Al10  1  0.25000000  0.85131200  0.94721700  1
  Al  Al11  1  0.25000000  0.49980100  0.00126900  1
  Al  Al12  1  0.99995800  0.90350900  0.78397500  1
  Al  Al13  1  0.12345000  0.65406700  0.78922200  1
  Al  Al14  1  0.25000000  0.94555100  0.64784000  1
  Al  Al15  1  0.25000000  0.05017500  0.35215200  1
  Al  Al16  1  0.37556000  0.34366200  0.21558800  1
  Al  Al17  1  0.62345000  0.34593300  0.21077800  1
  Al  Al18  1  0.49995800  0.09649100  0.21602500  1
  Al  Al19  1  0.25000000  0.15139200  0.04840300  1
  Al  Al20  1  0.49932400  0.35015100  0.95105600  1
  Al  Al21  1  0.50000000  0.00000000  0.00000000  1
  Al  Al22  1  0.25000000  0.40126600  0.78843300  1
  Al  Al23  1  0.37314000  0.15388800  0.78296200  1
  Al  Al24  1  0.12686000  0.15388800  0.78296200  1
  Al  Al25  1  0.49879700  0.45013600  0.64934100  1
  Al  Al26  1  0.50120300  0.54986400  0.35065900  1
  Al  Al27  1  0.87314000  0.84611200  0.21703800  1
  Al  Al28  1  0.62686000  0.84611200  0.21703800  1
  Al  Al29  1  0.75000000  0.59873400  0.21156700  1
  Al  Al30  1  0.50067600  0.64984900  0.04894400  1
  Al  Al31  1  0.75000000  0.84860800  0.95159700  1
  Al  Al32  1  0.75000000  0.50019900  0.99873100  1
  Al  Al33  1  0.50004200  0.90350900  0.78397500  1
  Al  Al34  1  0.37655000  0.65406700  0.78922200  1
  Al  Al35  1  0.62444000  0.65633800  0.78441200  1
  Al  Al36  1  0.75000000  0.94982500  0.64784800  1
  Al  Al37  1  0.75000000  0.05444900  0.35216000  1
  Al  Al38  1  0.87655000  0.34593300  0.21077800  1
  Al  Al39  1  0.75000000  0.14868800  0.05278300  1
  Al  Al40  1  0.75000000  0.40321800  0.79053000  1
  Al  Al41  1  0.62380800  0.15196900  0.79457000  1
  Al  Al42  1  0.87619200  0.15196900  0.79457000  1
  Al  Al43  1  0.87556000  0.65633800  0.78441200  1
  Pb  Pb0  1  0.25000000  0.70246900  0.46950000  1
  Pb  Pb1  1  0.75000000  0.29753100  0.53050000  1
  O  O0  1  0.99799000  0.09421000  0.71857100  1
  O  O1  1  0.13278200  0.45492100  0.90210200  1
  O  O2  1  0.99762300  0.19040700  0.90170700  1
  O  O3  1  0.25000000  0.59358400  0.71715100  1
  O  O4  1  0.12511600  0.34505100  0.71324900  1
  O  O5  1  0.00000000  0.50000000  0.50000000  1
  O  O6  1  0.12938500  0.65686000  0.29432600  1
  O  O7  1  0.99952600  0.40485300  0.28697900  1
  O  O8  1  0.25000000  0.79651400  0.10916900  1
  O  O9  1  0.00237700  0.80959300  0.09829300  1
  O  O10  1  0.13248400  0.54807300  0.09980600  1
  O  O11  1  0.38248400  0.95588600  0.90004500  1
  O  O12  1  0.11751600  0.95588600  0.90004500  1
  O  O13  1  0.25000000  0.68878100  0.90150000  1
  O  O14  1  0.99863400  0.70360500  0.88937700  1
  O  O15  1  0.50201000  0.09421000  0.71857100  1
  O  O16  1  0.25000000  0.09613300  0.70624300  1
  O  O17  1  0.12441800  0.84339000  0.71277800  1
  O  O18  1  0.37558200  0.84339000  0.71277800  1
  O  O19  1  0.25000000  0.95456300  0.49872300  1
  O  O20  1  0.37472600  0.15354600  0.29032300  1
  O  O21  1  0.12527400  0.15354600  0.29032300  1
  O  O22  1  0.25000000  0.89814400  0.28927000  1
  O  O23  1  0.49863400  0.29639500  0.11062300  1
  O  O24  1  0.25000000  0.31048700  0.09909100  1
  O  O25  1  0.38099400  0.04482400  0.09859500  1
  O  O26  1  0.11900600  0.04482400  0.09859500  1
  O  O27  1  0.63248400  0.45192700  0.90019400  1
  O  O28  1  0.36721800  0.45492100  0.90210200  1
  O  O29  1  0.50237700  0.19040700  0.90170700  1
  O  O30  1  0.25000000  0.20255200  0.88843000  1
  O  O31  1  0.75000000  0.59197100  0.71837000  1
  O  O32  1  0.49952600  0.59514700  0.71302100  1
  O  O33  1  0.62938500  0.34314000  0.70567400  1
  O  O34  1  0.37488400  0.34505100  0.71324900  1
  O  O35  1  0.50000000  0.50000000  0.50000000  1
  O  O36  1  0.37061500  0.65686000  0.29432600  1
  O  O37  1  0.62511600  0.65494900  0.28675100  1
  O  O38  1  0.50047400  0.40485300  0.28697900  1
  O  O39  1  0.25000000  0.40802900  0.28163000  1
  O  O40  1  0.75000000  0.79744800  0.11157000  1
  O  O41  1  0.49762300  0.80959300  0.09829300  1
  O  O42  1  0.36751600  0.54807300  0.09980600  1
  O  O43  1  0.63278200  0.54507900  0.09789800  1
  O  O44  1  0.88099400  0.95517600  0.90140500  1
  O  O45  1  0.61900600  0.95517600  0.90140500  1
  O  O46  1  0.75000000  0.68951300  0.90090900  1
  O  O47  1  0.50136600  0.70360500  0.88937700  1
  O  O48  1  0.75000000  0.10185600  0.71073000  1
  O  O49  1  0.62527400  0.84645400  0.70967700  1
  O  O50  1  0.87472600  0.84645400  0.70967700  1
  O  O51  1  0.75000000  0.04543700  0.50127700  1
  O  O52  1  0.62441800  0.15661000  0.28722200  1
  O  O53  1  0.87558200  0.15661000  0.28722200  1
  O  O54  1  0.75000000  0.90386700  0.29375700  1
  O  O55  1  0.49799000  0.90579000  0.28142900  1
  O  O56  1  0.00136600  0.29639500  0.11062300  1
  O  O57  1  0.75000000  0.31121900  0.09850000  1
  O  O58  1  0.61751600  0.04411400  0.09995500  1
  O  O59  1  0.88248400  0.04411400  0.09995500  1
  O  O60  1  0.86751600  0.45192700  0.90019400  1
  O  O61  1  0.75000000  0.20348600  0.89083100  1
  O  O62  1  0.00047400  0.59514700  0.71302100  1
  O  O63  1  0.87061500  0.34314000  0.70567400  1
  O  O64  1  0.87488400  0.65494900  0.28675100  1
  O  O65  1  0.75000000  0.40641600  0.28284900  1
  O  O66  1  0.86721800  0.54507900  0.09789800  1
  O  O67  1  0.00201000  0.90579000  0.28142900  1
loop_
_geom_bond_atom_site_label_1
_geom_bond_atom_site_label_2
_geom_bond_distance
_geom_bond_site_symmetry_2
Al0 O12 1.908520 1_544
Al0 O59 1.908520 1_455
Al0 O26 1.912064 1_555
Al0 O44 1.912064 1_444
Al0 O9 1.912449 1_545
Al0 O2 1.912449 1_454
Al1 O39 1.815632 1_555
Al1 O7 1.830040 1_455
Al1 O21 1.831293 1_555
Al1 O56 2.005226 1_555
Al1 O24 2.069688 1_555
Al1 O10 2.100407 1_555
Al2 O67 1.816519 1_545
Al2 O53 1.820072 1_455
Al2 O21 1.834166 1_555
Al2 O56 2.016966 1_555
Al2 O59 2.077865 1_455
Al2 O26 2.096930 1_555
Al3 O2 1.812139 1_455
Al3 O1 1.815867 1_555
Al3 O60 1.816006 1_455
Al3 O56 1.826820 1_556
Al4 O5 1.709762 1_555
Al4 O62 1.779684 1_555
Al4 O4 1.781651 1_555
Al4 O63 1.828875 1_455
Al5 O5 1.709762 1_655
Al5 O7 1.779684 1_555
Al5 O64 1.781651 1_555
Al5 O6 1.828875 1_655
Al6 O55 1.819090 1_555
Al6 O22 1.880126 1_555
Al6 O36 1.883681 1_555
Al6 O41 1.977173 1_555
Al6 O8 1.978034 1_555
Al6 O25 1.999672 1_565
Al7 O67 1.819090 1_555
Al7 O22 1.880126 1_555
Al7 O6 1.883681 1_555
Al7 O9 1.977173 1_555
Al7 O8 1.978034 1_555
Al7 O26 1.999672 1_565
Al8 O39 1.813192 1_555
Al8 O36 1.882731 1_555
Al8 O6 1.882731 1_555
Al8 O8 1.994558 1_555
Al8 O42 2.007437 1_555
Al8 O10 2.007437 1_555
Al9 O9 1.812139 1_655
Al9 O66 1.815867 1_555
Al9 O10 1.816006 1_655
Al9 O14 1.826820 1_554
Al10 O13 1.814181 1_555
Al10 O11 1.815034 1_555
Al10 O12 1.815034 1_555
Al10 O8 1.854125 1_556
Al11 O24 1.901669 1_555
Al11 O28 1.902744 1_554
Al11 O1 1.902744 1_554
Al11 O13 1.907236 1_554
Al11 O10 1.913443 1_555
Al11 O42 1.913443 1_555
Al12 O0 1.816519 1_565
Al12 O17 1.820072 1_655
Al12 O50 1.834166 1_555
Al12 O14 2.016966 1_555
Al12 O12 2.077865 1_655
Al12 O44 2.096930 1_555
Al13 O17 1.828871 1_555
Al13 O62 1.835638 1_555
Al13 O3 1.845699 1_555
Al13 O14 1.989383 1_455
Al13 O13 2.047212 1_555
Al13 O1 2.047488 1_555
Al14 O19 1.751534 1_555
Al14 O18 1.787021 1_555
Al14 O17 1.787021 1_555
Al14 O16 1.790521 1_565
Al15 O19 1.740798 1_545
Al15 O20 1.774655 1_555
Al15 O21 1.774655 1_555
Al15 O22 1.836564 1_545
Al16 O39 1.815632 1_555
Al16 O38 1.830040 1_555
Al16 O20 1.831293 1_555
Al16 O23 2.005226 1_555
Al16 O24 2.069688 1_555
Al16 O42 2.100407 1_555
Al17 O52 1.828871 1_555
Al17 O38 1.835638 1_555
Al17 O65 1.845699 1_555
Al17 O23 1.989383 1_555
Al17 O57 2.047212 1_555
Al17 O43 2.047488 1_555
Al18 O55 1.816519 1_545
Al18 O52 1.820072 1_555
Al18 O20 1.834166 1_555
Al18 O23 2.016966 1_555
Al18 O58 2.077865 1_555
Al18 O25 2.096930 1_555
Al19 O24 1.814718 1_555
Al19 O26 1.816545 1_555
Al19 O25 1.816545 1_555
Al19 O30 1.831469 1_554
Al20 O29 1.812139 1_555
Al20 O28 1.815867 1_555
Al20 O27 1.816006 1_555
Al20 O23 1.826820 1_556
Al21 O58 1.908520 1_555
Al21 O11 1.908520 1_544
Al21 O25 1.912064 1_555
Al21 O45 1.912064 1_544
Al21 O41 1.912449 1_545
Al21 O29 1.912449 1_554
Al22 O34 1.833541 1_555
Al22 O4 1.833541 1_555
Al22 O3 1.842357 1_555
Al22 O30 1.985214 1_555
Al22 O28 2.059976 1_555
Al22 O1 2.059976 1_555
Al23 O15 1.814488 1_555
Al23 O34 1.828954 1_555
Al23 O16 1.835543 1_555
Al23 O30 2.015336 1_555
Al23 O11 2.059411 1_545
Al23 O29 2.128422 1_555
Al24 O0 1.814488 1_455
Al24 O4 1.828954 1_555
Al24 O16 1.835543 1_555
Al24 O30 2.015336 1_555
Al24 O12 2.059411 1_545
Al24 O2 2.128422 1_455
Al25 O35 1.709762 1_555
Al25 O32 1.779684 1_555
Al25 O34 1.781651 1_555
Al25 O33 1.828875 1_555
Al26 O35 1.709762 1_555
Al26 O38 1.779684 1_555
Al26 O37 1.781651 1_555
Al26 O36 1.828875 1_555
Al27 O67 1.814488 1_655
Al27 O64 1.828954 1_555
Al27 O54 1.835543 1_555
Al27 O40 2.015336 1_555
Al27 O59 2.059411 1_565
Al27 O9 2.128422 1_655
Al28 O55 1.814488 1_555
Al28 O37 1.828954 1_555
Al28 O54 1.835543 1_555
Al28 O40 2.015336 1_555
Al28 O58 2.059411 1_565
Al28 O41 2.128422 1_555
Al29 O64 1.833541 1_555
Al29 O37 1.833541 1_555
Al29 O65 1.842357 1_555
Al29 O40 1.985214 1_555
Al29 O66 2.059976 1_555
Al29 O43 2.059976 1_555
Al30 O41 1.812139 1_555
Al30 O43 1.815867 1_555
Al30 O42 1.816006 1_555
Al30 O47 1.826820 1_554
Al31 O46 1.814718 1_555
Al31 O44 1.816545 1_555
Al31 O45 1.816545 1_555
Al31 O40 1.831469 1_556
Al32 O46 1.901669 1_555
Al32 O66 1.902744 1_556
Al32 O43 1.902744 1_556
Al32 O57 1.907236 1_556
Al32 O60 1.913443 1_555
Al32 O27 1.913443 1_555
Al33 O15 1.816519 1_565
Al33 O18 1.820072 1_555
Al33 O49 1.834166 1_555
Al33 O47 2.016966 1_555
Al33 O11 2.077865 1_555
Al33 O45 2.096930 1_555
Al34 O18 1.828871 1_555
Al34 O32 1.835638 1_555
Al34 O3 1.845699 1_555
Al34 O47 1.989383 1_555
Al34 O13 2.047212 1_555
Al34 O28 2.047488 1_555
Al35 O31 1.815632 1_555
Al35 O32 1.830040 1_555
Al35 O49 1.831293 1_555
Al35 O47 2.005226 1_555
Al35 O46 2.069688 1_555
Al35 O27 2.100407 1_555
Al36 O51 1.740798 1_565
Al36 O50 1.774655 1_555
Al36 O49 1.774655 1_555
Al36 O48 1.836564 1_565
Al37 O51 1.751534 1_555
Al37 O53 1.787021 1_555
Al37 O52 1.787021 1_555
Al37 O54 1.790521 1_545
Al38 O53 1.828871 1_555
Al38 O7 1.835638 1_555
Al38 O65 1.845699 1_555
Al38 O56 1.989383 1_655
Al38 O57 2.047212 1_555
Al38 O66 2.047488 1_555
Al39 O57 1.814181 1_555
Al39 O59 1.815034 1_555
Al39 O58 1.815034 1_555
Al39 O61 1.854125 1_554
Al40 O31 1.813192 1_555
Al40 O63 1.882731 1_555
Al40 O33 1.882731 1_555
Al40 O61 1.994558 1_555
Al40 O60 2.007437 1_555
Al40 O27 2.007437 1_555
Al41 O15 1.819090 1_555
Al41 O48 1.880126 1_555
Al41 O33 1.883681 1_555
Al41 O29 1.977173 1_555
Al41 O61 1.978034 1_555
Al41 O45 1.999672 1_545
Al42 O0 1.819090 1_555
Al42 O48 1.880126 1_555
Al42 O63 1.883681 1_555
Al42 O2 1.977173 1_555
Al42 O61 1.978034 1_555
Al42 O44 1.999672 1_545
Al43 O31 1.815632 1_555
Al43 O62 1.830040 1_655
Al43 O50 1.831293 1_555
Al43 O14 2.005226 1_555
Al43 O46 2.069688 1_555
Al43 O60 2.100407 1_555
O3 Pb0 2.847795 1_555
O6 Pb0 2.627150 1_555
O19 Pb0 2.581814 1_555
O22 Pb0 2.456927 1_555
O33 Pb1 2.627150 1_555
O36 Pb0 2.627150 1_555
O48 Pb1 2.456927 1_555
O51 Pb1 2.581814 1_555
O63 Pb1 2.627150 1_555
O65 Pb1 2.847795 1_555
