# generated using pymatgen
data_K6Be4C6O19
_symmetry_space_group_name_H-M   'P 1'
_cell_length_a   10.10427342
_cell_length_b   10.10427342
_cell_length_c   10.10427324
_cell_angle_alpha   90.80146861
_cell_angle_beta   90.80146861
_cell_angle_gamma   90.80147220
_symmetry_Int_Tables_number   1
_chemical_formula_structural   K6Be4C6O19
_chemical_formula_sum   'K12 Be8 C12 O38'
_cell_volume   1031.30369481
_cell_formula_units_Z   2
loop_
 _symmetry_equiv_pos_site_id
 _symmetry_equiv_pos_as_xyz
  1  'x, y, z'
loop_
 _atom_site_type_symbol
 _atom_site_label
 _atom_site_symmetry_multiplicity
 _atom_site_fract_x
 _atom_site_fract_y
 _atom_site_fract_z
 _atom_site_occupancy
  K  K0  1  0.32609100  0.82006800  0.97672100  1
  K  K1  1  0.67390900  0.17993200  0.02327900  1
  K  K2  1  0.85882700  0.35198300  0.46736500  1
  K  K3  1  0.97672100  0.32609100  0.82006800  1
  K  K4  1  0.64801700  0.53263500  0.14117300  1
  K  K5  1  0.14117300  0.64801700  0.53263500  1
  K  K6  1  0.82006800  0.97672100  0.32609100  1
  K  K7  1  0.35198300  0.46736500  0.85882700  1
  K  K8  1  0.53263500  0.14117300  0.64801700  1
  K  K9  1  0.46736500  0.85882700  0.35198300  1
  K  K10  1  0.02327900  0.67390900  0.17993200  1
  K  K11  1  0.17993200  0.02327900  0.67390900  1
  Be  Be0  1  0.68583300  0.83876700  0.62900800  1
  Be  Be1  1  0.37099200  0.31416700  0.16123300  1
  Be  Be2  1  0.15302000  0.15302000  0.15302000  1
  Be  Be3  1  0.62900800  0.68583300  0.83876700  1
  Be  Be4  1  0.84698000  0.84698000  0.84698000  1
  Be  Be5  1  0.83876700  0.62900800  0.68583300  1
  Be  Be6  1  0.31416700  0.16123300  0.37099200  1
  Be  Be7  1  0.16123300  0.37099200  0.31416700  1
  C  C0  1  0.02607500  0.66437900  0.86967300  1
  C  C1  1  0.78785400  0.68951500  0.43965900  1
  C  C2  1  0.68951500  0.43965900  0.78785400  1
  C  C3  1  0.21214600  0.31048500  0.56034100  1
  C  C4  1  0.31048500  0.56034100  0.21214600  1
  C  C5  1  0.13032700  0.97392500  0.33562100  1
  C  C6  1  0.56034100  0.21214600  0.31048500  1
  C  C7  1  0.86967300  0.02607500  0.66437900  1
  C  C8  1  0.97392500  0.33562100  0.13032700  1
  C  C9  1  0.33562100  0.13032700  0.97392500  1
  C  C10  1  0.66437900  0.86967300  0.02607500  1
  C  C11  1  0.43965900  0.78785400  0.68951500  1
  O  O0  1  0.87140400  0.38047200  0.07310400  1
  O  O1  1  0.79896800  0.66385400  0.31725800  1
  O  O2  1  0.20103200  0.33614600  0.68274200  1
  O  O3  1  0.38047200  0.07310400  0.87140400  1
  O  O4  1  0.25111400  0.25111400  0.25111400  1
  O  O5  1  0.52726200  0.86948300  0.63950000  1
  O  O6  1  0.04186200  0.24046900  0.07483900  1
  O  O7  1  0.33614600  0.68274200  0.20103200  1
  O  O8  1  0.23151100  0.51871300  0.30533100  1
  O  O9  1  0.24532500  0.01467800  0.38486500  1
  O  O10  1  0.31725800  0.79896800  0.66385400  1
  O  O11  1  0.07310400  0.87140400  0.38047200  1
  O  O12  1  0.30533100  0.23151100  0.51871300  1
  O  O13  1  0.07483900  0.04186200  0.24046900  1
  O  O14  1  0.51871300  0.30533100  0.23151100  1
  O  O15  1  0.13051700  0.36050000  0.47273800  1
  O  O16  1  0.48128700  0.69466900  0.76848900  1
  O  O17  1  0.76848900  0.48128700  0.69466900  1
  O  O18  1  0.86948300  0.63950000  0.52726200  1
  O  O19  1  0.75953100  0.92516100  0.95813800  1
  O  O20  1  0.61513500  0.75467500  0.98532200  1
  O  O21  1  0.69466900  0.76848900  0.48128700  1
  O  O22  1  0.61952800  0.92689600  0.12859600  1
  O  O23  1  0.92516100  0.95813800  0.75953100  1
  O  O24  1  0.74888600  0.74888600  0.74888600  1
  O  O25  1  0.36050000  0.47273800  0.13051700  1
  O  O26  1  0.95813800  0.75953100  0.92516100  1
  O  O27  1  0.92689600  0.12859600  0.61952800  1
  O  O28  1  0.12859600  0.61952800  0.92689600  1
  O  O29  1  0.01467800  0.38486500  0.24532500  1
  O  O30  1  0.98532200  0.61513500  0.75467500  1
  O  O31  1  0.24046900  0.07483900  0.04186200  1
  O  O32  1  0.47273800  0.13051700  0.36050000  1
  O  O33  1  0.38486500  0.24532500  0.01467800  1
  O  O34  1  0.68274200  0.20103200  0.33614600  1
  O  O35  1  0.63950000  0.52726200  0.86948300  1
  O  O36  1  0.66385400  0.31725800  0.79896800  1
  O  O37  1  0.75467500  0.98532200  0.61513500  1
loop_
_geom_bond_atom_site_label_1
_geom_bond_atom_site_label_2
_geom_bond_distance
_geom_bond_site_symmetry_2
K0 O7 2.675482 1_556
K0 O31 2.799900 1_566
K0 O3 2.832748 1_565
K0 O28 2.858640 1_555
K0 O16 2.926566 1_555
K0 O20 3.003734 1_555
K0 O10 3.165425 1_555
K1 O36 2.675482 1_554
K1 O19 2.799900 1_544
K1 O22 2.832748 1_545
K1 O0 2.858640 1_555
K1 O14 2.926566 1_555
K1 O33 3.003734 1_555
K1 O34 3.165425 1_555
K2 O34 2.655453 1_555
K2 O15 2.745129 1_655
K2 O29 2.780080 1_655
K2 O17 2.797015 1_555
K2 O27 2.835960 1_555
K2 O18 2.959395 1_555
K3 O2 2.675482 1_655
K3 O6 2.799900 1_656
K3 O0 2.832748 1_556
K3 O27 2.858640 1_555
K3 O17 2.926566 1_555
K3 O30 3.003734 1_555
K3 O36 3.165425 1_555
K4 O1 2.655453 1_555
K4 O35 2.745129 1_554
K4 O20 2.780080 1_554
K4 O14 2.797015 1_555
K4 O0 2.835960 1_555
K4 O25 2.959395 1_555
K5 O10 2.655453 1_555
K5 O18 2.745129 1_455
K5 O30 2.780080 1_455
K5 O8 2.797015 1_555
K5 O11 2.835960 1_555
K5 O15 2.959395 1_555
K6 O34 2.675482 1_565
K6 O13 2.799900 1_665
K6 O11 2.832748 1_655
K6 O22 2.858640 1_555
K6 O21 2.926566 1_555
K6 O37 3.003734 1_555
K6 O1 3.165425 1_555
K7 O2 2.655453 1_555
K7 O25 2.745129 1_556
K7 O33 2.780080 1_556
K7 O16 2.797015 1_555
K7 O28 2.835960 1_555
K7 O35 2.959395 1_555
K8 O36 2.655453 1_555
K8 O5 2.745129 1_545
K8 O37 2.780080 1_545
K8 O12 2.797015 1_555
K8 O3 2.835960 1_555
K8 O32 2.959394 1_555
K9 O7 2.655453 1_555
K9 O32 2.745129 1_565
K9 O9 2.780080 1_565
K9 O21 2.797015 1_555
K9 O22 2.835960 1_555
K9 O5 2.959394 1_555
K10 O1 2.675482 1_455
K10 O26 2.799900 1_454
K10 O28 2.832748 1_554
K10 O11 2.858640 1_555
K10 O8 2.926566 1_555
K10 O29 3.003734 1_555
K10 O7 3.165425 1_555
K11 O10 2.675482 1_545
K11 O23 2.799900 1_445
K11 O27 2.832748 1_455
K11 O3 2.858640 1_555
K11 O12 2.926566 1_555
K11 O9 3.003734 1_555
K11 O2 3.165425 1_555
Be0 O37 1.635875 1_555
Be0 O5 1.640883 1_555
Be0 O21 1.648020 1_555
Be0 O24 1.650233 1_555
Be1 O33 1.635875 1_555
Be1 O25 1.640883 1_555
Be1 O14 1.648020 1_555
Be1 O4 1.650233 1_555
Be2 O13 1.639752 1_555
Be2 O31 1.639752 1_555
Be2 O6 1.639752 1_555
Be2 O4 1.692570 1_555
Be3 O20 1.635875 1_555
Be3 O35 1.640883 1_555
Be3 O16 1.648020 1_555
Be3 O24 1.650233 1_555
Be4 O23 1.639752 1_555
Be4 O19 1.639752 1_555
Be4 O26 1.639752 1_555
Be4 O24 1.692570 1_555
Be5 O30 1.635875 1_555
Be5 O18 1.640882 1_555
Be5 O17 1.648020 1_555
Be5 O24 1.650233 1_555
Be6 O9 1.635875 1_555
Be6 O32 1.640883 1_555
Be6 O12 1.648020 1_555
Be6 O4 1.650233 1_555
Be7 O29 1.635875 1_555
Be7 O15 1.640882 1_555
Be7 O8 1.648020 1_555
Be7 O4 1.650233 1_555
C0 O28 1.271411 1_555
C0 O26 1.313045 1_455
C0 O30 1.316065 1_455
C1 O1 1.266956 1_555
C1 O21 1.312609 1_555
C1 O18 1.312615 1_555
C2 O36 1.266956 1_555
C2 O17 1.312609 1_555
C2 O35 1.312615 1_555
C3 O2 1.266956 1_555
C3 O12 1.312609 1_555
C3 O15 1.312615 1_555
C4 O7 1.266956 1_555
C4 O8 1.312609 1_555
C4 O25 1.312615 1_555
C5 O11 1.271411 1_555
C5 O13 1.313045 1_565
C5 O9 1.316065 1_565
C6 O34 1.266956 1_555
C6 O14 1.312609 1_555
C6 O32 1.312615 1_555
C7 O27 1.271411 1_555
C7 O23 1.313045 1_545
C7 O37 1.316065 1_545
C8 O0 1.271411 1_555
C8 O6 1.313045 1_655
C8 O29 1.316065 1_655
C9 O3 1.271411 1_555
C9 O31 1.313045 1_556
C9 O33 1.316065 1_556
C10 O22 1.271411 1_555
C10 O19 1.313045 1_554
C10 O20 1.316065 1_554
C11 O10 1.266956 1_555
C11 O16 1.312609 1_555
C11 O5 1.312615 1_555
