# generated using pymatgen
data_NaFe3Si3O10
_symmetry_space_group_name_H-M   'P 1'
_cell_length_a   9.05203200
_cell_length_b   9.82090597
_cell_length_c   10.46176311
_cell_angle_alpha   114.87440997
_cell_angle_beta   83.53834748
_cell_angle_gamma   114.08618909
_symmetry_Int_Tables_number   1
_chemical_formula_structural   NaFe3Si3O10
_chemical_formula_sum   'Na4 Fe12 Si12 O40'
_cell_volume   768.33415174
_cell_formula_units_Z   4
loop_
 _symmetry_equiv_pos_site_id
 _symmetry_equiv_pos_as_xyz
  1  'x, y, z'
loop_
 _atom_site_type_symbol
 _atom_site_label
 _atom_site_symmetry_multiplicity
 _atom_site_fract_x
 _atom_site_fract_y
 _atom_site_fract_z
 _atom_site_occupancy
  Na  Na0  1  0.38824200  0.63410200  0.42233700  1
  Na  Na1  1  0.36944900  0.61303400  0.95175700  1
  Na  Na2  1  0.61175800  0.36589800  0.57766300  1
  Na  Na3  1  0.63055100  0.38696600  0.04824300  1
  Fe  Fe0  1  0.84819900  0.18073200  0.94851200  1
  Fe  Fe1  1  0.18100200  0.85226900  0.53250800  1
  Fe  Fe2  1  0.15180100  0.81926800  0.05148800  1
  Fe  Fe3  1  0.73597400  0.26276200  0.25657000  1
  Fe  Fe4  1  0.81899800  0.14773100  0.46749200  1
  Fe  Fe5  1  0.05835700  0.93448500  0.84110400  1
  Fe  Fe6  1  0.06647500  0.94154500  0.34634000  1
  Fe  Fe7  1  0.93352500  0.05845500  0.65366000  1
  Fe  Fe8  1  0.50000000  0.00000000  0.00000000  1
  Fe  Fe9  1  0.26402600  0.73723800  0.74343000  1
  Fe  Fe10  1  0.00000000  0.50000000  0.50000000  1
  Fe  Fe11  1  0.94164300  0.06551500  0.15889600  1
  Si  Si0  1  0.55120500  0.05351200  0.70330900  1
  Si  Si1  1  0.77695100  0.66299500  0.93823600  1
  Si  Si2  1  0.44879500  0.94648800  0.29669100  1
  Si  Si3  1  0.65777400  0.76718900  0.75104200  1
  Si  Si4  1  0.32880600  0.23400500  0.75807200  1
  Si  Si5  1  0.95363400  0.44373000  0.79492300  1
  Si  Si6  1  0.34222600  0.23281100  0.24895800  1
  Si  Si7  1  0.76009100  0.66260800  0.45226100  1
  Si  Si8  1  0.23990900  0.33739200  0.54773900  1
  Si  Si9  1  0.22304900  0.33700500  0.06176400  1
  Si  Si10  1  0.04636600  0.55627000  0.20507700  1
  Si  Si11  1  0.67119400  0.76599500  0.24192800  1
  O  O0  1  0.72324300  0.06837500  0.08174800  1
  O  O1  1  0.62702400  0.67900500  0.57639300  1
  O  O2  1  0.37297600  0.32099500  0.42360700  1
  O  O3  1  0.17605100  0.06759400  0.20807800  1
  O  O4  1  0.06306900  0.16731600  0.01405900  1
  O  O5  1  0.33344900  0.36125600  0.69012700  1
  O  O6  1  0.87032100  0.39881200  0.14729600  1
  O  O7  1  0.07439100  0.17026500  0.50750900  1
  O  O8  1  0.60406400  0.12483200  0.36416900  1
  O  O9  1  0.83541400  0.93151000  0.28572200  1
  O  O10  1  0.11228800  0.60412200  0.36570500  1
  O  O11  1  0.07057300  0.72470200  0.65796500  1
  O  O12  1  0.95796200  0.28768100  0.81239800  1
  O  O13  1  0.82394900  0.93240600  0.79192200  1
  O  O14  1  0.39622800  0.88268700  0.12828000  1
  O  O15  1  0.92942700  0.27529800  0.34203500  1
  O  O16  1  0.27675700  0.93162500  0.91825200  1
  O  O17  1  0.32064300  0.36701900  0.20124700  1
  O  O18  1  0.50872300  0.80309000  0.29473700  1
  O  O19  1  0.81489500  0.50137000  0.89989300  1
  O  O20  1  0.88771200  0.39587800  0.63429500  1
  O  O21  1  0.93693100  0.83268400  0.98594100  1
  O  O22  1  0.29773800  0.95106700  0.39674500  1
  O  O23  1  0.04203800  0.71231900  0.18760200  1
  O  O24  1  0.64986900  0.66105400  0.06687700  1
  O  O25  1  0.60377200  0.11731300  0.87172000  1
  O  O26  1  0.35013100  0.33894600  0.93312300  1
  O  O27  1  0.49220300  0.78334000  0.82530000  1
  O  O28  1  0.78162500  0.49553000  0.42901700  1
  O  O29  1  0.92560900  0.82973500  0.49249100  1
  O  O30  1  0.66655100  0.63874400  0.30987300  1
  O  O31  1  0.39593600  0.87516800  0.63583100  1
  O  O32  1  0.50779700  0.21666000  0.17470000  1
  O  O33  1  0.16458600  0.06849000  0.71427800  1
  O  O34  1  0.70226200  0.04893300  0.60325500  1
  O  O35  1  0.18510500  0.49863000  0.10010700  1
  O  O36  1  0.49127700  0.19691000  0.70526300  1
  O  O37  1  0.21837500  0.50447000  0.57098300  1
  O  O38  1  0.12967900  0.60118800  0.85270400  1
  O  O39  1  0.67935700  0.63298100  0.79875300  1
loop_
_geom_bond_atom_site_label_1
_geom_bond_atom_site_label_2
_geom_bond_distance
_geom_bond_site_symmetry_2
Na0 O18 2.405099 1_555
Na0 O37 2.435772 1_555
Na0 O31 2.459765 1_555
Na0 O10 2.502695 1_555
Na0 O17 2.551287 1_555
Na0 O1 2.621472 1_555
Na0 O30 2.649021 1_555
Na1 O27 2.407501 1_555
Na1 O35 2.410259 1_556
Na1 O14 2.438213 1_556
Na1 O38 2.448827 1_555
Na1 O26 2.548794 1_555
Na1 O24 2.710975 1_556
Na1 O5 2.749826 1_555
Na2 O36 2.405099 1_555
Na2 O28 2.435772 1_555
Na2 O8 2.459765 1_555
Na2 O20 2.502695 1_555
Na2 O39 2.551287 1_555
Na2 O2 2.621472 1_555
Na2 O5 2.649021 1_555
Na3 O32 2.407501 1_555
Na3 O19 2.410259 1_554
Na3 O25 2.438213 1_554
Na3 O6 2.448827 1_555
Na3 O24 2.548794 1_555
Na3 O26 2.710975 1_554
Na3 O30 2.749826 1_555
Fe0 O12 2.050892 1_555
Fe0 O0 2.088117 1_556
Fe0 O25 2.187031 1_555
Fe0 O4 2.203642 1_656
Fe0 O6 2.224565 1_556
Fe0 O13 2.227674 1_545
Fe1 O22 2.014958 1_555
Fe1 O11 2.087410 1_555
Fe1 O10 2.191023 1_555
Fe1 O31 2.217215 1_555
Fe1 O33 2.223589 1_565
Fe1 O29 2.300236 1_455
Fe2 O23 2.050892 1_555
Fe2 O16 2.088117 1_554
Fe2 O14 2.187031 1_555
Fe2 O21 2.203642 1_454
Fe2 O38 2.224565 1_554
Fe2 O3 2.227674 1_565
Fe3 O0 1.983274 1_555
Fe3 O15 1.991213 1_555
Fe3 O8 2.046435 1_555
Fe3 O6 2.053510 1_555
Fe3 O32 2.124472 1_555
Fe3 O28 2.139757 1_555
Fe4 O34 2.014958 1_555
Fe4 O15 2.087410 1_555
Fe4 O20 2.191023 1_555
Fe4 O8 2.217215 1_555
Fe4 O9 2.223589 1_545
Fe4 O7 2.300236 1_655
Fe5 O21 2.122805 1_455
Fe5 O33 2.136818 1_565
Fe5 O11 2.178368 1_555
Fe5 O4 2.227442 1_566
Fe5 O13 2.229129 1_455
Fe5 O16 2.232515 1_555
Fe6 O23 2.099014 1_555
Fe6 O7 2.145532 1_565
Fe6 O22 2.171712 1_555
Fe6 O3 2.188551 1_565
Fe6 O9 2.205510 1_455
Fe6 O29 2.236135 1_455
Fe7 O12 2.099014 1_555
Fe7 O29 2.145532 1_545
Fe7 O34 2.171712 1_555
Fe7 O13 2.188551 1_545
Fe7 O33 2.205510 1_655
Fe7 O7 2.236135 1_655
Fe8 O16 2.015997 1_544
Fe8 O0 2.015997 1_555
Fe8 O25 2.035797 1_554
Fe8 O14 2.035797 1_545
Fe8 O27 2.123145 1_544
Fe8 O32 2.123145 1_555
Fe9 O16 1.983274 1_555
Fe9 O11 1.991213 1_555
Fe9 O31 2.046435 1_555
Fe9 O38 2.053510 1_555
Fe9 O27 2.124472 1_555
Fe9 O37 2.139757 1_555
Fe10 O11 2.006983 1_555
Fe10 O15 2.006983 1_455
Fe10 O20 2.022758 1_455
Fe10 O10 2.022758 1_555
Fe10 O37 2.166340 1_555
Fe10 O28 2.166340 1_455
Fe11 O4 2.122805 1_655
Fe11 O9 2.136818 1_545
Fe11 O15 2.178368 1_555
Fe11 O21 2.227442 1_544
Fe11 O3 2.229129 1_655
Fe11 O0 2.232515 1_555
O1 Si3 1.659052 1_555
O1 Si7 1.671406 1_555
O2 Si6 1.659052 1_555
O2 Si8 1.671406 1_555
O3 Si6 1.627022 1_555
O4 Si9 1.617588 1_555
O5 Si4 1.663299 1_555
O5 Si8 1.679014 1_555
O6 Si10 1.647786 1_655
O7 Si8 1.633864 1_555
O8 Si2 1.647833 1_545
O9 Si11 1.617538 1_555
O10 Si10 1.653268 1_555
O12 Si5 1.634003 1_555
O13 Si3 1.627022 1_555
O14 Si2 1.655250 1_555
O17 Si9 1.646953 1_555
O17 Si6 1.676347 1_555
O18 Si11 1.638903 1_555
O18 Si2 1.695536 1_555
O19 Si1 1.636078 1_555
O19 Si5 1.688346 1_555
O20 Si5 1.653268 1_555
O21 Si1 1.617588 1_555
O22 Si2 1.629675 1_555
O23 Si10 1.634003 1_555
O24 Si11 1.668120 1_555
O24 Si1 1.670362 1_554
O25 Si0 1.655250 1_555
O26 Si4 1.668120 1_555
O26 Si9 1.670362 1_556
O27 Si3 1.644159 1_555
O28 Si7 1.644465 1_555
O29 Si7 1.633864 1_555
O30 Si11 1.663299 1_555
O30 Si7 1.679014 1_555
O31 Si0 1.647833 1_565
O32 Si6 1.644159 1_555
O33 Si4 1.617538 1_555
O34 Si0 1.629675 1_555
O35 Si9 1.636078 1_555
O35 Si10 1.688346 1_555
O36 Si4 1.638903 1_555
O36 Si0 1.695536 1_555
O37 Si8 1.644465 1_555
O38 Si5 1.647786 1_455
O39 Si1 1.646953 1_555
O39 Si3 1.676347 1_555
