# generated using pymatgen
data_Ba6Na2Cr2Ru2O17
_symmetry_space_group_name_H-M   'P 1'
_cell_length_a   5.92461641
_cell_length_b   5.92461714
_cell_length_c   30.19064554
_cell_angle_alpha   90.00000000
_cell_angle_beta   90.00000000
_cell_angle_gamma   120.00000143
_symmetry_Int_Tables_number   1
_chemical_formula_structural   Ba6Na2Cr2Ru2O17
_chemical_formula_sum   'Ba12 Na4 Cr4 Ru4 O34'
_cell_volume   917.74822402
_cell_formula_units_Z   2
loop_
 _symmetry_equiv_pos_site_id
 _symmetry_equiv_pos_as_xyz
  1  'x, y, z'
loop_
 _atom_site_type_symbol
 _atom_site_label
 _atom_site_symmetry_multiplicity
 _atom_site_fract_x
 _atom_site_fract_y
 _atom_site_fract_z
 _atom_site_occupancy
  Ba  Ba0  1  0.66666700  0.33333300  0.09209629  1
  Ba  Ba1  1  0.33333300  0.66666700  0.31964156  1
  Ba  Ba2  1  0.33333300  0.66666700  0.18035844  1
  Ba  Ba3  1  0.66666700  0.33333300  0.68035844  1
  Ba  Ba4  1  0.33333300  0.66666700  0.90790371  1
  Ba  Ba5  1  0.66666700  0.33333300  0.40790371  1
  Ba  Ba6  1  0.33333300  0.66666700  0.59209629  1
  Ba  Ba7  1  0.00000000  0.00000000  0.25000000  1
  Ba  Ba8  1  0.66666700  0.33333300  0.81964156  1
  Ba  Ba9  1  0.00000000  0.00000000  0.75000000  1
  Ba  Ba10  1  0.00000000  0.00000000  0.50000000  1
  Ba  Ba11  1  0.00000000  0.00000000  0.00000000  1
  Na  Na0  1  0.00000000  0.00000000  0.12406580  1
  Na  Na1  1  0.00000000  0.00000000  0.87593420  1
  Na  Na2  1  0.00000000  0.00000000  0.37593420  1
  Na  Na3  1  0.00000000  0.00000000  0.62406580  1
  Cr  Cr0  1  0.66666700  0.33333300  0.55197912  1
  Cr  Cr1  1  0.33333300  0.66666700  0.44802088  1
  Cr  Cr2  1  0.33333300  0.66666700  0.05197912  1
  Cr  Cr3  1  0.66666700  0.33333300  0.94802088  1
  Ru  Ru0  1  0.66666700  0.33333300  0.20381438  1
  Ru  Ru1  1  0.33333300  0.66666700  0.79618562  1
  Ru  Ru2  1  0.66666700  0.33333300  0.29618562  1
  Ru  Ru3  1  0.33333300  0.66666700  0.70381438  1
  O  O0  1  0.35341838  0.17670919  0.17022186  1
  O  O1  1  0.48622307  0.97244513  0.75000000  1
  O  O2  1  0.35341838  0.17670919  0.32977814  1
  O  O3  1  0.82329081  0.17670919  0.32977814  1
  O  O4  1  0.17538781  0.35077563  0.07282941  1
  O  O5  1  0.64658162  0.82329081  0.67022186  1
  O  O6  1  0.33333300  0.66666700  0.99537220  1
  O  O7  1  0.17670919  0.82329081  0.67022186  1
  O  O8  1  0.17538781  0.82461219  0.07282941  1
  O  O9  1  0.17670919  0.35341838  0.67022186  1
  O  O10  1  0.82329081  0.64658162  0.17022186  1
  O  O11  1  0.35077563  0.17538781  0.57282941  1
  O  O12  1  0.82461219  0.64922437  0.92717059  1
  O  O13  1  0.51377693  0.48622307  0.25000000  1
  O  O14  1  0.66666700  0.33333300  0.49537220  1
  O  O15  1  0.17670919  0.35341838  0.82977814  1
  O  O16  1  0.82461219  0.64922437  0.57282941  1
  O  O17  1  0.51377693  0.02755487  0.25000000  1
  O  O18  1  0.66666700  0.33333300  0.00462780  1
  O  O19  1  0.35077563  0.17538781  0.92717059  1
  O  O20  1  0.64922437  0.82461219  0.07282941  1
  O  O21  1  0.33333300  0.66666700  0.50462780  1
  O  O22  1  0.17670919  0.82329081  0.82977814  1
  O  O23  1  0.97244513  0.48622307  0.25000000  1
  O  O24  1  0.17538781  0.35077563  0.42717059  1
  O  O25  1  0.64658162  0.82329081  0.82977814  1
  O  O26  1  0.82461219  0.17538781  0.57282941  1
  O  O27  1  0.82461219  0.17538781  0.92717059  1
  O  O28  1  0.64922437  0.82461219  0.42717059  1
  O  O29  1  0.17538781  0.82461219  0.42717059  1
  O  O30  1  0.82329081  0.64658162  0.32977814  1
  O  O31  1  0.48622307  0.51377693  0.75000000  1
  O  O32  1  0.02755487  0.51377693  0.75000000  1
  O  O33  1  0.82329081  0.17670919  0.17022186  1
loop_
_geom_bond_atom_site_label_1
_geom_bond_atom_site_label_2
_geom_bond_distance
_geom_bond_site_symmetry_2
Ba0 O18 2.640730 1_555
Ba0 O33 2.854204 1_555
Ba0 O0 2.854207 1_555
Ba0 O10 2.854207 1_555
Ba0 O4 3.020201 1_655
Ba0 O20 3.020201 1_545
Ba0 O8 3.020204 1_655
Ba0 O8 3.020204 1_545
Ba0 O4 3.020207 1_555
Ba0 O20 3.020207 1_555
Ba1 O23 2.801657 1_455
Ba1 O13 2.801657 1_555
Ba1 O17 2.801657 1_565
Ba1 O30 2.979854 1_455
Ba1 O2 2.979854 1_565
Ba1 O3 2.979856 1_455
Ba1 O3 2.979856 1_565
Ba1 O30 2.979859 1_555
Ba1 O2 2.979860 1_555
Ba2 O23 2.801657 1_455
Ba2 O13 2.801657 1_555
Ba2 O17 2.801657 1_565
Ba2 O10 2.979854 1_455
Ba2 O0 2.979854 1_565
Ba2 O33 2.979856 1_455
Ba2 O33 2.979856 1_565
Ba2 O10 2.979859 1_555
Ba2 O0 2.979860 1_555
Ba3 O32 2.801657 1_655
Ba3 O31 2.801657 1_555
Ba3 O1 2.801657 1_545
Ba3 O9 2.979854 1_655
Ba3 O5 2.979854 1_545
Ba3 O7 2.979856 1_655
Ba3 O7 2.979856 1_545
Ba3 O9 2.979859 1_555
Ba3 O5 2.979860 1_555
Ba4 O6 2.640730 1_555
Ba4 O22 2.854204 1_555
Ba4 O25 2.854207 1_555
Ba4 O15 2.854207 1_555
Ba4 O12 3.020201 1_455
Ba4 O19 3.020201 1_565
Ba4 O27 3.020204 1_455
Ba4 O27 3.020204 1_565
Ba4 O12 3.020207 1_555
Ba4 O19 3.020207 1_555
Ba5 O14 2.640730 1_555
Ba5 O3 2.854204 1_555
Ba5 O2 2.854207 1_555
Ba5 O30 2.854207 1_555
Ba5 O24 3.020201 1_655
Ba5 O28 3.020201 1_545
Ba5 O29 3.020204 1_655
Ba5 O29 3.020204 1_545
Ba5 O24 3.020207 1_555
Ba5 O28 3.020207 1_555
Ba6 O21 2.640730 1_555
Ba6 O7 2.854204 1_555
Ba6 O5 2.854207 1_555
Ba6 O9 2.854207 1_555
Ba6 O16 3.020201 1_455
Ba6 O11 3.020201 1_565
Ba6 O26 3.020204 1_455
Ba6 O26 3.020204 1_565
Ba6 O16 3.020207 1_555
Ba6 O11 3.020207 1_555
Ba7 O17 2.965677 1_555
Ba7 O23 2.965677 1_445
Ba7 O13 2.965680 1_555
Ba7 O13 2.965680 1_445
Ba7 O17 2.965683 1_455
Ba7 O23 2.965683 1_455
Ba7 O0 3.014854 1_555
Ba7 O2 3.014854 1_555
Ba7 O3 3.014854 1_455
Ba7 O33 3.014854 1_455
Ba7 O10 3.014854 1_445
Ba7 O30 3.014854 1_445
Ba8 O32 2.801657 1_655
Ba8 O31 2.801657 1_555
Ba8 O1 2.801657 1_545
Ba8 O15 2.979854 1_655
Ba8 O25 2.979854 1_545
Ba8 O22 2.979856 1_655
Ba8 O22 2.979856 1_545
Ba8 O15 2.979859 1_555
Ba8 O25 2.979860 1_555
Ba9 O1 2.965677 1_445
Ba9 O32 2.965677 1_555
Ba9 O31 2.965680 1_445
Ba9 O31 2.965680 1_555
Ba9 O1 2.965683 1_545
Ba9 O32 2.965683 1_545
Ba9 O5 3.014854 1_445
Ba9 O25 3.014854 1_445
Ba9 O22 3.014854 1_545
Ba9 O7 3.014854 1_545
Ba9 O15 3.014854 1_555
Ba9 O9 3.014854 1_555
Ba10 O28 2.841443 1_445
Ba10 O11 2.841443 1_555
Ba10 O26 2.841443 1_455
Ba10 O29 2.841443 1_545
Ba10 O16 2.841443 1_445
Ba10 O24 2.841443 1_555
Ba11 O19 2.841443 1_554
Ba11 O20 2.841443 1_445
Ba11 O27 2.841443 1_454
Ba11 O8 2.841443 1_545
Ba11 O12 2.841443 1_444
Ba11 O4 2.841443 1_555
Na0 O0 2.286920 1_555
Na0 O33 2.286920 1_455
Na0 O10 2.286920 1_445
Na0 O20 2.373183 1_445
Na0 O8 2.373183 1_545
Na0 O4 2.373183 1_555
Na1 O25 2.286920 1_445
Na1 O22 2.286920 1_545
Na1 O15 2.286920 1_555
Na1 O19 2.373183 1_555
Na1 O27 2.373183 1_455
Na1 O12 2.373183 1_445
Na2 O2 2.286920 1_555
Na2 O3 2.286920 1_455
Na2 O30 2.286920 1_445
Na2 O28 2.373183 1_445
Na2 O29 2.373183 1_545
Na2 O24 2.373183 1_555
Na3 O5 2.286920 1_445
Na3 O7 2.286920 1_545
Na3 O9 2.286920 1_555
Na3 O11 2.373183 1_555
Na3 O26 2.373183 1_455
Na3 O16 2.373183 1_445
Cr0 O14 1.708999 1_555
Cr0 O26 1.738740 1_555
Cr0 O11 1.738745 1_555
Cr0 O16 1.738745 1_555
Cr1 O21 1.708999 1_555
Cr1 O29 1.738740 1_555
Cr1 O28 1.738745 1_555
Cr1 O24 1.738745 1_555
Cr2 O6 1.708999 1_554
Cr2 O8 1.738740 1_555
Cr2 O20 1.738745 1_555
Cr2 O4 1.738745 1_555
Cr3 O18 1.708999 1_556
Cr3 O27 1.738740 1_555
Cr3 O19 1.738745 1_555
Cr3 O12 1.738745 1_555
O0 Ru0 1.900466 1_555
O1 Ru3 2.098988 1_555
O1 Ru1 2.098988 1_555
O2 Ru2 1.900466 1_555
O3 Ru2 1.900462 1_555
O5 Ru3 1.900466 1_555
O7 Ru3 1.900462 1_555
O9 Ru3 1.900467 1_555
O10 Ru0 1.900467 1_555
O13 Ru2 2.098995 1_555
O13 Ru0 2.098995 1_555
O15 Ru1 1.900467 1_555
O17 Ru2 2.098988 1_555
O17 Ru0 2.098988 1_555
O22 Ru1 1.900462 1_555
O23 Ru2 2.098987 1_555
O23 Ru0 2.098987 1_555
O25 Ru1 1.900466 1_555
O30 Ru2 1.900467 1_555
O31 Ru1 2.098995 1_555
O31 Ru3 2.098995 1_555
O32 Ru1 2.098987 1_555
O32 Ru3 2.098987 1_555
O33 Ru0 1.900462 1_555
