# generated using pymatgen
data_Fe2PH2CO7
_symmetry_space_group_name_H-M   'P 1'
_cell_length_a   4.90288600
_cell_length_b   8.12545100
_cell_length_c   15.82057039
_cell_angle_alpha   64.31888497
_cell_angle_beta   90.00000000
_cell_angle_gamma   90.00000000
_symmetry_Int_Tables_number   1
_chemical_formula_structural   Fe2PH2CO7
_chemical_formula_sum   'Fe8 P4 H8 C4 O28'
_cell_volume   568.00503485
_cell_formula_units_Z   4
loop_
 _symmetry_equiv_pos_site_id
 _symmetry_equiv_pos_as_xyz
  1  'x, y, z'
loop_
 _atom_site_type_symbol
 _atom_site_label
 _atom_site_symmetry_multiplicity
 _atom_site_fract_x
 _atom_site_fract_y
 _atom_site_fract_z
 _atom_site_occupancy
  Fe  Fe0  1  0.45894600  0.93370500  0.35939200  1
  Fe  Fe1  1  0.95894600  0.06629500  0.14060800  1
  Fe  Fe2  1  0.54105400  0.06629500  0.64060800  1
  Fe  Fe3  1  0.04105400  0.93370500  0.85939200  1
  Fe  Fe4  1  0.96741600  0.60656300  0.30403100  1
  Fe  Fe5  1  0.46741600  0.39343700  0.19596900  1
  Fe  Fe6  1  0.03258400  0.39343700  0.69596900  1
  Fe  Fe7  1  0.53258400  0.60656300  0.80403100  1
  P  P0  1  0.52085900  0.80690000  0.19221700  1
  P  P1  1  0.02085900  0.19310000  0.30778300  1
  P  P2  1  0.47914100  0.19310000  0.80778300  1
  P  P3  1  0.97914100  0.80690000  0.69221700  1
  H  H0  1  0.74441200  0.86147000  0.52199700  1
  H  H1  1  0.24441200  0.13853000  0.97800300  1
  H  H2  1  0.25558800  0.13853000  0.47800300  1
  H  H3  1  0.75558800  0.86147000  0.02199700  1
  H  H4  1  0.51199500  0.71313400  0.53245600  1
  H  H5  1  0.01199500  0.28686600  0.96754400  1
  H  H6  1  0.48800500  0.28686600  0.46754400  1
  H  H7  1  0.98800500  0.71313400  0.03245600  1
  C  C0  1  0.88245400  0.43162100  0.50846100  1
  C  C1  1  0.38245400  0.56837900  0.99153900  1
  C  C2  1  0.11754600  0.56837900  0.49153900  1
  C  C3  1  0.61754600  0.43162100  0.00846100  1
  O  O0  1  0.14144500  0.05311400  0.40155200  1
  O  O1  1  0.64144500  0.94688600  0.09844800  1
  O  O2  1  0.85855500  0.94688600  0.59844800  1
  O  O3  1  0.35855500  0.05311400  0.90155200  1
  O  O4  1  0.70600900  0.18554400  0.30423800  1
  O  O5  1  0.20600900  0.81445600  0.19576200  1
  O  O6  1  0.29399100  0.81445600  0.69576200  1
  O  O7  1  0.79399100  0.18554400  0.80423800  1
  O  O8  1  0.64991400  0.79674500  0.48913500  1
  O  O9  1  0.14991400  0.20325500  0.01086500  1
  O  O10  1  0.35008600  0.20325500  0.51086500  1
  O  O11  1  0.85008600  0.79674500  0.98913500  1
  O  O12  1  0.65898100  0.85070800  0.27059100  1
  O  O13  1  0.15898100  0.14929200  0.22940900  1
  O  O14  1  0.34101900  0.14929200  0.72940900  1
  O  O15  1  0.84101900  0.85070800  0.77059100  1
  O  O16  1  0.18308800  0.66837400  0.40625900  1
  O  O17  1  0.68308800  0.33162600  0.09374100  1
  O  O18  1  0.81691200  0.33162600  0.59374100  1
  O  O19  1  0.31691200  0.66837400  0.90625900  1
  O  O20  1  0.62292900  0.60963100  0.21608700  1
  O  O21  1  0.12292900  0.39036900  0.28391300  1
  O  O22  1  0.37707100  0.39036900  0.78391300  1
  O  O23  1  0.87707100  0.60963100  0.71608700  1
  O  O24  1  0.77095900  0.43060100  0.43681400  1
  O  O25  1  0.27095900  0.56939900  0.06318600  1
  O  O26  1  0.22904100  0.56939900  0.56318600  1
  O  O27  1  0.72904100  0.43060100  0.93681400  1
loop_
_geom_bond_atom_site_label_1
_geom_bond_atom_site_label_2
_geom_bond_distance
_geom_bond_site_symmetry_2
Fe0 O12 2.052201 1_555
Fe0 O8 2.085300 1_555
Fe0 O0 2.090550 1_565
Fe0 O4 2.206461 1_565
Fe0 O16 2.375201 1_555
Fe0 O13 2.517568 1_565
Fe1 O13 2.052201 1_655
Fe1 O9 2.085300 1_655
Fe1 O1 2.090550 1_545
Fe1 O5 2.206461 1_645
Fe1 O17 2.375201 1_555
Fe1 O12 2.517568 1_545
Fe2 O14 2.052201 1_555
Fe2 O10 2.085300 1_555
Fe2 O2 2.090550 1_545
Fe2 O6 2.206461 1_545
Fe2 O18 2.375201 1_555
Fe2 O15 2.517568 1_545
Fe3 O15 2.052201 1_455
Fe3 O11 2.085300 1_455
Fe3 O3 2.090550 1_565
Fe3 O7 2.206461 1_465
Fe3 O19 2.375201 1_555
Fe3 O14 2.517568 1_565
Fe4 O21 2.062316 1_655
Fe4 O5 2.155931 1_655
Fe4 O16 2.165658 1_655
Fe4 O20 2.181513 1_555
Fe4 O24 2.186718 1_555
Fe4 O12 2.364843 1_555
Fe5 O20 2.062316 1_555
Fe5 O4 2.155931 1_555
Fe5 O17 2.165658 1_555
Fe5 O21 2.181513 1_555
Fe5 O25 2.186718 1_555
Fe5 O13 2.364843 1_555
Fe6 O23 2.062316 1_455
Fe6 O7 2.155931 1_455
Fe6 O18 2.165658 1_455
Fe6 O22 2.181513 1_555
Fe6 O26 2.186718 1_555
Fe6 O14 2.364843 1_555
Fe7 O22 2.062316 1_555
Fe7 O6 2.155931 1_555
Fe7 O19 2.165658 1_555
Fe7 O23 2.181513 1_555
Fe7 O27 2.186718 1_555
Fe7 O15 2.364843 1_555
H0 O8 0.999262 1_555
H0 O2 1.727812 1_555
H1 O9 0.999262 1_556
H1 O3 1.727812 1_555
H2 O10 0.999262 1_555
H2 O0 1.727812 1_555
H3 O11 0.999262 1_554
H3 O1 1.727812 1_555
H4 O8 0.992451 1_555
H4 O26 1.741501 1_555
H5 O9 0.992451 1_556
H5 O27 1.741501 1_455
H6 O10 0.992451 1_555
H6 O24 1.741501 1_555
H7 O11 0.992451 1_554
H7 O25 1.741501 1_655
C0 O24 1.261685 1_555
C0 O18 1.278121 1_555
C1 O25 1.261685 1_556
C1 O19 1.278121 1_555
C2 O26 1.261685 1_555
C2 O16 1.278121 1_555
C3 O27 1.261685 1_554
C3 O17 1.278121 1_555
O0 P1 1.543226 1_555
O1 P0 1.543226 1_555
O2 P3 1.543226 1_555
O3 P2 1.543226 1_555
O4 P1 1.546877 1_655
O5 P0 1.546877 1_555
O6 P3 1.546877 1_455
O7 P2 1.546877 1_555
O12 P0 1.582797 1_555
O13 P1 1.582797 1_555
O14 P2 1.582797 1_555
O15 P3 1.582797 1_555
O20 P0 1.561312 1_555
O21 P1 1.561312 1_555
O22 P2 1.561312 1_555
O23 P3 1.561312 1_555
