# generated using pymatgen
data_KNiAu3(CN)6
_symmetry_space_group_name_H-M   'P 1'
_cell_length_a   7.00736689
_cell_length_b   7.00736689
_cell_length_c   7.59430600
_cell_angle_alpha   90.00000000
_cell_angle_beta   90.00000000
_cell_angle_gamma   120.00000842
_symmetry_Int_Tables_number   1
_chemical_formula_structural   KNiAu3(CN)6
_chemical_formula_sum   'K1 Ni1 Au3 C6 N6'
_cell_volume   322.94487807
_cell_formula_units_Z   1
loop_
 _symmetry_equiv_pos_site_id
 _symmetry_equiv_pos_as_xyz
  1  'x, y, z'
loop_
 _atom_site_type_symbol
 _atom_site_label
 _atom_site_symmetry_multiplicity
 _atom_site_fract_x
 _atom_site_fract_y
 _atom_site_fract_z
 _atom_site_occupancy
  K  K0  1  0.00000000  0.00000000  0.50000000  1
  Ni  Ni0  1  0.33333300  0.66666700  0.50000000  1
  Au  Au0  1  0.82790100  0.17209900  0.00000000  1
  Au  Au1  1  0.34419800  0.17209900  0.00000000  1
  Au  Au2  1  0.82790100  0.65580200  0.00000000  1
  C  C0  1  0.99372800  0.33413400  0.78538300  1
  C  C1  1  0.66586600  0.00627200  0.21461700  1
  C  C2  1  0.99372800  0.65959400  0.21461700  1
  C  C3  1  0.34040600  0.33413400  0.21461700  1
  C  C4  1  0.34040600  0.00627200  0.78538300  1
  C  C5  1  0.66586600  0.65959400  0.78538300  1
  N  N0  1  0.09775800  0.43161600  0.66227100  1
  N  N1  1  0.56838400  0.66614200  0.66227100  1
  N  N2  1  0.09775800  0.66614200  0.33772900  1
  N  N3  1  0.33385800  0.43161600  0.33772900  1
  N  N4  1  0.56838400  0.90224200  0.33772900  1
  N  N5  1  0.33385800  0.90224200  0.66227100  1
loop_
_geom_bond_atom_site_label_1
_geom_bond_atom_site_label_2
_geom_bond_distance
_geom_bond_site_symmetry_2
K0 N3 3.010582 1_555
K0 N1 3.010582 1_445
K0 N0 3.010582 1_555
K0 N4 3.010582 1_445
K0 N5 3.010582 1_545
K0 N2 3.010582 1_545
Au0 C0 1.994133 1_554
Au0 C1 1.994133 1_555
Au1 C4 1.994133 1_554
Au1 C3 1.994133 1_555
Au2 C2 1.994133 1_555
Au2 C5 1.994133 1_554
C0 N0 1.172261 1_655
C0 K0 3.206886 1_655
C1 N4 1.172261 1_545
C1 K0 3.206886 1_655
C2 N2 1.172261 1_655
C2 K0 3.206886 1_665
C3 N3 1.172261 1_555
C3 K0 3.206886 1_555
C4 N5 1.172261 1_545
C4 K0 3.206886 1_555
C5 N1 1.172261 1_555
C5 K0 3.206886 1_665
N0 Ni0 2.058546 1_555
N1 Ni0 2.058549 1_555
N2 Ni0 2.058544 1_555
N3 Ni0 2.058549 1_555
N4 Ni0 2.058546 1_555
N5 Ni0 2.058544 1_555
