# generated using pymatgen
data_Hg3C2(N2Cl)2
_symmetry_space_group_name_H-M   'P 1'
_cell_length_a   7.35545000
_cell_length_b   10.66005400
_cell_length_c   11.03153400
_cell_angle_alpha   90.00000000
_cell_angle_beta   90.00000000
_cell_angle_gamma   90.00000000
_symmetry_Int_Tables_number   1
_chemical_formula_structural   Hg3C2(N2Cl)2
_chemical_formula_sum   'Hg12 C8 N16 Cl8'
_cell_volume   864.97700113
_cell_formula_units_Z   4
loop_
 _symmetry_equiv_pos_site_id
 _symmetry_equiv_pos_as_xyz
  1  'x, y, z'
loop_
 _atom_site_type_symbol
 _atom_site_label
 _atom_site_symmetry_multiplicity
 _atom_site_fract_x
 _atom_site_fract_y
 _atom_site_fract_z
 _atom_site_occupancy
  Hg  Hg0  1  0.72671400  0.85890300  0.20670800  1
  Hg  Hg1  1  0.28938300  0.04332400  0.08722800  1
  Hg  Hg2  1  0.77328600  0.35890300  0.20670800  1
  Hg  Hg3  1  0.50499800  0.99852500  0.55341300  1
  Hg  Hg4  1  0.99500200  0.49852500  0.55341300  1
  Hg  Hg5  1  0.00499800  0.99852500  0.44658700  1
  Hg  Hg6  1  0.49500200  0.49852500  0.44658700  1
  Hg  Hg7  1  0.78938300  0.04332400  0.91277200  1
  Hg  Hg8  1  0.71061700  0.54332400  0.91277200  1
  Hg  Hg9  1  0.21061700  0.54332400  0.08722800  1
  Hg  Hg10  1  0.22671400  0.85890300  0.79329200  1
  Hg  Hg11  1  0.27328600  0.35890300  0.79329200  1
  C  C0  1  0.88939200  0.29830500  0.95839500  1
  C  C1  1  0.64967500  0.23896900  0.44134800  1
  C  C2  1  0.11060800  0.79830500  0.04160500  1
  C  C3  1  0.38939200  0.29830500  0.04160500  1
  C  C4  1  0.35032500  0.73896900  0.55865200  1
  C  C5  1  0.61060800  0.79830500  0.95839500  1
  C  C6  1  0.14967500  0.23896900  0.55865200  1
  C  C7  1  0.85032500  0.73896900  0.44134800  1
  N  N0  1  0.64254300  0.34035900  0.38333700  1
  N  N1  1  0.45141800  0.20963700  0.09704600  1
  N  N2  1  0.17570600  0.14392900  0.50135300  1
  N  N3  1  0.95141800  0.20963700  0.90295400  1
  N  N4  1  0.83859300  0.39369600  0.01623400  1
  N  N5  1  0.35745700  0.84035900  0.61666300  1
  N  N6  1  0.33859300  0.39369600  0.98376600  1
  N  N7  1  0.54858200  0.70963700  0.90295400  1
  N  N8  1  0.85745700  0.84035900  0.38333700  1
  N  N9  1  0.66140700  0.89369600  0.01623400  1
  N  N10  1  0.32429400  0.64392900  0.50135300  1
  N  N11  1  0.04858200  0.70963700  0.09704600  1
  N  N12  1  0.82429400  0.64392900  0.49864700  1
  N  N13  1  0.67570600  0.14392900  0.49864700  1
  N  N14  1  0.14254300  0.34035900  0.61666300  1
  N  N15  1  0.16140700  0.89369600  0.98376600  1
  Cl  Cl0  1  0.11991000  0.42252900  0.29595400  1
  Cl  Cl1  1  0.88009000  0.92252900  0.70404600  1
  Cl  Cl2  1  0.43042600  0.09771400  0.79750400  1
  Cl  Cl3  1  0.61991000  0.42252900  0.70404600  1
  Cl  Cl4  1  0.93042600  0.09771400  0.20249600  1
  Cl  Cl5  1  0.38009000  0.92252900  0.29595400  1
  Cl  Cl6  1  0.56957400  0.59771400  0.20249600  1
  Cl  Cl7  1  0.06957400  0.59771400  0.79750400  1
loop_
_geom_bond_atom_site_label_1
_geom_bond_atom_site_label_2
_geom_bond_distance
_geom_bond_site_symmetry_2
Hg0 N8 2.181858 1_555
Hg0 N9 2.187107 1_555
Hg1 N1 2.139020 1_555
Hg1 N15 2.175526 1_544
Hg2 N0 2.181858 1_555
Hg2 N4 2.187107 1_555
Hg3 N13 2.084266 1_565
Hg3 N5 2.123055 1_555
Hg4 N12 2.084266 1_555
Hg4 N14 2.123055 1_655
Hg5 N2 2.084266 1_565
Hg5 N8 2.123055 1_455
Hg6 N10 2.084266 1_555
Hg6 N0 2.123055 1_555
Hg7 N3 2.139020 1_555
Hg7 N9 2.175526 1_546
Hg8 N7 2.139020 1_555
Hg8 N4 2.175526 1_556
Hg9 N11 2.139020 1_555
Hg9 N6 2.175526 1_554
Hg10 N5 2.181858 1_555
Hg10 N15 2.187107 1_555
Hg11 N14 2.181858 1_555
Hg11 N6 2.187107 1_555
C0 N3 1.214748 1_555
C0 N4 1.257281 1_556
C1 N13 1.209397 1_555
C1 N0 1.257166 1_555
C2 N11 1.214748 1_555
C2 N15 1.257281 1_554
C3 N1 1.214748 1_555
C3 N6 1.257281 1_554
C4 N10 1.209397 1_555
C4 N5 1.257166 1_555
C5 N7 1.214748 1_555
C5 N9 1.257281 1_556
C6 N2 1.209397 1_555
C6 N14 1.257166 1_555
C7 N12 1.209397 1_555
C7 N8 1.257166 1_555
Cl0 Hg9 2.721229 1_555
Cl0 Hg2 2.815963 1_455
Cl1 Hg7 2.721229 1_565
Cl1 Hg10 2.815963 1_655
Cl2 Hg3 2.944401 1_545
Cl2 Hg10 2.954340 1_545
Cl2 Hg7 2.987344 1_555
Cl2 Hg11 3.015026 1_555
Cl3 Hg8 2.721229 1_555
Cl3 Hg11 2.815963 1_555
Cl4 Hg5 2.944401 1_645
Cl4 Hg0 2.954340 1_545
Cl4 Hg1 2.987344 1_655
Cl4 Hg2 3.015026 1_555
Cl5 Hg1 2.721229 1_565
Cl5 Hg0 2.815963 1_555
Cl6 Hg6 2.944401 1_555
Cl6 Hg2 2.954340 1_555
Cl6 Hg9 2.987344 1_555
Cl6 Hg0 3.015026 1_555
Cl7 Hg4 2.944401 1_455
Cl7 Hg11 2.954340 1_555
Cl7 Hg8 2.987344 1_455
Cl7 Hg10 3.015026 1_555
