# generated using pymatgen
data_KBe(PO3)3
_symmetry_space_group_name_H-M   'P 1'
_cell_length_a   7.96860500
_cell_length_b   8.74132000
_cell_length_c   11.57532400
_cell_angle_alpha   90.00000000
_cell_angle_beta   90.00000000
_cell_angle_gamma   90.00000000
_symmetry_Int_Tables_number   1
_chemical_formula_structural   KBe(PO3)3
_chemical_formula_sum   'K4 Be4 P12 O36'
_cell_volume   806.29223003
_cell_formula_units_Z   4
loop_
 _symmetry_equiv_pos_site_id
 _symmetry_equiv_pos_as_xyz
  1  'x, y, z'
loop_
 _atom_site_type_symbol
 _atom_site_label
 _atom_site_symmetry_multiplicity
 _atom_site_fract_x
 _atom_site_fract_y
 _atom_site_fract_z
 _atom_site_occupancy
  K  K0  1  0.50207400  0.20459500  0.06699000  1
  K  K1  1  0.00207400  0.29540500  0.93301000  1
  K  K2  1  0.49792600  0.70459500  0.43301000  1
  K  K3  1  0.99792600  0.79540500  0.56699000  1
  Be  Be0  1  0.68022500  0.29029900  0.37272900  1
  Be  Be1  1  0.18022500  0.20970100  0.62727100  1
  Be  Be2  1  0.31977500  0.79029900  0.12727100  1
  Be  Be3  1  0.81977500  0.70970100  0.87272900  1
  P  P0  1  0.80996100  0.00244500  0.29857400  1
  P  P1  1  0.81864100  0.49448000  0.20339600  1
  P  P2  1  0.19003900  0.50244500  0.20142600  1
  P  P3  1  0.68135900  0.50552000  0.70339600  1
  P  P4  1  0.30996100  0.49755500  0.70142600  1
  P  P5  1  0.19159300  0.70731900  0.88251500  1
  P  P6  1  0.80840700  0.20731900  0.61748500  1
  P  P7  1  0.69003900  0.99755500  0.79857400  1
  P  P8  1  0.31864100  0.00552000  0.79660400  1
  P  P9  1  0.18135900  0.99448000  0.29660400  1
  P  P10  1  0.69159300  0.79268100  0.11748500  1
  P  P11  1  0.30840700  0.29268100  0.38251500  1
  O  O0  1  0.73948300  0.24584500  0.50180200  1
  O  O1  1  0.21458500  0.90003700  0.40063200  1
  O  O2  1  0.01427900  0.64857800  0.87394000  1
  O  O3  1  0.71458500  0.59996300  0.59936800  1
  O  O4  1  0.70537900  0.65019400  0.20385500  1
  O  O5  1  0.99698300  0.07302000  0.29831700  1
  O  O6  1  0.26051700  0.74584500  0.99819800  1
  O  O7  1  0.49698300  0.42698000  0.70168300  1
  O  O8  1  0.20766700  0.92949400  0.17712000  1
  O  O9  1  0.81132300  0.92090300  0.17161500  1
  O  O10  1  0.69402400  0.13938500  0.28861400  1
  O  O11  1  0.30597600  0.63938500  0.21138600  1
  O  O12  1  0.78261500  0.88874900  0.39213200  1
  O  O13  1  0.80597600  0.86061500  0.78861400  1
  O  O14  1  0.18867700  0.42090300  0.32838500  1
  O  O15  1  0.78541500  0.40003700  0.09936800  1
  O  O16  1  0.28541500  0.09996300  0.90063200  1
  O  O17  1  0.29462100  0.15019400  0.29614500  1
  O  O18  1  0.71738500  0.11125100  0.89213200  1
  O  O19  1  0.19402400  0.36061500  0.71138600  1
  O  O20  1  0.23948300  0.25415500  0.49819800  1
  O  O21  1  0.28261500  0.61125100  0.60786800  1
  O  O22  1  0.76051700  0.75415500  0.00180200  1
  O  O23  1  0.79233300  0.42949400  0.32288000  1
  O  O24  1  0.00301700  0.57302000  0.20168300  1
  O  O25  1  0.68867700  0.07909700  0.67161500  1
  O  O26  1  0.51427900  0.85142200  0.12606000  1
  O  O27  1  0.31132300  0.57909700  0.82838500  1
  O  O28  1  0.48572100  0.35142200  0.37394000  1
  O  O29  1  0.21738500  0.38874900  0.10786800  1
  O  O30  1  0.20537900  0.84980600  0.79614500  1
  O  O31  1  0.79462100  0.34980600  0.70385500  1
  O  O32  1  0.50301700  0.92698000  0.79831700  1
  O  O33  1  0.29233300  0.07050600  0.67712000  1
  O  O34  1  0.70766700  0.57050600  0.82288000  1
  O  O35  1  0.98572100  0.14857800  0.62606000  1
loop_
_geom_bond_atom_site_label_1
_geom_bond_atom_site_label_2
_geom_bond_distance
_geom_bond_site_symmetry_2
K0 O16 2.743237 1_554
K0 O18 2.776009 1_554
K0 O29 2.821634 1_555
K0 O15 2.856042 1_555
K0 O10 3.040665 1_555
K0 O17 3.161471 1_555
K0 O26 3.163506 1_545
K1 O15 2.743237 1_456
K1 O29 2.776009 1_556
K1 O18 2.821634 1_455
K1 O16 2.856042 1_555
K1 O19 3.040665 1_555
K1 O31 3.161471 1_455
K1 O2 3.163506 1_555
K2 O3 2.743237 1_555
K2 O21 2.776009 1_555
K2 O12 2.821634 1_555
K2 O1 2.856042 1_555
K2 O11 3.040665 1_555
K2 O4 3.161471 1_555
K2 O28 3.163506 1_555
K3 O1 2.743237 1_655
K3 O12 2.776009 1_555
K3 O21 2.821634 1_655
K3 O3 2.856042 1_555
K3 O13 3.040665 1_555
K3 O30 3.161471 1_655
K3 O35 3.163506 1_565
Be0 O0 1.614372 1_555
Be0 O23 1.616011 1_555
Be0 O28 1.639493 1_555
Be0 O10 1.643276 1_555
Be1 O20 1.614372 1_555
Be1 O33 1.616011 1_555
Be1 O35 1.639493 1_455
Be1 O19 1.643276 1_555
Be2 O6 1.614372 1_554
Be2 O8 1.616011 1_555
Be2 O26 1.639493 1_555
Be2 O11 1.643276 1_555
Be3 O22 1.614372 1_556
Be3 O34 1.616011 1_555
Be3 O2 1.639493 1_655
Be3 O13 1.643276 1_555
O0 P6 1.485991 1_555
O1 P9 1.483792 1_555
O2 P5 1.506626 1_555
O3 P3 1.483792 1_555
O4 P10 1.600913 1_555
O4 P1 1.633195 1_555
O5 P0 1.612949 1_555
O5 P9 1.621833 1_645
O6 P5 1.485991 1_555
O7 P4 1.612949 1_555
O7 P3 1.621833 1_555
O8 P9 1.509807 1_555
O9 P10 1.599726 1_555
O9 P0 1.633364 1_565
O10 P0 1.516476 1_555
O11 P2 1.516476 1_555
O12 P0 1.485947 1_565
O13 P7 1.516476 1_555
O14 P11 1.599726 1_555
O14 P2 1.633364 1_555
O15 P1 1.483792 1_555
O16 P8 1.483792 1_555
O17 P11 1.600913 1_555
O17 P9 1.633195 1_545
O18 P7 1.485947 1_545
O19 P4 1.516476 1_555
O20 P11 1.485991 1_555
O21 P4 1.485947 1_555
O22 P10 1.485991 1_555
O23 P1 1.509807 1_555
O24 P2 1.612949 1_555
O24 P1 1.621833 1_455
O25 P6 1.599726 1_555
O25 P7 1.633364 1_545
O26 P10 1.506626 1_555
O27 P5 1.599726 1_555
O27 P4 1.633364 1_555
O28 P11 1.506626 1_555
O29 P2 1.485947 1_555
O30 P5 1.600913 1_555
O30 P8 1.633195 1_565
O31 P6 1.600913 1_555
O31 P3 1.633195 1_555
O32 P7 1.612949 1_555
O32 P8 1.621833 1_565
O33 P8 1.509807 1_555
O34 P3 1.509807 1_555
O35 P6 1.506626 1_555
