# generated using pymatgen
data_La3ScBi5
_symmetry_space_group_name_H-M   'P 1'
_cell_length_a   9.89965825
_cell_length_b   9.89965921
_cell_length_c   6.56173607
_cell_angle_alpha   90.00000000
_cell_angle_beta   90.00000000
_cell_angle_gamma   120.00000028
_symmetry_Int_Tables_number   1
_chemical_formula_structural   La3ScBi5
_chemical_formula_sum   'La6 Sc2 Bi10'
_cell_volume   556.91618002
_cell_formula_units_Z   2
loop_
 _symmetry_equiv_pos_site_id
 _symmetry_equiv_pos_as_xyz
  1  'x, y, z'
loop_
 _atom_site_type_symbol
 _atom_site_label
 _atom_site_symmetry_multiplicity
 _atom_site_fract_x
 _atom_site_fract_y
 _atom_site_fract_z
 _atom_site_occupancy
  La  La0  1  0.00000000  0.62052216  0.25000000  1
  La  La1  1  0.37947784  0.37947784  0.25000000  1
  La  La2  1  0.37947784  0.00000000  0.75000000  1
  La  La3  1  0.62052216  0.62052216  0.75000000  1
  La  La4  1  0.62052216  -0.00000000  0.25000000  1
  La  La5  1  -0.00000000  0.37947784  0.75000000  1
  Sc  Sc0  1  -0.00000000  -0.00000000  -0.00000000  1
  Sc  Sc1  1  -0.00000000  -0.00000000  0.50000000  1
  Bi  Bi0  1  -0.00000000  0.25807727  0.25000000  1
  Bi  Bi1  1  0.33333300  0.66666700  0.50000000  1
  Bi  Bi2  1  0.66666700  0.33333300  -0.00000000  1
  Bi  Bi3  1  0.33333300  0.66666700  -0.00000000  1
  Bi  Bi4  1  0.25807727  0.25807727  0.75000000  1
  Bi  Bi5  1  0.74192273  -0.00000000  0.75000000  1
  Bi  Bi6  1  0.00000000  0.74192273  0.75000000  1
  Bi  Bi7  1  0.74192273  0.74192273  0.25000000  1
  Bi  Bi8  1  0.25807727  0.00000000  0.25000000  1
  Bi  Bi9  1  0.66666700  0.33333300  0.50000000  1
loop_
_geom_bond_atom_site_label_1
_geom_bond_atom_site_label_2
_geom_bond_distance
_geom_bond_site_symmetry_2
Bi0 Sc1 3.036185 1_555
Bi0 Sc0 3.036185 1_555
Bi0 La1 3.322994 1_555
Bi0 La4 3.322994 1_455
Bi0 La5 3.494063 1_554
Bi0 La5 3.494063 1_555
Bi0 La0 3.588081 1_555
Bi1 Bi3 3.280868 1_555
Bi1 Bi3 3.280868 1_556
Bi1 La0 3.504495 1_555
Bi1 La2 3.504495 1_565
Bi1 La5 3.504499 1_555
Bi1 La4 3.504499 1_565
Bi1 La3 3.504504 1_555
Bi1 La1 3.504504 1_555
Bi2 Bi9 3.280868 1_555
Bi2 Bi9 3.280868 1_554
Bi2 La5 3.504495 1_654
Bi2 La4 3.504495 1_555
Bi2 La0 3.504499 1_655
Bi2 La2 3.504499 1_554
Bi2 La1 3.504504 1_555
Bi2 La3 3.504504 1_554
Bi3 La0 3.504495 1_555
Bi3 La2 3.504495 1_564
Bi3 La5 3.504499 1_554
Bi3 La4 3.504499 1_565
Bi3 La3 3.504504 1_554
Bi3 La1 3.504504 1_555
Bi4 Sc1 3.036185 1_555
Bi4 Sc0 3.036185 1_556
Bi4 La5 3.322994 1_555
Bi4 La2 3.322994 1_555
Bi4 La1 3.494063 1_556
Bi4 La1 3.494063 1_555
Bi4 La3 3.588081 1_555
Bi5 Sc1 3.036185 1_655
Bi5 Sc0 3.036185 1_656
Bi5 La5 3.322994 1_655
Bi5 La3 3.322994 1_545
Bi5 La4 3.494063 1_555
Bi5 La4 3.494063 1_556
Bi5 La2 3.588081 1_555
Bi6 Sc0 3.036185 1_566
Bi6 Sc1 3.036185 1_565
Bi6 La3 3.322994 1_455
Bi6 La2 3.322994 1_565
Bi6 La0 3.494063 1_555
Bi6 La0 3.494063 1_556
Bi6 La5 3.588081 1_555
Bi7 Sc0 3.036185 1_665
Bi7 Sc1 3.036185 1_665
Bi7 La0 3.322994 1_655
Bi7 La4 3.322994 1_565
Bi7 La3 3.494063 1_555
Bi7 La3 3.494063 1_554
Bi7 La1 3.588081 1_555
Bi8 Sc1 3.036185 1_555
Bi8 Sc0 3.036185 1_555
Bi8 La0 3.322994 1_545
Bi8 La1 3.322994 1_555
Bi8 La2 3.494063 1_554
Bi8 La2 3.494063 1_555
Bi8 La4 3.588081 1_555
Bi9 La5 3.504495 1_655
Bi9 La4 3.504495 1_555
Bi9 La0 3.504499 1_655
Bi9 La2 3.504499 1_555
Bi9 La1 3.504504 1_555
Bi9 La3 3.504504 1_555
