# generated using pymatgen
data_Pr(NiP)2
_symmetry_space_group_name_H-M   'P 1'
_cell_length_a   3.95948503
_cell_length_b   3.95948434
_cell_length_c   5.53596577
_cell_angle_alpha   110.95375813
_cell_angle_beta   110.95376637
_cell_angle_gamma   90.00000423
_symmetry_Int_Tables_number   1
_chemical_formula_structural   Pr(NiP)2
_chemical_formula_sum   'Pr1 Ni2 P2'
_cell_volume   74.87253094
_cell_formula_units_Z   1
loop_
 _symmetry_equiv_pos_site_id
 _symmetry_equiv_pos_as_xyz
  1  'x, y, z'
loop_
 _atom_site_type_symbol
 _atom_site_label
 _atom_site_symmetry_multiplicity
 _atom_site_fract_x
 _atom_site_fract_y
 _atom_site_fract_z
 _atom_site_occupancy
  Pr  Pr0  1  0.00000000  0.00000000  0.00000000  1
  Ni  Ni0  1  0.75000000  0.25000000  0.50000000  1
  Ni  Ni1  1  0.25000000  0.75000000  0.50000000  1
  P  P0  1  0.36859881  0.36859881  0.73719662  1
  P  P1  1  0.63140119  0.63140119  0.26280238  1
loop_
_geom_bond_atom_site_label_1
_geom_bond_atom_site_label_2
_geom_bond_distance
_geom_bond_site_symmetry_2
Ni0 P0 2.280923 1_555
Ni0 P1 2.280927 1_555
Ni0 P0 2.280927 1_655
Ni0 P1 2.280927 1_545
Ni0 Pr0 3.101841 1_656
Ni0 Pr0 3.101841 1_655
Ni0 Pr0 3.101842 1_666
Ni0 Pr0 3.101842 1_555
Ni1 P0 2.280923 1_555
Ni1 P0 2.280927 1_565
Ni1 P1 2.280927 1_555
Ni1 P1 2.280928 1_455
Ni1 Pr0 3.101841 1_565
Ni1 Pr0 3.101841 1_566
Ni1 Pr0 3.101842 1_555
Ni1 Pr0 3.101842 1_666
P0 P1 2.510182 1_556
P0 Pr0 3.068225 1_666
P0 Pr0 3.068227 1_656
P0 Pr0 3.068228 1_566
P0 Pr0 3.068230 1_556
P1 Pr0 3.068225 1_665
P1 Pr0 3.068225 1_565
P1 Pr0 3.068226 1_655
P1 Pr0 3.068226 1_555
