# generated using pymatgen
data_Na2Nb4O11
_symmetry_space_group_name_H-M   'P 1'
_cell_length_a   12.94249259
_cell_length_b   12.94249259
_cell_length_c   12.94249272
_cell_angle_alpha   28.20928009
_cell_angle_beta   28.20928009
_cell_angle_gamma   28.20927979
_symmetry_Int_Tables_number   1
_chemical_formula_structural   Na2Nb4O11
_chemical_formula_sum   'Na4 Nb8 O22'
_cell_volume   427.97595721
_cell_formula_units_Z   2
loop_
 _symmetry_equiv_pos_site_id
 _symmetry_equiv_pos_as_xyz
  1  'x, y, z'
loop_
 _atom_site_type_symbol
 _atom_site_label
 _atom_site_symmetry_multiplicity
 _atom_site_fract_x
 _atom_site_fract_y
 _atom_site_fract_z
 _atom_site_occupancy
  Na  Na0  1  0.83246500  0.83246500  0.83246500  1
  Na  Na1  1  0.66753500  0.66753500  0.66753500  1
  Na  Na2  1  0.16753500  0.16753500  0.16753500  1
  Na  Na3  1  0.33246500  0.33246500  0.33246500  1
  Nb  Nb0  1  0.25000000  0.61278700  0.88721300  1
  Nb  Nb1  1  0.88721300  0.25000000  0.61278700  1
  Nb  Nb2  1  0.75000000  0.38721300  0.11278700  1
  Nb  Nb3  1  0.11278700  0.75000000  0.38721300  1
  Nb  Nb4  1  0.61278700  0.88721300  0.25000000  1
  Nb  Nb5  1  0.38721300  0.11278700  0.75000000  1
  Nb  Nb6  1  0.00000000  0.00000000  0.00000000  1
  Nb  Nb7  1  0.50000000  0.50000000  0.50000000  1
  O  O0  1  0.24497800  0.72283600  0.93715600  1
  O  O1  1  0.77716400  0.25502200  0.56284400  1
  O  O2  1  0.75502200  0.27716400  0.06284400  1
  O  O3  1  0.22283600  0.74497800  0.43715600  1
  O  O4  1  0.25502200  0.56284400  0.77716400  1
  O  O5  1  0.93715600  0.24497800  0.72283600  1
  O  O6  1  0.74497800  0.43715600  0.22283600  1
  O  O7  1  0.06284400  0.75502200  0.27716400  1
  O  O8  1  0.72283600  0.93715600  0.24497800  1
  O  O9  1  0.56284400  0.77716400  0.25502200  1
  O  O10  1  0.27716400  0.06284400  0.75502200  1
  O  O11  1  0.43715600  0.22283600  0.74497800  1
  O  O12  1  0.49688300  0.25000000  0.00311700  1
  O  O13  1  0.25000000  0.00311700  0.49688300  1
  O  O14  1  0.50311700  0.75000000  0.99688300  1
  O  O15  1  0.75000000  0.99688300  0.50311700  1
  O  O16  1  0.90479800  0.90479800  0.90479800  1
  O  O17  1  0.59520200  0.59520200  0.59520200  1
  O  O18  1  0.09520200  0.09520200  0.09520200  1
  O  O19  1  0.40479800  0.40479800  0.40479800  1
  O  O20  1  0.00311700  0.49688300  0.25000000  1
  O  O21  1  0.99688300  0.50311700  0.75000000  1
loop_
_geom_bond_atom_site_label_1
_geom_bond_atom_site_label_2
_geom_bond_distance
_geom_bond_site_symmetry_2
Na0 O4 2.542972 1_655
Na0 O1 2.542972 1_565
Na0 O9 2.542972 1_556
Na0 O16 2.695023 1_555
Na0 O11 2.748481 1_565
Na0 O6 2.748481 1_556
Na0 O3 2.748481 1_655
Na1 O5 2.542972 1_555
Na1 O0 2.542972 1_555
Na1 O8 2.542972 1_555
Na1 O17 2.695023 1_555
Na1 O10 2.748481 1_565
Na1 O7 2.748481 1_655
Na1 O2 2.748481 1_556
Na2 O6 2.542972 1_455
Na2 O3 2.542972 1_545
Na2 O11 2.542972 1_554
Na2 O18 2.695023 1_555
Na2 O9 2.748481 1_545
Na2 O4 2.748481 1_554
Na2 O1 2.748481 1_455
Na3 O7 2.542972 1_555
Na3 O2 2.542972 1_555
Na3 O10 2.542972 1_555
Na3 O19 2.695023 1_555
Na3 O8 2.748481 1_545
Na3 O5 2.748481 1_455
Na3 O0 2.748481 1_554
Nb0 O0 1.958596 1_555
Nb0 O4 1.958596 1_555
Nb0 O12 2.024463 1_556
Nb0 O20 2.024463 1_556
Nb0 O16 2.064127 1_455
Nb0 O17 2.064127 1_555
Nb0 O13 2.462203 1_565
Nb1 O1 1.958596 1_555
Nb1 O5 1.958596 1_555
Nb1 O13 2.024463 1_655
Nb1 O20 2.024463 1_655
Nb1 O17 2.064127 1_555
Nb1 O16 2.064127 1_545
Nb1 O12 2.462203 1_556
Nb2 O2 1.958596 1_555
Nb2 O6 1.958596 1_555
Nb2 O14 2.024463 1_554
Nb2 O21 2.024463 1_554
Nb2 O18 2.064127 1_655
Nb2 O19 2.064127 1_555
Nb2 O15 2.462203 1_545
Nb3 O3 1.958596 1_555
Nb3 O7 1.958596 1_555
Nb3 O15 2.024463 1_455
Nb3 O21 2.024463 1_455
Nb3 O19 2.064127 1_555
Nb3 O18 2.064127 1_565
Nb3 O14 2.462203 1_554
Nb4 O9 1.958596 1_555
Nb4 O8 1.958596 1_555
Nb4 O13 2.024463 1_565
Nb4 O12 2.024463 1_565
Nb4 O16 2.064127 1_554
Nb4 O17 2.064127 1_555
Nb4 O20 2.462203 1_655
Nb5 O11 1.958596 1_555
Nb5 O10 1.958596 1_555
Nb5 O14 2.024463 1_545
Nb5 O15 2.024463 1_545
Nb5 O19 2.064127 1_555
Nb5 O18 2.064127 1_556
Nb5 O21 2.462203 1_455
Nb6 O2 2.033223 1_455
Nb6 O0 2.033223 1_544
Nb6 O10 2.033223 1_554
Nb6 O8 2.033223 1_445
Nb6 O7 2.033223 1_545
Nb6 O5 2.033223 1_454
Nb7 O1 2.033223 1_555
Nb7 O3 2.033223 1_555
Nb7 O9 2.033223 1_555
Nb7 O11 2.033223 1_555
Nb7 O4 2.033223 1_555
Nb7 O6 2.033223 1_555
