# generated using pymatgen
data_FeAgS2
_symmetry_space_group_name_H-M   'P 1'
_cell_length_a   6.49841180
_cell_length_b   6.49841180
_cell_length_c   6.49841180
_cell_angle_alpha   128.75637518
_cell_angle_beta   128.75637518
_cell_angle_gamma   75.40289342
_symmetry_Int_Tables_number   1
_chemical_formula_structural   FeAgS2
_chemical_formula_sum   'Fe2 Ag2 S4'
_cell_volume   162.40601439
_cell_formula_units_Z   2
loop_
 _symmetry_equiv_pos_site_id
 _symmetry_equiv_pos_as_xyz
  1  'x, y, z'
loop_
 _atom_site_type_symbol
 _atom_site_label
 _atom_site_symmetry_multiplicity
 _atom_site_fract_x
 _atom_site_fract_y
 _atom_site_fract_z
 _atom_site_occupancy
  Fe  Fe0  1  0.50000000  0.50000000  0.00000000  1
  Fe  Fe1  1  0.25000000  0.75000000  0.50000000  1
  Ag  Ag0  1  0.75000000  0.25000000  0.50000000  1
  Ag  Ag1  1  0.00000000  0.00000000  0.00000000  1
  S  S0  1  0.87500000  0.82295400  0.44795400  1
  S  S1  1  0.17704600  0.62500000  0.05204600  1
  S  S2  1  0.37500000  0.42704600  0.55204600  1
  S  S3  1  0.57295400  0.12500000  0.94795400  1
loop_
_geom_bond_atom_site_label_1
_geom_bond_atom_site_label_2
_geom_bond_distance
_geom_bond_site_symmetry_2
Fe0 S0 2.205486 1_555
Fe0 S3 2.205486 1_554
Fe0 S1 2.205486 1_555
Fe0 S2 2.205486 1_554
Fe1 S2 2.205486 1_555
Fe1 S0 2.205486 1_455
Fe1 S3 2.205486 1_565
Fe1 S1 2.205486 1_555
Ag0 S1 2.551104 1_656
Ag0 S2 2.551104 1_555
Ag0 S0 2.551104 1_545
Ag0 S3 2.551104 1_554
Ag1 S1 2.551104 1_545
Ag1 S2 2.551104 1_555
Ag1 S3 2.551104 1_454
Ag1 S0 2.551104 1_444
