# generated using pymatgen
data_MoP2NCl12
_symmetry_space_group_name_H-M   'P 1'
_cell_length_a   21.82542500
_cell_length_b   8.44579400
_cell_length_c   10.60266988
_cell_angle_alpha   78.68152348
_cell_angle_beta   90.00000000
_cell_angle_gamma   90.00000000
_symmetry_Int_Tables_number   1
_chemical_formula_structural   MoP2NCl12
_chemical_formula_sum   'Mo4 P8 N4 Cl48'
_cell_volume   1916.41166655
_cell_formula_units_Z   4
loop_
 _symmetry_equiv_pos_site_id
 _symmetry_equiv_pos_as_xyz
  1  'x, y, z'
loop_
 _atom_site_type_symbol
 _atom_site_label
 _atom_site_symmetry_multiplicity
 _atom_site_fract_x
 _atom_site_fract_y
 _atom_site_fract_z
 _atom_site_occupancy
  Mo  Mo0  1  0.89161800  0.15626700  0.80473200  1
  Mo  Mo1  1  0.60838200  0.15626700  0.30473200  1
  Mo  Mo2  1  0.10838200  0.84373300  0.19526800  1
  Mo  Mo3  1  0.39161800  0.84373300  0.69526800  1
  P  P0  1  0.33044400  0.31140000  0.12918400  1
  P  P1  1  0.66955600  0.68860000  0.87081600  1
  P  P2  1  0.89789600  0.44443200  0.26189700  1
  P  P3  1  0.39789600  0.55556800  0.23810300  1
  P  P4  1  0.16955600  0.31140000  0.62918400  1
  P  P5  1  0.60210400  0.44443200  0.76189700  1
  P  P6  1  0.83044400  0.68860000  0.37081600  1
  P  P7  1  0.10210400  0.55556800  0.73810300  1
  N  N0  1  0.62081900  0.55627800  0.85802800  1
  N  N1  1  0.37918100  0.44372200  0.14197200  1
  N  N2  1  0.87918100  0.55627800  0.35802800  1
  N  N3  1  0.12081900  0.44372200  0.64197200  1
  Cl  Cl0  1  0.32828500  0.68493400  0.28327100  1
  Cl  Cl1  1  0.74738800  0.59802300  0.41432400  1
  Cl  Cl2  1  0.03832800  0.70999600  0.66272000  1
  Cl  Cl3  1  0.79684400  0.12576500  0.91476600  1
  Cl  Cl4  1  0.89521100  0.87515300  0.81860100  1
  Cl  Cl5  1  0.60478900  0.87515300  0.31860100  1
  Cl  Cl6  1  0.33555900  0.81234100  0.89021500  1
  Cl  Cl7  1  0.56876600  0.56620400  0.59763100  1
  Cl  Cl8  1  0.75261200  0.59802300  0.91432400  1
  Cl  Cl9  1  0.43123400  0.43379600  0.40236900  1
  Cl  Cl10  1  0.11017400  0.56190300  0.21863700  1
  Cl  Cl11  1  0.68021300  0.85725200  0.71253300  1
  Cl  Cl12  1  0.83555900  0.18765900  0.60978500  1
  Cl  Cl13  1  0.82828500  0.31506600  0.21672900  1
  Cl  Cl14  1  0.01433600  0.82979900  0.30573900  1
  Cl  Cl15  1  0.70315600  0.12576500  0.41476600  1
  Cl  Cl16  1  0.94116300  0.13652800  0.00244400  1
  Cl  Cl17  1  0.64663200  0.80340300  0.00888600  1
  Cl  Cl18  1  0.18021300  0.14274800  0.78746700  1
  Cl  Cl19  1  0.51433600  0.17020100  0.19426100  1
  Cl  Cl20  1  0.10478900  0.12484700  0.18139900  1
  Cl  Cl21  1  0.67171500  0.31506600  0.71672900  1
  Cl  Cl22  1  0.61017400  0.43809700  0.28136300  1
  Cl  Cl23  1  0.66444100  0.18765900  0.10978500  1
  Cl  Cl24  1  0.81978700  0.85725200  0.21253300  1
  Cl  Cl25  1  0.35336800  0.19659700  0.99111400  1
  Cl  Cl26  1  0.96167200  0.29000400  0.33728000  1
  Cl  Cl27  1  0.20315600  0.87423500  0.08523400  1
  Cl  Cl28  1  0.55883700  0.13652800  0.50244400  1
  Cl  Cl29  1  0.46167200  0.70999600  0.16272000  1
  Cl  Cl30  1  0.16444100  0.81234100  0.39021500  1
  Cl  Cl31  1  0.39521100  0.12484700  0.68139900  1
  Cl  Cl32  1  0.05883700  0.86347200  0.99755600  1
  Cl  Cl33  1  0.48566400  0.82979900  0.80573900  1
  Cl  Cl34  1  0.29684400  0.87423500  0.58523400  1
  Cl  Cl35  1  0.98566400  0.17020100  0.69426100  1
  Cl  Cl36  1  0.25261200  0.40197700  0.58567600  1
  Cl  Cl37  1  0.93123400  0.56620400  0.09763100  1
  Cl  Cl38  1  0.14663200  0.19659700  0.49111400  1
  Cl  Cl39  1  0.88982600  0.43809700  0.78136300  1
  Cl  Cl40  1  0.31978700  0.14274800  0.28746700  1
  Cl  Cl41  1  0.06876600  0.43379600  0.90236900  1
  Cl  Cl42  1  0.17171500  0.68493400  0.78327100  1
  Cl  Cl43  1  0.44116300  0.86347200  0.49755600  1
  Cl  Cl44  1  0.85336800  0.80340300  0.50888600  1
  Cl  Cl45  1  0.24738800  0.40197700  0.08567600  1
  Cl  Cl46  1  0.53832800  0.29000400  0.83728000  1
  Cl  Cl47  1  0.38982600  0.56190300  0.71863700  1
loop_
_geom_bond_atom_site_label_1
_geom_bond_atom_site_label_2
_geom_bond_distance
_geom_bond_site_symmetry_2
N0 P1 1.567891 1_555
N0 P5 1.573516 1_555
N1 P0 1.567891 1_555
N1 P3 1.573516 1_555
N2 P6 1.567891 1_555
N2 P2 1.573516 1_555
N3 P4 1.567891 1_555
N3 P7 1.573516 1_555
Cl0 P3 1.984124 1_555
Cl1 P6 1.986327 1_555
Cl2 P7 1.966783 1_555
Cl3 Mo0 2.363915 1_555
Cl4 Mo0 2.351107 1_565
Cl5 Mo1 2.351107 1_565
Cl6 Mo3 2.371599 1_555
Cl7 P5 1.979250 1_555
Cl8 P1 1.986327 1_555
Cl9 P3 1.979250 1_555
Cl10 Mo2 2.344599 1_555
Cl11 P1 1.990259 1_555
Cl12 Mo0 2.371599 1_555
Cl13 P2 1.984124 1_555
Cl14 Mo2 2.354740 1_555
Cl15 Mo1 2.363915 1_555
Cl16 Mo0 2.335441 1_554
Cl17 P1 1.972471 1_554
Cl18 P4 1.990259 1_555
Cl19 Mo1 2.354740 1_555
Cl20 Mo2 2.351107 1_545
Cl21 P5 1.984124 1_555
Cl22 Mo1 2.344599 1_555
Cl23 Mo1 2.371599 1_555
Cl24 P6 1.990259 1_555
Cl25 P0 1.972471 1_556
Cl26 P2 1.966783 1_555
Cl27 Mo2 2.363915 1_555
Cl28 Mo1 2.335441 1_555
Cl29 P3 1.966783 1_555
Cl30 Mo2 2.371599 1_555
Cl31 Mo3 2.351107 1_545
Cl32 Mo2 2.335441 1_556
Cl33 Mo3 2.354740 1_555
Cl34 Mo3 2.363915 1_555
Cl35 Mo0 2.354740 1_555
Cl36 P4 1.986327 1_555
Cl37 P2 1.979250 1_555
Cl38 P4 1.972471 1_555
Cl39 Mo0 2.344599 1_555
Cl40 P0 1.990259 1_555
Cl41 P7 1.979250 1_555
Cl42 P7 1.984124 1_555
Cl43 Mo3 2.335441 1_555
Cl44 P6 1.972471 1_555
Cl45 P0 1.986327 1_555
Cl46 P5 1.966783 1_555
Cl47 Mo3 2.344599 1_555
