# generated using pymatgen
data_CuSe
_symmetry_space_group_name_H-M   'P 1'
_cell_length_a   3.95126400
_cell_length_b   3.95126400
_cell_length_c   17.50148300
_cell_angle_alpha   90.00000000
_cell_angle_beta   90.00000000
_cell_angle_gamma   119.99999998
_symmetry_Int_Tables_number   1
_chemical_formula_structural   CuSe
_chemical_formula_sum   'Cu6 Se6'
_cell_volume   236.63423555
_cell_formula_units_Z   6
loop_
 _symmetry_equiv_pos_site_id
 _symmetry_equiv_pos_as_xyz
  1  'x, y, z'
loop_
 _atom_site_type_symbol
 _atom_site_label
 _atom_site_symmetry_multiplicity
 _atom_site_fract_x
 _atom_site_fract_y
 _atom_site_fract_z
 _atom_site_occupancy
  Cu  Cu0  1  0.66666700  0.33333300  0.53772200  1
  Cu  Cu1  1  0.33333300  0.66666700  0.03772200  1
  Cu  Cu2  1  0.66666700  0.33333300  0.96227800  1
  Cu  Cu3  1  0.66666700  0.33333300  0.25000000  1
  Cu  Cu4  1  0.33333300  0.66666700  0.75000000  1
  Cu  Cu5  1  0.33333300  0.66666700  0.46227800  1
  Se  Se0  1  0.00000000  0.00000000  0.41310400  1
  Se  Se1  1  0.00000000  0.00000000  0.91310400  1
  Se  Se2  1  0.00000000  0.00000000  0.08689600  1
  Se  Se3  1  0.33333300  0.66666700  0.25000000  1
  Se  Se4  1  0.66666700  0.33333300  0.75000000  1
  Se  Se5  1  0.00000000  0.00000000  0.58689600  1
loop_
_geom_bond_atom_site_label_1
_geom_bond_atom_site_label_2
_geom_bond_distance
_geom_bond_site_symmetry_2
Cu0 Se5 2.438199 1_655
Cu0 Se5 2.438202 1_665
Cu0 Se5 2.438202 1_555
Cu1 Se2 2.438199 1_565
Cu1 Se2 2.438202 1_555
Cu1 Se2 2.438202 1_665
Cu2 Se1 2.438199 1_655
Cu2 Se1 2.438202 1_555
Cu2 Se1 2.438202 1_665
Cu3 Se3 2.281261 1_545
Cu3 Se3 2.281261 1_655
Cu3 Se3 2.281268 1_555
Cu4 Se4 2.281261 1_455
Cu4 Se4 2.281261 1_565
Cu4 Se4 2.281268 1_555
Cu5 Se0 2.438199 1_565
Cu5 Se0 2.438202 1_665
Cu5 Se0 2.438202 1_555
