# generated using pymatgen
data_CsUNbO6
_symmetry_space_group_name_H-M   'P 1'
_cell_length_a   8.81426000
_cell_length_b   7.73677500
_cell_length_c   10.77440140
_cell_angle_alpha   75.96542934
_cell_angle_beta   90.00000000
_cell_angle_gamma   90.00000000
_symmetry_Int_Tables_number   1
_chemical_formula_structural   CsUNbO6
_chemical_formula_sum   'Cs4 U4 Nb4 O24'
_cell_volume   712.81638737
_cell_formula_units_Z   4
loop_
 _symmetry_equiv_pos_site_id
 _symmetry_equiv_pos_as_xyz
  1  'x, y, z'
loop_
 _atom_site_type_symbol
 _atom_site_label
 _atom_site_symmetry_multiplicity
 _atom_site_fract_x
 _atom_site_fract_y
 _atom_site_fract_z
 _atom_site_occupancy
  Cs  Cs0  1  0.77124300  0.46273900  0.85863600  1
  Cs  Cs1  1  0.27124300  0.53726100  0.64136400  1
  Cs  Cs2  1  0.22875700  0.53726100  0.14136400  1
  Cs  Cs3  1  0.72875700  0.46273900  0.35863600  1
  U  U0  1  0.01695100  0.98743900  0.32170500  1
  U  U1  1  0.51695100  0.01256100  0.17829500  1
  U  U2  1  0.98304900  0.01256100  0.67829500  1
  U  U3  1  0.48304900  0.98743900  0.82170500  1
  Nb  Nb0  1  0.84922200  0.88794500  0.05574800  1
  Nb  Nb1  1  0.34922200  0.11205500  0.44425200  1
  Nb  Nb2  1  0.15077800  0.11205500  0.94425200  1
  Nb  Nb3  1  0.65077800  0.88794500  0.55574800  1
  O  O0  1  0.97876100  0.22682900  0.26905900  1
  O  O1  1  0.47876100  0.77317100  0.23094100  1
  O  O2  1  0.02123900  0.77317100  0.73094100  1
  O  O3  1  0.52123900  0.22682900  0.76905900  1
  O  O4  1  0.94149500  0.25166700  0.62745600  1
  O  O5  1  0.44149500  0.74833300  0.87254400  1
  O  O6  1  0.05850500  0.74833300  0.37254400  1
  O  O7  1  0.55850500  0.25166700  0.12745600  1
  O  O8  1  0.94131700  0.03287200  0.88861100  1
  O  O9  1  0.44131700  0.96712800  0.61138900  1
  O  O10  1  0.05868300  0.96712800  0.11138900  1
  O  O11  1  0.55868300  0.03287200  0.38861100  1
  O  O12  1  0.85414800  0.96578200  0.49489900  1
  O  O13  1  0.35414800  0.03421800  0.00510100  1
  O  O14  1  0.14585200  0.03421800  0.50510100  1
  O  O15  1  0.64585200  0.96578200  0.99489900  1
  O  O16  1  0.86510600  0.65364300  0.07114700  1
  O  O17  1  0.36510600  0.34635700  0.42885300  1
  O  O18  1  0.13489400  0.34635700  0.92885300  1
  O  O19  1  0.63489400  0.65364300  0.57114700  1
  O  O20  1  0.78763300  0.92848200  0.22151100  1
  O  O21  1  0.28763300  0.07151800  0.27848900  1
  O  O22  1  0.21236700  0.07151800  0.77848900  1
  O  O23  1  0.71236700  0.92848200  0.72151100  1
loop_
_geom_bond_atom_site_label_1
_geom_bond_atom_site_label_2
_geom_bond_distance
_geom_bond_site_symmetry_2
Cs0 O16 3.122309 1_556
Cs0 O3 3.158008 1_555
Cs0 O2 3.303658 1_655
Cs0 O19 3.316857 1_555
Cs0 O18 3.365526 1_655
Cs0 O7 3.503969 1_556
Cs0 O23 3.585271 1_555
Cs0 O8 3.590462 1_555
Cs0 O4 3.618801 1_555
Cs0 O5 3.675993 1_555
Cs1 O17 3.122309 1_555
Cs1 O2 3.158008 1_555
Cs1 O3 3.303658 1_555
Cs1 O18 3.316857 1_555
Cs1 O19 3.365526 1_555
Cs1 O6 3.503969 1_555
Cs1 O22 3.585271 1_555
Cs1 O9 3.590462 1_555
Cs1 O5 3.618801 1_555
Cs1 O4 3.675993 1_455
Cs2 O18 3.122309 1_554
Cs2 O1 3.158008 1_555
Cs2 O0 3.303658 1_455
Cs2 O17 3.316857 1_555
Cs2 O16 3.365526 1_455
Cs2 O5 3.503969 1_554
Cs2 O21 3.585271 1_555
Cs2 O10 3.590462 1_555
Cs2 O6 3.618801 1_555
Cs2 O7 3.675993 1_555
Cs3 O19 3.122309 1_555
Cs3 O0 3.158008 1_555
Cs3 O1 3.303658 1_555
Cs3 O16 3.316857 1_555
Cs3 O17 3.365526 1_555
Cs3 O4 3.503969 1_555
Cs3 O20 3.585271 1_555
Cs3 O11 3.590462 1_555
Cs3 O7 3.618801 1_555
Cs3 O6 3.675993 1_655
Nb0 O16 1.785298 1_555
Nb0 O15 1.953010 1_554
Nb0 O20 1.963293 1_555
Nb0 O8 2.044439 1_564
Nb0 O10 2.078809 1_655
Nb1 O17 1.785298 1_555
Nb1 O14 1.953010 1_555
Nb1 O21 1.963293 1_555
Nb1 O9 2.044439 1_545
Nb1 O11 2.078809 1_555
Nb2 O18 1.785298 1_555
Nb2 O13 1.953010 1_556
Nb2 O22 1.963293 1_555
Nb2 O10 2.044439 1_546
Nb2 O8 2.078809 1_455
Nb3 O19 1.785298 1_555
Nb3 O12 1.953010 1_555
Nb3 O23 1.963293 1_555
Nb3 O11 2.044439 1_565
Nb3 O9 2.078809 1_555
O0 U0 1.831889 1_645
O1 U1 1.831889 1_565
O2 U2 1.831889 1_465
O3 U3 1.831889 1_545
O4 U2 1.834363 1_555
O5 U3 1.834363 1_555
O6 U0 1.834363 1_555
O7 U1 1.834363 1_555
O8 U2 2.338288 1_555
O9 U3 2.338288 1_555
O10 U0 2.338288 1_555
O11 U1 2.338288 1_555
O12 U0 2.327617 1_655
O12 U2 2.381852 1_565
O13 U1 2.327617 1_555
O13 U3 2.381852 1_544
O14 U2 2.327617 1_455
O14 U0 2.381852 1_545
O15 U3 2.327617 1_555
O15 U1 2.381852 1_566
O20 U0 2.387007 1_655
O20 U1 2.487044 1_565
O21 U1 2.387007 1_555
O21 U0 2.487044 1_545
O22 U2 2.387007 1_455
O22 U3 2.487044 1_545
O23 U3 2.387007 1_555
O23 U2 2.487044 1_565
