# generated using pymatgen
data_RbNbS2O9
_symmetry_space_group_name_H-M   'P 1'
_cell_length_a   5.25480300
_cell_length_b   9.08004200
_cell_length_c   17.67494400
_cell_angle_alpha   90.00000000
_cell_angle_beta   90.00000000
_cell_angle_gamma   90.00000000
_symmetry_Int_Tables_number   1
_chemical_formula_structural   RbNbS2O9
_chemical_formula_sum   'Rb4 Nb4 S8 O36'
_cell_volume   843.33930760
_cell_formula_units_Z   4
loop_
 _symmetry_equiv_pos_site_id
 _symmetry_equiv_pos_as_xyz
  1  'x, y, z'
loop_
 _atom_site_type_symbol
 _atom_site_label
 _atom_site_symmetry_multiplicity
 _atom_site_fract_x
 _atom_site_fract_y
 _atom_site_fract_z
 _atom_site_occupancy
  Rb  Rb0  1  0.75000000  0.67110800  0.06502000  1
  Rb  Rb1  1  0.25000000  0.17110800  0.43498000  1
  Rb  Rb2  1  0.75000000  0.82889200  0.56502000  1
  Rb  Rb3  1  0.25000000  0.32889200  0.93498000  1
  Nb  Nb0  1  0.75000000  0.57934400  0.30967500  1
  Nb  Nb1  1  0.25000000  0.07934400  0.19032500  1
  Nb  Nb2  1  0.75000000  0.92065600  0.80967500  1
  Nb  Nb3  1  0.25000000  0.42065600  0.69032500  1
  S  S0  1  0.75000000  0.97724300  0.30485700  1
  S  S1  1  0.75000000  0.36906700  0.56957600  1
  S  S2  1  0.25000000  0.63093300  0.43042400  1
  S  S3  1  0.25000000  0.02275700  0.69514300  1
  S  S4  1  0.25000000  0.86906700  0.93042400  1
  S  S5  1  0.75000000  0.13093300  0.06957600  1
  S  S6  1  0.75000000  0.52275700  0.80485700  1
  S  S7  1  0.25000000  0.47724300  0.19514300  1
  O  O0  1  0.75000000  0.52124000  0.54657100  1
  O  O1  1  0.25000000  0.75727200  0.98888800  1
  O  O2  1  0.75000000  0.10159900  0.84042000  1
  O  O3  1  0.75000000  0.97876000  0.04657100  1
  O  O4  1  0.01949500  0.93619800  0.72307100  1
  O  O5  1  0.25000000  0.16827300  0.73132900  1
  O  O6  1  0.02305500  0.66286600  0.37779900  1
  O  O7  1  0.75000000  0.66827300  0.76867100  1
  O  O8  1  0.01949500  0.56380200  0.22307100  1
  O  O9  1  0.51949500  0.43619800  0.77692900  1
  O  O10  1  0.97694500  0.33713400  0.62220100  1
  O  O11  1  0.75000000  0.25727200  0.51111200  1
  O  O12  1  0.25000000  0.74272800  0.48888800  1
  O  O13  1  0.75000000  0.97903600  0.38678900  1
  O  O14  1  0.52305500  0.16286600  0.12220100  1
  O  O15  1  0.48050500  0.93619800  0.72307100  1
  O  O16  1  0.25000000  0.33172700  0.23132900  1
  O  O17  1  0.47694500  0.66286600  0.37779900  1
  O  O18  1  0.75000000  0.83172700  0.26867100  1
  O  O19  1  0.47694500  0.83713400  0.87779900  1
  O  O20  1  0.98050500  0.06380200  0.27692900  1
  O  O21  1  0.52305500  0.33713400  0.62220100  1
  O  O22  1  0.25000000  0.02096400  0.61321100  1
  O  O23  1  0.75000000  0.24272800  0.01111200  1
  O  O24  1  0.75000000  0.39840100  0.34042000  1
  O  O25  1  0.02305500  0.83713400  0.87779900  1
  O  O26  1  0.25000000  0.47876000  0.45342900  1
  O  O27  1  0.97694500  0.16286600  0.12220100  1
  O  O28  1  0.75000000  0.52096400  0.88678900  1
  O  O29  1  0.25000000  0.47903600  0.11321100  1
  O  O30  1  0.48050500  0.56380200  0.22307100  1
  O  O31  1  0.25000000  0.60159900  0.65958000  1
  O  O32  1  0.51949500  0.06380200  0.27692900  1
  O  O33  1  0.25000000  0.02124000  0.95342900  1
  O  O34  1  0.25000000  0.89840100  0.15958000  1
  O  O35  1  0.98050500  0.43619800  0.77692900  1
loop_
_geom_bond_atom_site_label_1
_geom_bond_atom_site_label_2
_geom_bond_distance
_geom_bond_site_symmetry_2
Nb0 O24 1.730506 1_555
Nb0 O17 2.020833 1_555
Nb0 O6 2.020833 1_655
Nb0 O8 2.090092 1_655
Nb0 O30 2.090092 1_555
Nb0 O18 2.403519 1_555
Nb1 O34 1.730506 1_545
Nb1 O14 2.020833 1_555
Nb1 O27 2.020833 1_455
Nb1 O32 2.090092 1_555
Nb1 O20 2.090092 1_455
Nb1 O16 2.403519 1_555
Nb2 O2 1.730506 1_565
Nb2 O25 2.020833 1_655
Nb2 O19 2.020833 1_555
Nb2 O4 2.090092 1_655
Nb2 O15 2.090092 1_555
Nb2 O7 2.403519 1_555
Nb3 O31 1.730506 1_555
Nb3 O21 2.020833 1_555
Nb3 O10 2.020833 1_455
Nb3 O9 2.090092 1_555
Nb3 O35 2.090092 1_455
Nb3 O5 2.403519 1_555
O0 S1 1.440323 1_555
O0 Rb2 2.812461 1_555
O1 S4 1.448531 1_555
O1 Rb0 3.053860 1_456
O1 Rb0 3.053860 1_556
O3 S5 1.440323 1_565
O3 Rb0 2.812461 1_555
O4 S3 1.525957 1_565
O4 Rb2 3.280044 1_455
O5 S3 1.467951 1_555
O6 S2 1.539941 1_555
O7 S6 1.467951 1_555
O8 S7 1.525957 1_555
O8 Rb0 3.280044 1_455
O9 S6 1.525957 1_555
O9 Rb3 3.280044 1_555
O10 S1 1.539941 1_555
O11 S1 1.448531 1_555
O11 Rb1 3.053860 1_655
O11 Rb1 3.053860 1_555
O12 S2 1.448531 1_555
O12 Rb2 3.053860 1_455
O12 Rb2 3.053860 1_555
O13 S0 1.448235 1_555
O13 Rb1 3.266553 1_565
O13 Rb1 3.266553 1_665
O13 Rb2 3.432569 1_555
O14 S5 1.539941 1_555
O15 S3 1.525957 1_565
O15 Rb2 3.280044 1_555
O16 S7 1.467951 1_555
O17 S2 1.539941 1_555
O18 S0 1.467951 1_555
O19 S4 1.539941 1_555
O20 S0 1.525957 1_545
O20 Rb1 3.280044 1_655
O21 S1 1.539941 1_555
O22 S3 1.448235 1_555
O22 Rb2 3.266553 1_545
O22 Rb2 3.266553 1_445
O22 Rb1 3.432569 1_555
O23 S5 1.448531 1_555
O23 Rb3 3.053860 1_554
O23 Rb3 3.053860 1_654
O25 S4 1.539941 1_555
O26 S2 1.440323 1_555
O26 Rb1 2.812461 1_555
O27 S5 1.539941 1_555
O28 S6 1.448235 1_555
O28 Rb3 3.266553 1_555
O28 Rb3 3.266553 1_655
O28 Rb0 3.432569 1_556
O29 S7 1.448235 1_555
O29 Rb0 3.266553 1_555
O29 Rb0 3.266553 1_455
O29 Rb3 3.432569 1_554
O30 S7 1.525957 1_555
O30 Rb0 3.280044 1_555
O32 S0 1.525957 1_545
O32 Rb1 3.280044 1_555
O33 S4 1.440323 1_545
O33 Rb3 2.812461 1_555
O35 S6 1.525957 1_555
O35 Rb3 3.280044 1_655
