# generated using pymatgen
data_Ba6Er2Ga4O15
_symmetry_space_group_name_H-M   'P 1'
_cell_length_a   6.02479800
_cell_length_b   8.03237100
_cell_length_c   18.63054840
_cell_angle_alpha   88.68543270
_cell_angle_beta   90.00000000
_cell_angle_gamma   90.00000000
_symmetry_Int_Tables_number   1
_chemical_formula_structural   Ba6Er2Ga4O15
_chemical_formula_sum   'Ba12 Er4 Ga8 O30'
_cell_volume   901.35852596
_cell_formula_units_Z   2
loop_
 _symmetry_equiv_pos_site_id
 _symmetry_equiv_pos_as_xyz
  1  'x, y, z'
loop_
 _atom_site_type_symbol
 _atom_site_label
 _atom_site_symmetry_multiplicity
 _atom_site_fract_x
 _atom_site_fract_y
 _atom_site_fract_z
 _atom_site_occupancy
  Ba  Ba0  1  0.74805900  0.97343800  0.08954000  1
  Ba  Ba1  1  0.75501000  0.50111600  0.42136600  1
  Ba  Ba2  1  0.24499000  0.49888400  0.57863400  1
  Ba  Ba3  1  0.25194100  0.02656200  0.91046000  1
  Ba  Ba4  1  0.32949400  0.50000000  0.25000000  1
  Ba  Ba5  1  0.75501000  0.49888400  0.07863400  1
  Ba  Ba6  1  0.72449100  0.00000000  0.75000000  1
  Ba  Ba7  1  0.27550900  0.00000000  0.25000000  1
  Ba  Ba8  1  0.24499000  0.50111600  0.92136600  1
  Ba  Ba9  1  0.67050600  0.50000000  0.75000000  1
  Ba  Ba10  1  0.25194100  0.97343800  0.58954000  1
  Ba  Ba11  1  0.74805900  0.02656200  0.41046000  1
  Er  Er0  1  0.74658400  0.75250200  0.91033300  1
  Er  Er1  1  0.74658400  0.24749800  0.58966700  1
  Er  Er2  1  0.25341600  0.24749800  0.08966700  1
  Er  Er3  1  0.25341600  0.75250200  0.41033300  1
  Ga  Ga0  1  0.25193600  0.24592700  0.44211100  1
  Ga  Ga1  1  0.77341000  0.22998100  0.23301700  1
  Ga  Ga2  1  0.77341000  0.77001900  0.26698300  1
  Ga  Ga3  1  0.25193600  0.75407300  0.05788900  1
  Ga  Ga4  1  0.74806400  0.24592700  0.94211100  1
  Ga  Ga5  1  0.22659000  0.77001900  0.76698300  1
  Ga  Ga6  1  0.22659000  0.22998100  0.73301700  1
  Ga  Ga7  1  0.74806400  0.75407300  0.55788900  1
  O  O0  1  0.24504800  0.46867800  0.40938800  1
  O  O1  1  0.50907700  0.23421200  0.49960900  1
  O  O2  1  0.95715300  0.72529400  0.81130900  1
  O  O3  1  0.00895100  0.76545100  0.99270800  1
  O  O4  1  0.79933700  0.00000000  0.25000000  1
  O  O5  1  0.32856400  0.31246200  0.81708400  1
  O  O6  1  0.04284700  0.72529400  0.31130900  1
  O  O7  1  0.54614500  0.24874600  0.16332100  1
  O  O8  1  0.54614500  0.75125400  0.33667900  1
  O  O9  1  0.32856400  0.68753800  0.68291600  1
  O  O10  1  0.49092300  0.23421200  0.99960900  1
  O  O11  1  0.23734900  0.04559200  0.39236600  1
  O  O12  1  0.95715300  0.27470600  0.68869100  1
  O  O13  1  0.45385500  0.24874600  0.66332100  1
  O  O14  1  0.67143600  0.31246200  0.31708400  1
  O  O15  1  0.20066300  0.00000000  0.75000000  1
  O  O16  1  0.76265100  0.95440800  0.60763400  1
  O  O17  1  0.75495200  0.53132200  0.59061200  1
  O  O18  1  0.99104900  0.23454900  0.00729200  1
  O  O19  1  0.75495200  0.46867800  0.90938800  1
  O  O20  1  0.23734900  0.95440800  0.10763400  1
  O  O21  1  0.76265100  0.04559200  0.89236600  1
  O  O22  1  0.50907700  0.76578800  0.00039100  1
  O  O23  1  0.45385500  0.75125400  0.83667900  1
  O  O24  1  0.00895100  0.23454900  0.50729200  1
  O  O25  1  0.67143600  0.68753800  0.18291600  1
  O  O26  1  0.04284700  0.27470600  0.18869100  1
  O  O27  1  0.99104900  0.76545100  0.49270800  1
  O  O28  1  0.24504800  0.53132200  0.09061200  1
  O  O29  1  0.49092300  0.76578800  0.50039100  1
loop_
_geom_bond_atom_site_label_1
_geom_bond_atom_site_label_2
_geom_bond_distance
_geom_bond_site_symmetry_2
Ba0 O22 2.782215 1_555
Ba0 O25 2.886153 1_555
Ba0 O7 2.898099 1_565
Ba0 O3 2.941844 1_654
Ba0 O18 2.956788 1_565
Ba0 O20 2.970622 1_655
Ba0 O4 3.017795 1_565
Ba0 O10 3.071423 1_564
Ba0 O20 3.098726 1_555
Ba1 O14 2.541546 1_555
Ba1 O8 2.822105 1_555
Ba1 O27 2.902855 1_555
Ba1 O1 2.961949 1_555
Ba1 O0 2.972693 1_655
Ba1 O24 3.054629 1_655
Ba1 O29 3.059798 1_555
Ba1 O0 3.091942 1_555
Ba1 O17 3.168012 1_555
Ba1 O6 3.206959 1_655
Ba2 O9 2.541546 1_555
Ba2 O13 2.822105 1_555
Ba2 O24 2.902855 1_555
Ba2 O29 2.961949 1_555
Ba2 O17 2.972693 1_455
Ba2 O27 3.054629 1_455
Ba2 O1 3.059798 1_555
Ba2 O17 3.091942 1_555
Ba2 O0 3.168012 1_555
Ba2 O12 3.206959 1_455
Ba3 O10 2.782215 1_555
Ba3 O5 2.886153 1_555
Ba3 O23 2.898099 1_545
Ba3 O18 2.941844 1_456
Ba3 O3 2.956788 1_545
Ba3 O21 2.970622 1_455
Ba3 O15 3.017795 1_555
Ba3 O22 3.071423 1_546
Ba3 O21 3.098726 1_555
Ba4 O6 2.767096 1_555
Ba4 O26 2.767096 1_555
Ba4 O25 2.826474 1_555
Ba4 O14 2.826474 1_555
Ba4 O7 2.921320 1_555
Ba4 O8 2.921320 1_555
Ba4 O0 3.017567 1_555
Ba4 O28 3.017567 1_555
Ba5 O25 2.541546 1_555
Ba5 O7 2.822105 1_555
Ba5 O18 2.902855 1_555
Ba5 O22 2.961949 1_555
Ba5 O28 2.972693 1_655
Ba5 O3 3.054629 1_654
Ba5 O10 3.059798 1_554
Ba5 O28 3.091942 1_555
Ba5 O19 3.168012 1_554
Ba5 O26 3.206959 1_655
Ba6 O21 2.695650 1_555
Ba6 O16 2.695650 1_545
Ba6 O2 2.832442 1_545
Ba6 O12 2.832442 1_555
Ba6 O15 2.868840 1_655
Ba6 O23 3.018359 1_545
Ba6 O13 3.018359 1_555
Ba6 O15 3.155958 1_555
Ba7 O11 2.695650 1_555
Ba7 O20 2.695650 1_545
Ba7 O26 2.832442 1_555
Ba7 O6 2.832442 1_545
Ba7 O4 2.868840 1_455
Ba7 O7 3.018359 1_555
Ba7 O8 3.018359 1_545
Ba7 O4 3.155958 1_555
Ba8 O5 2.541546 1_555
Ba8 O23 2.822105 1_555
Ba8 O3 2.902855 1_555
Ba8 O10 2.961949 1_555
Ba8 O19 2.972693 1_455
Ba8 O18 3.054629 1_456
Ba8 O22 3.059798 1_556
Ba8 O19 3.091942 1_555
Ba8 O28 3.168012 1_556
Ba8 O2 3.206959 1_455
Ba9 O2 2.767096 1_555
Ba9 O12 2.767096 1_555
Ba9 O5 2.826474 1_555
Ba9 O9 2.826474 1_555
Ba9 O23 2.921320 1_555
Ba9 O13 2.921320 1_555
Ba9 O17 3.017567 1_555
Ba9 O19 3.017567 1_555
Ba10 O29 2.782215 1_555
Ba10 O9 2.886153 1_555
Ba10 O13 2.898099 1_565
Ba10 O27 2.941844 1_455
Ba10 O24 2.956788 1_565
Ba10 O16 2.970622 1_455
Ba10 O15 3.017795 1_565
Ba10 O1 3.071423 1_565
Ba10 O16 3.098726 1_555
Ba11 O1 2.782215 1_555
Ba11 O14 2.886153 1_555
Ba11 O8 2.898099 1_545
Ba11 O24 2.941844 1_655
Ba11 O27 2.956788 1_545
Ba11 O11 2.970622 1_655
Ba11 O4 3.017795 1_555
Ba11 O29 3.071423 1_545
Ba11 O11 3.098726 1_555
Er0 O3 2.207274 1_655
Er0 O22 2.209589 1_556
Er0 O23 2.234750 1_555
Er0 O2 2.253719 1_555
Er0 O19 2.280809 1_555
Er0 O21 2.372247 1_565
Er1 O24 2.207274 1_655
Er1 O1 2.209589 1_555
Er1 O13 2.234750 1_555
Er1 O12 2.253719 1_555
Er1 O17 2.280809 1_555
Er1 O16 2.372247 1_545
Er2 O18 2.207274 1_455
Er2 O10 2.209589 1_554
Er2 O7 2.234750 1_555
Er2 O26 2.253719 1_555
Er2 O28 2.280809 1_555
Er2 O20 2.372247 1_545
Er3 O27 2.207274 1_455
Er3 O29 2.209589 1_555
Er3 O8 2.234750 1_555
Er3 O6 2.253719 1_555
Er3 O0 2.280809 1_555
Er3 O11 2.372247 1_565
Ga0 O11 1.877359 1_555
Ga0 O0 1.877404 1_555
Ga0 O1 1.884630 1_555
Ga0 O24 1.902901 1_555
Ga1 O14 1.821269 1_555
Ga1 O26 1.852710 1_655
Ga1 O4 1.873548 1_555
Ga1 O7 1.890649 1_555
Ga2 O25 1.821269 1_555
Ga2 O6 1.852710 1_655
Ga2 O4 1.873548 1_565
Ga2 O8 1.890649 1_555
Ga3 O20 1.877359 1_555
Ga3 O28 1.877404 1_555
Ga3 O22 1.884630 1_555
Ga3 O3 1.902901 1_554
Ga4 O21 1.877359 1_555
Ga4 O19 1.877404 1_555
Ga4 O10 1.884630 1_555
Ga4 O18 1.902901 1_556
Ga5 O9 1.821269 1_555
Ga5 O2 1.852710 1_455
Ga5 O15 1.873548 1_565
Ga5 O23 1.890649 1_555
Ga6 O5 1.821269 1_555
Ga6 O12 1.852710 1_455
Ga6 O15 1.873548 1_555
Ga6 O13 1.890649 1_555
Ga7 O16 1.877359 1_555
Ga7 O17 1.877404 1_555
Ga7 O29 1.884630 1_555
Ga7 O27 1.902901 1_555
