# generated using pymatgen
data_MgP4(Cl5O3)2
_symmetry_space_group_name_H-M   'P 1'
_cell_length_a   10.13549400
_cell_length_b   11.29099981
_cell_length_c   11.59686984
_cell_angle_alpha   108.27888094
_cell_angle_beta   96.35021824
_cell_angle_gamma   116.00873144
_symmetry_Int_Tables_number   1
_chemical_formula_structural   MgP4(Cl5O3)2
_chemical_formula_sum   'Mg2 P8 Cl20 O12'
_cell_volume   1083.62055112
_cell_formula_units_Z   2
loop_
 _symmetry_equiv_pos_site_id
 _symmetry_equiv_pos_as_xyz
  1  'x, y, z'
loop_
 _atom_site_type_symbol
 _atom_site_label
 _atom_site_symmetry_multiplicity
 _atom_site_fract_x
 _atom_site_fract_y
 _atom_site_fract_z
 _atom_site_occupancy
  Mg  Mg0  1  0.76096500  0.99328600  0.05850100  1
  Mg  Mg1  1  0.23903500  0.00671400  0.94149900  1
  P  P0  1  0.98402200  0.84362600  0.08277900  1
  P  P1  1  0.01597800  0.15637400  0.91722100  1
  P  P2  1  0.39871700  0.78456400  0.85018600  1
  P  P3  1  0.44045600  0.17325700  0.75192700  1
  P  P4  1  0.91017300  0.71717800  0.67199200  1
  P  P5  1  0.60128300  0.21543600  0.14981400  1
  P  P6  1  0.08982700  0.28282200  0.32800800  1
  P  P7  1  0.55954400  0.82674300  0.24807300  1
  Cl  Cl0  1  0.37711400  0.10885000  0.56300300  1
  Cl  Cl1  1  0.52969400  0.62831900  0.17859400  1
  Cl  Cl2  1  0.69823300  0.67825200  0.67008800  1
  Cl  Cl3  1  0.65028000  0.19956700  0.79403100  1
  Cl  Cl4  1  0.34972000  0.80043300  0.20596900  1
  Cl  Cl5  1  0.92538700  0.63214300  0.99817200  1
  Cl  Cl6  1  0.06463100  0.25964700  0.48977500  1
  Cl  Cl7  1  0.09606500  0.46864900  0.35277200  1
  Cl  Cl8  1  0.39601300  0.76445100  0.66700200  1
  Cl  Cl9  1  0.30176700  0.32174800  0.32991200  1
  Cl  Cl10  1  0.73073700  0.42639100  0.17778100  1
  Cl  Cl11  1  0.97573200  0.12436400  0.72849400  1
  Cl  Cl12  1  0.26926300  0.57360900  0.82221900  1
  Cl  Cl13  1  0.62288600  0.89115000  0.43699700  1
  Cl  Cl14  1  0.60398700  0.23554900  0.33299800  1
  Cl  Cl15  1  0.47030600  0.37168100  0.82140600  1
  Cl  Cl16  1  0.93536900  0.74035300  0.51022500  1
  Cl  Cl17  1  0.90393500  0.53135100  0.64722800  1
  Cl  Cl18  1  0.07461300  0.36785700  0.00182800  1
  Cl  Cl19  1  0.02426800  0.87563600  0.27150600  1
  O  O0  1  0.02863300  0.84112800  0.78613100  1
  O  O1  1  0.13469700  0.93398400  0.06652100  1
  O  O2  1  0.32987000  0.07211700  0.79501200  1
  O  O3  1  0.67013000  0.92788300  0.20498800  1
  O  O4  1  0.86530300  0.06601600  0.93347900  1
  O  O5  1  0.97136700  0.15887200  0.21386900  1
  O  O6  1  0.68677200  0.14019700  0.10447300  1
  O  O7  1  0.15433300  0.14549300  0.95530800  1
  O  O8  1  0.84566700  0.85450700  0.04469200  1
  O  O9  1  0.44163000  0.16373400  0.07777800  1
  O  O10  1  0.55837000  0.83626600  0.92222200  1
  O  O11  1  0.31322800  0.85980300  0.89552700  1
loop_
_geom_bond_atom_site_label_1
_geom_bond_atom_site_label_2
_geom_bond_distance
_geom_bond_site_symmetry_2
Mg0 O10 2.046731 1_554
Mg0 O4 2.054073 1_564
Mg0 O6 2.056488 1_565
Mg0 O8 2.066590 1_555
Mg0 O3 2.194419 1_555
Mg0 O5 2.197688 1_565
Mg1 O9 2.046731 1_556
Mg1 O1 2.054073 1_546
Mg1 O11 2.056488 1_545
Mg1 O7 2.066590 1_555
Mg1 O2 2.194419 1_555
Mg1 O0 2.197688 1_545
Cl0 P3 2.005274 1_555
Cl1 P7 1.994847 1_555
Cl2 P4 1.990847 1_555
Cl3 P3 1.993647 1_555
Cl4 P7 1.993647 1_555
Cl5 P0 2.043164 1_556
Cl6 P6 2.002081 1_555
Cl7 P6 1.997614 1_555
Cl8 P2 2.060163 1_555
Cl9 P6 1.990847 1_555
Cl10 P5 2.044640 1_555
Cl11 P1 2.064990 1_655
Cl12 P2 2.044640 1_555
Cl13 P7 2.005274 1_555
Cl14 P5 2.060163 1_555
Cl15 P3 1.994847 1_555
Cl16 P4 2.002081 1_555
Cl17 P4 1.997614 1_555
Cl18 P1 2.043164 1_554
Cl19 P0 2.064990 1_455
O0 P4 1.471396 1_455
O1 P0 1.492168 1_455
O2 P3 1.472851 1_555
O3 P7 1.472851 1_555
O4 P1 1.492168 1_655
O5 P6 1.471396 1_655
O6 P5 1.488318 1_555
O7 P1 1.491556 1_555
O8 P0 1.491556 1_555
O9 P5 1.491212 1_555
O10 P2 1.491212 1_555
O11 P2 1.488318 1_555
