# generated using pymatgen
data_Ba4Fe2S4I5
_symmetry_space_group_name_H-M   'P 1'
_cell_length_a   10.23098430
_cell_length_b   10.23098430
_cell_length_c   10.23098430
_cell_angle_alpha   93.66257539
_cell_angle_beta   93.66257539
_cell_angle_gamma   150.71988369
_symmetry_Int_Tables_number   1
_chemical_formula_structural   Ba4Fe2S4I5
_chemical_formula_sum   'Ba4 Fe2 S4 I5'
_cell_volume   506.75450464
_cell_formula_units_Z   1
loop_
 _symmetry_equiv_pos_site_id
 _symmetry_equiv_pos_as_xyz
  1  'x, y, z'
loop_
 _atom_site_type_symbol
 _atom_site_label
 _atom_site_symmetry_multiplicity
 _atom_site_fract_x
 _atom_site_fract_y
 _atom_site_fract_z
 _atom_site_occupancy
  Ba  Ba0  1  0.93937900  0.25039100  0.18977000  1
  Ba  Ba1  1  0.74960900  0.93937900  0.68898700  1
  Ba  Ba2  1  0.25039100  0.06062100  0.31101300  1
  Ba  Ba3  1  0.06062100  0.74960900  0.81023000  1
  Fe  Fe0  1  0.25000000  0.75000000  0.50000000  1
  Fe  Fe1  1  0.75000000  0.25000000  0.50000000  1
  S  S0  1  0.10035800  0.41453700  0.51489500  1
  S  S1  1  0.58546300  0.10035800  0.68582100  1
  S  S2  1  0.89964200  0.58546300  0.48510500  1
  S  S3  1  0.41453700  0.89964200  0.31417900  1
  I  I0  1  0.70330300  0.36931000  0.07261300  1
  I  I1  1  0.63069000  0.70330300  0.33399300  1
  I  I2  1  0.29669700  0.63069000  0.92738700  1
  I  I3  1  0.00000000  0.00000000  0.00000000  1
  I  I4  1  0.36931000  0.29669700  0.66600700  1
loop_
_geom_bond_atom_site_label_1
_geom_bond_atom_site_label_2
_geom_bond_distance
_geom_bond_site_symmetry_2
Ba0 S0 3.218504 1_655
Ba0 S3 3.342599 1_655
Ba0 S3 3.342599 1_545
Ba0 I3 3.606499 1_655
Ba0 I2 3.672081 1_544
Ba0 I2 3.672081 1_654
Ba0 I0 3.700451 1_555
Ba0 I1 3.780698 1_545
Ba0 I1 3.780698 1_655
Ba1 S1 3.218504 1_565
Ba1 S0 3.342592 1_665
Ba1 S0 3.342596 1_555
Ba1 I3 3.606507 1_666
Ba1 I4 3.672078 1_665
Ba1 I4 3.672082 1_555
Ba1 I1 3.700442 1_555
Ba1 I2 3.780703 1_665
Ba1 I2 3.780706 1_555
Ba2 S3 3.218504 1_545
Ba2 S2 3.342592 1_445
Ba2 S2 3.342596 1_555
Ba2 I3 3.606507 1_555
Ba2 I1 3.672078 1_445
Ba2 I1 3.672082 1_555
Ba2 I4 3.700442 1_555
Ba2 I0 3.780703 1_445
Ba2 I0 3.780706 1_555
Ba3 S2 3.218504 1_455
Ba3 S1 3.342599 1_565
Ba3 S1 3.342599 1_455
Ba3 I3 3.606499 1_566
Ba3 I0 3.672081 1_456
Ba3 I0 3.672081 1_566
Ba3 I2 3.700451 1_555
Ba3 I4 3.780698 1_455
Ba3 I4 3.780698 1_565
Fe0 S0 2.253175 1_555
Fe0 S1 2.253175 1_565
Fe0 S3 2.253175 1_555
Fe0 S2 2.253175 1_455
Fe1 S0 2.253175 1_655
Fe1 S1 2.253175 1_555
Fe1 S3 2.253175 1_545
Fe1 S2 2.253175 1_555
