# generated using pymatgen
data_Ti4AlN3
_symmetry_space_group_name_H-M   'P 1'
_cell_length_a   5.96929322
_cell_length_b   5.96929392
_cell_length_c   46.83284172
_cell_angle_alpha   90.00000000
_cell_angle_beta   90.00000000
_cell_angle_gamma   119.99998494
_symmetry_Int_Tables_number   1
_chemical_formula_structural   Ti4AlN3
_chemical_formula_sum   'Ti64 Al16 N48'
_cell_volume   1445.19710917
_cell_formula_units_Z   16
loop_
 _symmetry_equiv_pos_site_id
 _symmetry_equiv_pos_as_xyz
  1  'x, y, z'
loop_
 _atom_site_type_symbol
 _atom_site_label
 _atom_site_symmetry_multiplicity
 _atom_site_fract_x
 _atom_site_fract_y
 _atom_site_fract_z
 _atom_site_occupancy
  Ti  Ti0_0  1  0.16666650  0.33333350  0.22302223  1
  Ti  Ti0_1  1  0.16666650  0.33333350  0.72302223  1
  Ti  Ti0_2  1  0.16666650  0.83333350  0.22302223  1
  Ti  Ti0_3  1  0.16666650  0.83333350  0.72302223  1
  Ti  Ti0_4  1  0.66666650  0.33333350  0.22302223  1
  Ti  Ti0_5  1  0.66666650  0.33333350  0.72302223  1
  Ti  Ti0_6  1  0.66666650  0.83333350  0.22302223  1
  Ti  Ti0_7  1  0.66666650  0.83333350  0.72302223  1
  Ti  Ti1_0  1  0.33333350  0.16666650  0.27697777  1
  Ti  Ti1_1  1  0.33333350  0.16666650  0.77697777  1
  Ti  Ti1_2  1  0.33333350  0.66666650  0.27697777  1
  Ti  Ti1_3  1  0.33333350  0.66666650  0.77697777  1
  Ti  Ti1_4  1  0.83333350  0.16666650  0.27697777  1
  Ti  Ti1_5  1  0.83333350  0.16666650  0.77697777  1
  Ti  Ti1_6  1  0.83333350  0.66666650  0.27697777  1
  Ti  Ti1_7  1  0.83333350  0.66666650  0.77697777  1
  Ti  Ti2_0  1  0.00000000  0.00000000  0.32737619  1
  Ti  Ti2_1  1  0.00000000  0.00000000  0.82737619  1
  Ti  Ti2_2  1  0.00000000  0.50000000  0.32737619  1
  Ti  Ti2_3  1  0.00000000  0.50000000  0.82737619  1
  Ti  Ti2_4  1  0.50000000  0.00000000  0.32737619  1
  Ti  Ti2_5  1  0.50000000  0.00000000  0.82737619  1
  Ti  Ti2_6  1  0.50000000  0.50000000  0.32737619  1
  Ti  Ti2_7  1  0.50000000  0.50000000  0.82737619  1
  Ti  Ti3_0  1  0.00000000  0.00000000  0.07737619  1
  Ti  Ti3_1  1  0.00000000  0.00000000  0.57737619  1
  Ti  Ti3_2  1  0.00000000  0.50000000  0.07737619  1
  Ti  Ti3_3  1  0.00000000  0.50000000  0.57737619  1
  Ti  Ti3_4  1  0.50000000  0.00000000  0.07737619  1
  Ti  Ti3_5  1  0.50000000  0.00000000  0.57737619  1
  Ti  Ti3_6  1  0.50000000  0.50000000  0.07737619  1
  Ti  Ti3_7  1  0.50000000  0.50000000  0.57737619  1
  Ti  Ti4_0  1  0.00000000  0.00000000  0.42262381  1
  Ti  Ti4_1  1  0.00000000  0.00000000  0.92262381  1
  Ti  Ti4_2  1  0.00000000  0.50000000  0.42262381  1
  Ti  Ti4_3  1  0.00000000  0.50000000  0.92262381  1
  Ti  Ti4_4  1  0.50000000  0.00000000  0.42262381  1
  Ti  Ti4_5  1  0.50000000  0.00000000  0.92262381  1
  Ti  Ti4_6  1  0.50000000  0.50000000  0.42262381  1
  Ti  Ti4_7  1  0.50000000  0.50000000  0.92262381  1
  Ti  Ti5_0  1  0.33333350  0.16666650  0.47302222  1
  Ti  Ti5_1  1  0.33333350  0.16666650  0.97302223  1
  Ti  Ti5_2  1  0.33333350  0.66666650  0.47302222  1
  Ti  Ti5_3  1  0.33333350  0.66666650  0.97302223  1
  Ti  Ti5_4  1  0.83333350  0.16666650  0.47302222  1
  Ti  Ti5_5  1  0.83333350  0.16666650  0.97302223  1
  Ti  Ti5_6  1  0.83333350  0.66666650  0.47302222  1
  Ti  Ti5_7  1  0.83333350  0.66666650  0.97302223  1
  Ti  Ti6_0  1  0.00000000  0.00000000  0.17262381  1
  Ti  Ti6_1  1  0.00000000  0.00000000  0.67262381  1
  Ti  Ti6_2  1  0.00000000  0.50000000  0.17262381  1
  Ti  Ti6_3  1  0.00000000  0.50000000  0.67262381  1
  Ti  Ti6_4  1  0.50000000  0.00000000  0.17262381  1
  Ti  Ti6_5  1  0.50000000  0.00000000  0.67262381  1
  Ti  Ti6_6  1  0.50000000  0.50000000  0.17262381  1
  Ti  Ti6_7  1  0.50000000  0.50000000  0.67262381  1
  Ti  Ti7_0  1  0.16666650  0.33333350  0.02697777  1
  Ti  Ti7_1  1  0.16666650  0.33333350  0.52697777  1
  Ti  Ti7_2  1  0.16666650  0.83333350  0.02697777  1
  Ti  Ti7_3  1  0.16666650  0.83333350  0.52697777  1
  Ti  Ti7_4  1  0.66666650  0.33333350  0.02697777  1
  Ti  Ti7_5  1  0.66666650  0.33333350  0.52697777  1
  Ti  Ti7_6  1  0.66666650  0.83333350  0.02697777  1
  Ti  Ti7_7  1  0.66666650  0.83333350  0.52697777  1
  Al  Al0_0  1  0.33333350  0.16666650  0.37500000  1
  Al  Al0_1  1  0.33333350  0.16666650  0.87500000  1
  Al  Al0_2  1  0.33333350  0.66666650  0.37500000  1
  Al  Al0_3  1  0.33333350  0.66666650  0.87500000  1
  Al  Al0_4  1  0.83333350  0.16666650  0.37500000  1
  Al  Al0_5  1  0.83333350  0.16666650  0.87500000  1
  Al  Al0_6  1  0.83333350  0.66666650  0.37500000  1
  Al  Al0_7  1  0.83333350  0.66666650  0.87500000  1
  Al  Al1_0  1  0.16666650  0.33333350  0.12500000  1
  Al  Al1_1  1  0.16666650  0.33333350  0.62500000  1
  Al  Al1_2  1  0.16666650  0.83333350  0.12500000  1
  Al  Al1_3  1  0.16666650  0.83333350  0.62500000  1
  Al  Al1_4  1  0.66666650  0.33333350  0.12500000  1
  Al  Al1_5  1  0.66666650  0.33333350  0.62500000  1
  Al  Al1_6  1  0.66666650  0.83333350  0.12500000  1
  Al  Al1_7  1  0.66666650  0.83333350  0.62500000  1
  N  N0_0  1  0.33333350  0.16666650  0.05273796  1
  N  N0_1  1  0.33333350  0.16666650  0.55273796  1
  N  N0_2  1  0.33333350  0.66666650  0.05273796  1
  N  N0_3  1  0.33333350  0.66666650  0.55273796  1
  N  N0_4  1  0.83333350  0.16666650  0.05273796  1
  N  N0_5  1  0.83333350  0.16666650  0.55273796  1
  N  N0_6  1  0.83333350  0.66666650  0.05273796  1
  N  N0_7  1  0.83333350  0.66666650  0.55273796  1
  N  N1_0  1  0.16666650  0.33333350  0.30273796  1
  N  N1_1  1  0.16666650  0.33333350  0.80273796  1
  N  N1_2  1  0.16666650  0.83333350  0.30273796  1
  N  N1_3  1  0.16666650  0.83333350  0.80273796  1
  N  N1_4  1  0.66666650  0.33333350  0.30273796  1
  N  N1_5  1  0.66666650  0.33333350  0.80273796  1
  N  N1_6  1  0.66666650  0.83333350  0.30273796  1
  N  N1_7  1  0.66666650  0.83333350  0.80273796  1
  N  N2_0  1  0.00000000  0.00000000  0.25000000  1
  N  N2_1  1  0.00000000  0.00000000  0.75000000  1
  N  N2_2  1  0.00000000  0.50000000  0.25000000  1
  N  N2_3  1  0.00000000  0.50000000  0.75000000  1
  N  N2_4  1  0.50000000  0.00000000  0.25000000  1
  N  N2_5  1  0.50000000  0.00000000  0.75000000  1
  N  N2_6  1  0.50000000  0.50000000  0.25000000  1
  N  N2_7  1  0.50000000  0.50000000  0.75000000  1
  N  N3_0  1  0.33333350  0.16666650  0.19726204  1
  N  N3_1  1  0.33333350  0.16666650  0.69726204  1
  N  N3_2  1  0.33333350  0.66666650  0.19726204  1
  N  N3_3  1  0.33333350  0.66666650  0.69726204  1
  N  N3_4  1  0.83333350  0.16666650  0.19726204  1
  N  N3_5  1  0.83333350  0.16666650  0.69726204  1
  N  N3_6  1  0.83333350  0.66666650  0.19726204  1
  N  N3_7  1  0.83333350  0.66666650  0.69726204  1
  N  N4_0  1  0.16666650  0.33333350  0.44726204  1
  N  N4_1  1  0.16666650  0.33333350  0.94726205  1
  N  N4_2  1  0.16666650  0.83333350  0.44726204  1
  N  N4_3  1  0.16666650  0.83333350  0.94726205  1
  N  N4_4  1  0.66666650  0.33333350  0.44726204  1
  N  N4_5  1  0.66666650  0.33333350  0.94726205  1
  N  N4_6  1  0.66666650  0.83333350  0.44726204  1
  N  N4_7  1  0.66666650  0.83333350  0.94726205  1
  N  N5_0  1  0.00000000  0.00000000  0.00000000  1
  N  N5_1  1  0.00000000  0.00000000  0.50000000  1
  N  N5_2  1  0.00000000  0.50000000  0.00000000  1
  N  N5_3  1  0.00000000  0.50000000  0.50000000  1
  N  N5_4  1  0.50000000  0.00000000  0.00000000  1
  N  N5_5  1  0.50000000  0.00000000  0.50000000  1
  N  N5_6  1  0.50000000  0.50000000  0.00000000  1
  N  N5_7  1  0.50000000  0.50000000  0.50000000  1
loop_
_geom_bond_atom_site_label_1
_geom_bond_atom_site_label_2
_geom_bond_distance
_geom_bond_site_symmetry_2
Al0_0 Ti2_4 2.818486 1_555
Al0_0 Ti4_4 2.818486 1_555
Al0_0 Ti4_0 2.818488 1_555
Al0_0 Ti2_0 2.818488 1_555
Al0_0 Ti2_6 2.818488 1_555
Al0_0 Ti4_6 2.818488 1_555
Al0_0 Al0_4 2.984647 1_455
Al0_0 Al0_4 2.984647 1_555
Al0_0 Al0_2 2.984647 1_545
Al0_0 Al0_2 2.984647 1_555
Al0_0 Al0_6 2.984647 1_445
Al0_0 Al0_6 2.984647 1_555
Al0_1 Ti4_5 2.818486 1_555
Al0_1 Ti2_5 2.818486 1_555
Al0_1 Ti2_1 2.818488 1_555
Al0_1 Ti4_1 2.818488 1_555
Al0_1 Ti4_7 2.818488 1_555
Al0_1 Ti2_7 2.818488 1_555
Al0_1 Al0_5 2.984647 1_455
Al0_1 Al0_5 2.984647 1_555
Al0_1 Al0_3 2.984647 1_545
Al0_1 Al0_3 2.984647 1_555
Al0_1 Al0_7 2.984647 1_555
Al0_1 Al0_7 2.984647 1_445
Al0_2 Ti4_6 2.818486 1_555
Al0_2 Ti2_6 2.818486 1_555
Al0_2 Ti2_2 2.818488 1_555
Al0_2 Ti4_2 2.818488 1_555
Al0_2 Ti4_4 2.818488 1_565
Al0_2 Ti2_4 2.818488 1_565
Al0_2 Al0_6 2.984647 1_555
Al0_2 Al0_6 2.984647 1_455
Al0_2 Al0_4 2.984647 1_565
Al0_2 Al0_4 2.984647 1_455
Al0_3 Ti2_7 2.818486 1_555
Al0_3 Ti4_7 2.818486 1_555
Al0_3 Ti4_3 2.818488 1_555
Al0_3 Ti2_3 2.818488 1_555
Al0_3 Ti2_5 2.818488 1_565
Al0_3 Ti4_5 2.818488 1_565
Al0_3 Al0_7 2.984647 1_555
Al0_3 Al0_7 2.984647 1_455
Al0_3 Al0_5 2.984647 1_455
Al0_3 Al0_5 2.984647 1_565
Al0_4 Ti2_0 2.818486 1_655
Al0_4 Ti4_0 2.818486 1_655
Al0_4 Ti4_4 2.818488 1_555
Al0_4 Ti2_4 2.818488 1_555
Al0_4 Ti4_2 2.818488 1_655
Al0_4 Ti2_2 2.818488 1_655
Al0_4 Al0_6 2.984647 1_545
Al0_4 Al0_6 2.984647 1_555
Al0_5 Ti4_1 2.818486 1_655
Al0_5 Ti2_1 2.818486 1_655
Al0_5 Ti4_5 2.818488 1_555
Al0_5 Ti2_5 2.818488 1_555
Al0_5 Ti4_3 2.818488 1_655
Al0_5 Ti2_3 2.818488 1_655
Al0_5 Al0_7 2.984647 1_545
Al0_5 Al0_7 2.984647 1_555
Al0_6 Ti4_2 2.818486 1_655
Al0_6 Ti2_2 2.818486 1_655
Al0_6 Ti4_6 2.818488 1_555
Al0_6 Ti2_6 2.818488 1_555
Al0_6 Ti2_0 2.818488 1_665
Al0_6 Ti4_0 2.818488 1_665
Al0_7 Ti4_3 2.818486 1_655
Al0_7 Ti2_3 2.818486 1_655
Al0_7 Ti2_7 2.818488 1_555
Al0_7 Ti4_7 2.818488 1_555
Al0_7 Ti4_1 2.818488 1_665
Al0_7 Ti2_1 2.818488 1_665
Al1_0 Ti3_2 2.818486 1_555
Al1_0 Ti6_2 2.818486 1_555
Al1_0 Ti6_6 2.818488 1_555
Al1_0 Ti3_6 2.818488 1_555
Al1_0 Ti3_0 2.818488 1_555
Al1_0 Ti6_0 2.818488 1_555
Al1_0 Al1_4 2.984647 1_455
Al1_0 Al1_4 2.984647 1_555
Al1_0 Al1_2 2.984647 1_555
Al1_0 Al1_2 2.984647 1_545
Al1_0 Al1_6 2.984647 1_555
Al1_0 Al1_6 2.984647 1_445
Al1_1 Ti3_3 2.818486 1_555
Al1_1 Ti6_3 2.818486 1_555
Al1_1 Ti3_7 2.818488 1_555
Al1_1 Ti6_7 2.818488 1_555
Al1_1 Ti3_1 2.818488 1_555
Al1_1 Ti6_1 2.818488 1_555
Al1_1 Al1_5 2.984647 1_455
Al1_1 Al1_5 2.984647 1_555
Al1_1 Al1_3 2.984647 1_555
Al1_1 Al1_3 2.984647 1_545
Al1_1 Al1_7 2.984647 1_555
Al1_1 Al1_7 2.984647 1_445
Al1_2 Ti3_0 2.818486 1_565
Al1_2 Ti6_0 2.818486 1_565
Al1_2 Ti3_4 2.818488 1_565
Al1_2 Ti6_4 2.818488 1_565
Al1_2 Ti3_2 2.818488 1_555
Al1_2 Ti6_2 2.818488 1_555
Al1_2 Al1_6 2.984647 1_455
Al1_2 Al1_6 2.984647 1_555
Al1_2 Al1_4 2.984647 1_455
Al1_2 Al1_4 2.984647 1_565
Al1_3 Ti3_1 2.818486 1_565
Al1_3 Ti6_1 2.818486 1_565
Al1_3 Ti3_5 2.818488 1_565
Al1_3 Ti6_5 2.818488 1_565
Al1_3 Ti3_3 2.818488 1_555
Al1_3 Ti6_3 2.818488 1_555
Al1_3 Al1_7 2.984647 1_555
Al1_3 Al1_7 2.984647 1_455
Al1_3 Al1_5 2.984647 1_455
Al1_3 Al1_5 2.984647 1_565
Al1_4 Ti3_6 2.818486 1_555
Al1_4 Ti6_6 2.818486 1_555
Al1_4 Ti3_2 2.818488 1_655
Al1_4 Ti6_2 2.818488 1_655
Al1_4 Ti3_4 2.818488 1_555
Al1_4 Ti6_4 2.818488 1_555
Al1_4 Al1_6 2.984647 1_555
Al1_4 Al1_6 2.984647 1_545
Al1_5 Ti3_7 2.818486 1_555
Al1_5 Ti6_7 2.818486 1_555
Al1_5 Ti3_3 2.818488 1_655
Al1_5 Ti6_3 2.818488 1_655
Al1_5 Ti3_5 2.818488 1_555
Al1_5 Ti6_5 2.818488 1_555
Al1_5 Al1_7 2.984647 1_555
Al1_5 Al1_7 2.984647 1_545
Al1_6 Ti3_4 2.818486 1_565
Al1_6 Ti6_4 2.818486 1_565
Al1_6 Ti6_0 2.818488 1_665
Al1_6 Ti3_0 2.818488 1_665
Al1_6 Ti3_6 2.818488 1_555
Al1_6 Ti6_6 2.818488 1_555
Al1_7 Ti3_5 2.818486 1_565
Al1_7 Ti6_5 2.818486 1_565
Al1_7 Ti3_1 2.818488 1_665
Al1_7 Ti6_1 2.818488 1_665
Al1_7 Ti3_7 2.818488 1_555
Al1_7 Ti6_7 2.818488 1_555
N0_0 Ti3_4 2.073837 1_555
N0_0 Ti3_0 2.073840 1_555
N0_0 Ti3_6 2.073840 1_555
N0_0 Ti7_4 2.103526 1_555
N0_0 Ti7_2 2.103526 1_545
N0_0 Ti7_0 2.103530 1_555
N0_1 Ti3_5 2.073837 1_555
N0_1 Ti3_1 2.073840 1_555
N0_1 Ti3_7 2.073840 1_555
N0_1 Ti7_5 2.103526 1_555
N0_1 Ti7_3 2.103526 1_545
N0_1 Ti7_1 2.103530 1_555
N0_2 Ti3_6 2.073837 1_555
N0_2 Ti3_2 2.073840 1_555
N0_2 Ti3_4 2.073840 1_565
N0_2 Ti7_6 2.103526 1_555
N0_2 Ti7_0 2.103526 1_555
N0_2 Ti7_2 2.103530 1_555
N0_3 Ti3_7 2.073837 1_555
N0_3 Ti3_3 2.073840 1_555
N0_3 Ti3_5 2.073840 1_565
N0_3 Ti7_7 2.103526 1_555
N0_3 Ti7_1 2.103526 1_555
N0_3 Ti7_3 2.103530 1_555
N0_4 Ti3_0 2.073837 1_655
N0_4 Ti3_4 2.073840 1_555
N0_4 Ti3_2 2.073840 1_655
N0_4 Ti7_0 2.103526 1_655
N0_4 Ti7_6 2.103526 1_545
N0_4 Ti7_4 2.103530 1_555
N0_5 Ti3_1 2.073837 1_655
N0_5 Ti3_5 2.073840 1_555
N0_5 Ti3_3 2.073840 1_655
N0_5 Ti7_1 2.103526 1_655
N0_5 Ti7_7 2.103526 1_545
N0_5 Ti7_5 2.103530 1_555
N0_6 Ti3_2 2.073837 1_655
N0_6 Ti3_6 2.073840 1_555
N0_6 Ti3_0 2.073840 1_665
N0_6 Ti7_2 2.103526 1_655
N0_6 Ti7_4 2.103526 1_555
N0_6 Ti7_6 2.103530 1_555
N0_7 Ti3_3 2.073837 1_655
N0_7 Ti3_7 2.073840 1_555
N0_7 Ti3_1 2.073840 1_665
N0_7 Ti7_3 2.103526 1_655
N0_7 Ti7_5 2.103526 1_555
N0_7 Ti7_7 2.103530 1_555
N1_0 Ti2_2 2.073837 1_555
N1_0 Ti2_6 2.073840 1_555
N1_0 Ti2_0 2.073840 1_555
N1_0 Ti1_4 2.103526 1_455
N1_0 Ti1_2 2.103526 1_555
N1_0 Ti1_0 2.103530 1_555
N1_1 Ti2_3 2.073837 1_555
N1_1 Ti2_7 2.073840 1_555
N1_1 Ti2_1 2.073840 1_555
N1_1 Ti1_5 2.103526 1_455
N1_1 Ti1_3 2.103526 1_555
N1_1 Ti1_1 2.103530 1_555
N1_2 Ti2_0 2.073837 1_565
N1_2 Ti2_4 2.073840 1_565
N1_2 Ti2_2 2.073840 1_555
N1_2 Ti1_6 2.103526 1_455
N1_2 Ti1_0 2.103526 1_565
N1_2 Ti1_2 2.103530 1_555
N1_3 Ti2_1 2.073837 1_565
N1_3 Ti2_5 2.073840 1_565
N1_3 Ti2_3 2.073840 1_555
N1_3 Ti1_7 2.103526 1_455
N1_3 Ti1_1 2.103526 1_565
N1_3 Ti1_3 2.103530 1_555
N1_4 Ti2_6 2.073837 1_555
N1_4 Ti2_2 2.073840 1_655
N1_4 Ti2_4 2.073840 1_555
N1_4 Ti1_0 2.103526 1_555
N1_4 Ti1_6 2.103526 1_555
N1_4 Ti1_4 2.103530 1_555
N1_5 Ti2_7 2.073837 1_555
N1_5 Ti2_3 2.073840 1_655
N1_5 Ti2_5 2.073840 1_555
N1_5 Ti1_1 2.103526 1_555
N1_5 Ti1_7 2.103526 1_555
N1_5 Ti1_5 2.103530 1_555
N1_6 Ti2_4 2.073837 1_565
N1_6 Ti2_0 2.073840 1_665
N1_6 Ti2_6 2.073840 1_555
N1_6 Ti1_2 2.103526 1_555
N1_6 Ti1_4 2.103526 1_565
N1_6 Ti1_6 2.103530 1_555
N1_7 Ti2_5 2.073837 1_565
N1_7 Ti2_1 2.073840 1_665
N1_7 Ti2_7 2.073840 1_555
N1_7 Ti1_3 2.103526 1_555
N1_7 Ti1_5 2.103526 1_565
N1_7 Ti1_7 2.103530 1_555
N2_0 Ti0_2 2.136741 1_545
N2_0 Ti1_4 2.136741 1_455
N2_0 Ti0_6 2.136743 1_445
N2_0 Ti1_0 2.136743 1_555
N2_0 Ti1_6 2.136743 1_445
N2_0 Ti0_0 2.136743 1_555
N2_1 Ti1_5 2.136741 1_455
N2_1 Ti0_3 2.136741 1_545
N2_1 Ti0_7 2.136743 1_445
N2_1 Ti1_1 2.136743 1_555
N2_1 Ti1_7 2.136743 1_445
N2_1 Ti0_1 2.136743 1_555
N2_2 Ti0_0 2.136741 1_555
N2_2 Ti1_6 2.136741 1_455
N2_2 Ti0_4 2.136743 1_455
N2_2 Ti1_2 2.136743 1_555
N2_2 Ti1_4 2.136743 1_455
N2_2 Ti0_2 2.136743 1_555
N2_3 Ti0_1 2.136741 1_555
N2_3 Ti1_7 2.136741 1_455
N2_3 Ti0_5 2.136743 1_455
N2_3 Ti1_3 2.136743 1_555
N2_3 Ti1_5 2.136743 1_455
N2_3 Ti0_3 2.136743 1_555
N2_4 Ti0_6 2.136741 1_545
N2_4 Ti1_0 2.136741 1_555
N2_4 Ti0_2 2.136743 1_545
N2_4 Ti1_4 2.136743 1_555
N2_4 Ti1_2 2.136743 1_545
N2_4 Ti0_4 2.136743 1_555
N2_5 Ti1_1 2.136741 1_555
N2_5 Ti0_7 2.136741 1_545
N2_5 Ti0_3 2.136743 1_545
N2_5 Ti1_5 2.136743 1_555
N2_5 Ti1_3 2.136743 1_545
N2_5 Ti0_5 2.136743 1_555
N2_6 Ti0_4 2.136741 1_555
N2_6 Ti1_2 2.136741 1_555
N2_6 Ti0_0 2.136743 1_555
N2_6 Ti1_6 2.136743 1_555
N2_6 Ti1_0 2.136743 1_555
N2_6 Ti0_6 2.136743 1_555
N2_7 Ti0_5 2.136741 1_555
N2_7 Ti1_3 2.136741 1_555
N2_7 Ti0_1 2.136743 1_555
N2_7 Ti1_7 2.136743 1_555
N2_7 Ti1_1 2.136743 1_555
N2_7 Ti0_7 2.136743 1_555
N3_0 Ti6_4 2.073837 1_555
N3_0 Ti6_0 2.073840 1_555
N3_0 Ti6_6 2.073840 1_555
N3_0 Ti0_4 2.103526 1_555
N3_0 Ti0_2 2.103526 1_545
N3_0 Ti0_0 2.103530 1_555
N3_1 Ti6_5 2.073837 1_555
N3_1 Ti6_1 2.073840 1_555
N3_1 Ti6_7 2.073840 1_555
N3_1 Ti0_5 2.103526 1_555
N3_1 Ti0_3 2.103526 1_545
N3_1 Ti0_1 2.103530 1_555
N3_2 Ti6_6 2.073837 1_555
N3_2 Ti6_2 2.073840 1_555
N3_2 Ti6_4 2.073840 1_565
N3_2 Ti0_6 2.103526 1_555
N3_2 Ti0_0 2.103526 1_555
N3_2 Ti0_2 2.103530 1_555
N3_3 Ti6_7 2.073837 1_555
N3_3 Ti6_3 2.073840 1_555
N3_3 Ti6_5 2.073840 1_565
N3_3 Ti0_7 2.103526 1_555
N3_3 Ti0_1 2.103526 1_555
N3_3 Ti0_3 2.103530 1_555
N3_4 Ti6_0 2.073837 1_655
N3_4 Ti6_4 2.073840 1_555
N3_4 Ti6_2 2.073840 1_655
N3_4 Ti0_0 2.103526 1_655
N3_4 Ti0_6 2.103526 1_545
N3_4 Ti0_4 2.103530 1_555
N3_5 Ti6_1 2.073837 1_655
N3_5 Ti6_5 2.073840 1_555
N3_5 Ti6_3 2.073840 1_655
N3_5 Ti0_1 2.103526 1_655
N3_5 Ti0_7 2.103526 1_545
N3_5 Ti0_5 2.103530 1_555
N3_6 Ti6_2 2.073837 1_655
N3_6 Ti6_6 2.073840 1_555
N3_6 Ti6_0 2.073840 1_665
N3_6 Ti0_2 2.103526 1_655
N3_6 Ti0_4 2.103526 1_555
N3_6 Ti0_6 2.103530 1_555
N3_7 Ti6_3 2.073837 1_655
N3_7 Ti6_7 2.073840 1_555
N3_7 Ti6_1 2.073840 1_665
N3_7 Ti0_3 2.103526 1_655
N3_7 Ti0_5 2.103526 1_555
N3_7 Ti0_7 2.103530 1_555
N4_0 Ti4_2 2.073837 1_555
N4_0 Ti4_6 2.073840 1_555
N4_0 Ti4_0 2.073840 1_555
N4_0 Ti5_4 2.103526 1_455
N4_0 Ti5_2 2.103526 1_555
N4_0 Ti5_0 2.103530 1_555
N4_1 Ti4_3 2.073837 1_555
N4_1 Ti4_7 2.073840 1_555
N4_1 Ti4_1 2.073840 1_555
N4_1 Ti5_5 2.103526 1_455
N4_1 Ti5_3 2.103526 1_555
N4_1 Ti5_1 2.103530 1_555
N4_2 Ti4_0 2.073837 1_565
N4_2 Ti4_4 2.073840 1_565
N4_2 Ti4_2 2.073840 1_555
N4_2 Ti5_6 2.103526 1_455
N4_2 Ti5_0 2.103526 1_565
N4_2 Ti5_2 2.103530 1_555
N4_3 Ti4_1 2.073837 1_565
N4_3 Ti4_5 2.073840 1_565
N4_3 Ti4_3 2.073840 1_555
N4_3 Ti5_7 2.103526 1_455
N4_3 Ti5_1 2.103526 1_565
N4_3 Ti5_3 2.103530 1_555
N4_4 Ti4_6 2.073837 1_555
N4_4 Ti4_2 2.073840 1_655
N4_4 Ti4_4 2.073840 1_555
N4_4 Ti5_0 2.103526 1_555
N4_4 Ti5_6 2.103526 1_555
N4_4 Ti5_4 2.103530 1_555
N4_5 Ti4_7 2.073837 1_555
N4_5 Ti4_3 2.073840 1_655
N4_5 Ti4_5 2.073840 1_555
N4_5 Ti5_1 2.103526 1_555
N4_5 Ti5_7 2.103526 1_555
N4_5 Ti5_5 2.103530 1_555
N4_6 Ti4_4 2.073837 1_565
N4_6 Ti4_0 2.073840 1_665
N4_6 Ti4_6 2.073840 1_555
N4_6 Ti5_2 2.103526 1_555
N4_6 Ti5_4 2.103526 1_565
N4_6 Ti5_6 2.103530 1_555
N4_7 Ti4_5 2.073837 1_565
N4_7 Ti4_1 2.073840 1_665
N4_7 Ti4_7 2.073840 1_555
N4_7 Ti5_3 2.103526 1_555
N4_7 Ti5_5 2.103526 1_565
N4_7 Ti5_7 2.103530 1_555
N5_0 Ti5_5 2.136741 1_454
N5_0 Ti7_2 2.136741 1_545
N5_0 Ti5_1 2.136743 1_554
N5_0 Ti7_6 2.136743 1_445
N5_0 Ti5_7 2.136743 1_444
N5_0 Ti7_0 2.136743 1_555
N5_1 Ti7_3 2.136741 1_545
N5_1 Ti5_4 2.136741 1_455
N5_1 Ti7_7 2.136743 1_445
N5_1 Ti5_0 2.136743 1_555
N5_1 Ti7_1 2.136743 1_555
N5_1 Ti5_6 2.136743 1_445
N5_2 Ti7_0 2.136741 1_555
N5_2 Ti5_7 2.136741 1_454
N5_2 Ti7_4 2.136743 1_455
N5_2 Ti5_3 2.136743 1_554
N5_2 Ti5_5 2.136743 1_454
N5_2 Ti7_2 2.136743 1_555
N5_3 Ti7_1 2.136741 1_555
N5_3 Ti5_6 2.136741 1_455
N5_3 Ti7_5 2.136743 1_455
N5_3 Ti5_2 2.136743 1_555
N5_3 Ti7_3 2.136743 1_555
N5_3 Ti5_4 2.136743 1_455
N5_4 Ti5_1 2.136741 1_554
N5_4 Ti7_6 2.136741 1_545
N5_4 Ti7_2 2.136743 1_545
N5_4 Ti5_5 2.136743 1_554
N5_4 Ti5_3 2.136743 1_544
N5_4 Ti7_4 2.136743 1_555
N5_5 Ti7_7 2.136741 1_545
N5_5 Ti5_0 2.136741 1_555
N5_5 Ti7_3 2.136743 1_545
N5_5 Ti5_4 2.136743 1_555
N5_5 Ti7_5 2.136743 1_555
N5_5 Ti5_2 2.136743 1_545
N5_6 Ti7_4 2.136741 1_555
N5_6 Ti5_3 2.136741 1_554
N5_6 Ti7_0 2.136743 1_555
N5_6 Ti5_7 2.136743 1_554
N5_6 Ti5_1 2.136743 1_554
N5_6 Ti7_6 2.136743 1_555
N5_7 Ti7_5 2.136741 1_555
N5_7 Ti5_2 2.136741 1_555
N5_7 Ti7_1 2.136743 1_555
N5_7 Ti5_6 2.136743 1_555
N5_7 Ti7_7 2.136743 1_555
N5_7 Ti5_0 2.136743 1_555
