# generated using pymatgen
data_Hg
_symmetry_space_group_name_H-M   'P 1'
_cell_length_a   7.17753187
_cell_length_b   6.82050231
_cell_length_c   16.67993188
_cell_angle_alpha   82.21209026
_cell_angle_beta   76.84917927
_cell_angle_gamma   56.57551997
_symmetry_Int_Tables_number   1
_chemical_formula_structural   Hg
_chemical_formula_sum   Hg24
_cell_volume   663.58265072
_cell_formula_units_Z   24
loop_
 _symmetry_equiv_pos_site_id
 _symmetry_equiv_pos_as_xyz
  1  'x, y, z'
loop_
 _atom_site_type_symbol
 _atom_site_label
 _atom_site_symmetry_multiplicity
 _atom_site_fract_x
 _atom_site_fract_y
 _atom_site_fract_z
 _atom_site_occupancy
  Hg  Hg0_0  1  0.12540615  0.07767609  0.16762890  1
  Hg  Hg0_1  1  0.12540615  0.07767609  0.66762890  1
  Hg  Hg0_2  1  0.12540615  0.57767609  0.16762890  1
  Hg  Hg0_3  1  0.12540615  0.57767609  0.66762890  1
  Hg  Hg0_4  1  0.62540615  0.07767609  0.16762890  1
  Hg  Hg0_5  1  0.62540615  0.07767609  0.66762890  1
  Hg  Hg0_6  1  0.62540615  0.57767609  0.16762890  1
  Hg  Hg0_7  1  0.62540615  0.57767609  0.66762890  1
  Hg  Hg1_0  1  0.37459384  0.42232392  0.33237110  1
  Hg  Hg1_1  1  0.37459384  0.42232392  0.83237109  1
  Hg  Hg1_2  1  0.37459384  0.92232392  0.33237110  1
  Hg  Hg1_3  1  0.37459384  0.92232392  0.83237110  1
  Hg  Hg1_4  1  0.87459384  0.42232392  0.33237110  1
  Hg  Hg1_5  1  0.87459384  0.42232392  0.83237109  1
  Hg  Hg1_6  1  0.87459384  0.92232392  0.33237110  1
  Hg  Hg1_7  1  0.87459385  0.92232392  0.83237110  1
  Hg  Hg2_0  1  0.00000000  0.00000000  0.00000000  1
  Hg  Hg2_1  1  0.00000000  0.00000000  0.50000000  1
  Hg  Hg2_2  1  0.00000000  0.50000000  0.00000000  1
  Hg  Hg2_3  1  0.00000000  0.50000000  0.50000000  1
  Hg  Hg2_4  1  0.50000000  0.00000000  0.00000000  1
  Hg  Hg2_5  1  0.50000000  0.00000000  0.50000000  1
  Hg  Hg2_6  1  0.50000000  0.50000000  0.00000000  1
  Hg  Hg2_7  1  0.50000000  0.50000000  0.50000000  1
loop_
_geom_bond_atom_site_label_1
_geom_bond_atom_site_label_2
_geom_bond_distance
_geom_bond_site_symmetry_2
Hg0_0 Hg2_4 3.277021 1_555
Hg0_0 Hg1_6 3.312968 1_445
Hg0_0 Hg2_0 3.313714 1_555
Hg0_0 Hg0_6 3.320558 1_545
Hg0_0 Hg0_6 3.320558 1_455
Hg0_0 Hg1_4 3.339908 1_455
Hg0_0 Hg1_2 3.351417 1_545
Hg0_0 Hg0_2 3.410251 1_545
Hg0_0 Hg0_2 3.410251 1_555
Hg0_1 Hg2_5 3.277021 1_555
Hg0_1 Hg1_7 3.312968 1_445
Hg0_1 Hg2_1 3.313714 1_555
Hg0_1 Hg0_7 3.320558 1_545
Hg0_1 Hg0_7 3.320558 1_455
Hg0_1 Hg1_5 3.339908 1_455
Hg0_1 Hg1_3 3.351417 1_545
Hg0_1 Hg0_3 3.410251 1_545
Hg0_1 Hg0_3 3.410251 1_555
Hg0_2 Hg2_6 3.277021 1_555
Hg0_2 Hg1_4 3.312968 1_455
Hg0_2 Hg2_2 3.313714 1_555
Hg0_2 Hg0_4 3.320558 1_555
Hg0_2 Hg0_4 3.320558 1_465
Hg0_2 Hg1_6 3.339908 1_455
Hg0_2 Hg1_0 3.351417 1_555
Hg0_3 Hg2_7 3.277021 1_555
Hg0_3 Hg1_5 3.312968 1_455
Hg0_3 Hg2_3 3.313714 1_555
Hg0_3 Hg0_5 3.320558 1_465
Hg0_3 Hg0_5 3.320558 1_555
Hg0_3 Hg1_7 3.339908 1_455
Hg0_3 Hg1_1 3.351417 1_555
Hg0_4 Hg2_0 3.277021 1_655
Hg0_4 Hg1_2 3.312968 1_545
Hg0_4 Hg2_4 3.313714 1_555
Hg0_4 Hg1_0 3.339908 1_555
Hg0_4 Hg1_6 3.351417 1_545
Hg0_4 Hg0_6 3.410251 1_545
Hg0_4 Hg0_6 3.410251 1_555
Hg0_5 Hg2_1 3.277021 1_655
Hg0_5 Hg1_3 3.312968 1_545
Hg0_5 Hg2_5 3.313714 1_555
Hg0_5 Hg1_1 3.339908 1_555
Hg0_5 Hg1_7 3.351417 1_545
Hg0_5 Hg0_7 3.410251 1_545
Hg0_5 Hg0_7 3.410251 1_555
Hg0_6 Hg2_2 3.277021 1_655
Hg0_6 Hg1_0 3.312968 1_555
Hg0_6 Hg2_6 3.313714 1_555
Hg0_6 Hg1_2 3.339908 1_555
Hg0_6 Hg1_4 3.351417 1_555
Hg0_7 Hg2_3 3.277021 1_655
Hg0_7 Hg1_1 3.312968 1_555
Hg0_7 Hg2_7 3.313714 1_555
Hg0_7 Hg1_3 3.339908 1_555
Hg0_7 Hg1_5 3.351417 1_555
Hg1_0 Hg2_3 3.277021 1_555
Hg1_0 Hg2_7 3.313714 1_555
Hg1_0 Hg1_6 3.320558 1_545
Hg1_0 Hg1_6 3.320558 1_455
Hg1_0 Hg1_2 3.410251 1_545
Hg1_0 Hg1_2 3.410251 1_555
Hg1_1 Hg2_2 3.277021 1_556
Hg1_1 Hg2_6 3.313714 1_556
Hg1_1 Hg1_7 3.320558 1_455
Hg1_1 Hg1_7 3.320558 1_545
Hg1_1 Hg1_3 3.410251 1_545
Hg1_1 Hg1_3 3.410251 1_555
Hg1_2 Hg2_1 3.277021 1_565
Hg1_2 Hg2_5 3.313714 1_565
Hg1_2 Hg1_4 3.320558 1_555
Hg1_2 Hg1_4 3.320558 1_465
Hg1_3 Hg2_0 3.277021 1_566
Hg1_3 Hg2_4 3.313714 1_566
Hg1_3 Hg1_5 3.320558 1_465
Hg1_3 Hg1_5 3.320558 1_555
Hg1_4 Hg2_7 3.277021 1_555
Hg1_4 Hg2_3 3.313714 1_655
Hg1_4 Hg1_6 3.410251 1_545
Hg1_4 Hg1_6 3.410251 1_555
Hg1_5 Hg2_6 3.277021 1_556
Hg1_5 Hg2_2 3.313714 1_656
Hg1_5 Hg1_7 3.410251 1_545
Hg1_5 Hg1_7 3.410251 1_555
Hg1_6 Hg2_5 3.277021 1_565
Hg1_6 Hg2_1 3.313714 1_665
Hg1_7 Hg2_4 3.277021 1_566
Hg1_7 Hg2_0 3.313714 1_666
Hg2_0 Hg2_6 3.320558 1_545
Hg2_0 Hg2_6 3.320558 1_455
Hg2_0 Hg2_2 3.410251 1_545
Hg2_0 Hg2_2 3.410251 1_555
Hg2_1 Hg2_7 3.320558 1_545
Hg2_1 Hg2_7 3.320558 1_455
Hg2_1 Hg2_3 3.410251 1_545
Hg2_1 Hg2_3 3.410251 1_555
Hg2_2 Hg2_4 3.320558 1_555
Hg2_2 Hg2_4 3.320558 1_465
Hg2_3 Hg2_5 3.320558 1_555
Hg2_3 Hg2_5 3.320558 1_465
Hg2_4 Hg2_6 3.410251 1_545
Hg2_4 Hg2_6 3.410251 1_555
Hg2_5 Hg2_7 3.410251 1_545
Hg2_5 Hg2_7 3.410251 1_555
