# generated using pymatgen
data_BaSb2F12
_symmetry_space_group_name_H-M   'P 1'
_cell_length_a   5.52104672
_cell_length_b   5.60524567
_cell_length_c   9.39590659
_cell_angle_alpha   94.69319605
_cell_angle_beta   99.80463610
_cell_angle_gamma   119.53708521
_symmetry_Int_Tables_number   1
_chemical_formula_structural   BaSb2F12
_chemical_formula_sum   'Ba1 Sb2 F12'
_cell_volume   244.58410785
_cell_formula_units_Z   1
loop_
 _symmetry_equiv_pos_site_id
 _symmetry_equiv_pos_as_xyz
  1  'x, y, z'
loop_
 _atom_site_type_symbol
 _atom_site_label
 _atom_site_symmetry_multiplicity
 _atom_site_fract_x
 _atom_site_fract_y
 _atom_site_fract_z
 _atom_site_occupancy
  Ba  Ba0  1  0.01202418  0.97431486  0.91694849  1
  Sb  Sb0  1  0.18096733  0.48907999  0.58348511  1
  Sb  Sb1  1  0.41291388  0.70330259  0.14603583  1
  F  F0  1  0.23532950  0.89338685  0.20585221  1
  F  F1  1  0.51437392  0.60148562  0.74170127  1
  F  F2  1  0.08740653  0.52543715  0.97533406  1
  F  F3  1  0.20552732  0.37165665  0.21412069  1
  F  F4  1  0.55752321  0.51520043  0.03723849  1
  F  F5  1  0.24155005  0.21726254  0.49780503  1
  F  F6  1  0.74920334  0.87782035  0.29208216  1
  F  F7  1  0.14788474  0.76427238  0.70259407  1
  F  F8  1  0.84421745  0.39418943  0.44719326  1
  F  F9  1  0.96566246  0.23118573  0.70007878  1
  F  F10  1  0.41560153  0.76425958  0.48815668  1
  F  F11  1  0.57781357  0.98714485  0.02937288  1
loop_
_geom_bond_atom_site_label_1
_geom_bond_atom_site_label_2
_geom_bond_distance
_geom_bond_site_symmetry_2
Ba0 F1 2.619617 1_455
Ba0 F9 2.637542 1_465
Ba0 F7 2.646205 1_555
Ba0 F11 2.808567 1_456
Ba0 F2 2.825836 1_555
Ba0 F2 2.897316 1_565
Ba0 F0 2.950840 1_556
Ba0 F4 2.969309 1_566
Ba0 F4 3.044932 1_456
Ba0 F3 3.085211 1_566
Ba0 F11 3.085625 1_556
F0 Sb1 1.879376 1_555
F1 Sb0 1.940753 1_555
F2 Sb1 1.945823 1_556
F3 Sb1 1.876539 1_555
F4 Sb1 1.930202 1_555
F5 Sb0 1.864081 1_555
F6 Sb1 1.846356 1_555
F7 Sb0 1.931351 1_555
F8 Sb0 1.866043 1_655
F9 Sb0 1.926450 1_655
F10 Sb0 1.873688 1_555
F11 Sb1 1.938768 1_555
