# generated using pymatgen
data_Cs2NiH12(SO7)2
_symmetry_space_group_name_H-M   'P 1'
_cell_length_a   12.86981800
_cell_length_b   6.43421100
_cell_length_c   9.29136466
_cell_angle_alpha   73.70395597
_cell_angle_beta   90.00000000
_cell_angle_gamma   90.00000000
_symmetry_Int_Tables_number   1
_chemical_formula_structural   Cs2NiH12(SO7)2
_chemical_formula_sum   'Cs4 Ni2 H24 S4 O28'
_cell_volume   738.48064406
_cell_formula_units_Z   2
loop_
 _symmetry_equiv_pos_site_id
 _symmetry_equiv_pos_as_xyz
  1  'x, y, z'
loop_
 _atom_site_type_symbol
 _atom_site_label
 _atom_site_symmetry_multiplicity
 _atom_site_fract_x
 _atom_site_fract_y
 _atom_site_fract_z
 _atom_site_occupancy
  Cs  Cs0  1  0.35582500  0.64864000  0.12737700  1
  Cs  Cs1  1  0.85582500  0.35136000  0.37262300  1
  Cs  Cs2  1  0.64417500  0.35136000  0.87262300  1
  Cs  Cs3  1  0.14417500  0.64864000  0.62737700  1
  Ni  Ni0  1  0.00000000  0.00000000  0.00000000  1
  Ni  Ni1  1  0.50000000  0.00000000  0.50000000  1
  H  H0  1  0.09839000  0.68583600  0.20692100  1
  H  H1  1  0.59839000  0.31416400  0.29307900  1
  H  H2  1  0.90161000  0.31416400  0.79307900  1
  H  H3  1  0.40161000  0.68583600  0.70692100  1
  H  H4  1  0.12999400  0.91630800  0.23411400  1
  H  H5  1  0.62999400  0.08369200  0.26588600  1
  H  H6  1  0.87000600  0.08369200  0.76588600  1
  H  H7  1  0.37000600  0.91630800  0.73411400  1
  H  H8  1  0.09531200  0.07338900  0.72443500  1
  H  H9  1  0.59531200  0.92661100  0.77556500  1
  H  H10  1  0.90468800  0.92661100  0.27556500  1
  H  H11  1  0.40468800  0.07338900  0.22443500  1
  H  H12  1  0.18147800  0.01182900  0.85053800  1
  H  H13  1  0.68147800  0.98817100  0.64946200  1
  H  H14  1  0.81852200  0.98817100  0.14946200  1
  H  H15  1  0.31852200  0.01182900  0.35053800  1
  H  H16  1  0.94079500  0.67069200  0.90222500  1
  H  H17  1  0.44079500  0.32930800  0.59777500  1
  H  H18  1  0.05920500  0.32930800  0.09777500  1
  H  H19  1  0.55920500  0.67069200  0.40222500  1
  H  H20  1  0.86206000  0.69273400  0.02602500  1
  H  H21  1  0.36206000  0.30726600  0.47397500  1
  H  H22  1  0.13794000  0.30726600  0.97397500  1
  H  H23  1  0.63794000  0.69273400  0.52602500  1
  S  S0  1  0.14825300  0.25904000  0.39475500  1
  S  S1  1  0.64825300  0.74096000  0.10524500  1
  S  S2  1  0.85174700  0.74096000  0.60524500  1
  S  S3  1  0.35174700  0.25904000  0.89475500  1
  O  O0  1  0.24035400  0.38667900  0.41817200  1
  O  O1  1  0.74035400  0.61332100  0.08182800  1
  O  O2  1  0.75964600  0.61332100  0.58182800  1
  O  O3  1  0.25964600  0.38667900  0.91817200  1
  O  O4  1  0.08215900  0.20258200  0.53190400  1
  O  O5  1  0.58215900  0.79741800  0.96809600  1
  O  O6  1  0.91784100  0.79741800  0.46809600  1
  O  O7  1  0.41784100  0.20258200  0.03190400  1
  O  O8  1  0.08556000  0.39646500  0.26691100  1
  O  O9  1  0.58556000  0.60353500  0.23308900  1
  O  O10  1  0.91444000  0.60353500  0.73308900  1
  O  O11  1  0.41444000  0.39646500  0.76691100  1
  O  O12  1  0.18396900  0.05770700  0.35799400  1
  O  O13  1  0.68396900  0.94229300  0.14200600  1
  O  O14  1  0.81603100  0.94229300  0.64200600  1
  O  O15  1  0.31603100  0.05770700  0.85799400  1
  O  O16  1  0.11225100  0.84151900  0.15732400  1
  O  O17  1  0.61225100  0.15848100  0.34267600  1
  O  O18  1  0.88774900  0.15848100  0.84267600  1
  O  O19  1  0.38774900  0.84151900  0.65732400  1
  O  O20  1  0.10750200  0.98496600  0.82943200  1
  O  O21  1  0.60750200  0.01503400  0.67056800  1
  O  O22  1  0.89249800  0.01503400  0.17056800  1
  O  O23  1  0.39249800  0.98496600  0.32943200  1
  O  O24  1  0.93714500  0.70900600  0.99844300  1
  O  O25  1  0.43714500  0.29099400  0.50155700  1
  O  O26  1  0.06285500  0.29099400  0.00155700  1
  O  O27  1  0.56285500  0.70900600  0.49844300  1
loop_
_geom_bond_atom_site_label_1
_geom_bond_atom_site_label_2
_geom_bond_distance
_geom_bond_site_symmetry_2
Cs0 O9 3.103345 1_555
Cs0 O15 3.123692 1_564
Cs0 O0 3.129512 1_555
Cs0 O3 3.160718 1_554
Cs0 H11 3.171860 1_565
Cs0 O23 3.272624 1_555
Cs0 O5 3.285785 1_554
Cs0 O7 3.330132 1_555
Cs0 H21 3.351429 1_555
Cs0 O16 3.411456 1_555
Cs0 H0 3.417554 1_555
Cs0 O7 3.514677 1_565
Cs1 O8 3.103345 1_655
Cs1 O14 3.123692 1_545
Cs1 O1 3.129512 1_555
Cs1 O2 3.160718 1_555
Cs1 H10 3.171860 1_545
Cs1 O22 3.272624 1_555
Cs1 O4 3.285785 1_655
Cs1 O6 3.330132 1_555
Cs1 H20 3.351429 1_555
Cs1 O17 3.411456 1_555
Cs1 H1 3.417554 1_555
Cs1 O6 3.514677 1_545
Cs2 O11 3.103345 1_555
Cs2 O13 3.123692 1_546
Cs2 O2 3.129512 1_555
Cs2 O1 3.160718 1_556
Cs2 H9 3.171860 1_545
Cs2 O21 3.272624 1_555
Cs2 O7 3.285785 1_556
Cs2 O5 3.330132 1_555
Cs2 H23 3.351429 1_555
Cs2 O18 3.411456 1_555
Cs2 H2 3.417554 1_555
Cs2 O5 3.514677 1_545
Cs3 O10 3.103345 1_455
Cs3 O12 3.123692 1_565
Cs3 O3 3.129512 1_555
Cs3 O0 3.160718 1_555
Cs3 H8 3.171860 1_565
Cs3 O20 3.272624 1_555
Cs3 O6 3.285785 1_455
Cs3 O4 3.330132 1_555
Cs3 H22 3.351429 1_555
Cs3 O19 3.411456 1_555
Cs3 H3 3.417554 1_555
Cs3 O4 3.514677 1_565
Ni0 O24 2.043368 1_444
Ni0 O26 2.043368 1_555
Ni0 O18 2.104051 1_454
Ni0 O16 2.104051 1_545
Ni0 O22 2.126304 1_455
Ni0 O20 2.126304 1_544
Ni1 O27 2.043368 1_545
Ni1 O25 2.043368 1_555
Ni1 O17 2.104051 1_555
Ni1 O19 2.104051 1_545
Ni1 O23 2.126304 1_545
Ni1 O21 2.126304 1_555
H0 O16 0.994246 1_555
H1 O17 0.994246 1_555
H2 O18 0.994246 1_555
H3 O19 0.994246 1_555
H4 O16 0.992695 1_555
H5 O17 0.992695 1_555
H6 O18 0.992695 1_555
H7 O19 0.992695 1_555
H8 O20 0.994254 1_545
H9 O21 0.994254 1_565
H10 O22 0.994254 1_565
H11 O23 0.994254 1_545
H12 O20 0.996878 1_545
H13 O21 0.996878 1_565
H14 O22 0.996878 1_565
H15 O23 0.996878 1_545
H16 O24 0.992920 1_555
H17 O25 0.992920 1_555
H18 O26 0.992920 1_555
H19 O27 0.992920 1_555
H20 O24 0.997685 1_554
H21 O25 0.997685 1_555
H22 O26 0.997685 1_556
H23 O27 0.997685 1_555
O0 S0 1.492337 1_555
O1 S1 1.492337 1_555
O2 S2 1.492337 1_555
O3 S3 1.492337 1_555
O4 S0 1.489822 1_555
O5 S1 1.489822 1_556
O6 S2 1.489822 1_555
O7 S3 1.489822 1_554
O8 S0 1.501462 1_555
O9 S1 1.501462 1_555
O10 S2 1.501462 1_555
O11 S3 1.501462 1_555
O12 S0 1.501456 1_555
O13 S1 1.501456 1_555
O14 S2 1.501456 1_555
O15 S3 1.501456 1_555
