# generated using pymatgen
data_BeF2
_symmetry_space_group_name_H-M   'P 1'
_cell_length_a   8.28621084
_cell_length_b   8.28621084
_cell_length_c   8.28621084
_cell_angle_alpha   90.00000000
_cell_angle_beta   90.00000000
_cell_angle_gamma   90.00000000
_symmetry_Int_Tables_number   1
_chemical_formula_structural   BeF2
_chemical_formula_sum   'Be12 F24'
_cell_volume   568.94192619
_cell_formula_units_Z   12
loop_
 _symmetry_equiv_pos_site_id
 _symmetry_equiv_pos_as_xyz
  1  'x, y, z'
loop_
 _atom_site_type_symbol
 _atom_site_label
 _atom_site_symmetry_multiplicity
 _atom_site_fract_x
 _atom_site_fract_y
 _atom_site_fract_z
 _atom_site_occupancy
  Be  Be0  1  0.00000000  0.75000000  0.50000000  1
  Be  Be1  1  0.00000000  0.50000000  0.25000000  1
  Be  Be2  1  0.25000000  0.50000000  0.00000000  1
  Be  Be3  1  0.50000000  -0.00000000  0.75000000  1
  Be  Be4  1  0.50000000  -0.00000000  0.25000000  1
  Be  Be5  1  0.50000000  0.25000000  0.00000000  1
  Be  Be6  1  0.00000000  0.25000000  0.50000000  1
  Be  Be7  1  0.50000000  0.75000000  0.00000000  1
  Be  Be8  1  0.00000000  0.50000000  0.75000000  1
  Be  Be9  1  0.75000000  -0.00000000  0.50000000  1
  Be  Be10  1  0.75000000  0.50000000  0.00000000  1
  Be  Be11  1  0.25000000  -0.00000000  0.50000000  1
  F  F0  1  0.05484758  0.64284618  0.64284618  1
  F  F1  1  0.44515242  0.85715382  0.14284618  1
  F  F2  1  0.05484758  0.35715382  0.35715382  1
  F  F3  1  0.85715382  0.14284618  0.44515242  1
  F  F4  1  0.64284618  0.64284618  0.05484758  1
  F  F5  1  0.14284618  0.85715382  0.44515242  1
  F  F6  1  0.64284618  0.94515242  0.35715382  1
  F  F7  1  0.35715382  0.94515242  0.64284618  1
  F  F8  1  0.64284618  0.05484758  0.64284618  1
  F  F9  1  0.85715382  0.85715382  0.55484758  1
  F  F10  1  0.14284618  0.14284618  0.55484758  1
  F  F11  1  0.85715382  0.44515242  0.14284618  1
  F  F12  1  0.85715382  0.55484758  0.85715382  1
  F  F13  1  0.44515242  0.14284618  0.85715382  1
  F  F14  1  0.14284618  0.55484758  0.14284618  1
  F  F15  1  0.55484758  0.14284618  0.14284618  1
  F  F16  1  0.35715382  0.05484758  0.35715382  1
  F  F17  1  0.14284618  0.44515242  0.85715382  1
  F  F18  1  0.94515242  0.64284618  0.35715382  1
  F  F19  1  0.64284618  0.35715382  0.94515242  1
  F  F20  1  0.94515242  0.35715382  0.64284618  1
  F  F21  1  0.35715382  0.64284618  0.94515242  1
  F  F22  1  0.55484758  0.85715382  0.85715382  1
  F  F23  1  0.35715382  0.35715382  0.05484758  1
loop_
_geom_bond_atom_site_label_1
_geom_bond_atom_site_label_2
_geom_bond_distance
_geom_bond_site_symmetry_2
Be0 F9 1.547886 1_455
Be0 F18 1.547886 1_455
Be0 F0 1.547886 1_555
Be0 F5 1.547886 1_555
Be1 F11 1.547886 1_455
Be1 F2 1.547886 1_555
Be1 F14 1.547886 1_555
Be1 F18 1.547886 1_455
Be2 F17 1.547886 1_554
Be2 F23 1.547886 1_555
Be2 F14 1.547886 1_555
Be2 F21 1.547886 1_554
Be3 F22 1.547886 1_545
Be3 F7 1.547886 1_545
Be3 F8 1.547886 1_555
Be3 F13 1.547886 1_555
Be4 F1 1.547886 1_545
Be4 F15 1.547886 1_555
Be4 F16 1.547886 1_555
Be4 F6 1.547886 1_545
Be5 F13 1.547886 1_554
Be5 F23 1.547886 1_555
Be5 F15 1.547886 1_555
Be5 F19 1.547886 1_554
Be6 F3 1.547886 1_455
Be6 F2 1.547886 1_555
Be6 F10 1.547886 1_555
Be6 F20 1.547886 1_455
Be7 F22 1.547886 1_554
Be7 F21 1.547886 1_554
Be7 F4 1.547886 1_555
Be7 F1 1.547886 1_555
Be8 F20 1.547886 1_455
Be8 F12 1.547886 1_455
Be8 F0 1.547886 1_555
Be8 F17 1.547886 1_555
Be9 F9 1.547886 1_545
Be9 F6 1.547886 1_545
Be9 F8 1.547886 1_555
Be9 F3 1.547886 1_555
Be10 F19 1.547886 1_554
Be10 F12 1.547886 1_554
Be10 F4 1.547886 1_555
Be10 F11 1.547886 1_555
Be11 F5 1.547886 1_545
Be11 F10 1.547886 1_555
Be11 F16 1.547886 1_555
Be11 F7 1.547886 1_545
