# generated using pymatgen
data_CaFeClO2
_symmetry_space_group_name_H-M   'P 1'
_cell_length_a   5.45022270
_cell_length_b   5.45022270
_cell_length_c   8.83219163
_cell_angle_alpha   76.73761116
_cell_angle_beta   76.73761116
_cell_angle_gamma   41.69386874
_symmetry_Int_Tables_number   1
_chemical_formula_structural   CaFeClO2
_chemical_formula_sum   'Ca2 Fe2 Cl2 O4'
_cell_volume   169.16887673
_cell_formula_units_Z   2
loop_
 _symmetry_equiv_pos_site_id
 _symmetry_equiv_pos_as_xyz
  1  'x, y, z'
loop_
 _atom_site_type_symbol
 _atom_site_label
 _atom_site_symmetry_multiplicity
 _atom_site_fract_x
 _atom_site_fract_y
 _atom_site_fract_z
 _atom_site_occupancy
  Ca  Ca0  1  0.39241300  0.39241300  0.79200100  1
  Ca  Ca1  1  0.60758700  0.60758700  0.20799900  1
  Fe  Fe0  1  0.86075200  0.86075200  0.50197200  1
  Fe  Fe1  1  0.13924800  0.13924800  0.49802800  1
  Cl  Cl0  1  0.66540500  0.66540500  0.87699700  1
  Cl  Cl1  1  0.33459500  0.33459500  0.12300300  1
  O  O0  1  0.31473100  0.31473100  0.55769400  1
  O  O1  1  0.97580900  0.97580900  0.66178800  1
  O  O2  1  0.02419100  0.02419100  0.33821200  1
  O  O3  1  0.68526900  0.68526900  0.44230600  1
loop_
_geom_bond_atom_site_label_1
_geom_bond_atom_site_label_2
_geom_bond_distance
_geom_bond_site_symmetry_2
Ca0 O1 2.307960 1_545
Ca0 O1 2.307960 1_455
Ca0 O0 2.390151 1_555
Ca0 Cl1 2.836938 1_556
Ca0 Cl0 2.969994 1_545
Ca0 Cl0 2.969994 1_455
Ca0 Cl0 3.053205 1_555
Ca1 O2 2.307960 1_565
Ca1 O2 2.307960 1_655
Ca1 O3 2.390151 1_555
Ca1 Cl0 2.836938 1_554
Ca1 Cl1 2.969994 1_565
Ca1 Cl1 2.969994 1_655
Ca1 Cl1 3.053205 1_555
Fe0 O2 1.918765 1_665
Fe0 O3 1.983883 1_555
Fe0 O0 2.027487 1_655
Fe0 O0 2.027487 1_565
Fe0 O1 2.044113 1_555
Fe1 O1 1.918765 1_445
Fe1 O0 1.983883 1_555
Fe1 O3 2.027487 1_545
Fe1 O3 2.027487 1_455
Fe1 O2 2.044113 1_555
