# generated using pymatgen
data_RbEu3F10
_symmetry_space_group_name_H-M   'P 1'
_cell_length_a   8.50118279
_cell_length_b   8.50118279
_cell_length_c   8.50118279
_cell_angle_alpha   60.00000000
_cell_angle_beta   60.00000000
_cell_angle_gamma   60.00000000
_symmetry_Int_Tables_number   1
_chemical_formula_structural   RbEu3F10
_chemical_formula_sum   'Rb2 Eu6 F20'
_cell_volume   434.43325823
_cell_formula_units_Z   2
loop_
 _symmetry_equiv_pos_site_id
 _symmetry_equiv_pos_as_xyz
  1  'x, y, z'
loop_
 _atom_site_type_symbol
 _atom_site_label
 _atom_site_symmetry_multiplicity
 _atom_site_fract_x
 _atom_site_fract_y
 _atom_site_fract_z
 _atom_site_occupancy
  Rb  Rb0  1  0.75000000  0.75000000  0.75000000  1
  Rb  Rb1  1  0.25000000  0.25000000  0.25000000  1
  Eu  Eu0  1  0.23919700  0.23919700  0.76080300  1
  Eu  Eu1  1  0.23919700  0.76080300  0.76080300  1
  Eu  Eu2  1  0.76080300  0.23919700  0.23919700  1
  Eu  Eu3  1  0.23919700  0.76080300  0.23919700  1
  Eu  Eu4  1  0.76080300  0.23919700  0.76080300  1
  Eu  Eu5  1  0.76080300  0.76080300  0.23919700  1
  F  F0  1  0.88876900  0.33369200  0.88876900  1
  F  F1  1  0.11123100  0.11123100  0.66630800  1
  F  F2  1  0.66630800  0.11123100  0.11123100  1
  F  F3  1  0.11123100  0.11123100  0.11123100  1
  F  F4  1  0.33369200  0.88876900  0.88876900  1
  F  F5  1  0.88876900  0.88876900  0.88876900  1
  F  F6  1  0.88876900  0.88876900  0.33369200  1
  F  F7  1  0.11123100  0.66630800  0.11123100  1
  F  F8  1  0.16944200  0.83055800  0.50000000  1
  F  F9  1  0.50000000  0.83055800  0.16944200  1
  F  F10  1  0.16944200  0.50000000  0.50000000  1
  F  F11  1  0.50000000  0.50000000  0.83055800  1
  F  F12  1  0.50000000  0.50000000  0.16944200  1
  F  F13  1  0.50000000  0.83055800  0.50000000  1
  F  F14  1  0.16944200  0.50000000  0.83055800  1
  F  F15  1  0.83055800  0.50000000  0.50000000  1
  F  F16  1  0.50000000  0.16944200  0.50000000  1
  F  F17  1  0.83055800  0.50000000  0.16944200  1
  F  F18  1  0.50000000  0.16944200  0.83055800  1
  F  F19  1  0.83055800  0.16944200  0.50000000  1
loop_
_geom_bond_atom_site_label_1
_geom_bond_atom_site_label_2
_geom_bond_distance
_geom_bond_site_symmetry_2
Eu0 F14 2.295067 1_555
Eu0 F18 2.295067 1_555
Eu0 F10 2.295067 1_555
Eu0 F16 2.295067 1_555
Eu0 F1 2.437921 1_555
Eu0 F3 2.437927 1_556
Eu0 F0 2.437928 1_455
Eu0 F4 2.437928 1_545
Eu1 F11 2.295067 1_555
Eu1 F13 2.295067 1_555
Eu1 F8 2.295067 1_555
Eu1 F14 2.295067 1_555
Eu1 F4 2.437921 1_555
Eu1 F5 2.437927 1_455
Eu1 F1 2.437928 1_565
Eu1 F7 2.437928 1_556
Eu2 F19 2.295067 1_555
Eu2 F17 2.295067 1_555
Eu2 F16 2.295067 1_555
Eu2 F12 2.295067 1_555
Eu2 F2 2.437921 1_555
Eu2 F3 2.437927 1_655
Eu2 F6 2.437928 1_545
Eu2 F0 2.437928 1_554
Eu3 F9 2.295067 1_555
Eu3 F8 2.295067 1_555
Eu3 F10 2.295067 1_555
Eu3 F12 2.295067 1_555
Eu3 F7 2.437921 1_555
Eu3 F3 2.437927 1_565
Eu3 F4 2.437928 1_554
Eu3 F6 2.437928 1_455
Eu4 F11 2.295067 1_555
Eu4 F15 2.295067 1_555
Eu4 F18 2.295067 1_555
Eu4 F19 2.295067 1_555
Eu4 F0 2.437921 1_555
Eu4 F5 2.437927 1_545
Eu4 F2 2.437928 1_556
Eu4 F1 2.437928 1_655
Eu5 F15 2.295067 1_555
Eu5 F13 2.295067 1_555
Eu5 F9 2.295067 1_555
Eu5 F17 2.295067 1_555
Eu5 F6 2.437921 1_555
Eu5 F5 2.437927 1_554
Eu5 F2 2.437928 1_565
Eu5 F7 2.437928 1_655
F0 Rb0 2.889672 1_555
F1 Rb1 2.889672 1_555
F2 Rb1 2.889672 1_555
F3 Rb1 2.889665 1_555
F4 Rb0 2.889672 1_555
F5 Rb0 2.889665 1_555
F6 Rb0 2.889672 1_555
F7 Rb1 2.889672 1_555
F8 Rb0 3.332969 1_455
F8 Rb1 3.332969 1_565
F9 Rb0 3.332969 1_554
F9 Rb1 3.332969 1_565
F10 Rb1 3.332969 1_555
F10 Rb0 3.332969 1_455
F11 Rb0 3.332969 1_555
F11 Rb1 3.332969 1_556
F12 Rb0 3.332969 1_554
F12 Rb1 3.332969 1_555
F13 Rb0 3.332969 1_555
F13 Rb1 3.332969 1_565
F14 Rb0 3.332969 1_455
F14 Rb1 3.332969 1_556
F15 Rb0 3.332969 1_555
F15 Rb1 3.332969 1_655
F16 Rb0 3.332969 1_545
F16 Rb1 3.332969 1_555
F17 Rb0 3.332969 1_554
F17 Rb1 3.332969 1_655
F18 Rb0 3.332969 1_545
F18 Rb1 3.332969 1_556
F19 Rb0 3.332969 1_545
F19 Rb1 3.332969 1_655
