# generated using pymatgen
data_CuS4BrN4
_symmetry_space_group_name_H-M   'P 1'
_cell_length_a   12.39905000
_cell_length_b   7.17462200
_cell_length_c   9.39549945
_cell_angle_alpha   73.12894158
_cell_angle_beta   90.00000000
_cell_angle_gamma   90.00000000
_symmetry_Int_Tables_number   1
_chemical_formula_structural   CuS4BrN4
_chemical_formula_sum   'Cu4 S16 Br4 N16'
_cell_volume   799.83652073
_cell_formula_units_Z   4
loop_
 _symmetry_equiv_pos_site_id
 _symmetry_equiv_pos_as_xyz
  1  'x, y, z'
loop_
 _atom_site_type_symbol
 _atom_site_label
 _atom_site_symmetry_multiplicity
 _atom_site_fract_x
 _atom_site_fract_y
 _atom_site_fract_z
 _atom_site_occupancy
  Cu  Cu0  1  0.83210000  0.87187300  0.41986700  1
  Cu  Cu1  1  0.16790000  0.12812700  0.58013300  1
  Cu  Cu2  1  0.33210000  0.62812700  0.58013300  1
  Cu  Cu3  1  0.66790000  0.37187300  0.41986700  1
  S  S0  1  0.92327900  0.23920200  0.15170700  1
  S  S1  1  0.89314800  0.62457500  0.75870200  1
  S  S2  1  0.42327900  0.26079800  0.84829300  1
  S  S3  1  0.42512900  0.47776500  0.31072300  1
  S  S4  1  0.39314800  0.87542500  0.24129800  1
  S  S5  1  0.61695500  0.30985000  0.97764200  1
  S  S6  1  0.10685200  0.37542500  0.24129800  1
  S  S7  1  0.07672100  0.76079800  0.84829300  1
  S  S8  1  0.57487100  0.52223500  0.68927700  1
  S  S9  1  0.07487100  0.97776500  0.31072300  1
  S  S10  1  0.88304500  0.80985000  0.97764200  1
  S  S11  1  0.57672100  0.73920200  0.15170700  1
  S  S12  1  0.38304500  0.69015000  0.02235800  1
  S  S13  1  0.60685200  0.12457500  0.75870200  1
  S  S14  1  0.92512900  0.02223500  0.68927700  1
  S  S15  1  0.11695500  0.19015000  0.02235800  1
  Br  Br0  1  0.16180700  0.45387700  0.61416600  1
  Br  Br1  1  0.33819300  0.95387700  0.61416600  1
  Br  Br2  1  0.83819300  0.54612300  0.38583400  1
  Br  Br3  1  0.66180700  0.04612300  0.38583400  1
  N  N0  1  0.98728000  0.22852600  0.00401000  1
  N  N1  1  0.51272000  0.72852600  0.00401000  1
  N  N2  1  0.44557600  0.47131600  0.72117000  1
  N  N3  1  0.48728000  0.27147400  0.99599000  1
  N  N4  1  0.37788000  0.65987100  0.36588400  1
  N  N5  1  0.66475200  0.14272000  0.90867100  1
  N  N6  1  0.12212000  0.15987100  0.36588400  1
  N  N7  1  0.62212000  0.34012900  0.63411600  1
  N  N8  1  0.94557600  0.02868400  0.27883000  1
  N  N9  1  0.87788000  0.84012900  0.63411600  1
  N  N10  1  0.05442400  0.97131600  0.72117000  1
  N  N11  1  0.01272000  0.77147400  0.99599000  1
  N  N12  1  0.83524800  0.64272000  0.90867100  1
  N  N13  1  0.33524800  0.85728000  0.09132900  1
  N  N14  1  0.55442400  0.52868400  0.27883000  1
  N  N15  1  0.16475200  0.35728000  0.09132900  1
loop_
_geom_bond_atom_site_label_1
_geom_bond_atom_site_label_2
_geom_bond_distance
_geom_bond_site_symmetry_2
Cu0 N8 2.033712 1_565
Cu0 N9 2.039618 1_555
Cu1 N10 2.033712 1_545
Cu1 N6 2.039618 1_555
Cu2 N2 2.033712 1_555
Cu2 N4 2.039618 1_555
Cu3 N14 2.033712 1_555
Cu3 N7 2.039618 1_555
Br0 Cu2 2.427235 1_555
Br0 Cu1 2.450288 1_555
Br1 Cu1 2.427235 1_565
Br1 Cu2 2.450288 1_555
Br2 Cu3 2.427235 1_555
Br2 Cu0 2.450288 1_555
Br3 Cu0 2.427235 1_545
Br3 Cu3 2.450288 1_555
N0 S0 1.619556 1_555
N0 S15 1.631915 1_655
N1 S11 1.619556 1_555
N1 S12 1.631915 1_555
N2 S8 1.652197 1_555
N2 S2 1.654435 1_555
N3 S2 1.619556 1_555
N3 S5 1.631915 1_555
N4 S3 1.646784 1_555
N4 S4 1.657404 1_555
N5 S13 1.619933 1_555
N5 S5 1.630948 1_555
N6 S9 1.646784 1_545
N6 S6 1.657404 1_555
N7 S8 1.646784 1_555
N7 S13 1.657404 1_555
N8 S9 1.652197 1_645
N8 S0 1.654435 1_555
N9 S14 1.646784 1_565
N9 S1 1.657404 1_555
N10 S14 1.652197 1_465
N10 S7 1.654435 1_555
N11 S7 1.619556 1_555
N11 S10 1.631915 1_455
N12 S1 1.619933 1_555
N12 S10 1.630948 1_555
N13 S4 1.619933 1_555
N13 S12 1.630948 1_555
N14 S3 1.652197 1_555
N14 S11 1.654435 1_555
N15 S6 1.619933 1_555
N15 S15 1.630948 1_555
