# generated using pymatgen
data_Y4Si5Rh9
_symmetry_space_group_name_H-M   'P 1'
_cell_length_a   11.60630036
_cell_length_b   11.60630036
_cell_length_c   11.60630073
_cell_angle_alpha   27.46902595
_cell_angle_beta   27.46902595
_cell_angle_gamma   27.46902347
_symmetry_Int_Tables_number   1
_chemical_formula_structural   Y4Si5Rh9
_chemical_formula_sum   'Y4 Si5 Rh9'
_cell_volume   293.59737414
_cell_formula_units_Z   1
loop_
 _symmetry_equiv_pos_site_id
 _symmetry_equiv_pos_as_xyz
  1  'x, y, z'
loop_
 _atom_site_type_symbol
 _atom_site_label
 _atom_site_symmetry_multiplicity
 _atom_site_fract_x
 _atom_site_fract_y
 _atom_site_fract_z
 _atom_site_occupancy
  Y  Y0  1  0.94894349  0.94894349  0.94894349  1
  Y  Y1  1  0.85120362  0.85120362  0.85120362  1
  Y  Y2  1  0.14879638  0.14879638  0.14879638  1
  Y  Y3  1  0.05105651  0.05105651  0.05105651  1
  Si  Si0  1  0.27831763  0.27831763  0.27831763  1
  Si  Si1  1  0.50000000  0.50000000  0.50000000  1
  Si  Si2  1  0.38816311  0.38816311  0.38816311  1
  Si  Si3  1  0.72168237  0.72168237  0.72168237  1
  Si  Si4  1  0.61183689  0.61183689  0.61183689  1
  Rh  Rh0  1  0.60774068  0.60774068  0.10892527  1
  Rh  Rh1  1  0.89107473  0.39225932  0.39225932  1
  Rh  Rh2  1  0.50000000  0.00000000  0.50000000  1
  Rh  Rh3  1  0.39225932  0.89107473  0.39225932  1
  Rh  Rh4  1  0.50000000  0.50000000  0.00000000  1
  Rh  Rh5  1  0.10892527  0.60774068  0.60774068  1
  Rh  Rh6  1  -0.00000000  0.50000000  0.50000000  1
  Rh  Rh7  1  0.39225932  0.39225932  0.89107473  1
  Rh  Rh8  1  0.60774068  0.10892527  0.60774068  1
loop_
_geom_bond_atom_site_label_1
_geom_bond_atom_site_label_2
_geom_bond_distance
_geom_bond_site_symmetry_2
Y0 Y1 3.272805 1_555
Y0 Y3 3.419240 1_666
Y2 Y3 3.272805 1_555
Si0 Y0 3.184661 1_544
Si0 Y0 3.184661 1_454
Si0 Y0 3.184661 1_445
Si2 Y3 3.184408 1_655
Si2 Y3 3.184408 1_565
Si2 Y3 3.184408 1_556
Si3 Y3 3.184661 1_566
Si3 Y3 3.184661 1_656
Si3 Y3 3.184661 1_665
Si4 Y0 3.184408 1_545
Si4 Y0 3.184408 1_455
Si4 Y0 3.184408 1_554
Rh0 Si2 2.388543 1_555
Rh0 Si3 2.388920 1_554
Rh0 Si1 2.521979 1_555
Rh0 Rh5 2.749078 1_555
Rh0 Rh8 2.749078 1_555
Rh0 Rh8 2.762135 1_564
Rh0 Rh5 2.762135 1_654
Rh0 Y1 3.014627 1_554
Rh0 Y2 3.073617 1_655
Rh0 Y2 3.073617 1_565
Rh0 Y3 3.353563 1_565
Rh0 Y3 3.353563 1_655
Rh1 Si4 2.388543 1_555
Rh1 Si0 2.388920 1_655
Rh1 Si1 2.521978 1_555
Rh1 Rh3 2.749078 1_555
Rh1 Rh7 2.749078 1_555
Rh1 Rh3 2.762135 1_645
Rh1 Rh7 2.762135 1_654
Rh1 Y2 3.014627 1_655
Rh1 Y1 3.073617 1_545
Rh1 Y1 3.073618 1_554
Rh1 Y0 3.353563 1_554
Rh1 Y0 3.353563 1_545
Rh2 Si2 2.429382 1_555
Rh2 Si4 2.429382 1_545
Rh2 Si0 2.434091 1_555
Rh2 Si3 2.434091 1_545
Rh2 Y0 3.242864 1_445
Rh2 Y3 3.242864 1_655
Rh2 Y3 3.242864 1_556
Rh2 Y0 3.242864 1_544
Rh3 Si4 2.388543 1_555
Rh3 Si0 2.388920 1_565
Rh3 Si1 2.521978 1_555
Rh3 Rh7 2.749078 1_555
Rh3 Rh7 2.762135 1_564
Rh3 Y2 3.014627 1_565
Rh3 Y1 3.073617 1_455
Rh3 Y1 3.073618 1_554
Rh3 Y0 3.353563 1_554
Rh3 Y0 3.353563 1_455
Rh4 Si2 2.429382 1_555
Rh4 Si4 2.429382 1_554
Rh4 Si0 2.434091 1_555
Rh4 Si3 2.434091 1_554
Rh4 Y3 3.242864 1_655
Rh4 Y3 3.242864 1_565
Rh4 Y0 3.242864 1_544
Rh4 Y0 3.242864 1_454
Rh5 Si2 2.388543 1_555
Rh5 Si3 2.388920 1_455
Rh5 Si1 2.521978 1_555
Rh5 Rh8 2.749078 1_555
Rh5 Rh8 2.762135 1_465
Rh5 Y1 3.014627 1_455
Rh5 Y2 3.073617 1_565
Rh5 Y2 3.073618 1_556
Rh5 Y3 3.353563 1_556
Rh5 Y3 3.353563 1_565
Rh6 Si2 2.429382 1_555
Rh6 Si4 2.429382 1_455
Rh6 Si0 2.434091 1_555
Rh6 Si3 2.434091 1_455
Rh6 Y0 3.242864 1_445
Rh6 Y3 3.242864 1_565
Rh6 Y0 3.242864 1_454
Rh6 Y3 3.242864 1_556
Rh7 Si4 2.388543 1_555
Rh7 Si0 2.388920 1_556
Rh7 Si1 2.521979 1_555
Rh7 Y2 3.014627 1_556
Rh7 Y1 3.073617 1_455
Rh7 Y1 3.073617 1_545
Rh7 Y0 3.353563 1_455
Rh7 Y0 3.353563 1_545
Rh8 Si2 2.388543 1_555
Rh8 Si3 2.388920 1_545
Rh8 Si1 2.521978 1_555
Rh8 Y1 3.014627 1_545
Rh8 Y2 3.073617 1_655
Rh8 Y2 3.073618 1_556
Rh8 Y3 3.353563 1_556
Rh8 Y3 3.353563 1_655
