# generated using pymatgen
data_Cu3Sn
_symmetry_space_group_name_H-M   'P 1'
_cell_length_a   4.32368554
_cell_length_b   4.76457479
_cell_length_c   5.43252420
_cell_angle_alpha   90.00000000
_cell_angle_beta   90.00000000
_cell_angle_gamma   90.00000000
_symmetry_Int_Tables_number   1
_chemical_formula_structural   Cu3Sn
_chemical_formula_sum   'Cu6 Sn2'
_cell_volume   111.91284040
_cell_formula_units_Z   2
loop_
 _symmetry_equiv_pos_site_id
 _symmetry_equiv_pos_as_xyz
  1  'x, y, z'
loop_
 _atom_site_type_symbol
 _atom_site_label
 _atom_site_symmetry_multiplicity
 _atom_site_fract_x
 _atom_site_fract_y
 _atom_site_fract_z
 _atom_site_occupancy
  Cu  Cu0  1  0.75000000  0.69900012  0.25000000  1
  Cu  Cu1  1  0.25000000  0.84419000  0.00051974  1
  Cu  Cu2  1  0.75000000  0.15581000  0.99948026  1
  Cu  Cu3  1  0.25000000  0.84419000  0.49948026  1
  Cu  Cu4  1  0.75000000  0.15581000  0.50051974  1
  Cu  Cu5  1  0.25000000  0.30100088  0.75000000  1
  Sn  Sn0  1  0.75000000  0.65881991  0.75000000  1
  Sn  Sn1  1  0.25000000  0.34118009  0.25000000  1
loop_
_geom_bond_atom_site_label_1
_geom_bond_atom_site_label_2
_geom_bond_distance
_geom_bond_site_symmetry_2
Cu0 Cu2 2.566977 1_564
Cu0 Cu4 2.566977 1_565
Cu0 Cu3 2.643665 1_555
Cu0 Cu1 2.643665 1_555
Cu0 Cu1 2.643665 1_655
Cu0 Cu3 2.643665 1_655
Cu0 Sn0 2.723000 1_555
Cu0 Sn0 2.723000 1_554
Cu0 Sn1 2.753200 1_555
Cu0 Sn1 2.753200 1_655
Cu0 Cu2 2.924090 1_554
Cu0 Cu4 2.924090 1_555
Cu1 Cu5 2.566981 1_564
Cu1 Cu2 2.622602 1_564
Cu1 Cu2 2.622602 1_464
Cu1 Sn0 2.702928 1_554
Cu1 Sn0 2.702928 1_454
Cu1 Cu3 2.710615 1_555
Cu1 Cu3 2.721909 1_554
Cu1 Sn1 2.728375 1_565
Cu1 Sn1 2.753305 1_555
Cu1 Cu5 2.924086 1_554
Cu2 Cu5 2.643666 1_655
Cu2 Cu5 2.643666 1_555
Cu2 Sn1 2.702928 1_656
Cu2 Sn1 2.702928 1_556
Cu2 Cu4 2.710615 1_555
Cu2 Cu4 2.721909 1_556
Cu2 Sn0 2.728375 1_545
Cu2 Sn0 2.753305 1_555
Cu3 Cu5 2.566981 1_565
Cu3 Cu4 2.622602 1_565
Cu3 Cu4 2.622602 1_465
Cu3 Sn0 2.702928 1_455
Cu3 Sn0 2.702928 1_555
Cu3 Sn1 2.728375 1_565
Cu3 Sn1 2.753305 1_555
Cu3 Cu5 2.924086 1_555
Cu4 Cu5 2.643666 1_655
Cu4 Cu5 2.643666 1_555
Cu4 Sn1 2.702928 1_655
Cu4 Sn1 2.702928 1_555
Cu4 Sn0 2.728375 1_545
Cu4 Sn0 2.753305 1_555
Cu5 Sn1 2.723000 1_556
Cu5 Sn1 2.723000 1_555
Cu5 Sn0 2.753198 1_455
Cu5 Sn0 2.753198 1_555
