# generated using pymatgen
data_LiGeBO4
_symmetry_space_group_name_H-M   'P 1'
_cell_length_a   5.69259167
_cell_length_b   5.64853478
_cell_length_c   3.84024358
_cell_angle_alpha   70.82736553
_cell_angle_beta   69.59035068
_cell_angle_gamma   39.58228379
_symmetry_Int_Tables_number   1
_chemical_formula_structural   LiGeBO4
_chemical_formula_sum   'Li1 Ge1 B1 O4'
_cell_volume   73.37306110
_cell_formula_units_Z   1
loop_
 _symmetry_equiv_pos_site_id
 _symmetry_equiv_pos_as_xyz
  1  'x, y, z'
loop_
 _atom_site_type_symbol
 _atom_site_label
 _atom_site_symmetry_multiplicity
 _atom_site_fract_x
 _atom_site_fract_y
 _atom_site_fract_z
 _atom_site_occupancy
  Li  Li0  1  0.99261100  0.99261100  0.00738900  1
  Ge  Ge0  1  0.72883300  0.72883300  0.27116700  1
  B  B0  1  0.25223700  0.25223700  0.74776300  1
  O  O0  1  0.94081200  0.36063000  0.63937000  1
  O  O1  1  0.56493300  0.10794700  0.43506700  1
  O  O2  1  0.36063000  0.94081200  0.05918800  1
  O  O3  1  0.10794700  0.56493300  0.89205300  1
loop_
_geom_bond_atom_site_label_1
_geom_bond_atom_site_label_2
_geom_bond_distance
_geom_bond_site_symmetry_2
Li0 O0 1.954920 1_564
Li0 O2 1.954920 1_655
Li0 O3 2.125620 1_654
Li0 O1 2.125620 1_565
Ge0 O2 1.780732 1_555
Ge0 O0 1.780732 1_555
Ge0 O3 1.802336 1_654
Ge0 O1 1.802336 1_565
B0 O1 1.480055 1_555
B0 O3 1.480055 1_555
B0 O0 1.537919 1_455
B0 O2 1.537919 1_546
