# generated using pymatgen
data_W2NCl9
_symmetry_space_group_name_H-M   'P 1'
_cell_length_a   16.92367190
_cell_length_b   8.77888572
_cell_length_c   12.34208865
_cell_angle_alpha   45.05555871
_cell_angle_beta   90.00000000
_cell_angle_gamma   90.00000000
_symmetry_Int_Tables_number   1
_chemical_formula_structural   W2NCl9
_chemical_formula_sum   'W8 N4 Cl36'
_cell_volume   1297.86157817
_cell_formula_units_Z   4
loop_
 _symmetry_equiv_pos_site_id
 _symmetry_equiv_pos_as_xyz
  1  'x, y, z'
loop_
 _atom_site_type_symbol
 _atom_site_label
 _atom_site_symmetry_multiplicity
 _atom_site_fract_x
 _atom_site_fract_y
 _atom_site_fract_z
 _atom_site_occupancy
  W  W0  1  0.18856960  0.18818738  0.46103200  1
  W  W1  1  0.31143040  0.18818738  0.96103200  1
  W  W2  1  0.68856960  0.81181262  0.03896800  1
  W  W3  1  0.90748862  0.81416232  0.04271489  1
  W  W4  1  0.09251138  0.18583768  0.95728511  1
  W  W5  1  0.59251138  0.81416232  0.54271489  1
  W  W6  1  0.81143040  0.81181262  0.53896800  1
  W  W7  1  0.40748862  0.18583768  0.45728511  1
  N  N0  1  0.69509102  0.81695616  0.54161583  1
  N  N1  1  0.19509102  0.18304384  0.95838417  1
  N  N2  1  0.30490898  0.18304384  0.45838417  1
  N  N3  1  0.80490898  0.81695616  0.04161583  1
  Cl  Cl0  1  0.81168783  0.13021967  0.47299249  1
  Cl  Cl1  1  0.44639767  0.20227288  0.96422081  1
  Cl  Cl2  1  0.56985017  0.49708268  0.61540569  1
  Cl  Cl3  1  0.43014983  0.50291732  0.38459431  1
  Cl  Cl4  1  0.05360233  0.20227288  0.46422081  1
  Cl  Cl5  1  0.19000270  0.37124255  0.20759226  1
  Cl  Cl6  1  0.19669637  -0.00010513  0.71506378  1
  Cl  Cl7  1  0.18831217  0.86978033  0.52700751  1
  Cl  Cl8  1  0.79867058  0.49356916  0.60653766  1
  Cl  Cl9  1  0.07491812  0.84860600  0.03475952  1
  Cl  Cl10  1  0.29867058  0.50643084  0.89346234  1
  Cl  Cl11  1  0.20132942  0.50643084  0.39346234  1
  Cl  Cl12  1  0.57514456  0.00014458  0.29043787  1
  Cl  Cl13  1  0.69000270  0.62875745  0.29240774  1
  Cl  Cl14  1  0.30999730  0.37124255  0.70759226  1
  Cl  Cl15  1  0.57539246  0.65138963  0.78964444  1
  Cl  Cl16  1  0.69669637  0.00010513  0.78493622  1
  Cl  Cl17  1  0.92485544  0.00014458  0.79043787  1
  Cl  Cl18  1  0.57491812  0.15139400  0.46524048  1
  Cl  Cl19  1  0.92460754  0.65138963  0.28964444  1
  Cl  Cl20  1  0.42460754  0.34861037  0.21035556  1
  Cl  Cl21  1  0.06985017  0.50291732  0.88459431  1
  Cl  Cl22  1  0.70132942  0.49356916  0.10653766  1
  Cl  Cl23  1  0.42508188  0.84860600  0.53475952  1
  Cl  Cl24  1  0.55360233  0.79772712  0.03577919  1
  Cl  Cl25  1  0.94639767  0.79772712  0.53577919  1
  Cl  Cl26  1  0.80330363  0.00010513  0.28493622  1
  Cl  Cl27  1  0.68831217  0.13021967  0.97299249  1
  Cl  Cl28  1  0.80999730  0.62875745  0.79240774  1
  Cl  Cl29  1  0.42485544  -0.00014458  0.70956213  1
  Cl  Cl30  1  0.07539246  0.34861037  0.71035556  1
  Cl  Cl31  1  0.07514456  -0.00014458  0.20956213  1
  Cl  Cl32  1  0.92508188  0.15139400  0.96524048  1
  Cl  Cl33  1  0.31168783  0.86978033  0.02700751  1
  Cl  Cl34  1  0.30330363  -0.00010513  0.21506378  1
  Cl  Cl35  1  0.93014983  0.49708268  0.11540569  1
loop_
_geom_bond_atom_site_label_1
_geom_bond_atom_site_label_2
_geom_bond_distance
_geom_bond_site_symmetry_2
N0 W5 1.736115 1_555
N0 W6 1.970207 1_555
N1 W4 1.736115 1_555
N1 W1 1.970207 1_555
N2 W7 1.736115 1_555
N2 W0 1.970207 1_555
N3 W3 1.736115 1_555
N3 W2 1.970207 1_555
Cl0 W6 2.293633 1_545
Cl1 W1 2.289327 1_555
Cl2 W5 2.274225 1_555
Cl3 W7 2.274225 1_555
Cl4 W0 2.289327 1_555
Cl5 W0 2.294640 1_555
Cl6 W0 2.293273 1_555
Cl7 W0 2.293633 1_565
Cl8 W6 2.292544 1_555
Cl9 W4 2.401689 1_564
Cl9 W3 2.843936 1_455
Cl10 W1 2.292544 1_555
Cl11 W0 2.292544 1_555
Cl12 W5 2.294426 1_545
Cl13 W2 2.294640 1_555
Cl14 W1 2.294640 1_555
Cl15 W5 2.293698 1_555
Cl16 W2 2.293273 1_546
Cl17 W3 2.294426 1_546
Cl18 W5 2.401689 1_545
Cl18 W7 2.843936 1_555
Cl19 W3 2.293698 1_555
Cl20 W7 2.293698 1_555
Cl21 W4 2.274225 1_555
Cl22 W2 2.292544 1_555
Cl23 W7 2.401689 1_565
Cl23 W5 2.843936 1_555
Cl24 W2 2.289327 1_555
Cl25 W6 2.289327 1_555
Cl26 W6 2.293273 1_545
Cl27 W2 2.293633 1_546
Cl28 W6 2.294640 1_555
Cl29 W7 2.294426 1_555
Cl30 W4 2.293698 1_555
Cl31 W4 2.294426 1_554
Cl32 W3 2.401689 1_546
Cl32 W4 2.843936 1_655
Cl33 W1 2.293633 1_564
Cl34 W1 2.293273 1_554
Cl35 W3 2.274225 1_555
