# generated using pymatgen
data_NdSiRu
_symmetry_space_group_name_H-M   'P 1'
_cell_length_a   4.22194715
_cell_length_b   4.22194715
_cell_length_c   6.93978618
_cell_angle_alpha   90.00000000
_cell_angle_beta   90.00000000
_cell_angle_gamma   90.00000000
_symmetry_Int_Tables_number   1
_chemical_formula_structural   NdSiRu
_chemical_formula_sum   'Nd2 Si2 Ru2'
_cell_volume   123.70056259
_cell_formula_units_Z   2
loop_
 _symmetry_equiv_pos_site_id
 _symmetry_equiv_pos_as_xyz
  1  'x, y, z'
loop_
 _atom_site_type_symbol
 _atom_site_label
 _atom_site_symmetry_multiplicity
 _atom_site_fract_x
 _atom_site_fract_y
 _atom_site_fract_z
 _atom_site_occupancy
  Nd  Nd0  1  0.75000000  0.75000000  0.31849090  1
  Nd  Nd1  1  0.25000000  0.25000000  0.68150910  1
  Si  Si0  1  0.75000000  0.75000000  0.82833210  1
  Si  Si1  1  0.25000000  0.25000000  0.17166790  1
  Ru  Ru0  1  0.75000000  0.25000000  -0.00000000  1
  Ru  Ru1  1  0.25000000  0.75000000  -0.00000000  1
loop_
_geom_bond_atom_site_label_1
_geom_bond_atom_site_label_2
_geom_bond_distance
_geom_bond_site_symmetry_2
Nd0 Ru0 3.056379 1_555
Nd0 Ru0 3.056379 1_565
Nd0 Ru1 3.056379 1_655
Nd0 Ru1 3.056379 1_555
Nd0 Si1 3.154460 1_565
Nd0 Si1 3.154460 1_555
Nd0 Si1 3.154460 1_655
Nd0 Si1 3.154460 1_665
Nd0 Si0 3.538189 1_555
Nd1 Ru1 3.056379 1_556
Nd1 Ru1 3.056379 1_546
Nd1 Ru0 3.056379 1_456
Nd1 Ru0 3.056379 1_556
Nd1 Si0 3.154460 1_455
Nd1 Si0 3.154460 1_555
Nd1 Si0 3.154460 1_445
Nd1 Si0 3.154460 1_545
Nd1 Si1 3.538189 1_555
Ru0 Si1 2.423942 1_555
Ru0 Si1 2.423942 1_655
Ru0 Si0 2.423942 1_544
Ru0 Si0 2.423942 1_554
Ru1 Si1 2.423942 1_555
Ru1 Si1 2.423942 1_565
Ru1 Si0 2.423942 1_454
Ru1 Si0 2.423942 1_554
