# generated using pymatgen
data_Cs2Mo15S19
_symmetry_space_group_name_H-M   'P 1'
_cell_length_a   19.80083274
_cell_length_b   19.80083274
_cell_length_c   19.80083350
_cell_angle_alpha   27.88622602
_cell_angle_beta   27.88622602
_cell_angle_gamma   27.88622575
_symmetry_Int_Tables_number   1
_chemical_formula_structural   Cs2Mo15S19
_chemical_formula_sum   'Cs4 Mo30 S38'
_cell_volume   1499.78306421
_cell_formula_units_Z   2
loop_
 _symmetry_equiv_pos_site_id
 _symmetry_equiv_pos_as_xyz
  1  'x, y, z'
loop_
 _atom_site_type_symbol
 _atom_site_label
 _atom_site_symmetry_multiplicity
 _atom_site_fract_x
 _atom_site_fract_y
 _atom_site_fract_z
 _atom_site_occupancy
  Cs  Cs0  1  0.38656300  0.38656300  0.38656300  1
  Cs  Cs1  1  0.11343700  0.11343700  0.11343700  1
  Cs  Cs2  1  0.88656300  0.88656300  0.88656300  1
  Cs  Cs3  1  0.61343700  0.61343700  0.61343700  1
  Mo  Mo0  1  0.78301300  0.95892800  0.63004800  1
  Mo  Mo1  1  0.99734600  0.13416400  0.80653600  1
  Mo  Mo2  1  0.00265400  0.86583600  0.19346400  1
  Mo  Mo3  1  0.28301300  0.13004800  0.45892800  1
  Mo  Mo4  1  0.95892800  0.63004800  0.78301300  1
  Mo  Mo5  1  0.21698700  0.04107200  0.36995200  1
  Mo  Mo6  1  0.41352900  0.08647100  0.25000000  1
  Mo  Mo7  1  0.36583600  0.50265400  0.69346400  1
  Mo  Mo8  1  0.25000000  0.41352900  0.08647100  1
  Mo  Mo9  1  0.54107200  0.71698700  0.86995200  1
  Mo  Mo10  1  0.91352900  0.75000000  0.58647100  1
  Mo  Mo11  1  0.19346400  0.00265400  0.86583600  1
  Mo  Mo12  1  0.71698700  0.86995200  0.54107200  1
  Mo  Mo13  1  0.13416400  0.80653600  0.99734600  1
  Mo  Mo14  1  0.45892800  0.28301300  0.13004800  1
  Mo  Mo15  1  0.08647100  0.25000000  0.41352900  1
  Mo  Mo16  1  0.86583600  0.19346400  0.00265400  1
  Mo  Mo17  1  0.13004800  0.45892800  0.28301300  1
  Mo  Mo18  1  0.63004800  0.78301300  0.95892800  1
  Mo  Mo19  1  0.49734600  0.30653600  0.63416400  1
  Mo  Mo20  1  0.58647100  0.91352900  0.75000000  1
  Mo  Mo21  1  0.36995200  0.21698700  0.04107200  1
  Mo  Mo22  1  0.80653600  0.99734600  0.13416400  1
  Mo  Mo23  1  0.30653600  0.63416400  0.49734600  1
  Mo  Mo24  1  0.69346400  0.36583600  0.50265400  1
  Mo  Mo25  1  0.75000000  0.58647100  0.91352900  1
  Mo  Mo26  1  0.63416400  0.49734600  0.30653600  1
  Mo  Mo27  1  0.50265400  0.69346400  0.36583600  1
  Mo  Mo28  1  0.86995200  0.54107200  0.71698700  1
  Mo  Mo29  1  0.04107200  0.36995200  0.21698700  1
  S  S0  1  0.25000000  0.95092200  0.54907800  1
  S  S1  1  0.42835900  0.01419900  0.69932700  1
  S  S2  1  0.51419900  0.92835900  0.19932700  1
  S  S3  1  0.79527100  0.20410200  0.45149900  1
  S  S4  1  0.95149900  0.70410200  0.29527100  1
  S  S5  1  0.69932700  0.42835900  0.01419900  1
  S  S6  1  0.32297700  0.32297700  0.32297700  1
  S  S7  1  0.70410200  0.29527100  0.95149900  1
  S  S8  1  0.04907800  0.45092200  0.75000000  1
  S  S9  1  0.92835900  0.19932700  0.51419900  1
  S  S10  1  0.75000000  0.04907800  0.45092200  1
  S  S11  1  0.80067300  0.48580100  0.07164100  1
  S  S12  1  0.82297700  0.82297700  0.82297700  1
  S  S13  1  0.44703600  0.44703600  0.44703600  1
  S  S14  1  0.94703600  0.94703600  0.94703600  1
  S  S15  1  0.29589800  0.70472900  0.04850100  1
  S  S16  1  0.48580100  0.07164100  0.80067300  1
  S  S17  1  0.01419900  0.69932700  0.42835900  1
  S  S18  1  0.79589800  0.54850100  0.20472900  1
  S  S19  1  0.54850100  0.20472900  0.79589800  1
  S  S20  1  0.55296400  0.55296400  0.55296400  1
  S  S21  1  0.05296400  0.05296400  0.05296400  1
  S  S22  1  0.95092200  0.54907800  0.25000000  1
  S  S23  1  0.20410200  0.45149900  0.79527100  1
  S  S24  1  0.04850100  0.29589800  0.70472900  1
  S  S25  1  0.57164100  0.98580100  0.30067300  1
  S  S26  1  0.98580100  0.30067300  0.57164100  1
  S  S27  1  0.20472900  0.79589800  0.54850100  1
  S  S28  1  0.54907800  0.25000000  0.95092200  1
  S  S29  1  0.30067300  0.57164100  0.98580100  1
  S  S30  1  0.67702300  0.67702300  0.67702300  1
  S  S31  1  0.70472900  0.04850100  0.29589800  1
  S  S32  1  0.07164100  0.80067300  0.48580100  1
  S  S33  1  0.17702300  0.17702300  0.17702300  1
  S  S34  1  0.19932700  0.51419900  0.92835900  1
  S  S35  1  0.29527100  0.95149900  0.70410200  1
  S  S36  1  0.45092200  0.75000000  0.04907800  1
  S  S37  1  0.45149900  0.79527100  0.20410200  1
loop_
_geom_bond_atom_site_label_1
_geom_bond_atom_site_label_2
_geom_bond_distance
_geom_bond_site_symmetry_2
Cs0 S17 3.309945 1_555
Cs0 S1 3.309945 1_555
Cs0 S5 3.309945 1_555
Cs0 S13 3.450401 1_555
Cs0 S6 3.628019 1_555
Cs0 S36 3.770171 1_555
Cs0 S10 3.770171 1_555
Cs0 S8 3.770171 1_555
Cs0 S24 3.797679 1_555
Cs0 S31 3.797679 1_555
Cs0 S15 3.797679 1_555
Cs1 S11 3.309945 1_455
Cs1 S16 3.309945 1_554
Cs1 S32 3.309945 1_545
Cs1 S21 3.450401 1_555
Cs1 S33 3.628019 1_555
Cs1 S10 3.770171 1_455
Cs1 S36 3.770171 1_545
Cs1 S8 3.770171 1_554
Cs1 S23 3.797679 1_554
Cs1 S37 3.797679 1_545
Cs1 S3 3.797679 1_455
Cs2 S34 3.309945 1_655
Cs2 S2 3.309945 1_556
Cs2 S9 3.309945 1_565
Cs2 S14 3.450401 1_555
Cs2 S12 3.628019 1_555
Cs2 S0 3.770171 1_655
Cs2 S28 3.770171 1_565
Cs2 S22 3.770171 1_556
Cs2 S18 3.797679 1_556
Cs2 S19 3.797679 1_565
Cs2 S27 3.797679 1_655
Cs3 S26 3.309945 1_555
Cs3 S25 3.309945 1_555
Cs3 S29 3.309945 1_555
Cs3 S20 3.450401 1_555
Cs3 S30 3.628019 1_555
Cs3 S28 3.770171 1_555
Cs3 S0 3.770171 1_555
Cs3 S22 3.770171 1_555
Cs3 S4 3.797679 1_555
Cs3 S35 3.797679 1_555
Cs3 S7 3.797679 1_555
Mo0 S12 2.421895 1_555
Mo0 S32 2.438656 1_655
Mo0 S16 2.447918 1_565
Mo0 S3 2.520193 1_565
Mo0 S10 2.652828 1_565
Mo1 S14 2.421715 1_545
Mo1 S26 2.448360 1_555
Mo1 S24 2.461308 1_655
Mo1 S35 2.468785 1_645
Mo1 S7 2.471948 1_555
Mo2 S21 2.421715 1_565
Mo2 S17 2.448360 1_555
Mo2 S4 2.461308 1_455
Mo2 S31 2.468785 1_465
Mo2 S15 2.471948 1_555
Mo3 S6 2.421895 1_555
Mo3 S25 2.438656 1_545
Mo3 S26 2.447918 1_455
Mo3 S35 2.520193 1_545
Mo3 S0 2.652828 1_545
Mo4 S12 2.421895 1_555
Mo4 S11 2.438656 1_556
Mo4 S32 2.447918 1_655
Mo4 S23 2.520193 1_655
Mo4 S8 2.652828 1_655
Mo5 S33 2.421895 1_555
Mo5 S9 2.438656 1_455
Mo5 S2 2.447918 1_545
Mo5 S27 2.520193 1_545
Mo5 S0 2.652828 1_545
Mo6 S25 2.401499 1_545
Mo6 S2 2.401499 1_545
Mo6 S0 2.475160 1_545
Mo6 S28 2.475160 1_554
Mo7 S20 2.421715 1_555
Mo7 S34 2.448360 1_555
Mo7 S23 2.461308 1_555
Mo7 S19 2.468785 1_555
Mo7 S27 2.471948 1_555
Mo8 S29 2.401499 1_554
Mo8 S34 2.401499 1_554
Mo8 S28 2.475160 1_554
Mo8 S22 2.475160 1_455
Mo9 S30 2.421895 1_555
Mo9 S5 2.438656 1_556
Mo9 S1 2.447918 1_565
Mo9 S15 2.520193 1_556
Mo9 S36 2.652828 1_556
Mo10 S32 2.401499 1_655
Mo10 S17 2.401499 1_655
Mo10 S10 2.475160 1_565
Mo10 S8 2.475160 1_655
Mo11 S21 2.421716 1_556
Mo11 S1 2.448359 1_555
Mo11 S35 2.461308 1_545
Mo11 S15 2.468785 1_546
Mo11 S24 2.471948 1_555
Mo12 S30 2.421895 1_555
Mo12 S1 2.438656 1_565
Mo12 S17 2.447918 1_655
Mo12 S31 2.520193 1_565
Mo12 S10 2.652828 1_565
Mo13 S14 2.421716 1_455
Mo13 S29 2.448360 1_555
Mo13 S15 2.461308 1_556
Mo13 S4 2.468785 1_456
Mo13 S35 2.471948 1_555
Mo14 S6 2.421895 1_555
Mo14 S29 2.438656 1_554
Mo14 S25 2.447918 1_545
Mo14 S7 2.520193 1_554
Mo14 S28 2.652828 1_554
Mo15 S9 2.401499 1_455
Mo15 S26 2.401499 1_455
Mo15 S0 2.475160 1_545
Mo15 S22 2.475160 1_455
Mo16 S21 2.421716 1_655
Mo16 S5 2.448360 1_555
Mo16 S7 2.461308 1_554
Mo16 S24 2.468785 1_654
Mo16 S31 2.471948 1_555
Mo17 S6 2.421895 1_555
Mo17 S26 2.438656 1_455
Mo17 S29 2.447918 1_554
Mo17 S4 2.520193 1_455
Mo17 S22 2.652828 1_455
Mo18 S12 2.421895 1_555
Mo18 S16 2.438656 1_565
Mo18 S11 2.447918 1_556
Mo18 S37 2.520193 1_556
Mo18 S36 2.652828 1_556
Mo19 S13 2.421716 1_555
Mo19 S16 2.448359 1_555
Mo19 S19 2.461308 1_555
Mo19 S3 2.468785 1_555
Mo19 S23 2.471948 1_555
Mo20 S1 2.401499 1_565
Mo20 S16 2.401499 1_565
Mo20 S36 2.475160 1_556
Mo20 S10 2.475160 1_565
Mo21 S33 2.421895 1_555
Mo21 S2 2.438656 1_545
Mo21 S34 2.447918 1_554
Mo21 S19 2.520193 1_554
Mo21 S28 2.652828 1_554
Mo22 S14 2.421716 1_554
Mo22 S25 2.448359 1_555
Mo22 S31 2.461308 1_565
Mo22 S7 2.468785 1_564
Mo22 S4 2.471948 1_555
Mo23 S13 2.421716 1_555
Mo23 S32 2.448360 1_555
Mo23 S27 2.461308 1_555
Mo23 S23 2.468785 1_555
Mo23 S37 2.471948 1_555
Mo24 S20 2.421716 1_555
Mo24 S9 2.448360 1_555
Mo24 S3 2.461308 1_555
Mo24 S18 2.468785 1_555
Mo24 S19 2.471948 1_555
Mo25 S5 2.401499 1_556
Mo25 S11 2.401499 1_556
Mo25 S36 2.475160 1_556
Mo25 S8 2.475160 1_655
Mo26 S13 2.421715 1_555
Mo26 S11 2.448360 1_555
Mo26 S18 2.461308 1_555
Mo26 S37 2.468785 1_555
Mo26 S3 2.471948 1_555
Mo27 S20 2.421716 1_555
Mo27 S2 2.448359 1_555
Mo27 S37 2.461308 1_555
Mo27 S27 2.468785 1_555
Mo27 S18 2.471948 1_555
Mo28 S30 2.421895 1_555
Mo28 S17 2.438656 1_655
Mo28 S5 2.447918 1_556
Mo28 S24 2.520193 1_655
Mo28 S8 2.652828 1_655
Mo29 S33 2.421895 1_555
Mo29 S34 2.438656 1_554
Mo29 S9 2.447918 1_455
Mo29 S18 2.520193 1_455
Mo29 S22 2.652828 1_455
