# generated using pymatgen
data_Rb2Ti6O13
_symmetry_space_group_name_H-M   'P 1'
_cell_length_a   8.21556107
_cell_length_b   8.21556107
_cell_length_c   9.13042308
_cell_angle_alpha   79.87910145
_cell_angle_beta   79.87910145
_cell_angle_gamma   26.89395159
_symmetry_Int_Tables_number   1
_chemical_formula_structural   Rb2Ti6O13
_chemical_formula_sum   'Rb2 Ti6 O13'
_cell_volume   274.17247622
_cell_formula_units_Z   1
loop_
 _symmetry_equiv_pos_site_id
 _symmetry_equiv_pos_as_xyz
  1  'x, y, z'
loop_
 _atom_site_type_symbol
 _atom_site_label
 _atom_site_symmetry_multiplicity
 _atom_site_fract_x
 _atom_site_fract_y
 _atom_site_fract_z
 _atom_site_occupancy
  Rb  Rb0  1  0.54484172  0.54484172  0.25044221  1
  Rb  Rb1  1  0.45515828  0.45515828  0.74955779  1
  Ti  Ti0  1  0.88544913  0.88544913  0.09464204  1
  Ti  Ti1  1  0.11455087  0.11455087  0.90535796  1
  Ti  Ti2  1  0.82566224  0.82566224  0.43696408  1
  Ti  Ti3  1  0.17433776  0.17433776  0.56303592  1
  Ti  Ti4  1  0.76573463  0.76573463  0.77929659  1
  Ti  Ti5  1  0.23426537  0.23426537  0.22070341  1
  O  O0  1  -0.00000000  -0.00000000  0.00000000  1
  O  O1  1  0.76172205  0.76172205  0.23881164  1
  O  O2  1  0.23827795  0.23827795  0.76118836  1
  O  O3  1  0.91800172  0.91800172  0.28978253  1
  O  O4  1  0.08199828  0.08199828  0.71021747  1
  O  O5  1  0.70377334  0.70377334  0.57246802  1
  O  O6  1  0.29622666  0.29622666  0.42753198  1
  O  O7  1  0.86088037  0.86088037  0.61566383  1
  O  O8  1  0.13911963  0.13911963  0.38433617  1
  O  O9  1  0.64129529  0.64129529  0.88966686  1
  O  O10  1  0.35870471  0.35870471  0.11033314  1
  O  O11  1  0.83043405  0.83043405  0.91772555  1
  O  O12  1  0.16956595  0.16956595  0.08227445  1
loop_
_geom_bond_atom_site_label_1
_geom_bond_atom_site_label_2
_geom_bond_distance
_geom_bond_site_symmetry_2
O0 Ti0 1.877814 1_445
O0 Ti1 1.877814 1_554
O0 Rb1 3.159803 1_544
O0 Rb1 3.159803 1_454
O0 Rb0 3.159803 1_455
O0 Rb0 3.159803 1_545
O1 Ti5 1.973842 1_565
O1 Ti5 1.973842 1_655
O1 Ti0 2.168341 1_555
O1 Ti2 2.232797 1_555
O2 Ti4 1.973842 1_545
O2 Ti4 1.973842 1_455
O2 Ti1 2.168341 1_555
O2 Ti3 2.232797 1_555
O3 Ti2 1.807438 1_555
O3 Ti0 1.944238 1_555
O3 Rb0 2.761264 1_565
O3 Rb0 2.761264 1_655
O4 Ti3 1.807438 1_555
O4 Ti1 1.944238 1_555
O4 Rb1 2.761264 1_545
O4 Rb1 2.761264 1_455
O5 Ti3 1.973146 1_565
O5 Ti3 1.973146 1_655
O5 Ti2 2.110456 1_555
O5 Ti4 2.285244 1_555
O6 Ti2 1.973146 1_545
O6 Ti2 1.973146 1_455
O6 Ti3 2.110456 1_555
O6 Ti5 2.285244 1_555
O7 Ti2 1.819537 1_555
O7 Ti4 1.929548 1_555
O7 Rb1 2.842532 1_655
O7 Rb1 2.842532 1_565
O8 Ti3 1.819537 1_555
O8 Ti5 1.929548 1_555
O8 Rb0 2.842532 1_455
O8 Rb0 2.842532 1_545
O9 Ti1 1.957304 1_655
O9 Ti1 1.957304 1_565
O9 Ti4 2.060578 1_555
O10 Ti0 1.957304 1_455
O10 Ti0 1.957304 1_545
O10 Ti5 2.060578 1_555
O11 Ti4 1.771649 1_555
O11 Ti0 1.973678 1_556
O11 Rb1 2.978995 1_565
O11 Rb1 2.978995 1_655
O12 Ti5 1.771649 1_555
O12 Ti1 1.973678 1_554
O12 Rb0 2.978995 1_545
O12 Rb0 2.978995 1_455
