# generated using pymatgen
data_Sr4NbAlO8
_symmetry_space_group_name_H-M   'P 1'
_cell_length_a   5.89666900
_cell_length_b   7.25734100
_cell_length_c   19.93450599
_cell_angle_alpha   82.47652951
_cell_angle_beta   90.00000000
_cell_angle_gamma   90.00000000
_symmetry_Int_Tables_number   1
_chemical_formula_structural   Sr4NbAlO8
_chemical_formula_sum   'Sr16 Nb4 Al4 O32'
_cell_volume   845.73609272
_cell_formula_units_Z   4
loop_
 _symmetry_equiv_pos_site_id
 _symmetry_equiv_pos_as_xyz
  1  'x, y, z'
loop_
 _atom_site_type_symbol
 _atom_site_label
 _atom_site_symmetry_multiplicity
 _atom_site_fract_x
 _atom_site_fract_y
 _atom_site_fract_z
 _atom_site_occupancy
  Sr  Sr0  1  0.74942900  0.50107400  0.13504800  1
  Sr  Sr1  1  0.27999400  0.28814200  0.04613500  1
  Sr  Sr2  1  0.24944900  0.97531700  0.40300000  1
  Sr  Sr3  1  0.77999400  0.71185800  0.45386500  1
  Sr  Sr4  1  0.24942900  0.49892600  0.36495200  1
  Sr  Sr5  1  0.71498700  0.14042500  0.79098500  1
  Sr  Sr6  1  0.22000600  0.28814200  0.54613500  1
  Sr  Sr7  1  0.78501300  0.14042500  0.29098500  1
  Sr  Sr8  1  0.75057100  0.50107400  0.63504800  1
  Sr  Sr9  1  0.75055100  0.02468300  0.59700000  1
  Sr  Sr10  1  0.25057100  0.49892600  0.86495200  1
  Sr  Sr11  1  0.25055100  0.97531700  0.90300000  1
  Sr  Sr12  1  0.72000600  0.71185800  0.95386500  1
  Sr  Sr13  1  0.21498700  0.85957500  0.70901500  1
  Sr  Sr14  1  0.74944900  0.02468300  0.09700000  1
  Sr  Sr15  1  0.28501300  0.85957500  0.20901500  1
  Nb  Nb0  1  0.25819200  0.33870500  0.21069000  1
  Nb  Nb1  1  0.24180800  0.33870500  0.71069000  1
  Nb  Nb2  1  0.74180800  0.66129500  0.78931000  1
  Nb  Nb3  1  0.75819200  0.66129500  0.28931000  1
  Al  Al0  1  0.78485400  0.26694700  0.94290100  1
  Al  Al1  1  0.71514600  0.26694700  0.44290100  1
  Al  Al2  1  0.28485400  0.73305300  0.55709900  1
  Al  Al3  1  0.21514600  0.73305300  0.05709900  1
  O  O0  1  0.83909000  0.06091600  0.42086800  1
  O  O1  1  0.58543400  0.75171900  0.55703000  1
  O  O2  1  0.51240400  0.49813200  0.74380200  1
  O  O3  1  0.72001300  0.82262400  0.20540100  1
  O  O4  1  0.01240400  0.50186800  0.75619800  1
  O  O5  1  0.33909000  0.93908400  0.07913200  1
  O  O6  1  0.53122300  0.78777700  0.33942400  1
  O  O7  1  0.03122300  0.21222300  0.16057600  1
  O  O8  1  0.69755400  0.33578700  0.02200900  1
  O  O9  1  0.20915700  0.54942000  0.62459300  1
  O  O10  1  0.49004400  0.79676400  0.82164300  1
  O  O11  1  0.08543400  0.24828100  0.94297000  1
  O  O12  1  0.96877700  0.78777700  0.83942400  1
  O  O13  1  0.27998700  0.17737600  0.79459900  1
  O  O14  1  0.48759600  0.50186800  0.25619800  1
  O  O15  1  0.80244600  0.33578700  0.52200900  1
  O  O16  1  0.66091000  0.06091600  0.92086800  1
  O  O17  1  0.00995600  0.79676400  0.32164300  1
  O  O18  1  0.41456600  0.24828100  0.44297000  1
  O  O19  1  0.70915700  0.45058000  0.87540700  1
  O  O20  1  0.79084300  0.45058000  0.37540700  1
  O  O21  1  0.99004400  0.20323600  0.67835700  1
  O  O22  1  0.16091000  0.93908400  0.57913200  1
  O  O23  1  0.91456600  0.75171900  0.05703000  1
  O  O24  1  0.98759600  0.49813200  0.24380200  1
  O  O25  1  0.19755400  0.66421300  0.47799100  1
  O  O26  1  0.30244600  0.66421300  0.97799100  1
  O  O27  1  0.46877700  0.21222300  0.66057600  1
  O  O28  1  0.50995600  0.20323600  0.17835700  1
  O  O29  1  0.22001300  0.17737600  0.29459900  1
  O  O30  1  0.29084300  0.54942000  0.12459300  1
  O  O31  1  0.77998700  0.82262400  0.70540100  1
loop_
_geom_bond_atom_site_label_1
_geom_bond_atom_site_label_2
_geom_bond_distance
_geom_bond_site_symmetry_2
Nb0 O29 1.925237 1_555
Nb0 O28 1.936980 1_555
Nb0 O7 1.967720 1_555
Nb0 O14 2.082375 1_555
Nb0 O24 2.126113 1_455
Nb0 O30 2.152675 1_555
Nb1 O13 1.925237 1_555
Nb1 O21 1.936980 1_455
Nb1 O27 1.967720 1_555
Nb1 O4 2.082375 1_555
Nb1 O2 2.126113 1_555
Nb1 O9 2.152675 1_555
Nb2 O31 1.925237 1_555
Nb2 O10 1.936980 1_555
Nb2 O12 1.967720 1_555
Nb2 O2 2.082375 1_555
Nb2 O4 2.126113 1_655
Nb2 O19 2.152675 1_555
Nb3 O3 1.925237 1_555
Nb3 O17 1.936980 1_655
Nb3 O6 1.967720 1_555
Nb3 O24 2.082375 1_555
Nb3 O14 2.126113 1_555
Nb3 O20 2.152675 1_555
Al0 O16 1.770529 1_555
Al0 O11 1.777577 1_655
Al0 O8 1.791024 1_556
Al0 O19 1.820992 1_555
Al1 O0 1.770529 1_555
Al1 O18 1.777577 1_555
Al1 O15 1.791024 1_555
Al1 O20 1.820992 1_555
Al2 O22 1.770529 1_555
Al2 O1 1.777577 1_555
Al2 O25 1.791024 1_555
Al2 O9 1.820992 1_555
Al3 O5 1.770529 1_555
Al3 O23 1.777577 1_455
Al3 O26 1.791024 1_554
Al3 O30 1.820992 1_555
O0 Sr2 2.534941 1_645
O0 Sr3 2.556370 1_545
O0 Sr7 2.597523 1_555
O1 Sr3 2.405212 1_555
O1 Sr9 2.433208 1_565
O1 Sr8 2.436187 1_555
O2 Sr8 2.580831 1_555
O2 Sr10 2.867050 1_555
O2 Sr5 2.900255 1_555
O2 Sr13 3.156104 1_555
O3 Sr14 2.453624 1_565
O3 Sr15 2.581017 1_555
O3 Sr0 2.880913 1_555
O3 Sr7 3.067155 1_565
O4 Sr10 2.580831 1_555
O4 Sr8 2.867050 1_455
O4 Sr13 2.900255 1_555
O4 Sr5 3.156104 1_455
O5 Sr14 2.534941 1_565
O5 Sr1 2.556370 1_565
O5 Sr15 2.597523 1_555
O6 Sr2 2.582828 1_555
O6 Sr4 2.671164 1_555
O6 Sr3 2.707530 1_555
O6 Sr15 2.963561 1_555
O6 Sr7 3.012436 1_565
O7 Sr14 2.582828 1_455
O7 Sr0 2.671164 1_455
O7 Sr1 2.707530 1_555
O7 Sr7 2.963561 1_455
O7 Sr15 3.012436 1_545
O8 Sr1 2.523848 1_555
O8 Sr14 2.557764 1_555
O8 Sr0 2.705182 1_555
O8 Sr12 2.888063 1_554
O9 Sr6 2.611967 1_555
O9 Sr8 2.731247 1_455
O9 Sr13 2.981926 1_555
O10 Sr11 2.618032 1_555
O10 Sr10 2.631127 1_555
O10 Sr13 2.758851 1_555
O10 Sr5 2.820300 1_565
O10 Sr12 2.956431 1_555
O11 Sr1 2.405212 1_556
O11 Sr11 2.433208 1_545
O11 Sr10 2.436187 1_555
O12 Sr11 2.582828 1_655
O12 Sr10 2.671164 1_655
O12 Sr12 2.707530 1_555
O12 Sr13 2.963561 1_655
O12 Sr5 3.012436 1_565
O13 Sr11 2.453624 1_545
O13 Sr5 2.581017 1_555
O13 Sr10 2.880913 1_555
O13 Sr13 3.067155 1_545
O14 Sr4 2.580831 1_555
O14 Sr0 2.867050 1_555
O14 Sr15 2.900255 1_555
O14 Sr7 3.156104 1_555
O15 Sr6 2.523848 1_655
O15 Sr9 2.557764 1_555
O15 Sr8 2.705182 1_555
O15 Sr3 2.888063 1_555
O16 Sr11 2.534941 1_545
O16 Sr12 2.556370 1_545
O16 Sr5 2.597523 1_555
O17 Sr2 2.618032 1_555
O17 Sr4 2.631127 1_555
O17 Sr15 2.758851 1_555
O17 Sr7 2.820300 1_465
O17 Sr3 2.956431 1_455
O18 Sr6 2.405212 1_555
O18 Sr2 2.433208 1_545
O18 Sr4 2.436187 1_555
O19 Sr12 2.611967 1_555
O19 Sr10 2.731247 1_555
O19 Sr5 2.981926 1_555
O20 Sr3 2.611967 1_555
O20 Sr4 2.731247 1_655
O20 Sr7 2.981926 1_555
O21 Sr9 2.618032 1_555
O21 Sr8 2.631127 1_555
O21 Sr5 2.758851 1_555
O21 Sr13 2.820300 1_645
O21 Sr6 2.956431 1_655
O22 Sr9 2.534941 1_465
O22 Sr6 2.556370 1_565
O22 Sr13 2.597523 1_555
O23 Sr12 2.405212 1_554
O23 Sr14 2.433208 1_565
O23 Sr0 2.436187 1_555
O24 Sr0 2.580831 1_555
O24 Sr4 2.867050 1_655
O24 Sr7 2.900255 1_555
O24 Sr15 3.156104 1_655
O25 Sr3 2.523848 1_455
O25 Sr2 2.557764 1_555
O25 Sr4 2.705182 1_555
O25 Sr6 2.888063 1_555
O26 Sr12 2.523848 1_555
O26 Sr11 2.557764 1_555
O26 Sr10 2.705182 1_555
O26 Sr1 2.888063 1_556
O27 Sr9 2.582828 1_555
O27 Sr8 2.671164 1_555
O27 Sr6 2.707530 1_555
O27 Sr5 2.963561 1_555
O27 Sr13 3.012436 1_545
O28 Sr14 2.618032 1_555
O28 Sr0 2.631127 1_555
O28 Sr7 2.758851 1_555
O28 Sr15 2.820300 1_545
O28 Sr1 2.956431 1_555
O29 Sr2 2.453624 1_545
O29 Sr7 2.581017 1_455
O29 Sr4 2.880913 1_555
O29 Sr15 3.067155 1_545
O30 Sr1 2.611967 1_555
O30 Sr0 2.731247 1_555
O30 Sr15 2.981926 1_555
O31 Sr9 2.453624 1_565
O31 Sr13 2.581017 1_655
O31 Sr8 2.880913 1_555
O31 Sr5 3.067155 1_565
