# generated using pymatgen
data_NbP4(S2Cl)5
_symmetry_space_group_name_H-M   'P 1'
_cell_length_a   10.30219400
_cell_length_b   11.72848925
_cell_length_c   12.32645092
_cell_angle_alpha   70.66984216
_cell_angle_beta   67.72386031
_cell_angle_gamma   67.63666422
_symmetry_Int_Tables_number   1
_chemical_formula_structural   NbP4(S2Cl)5
_chemical_formula_sum   'Nb2 P8 S20 Cl10'
_cell_volume   1243.85008814
_cell_formula_units_Z   2
loop_
 _symmetry_equiv_pos_site_id
 _symmetry_equiv_pos_as_xyz
  1  'x, y, z'
loop_
 _atom_site_type_symbol
 _atom_site_label
 _atom_site_symmetry_multiplicity
 _atom_site_fract_x
 _atom_site_fract_y
 _atom_site_fract_z
 _atom_site_occupancy
  Nb  Nb0  1  0.95791300  0.87146300  0.65614100  1
  Nb  Nb1  1  0.04208700  0.12853700  0.34385900  1
  P  P0  1  0.30497700  0.34935500  0.83667500  1
  P  P1  1  0.37757600  0.27125900  0.56790600  1
  P  P2  1  0.70055900  0.94424300  0.16349700  1
  P  P3  1  0.69502300  0.65064500  0.16332500  1
  P  P4  1  0.29944100  0.05575700  0.83650300  1
  P  P5  1  0.02479800  0.32408600  0.76307300  1
  P  P6  1  0.97520200  0.67591400  0.23692700  1
  P  P7  1  0.62242400  0.72874100  0.43209400  1
  S  S0  1  0.65709900  0.12017700  0.08524300  1
  S  S1  1  0.07349100  0.12974600  0.84821000  1
  S  S2  1  0.84861300  0.65479500  0.41968200  1
  S  S3  1  0.57509600  0.92285200  0.34654000  1
  S  S4  1  0.18026100  0.60832400  0.22602600  1
  S  S5  1  0.92116300  0.57758900  0.15118600  1
  S  S6  1  0.81973900  0.39167600  0.77397400  1
  S  S7  1  0.42490400  0.07714800  0.65346000  1
  S  S8  1  0.34290100  0.87982300  0.91475700  1
  S  S9  1  0.92650900  0.87025400  0.15179000  1
  S  S10  1  0.50943300  0.70935900  0.59838800  1
  S  S11  1  0.64760300  0.84485500  0.07824100  1
  S  S12  1  0.35162800  0.43915100  0.91540000  1
  S  S13  1  0.07883700  0.42241100  0.84881400  1
  S  S14  1  0.64837200  0.56084900  0.08460000  1
  S  S15  1  0.49056700  0.29064100  0.40161200  1
  S  S16  1  0.43067900  0.37001600  0.65374600  1
  S  S17  1  0.15138700  0.34520500  0.58031800  1
  S  S18  1  0.35239700  0.15514500  0.92175900  1
  S  S19  1  0.56932100  0.62998400  0.34625400  1
  Cl  Cl0  1  0.80009100  0.04822100  0.73460600  1
  Cl  Cl1  1  0.13227700  0.01154000  0.53224900  1
  Cl  Cl2  1  0.21665600  0.23200500  0.26875100  1
  Cl  Cl3  1  0.87392100  0.27560000  0.45808000  1
  Cl  Cl4  1  0.92446700  0.20599100  0.19845500  1
  Cl  Cl5  1  0.12607900  0.72440000  0.54192000  1
  Cl  Cl6  1  0.19990900  0.95177900  0.26539400  1
  Cl  Cl7  1  0.86772300  0.98846000  0.46775100  1
  Cl  Cl8  1  0.07553300  0.79400900  0.80154500  1
  Cl  Cl9  1  0.78334400  0.76799500  0.73124900  1
loop_
_geom_bond_atom_site_label_1
_geom_bond_atom_site_label_2
_geom_bond_distance
_geom_bond_site_symmetry_2
P0 S12 1.922802 1_555
P0 S16 2.117409 1_555
P0 S13 2.117971 1_555
P0 S18 2.118277 1_555
P1 S15 1.921541 1_555
P1 S17 2.117851 1_555
P1 S7 2.118633 1_555
P1 S16 2.119639 1_555
P2 S0 1.922346 1_565
P2 S9 2.117434 1_555
P2 S3 2.117875 1_555
P2 S11 2.119058 1_555
P3 S14 1.922802 1_555
P3 S19 2.117409 1_555
P3 S5 2.117971 1_555
P3 S11 2.118277 1_555
P4 S8 1.922346 1_545
P4 S1 2.117434 1_555
P4 S7 2.117875 1_555
P4 S18 2.119058 1_555
P5 S6 1.921020 1_455
P5 S17 2.118014 1_555
P5 S1 2.119840 1_555
P5 S13 2.120923 1_555
P6 S4 1.921020 1_655
P6 S2 2.118014 1_555
P6 S9 2.119840 1_555
P6 S5 2.120923 1_555
P7 S10 1.921541 1_555
P7 S2 2.117851 1_555
P7 S3 2.118633 1_555
P7 S19 2.119639 1_555
Cl0 Nb0 2.333893 1_545
Cl1 Nb1 2.587442 1_555
Cl1 Nb0 2.600586 1_445
Cl2 Nb1 2.284474 1_555
Cl3 Nb1 2.333089 1_655
Cl4 Nb1 2.288442 1_655
Cl5 Nb0 2.333089 1_455
Cl6 Nb1 2.333893 1_565
Cl7 Nb0 2.587442 1_555
Cl7 Nb1 2.600586 1_665
Cl8 Nb0 2.288442 1_455
Cl9 Nb0 2.284474 1_555
