# generated using pymatgen
data_Sb(S8I)3
_symmetry_space_group_name_H-M   'P 1'
_cell_length_a   14.67767245
_cell_length_b   14.67767245
_cell_length_c   14.67767236
_cell_angle_alpha   118.92198278
_cell_angle_beta   118.92198278
_cell_angle_gamma   118.92198193
_symmetry_Int_Tables_number   1
_chemical_formula_structural   Sb(S8I)3
_chemical_formula_sum   'Sb1 S24 I3'
_cell_volume   849.15913359
_cell_formula_units_Z   1
loop_
 _symmetry_equiv_pos_site_id
 _symmetry_equiv_pos_as_xyz
  1  'x, y, z'
loop_
 _atom_site_type_symbol
 _atom_site_label
 _atom_site_symmetry_multiplicity
 _atom_site_fract_x
 _atom_site_fract_y
 _atom_site_fract_z
 _atom_site_occupancy
  Sb  Sb0  1  0.30660078  0.30660078  0.30660078  1
  S  S0  1  0.99670344  0.59432396  0.59432396  1
  S  S1  1  0.59432396  0.59432396  0.99670344  1
  S  S2  1  0.59432396  0.99670344  0.59432396  1
  S  S3  1  0.24045509  0.85512094  0.72395776  1
  S  S4  1  0.85512094  0.72395776  0.24045509  1
  S  S5  1  0.72395776  0.24045509  0.85512094  1
  S  S6  1  0.85512094  0.24045509  0.72395776  1
  S  S7  1  0.24045509  0.72395776  0.85512094  1
  S  S8  1  0.72395776  0.85512094  0.24045509  1
  S  S9  1  0.09271719  0.62397671  0.43676205  1
  S  S10  1  0.62397671  0.43676205  0.09271719  1
  S  S11  1  0.43676205  0.09271719  0.62397671  1
  S  S12  1  0.62397671  0.09271719  0.43676205  1
  S  S13  1  0.09271719  0.43676205  0.62397671  1
  S  S14  1  0.43676205  0.62397671  0.09271719  1
  S  S15  1  0.36879395  0.75598226  0.62361266  1
  S  S16  1  0.75598226  0.62361266  0.36879395  1
  S  S17  1  0.62361266  0.36879395  0.75598226  1
  S  S18  1  0.75598226  0.36879395  0.62361266  1
  S  S19  1  0.36879395  0.62361266  0.75598226  1
  S  S20  1  0.62361266  0.75598226  0.36879395  1
  S  S21  1  0.18218337  0.45853310  0.45853310  1
  S  S22  1  0.45853310  0.45853310  0.18218337  1
  S  S23  1  0.45853310  0.18218337  0.45853310  1
  I  I0  1  0.11386194  0.94964107  0.94964107  1
  I  I1  1  0.94964107  0.94964107  0.11386194  1
  I  I2  1  0.94964107  0.11386194  0.94964107  1
loop_
_geom_bond_atom_site_label_1
_geom_bond_atom_site_label_2
_geom_bond_distance
_geom_bond_site_symmetry_2
S0 S7 2.048801 1_655
S0 S3 2.048801 1_655
S1 S4 2.048801 1_556
S1 S8 2.048801 1_556
S2 S5 2.048801 1_565
S2 S6 2.048801 1_565
S3 S9 2.047384 1_555
S10 S4 2.047384 1_555
S10 S16 2.052522 1_555
S11 S5 2.047384 1_555
S11 S17 2.052522 1_555
S12 S6 2.047384 1_555
S12 S18 2.052522 1_555
S13 S7 2.047384 1_555
S13 S19 2.052522 1_555
S14 S8 2.047384 1_555
S14 S20 2.052522 1_555
S15 S9 2.052522 1_555
S15 S21 2.053402 1_555
S16 S22 2.053402 1_555
S17 S23 2.053402 1_555
S18 S23 2.053402 1_555
S19 S21 2.053402 1_555
S20 S22 2.053402 1_555
I0 Sb0 2.771380 1_566
I1 Sb0 2.771380 1_665
I2 Sb0 2.771380 1_656
