# generated using pymatgen
data_ZrRu2
_symmetry_space_group_name_H-M   'P 1'
_cell_length_a   5.14560140
_cell_length_b   5.14560190
_cell_length_c   8.57672559
_cell_angle_alpha   90.00000000
_cell_angle_beta   90.00000000
_cell_angle_gamma   119.99999677
_symmetry_Int_Tables_number   1
_chemical_formula_structural   ZrRu2
_chemical_formula_sum   'Zr4 Ru8'
_cell_volume   196.66382657
_cell_formula_units_Z   4
loop_
 _symmetry_equiv_pos_site_id
 _symmetry_equiv_pos_as_xyz
  1  'x, y, z'
loop_
 _atom_site_type_symbol
 _atom_site_label
 _atom_site_symmetry_multiplicity
 _atom_site_fract_x
 _atom_site_fract_y
 _atom_site_fract_z
 _atom_site_occupancy
  Zr  Zr0  1  0.66666700  0.33333300  0.93237223  1
  Zr  Zr1  1  0.33333300  0.66666700  0.06762777  1
  Zr  Zr2  1  0.33333300  0.66666700  0.43237223  1
  Zr  Zr3  1  0.66666700  0.33333300  0.56762777  1
  Ru  Ru0  1  0.17187279  0.34374658  0.75000000  1
  Ru  Ru1  1  0.17187279  0.82812721  0.75000000  1
  Ru  Ru2  1  0.34374658  0.17187279  0.25000000  1
  Ru  Ru3  1  0.82812721  0.65625342  0.25000000  1
  Ru  Ru4  1  0.00000000  0.00000000  -0.00000000  1
  Ru  Ru5  1  0.65625342  0.82812721  0.75000000  1
  Ru  Ru6  1  0.82812721  0.17187279  0.25000000  1
  Ru  Ru7  1  0.00000000  0.00000000  0.50000000  1
loop_
_geom_bond_atom_site_label_1
_geom_bond_atom_site_label_2
_geom_bond_distance
_geom_bond_site_symmetry_2
Ru0 Ru1 2.492430 1_555
Ru0 Ru5 2.492430 1_555
Ru0 Ru4 2.635139 1_556
Ru0 Ru7 2.635139 1_555
Ru0 Ru1 2.653172 1_545
Ru0 Ru5 2.653172 1_445
Ru0 Zr0 3.011315 1_455
Ru0 Zr3 3.011315 1_455
Ru0 Zr0 3.011323 1_555
Ru0 Zr3 3.011323 1_555
Ru0 Zr2 3.080915 1_555
Ru0 Zr1 3.080915 1_556
Ru1 Ru5 2.492430 1_555
Ru1 Ru7 2.635137 1_565
Ru1 Ru4 2.635137 1_566
Ru1 Ru5 2.653172 1_455
Ru1 Zr3 3.011319 1_455
Ru1 Zr0 3.011319 1_455
Ru1 Zr3 3.011319 1_565
Ru1 Zr0 3.011319 1_565
Ru1 Zr2 3.080915 1_555
Ru1 Zr1 3.080915 1_556
Ru2 Ru6 2.492430 1_555
Ru2 Ru3 2.492430 1_555
Ru2 Ru7 2.635139 1_555
Ru2 Ru4 2.635139 1_555
Ru2 Ru6 2.653172 1_455
Ru2 Ru3 2.653172 1_445
Ru2 Zr1 3.011315 1_545
Ru2 Zr2 3.011315 1_545
Ru2 Zr2 3.011324 1_555
Ru2 Zr1 3.011324 1_555
Ru2 Zr0 3.080915 1_554
Ru2 Zr3 3.080915 1_555
Ru3 Ru6 2.492430 1_555
Ru3 Ru7 2.635139 1_665
Ru3 Ru4 2.635139 1_665
Ru3 Ru6 2.653172 1_565
Ru3 Zr2 3.011315 1_655
Ru3 Zr1 3.011315 1_655
Ru3 Zr1 3.011323 1_555
Ru3 Zr2 3.011323 1_555
Ru3 Zr0 3.080915 1_554
Ru3 Zr3 3.080915 1_555
Ru4 Ru6 2.635137 1_455
Ru4 Ru5 2.635139 1_444
Ru4 Zr0 3.026904 1_454
Ru4 Zr1 3.026904 1_545
Ru4 Zr1 3.026909 1_445
Ru4 Zr0 3.026909 1_554
Ru4 Zr1 3.026909 1_555
Ru4 Zr0 3.026909 1_444
Ru5 Ru7 2.635139 1_665
Ru5 Zr3 3.011315 1_565
Ru5 Zr0 3.011315 1_565
Ru5 Zr0 3.011324 1_555
Ru5 Zr3 3.011324 1_555
Ru5 Zr2 3.080915 1_555
Ru5 Zr1 3.080915 1_556
Ru6 Ru7 2.635137 1_655
Ru6 Zr1 3.011319 1_655
Ru6 Zr2 3.011319 1_655
Ru6 Zr1 3.011319 1_545
Ru6 Zr2 3.011319 1_545
Ru6 Zr0 3.080915 1_554
Ru6 Zr3 3.080915 1_555
Ru7 Zr3 3.026904 1_455
Ru7 Zr2 3.026904 1_545
Ru7 Zr2 3.026909 1_445
Ru7 Zr3 3.026909 1_555
Ru7 Zr2 3.026909 1_555
Ru7 Zr3 3.026909 1_445
