# generated using pymatgen
data_In3Au10
_symmetry_space_group_name_H-M   'P 1'
_cell_length_a   10.67787594
_cell_length_b   10.67787595
_cell_length_c   4.81207765
_cell_angle_alpha   90.00000000
_cell_angle_beta   90.00000000
_cell_angle_gamma   119.99999816
_symmetry_Int_Tables_number   1
_chemical_formula_structural   In3Au10
_chemical_formula_sum   'In6 Au20'
_cell_volume   475.15248859
_cell_formula_units_Z   2
loop_
 _symmetry_equiv_pos_site_id
 _symmetry_equiv_pos_as_xyz
  1  'x, y, z'
loop_
 _atom_site_type_symbol
 _atom_site_label
 _atom_site_symmetry_multiplicity
 _atom_site_fract_x
 _atom_site_fract_y
 _atom_site_fract_z
 _atom_site_occupancy
  In  In0  1  0.63772914  0.74201818  0.25000000  1
  In  In1  1  0.25798182  0.89571096  0.25000000  1
  In  In2  1  0.10428904  0.36227086  0.25000000  1
  In  In3  1  0.36227086  0.25798182  0.75000000  1
  In  In4  1  0.74201818  0.10428904  0.75000000  1
  In  In5  1  0.89571096  0.63772914  0.75000000  1
  Au  Au0  1  0.87185082  0.05013290  0.25000000  1
  Au  Au1  1  0.94986710  0.82171792  0.25000000  1
  Au  Au2  1  0.17828208  0.12814918  0.25000000  1
  Au  Au3  1  0.12814918  0.94986710  0.75000000  1
  Au  Au4  1  0.05013290  0.17828208  0.75000000  1
  Au  Au5  1  0.82171792  0.87185082  0.75000000  1
  Au  Au6  1  0.56455383  0.97610779  0.25000000  1
  Au  Au7  1  0.02389221  0.58844604  0.25000000  1
  Au  Au8  1  0.41155396  0.43544617  0.25000000  1
  Au  Au9  1  0.43544617  0.02389221  0.75000000  1
  Au  Au10  1  0.97610779  0.41155396  0.75000000  1
  Au  Au11  1  0.58844604  0.56455383  0.75000000  1
  Au  Au12  1  0.79337707  0.27852306  0.25000000  1
  Au  Au13  1  0.72147694  0.51485401  0.25000000  1
  Au  Au14  1  0.48514599  0.20662293  0.25000000  1
  Au  Au15  1  0.20662293  0.72147694  0.75000000  1
  Au  Au16  1  0.27852306  0.48514599  0.75000000  1
  Au  Au17  1  0.51485401  0.79337707  0.75000000  1
  Au  Au18  1  0.66666700  0.33333300  0.75000000  1
  Au  Au19  1  0.33333300  0.66666700  0.25000000  1
loop_
_geom_bond_atom_site_label_1
_geom_bond_atom_site_label_2
_geom_bond_distance
_geom_bond_site_symmetry_2
Au0 Au1 2.945237 1_545
Au0 Au2 2.945237 1_655
Au0 Au5 2.946268 1_545
Au0 Au5 2.946268 1_544
Au0 Au4 2.946268 1_655
Au0 Au4 2.946268 1_654
Au0 Au12 2.948386 1_555
Au0 Au6 2.966134 1_545
Au0 In4 2.974396 1_555
Au0 In4 2.974396 1_554
Au0 In0 2.974729 1_545
Au0 In2 2.999416 1_655
Au1 Au2 2.945237 1_665
Au1 Au5 2.946268 1_555
Au1 Au5 2.946268 1_554
Au1 Au3 2.946268 1_655
Au1 Au3 2.946268 1_654
Au1 Au13 2.948386 1_555
Au1 Au7 2.966134 1_655
Au1 In5 2.974396 1_555
Au1 In5 2.974396 1_554
Au1 In1 2.974729 1_655
Au1 In0 2.999416 1_555
Au2 Au4 2.946268 1_554
Au2 Au4 2.946268 1_555
Au2 Au3 2.946268 1_544
Au2 Au3 2.946268 1_545
Au2 Au8 2.966134 1_555
Au2 In3 2.974396 1_554
Au2 In3 2.974396 1_555
Au2 In2 2.974729 1_555
Au2 In1 2.999416 1_545
Au3 Au4 2.945237 1_565
Au3 Au5 2.945237 1_455
Au3 Au9 2.966134 1_565
Au3 In1 2.974396 1_555
Au3 In1 2.974396 1_556
Au3 In3 2.974729 1_565
Au3 In5 2.999416 1_455
Au4 Au5 2.945237 1_445
Au4 In2 2.974396 1_556
Au4 In2 2.974396 1_555
Au4 In4 2.974729 1_455
Au4 In3 2.999416 1_555
Au5 In0 2.974396 1_556
Au5 In0 2.974396 1_555
Au5 In5 2.974729 1_555
Au5 In4 2.999416 1_565
Au6 In1 2.939862 1_555
Au6 Au9 2.941649 1_565
Au6 Au9 2.941649 1_564
Au6 In4 2.942714 1_564
Au6 In4 2.942714 1_565
Au6 In0 2.968414 1_555
Au7 In2 2.939862 1_555
Au7 In5 2.942714 1_455
Au7 In5 2.942714 1_454
Au7 In1 2.968414 1_555
Au8 In0 2.939862 1_555
Au8 In3 2.942714 1_555
Au8 In3 2.942714 1_554
Au8 In2 2.968414 1_555
Au9 In4 2.939862 1_555
Au9 In1 2.942714 1_546
Au9 In1 2.942714 1_545
Au9 In3 2.968414 1_555
Au10 Au16 2.916750 1_655
Au10 In5 2.939862 1_555
Au10 Au7 2.941649 1_655
Au10 Au7 2.941649 1_656
Au10 In2 2.942714 1_655
Au10 In2 2.942714 1_656
Au10 Au4 2.966134 1_655
Au10 In4 2.968414 1_555
Au10 Au12 2.973596 1_555
Au10 Au12 2.973596 1_556
Au10 Au18 2.975803 1_555
Au10 Au15 2.977339 1_655
Au11 Au17 2.916750 1_555
Au11 In3 2.939862 1_555
Au11 Au8 2.941649 1_555
Au11 Au8 2.941649 1_556
Au11 In0 2.942714 1_555
Au11 In0 2.942714 1_556
Au11 Au5 2.966134 1_555
Au11 In5 2.968414 1_555
Au11 Au13 2.973596 1_555
Au11 Au13 2.973596 1_556
Au11 Au18 2.975813 1_555
Au11 Au16 2.977339 1_555
Au12 Au6 2.916750 1_545
Au12 In4 2.920747 1_554
Au12 In4 2.920747 1_555
Au12 Au18 2.958713 1_555
Au12 Au18 2.958713 1_554
Au12 In2 2.975312 1_655
Au12 Au7 2.977339 1_655
Au12 Au13 2.982439 1_555
Au12 Au14 2.982439 1_555
Au13 Au7 2.916750 1_655
Au13 In5 2.920747 1_554
Au13 In5 2.920747 1_555
Au13 Au18 2.958719 1_555
Au13 Au18 2.958719 1_554
Au13 In0 2.975312 1_555
Au13 Au8 2.977339 1_555
Au13 Au14 2.982439 1_555
Au14 Au8 2.916750 1_555
Au14 In3 2.920747 1_555
Au14 In3 2.920747 1_554
Au14 Au2 2.948386 1_555
Au14 Au18 2.958718 1_555
Au14 Au18 2.958718 1_554
Au14 Au9 2.973596 1_555
Au14 Au9 2.973596 1_554
Au14 In1 2.975312 1_545
Au14 Au6 2.977338 1_545
Au15 Au9 2.916750 1_565
Au15 In1 2.920747 1_556
Au15 In1 2.920747 1_555
Au15 Au3 2.948386 1_555
Au15 Au19 2.958713 1_555
Au15 Au19 2.958713 1_556
Au15 Au7 2.973596 1_555
Au15 Au7 2.973596 1_556
Au15 In5 2.975312 1_455
Au15 Au16 2.982439 1_555
Au15 Au17 2.982439 1_555
Au16 In2 2.920747 1_556
Au16 In2 2.920747 1_555
Au16 Au4 2.948386 1_555
Au16 Au19 2.958719 1_555
Au16 Au19 2.958719 1_556
Au16 Au8 2.973596 1_556
Au16 Au8 2.973596 1_555
Au16 In3 2.975312 1_555
Au16 Au17 2.982439 1_555
Au17 In0 2.920747 1_556
Au17 In0 2.920747 1_555
Au17 Au5 2.948386 1_555
Au17 Au19 2.958718 1_556
Au17 Au19 2.958718 1_555
Au17 Au6 2.973596 1_556
Au17 Au6 2.973596 1_555
Au17 In4 2.975312 1_565
Au17 Au9 2.977338 1_565
Au18 In4 2.931999 1_555
Au18 In5 2.932007 1_555
Au18 In3 2.932009 1_555
Au18 Au9 2.975806 1_555
Au19 In1 2.931999 1_555
Au19 In2 2.932007 1_555
Au19 In0 2.932009 1_555
Au19 Au7 2.975803 1_555
Au19 Au6 2.975806 1_555
Au19 Au8 2.975813 1_555
