# generated using pymatgen
data_BaYCo2O5
_symmetry_space_group_name_H-M   'P 1'
_cell_length_a   3.90357200
_cell_length_b   7.53882300
_cell_length_c   7.68902400
_cell_angle_alpha   90.00237132
_cell_angle_beta   90.00000000
_cell_angle_gamma   90.00000000
_symmetry_Int_Tables_number   1
_chemical_formula_structural   BaYCo2O5
_chemical_formula_sum   'Ba2 Y2 Co4 O10'
_cell_volume   226.27519995
_cell_formula_units_Z   2
loop_
 _symmetry_equiv_pos_site_id
 _symmetry_equiv_pos_as_xyz
  1  'x, y, z'
loop_
 _atom_site_type_symbol
 _atom_site_label
 _atom_site_symmetry_multiplicity
 _atom_site_fract_x
 _atom_site_fract_y
 _atom_site_fract_z
 _atom_site_occupancy
  Ba  Ba0  1  0.00000000  0.00019000  0.49886500  1
  Ba  Ba1  1  0.00000000  0.00018900  0.00113700  1
  Y  Y0  1  0.00000000  0.49982800  0.50152100  1
  Y  Y1  1  0.00000000  0.49982900  0.99847900  1
  Co  Co0  1  0.50000000  0.26061000  0.75001600  1
  Co  Co1  1  0.50000000  0.26588200  0.24999800  1
  Co  Co2  1  0.50000000  0.73729500  0.75000100  1
  Co  Co3  1  0.50000000  0.73592400  0.24999500  1
  O  O0  1  0.50000000  0.68184500  0.50021400  1
  O  O1  1  0.00000000  0.30484200  0.24999500  1
  O  O2  1  0.00000000  0.69707300  0.24999900  1
  O  O3  1  0.50000000  0.00022000  0.25000500  1
  O  O4  1  0.50000000  0.68183500  0.99977000  1
  O  O5  1  0.50000000  0.31624900  0.50457500  1
  O  O6  1  0.50000000  0.31625400  0.99544000  1
  O  O7  1  0.00000000  0.30619400  0.74998400  1
  O  O8  1  0.00000000  0.69659200  0.75000500  1
  O  O9  1  0.50000000  0.99915000  0.75000100  1
loop_
_geom_bond_atom_site_label_1
_geom_bond_atom_site_label_2
_geom_bond_distance
_geom_bond_site_symmetry_2
Ba0 O3 2.733297 1_455
Ba0 O3 2.733297 1_555
Ba0 O9 2.745589 1_445
Ba0 O9 2.745589 1_545
Ba0 O2 2.980461 1_545
Ba0 O1 2.989484 1_555
Ba0 O8 2.994609 1_545
Ba0 O7 3.008270 1_555
Ba0 O5 3.080375 1_455
Ba0 O5 3.080375 1_555
Ba0 O0 3.093432 1_445
Ba0 O0 3.093432 1_545
Ba1 O3 2.733340 1_455
Ba1 O3 2.733340 1_555
Ba1 O9 2.745588 1_444
Ba1 O9 2.745588 1_544
Ba1 O2 2.980557 1_545
Ba1 O1 2.989309 1_555
Ba1 O8 2.994442 1_544
Ba1 O7 3.008566 1_554
Ba1 O6 3.080411 1_554
Ba1 O6 3.080411 1_454
Ba1 O4 3.093485 1_544
Ba1 O4 3.093485 1_444
Co0 O6 1.933118 1_555
Co0 O5 1.933271 1_555
Co0 O9 1.971101 1_545
Co0 O7 1.981808 1_555
Co0 O7 1.981808 1_655
Co1 O1 1.973762 1_555
Co1 O1 1.973762 1_655
Co1 O6 1.993816 1_554
Co1 O5 1.993921 1_555
Co1 O3 2.002779 1_555
Co2 O4 1.965482 1_555
Co2 O0 1.965567 1_555
Co2 O9 1.974078 1_555
Co2 O8 1.975760 1_655
Co2 O8 1.975760 1_555
Co3 O0 1.966678 1_555
Co3 O4 1.966706 1_554
Co3 O2 1.973640 1_555
Co3 O2 1.973640 1_655
Co3 O3 1.992481 1_565
O0 Y0 2.385893 1_555
O0 Y0 2.385893 1_655
O1 Y0 2.429172 1_555
O1 Y1 2.429212 1_554
O2 Y1 2.439473 1_554
O2 Y0 2.439588 1_555
O4 Y1 2.385845 1_655
O4 Y1 2.385845 1_555
O5 Y0 2.392780 1_655
O5 Y0 2.392780 1_555
O6 Y1 2.392760 1_655
O6 Y1 2.392760 1_555
O7 Y0 2.404358 1_555
O7 Y1 2.404463 1_555
O8 Y0 2.418789 1_555
O8 Y1 2.418820 1_555
