# generated using pymatgen
data_Ba2Ti9O20
_symmetry_space_group_name_H-M   'P 1'
_cell_length_a   7.54871700
_cell_length_b   14.28853137
_cell_length_c   14.51507784
_cell_angle_alpha   89.89245200
_cell_angle_beta   100.43695451
_cell_angle_gamma   95.41771211
_symmetry_Int_Tables_number   1
_chemical_formula_structural   Ba2Ti9O20
_chemical_formula_sum   'Ba8 Ti36 O80'
_cell_volume   1532.63091302
_cell_formula_units_Z   4
loop_
 _symmetry_equiv_pos_site_id
 _symmetry_equiv_pos_as_xyz
  1  'x, y, z'
loop_
 _atom_site_type_symbol
 _atom_site_label
 _atom_site_symmetry_multiplicity
 _atom_site_fract_x
 _atom_site_fract_y
 _atom_site_fract_z
 _atom_site_occupancy
  Ba  Ba0  1  0.49033300  0.75154100  0.72645200  1
  Ba  Ba1  1  0.76146500  0.43986000  0.07610000  1
  Ba  Ba2  1  0.25085900  0.06162000  0.02254600  1
  Ba  Ba3  1  0.74914100  0.93838000  0.97745400  1
  Ba  Ba4  1  0.50632000  0.75035800  0.37190500  1
  Ba  Ba5  1  0.50966700  0.24845900  0.27354800  1
  Ba  Ba6  1  0.23853500  0.56014000  0.92390000  1
  Ba  Ba7  1  0.49368000  0.24964200  0.62809500  1
  Ti  Ti0  1  0.31705600  0.99884900  0.31955500  1
  Ti  Ti1  1  0.95198100  0.83641700  0.81014300  1
  Ti  Ti2  1  0.67869400  0.51032500  0.56579900  1
  Ti  Ti3  1  0.98397100  0.34235700  0.28777000  1
  Ti  Ti4  1  0.68986800  0.49808500  0.35401300  1
  Ti  Ti5  1  0.01602900  0.65764300  0.71223000  1
  Ti  Ti6  1  0.33622700  0.83749900  0.13673400  1
  Ti  Ti7  1  0.69871600  0.67122300  0.94994200  1
  Ti  Ti8  1  0.05041500  0.66236900  0.50858300  1
  Ti  Ti9  1  0.32199100  0.50111800  0.21668500  1
  Ti  Ti10  1  0.68294400  0.00115100  0.68044500  1
  Ti  Ti11  1  0.32034200  0.99222600  0.53362600  1
  Ti  Ti12  1  0.32130600  0.48967500  0.43420100  1
  Ti  Ti13  1  0.04801900  0.16358300  0.18985700  1
  Ti  Ti14  1  0.33174700  0.33185100  0.83702800  1
  Ti  Ti15  1  0.68371500  0.01234800  0.24685100  1
  Ti  Ti16  1  0.67965800  0.00777400  0.46637400  1
  Ti  Ti17  1  0.95500500  0.84425800  0.59987900  1
  Ti  Ti18  1  0.05532500  0.66690900  0.09679800  1
  Ti  Ti19  1  0.31013200  0.50191500  0.64598700  1
  Ti  Ti20  1  0.04361800  0.65315900  0.30465600  1
  Ti  Ti21  1  0.96173100  0.84464900  0.39455100  1
  Ti  Ti22  1  0.04499500  0.15574200  0.40012100  1
  Ti  Ti23  1  0.94958500  0.33763100  0.49141700  1
  Ti  Ti24  1  0.96400200  0.84871000  0.18924800  1
  Ti  Ti25  1  0.67800900  0.49888200  0.78331500  1
  Ti  Ti26  1  0.66377300  0.16250100  0.86326600  1
  Ti  Ti27  1  0.03826900  0.15535100  0.60544900  1
  Ti  Ti28  1  0.03599800  0.15129000  0.81075200  1
  Ti  Ti29  1  0.30203200  0.81922700  0.92945600  1
  Ti  Ti30  1  0.94467500  0.33309100  0.90320200  1
  Ti  Ti31  1  0.95638200  0.34684100  0.69534400  1
  Ti  Ti32  1  0.31628500  0.98765200  0.75314900  1
  Ti  Ti33  1  0.30128400  0.32877700  0.05005800  1
  Ti  Ti34  1  0.69796800  0.18077300  0.07054400  1
  Ti  Ti35  1  0.66825300  0.66814900  0.16297200  1
  O  O0  1  0.83290600  0.75380400  0.09213500  1
  O  O1  1  0.84118400  0.25069100  0.78822300  1
  O  O2  1  0.43985100  0.92544800  0.24144400  1
  O  O3  1  0.50827900  0.75344300  0.17993900  1
  O  O4  1  0.20012200  0.23622000  0.12146600  1
  O  O5  1  0.90324500  0.59076400  0.38681700  1
  O  O6  1  0.41757900  0.39318400  0.94649600  1
  O  O7  1  0.90993500  0.60604400  0.99354100  1
  O  O8  1  0.09733900  0.90729800  0.70842700  1
  O  O9  1  0.75497200  0.41798700  0.67623900  1
  O  O10  1  0.76954800  0.42649300  0.47599400  1
  O  O11  1  0.14807200  0.24131200  0.31502600  1
  O  O12  1  0.43146400  0.93105800  0.44314100  1
  O  O13  1  0.79987800  0.76378000  0.87853400  1
  O  O14  1  0.24502800  0.58201300  0.32376100  1
  O  O15  1  0.85999900  0.76368400  0.48510500  1
  O  O16  1  0.11339300  0.90656200  0.11713600  1
  O  O17  1  0.43001800  0.93251100  0.64806700  1
  O  O18  1  0.10324800  0.90722700  0.51109500  1
  O  O19  1  0.51886900  0.25849800  0.07139800  1
  O  O20  1  0.58242100  0.60681600  0.05350400  1
  O  O21  1  0.09006500  0.39395600  0.00645900  1
  O  O22  1  0.23045200  0.57350700  0.52400600  1
  O  O23  1  0.09670500  0.39670100  0.81026200  1
  O  O24  1  0.20002400  0.74784400  0.03002600  1
  O  O25  1  0.59024100  0.09268300  0.15739300  1
  O  O26  1  0.91020700  0.10058900  0.09078500  1
  O  O27  1  0.42801800  0.42969700  0.54250800  1
  O  O28  1  0.21990800  0.07311300  0.82232700  1
  O  O29  1  0.10519500  0.40687200  0.41040700  1
  O  O30  1  0.48113100  0.74150200  0.92860200  1
  O  O31  1  0.79997600  0.25215600  0.96997400  1
  O  O32  1  0.08979300  0.89941100  0.90921500  1
  O  O33  1  0.13985000  0.24045500  0.71355400  1
  O  O34  1  0.58753500  0.58504700  0.85819300  1
  O  O35  1  0.90266100  0.09270200  0.29157300  1
  O  O36  1  0.55972200  0.56526000  0.66000900  1
  O  O37  1  0.78009200  0.92688700  0.17767300  1
  O  O38  1  0.41246500  0.41495300  0.14180700  1
  O  O39  1  0.57799200  0.10323200  0.96256900  1
  O  O40  1  0.90329500  0.60329900  0.18973800  1
  O  O41  1  0.56853600  0.06894200  0.55685900  1
  O  O42  1  0.57611900  0.57723400  0.25295600  1
  O  O43  1  0.89480500  0.59312800  0.58959300  1
  O  O44  1  0.42388100  0.42276600  0.74704400  1
  O  O45  1  0.56998200  0.06748900  0.35193300  1
  O  O46  1  0.86015000  0.75954500  0.28644600  1
  O  O47  1  0.77800400  0.42243100  0.87642800  1
  O  O48  1  0.89675200  0.09277300  0.48890500  1
  O  O49  1  0.76211200  0.91574200  0.76810800  1
  O  O50  1  0.15881600  0.74930900  0.21177700  1
  O  O51  1  0.85192800  0.75868800  0.68497400  1
  O  O52  1  0.49172100  0.24655700  0.82006100  1
  O  O53  1  0.88660700  0.09343800  0.88286400  1
  O  O54  1  0.10590800  0.42151900  0.21937900  1
  O  O55  1  0.14071300  0.74310400  0.81909600  1
  O  O56  1  0.14952100  0.73535900  0.41418900  1
  O  O57  1  0.40975900  0.90731700  0.84260700  1
  O  O58  1  0.89360600  0.09176700  0.68887900  1
  O  O59  1  0.09675500  0.40923600  0.61318300  1
  O  O60  1  0.16709400  0.24619600  0.90786500  1
  O  O61  1  0.23788800  0.08425800  0.23189200  1
  O  O62  1  0.56014900  0.07455200  0.75855600  1
  O  O63  1  0.42200800  0.89676800  0.03743100  1
  O  O64  1  0.23427600  0.07517600  0.42376200  1
  O  O65  1  0.44027800  0.43474000  0.33999100  1
  O  O66  1  0.89409200  0.57848100  0.78062100  1
  O  O67  1  0.85873600  0.26200100  0.38644500  1
  O  O68  1  0.57198200  0.57030300  0.45749200  1
  O  O69  1  0.22952000  0.07919800  0.62020100  1
  O  O70  1  0.22199600  0.57756900  0.12357200  1
  O  O71  1  0.76572400  0.92482400  0.57623800  1
  O  O72  1  0.77048000  0.92080200  0.37979900  1
  O  O73  1  0.85928700  0.25689600  0.18090400  1
  O  O74  1  0.14000100  0.23631600  0.51489500  1
  O  O75  1  0.85047900  0.26464100  0.58581100  1
  O  O76  1  0.22978000  0.58788500  0.71883100  1
  O  O77  1  0.77022000  0.41211500  0.28116900  1
  O  O78  1  0.14126400  0.73799900  0.61355500  1
  O  O79  1  0.10639400  0.90823300  0.31112100  1
loop_
_geom_bond_atom_site_label_1
_geom_bond_atom_site_label_2
_geom_bond_distance
_geom_bond_site_symmetry_2
Ba0 O78 2.829595 1_555
Ba0 O17 2.865612 1_555
Ba0 O51 2.892409 1_555
Ba0 O76 2.898704 1_555
Ba0 O13 2.901556 1_555
Ba0 O30 2.950500 1_555
Ba0 O49 2.954008 1_555
Ba0 O36 2.957188 1_555
Ba0 O57 2.967833 1_555
Ba0 O34 3.107833 1_555
Ba0 O55 3.164375 1_555
Ba1 O20 2.840851 1_555
Ba1 O40 2.867602 1_555
Ba1 O7 2.881648 1_554
Ba1 O47 2.935501 1_554
Ba1 O6 2.937844 1_554
Ba1 O38 2.951086 1_555
Ba1 O21 2.970370 1_655
Ba1 O77 2.991801 1_555
Ba1 O19 3.022064 1_555
Ba1 O54 3.053172 1_655
Ba1 O73 3.104280 1_555
Ba1 O31 3.158420 1_554
Ba2 O39 2.776547 1_554
Ba2 O63 2.781328 1_545
Ba2 O16 2.818010 1_545
Ba2 O28 2.878709 1_554
Ba2 O32 2.883355 1_544
Ba2 O25 2.926291 1_555
Ba2 O4 2.970746 1_555
Ba2 O26 3.016440 1_455
Ba2 O61 3.076560 1_555
Ba2 O60 3.169110 1_554
Ba2 O53 3.176586 1_454
Ba2 O19 3.304909 1_555
Ba3 O63 2.776547 1_556
Ba3 O39 2.781328 1_565
Ba3 O53 2.818010 1_565
Ba3 O37 2.878709 1_556
Ba3 O26 2.883355 1_566
Ba3 O57 2.926291 1_555
Ba3 O13 2.970746 1_555
Ba3 O32 3.016440 1_655
Ba3 O49 3.076560 1_555
Ba3 O0 3.169110 1_556
Ba3 O16 3.176586 1_656
Ba3 O30 3.304909 1_555
Ba4 O3 2.789362 1_555
Ba4 O56 2.857677 1_555
Ba4 O15 2.860038 1_555
Ba4 O68 2.900620 1_555
Ba4 O12 2.924391 1_555
Ba4 O14 2.962391 1_555
Ba4 O72 2.986941 1_555
Ba4 O46 3.134253 1_555
Ba4 O42 3.157449 1_555
Ba4 O2 3.157781 1_555
Ba4 O50 3.172915 1_555
Ba5 O67 2.829595 1_555
Ba5 O45 2.865612 1_555
Ba5 O11 2.892409 1_555
Ba5 O77 2.898704 1_555
Ba5 O4 2.901556 1_555
Ba5 O19 2.950500 1_555
Ba5 O61 2.954008 1_555
Ba5 O65 2.957188 1_555
Ba5 O25 2.967833 1_555
Ba5 O38 3.107833 1_555
Ba5 O73 3.164375 1_555
Ba6 O6 2.840851 1_555
Ba6 O23 2.867602 1_555
Ba6 O21 2.881648 1_556
Ba6 O70 2.935501 1_556
Ba6 O20 2.937844 1_556
Ba6 O34 2.951086 1_555
Ba6 O7 2.970370 1_455
Ba6 O76 2.991801 1_555
Ba6 O30 3.022064 1_555
Ba6 O66 3.053172 1_455
Ba6 O55 3.104280 1_555
Ba6 O24 3.158420 1_556
Ba7 O52 2.789362 1_555
Ba7 O75 2.857677 1_555
Ba7 O74 2.860038 1_555
Ba7 O27 2.900620 1_555
Ba7 O41 2.924391 1_555
Ba7 O9 2.962391 1_555
Ba7 O69 2.986941 1_555
Ba7 O33 3.134253 1_555
Ba7 O44 3.157449 1_555
Ba7 O62 3.157781 1_555
Ba7 O1 3.172915 1_555
O0 Ti24 2.013352 1_555
O0 Ti35 2.066637 1_555
O0 Ti18 2.171930 1_655
O0 Ti7 2.388352 1_554
O1 Ti30 2.035475 1_555
O1 Ti28 2.122559 1_655
O1 Ti31 2.157160 1_555
O1 Ti26 2.184620 1_555
O2 Ti0 1.952812 1_555
O2 Ti6 1.972791 1_555
O2 Ti15 2.110232 1_565
O3 Ti35 1.841474 1_555
O3 Ti6 1.875957 1_555
O4 Ti33 1.870134 1_555
O4 Ti13 1.888128 1_555
O5 Ti20 1.901409 1_655
O5 Ti4 1.973954 1_555
O5 Ti8 2.117924 1_655
O6 Ti14 1.799315 1_555
O6 Ti33 2.048803 1_556
O7 Ti18 1.853616 1_656
O7 Ti7 1.929419 1_555
O8 Ti17 1.912451 1_455
O8 Ti32 1.930542 1_555
O8 Ti1 2.186553 1_455
O9 Ti31 1.886780 1_555
O9 Ti2 2.107876 1_555
O9 Ti25 2.133038 1_555
O10 Ti23 1.929724 1_555
O10 Ti2 2.022189 1_555
O10 Ti4 2.065583 1_555
O11 Ti22 1.946502 1_555
O11 Ti3 1.983320 1_455
O11 Ti13 2.111127 1_555
O12 Ti11 1.932467 1_555
O12 Ti16 2.051861 1_565
O12 Ti0 2.119479 1_555
O13 Ti7 1.870134 1_555
O13 Ti1 1.888128 1_555
O14 Ti20 1.886780 1_555
O14 Ti12 2.107876 1_555
O14 Ti9 2.133038 1_555
O15 Ti21 1.961625 1_555
O15 Ti17 2.008384 1_555
O15 Ti8 2.119320 1_655
O16 Ti24 1.816321 1_455
O16 Ti6 2.005801 1_555
O17 Ti11 1.950021 1_555
O17 Ti10 2.037427 1_565
O17 Ti32 2.071471 1_555
O18 Ti11 1.923298 1_555
O18 Ti21 1.993223 1_455
O18 Ti17 2.012600 1_455
O19 Ti34 1.830573 1_555
O19 Ti33 1.981931 1_555
O20 Ti35 1.799315 1_555
O20 Ti7 2.048803 1_554
O21 Ti30 1.853616 1_454
O21 Ti33 1.929419 1_555
O22 Ti8 1.929724 1_555
O22 Ti12 2.022189 1_555
O22 Ti19 2.065583 1_555
O23 Ti31 1.906241 1_455
O23 Ti14 2.053514 1_555
O23 Ti30 2.079034 1_455
O24 Ti18 1.900166 1_555
O24 Ti29 2.004391 1_554
O24 Ti6 2.068562 1_555
O25 Ti15 1.821251 1_555
O25 Ti34 2.001725 1_555
O26 Ti13 1.801772 1_655
O26 Ti34 2.034850 1_555
O27 Ti12 1.876505 1_555
O27 Ti2 2.092913 1_555
O27 Ti19 2.185452 1_555
O28 Ti28 1.846876 1_555
O28 Ti32 1.861640 1_545
O29 Ti12 1.900883 1_555
O29 Ti23 2.004473 1_455
O29 Ti3 2.027941 1_455
O30 Ti29 1.830573 1_555
O30 Ti7 1.981931 1_555
O31 Ti30 1.900166 1_555
O31 Ti34 2.004391 1_556
O31 Ti26 2.068562 1_555
O32 Ti1 1.801772 1_455
O32 Ti29 2.034850 1_555
O33 Ti27 1.980924 1_555
O33 Ti28 2.105606 1_555
O33 Ti31 2.135896 1_455
O33 Ti14 2.393082 1_555
O34 Ti7 1.843951 1_555
O34 Ti25 1.896371 1_555
O35 Ti22 1.912451 1_655
O35 Ti15 1.930542 1_555
O35 Ti13 2.186553 1_655
O36 Ti2 1.968438 1_555
O36 Ti19 1.987501 1_555
O36 Ti25 2.115359 1_555
O37 Ti24 1.846876 1_555
O37 Ti15 1.861640 1_565
O38 Ti33 1.843951 1_555
O38 Ti9 1.896371 1_555
O39 Ti26 1.855834 1_555
O39 Ti34 1.951120 1_556
O40 Ti20 1.906241 1_655
O40 Ti35 2.053514 1_555
O40 Ti18 2.079034 1_655
O41 Ti16 1.932467 1_555
O41 Ti11 2.051861 1_545
O41 Ti10 2.119479 1_555
O42 Ti4 1.971989 1_555
O42 Ti35 2.007319 1_555
O42 Ti9 2.093397 1_555
O43 Ti2 1.900883 1_555
O43 Ti8 2.004473 1_655
O43 Ti5 2.027941 1_655
O44 Ti19 1.971989 1_555
O44 Ti14 2.007319 1_555
O44 Ti25 2.093397 1_555
O45 Ti16 1.950021 1_555
O45 Ti0 2.037427 1_545
O45 Ti15 2.071471 1_555
O46 Ti21 1.980924 1_555
O46 Ti24 2.105606 1_555
O46 Ti20 2.135896 1_655
O46 Ti35 2.393082 1_555
O47 Ti25 1.835826 1_555
O47 Ti30 1.867563 1_555
O48 Ti16 1.923298 1_555
O48 Ti27 1.993223 1_655
O48 Ti22 2.012600 1_655
O49 Ti10 1.822613 1_565
O49 Ti1 1.923158 1_555
O50 Ti18 2.035475 1_555
O50 Ti24 2.122559 1_455
O50 Ti20 2.157160 1_555
O50 Ti6 2.184620 1_555
O51 Ti17 1.946502 1_555
O51 Ti5 1.983320 1_655
O51 Ti1 2.111127 1_555
O52 Ti14 1.841474 1_555
O52 Ti26 1.875957 1_555
O53 Ti28 1.816321 1_655
O53 Ti26 2.005801 1_555
O54 Ti3 1.800656 1_455
O54 Ti9 1.904828 1_555
O55 Ti5 2.011027 1_555
O55 Ti1 2.028616 1_455
O55 Ti29 2.069224 1_555
O56 Ti8 1.934767 1_555
O56 Ti20 1.978766 1_555
O56 Ti21 2.190727 1_455
O57 Ti32 1.821251 1_555
O57 Ti29 2.001725 1_555
O58 Ti10 1.939459 1_555
O58 Ti27 1.942183 1_655
O58 Ti28 2.037686 1_655
O59 Ti31 1.901409 1_455
O59 Ti19 1.973954 1_555
O59 Ti23 2.117924 1_455
O60 Ti28 2.013352 1_555
O60 Ti14 2.066637 1_555
O60 Ti30 2.171930 1_455
O60 Ti33 2.388352 1_556
O61 Ti0 1.822613 1_545
O61 Ti13 1.923158 1_555
O62 Ti10 1.952812 1_555
O62 Ti26 1.972791 1_555
O62 Ti32 2.110232 1_545
O63 Ti6 1.855834 1_555
O63 Ti29 1.951120 1_554
O64 Ti22 1.901570 1_555
O64 Ti11 2.032938 1_545
O64 Ti0 2.084488 1_545
O65 Ti12 1.968438 1_555
O65 Ti4 1.987501 1_555
O65 Ti9 2.115359 1_555
O66 Ti5 1.800656 1_655
O66 Ti25 1.904828 1_555
O67 Ti23 1.856702 1_555
O67 Ti3 2.131396 1_555
O67 Ti22 2.149961 1_655
O68 Ti2 1.876505 1_555
O68 Ti12 2.092913 1_555
O68 Ti4 2.185452 1_555
O69 Ti27 1.870260 1_555
O69 Ti11 2.018014 1_545
O69 Ti32 2.357606 1_545
O70 Ti9 1.835826 1_555
O70 Ti18 1.867563 1_555
O71 Ti17 1.901570 1_555
O71 Ti16 2.032938 1_565
O71 Ti10 2.084488 1_565
O72 Ti21 1.870260 1_555
O72 Ti16 2.018014 1_565
O72 Ti15 2.357606 1_565
O73 Ti3 2.011027 1_555
O73 Ti13 2.028616 1_655
O73 Ti34 2.069224 1_555
O74 Ti27 1.961625 1_555
O74 Ti22 2.008384 1_555
O74 Ti23 2.119320 1_455
O75 Ti23 1.934767 1_555
O75 Ti31 1.978766 1_555
O75 Ti27 2.190727 1_655
O76 Ti19 1.836499 1_555
O76 Ti5 1.963040 1_555
O77 Ti4 1.836499 1_555
O77 Ti3 1.963040 1_555
O78 Ti8 1.856702 1_555
O78 Ti5 2.131396 1_555
O78 Ti17 2.149961 1_455
O79 Ti0 1.939459 1_555
O79 Ti21 1.942183 1_455
O79 Ti24 2.037686 1_455
