# generated using pymatgen
data_Dy5Si4
_symmetry_space_group_name_H-M   'P 1'
_cell_length_a   7.43774040
_cell_length_b   7.67280172
_cell_length_c   14.54790711
_cell_angle_alpha   90.00002521
_cell_angle_beta   89.99706043
_cell_angle_gamma   89.99994424
_symmetry_Int_Tables_number   1
_chemical_formula_structural   Dy5Si4
_chemical_formula_sum   'Dy20 Si16'
_cell_volume   830.22443347
_cell_formula_units_Z   4
loop_
 _symmetry_equiv_pos_site_id
 _symmetry_equiv_pos_as_xyz
  1  'x, y, z'
loop_
 _atom_site_type_symbol
 _atom_site_label
 _atom_site_symmetry_multiplicity
 _atom_site_fract_x
 _atom_site_fract_y
 _atom_site_fract_z
 _atom_site_occupancy
  Dy  Dy0  1  0.64607795  0.98916103  0.74987832  1
  Dy  Dy1  1  0.14607771  0.51083820  0.74987817  1
  Dy  Dy2  1  0.85391820  0.48914844  0.25012168  1
  Dy  Dy3  1  0.35391744  0.01085232  0.25012171  1
  Dy  Dy4  1  0.96952058  0.81732836  0.90089557  1
  Dy  Dy5  1  0.46955954  0.68263824  0.59894854  1
  Dy  Dy6  1  0.53048173  0.31733496  0.09910662  1
  Dy  Dy7  1  0.03044491  0.18262493  0.40104986  1
  Dy  Dy8  1  0.03048243  0.18266106  0.09910631  1
  Dy  Dy9  1  0.53044404  0.31737213  0.40104966  1
  Dy  Dy10  1  0.46952097  0.68267541  0.90089533  1
  Dy  Dy11  1  0.96955880  0.81736517  0.59894834  1
  Dy  Dy12  1  0.68462978  0.82010077  0.12267503  1
  Dy  Dy13  1  0.18466238  0.67993372  0.37744661  1
  Dy  Dy14  1  0.81536537  0.32011111  0.87731593  1
  Dy  Dy15  1  0.31533281  0.17992078  0.62256352  1
  Dy  Dy16  1  0.31536480  0.17988733  0.87731554  1
  Dy  Dy17  1  0.81533313  0.32007823  0.62256331  1
  Dy  Dy18  1  0.18462966  0.67990074  0.12267465  1
  Dy  Dy19  1  0.68466241  0.82006673  0.37744632  1
  Si  Si0  1  0.76323059  0.62748460  0.74991859  1
  Si  Si1  1  0.26323111  0.87251404  0.74991957  1
  Si  Si2  1  0.73676203  0.12747521  0.25008106  1
  Si  Si3  1  0.23676272  0.37252623  0.25008201  1
  Si  Si4  1  0.01848460  0.10428839  0.74992060  1
  Si  Si5  1  0.51848424  0.39571156  0.74992071  1
  Si  Si6  1  0.48151441  0.60429373  0.25007841  1
  Si  Si7  1  0.98151155  0.89570558  0.25007908  1
  Si  Si8  1  0.85690228  0.52747878  0.04033095  1
  Si  Si9  1  0.35687651  0.97250698  0.45969402  1
  Si  Si10  1  0.64310541  0.02746243  0.95964622  1
  Si  Si11  1  0.14313244  0.47251623  0.54032725  1
  Si  Si12  1  0.14310488  0.47253668  0.95964674  1
  Si  Si13  1  0.64313252  0.02748304  0.54032792  1
  Si  Si14  1  0.35690163  0.97252222  0.04033157  1
  Si  Si15  1  0.85687843  0.52749465  0.45969431  1
loop_
_geom_bond_atom_site_label_1
_geom_bond_atom_site_label_2
_geom_bond_distance
_geom_bond_site_symmetry_2
Dy0 Si4 2.907311 1_665
Dy0 Si0 2.908654 1_555
Dy0 Si1 2.984860 1_555
Dy0 Si13 3.062747 1_565
Dy0 Si10 3.065880 1_565
Dy0 Si5 3.260545 1_565
Dy1 Si5 2.907307 1_555
Dy1 Si1 2.908653 1_555
Dy1 Si0 2.984859 1_455
Dy1 Si11 3.062754 1_555
Dy1 Si12 3.065890 1_555
Dy1 Si4 3.260540 1_555
Dy2 Si6 2.907331 1_555
Dy2 Si2 2.908640 1_555
Dy2 Si3 2.984785 1_655
Dy2 Si15 3.063087 1_555
Dy2 Si8 3.066233 1_555
Dy2 Si7 3.260595 1_555
Dy3 Si7 2.907351 1_445
Dy3 Si3 2.908641 1_555
Dy3 Si2 2.984789 1_555
Dy3 Si9 3.063082 1_545
Dy3 Si14 3.066224 1_545
Dy3 Si6 3.260611 1_545
Dy4 Si10 3.037108 1_565
Dy4 Si0 3.049667 1_555
Dy4 Si12 3.065334 1_655
Dy4 Si8 3.124456 1_556
Dy4 Si1 3.126521 1_655
Dy4 Si4 3.131207 1_665
Dy5 Si11 3.036673 1_555
Dy5 Si1 3.049751 1_555
Dy5 Si13 3.065087 1_565
Dy5 Si9 3.123037 1_555
Dy5 Si0 3.126379 1_555
Dy5 Si5 3.130991 1_555
Dy6 Si8 3.037285 1_555
Dy6 Si2 3.049662 1_555
Dy6 Si14 3.065559 1_545
Dy6 Si10 3.124826 1_554
Dy6 Si3 3.126564 1_555
Dy6 Si6 3.131169 1_555
Dy7 Si9 3.036775 1_545
Dy7 Si3 3.049774 1_555
Dy7 Si15 3.065325 1_455
Dy7 Si11 3.123385 1_555
Dy7 Si2 3.126424 1_455
Dy7 Si7 3.130944 1_445
Dy8 Si14 3.037250 1_545
Dy8 Si3 3.049696 1_555
Dy8 Si8 3.065592 1_455
Dy8 Si12 3.124835 1_554
Dy8 Si2 3.126560 1_455
Dy8 Si7 3.131166 1_445
Dy9 Si15 3.036814 1_555
Dy9 Si2 3.049764 1_555
Dy9 Si9 3.065301 1_545
Dy9 Si13 3.123383 1_555
Dy9 Si3 3.126408 1_555
Dy9 Si6 3.130958 1_555
Dy10 Si12 3.037139 1_555
Dy10 Si1 3.049635 1_555
Dy10 Si10 3.065304 1_565
Dy10 Si14 3.124449 1_556
Dy10 Si0 3.126529 1_555
Dy10 Si5 3.131222 1_555
Dy11 Si13 3.036646 1_565
Dy11 Si0 3.049762 1_555
Dy11 Si11 3.065115 1_655
Dy11 Si15 3.123036 1_555
Dy11 Si1 3.126393 1_655
Dy11 Si4 3.130973 1_665
Dy12 Si8 2.849161 1_555
Dy12 Si10 2.872626 1_564
Dy12 Si6 2.908453 1_555
Dy12 Si7 2.940765 1_555
Dy12 Si14 2.957149 1_555
Dy12 Si2 3.024567 1_565
Dy13 Si9 2.848137 1_555
Dy13 Si11 2.871063 1_555
Dy13 Si7 2.908202 1_455
Dy13 Si6 2.940179 1_555
Dy13 Si15 2.956882 1_455
Dy13 Si3 3.024340 1_555
Dy14 Si10 2.849199 1_555
Dy14 Si8 2.872495 1_556
Dy14 Si4 2.908460 1_655
Dy14 Si5 2.940673 1_555
Dy14 Si12 2.957158 1_655
Dy14 Si0 3.024487 1_555
Dy15 Si11 2.848156 1_555
Dy15 Si9 2.870923 1_545
Dy15 Si5 2.908191 1_555
Dy15 Si4 2.940046 1_555
Dy15 Si13 2.956901 1_555
Dy15 Si1 3.024263 1_545
Dy16 Si12 2.849205 1_555
Dy16 Si14 2.872497 1_546
Dy16 Si5 2.908465 1_555
Dy16 Si4 2.940663 1_555
Dy16 Si10 2.957161 1_555
Dy16 Si1 3.024472 1_545
Dy17 Si13 2.848151 1_555
Dy17 Si15 2.870931 1_555
Dy17 Si4 2.908188 1_655
Dy17 Si5 2.940053 1_555
Dy17 Si11 2.956904 1_655
Dy17 Si0 3.024253 1_555
Dy18 Si14 2.849153 1_555
Dy18 Si12 2.872625 1_554
Dy18 Si7 2.908461 1_455
Dy18 Si6 2.940781 1_555
Dy18 Si8 2.957149 1_455
Dy18 Si3 3.024581 1_555
Dy19 Si15 2.848139 1_555
Dy19 Si13 2.871068 1_565
Dy19 Si6 2.908200 1_555
Dy19 Si7 2.940154 1_555
Dy19 Si9 2.956895 1_555
Dy19 Si2 3.024353 1_565
Si0 Si5 2.544846 1_555
Si1 Si4 2.544851 1_565
Si2 Si7 2.544842 1_545
Si3 Si6 2.544844 1_555
Si10 Si14 2.467116 1_546
Si11 Si15 2.467229 1_455
Si12 Si8 2.467103 1_456
Si13 Si9 2.467246 1_545
