# generated using pymatgen
data_Ag15P4S16Cl3
_symmetry_space_group_name_H-M   'P 1'
_cell_length_a   13.04682166
_cell_length_b   13.04682166
_cell_length_c   13.04682166
_cell_angle_alpha   109.47122063
_cell_angle_beta   109.47122063
_cell_angle_gamma   109.47122063
_symmetry_Int_Tables_number   1
_chemical_formula_structural   Ag15P4S16Cl3
_chemical_formula_sum   'Ag30 P8 S32 Cl6'
_cell_volume   1709.59125467
_cell_formula_units_Z   2
loop_
 _symmetry_equiv_pos_site_id
 _symmetry_equiv_pos_as_xyz
  1  'x, y, z'
loop_
 _atom_site_type_symbol
 _atom_site_label
 _atom_site_symmetry_multiplicity
 _atom_site_fract_x
 _atom_site_fract_y
 _atom_site_fract_z
 _atom_site_occupancy
  Ag  Ag0  1  0.78165300  0.58797400  0.62701900  1
  Ag  Ag1  1  0.12500000  0.75000000  0.87500000  1
  Ag  Ag2  1  0.15463400  0.87298100  0.46095500  1
  Ag  Ag3  1  0.69368000  0.03904500  0.91202600  1
  Ag  Ag4  1  0.19368000  0.41202600  0.53904500  1
  Ag  Ag5  1  0.96095500  0.37298100  0.65463400  1
  Ag  Ag6  1  0.46095500  0.15463400  0.87298100  1
  Ag  Ag7  1  0.08797400  0.28165300  0.12701900  1
  Ag  Ag8  1  0.91202600  0.69368000  0.03904500  1
  Ag  Ag9  1  0.80632000  0.71834700  0.34536600  1
  Ag  Ag10  1  0.53904500  0.19368000  0.41202600  1
  Ag  Ag11  1  0.75000000  0.87500000  0.12500000  1
  Ag  Ag12  1  0.58797400  0.62701900  0.78165300  1
  Ag  Ag13  1  0.21834700  0.30632000  0.84536600  1
  Ag  Ag14  1  0.03904500  0.91202600  0.69368000  1
  Ag  Ag15  1  0.12701900  0.08797400  0.28165300  1
  Ag  Ag16  1  0.65463400  0.96095500  0.37298100  1
  Ag  Ag17  1  0.37298100  0.65463400  0.96095500  1
  Ag  Ag18  1  0.87500000  0.12500000  0.75000000  1
  Ag  Ag19  1  0.37500000  0.25000000  0.62500000  1
  Ag  Ag20  1  0.84536600  0.21834700  0.30632000  1
  Ag  Ag21  1  0.34536600  0.80632000  0.71834700  1
  Ag  Ag22  1  0.87298100  0.46095500  0.15463400  1
  Ag  Ag23  1  0.28165300  0.12701900  0.08797400  1
  Ag  Ag24  1  0.62701900  0.78165300  0.58797400  1
  Ag  Ag25  1  0.71834700  0.34536600  0.80632000  1
  Ag  Ag26  1  0.62500000  0.37500000  0.25000000  1
  Ag  Ag27  1  0.41202600  0.53904500  0.19368000  1
  Ag  Ag28  1  0.30632000  0.84536600  0.21834700  1
  Ag  Ag29  1  0.25000000  0.62500000  0.37500000  1
  P  P0  1  0.39973000  0.39973000  0.39973000  1
  P  P1  1  0.50000000  0.00000000  0.10027000  1
  P  P2  1  0.60027000  0.50000000  0.00000000  1
  P  P3  1  0.10027000  0.50000000  0.00000000  1
  P  P4  1  0.00000000  0.60027000  0.50000000  1
  P  P5  1  0.00000000  0.10027000  0.50000000  1
  P  P6  1  0.89973000  0.89973000  0.89973000  1
  P  P7  1  0.50000000  0.00000000  0.60027000  1
  S  S0  1  0.32209900  0.94757800  0.08170700  1
  S  S1  1  0.08170700  0.32209900  0.94757800  1
  S  S2  1  0.50000000  0.00000000  0.44303800  1
  S  S3  1  0.67790100  0.12547900  0.75960900  1
  S  S4  1  0.37452100  0.05242200  0.63412900  1
  S  S5  1  0.50000000  0.00000000  0.94303800  1
  S  S6  1  0.05696200  0.05696200  0.05696200  1
  S  S7  1  0.62547900  0.17790100  0.25960900  1
  S  S8  1  0.94303800  0.50000000  0.00000000  1
  S  S9  1  0.41829300  0.36587100  0.24039100  1
  S  S10  1  0.55242200  0.87452100  0.13412900  1
  S  S11  1  0.44757800  0.82209900  0.58170700  1
  S  S12  1  0.00000000  0.94303800  0.50000000  1
  S  S13  1  0.75960900  0.67790100  0.12547900  1
  S  S14  1  0.36587100  0.24039100  0.41829300  1
  S  S15  1  0.82209900  0.58170700  0.44757800  1
  S  S16  1  0.94757800  0.08170700  0.32209900  1
  S  S17  1  0.86587100  0.91829300  0.74039100  1
  S  S18  1  0.91829300  0.74039100  0.86587100  1
  S  S19  1  0.12547900  0.75960900  0.67790100  1
  S  S20  1  0.00000000  0.44303800  0.50000000  1
  S  S21  1  0.44303800  0.50000000  0.00000000  1
  S  S22  1  0.63412900  0.37452100  0.05242200  1
  S  S23  1  0.58170700  0.44757800  0.82209900  1
  S  S24  1  0.24039100  0.41829300  0.36587100  1
  S  S25  1  0.55696200  0.55696200  0.55696200  1
  S  S26  1  0.25960900  0.62547900  0.17790100  1
  S  S27  1  0.05242200  0.63412900  0.37452100  1
  S  S28  1  0.17790100  0.25960900  0.62547900  1
  S  S29  1  0.87452100  0.13412900  0.55242200  1
  S  S30  1  0.74039100  0.86587100  0.91829300  1
  S  S31  1  0.13412900  0.55242200  0.87452100  1
  Cl  Cl0  1  0.12500000  0.87500000  0.25000000  1
  Cl  Cl1  1  0.62500000  0.75000000  0.37500000  1
  Cl  Cl2  1  0.75000000  0.37500000  0.62500000  1
  Cl  Cl3  1  0.25000000  0.12500000  0.87500000  1
  Cl  Cl4  1  0.37500000  0.62500000  0.75000000  1
  Cl  Cl5  1  0.87500000  0.25000000  0.12500000  1
loop_
_geom_bond_atom_site_label_1
_geom_bond_atom_site_label_2
_geom_bond_distance
_geom_bond_site_symmetry_2
Ag0 S15 2.547706 1_555
Ag0 S18 2.577850 1_555
Ag0 S25 2.601781 1_555
Ag0 Cl2 2.659135 1_555
Ag1 S18 2.617922 1_455
Ag1 S0 2.617926 1_556
Ag1 S31 2.617926 1_555
Ag1 S19 2.617931 1_555
Ag2 S4 2.547706 1_565
Ag2 S27 2.577852 1_555
Ag2 S12 2.601781 1_555
Ag2 Cl0 2.659135 1_555
Ag3 S30 2.547692 1_545
Ag3 S3 2.577840 1_555
Ag3 S5 2.601793 1_555
Ag3 Cl5 2.659133 1_556
Ag4 S24 2.547692 1_555
Ag4 S28 2.577840 1_555
Ag4 S20 2.601793 1_555
Ag4 Cl4 2.659133 1_555
Ag5 S31 2.547706 1_655
Ag5 S29 2.577852 1_555
Ag5 S20 2.601781 1_655
Ag5 Cl2 2.659135 1_555
Ag6 S22 2.547706 1_556
Ag6 S4 2.577852 1_555
Ag6 S5 2.601781 1_555
Ag6 Cl3 2.659135 1_555
Ag7 S1 2.547706 1_554
Ag7 S24 2.577850 1_555
Ag7 S6 2.601781 1_555
Ag7 Cl5 2.659135 1_455
Ag8 S18 2.547692 1_554
Ag8 S13 2.577840 1_555
Ag8 S8 2.601793 1_555
Ag8 Cl0 2.659133 1_655
Ag9 S13 2.547711 1_555
Ag9 S15 2.577854 1_555
Ag9 S12 2.601785 1_655
Ag9 Cl1 2.659122 1_555
Ag10 S14 2.547692 1_555
Ag10 S7 2.577840 1_555
Ag10 S2 2.601793 1_555
Ag10 Cl2 2.659133 1_555
Ag11 S30 2.617922 1_554
Ag11 S16 2.617926 1_565
Ag11 S10 2.617926 1_555
Ag11 S13 2.617931 1_555
Ag12 S23 2.547706 1_555
Ag12 S30 2.577850 1_555
Ag12 S25 2.601781 1_555
Ag12 Cl4 2.659135 1_555
Ag13 S28 2.547711 1_555
Ag13 S1 2.577854 1_555
Ag13 S21 2.601785 1_556
Ag13 Cl3 2.659122 1_555
Ag14 S17 2.547692 1_455
Ag14 S19 2.577840 1_555
Ag14 S12 2.601793 1_555
Ag14 Cl3 2.659133 1_565
Ag15 S16 2.547706 1_455
Ag15 S14 2.577850 1_555
Ag15 S6 2.601781 1_555
Ag15 Cl0 2.659135 1_545
Ag16 S29 2.547706 1_565
Ag16 S10 2.577852 1_555
Ag16 S2 2.601781 1_565
Ag16 Cl1 2.659135 1_555
Ag17 S10 2.547706 1_556
Ag17 S31 2.577852 1_555
Ag17 S21 2.601781 1_556
Ag17 Cl4 2.659135 1_555
Ag18 S17 2.617922 1_545
Ag18 S1 2.617926 1_655
Ag18 S29 2.617926 1_555
Ag18 S3 2.617931 1_555
Ag19 S14 2.617922 1_555
Ag19 S23 2.617926 1_555
Ag19 S4 2.617926 1_555
Ag19 S28 2.617931 1_555
Ag20 S7 2.547711 1_555
Ag20 S16 2.577854 1_555
Ag20 S20 2.601785 1_655
Ag20 Cl5 2.659122 1_555
Ag21 S19 2.547711 1_555
Ag21 S11 2.577854 1_555
Ag21 S5 2.601785 1_565
Ag21 Cl4 2.659122 1_555
Ag22 S27 2.547706 1_655
Ag22 S22 2.577852 1_555
Ag22 S8 2.601781 1_555
Ag22 Cl5 2.659135 1_555
Ag23 S0 2.547706 1_545
Ag23 S9 2.577850 1_555
Ag23 S6 2.601781 1_555
Ag23 Cl3 2.659135 1_554
Ag24 S11 2.547706 1_555
Ag24 S17 2.577850 1_555
Ag24 S25 2.601781 1_555
Ag24 Cl1 2.659135 1_555
Ag25 S3 2.547711 1_555
Ag25 S23 2.577854 1_555
Ag25 S8 2.601785 1_556
Ag25 Cl2 2.659122 1_555
Ag26 S9 2.617922 1_555
Ag26 S15 2.617926 1_555
Ag26 S22 2.617926 1_555
Ag26 S7 2.617931 1_555
Ag27 S9 2.547692 1_555
Ag27 S26 2.577840 1_555
Ag27 S21 2.601793 1_555
Ag27 Cl1 2.659133 1_555
Ag28 S26 2.547711 1_555
Ag28 S0 2.577854 1_555
Ag28 S2 2.601785 1_565
Ag28 Cl0 2.659122 1_555
Ag29 S24 2.617922 1_555
Ag29 S11 2.617926 1_555
Ag29 S27 2.617926 1_555
Ag29 S26 2.617931 1_555
P0 S25 2.051378 1_555
P0 S14 2.090511 1_555
P0 S24 2.090511 1_555
P0 S9 2.090511 1_555
P1 S5 2.051378 1_554
P1 S10 2.090499 1_545
P1 S0 2.090499 1_545
P1 S7 2.090503 1_555
P2 S21 2.051378 1_555
P2 S22 2.090499 1_555
P2 S23 2.090499 1_554
P2 S13 2.090503 1_555
P3 S8 2.051378 1_455
P3 S31 2.090499 1_554
P3 S1 2.090499 1_554
P3 S26 2.090503 1_555
P4 S20 2.051378 1_555
P4 S27 2.090499 1_555
P4 S15 2.090499 1_455
P4 S19 2.090503 1_555
P5 S12 2.051378 1_545
P5 S29 2.090499 1_455
P5 S16 2.090499 1_455
P5 S28 2.090503 1_555
P6 S6 2.051378 1_666
P6 S30 2.090511 1_555
P6 S18 2.090511 1_555
P6 S17 2.090511 1_555
P7 S2 2.051378 1_555
P7 S4 2.090499 1_555
P7 S11 2.090499 1_545
P7 S3 2.090503 1_555
