# generated using pymatgen
data_Rb2Pd(NO3)4
_symmetry_space_group_name_H-M   'P 1'
_cell_length_a   8.17163900
_cell_length_b   8.03707700
_cell_length_c   9.97541411
_cell_angle_alpha   79.68347948
_cell_angle_beta   90.00000000
_cell_angle_gamma   90.00000000
_symmetry_Int_Tables_number   1
_chemical_formula_structural   Rb2Pd(NO3)4
_chemical_formula_sum   'Rb4 Pd2 N8 O24'
_cell_volume   644.55475422
_cell_formula_units_Z   2
loop_
 _symmetry_equiv_pos_site_id
 _symmetry_equiv_pos_as_xyz
  1  'x, y, z'
loop_
 _atom_site_type_symbol
 _atom_site_label
 _atom_site_symmetry_multiplicity
 _atom_site_fract_x
 _atom_site_fract_y
 _atom_site_fract_z
 _atom_site_occupancy
  Rb  Rb0  1  0.57052700  0.34076100  0.32198000  1
  Rb  Rb1  1  0.42947300  0.65923900  0.67802000  1
  Rb  Rb2  1  0.07052700  0.65923900  0.17802000  1
  Rb  Rb3  1  0.92947300  0.34076100  0.82198000  1
  Pd  Pd0  1  0.00000000  0.00000000  0.50000000  1
  Pd  Pd1  1  0.50000000  0.00000000  0.00000000  1
  N  N0  1  0.45385200  0.83440100  0.28352000  1
  N  N1  1  0.54614800  0.16559900  0.71648000  1
  N  N2  1  0.15493700  0.32379400  0.51843100  1
  N  N3  1  0.34506300  0.32379400  0.01843100  1
  N  N4  1  0.65493700  0.67620600  0.98156900  1
  N  N5  1  0.84506300  0.67620600  0.48156900  1
  N  N6  1  0.04614800  0.83440100  0.78352000  1
  N  N7  1  0.95385200  0.16559900  0.21648000  1
  O  O0  1  0.17817100  0.44726400  0.57627300  1
  O  O1  1  0.67817100  0.55273600  0.92372700  1
  O  O2  1  0.10604500  0.84203400  0.65854800  1
  O  O3  1  0.78417600  0.69170200  0.59291400  1
  O  O4  1  0.71582400  0.69170200  0.09291400  1
  O  O5  1  0.89395500  0.15796600  0.34145200  1
  O  O6  1  0.82182900  0.55273600  0.42372700  1
  O  O7  1  0.94081900  0.93612800  0.80662800  1
  O  O8  1  0.28417600  0.30829800  0.90708600  1
  O  O9  1  0.60462000  0.28183000  0.62902900  1
  O  O10  1  0.44285000  0.20532500  0.08408900  1
  O  O11  1  0.44081900  0.06387200  0.69337200  1
  O  O12  1  0.94285000  0.79467500  0.41591100  1
  O  O13  1  0.60604500  0.15796600  0.84145200  1
  O  O14  1  0.55715000  0.79467500  0.91591100  1
  O  O15  1  0.05715000  0.20532500  0.58408900  1
  O  O16  1  0.10462000  0.71817000  0.87097100  1
  O  O17  1  0.39538000  0.71817000  0.37097100  1
  O  O18  1  0.89538000  0.28183000  0.12902900  1
  O  O19  1  0.05918100  0.06387200  0.19337200  1
  O  O20  1  0.55918100  0.93612800  0.30662800  1
  O  O21  1  0.21582400  0.30829800  0.40708600  1
  O  O22  1  0.32182900  0.44726400  0.07627300  1
  O  O23  1  0.39395500  0.84203400  0.15854800  1
loop_
_geom_bond_atom_site_label_1
_geom_bond_atom_site_label_2
_geom_bond_distance
_geom_bond_site_symmetry_2
N0 O20 1.236895 1_555
N0 O17 1.253030 1_555
N0 O23 1.330439 1_555
N1 O11 1.236895 1_555
N1 O9 1.253030 1_555
N1 O13 1.330439 1_555
N2 O21 1.243500 1_555
N2 O0 1.248515 1_555
N2 O15 1.323149 1_555
N3 O8 1.243500 1_554
N3 O22 1.248515 1_555
N3 O10 1.323149 1_555
N4 O4 1.243500 1_556
N4 O1 1.248515 1_555
N4 O14 1.323149 1_555
N5 O3 1.243500 1_555
N5 O6 1.248515 1_555
N5 O12 1.323149 1_555
N6 O7 1.236895 1_455
N6 O16 1.253030 1_555
N6 O2 1.330439 1_555
N7 O19 1.236895 1_655
N7 O18 1.253030 1_555
N7 O5 1.330439 1_555
O0 Rb1 2.961253 1_555
O0 Rb3 3.181023 1_455
O1 Rb3 2.961253 1_555
O1 Rb1 3.181023 1_555
O2 Pd0 2.035923 1_565
O2 Rb1 3.013138 1_555
O3 Rb1 3.018412 1_555
O3 Rb3 3.504011 1_555
O4 Rb2 3.018412 1_655
O4 Rb0 3.504011 1_555
O5 Pd0 2.035923 1_655
O5 Rb0 3.013138 1_555
O6 Rb0 2.961253 1_555
O6 Rb2 3.181023 1_655
O7 Rb3 3.284260 1_565
O8 Rb3 3.018412 1_455
O8 Rb1 3.504011 1_555
O9 Rb0 3.027201 1_555
O9 Rb3 3.361901 1_555
O9 Rb1 3.466831 1_555
O10 Pd1 2.034875 1_555
O10 Rb0 2.971532 1_555
O11 Rb1 3.284260 1_545
O12 Pd0 2.034875 1_665
O12 Rb2 2.971532 1_655
O13 Pd1 2.035923 1_556
O13 Rb3 3.013138 1_555
O14 Pd1 2.034875 1_566
O14 Rb1 2.971532 1_555
O15 Pd0 2.034875 1_555
O15 Rb3 2.971532 1_455
O16 Rb2 3.027201 1_556
O16 Rb1 3.361901 1_555
O16 Rb3 3.466831 1_455
O17 Rb1 3.027201 1_555
O17 Rb2 3.361901 1_555
O17 Rb0 3.466831 1_555
O18 Rb3 3.027201 1_554
O18 Rb0 3.361901 1_555
O18 Rb2 3.466831 1_655
O19 Rb2 3.284260 1_545
O20 Rb0 3.284260 1_565
O21 Rb0 3.018412 1_555
O21 Rb2 3.504011 1_555
O22 Rb2 2.961253 1_555
O22 Rb0 3.181023 1_555
O23 Pd1 2.035923 1_565
O23 Rb2 3.013138 1_555
