# generated using pymatgen
data_K4In2Si8O21
_symmetry_space_group_name_H-M   'P 1'
_cell_length_a   11.66705100
_cell_length_b   8.54030200
_cell_length_c   13.60743541
_cell_angle_alpha   51.38040922
_cell_angle_beta   90.00000000
_cell_angle_gamma   90.00000000
_symmetry_Int_Tables_number   1
_chemical_formula_structural   K4In2Si8O21
_chemical_formula_sum   'K8 In4 Si16 O42'
_cell_volume   1059.33270672
_cell_formula_units_Z   2
loop_
 _symmetry_equiv_pos_site_id
 _symmetry_equiv_pos_as_xyz
  1  'x, y, z'
loop_
 _atom_site_type_symbol
 _atom_site_label
 _atom_site_symmetry_multiplicity
 _atom_site_fract_x
 _atom_site_fract_y
 _atom_site_fract_z
 _atom_site_occupancy
  K  K0  1  0.35780100  0.22052100  0.79536700  1
  K  K1  1  0.46752500  0.80210900  0.69172300  1
  K  K2  1  0.64219900  0.77947900  0.20463300  1
  K  K3  1  0.85780100  0.77947900  0.70463300  1
  K  K4  1  0.03247500  0.80210900  0.19172300  1
  K  K5  1  0.96752500  0.19789100  0.80827700  1
  K  K6  1  0.53247500  0.19789100  0.30827700  1
  K  K7  1  0.14219900  0.22052100  0.29536700  1
  In  In0  1  0.66617900  0.26219900  0.53993000  1
  In  In1  1  0.83382100  0.26219900  0.03993000  1
  In  In2  1  0.16617900  0.73780100  0.96007000  1
  In  In3  1  0.33382100  0.73780100  0.46007000  1
  Si  Si0  1  0.45711900  0.68633000  0.99556500  1
  Si  Si1  1  0.54288100  0.31367000  0.00443500  1
  Si  Si2  1  0.32654600  0.61565100  0.21134400  1
  Si  Si3  1  0.95711900  0.31367000  0.50443500  1
  Si  Si4  1  0.36803600  0.29618800  0.49716300  1
  Si  Si5  1  0.33703500  0.02469800  0.16424400  1
  Si  Si6  1  0.66296500  0.97530200  0.83575600  1
  Si  Si7  1  0.83703500  0.97530200  0.33575600  1
  Si  Si8  1  0.13196400  0.29618800  0.99716300  1
  Si  Si9  1  0.17345400  0.61565100  0.71134400  1
  Si  Si10  1  0.82654600  0.38434900  0.28865600  1
  Si  Si11  1  0.63196400  0.70381200  0.50283700  1
  Si  Si12  1  0.67345400  0.38434900  0.78865600  1
  Si  Si13  1  0.86803600  0.70381200  0.00283700  1
  Si  Si14  1  0.04288100  0.68633000  0.49556500  1
  Si  Si15  1  0.16296500  0.02469800  0.66424400  1
  O  O0  1  0.06396300  0.15450500  0.55513300  1
  O  O1  1  0.85046500  0.56130500  0.96435100  1
  O  O2  1  0.86005800  0.21290300  0.27326700  1
  O  O3  1  0.43832700  0.59786100  0.14305200  1
  O  O4  1  0.84731200  0.96527100  0.22162100  1
  O  O5  1  0.71335700  0.90779400  0.40848400  1
  O  O6  1  0.35046500  0.43869500  0.53564900  1
  O  O7  1  0.99580700  0.78605100  0.99174800  1
  O  O8  1  0.93832700  0.40213900  0.35694800  1
  O  O9  1  0.06167300  0.59786100  0.64305200  1
  O  O10  1  0.14953500  0.43869500  0.03564900  1
  O  O11  1  0.36005800  0.78709700  0.22673300  1
  O  O12  1  0.79173900  0.34034300  0.86120100  1
  O  O13  1  0.56167300  0.40213900  0.85694800  1
  O  O14  1  0.15396200  0.79544700  0.40911900  1
  O  O15  1  0.65268800  0.96527100  0.72162100  1
  O  O16  1  0.50419300  0.78605100  0.49174800  1
  O  O17  1  0.49580700  0.21394900  0.50825200  1
  O  O18  1  0.20826100  0.65965700  0.13879900  1
  O  O19  1  0.84603800  0.20455300  0.59088100  1
  O  O20  1  0.21335700  0.09220600  0.09151600  1
  O  O21  1  0.13994200  0.78709700  0.72673300  1
  O  O22  1  0.81816000  0.60025600  0.14683700  1
  O  O23  1  0.56396300  0.84549500  0.94486700  1
  O  O24  1  0.34603800  0.79544700  0.90911900  1
  O  O25  1  0.29173900  0.65965700  0.63879900  1
  O  O26  1  0.70826100  0.34034300  0.36120100  1
  O  O27  1  0.00419300  0.21394900  0.00825200  1
  O  O28  1  0.15268800  0.03472900  0.77837900  1
  O  O29  1  0.28664300  0.09220600  0.59151600  1
  O  O30  1  0.50000000  0.50000000  0.00000000  1
  O  O31  1  0.93603700  0.84549500  0.44486700  1
  O  O32  1  0.31816000  0.39974400  0.35316300  1
  O  O33  1  0.68184000  0.60025600  0.64683700  1
  O  O34  1  0.78664300  0.90779400  0.90848400  1
  O  O35  1  0.34731200  0.03472900  0.27837900  1
  O  O36  1  0.18184000  0.39974400  0.85316300  1
  O  O37  1  0.63994200  0.21290300  0.77326700  1
  O  O38  1  0.65396200  0.20455300  0.09088100  1
  O  O39  1  0.64953500  0.56130500  0.46435100  1
  O  O40  1  0.43603700  0.15450500  0.05513300  1
  O  O41  1  0.00000000  0.50000000  0.50000000  1
loop_
_geom_bond_atom_site_label_1
_geom_bond_atom_site_label_2
_geom_bond_distance
_geom_bond_site_symmetry_2
K0 O6 2.783694 1_555
K0 O24 2.929018 1_545
K0 O36 2.945937 1_555
K0 O28 2.959009 1_555
K0 O25 3.037140 1_555
K0 O13 3.223061 1_555
K0 O37 3.309793 1_555
K0 O40 3.340328 1_556
K1 O25 2.701589 1_555
K1 O15 2.735290 1_555
K1 O17 2.784133 1_565
K1 O16 2.841180 1_555
K1 O29 2.869488 1_565
K1 O13 2.888386 1_555
K1 O24 3.248555 1_555
K1 O30 3.299521 1_556
K1 O33 3.303228 1_555
K2 O39 2.783694 1_555
K2 O38 2.929018 1_565
K2 O22 2.945937 1_555
K2 O4 2.959009 1_555
K2 O26 3.037140 1_555
K2 O3 3.223061 1_555
K2 O11 3.309793 1_555
K2 O23 3.340328 1_554
K3 O1 2.783694 1_555
K3 O19 2.929018 1_565
K3 O33 2.945937 1_555
K3 O15 2.959009 1_555
K3 O12 3.037140 1_555
K3 O9 3.223061 1_655
K3 O21 3.309793 1_655
K3 O31 3.340328 1_555
K4 O18 2.701589 1_555
K4 O4 2.735290 1_455
K4 O27 2.784133 1_565
K4 O7 2.841180 1_454
K4 O20 2.869488 1_565
K4 O8 2.888386 1_455
K4 O14 3.248555 1_555
K4 O41 3.299521 1_555
K4 O22 3.303228 1_455
K5 O12 2.701589 1_555
K5 O28 2.735290 1_655
K5 O7 2.784133 1_545
K5 O27 2.841180 1_656
K5 O34 2.869488 1_545
K5 O9 2.888386 1_655
K5 O19 3.248555 1_555
K5 O41 3.299521 1_655
K5 O36 3.303228 1_655
K6 O26 2.701589 1_555
K6 O35 2.735290 1_555
K6 O16 2.784133 1_545
K6 O17 2.841180 1_555
K6 O5 2.869488 1_545
K6 O3 2.888386 1_555
K6 O38 3.248555 1_555
K6 O30 3.299521 1_555
K6 O32 3.303228 1_555
K7 O10 2.783694 1_555
K7 O14 2.929018 1_545
K7 O32 2.945937 1_555
K7 O35 2.959009 1_555
K7 O18 3.037140 1_555
K7 O8 3.223061 1_455
K7 O2 3.309793 1_455
K7 O0 3.340328 1_555
In0 O39 2.083566 1_555
In0 O17 2.128014 1_555
In0 O26 2.138970 1_555
In0 O19 2.168032 1_555
In0 O15 2.177532 1_545
In1 O1 2.083566 1_554
In1 O27 2.128014 1_655
In1 O12 2.138970 1_554
In1 O38 2.168032 1_555
In1 O4 2.177532 1_545
In2 O10 2.083566 1_556
In2 O7 2.128014 1_455
In2 O18 2.138970 1_556
In2 O24 2.168032 1_555
In2 O28 2.177532 1_565
In3 O6 2.083566 1_555
In3 O16 2.128014 1_555
In3 O25 2.138970 1_555
In3 O14 2.168032 1_555
In3 O35 2.177532 1_565
O0 Si3 1.645288 1_455
O0 Si15 1.647091 1_555
O1 Si13 1.610317 1_556
O2 Si10 1.650256 1_555
O2 Si7 1.660998 1_545
O3 Si0 1.659466 1_554
O3 Si2 1.662440 1_555
O4 Si7 1.612412 1_555
O5 Si7 1.637583 1_555
O5 Si11 1.671223 1_555
O6 Si4 1.610317 1_555
O7 Si13 1.614306 1_556
O8 Si3 1.659466 1_555
O8 Si10 1.662440 1_555
O9 Si14 1.659466 1_555
O9 Si9 1.662440 1_555
O10 Si8 1.610317 1_554
O11 Si2 1.650256 1_555
O11 Si5 1.660998 1_565
O12 Si12 1.599094 1_555
O13 Si1 1.659466 1_556
O13 Si12 1.662440 1_555
O14 Si14 1.601043 1_555
O15 Si6 1.612412 1_555
O16 Si11 1.614306 1_555
O17 Si4 1.614306 1_555
O18 Si2 1.599094 1_555
O19 Si3 1.601043 1_555
O20 Si5 1.637583 1_555
O20 Si8 1.671223 1_554
O21 Si9 1.650256 1_555
O21 Si15 1.660998 1_565
O22 Si10 1.640669 1_555
O22 Si13 1.672443 1_555
O23 Si0 1.645288 1_555
O23 Si6 1.647091 1_555
O24 Si0 1.601043 1_555
O25 Si9 1.599094 1_555
O26 Si10 1.599094 1_555
O27 Si8 1.614306 1_554
O28 Si15 1.612412 1_555
O29 Si15 1.637583 1_555
O29 Si4 1.671223 1_555
O30 Si1 1.632893 1_555
O30 Si0 1.632893 1_554
O31 Si14 1.645288 1_655
O31 Si7 1.647091 1_555
O32 Si2 1.640669 1_555
O32 Si4 1.672443 1_555
O33 Si12 1.640669 1_555
O33 Si11 1.672443 1_555
O34 Si6 1.637583 1_555
O34 Si13 1.671223 1_556
O35 Si5 1.612412 1_555
O36 Si9 1.640669 1_555
O36 Si8 1.672443 1_555
O37 Si12 1.650256 1_555
O37 Si6 1.660998 1_545
O38 Si1 1.601043 1_555
O39 Si11 1.610317 1_555
O40 Si1 1.645288 1_555
O40 Si5 1.647091 1_555
O41 Si14 1.632893 1_555
O41 Si3 1.632893 1_455
