# generated using pymatgen
data_KGdPdO3
_symmetry_space_group_name_H-M   'P 1'
_cell_length_a   6.87325824
_cell_length_b   6.87325824
_cell_length_c   7.55011111
_cell_angle_alpha   76.26053228
_cell_angle_beta   76.26053228
_cell_angle_gamma   33.30718272
_symmetry_Int_Tables_number   1
_chemical_formula_structural   KGdPdO3
_chemical_formula_sum   'K2 Gd2 Pd2 O6'
_cell_volume   189.74876545
_cell_formula_units_Z   2
loop_
 _symmetry_equiv_pos_site_id
 _symmetry_equiv_pos_as_xyz
  1  'x, y, z'
loop_
 _atom_site_type_symbol
 _atom_site_label
 _atom_site_symmetry_multiplicity
 _atom_site_fract_x
 _atom_site_fract_y
 _atom_site_fract_z
 _atom_site_occupancy
  K  K0  1  0.64458200  0.64458200  0.43527000  1
  K  K1  1  0.35541800  0.35541800  0.56473000  1
  Gd  Gd0  1  0.65019200  0.65019200  0.92383200  1
  Gd  Gd1  1  0.34980800  0.34980800  0.07616800  1
  Pd  Pd0  1  0.99224400  0.99224400  0.77724200  1
  Pd  Pd1  1  0.00775600  0.00775600  0.22275800  1
  O  O0  1  0.82833000  0.82833000  0.87055900  1
  O  O1  1  0.84713200  0.84713200  0.26882800  1
  O  O2  1  0.49299400  0.49299400  0.81905800  1
  O  O3  1  0.17167000  0.17167000  0.12944100  1
  O  O4  1  0.50700600  0.50700600  0.18094200  1
  O  O5  1  0.15286800  0.15286800  0.73117200  1
loop_
_geom_bond_atom_site_label_1
_geom_bond_atom_site_label_2
_geom_bond_distance
_geom_bond_site_symmetry_2
K0 O1 2.651986 1_555
K0 O4 2.948736 1_555
K0 O3 2.988398 1_565
K0 O3 2.988398 1_655
K0 O5 3.000658 1_565
K0 O5 3.000658 1_655
K0 O2 3.084437 1_555
K1 O5 2.651986 1_555
K1 O2 2.948736 1_555
K1 O0 2.988398 1_545
K1 O0 2.988398 1_455
K1 O1 3.000658 1_455
K1 O1 3.000658 1_545
K1 O4 3.084437 1_555
Gd0 O0 2.279897 1_555
Gd0 O4 2.347201 1_556
Gd0 O2 2.392455 1_555
Gd0 O5 2.443705 1_565
Gd0 O5 2.443705 1_655
Gd0 O3 2.566627 1_566
Gd0 O3 2.566627 1_656
Gd1 O3 2.279897 1_555
Gd1 O2 2.347201 1_554
Gd1 O4 2.392455 1_555
Gd1 O1 2.443705 1_545
Gd1 O1 2.443705 1_455
Gd1 O0 2.566627 1_544
Gd1 O0 2.566627 1_454
O0 Pd0 2.098196 1_555
O1 Pd1 2.056965 1_665
O2 Pd0 1.995323 1_545
O2 Pd0 1.995323 1_455
O3 Pd1 2.098196 1_555
O4 Pd1 1.995323 1_655
O4 Pd1 1.995323 1_565
O5 Pd0 2.056965 1_445
