# generated using pymatgen
data_NaW6CCl18
_symmetry_space_group_name_H-M   'P 1'
_cell_length_a   9.27185528
_cell_length_b   9.27185528
_cell_length_c   18.06025700
_cell_angle_alpha   90.00000000
_cell_angle_beta   90.00000000
_cell_angle_gamma   119.99999483
_symmetry_Int_Tables_number   1
_chemical_formula_structural   NaW6CCl18
_chemical_formula_sum   'Na2 W12 C2 Cl36'
_cell_volume   1344.58378207
_cell_formula_units_Z   2
loop_
 _symmetry_equiv_pos_site_id
 _symmetry_equiv_pos_as_xyz
  1  'x, y, z'
loop_
 _atom_site_type_symbol
 _atom_site_label
 _atom_site_symmetry_multiplicity
 _atom_site_fract_x
 _atom_site_fract_y
 _atom_site_fract_z
 _atom_site_occupancy
  Na  Na0  1  0.00000000  0.00000000  0.00000000  1
  Na  Na1  1  0.00000000  0.00000000  0.50000000  1
  W  W0  1  0.30423300  0.48577200  0.16682000  1
  W  W1  1  0.69576700  0.51422800  0.66682000  1
  W  W2  1  0.18153900  0.69576700  0.16682000  1
  W  W3  1  0.48577200  0.18153900  0.83318000  1
  W  W4  1  0.51422800  0.81846100  0.16682000  1
  W  W5  1  0.18153900  0.69576700  0.33318000  1
  W  W6  1  0.30423300  0.48577200  0.33318000  1
  W  W7  1  0.81846100  0.30423300  0.83318000  1
  W  W8  1  0.51422800  0.81846100  0.33318000  1
  W  W9  1  0.48577200  0.18153900  0.66682000  1
  W  W10  1  0.69576700  0.51422800  0.83318000  1
  W  W11  1  0.81846100  0.30423300  0.66682000  1
  C  C0  1  0.66666700  0.33333300  0.75000000  1
  C  C1  1  0.33333300  0.66666700  0.25000000  1
  Cl  Cl0  1  0.73516500  0.76502100  0.89738900  1
  Cl  Cl1  1  0.80264500  0.08759900  0.75000000  1
  Cl  Cl2  1  0.43156700  0.94928100  0.75000000  1
  Cl  Cl3  1  0.97014400  0.73516500  0.10261100  1
  Cl  Cl4  1  0.36886000  0.88977000  0.07696000  1
  Cl  Cl5  1  0.02985600  0.26483500  0.89738900  1
  Cl  Cl6  1  0.88977000  0.52091000  0.92304000  1
  Cl  Cl7  1  0.23497900  0.97014400  0.89738900  1
  Cl  Cl8  1  0.36886000  0.88977000  0.42304000  1
  Cl  Cl9  1  0.47909000  0.36886000  0.57696000  1
  Cl  Cl10  1  0.63114000  0.11023000  0.57696000  1
  Cl  Cl11  1  0.08759900  0.28495400  0.25000000  1
  Cl  Cl12  1  0.51771400  0.56843300  0.75000000  1
  Cl  Cl13  1  0.52091000  0.63114000  0.42304000  1
  Cl  Cl14  1  0.47909000  0.36886000  0.92304000  1
  Cl  Cl15  1  0.26483500  0.23497900  0.10261100  1
  Cl  Cl16  1  0.05071900  0.48228600  0.75000000  1
  Cl  Cl17  1  0.52091000  0.63114000  0.07696000  1
  Cl  Cl18  1  0.56843300  0.05071900  0.25000000  1
  Cl  Cl19  1  0.11023000  0.47909000  0.07696000  1
  Cl  Cl20  1  0.48228600  0.43156700  0.25000000  1
  Cl  Cl21  1  0.26483500  0.23497900  0.39738900  1
  Cl  Cl22  1  0.63114000  0.11023000  0.92304000  1
  Cl  Cl23  1  0.76502100  0.02985600  0.39738900  1
  Cl  Cl24  1  0.76502100  0.02985600  0.10261100  1
  Cl  Cl25  1  0.94928100  0.51771400  0.25000000  1
  Cl  Cl26  1  0.23497900  0.97014400  0.60261100  1
  Cl  Cl27  1  0.88977000  0.52091000  0.57696000  1
  Cl  Cl28  1  0.02985600  0.26483500  0.60261100  1
  Cl  Cl29  1  0.19735500  0.91240100  0.25000000  1
  Cl  Cl30  1  0.91240100  0.71504600  0.75000000  1
  Cl  Cl31  1  0.97014400  0.73516500  0.39738900  1
  Cl  Cl32  1  0.71504600  0.80264500  0.25000000  1
  Cl  Cl33  1  0.11023000  0.47909000  0.42304000  1
  Cl  Cl34  1  0.28495400  0.19735500  0.75000000  1
  Cl  Cl35  1  0.73516500  0.76502100  0.60261100  1
loop_
_geom_bond_atom_site_label_1
_geom_bond_atom_site_label_2
_geom_bond_distance
_geom_bond_site_symmetry_2
C0 W11 2.165665 1_555
C0 W7 2.165665 1_555
C0 W9 2.165669 1_555
C0 W3 2.165669 1_555
C0 W1 2.165671 1_555
C0 W10 2.165671 1_555
C1 W2 2.165665 1_555
C1 W5 2.165665 1_555
C1 W4 2.165669 1_555
C1 W8 2.165669 1_555
C1 W0 2.165671 1_555
C1 W6 2.165671 1_555
Cl0 W10 2.456798 1_555
Cl0 Na0 2.976695 1_666
Cl1 W11 2.453200 1_555
Cl1 W7 2.453200 1_555
Cl2 W9 2.462613 1_565
Cl2 W3 2.462613 1_565
Cl3 W2 2.456798 1_655
Cl3 Na0 2.976695 1_665
Cl4 W2 2.400364 1_555
Cl4 W4 2.403896 1_555
Cl5 W7 2.456798 1_455
Cl5 Na0 2.976695 1_556
Cl6 W10 2.400364 1_555
Cl6 W7 2.403897 1_555
Cl7 W3 2.456799 1_565
Cl7 Na0 2.976695 1_566
Cl8 W5 2.400364 1_555
Cl8 W8 2.403896 1_555
Cl9 W9 2.400364 1_555
Cl9 W1 2.403897 1_555
Cl10 W11 2.400364 1_555
Cl10 W9 2.403896 1_555
Cl11 W0 2.453200 1_555
Cl11 W6 2.453200 1_555
Cl12 W1 2.462613 1_555
Cl12 W10 2.462613 1_555
Cl13 W8 2.400364 1_555
Cl13 W6 2.403897 1_555
Cl14 W3 2.400364 1_555
Cl14 W10 2.403897 1_555
Cl15 W0 2.456798 1_555
Cl15 Na0 2.976695 1_555
Cl16 W11 2.462613 1_455
Cl16 W7 2.462613 1_455
Cl17 W4 2.400364 1_555
Cl17 W0 2.403897 1_555
Cl18 W4 2.462613 1_545
Cl18 W8 2.462613 1_545
Cl19 W0 2.400364 1_555
Cl19 W2 2.403897 1_555
Cl20 W0 2.462613 1_555
Cl20 W6 2.462613 1_555
Cl21 W6 2.456798 1_555
Cl21 Na1 2.976695 1_555
Cl22 W7 2.400364 1_555
Cl22 W3 2.403896 1_555
Cl23 W8 2.456799 1_545
Cl23 Na1 2.976695 1_655
Cl24 W4 2.456799 1_545
Cl24 Na0 2.976695 1_655
Cl25 W2 2.462613 1_655
Cl25 W5 2.462613 1_655
Cl26 W9 2.456799 1_565
Cl26 Na1 2.976695 1_565
Cl27 W1 2.400364 1_555
Cl27 W11 2.403897 1_555
Cl28 W11 2.456798 1_455
Cl28 Na1 2.976695 1_555
Cl29 W2 2.453200 1_555
Cl29 W5 2.453200 1_555
Cl30 W1 2.453200 1_555
Cl30 W10 2.453200 1_555
Cl31 W5 2.456798 1_655
Cl31 Na1 2.976695 1_665
Cl32 W4 2.453200 1_555
Cl32 W8 2.453200 1_555
Cl33 W6 2.400364 1_555
Cl33 W5 2.403897 1_555
Cl34 W9 2.453200 1_555
Cl34 W3 2.453200 1_555
Cl35 W1 2.456798 1_555
Cl35 Na1 2.976695 1_665
