# generated using pymatgen
data_LiEr(PO3)4
_symmetry_space_group_name_H-M   'P 1'
_cell_length_a   9.01452352
_cell_length_b   9.01452352
_cell_length_c   9.72554007
_cell_angle_alpha   57.78070469
_cell_angle_beta   57.78070469
_cell_angle_gamma   47.03539289
_symmetry_Int_Tables_number   1
_chemical_formula_structural   LiEr(PO3)4
_chemical_formula_sum   'Li2 Er2 P8 O24'
_cell_volume   470.51635315
_cell_formula_units_Z   2
loop_
 _symmetry_equiv_pos_site_id
 _symmetry_equiv_pos_as_xyz
  1  'x, y, z'
loop_
 _atom_site_type_symbol
 _atom_site_label
 _atom_site_symmetry_multiplicity
 _atom_site_fract_x
 _atom_site_fract_y
 _atom_site_fract_z
 _atom_site_occupancy
  Li  Li0  1  0.00000000  0.00000000  0.00000000  1
  Li  Li1  1  0.00000000  0.00000000  0.50000000  1
  Er  Er0  1  0.23529300  0.76470700  0.25000000  1
  Er  Er1  1  0.76470700  0.23529300  0.75000000  1
  P  P0  1  0.31738900  0.41346800  0.65633000  1
  P  P1  1  0.00931600  0.69201000  0.09139900  1
  P  P2  1  0.30799000  0.99068400  0.40860100  1
  P  P3  1  0.58653200  0.68261100  0.84367000  1
  P  P4  1  0.69201000  0.00931600  0.59139900  1
  P  P5  1  0.68261100  0.58653200  0.34367000  1
  P  P6  1  0.41346800  0.31738900  0.15633000  1
  P  P7  1  0.99068400  0.30799000  0.90860100  1
  O  O0  1  0.76124000  0.00728400  0.70534200  1
  O  O1  1  0.15221500  0.00819300  0.57970600  1
  O  O2  1  0.00819300  0.15221500  0.07970600  1
  O  O3  1  0.60578400  0.18589600  0.03733100  1
  O  O4  1  0.34753200  0.17068800  0.33114800  1
  O  O5  1  0.21807000  0.46092000  0.07815200  1
  O  O6  1  0.58165900  0.55548500  0.79400400  1
  O  O7  1  0.99180700  0.84778500  0.92029400  1
  O  O8  1  0.39421600  0.81410400  0.96266900  1
  O  O9  1  0.23876000  0.99271600  0.29465800  1
  O  O10  1  0.65246800  0.82931200  0.66885200  1
  O  O11  1  0.81410400  0.39421600  0.46266900  1
  O  O12  1  0.41834100  0.44451500  0.20599600  1
  O  O13  1  0.18589600  0.60578400  0.53733100  1
  O  O14  1  0.99271600  0.23876000  0.79465800  1
  O  O15  1  0.78193000  0.53908000  0.92184800  1
  O  O16  1  0.55548500  0.58165900  0.29400400  1
  O  O17  1  0.17068800  0.34753200  0.83114800  1
  O  O18  1  0.44451500  0.41834100  0.70599600  1
  O  O19  1  0.84778500  0.99180700  0.42029400  1
  O  O20  1  0.53908000  0.78193000  0.42184800  1
  O  O21  1  0.46092000  0.21807000  0.57815200  1
  O  O22  1  0.82931200  0.65246800  0.16885200  1
  O  O23  1  0.00728400  0.76124000  0.20534200  1
loop_
_geom_bond_atom_site_label_1
_geom_bond_atom_site_label_2
_geom_bond_distance
_geom_bond_site_symmetry_2
Li0 O2 1.955133 1_555
Li0 O7 1.955133 1_444
Li0 O14 1.997203 1_454
Li0 O23 1.997203 1_545
Li0 O8 2.593102 1_544
Li0 O3 2.593102 1_455
Li1 O1 1.955133 1_555
Li1 O19 1.955133 1_445
Li1 O0 1.997203 1_455
Li1 O9 1.997203 1_545
Li1 O11 2.593102 1_455
Li1 O13 2.593102 1_545
Er0 O12 2.304167 1_555
Er0 O16 2.304167 1_555
Er0 O13 2.309420 1_555
Er0 O8 2.309420 1_554
Er0 O23 2.338418 1_555
Er0 O9 2.338418 1_555
Er0 O19 2.614367 1_455
Er0 O2 2.614367 1_565
Er1 O18 2.304167 1_555
Er1 O6 2.304167 1_555
Er1 O3 2.309420 1_556
Er1 O11 2.309420 1_555
Er1 O0 2.338418 1_555
Er1 O14 2.338418 1_555
Er1 O7 2.614367 1_545
Er1 O1 2.614367 1_655
O0 P4 1.522508 1_555
O1 P2 1.500729 1_545
O2 P7 1.500729 1_454
O3 P6 1.507387 1_555
O4 P2 1.589404 1_545
O4 P6 1.609077 1_555
O5 P1 1.606725 1_555
O5 P6 1.620897 1_555
O6 P3 1.493323 1_555
O7 P1 1.500729 1_656
O8 P3 1.507387 1_555
O9 P2 1.522508 1_555
O10 P4 1.589404 1_565
O10 P3 1.609077 1_555
O11 P5 1.507387 1_555
O12 P6 1.493323 1_555
O13 P0 1.507387 1_555
O14 P7 1.522508 1_555
O15 P7 1.606725 1_555
O15 P3 1.620897 1_555
O16 P5 1.493323 1_555
O17 P7 1.589404 1_455
O17 P0 1.609077 1_555
O18 P0 1.493323 1_555
O19 P4 1.500729 1_565
O20 P2 1.606725 1_555
O20 P5 1.620897 1_555
O21 P4 1.606725 1_555
O21 P0 1.620897 1_555
O22 P1 1.589404 1_655
O22 P5 1.609077 1_555
O23 P1 1.522508 1_555
