# generated using pymatgen
data_Ho2Au5F21
_symmetry_space_group_name_H-M   'P 1'
_cell_length_a   8.07586800
_cell_length_b   9.14852652
_cell_length_c   12.08798748
_cell_angle_alpha   89.21968907
_cell_angle_beta   88.99817709
_cell_angle_gamma   88.97688528
_symmetry_Int_Tables_number   1
_chemical_formula_structural   Ho2Au5F21
_chemical_formula_sum   'Ho4 Au10 F42'
_cell_volume   892.73025579
_cell_formula_units_Z   2
loop_
 _symmetry_equiv_pos_site_id
 _symmetry_equiv_pos_as_xyz
  1  'x, y, z'
loop_
 _atom_site_type_symbol
 _atom_site_label
 _atom_site_symmetry_multiplicity
 _atom_site_fract_x
 _atom_site_fract_y
 _atom_site_fract_z
 _atom_site_occupancy
  Ho  Ho0  1  0.67098700  0.31683300  0.49630900  1
  Ho  Ho1  1  0.32901300  0.68316700  0.50369100  1
  Ho  Ho2  1  0.66480300  0.18270600  0.00088100  1
  Ho  Ho3  1  0.33519700  0.81729400  0.99911900  1
  Au  Au0  1  0.17372800  0.27734600  0.59448700  1
  Au  Au1  1  0.82627200  0.72265400  0.40551300  1
  Au  Au2  1  0.55948100  0.50864600  0.79095400  1
  Au  Au3  1  0.44051900  0.49135400  0.20904600  1
  Au  Au4  1  0.83497500  0.77660700  0.09356100  1
  Au  Au5  1  0.16502500  0.22339300  0.90643900  1
  Au  Au6  1  0.44036900  0.01498000  0.29515800  1
  Au  Au7  1  0.55963100  0.98502000  0.70484200  1
  Au  Au8  1  0.01855800  0.25021000  0.24561600  1
  Au  Au9  1  0.98144200  0.74979000  0.75438400  1
  F  F0  1  0.68655900  0.40621500  0.67404800  1
  F  F1  1  0.31344100  0.59378500  0.32595200  1
  F  F2  1  0.85762400  0.25941000  0.12267300  1
  F  F3  1  0.14237600  0.74059000  0.87732700  1
  F  F4  1  0.70176200  0.40048300  0.89610700  1
  F  F5  1  0.29823800  0.59951700  0.10389300  1
  F  F6  1  0.14474400  0.41432300  0.83621300  1
  F  F7  1  0.85525600  0.58567700  0.16378700  1
  F  F8  1  0.66453400  0.10081600  0.81901900  1
  F  F9  1  0.33546600  0.89918400  0.18098100  1
  F  F10  1  0.50000000  0.00000000  0.00000000  1
  F  F11  1  0.52588300  0.13079100  0.41754000  1
  F  F12  1  0.47411700  0.86920900  0.58246000  1
  F  F13  1  0.93163900  0.27875000  0.57661000  1
  F  F14  1  0.06836100  0.72125000  0.42339000  1
  F  F15  1  0.50000000  0.50000000  0.50000000  1
  F  F16  1  0.18480500  0.24327500  0.35971100  1
  F  F17  1  0.81519500  0.75672500  0.64028900  1
  F  F18  1  0.84416000  0.22626000  0.36192400  1
  F  F19  1  0.15584000  0.77374000  0.63807600  1
  F  F20  1  0.82749400  0.51454500  0.45820900  1
  F  F21  1  0.17250600  0.48545500  0.54179100  1
  F  F22  1  0.69966200  0.09253700  0.59755100  1
  F  F23  1  0.30033800  0.90746300  0.40244900  1
  F  F24  1  0.16762400  0.08055000  0.65503400  1
  F  F25  1  0.83237600  0.91945000  0.34496600  1
  F  F26  1  0.58372000  0.73522300  0.38676600  1
  F  F27  1  0.41628000  0.26477700  0.61323400  1
  F  F28  1  0.58906900  0.38683100  0.31107800  1
  F  F29  1  0.41093100  0.61316900  0.68892200  1
  F  F30  1  0.44948700  0.61313000  0.91385000  1
  F  F31  1  0.55051300  0.38687000  0.08615000  1
  F  F32  1  0.17739000  0.02128500  0.97016300  1
  F  F33  1  0.82261000  0.97871500  0.02983700  1
  F  F34  1  0.41684700  0.87963700  0.81164600  1
  F  F35  1  0.58315300  0.12036300  0.18835400  1
  F  F36  1  0.92418600  0.19897300  0.90099200  1
  F  F37  1  0.07581400  0.80102700  0.09900800  1
  F  F38  1  0.40712700  0.25440900  0.90933800  1
  F  F39  1  0.59287300  0.74559100  0.09066200  1
  F  F40  1  0.80246400  0.73082400  0.86272500  1
  F  F41  1  0.19753600  0.26917600  0.13727500  1
loop_
_geom_bond_atom_site_label_1
_geom_bond_atom_site_label_2
_geom_bond_distance
_geom_bond_site_symmetry_2
Au0 F24 1.935337 1_555
Au0 F13 1.970532 1_455
Au0 F27 1.976945 1_555
Au0 F21 1.999292 1_555
Au1 F25 1.935337 1_555
Au1 F14 1.970532 1_655
Au1 F26 1.976945 1_555
Au1 F20 1.999292 1_555
Au2 F29 1.963013 1_555
Au2 F30 1.967710 1_555
Au2 F0 1.969617 1_555
Au2 F4 1.972650 1_555
Au3 F28 1.963013 1_555
Au3 F31 1.967710 1_555
Au3 F1 1.969617 1_555
Au3 F5 1.972650 1_555
Au4 F7 1.937204 1_555
Au4 F37 1.964079 1_655
Au4 F39 1.981657 1_555
Au4 F33 1.994842 1_555
Au5 F6 1.937204 1_555
Au5 F36 1.964079 1_455
Au5 F38 1.981657 1_555
Au5 F32 1.994842 1_555
Au6 F9 1.964077 1_545
Au6 F35 1.969690 1_555
Au6 F23 1.970306 1_545
Au6 F11 1.972941 1_555
Au7 F8 1.964077 1_565
Au7 F34 1.969690 1_555
Au7 F22 1.970306 1_565
Au7 F12 1.972941 1_555
Au8 F16 1.941141 1_555
Au8 F41 1.941903 1_555
Au8 F18 1.985363 1_455
Au8 F2 1.991250 1_455
Au9 F17 1.941141 1_555
Au9 F40 1.941903 1_555
Au9 F19 1.985363 1_655
Au9 F3 1.991250 1_655
F0 Ho0 2.315497 1_555
F1 Ho1 2.315497 1_555
F2 Ho2 2.287367 1_555
F3 Ho3 2.287367 1_555
F4 Ho2 2.366819 1_556
F5 Ho3 2.366819 1_554
F8 Ho2 2.332182 1_556
F9 Ho3 2.332182 1_554
F10 Ho2 2.155409 1_555
F10 Ho3 2.155409 1_544
F11 Ho0 2.308904 1_555
F12 Ho1 2.308904 1_555
F13 Ho0 2.351730 1_555
F14 Ho1 2.351730 1_555
F15 Ho1 2.152681 1_555
F15 Ho0 2.152681 1_555
F18 Ho0 2.279718 1_555
F19 Ho1 2.279718 1_555
F20 Ho0 2.262717 1_555
F21 Ho1 2.262717 1_555
F22 Ho0 2.384638 1_555
F23 Ho1 2.384638 1_555
F26 Ho1 2.524008 1_555
F27 Ho0 2.524008 1_555
F28 Ho0 2.420495 1_555
F29 Ho1 2.420495 1_555
F30 Ho3 2.315297 1_555
F31 Ho2 2.315297 1_555
F32 Ho3 2.267668 1_545
F33 Ho2 2.267668 1_565
F34 Ho3 2.412800 1_555
F35 Ho2 2.412800 1_555
F36 Ho2 2.405377 1_556
F37 Ho3 2.405377 1_554
F38 Ho2 2.448916 1_556
F39 Ho3 2.448916 1_554
