# generated using pymatgen
data_Pr(MoO2)6
_symmetry_space_group_name_H-M   'P 1'
_cell_length_a   8.37298497
_cell_length_b   8.37298497
_cell_length_c   8.37298497
_cell_angle_alpha   105.81755997
_cell_angle_beta   105.81755997
_cell_angle_gamma   117.05526613
_symmetry_Int_Tables_number   1
_chemical_formula_structural   Pr(MoO2)6
_chemical_formula_sum   'Pr2 Mo12 O24'
_cell_volume   445.86377738
_cell_formula_units_Z   2
loop_
 _symmetry_equiv_pos_site_id
 _symmetry_equiv_pos_as_xyz
  1  'x, y, z'
loop_
 _atom_site_type_symbol
 _atom_site_label
 _atom_site_symmetry_multiplicity
 _atom_site_fract_x
 _atom_site_fract_y
 _atom_site_fract_z
 _atom_site_occupancy
  Pr  Pr0  1  0.79277300  0.79277300  0.00000000  1
  Pr  Pr1  1  0.20722700  0.20722700  0.00000000  1
  Mo  Mo0  1  0.47323100  0.99703800  0.15144800  1
  Mo  Mo1  1  0.32178300  0.47323100  0.47619400  1
  Mo  Mo2  1  0.99703800  0.84558900  0.52380600  1
  Mo  Mo3  1  0.84558900  0.32178300  0.84855200  1
  Mo  Mo4  1  0.52676900  0.00296200  0.84855200  1
  Mo  Mo5  1  0.67821700  0.52676900  0.52380600  1
  Mo  Mo6  1  0.00296200  0.15441100  0.47619400  1
  Mo  Mo7  1  0.15441100  0.67821700  0.15144800  1
  Mo  Mo8  1  0.81639900  0.33660000  0.15299900  1
  Mo  Mo9  1  0.66340000  0.81639900  0.47979800  1
  Mo  Mo10  1  0.33660000  0.18360100  0.52020200  1
  Mo  Mo11  1  0.18360100  0.66340000  0.84700100  1
  O  O0  1  0.83585600  0.12364700  0.62644800  1
  O  O1  1  0.20940800  0.83585600  0.71220900  1
  O  O2  1  0.12364700  0.49719900  0.28779100  1
  O  O3  1  0.49719900  0.20940800  0.37355200  1
  O  O4  1  0.16414400  0.87635300  0.37355200  1
  O  O5  1  0.79059200  0.16414400  0.28779100  1
  O  O6  1  0.87635300  0.50280100  0.71220900  1
  O  O7  1  0.50280100  0.79059200  0.62644800  1
  O  O8  1  0.79210900  0.83636400  0.29761800  1
  O  O9  1  0.49449100  0.79210900  0.95574400  1
  O  O10  1  0.83636400  0.53874600  0.04425600  1
  O  O11  1  0.53874600  0.49449100  0.70238200  1
  O  O12  1  0.20789100  0.16363600  0.70238200  1
  O  O13  1  0.50550900  0.20789100  0.04425600  1
  O  O14  1  0.16363600  0.46125400  0.95574400  1
  O  O15  1  0.46125400  0.50550900  0.29761800  1
  O  O16  1  0.16396300  0.46080000  0.62476300  1
  O  O17  1  0.53920000  0.16396300  0.70316300  1
  O  O18  1  0.46080000  0.83603700  0.29683700  1
  O  O19  1  0.83603700  0.53920000  0.37523700  1
  O  O20  1  0.84267100  0.12351100  0.96618200  1
  O  O21  1  0.87648900  0.84267100  0.71916000  1
  O  O22  1  0.12351100  0.15732900  0.28084000  1
  O  O23  1  0.15732900  0.87648900  0.03381800  1
loop_
_geom_bond_atom_site_label_1
_geom_bond_atom_site_label_2
_geom_bond_distance
_geom_bond_site_symmetry_2
Mo0 O18 2.036188 1_555
Mo0 O3 2.080807 1_565
Mo0 O5 2.101246 1_565
Mo0 O13 2.134819 1_565
Mo0 O9 2.136605 1_554
Mo0 O23 2.143422 1_555
Mo1 O16 2.036181 1_555
Mo1 O2 2.080812 1_555
Mo1 O7 2.101246 1_555
Mo1 O15 2.134832 1_555
Mo1 O11 2.136595 1_555
Mo1 O22 2.143424 1_555
Mo2 O19 2.036181 1_555
Mo2 O1 2.080806 1_655
Mo2 O4 2.101239 1_655
Mo2 O12 2.134831 1_665
Mo2 O8 2.136599 1_555
Mo2 O21 2.143430 1_555
Mo3 O17 2.036181 1_555
Mo3 O0 2.080812 1_555
Mo3 O6 2.101246 1_555
Mo3 O14 2.134832 1_655
Mo3 O10 2.136599 1_556
Mo3 O20 2.143424 1_555
Mo4 O17 2.036188 1_555
Mo4 O7 2.080807 1_545
Mo4 O1 2.101246 1_545
Mo4 O9 2.134819 1_545
Mo4 O13 2.136605 1_556
Mo4 O20 2.143422 1_555
Mo5 O19 2.036181 1_555
Mo5 O6 2.080812 1_555
Mo5 O3 2.101246 1_555
Mo5 O11 2.134832 1_555
Mo5 O15 2.136595 1_555
Mo5 O21 2.143424 1_555
Mo6 O16 2.036181 1_555
Mo6 O5 2.080806 1_455
Mo6 O0 2.101239 1_455
Mo6 O8 2.134831 1_445
Mo6 O12 2.136599 1_555
Mo6 O22 2.143430 1_555
Mo7 O18 2.036181 1_555
Mo7 O4 2.080812 1_555
Mo7 O2 2.101246 1_555
Mo7 O10 2.134832 1_455
Mo7 O14 2.136599 1_554
Mo7 O23 2.143424 1_555
Mo8 O5 2.035445 1_555
Mo8 O2 2.035445 1_655
Mo8 O19 2.055699 1_555
Mo8 O10 2.094623 1_555
Mo8 O13 2.094629 1_555
Mo8 O20 2.168335 1_554
Mo9 O0 2.035446 1_565
Mo9 O7 2.035452 1_555
Mo9 O18 2.055694 1_555
Mo9 O8 2.094622 1_555
Mo9 O15 2.094628 1_555
Mo9 O21 2.168341 1_555
Mo10 O4 2.035446 1_545
Mo10 O3 2.035452 1_555
Mo10 O17 2.055694 1_555
Mo10 O12 2.094622 1_555
Mo10 O11 2.094628 1_555
Mo10 O22 2.168341 1_555
Mo11 O6 2.035445 1_455
Mo11 O1 2.035445 1_555
Mo11 O16 2.055699 1_555
Mo11 O14 2.094623 1_555
Mo11 O9 2.094629 1_555
Mo11 O23 2.168335 1_556
O8 Pr0 2.420049 1_555
O9 Pr0 2.420047 1_556
O10 Pr0 2.420051 1_555
O11 Pr0 2.420049 1_556
O12 Pr1 2.420049 1_556
O13 Pr1 2.420047 1_555
O14 Pr1 2.420051 1_556
O15 Pr1 2.420049 1_555
O20 Pr0 2.713487 1_546
O20 Pr1 2.713487 1_656
O21 Pr0 2.713487 1_556
O21 Pr1 2.713487 1_666
O22 Pr1 2.713487 1_555
O22 Pr0 2.713487 1_445
O23 Pr0 2.713487 1_455
O23 Pr1 2.713487 1_565
