# generated using pymatgen
data_Sr2YCu3(PbO4)2
_symmetry_space_group_name_H-M   'P 1'
_cell_length_a   5.33629300
_cell_length_b   5.36017900
_cell_length_c   15.48541900
_cell_angle_alpha   90.00000000
_cell_angle_beta   90.00000000
_cell_angle_gamma   90.00000000
_symmetry_Int_Tables_number   1
_chemical_formula_structural   Sr2YCu3(PbO4)2
_chemical_formula_sum   'Sr4 Y2 Cu6 Pb4 O16'
_cell_volume   442.93696056
_cell_formula_units_Z   2
loop_
 _symmetry_equiv_pos_site_id
 _symmetry_equiv_pos_as_xyz
  1  'x, y, z'
loop_
 _atom_site_type_symbol
 _atom_site_label
 _atom_site_symmetry_multiplicity
 _atom_site_fract_x
 _atom_site_fract_y
 _atom_site_fract_z
 _atom_site_occupancy
  Sr  Sr0  1  0.99571800  0.74924000  0.22124300  1
  Sr  Sr1  1  0.49571800  0.25076000  0.22124300  1
  Sr  Sr2  1  0.99571800  0.74924000  0.77875700  1
  Sr  Sr3  1  0.49571800  0.25076000  0.77875700  1
  Y  Y0  1  0.99978900  0.75001700  0.00000000  1
  Y  Y1  1  0.49978900  0.24998300  0.00000000  1
  Cu  Cu0  1  0.49922700  0.75000500  0.10410100  1
  Cu  Cu1  1  0.99922700  0.24999500  0.10410100  1
  Cu  Cu2  1  0.99922700  0.24999500  0.89589900  1
  Cu  Cu3  1  0.49922700  0.75000500  0.89589900  1
  Cu  Cu4  1  0.97474400  0.72609900  0.50000000  1
  Cu  Cu5  1  0.47474400  0.27390100  0.50000000  1
  Pb  Pb0  1  0.49611100  0.74885600  0.61068500  1
  Pb  Pb1  1  0.49611100  0.74885600  0.38931500  1
  Pb  Pb2  1  0.99611100  0.25114400  0.38931500  1
  Pb  Pb3  1  0.99611100  0.25114400  0.61068500  1
  O  O0  1  0.24958700  0.00000600  0.09252600  1
  O  O1  1  0.49363800  0.75695500  0.24964500  1
  O  O2  1  0.46062700  0.29549400  0.61881400  1
  O  O3  1  0.96062700  0.70450600  0.38118600  1
  O  O4  1  0.96062700  0.70450600  0.61881400  1
  O  O5  1  0.46062700  0.29549400  0.38118600  1
  O  O6  1  0.24949600  0.49961700  0.09324200  1
  O  O7  1  0.74949600  0.50038300  0.09324200  1
  O  O8  1  0.99363800  0.24304500  0.75035500  1
  O  O9  1  0.74958700  0.99999400  0.90747400  1
  O  O10  1  0.74958700  0.99999400  0.09252600  1
  O  O11  1  0.74949600  0.50038300  0.90675800  1
  O  O12  1  0.99363800  0.24304500  0.24964500  1
  O  O13  1  0.49363800  0.75695500  0.75035500  1
  O  O14  1  0.24958700  0.00000600  0.90747400  1
  O  O15  1  0.24949600  0.49961700  0.90675800  1
loop_
_geom_bond_atom_site_label_1
_geom_bond_atom_site_label_2
_geom_bond_distance
_geom_bond_site_symmetry_2
Cu0 O7 1.897934 1_555
Cu0 O0 1.898023 1_565
Cu0 O6 1.898815 1_555
Cu0 O10 1.900676 1_555
Cu0 O1 2.254315 1_555
Cu1 O6 1.897934 1_655
Cu1 O10 1.898023 1_545
Cu1 O7 1.898815 1_555
Cu1 O0 1.900676 1_655
Cu1 O12 2.254315 1_555
Cu2 O15 1.897934 1_655
Cu2 O9 1.898023 1_545
Cu2 O11 1.898815 1_555
Cu2 O14 1.900676 1_655
Cu2 O8 2.254315 1_555
Cu3 O11 1.897934 1_555
Cu3 O14 1.898023 1_565
Cu3 O15 1.898815 1_555
Cu3 O9 1.900676 1_555
Cu3 O13 2.254315 1_555
Cu4 O3 1.845060 1_555
Cu4 O4 1.845060 1_555
Cu5 O5 1.845060 1_555
Cu5 O2 1.845060 1_555
O0 Y0 2.371785 1_445
O0 Y1 2.372961 1_555
O0 Sr1 2.739462 1_555
O0 Sr0 2.759529 1_445
O1 Pb1 2.163324 1_555
O1 Sr1 2.683198 1_565
O1 Sr0 2.693520 1_455
O1 Sr0 2.715420 1_555
O1 Sr1 2.748734 1_555
O2 Pb0 2.440716 1_555
O2 Pb3 2.493346 1_455
O2 Sr3 2.495400 1_555
O3 Pb2 2.440716 1_555
O3 Pb1 2.493346 1_555
O3 Sr0 2.495400 1_555
O4 Pb3 2.440716 1_555
O4 Pb0 2.493346 1_555
O4 Sr2 2.495400 1_555
O5 Pb1 2.440716 1_555
O5 Pb2 2.493346 1_455
O5 Sr1 2.495400 1_555
O6 Y1 2.378910 1_555
O6 Y0 2.379470 1_455
O6 Sr1 2.726650 1_555
O6 Sr0 2.748304 1_455
O7 Y0 2.378910 1_555
O7 Y1 2.379470 1_555
O7 Sr0 2.726650 1_555
O7 Sr1 2.748304 1_555
O8 Pb3 2.163324 1_555
O8 Sr2 2.683198 1_545
O8 Sr3 2.693520 1_555
O8 Sr3 2.715420 1_655
O8 Sr2 2.748734 1_555
O9 Y1 2.371785 1_566
O9 Y0 2.372961 1_556
O9 Sr2 2.739462 1_555
O9 Sr3 2.759529 1_565
O10 Y1 2.371785 1_565
O10 Y0 2.372961 1_555
O10 Sr0 2.739462 1_555
O10 Sr1 2.759529 1_565
O11 Y0 2.378910 1_556
O11 Y1 2.379470 1_556
O11 Sr2 2.726650 1_555
O11 Sr3 2.748304 1_555
O12 Pb2 2.163324 1_555
O12 Sr0 2.683198 1_545
O12 Sr1 2.693520 1_555
O12 Sr1 2.715420 1_655
O12 Sr0 2.748734 1_555
O13 Pb0 2.163324 1_555
O13 Sr3 2.683198 1_565
O13 Sr2 2.693520 1_455
O13 Sr2 2.715420 1_555
O13 Sr3 2.748734 1_555
O14 Y0 2.371785 1_446
O14 Y1 2.372961 1_556
O14 Sr3 2.739462 1_555
O14 Sr2 2.759529 1_445
O15 Y1 2.378910 1_556
O15 Y0 2.379470 1_456
O15 Sr3 2.726650 1_555
O15 Sr2 2.748304 1_455
