# generated using pymatgen
data_Li4Mo3O8
_symmetry_space_group_name_H-M   'P 1'
_cell_length_a   6.31097849
_cell_length_b   6.31097849
_cell_length_c   6.31097913
_cell_angle_alpha   58.46962262
_cell_angle_beta   58.46962262
_cell_angle_gamma   58.46961521
_symmetry_Int_Tables_number   1
_chemical_formula_structural   Li4Mo3O8
_chemical_formula_sum   'Li4 Mo3 O8'
_cell_volume   171.51252334
_cell_formula_units_Z   1
loop_
 _symmetry_equiv_pos_site_id
 _symmetry_equiv_pos_as_xyz
  1  'x, y, z'
loop_
 _atom_site_type_symbol
 _atom_site_label
 _atom_site_symmetry_multiplicity
 _atom_site_fract_x
 _atom_site_fract_y
 _atom_site_fract_z
 _atom_site_occupancy
  Li  Li0  1  0.50000000  0.50000000  0.50000000  1
  Li  Li1  1  0.36096000  0.36096000  0.36096000  1
  Li  Li2  1  0.63904000  0.63904000  0.63904000  1
  Li  Li3  1  0.00000000  0.00000000  0.00000000  1
  Mo  Mo0  1  0.00000000  0.00000000  0.50000000  1
  Mo  Mo1  1  0.00000000  0.50000000  0.00000000  1
  Mo  Mo2  1  0.50000000  0.00000000  0.00000000  1
  O  O0  1  0.74197000  0.74197000  0.23072000  1
  O  O1  1  0.74197000  0.23072000  0.74197000  1
  O  O2  1  0.76928000  0.25803000  0.25803000  1
  O  O3  1  0.76308200  0.76308200  0.76308200  1
  O  O4  1  0.25803000  0.76928000  0.25803000  1
  O  O5  1  0.23691800  0.23691800  0.23691800  1
  O  O6  1  0.25803000  0.25803000  0.76928000  1
  O  O7  1  0.23072000  0.74197000  0.74197000  1
loop_
_geom_bond_atom_site_label_1
_geom_bond_atom_site_label_2
_geom_bond_distance
_geom_bond_site_symmetry_2
Li0 O2 2.135972 1_555
Li0 O4 2.135972 1_555
Li0 O1 2.135972 1_555
Li0 O7 2.135972 1_555
Li0 O6 2.135972 1_555
Li0 O0 2.135972 1_555
Li1 O5 1.939405 1_555
Li1 O2 2.103367 1_555
Li1 O4 2.103367 1_555
Li1 O6 2.103367 1_555
Li2 O3 1.939405 1_555
Li2 O7 2.103367 1_555
Li2 O1 2.103367 1_555
Li2 O0 2.103367 1_555
Li3 O1 2.288508 1_454
Li3 O2 2.288508 1_455
Li3 O7 2.288508 1_544
Li3 O4 2.288508 1_545
Li3 O6 2.288508 1_554
Li3 O0 2.288508 1_445
Mo0 O1 2.085335 1_455
Mo0 O2 2.085335 1_455
Mo0 O4 2.085335 1_545
Mo0 O7 2.085335 1_545
Mo0 O3 2.091205 1_445
Mo0 O5 2.091205 1_555
Mo1 O0 2.085335 1_455
Mo1 O6 2.085335 1_554
Mo1 O7 2.085336 1_554
Mo1 O2 2.085336 1_455
Mo1 O3 2.091205 1_454
Mo1 O5 2.091205 1_555
Mo2 O0 2.085335 1_545
Mo2 O6 2.085335 1_554
Mo2 O1 2.085336 1_554
Mo2 O4 2.085336 1_545
Mo2 O3 2.091205 1_544
Mo2 O5 2.091205 1_555
