# generated using pymatgen
data_K2Mo(SO5)2
_symmetry_space_group_name_H-M   'P 1'
_cell_length_a   12.76045100
_cell_length_b   9.10479200
_cell_length_c   9.16318522
_cell_angle_alpha   67.68123827
_cell_angle_beta   90.00000000
_cell_angle_gamma   90.00000000
_symmetry_Int_Tables_number   1
_chemical_formula_structural   K2Mo(SO5)2
_chemical_formula_sum   'K8 Mo4 S8 O40'
_cell_volume   984.83698962
_cell_formula_units_Z   4
loop_
 _symmetry_equiv_pos_site_id
 _symmetry_equiv_pos_as_xyz
  1  'x, y, z'
loop_
 _atom_site_type_symbol
 _atom_site_label
 _atom_site_symmetry_multiplicity
 _atom_site_fract_x
 _atom_site_fract_y
 _atom_site_fract_z
 _atom_site_occupancy
  K  K0  1  0.01588300  0.19952200  0.19553600  1
  K  K1  1  0.88045900  0.29414500  0.67823100  1
  K  K2  1  0.98411700  0.80047800  0.80446400  1
  K  K3  1  0.48411700  0.69952200  0.19553600  1
  K  K4  1  0.11954100  0.70585500  0.32176900  1
  K  K5  1  0.61954100  0.79414500  0.67823100  1
  K  K6  1  0.51588300  0.30047800  0.80446400  1
  K  K7  1  0.38045900  0.20585500  0.32176900  1
  Mo  Mo0  1  0.33245200  0.84624700  0.77841800  1
  Mo  Mo1  1  0.16754800  0.34624700  0.77841800  1
  Mo  Mo2  1  0.66754800  0.15375300  0.22158200  1
  Mo  Mo3  1  0.83245200  0.65375300  0.22158200  1
  S  S0  1  0.79986700  0.47299200  0.96329400  1
  S  S1  1  0.29986700  0.02700800  0.03670600  1
  S  S2  1  0.64212300  0.37387300  0.43089600  1
  S  S3  1  0.70013300  0.97299200  0.96329400  1
  S  S4  1  0.20013300  0.52700800  0.03670600  1
  S  S5  1  0.14212300  0.12612700  0.56910400  1
  S  S6  1  0.85787700  0.87387300  0.43089600  1
  S  S7  1  0.35787700  0.62612700  0.56910400  1
  O  O0  1  0.60280300  0.98114600  0.33607200  1
  O  O1  1  0.18113200  0.13960600  0.41513400  1
  O  O2  1  0.70477000  0.82514500  0.11131200  1
  O  O3  1  0.93332500  0.78691400  0.13996400  1
  O  O4  1  0.79523000  0.32514500  0.11131200  1
  O  O5  1  0.19169500  0.26858700  0.60003900  1
  O  O6  1  0.52805700  0.36569400  0.42218300  1
  O  O7  1  0.80830500  0.73141300  0.39996100  1
  O  O8  1  0.60436600  0.97082300  0.87645900  1
  O  O9  1  0.29523000  0.17485500  0.88868800  1
  O  O10  1  0.17939500  0.97617800  0.69889800  1
  O  O11  1  0.29614000  0.49912700  0.12861000  1
  O  O12  1  0.82060500  0.02382200  0.30110200  1
  O  O13  1  0.81291000  0.61272800  0.02044500  1
  O  O14  1  0.02805700  0.13430600  0.57781700  1
  O  O15  1  0.47194300  0.63430600  0.57781700  1
  O  O16  1  0.31291000  0.88727200  0.97955500  1
  O  O17  1  0.20386000  0.99912700  0.12861000  1
  O  O18  1  0.89563400  0.47082300  0.87645900  1
  O  O19  1  0.68709000  0.11272800  0.02044500  1
  O  O20  1  0.69169500  0.23141300  0.39996100  1
  O  O21  1  0.06667500  0.21308600  0.86003600  1
  O  O22  1  0.97194300  0.86569400  0.42218300  1
  O  O23  1  0.79614000  0.00087300  0.87139000  1
  O  O24  1  0.30830500  0.76858700  0.60003900  1
  O  O25  1  0.39719700  0.01885400  0.66392800  1
  O  O26  1  0.89719700  0.48114600  0.33607200  1
  O  O27  1  0.32060500  0.47617800  0.69889800  1
  O  O28  1  0.39563400  0.02917700  0.12354100  1
  O  O29  1  0.67939500  0.52382200  0.30110200  1
  O  O30  1  0.10280300  0.51885400  0.66392800  1
  O  O31  1  0.20477000  0.67485500  0.88868800  1
  O  O32  1  0.43332500  0.71308600  0.86003600  1
  O  O33  1  0.81886800  0.86039400  0.58486600  1
  O  O34  1  0.31886800  0.63960600  0.41513400  1
  O  O35  1  0.18709000  0.38727200  0.97955500  1
  O  O36  1  0.68113200  0.36039400  0.58486600  1
  O  O37  1  0.10436600  0.52917700  0.12354100  1
  O  O38  1  0.70386000  0.50087300  0.87139000  1
  O  O39  1  0.56667500  0.28691400  0.13996400  1
loop_
_geom_bond_atom_site_label_1
_geom_bond_atom_site_label_2
_geom_bond_distance
_geom_bond_site_symmetry_2
K0 O1 2.821222 1_555
K0 O12 2.920398 1_455
K0 O35 3.007021 1_554
K0 O22 3.011868 1_445
K0 O4 3.026742 1_455
K0 O37 3.035587 1_555
K0 O21 3.098059 1_554
K0 O17 3.210692 1_545
K0 O14 3.326760 1_555
K0 O18 3.393985 1_454
K1 O36 2.678285 1_555
K1 O14 2.743864 1_655
K1 O23 2.798340 1_555
K1 O21 2.834159 1_655
K1 O18 2.853714 1_555
K1 O26 2.952961 1_555
K2 O33 2.821222 1_555
K2 O10 2.920398 1_655
K2 O13 3.007021 1_556
K2 O14 3.011868 1_665
K2 O31 3.026742 1_655
K2 O18 3.035587 1_555
K2 O3 3.098059 1_556
K2 O23 3.210692 1_565
K2 O22 3.326760 1_555
K2 O37 3.393985 1_656
K3 O34 2.821222 1_555
K3 O29 2.920398 1_555
K3 O16 3.007021 1_554
K3 O6 3.011868 1_555
K3 O2 3.026742 1_555
K3 O28 3.035587 1_565
K3 O32 3.098059 1_554
K3 O11 3.210692 1_555
K3 O15 3.326760 1_555
K3 O8 3.393985 1_554
K4 O34 2.678285 1_555
K4 O22 2.743864 1_455
K4 O17 2.798340 1_555
K4 O3 2.834159 1_455
K4 O37 2.853714 1_555
K4 O30 2.952961 1_555
K5 O33 2.678285 1_555
K5 O15 2.743864 1_555
K5 O38 2.798340 1_555
K5 O32 2.834159 1_555
K5 O8 2.853714 1_555
K5 O0 2.952961 1_555
K6 O36 2.821222 1_555
K6 O27 2.920398 1_555
K6 O19 3.007021 1_556
K6 O15 3.011868 1_555
K6 O9 3.026742 1_555
K6 O8 3.035587 1_545
K6 O39 3.098059 1_556
K6 O38 3.210692 1_555
K6 O6 3.326760 1_555
K6 O28 3.393985 1_556
K7 O1 2.678285 1_555
K7 O6 2.743864 1_555
K7 O11 2.798340 1_555
K7 O39 2.834159 1_555
K7 O28 2.853714 1_555
K7 O25 2.952961 1_555
Mo0 O32 1.731304 1_555
Mo0 O25 1.732257 1_565
Mo0 O16 2.030130 1_555
Mo0 O24 2.035769 1_555
Mo0 O31 2.216542 1_555
Mo0 O10 2.256152 1_555
Mo1 O21 1.731304 1_555
Mo1 O30 1.732257 1_555
Mo1 O35 2.030130 1_555
Mo1 O5 2.035769 1_555
Mo1 O9 2.216542 1_555
Mo1 O27 2.256152 1_555
Mo2 O39 1.731304 1_555
Mo2 O0 1.732257 1_545
Mo2 O19 2.030130 1_555
Mo2 O20 2.035769 1_555
Mo2 O4 2.216542 1_555
Mo2 O12 2.256152 1_555
Mo3 O3 1.731304 1_555
Mo3 O26 1.732257 1_555
Mo3 O13 2.030130 1_555
Mo3 O7 2.035769 1_555
Mo3 O2 2.216542 1_555
Mo3 O29 2.256152 1_555
O1 S5 1.456655 1_555
O2 S3 1.506130 1_554
O4 S0 1.506130 1_554
O5 S5 1.562730 1_555
O6 S2 1.461169 1_555
O7 S6 1.562730 1_555
O8 S3 1.462463 1_555
O9 S1 1.506130 1_556
O10 S5 1.507105 1_565
O11 S4 1.453311 1_555
O12 S6 1.507105 1_545
O13 S0 1.557772 1_554
O14 S5 1.461169 1_555
O15 S7 1.461169 1_555
O16 S1 1.557772 1_566
O17 S1 1.453311 1_565
O18 S0 1.462463 1_555
O19 S3 1.557772 1_544
O20 S2 1.562730 1_555
O22 S6 1.461169 1_555
O23 S3 1.453311 1_545
O24 S7 1.562730 1_555
O27 S7 1.507105 1_555
O28 S1 1.462463 1_555
O29 S2 1.507105 1_555
O31 S4 1.506130 1_556
O33 S6 1.456655 1_555
O34 S7 1.456655 1_555
O35 S4 1.557772 1_556
O36 S2 1.456655 1_555
O37 S4 1.462463 1_555
O38 S0 1.453311 1_555
