# generated using pymatgen
data_Sm9(SbO)5
_symmetry_space_group_name_H-M   'P 1'
_cell_length_a   10.07791016
_cell_length_b   10.07791016
_cell_length_c   9.07763394
_cell_angle_alpha   90.00000000
_cell_angle_beta   90.00000000
_cell_angle_gamma   90.00000000
_symmetry_Int_Tables_number   1
_chemical_formula_structural   Sm9(SbO)5
_chemical_formula_sum   'Sm18 Sb10 O10'
_cell_volume   921.96329343
_cell_formula_units_Z   2
loop_
 _symmetry_equiv_pos_site_id
 _symmetry_equiv_pos_as_xyz
  1  'x, y, z'
loop_
 _atom_site_type_symbol
 _atom_site_label
 _atom_site_symmetry_multiplicity
 _atom_site_fract_x
 _atom_site_fract_y
 _atom_site_fract_z
 _atom_site_occupancy
  Sm  Sm0  1  0.27373554  0.08203185  0.00150144  1
  Sm  Sm1  1  0.70447789  0.39627638  0.65715713  1
  Sm  Sm2  1  0.29552211  0.60372362  0.65715713  1
  Sm  Sm3  1  0.22626446  0.41796815  0.99849856  1
  Sm  Sm4  1  0.39627638  0.29552211  0.34284287  1
  Sm  Sm5  1  0.60372362  0.70447789  0.34284287  1
  Sm  Sm6  1  0.58203185  0.22626446  0.00150144  1
  Sm  Sm7  1  0.79552211  0.10372362  0.34284287  1
  Sm  Sm8  1  0.08203185  0.72626446  0.99849856  1
  Sm  Sm9  1  0.10372362  0.20447789  0.65715713  1
  Sm  Sm10  1  0.91796815  0.27373554  0.99849856  1
  Sm  Sm11  1  0.20447789  0.89627638  0.34284287  1
  Sm  Sm12  1  0.50000000  0.00000000  0.67010318  1
  Sm  Sm13  1  0.41796815  0.77373554  0.00150144  1
  Sm  Sm14  1  0.77373554  0.58203185  0.99849856  1
  Sm  Sm15  1  0.00000000  0.50000000  0.32989682  1
  Sm  Sm16  1  0.89627638  0.79552211  0.65715713  1
  Sm  Sm17  1  0.72626446  0.91796815  0.00150144  1
  Sb  Sb0  1  0.30371008  0.59628329  0.30028640  1
  Sb  Sb1  1  0.69628992  0.40371671  0.30028640  1
  Sb  Sb2  1  0.90371671  0.80371008  0.30028640  1
  Sb  Sb3  1  0.40371671  0.30371008  0.69971360  1
  Sb  Sb4  1  0.09628329  0.19628992  0.30028640  1
  Sb  Sb5  1  0.50000000  0.00000000  0.31572831  1
  Sb  Sb6  1  0.80371008  0.09628329  0.69971360  1
  Sb  Sb7  1  0.00000000  0.50000000  0.68427169  1
  Sb  Sb8  1  0.59628329  0.69628992  0.69971360  1
  Sb  Sb9  1  0.19628992  0.90371671  0.69971360  1
  O  O0  1  0.37946902  0.27501139  0.08839090  1
  O  O1  1  0.72498861  0.37946902  0.91160910  1
  O  O2  1  0.62053098  0.72498861  0.08839090  1
  O  O3  1  0.27501139  0.62053098  0.91160910  1
  O  O4  1  0.22498861  0.87946902  0.08839090  1
  O  O5  1  0.87946902  0.77501139  0.91160910  1
  O  O6  1  0.00000000  0.50000000  0.06631863  1
  O  O7  1  0.12053098  0.22498861  0.91160910  1
  O  O8  1  0.50000000  0.00000000  0.93368137  1
  O  O9  1  0.77501139  0.12053098  0.08839090  1
loop_
_geom_bond_atom_site_label_1
_geom_bond_atom_site_label_2
_geom_bond_distance
_geom_bond_site_symmetry_2
Sb0 Sm4 3.194796 1_555
Sb0 Sm11 3.207757 1_555
Sb0 Sm15 3.222122 1_555
Sb0 Sm5 3.237247 1_555
Sb0 Sm2 3.241460 1_555
Sb0 Sm3 3.368011 1_554
Sb0 Sm13 3.446804 1_555
Sb1 Sm5 3.194796 1_555
Sb1 Sm7 3.207757 1_555
Sb1 Sm15 3.222122 1_655
Sb1 Sm4 3.237247 1_555
Sb1 Sm1 3.241460 1_555
Sb1 Sm14 3.368011 1_554
Sb1 Sm6 3.446804 1_555
Sb2 Sm11 3.194796 1_655
Sb2 Sm5 3.207757 1_555
Sb2 Sm15 3.222122 1_655
Sb2 Sm7 3.237247 1_565
Sb2 Sm16 3.241460 1_555
Sb2 Sm8 3.368011 1_654
Sb2 Sm17 3.446804 1_555
Sb3 Sm1 3.194796 1_555
Sb3 Sm9 3.207757 1_555
Sb3 Sm12 3.222122 1_555
Sb3 Sm2 3.237247 1_555
Sb3 Sm4 3.241460 1_555
Sb3 Sm6 3.368011 1_556
Sb3 Sm3 3.446804 1_555
Sb4 Sm7 3.194796 1_455
Sb4 Sm4 3.207757 1_555
Sb4 Sm15 3.222122 1_555
Sb4 Sm11 3.237247 1_545
Sb4 Sm9 3.241460 1_555
Sb4 Sm10 3.368011 1_454
Sb4 Sm0 3.446804 1_555
Sb5 Sm7 3.165946 1_555
Sb5 Sm5 3.165946 1_545
Sb5 Sm11 3.165946 1_545
Sb5 Sm4 3.165946 1_555
Sb5 Sm12 3.216885 1_555
Sb6 Sm16 3.194796 1_545
Sb6 Sm1 3.207757 1_555
Sb6 Sm12 3.222122 1_555
Sb6 Sm9 3.237247 1_655
Sb6 Sm7 3.241460 1_555
Sb6 Sm17 3.368011 1_546
Sb6 Sm10 3.446804 1_555
Sb7 Sm16 3.165946 1_455
Sb7 Sm1 3.165946 1_455
Sb7 Sm2 3.165946 1_555
Sb7 Sm9 3.165946 1_555
Sb7 Sm15 3.216885 1_555
Sb8 Sm2 3.194796 1_555
Sb8 Sm16 3.207757 1_555
Sb8 Sm12 3.222122 1_565
Sb8 Sm1 3.237247 1_555
Sb8 Sm5 3.241460 1_555
Sb8 Sm13 3.368011 1_556
Sb8 Sm14 3.446804 1_555
Sb9 Sm9 3.194796 1_565
Sb9 Sm2 3.207757 1_555
Sb9 Sm12 3.222122 1_565
Sb9 Sm16 3.237247 1_455
Sb9 Sm11 3.241460 1_555
Sb9 Sm0 3.368011 1_566
Sb9 Sm8 3.446804 1_555
O0 Sm6 2.242950 1_555
O0 Sm3 2.263931 1_554
O0 Sm4 2.325230 1_555
O0 Sm0 2.353707 1_555
O1 Sm14 2.242950 1_555
O1 Sm6 2.263931 1_556
O1 Sm1 2.325230 1_555
O1 Sm10 2.353707 1_555
O2 Sm13 2.242950 1_555
O2 Sm14 2.263931 1_554
O2 Sm5 2.325230 1_555
O2 Sm17 2.353707 1_555
O3 Sm3 2.242950 1_555
O3 Sm13 2.263931 1_556
O3 Sm2 2.325230 1_555
O3 Sm8 2.353707 1_555
O4 Sm0 2.242950 1_565
O4 Sm8 2.263931 1_554
O4 Sm11 2.325230 1_555
O4 Sm13 2.353707 1_555
O5 Sm8 2.242950 1_655
O5 Sm17 2.263931 1_556
O5 Sm16 2.325230 1_555
O5 Sm14 2.353707 1_555
O6 Sm15 2.392666 1_555
O6 Sm8 2.502421 1_554
O6 Sm10 2.502421 1_454
O6 Sm3 2.502421 1_554
O6 Sm14 2.502421 1_454
O7 Sm10 2.242950 1_455
O7 Sm0 2.263931 1_556
O7 Sm9 2.325230 1_555
O7 Sm3 2.353707 1_555
O8 Sm12 2.392666 1_555
O8 Sm17 2.502421 1_546
O8 Sm6 2.502421 1_556
O8 Sm0 2.502421 1_556
O8 Sm13 2.502421 1_546
O9 Sm17 2.242950 1_545
O9 Sm10 2.263931 1_554
O9 Sm7 2.325230 1_555
O9 Sm6 2.353707 1_555
