# generated using pymatgen
data_Fe2O3
_symmetry_space_group_name_H-M   'P 1'
_cell_length_a   5.17271100
_cell_length_b   5.32473500
_cell_length_c   7.52444100
_cell_angle_alpha   90.00000000
_cell_angle_beta   90.00000000
_cell_angle_gamma   90.00000000
_symmetry_Int_Tables_number   1
_chemical_formula_structural   Fe2O3
_chemical_formula_sum   'Fe8 O12'
_cell_volume   207.24805097
_cell_formula_units_Z   4
loop_
 _symmetry_equiv_pos_site_id
 _symmetry_equiv_pos_as_xyz
  1  'x, y, z'
loop_
 _atom_site_type_symbol
 _atom_site_label
 _atom_site_symmetry_multiplicity
 _atom_site_fract_x
 _atom_site_fract_y
 _atom_site_fract_z
 _atom_site_occupancy
  Fe  Fe0  1  0.24834500  0.53137200  0.11203000  1
  Fe  Fe1  1  0.25165500  0.03137200  0.38797000  1
  Fe  Fe2  1  0.25165500  0.46862800  0.61203000  1
  Fe  Fe3  1  0.24834500  0.96862800  0.88797000  1
  Fe  Fe4  1  0.75165500  0.46862800  0.88797000  1
  Fe  Fe5  1  0.74834500  0.96862800  0.61203000  1
  Fe  Fe6  1  0.74834500  0.53137200  0.38797000  1
  Fe  Fe7  1  0.75165500  0.03137200  0.11203000  1
  O  O0  1  0.39272100  0.60306500  0.84668700  1
  O  O1  1  0.10727900  0.10306500  0.65331300  1
  O  O2  1  0.10727900  0.39693500  0.34668700  1
  O  O3  1  0.39272100  0.89693500  0.15331300  1
  O  O4  1  0.60727900  0.39693500  0.15331300  1
  O  O5  1  0.89272100  0.89693500  0.34668700  1
  O  O6  1  0.89272100  0.60306500  0.65331300  1
  O  O7  1  0.60727900  0.10306500  0.84668700  1
  O  O8  1  0.95191000  0.75000000  0.00000000  1
  O  O9  1  0.54809000  0.25000000  0.50000000  1
  O  O10  1  0.04809000  0.25000000  0.00000000  1
  O  O11  1  0.45191000  0.75000000  0.50000000  1
loop_
_geom_bond_atom_site_label_1
_geom_bond_atom_site_label_2
_geom_bond_distance
_geom_bond_site_symmetry_2
Fe0 O10 2.007061 1_555
Fe0 O4 2.013980 1_555
Fe0 O2 2.040208 1_555
Fe0 O8 2.101673 1_455
Fe0 O3 2.107887 1_555
Fe0 O0 2.165573 1_554
Fe1 O11 2.007061 1_545
Fe1 O5 2.013980 1_445
Fe1 O3 2.040208 1_545
Fe1 O9 2.101673 1_555
Fe1 O2 2.107887 1_555
Fe1 O1 2.165573 1_555
Fe2 O11 2.007061 1_555
Fe2 O6 2.013980 1_455
Fe2 O0 2.040208 1_555
Fe2 O9 2.101673 1_555
Fe2 O1 2.107887 1_555
Fe2 O2 2.165573 1_555
Fe3 O10 2.007061 1_566
Fe3 O7 2.013980 1_565
Fe3 O1 2.040208 1_565
Fe3 O8 2.101673 1_456
Fe3 O0 2.107887 1_555
Fe3 O3 2.165573 1_556
Fe4 O8 2.007061 1_556
Fe4 O0 2.013980 1_555
Fe4 O6 2.040208 1_555
Fe4 O10 2.101673 1_656
Fe4 O7 2.107887 1_555
Fe4 O4 2.165573 1_556
Fe5 O9 2.007061 1_565
Fe5 O1 2.013980 1_665
Fe5 O7 2.040208 1_565
Fe5 O11 2.101673 1_555
Fe5 O6 2.107887 1_555
Fe5 O5 2.165573 1_555
Fe6 O9 2.007061 1_555
Fe6 O2 2.013980 1_655
Fe6 O4 2.040208 1_555
Fe6 O11 2.101673 1_555
Fe6 O5 2.107887 1_555
Fe6 O6 2.165573 1_555
Fe7 O8 2.007061 1_545
Fe7 O3 2.013980 1_545
Fe7 O5 2.040208 1_545
Fe7 O10 2.101673 1_655
Fe7 O4 2.107887 1_555
Fe7 O7 2.165573 1_554
