# generated using pymatgen
data_TlV3(CrS4)2
_symmetry_space_group_name_H-M   'P 1'
_cell_length_a   8.81749726
_cell_length_b   8.81749726
_cell_length_c   8.78428379
_cell_angle_alpha   77.31027634
_cell_angle_beta   77.31027634
_cell_angle_gamma   21.92543121
_symmetry_Int_Tables_number   1
_chemical_formula_structural   TlV3(CrS4)2
_chemical_formula_sum   'Tl1 V3 Cr2 S8'
_cell_volume   248.55215964
_cell_formula_units_Z   1
loop_
 _symmetry_equiv_pos_site_id
 _symmetry_equiv_pos_as_xyz
  1  'x, y, z'
loop_
 _atom_site_type_symbol
 _atom_site_label
 _atom_site_symmetry_multiplicity
 _atom_site_fract_x
 _atom_site_fract_y
 _atom_site_fract_z
 _atom_site_occupancy
  Tl  Tl0  1  0.00000000  0.00000000  0.00000000  1
  V  V0  1  0.85369900  0.85369900  0.48683100  1
  V  V1  1  0.14630100  0.14630100  0.51316900  1
  V  V2  1  0.50000000  0.50000000  0.50000000  1
  Cr  Cr0  1  0.79547000  0.79547000  0.83097800  1
  Cr  Cr1  1  0.20453000  0.20453000  0.16902200  1
  S  S0  1  0.92845000  0.92845000  0.67047700  1
  S  S1  1  0.66991000  0.66991000  0.00832900  1
  S  S2  1  0.73799100  0.73799100  0.35142300  1
  S  S3  1  0.58585600  0.58585600  0.68157000  1
  S  S4  1  0.41414400  0.41414400  0.31843000  1
  S  S5  1  0.07155000  0.07155000  0.32952300  1
  S  S6  1  0.26200900  0.26200900  0.64857700  1
  S  S7  1  0.33009000  0.33009000  0.99167100  1
loop_
_geom_bond_atom_site_label_1
_geom_bond_atom_site_label_2
_geom_bond_distance
_geom_bond_site_symmetry_2
Cr0 S7 2.354180 1_565
Cr0 S7 2.354180 1_655
Cr0 S1 2.374258 1_556
Cr0 S0 2.415737 1_555
Cr0 S6 2.475879 1_565
Cr0 S6 2.475879 1_655
Cr1 S1 2.354180 1_455
Cr1 S1 2.354180 1_545
Cr1 S7 2.374258 1_554
Cr1 S5 2.415737 1_555
Cr1 S2 2.475879 1_455
Cr1 S2 2.475879 1_545
S0 V0 2.282892 1_555
S0 V2 2.399722 1_655
S0 V2 2.399722 1_565
S2 V1 2.518157 1_655
S2 V1 2.518157 1_565
S2 V0 2.548383 1_555
S3 V1 2.324306 1_565
S3 V1 2.324306 1_655
S3 V2 2.411301 1_555
S4 V0 2.324306 1_455
S4 V0 2.324306 1_545
S4 V2 2.411301 1_555
S5 V1 2.282892 1_555
S5 V2 2.399722 1_545
S5 V2 2.399722 1_455
S6 V0 2.518157 1_545
S6 V0 2.518157 1_455
S6 V1 2.548383 1_555
