# generated using pymatgen
data_K5Yb(MoO4)4
_symmetry_space_group_name_H-M   'P 1'
_cell_length_a   9.82234995
_cell_length_b   9.82234995
_cell_length_c   10.79294277
_cell_angle_alpha   70.65357351
_cell_angle_beta   70.65357351
_cell_angle_gamma   77.64529167
_symmetry_Int_Tables_number   1
_chemical_formula_structural   K5Yb(MoO4)4
_chemical_formula_sum   'K10 Yb2 Mo8 O32'
_cell_volume   920.63675566
_cell_formula_units_Z   2
loop_
 _symmetry_equiv_pos_site_id
 _symmetry_equiv_pos_as_xyz
  1  'x, y, z'
loop_
 _atom_site_type_symbol
 _atom_site_label
 _atom_site_symmetry_multiplicity
 _atom_site_fract_x
 _atom_site_fract_y
 _atom_site_fract_z
 _atom_site_occupancy
  K  K0  1  0.07754300  0.33006300  0.93587700  1
  K  K1  1  0.92245700  0.66993800  0.06412300  1
  K  K2  1  0.33006200  0.07754300  0.43587700  1
  K  K3  1  0.17420000  0.38766400  0.56347300  1
  K  K4  1  0.66993800  0.92245700  0.56412300  1
  K  K5  1  0.82580000  0.61233600  0.43652700  1
  K  K6  1  0.61233600  0.82580000  0.93652700  1
  K  K7  1  0.38741300  0.61258700  0.75000000  1
  K  K8  1  0.61258700  0.38741300  0.25000000  1
  K  K9  1  0.38766400  0.17420000  0.06347300  1
  Yb  Yb0  1  0.11466300  0.88533700  0.25000000  1
  Yb  Yb1  1  0.88533700  0.11466300  0.75000000  1
  Mo  Mo0  1  0.04383300  0.77260700  0.63796600  1
  Mo  Mo1  1  0.52927500  0.26509400  0.65518900  1
  Mo  Mo2  1  0.73490600  0.47072500  0.84481100  1
  Mo  Mo3  1  0.26509400  0.52927500  0.15518900  1
  Mo  Mo4  1  0.22739300  0.95616700  0.86203400  1
  Mo  Mo5  1  0.77260700  0.04383300  0.13796600  1
  Mo  Mo6  1  0.47072500  0.73490600  0.34481100  1
  Mo  Mo7  1  0.95616700  0.22739300  0.36203400  1
  O  O0  1  0.58512200  0.07020100  0.23245300  1
  O  O1  1  0.21071000  0.84433400  0.59247800  1
  O  O2  1  0.38143700  0.57432200  0.42818800  1
  O  O3  1  0.64980800  0.12295500  0.73623700  1
  O  O4  1  0.41487800  0.92979900  0.76754700  1
  O  O5  1  0.92979900  0.41487800  0.26754700  1
  O  O6  1  0.21380700  0.99773800  0.01749800  1
  O  O7  1  0.12295500  0.64980800  0.23623700  1
  O  O8  1  0.87704500  0.35019200  0.76376300  1
  O  O9  1  0.42567800  0.61856300  0.07181200  1
  O  O10  1  0.21518200  0.47637500  0.03219600  1
  O  O11  1  0.99773800  0.21380700  0.51749800  1
  O  O12  1  0.00226200  0.78619300  0.48250200  1
  O  O13  1  0.84433400  0.21071000  0.09247800  1
  O  O14  1  0.87795600  0.90000900  0.23558400  1
  O  O15  1  0.47637500  0.21518200  0.53219600  1
  O  O16  1  0.78929000  0.15566600  0.40752200  1
  O  O17  1  0.78619300  0.00226200  0.98250200  1
  O  O18  1  0.07020100  0.58512200  0.73245300  1
  O  O19  1  0.90000900  0.87795600  0.73558400  1
  O  O20  1  0.63500600  0.69442500  0.21917600  1
  O  O21  1  0.61856300  0.42567800  0.57181200  1
  O  O22  1  0.52362500  0.78481800  0.46780400  1
  O  O23  1  0.30557500  0.36499400  0.28082400  1
  O  O24  1  0.78481800  0.52362500  0.96780400  1
  O  O25  1  0.15566600  0.78929000  0.90752200  1
  O  O26  1  0.69442500  0.63500600  0.71917600  1
  O  O27  1  0.09999100  0.12204400  0.26441600  1
  O  O28  1  0.36499400  0.30557500  0.78082400  1
  O  O29  1  0.12204400  0.09999100  0.76441600  1
  O  O30  1  0.57432200  0.38143700  0.92818800  1
  O  O31  1  0.35019200  0.87704500  0.26376300  1
loop_
_geom_bond_atom_site_label_1
_geom_bond_atom_site_label_2
_geom_bond_distance
_geom_bond_site_symmetry_2
K0 O13 2.597950 1_456
K0 O18 2.735920 1_555
K0 O28 2.770511 1_555
K0 O10 2.779609 1_556
K0 O8 3.063021 1_455
K0 O24 3.072269 1_455
K0 O6 3.198270 1_546
K0 O29 3.245729 1_555
K1 O25 2.597946 1_654
K1 O5 2.735926 1_555
K1 O20 2.770510 1_555
K1 O24 2.779616 1_554
K1 O7 3.063019 1_655
K1 O10 3.072273 1_655
K1 O17 3.198261 1_564
K1 O14 3.245721 1_555
K2 O1 2.597946 1_545
K2 O0 2.735926 1_555
K2 O23 2.770510 1_555
K2 O15 2.779616 1_555
K2 O31 3.063019 1_545
K2 O22 3.072273 1_545
K2 O11 3.198261 1_455
K2 O27 3.245721 1_555
K3 O2 2.736968 1_555
K3 O18 2.897036 1_555
K3 O11 2.926519 1_455
K3 O23 2.956334 1_555
K3 O29 2.961963 1_555
K3 O8 3.013267 1_455
K3 O15 3.058906 1_555
K3 O28 3.267744 1_555
K4 O16 2.597946 1_565
K4 O4 2.735926 1_555
K4 O26 2.770510 1_555
K4 O22 2.779616 1_555
K4 O3 3.063019 1_565
K4 O15 3.072273 1_565
K4 O12 3.198261 1_655
K4 O19 3.245721 1_555
K5 O21 2.736968 1_555
K5 O5 2.897036 1_555
K5 O12 2.926519 1_655
K5 O26 2.956334 1_555
K5 O14 2.961963 1_555
K5 O7 3.013267 1_655
K5 O22 3.058906 1_555
K5 O20 3.267744 1_555
K6 O9 2.736968 1_556
K6 O4 2.897036 1_555
K6 O17 2.926519 1_565
K6 O20 2.956334 1_556
K6 O19 2.961963 1_555
K6 O3 3.013267 1_565
K6 O24 3.058906 1_555
K6 O26 3.267744 1_555
K7 O10 2.963650 1_556
K7 O22 2.963650 1_555
K7 O1 2.963904 1_555
K7 O25 2.963904 1_555
K7 O26 2.970491 1_555
K7 O28 2.970491 1_555
K7 O30 3.144285 1_555
K7 O21 3.144285 1_555
K7 O18 3.255940 1_555
K7 O4 3.255940 1_555
K8 O24 2.963650 1_554
K8 O15 2.963650 1_555
K8 O13 2.963904 1_555
K8 O16 2.963904 1_555
K8 O20 2.970491 1_555
K8 O23 2.970491 1_555
K8 O2 3.144285 1_555
K8 O9 3.144285 1_555
K8 O0 3.255940 1_555
K8 O5 3.255940 1_555
K9 O30 2.736968 1_554
K9 O0 2.897036 1_555
K9 O6 2.926519 1_545
K9 O28 2.956334 1_554
K9 O27 2.961963 1_555
K9 O31 3.013267 1_545
K9 O10 3.058906 1_555
K9 O23 3.267744 1_555
Mo0 O1 1.776497 1_555
Mo0 O18 1.795816 1_555
Mo0 O12 1.811685 1_555
Mo0 O19 1.813046 1_455
Mo1 O21 1.787595 1_555
Mo1 O28 1.798197 1_555
Mo1 O15 1.808223 1_555
Mo1 O3 1.812656 1_555
Mo2 O30 1.787595 1_555
Mo2 O26 1.798197 1_555
Mo2 O24 1.808223 1_555
Mo2 O8 1.812656 1_555
Mo3 O9 1.787595 1_555
Mo3 O23 1.798197 1_555
Mo3 O10 1.808223 1_555
Mo3 O7 1.812656 1_555
Mo4 O25 1.776497 1_555
Mo4 O4 1.795816 1_555
Mo4 O6 1.811685 1_556
Mo4 O29 1.813046 1_565
Mo5 O13 1.776497 1_555
Mo5 O0 1.795816 1_555
Mo5 O17 1.811685 1_554
Mo5 O14 1.813046 1_545
Mo6 O2 1.787595 1_555
Mo6 O20 1.798197 1_555
Mo6 O22 1.808223 1_555
Mo6 O31 1.812656 1_555
Mo7 O16 1.776497 1_555
Mo7 O5 1.795816 1_555
Mo7 O11 1.811685 1_555
Mo7 O27 1.813046 1_655
O3 Yb1 2.349421 1_555
O6 Yb0 2.338725 1_555
O7 Yb0 2.349421 1_555
O8 Yb1 2.349421 1_555
O11 Yb1 2.338725 1_555
O12 Yb0 2.338725 1_555
O14 Yb0 2.352048 1_655
O17 Yb1 2.338725 1_555
O19 Yb1 2.352048 1_565
O27 Yb0 2.352048 1_545
O29 Yb1 2.352048 1_455
O31 Yb0 2.349421 1_555
