# generated using pymatgen
data_AuCS2Cl3
_symmetry_space_group_name_H-M   'P 1'
_cell_length_a   9.43306891
_cell_length_b   9.43306891
_cell_length_c   11.61999038
_cell_angle_alpha   65.70166983
_cell_angle_beta   65.70166983
_cell_angle_gamma   69.19375486
_symmetry_Int_Tables_number   1
_chemical_formula_structural   AuCS2Cl3
_chemical_formula_sum   'Au4 C4 S8 Cl12'
_cell_volume   837.12203179
_cell_formula_units_Z   4
loop_
 _symmetry_equiv_pos_site_id
 _symmetry_equiv_pos_as_xyz
  1  'x, y, z'
loop_
 _atom_site_type_symbol
 _atom_site_label
 _atom_site_symmetry_multiplicity
 _atom_site_fract_x
 _atom_site_fract_y
 _atom_site_fract_z
 _atom_site_occupancy
  Au  Au0  1  0.04588400  0.29117100  0.46160200  1
  Au  Au1  1  0.95411600  0.70882900  0.53839800  1
  Au  Au2  1  0.29117100  0.04588400  0.96160200  1
  Au  Au3  1  0.70882900  0.95411600  0.03839800  1
  C  C0  1  0.75189900  0.29846700  0.45090600  1
  C  C1  1  0.24810100  0.70153300  0.54909400  1
  C  C2  1  0.70153300  0.24810100  0.04909400  1
  C  C3  1  0.29846700  0.75189900  0.95090600  1
  S  S0  1  0.13692000  0.56745300  0.66002900  1
  S  S1  1  0.56745300  0.13692000  0.16002900  1
  S  S2  1  0.83931900  0.16698700  0.93105000  1
  S  S3  1  0.83301300  0.16068100  0.56895000  1
  S  S4  1  0.86308000  0.43254700  0.33997100  1
  S  S5  1  0.43254700  0.86308000  0.83997100  1
  S  S6  1  0.16698700  0.83931900  0.43105000  1
  S  S7  1  0.16068100  0.83301300  0.06895000  1
  Cl  Cl0  1  0.76692600  0.55006200  0.66873000  1
  Cl  Cl1  1  0.69787300  0.42482000  0.05453400  1
  Cl  Cl2  1  0.44993800  0.23307400  0.83127000  1
  Cl  Cl3  1  0.80399600  0.87638900  0.39543600  1
  Cl  Cl4  1  0.23307400  0.44993800  0.33127000  1
  Cl  Cl5  1  0.42482000  0.69787300  0.55453400  1
  Cl  Cl6  1  0.12361100  0.19600400  0.10456400  1
  Cl  Cl7  1  0.57518000  0.30212700  0.44546600  1
  Cl  Cl8  1  0.55006200  0.76692600  0.16873000  1
  Cl  Cl9  1  0.87638900  0.80399600  0.89543600  1
  Cl  Cl10  1  0.19600400  0.12361100  0.60456400  1
  Cl  Cl11  1  0.30212700  0.57518000  0.94546600  1
loop_
_geom_bond_atom_site_label_1
_geom_bond_atom_site_label_2
_geom_bond_distance
_geom_bond_site_symmetry_2
Au0 Cl10 2.334147 1_555
Au0 Cl4 2.337912 1_555
Au0 S3 2.352502 1_455
Au0 S4 2.360182 1_455
Au1 Cl3 2.334147 1_555
Au1 Cl0 2.337912 1_555
Au1 S6 2.352502 1_655
Au1 S0 2.360182 1_655
Au2 Cl6 2.334147 1_556
Au2 Cl2 2.337912 1_555
Au2 S7 2.352502 1_546
Au2 S5 2.360182 1_545
Au3 Cl9 2.334147 1_554
Au3 Cl8 2.337912 1_555
Au3 S2 2.352502 1_564
Au3 S1 2.360182 1_565
C0 Cl7 1.681703 1_555
C0 S3 1.687095 1_555
C0 S4 1.687979 1_555
C1 Cl5 1.681703 1_555
C1 S6 1.687095 1_555
C1 S0 1.687979 1_555
C2 Cl1 1.681703 1_555
C2 S2 1.687095 1_554
C2 S1 1.687979 1_555
C3 Cl11 1.681703 1_555
C3 S7 1.687095 1_556
C3 S5 1.687979 1_555
