# generated using pymatgen
data_ZnS
_symmetry_space_group_name_H-M   'P 1'
_cell_length_a   3.80974212
_cell_length_b   3.80974113
_cell_length_c   68.48836297
_cell_angle_alpha   90.00000000
_cell_angle_beta   90.00000000
_cell_angle_gamma   119.99998207
_symmetry_Int_Tables_number   1
_chemical_formula_structural   ZnS
_chemical_formula_sum   'Zn22 S22'
_cell_volume   860.87191899
_cell_formula_units_Z   22
loop_
 _symmetry_equiv_pos_site_id
 _symmetry_equiv_pos_as_xyz
  1  'x, y, z'
loop_
 _atom_site_type_symbol
 _atom_site_label
 _atom_site_symmetry_multiplicity
 _atom_site_fract_x
 _atom_site_fract_y
 _atom_site_fract_z
 _atom_site_occupancy
  Zn  Zn0  1  0.66666700  0.33333300  0.40902498  1
  Zn  Zn1  1  0.33333300  0.66666700  0.68182300  1
  Zn  Zn2  1  -0.00000000  0.00000000  0.86368502  1
  Zn  Zn3  1  0.33333300  0.66666700  0.31815818  1
  Zn  Zn4  1  0.33333300  0.66666700  0.95443804  1
  Zn  Zn5  1  0.33333300  0.66666700  0.04552449  1
  Zn  Zn6  1  0.00000000  -0.00000000  0.27271535  1
  Zn  Zn7  1  -0.00000000  0.00000000  0.13637917  1
  Zn  Zn8  1  0.66666700  0.33333300  0.90902677  1
  Zn  Zn9  1  0.33333300  0.66666700  0.18181563  1
  Zn  Zn10  1  0.66666700  0.33333300  0.09100720  1
  Zn  Zn11  1  0.66666700  0.33333300  0.77275574  1
  Zn  Zn12  1  0.33333300  0.66666700  0.45443578  1
  Zn  Zn13  1  0.66666700  0.33333300  0.59100225  1
  Zn  Zn14  1  0.00000000  -0.00000000  0.99997747  1
  Zn  Zn15  1  0.66666700  0.33333300  0.22727880  1
  Zn  Zn16  1  0.33333300  0.66666700  0.54552224  1
  Zn  Zn17  1  0.00000000  -0.00000000  0.63635479  1
  Zn  Zn18  1  0.33333300  0.66666700  0.81821670  1
  Zn  Zn19  1  0.00000000  -0.00000000  0.49997504  1
  Zn  Zn20  1  -0.00000000  0.00000000  0.72732845  1
  Zn  Zn21  1  0.00000000  -0.00000000  0.36369470  1
  S  S0  1  0.00000000  -0.00000000  0.76139047  1
  S  S1  1  0.00000000  -0.00000000  0.53411197  1
  S  S2  1  0.00000000  -0.00000000  0.30675375  1
  S  S3  1  0.33333300  0.66666700  0.07960181  1
  S  S4  1  0.33333300  0.66666700  0.35228353  1
  S  S5  1  0.33333300  0.66666700  0.48850909  1
  S  S6  1  0.66666700  0.33333300  0.94308040  1
  S  S7  1  0.00000000  -0.00000000  0.67039964  1
  S  S8  1  0.33333300  0.66666700  0.85229108  1
  S  S9  1  0.00000000  -0.00000000  0.89772715  1
  S  S10  1  0.33333300  0.66666700  0.71595311  1
  S  S11  1  0.33333300  0.66666700  0.57959835  1
  S  S12  1  0.66666700  0.33333300  0.26134886  1
  S  S13  1  0.66666700  0.33333300  0.62504251  1
  S  S14  1  0.00000000  -0.00000000  0.17044279  1
  S  S15  1  0.66666700  0.33333300  0.44307845  1
  S  S16  1  0.33333300  0.66666700  0.21590138  1
  S  S17  1  0.33333300  0.66666700  0.98851096  1
  S  S18  1  0.00000000  -0.00000000  0.39772621  1
  S  S19  1  0.66666700  0.33333300  0.12505167  1
  S  S20  1  0.00000000  -0.00000000  0.03411396  1
  S  S21  1  0.66666700  0.33333300  0.80683709  1
loop_
_geom_bond_atom_site_label_1
_geom_bond_atom_site_label_2
_geom_bond_distance
_geom_bond_site_symmetry_2
S0 Zn20 2.332852 1_555
S0 Zn11 2.333221 1_455
S0 Zn11 2.333225 1_445
S0 Zn11 2.333225 1_555
S1 Zn16 2.334251 1_545
S1 Zn16 2.334255 1_555
S1 Zn16 2.334255 1_445
S1 Zn19 2.337982 1_555
S2 Zn6 2.331234 1_555
S2 Zn3 2.334118 1_545
S2 Zn3 2.334121 1_555
S2 Zn3 2.334121 1_445
S3 Zn5 2.333900 1_555
S3 Zn10 2.334140 1_565
S3 Zn10 2.334140 1_455
S3 Zn10 2.334146 1_555
S4 Zn21 2.334272 1_565
S4 Zn21 2.334275 1_555
S4 Zn21 2.334276 1_665
S4 Zn3 2.337189 1_555
S5 Zn12 2.333625 1_555
S5 Zn19 2.335531 1_565
S5 Zn19 2.335534 1_555
S5 Zn19 2.335535 1_665
S6 Zn8 2.332277 1_555
S6 Zn4 2.333047 1_545
S6 Zn4 2.333048 1_655
S6 Zn4 2.333053 1_555
S7 Zn17 2.331676 1_555
S7 Zn1 2.334552 1_545
S7 Zn1 2.334555 1_555
S7 Zn1 2.334556 1_445
S8 Zn18 2.333699 1_555
S8 Zn2 2.333877 1_565
S8 Zn2 2.333881 1_555
S8 Zn2 2.333881 1_665
S9 Zn2 2.331490 1_555
S9 Zn8 2.331725 1_455
S9 Zn8 2.331729 1_445
S9 Zn8 2.331729 1_555
S10 Zn20 2.333452 1_565
S10 Zn20 2.333455 1_555
S10 Zn20 2.333456 1_665
S10 Zn1 2.337515 1_555
S11 Zn16 2.333817 1_555
S11 Zn13 2.334106 1_565
S11 Zn13 2.334106 1_455
S11 Zn13 2.334112 1_555
S12 Zn6 2.333249 1_655
S12 Zn6 2.333253 1_665
S12 Zn6 2.333253 1_555
S12 Zn15 2.333403 1_555
S13 Zn13 2.331362 1_555
S13 Zn17 2.332013 1_655
S13 Zn17 2.332017 1_665
S13 Zn17 2.332017 1_555
S14 Zn7 2.332962 1_555
S14 Zn9 2.333394 1_545
S14 Zn9 2.333398 1_555
S14 Zn9 2.333398 1_445
S15 Zn0 2.332266 1_555
S15 Zn12 2.333040 1_545
S15 Zn12 2.333041 1_655
S15 Zn12 2.333046 1_555
S16 Zn15 2.333499 1_565
S16 Zn15 2.333500 1_455
S16 Zn15 2.333505 1_555
S16 Zn9 2.334477 1_555
S17 Zn4 2.333599 1_555
S17 Zn14 2.335544 1_565
S17 Zn14 2.335547 1_555
S17 Zn14 2.335548 1_665
S18 Zn21 2.330762 1_555
S18 Zn0 2.331706 1_455
S18 Zn0 2.331709 1_445
S18 Zn0 2.331710 1_555
S19 Zn10 2.331650 1_555
S19 Zn7 2.332360 1_655
S19 Zn7 2.332363 1_665
S19 Zn7 2.332364 1_555
S20 Zn5 2.334257 1_545
S20 Zn5 2.334261 1_555
S20 Zn5 2.334261 1_445
S20 Zn14 2.337952 1_554
S21 Zn18 2.333550 1_545
S21 Zn18 2.333550 1_655
S21 Zn18 2.333555 1_555
S21 Zn11 2.334176 1_555
