# generated using pymatgen
data_Na13Ca7S12(O16F)3
_symmetry_space_group_name_H-M   'P 1'
_cell_length_a   6.96955300
_cell_length_b   9.53247700
_cell_length_c   16.56412170
_cell_angle_alpha   89.89906894
_cell_angle_beta   90.00000000
_cell_angle_gamma   90.00000000
_symmetry_Int_Tables_number   1
_chemical_formula_structural   Na13Ca7S12(O16F)3
_chemical_formula_sum   'Na13 Ca7 S12 O48 F3'
_cell_volume   1100.47056320
_cell_formula_units_Z   1
loop_
 _symmetry_equiv_pos_site_id
 _symmetry_equiv_pos_as_xyz
  1  'x, y, z'
loop_
 _atom_site_type_symbol
 _atom_site_label
 _atom_site_symmetry_multiplicity
 _atom_site_fract_x
 _atom_site_fract_y
 _atom_site_fract_z
 _atom_site_occupancy
  Na  Na0  1  0.00000000  0.71163300  0.00493000  1
  Na  Na1  1  0.24240400  0.49577100  0.16766400  1
  Na  Na2  1  0.75759600  0.49577100  0.16766400  1
  Na  Na3  1  0.50000000  0.37347100  0.37805200  1
  Na  Na4  1  0.00000000  0.14466900  0.13422100  1
  Na  Na5  1  0.00000000  0.12872800  0.85828500  1
  Na  Na6  1  0.74707800  0.00723800  0.33137400  1
  Na  Na7  1  0.24015700  0.99507800  0.66912900  1
  Na  Na8  1  0.25292200  0.00723800  0.33137400  1
  Na  Na9  1  0.75984300  0.99507800  0.66912900  1
  Na  Na10  1  0.00000000  0.63115700  0.62347300  1
  Na  Na11  1  0.75465800  0.50039100  0.83174100  1
  Na  Na12  1  0.24534200  0.50039100  0.83174100  1
  Ca  Ca0  1  0.00000000  0.62001900  0.37465300  1
  Ca  Ca1  1  0.00000000  0.26215400  0.50261500  1
  Ca  Ca2  1  0.50000000  0.88028600  0.12427300  1
  Ca  Ca3  1  0.50000000  0.87459500  0.87882400  1
  Ca  Ca4  1  0.50000000  0.74509700  0.49918100  1
  Ca  Ca5  1  0.50000000  0.38430000  0.62196100  1
  Ca  Ca6  1  0.50000000  0.24341700  0.99820800  1
  S  S0  1  0.50000000  0.67445200  0.30560500  1
  S  S1  1  0.50000000  0.62242300  0.01257600  1
  S  S2  1  0.00000000  0.29039800  0.32168000  1
  S  S3  1  0.50000000  0.20897200  0.18103200  1
  S  S4  1  0.50000000  0.17071300  0.80436000  1
  S  S5  1  0.50000000  0.11977700  0.51259900  1
  S  S6  1  0.00000000  0.88123000  0.48759700  1
  S  S7  1  0.00000000  0.82843400  0.19292000  1
  S  S8  1  0.00000000  0.79717000  0.82158300  1
  S  S9  1  0.50000000  0.71053900  0.68253900  1
  S  S10  1  0.00000000  0.36395100  0.98795700  1
  S  S11  1  0.00000000  0.33167200  0.69046300  1
  O  O0  1  0.67113900  0.70146100  0.04199700  1
  O  O1  1  0.32886100  0.70146100  0.04199700  1
  O  O2  1  0.00000000  0.68299600  0.16089400  1
  O  O3  1  0.50000000  0.68568000  0.21572800  1
  O  O4  1  0.67291400  0.59459400  0.33198900  1
  O  O5  1  0.32708600  0.59459400  0.33198900  1
  O  O6  1  0.50000000  0.47875100  0.04818400  1
  O  O7  1  0.00000000  0.42060500  0.27119100  1
  O  O8  1  0.00000000  0.39499200  0.07593900  1
  O  O9  1  0.50000000  0.33627600  0.23205600  1
  O  O10  1  0.17216700  0.28890400  0.37549700  1
  O  O11  1  0.82783300  0.28890400  0.37549700  1
  O  O12  1  0.67127000  0.20947400  0.12637900  1
  O  O13  1  0.32873000  0.20947400  0.12637900  1
  O  O14  1  0.32890400  0.20255800  0.54006000  1
  O  O15  1  0.67109600  0.20255800  0.54006000  1
  O  O16  1  0.00000000  0.18754400  0.65500900  1
  O  O17  1  0.50000000  0.18897800  0.71501300  1
  O  O18  1  0.00000000  0.16279300  0.27066400  1
  O  O19  1  0.50000000  0.10103600  0.42427900  1
  O  O20  1  0.67106100  0.08682700  0.82924100  1
  O  O21  1  0.32893900  0.08682700  0.82924100  1
  O  O22  1  0.50000000  0.07789200  0.23068800  1
  O  O23  1  0.00000000  0.02092400  0.44715600  1
  O  O24  1  0.50000000  0.98131500  0.55494600  1
  O  O25  1  0.00000000  0.91830400  0.76485500  1
  O  O26  1  0.17202600  0.90738400  0.16421500  1
  O  O27  1  0.82797400  0.90738400  0.16421500  1
  O  O28  1  0.00000000  0.89601300  0.57609900  1
  O  O29  1  0.50000000  0.83468200  0.73725000  1
  O  O30  1  0.00000000  0.82549000  0.28346300  1
  O  O31  1  0.50000000  0.81605100  0.34404600  1
  O  O32  1  0.17142000  0.79915700  0.45926700  1
  O  O33  1  0.82858000  0.79915700  0.45926700  1
  O  O34  1  0.17219400  0.80337000  0.87564400  1
  O  O35  1  0.82780600  0.80337000  0.87564400  1
  O  O36  1  0.67176900  0.71704800  0.62891700  1
  O  O37  1  0.32823100  0.71704800  0.62891700  1
  O  O38  1  0.00000000  0.66210300  0.77649100  1
  O  O39  1  0.50000000  0.61535300  0.92259500  1
  O  O40  1  0.50000000  0.57763700  0.73034700  1
  O  O41  1  0.00000000  0.49691000  0.94023900  1
  O  O42  1  0.17262200  0.40946500  0.66121900  1
  O  O43  1  0.82737800  0.40946500  0.66121900  1
  O  O44  1  0.00000000  0.32771500  0.77997000  1
  O  O45  1  0.50000000  0.30966300  0.84582400  1
  O  O46  1  0.17190500  0.27874700  0.96542700  1
  O  O47  1  0.82809500  0.27874700  0.96542700  1
  F  F0  1  0.50000000  0.99818600  0.00009700  1
  F  F1  1  0.00000000  0.49726600  0.49027700  1
  F  F2  1  0.50000000  0.51064700  0.50760200  1
loop_
_geom_bond_atom_site_label_1
_geom_bond_atom_site_label_2
_geom_bond_distance
_geom_bond_site_symmetry_2
Na0 O41 2.312036 1_554
Na0 O1 2.374762 1_555
Na0 O0 2.374762 1_455
Na0 O2 2.597311 1_555
Na0 O34 2.604699 1_554
Na0 O35 2.604699 1_454
Na1 O2 2.459943 1_555
Na1 O8 2.467929 1_555
Na1 O7 2.510768 1_555
Na1 O9 2.581992 1_555
Na1 O3 2.671950 1_555
Na1 O6 2.677204 1_555
Na1 O13 2.878247 1_555
Na1 O1 2.919948 1_555
Na1 O5 2.941686 1_555
Na2 O2 2.459943 1_655
Na2 O8 2.467929 1_655
Na2 O7 2.510768 1_655
Na2 O9 2.581992 1_555
Na2 O3 2.671950 1_555
Na2 O6 2.677204 1_555
Na2 O12 2.878247 1_555
Na2 O0 2.919948 1_555
Na2 O4 2.941686 1_555
Na3 O11 2.423283 1_555
Na3 O10 2.423283 1_555
Na3 O9 2.444767 1_555
Na3 O5 2.543987 1_555
Na3 O4 2.543987 1_555
Na3 O19 2.706217 1_555
Na4 O18 2.266956 1_555
Na4 O12 2.376416 1_455
Na4 O13 2.376416 1_555
Na4 O8 2.572509 1_555
Na4 O26 2.607028 1_545
Na4 O27 2.607028 1_445
Na5 O44 2.296107 1_555
Na5 O20 2.376443 1_455
Na5 O21 2.376443 1_555
Na5 O25 2.535634 1_545
Na5 O46 2.576634 1_555
Na5 O47 2.576634 1_455
Na6 O19 2.477470 1_555
Na6 O22 2.489276 1_555
Na6 O18 2.512382 1_655
Na6 O31 2.515855 1_545
Na6 O30 2.596832 1_645
Na6 O23 2.608306 1_655
Na6 O11 2.840234 1_555
Na6 O33 2.954658 1_545
Na6 O27 2.983233 1_545
Na7 O25 2.418110 1_555
Na7 O28 2.464349 1_555
Na7 O16 2.494152 1_565
Na7 O24 2.622011 1_555
Na7 O29 2.623845 1_555
Na7 O17 2.697900 1_565
Na7 O37 2.801935 1_555
Na7 O21 2.861761 1_565
Na7 O14 2.974902 1_565
Na8 O19 2.477470 1_555
Na8 O22 2.489276 1_555
Na8 O18 2.512382 1_555
Na8 O31 2.515855 1_545
Na8 O30 2.596832 1_545
Na8 O23 2.608306 1_555
Na8 O10 2.840234 1_555
Na8 O32 2.954658 1_545
Na8 O26 2.983233 1_545
Na9 O25 2.418110 1_655
Na9 O28 2.464349 1_655
Na9 O16 2.494152 1_665
Na9 O24 2.622011 1_555
Na9 O29 2.623845 1_555
Na9 O17 2.697900 1_565
Na9 O36 2.801935 1_555
Na9 O20 2.861761 1_565
Na9 O15 2.974902 1_565
Na10 O37 2.431454 1_555
Na10 O36 2.431454 1_455
Na10 O42 2.509906 1_555
Na10 O43 2.509906 1_455
Na10 O38 2.552234 1_555
Na10 O28 2.642550 1_555
Na11 O38 2.476423 1_655
Na11 O41 2.480840 1_655
Na11 O44 2.524600 1_655
Na11 O45 2.551186 1_555
Na11 O40 2.551211 1_555
Na11 O39 2.573251 1_555
Na12 O38 2.476423 1_555
Na12 O41 2.480840 1_555
Na12 O44 2.524600 1_555
Na12 O45 2.551186 1_555
Na12 O40 2.551211 1_555
Na12 O39 2.573251 1_555
Ca0 F1 2.242624 1_555
Ca0 O4 2.399069 1_455
Ca0 O5 2.399069 1_555
Ca0 O30 2.471322 1_555
Ca0 O32 2.513195 1_555
Ca0 O33 2.513195 1_455
Ca0 O7 2.561620 1_555
Ca1 F1 2.250140 1_555
Ca1 O10 2.436493 1_555
Ca1 O11 2.436493 1_455
Ca1 O14 2.441495 1_555
Ca1 O15 2.441495 1_455
Ca1 O23 2.477723 1_555
Ca1 O16 2.621347 1_555
Ca2 F0 2.342148 1_555
Ca2 O3 2.392958 1_555
Ca2 O27 2.393758 1_555
Ca2 O26 2.393758 1_555
Ca2 O0 2.488772 1_555
Ca2 O1 2.488772 1_555
Ca2 O22 2.582041 1_565
Ca3 F0 2.330563 1_556
Ca3 O29 2.376374 1_555
Ca3 O35 2.384020 1_555
Ca3 O34 2.384020 1_555
Ca3 O21 2.486561 1_565
Ca3 O20 2.486561 1_565
Ca3 O39 2.574155 1_555
Ca4 F2 2.238993 1_555
Ca4 O24 2.435342 1_555
Ca4 O33 2.438406 1_555
Ca4 O32 2.438406 1_555
Ca4 O36 2.474001 1_555
Ca4 O37 2.474001 1_555
Ca4 O31 2.656046 1_555
Ca5 F2 2.242933 1_555
Ca5 O43 2.384745 1_555
Ca5 O42 2.384745 1_555
Ca5 O17 2.415006 1_555
Ca5 O15 2.504406 1_555
Ca5 O14 2.504406 1_555
Ca5 O40 2.575151 1_555
Ca6 F0 2.337813 1_546
Ca6 O47 2.374131 1_555
Ca6 O46 2.374131 1_555
Ca6 O6 2.392546 1_556
Ca6 O13 2.456508 1_556
Ca6 O12 2.456508 1_556
Ca6 O45 2.600823 1_555
O0 S1 1.493025 1_555
O1 S1 1.493025 1_555
O2 S7 1.485283 1_555
O3 S0 1.492388 1_555
O4 S0 1.490524 1_555
O5 S0 1.490524 1_555
O6 S1 1.490202 1_555
O7 S2 1.495432 1_555
O8 S10 1.487591 1_554
O9 S3 1.480054 1_555
O10 S2 1.494869 1_555
O11 S2 1.494869 1_655
O12 S3 1.498132 1_555
O13 S3 1.498132 1_555
O14 S5 1.500942 1_555
O15 S5 1.500942 1_555
O16 S11 1.495097 1_555
O17 S4 1.489856 1_555
O18 S2 1.482334 1_555
O19 S5 1.474123 1_555
O20 S4 1.493152 1_555
O21 S4 1.493152 1_555
O22 S3 1.494721 1_555
O23 S6 1.489571 1_545
O24 S5 1.493605 1_565
O25 S8 1.487436 1_555
O26 S7 1.492874 1_555
O27 S7 1.492874 1_655
O28 S6 1.472962 1_555
O29 S9 1.491798 1_555
O30 S7 1.499978 1_555
O31 S0 1.493452 1_555
O32 S6 1.503643 1_555
O33 S6 1.503643 1_655
O34 S8 1.498609 1_555
O35 S8 1.498609 1_655
O36 S9 1.491889 1_555
O37 S9 1.491889 1_555
O38 S8 1.489623 1_555
O39 S1 1.492098 1_556
O40 S9 1.492838 1_555
O41 S10 1.492511 1_555
O42 S11 1.493565 1_555
O43 S11 1.493565 1_655
O44 S11 1.483018 1_555
O45 S4 1.493091 1_555
O46 S10 1.495146 1_555
O47 S10 1.495146 1_655
F1 Na10 2.550793 1_555
F2 Na3 2.514873 1_555
