# generated using pymatgen
data_La2Ti2SiO9
_symmetry_space_group_name_H-M   'P 1'
_cell_length_a   9.03071007
_cell_length_b   9.03071007
_cell_length_c   7.73811984
_cell_angle_alpha   69.94168465
_cell_angle_beta   69.94168465
_cell_angle_gamma   37.39225754
_symmetry_Int_Tables_number   1
_chemical_formula_structural   La2Ti2SiO9
_chemical_formula_sum   'La4 Ti4 Si2 O18'
_cell_volume   357.22669505
_cell_formula_units_Z   2
loop_
 _symmetry_equiv_pos_site_id
 _symmetry_equiv_pos_as_xyz
  1  'x, y, z'
loop_
 _atom_site_type_symbol
 _atom_site_label
 _atom_site_symmetry_multiplicity
 _atom_site_fract_x
 _atom_site_fract_y
 _atom_site_fract_z
 _atom_site_occupancy
  La  La0  1  0.78833700  0.78833700  0.30673800  1
  La  La1  1  0.21166300  0.21166300  0.69326200  1
  La  La2  1  0.89394700  0.89394700  0.69420600  1
  La  La3  1  0.10605300  0.10605300  0.30579400  1
  Ti  Ti0  1  0.75930100  0.24069900  0.00000000  1
  Ti  Ti1  1  0.58116900  0.58116900  0.55290100  1
  Ti  Ti2  1  0.41883100  0.41883100  0.44709900  1
  Ti  Ti3  1  0.24069900  0.75930100  0.00000000  1
  Si  Si0  1  0.66248000  0.66248000  0.02003700  1
  Si  Si1  1  0.33752000  0.33752000  0.97996300  1
  O  O0  1  0.62571100  0.13959800  0.01291800  1
  O  O1  1  0.42115000  0.90094900  0.51729800  1
  O  O2  1  0.65534100  0.65534100  0.23533300  1
  O  O3  1  0.75574000  0.75574000  0.86640200  1
  O  O4  1  0.47213400  0.47213400  0.18653000  1
  O  O5  1  0.34465900  0.34465900  0.76466700  1
  O  O6  1  0.97564700  0.97564700  0.17802900  1
  O  O7  1  0.27710400  0.72289600  0.50000000  1
  O  O8  1  0.90094900  0.42115000  0.51729800  1
  O  O9  1  0.37428900  0.86040200  0.98708200  1
  O  O10  1  0.13959800  0.62571100  0.01291800  1
  O  O11  1  0.52786600  0.52786600  0.81347000  1
  O  O12  1  0.24426000  0.24426000  0.13359800  1
  O  O13  1  0.57885000  0.09905100  0.48270200  1
  O  O14  1  0.02435300  0.02435300  0.82197100  1
  O  O15  1  0.72289600  0.27710400  0.50000000  1
  O  O16  1  0.09905100  0.57885000  0.48270200  1
  O  O17  1  0.86040200  0.37428900  0.98708200  1
loop_
_geom_bond_atom_site_label_1
_geom_bond_atom_site_label_2
_geom_bond_distance
_geom_bond_site_symmetry_2
La0 O13 2.392764 1_565
La0 O16 2.392764 1_655
La0 O2 2.528422 1_555
La0 O8 2.599356 1_555
La0 O1 2.599356 1_555
La0 O10 2.707256 1_655
La0 O0 2.707256 1_565
La1 O1 2.392764 1_545
La1 O8 2.392764 1_455
La1 O5 2.528422 1_555
La1 O13 2.599356 1_555
La1 O16 2.599356 1_555
La1 O17 2.707256 1_455
La1 O9 2.707256 1_545
La2 O3 2.254938 1_555
La2 O7 2.479853 1_655
La2 O15 2.479853 1_565
La2 O16 2.635658 1_655
La2 O13 2.635658 1_565
La2 O14 2.748140 1_665
La2 O0 2.826219 1_566
La2 O10 2.826219 1_656
La2 O5 3.009180 1_655
La2 O5 3.009180 1_565
La3 O12 2.254938 1_555
La3 O7 2.479853 1_545
La3 O15 2.479853 1_455
La3 O1 2.635658 1_545
La3 O8 2.635658 1_455
La3 O6 2.748140 1_445
La3 O17 2.826219 1_454
La3 O9 2.826219 1_544
La3 O2 3.009180 1_545
La3 O2 3.009180 1_455
O0 Si1 1.668555 1_554
O0 Ti0 1.975835 1_555
O1 Ti1 1.897365 1_555
O2 Si0 1.625754 1_555
O2 Ti1 2.321809 1_555
O3 Si0 1.607928 1_556
O4 Ti2 1.888276 1_555
O4 Ti3 2.016450 1_555
O4 Ti0 2.016450 1_555
O5 Si1 1.625754 1_555
O5 Ti2 2.321809 1_555
O6 Ti0 1.896764 1_565
O6 Ti3 1.896764 1_655
O7 Ti2 2.042779 1_555
O7 Ti1 2.042779 1_555
O8 Ti1 1.897365 1_555
O9 Si0 1.668555 1_556
O9 Ti3 1.975835 1_556
O10 Si1 1.668555 1_554
O10 Ti3 1.975835 1_555
O11 Ti1 1.888276 1_555
O11 Ti3 2.016450 1_556
O11 Ti0 2.016450 1_556
O12 Si1 1.607928 1_554
O13 Ti2 1.897365 1_555
O14 Ti3 1.896764 1_546
O14 Ti0 1.896764 1_456
O15 Ti2 2.042779 1_555
O15 Ti1 2.042779 1_555
O16 Ti2 1.897365 1_555
O17 Si0 1.668555 1_556
O17 Ti0 1.975835 1_556
