# generated using pymatgen
data_SiO2
_symmetry_space_group_name_H-M   'P 1'
_cell_length_a   5.05643292
_cell_length_b   13.03528506
_cell_length_c   13.03528359
_cell_angle_alpha   101.68805220
_cell_angle_beta   90.00000000
_cell_angle_gamma   90.00000000
_symmetry_Int_Tables_number   1
_chemical_formula_structural   SiO2
_chemical_formula_sum   'Si16 O32'
_cell_volume   841.36711471
_cell_formula_units_Z   16
loop_
 _symmetry_equiv_pos_site_id
 _symmetry_equiv_pos_as_xyz
  1  'x, y, z'
loop_
 _atom_site_type_symbol
 _atom_site_label
 _atom_site_symmetry_multiplicity
 _atom_site_fract_x
 _atom_site_fract_y
 _atom_site_fract_z
 _atom_site_occupancy
  Si  Si0  1  0.44770268  0.73844832  0.88926800  1
  Si  Si1  1  0.44770268  0.26155168  0.11073200  1
  Si  Si2  1  0.43628277  0.50049347  0.12303353  1
  Si  Si3  1  0.93750077  0.37035082  0.81488673  1
  Si  Si4  1  0.06249923  0.81488673  0.37035082  1
  Si  Si5  1  0.94396369  0.78660264  0.02718680  1
  Si  Si6  1  0.05603631  0.02718680  0.78660264  1
  Si  Si7  1  0.05603631  0.97281320  0.21339736  1
  Si  Si8  1  0.93750077  0.62964918  0.18511227  1
  Si  Si9  1  0.06249923  0.18511227  0.62964918  1
  Si  Si10  1  0.43628277  0.49950653  0.87696647  1
  Si  Si11  1  0.56371723  0.12303353  0.50049347  1
  Si  Si12  1  0.56371723  0.87696647  0.49950653  1
  Si  Si13  1  0.55229732  0.11073200  0.26155168  1
  Si  Si14  1  0.55229732  0.88926800  0.73844832  1
  Si  Si15  1  0.94396369  0.21339736  0.97281320  1
  O  O0  1  0.50000000  0.21183369  0.21183369  1
  O  O1  1  0.85088448  0.06941144  0.23631684  1
  O  O2  1  0.00000000  0.70296907  0.29703093  1
  O  O3  1  0.13989953  0.53230381  0.16221018  1
  O  O4  1  0.14911552  0.23631684  0.06941144  1
  O  O5  1  0.35266344  0.98288376  0.78805478  1
  O  O6  1  0.49760828  0.61416501  0.85534720  1
  O  O7  1  0.00000000  0.10077435  0.89922565  1
  O  O8  1  0.02779362  0.90631134  0.30448486  1
  O  O9  1  0.64733656  0.78805478  0.98288376  1
  O  O10  1  0.14911552  0.76368316  0.93058856  1
  O  O11  1  0.00000000  0.29703093  0.70296907  1
  O  O12  1  0.64089270  0.58498253  0.18675716  1
  O  O13  1  0.50000000  0.78816631  0.78816631  1
  O  O14  1  0.85088448  0.93058856  0.76368316  1
  O  O15  1  0.13989953  0.46769619  0.83778982  1
  O  O16  1  0.49760828  0.38583499  0.14465280  1
  O  O17  1  0.35266344  0.01711624  0.21194522  1
  O  O18  1  0.35910730  0.81324284  0.41501747  1
  O  O19  1  0.97220638  0.69551514  0.09368866  1
  O  O20  1  0.64733656  0.21194522  0.01711624  1
  O  O21  1  0.02779362  0.09368866  0.69551514  1
  O  O22  1  0.97220638  0.30448486  0.90631134  1
  O  O23  1  0.46554589  0.50000000  0.00000000  1
  O  O24  1  0.50239172  0.85534720  0.61416501  1
  O  O25  1  0.86010047  0.16221018  0.53230381  1
  O  O26  1  0.35910730  0.18675716  0.58498253  1
  O  O27  1  0.00000000  0.89922565  0.10077435  1
  O  O28  1  0.50239172  0.14465280  0.38583499  1
  O  O29  1  0.64089270  0.41501747  0.81324284  1
  O  O30  1  0.86010047  0.83778982  0.46769619  1
  O  O31  1  0.53445411  0.00000000  0.50000000  1
loop_
_geom_bond_atom_site_label_1
_geom_bond_atom_site_label_2
_geom_bond_distance
_geom_bond_site_symmetry_2
O0 Si1 1.604005 1_555
O0 Si13 1.604006 1_555
O1 Si7 1.611971 1_645
O1 Si13 1.614307 1_555
O2 Si4 1.605216 1_555
O2 Si8 1.605226 1_455
O3 Si2 1.610237 1_555
O3 Si8 1.610338 1_455
O4 Si15 1.611971 1_454
O4 Si1 1.614307 1_555
O5 Si6 1.608702 1_565
O5 Si14 1.614476 1_555
O6 Si10 1.606262 1_555
O6 Si0 1.610458 1_555
O7 Si6 1.607821 1_555
O7 Si15 1.607821 1_455
O8 Si7 1.612046 1_555
O8 Si4 1.613315 1_555
O9 Si5 1.608702 1_556
O9 Si0 1.614476 1_555
O10 Si5 1.611971 1_456
O10 Si0 1.614307 1_555
O11 Si3 1.605215 1_455
O11 Si9 1.605226 1_555
O12 Si8 1.610547 1_555
O12 Si2 1.613278 1_555
O13 Si0 1.604005 1_555
O13 Si14 1.604006 1_555
O14 Si6 1.611971 1_665
O14 Si14 1.614307 1_555
O15 Si10 1.610237 1_555
O15 Si3 1.610338 1_455
O16 Si2 1.606262 1_555
O16 Si1 1.610458 1_555
O17 Si7 1.608702 1_545
O17 Si13 1.614476 1_555
O18 Si4 1.610546 1_555
O18 Si12 1.613278 1_555
O19 Si5 1.612046 1_555
O19 Si8 1.613304 1_555
O20 Si15 1.608702 1_554
O20 Si1 1.614476 1_555
O21 Si6 1.612046 1_555
O21 Si9 1.613304 1_555
O22 Si15 1.612046 1_555
O22 Si3 1.613315 1_555
O23 Si10 1.609303 1_554
O23 Si2 1.609303 1_555
O24 Si12 1.606261 1_555
O24 Si14 1.610457 1_555
O25 Si11 1.610237 1_555
O25 Si9 1.610338 1_655
O26 Si9 1.610547 1_555
O26 Si11 1.613278 1_555
O27 Si7 1.607821 1_555
O27 Si5 1.607821 1_455
O28 Si11 1.606261 1_555
O28 Si13 1.610457 1_555
O29 Si3 1.610546 1_555
O29 Si10 1.613278 1_555
O30 Si12 1.610237 1_555
O30 Si4 1.610338 1_655
O31 Si12 1.609303 1_545
O31 Si11 1.609303 1_555
