# generated using pymatgen
data_P2IrClF6
_symmetry_space_group_name_H-M   'P 1'
_cell_length_a   10.45357400
_cell_length_b   10.73877400
_cell_length_c   15.45466687
_cell_angle_alpha   58.22184853
_cell_angle_beta   90.00000000
_cell_angle_gamma   90.00000000
_symmetry_Int_Tables_number   1
_chemical_formula_structural   P2IrClF6
_chemical_formula_sum   'P16 Ir8 Cl8 F48'
_cell_volume   1474.84330880
_cell_formula_units_Z   8
loop_
 _symmetry_equiv_pos_site_id
 _symmetry_equiv_pos_as_xyz
  1  'x, y, z'
loop_
 _atom_site_type_symbol
 _atom_site_label
 _atom_site_symmetry_multiplicity
 _atom_site_fract_x
 _atom_site_fract_y
 _atom_site_fract_z
 _atom_site_occupancy
  P  P0  1  0.90148200  0.74799200  0.24001600  1
  P  P1  1  0.63881800  0.26964900  0.74372600  1
  P  P2  1  0.59851800  0.74799200  0.74001600  1
  P  P3  1  0.89739500  0.74814800  0.44549100  1
  P  P4  1  0.09851800  0.25200800  0.75998400  1
  P  P5  1  0.40148200  0.25200800  0.25998400  1
  P  P6  1  0.64113600  0.25115100  0.54706900  1
  P  P7  1  0.39739500  0.25185200  0.05450900  1
  P  P8  1  0.86118200  0.26964900  0.24372600  1
  P  P9  1  0.60260500  0.74814800  0.94549100  1
  P  P10  1  0.36118200  0.73035100  0.25627400  1
  P  P11  1  0.85886400  0.25115100  0.04706900  1
  P  P12  1  0.35886400  0.74884900  0.45293100  1
  P  P13  1  0.10260500  0.25185200  0.55450900  1
  P  P14  1  0.14113600  0.74884900  0.95293100  1
  P  P15  1  0.13881800  0.73035100  0.75627400  1
  Ir  Ir0  1  0.27242700  0.86528300  0.30419700  1
  Ir  Ir1  1  0.01099400  0.12971600  0.70118100  1
  Ir  Ir2  1  0.51099400  0.87028400  0.79881900  1
  Ir  Ir3  1  0.22757300  0.86528300  0.80419700  1
  Ir  Ir4  1  0.72757300  0.13471700  0.69580300  1
  Ir  Ir5  1  0.77242700  0.13471700  0.19580300  1
  Ir  Ir6  1  0.48900600  0.12971600  0.20118100  1
  Ir  Ir7  1  0.98900600  0.87028400  0.29881900  1
  Cl  Cl0  1  0.36497300  0.98489900  0.65552700  1
  Cl  Cl1  1  0.63502700  0.01510100  0.34447300  1
  Cl  Cl2  1  0.37127300  0.99232600  0.85630800  1
  Cl  Cl3  1  0.13502700  0.98489900  0.15552700  1
  Cl  Cl4  1  0.86497300  0.01510100  0.84447300  1
  Cl  Cl5  1  0.62872700  0.00767400  0.14369200  1
  Cl  Cl6  1  0.12872700  0.99232600  0.35630800  1
  Cl  Cl7  1  0.87127300  0.00767400  0.64369200  1
  F  F0  1  0.38944800  0.83667500  0.50590700  1
  F  F1  1  0.88128300  0.20278700  0.36110300  1
  F  F2  1  0.76441500  0.67094000  0.46141600  1
  F  F3  1  0.77783200  0.37735900  0.95808600  1
  F  F4  1  0.71277000  0.41270900  0.71939700  1
  F  F5  1  0.99624200  0.34126400  0.20399200  1
  F  F6  1  0.72216800  0.37735900  0.45808600  1
  F  F7  1  0.38128300  0.79721300  0.13889700  1
  F  F8  1  0.52721000  0.61236000  0.03247300  1
  F  F9  1  0.48328700  0.37926500  0.25464900  1
  F  F10  1  0.11871700  0.79721300  0.63889700  1
  F  F11  1  0.77302900  0.66199000  0.28375200  1
  F  F12  1  0.28723000  0.58729100  0.28060300  1
  F  F13  1  0.97279000  0.61236000  0.53247300  1
  F  F14  1  0.62822400  0.82783600  0.00496700  1
  F  F15  1  0.63066900  0.83117100  0.62307200  1
  F  F16  1  0.11055200  0.83667500  0.00590700  1
  F  F17  1  0.48821000  0.66294700  0.47455600  1
  F  F18  1  0.21277000  0.58729100  0.78060300  1
  F  F19  1  0.37177600  0.17216400  0.99503300  1
  F  F20  1  0.00375800  0.65873600  0.79600800  1
  F  F21  1  0.98328700  0.62073500  0.24535100  1
  F  F22  1  0.13066900  0.16882900  0.87692800  1
  F  F23  1  0.22216800  0.62264100  0.04191400  1
  F  F24  1  0.27783200  0.62264100  0.54191400  1
  F  F25  1  0.50375800  0.34126400  0.70399200  1
  F  F26  1  0.36933100  0.16882900  0.37692800  1
  F  F27  1  0.61871700  0.20278700  0.86110300  1
  F  F28  1  0.26441500  0.32906000  0.03858400  1
  F  F29  1  0.02721000  0.38764000  0.46752700  1
  F  F30  1  0.51179000  0.33705300  0.52544400  1
  F  F31  1  0.78723000  0.41270900  0.21939700  1
  F  F32  1  0.86933100  0.83117100  0.12307200  1
  F  F33  1  0.23558500  0.32906000  0.53858400  1
  F  F34  1  0.61055200  0.16332500  0.49409300  1
  F  F35  1  0.72697100  0.66199000  0.78375200  1
  F  F36  1  0.12822400  0.17216400  0.49503300  1
  F  F37  1  0.98821000  0.33705300  0.02544400  1
  F  F38  1  0.73558500  0.67094000  0.96141600  1
  F  F39  1  0.27302900  0.33801000  0.21624800  1
  F  F40  1  0.47279000  0.38764000  0.96752700  1
  F  F41  1  0.49624200  0.65873600  0.29600800  1
  F  F42  1  0.88944800  0.16332500  0.99409300  1
  F  F43  1  0.87177600  0.82783600  0.50496700  1
  F  F44  1  0.01671300  0.37926500  0.75464900  1
  F  F45  1  0.22697100  0.33801000  0.71624800  1
  F  F46  1  0.01179000  0.66294700  0.97455600  1
  F  F47  1  0.51671300  0.62073500  0.74535100  1
loop_
_geom_bond_atom_site_label_1
_geom_bond_atom_site_label_2
_geom_bond_distance
_geom_bond_site_symmetry_2
Ir0 P12 2.153222 1_555
Ir0 P10 2.153908 1_555
Ir1 P13 2.155039 1_555
Ir1 P4 2.155157 1_555
Ir2 P9 2.155039 1_555
Ir2 P2 2.155157 1_555
Ir3 P14 2.153222 1_555
Ir3 P15 2.153908 1_555
Ir4 P6 2.153222 1_555
Ir4 P1 2.153908 1_555
Ir5 P11 2.153222 1_555
Ir5 P8 2.153908 1_555
Ir6 P7 2.155039 1_555
Ir6 P5 2.155157 1_555
Ir7 P3 2.155039 1_555
Ir7 P0 2.155157 1_555
Cl0 Ir2 2.424504 1_555
Cl0 Ir3 2.425616 1_555
Cl1 Ir6 2.424504 1_555
Cl1 Ir5 2.425616 1_555
Cl2 Ir2 2.422138 1_555
Cl2 Ir3 2.433861 1_555
Cl3 Ir7 2.424504 1_455
Cl3 Ir0 2.425616 1_555
Cl4 Ir1 2.424504 1_655
Cl4 Ir4 2.425616 1_555
Cl5 Ir6 2.422138 1_555
Cl5 Ir5 2.433861 1_555
Cl6 Ir7 2.422138 1_455
Cl6 Ir0 2.433861 1_555
Cl7 Ir1 2.422138 1_655
Cl7 Ir4 2.433861 1_555
F0 P12 1.573326 1_555
F1 P8 1.574327 1_555
F2 P3 1.570193 1_555
F3 P11 1.575593 1_556
F4 P1 1.578220 1_555
F5 P8 1.569864 1_555
F6 P6 1.575593 1_555
F7 P10 1.574327 1_555
F8 P9 1.577963 1_554
F9 P5 1.577011 1_555
F10 P15 1.574327 1_555
F11 P0 1.566978 1_555
F12 P10 1.578220 1_555
F13 P3 1.577963 1_555
F14 P9 1.573981 1_554
F15 P2 1.573821 1_555
F16 P14 1.573326 1_554
F17 P12 1.570413 1_555
F18 P15 1.578220 1_555
F19 P7 1.573981 1_556
F20 P15 1.569864 1_555
F21 P0 1.577011 1_555
F22 P4 1.573821 1_555
F23 P14 1.575593 1_554
F24 P12 1.575593 1_555
F25 P1 1.569864 1_555
F26 P5 1.573821 1_555
F27 P1 1.574327 1_555
F28 P7 1.570193 1_555
F29 P13 1.577963 1_555
F30 P6 1.570413 1_555
F31 P8 1.578220 1_555
F32 P0 1.573821 1_555
F33 P13 1.570193 1_555
F34 P6 1.573326 1_555
F35 P2 1.566978 1_555
F36 P13 1.573981 1_555
F37 P11 1.570413 1_555
F38 P9 1.570193 1_555
F39 P5 1.566978 1_555
F40 P7 1.577963 1_556
F41 P10 1.569864 1_555
F42 P11 1.573326 1_556
F43 P3 1.573981 1_555
F44 P4 1.577011 1_555
F45 P4 1.566978 1_555
F46 P14 1.570413 1_555
F47 P2 1.577011 1_555
