# generated using pymatgen
data_Na3Ca2BiO6
_symmetry_space_group_name_H-M   'P 1'
_cell_length_a   11.20859652
_cell_length_b   10.64879257
_cell_length_c   5.94066965
_cell_angle_alpha   79.50049970
_cell_angle_beta   69.09102403
_cell_angle_gamma   31.40847627
_symmetry_Int_Tables_number   1
_chemical_formula_structural   Na3Ca2BiO6
_chemical_formula_sum   'Na6 Ca4 Bi2 O12'
_cell_volume   334.10434933
_cell_formula_units_Z   2
loop_
 _symmetry_equiv_pos_site_id
 _symmetry_equiv_pos_as_xyz
  1  'x, y, z'
loop_
 _atom_site_type_symbol
 _atom_site_label
 _atom_site_symmetry_multiplicity
 _atom_site_fract_x
 _atom_site_fract_y
 _atom_site_fract_z
 _atom_site_occupancy
  Na  Na0  1  0.58673300  0.58673300  0.91326700  1
  Na  Na1  1  0.91326700  0.91326700  0.58673300  1
  Na  Na2  1  0.66326700  0.66326700  0.33673300  1
  Na  Na3  1  0.33673300  0.33673300  0.66326700  1
  Na  Na4  1  0.50000000  0.50000000  0.50000000  1
  Na  Na5  1  0.75000000  0.75000000  0.75000000  1
  Ca  Ca0  1  0.08053700  0.08053700  0.41946300  1
  Ca  Ca1  1  0.83053700  0.83053700  0.16946300  1
  Ca  Ca2  1  0.41946300  0.41946300  0.08053700  1
  Ca  Ca3  1  0.16946300  0.16946300  0.83053700  1
  Bi  Bi0  1  0.25000000  0.25000000  0.25000000  1
  Bi  Bi1  1  0.00000000  0.00000000  0.00000000  1
  O  O0  1  0.39260800  0.95255700  0.09769100  1
  O  O1  1  0.09769100  0.55714300  0.39260800  1
  O  O2  1  0.55714300  0.09769100  0.95255700  1
  O  O3  1  0.15230900  0.69285700  0.85739200  1
  O  O4  1  0.22289500  0.77710500  0.22289500  1
  O  O5  1  0.29744300  0.85739200  0.69285700  1
  O  O6  1  0.02710500  0.47289500  0.02710500  1
  O  O7  1  0.47289500  0.02710500  0.47289500  1
  O  O8  1  0.69285700  0.15230900  0.29744300  1
  O  O9  1  0.85739200  0.29744300  0.15230900  1
  O  O10  1  0.95255700  0.39260800  0.55714300  1
  O  O11  1  0.77710500  0.22289500  0.77710500  1
loop_
_geom_bond_atom_site_label_1
_geom_bond_atom_site_label_2
_geom_bond_distance
_geom_bond_site_symmetry_2
Na0 O4 2.452974 1_556
Na0 O11 2.452974 1_555
Na0 O5 2.497626 1_555
Na0 O9 2.497631 1_556
Na0 O0 2.548668 1_556
Na0 O10 2.548670 1_555
Na1 O4 2.452974 1_655
Na1 O11 2.452974 1_565
Na1 O8 2.497627 1_565
Na1 O3 2.497632 1_655
Na1 O2 2.548675 1_565
Na1 O1 2.548677 1_655
Na2 O7 2.452974 1_565
Na2 O6 2.452974 1_655
Na2 O10 2.497626 1_555
Na2 O0 2.497631 1_555
Na2 O9 2.548668 1_555
Na2 O5 2.548670 1_555
Na3 O6 2.452974 1_556
Na3 O7 2.452974 1_555
Na3 O2 2.497627 1_555
Na3 O1 2.497632 1_555
Na3 O8 2.548675 1_555
Na3 O3 2.548677 1_555
Na4 O8 2.436128 1_555
Na4 O3 2.436130 1_555
Na4 O9 2.436134 1_555
Na4 O5 2.436137 1_555
Na4 O4 2.701665 1_555
Na4 O11 2.701665 1_555
Na5 O2 2.436128 1_565
Na5 O1 2.436130 1_655
Na5 O0 2.436134 1_556
Na5 O10 2.436137 1_555
Na5 O6 2.701665 1_656
Na5 O7 2.701665 1_565
Ca0 O4 2.365327 1_545
Ca0 O11 2.365327 1_455
Ca0 O9 2.397019 1_455
Ca0 O5 2.397025 1_545
Ca0 O10 2.405479 1_455
Ca0 O0 2.405481 1_545
Ca1 O7 2.365327 1_565
Ca1 O6 2.365327 1_655
Ca1 O1 2.397020 1_655
Ca1 O2 2.397025 1_564
Ca1 O3 2.405487 1_654
Ca1 O8 2.405489 1_565
Ca2 O11 2.365327 1_554
Ca2 O4 2.365327 1_555
Ca2 O3 2.397020 1_554
Ca2 O8 2.397025 1_555
Ca2 O1 2.405487 1_555
Ca2 O2 2.405489 1_554
Ca3 O6 2.365327 1_556
Ca3 O7 2.365327 1_555
Ca3 O0 2.397019 1_546
Ca3 O10 2.397025 1_455
Ca3 O5 2.405479 1_545
Ca3 O9 2.405481 1_456
Bi0 O6 2.173138 1_555
Bi0 O7 2.173138 1_555
Bi0 O1 2.185453 1_555
Bi0 O2 2.185455 1_554
Bi0 O10 2.185460 1_455
Bi0 O0 2.185463 1_545
Bi1 O11 2.173138 1_454
Bi1 O4 2.173138 1_545
Bi1 O3 2.185453 1_544
Bi1 O8 2.185455 1_455
Bi1 O5 2.185460 1_544
Bi1 O9 2.185463 1_455
