# generated using pymatgen
data_Sr2SmGaCu2O7
_symmetry_space_group_name_H-M   'P 1'
_cell_length_a   12.24390746
_cell_length_b   12.24390746
_cell_length_c   12.24390746
_cell_angle_alpha   154.26850859
_cell_angle_beta   153.69614920
_cell_angle_gamma   37.12741782
_symmetry_Int_Tables_number   1
_chemical_formula_structural   Sr2SmGaCu2O7
_chemical_formula_sum   'Sr4 Sm2 Ga2 Cu4 O14'
_cell_volume   352.62848822
_cell_formula_units_Z   2
loop_
 _symmetry_equiv_pos_site_id
 _symmetry_equiv_pos_as_xyz
  1  'x, y, z'
loop_
 _atom_site_type_symbol
 _atom_site_label
 _atom_site_symmetry_multiplicity
 _atom_site_fract_x
 _atom_site_fract_y
 _atom_site_fract_z
 _atom_site_occupancy
  Sr  Sr0  1  0.16996300  0.65066400  0.51618700  1
  Sr  Sr1  1  0.83003700  0.34622400  0.48070100  1
  Sr  Sr2  1  0.63447700  0.15066400  0.48070100  1
  Sr  Sr3  1  0.36552300  0.84622400  0.51618700  1
  Sm  Sm0  1  0.00000000  0.50071200  0.50071200  1
  Sm  Sm1  1  0.50000000  0.00071200  0.50071200  1
  Ga  Ga0  1  0.18165400  0.21613000  0.89778500  1
  Ga  Ga1  1  0.81834600  0.71613000  0.03447600  1
  Cu  Cu0  1  0.07273400  0.07509500  0.00017800  1
  Cu  Cu1  1  0.92726600  0.92744400  0.00236100  1
  Cu  Cu2  1  0.57491700  0.57509500  0.00236100  1
  Cu  Cu3  1  0.42508300  0.42744400  0.00017800  1
  O  O0  1  0.87135500  0.36735500  0.73871000  1
  O  O1  1  0.12864500  0.86735500  0.49599900  1
  O  O2  1  0.81618000  0.31771800  0.00067400  1
  O  O3  1  0.18382000  0.18449400  0.50153800  1
  O  O4  1  0.81704400  0.81771800  0.50153800  1
  O  O5  1  0.18295600  0.68449400  0.00067400  1
  O  O6  1  0.31199700  0.81377700  0.99868100  1
  O  O7  1  0.68800300  0.68668400  0.50178000  1
  O  O8  1  0.31509600  0.31377700  0.50178000  1
  O  O9  1  0.68490400  0.18668400  0.99868100  1
  O  O10  1  0.62779200  0.70831900  0.98178600  1
  O  O11  1  0.37220800  0.35399400  0.08052700  1
  O  O12  1  0.22653300  0.20831900  0.08052700  1
  O  O13  1  0.77346700  0.85399400  0.98178600  1
loop_
_geom_bond_atom_site_label_1
_geom_bond_atom_site_label_2
_geom_bond_distance
_geom_bond_site_symmetry_2
Ga0 O12 1.847910 1_556
Ga0 O11 1.847932 1_556
Ga0 O0 1.915494 1_455
Ga0 O1 1.924548 1_545
Ga1 O13 1.847922 1_554
Ga1 O10 1.847922 1_554
Ga1 O1 1.915489 1_655
Ga1 O0 1.924542 1_554
Cu0 O4 1.950747 1_444
Cu0 O2 1.952922 1_455
Cu0 O6 1.965662 1_544
Cu0 O8 1.970089 1_555
Cu0 O12 2.420749 1_555
Cu1 O5 1.950747 1_655
Cu1 O3 1.952922 1_665
Cu1 O7 1.965662 1_554
Cu1 O9 1.970089 1_564
Cu1 O13 2.420749 1_554
Cu2 O2 1.950747 1_555
Cu2 O4 1.952922 1_555
Cu2 O8 1.965662 1_554
Cu2 O6 1.970089 1_554
Cu2 O10 2.420749 1_554
Cu3 O3 1.950747 1_554
Cu3 O5 1.952922 1_555
Cu3 O9 1.965662 1_554
Cu3 O7 1.970089 1_555
Cu3 O11 2.420749 1_555
O0 Sr1 2.484597 1_555
O0 Sr2 2.484597 1_555
O1 Sr3 2.484587 1_555
O1 Sr0 2.484608 1_555
O2 Sm1 2.487722 1_554
O2 Sm0 2.488063 1_655
O2 Sr0 2.828571 1_655
O2 Sr2 2.839999 1_554
O3 Sm1 2.487722 1_555
O3 Sm0 2.488063 1_555
O3 Sr1 2.828571 1_455
O3 Sr3 2.839999 1_545
O4 Sm0 2.487722 1_655
O4 Sm1 2.488063 1_565
O4 Sr2 2.828571 1_565
O4 Sr0 2.839999 1_655
O5 Sm0 2.487722 1_554
O5 Sm1 2.488063 1_565
O5 Sr3 2.828571 1_555
O5 Sr1 2.839999 1_454
O6 Sm0 2.437921 1_555
O6 Sm1 2.450689 1_566
O6 Sr2 2.786757 1_566
O6 Sr0 2.788268 1_555
O7 Sm0 2.437921 1_655
O7 Sm1 2.450689 1_565
O7 Sr3 2.786757 1_555
O7 Sr1 2.788268 1_555
O8 Sm1 2.437921 1_555
O8 Sm0 2.450689 1_555
O8 Sr0 2.786757 1_555
O8 Sr2 2.788268 1_555
O9 Sm1 2.437921 1_555
O9 Sm0 2.450689 1_656
O9 Sr1 2.786757 1_556
O9 Sr3 2.788268 1_545
O10 Sr0 2.486890 1_555
O10 Sr2 2.618845 1_566
O10 Sr2 2.967072 1_555
O10 Sr0 3.217406 1_656
O11 Sr1 2.486890 1_555
O11 Sr3 2.618845 1_555
O11 Sr3 2.967072 1_544
O11 Sr1 3.217406 1_454
O12 Sr2 2.486890 1_555
O12 Sr0 2.618845 1_555
O12 Sr0 2.967072 1_544
O12 Sr2 3.217406 1_454
O13 Sr3 2.486890 1_555
O13 Sr1 2.618845 1_566
O13 Sr1 2.967072 1_555
O13 Sr3 3.217406 1_656
