# generated using pymatgen
data_Cs3Zr2I9
_symmetry_space_group_name_H-M   'P 1'
_cell_length_a   8.44522529
_cell_length_b   8.44514117
_cell_length_c   20.29055579
_cell_angle_alpha   89.99807881
_cell_angle_beta   90.00140379
_cell_angle_gamma   119.99828678
_symmetry_Int_Tables_number   1
_chemical_formula_structural   Cs3Zr2I9
_chemical_formula_sum   'Cs6 Zr4 I18'
_cell_volume   1253.28610636
_cell_formula_units_Z   2
loop_
 _symmetry_equiv_pos_site_id
 _symmetry_equiv_pos_as_xyz
  1  'x, y, z'
loop_
 _atom_site_type_symbol
 _atom_site_label
 _atom_site_symmetry_multiplicity
 _atom_site_fract_x
 _atom_site_fract_y
 _atom_site_fract_z
 _atom_site_occupancy
  Cs  Cs0  1  0.33332191  0.66668035  0.06688640  1
  Cs  Cs1  1  0.66665958  0.33333596  0.56690400  1
  Cs  Cs2  1  0.66665994  0.33334445  0.93308636  1
  Cs  Cs3  1  0.33331709  0.66668183  0.43312590  1
  Cs  Cs4  1  -0.00000656  0.00000548  0.25000391  1
  Cs  Cs5  1  -0.00000680  0.00001012  0.75000378  1
  Zr  Zr0  1  0.66666790  0.33331504  0.17163812  1
  Zr  Zr1  1  0.33333677  0.66670585  0.67169082  1
  Zr  Zr2  1  0.33335660  0.66668176  0.82831751  1
  Zr  Zr3  1  0.66664457  0.33336020  0.32837316  1
  I  I0  1  0.83003616  0.66004091  0.09037512  1
  I  I1  1  0.16977083  0.83016636  0.59044844  1
  I  I2  1  0.66027778  0.82998005  0.59046745  1
  I  I3  1  0.33992719  0.16993870  0.09035990  1
  I  I4  1  0.83001702  0.16989586  0.09042625  1
  I  I5  1  0.17004743  0.33993441  0.90956597  1
  I  I6  1  0.16984280  0.83020665  0.90948188  1
  I  I7  1  0.17005934  0.33975762  0.59047534  1
  I  I8  1  0.66019760  0.82997768  0.90953257  1
  I  I9  1  0.33987723  0.16994572  0.40963674  1
  I  I10  1  0.82998965  0.66010323  0.40962258  1
  I  I11  1  0.83003603  0.16992158  0.40962463  1
  I  I12  1  0.49682629  0.99366001  0.25001184  1
  I  I13  1  0.50319032  0.49681639  0.74999040  1
  I  I14  1  0.99362082  0.49680675  0.74995183  1
  I  I15  1  0.00631732  0.50314830  0.25002185  1
  I  I16  1  0.49682338  0.50318073  0.24999450  1
  I  I17  1  0.50319181  0.00639800  0.74998175  1
loop_
_geom_bond_atom_site_label_1
_geom_bond_atom_site_label_2
_geom_bond_distance
_geom_bond_site_symmetry_2
Cs0 I5 3.987603 1_554
Cs0 I8 3.988699 1_554
Cs0 I6 3.989965 1_554
Cs0 I3 4.249268 1_565
Cs0 I0 4.249430 1_455
Cs0 I4 4.249525 1_565
Cs0 I0 4.249973 1_555
Cs0 I3 4.249977 1_555
Cs0 I4 4.250267 1_455
Cs0 I16 4.418484 1_555
Cs0 I12 4.418839 1_555
Cs0 I15 4.419090 1_555
Cs1 I9 3.986849 1_555
Cs1 I10 3.986969 1_555
Cs1 I11 3.987120 1_555
Cs1 I7 4.248297 1_555
Cs1 I2 4.248439 1_555
Cs1 I1 4.249647 1_655
Cs1 I1 4.250127 1_545
Cs1 I2 4.251179 1_545
Cs1 I7 4.251447 1_655
Cs1 I14 4.417388 1_555
Cs1 I17 4.417762 1_555
Cs1 I13 4.418045 1_555
Cs2 I3 3.986768 1_556
Cs2 I0 3.986872 1_556
Cs2 I4 3.988040 1_556
Cs2 I8 4.248638 1_555
Cs2 I5 4.248980 1_555
Cs2 I6 4.249842 1_545
Cs2 I6 4.250213 1_655
Cs2 I5 4.250559 1_655
Cs2 I8 4.250948 1_545
Cs2 I13 4.418042 1_555
Cs2 I17 4.418352 1_555
Cs2 I14 4.418901 1_555
Cs3 I7 3.988762 1_555
Cs3 I2 3.988838 1_555
Cs3 I1 3.988873 1_555
Cs3 I10 4.249420 1_555
Cs3 I9 4.249504 1_565
Cs3 I11 4.249630 1_565
Cs3 I9 4.249805 1_555
Cs3 I11 4.249986 1_455
Cs3 I10 4.250040 1_455
Cs3 I15 4.418499 1_555
Cs3 I12 4.418540 1_555
Cs3 I16 4.419042 1_555
Cs4 I4 4.081933 1_455
Cs4 I11 4.082788 1_455
Cs4 I10 4.082800 1_445
Cs4 I9 4.082991 1_555
Cs4 I0 4.083337 1_445
Cs4 I3 4.083429 1_555
Cs4 I15 4.222664 1_555
Cs4 I12 4.222822 1_445
Cs4 I12 4.222913 1_545
Cs4 I16 4.222935 1_445
Cs4 I16 4.222977 1_555
Cs4 I15 4.222984 1_545
Cs5 I6 4.079378 1_545
Cs5 I1 4.080613 1_545
Cs5 I7 4.080659 1_555
Cs5 I2 4.080689 1_445
Cs5 I8 4.080959 1_445
Cs5 I5 4.082086 1_555
Cs5 I14 4.222682 1_455
Cs5 I17 4.222830 1_455
Cs5 I17 4.222912 1_555
Cs5 I13 4.222945 1_445
Cs5 I14 4.222974 1_445
Cs5 I13 4.222974 1_555
I0 Zr0 2.903250 1_555
I1 Zr1 2.904769 1_555
I2 Zr1 2.904154 1_555
I3 Zr0 2.903555 1_555
I4 Zr0 2.902954 1_555
I5 Zr2 2.903212 1_555
I6 Zr2 2.904035 1_555
I7 Zr1 2.904108 1_555
I8 Zr2 2.903432 1_555
I9 Zr3 2.903571 1_555
I10 Zr3 2.903263 1_555
I11 Zr3 2.903691 1_555
I12 Zr0 2.949549 1_565
I12 Zr3 2.949758 1_565
I13 Zr1 2.949225 1_555
I13 Zr2 2.949345 1_555
I14 Zr1 2.948758 1_655
I14 Zr2 2.950000 1_655
I15 Zr3 2.949479 1_455
I15 Zr0 2.949666 1_455
I16 Zr3 2.949466 1_555
I16 Zr0 2.949733 1_555
I17 Zr1 2.948938 1_545
I17 Zr2 2.949511 1_545
