# generated using pymatgen
data_LiEr2S2O8F3
_symmetry_space_group_name_H-M   'P 1'
_cell_length_a   6.40610700
_cell_length_b   8.17286400
_cell_length_c   14.80236900
_cell_angle_alpha   90.00000000
_cell_angle_beta   90.00000000
_cell_angle_gamma   90.00000000
_symmetry_Int_Tables_number   1
_chemical_formula_structural   LiEr2S2O8F3
_chemical_formula_sum   'Li4 Er8 S8 O32 F12'
_cell_volume   774.99640289
_cell_formula_units_Z   4
loop_
 _symmetry_equiv_pos_site_id
 _symmetry_equiv_pos_as_xyz
  1  'x, y, z'
loop_
 _atom_site_type_symbol
 _atom_site_label
 _atom_site_symmetry_multiplicity
 _atom_site_fract_x
 _atom_site_fract_y
 _atom_site_fract_z
 _atom_site_occupancy
  Li  Li0  1  0.63044600  0.75000000  0.00000000  1
  Li  Li1  1  0.13044600  0.75000000  0.50000000  1
  Li  Li2  1  0.36955400  0.25000000  0.00000000  1
  Li  Li3  1  0.86955400  0.25000000  0.50000000  1
  Er  Er0  1  0.60814800  0.63408500  0.60149300  1
  Er  Er1  1  0.89185200  0.13408500  0.89850700  1
  Er  Er2  1  0.60814800  0.86591500  0.39850700  1
  Er  Er3  1  0.39185200  0.13408500  0.60149300  1
  Er  Er4  1  0.89185200  0.36591500  0.10149300  1
  Er  Er5  1  0.10814800  0.86591500  0.10149300  1
  Er  Er6  1  0.39185200  0.36591500  0.39850700  1
  Er  Er7  1  0.10814800  0.63408500  0.89850700  1
  S  S0  1  0.39302400  0.50525600  0.16450200  1
  S  S1  1  0.60697600  0.00525600  0.16450200  1
  S  S2  1  0.89302400  0.50525600  0.33549800  1
  S  S3  1  0.10697600  0.49474400  0.66450200  1
  S  S4  1  0.10697600  0.00525600  0.33549800  1
  S  S5  1  0.89302400  0.99474400  0.66450200  1
  S  S6  1  0.60697600  0.49474400  0.83549800  1
  S  S7  1  0.39302400  0.99474400  0.83549800  1
  O  O0  1  0.43578300  0.06548400  0.74568000  1
  O  O1  1  0.59341800  0.97547400  0.88573400  1
  O  O2  1  0.40658200  0.47547400  0.88573400  1
  O  O3  1  0.24206900  0.60883400  0.61033200  1
  O  O4  1  0.43578300  0.43451600  0.25432000  1
  O  O5  1  0.56421700  0.56548400  0.74568000  1
  O  O6  1  0.06421700  0.56548400  0.75432000  1
  O  O7  1  0.06421700  0.93451600  0.24568000  1
  O  O8  1  0.75793100  0.10883400  0.61033200  1
  O  O9  1  0.21077200  0.16482200  0.32380900  1
  O  O10  1  0.93578300  0.43451600  0.24568000  1
  O  O11  1  0.90658200  0.47547400  0.61426600  1
  O  O12  1  0.71077200  0.16482200  0.17619100  1
  O  O13  1  0.71077200  0.33517800  0.82380900  1
  O  O14  1  0.40658200  0.02452600  0.11426600  1
  O  O15  1  0.74206900  0.89116600  0.11033200  1
  O  O16  1  0.28922800  0.83517800  0.82380900  1
  O  O17  1  0.28922800  0.66482200  0.17619100  1
  O  O18  1  0.93578300  0.06548400  0.75432000  1
  O  O19  1  0.56421700  0.93451600  0.25432000  1
  O  O20  1  0.25793100  0.10883400  0.88966800  1
  O  O21  1  0.78922800  0.66482200  0.32380900  1
  O  O22  1  0.21077200  0.33517800  0.67619100  1
  O  O23  1  0.24206900  0.89116600  0.38966800  1
  O  O24  1  0.25793100  0.39116600  0.11033200  1
  O  O25  1  0.59341800  0.52452600  0.11426600  1
  O  O26  1  0.09341800  0.97547400  0.61426600  1
  O  O27  1  0.74206900  0.60883400  0.88966800  1
  O  O28  1  0.90658200  0.02452600  0.38573400  1
  O  O29  1  0.78922800  0.83517800  0.67619100  1
  O  O30  1  0.09341800  0.52452600  0.38573400  1
  O  O31  1  0.75793100  0.39116600  0.38966800  1
  F  F0  1  0.03633000  0.37511300  0.94887100  1
  F  F1  1  0.96367000  0.87511300  0.94887100  1
  F  F2  1  0.96367000  0.62488700  0.05112900  1
  F  F3  1  0.67642400  0.25000000  0.00000000  1
  F  F4  1  0.03633000  0.12488700  0.05112900  1
  F  F5  1  0.53633000  0.37511300  0.55112900  1
  F  F6  1  0.32357600  0.75000000  0.00000000  1
  F  F7  1  0.53633000  0.12488700  0.44887100  1
  F  F8  1  0.82357600  0.75000000  0.50000000  1
  F  F9  1  0.46367000  0.87511300  0.55112900  1
  F  F10  1  0.17642400  0.25000000  0.50000000  1
  F  F11  1  0.46367000  0.62488700  0.44887100  1
loop_
_geom_bond_atom_site_label_1
_geom_bond_atom_site_label_2
_geom_bond_distance
_geom_bond_site_symmetry_2
Li0 O27 2.123600 1_554
Li0 O15 2.123600 1_555
Li0 O1 2.512553 1_554
Li0 O25 2.512553 1_555
Li1 O23 2.123600 1_555
Li1 O3 2.123600 1_555
Li1 O26 2.512553 1_555
Li1 O30 2.512553 1_555
Li2 O20 2.123600 1_554
Li2 O24 2.123600 1_555
Li2 O2 2.512553 1_554
Li2 O14 2.512553 1_555
Li3 O8 2.123600 1_555
Li3 O31 2.123600 1_555
Li3 O28 2.512553 1_555
Li3 O11 2.512553 1_555
Er0 O5 2.224595 1_555
Er0 F8 2.249234 1_555
Er0 F5 2.290677 1_555
Er0 O29 2.295505 1_555
Er0 F9 2.300624 1_555
Er0 O11 2.317571 1_555
Er0 O3 2.357837 1_555
Er0 F11 2.442563 1_555
Er1 O18 2.224595 1_555
Er1 F3 2.249234 1_556
Er1 F1 2.290677 1_545
Er1 O13 2.295505 1_555
Er1 F0 2.300624 1_655
Er1 O1 2.317571 1_545
Er1 O20 2.357837 1_655
Er1 F4 2.442563 1_656
Er2 O19 2.224595 1_555
Er2 F8 2.249234 1_555
Er2 F7 2.290677 1_565
Er2 O21 2.295505 1_555
Er2 F11 2.300624 1_555
Er2 O28 2.317571 1_565
Er2 O23 2.357837 1_555
Er2 F9 2.442563 1_555
Er3 O0 2.224595 1_555
Er3 F10 2.249234 1_555
Er3 F9 2.290677 1_545
Er3 O22 2.295505 1_555
Er3 F5 2.300624 1_555
Er3 O26 2.317571 1_545
Er3 O8 2.357837 1_555
Er3 F7 2.442563 1_555
Er4 O10 2.224595 1_555
Er4 F3 2.249234 1_555
Er4 F2 2.290677 1_555
Er4 O12 2.295505 1_555
Er4 F4 2.300624 1_655
Er4 O25 2.317571 1_555
Er4 O24 2.357837 1_655
Er4 F0 2.442563 1_654
Er5 O7 2.224595 1_555
Er5 F6 2.249234 1_555
Er5 F4 2.290677 1_565
Er5 O17 2.295505 1_555
Er5 F2 2.300624 1_455
Er5 O14 2.317571 1_565
Er5 O15 2.357837 1_455
Er5 F1 2.442563 1_454
Er6 O4 2.224595 1_555
Er6 F10 2.249234 1_555
Er6 F11 2.290677 1_555
Er6 O9 2.295505 1_555
Er6 F7 2.300624 1_555
Er6 O30 2.317571 1_555
Er6 O31 2.357837 1_555
Er6 F5 2.442563 1_555
Er7 O6 2.224595 1_555
Er7 F6 2.249234 1_556
Er7 F0 2.290677 1_555
Er7 O16 2.295505 1_555
Er7 F1 2.300624 1_455
Er7 O2 2.317571 1_555
Er7 O27 2.357837 1_455
Er7 F2 2.442563 1_456
O0 S7 1.475435 1_545
O1 S7 1.491900 1_555
O2 S6 1.491900 1_555
O3 S3 1.503780 1_555
O4 S0 1.475435 1_555
O5 S6 1.475435 1_555
O6 S3 1.475435 1_555
O7 S4 1.475435 1_565
O8 S5 1.503780 1_545
O9 S4 1.474033 1_555
O10 S2 1.475435 1_555
O11 S3 1.491900 1_655
O12 S1 1.474033 1_555
O13 S6 1.474033 1_555
O14 S1 1.491900 1_555
O15 S1 1.503780 1_565
O16 S7 1.474033 1_555
O17 S0 1.474033 1_555
O18 S5 1.475435 1_545
O19 S1 1.475435 1_565
O20 S7 1.503780 1_545
O21 S2 1.474033 1_555
O22 S3 1.474033 1_555
O23 S4 1.503780 1_565
O24 S0 1.503780 1_555
O25 S0 1.491900 1_555
O26 S5 1.491900 1_455
O27 S6 1.503780 1_555
O28 S4 1.491900 1_655
O29 S5 1.474033 1_555
O30 S2 1.491900 1_455
O31 S2 1.503780 1_555
F0 Li2 2.484990 1_556
F1 Li0 2.484990 1_556
F2 Li0 2.484990 1_555
F3 Li2 1.965842 1_555
F4 Li2 2.484990 1_555
F5 Li3 2.484990 1_555
F6 Li0 1.965842 1_555
F7 Li3 2.484990 1_555
F8 Li1 1.965842 1_655
F9 Li1 2.484990 1_555
F10 Li3 1.965842 1_455
F11 Li1 2.484990 1_555
