# generated using pymatgen
data_Dy2Cu(BO2)8
_symmetry_space_group_name_H-M   'P 1'
_cell_length_a   8.49037200
_cell_length_b   6.26346200
_cell_length_c   10.26875985
_cell_angle_alpha   89.69046349
_cell_angle_beta   90.00000000
_cell_angle_gamma   90.00000000
_symmetry_Int_Tables_number   1
_chemical_formula_structural   Dy2Cu(BO2)8
_chemical_formula_sum   'Dy4 Cu2 B16 O32'
_cell_volume   546.07566794
_cell_formula_units_Z   2
loop_
 _symmetry_equiv_pos_site_id
 _symmetry_equiv_pos_as_xyz
  1  'x, y, z'
loop_
 _atom_site_type_symbol
 _atom_site_label
 _atom_site_symmetry_multiplicity
 _atom_site_fract_x
 _atom_site_fract_y
 _atom_site_fract_z
 _atom_site_occupancy
  Dy  Dy0  1  0.00626800  0.49539200  0.81788000  1
  Dy  Dy1  1  0.50626800  0.00460800  0.18212000  1
  Dy  Dy2  1  0.49373200  0.99539200  0.81788000  1
  Dy  Dy3  1  0.99373200  0.50460800  0.18212000  1
  Cu  Cu0  1  0.50000000  0.00000000  0.50000000  1
  Cu  Cu1  1  0.00000000  0.50000000  0.50000000  1
  B  B0  1  0.80922500  0.88416800  0.38153100  1
  B  B1  1  0.19077500  0.11583200  0.61846900  1
  B  B2  1  0.30922500  0.61583200  0.61846900  1
  B  B3  1  0.18225700  0.88733700  0.00010100  1
  B  B4  1  0.69331100  0.37946100  0.62668000  1
  B  B5  1  0.30668900  0.62053900  0.37332000  1
  B  B6  1  0.49637400  0.49439900  0.80630200  1
  B  B7  1  0.81774300  0.11266300  0.99989900  1
  B  B8  1  0.31774300  0.38733700  0.00010100  1
  B  B9  1  0.50362600  0.50560100  0.19369800  1
  B  B10  1  0.80668900  0.87946100  0.62668000  1
  B  B11  1  0.99637400  0.00560100  0.19369800  1
  B  B12  1  0.00362600  0.99439900  0.80630200  1
  B  B13  1  0.68225700  0.61266300  0.99989900  1
  B  B14  1  0.69077500  0.38416800  0.38153100  1
  B  B15  1  0.19331100  0.12053900  0.37332000  1
  O  O0  1  0.66344100  0.06054600  0.99297200  1
  O  O1  1  0.40916800  0.64820000  0.72467200  1
  O  O2  1  0.62580800  0.35007400  0.50441700  1
  O  O3  1  0.38888800  0.34815800  0.87873800  1
  O  O4  1  0.59083200  0.35180000  0.27532800  1
  O  O5  1  0.34256300  0.05900200  0.63745200  1
  O  O6  1  0.37419200  0.64992600  0.49558300  1
  O  O7  1  0.12580800  0.14992600  0.49558300  1
  O  O8  1  0.90916800  0.85180000  0.27532800  1
  O  O9  1  0.65493600  0.93721500  0.64324400  1
  O  O10  1  0.41288800  0.35815800  0.10985100  1
  O  O11  1  0.33655900  0.93945400  0.00702800  1
  O  O12  1  0.08711200  0.85815800  0.10985100  1
  O  O13  1  0.91288800  0.14184200  0.89014900  1
  O  O14  1  0.11111200  0.84815800  0.87873800  1
  O  O15  1  0.61111200  0.65184200  0.12126200  1
  O  O16  1  0.09532300  0.15691800  0.26565400  1
  O  O17  1  0.34506400  0.06278500  0.35675600  1
  O  O18  1  0.16344100  0.43945400  0.00702800  1
  O  O19  1  0.15743700  0.55900100  0.63745200  1
  O  O20  1  0.84506400  0.43721500  0.64324400  1
  O  O21  1  0.87419200  0.85007400  0.50441700  1
  O  O22  1  0.83655900  0.56054600  0.99297200  1
  O  O23  1  0.59532300  0.34308200  0.73434600  1
  O  O24  1  0.58711200  0.64184200  0.89014900  1
  O  O25  1  0.65743700  0.94099800  0.36254800  1
  O  O26  1  0.88888800  0.15184200  0.12126200  1
  O  O27  1  0.15493600  0.56278500  0.35675600  1
  O  O28  1  0.90467700  0.84308200  0.73434600  1
  O  O29  1  0.09083200  0.14820000  0.72467200  1
  O  O30  1  0.84256300  0.44099800  0.36254800  1
  O  O31  1  0.40467700  0.65691800  0.26565400  1
loop_
_geom_bond_atom_site_label_1
_geom_bond_atom_site_label_2
_geom_bond_distance
_geom_bond_site_symmetry_2
Dy0 O20 2.286709 1_455
Dy0 O19 2.287104 1_555
Dy0 O22 2.341658 1_455
Dy0 O18 2.380918 1_556
Dy0 O13 2.462789 1_455
Dy0 O14 2.465747 1_555
Dy0 O29 2.486578 1_555
Dy0 O28 2.490416 1_455
Dy1 O17 2.286709 1_555
Dy1 O25 2.287105 1_545
Dy1 O11 2.341658 1_545
Dy1 O0 2.380918 1_554
Dy1 O10 2.462789 1_555
Dy1 O15 2.465747 1_545
Dy1 O4 2.486578 1_555
Dy1 O31 2.490416 1_545
Dy2 O9 2.286709 1_555
Dy2 O5 2.287105 1_565
Dy2 O0 2.341658 1_565
Dy2 O11 2.380918 1_556
Dy2 O24 2.462789 1_555
Dy2 O3 2.465747 1_565
Dy2 O1 2.486578 1_555
Dy2 O23 2.490416 1_565
Dy3 O27 2.286709 1_655
Dy3 O30 2.287105 1_555
Dy3 O18 2.341658 1_655
Dy3 O22 2.380918 1_554
Dy3 O12 2.462789 1_655
Dy3 O26 2.465747 1_555
Dy3 O8 2.486578 1_555
Dy3 O16 2.490416 1_655
Cu0 O25 1.980201 1_545
Cu0 O5 1.980201 1_555
Cu0 O9 2.010597 1_545
Cu0 O17 2.010597 1_555
Cu0 O2 2.439655 1_555
Cu0 O6 2.439655 1_545
Cu1 O19 1.980200 1_555
Cu1 O30 1.980201 1_455
Cu1 O20 2.010597 1_455
Cu1 O27 2.010597 1_555
Cu1 O21 2.439655 1_455
Cu1 O7 2.439655 1_555
B0 O25 1.350849 1_555
B0 O21 1.392589 1_555
B0 O8 1.397456 1_555
B1 O5 1.350849 1_555
B1 O7 1.392589 1_555
B1 O29 1.397456 1_555
B2 O19 1.350851 1_555
B2 O6 1.392589 1_555
B2 O1 1.397456 1_555
B3 O11 1.352103 1_555
B3 O12 1.397807 1_555
B3 O14 1.407668 1_554
B4 O20 1.349269 1_555
B4 O2 1.393235 1_555
B4 O23 1.401317 1_555
B5 O27 1.349269 1_555
B5 O6 1.393235 1_555
B5 O31 1.401317 1_555
B6 O23 1.468875 1_555
B6 O1 1.473135 1_555
B6 O24 1.481990 1_555
B6 O3 1.489215 1_555
B7 O0 1.352103 1_555
B7 O13 1.397807 1_555
B7 O26 1.407668 1_556
B8 O18 1.352103 1_555
B8 O10 1.397807 1_555
B8 O3 1.407668 1_554
B9 O31 1.468875 1_555
B9 O4 1.473135 1_555
B9 O10 1.481990 1_555
B9 O15 1.489215 1_555
B10 O9 1.349269 1_555
B10 O21 1.393235 1_555
B10 O28 1.401317 1_555
B11 O16 1.468875 1_655
B11 O8 1.473135 1_545
B11 O12 1.481990 1_645
B11 O26 1.489215 1_555
B12 O28 1.468875 1_455
B12 O29 1.473135 1_565
B12 O13 1.481990 1_465
B12 O14 1.489215 1_555
B13 O22 1.352103 1_555
B13 O24 1.397807 1_555
B13 O15 1.407668 1_556
B14 O30 1.350849 1_555
B14 O2 1.392589 1_555
B14 O4 1.397456 1_555
B15 O17 1.349269 1_555
B15 O7 1.393235 1_555
B15 O16 1.401317 1_555
