# generated using pymatgen
data_Ba3Bi(ClO)3
_symmetry_space_group_name_H-M   'P 1'
_cell_length_a   7.09022762
_cell_length_b   12.13030304
_cell_length_c   12.30379683
_cell_angle_alpha   90.00000000
_cell_angle_beta   90.00000000
_cell_angle_gamma   90.00000000
_symmetry_Int_Tables_number   1
_chemical_formula_structural   Ba3Bi(ClO)3
_chemical_formula_sum   'Ba12 Bi4 Cl12 O12'
_cell_volume   1058.20785121
_cell_formula_units_Z   4
loop_
 _symmetry_equiv_pos_site_id
 _symmetry_equiv_pos_as_xyz
  1  'x, y, z'
loop_
 _atom_site_type_symbol
 _atom_site_label
 _atom_site_symmetry_multiplicity
 _atom_site_fract_x
 _atom_site_fract_y
 _atom_site_fract_z
 _atom_site_occupancy
  Ba  Ba0  1  0.17007953  0.06742064  0.88692786  1
  Ba  Ba1  1  0.65006601  0.25000000  0.96987430  1
  Ba  Ba2  1  0.67007953  0.06742064  0.61307214  1
  Ba  Ba3  1  0.17007953  0.43257936  0.88692786  1
  Ba  Ba4  1  0.32992047  0.93257936  0.38692786  1
  Ba  Ba5  1  0.34993399  0.75000000  0.03012570  1
  Ba  Ba6  1  0.82992047  0.56742064  0.11307214  1
  Ba  Ba7  1  0.32992047  0.56742064  0.38692786  1
  Ba  Ba8  1  0.82992047  0.93257936  0.11307214  1
  Ba  Ba9  1  0.15006601  0.25000000  0.53012570  1
  Ba  Ba10  1  0.67007953  0.43257936  0.61307214  1
  Ba  Ba11  1  0.84993399  0.75000000  0.46987430  1
  Bi  Bi0  1  0.09786576  0.25000000  0.12275152  1
  Bi  Bi1  1  0.59786576  0.25000000  0.37724848  1
  Bi  Bi2  1  0.90213424  0.75000000  0.87724848  1
  Bi  Bi3  1  0.40213424  0.75000000  0.62275152  1
  Cl  Cl0  1  0.88873032  0.00522469  0.36434672  1
  Cl  Cl1  1  0.08385892  0.75000000  0.23416340  1
  Cl  Cl2  1  0.11126968  0.50522469  0.63565328  1
  Cl  Cl3  1  0.58385892  0.75000000  0.26583660  1
  Cl  Cl4  1  0.61126968  0.99477531  0.86434672  1
  Cl  Cl5  1  0.91614108  0.25000000  0.76583660  1
  Cl  Cl6  1  0.38873032  0.00522469  0.13565328  1
  Cl  Cl7  1  0.38873032  0.49477531  0.13565328  1
  Cl  Cl8  1  0.61126968  0.50522469  0.86434672  1
  Cl  Cl9  1  0.88873032  0.49477531  0.36434672  1
  Cl  Cl10  1  0.41614108  0.25000000  0.73416340  1
  Cl  Cl11  1  0.11126968  0.99477531  0.63565328  1
  O  O0  1  0.06963277  0.87229062  0.94938414  1
  O  O1  1  0.43036723  0.37229062  0.44938414  1
  O  O2  1  0.93036723  0.12770938  0.05061586  1
  O  O3  1  0.56963277  0.62770938  0.55061586  1
  O  O4  1  0.71494725  0.75000000  0.00697119  1
  O  O5  1  0.28505275  0.25000000  0.99302881  1
  O  O6  1  0.78505275  0.25000000  0.50697119  1
  O  O7  1  0.93036723  0.37229062  0.05061586  1
  O  O8  1  0.56963277  0.87229062  0.55061586  1
  O  O9  1  0.43036723  0.12770938  0.44938414  1
  O  O10  1  0.21494725  0.75000000  0.49302881  1
  O  O11  1  0.06963277  0.62770938  0.94938414  1
loop_
_geom_bond_atom_site_label_1
_geom_bond_atom_site_label_2
_geom_bond_distance
_geom_bond_site_symmetry_2
Ba0 O0 2.588504 1_545
Ba0 O5 2.696998 1_555
Ba0 O2 2.734895 1_456
Ba0 Cl5 3.219716 1_455
Ba0 Cl11 3.241695 1_545
Ba0 Cl4 3.261744 1_545
Ba0 Cl10 3.388460 1_555
Ba0 Cl6 3.512523 1_556
Ba1 O5 2.603660 1_555
Ba1 O7 2.671553 1_556
Ba1 O2 2.671553 1_556
Ba1 Cl5 3.140272 1_555
Ba1 Cl10 3.340913 1_555
Ba1 Cl4 3.368443 1_545
Ba1 Cl8 3.368443 1_555
Ba2 O8 2.588504 1_545
Ba2 O6 2.696998 1_555
Ba2 O9 2.734895 1_555
Ba2 Cl10 3.219716 1_555
Ba2 Cl4 3.241695 1_545
Ba2 Cl11 3.261744 1_645
Ba2 Cl5 3.388460 1_555
Ba2 Cl0 3.512523 1_555
Ba3 O11 2.588504 1_555
Ba3 O5 2.696998 1_555
Ba3 O7 2.734895 1_456
Ba3 Cl5 3.219716 1_455
Ba3 Cl2 3.241695 1_555
Ba3 Cl8 3.261744 1_555
Ba3 Cl10 3.388460 1_555
Ba3 Cl7 3.512523 1_556
Ba4 O9 2.588504 1_565
Ba4 O10 2.696998 1_555
Ba4 O8 2.734895 1_555
Ba4 Cl3 3.219716 1_555
Ba4 Cl6 3.241695 1_565
Ba4 Cl0 3.261744 1_465
Ba4 Cl1 3.388460 1_555
Ba4 Cl11 3.512523 1_555
Ba5 O4 2.603660 1_555
Ba5 O11 2.671553 1_554
Ba5 O0 2.671553 1_554
Ba5 Cl1 3.140272 1_555
Ba5 Cl3 3.340913 1_555
Ba5 Cl6 3.368443 1_565
Ba5 Cl7 3.368443 1_555
Ba6 O7 2.588504 1_555
Ba6 O4 2.696998 1_555
Ba6 O11 2.734895 1_654
Ba6 Cl1 3.219716 1_655
Ba6 Cl9 3.241695 1_555
Ba6 Cl7 3.261744 1_555
Ba6 Cl3 3.388460 1_555
Ba6 Cl8 3.512523 1_554
Ba7 O1 2.588504 1_555
Ba7 O10 2.696998 1_555
Ba7 O3 2.734895 1_555
Ba7 Cl3 3.219716 1_555
Ba7 Cl7 3.241695 1_555
Ba7 Cl9 3.261744 1_455
Ba7 Cl1 3.388460 1_555
Ba7 Cl2 3.512523 1_555
Ba8 O2 2.588504 1_565
Ba8 O4 2.696998 1_555
Ba8 O0 2.734895 1_654
Ba8 Cl1 3.219716 1_655
Ba8 Cl0 3.241695 1_565
Ba8 Cl6 3.261744 1_565
Ba8 Cl3 3.388460 1_555
Ba8 Cl4 3.512523 1_554
Ba9 O6 2.603660 1_455
Ba9 O1 2.671553 1_555
Ba9 O9 2.671553 1_555
Ba9 Cl10 3.140272 1_555
Ba9 Cl5 3.340913 1_455
Ba9 Cl2 3.368443 1_555
Ba9 Cl11 3.368443 1_545
Ba10 O3 2.588504 1_555
Ba10 O6 2.696998 1_555
Ba10 O1 2.734895 1_555
Ba10 Cl10 3.219716 1_555
Ba10 Cl8 3.241695 1_555
Ba10 Cl2 3.261744 1_655
Ba10 Cl5 3.388460 1_555
Ba10 Cl9 3.512523 1_555
Ba11 O10 2.603660 1_655
Ba11 O3 2.671553 1_555
Ba11 O8 2.671553 1_555
Ba11 Cl3 3.140272 1_555
Ba11 Cl1 3.340913 1_655
Ba11 Cl0 3.368443 1_565
Ba11 Cl9 3.368443 1_555
Bi0 O5 2.075797 1_554
Bi0 O2 2.097301 1_455
Bi0 O7 2.097301 1_455
Bi1 O6 2.075797 1_555
Bi1 O9 2.097301 1_555
Bi1 O1 2.097301 1_555
Bi2 O4 2.075797 1_556
Bi2 O0 2.097301 1_655
Bi2 O11 2.097301 1_655
Bi3 O10 2.075797 1_555
Bi3 O8 2.097301 1_555
Bi3 O3 2.097301 1_555
