# generated using pymatgen
data_CaGaAu3
_symmetry_space_group_name_H-M   'P 1'
_cell_length_a   9.19367942
_cell_length_b   9.19358456
_cell_length_c   9.19355357
_cell_angle_alpha   89.99964078
_cell_angle_beta   90.00072392
_cell_angle_gamma   89.99886314
_symmetry_Int_Tables_number   1
_chemical_formula_structural   CaGaAu3
_chemical_formula_sum   'Ca8 Ga8 Au24'
_cell_volume   777.06552545
_cell_formula_units_Z   8
loop_
 _symmetry_equiv_pos_site_id
 _symmetry_equiv_pos_as_xyz
  1  'x, y, z'
loop_
 _atom_site_type_symbol
 _atom_site_label
 _atom_site_symmetry_multiplicity
 _atom_site_fract_x
 _atom_site_fract_y
 _atom_site_fract_z
 _atom_site_occupancy
  Ca  Ca0  1  0.39127371  0.39127454  0.39127650  1
  Ca  Ca1  1  0.60873155  0.89126018  0.10873488  1
  Ca  Ca2  1  0.10873584  0.89126344  0.39126694  1
  Ca  Ca3  1  0.60872736  0.60872525  0.60872350  1
  Ca  Ca4  1  0.89126373  0.39127012  0.10873713  1
  Ca  Ca5  1  0.39126804  0.10873972  0.89126471  1
  Ca  Ca6  1  0.10873616  0.60872989  0.89126203  1
  Ca  Ca7  1  0.89126474  0.10873607  0.60873295  1
  Ga  Ga0  1  0.88666593  0.61335905  0.38663956  1
  Ga  Ga1  1  0.61335694  0.38663634  0.88666466  1
  Ga  Ga2  1  0.88666127  0.88665237  0.88664805  1
  Ga  Ga3  1  0.38664212  0.61336444  0.11333388  1
  Ga  Ga4  1  0.11333927  0.11334763  0.11335118  1
  Ga  Ga5  1  0.38664462  0.88666642  0.61335616  1
  Ga  Ga6  1  0.61335802  0.11333441  0.38664620  1
  Ga  Ga7  1  0.11333316  0.38664057  0.61336050  1
  Au  Au0  1  0.57479958  0.26271450  0.13519061  1
  Au  Au1  1  0.07481450  0.23728033  0.86483604  1
  Au  Au2  1  0.26271404  0.13519701  0.57479752  1
  Au  Au3  1  0.63517947  0.57480253  0.23729530  1
  Au  Au4  1  0.57479920  0.23729167  0.63517338  1
  Au  Au5  1  0.26272356  0.36480854  0.07480763  1
  Au  Au6  1  0.36482280  0.42519687  0.76270487  1
  Au  Au7  1  0.23727662  0.86483417  0.07481169  1
  Au  Au8  1  0.23729309  0.63517595  0.57480019  1
  Au  Au9  1  0.76272413  0.13516678  0.92518835  1
  Au  Au10  1  0.73727669  0.63518700  0.92518720  1
  Au  Au11  1  0.73728194  0.86481812  0.42520245  1
  Au  Au12  1  0.36480943  0.07479463  0.26271244  1
  Au  Au13  1  0.42520092  0.73728214  0.86482305  1
  Au  Au14  1  0.92520630  0.73728739  0.63519152  1
  Au  Au15  1  0.63519163  0.92520517  0.73728679  1
  Au  Au16  1  0.86481180  0.42520009  0.73728478  1
  Au  Au17  1  0.42519887  0.76270510  0.36482169  1
  Au  Au18  1  0.92518569  0.76271990  0.13516379  1
  Au  Au19  1  0.07479435  0.26271287  0.36480853  1
  Au  Au20  1  0.76270330  0.36481883  0.42519874  1
  Au  Au21  1  0.13518880  0.57479956  0.26271525  1
  Au  Au22  1  0.86479451  0.07482303  0.23730317  1
  Au  Au23  1  0.13520633  0.92517738  0.76269616  1
loop_
_geom_bond_atom_site_label_1
_geom_bond_atom_site_label_2
_geom_bond_distance
_geom_bond_site_symmetry_2
Ca0 Ga6 3.271059 1_555
Ca0 Ga3 3.271109 1_555
Ca0 Ga7 3.271115 1_555
Ca1 Ga6 3.270815 1_565
Ca1 Ga3 3.270829 1_555
Ca1 Ga2 3.271050 1_554
Ca2 Ga0 3.270782 1_455
Ca2 Ga5 3.270871 1_555
Ca2 Ga4 3.270882 1_565
Ca3 Ga5 3.271058 1_555
Ca3 Ga1 3.271093 1_555
Ca3 Ga0 3.271101 1_555
Ca4 Ga1 3.270767 1_554
Ca4 Ga0 3.270832 1_555
Ca4 Ga4 3.270879 1_655
Ca5 Ga5 3.270789 1_545
Ca5 Ga1 3.270832 1_555
Ca5 Ga4 3.271041 1_556
Ca6 Ga3 3.270757 1_556
Ca6 Ga7 3.270828 1_555
Ca6 Ga2 3.270875 1_455
Ca7 Ga7 3.270774 1_655
Ca7 Ga6 3.270842 1_555
Ca7 Ga2 3.270875 1_545
Au0 Ga1 2.577618 1_554
Au0 Ga6 2.712181 1_555
Au0 Ca0 3.128391 1_555
Au0 Ca5 3.143247 1_554
Au0 Ca4 3.149789 1_555
Au0 Ca1 3.437826 1_545
Au1 Ga4 2.577519 1_556
Au1 Ga7 2.712212 1_555
Au1 Ca7 3.128567 1_455
Au1 Ca4 3.143241 1_456
Au1 Ca5 3.149580 1_555
Au1 Ca6 3.437766 1_555
Au2 Ga5 2.577679 1_545
Au2 Ga7 2.712105 1_555
Au2 Ca0 3.128315 1_555
Au2 Ca2 3.143318 1_545
Au2 Ca5 3.149739 1_555
Au2 Ca7 3.437834 1_455
Au3 Ga3 2.577882 1_555
Au3 Ga0 2.712285 1_555
Au3 Ca4 3.128400 1_555
Au3 Ca0 3.143160 1_555
Au3 Ca1 3.149681 1_555
Au3 Ca3 3.437575 1_555
Au4 Ga6 2.577780 1_555
Au4 Ga1 2.712317 1_555
Au4 Ca5 3.128441 1_555
Au4 Ca0 3.143017 1_555
Au4 Ca7 3.149749 1_555
Au4 Ca3 3.437639 1_555
Au5 Ga3 2.577840 1_555
Au5 Ga4 2.712276 1_555
Au5 Ca5 3.128291 1_554
Au5 Ca6 3.143295 1_554
Au5 Ca0 3.149752 1_555
Au5 Ca4 3.437916 1_455
Au6 Ga1 2.577848 1_555
Au6 Ga7 2.712310 1_555
Au6 Ca6 3.128416 1_555
Au6 Ca3 3.143155 1_555
Au6 Ca5 3.149673 1_555
Au6 Ca0 3.437575 1_555
Au7 Ga4 2.577551 1_565
Au7 Ga3 2.712181 1_555
Au7 Ca6 3.128575 1_554
Au7 Ca5 3.143274 1_564
Au7 Ca2 3.149602 1_555
Au7 Ca1 3.437845 1_555
Au8 Ga7 2.577884 1_555
Au8 Ga5 2.712369 1_555
Au8 Ca2 3.128384 1_555
Au8 Ca0 3.143062 1_555
Au8 Ca6 3.149727 1_555
Au8 Ca3 3.437663 1_555
Au9 Ga2 2.577559 1_545
Au9 Ga1 2.712189 1_555
Au9 Ca4 3.128561 1_556
Au9 Ca1 3.143283 1_546
Au9 Ca7 3.149604 1_555
Au9 Ca5 3.437857 1_555
Au10 Ga1 2.577797 1_555
Au10 Ga2 2.712307 1_555
Au10 Ca1 3.128347 1_556
Au10 Ca4 3.143285 1_556
Au10 Ca3 3.149703 1_555
Au10 Ca6 3.437907 1_655
Au11 Ga6 2.577533 1_565
Au11 Ga0 2.712241 1_555
Au11 Ca3 3.128403 1_555
Au11 Ca7 3.143234 1_565
Au11 Ca1 3.149719 1_555
Au11 Ca2 3.437866 1_655
Au12 Ga6 2.577848 1_555
Au12 Ga4 2.712218 1_555
Au12 Ca2 3.128350 1_545
Au12 Ca1 3.143246 1_545
Au12 Ca0 3.149917 1_555
Au12 Ca5 3.437773 1_554
Au13 Ga3 2.577480 1_556
Au13 Ga5 2.712287 1_555
Au13 Ca3 3.128477 1_555
Au13 Ca1 3.143164 1_556
Au13 Ca6 3.149772 1_555
Au13 Ca5 3.437847 1_565
Au14 Ga0 2.577839 1_555
Au14 Ga2 2.712125 1_555
Au14 Ca6 3.128252 1_655
Au14 Ca2 3.143251 1_655
Au14 Ca3 3.149943 1_555
Au14 Ca7 3.437781 1_565
Au15 Ga5 2.577821 1_555
Au15 Ga2 2.712214 1_555
Au15 Ca7 3.128343 1_565
Au15 Ca5 3.143257 1_565
Au15 Ca3 3.149914 1_555
Au15 Ca1 3.437777 1_556
Au16 Ga7 2.577625 1_655
Au16 Ga1 2.712239 1_555
Au16 Ca3 3.128346 1_555
Au16 Ca6 3.143259 1_655
Au16 Ca7 3.149725 1_555
Au16 Ca4 3.437791 1_556
Au17 Ga5 2.577850 1_555
Au17 Ga3 2.712270 1_555
Au17 Ca1 3.128428 1_555
Au17 Ca3 3.143052 1_555
Au17 Ca2 3.149741 1_555
Au17 Ca0 3.437612 1_555
Au18 Ga2 2.577522 1_554
Au18 Ga0 2.712218 1_555
Au18 Ca2 3.128567 1_655
Au18 Ca6 3.143245 1_654
Au18 Ca1 3.149585 1_555
Au18 Ca4 3.437769 1_555
Au19 Ga7 2.577835 1_555
Au19 Ga4 2.712132 1_555
Au19 Ca4 3.128261 1_455
Au19 Ca7 3.143254 1_455
Au19 Ca0 3.149945 1_555
Au19 Ca2 3.437788 1_545
Au20 Ga0 2.577933 1_555
Au20 Ga6 2.712289 1_555
Au20 Ca7 3.128371 1_555
Au20 Ca3 3.143081 1_555
Au20 Ca4 3.149740 1_555
Au20 Ca0 3.437622 1_555
Au21 Ga0 2.577638 1_455
Au21 Ga3 2.712236 1_555
Au21 Ca0 3.128348 1_555
Au21 Ca4 3.143265 1_455
Au21 Ca2 3.149723 1_555
Au21 Ca6 3.437800 1_554
Au22 Ga4 2.577895 1_655
Au22 Ga6 2.711851 1_555
Au22 Ca1 3.128467 1_545
Au22 Ca2 3.143404 1_645
Au22 Ca4 3.149637 1_555
Au22 Ca7 3.437588 1_555
Au23 Ga2 2.577898 1_455
Au23 Ga5 2.711851 1_555
Au23 Ca5 3.128456 1_565
Au23 Ca7 3.143399 1_465
Au23 Ca6 3.149640 1_555
Au23 Ca2 3.437584 1_555
