# generated using pymatgen
data_Sb2Pt
_symmetry_space_group_name_H-M   'P 1'
_cell_length_a   6.49977487
_cell_length_b   6.49977487
_cell_length_c   6.49977487
_cell_angle_alpha   90.00000000
_cell_angle_beta   90.00000000
_cell_angle_gamma   90.00000000
_symmetry_Int_Tables_number   1
_chemical_formula_structural   Sb2Pt
_chemical_formula_sum   'Sb8 Pt4'
_cell_volume   274.59646576
_cell_formula_units_Z   4
loop_
 _symmetry_equiv_pos_site_id
 _symmetry_equiv_pos_as_xyz
  1  'x, y, z'
loop_
 _atom_site_type_symbol
 _atom_site_label
 _atom_site_symmetry_multiplicity
 _atom_site_fract_x
 _atom_site_fract_y
 _atom_site_fract_z
 _atom_site_occupancy
  Sb  Sb0  1  0.37525278  0.12474722  0.87525278  1
  Sb  Sb1  1  0.12474722  0.87525278  0.37525278  1
  Sb  Sb2  1  0.87525278  0.37525278  0.12474722  1
  Sb  Sb3  1  0.62474722  0.62474722  0.62474722  1
  Sb  Sb4  1  0.37525278  0.37525278  0.37525278  1
  Sb  Sb5  1  0.12474722  0.62474722  0.87525278  1
  Sb  Sb6  1  0.87525278  0.12474722  0.62474722  1
  Sb  Sb7  1  0.62474722  0.87525278  0.12474722  1
  Pt  Pt0  1  0.00000000  0.50000000  0.50000000  1
  Pt  Pt1  1  0.50000000  0.50000000  0.00000000  1
  Pt  Pt2  1  0.50000000  -0.00000000  0.50000000  1
  Pt  Pt3  1  0.00000000  -0.00000000  -0.00000000  1
loop_
_geom_bond_atom_site_label_1
_geom_bond_atom_site_label_2
_geom_bond_distance
_geom_bond_site_symmetry_2
Sb0 Sb7 2.808794 1_546
Sb1 Sb6 2.808794 1_465
Sb2 Sb5 2.808794 1_654
Sb3 Sb4 2.808794 1_555
Pt0 Sb1 2.695161 1_555
Pt0 Sb3 2.695161 1_455
Pt0 Sb5 2.695161 1_555
Pt0 Sb2 2.695161 1_455
Pt0 Sb6 2.695161 1_455
Pt0 Sb4 2.695161 1_555
Pt1 Sb7 2.695161 1_555
Pt1 Sb2 2.695161 1_555
Pt1 Sb0 2.695161 1_554
Pt1 Sb4 2.695161 1_555
Pt1 Sb3 2.695161 1_554
Pt1 Sb5 2.695161 1_554
Pt2 Sb3 2.695161 1_545
Pt2 Sb0 2.695161 1_555
Pt2 Sb6 2.695161 1_555
Pt2 Sb4 2.695161 1_555
Pt2 Sb1 2.695161 1_545
Pt2 Sb7 2.695161 1_545
Pt3 Sb6 2.695161 1_454
Pt3 Sb7 2.695161 1_445
Pt3 Sb5 2.695161 1_544
Pt3 Sb2 2.695161 1_455
Pt3 Sb1 2.695161 1_545
Pt3 Sb0 2.695161 1_554
