# generated using pymatgen
data_U(SiAu)2
_symmetry_space_group_name_H-M   'P 1'
_cell_length_a   4.19482600
_cell_length_b   4.19482600
_cell_length_c   6.06860783
_cell_angle_alpha   110.21945391
_cell_angle_beta   110.21945391
_cell_angle_gamma   90.00000000
_symmetry_Int_Tables_number   1
_chemical_formula_structural   U(SiAu)2
_chemical_formula_sum   'U1 Si2 Au2'
_cell_volume   93.16167095
_cell_formula_units_Z   1
loop_
 _symmetry_equiv_pos_site_id
 _symmetry_equiv_pos_as_xyz
  1  'x, y, z'
loop_
 _atom_site_type_symbol
 _atom_site_label
 _atom_site_symmetry_multiplicity
 _atom_site_fract_x
 _atom_site_fract_y
 _atom_site_fract_z
 _atom_site_occupancy
  U  U0  1  0.00000000  0.00000000  0.00000000  1
  Si  Si0  1  0.60843200  0.60843200  0.21686400  1
  Si  Si1  1  0.39156800  0.39156800  0.78313600  1
  Au  Au0  1  0.75000000  0.25000000  0.50000000  1
  Au  Au1  1  0.25000000  0.75000000  0.50000000  1
loop_
_geom_bond_atom_site_label_1
_geom_bond_atom_site_label_2
_geom_bond_distance
_geom_bond_site_symmetry_2
Si0 Si1 2.296290 1_554
Si0 U0 3.180648 1_655
Si0 U0 3.180648 1_555
Si0 U0 3.180648 1_665
Si0 U0 3.180648 1_565
Si1 U0 3.180648 1_666
Si1 U0 3.180648 1_556
Si1 U0 3.180648 1_566
Si1 U0 3.180648 1_656
Au0 Si1 2.578017 1_655
Au0 Si0 2.578017 1_555
Au0 Si1 2.578017 1_555
Au0 Si0 2.578017 1_545
Au0 U0 3.377362 1_655
Au0 U0 3.377362 1_656
Au0 U0 3.377362 1_555
Au0 U0 3.377362 1_666
Au1 Si1 2.578017 1_565
Au1 Si0 2.578017 1_555
Au1 Si1 2.578017 1_555
Au1 Si0 2.578017 1_455
Au1 U0 3.377362 1_565
Au1 U0 3.377362 1_566
Au1 U0 3.377362 1_555
Au1 U0 3.377362 1_666
