# generated using pymatgen
data_Ba(Cu3As)2
_symmetry_space_group_name_H-M   'P 1'
_cell_length_a   4.16463839
_cell_length_b   4.16463839
_cell_length_c   8.76893221
_cell_angle_alpha   90.00000000
_cell_angle_beta   90.00000000
_cell_angle_gamma   90.00000000
_symmetry_Int_Tables_number   1
_chemical_formula_structural   Ba(Cu3As)2
_chemical_formula_sum   'Ba1 Cu6 As2'
_cell_volume   152.09022733
_cell_formula_units_Z   1
loop_
 _symmetry_equiv_pos_site_id
 _symmetry_equiv_pos_as_xyz
  1  'x, y, z'
loop_
 _atom_site_type_symbol
 _atom_site_label
 _atom_site_symmetry_multiplicity
 _atom_site_fract_x
 _atom_site_fract_y
 _atom_site_fract_z
 _atom_site_occupancy
  Ba  Ba0  1  0.00000000  -0.00000000  0.00000000  1
  Cu  Cu0  1  -0.00000000  0.50000000  0.34138562  1
  Cu  Cu1  1  0.50000000  -0.00000000  0.34138562  1
  Cu  Cu2  1  0.00000000  0.50000000  0.65861438  1
  Cu  Cu3  1  0.50000000  0.00000000  0.65861438  1
  Cu  Cu4  1  0.50000000  0.50000000  0.50000000  1
  Cu  Cu5  1  0.00000000  -0.00000000  0.50000000  1
  As  As0  1  0.50000000  0.50000000  0.20244940  1
  As  As1  1  0.50000000  0.50000000  0.79755060  1
loop_
_geom_bond_atom_site_label_1
_geom_bond_atom_site_label_2
_geom_bond_distance
_geom_bond_site_symmetry_2
Ba0 Cu2 3.646590 1_554
Ba0 Cu3 3.646590 1_454
Ba0 Cu3 3.646590 1_554
Ba0 Cu2 3.646590 1_544
Ba0 Cu1 3.646590 1_555
Ba0 Cu0 3.646590 1_545
Ba0 Cu0 3.646590 1_555
Ba0 Cu1 3.646590 1_455
Cu0 Cu4 2.504116 1_555
Cu0 Cu4 2.504116 1_455
Cu0 Cu5 2.504116 1_555
Cu0 Cu5 2.504116 1_565
Cu1 Cu4 2.504116 1_555
Cu1 Cu4 2.504116 1_545
Cu1 Cu5 2.504116 1_555
Cu1 Cu5 2.504116 1_655
Cu2 Cu4 2.504116 1_455
Cu2 Cu5 2.504116 1_565
Cu2 Cu5 2.504116 1_555
Cu2 Cu4 2.504116 1_555
Cu3 Cu5 2.504116 1_655
Cu3 Cu5 2.504116 1_555
Cu3 Cu4 2.504116 1_555
Cu3 Cu4 2.504116 1_545
As0 Cu1 2.412543 1_555
As0 Cu1 2.412543 1_565
As0 Cu0 2.412543 1_655
As0 Cu0 2.412543 1_555
As0 Cu4 2.609201 1_555
As0 Ba0 3.438557 1_665
As0 Ba0 3.438557 1_565
As0 Ba0 3.438557 1_555
As0 Ba0 3.438557 1_655
As1 Cu2 2.412543 1_655
As1 Cu2 2.412543 1_555
As1 Cu3 2.412543 1_565
As1 Cu3 2.412543 1_555
As1 Cu4 2.609201 1_555
As1 Ba0 3.438557 1_666
As1 Ba0 3.438557 1_656
As1 Ba0 3.438557 1_556
As1 Ba0 3.438557 1_566
