# generated using pymatgen
data_RbGd(PO3)4
_symmetry_space_group_name_H-M   'P 1'
_cell_length_a   9.05160400
_cell_length_b   10.51824400
_cell_length_c   12.96664480
_cell_angle_alpha   55.34479801
_cell_angle_beta   90.00000000
_cell_angle_gamma   90.00000000
_symmetry_Int_Tables_number   1
_chemical_formula_structural   RbGd(PO3)4
_chemical_formula_sum   'Rb4 Gd4 P16 O48'
_cell_volume   1015.49839808
_cell_formula_units_Z   4
loop_
 _symmetry_equiv_pos_site_id
 _symmetry_equiv_pos_as_xyz
  1  'x, y, z'
loop_
 _atom_site_type_symbol
 _atom_site_label
 _atom_site_symmetry_multiplicity
 _atom_site_fract_x
 _atom_site_fract_y
 _atom_site_fract_z
 _atom_site_occupancy
  Rb  Rb0  1  0.93231400  0.23657600  0.95819700  1
  Rb  Rb1  1  0.56768600  0.23657600  0.45819700  1
  Rb  Rb2  1  0.06768600  0.76342400  0.04180300  1
  Rb  Rb3  1  0.43231400  0.76342400  0.54180300  1
  Gd  Gd0  1  0.22681900  0.31576900  0.68313700  1
  Gd  Gd1  1  0.72681900  0.68423100  0.81686300  1
  Gd  Gd2  1  0.77318100  0.68423100  0.31686300  1
  Gd  Gd3  1  0.27318100  0.31576900  0.18313700  1
  P  P0  1  0.10739200  0.19858300  0.47749700  1
  P  P1  1  0.60739200  0.80141700  0.02250300  1
  P  P2  1  0.89260800  0.80141700  0.52250300  1
  P  P3  1  0.59277100  0.38702600  0.75904200  1
  P  P4  1  0.90722900  0.38702600  0.25904200  1
  P  P5  1  0.40722900  0.61297400  0.24095800  1
  P  P6  1  0.32780500  0.67714600  0.86266400  1
  P  P7  1  0.82780500  0.32285400  0.63733600  1
  P  P8  1  0.97376900  0.02603100  0.72262700  1
  P  P9  1  0.17219500  0.67714600  0.36266400  1
  P  P10  1  0.39260800  0.19858300  0.97749700  1
  P  P11  1  0.47376900  0.97396900  0.77737300  1
  P  P12  1  0.52623100  0.02603100  0.22262700  1
  P  P13  1  0.09277100  0.61297400  0.74095800  1
  P  P14  1  0.67219500  0.32285400  0.13733600  1
  P  P15  1  0.02623100  0.97396900  0.27737300  1
  O  O0  1  0.79004200  0.83743700  0.59370200  1
  O  O1  1  0.45484600  0.04011800  0.10127400  1
  O  O2  1  0.91574300  0.92995900  0.21588900  1
  O  O3  1  0.79223200  0.27753700  0.24665300  1
  O  O4  1  0.84238400  0.15437500  0.66042000  1
  O  O5  1  0.04515400  0.04011800  0.60127400  1
  O  O6  1  0.20776800  0.72246300  0.75334700  1
  O  O7  1  0.54861000  0.26519300  0.90376600  1
  O  O8  1  0.95484600  0.95988200  0.39872600  1
  O  O9  1  0.65761600  0.15437500  0.16042000  1
  O  O10  1  0.45139000  0.73480700  0.09623400  1
  O  O11  1  0.24156100  0.57303800  0.48919400  1
  O  O12  1  0.08425700  0.07004100  0.78411100  1
  O  O13  1  0.25843900  0.57303800  0.98919400  1
  O  O14  1  0.67726400  0.51787600  0.74590800  1
  O  O15  1  0.83712100  0.70094900  0.48305800  1
  O  O16  1  0.41574300  0.07004100  0.28411100  1
  O  O17  1  0.16287900  0.29905100  0.51694200  1
  O  O18  1  0.74156100  0.42696200  0.01080600  1
  O  O19  1  0.66287900  0.70094900  0.98305800  1
  O  O20  1  0.75843900  0.42696200  0.51080600  1
  O  O21  1  0.29004200  0.16256300  0.90629800  1
  O  O22  1  0.53870500  0.57586400  0.32417900  1
  O  O23  1  0.70776800  0.27753700  0.74665300  1
  O  O24  1  0.59410900  0.86855900  0.30265100  1
  O  O25  1  0.20995800  0.16256300  0.40629800  1
  O  O26  1  0.29223200  0.72246300  0.25334700  1
  O  O27  1  0.03870500  0.42413600  0.17582100  1
  O  O28  1  0.04861000  0.73480700  0.59623400  1
  O  O29  1  0.96871900  0.36550100  0.67143800  1
  O  O30  1  0.96129500  0.57586400  0.82417900  1
  O  O31  1  0.03128100  0.63449900  0.32856200  1
  O  O32  1  0.15761600  0.84562500  0.33958000  1
  O  O33  1  0.09410900  0.13144100  0.19734900  1
  O  O34  1  0.53128100  0.36550100  0.17143800  1
  O  O35  1  0.90589100  0.86855900  0.80265100  1
  O  O36  1  0.33712100  0.29905100  0.01694200  1
  O  O37  1  0.40589100  0.13144100  0.69734900  1
  O  O38  1  0.34238400  0.84562500  0.83958000  1
  O  O39  1  0.95139000  0.26519300  0.40376600  1
  O  O40  1  0.17726400  0.48212400  0.75409200  1
  O  O41  1  0.82273600  0.51787600  0.24590800  1
  O  O42  1  0.46129500  0.42413600  0.67582100  1
  O  O43  1  0.58425700  0.92995900  0.71588900  1
  O  O44  1  0.32273600  0.48212400  0.25409200  1
  O  O45  1  0.70995800  0.83743700  0.09370200  1
  O  O46  1  0.46871900  0.63449900  0.82856200  1
  O  O47  1  0.54515400  0.95988200  0.89872600  1
loop_
_geom_bond_atom_site_label_1
_geom_bond_atom_site_label_2
_geom_bond_distance
_geom_bond_site_symmetry_2
Gd0 O17 2.332559 1_555
Gd0 O29 2.379982 1_455
Gd0 O42 2.385321 1_555
Gd0 O11 2.434192 1_555
Gd0 O40 2.437255 1_555
Gd0 O21 2.448346 1_555
Gd0 O37 2.452321 1_555
Gd0 O12 2.492217 1_555
Gd1 O19 2.332559 1_555
Gd1 O46 2.379982 1_555
Gd1 O30 2.385321 1_555
Gd1 O18 2.434192 1_556
Gd1 O14 2.437255 1_555
Gd1 O0 2.448346 1_555
Gd1 O35 2.452321 1_555
Gd1 O43 2.492217 1_555
Gd2 O15 2.332559 1_555
Gd2 O31 2.379982 1_655
Gd2 O22 2.385321 1_555
Gd2 O20 2.434192 1_555
Gd2 O41 2.437255 1_555
Gd2 O45 2.448346 1_555
Gd2 O24 2.452321 1_555
Gd2 O2 2.492217 1_555
Gd3 O36 2.332559 1_555
Gd3 O34 2.379982 1_555
Gd3 O27 2.385321 1_555
Gd3 O13 2.434192 1_554
Gd3 O44 2.437255 1_555
Gd3 O25 2.448346 1_555
Gd3 O33 2.452321 1_555
Gd3 O16 2.492217 1_555
O0 P2 1.501850 1_555
O0 Rb3 3.484170 1_555
O1 P10 1.621447 1_554
O1 P12 1.627986 1_555
O2 P15 1.506577 1_655
O2 Rb0 3.054996 1_564
O3 P4 1.626637 1_555
O3 P14 1.627446 1_555
O3 Rb1 3.239876 1_555
O4 P7 1.626073 1_555
O4 P8 1.627556 1_555
O4 Rb1 3.350724 1_555
O5 P0 1.621447 1_555
O5 P8 1.627986 1_455
O6 P13 1.626637 1_555
O6 P6 1.627446 1_555
O6 Rb3 3.239876 1_555
O7 P3 1.608918 1_555
O7 P10 1.623901 1_555
O7 Rb0 3.522756 1_555
O8 P2 1.621447 1_555
O8 P15 1.627986 1_655
O9 P14 1.626073 1_555
O9 P12 1.627556 1_555
O9 Rb0 3.350724 1_554
O10 P5 1.608918 1_555
O10 P1 1.623901 1_555
O10 Rb2 3.522756 1_555
O11 P9 1.497301 1_555
O11 Rb3 3.001707 1_555
O12 P8 1.506577 1_455
O12 Rb2 3.054996 1_546
O13 P6 1.497301 1_555
O13 Rb2 3.001707 1_556
O14 P3 1.497193 1_555
O14 Rb3 3.288928 1_555
O14 Rb0 3.521180 1_555
O15 P2 1.498418 1_555
O16 P12 1.506577 1_555
O16 Rb3 3.054996 1_545
O17 P0 1.498418 1_555
O18 P14 1.497301 1_555
O18 Rb0 3.001707 1_554
O19 P1 1.498418 1_556
O20 P7 1.497301 1_555
O20 Rb1 3.001707 1_555
O21 P10 1.501850 1_555
O21 Rb0 3.484170 1_455
O22 P5 1.501348 1_555
O22 Rb1 2.961666 1_555
O23 P3 1.626637 1_555
O23 P7 1.627446 1_555
O23 Rb0 3.239876 1_555
O24 P12 1.497670 1_565
O24 Rb3 3.013952 1_555
O25 P0 1.501850 1_555
O25 Rb1 3.484170 1_555
O26 P5 1.626637 1_555
O26 P9 1.627446 1_555
O26 Rb2 3.239876 1_555
O27 P4 1.501348 1_455
O27 Rb2 2.961666 1_555
O28 P13 1.608918 1_555
O28 P2 1.623901 1_455
O28 Rb3 3.522756 1_555
O29 P7 1.499741 1_555
O29 Rb0 3.168413 1_555
O30 P13 1.501348 1_655
O30 Rb0 2.961666 1_555
O31 P9 1.499741 1_555
O31 Rb2 3.168413 1_555
O32 P9 1.626073 1_555
O32 P15 1.627556 1_555
O32 Rb3 3.350724 1_555
O33 P15 1.497670 1_545
O33 Rb0 3.013952 1_454
O34 P14 1.499741 1_555
O34 Rb1 3.168413 1_555
O35 P8 1.497670 1_565
O35 Rb2 3.013952 1_656
O36 P10 1.498418 1_554
O37 P11 1.497670 1_545
O37 Rb1 3.013952 1_555
O38 P6 1.626073 1_555
O38 P11 1.627556 1_555
O38 Rb2 3.350724 1_556
O39 P4 1.608918 1_555
O39 P0 1.623901 1_655
O39 Rb1 3.522756 1_555
O40 P13 1.497193 1_555
O40 Rb0 3.288928 1_455
O40 Rb3 3.521180 1_555
O41 P4 1.497193 1_555
O41 Rb2 3.288928 1_655
O41 Rb1 3.521180 1_555
O42 P3 1.501348 1_555
O42 Rb3 2.961666 1_555
O43 P11 1.506577 1_555
O43 Rb1 3.054996 1_565
O44 P5 1.497193 1_555
O44 Rb1 3.288928 1_555
O44 Rb2 3.521180 1_555
O45 P1 1.501850 1_555
O45 Rb2 3.484170 1_655
O46 P6 1.499741 1_555
O46 Rb3 3.168413 1_555
O47 P1 1.621447 1_556
O47 P11 1.627986 1_555
