# generated using pymatgen
data_Cs4Ga2Se5
_symmetry_space_group_name_H-M   'P 1'
_cell_length_a   8.02524967
_cell_length_b   9.46635062
_cell_length_c   11.33373328
_cell_angle_alpha   76.27274951
_cell_angle_beta   86.12240653
_cell_angle_gamma   80.66947854
_symmetry_Int_Tables_number   1
_chemical_formula_structural   Cs4Ga2Se5
_chemical_formula_sum   'Cs8 Ga4 Se10'
_cell_volume   824.97972862
_cell_formula_units_Z   2
loop_
 _symmetry_equiv_pos_site_id
 _symmetry_equiv_pos_as_xyz
  1  'x, y, z'
loop_
 _atom_site_type_symbol
 _atom_site_label
 _atom_site_symmetry_multiplicity
 _atom_site_fract_x
 _atom_site_fract_y
 _atom_site_fract_z
 _atom_site_occupancy
  Cs  Cs0  1  0.41998132  0.32506611  0.08940087  1
  Cs  Cs1  1  0.58001868  0.67493389  0.91059913  1
  Cs  Cs2  1  0.20026616  0.07824781  0.86720842  1
  Cs  Cs3  1  0.05093222  0.60818205  0.75037054  1
  Cs  Cs4  1  0.79973384  0.92175219  0.13279158  1
  Cs  Cs5  1  0.94906778  0.39181795  0.24962946  1
  Cs  Cs6  1  0.57732727  0.71098309  0.50130386  1
  Cs  Cs7  1  0.42267273  0.28901691  0.49869614  1
  Ga  Ga0  1  0.90539973  0.08760098  0.59862356  1
  Ga  Ga1  1  0.09460027  0.91239902  0.40137644  1
  Ga  Ga2  1  0.27513108  0.72004290  0.20960171  1
  Ga  Ga3  1  0.72486892  0.27995710  0.79039829  1
  Se  Se0  1  0.90228135  0.34039885  0.60117968  1
  Se  Se1  1  0.19428152  0.95745654  0.58563630  1
  Se  Se2  1  0.44758111  0.41104983  0.76430417  1
  Se  Se3  1  0.14983653  0.69134285  0.03507081  1
  Se  Se4  1  0.85016347  0.30865715  0.96492919  1
  Se  Se5  1  0.55241889  0.58895017  0.23569583  1
  Se  Se6  1  0.09771865  0.65960115  0.39882032  1
  Se  Se7  1  0.26386150  0.98542552  0.21968557  1
  Se  Se8  1  0.73613850  0.01457448  0.78031443  1
  Se  Se9  1  0.80571848  0.04254346  0.41436370  1
loop_
_geom_bond_atom_site_label_1
_geom_bond_atom_site_label_2
_geom_bond_distance
_geom_bond_site_symmetry_2
Cs0 Se2 3.579425 1_554
Cs0 Se7 3.590289 1_545
Cs0 Se5 3.630967 1_555
Cs0 Se4 3.633758 1_554
Cs0 Se3 3.719044 1_555
Cs1 Se5 3.579425 1_556
Cs1 Se8 3.590289 1_565
Cs1 Se2 3.630967 1_555
Cs1 Se3 3.633758 1_556
Cs1 Se4 3.719044 1_555
Cs2 Se4 3.551996 1_455
Cs2 Se1 3.642023 1_545
Cs2 Se3 3.777202 1_546
Cs2 Se2 3.898116 1_555
Cs2 Se7 3.931415 1_546
Cs3 Se2 3.412052 1_555
Cs3 Se3 3.662788 1_556
Cs3 Se1 3.708696 1_555
Cs3 Se0 3.741097 1_455
Cs3 Se4 3.772008 1_455
Cs3 Se6 3.897390 1_555
Cs4 Se3 3.551996 1_655
Cs4 Se9 3.642023 1_565
Cs4 Se4 3.777202 1_564
Cs4 Se5 3.898116 1_555
Cs4 Se8 3.931415 1_564
Cs5 Se5 3.412052 1_555
Cs5 Se4 3.662788 1_554
Cs5 Se9 3.708696 1_555
Cs5 Se6 3.741097 1_655
Cs5 Se3 3.772008 1_655
Cs5 Se0 3.897390 1_555
Cs6 Se5 3.499038 1_555
Cs6 Se1 3.760640 1_555
Cs6 Se9 3.786160 1_565
Cs6 Se2 3.814825 1_555
Cs6 Se0 3.992106 1_555
Cs7 Se2 3.499038 1_555
Cs7 Se9 3.760640 1_555
Cs7 Se1 3.786160 1_545
Cs7 Se5 3.814825 1_555
Cs7 Se6 3.992106 1_555
Ga0 Se0 2.396174 1_555
Ga0 Se8 2.411234 1_555
Ga0 Se9 2.437710 1_555
Ga0 Se1 2.455194 1_645
Ga1 Se6 2.396174 1_555
Ga1 Se7 2.411234 1_555
Ga1 Se1 2.437710 1_555
Ga1 Se9 2.455194 1_465
Ga2 Se5 2.366183 1_555
Ga2 Se3 2.368621 1_555
Ga2 Se6 2.494486 1_555
Ga2 Se7 2.528558 1_555
Ga3 Se2 2.366183 1_555
Ga3 Se4 2.368621 1_555
Ga3 Se0 2.494486 1_555
Ga3 Se8 2.528558 1_555
