# generated using pymatgen
data_Sm(NiSb)2
_symmetry_space_group_name_H-M   'P 1'
_cell_length_a   6.15228562
_cell_length_b   6.15228562
_cell_length_c   6.15228562
_cell_angle_alpha   138.71580553
_cell_angle_beta   138.71580553
_cell_angle_gamma   59.80845885
_symmetry_Int_Tables_number   1
_chemical_formula_structural   Sm(NiSb)2
_chemical_formula_sum   'Sm1 Ni2 Sb2'
_cell_volume   100.34803154
_cell_formula_units_Z   1
loop_
 _symmetry_equiv_pos_site_id
 _symmetry_equiv_pos_as_xyz
  1  'x, y, z'
loop_
 _atom_site_type_symbol
 _atom_site_label
 _atom_site_symmetry_multiplicity
 _atom_site_fract_x
 _atom_site_fract_y
 _atom_site_fract_z
 _atom_site_occupancy
  Sm  Sm0  1  0.00000000  0.00000000  0.00000000  1
  Ni  Ni0  1  0.25000000  0.75000000  0.50000000  1
  Ni  Ni1  1  0.75000000  0.25000000  0.50000000  1
  Sb  Sb0  1  0.36498100  0.36498100  0.00000000  1
  Sb  Sb1  1  0.63501900  0.63501900  0.00000000  1
loop_
_geom_bond_atom_site_label_1
_geom_bond_atom_site_label_2
_geom_bond_distance
_geom_bond_site_symmetry_2
Ni0 Sb1 2.491602 1_455
Ni0 Sb0 2.491602 1_566
Ni0 Sb1 2.491602 1_556
Ni0 Sb0 2.491602 1_555
Ni0 Sm0 3.437242 1_566
Ni0 Sm0 3.437242 1_666
Ni0 Sm0 3.437242 1_555
Ni0 Sm0 3.437242 1_565
Ni1 Sb0 2.491602 1_656
Ni1 Sb1 2.491602 1_556
Ni1 Sb1 2.491602 1_545
Ni1 Sb0 2.491602 1_555
Ni1 Sm0 3.437242 1_666
Ni1 Sm0 3.437242 1_555
Ni1 Sm0 3.437242 1_656
Ni1 Sm0 3.437242 1_655
Sb0 Sb1 2.880317 1_555
Sb0 Sm0 3.388506 1_554
Sb0 Sm0 3.388506 1_565
Sb0 Sm0 3.388506 1_655
Sb0 Sm0 3.388506 1_666
Sb1 Sm0 3.388506 1_554
Sb1 Sm0 3.388506 1_565
Sb1 Sm0 3.388506 1_655
Sb1 Sm0 3.388506 1_666
