# generated using pymatgen
data_Sr21(Mn2Sb9)2
_symmetry_space_group_name_H-M   'P 1'
_cell_length_a   12.71075398
_cell_length_b   12.71075398
_cell_length_c   18.00054882
_cell_angle_alpha   88.63605540
_cell_angle_beta   88.63605540
_cell_angle_gamma   87.55856790
_symmetry_Int_Tables_number   1
_chemical_formula_structural   Sr21(Mn2Sb9)2
_chemical_formula_sum   'Sr42 Mn8 Sb36'
_cell_volume   2904.00820125
_cell_formula_units_Z   2
loop_
 _symmetry_equiv_pos_site_id
 _symmetry_equiv_pos_as_xyz
  1  'x, y, z'
loop_
 _atom_site_type_symbol
 _atom_site_label
 _atom_site_symmetry_multiplicity
 _atom_site_fract_x
 _atom_site_fract_y
 _atom_site_fract_z
 _atom_site_occupancy
  Sr  Sr0  1  0.90287100  0.24064800  0.65939300  1
  Sr  Sr1  1  0.00365500  0.67707600  0.93728300  1
  Sr  Sr2  1  0.49081300  0.72883700  0.92232500  1
  Sr  Sr3  1  0.50918700  0.27116300  0.07767500  1
  Sr  Sr4  1  0.57838900  0.25046800  0.64626100  1
  Sr  Sr5  1  0.09712900  0.75935200  0.34060700  1
  Sr  Sr6  1  0.43270300  0.07641900  0.25723600  1
  Sr  Sr7  1  0.75935200  0.09712900  0.34060700  1
  Sr  Sr8  1  0.90299000  0.90299000  0.75502400  1
  Sr  Sr9  1  0.92933300  0.17741200  0.88067900  1
  Sr  Sr10  1  0.74953200  0.42161100  0.35373900  1
  Sr  Sr11  1  0.82258800  0.07066700  0.11932100  1
  Sr  Sr12  1  0.99228900  0.24559500  0.44398800  1
  Sr  Sr13  1  0.09701000  0.09701000  0.24497600  1
  Sr  Sr14  1  0.07641900  0.43270300  0.25723600  1
  Sr  Sr15  1  0.23691400  0.23691400  0.59116400  1
  Sr  Sr16  1  0.07066700  0.82258800  0.11932100  1
  Sr  Sr17  1  0.72883700  0.49081300  0.92232500  1
  Sr  Sr18  1  0.32292400  0.99634500  0.06271700  1
  Sr  Sr19  1  0.76308600  0.76308600  0.40883600  1
  Sr  Sr20  1  0.24559500  0.99228900  0.44398800  1
  Sr  Sr21  1  0.42161100  0.74953200  0.35373900  1
  Sr  Sr22  1  0.17741200  0.92933300  0.88067900  1
  Sr  Sr23  1  0.56729700  0.92358100  0.74276400  1
  Sr  Sr24  1  0.50372200  0.76346700  0.55843300  1
  Sr  Sr25  1  0.42848400  0.73854500  0.15070400  1
  Sr  Sr26  1  0.73854500  0.42848400  0.15070400  1
  Sr  Sr27  1  0.57151600  0.26145500  0.84929600  1
  Sr  Sr28  1  0.76346700  0.50372200  0.55843300  1
  Sr  Sr29  1  0.24829700  0.24829700  0.91985900  1
  Sr  Sr30  1  0.24064800  0.90287100  0.65939300  1
  Sr  Sr31  1  0.67707600  0.00365500  0.93728300  1
  Sr  Sr32  1  0.26145500  0.57151600  0.84929600  1
  Sr  Sr33  1  0.00771100  0.75440500  0.55601200  1
  Sr  Sr34  1  0.27116300  0.50918700  0.07767500  1
  Sr  Sr35  1  0.92358100  0.56729700  0.74276400  1
  Sr  Sr36  1  0.99634500  0.32292400  0.06271700  1
  Sr  Sr37  1  0.25046800  0.57838900  0.64626100  1
  Sr  Sr38  1  0.23653300  0.49627800  0.44156700  1
  Sr  Sr39  1  0.49627800  0.23653300  0.44156700  1
  Sr  Sr40  1  0.75440500  0.00771100  0.55601200  1
  Sr  Sr41  1  0.75170300  0.75170300  0.08014100  1
  Mn  Mn0  1  0.65112900  0.87426500  0.25073800  1
  Mn  Mn1  1  0.34887100  0.12573500  0.74926200  1
  Mn  Mn2  1  0.49905900  0.49905900  0.70525300  1
  Mn  Mn3  1  0.65830600  0.65830600  0.74318200  1
  Mn  Mn4  1  0.34169400  0.34169400  0.25681800  1
  Mn  Mn5  1  0.12573500  0.34887100  0.74926200  1
  Mn  Mn6  1  0.87426500  0.65112900  0.25073800  1
  Mn  Mn7  1  0.50094100  0.50094100  0.29474700  1
  Sb  Sb0  1  0.26081200  0.89819100  0.24244100  1
  Sb  Sb1  1  0.95979000  0.57747900  0.11534500  1
  Sb  Sb2  1  0.43759000  0.70440100  0.73876800  1
  Sb  Sb3  1  0.87349900  0.87349900  0.24411400  1
  Sb  Sb4  1  0.56474900  0.95013600  0.39672400  1
  Sb  Sb5  1  0.65087100  0.65087100  0.25035000  1
  Sb  Sb6  1  0.24190900  0.24190900  0.37861900  1
  Sb  Sb7  1  0.74537300  0.25462700  0.00000000  1
  Sb  Sb8  1  0.44461100  0.44461100  0.56042700  1
  Sb  Sb9  1  0.04986400  0.43525100  0.60327600  1
  Sb  Sb10  1  0.45226200  0.45226200  0.93723900  1
  Sb  Sb11  1  0.57747900  0.95979000  0.11534500  1
  Sb  Sb12  1  0.55538900  0.55538900  0.43957300  1
  Sb  Sb13  1  0.89819100  0.26081200  0.24244100  1
  Sb  Sb14  1  0.95013600  0.56474900  0.39672400  1
  Sb  Sb15  1  0.56241000  0.29559900  0.26123200  1
  Sb  Sb16  1  0.29559900  0.56241000  0.26123200  1
  Sb  Sb17  1  0.07274400  0.07274400  0.03380900  1
  Sb  Sb18  1  0.96489400  0.96489400  0.42630100  1
  Sb  Sb19  1  0.10180900  0.73918800  0.75755900  1
  Sb  Sb20  1  0.43525100  0.04986400  0.60327600  1
  Sb  Sb21  1  0.25467500  0.74532500  0.50000000  1
  Sb  Sb22  1  0.75809100  0.75809100  0.62138100  1
  Sb  Sb23  1  0.34912900  0.34912900  0.74965000  1
  Sb  Sb24  1  0.25395700  0.25395700  0.12938500  1
  Sb  Sb25  1  0.25462700  0.74537300  0.00000000  1
  Sb  Sb26  1  0.70440100  0.43759000  0.73876800  1
  Sb  Sb27  1  0.04021000  0.42252100  0.88465500  1
  Sb  Sb28  1  0.73918800  0.10180900  0.75755900  1
  Sb  Sb29  1  0.54773800  0.54773800  0.06276100  1
  Sb  Sb30  1  0.42252100  0.04021000  0.88465500  1
  Sb  Sb31  1  0.03510600  0.03510600  0.57369900  1
  Sb  Sb32  1  0.74532500  0.25467500  0.50000000  1
  Sb  Sb33  1  0.12650100  0.12650100  0.75588600  1
  Sb  Sb34  1  0.74604300  0.74604300  0.87061500  1
  Sb  Sb35  1  0.92725600  0.92725600  0.96619100  1
loop_
_geom_bond_atom_site_label_1
_geom_bond_atom_site_label_2
_geom_bond_distance
_geom_bond_site_symmetry_2
Mn0 Sb11 2.809556 1_555
Mn0 Sb3 2.825779 1_555
Mn0 Sb5 2.839823 1_555
Mn0 Sb4 2.988995 1_555
Mn0 Sr19 3.457024 1_555
Mn0 Sr7 3.631784 1_565
Mn0 Sr41 3.655460 1_555
Mn1 Sb30 2.809556 1_555
Mn1 Sb33 2.825779 1_555
Mn1 Sb23 2.839823 1_555
Mn1 Sb20 2.988995 1_555
Mn1 Sr15 3.457024 1_555
Mn1 Sr30 3.631784 1_545
Mn1 Sr29 3.655460 1_555
Mn2 Sb2 2.768676 1_555
Mn2 Sb26 2.768676 1_555
Mn2 Sb8 2.822534 1_555
Mn2 Sb23 2.840184 1_555
Mn3 Sb22 2.810100 1_555
Mn3 Sb2 2.844045 1_555
Mn3 Sb26 2.844045 1_555
Mn3 Sb34 2.845820 1_555
Mn4 Sb6 2.810100 1_555
Mn4 Sb15 2.844045 1_555
Mn4 Sb16 2.844045 1_555
Mn4 Sb24 2.845820 1_555
Mn5 Sb27 2.809556 1_555
Mn5 Sb33 2.825779 1_555
Mn5 Sb23 2.839823 1_555
Mn5 Sb9 2.988995 1_555
Mn5 Sr15 3.457024 1_555
Mn5 Sr0 3.631784 1_455
Mn5 Sr29 3.655460 1_555
Mn6 Sb1 2.809556 1_555
Mn6 Sb3 2.825779 1_555
Mn6 Sb5 2.839823 1_555
Mn6 Sb14 2.988995 1_555
Mn6 Sr19 3.457024 1_555
Mn6 Sr5 3.631784 1_655
Mn6 Sr41 3.655460 1_555
Mn7 Sb16 2.768676 1_555
Mn7 Sb15 2.768676 1_555
Mn7 Sb12 2.822534 1_555
Mn7 Sb5 2.840184 1_555
Sb0 Sr13 3.205641 1_565
Sb0 Sr6 3.233382 1_565
Sb0 Sr5 3.248805 1_555
Sb0 Sr25 3.318175 1_555
Sb0 Sr21 3.383385 1_555
Sb0 Sr16 3.497246 1_555
Sb0 Sr18 3.523645 1_555
Sb0 Sr20 3.844931 1_555
Sb1 Sr36 3.402827 1_555
Sb1 Sr41 3.437346 1_555
Sb1 Sr14 3.439710 1_655
Sb1 Sr1 3.459594 1_654
Sb1 Sr16 3.476679 1_655
Sb1 Sr26 3.494467 1_555
Sb2 Sr23 3.300194 1_555
Sb2 Sr24 3.408144 1_555
Sb2 Sr37 3.411077 1_555
Sb2 Sr2 3.412412 1_555
Sb2 Sr32 3.431286 1_555
Sb2 Sr30 3.759330 1_555
Sb3 Sr16 3.377669 1_655
Sb3 Sr11 3.377669 1_565
Sb3 Sr19 3.535899 1_555
Sb3 Sr7 3.600772 1_565
Sb3 Sr5 3.600772 1_655
Sb3 Sr41 3.760926 1_555
Sb4 Sr7 3.288565 1_565
Sb4 Sr21 3.311598 1_555
Sb4 Sr6 3.387802 1_565
Sb4 Sr19 3.398030 1_555
Sb4 Sr24 3.798026 1_555
Sb4 Sr39 3.807557 1_565
Sb4 Sr40 3.891965 1_565
Sb5 Sr25 3.511025 1_555
Sb5 Sr26 3.511025 1_555
Sb5 Sr41 3.526831 1_555
Sb5 Sr19 3.573276 1_555
Sb5 Sr10 3.615186 1_555
Sb5 Sr21 3.615186 1_555
Sb6 Sr20 3.356490 1_545
Sb6 Sr12 3.356490 1_455
Sb6 Sr39 3.448797 1_555
Sb6 Sr38 3.448797 1_555
Sb6 Sr13 3.644484 1_555
Sb6 Sr14 3.822564 1_555
Sb6 Sr6 3.822564 1_555
Sb6 Sr15 3.824002 1_555
Sb7 Sr11 3.272576 1_555
Sb7 Sr9 3.272576 1_554
Sb7 Sr3 3.282094 1_555
Sb7 Sr17 3.282094 1_554
Sb7 Sr26 3.536646 1_555
Sb7 Sr27 3.536646 1_554
Sb7 Sr36 3.557883 1_555
Sb7 Sr31 3.557883 1_554
Sb8 Sr37 3.309723 1_555
Sb8 Sr4 3.309723 1_555
Sb8 Sr38 3.472547 1_555
Sb8 Sr39 3.472547 1_555
Sb8 Sr15 3.834041 1_555
Sb9 Sr0 3.288565 1_455
Sb9 Sr37 3.311598 1_555
Sb9 Sr35 3.387802 1_455
Sb9 Sr15 3.398030 1_555
Sb9 Sr38 3.798026 1_555
Sb9 Sr28 3.807557 1_455
Sb9 Sr12 3.891965 1_455
Sb10 Sb29 2.904693 1_556
Sb10 Sr32 3.231262 1_555
Sb10 Sr27 3.231262 1_555
Sb10 Sr34 3.446863 1_556
Sb10 Sr3 3.446863 1_556
Sb10 Sr2 3.573000 1_555
Sb10 Sr17 3.573000 1_555
Sb10 Sr29 3.767008 1_555
Sb11 Sr18 3.402827 1_555
Sb11 Sr41 3.437346 1_555
Sb11 Sr6 3.439710 1_565
Sb11 Sr31 3.459594 1_564
Sb11 Sr11 3.476679 1_565
Sb11 Sr25 3.494467 1_555
Sb12 Sb8 2.928332 1_555
Sb12 Sr10 3.309723 1_555
Sb12 Sr21 3.309723 1_555
Sb12 Sr28 3.472547 1_555
Sb12 Sr24 3.472547 1_555
Sb12 Sr19 3.834041 1_555
Sb13 Sr13 3.205641 1_655
Sb13 Sr14 3.233382 1_655
Sb13 Sr7 3.248805 1_555
Sb13 Sr26 3.318175 1_555
Sb13 Sr10 3.383385 1_555
Sb13 Sr11 3.497246 1_555
Sb13 Sr36 3.523645 1_555
Sb13 Sr12 3.844931 1_555
Sb14 Sr5 3.288565 1_655
Sb14 Sr10 3.311598 1_555
Sb14 Sr14 3.387802 1_655
Sb14 Sr19 3.398030 1_555
Sb14 Sr28 3.798026 1_555
Sb14 Sr38 3.807557 1_655
Sb14 Sr33 3.891965 1_655
Sb15 Sr6 3.300194 1_555
Sb15 Sr39 3.408144 1_555
Sb15 Sr10 3.411077 1_555
Sb15 Sr3 3.412412 1_555
Sb15 Sr26 3.431286 1_555
Sb15 Sr7 3.759330 1_555
Sb16 Sr14 3.300194 1_555
Sb16 Sr38 3.408144 1_555
Sb16 Sr21 3.411077 1_555
Sb16 Sr34 3.412412 1_555
Sb16 Sr25 3.431286 1_555
Sb16 Sr5 3.759330 1_555
Sb17 Sb35 2.970973 1_444
Sb17 Sr18 3.334317 1_545
Sb17 Sr36 3.334317 1_455
Sb17 Sr11 3.500365 1_455
Sb17 Sr16 3.500365 1_545
Sb17 Sr9 3.542414 1_454
Sb17 Sr22 3.542414 1_544
Sb17 Sr29 3.762191 1_554
Sb17 Sr13 3.841683 1_555
Sb18 Sb31 2.987631 1_665
Sb18 Sr5 3.424104 1_655
Sb18 Sr7 3.424104 1_565
Sb18 Sr33 3.541895 1_655
Sb18 Sr40 3.541895 1_565
Sb18 Sr12 3.621861 1_565
Sb18 Sr20 3.621861 1_655
Sb18 Sr19 3.727734 1_555
Sb18 Sr13 4.001476 1_665
Sb19 Sr8 3.205641 1_455
Sb19 Sr35 3.233382 1_455
Sb19 Sr30 3.248805 1_555
Sb19 Sr32 3.318175 1_555
Sb19 Sr37 3.383385 1_555
Sb19 Sr22 3.497246 1_555
Sb19 Sr1 3.523645 1_555
Sb19 Sr33 3.844931 1_555
Sb20 Sr30 3.288565 1_545
Sb20 Sr4 3.311598 1_555
Sb20 Sr23 3.387802 1_545
Sb20 Sr15 3.398030 1_555
Sb20 Sr39 3.798026 1_555
Sb20 Sr24 3.807557 1_545
Sb20 Sr20 3.891965 1_545
Sb21 Sr33 3.272281 1_555
Sb21 Sr20 3.272281 1_555
Sb21 Sr21 3.342721 1_555
Sb21 Sr37 3.342721 1_555
Sb21 Sr24 3.378258 1_555
Sb21 Sr38 3.378258 1_555
Sb21 Sr5 3.534508 1_555
Sb21 Sr30 3.534508 1_555
Sb22 Sr33 3.356490 1_655
Sb22 Sr40 3.356490 1_565
Sb22 Sr24 3.448797 1_555
Sb22 Sr28 3.448797 1_555
Sb22 Sr8 3.644484 1_555
Sb22 Sr23 3.822564 1_555
Sb22 Sr35 3.822564 1_555
Sb22 Sr19 3.824002 1_555
Sb23 Sr32 3.511025 1_555
Sb23 Sr27 3.511025 1_555
Sb23 Sr29 3.526831 1_555
Sb23 Sr15 3.573276 1_555
Sb23 Sr4 3.615186 1_555
Sb23 Sr37 3.615186 1_555
Sb24 Sr3 3.368359 1_555
Sb24 Sr34 3.368359 1_555
Sb24 Sr13 3.497504 1_555
Sb24 Sr36 3.580925 1_455
Sb24 Sr18 3.580925 1_545
Sb24 Sr29 3.776436 1_554
Sb24 Sr6 3.887887 1_555
Sb24 Sr14 3.887887 1_555
Sb25 Sr16 3.272576 1_555
Sb25 Sr22 3.272576 1_554
Sb25 Sr34 3.282094 1_555
Sb25 Sr2 3.282094 1_554
Sb25 Sr25 3.536646 1_555
Sb25 Sr32 3.536646 1_554
Sb25 Sr18 3.557883 1_555
Sb25 Sr1 3.557883 1_554
Sb26 Sr35 3.300194 1_555
Sb26 Sr28 3.408144 1_555
Sb26 Sr4 3.411077 1_555
Sb26 Sr17 3.412412 1_555
Sb26 Sr27 3.431286 1_555
Sb26 Sr0 3.759330 1_555
Sb27 Sr1 3.402827 1_555
Sb27 Sr29 3.437346 1_555
Sb27 Sr35 3.439710 1_455
Sb27 Sr36 3.459594 1_456
Sb27 Sr9 3.476679 1_455
Sb27 Sr32 3.494467 1_555
Sb28 Sr8 3.205641 1_545
Sb28 Sr23 3.233382 1_545
Sb28 Sr0 3.248805 1_555
Sb28 Sr27 3.318175 1_555
Sb28 Sr4 3.383385 1_555
Sb28 Sr9 3.497246 1_555
Sb28 Sr31 3.523645 1_555
Sb28 Sr40 3.844931 1_555
Sb29 Sr25 3.231262 1_555
Sb29 Sr26 3.231262 1_555
Sb29 Sr17 3.446863 1_554
Sb29 Sr2 3.446863 1_554
Sb29 Sr34 3.573000 1_555
Sb29 Sr3 3.573000 1_555
Sb29 Sr41 3.767008 1_555
Sb30 Sr31 3.402827 1_555
Sb30 Sr29 3.437346 1_555
Sb30 Sr23 3.439710 1_545
Sb30 Sr18 3.459594 1_546
Sb30 Sr22 3.476679 1_545
Sb30 Sr27 3.494467 1_555
Sb31 Sr0 3.424104 1_455
Sb31 Sr30 3.424104 1_545
Sb31 Sr20 3.541895 1_545
Sb31 Sr12 3.541895 1_455
Sb31 Sr40 3.621861 1_455
Sb31 Sr33 3.621861 1_545
Sb31 Sr15 3.727734 1_555
Sb31 Sr8 4.001476 1_445
Sb32 Sr12 3.272281 1_555
Sb32 Sr40 3.272281 1_555
Sb32 Sr10 3.342721 1_555
Sb32 Sr4 3.342721 1_555
Sb32 Sr28 3.378258 1_555
Sb32 Sr39 3.378258 1_555
Sb32 Sr0 3.534508 1_555
Sb32 Sr7 3.534508 1_555
Sb33 Sr22 3.377669 1_545
Sb33 Sr9 3.377669 1_455
Sb33 Sr15 3.535899 1_555
Sb33 Sr0 3.600772 1_455
Sb33 Sr30 3.600772 1_545
Sb33 Sr29 3.760926 1_555
Sb34 Sr2 3.368359 1_555
Sb34 Sr17 3.368359 1_555
Sb34 Sr8 3.497504 1_555
Sb34 Sr31 3.580925 1_565
Sb34 Sr1 3.580925 1_655
Sb34 Sr41 3.776436 1_556
Sb34 Sr23 3.887887 1_555
Sb34 Sr35 3.887887 1_555
Sb35 Sr31 3.334317 1_565
Sb35 Sr1 3.334317 1_655
Sb35 Sr22 3.500365 1_655
Sb35 Sr9 3.500365 1_565
Sb35 Sr11 3.542414 1_566
Sb35 Sr16 3.542414 1_656
Sb35 Sr41 3.762191 1_556
Sb35 Sr8 3.841683 1_555
