# generated using pymatgen
data_AgSb(S8F3)2
_symmetry_space_group_name_H-M   'P 1'
_cell_length_a   10.11207314
_cell_length_b   10.11207314
_cell_length_c   16.37794267
_cell_angle_alpha   79.52892514
_cell_angle_beta   79.52892514
_cell_angle_gamma   48.17573773
_symmetry_Int_Tables_number   1
_chemical_formula_structural   AgSb(S8F3)2
_chemical_formula_sum   'Ag2 Sb2 S32 F12'
_cell_volume   1223.00454456
_cell_formula_units_Z   2
loop_
 _symmetry_equiv_pos_site_id
 _symmetry_equiv_pos_as_xyz
  1  'x, y, z'
loop_
 _atom_site_type_symbol
 _atom_site_label
 _atom_site_symmetry_multiplicity
 _atom_site_fract_x
 _atom_site_fract_y
 _atom_site_fract_z
 _atom_site_occupancy
  Ag  Ag0  1  0.16686700  0.83313300  0.75000000  1
  Ag  Ag1  1  0.83313300  0.16686700  0.25000000  1
  Sb  Sb0  1  0.50000000  0.50000000  0.00000000  1
  Sb  Sb1  1  0.50000000  0.50000000  0.50000000  1
  S  S0  1  0.08697400  0.27580800  0.58293000  1
  S  S1  1  0.99032600  0.71477400  0.93698500  1
  S  S2  1  0.29892300  0.89946700  0.17107100  1
  S  S3  1  0.95869200  0.35978600  0.33284400  1
  S  S4  1  0.10053300  0.70107700  0.32892900  1
  S  S5  1  0.09839600  0.06593100  0.84929900  1
  S  S6  1  0.52362800  0.21558700  0.25837700  1
  S  S7  1  0.90160400  0.93406900  0.15070100  1
  S  S8  1  0.21558700  0.52362800  0.75837700  1
  S  S9  1  0.78441300  0.47637200  0.24162300  1
  S  S10  1  0.89946700  0.29892300  0.67107100  1
  S  S11  1  0.70107700  0.10053300  0.82892900  1
  S  S12  1  0.06593100  0.09839600  0.34929900  1
  S  S13  1  0.91302600  0.72419200  0.41707000  1
  S  S14  1  0.00967400  0.28522600  0.06301500  1
  S  S15  1  0.04130800  0.64021400  0.66715600  1
  S  S16  1  0.71477400  0.99032600  0.43698500  1
  S  S17  1  0.64021400  0.04130800  0.16715600  1
  S  S18  1  0.68175000  0.06553300  0.71353600  1
  S  S19  1  0.93406900  0.90160400  0.65070100  1
  S  S20  1  0.06553300  0.68175000  0.21353600  1
  S  S21  1  0.31825000  0.93446700  0.28646400  1
  S  S22  1  0.28522600  0.00967400  0.56301500  1
  S  S23  1  0.49889800  0.89900800  0.62757300  1
  S  S24  1  0.89900800  0.49889800  0.12757300  1
  S  S25  1  0.72419200  0.91302600  0.91707000  1
  S  S26  1  0.47637200  0.78441300  0.74162300  1
  S  S27  1  0.10099200  0.50110200  0.87242700  1
  S  S28  1  0.50110200  0.10099200  0.37242700  1
  S  S29  1  0.93446700  0.31825000  0.78646400  1
  S  S30  1  0.35978600  0.95869200  0.83284400  1
  S  S31  1  0.27580800  0.08697400  0.08293000  1
  F  F0  1  0.25799900  0.70592800  0.47829800  1
  F  F1  1  0.56805100  0.64060900  0.46498000  1
  F  F2  1  0.74200200  0.29407200  0.52170200  1
  F  F3  1  0.56294300  0.45056700  0.11284700  1
  F  F4  1  0.35939100  0.43194900  0.03502000  1
  F  F5  1  0.45056700  0.56294300  0.61284700  1
  F  F6  1  0.43705700  0.54943300  0.88715300  1
  F  F7  1  0.64060900  0.56805100  0.96498000  1
  F  F8  1  0.70592800  0.25799800  0.97829800  1
  F  F9  1  0.54943300  0.43705700  0.38715300  1
  F  F10  1  0.29407200  0.74200100  0.02170200  1
  F  F11  1  0.43194900  0.35939100  0.53502000  1
loop_
_geom_bond_atom_site_label_1
_geom_bond_atom_site_label_2
_geom_bond_distance
_geom_bond_site_symmetry_2
Ag0 S5 2.733933 1_565
Ag0 S19 2.733933 1_455
Ag0 S26 2.805149 1_555
Ag0 S8 2.805149 1_555
Ag1 S12 2.733933 1_655
Ag1 S7 2.733933 1_545
Ag1 S9 2.805149 1_555
Ag1 S6 2.805149 1_555
S0 S22 2.062453 1_555
S0 S10 2.066479 1_455
S1 S27 2.052865 1_655
S1 S25 2.062453 1_555
S2 S21 2.050562 1_555
S2 S31 2.066479 1_565
S3 S9 2.067263 1_555
S10 S29 2.050562 1_555
S11 S18 2.050562 1_555
S11 S25 2.066479 1_545
S12 S3 2.063875 1_455
S12 S21 2.083682 1_545
S13 S16 2.062453 1_555
S13 S4 2.066479 1_655
S14 S24 2.052865 1_455
S14 S31 2.062453 1_555
S15 S19 2.063875 1_455
S15 S8 2.067263 1_555
S16 S28 2.052865 1_565
S17 S7 2.063875 1_545
S17 S6 2.067263 1_555
S18 S19 2.083682 1_545
S20 S4 2.050562 1_555
S20 S7 2.083682 1_455
S22 S23 2.052865 1_545
S23 S26 2.072289 1_555
S24 S9 2.072289 1_555
S26 S30 2.067263 1_555
S27 S8 2.072289 1_555
S28 S6 2.072289 1_555
S29 S5 2.083682 1_655
S30 S5 2.063875 1_565
F0 Sb1 1.924026 1_555
F1 Sb1 1.920728 1_555
F2 Sb1 1.924031 1_555
F3 Sb0 1.933463 1_555
F4 Sb0 1.920728 1_555
F5 Sb1 1.933463 1_555
F6 Sb0 1.933463 1_556
F7 Sb0 1.920728 1_556
F8 Sb0 1.924031 1_556
F9 Sb1 1.933463 1_555
F10 Sb0 1.924026 1_555
F11 Sb1 1.920728 1_555
