# generated using pymatgen
data_DySbMo2O9
_symmetry_space_group_name_H-M   'P 1'
_cell_length_a   9.71206695
_cell_length_b   9.71206695
_cell_length_c   10.86397118
_cell_angle_alpha   68.11796062
_cell_angle_beta   68.11796062
_cell_angle_gamma   95.40394963
_symmetry_Int_Tables_number   1
_chemical_formula_structural   DySbMo2O9
_chemical_formula_sum   'Dy4 Sb4 Mo8 O36'
_cell_volume   849.45709318
_cell_formula_units_Z   4
loop_
 _symmetry_equiv_pos_site_id
 _symmetry_equiv_pos_as_xyz
  1  'x, y, z'
loop_
 _atom_site_type_symbol
 _atom_site_label
 _atom_site_symmetry_multiplicity
 _atom_site_fract_x
 _atom_site_fract_y
 _atom_site_fract_z
 _atom_site_occupancy
  Dy  Dy0  1  0.87436400  0.12563600  0.25000000  1
  Dy  Dy1  1  0.32831300  0.67168700  0.25000000  1
  Dy  Dy2  1  0.12563600  0.87436400  0.75000000  1
  Dy  Dy3  1  0.67168700  0.32831300  0.75000000  1
  Sb  Sb0  1  0.34920500  0.38013300  0.03578200  1
  Sb  Sb1  1  0.65079500  0.61986700  0.96421800  1
  Sb  Sb2  1  0.38013300  0.34920500  0.53578200  1
  Sb  Sb3  1  0.61986700  0.65079500  0.46421800  1
  Mo  Mo0  1  0.74086700  0.95368700  0.02506700  1
  Mo  Mo1  1  0.56600300  0.94254500  0.69290500  1
  Mo  Mo2  1  0.05745500  0.43399700  0.80709500  1
  Mo  Mo3  1  0.25913300  0.04631300  0.97493300  1
  Mo  Mo4  1  0.94254500  0.56600300  0.19290500  1
  Mo  Mo5  1  0.04631300  0.25913300  0.47493300  1
  Mo  Mo6  1  0.43399700  0.05745500  0.30709500  1
  Mo  Mo7  1  0.95368700  0.74086700  0.52506700  1
  O  O0  1  0.63543700  0.79127700  0.79744100  1
  O  O1  1  0.04258000  0.22072900  0.32638700  1
  O  O2  1  0.95742000  0.77927100  0.67361300  1
  O  O3  1  0.40580500  0.22158800  0.92056900  1
  O  O4  1  0.29812200  0.87048900  0.06845000  1
  O  O5  1  0.85636000  0.37886000  0.22638400  1
  O  O6  1  0.93262400  0.90458300  0.39771000  1
  O  O7  1  0.97904400  0.30564100  0.99822700  1
  O  O8  1  0.62114000  0.14364000  0.27361600  1
  O  O9  1  0.36456300  0.20872300  0.20255900  1
  O  O10  1  0.14364000  0.62114000  0.77361600  1
  O  O11  1  0.02095600  0.69435900  0.00177300  1
  O  O12  1  0.54180700  0.42294400  0.59998200  1
  O  O13  1  0.22158800  0.40580500  0.42056900  1
  O  O14  1  0.79127700  0.63543700  0.29744100  1
  O  O15  1  0.59419500  0.77841200  0.07943100  1
  O  O16  1  0.77927100  0.95742000  0.17361300  1
  O  O17  1  0.37886000  0.85636000  0.72638400  1
  O  O18  1  0.42294400  0.54180700  0.09998200  1
  O  O19  1  0.87048900  0.29812200  0.56845000  1
  O  O20  1  0.12951100  0.70187800  0.43155000  1
  O  O21  1  0.22072900  0.04258000  0.82638700  1
  O  O22  1  0.90458300  0.93262400  0.89771000  1
  O  O23  1  0.55710000  0.09418400  0.74818300  1
  O  O24  1  0.90581600  0.44290000  0.75181700  1
  O  O25  1  0.77841200  0.59419500  0.57943100  1
  O  O26  1  0.09418400  0.55710000  0.24818300  1
  O  O27  1  0.57705600  0.45819300  0.90001800  1
  O  O28  1  0.09541700  0.06737600  0.10229000  1
  O  O29  1  0.45819300  0.57705600  0.40001800  1
  O  O30  1  0.44290000  0.90581600  0.25181700  1
  O  O31  1  0.20872300  0.36456300  0.70255900  1
  O  O32  1  0.30564100  0.97904400  0.49822700  1
  O  O33  1  0.06737600  0.09541700  0.60229000  1
  O  O34  1  0.69435900  0.02095600  0.50177300  1
  O  O35  1  0.70187800  0.12951100  0.93155000  1
loop_
_geom_bond_atom_site_label_1
_geom_bond_atom_site_label_2
_geom_bond_distance
_geom_bond_site_symmetry_2
Dy0 O16 2.346989 1_545
Dy0 O1 2.346989 1_655
Dy0 O34 2.366340 1_555
Dy0 O7 2.366340 1_554
Dy0 O8 2.405994 1_555
Dy0 O5 2.405994 1_555
Dy0 O6 2.417024 1_545
Dy0 O28 2.417024 1_655
Dy1 O4 2.324475 1_555
Dy1 O20 2.324475 1_555
Dy1 O13 2.381946 1_555
Dy1 O15 2.381946 1_555
Dy1 O29 2.392965 1_555
Dy1 O18 2.392965 1_555
Dy1 O26 2.445934 1_555
Dy1 O30 2.445934 1_555
Dy2 O2 2.346989 1_455
Dy2 O21 2.346989 1_565
Dy2 O11 2.366340 1_556
Dy2 O32 2.366340 1_555
Dy2 O10 2.405994 1_555
Dy2 O17 2.405994 1_555
Dy2 O22 2.417024 1_455
Dy2 O33 2.417024 1_565
Dy3 O19 2.324475 1_555
Dy3 O35 2.324475 1_555
Dy3 O3 2.381946 1_555
Dy3 O25 2.381946 1_555
Dy3 O27 2.392965 1_555
Dy3 O12 2.392965 1_555
Dy3 O23 2.445934 1_555
Dy3 O24 2.445934 1_555
Mo0 O22 1.765439 1_554
Mo0 O35 1.790783 1_564
Mo0 O16 1.798474 1_555
Mo0 O15 1.855397 1_555
Mo1 O17 1.769223 1_555
Mo1 O34 1.777260 1_565
Mo1 O23 1.783698 1_565
Mo1 O0 1.848414 1_555
Mo2 O10 1.769223 1_555
Mo2 O7 1.777260 1_455
Mo2 O24 1.783698 1_455
Mo2 O31 1.848414 1_555
Mo3 O28 1.765439 1_556
Mo3 O4 1.790783 1_546
Mo3 O21 1.798474 1_555
Mo3 O3 1.855397 1_555
Mo4 O5 1.769223 1_555
Mo4 O11 1.777260 1_655
Mo4 O26 1.783698 1_655
Mo4 O14 1.848414 1_555
Mo5 O33 1.765439 1_555
Mo5 O19 1.790783 1_455
Mo5 O1 1.798474 1_555
Mo5 O13 1.855397 1_555
Mo6 O8 1.769223 1_555
Mo6 O32 1.777260 1_545
Mo6 O30 1.783698 1_545
Mo6 O9 1.848414 1_555
Mo7 O6 1.765439 1_555
Mo7 O20 1.790783 1_655
Mo7 O2 1.798474 1_555
Mo7 O25 1.855397 1_555
O0 Sb1 2.018999 1_555
O3 Sb0 2.307166 1_556
O9 Sb0 2.018999 1_555
O12 Sb3 2.016127 1_555
O12 Sb2 2.107528 1_555
O13 Sb2 2.307166 1_555
O14 Sb3 2.018999 1_555
O15 Sb1 2.307166 1_554
O18 Sb1 2.016127 1_554
O18 Sb0 2.107528 1_555
O25 Sb3 2.307166 1_555
O27 Sb0 2.016127 1_556
O27 Sb1 2.107528 1_555
O29 Sb2 2.016127 1_555
O29 Sb3 2.107528 1_555
O31 Sb2 2.018999 1_555
