# generated using pymatgen
data_Nb2PbO6
_symmetry_space_group_name_H-M   'P 1'
_cell_length_a   7.24276966
_cell_length_b   7.24276966
_cell_length_c   7.24276978
_cell_angle_alpha   94.23146037
_cell_angle_beta   94.23146037
_cell_angle_gamma   94.23146800
_symmetry_Int_Tables_number   1
_chemical_formula_structural   Nb2PbO6
_chemical_formula_sum   'Nb6 Pb3 O18'
_cell_volume   376.66965547
_cell_formula_units_Z   3
loop_
 _symmetry_equiv_pos_site_id
 _symmetry_equiv_pos_as_xyz
  1  'x, y, z'
loop_
 _atom_site_type_symbol
 _atom_site_label
 _atom_site_symmetry_multiplicity
 _atom_site_fract_x
 _atom_site_fract_y
 _atom_site_fract_z
 _atom_site_occupancy
  Nb  Nb0  1  0.51705158  0.16027279  0.81799278  1
  Nb  Nb1  1  0.81799278  0.51705158  0.16027279  1
  Nb  Nb2  1  0.16027279  0.81799278  0.51705158  1
  Nb  Nb3  1  0.81799278  0.16027279  0.51705158  1
  Nb  Nb4  1  0.51705158  0.81799278  0.16027279  1
  Nb  Nb5  1  0.16027279  0.51705158  0.81799278  1
  Pb  Pb0  1  0.99547458  0.99547458  0.99547458  1
  Pb  Pb1  1  0.65198807  0.65198807  0.65198807  1
  Pb  Pb2  1  0.34849615  0.34849615  0.34849615  1
  O  O0  1  0.06176955  0.51487265  0.06176955  1
  O  O1  1  0.06176955  0.06176955  0.51487265  1
  O  O2  1  0.51487265  0.06176955  0.06176955  1
  O  O3  1  0.39959509  0.95408699  0.67808523  1
  O  O4  1  0.67808523  0.39959509  0.95408699  1
  O  O5  1  0.95408699  0.67808523  0.39959509  1
  O  O6  1  0.67808523  0.95408699  0.39959509  1
  O  O7  1  0.39959509  0.67808523  0.95408699  1
  O  O8  1  0.95408699  0.39959509  0.67808523  1
  O  O9  1  0.29849038  0.57867191  0.57867191  1
  O  O10  1  0.57867191  0.29849038  0.57867191  1
  O  O11  1  0.57867191  0.57867191  0.29849038  1
  O  O12  1  0.77442419  0.06644787  0.77442419  1
  O  O13  1  0.77442419  0.77442419  0.06644787  1
  O  O14  1  0.06644787  0.77442419  0.77442419  1
  O  O15  1  0.29808392  0.84295721  0.29808392  1
  O  O16  1  0.29808392  0.29808392  0.84295721  1
  O  O17  1  0.84295721  0.29808392  0.29808392  1
loop_
_geom_bond_atom_site_label_1
_geom_bond_atom_site_label_2
_geom_bond_distance
_geom_bond_site_symmetry_2
Nb0 O3 1.855433 1_545
Nb0 O16 1.947674 1_555
Nb0 O2 1.953200 1_556
Nb0 O12 2.068405 1_555
Nb0 O10 2.123706 1_555
Nb0 O4 2.148562 1_555
Nb1 O4 1.855433 1_554
Nb1 O17 1.947674 1_555
Nb1 O0 1.953200 1_655
Nb1 O13 2.068405 1_555
Nb1 O11 2.123706 1_555
Nb1 O5 2.148562 1_555
Nb2 O5 1.855433 1_455
Nb2 O15 1.947674 1_555
Nb2 O1 1.953200 1_565
Nb2 O14 2.068405 1_555
Nb2 O9 2.123706 1_555
Nb2 O3 2.148562 1_555
Nb3 O6 1.855433 1_545
Nb3 O17 1.947674 1_555
Nb3 O1 1.953200 1_655
Nb3 O12 2.068405 1_555
Nb3 O10 2.123706 1_555
Nb3 O8 2.148562 1_555
Nb4 O7 1.855433 1_554
Nb4 O15 1.947674 1_555
Nb4 O2 1.953200 1_565
Nb4 O13 2.068405 1_555
Nb4 O11 2.123706 1_555
Nb4 O6 2.148562 1_555
Nb5 O8 1.855433 1_455
Nb5 O16 1.947674 1_555
Nb5 O0 1.953200 1_556
Nb5 O14 2.068405 1_555
Nb5 O9 2.123706 1_555
Nb5 O7 2.148562 1_555
O9 Pb2 2.336183 1_555
O9 Pb1 2.583839 1_555
O10 Pb2 2.336183 1_555
O10 Pb1 2.583839 1_555
O11 Pb2 2.336183 1_555
O11 Pb1 2.583839 1_555
O12 Pb0 2.292463 1_545
O13 Pb0 2.292463 1_554
O14 Pb0 2.292463 1_455
