# generated using pymatgen
data_ZnS
_symmetry_space_group_name_H-M   'P 1'
_cell_length_a   3.80944974
_cell_length_b   3.80944990
_cell_length_c   80.94860619
_cell_angle_alpha   90.00000000
_cell_angle_beta   90.00000000
_cell_angle_gamma   120.00001631
_symmetry_Int_Tables_number   1
_chemical_formula_structural   ZnS
_chemical_formula_sum   'Zn26 S26'
_cell_volume   1017.33608658
_cell_formula_units_Z   26
loop_
 _symmetry_equiv_pos_site_id
 _symmetry_equiv_pos_as_xyz
  1  'x, y, z'
loop_
 _atom_site_type_symbol
 _atom_site_label
 _atom_site_symmetry_multiplicity
 _atom_site_fract_x
 _atom_site_fract_y
 _atom_site_fract_z
 _atom_site_occupancy
  Zn  Zn0  1  0.66666700  0.33333300  0.69243801  1
  Zn  Zn1  1  0.00000000  -0.00000000  0.11510883  1
  Zn  Zn2  1  0.66666700  0.33333300  0.46174445  1
  Zn  Zn3  1  0.33333300  0.66666700  0.76921106  1
  Zn  Zn4  1  0.33333300  0.66666700  0.65403631  1
  Zn  Zn5  1  0.00000000  -0.00000000  0.23072828  1
  Zn  Zn6  1  0.66666700  0.33333300  0.96136389  1
  Zn  Zn7  1  0.33333300  0.66666700  0.88449718  1
  Zn  Zn8  1  0.33333300  0.66666700  0.03826712  1
  Zn  Zn9  1  0.66666700  0.33333300  0.19221888  1
  Zn  Zn10  1  -0.00000000  0.00000000  0.80770554  1
  Zn  Zn11  1  0.00000000  -0.00000000  0.73075736  1
  Zn  Zn12  1  0.66666700  0.33333300  0.07666394  1
  Zn  Zn13  1  0.33333300  0.66666700  0.42318865  1
  Zn  Zn14  1  0.66666700  0.33333300  0.84613725  1
  Zn  Zn15  1  0.00000000  -0.00000000  0.57721159  1
  Zn  Zn16  1  0.33333300  0.66666700  0.53871155  1
  Zn  Zn17  1  0.00000000  -0.00000000  0.99985321  1
  Zn  Zn18  1  0.33333300  0.66666700  0.30772059  1
  Zn  Zn19  1  0.33333300  0.66666700  0.15362663  1
  Zn  Zn20  1  0.66666700  0.33333300  0.26923945  1
  Zn  Zn21  1  0.00000000  -0.00000000  0.92289920  1
  Zn  Zn22  1  0.66666700  0.33333300  0.61559490  1
  Zn  Zn23  1  -0.00000000  -0.00000000  0.50023572  1
  Zn  Zn24  1  0.66666700  0.33333300  0.38473234  1
  Zn  Zn25  1  -0.00000000  0.00000000  0.34624725  1
  S  S0  1  0.00000000  -0.00000000  0.02867763  1
  S  S1  1  0.00000000  -0.00000000  0.75957131  1
  S  S2  1  0.33333300  0.66666700  0.68286751  1
  S  S3  1  0.33333300  0.66666700  0.33657432  1
  S  S4  1  0.66666700  0.33333300  0.22106494  1
  S  S5  1  0.33333300  0.66666700  0.79807747  1
  S  S6  1  0.66666700  0.33333300  0.72120851  1
  S  S7  1  0.00000000  -0.00000000  0.60601858  1
  S  S8  1  0.33333300  0.66666700  0.06708317  1
  S  S9  1  0.33333300  0.66666700  0.91331269  1
  S  S10  1  0.33333300  0.66666700  0.45208683  1
  S  S11  1  0.66666700  0.33333300  0.10547773  1
  S  S12  1  0.66666700  0.33333300  0.87493784  1
  S  S13  1  0.66666700  0.33333300  0.29807245  1
  S  S14  1  0.00000000  -0.00000000  0.95170696  1
  S  S15  1  0.66666700  0.33333300  0.49060221  1
  S  S16  1  0.66666700  0.33333300  0.99022430  1
  S  S17  1  0.33333300  0.66666700  0.18252129  1
  S  S18  1  0.00000000  -0.00000000  0.83652080  1
  S  S19  1  0.00000000  -0.00000000  0.25961640  1
  S  S20  1  0.66666700  0.33333300  0.41355015  1
  S  S21  1  0.00000000  -0.00000000  0.14396451  1
  S  S22  1  0.00000000  -0.00000000  0.52906013  1
  S  S23  1  0.33333300  0.66666700  0.56757168  1
  S  S24  1  0.00000000  -0.00000000  0.37508428  1
  S  S25  1  0.66666700  0.33333300  0.64440613  1
loop_
_geom_bond_atom_site_label_1
_geom_bond_atom_site_label_2
_geom_bond_distance
_geom_bond_site_symmetry_2
S0 Zn8 2.332352 1_545
S0 Zn8 2.332355 1_445
S0 Zn8 2.332355 1_555
S0 Zn17 2.333297 1_554
S1 Zn11 2.332449 1_555
S1 Zn3 2.333709 1_545
S1 Zn3 2.333712 1_445
S1 Zn3 2.333712 1_555
S2 Zn0 2.331841 1_455
S2 Zn0 2.331841 1_565
S2 Zn0 2.331847 1_555
S2 Zn4 2.333845 1_555
S3 Zn25 2.334609 1_565
S3 Zn25 2.334611 1_665
S3 Zn25 2.334612 1_555
S3 Zn18 2.335669 1_555
S4 Zn5 2.334349 1_655
S4 Zn5 2.334351 1_555
S4 Zn5 2.334351 1_665
S4 Zn9 2.335048 1_555
S5 Zn10 2.333393 1_565
S5 Zn10 2.333396 1_665
S5 Zn10 2.333396 1_555
S5 Zn3 2.336696 1_555
S6 Zn0 2.328932 1_555
S6 Zn11 2.331259 1_655
S6 Zn11 2.331262 1_555
S6 Zn11 2.331262 1_665
S7 Zn15 2.331886 1_555
S7 Zn22 2.331998 1_455
S7 Zn22 2.332000 1_555
S7 Zn22 2.332000 1_445
S8 Zn12 2.332117 1_455
S8 Zn12 2.332117 1_565
S8 Zn12 2.332124 1_555
S8 Zn8 2.332619 1_555
S9 Zn21 2.332272 1_565
S9 Zn21 2.332275 1_665
S9 Zn21 2.332275 1_555
S9 Zn7 2.332575 1_555
S10 Zn2 2.334193 1_455
S10 Zn2 2.334193 1_565
S10 Zn2 2.334200 1_555
S10 Zn13 2.339267 1_555
S11 Zn12 2.332436 1_555
S11 Zn1 2.333475 1_655
S11 Zn1 2.333478 1_555
S11 Zn1 2.333478 1_665
S12 Zn14 2.331368 1_555
S12 Zn7 2.331541 1_655
S12 Zn7 2.331541 1_545
S12 Zn7 2.331547 1_555
S13 Zn18 2.333936 1_655
S13 Zn18 2.333936 1_545
S13 Zn18 2.333943 1_555
S13 Zn20 2.333991 1_555
S14 Zn21 2.331948 1_555
S14 Zn6 2.334175 1_455
S14 Zn6 2.334177 1_555
S14 Zn6 2.334177 1_445
S15 Zn23 2.333541 1_655
S15 Zn23 2.333543 1_555
S15 Zn23 2.333543 1_665
S15 Zn2 2.335995 1_555
S16 Zn17 2.333416 1_655
S16 Zn17 2.333419 1_555
S16 Zn17 2.333419 1_665
S16 Zn6 2.336210 1_555
S17 Zn9 2.335279 1_455
S17 Zn9 2.335279 1_565
S17 Zn9 2.335285 1_555
S17 Zn19 2.338982 1_555
S18 Zn10 2.332555 1_555
S18 Zn14 2.333079 1_455
S18 Zn14 2.333082 1_555
S18 Zn14 2.333082 1_445
S19 Zn20 2.333258 1_455
S19 Zn20 2.333260 1_555
S19 Zn20 2.333260 1_445
S19 Zn5 2.338453 1_555
S20 Zn24 2.332762 1_555
S20 Zn13 2.333675 1_655
S20 Zn13 2.333675 1_545
S20 Zn13 2.333682 1_555
S21 Zn19 2.334316 1_545
S21 Zn19 2.334318 1_445
S21 Zn19 2.334318 1_555
S21 Zn1 2.335827 1_555
S22 Zn23 2.333296 1_555
S22 Zn16 2.334025 1_545
S22 Zn16 2.334028 1_445
S22 Zn16 2.334028 1_555
S23 Zn15 2.333714 1_565
S23 Zn15 2.333716 1_665
S23 Zn15 2.333716 1_555
S23 Zn16 2.336187 1_555
S24 Zn24 2.333934 1_455
S24 Zn24 2.333937 1_555
S24 Zn24 2.333937 1_445
S24 Zn25 2.334317 1_555
S25 Zn22 2.332229 1_555
S25 Zn4 2.333450 1_655
S25 Zn4 2.333450 1_545
S25 Zn4 2.333457 1_555
