# generated using pymatgen
data_Zr5Sb3
_symmetry_space_group_name_H-M   'P 1'
_cell_length_a   7.60922035
_cell_length_b   8.84997951
_cell_length_c   10.84513782
_cell_angle_alpha   90.00000000
_cell_angle_beta   90.00000000
_cell_angle_gamma   90.00000000
_symmetry_Int_Tables_number   1
_chemical_formula_structural   Zr5Sb3
_chemical_formula_sum   'Zr20 Sb12'
_cell_volume   730.32724318
_cell_formula_units_Z   4
loop_
 _symmetry_equiv_pos_site_id
 _symmetry_equiv_pos_as_xyz
  1  'x, y, z'
loop_
 _atom_site_type_symbol
 _atom_site_label
 _atom_site_symmetry_multiplicity
 _atom_site_fract_x
 _atom_site_fract_y
 _atom_site_fract_z
 _atom_site_occupancy
  Zr  Zr0  1  0.47233775  0.75000000  0.49666726  1
  Zr  Zr1  1  0.97233775  0.25000000  0.00333274  1
  Zr  Zr2  1  0.52766225  0.25000000  0.50333274  1
  Zr  Zr3  1  0.02766225  0.75000000  0.99666726  1
  Zr  Zr4  1  0.31853713  0.75000000  0.76679102  1
  Zr  Zr5  1  0.81853713  0.25000000  0.73320898  1
  Zr  Zr6  1  0.68146287  0.25000000  0.23320898  1
  Zr  Zr7  1  0.18146287  0.75000000  0.26679102  1
  Zr  Zr8  1  0.17281679  0.25000000  0.28873693  1
  Zr  Zr9  1  0.67281679  0.75000000  0.21126307  1
  Zr  Zr10  1  0.82718321  0.75000000  0.71126307  1
  Zr  Zr11  1  0.32718321  0.25000000  0.78873693  1
  Zr  Zr12  1  0.19941923  0.44396369  0.55316199  1
  Zr  Zr13  1  0.69941923  0.55603631  0.94683801  1
  Zr  Zr14  1  0.80058077  0.94396369  0.44683801  1
  Zr  Zr15  1  0.30058077  0.05603631  0.05316199  1
  Zr  Zr16  1  0.80058077  0.55603631  0.44683801  1
  Zr  Zr17  1  0.30058077  0.44396369  0.05316199  1
  Zr  Zr18  1  0.19941923  0.05603631  0.55316199  1
  Zr  Zr19  1  0.69941923  0.94396369  0.94683801  1
  Sb  Sb0  1  0.08928343  0.75000000  0.52549097  1
  Sb  Sb1  1  0.58928343  0.25000000  0.97450903  1
  Sb  Sb2  1  0.91071657  0.25000000  0.47450903  1
  Sb  Sb3  1  0.41071657  0.75000000  0.02549097  1
  Sb  Sb4  1  0.06574909  0.00778915  0.82216827  1
  Sb  Sb5  1  0.56574909  0.99221085  0.67783173  1
  Sb  Sb6  1  0.93425091  0.50778915  0.17783173  1
  Sb  Sb7  1  0.43425091  0.49221085  0.32216827  1
  Sb  Sb8  1  0.93425091  0.99221085  0.17783173  1
  Sb  Sb9  1  0.43425091  0.00778915  0.32216827  1
  Sb  Sb10  1  0.06574909  0.49221085  0.82216827  1
  Sb  Sb11  1  0.56574909  0.50778915  0.67783173  1
loop_
_geom_bond_atom_site_label_1
_geom_bond_atom_site_label_2
_geom_bond_distance
_geom_bond_site_symmetry_2
Sb0 Zr10 2.834900 1_455
Sb0 Zr12 2.850946 1_555
Sb0 Zr18 2.850946 1_565
Sb0 Zr7 2.891985 1_555
Sb0 Zr16 2.915507 1_455
Sb0 Zr14 2.915507 1_455
Sb0 Zr0 2.931459 1_555
Sb0 Zr4 3.145062 1_555
Sb1 Zr11 2.834900 1_555
Sb1 Zr13 2.850946 1_555
Sb1 Zr19 2.850946 1_545
Sb1 Zr6 2.891985 1_556
Sb1 Zr15 2.915507 1_556
Sb1 Zr17 2.915507 1_556
Sb1 Zr1 2.931459 1_556
Sb1 Zr5 3.145062 1_555
Sb2 Zr8 2.834900 1_655
Sb2 Zr14 2.850946 1_545
Sb2 Zr16 2.850946 1_555
Sb2 Zr5 2.891985 1_555
Sb2 Zr18 2.915507 1_655
Sb2 Zr12 2.915507 1_655
Sb2 Zr2 2.931459 1_555
Sb2 Zr6 3.145062 1_555
Sb3 Zr9 2.834900 1_555
Sb3 Zr17 2.850946 1_555
Sb3 Zr15 2.850946 1_565
Sb3 Zr4 2.891985 1_554
Sb3 Zr19 2.915507 1_554
Sb3 Zr13 2.915507 1_554
Sb3 Zr3 2.931459 1_554
Sb3 Zr7 3.145062 1_555
Sb4 Zr11 2.946806 1_555
Sb4 Zr3 2.978310 1_545
Sb4 Zr1 2.993381 1_456
Sb4 Zr5 3.010672 1_455
Sb4 Zr4 3.043934 1_545
Sb4 Zr15 3.106622 1_556
Sb4 Zr18 3.118997 1_555
Sb4 Zr19 3.149158 1_445
Sb4 Zr10 3.153873 1_445
Sb5 Zr10 2.946806 1_555
Sb5 Zr2 2.978310 1_565
Sb5 Zr0 2.993381 1_555
Sb5 Zr4 3.010672 1_555
Sb5 Zr5 3.043934 1_565
Sb5 Zr14 3.106622 1_555
Sb5 Zr19 3.118997 1_555
Sb5 Zr18 3.149158 1_565
Sb5 Zr11 3.153873 1_565
Sb6 Zr9 2.946806 1_555
Sb6 Zr1 2.978310 1_555
Sb6 Zr3 2.993381 1_654
Sb6 Zr7 3.010672 1_655
Sb6 Zr6 3.043934 1_555
Sb6 Zr13 3.106622 1_554
Sb6 Zr16 3.118997 1_555
Sb6 Zr17 3.149158 1_655
Sb6 Zr8 3.153873 1_655
Sb7 Zr8 2.946806 1_555
Sb7 Zr0 2.978310 1_555
Sb7 Zr2 2.993381 1_555
Sb7 Zr6 3.010672 1_555
Sb7 Zr7 3.043934 1_555
Sb7 Zr12 3.106622 1_555
Sb7 Zr17 3.118997 1_555
Sb7 Zr16 3.149158 1_555
Sb7 Zr9 3.153873 1_555
Sb8 Zr9 2.946806 1_555
Sb8 Zr1 2.978310 1_565
Sb8 Zr3 2.993381 1_654
Sb8 Zr7 3.010672 1_655
Sb8 Zr6 3.043934 1_565
Sb8 Zr19 3.106622 1_554
Sb8 Zr14 3.118997 1_555
Sb8 Zr15 3.149158 1_665
Sb8 Zr8 3.153873 1_665
Sb9 Zr8 2.946806 1_555
Sb9 Zr0 2.978310 1_545
Sb9 Zr2 2.993381 1_555
Sb9 Zr6 3.010672 1_555
Sb9 Zr7 3.043934 1_545
Sb9 Zr18 3.106622 1_555
Sb9 Zr15 3.118997 1_555
Sb9 Zr14 3.149158 1_545
Sb9 Zr9 3.153873 1_545
Sb10 Zr11 2.946806 1_555
Sb10 Zr3 2.978310 1_555
Sb10 Zr1 2.993381 1_456
Sb10 Zr5 3.010672 1_455
Sb10 Zr4 3.043934 1_555
Sb10 Zr17 3.106622 1_556
Sb10 Zr12 3.118997 1_555
Sb10 Zr13 3.149158 1_455
Sb10 Zr10 3.153873 1_455
Sb11 Zr10 2.946806 1_555
Sb11 Zr2 2.978310 1_555
Sb11 Zr0 2.993381 1_555
Sb11 Zr4 3.010672 1_555
Sb11 Zr5 3.043934 1_555
Sb11 Zr16 3.106622 1_555
Sb11 Zr13 3.118997 1_555
Sb11 Zr12 3.149158 1_555
Sb11 Zr11 3.153873 1_555
