# generated using pymatgen
data_K2NaH5(CO4)2
_symmetry_space_group_name_H-M   'P 1'
_cell_length_a   8.00471500
_cell_length_b   9.42343500
_cell_length_c   11.61246600
_cell_angle_alpha   90.00000000
_cell_angle_beta   90.00000000
_cell_angle_gamma   90.00000000
_symmetry_Int_Tables_number   1
_chemical_formula_structural   K2NaH5(CO4)2
_chemical_formula_sum   'K8 Na4 H20 C8 O32'
_cell_volume   875.95050756
_cell_formula_units_Z   4
loop_
 _symmetry_equiv_pos_site_id
 _symmetry_equiv_pos_as_xyz
  1  'x, y, z'
loop_
 _atom_site_type_symbol
 _atom_site_label
 _atom_site_symmetry_multiplicity
 _atom_site_fract_x
 _atom_site_fract_y
 _atom_site_fract_z
 _atom_site_occupancy
  K  K0  1  0.48837800  0.79923800  0.11741400  1
  K  K1  1  0.98837800  0.20076200  0.88258600  1
  K  K2  1  0.01162200  0.29923800  0.38258600  1
  K  K3  1  0.51162200  0.70076200  0.61741400  1
  K  K4  1  0.51162200  0.20076200  0.88258600  1
  K  K5  1  0.01162200  0.79923800  0.11741400  1
  K  K6  1  0.98837800  0.70076200  0.61741400  1
  K  K7  1  0.48837800  0.29923800  0.38258600  1
  Na  Na0  1  0.75000000  0.96068500  0.33640800  1
  Na  Na1  1  0.25000000  0.03931500  0.66359200  1
  Na  Na2  1  0.75000000  0.46068500  0.16359200  1
  Na  Na3  1  0.25000000  0.53931500  0.83640800  1
  H  H0  1  0.75000000  0.49748300  0.46742600  1
  H  H1  1  0.25000000  0.50251700  0.53257400  1
  H  H2  1  0.75000000  0.99748300  0.03257400  1
  H  H3  1  0.25000000  0.00251700  0.96742600  1
  H  H4  1  0.88868000  0.60038400  0.88046400  1
  H  H5  1  0.38868000  0.39961600  0.11953600  1
  H  H6  1  0.61132000  0.10038400  0.61953600  1
  H  H7  1  0.11132000  0.89961600  0.38046400  1
  H  H8  1  0.11132000  0.39961600  0.11953600  1
  H  H9  1  0.61132000  0.60038400  0.88046400  1
  H  H10  1  0.38868000  0.89961600  0.38046400  1
  H  H11  1  0.88868000  0.10038400  0.61953600  1
  H  H12  1  0.87982000  0.46503300  0.80062900  1
  H  H13  1  0.37982000  0.53496700  0.19937100  1
  H  H14  1  0.62018000  0.96503300  0.69937100  1
  H  H15  1  0.12018000  0.03496700  0.30062900  1
  H  H16  1  0.12018000  0.53496700  0.19937100  1
  H  H17  1  0.62018000  0.46503300  0.80062900  1
  H  H18  1  0.37982000  0.03496700  0.30062900  1
  H  H19  1  0.87982000  0.96503300  0.69937100  1
  C  C0  1  0.75000000  0.66185000  0.35673600  1
  C  C1  1  0.25000000  0.33815000  0.64326400  1
  C  C2  1  0.75000000  0.16185000  0.14326400  1
  C  C3  1  0.25000000  0.83815000  0.85673600  1
  C  C4  1  0.75000000  0.34709200  0.62897600  1
  C  C5  1  0.25000000  0.65290800  0.37102400  1
  C  C6  1  0.75000000  0.84709200  0.87102400  1
  C  C7  1  0.25000000  0.15290800  0.12897600  1
  O  O0  1  0.75000000  0.74472400  0.44322500  1
  O  O1  1  0.25000000  0.25527600  0.55677500  1
  O  O2  1  0.75000000  0.24472400  0.05677500  1
  O  O3  1  0.25000000  0.75527600  0.94322500  1
  O  O4  1  0.75000000  0.70030900  0.25142600  1
  O  O5  1  0.25000000  0.29969100  0.74857400  1
  O  O6  1  0.75000000  0.20030900  0.24857400  1
  O  O7  1  0.25000000  0.79969100  0.75142600  1
  O  O8  1  0.75000000  0.51862700  0.37571200  1
  O  O9  1  0.25000000  0.48137300  0.62428800  1
  O  O10  1  0.75000000  0.01862700  0.12428800  1
  O  O11  1  0.25000000  0.98137300  0.87571200  1
  O  O12  1  0.75000000  0.47586900  0.58653200  1
  O  O13  1  0.25000000  0.52413100  0.41346800  1
  O  O14  1  0.75000000  0.97586900  0.91346800  1
  O  O15  1  0.25000000  0.02413100  0.08653200  1
  O  O16  1  0.75000000  0.23779600  0.56087000  1
  O  O17  1  0.25000000  0.76220400  0.43913000  1
  O  O18  1  0.75000000  0.73779600  0.93913000  1
  O  O19  1  0.25000000  0.26220400  0.06087000  1
  O  O20  1  0.75000000  0.33269700  0.74048700  1
  O  O21  1  0.25000000  0.66730300  0.25951300  1
  O  O22  1  0.75000000  0.83269700  0.75951300  1
  O  O23  1  0.25000000  0.16730300  0.24048700  1
  O  O24  1  0.95943100  0.52750100  0.84263300  1
  O  O25  1  0.45943100  0.47249900  0.15736700  1
  O  O26  1  0.54056900  0.02750100  0.65736700  1
  O  O27  1  0.04056900  0.97249900  0.34263300  1
  O  O28  1  0.04056900  0.47249900  0.15736700  1
  O  O29  1  0.54056900  0.52750100  0.84263300  1
  O  O30  1  0.45943100  0.97249900  0.34263300  1
  O  O31  1  0.95943100  0.02750100  0.65736700  1
loop_
_geom_bond_atom_site_label_1
_geom_bond_atom_site_label_2
_geom_bond_distance
_geom_bond_site_symmetry_2
K0 O4 2.770667 1_555
K0 O3 2.811445 1_554
K0 O21 2.812414 1_555
K0 O15 2.874181 1_565
K0 O10 2.943844 1_565
K0 O18 3.001193 1_554
K0 O30 3.091842 1_555
K0 O25 3.122372 1_555
K1 O5 2.770667 1_655
K1 O2 2.811445 1_556
K1 O20 2.812414 1_555
K1 O14 2.874181 1_545
K1 O11 2.943844 1_645
K1 O19 3.001193 1_656
K1 O31 3.091842 1_555
K1 O24 3.122372 1_555
K2 O6 2.770667 1_455
K2 O1 2.811445 1_555
K2 O23 2.812414 1_555
K2 O13 2.874181 1_555
K2 O8 2.943844 1_455
K2 O16 3.001193 1_455
K2 O28 3.091842 1_555
K2 O27 3.122372 1_545
K3 O7 2.770667 1_555
K3 O0 2.811445 1_555
K3 O22 2.812414 1_555
K3 O12 2.874181 1_555
K3 O9 2.943844 1_555
K3 O17 3.001193 1_555
K3 O29 3.091842 1_555
K3 O26 3.122372 1_565
K4 O5 2.770667 1_555
K4 O2 2.811445 1_556
K4 O20 2.812414 1_555
K4 O14 2.874181 1_545
K4 O11 2.943844 1_545
K4 O19 3.001193 1_556
K4 O26 3.091842 1_555
K4 O29 3.122372 1_555
K5 O4 2.770667 1_455
K5 O3 2.811445 1_554
K5 O21 2.812414 1_555
K5 O15 2.874181 1_565
K5 O10 2.943844 1_465
K5 O18 3.001193 1_454
K5 O27 3.091842 1_555
K5 O28 3.122372 1_555
K6 O7 2.770667 1_655
K6 O0 2.811445 1_555
K6 O22 2.812414 1_555
K6 O12 2.874181 1_555
K6 O9 2.943844 1_655
K6 O17 3.001193 1_655
K6 O24 3.091842 1_555
K6 O31 3.122372 1_565
K7 O6 2.770667 1_555
K7 O1 2.811445 1_555
K7 O23 2.812414 1_555
K7 O13 2.874181 1_555
K7 O8 2.943844 1_555
K7 O16 3.001193 1_555
K7 O25 3.091842 1_555
K7 O30 3.122372 1_545
Na0 O30 2.329707 1_555
Na0 O27 2.329707 1_655
Na0 O0 2.383322 1_555
Na0 O6 2.477755 1_565
Na0 O10 2.523027 1_565
Na0 O4 2.644656 1_555
Na1 O26 2.329707 1_555
Na1 O31 2.329707 1_455
Na1 O1 2.383322 1_555
Na1 O7 2.477755 1_545
Na1 O11 2.523027 1_545
Na1 O5 2.644656 1_555
Na2 O25 2.329707 1_555
Na2 O28 2.329707 1_655
Na2 O2 2.383322 1_555
Na2 O4 2.477755 1_555
Na2 O8 2.523027 1_555
Na2 O6 2.644656 1_555
Na3 O24 2.329707 1_455
Na3 O29 2.329707 1_555
Na3 O3 2.383322 1_555
Na3 O5 2.477755 1_555
Na3 O9 2.523027 1_555
Na3 O7 2.644656 1_555
H0 O8 1.083504 1_555
H0 O12 1.398031 1_555
H0 K7 2.974276 1_555
H0 K2 2.974276 1_655
H1 O9 1.083504 1_555
H1 O13 1.398031 1_555
H1 K6 2.974276 1_455
H1 K3 2.974276 1_555
H2 O10 1.083504 1_565
H2 O14 1.398031 1_554
H2 K0 2.974276 1_555
H2 K5 2.974276 1_655
H3 O11 1.083504 1_545
H3 O15 1.398031 1_556
H3 K1 2.974276 1_455
H3 K4 2.974276 1_555
H4 O24 0.992695 1_555
H5 O25 0.992695 1_555
H6 O26 0.992695 1_555
H7 O27 0.992695 1_555
H8 O28 0.992695 1_555
H9 O29 0.992695 1_555
H10 O30 0.992695 1_555
H11 O31 0.992695 1_555
H12 O24 0.995263 1_555
H12 K1 2.804049 1_555
H13 O25 0.995263 1_555
H13 K0 2.804049 1_555
H14 O26 0.995263 1_565
H14 K3 2.804049 1_555
H15 O27 0.995263 1_545
H15 K2 2.804049 1_555
H16 O28 0.995263 1_555
H16 K5 2.804049 1_555
H17 O29 0.995263 1_555
H17 K4 2.804049 1_555
H18 O30 0.995263 1_545
H18 K7 2.804049 1_555
H19 O31 0.995263 1_565
H19 K6 2.804049 1_555
C0 O0 1.272248 1_555
C0 O4 1.275481 1_555
C0 O8 1.367523 1_555
C1 O1 1.272248 1_555
C1 O5 1.275481 1_555
C1 O9 1.367523 1_555
C2 O2 1.272248 1_555
C2 O6 1.275481 1_555
C2 O10 1.367523 1_555
C3 O3 1.272248 1_555
C3 O7 1.275481 1_555
C3 O11 1.367523 1_555
C4 O16 1.298566 1_555
C4 O20 1.302003 1_555
C4 O12 1.309796 1_555
C5 O17 1.298566 1_555
C5 O21 1.302003 1_555
C5 O13 1.309796 1_555
C6 O18 1.298566 1_555
C6 O22 1.302003 1_555
C6 O14 1.309796 1_555
C7 O19 1.298566 1_555
C7 O23 1.302003 1_555
C7 O15 1.309796 1_555
