# generated using pymatgen
data_KIn9Ni2
_symmetry_space_group_name_H-M   'P 1'
_cell_length_a   4.36531700
_cell_length_b   8.84172931
_cell_length_c   8.84172931
_cell_angle_alpha   119.99999486
_cell_angle_beta   90.00000000
_cell_angle_gamma   90.00000000
_symmetry_Int_Tables_number   1
_chemical_formula_structural   KIn9Ni2
_chemical_formula_sum   'K1 In9 Ni2'
_cell_volume   295.54313162
_cell_formula_units_Z   1
loop_
 _symmetry_equiv_pos_site_id
 _symmetry_equiv_pos_as_xyz
  1  'x, y, z'
loop_
 _atom_site_type_symbol
 _atom_site_label
 _atom_site_symmetry_multiplicity
 _atom_site_fract_x
 _atom_site_fract_y
 _atom_site_fract_z
 _atom_site_occupancy
  K  K0  1  0.00000000  0.00000000  0.00000000  1
  In  In0  1  0.50000000  0.41626000  0.20813000  1
  In  In1  1  0.50000000  0.20813000  0.41626000  1
  In  In2  1  0.00000000  0.50000000  0.50000000  1
  In  In3  1  0.50000000  0.58374000  0.79187000  1
  In  In4  1  0.50000000  0.79187000  0.20813000  1
  In  In5  1  0.50000000  0.20813000  0.79187000  1
  In  In6  1  0.50000000  0.79187000  0.58374000  1
  In  In7  1  0.00000000  0.00000000  0.50000000  1
  In  In8  1  0.00000000  0.50000000  0.00000000  1
  Ni  Ni0  1  0.00000000  0.33333300  0.66666700  1
  Ni  Ni1  1  0.00000000  0.66666700  0.33333300  1
loop_
_geom_bond_atom_site_label_1
_geom_bond_atom_site_label_2
_geom_bond_distance
_geom_bond_site_symmetry_2
In0 Ni1 2.905245 1_555
In0 Ni1 2.905245 1_655
In0 In8 3.171933 1_555
In0 In8 3.171933 1_655
In0 In2 3.171933 1_555
In0 In2 3.171933 1_655
In0 In1 3.187370 1_555
In0 In5 3.187371 1_554
In0 In4 3.321042 1_555
In0 In6 3.321042 1_555
In0 K0 3.863072 1_555
In0 K0 3.863072 1_655
In1 Ni0 2.905245 1_555
In1 Ni0 2.905245 1_655
In1 In7 3.171933 1_555
In1 In7 3.171933 1_655
In1 In2 3.171933 1_555
In1 In2 3.171933 1_655
In1 In4 3.187371 1_545
In1 In5 3.321042 1_555
In1 In3 3.321042 1_555
In1 K0 3.863072 1_555
In1 K0 3.863072 1_655
In2 Ni0 2.552392 1_555
In2 Ni1 2.552392 1_555
In2 In3 3.171933 1_455
In2 In3 3.171933 1_555
In2 In6 3.171933 1_555
In2 In6 3.171933 1_455
In3 Ni0 2.905245 1_655
In3 Ni0 2.905245 1_555
In3 In8 3.171933 1_556
In3 In8 3.171933 1_656
In3 In6 3.187370 1_555
In3 In4 3.187371 1_556
In3 In5 3.321042 1_555
In3 K0 3.863072 1_666
In3 K0 3.863072 1_566
In4 Ni1 2.905240 1_555
In4 Ni1 2.905240 1_655
In4 In7 3.171933 1_565
In4 In7 3.171933 1_665
In4 In8 3.171933 1_555
In4 In8 3.171933 1_655
In4 In6 3.321042 1_555
In4 K0 3.863072 1_665
In4 K0 3.863072 1_565
In5 Ni0 2.905240 1_555
In5 Ni0 2.905240 1_655
In5 In8 3.171933 1_556
In5 In8 3.171933 1_656
In5 In7 3.171933 1_555
In5 In7 3.171933 1_655
In5 In6 3.187371 1_545
In5 K0 3.863072 1_556
In5 K0 3.863072 1_656
In6 Ni1 2.905245 1_655
In6 Ni1 2.905245 1_555
In6 In7 3.171933 1_565
In6 In7 3.171933 1_665
In6 K0 3.863072 1_566
In6 K0 3.863072 1_666
In7 Ni0 2.552385 1_555
In7 Ni1 2.552385 1_545
In8 Ni1 2.552385 1_555
In8 Ni0 2.552385 1_554
