# generated using pymatgen
data_K4Ti2PO4F9
_symmetry_space_group_name_H-M   'P 1'
_cell_length_a   11.16271500
_cell_length_b   5.93705200
_cell_length_c   20.49010550
_cell_angle_alpha   74.14203605
_cell_angle_beta   90.00000000
_cell_angle_gamma   90.00000000
_symmetry_Int_Tables_number   1
_chemical_formula_structural   K4Ti2PO4F9
_chemical_formula_sum   'K16 Ti8 P4 O16 F36'
_cell_volume   1306.27252314
_cell_formula_units_Z   4
loop_
 _symmetry_equiv_pos_site_id
 _symmetry_equiv_pos_as_xyz
  1  'x, y, z'
loop_
 _atom_site_type_symbol
 _atom_site_label
 _atom_site_symmetry_multiplicity
 _atom_site_fract_x
 _atom_site_fract_y
 _atom_site_fract_z
 _atom_site_occupancy
  K  K0  1  0.04627000  0.65707500  0.83271800  1
  K  K1  1  0.45373000  0.65707500  0.33271800  1
  K  K2  1  0.26891800  0.45637700  0.51575600  1
  K  K3  1  0.73108200  0.54362300  0.48424400  1
  K  K4  1  0.75602000  0.12795000  0.85981000  1
  K  K5  1  0.76891800  0.54362300  0.98424400  1
  K  K6  1  0.45588800  0.64069700  0.84851100  1
  K  K7  1  0.04411200  0.64069700  0.34851100  1
  K  K8  1  0.24398000  0.87205000  0.14019000  1
  K  K9  1  0.95588800  0.35930300  0.65148900  1
  K  K10  1  0.54411200  0.35930300  0.15148900  1
  K  K11  1  0.54627000  0.34292500  0.66728200  1
  K  K12  1  0.25602000  0.87205000  0.64019000  1
  K  K13  1  0.23108200  0.45637700  0.01575600  1
  K  K14  1  0.74398000  0.12795000  0.35981000  1
  K  K15  1  0.95373000  0.34292500  0.16728200  1
  Ti  Ti0  1  0.00000000  0.00000000  0.50000000  1
  Ti  Ti1  1  0.74615800  0.71927000  0.75491800  1
  Ti  Ti2  1  0.25384200  0.28073000  0.24508200  1
  Ti  Ti3  1  0.24615800  0.28073000  0.74508200  1
  Ti  Ti4  1  0.50000000  0.00000000  0.00000000  1
  Ti  Ti5  1  0.00000000  0.00000000  0.00000000  1
  Ti  Ti6  1  0.75384200  0.71927000  0.25491800  1
  Ti  Ti7  1  0.50000000  0.00000000  0.50000000  1
  P  P0  1  0.75249700  0.95526900  0.59155800  1
  P  P1  1  0.25249700  0.04473100  0.90844200  1
  P  P2  1  0.74750300  0.95526900  0.09155800  1
  P  P3  1  0.24750300  0.04473100  0.40844200  1
  O  O0  1  0.16121900  0.07792500  0.96330000  1
  O  O1  1  0.37704800  0.12040900  0.93061000  1
  O  O2  1  0.74918800  0.20021200  0.09983500  1
  O  O3  1  0.62295200  0.87959100  0.06939000  1
  O  O4  1  0.83878100  0.92207500  0.03670000  1
  O  O5  1  0.24918800  0.79978800  0.40016500  1
  O  O6  1  0.33878100  0.07792500  0.46330000  1
  O  O7  1  0.21978300  0.23604700  0.84104200  1
  O  O8  1  0.71978300  0.76395300  0.65895800  1
  O  O9  1  0.28021700  0.23604700  0.34104200  1
  O  O10  1  0.12295200  0.12040900  0.43061000  1
  O  O11  1  0.25081200  0.79978800  0.90016500  1
  O  O12  1  0.66121900  0.92207500  0.53670000  1
  O  O13  1  0.75081200  0.20021200  0.59983500  1
  O  O14  1  0.87704800  0.87959100  0.56939000  1
  O  O15  1  0.78021700  0.76395300  0.15895800  1
  F  F0  1  0.96075500  0.85205600  0.93166800  1
  F  F1  1  0.44177100  0.71254900  0.55781700  1
  F  F2  1  0.77038700  0.66391700  0.85120000  1
  F  F3  1  0.13208600  0.05554100  0.25772200  1
  F  F4  1  0.12712200  0.52040000  0.72393300  1
  F  F5  1  0.13801000  0.52087800  0.23994700  1
  F  F6  1  0.03924500  0.14794400  0.06833200  1
  F  F7  1  0.36791400  0.05554100  0.75772200  1
  F  F8  1  0.90184000  0.25787200  0.45624000  1
  F  F9  1  0.94177100  0.28745100  0.94218300  1
  F  F10  1  0.46075500  0.14794400  0.56833200  1
  F  F11  1  0.86791400  0.94445900  0.74227800  1
  F  F12  1  0.37287800  0.52040000  0.22393300  1
  F  F13  1  0.36199000  0.52087800  0.73994700  1
  F  F14  1  0.92836200  0.82743200  0.44404500  1
  F  F15  1  0.86890000  0.94447600  0.26223600  1
  F  F16  1  0.72961300  0.66391700  0.35120000  1
  F  F17  1  0.09816000  0.74212800  0.54376000  1
  F  F18  1  0.07163800  0.17256800  0.55595500  1
  F  F19  1  0.40184000  0.74212800  0.04376000  1
  F  F20  1  0.53924500  0.85205600  0.43166800  1
  F  F21  1  0.55822900  0.28745100  0.44218300  1
  F  F22  1  0.63208600  0.94445900  0.24227800  1
  F  F23  1  0.27038700  0.33608300  0.64880000  1
  F  F24  1  0.42836200  0.17256800  0.05595500  1
  F  F25  1  0.86199000  0.47912200  0.76005300  1
  F  F26  1  0.13110000  0.05552400  0.73776400  1
  F  F27  1  0.05822900  0.71254900  0.05781700  1
  F  F28  1  0.22961300  0.33608300  0.14880000  1
  F  F29  1  0.87287800  0.47960000  0.27606700  1
  F  F30  1  0.63110000  0.94447600  0.76223600  1
  F  F31  1  0.63801000  0.47912200  0.26005300  1
  F  F32  1  0.59816000  0.25787200  0.95624000  1
  F  F33  1  0.36890000  0.05552400  0.23776400  1
  F  F34  1  0.57163800  0.82743200  0.94404500  1
  F  F35  1  0.62712200  0.47960000  0.77606700  1
loop_
_geom_bond_atom_site_label_1
_geom_bond_atom_site_label_2
_geom_bond_distance
_geom_bond_site_symmetry_2
K0 O11 2.912209 1_555
K0 O7 3.129841 1_555
K1 O5 2.912209 1_555
K1 O9 3.129841 1_555
K2 O5 2.678808 1_555
K2 O6 2.851627 1_555
K3 O13 2.678808 1_555
K3 O12 2.851627 1_555
K5 O2 2.678808 1_556
K5 O4 2.851627 1_556
K6 O11 2.792694 1_555
K6 O1 3.210346 1_555
K7 O5 2.792694 1_555
K7 O10 3.210346 1_555
K9 O13 2.792694 1_555
K9 O14 3.210346 1_555
K10 O2 2.792694 1_555
K10 O3 3.210346 1_555
K11 O13 2.912209 1_555
K11 O8 3.129841 1_555
K13 O11 2.678808 1_554
K13 O0 2.851627 1_554
K15 O2 2.912209 1_555
K15 O15 3.129841 1_555
O0 P1 1.568936 1_555
O0 Ti5 1.956554 1_556
O1 P1 1.566122 1_555
O1 Ti4 1.964893 1_556
O2 P2 1.509542 1_545
O3 P2 1.566122 1_555
O3 Ti4 1.964893 1_565
O4 P2 1.568936 1_555
O4 Ti5 1.956554 1_665
O5 P3 1.509542 1_565
O6 P3 1.568936 1_555
O6 Ti7 1.956554 1_555
O7 P1 1.572733 1_555
O7 Ti3 1.933405 1_555
O8 P0 1.572733 1_555
O8 Ti1 1.933405 1_555
O9 P3 1.572733 1_555
O9 Ti2 1.933405 1_555
O10 P3 1.566122 1_555
O10 Ti0 1.964893 1_555
O11 P1 1.509542 1_565
O12 P0 1.568936 1_555
O12 Ti7 1.956554 1_565
O13 P0 1.509542 1_545
O14 P0 1.566122 1_555
O14 Ti0 1.964893 1_665
O15 P2 1.572733 1_555
O15 Ti6 1.933405 1_555
F0 Ti5 1.896280 1_666
F0 K0 2.764907 1_655
F0 K5 2.832202 1_555
F0 K4 2.959043 1_565
F1 Ti7 1.906188 1_565
F1 K2 2.737748 1_555
F1 K11 2.918440 1_555
F1 K12 2.986361 1_555
F2 Ti1 1.928440 1_555
F2 K5 2.622568 1_555
F2 K4 2.812903 1_565
F2 K0 3.104420 1_655
F2 K4 3.142543 1_555
F3 Ti2 1.874174 1_555
F3 K7 2.826157 1_545
F3 K15 2.929353 1_455
F3 K8 3.159161 1_545
F4 Ti3 1.908181 1_555
F4 K12 2.723154 1_555
F4 K0 2.725802 1_555
F4 K9 2.747300 1_455
F5 Ti2 1.906242 1_555
F5 K7 2.723571 1_555
F5 K8 2.755946 1_555
F5 K15 2.902464 1_455
F6 Ti5 1.896280 1_555
F6 K15 2.764907 1_455
F6 K13 2.832202 1_555
F6 K8 2.959043 1_545
F7 Ti3 1.874174 1_555
F7 K6 2.826157 1_545
F7 K11 2.929353 1_555
F7 K12 3.159161 1_545
F8 Ti0 1.896928 1_655
F8 K3 2.715279 1_555
F8 K14 2.904668 1_555
F8 K7 3.133484 1_655
F9 Ti5 1.906188 1_656
F9 K5 2.737748 1_555
F9 K0 2.918440 1_655
F9 K4 2.986361 1_555
F10 Ti7 1.896280 1_555
F10 K11 2.764907 1_555
F10 K2 2.832202 1_555
F10 K12 2.959043 1_545
F11 Ti1 1.874174 1_555
F11 K9 2.826157 1_565
F11 K0 2.929353 1_655
F11 K4 3.159161 1_565
F12 Ti2 1.908181 1_555
F12 K8 2.723154 1_555
F12 K1 2.725802 1_555
F12 K10 2.747300 1_555
F13 Ti3 1.906242 1_555
F13 K6 2.723571 1_555
F13 K12 2.755946 1_555
F13 K11 2.902464 1_555
F14 Ti0 1.909359 1_665
F14 K3 2.758395 1_555
F14 K7 2.813617 1_655
F14 K14 2.952220 1_565
F15 Ti6 1.889275 1_555
F15 K15 2.786197 1_565
F15 K14 2.884172 1_565
F15 K7 2.908737 1_655
F16 Ti6 1.928440 1_555
F16 K3 2.622568 1_555
F16 K14 2.812903 1_565
F16 K1 3.104420 1_555
F16 K14 3.142543 1_555
F17 Ti0 1.896928 1_565
F17 K2 2.715279 1_555
F17 K12 2.904668 1_555
F17 K9 3.133484 1_455
F18 Ti0 1.909359 1_555
F18 K2 2.758395 1_555
F18 K9 2.813617 1_455
F18 K12 2.952220 1_545
F19 Ti4 1.896928 1_565
F19 K13 2.715279 1_555
F19 K8 2.904668 1_555
F19 K10 3.133484 1_555
F20 Ti7 1.896280 1_565
F20 K1 2.764907 1_555
F20 K3 2.832202 1_555
F20 K14 2.959043 1_565
F21 Ti7 1.906188 1_555
F21 K3 2.737748 1_555
F21 K1 2.918440 1_555
F21 K14 2.986361 1_555
F22 Ti6 1.874174 1_555
F22 K10 2.826157 1_565
F22 K1 2.929353 1_555
F22 K14 3.159161 1_565
F23 Ti3 1.928440 1_555
F23 K2 2.622568 1_555
F23 K12 2.812903 1_545
F23 K11 3.104420 1_555
F23 K12 3.142543 1_555
F24 Ti4 1.909359 1_555
F24 K13 2.758395 1_555
F24 K10 2.813617 1_555
F24 K8 2.952220 1_545
F25 Ti1 1.906242 1_555
F25 K9 2.723571 1_555
F25 K4 2.755946 1_555
F25 K0 2.902464 1_655
F26 Ti3 1.889275 1_555
F26 K0 2.786197 1_545
F26 K12 2.884172 1_545
F26 K9 2.908737 1_455
F27 Ti5 1.906188 1_565
F27 K13 2.737748 1_555
F27 K15 2.918440 1_455
F27 K8 2.986361 1_555
F28 Ti2 1.928440 1_555
F28 K13 2.622568 1_555
F28 K8 2.812903 1_545
F28 K15 3.104420 1_455
F28 K8 3.142543 1_555
F29 Ti6 1.908181 1_555
F29 K14 2.723154 1_555
F29 K15 2.725802 1_555
F29 K7 2.747300 1_655
F30 Ti1 1.889275 1_555
F30 K11 2.786197 1_565
F30 K4 2.884172 1_565
F30 K6 2.908737 1_555
F31 Ti6 1.906242 1_555
F31 K10 2.723571 1_555
F31 K14 2.755946 1_555
F31 K1 2.902464 1_555
F32 Ti4 1.896928 1_556
F32 K5 2.715279 1_555
F32 K4 2.904668 1_555
F32 K6 3.133484 1_555
F33 Ti2 1.889275 1_555
F33 K1 2.786197 1_545
F33 K8 2.884172 1_545
F33 K10 2.908737 1_555
F34 Ti4 1.909359 1_566
F34 K5 2.758395 1_555
F34 K6 2.813617 1_555
F34 K4 2.952220 1_565
F35 Ti1 1.908181 1_555
F35 K4 2.723154 1_555
F35 K11 2.725802 1_555
F35 K6 2.747300 1_555
