# generated using pymatgen
data_Ag2WO4
_symmetry_space_group_name_H-M   'P 1'
_cell_length_a   5.98296300
_cell_length_b   10.95570600
_cell_length_c   12.62809400
_cell_angle_alpha   90.00000000
_cell_angle_beta   90.00000000
_cell_angle_gamma   90.00000000
_symmetry_Int_Tables_number   1
_chemical_formula_structural   Ag2WO4
_chemical_formula_sum   'Ag16 W8 O32'
_cell_volume   827.74104764
_cell_formula_units_Z   8
loop_
 _symmetry_equiv_pos_site_id
 _symmetry_equiv_pos_as_xyz
  1  'x, y, z'
loop_
 _atom_site_type_symbol
 _atom_site_label
 _atom_site_symmetry_multiplicity
 _atom_site_fract_x
 _atom_site_fract_y
 _atom_site_fract_z
 _atom_site_occupancy
  Ag  Ag0  1  0.00000000  0.50000000  0.50000000  1
  Ag  Ag1  1  0.50000000  0.00000000  0.00000000  1
  Ag  Ag2  1  0.50000000  0.50000000  0.31268400  1
  Ag  Ag3  1  0.00000000  0.00000000  0.81268400  1
  Ag  Ag4  1  0.50000000  0.50000000  0.68731600  1
  Ag  Ag5  1  0.00000000  0.00000000  0.18731600  1
  Ag  Ag6  1  0.50000000  0.50000000  0.00000000  1
  Ag  Ag7  1  0.00000000  0.00000000  0.50000000  1
  Ag  Ag8  1  0.51457200  0.25800300  0.82607100  1
  Ag  Ag9  1  0.48542800  0.74199700  0.82607100  1
  Ag  Ag10  1  0.98542800  0.75800300  0.32607100  1
  Ag  Ag11  1  0.01457200  0.24199700  0.32607100  1
  Ag  Ag12  1  0.98542800  0.75800300  0.67392900  1
  Ag  Ag13  1  0.51457200  0.25800300  0.17392900  1
  Ag  Ag14  1  0.01457200  0.24199700  0.67392900  1
  Ag  Ag15  1  0.48542800  0.74199700  0.17392900  1
  W  W0  1  0.00000000  0.50000000  0.14093100  1
  W  W1  1  0.50000000  0.00000000  0.64093100  1
  W  W2  1  0.00000000  0.50000000  0.85906900  1
  W  W3  1  0.50000000  0.00000000  0.35906900  1
  W  W4  1  0.02624400  0.24458000  0.00000000  1
  W  W5  1  0.97375600  0.75542000  0.00000000  1
  W  W6  1  0.47375600  0.74458000  0.50000000  1
  W  W7  1  0.52624400  0.25542000  0.50000000  1
  O  O0  1  0.35989100  0.31674600  0.38908100  1
  O  O1  1  0.64010900  0.68325300  0.38908100  1
  O  O2  1  0.14010900  0.81674700  0.88908100  1
  O  O3  1  0.85989100  0.18325400  0.88908100  1
  O  O4  1  0.35989100  0.31674600  0.61091900  1
  O  O5  1  0.64010900  0.68325300  0.61091900  1
  O  O6  1  0.14010900  0.81674700  0.11091900  1
  O  O7  1  0.85989100  0.18325400  0.11091900  1
  O  O8  1  0.34943300  0.08732400  0.50000000  1
  O  O9  1  0.65056700  0.91267600  0.50000000  1
  O  O10  1  0.15056700  0.58732400  0.00000000  1
  O  O11  1  0.84943300  0.41267600  0.00000000  1
  O  O12  1  0.77405600  0.35390200  0.50000000  1
  O  O13  1  0.22594400  0.64609800  0.50000000  1
  O  O14  1  0.72594400  0.85390200  0.00000000  1
  O  O15  1  0.27405600  0.14609800  0.00000000  1
  O  O16  1  0.31226900  0.08025300  0.26891200  1
  O  O17  1  0.68773100  0.91974700  0.26891200  1
  O  O18  1  0.18773100  0.58025300  0.76891200  1
  O  O19  1  0.81226900  0.41974700  0.76891200  1
  O  O20  1  0.31226900  0.08025300  0.73108800  1
  O  O21  1  0.68773100  0.91974700  0.73108800  1
  O  O22  1  0.18773100  0.58025300  0.23108800  1
  O  O23  1  0.81226900  0.41974700  0.23108800  1
  O  O24  1  0.19645100  0.36337000  0.10841000  1
  O  O25  1  0.80355000  0.63663000  0.10841000  1
  O  O26  1  0.30355000  0.86337000  0.60841000  1
  O  O27  1  0.69645000  0.13663000  0.60841000  1
  O  O28  1  0.69645000  0.13663000  0.39159000  1
  O  O29  1  0.80355000  0.63663000  0.89159000  1
  O  O30  1  0.30355000  0.86337000  0.39159000  1
  O  O31  1  0.19645100  0.36337000  0.89159000  1
loop_
_geom_bond_atom_site_label_1
_geom_bond_atom_site_label_2
_geom_bond_distance
_geom_bond_site_symmetry_2
Ag0 O13 2.095076 1_555
Ag0 O12 2.095076 1_455
Ag1 O15 2.095076 1_555
Ag1 O14 2.095076 1_545
Ag2 O23 2.307660 1_555
Ag2 O22 2.307660 1_555
Ag2 O1 2.379948 1_555
Ag2 O0 2.379958 1_555
Ag3 O20 2.307660 1_555
Ag3 O21 2.307660 1_445
Ag3 O2 2.379948 1_545
Ag3 O3 2.379958 1_455
Ag4 O19 2.307660 1_555
Ag4 O18 2.307660 1_555
Ag4 O5 2.379948 1_555
Ag4 O4 2.379958 1_555
Ag5 O16 2.307660 1_555
Ag5 O17 2.307660 1_445
Ag5 O6 2.379948 1_545
Ag5 O7 2.379958 1_455
Ag6 O10 2.299144 1_555
Ag6 O11 2.299144 1_555
Ag6 O31 2.722708 1_554
Ag6 O24 2.722708 1_555
Ag6 O29 2.722712 1_554
Ag6 O25 2.722712 1_555
Ag7 O8 2.299144 1_555
Ag7 O9 2.299144 1_445
Ag7 O30 2.722712 1_545
Ag7 O28 2.722712 1_455
Ag7 O26 2.722712 1_545
Ag7 O27 2.722712 1_455
Ag8 O3 2.360563 1_555
Ag8 O31 2.374806 1_555
Ag8 O20 2.587656 1_555
Ag8 O19 2.614080 1_555
Ag9 O2 2.360567 1_555
Ag9 O29 2.374810 1_555
Ag9 O21 2.587656 1_555
Ag9 O18 2.614080 1_555
Ag10 O1 2.360567 1_555
Ag10 O30 2.374810 1_655
Ag10 O22 2.587656 1_655
Ag10 O17 2.614080 1_555
Ag11 O0 2.360563 1_555
Ag11 O28 2.374810 1_455
Ag11 O23 2.587656 1_455
Ag11 O16 2.614080 1_555
Ag12 O5 2.360567 1_555
Ag12 O26 2.374810 1_655
Ag12 O18 2.587656 1_655
Ag12 O21 2.614080 1_555
Ag13 O7 2.360563 1_555
Ag13 O24 2.374806 1_555
Ag13 O16 2.587656 1_555
Ag13 O23 2.614080 1_555
Ag14 O4 2.360563 1_555
Ag14 O27 2.374810 1_455
Ag14 O19 2.587656 1_455
Ag14 O20 2.614080 1_555
Ag15 O6 2.360567 1_555
Ag15 O25 2.374810 1_555
Ag15 O17 2.587656 1_555
Ag15 O22 2.614080 1_555
O0 W7 1.844979 1_555
O1 W6 1.844983 1_555
O2 W5 1.844983 1_456
O3 W4 1.844979 1_656
O4 W7 1.844979 1_555
O5 W6 1.844983 1_555
O6 W5 1.844983 1_455
O7 W4 1.844979 1_655
O8 W7 2.123813 1_555
O8 W1 2.212255 1_555
O8 W3 2.212255 1_555
O9 W6 2.123813 1_555
O9 W1 2.212255 1_565
O9 W3 2.212255 1_565
O10 W5 2.123813 1_455
O10 W2 2.212255 1_554
O10 W0 2.212255 1_555
O11 W4 2.123813 1_655
O11 W0 2.212255 1_655
O11 W2 2.212255 1_654
O12 W7 1.833675 1_555
O13 W6 1.833675 1_555
O14 W5 1.833675 1_555
O15 W4 1.833675 1_555
O16 W3 1.825048 1_555
O17 W3 1.825048 1_565
O18 W2 1.825048 1_555
O19 W2 1.825048 1_655
O20 W1 1.825048 1_555
O21 W1 1.825048 1_565
O22 W0 1.825048 1_555
O23 W0 1.825048 1_655
O24 W0 1.946990 1_555
O24 W4 2.145910 1_555
O25 W0 1.946986 1_655
O25 W5 2.145907 1_555
O26 W1 1.946986 1_565
O26 W6 2.145907 1_555
O27 W1 1.946986 1_555
O27 W7 2.145907 1_555
O28 W3 1.946986 1_555
O28 W7 2.145907 1_555
O29 W2 1.946986 1_655
O29 W5 2.145907 1_556
O30 W3 1.946986 1_565
O30 W6 2.145907 1_555
O31 W2 1.946990 1_555
O31 W4 2.145910 1_556
