# generated using pymatgen
data_Cr2PBrO4
_symmetry_space_group_name_H-M   'P 1'
_cell_length_a   6.33709951
_cell_length_b   6.50969380
_cell_length_c   11.86156600
_cell_angle_alpha   89.99960792
_cell_angle_beta   90.00005535
_cell_angle_gamma   90.60485442
_symmetry_Int_Tables_number   1
_chemical_formula_structural   Cr2PBrO4
_chemical_formula_sum   'Cr8 P4 Br4 O16'
_cell_volume   489.29290401
_cell_formula_units_Z   4
loop_
 _symmetry_equiv_pos_site_id
 _symmetry_equiv_pos_as_xyz
  1  'x, y, z'
loop_
 _atom_site_type_symbol
 _atom_site_label
 _atom_site_symmetry_multiplicity
 _atom_site_fract_x
 _atom_site_fract_y
 _atom_site_fract_z
 _atom_site_occupancy
  Cr  Cr0  1  0.99428700  0.85755500  0.88665700  1
  Cr  Cr1  1  0.49434500  0.85757000  0.61338900  1
  Cr  Cr2  1  0.15216000  0.53215700  0.39488700  1
  Cr  Cr3  1  0.65218600  0.53218700  0.10508300  1
  Cr  Cr4  1  0.00539400  0.14235100  0.11341300  1
  Cr  Cr5  1  0.50534900  0.14236700  0.38663300  1
  Cr  Cr6  1  0.34792100  0.46813100  0.89477300  1
  Cr  Cr7  1  0.84790400  0.46815600  0.60520300  1
  P  P0  1  0.13431700  0.64251600  0.12708300  1
  P  P1  1  0.36573900  0.35740600  0.62709500  1
  P  P2  1  0.63430400  0.64253500  0.37290900  1
  P  P3  1  0.86575400  0.35738700  0.87289700  1
  Br  Br0  1  0.98991500  0.87190900  0.66624400  1
  Br  Br1  1  0.48991600  0.87191400  0.83376400  1
  Br  Br2  1  0.51015500  0.12808100  0.16622100  1
  Br  Br3  1  0.01014700  0.12808000  0.33378200  1
  O  O0  1  0.31789500  0.30968600  0.74896100  1
  O  O1  1  0.81789500  0.30970300  0.75102400  1
  O  O2  1  0.18215400  0.69026100  0.24894000  1
  O  O3  1  0.68215300  0.69024400  0.25104700  1
  O  O4  1  0.16227500  0.41790500  0.56055200  1
  O  O5  1  0.83774200  0.58207600  0.43945300  1
  O  O6  1  0.66227400  0.41790500  0.93943400  1
  O  O7  1  0.33774500  0.58207500  0.06052900  1
  O  O8  1  0.53245900  0.83303700  0.43443000  1
  O  O9  1  0.46756300  0.16689200  0.56558700  1
  O  O10  1  0.96756400  0.16689000  0.93442800  1
  O  O11  1  0.03246200  0.83303800  0.06558300  1
  O  O12  1  0.47099500  0.45915100  0.38323500  1
  O  O13  1  0.97100300  0.45914200  0.11676200  1
  O  O14  1  0.52901100  0.54084800  0.61678700  1
  O  O15  1  0.02901600  0.54084600  0.88321200  1
loop_
_geom_bond_atom_site_label_1
_geom_bond_atom_site_label_2
_geom_bond_distance
_geom_bond_site_symmetry_2
Cr0 O15 2.076103 1_655
Cr0 O10 2.100444 1_565
Cr0 O11 2.142229 1_656
Cr1 O14 2.076130 1_555
Cr1 O9 2.100488 1_565
Cr1 O8 2.142583 1_555
Cr2 O2 2.021920 1_555
Cr2 O12 2.085093 1_555
Cr2 O5 2.090159 1_455
Cr2 O4 2.102299 1_555
Cr3 O3 2.021934 1_555
Cr3 O13 2.085063 1_555
Cr3 O7 2.090226 1_555
Cr3 O6 2.102194 1_554
Cr4 O13 2.076364 1_455
Cr4 O11 2.100695 1_545
Cr4 O10 2.142685 1_454
Cr5 O12 2.076302 1_555
Cr5 O8 2.100712 1_545
Cr5 O9 2.142285 1_555
Cr6 O0 2.021708 1_555
Cr6 O15 2.085002 1_555
Cr6 O6 2.090380 1_555
Cr6 O7 2.102622 1_556
Cr7 O1 2.021805 1_555
Cr7 O14 2.084911 1_555
Cr7 O4 2.090488 1_655
Cr7 O5 2.102487 1_555
Br0 Cr0 2.616269 1_555
Br0 Cr7 2.862205 1_555
Br0 Cr1 3.202838 1_555
Br0 Cr1 3.259827 1_655
Br1 Cr1 2.615822 1_555
Br1 Cr6 2.862248 1_555
Br1 Cr0 3.203296 1_455
Br1 Cr0 3.259551 1_555
Br2 Cr5 2.616274 1_555
Br2 Cr3 2.864628 1_555
Br2 Cr4 3.200665 1_655
Br2 Cr4 3.261759 1_555
Br3 Cr4 2.615756 1_555
Br3 Cr2 2.864330 1_555
Br3 Cr5 3.200536 1_555
Br3 Cr5 3.262093 1_455
O0 P1 1.508630 1_555
O1 P3 1.508684 1_555
O2 P0 1.508555 1_555
O3 P2 1.508576 1_555
O4 P1 1.565662 1_555
O5 P2 1.565464 1_555
O6 P3 1.565746 1_555
O7 P0 1.565445 1_555
O8 P2 1.582353 1_555
O9 P1 1.582288 1_555
O10 P3 1.582281 1_555
O11 P0 1.582359 1_555
O12 P2 1.576401 1_555
O13 P0 1.576370 1_655
O14 P1 1.576516 1_555
O15 P3 1.576566 1_455
