# generated using pymatgen
data_SmSI
_symmetry_space_group_name_H-M   'P 1'
_cell_length_a   11.50049303
_cell_length_b   11.50049303
_cell_length_c   11.50049331
_cell_angle_alpha   22.96826094
_cell_angle_beta   22.96826094
_cell_angle_gamma   22.96825805
_symmetry_Int_Tables_number   1
_chemical_formula_structural   SmSI
_chemical_formula_sum   'Sm2 S2 I2'
_cell_volume   203.27130365
_cell_formula_units_Z   2
loop_
 _symmetry_equiv_pos_site_id
 _symmetry_equiv_pos_as_xyz
  1  'x, y, z'
loop_
 _atom_site_type_symbol
 _atom_site_label
 _atom_site_symmetry_multiplicity
 _atom_site_fract_x
 _atom_site_fract_y
 _atom_site_fract_z
 _atom_site_occupancy
  Sm  Sm0  1  0.38669006  0.38669006  0.38669006  1
  Sm  Sm1  1  0.61330994  0.61330994  0.61330994  1
  S  S0  1  0.30244141  0.30244141  0.30244141  1
  S  S1  1  0.69755859  0.69755859  0.69755859  1
  I  I0  1  0.11312424  0.11312424  0.11312424  1
  I  I1  1  0.88687576  0.88687576  0.88687576  1
loop_
_geom_bond_atom_site_label_1
_geom_bond_atom_site_label_2
_geom_bond_distance
_geom_bond_site_symmetry_2
S0 Sm1 2.749424 1_545
S0 Sm1 2.749424 1_455
S0 Sm1 2.749424 1_554
S0 Sm0 2.828847 1_555
S1 Sm0 2.749424 1_565
S1 Sm0 2.749424 1_655
S1 Sm0 2.749424 1_556
S1 Sm1 2.828847 1_555
I0 Sm0 3.319298 1_455
I0 Sm0 3.319298 1_545
I0 Sm0 3.319298 1_554
I1 Sm1 3.319298 1_655
I1 Sm1 3.319298 1_565
I1 Sm1 3.319298 1_556
