# generated using pymatgen
data_Zn2TeBr2O3
_symmetry_space_group_name_H-M   'P 1'
_cell_length_a   7.83068100
_cell_length_b   10.74964700
_cell_length_c   16.48590300
_cell_angle_alpha   90.00000000
_cell_angle_beta   90.00000000
_cell_angle_gamma   90.00000000
_symmetry_Int_Tables_number   1
_chemical_formula_structural   Zn2TeBr2O3
_chemical_formula_sum   'Zn16 Te8 Br16 O24'
_cell_volume   1387.73478861
_cell_formula_units_Z   8
loop_
 _symmetry_equiv_pos_site_id
 _symmetry_equiv_pos_as_xyz
  1  'x, y, z'
loop_
 _atom_site_type_symbol
 _atom_site_label
 _atom_site_symmetry_multiplicity
 _atom_site_fract_x
 _atom_site_fract_y
 _atom_site_fract_z
 _atom_site_occupancy
  Zn  Zn0  1  0.39976200  0.23542000  0.97796100  1
  Zn  Zn1  1  0.34242500  0.98957000  0.39316900  1
  Zn  Zn2  1  0.65757500  0.48957000  0.89316900  1
  Zn  Zn3  1  0.65757500  0.01043000  0.60683100  1
  Zn  Zn4  1  0.60023800  0.76458000  0.02203900  1
  Zn  Zn5  1  0.39976200  0.26458000  0.52203900  1
  Zn  Zn6  1  0.84242500  0.51043000  0.39316900  1
  Zn  Zn7  1  0.60023800  0.73542000  0.47796100  1
  Zn  Zn8  1  0.84242500  0.98957000  0.10683100  1
  Zn  Zn9  1  0.15757500  0.01043000  0.89316900  1
  Zn  Zn10  1  0.34242500  0.51043000  0.10683100  1
  Zn  Zn11  1  0.10023800  0.76458000  0.47796100  1
  Zn  Zn12  1  0.89976200  0.23542000  0.52203900  1
  Zn  Zn13  1  0.15757500  0.48957000  0.60683100  1
  Zn  Zn14  1  0.10023800  0.73542000  0.02203900  1
  Zn  Zn15  1  0.89976200  0.26458000  0.97796100  1
  Te  Te0  1  0.78852700  0.96935300  0.40742600  1
  Te  Te1  1  0.28852700  0.53064700  0.40742600  1
  Te  Te2  1  0.71147300  0.46935300  0.59257400  1
  Te  Te3  1  0.21147300  0.46935300  0.90742600  1
  Te  Te4  1  0.28852700  0.96935300  0.09257400  1
  Te  Te5  1  0.78852700  0.53064700  0.09257400  1
  Te  Te6  1  0.21147300  0.03064700  0.59257400  1
  Te  Te7  1  0.71147300  0.03064700  0.90742600  1
  Br  Br0  1  0.34278900  0.41558700  0.70987800  1
  Br  Br1  1  0.93615900  0.29452100  0.37437300  1
  Br  Br2  1  0.15721100  0.58441300  0.20987800  1
  Br  Br3  1  0.56384100  0.70547900  0.87437300  1
  Br  Br4  1  0.15721100  0.91558700  0.29012200  1
  Br  Br5  1  0.43615900  0.29452100  0.12562700  1
  Br  Br6  1  0.06384100  0.70547900  0.62562700  1
  Br  Br7  1  0.65721100  0.58441300  0.29012200  1
  Br  Br8  1  0.93615900  0.20547900  0.12562700  1
  Br  Br9  1  0.65721100  0.91558700  0.20987800  1
  Br  Br10  1  0.34278900  0.08441300  0.79012200  1
  Br  Br11  1  0.84278900  0.41558700  0.79012200  1
  Br  Br12  1  0.43615900  0.20547900  0.37437300  1
  Br  Br13  1  0.84278900  0.08441300  0.70987800  1
  Br  Br14  1  0.06384100  0.79452100  0.87437300  1
  Br  Br15  1  0.56384100  0.79452100  0.62562700  1
  O  O0  1  0.85619000  0.81194300  0.44840100  1
  O  O1  1  0.35619000  0.68805700  0.44840100  1
  O  O2  1  0.64381000  0.18805700  0.94840100  1
  O  O3  1  0.69787300  0.55849400  0.49054300  1
  O  O4  1  0.19787300  0.94150600  0.49054300  1
  O  O5  1  0.43819700  0.09238600  0.57890900  1
  O  O6  1  0.19787300  0.55849400  0.00945700  1
  O  O7  1  0.35619000  0.81194300  0.05159900  1
  O  O8  1  0.56180300  0.90761400  0.42109100  1
  O  O9  1  0.14381000  0.18805700  0.55159900  1
  O  O10  1  0.69787300  0.94150600  0.00945700  1
  O  O11  1  0.64381000  0.31194300  0.55159900  1
  O  O12  1  0.30212700  0.05849400  0.99054300  1
  O  O13  1  0.93819700  0.40761400  0.57890900  1
  O  O14  1  0.56180300  0.59238600  0.07890900  1
  O  O15  1  0.06180300  0.90761400  0.07890900  1
  O  O16  1  0.80212700  0.05849400  0.50945700  1
  O  O17  1  0.30212700  0.44150600  0.50945700  1
  O  O18  1  0.06180300  0.59238600  0.42109100  1
  O  O19  1  0.14381000  0.31194300  0.94840100  1
  O  O20  1  0.85619000  0.68805700  0.05159900  1
  O  O21  1  0.80212700  0.44150600  0.99054300  1
  O  O22  1  0.43819700  0.40761400  0.92109100  1
  O  O23  1  0.93819700  0.09238600  0.92109100  1
loop_
_geom_bond_atom_site_label_1
_geom_bond_atom_site_label_2
_geom_bond_distance
_geom_bond_site_symmetry_2
Br0 Zn13 2.371077 1_555
Br1 Zn6 2.453888 1_555
Br1 Zn12 2.532034 1_555
Br2 Zn10 2.371077 1_555
Br3 Zn2 2.453888 1_555
Br3 Zn4 2.532034 1_556
Br4 Zn1 2.371077 1_555
Br5 Zn10 2.453888 1_555
Br5 Zn0 2.532034 1_554
Br6 Zn13 2.453888 1_555
Br6 Zn11 2.532034 1_555
Br7 Zn6 2.371077 1_555
Br8 Zn8 2.453888 1_545
Br8 Zn15 2.532034 1_554
Br9 Zn8 2.371077 1_555
Br10 Zn9 2.371077 1_555
Br11 Zn2 2.371077 1_555
Br12 Zn1 2.453888 1_545
Br12 Zn5 2.532034 1_555
Br13 Zn3 2.371077 1_555
Br14 Zn9 2.453888 1_565
Br14 Zn14 2.532034 1_556
Br15 Zn3 2.453888 1_565
Br15 Zn7 2.532034 1_555
O0 Te0 1.897435 1_555
O0 Zn11 2.036875 1_655
O0 Zn7 2.220648 1_555
O1 Te1 1.897435 1_555
O1 Zn7 2.036875 1_555
O1 Zn11 2.220648 1_555
O2 Te7 1.897435 1_555
O2 Zn0 2.036875 1_555
O2 Zn15 2.220648 1_555
O3 Te2 1.938795 1_555
O3 Zn6 2.031064 1_555
O3 Zn7 2.060280 1_555
O4 Te6 1.938795 1_565
O4 Zn1 2.031064 1_555
O4 Zn11 2.060280 1_555
O5 Te6 1.908735 1_555
O5 Zn3 1.984732 1_555
O5 Zn5 2.096636 1_555
O6 Te3 1.938795 1_554
O6 Zn10 2.031064 1_555
O6 Zn14 2.060280 1_555
O7 Te4 1.897435 1_555
O7 Zn4 2.036875 1_555
O7 Zn14 2.220648 1_555
O8 Te0 1.908735 1_555
O8 Zn1 1.984732 1_555
O8 Zn7 2.096636 1_555
O9 Te6 1.897435 1_555
O9 Zn12 2.036875 1_455
O9 Zn5 2.220648 1_555
O10 Te7 1.938795 1_564
O10 Zn8 2.031064 1_555
O10 Zn4 2.060280 1_555
O11 Te2 1.897435 1_555
O11 Zn5 2.036875 1_555
O11 Zn12 2.220648 1_555
O12 Te4 1.938795 1_546
O12 Zn9 2.031064 1_555
O12 Zn0 2.060280 1_555
O13 Te2 1.908735 1_555
O13 Zn13 1.984732 1_655
O13 Zn12 2.096636 1_555
O14 Te5 1.908735 1_555
O14 Zn10 1.984732 1_555
O14 Zn4 2.096636 1_555
O15 Te4 1.908735 1_555
O15 Zn8 1.984732 1_455
O15 Zn14 2.096636 1_555
O16 Te0 1.938795 1_545
O16 Zn3 2.031064 1_555
O16 Zn12 2.060280 1_555
O17 Te1 1.938795 1_555
O17 Zn13 2.031064 1_555
O17 Zn5 2.060280 1_555
O18 Te1 1.908735 1_555
O18 Zn6 1.984732 1_455
O18 Zn11 2.096636 1_555
O19 Te3 1.897435 1_555
O19 Zn15 2.036875 1_455
O19 Zn0 2.220648 1_555
O20 Te5 1.897435 1_555
O20 Zn14 2.036875 1_655
O20 Zn4 2.220648 1_555
O21 Te5 1.938795 1_556
O21 Zn2 2.031064 1_555
O21 Zn15 2.060280 1_555
O22 Te3 1.908735 1_555
O22 Zn2 1.984732 1_555
O22 Zn0 2.096636 1_555
O23 Te7 1.908735 1_555
O23 Zn9 1.984732 1_655
O23 Zn15 2.096636 1_555
