# generated using pymatgen
data_Bi9Rh2I3
_symmetry_space_group_name_H-M   'P 1'
_cell_length_a   13.89737400
_cell_length_b   8.14973000
_cell_length_c   9.24971173
_cell_angle_alpha   68.99550952
_cell_angle_beta   90.00000000
_cell_angle_gamma   90.00000000
_symmetry_Int_Tables_number   1
_chemical_formula_structural   Bi9Rh2I3
_chemical_formula_sum   'Bi18 Rh4 I6'
_cell_volume   978.00896195
_cell_formula_units_Z   2
loop_
 _symmetry_equiv_pos_site_id
 _symmetry_equiv_pos_as_xyz
  1  'x, y, z'
loop_
 _atom_site_type_symbol
 _atom_site_label
 _atom_site_symmetry_multiplicity
 _atom_site_fract_x
 _atom_site_fract_y
 _atom_site_fract_z
 _atom_site_occupancy
  Bi  Bi0  1  0.75000000  0.83668900  0.84398400  1
  Bi  Bi1  1  0.25000000  0.16331100  0.15601600  1
  Bi  Bi2  1  0.75000000  0.90482200  0.17326100  1
  Bi  Bi3  1  0.25000000  0.09517800  0.82673900  1
  Bi  Bi4  1  0.75000000  0.28408700  0.88627300  1
  Bi  Bi5  1  0.25000000  0.71591300  0.11372700  1
  Bi  Bi6  1  0.86501100  0.18051000  0.62651400  1
  Bi  Bi7  1  0.36501100  0.81949000  0.37348600  1
  Bi  Bi8  1  0.13498900  0.81949000  0.37348600  1
  Bi  Bi9  1  0.63498900  0.18051000  0.62651400  1
  Bi  Bi10  1  0.96220200  0.13840400  0.18601500  1
  Bi  Bi11  1  0.46220200  0.86159600  0.81398500  1
  Bi  Bi12  1  0.03779800  0.86159600  0.81398500  1
  Bi  Bi13  1  0.53779800  0.13840400  0.18601500  1
  Bi  Bi14  1  0.03271000  0.30468500  0.85262400  1
  Bi  Bi15  1  0.53271000  0.69531500  0.14737600  1
  Bi  Bi16  1  0.96729000  0.69531500  0.14737600  1
  Bi  Bi17  1  0.46729000  0.30468500  0.85262400  1
  Rh  Rh0  1  0.89958300  0.02281800  0.94511200  1
  Rh  Rh1  1  0.39958300  0.97718200  0.05488800  1
  Rh  Rh2  1  0.10041700  0.97718200  0.05488800  1
  Rh  Rh3  1  0.60041700  0.02281800  0.94511200  1
  I  I0  1  0.75000000  0.41319900  0.21319100  1
  I  I1  1  0.25000000  0.58680100  0.78680900  1
  I  I2  1  0.90147300  0.67610700  0.57366300  1
  I  I3  1  0.40147300  0.32389300  0.42633700  1
  I  I4  1  0.09852700  0.32389300  0.42633700  1
  I  I5  1  0.59852700  0.67610700  0.57366300  1
loop_
_geom_bond_atom_site_label_1
_geom_bond_atom_site_label_2
_geom_bond_distance
_geom_bond_site_symmetry_2
Bi0 Rh0 2.917983 1_565
Bi0 Rh3 2.917983 1_565
Bi1 Rh1 2.917983 1_545
Bi1 Rh2 2.917983 1_545
Bi2 Rh0 2.871378 1_564
Bi2 Rh3 2.871378 1_564
Bi2 Bi4 3.273892 1_564
Bi3 Rh1 2.871378 1_546
Bi3 Rh2 2.871378 1_546
Bi3 Bi5 3.273892 1_546
Bi4 Rh0 2.884562 1_555
Bi4 Rh3 2.884562 1_555
Bi4 Bi6 3.239472 1_555
Bi4 Bi9 3.239472 1_555
Bi4 I0 3.540076 1_556
Bi5 Rh1 2.884562 1_555
Bi5 Rh2 2.884562 1_555
Bi5 Bi7 3.239472 1_555
Bi5 Bi8 3.239472 1_555
Bi5 I1 3.540076 1_554
Bi6 Rh0 2.802122 1_555
Bi7 Rh1 2.802122 1_555
Bi8 Rh2 2.802122 1_555
Bi9 Rh3 2.802122 1_555
Bi10 Rh2 2.833635 1_645
Bi10 Rh0 2.848627 1_554
Bi11 Rh3 2.833635 1_565
Bi11 Rh1 2.848627 1_556
Bi12 Rh0 2.833635 1_465
Bi12 Rh2 2.848627 1_556
Bi13 Rh1 2.833635 1_545
Bi13 Rh3 2.848627 1_554
Bi14 Rh2 2.815977 1_546
Bi14 Rh0 2.832462 1_455
Bi15 Rh3 2.815977 1_564
Bi15 Rh1 2.832462 1_555
Bi16 Rh0 2.815977 1_564
Bi16 Rh2 2.832462 1_655
Bi17 Rh1 2.815977 1_546
Bi17 Rh3 2.832462 1_555
