# generated using pymatgen
data_Fe5(BiO4)3
_symmetry_space_group_name_H-M   'P 1'
_cell_length_a   10.94165247
_cell_length_b   10.94165247
_cell_length_c   10.94165247
_cell_angle_alpha   109.47122063
_cell_angle_beta   109.47122063
_cell_angle_gamma   109.47122063
_symmetry_Int_Tables_number   1
_chemical_formula_structural   Fe5(BiO4)3
_chemical_formula_sum   'Fe20 Bi12 O48'
_cell_volume   1008.38611988
_cell_formula_units_Z   4
loop_
 _symmetry_equiv_pos_site_id
 _symmetry_equiv_pos_as_xyz
  1  'x, y, z'
loop_
 _atom_site_type_symbol
 _atom_site_label
 _atom_site_symmetry_multiplicity
 _atom_site_fract_x
 _atom_site_fract_y
 _atom_site_fract_z
 _atom_site_occupancy
  Fe  Fe0  1  0.75000000  0.37500000  0.62500000  1
  Fe  Fe1  1  0.87500000  0.12500000  0.75000000  1
  Fe  Fe2  1  0.00000000  0.50000000  0.50000000  1
  Fe  Fe3  1  0.87500000  0.25000000  0.12500000  1
  Fe  Fe4  1  0.00000000  0.00000000  0.50000000  1
  Fe  Fe5  1  0.00000000  0.50000000  0.00000000  1
  Fe  Fe6  1  0.25000000  0.62500000  0.37500000  1
  Fe  Fe7  1  0.00000000  0.00000000  0.00000000  1
  Fe  Fe8  1  0.37500000  0.25000000  0.62500000  1
  Fe  Fe9  1  0.12500000  0.87500000  0.25000000  1
  Fe  Fe10  1  0.50000000  0.50000000  0.50000000  1
  Fe  Fe11  1  0.62500000  0.75000000  0.37500000  1
  Fe  Fe12  1  0.37500000  0.62500000  0.75000000  1
  Fe  Fe13  1  0.12500000  0.75000000  0.87500000  1
  Fe  Fe14  1  0.25000000  0.12500000  0.87500000  1
  Fe  Fe15  1  0.50000000  0.00000000  0.50000000  1
  Fe  Fe16  1  0.50000000  0.50000000  0.00000000  1
  Fe  Fe17  1  0.62500000  0.37500000  0.25000000  1
  Fe  Fe18  1  0.50000000  0.00000000  0.00000000  1
  Fe  Fe19  1  0.75000000  0.87500000  0.12500000  1
  Bi  Bi0  1  0.12500000  0.37500000  0.75000000  1
  Bi  Bi1  1  0.25000000  0.87500000  0.62500000  1
  Bi  Bi2  1  0.12500000  0.25000000  0.37500000  1
  Bi  Bi3  1  0.37500000  0.75000000  0.12500000  1
  Bi  Bi4  1  0.62500000  0.87500000  0.75000000  1
  Bi  Bi5  1  0.25000000  0.37500000  0.12500000  1
  Bi  Bi6  1  0.62500000  0.25000000  0.87500000  1
  Bi  Bi7  1  0.75000000  0.62500000  0.87500000  1
  Bi  Bi8  1  0.37500000  0.12500000  0.25000000  1
  Bi  Bi9  1  0.87500000  0.75000000  0.62500000  1
  Bi  Bi10  1  0.75000000  0.12500000  0.37500000  1
  Bi  Bi11  1  0.87500000  0.62500000  0.25000000  1
  O  O0  1  0.40527600  0.07828900  0.88669200  1
  O  O1  1  0.42171100  0.09472400  0.61330800  1
  O  O2  1  0.42171100  0.82698700  0.80840300  1
  O  O3  1  0.90527600  0.38669200  0.57828900  1
  O  O4  1  0.40527600  0.82698700  0.51858400  1
  O  O5  1  0.67301300  0.09472400  0.98141600  1
  O  O6  1  0.92171100  0.11330800  0.59472400  1
  O  O7  1  0.92171100  0.30840300  0.32698700  1
  O  O8  1  0.51858400  0.61330800  0.69159700  1
  O  O9  1  0.67301300  0.07828900  0.69159700  1
  O  O10  1  0.90527600  0.01858400  0.32698700  1
  O  O11  1  0.51858400  0.40527600  0.82698700  1
  O  O12  1  0.69159700  0.67301300  0.07828900  1
  O  O13  1  0.61330800  0.42171100  0.09472400  1
  O  O14  1  0.17301300  0.48141600  0.59472400  1
  O  O15  1  0.80840300  0.88669200  0.98141600  1
  O  O16  1  0.61330800  0.69159700  0.51858400  1
  O  O17  1  0.01858400  0.19159700  0.11330800  1
  O  O18  1  0.17301300  0.19159700  0.57828900  1
  O  O19  1  0.88669200  0.98141600  0.80840300  1
  O  O20  1  0.19159700  0.57828900  0.17301300  1
  O  O21  1  0.11330800  0.59472400  0.92171100  1
  O  O22  1  0.01858400  0.32698700  0.90527600  1
  O  O23  1  0.69159700  0.51858400  0.61330800  1
  O  O24  1  0.30840300  0.48141600  0.38669200  1
  O  O25  1  0.98141600  0.67301300  0.09472400  1
  O  O26  1  0.88669200  0.40527600  0.07828900  1
  O  O27  1  0.80840300  0.42171100  0.82698700  1
  O  O28  1  0.11330800  0.01858400  0.19159700  1
  O  O29  1  0.82698700  0.80840300  0.42171100  1
  O  O30  1  0.98141600  0.80840300  0.88669200  1
  O  O31  1  0.38669200  0.30840300  0.48141600  1
  O  O32  1  0.19159700  0.11330800  0.01858400  1
  O  O33  1  0.82698700  0.51858400  0.40527600  1
  O  O34  1  0.38669200  0.57828900  0.90527600  1
  O  O35  1  0.30840300  0.32698700  0.92171100  1
  O  O36  1  0.48141600  0.59472400  0.17301300  1
  O  O37  1  0.09472400  0.98141600  0.67301300  1
  O  O38  1  0.32698700  0.92171100  0.30840300  1
  O  O39  1  0.48141600  0.38669200  0.30840300  1
  O  O40  1  0.07828900  0.69159700  0.67301300  1
  O  O41  1  0.07828900  0.88669200  0.40527600  1
  O  O42  1  0.32698700  0.90527600  0.01858400  1
  O  O43  1  0.59472400  0.17301300  0.48141600  1
  O  O44  1  0.09472400  0.61330800  0.42171100  1
  O  O45  1  0.57828900  0.17301300  0.19159700  1
  O  O46  1  0.57828900  0.90527600  0.38669200  1
  O  O47  1  0.59472400  0.92171100  0.11330800  1
loop_
_geom_bond_atom_site_label_1
_geom_bond_atom_site_label_2
_geom_bond_distance
_geom_bond_site_symmetry_2
Fe0 O3 1.908320 1_555
Fe0 O43 1.908320 1_555
Fe0 O27 1.908320 1_555
Fe0 O23 1.908320 1_555
Fe1 O6 1.908320 1_555
Fe1 O22 1.908320 1_655
Fe1 O9 1.908320 1_555
Fe1 O19 1.908320 1_545
Fe2 O44 1.946351 1_555
Fe2 O7 1.946351 1_455
Fe2 O33 1.946351 1_455
Fe2 O40 1.946351 1_555
Fe2 O14 1.946351 1_555
Fe2 O3 1.946351 1_455
Fe3 O17 1.908320 1_655
Fe3 O5 1.908320 1_554
Fe3 O26 1.908320 1_555
Fe3 O7 1.908320 1_555
Fe4 O41 1.946351 1_545
Fe4 O18 1.946351 1_555
Fe4 O10 1.946351 1_455
Fe4 O37 1.946351 1_545
Fe4 O29 1.946351 1_445
Fe4 O6 1.946351 1_455
Fe5 O26 1.946351 1_455
Fe5 O22 1.946351 1_554
Fe5 O27 1.946351 1_454
Fe5 O20 1.946351 1_555
Fe5 O25 1.946351 1_455
Fe5 O21 1.946351 1_554
Fe6 O44 1.908320 1_555
Fe6 O24 1.908320 1_555
Fe6 O20 1.908320 1_555
Fe6 O4 1.908320 1_555
Fe7 O19 1.946351 1_444
Fe7 O30 1.946351 1_444
Fe7 O17 1.946351 1_555
Fe7 O28 1.946351 1_555
Fe7 O32 1.946351 1_555
Fe7 O15 1.946351 1_444
Fe8 O31 1.908320 1_555
Fe8 O1 1.908320 1_555
Fe8 O18 1.908320 1_555
Fe8 O11 1.908320 1_555
Fe9 O28 1.908320 1_565
Fe9 O25 1.908320 1_455
Fe9 O38 1.908320 1_555
Fe9 O41 1.908320 1_555
Fe10 O16 1.946351 1_555
Fe10 O8 1.946351 1_555
Fe10 O23 1.946351 1_555
Fe10 O39 1.946351 1_555
Fe10 O31 1.946351 1_555
Fe10 O24 1.946351 1_555
Fe11 O46 1.908320 1_555
Fe11 O36 1.908320 1_555
Fe11 O29 1.908320 1_555
Fe11 O16 1.908320 1_555
Fe12 O34 1.908320 1_555
Fe12 O14 1.908320 1_555
Fe12 O2 1.908320 1_555
Fe12 O8 1.908320 1_555
Fe13 O21 1.908320 1_555
Fe13 O42 1.908320 1_556
Fe13 O40 1.908320 1_555
Fe13 O30 1.908320 1_455
Fe14 O32 1.908320 1_556
Fe14 O37 1.908320 1_545
Fe14 O0 1.908320 1_555
Fe14 O35 1.908320 1_555
Fe15 O1 1.946351 1_555
Fe15 O38 1.946351 1_545
Fe15 O4 1.946351 1_545
Fe15 O9 1.946351 1_555
Fe15 O43 1.946351 1_555
Fe15 O46 1.946351 1_545
Fe16 O13 1.946351 1_555
Fe16 O11 1.946351 1_554
Fe16 O35 1.946351 1_554
Fe16 O36 1.946351 1_555
Fe16 O12 1.946351 1_555
Fe16 O34 1.946351 1_554
Fe17 O13 1.908320 1_555
Fe17 O39 1.908320 1_555
Fe17 O45 1.908320 1_555
Fe17 O33 1.908320 1_555
Fe18 O0 1.946351 1_554
Fe18 O45 1.946351 1_555
Fe18 O2 1.946351 1_544
Fe18 O42 1.946351 1_545
Fe18 O5 1.946351 1_554
Fe18 O47 1.946351 1_545
Fe19 O47 1.908320 1_555
Fe19 O12 1.908320 1_555
Fe19 O10 1.908320 1_565
Fe19 O15 1.908320 1_554
Bi0 O6 2.454447 1_455
Bi0 O22 2.454447 1_555
Bi0 O14 2.454447 1_555
Bi0 O34 2.454447 1_555
Bi0 O35 2.584603 1_555
Bi0 O21 2.584603 1_555
Bi0 O3 2.584603 1_455
Bi0 O18 2.584603 1_555
Bi1 O37 2.454447 1_555
Bi1 O4 2.454447 1_555
Bi1 O0 2.454447 1_565
Bi1 O44 2.454447 1_555
Bi1 O40 2.584603 1_555
Bi1 O41 2.584603 1_555
Bi1 O2 2.584603 1_555
Bi1 O1 2.584603 1_565
Bi2 O17 2.454447 1_555
Bi2 O7 2.454447 1_455
Bi2 O31 2.454447 1_555
Bi2 O18 2.454447 1_555
Bi2 O28 2.584603 1_555
Bi2 O24 2.584603 1_555
Bi2 O10 2.584603 1_455
Bi2 O14 2.584603 1_555
Bi3 O42 2.454447 1_555
Bi3 O36 2.454447 1_555
Bi3 O21 2.454447 1_554
Bi3 O46 2.454447 1_555
Bi3 O20 2.584603 1_555
Bi3 O34 2.584603 1_554
Bi3 O47 2.584603 1_555
Bi3 O38 2.584603 1_555
Bi4 O2 2.454447 1_555
Bi4 O19 2.454447 1_555
Bi4 O9 2.454447 1_565
Bi4 O8 2.454447 1_555
Bi4 O16 2.584603 1_555
Bi4 O15 2.584603 1_555
Bi4 O4 2.584603 1_555
Bi4 O5 2.584603 1_565
Bi5 O32 2.454447 1_555
Bi5 O24 2.454447 1_555
Bi5 O20 2.454447 1_555
Bi5 O35 2.454447 1_554
Bi5 O39 2.584603 1_555
Bi5 O36 2.584603 1_555
Bi5 O17 2.584603 1_555
Bi5 O22 2.584603 1_554
Bi6 O5 2.454447 1_555
Bi6 O11 2.454447 1_555
Bi6 O26 2.454447 1_556
Bi6 O1 2.454447 1_555
Bi6 O27 2.584603 1_555
Bi6 O9 2.584603 1_555
Bi6 O0 2.584603 1_555
Bi6 O13 2.584603 1_556
Bi7 O27 2.454447 1_555
Bi7 O23 2.454447 1_555
Bi7 O15 2.454447 1_555
Bi7 O12 2.454447 1_556
Bi7 O30 2.584603 1_555
Bi7 O11 2.584603 1_555
Bi7 O8 2.584603 1_555
Bi7 O25 2.584603 1_556
Bi8 O39 2.454447 1_555
Bi8 O38 2.454447 1_545
Bi8 O28 2.454447 1_555
Bi8 O45 2.454447 1_555
Bi8 O42 2.584603 1_545
Bi8 O32 2.584603 1_555
Bi8 O43 2.584603 1_555
Bi8 O31 2.584603 1_555
Bi9 O29 2.454447 1_555
Bi9 O40 2.454447 1_655
Bi9 O16 2.454447 1_555
Bi9 O30 2.454447 1_555
Bi9 O23 2.584603 1_555
Bi9 O33 2.584603 1_555
Bi9 O37 2.584603 1_655
Bi9 O19 2.584603 1_555
Bi10 O10 2.454447 1_555
Bi10 O47 2.454447 1_545
Bi10 O43 2.454447 1_555
Bi10 O3 2.454447 1_555
Bi10 O7 2.584603 1_555
Bi10 O46 2.584603 1_545
Bi10 O6 2.584603 1_555
Bi10 O45 2.584603 1_555
Bi11 O25 2.454447 1_555
Bi11 O33 2.454447 1_555
Bi11 O41 2.454447 1_655
Bi11 O13 2.454447 1_555
Bi11 O12 2.584603 1_555
Bi11 O29 2.584603 1_555
Bi11 O26 2.584603 1_555
Bi11 O44 2.584603 1_655
