# generated using pymatgen
data_Cs2LiIr(CN)6
_symmetry_space_group_name_H-M   'P 1'
_cell_length_a   7.67894913
_cell_length_b   7.67894913
_cell_length_c   7.67894913
_cell_angle_alpha   60.00000000
_cell_angle_beta   60.00000000
_cell_angle_gamma   60.00000000
_symmetry_Int_Tables_number   1
_chemical_formula_structural   Cs2LiIr(CN)6
_chemical_formula_sum   'Cs2 Li1 Ir1 C6 N6'
_cell_volume   320.17717863
_cell_formula_units_Z   1
loop_
 _symmetry_equiv_pos_site_id
 _symmetry_equiv_pos_as_xyz
  1  'x, y, z'
loop_
 _atom_site_type_symbol
 _atom_site_label
 _atom_site_symmetry_multiplicity
 _atom_site_fract_x
 _atom_site_fract_y
 _atom_site_fract_z
 _atom_site_occupancy
  Cs  Cs0  1  0.75000000  0.75000000  0.75000000  1
  Cs  Cs1  1  0.25000000  0.25000000  0.25000000  1
  Li  Li0  1  0.50000000  0.50000000  0.50000000  1
  Ir  Ir0  1  0.00000000  0.00000000  0.00000000  1
  C  C0  1  0.81384700  0.18615300  0.18615300  1
  C  C1  1  0.81384700  0.18615300  0.81384700  1
  C  C2  1  0.81384700  0.81384700  0.18615300  1
  C  C3  1  0.18615300  0.81384700  0.81384700  1
  C  C4  1  0.18615300  0.18615300  0.81384700  1
  C  C5  1  0.18615300  0.81384700  0.18615300  1
  N  N0  1  0.29429800  0.70570200  0.70570200  1
  N  N1  1  0.29429800  0.29429800  0.70570200  1
  N  N2  1  0.70570200  0.70570200  0.29429800  1
  N  N3  1  0.70570200  0.29429800  0.70570200  1
  N  N4  1  0.70570200  0.29429800  0.29429800  1
  N  N5  1  0.29429800  0.70570200  0.29429800  1
loop_
_geom_bond_atom_site_label_1
_geom_bond_atom_site_label_2
_geom_bond_distance
_geom_bond_site_symmetry_2
Cs0 N3 3.869494 1_565
Cs0 N0 3.869494 1_655
Cs0 N2 3.869494 1_556
Cs0 N5 3.869494 1_556
Cs0 N1 3.869494 1_655
Cs0 N4 3.869494 1_565
Cs0 N1 3.869494 1_565
Cs0 N4 3.869494 1_556
Cs0 N5 3.869494 1_655
Cs0 N3 3.869494 1_555
Cs0 N0 3.869494 1_555
Cs0 N2 3.869494 1_555
Cs1 N4 3.869494 1_555
Cs1 N5 3.869494 1_555
Cs1 N1 3.869494 1_555
Cs1 N2 3.869494 1_455
Cs1 N3 3.869494 1_455
Cs1 N0 3.869494 1_554
Cs1 N2 3.869494 1_545
Cs1 N0 3.869494 1_545
Cs1 N3 3.869494 1_554
Cs1 N5 3.869494 1_545
Cs1 N1 3.869494 1_554
Cs1 N4 3.869494 1_455
Li0 N0 2.233857 1_555
Li0 N2 2.233857 1_555
Li0 N3 2.233857 1_555
Li0 N4 2.233857 1_555
Li0 N1 2.233857 1_555
Li0 N5 2.233857 1_555
C0 N4 1.174419 1_555
C0 Ir0 2.021561 1_655
C0 Cs1 3.901578 1_555
C0 Cs0 3.901578 1_545
C0 Cs0 3.901578 1_554
C0 Cs1 3.901578 1_655
C1 N3 1.174419 1_555
C1 Ir0 2.021561 1_656
C1 Cs0 3.901578 1_545
C1 Cs1 3.901578 1_655
C1 Cs1 3.901578 1_556
C1 Cs0 3.901578 1_555
C2 N2 1.174419 1_555
C2 Ir0 2.021561 1_665
C2 Cs0 3.901578 1_554
C2 Cs1 3.901578 1_655
C2 Cs1 3.901578 1_565
C2 Cs0 3.901578 1_555
C3 N0 1.174419 1_555
C3 Ir0 2.021561 1_566
C3 Cs0 3.901578 1_455
C3 Cs1 3.901578 1_556
C3 Cs1 3.901578 1_565
C3 Cs0 3.901578 1_555
C4 N1 1.174419 1_555
C4 Ir0 2.021561 1_556
C4 Cs1 3.901578 1_555
C4 Cs0 3.901578 1_545
C4 Cs0 3.901578 1_455
C4 Cs1 3.901578 1_556
C5 N5 1.174419 1_555
C5 Ir0 2.021561 1_565
C5 Cs1 3.901578 1_555
C5 Cs0 3.901578 1_554
C5 Cs0 3.901578 1_455
C5 Cs1 3.901578 1_565
