# generated using pymatgen
data_LiH5S(NO2)2
_symmetry_space_group_name_H-M   'P 1'
_cell_length_a   5.13729100
_cell_length_b   9.16196600
_cell_length_c   10.05238300
_cell_angle_alpha   90.00000000
_cell_angle_beta   90.00000000
_cell_angle_gamma   90.00000000
_symmetry_Int_Tables_number   1
_chemical_formula_structural   LiH5S(NO2)2
_chemical_formula_sum   'Li4 H20 S4 N8 O16'
_cell_volume   473.14240131
_cell_formula_units_Z   4
loop_
 _symmetry_equiv_pos_site_id
 _symmetry_equiv_pos_as_xyz
  1  'x, y, z'
loop_
 _atom_site_type_symbol
 _atom_site_label
 _atom_site_symmetry_multiplicity
 _atom_site_fract_x
 _atom_site_fract_y
 _atom_site_fract_z
 _atom_site_occupancy
  Li  Li0  1  0.74760000  0.56485500  0.33124000  1
  Li  Li1  1  0.24760000  0.43514500  0.66876000  1
  Li  Li2  1  0.74760000  0.93514500  0.83124000  1
  Li  Li3  1  0.24760000  0.06485500  0.16876000  1
  H  H0  1  0.23177900  0.61468500  0.11841900  1
  H  H1  1  0.73177900  0.38531500  0.88158100  1
  H  H2  1  0.23177900  0.88531500  0.61841900  1
  H  H3  1  0.73177900  0.11468500  0.38158100  1
  H  H4  1  0.43684300  0.53114700  0.01428700  1
  H  H5  1  0.93684300  0.46885300  0.98571300  1
  H  H6  1  0.43684300  0.96885300  0.51428700  1
  H  H7  1  0.93684300  0.03114700  0.48571300  1
  H  H8  1  0.31223700  0.81806100  0.34305700  1
  H  H9  1  0.81223700  0.18193900  0.65694300  1
  H  H10  1  0.31223700  0.68193900  0.84305700  1
  H  H11  1  0.81223700  0.31806100  0.15694300  1
  H  H12  1  0.08202400  0.74010700  0.44361000  1
  H  H13  1  0.58202400  0.25989300  0.55639000  1
  H  H14  1  0.08202400  0.75989300  0.94361000  1
  H  H15  1  0.58202400  0.24010700  0.05639000  1
  H  H16  1  0.40620100  0.71534500  0.47308600  1
  H  H17  1  0.90620100  0.28465500  0.52691400  1
  H  H18  1  0.40620100  0.78465500  0.97308600  1
  H  H19  1  0.90620100  0.21534500  0.02691400  1
  S  S0  1  0.74538400  0.86773400  0.15835000  1
  S  S1  1  0.24538400  0.13226600  0.84165000  1
  S  S2  1  0.74538400  0.63226600  0.65835000  1
  S  S3  1  0.24538400  0.36773400  0.34165000  1
  N  N0  1  0.25543800  0.58123600  0.02172100  1
  N  N1  1  0.75543800  0.41876400  0.97827900  1
  N  N2  1  0.25543800  0.91876400  0.52172100  1
  N  N3  1  0.75543800  0.08123600  0.47827900  1
  N  N4  1  0.26492200  0.78879200  0.44080000  1
  N  N5  1  0.76492200  0.21120800  0.55920000  1
  N  N6  1  0.26492200  0.71120800  0.94080000  1
  N  N7  1  0.76492200  0.28879200  0.05920000  1
  O  O0  1  0.46245700  0.88808600  0.19198200  1
  O  O1  1  0.96245700  0.11191400  0.80801800  1
  O  O2  1  0.46245700  0.61191400  0.69198200  1
  O  O3  1  0.96245700  0.38808600  0.30801800  1
  O  O4  1  0.76412700  0.84225200  0.01053300  1
  O  O5  1  0.26412700  0.15774800  0.98946700  1
  O  O6  1  0.76412700  0.65774800  0.51053300  1
  O  O7  1  0.26412700  0.34225200  0.48946700  1
  O  O8  1  0.85032100  0.73883100  0.22891300  1
  O  O9  1  0.35032100  0.26116900  0.77108700  1
  O  O10  1  0.85032100  0.76116900  0.72891300  1
  O  O11  1  0.35032100  0.23883100  0.27108700  1
  O  O12  1  0.39056800  0.50210700  0.30556200  1
  O  O13  1  0.89056800  0.49789300  0.69443800  1
  O  O14  1  0.39056800  0.99789300  0.80556200  1
  O  O15  1  0.89056800  0.00210700  0.19443800  1
loop_
_geom_bond_atom_site_label_1
_geom_bond_atom_site_label_2
_geom_bond_distance
_geom_bond_site_symmetry_2
Li0 O12 1.939417 1_555
Li0 O8 1.969079 1_555
Li0 O3 1.973772 1_555
Li0 O6 1.994972 1_555
Li1 O13 1.939417 1_455
Li1 O9 1.969079 1_555
Li1 O2 1.973772 1_555
Li1 O7 1.994972 1_555
Li2 O14 1.939417 1_555
Li2 O10 1.969079 1_555
Li2 O1 1.973772 1_565
Li2 O4 1.994972 1_556
Li3 O15 1.939417 1_455
Li3 O11 1.969079 1_555
Li3 O0 1.973772 1_545
Li3 O5 1.994972 1_554
H0 N0 1.026432 1_555
H1 N1 1.026432 1_555
H2 N2 1.026432 1_555
H3 N3 1.026432 1_555
H4 N0 1.041480 1_555
H5 N1 1.041480 1_555
H6 N2 1.041480 1_555
H7 N3 1.041480 1_555
H8 N4 1.047091 1_555
H9 N5 1.047091 1_555
H10 N6 1.047091 1_555
H11 N7 1.047091 1_555
H12 N4 1.040484 1_555
H13 N5 1.040484 1_555
H14 N6 1.040484 1_555
H15 N7 1.040484 1_555
H16 N4 1.041598 1_555
H17 N5 1.041598 1_555
H18 N6 1.041598 1_555
H19 N7 1.041598 1_555
O0 S0 1.503884 1_555
O1 S1 1.503884 1_655
O2 S2 1.503884 1_555
O3 S3 1.503884 1_655
O4 S0 1.507221 1_555
O5 S1 1.507221 1_555
O6 S2 1.507221 1_555
O7 S3 1.507221 1_555
O8 S0 1.479370 1_555
O9 S1 1.479370 1_555
O10 S2 1.479370 1_555
O11 S3 1.479370 1_555
O12 S3 1.484438 1_555
O13 S2 1.484438 1_555
O14 S1 1.484438 1_565
O15 S0 1.484438 1_545
