# generated using pymatgen
data_PH3PbCO3
_symmetry_space_group_name_H-M   'P 1'
_cell_length_a   12.15862589
_cell_length_b   12.15862589
_cell_length_c   12.15862651
_cell_angle_alpha   116.39981726
_cell_angle_beta   116.39981726
_cell_angle_gamma   116.39981570
_symmetry_Int_Tables_number   1
_chemical_formula_structural   PH3PbCO3
_chemical_formula_sum   'P6 H18 Pb6 C6 O18'
_cell_volume   864.08013028
_cell_formula_units_Z   6
loop_
 _symmetry_equiv_pos_site_id
 _symmetry_equiv_pos_as_xyz
  1  'x, y, z'
loop_
 _atom_site_type_symbol
 _atom_site_label
 _atom_site_symmetry_multiplicity
 _atom_site_fract_x
 _atom_site_fract_y
 _atom_site_fract_z
 _atom_site_occupancy
  P  P0  1  0.72845000  0.87628500  0.38689600  1
  P  P1  1  0.87628500  0.38689600  0.72845000  1
  P  P2  1  0.61310400  0.27155000  0.12371500  1
  P  P3  1  0.12371500  0.61310400  0.27155000  1
  P  P4  1  0.27155000  0.12371500  0.61310400  1
  P  P5  1  0.38689600  0.72845000  0.87628500  1
  H  H0  1  0.13987000  0.02002400  0.32215500  1
  H  H1  1  0.62937500  0.97016600  0.94817300  1
  H  H2  1  0.02983400  0.05182700  0.37062500  1
  H  H3  1  0.71664600  0.72916400  0.47223600  1
  H  H4  1  0.32215500  0.13987000  0.02002400  1
  H  H5  1  0.97016600  0.94817300  0.62937500  1
  H  H6  1  0.94817300  0.62937500  0.97016600  1
  H  H7  1  0.05182700  0.37062500  0.02983400  1
  H  H8  1  0.02002400  0.32215500  0.13987000  1
  H  H9  1  0.27083600  0.52776400  0.28335400  1
  H  H10  1  0.28335400  0.27083600  0.52776400  1
  H  H11  1  0.67784500  0.86013000  0.97997600  1
  H  H12  1  0.47223600  0.71664600  0.72916400  1
  H  H13  1  0.86013000  0.97997600  0.67784500  1
  H  H14  1  0.72916400  0.47223600  0.71664600  1
  H  H15  1  0.97997600  0.67784500  0.86013000  1
  H  H16  1  0.52776400  0.28335400  0.27083600  1
  H  H17  1  0.37062500  0.02983400  0.05182700  1
  Pb  Pb0  1  0.41683300  0.89328500  0.25659900  1
  Pb  Pb1  1  0.25659900  0.41683300  0.89328500  1
  Pb  Pb2  1  0.89328500  0.25659900  0.41683300  1
  Pb  Pb3  1  0.10671500  0.74340100  0.58316700  1
  Pb  Pb4  1  0.74340100  0.58316700  0.10671500  1
  Pb  Pb5  1  0.58316700  0.10671500  0.74340100  1
  C  C0  1  0.11529200  0.44124900  0.17128700  1
  C  C1  1  0.55875100  0.82871300  0.88470800  1
  C  C2  1  0.17128700  0.11529200  0.44124900  1
  C  C3  1  0.44124900  0.17128700  0.11529200  1
  C  C4  1  0.88470800  0.55875100  0.82871300  1
  C  C5  1  0.82871300  0.88470800  0.55875100  1
  O  O0  1  0.29995400  0.53396700  0.79346200  1
  O  O1  1  0.79346200  0.29995400  0.53396700  1
  O  O2  1  0.48971700  0.10131900  0.90628500  1
  O  O3  1  0.20341600  0.65487300  0.71479200  1
  O  O4  1  0.90628500  0.48971700  0.10131900  1
  O  O5  1  0.34512700  0.28520800  0.79658400  1
  O  O6  1  0.10131900  0.90628500  0.48971700  1
  O  O7  1  0.65487300  0.71479200  0.20341600  1
  O  O8  1  0.28520800  0.79658400  0.34512700  1
  O  O9  1  0.09371500  0.51028300  0.89868100  1
  O  O10  1  0.20653800  0.70004600  0.46603300  1
  O  O11  1  0.71479200  0.20341600  0.65487300  1
  O  O12  1  0.51028300  0.89868100  0.09371500  1
  O  O13  1  0.46603300  0.20653800  0.70004600  1
  O  O14  1  0.53396700  0.79346200  0.29995400  1
  O  O15  1  0.70004600  0.46603300  0.20653800  1
  O  O16  1  0.79658400  0.34512700  0.28520800  1
  O  O17  1  0.89868100  0.09371500  0.51028300  1
loop_
_geom_bond_atom_site_label_1
_geom_bond_atom_site_label_2
_geom_bond_distance
_geom_bond_site_symmetry_2
C0 H9 1.097523 1_555
C0 H8 1.098866 1_555
C0 H7 1.099112 1_555
C0 P3 1.815543 1_555
C1 H12 1.097523 1_555
C1 H11 1.098866 1_555
C1 H1 1.099112 1_555
C1 P5 1.815543 1_555
C2 H10 1.097523 1_555
C2 H0 1.098866 1_555
C2 H2 1.099112 1_555
C2 P4 1.815543 1_555
C3 H16 1.097523 1_555
C3 H4 1.098866 1_555
C3 H17 1.099112 1_555
C3 P2 1.815543 1_555
C4 H14 1.097523 1_555
C4 H15 1.098866 1_555
C4 H6 1.099112 1_555
C4 P1 1.815543 1_555
C5 H3 1.097523 1_555
C5 H13 1.098866 1_555
C5 H5 1.099112 1_555
C5 P0 1.815543 1_555
O0 P5 1.560784 1_555
O0 Pb1 2.284241 1_555
O1 P1 1.560784 1_555
O1 Pb2 2.284241 1_555
O2 P2 1.539328 1_556
O2 Pb3 2.562088 1_545
O2 Pb5 2.695882 1_555
O3 P5 1.549332 1_555
O3 Pb3 2.467020 1_555
O3 Pb2 2.608910 1_455
O4 P3 1.539328 1_655
O4 Pb5 2.562088 1_554
O4 Pb4 2.695881 1_555
O5 P4 1.549332 1_555
O5 Pb1 2.467019 1_555
O5 Pb4 2.608910 1_556
O6 P4 1.539328 1_565
O6 Pb4 2.562088 1_455
O6 Pb3 2.695881 1_555
O7 P0 1.549332 1_555
O7 Pb4 2.467019 1_555
O7 Pb1 2.608910 1_554
O8 P3 1.549332 1_555
O8 Pb0 2.467020 1_555
O8 Pb5 2.608910 1_565
O9 P1 1.539328 1_455
O9 Pb0 2.562088 1_556
O9 Pb1 2.695881 1_555
O10 P3 1.560784 1_555
O10 Pb3 2.284241 1_555
O11 P1 1.549332 1_555
O11 Pb5 2.467020 1_555
O11 Pb0 2.608910 1_545
O12 P5 1.539328 1_554
O12 Pb2 2.562088 1_565
O12 Pb0 2.695882 1_555
O13 P4 1.560784 1_555
O13 Pb5 2.284241 1_555
O14 P0 1.560784 1_555
O14 Pb0 2.284241 1_555
O15 P2 1.560784 1_555
O15 Pb4 2.284241 1_555
O16 P2 1.549332 1_555
O16 Pb2 2.467020 1_555
O16 Pb3 2.608910 1_655
O17 P0 1.539328 1_545
O17 Pb1 2.562088 1_655
O17 Pb2 2.695881 1_555
