# generated using pymatgen
data_Sm11Cd45
_symmetry_space_group_name_H-M   'P 1'
_cell_length_a   15.56299175
_cell_length_b   15.56299175
_cell_length_c   15.56299175
_cell_angle_alpha   60.00000000
_cell_angle_beta   60.00000000
_cell_angle_gamma   60.00000000
_symmetry_Int_Tables_number   1
_chemical_formula_structural   Sm11Cd45
_chemical_formula_sum   'Sm22 Cd90'
_cell_volume   2665.41147829
_cell_formula_units_Z   2
loop_
 _symmetry_equiv_pos_site_id
 _symmetry_equiv_pos_as_xyz
  1  'x, y, z'
loop_
 _atom_site_type_symbol
 _atom_site_label
 _atom_site_symmetry_multiplicity
 _atom_site_fract_x
 _atom_site_fract_y
 _atom_site_fract_z
 _atom_site_occupancy
  Sm  Sm0  1  0.01539300  0.66153600  0.66153600  1
  Sm  Sm1  1  0.77996000  0.40668000  0.40668000  1
  Sm  Sm2  1  0.40668000  0.40668000  0.40668000  1
  Sm  Sm3  1  0.01403700  0.63884900  0.33307800  1
  Sm  Sm4  1  0.01403700  0.33307800  0.63884900  1
  Sm  Sm5  1  0.40668000  0.40668000  0.77996000  1
  Sm  Sm6  1  0.25000000  0.25000000  0.25000000  1
  Sm  Sm7  1  0.66153600  0.66153600  0.66153600  1
  Sm  Sm8  1  0.63884900  0.01403700  0.33307800  1
  Sm  Sm9  1  0.01403700  0.63884900  0.01403700  1
  Sm  Sm10  1  0.40668000  0.77996000  0.40668000  1
  Sm  Sm11  1  0.01403700  0.33307800  0.01403700  1
  Sm  Sm12  1  0.01403700  0.01403700  0.63884900  1
  Sm  Sm13  1  0.33307800  0.63884900  0.01403700  1
  Sm  Sm14  1  0.33307800  0.01403700  0.01403700  1
  Sm  Sm15  1  0.33307800  0.01403700  0.63884900  1
  Sm  Sm16  1  0.00000000  0.00000000  0.00000000  1
  Sm  Sm17  1  0.01403700  0.01403700  0.33307800  1
  Sm  Sm18  1  0.63884900  0.33307800  0.01403700  1
  Sm  Sm19  1  0.66153600  0.01539300  0.66153600  1
  Sm  Sm20  1  0.66153600  0.66153600  0.01539300  1
  Sm  Sm21  1  0.63884900  0.01403700  0.01403700  1
  Cd  Cd0  1  0.86332600  0.26261600  0.61144200  1
  Cd  Cd1  1  0.58900600  0.91099400  0.58900600  1
  Cd  Cd2  1  0.83328200  0.14184500  0.51243600  1
  Cd  Cd3  1  0.83328200  0.51243600  0.51243600  1
  Cd  Cd4  1  0.86332600  0.61144200  0.26261600  1
  Cd  Cd5  1  0.08315700  0.75052900  0.08315700  1
  Cd  Cd6  1  0.84357300  0.15642700  0.84357300  1
  Cd  Cd7  1  0.15642700  0.84357300  0.84357300  1
  Cd  Cd8  1  0.91206000  0.91206000  0.91206000  1
  Cd  Cd9  1  0.40366900  0.76423400  0.76423400  1
  Cd  Cd10  1  0.51243600  0.14184500  0.83328200  1
  Cd  Cd11  1  0.26891900  0.64031500  0.64031500  1
  Cd  Cd12  1  0.26261600  0.26261600  0.61144200  1
  Cd  Cd13  1  0.14184500  0.51243600  0.51243600  1
  Cd  Cd14  1  0.16373700  0.50878900  0.16373700  1
  Cd  Cd15  1  0.26261600  0.86332600  0.61144200  1
  Cd  Cd16  1  0.51081300  0.82972900  0.82972900  1
  Cd  Cd17  1  0.61144200  0.26261600  0.26261600  1
  Cd  Cd18  1  0.61144200  0.86332600  0.26261600  1
  Cd  Cd19  1  0.06786400  0.76423400  0.40366900  1
  Cd  Cd20  1  0.64031500  0.45045100  0.26891900  1
  Cd  Cd21  1  0.82972900  0.82972900  0.51081300  1
  Cd  Cd22  1  0.26891900  0.64031500  0.45045100  1
  Cd  Cd23  1  0.20140600  0.01720200  0.39069600  1
  Cd  Cd24  1  0.64031500  0.26891900  0.45045100  1
  Cd  Cd25  1  0.39069600  0.20140600  0.01720200  1
  Cd  Cd26  1  0.51243600  0.83328200  0.14184500  1
  Cd  Cd27  1  0.76423400  0.76423400  0.06786400  1
  Cd  Cd28  1  0.26891900  0.45045100  0.64031500  1
  Cd  Cd29  1  0.91099400  0.91099400  0.58900600  1
  Cd  Cd30  1  0.82972900  0.82972900  0.82972900  1
  Cd  Cd31  1  0.01720200  0.20140600  0.39069600  1
  Cd  Cd32  1  0.40366900  0.06786400  0.76423400  1
  Cd  Cd33  1  0.39069600  0.20140600  0.39069600  1
  Cd  Cd34  1  0.01720200  0.39069600  0.20140600  1
  Cd  Cd35  1  0.91206000  0.91206000  0.26382000  1
  Cd  Cd36  1  0.15642700  0.15642700  0.84357300  1
  Cd  Cd37  1  0.64031500  0.26891900  0.64031500  1
  Cd  Cd38  1  0.82972900  0.51081300  0.82972900  1
  Cd  Cd39  1  0.64031500  0.45045100  0.64031500  1
  Cd  Cd40  1  0.39069600  0.39069600  0.20140600  1
  Cd  Cd41  1  0.08315700  0.08315700  0.08315700  1
  Cd  Cd42  1  0.91099400  0.58900600  0.91099400  1
  Cd  Cd43  1  0.51243600  0.51243600  0.83328200  1
  Cd  Cd44  1  0.39069600  0.01720200  0.20140600  1
  Cd  Cd45  1  0.75000000  0.75000000  0.75000000  1
  Cd  Cd46  1  0.26261600  0.26261600  0.86332600  1
  Cd  Cd47  1  0.51243600  0.14184500  0.51243600  1
  Cd  Cd48  1  0.91206000  0.26382000  0.91206000  1
  Cd  Cd49  1  0.61144200  0.26261600  0.86332600  1
  Cd  Cd50  1  0.16373700  0.16373700  0.50878900  1
  Cd  Cd51  1  0.45045100  0.26891900  0.64031500  1
  Cd  Cd52  1  0.83328200  0.51243600  0.14184500  1
  Cd  Cd53  1  0.76423400  0.40366900  0.76423400  1
  Cd  Cd54  1  0.76423400  0.06786400  0.76423400  1
  Cd  Cd55  1  0.08315700  0.08315700  0.75052900  1
  Cd  Cd56  1  0.64031500  0.64031500  0.45045100  1
  Cd  Cd57  1  0.26261600  0.86332600  0.26261600  1
  Cd  Cd58  1  0.26261600  0.61144200  0.26261600  1
  Cd  Cd59  1  0.40366900  0.76423400  0.06786400  1
  Cd  Cd60  1  0.51243600  0.83328200  0.51243600  1
  Cd  Cd61  1  0.84357300  0.15642700  0.15642700  1
  Cd  Cd62  1  0.76423400  0.06786400  0.40366900  1
  Cd  Cd63  1  0.14184500  0.83328200  0.51243600  1
  Cd  Cd64  1  0.01720200  0.39069600  0.39069600  1
  Cd  Cd65  1  0.26261600  0.61144200  0.86332600  1
  Cd  Cd66  1  0.64031500  0.64031500  0.26891900  1
  Cd  Cd67  1  0.16373700  0.16373700  0.16373700  1
  Cd  Cd68  1  0.15642700  0.84357300  0.15642700  1
  Cd  Cd69  1  0.39069600  0.01720200  0.39069600  1
  Cd  Cd70  1  0.14184500  0.51243600  0.83328200  1
  Cd  Cd71  1  0.91099400  0.58900600  0.58900600  1
  Cd  Cd72  1  0.58900600  0.91099400  0.91099400  1
  Cd  Cd73  1  0.58900600  0.58900600  0.91099400  1
  Cd  Cd74  1  0.26382000  0.91206000  0.91206000  1
  Cd  Cd75  1  0.45045100  0.64031500  0.64031500  1
  Cd  Cd76  1  0.06786400  0.76423400  0.76423400  1
  Cd  Cd77  1  0.20140600  0.39069600  0.39069600  1
  Cd  Cd78  1  0.50000000  0.50000000  0.50000000  1
  Cd  Cd79  1  0.86332600  0.26261600  0.26261600  1
  Cd  Cd80  1  0.50878900  0.16373700  0.16373700  1
  Cd  Cd81  1  0.75052900  0.08315700  0.08315700  1
  Cd  Cd82  1  0.45045100  0.64031500  0.26891900  1
  Cd  Cd83  1  0.20140600  0.39069600  0.01720200  1
  Cd  Cd84  1  0.06786400  0.40366900  0.76423400  1
  Cd  Cd85  1  0.39069600  0.39069600  0.01720200  1
  Cd  Cd86  1  0.76423400  0.40366900  0.06786400  1
  Cd  Cd87  1  0.51243600  0.51243600  0.14184500  1
  Cd  Cd88  1  0.84357300  0.84357300  0.15642700  1
  Cd  Cd89  1  0.76423400  0.76423400  0.40366900  1
loop_
_geom_bond_atom_site_label_1
_geom_bond_atom_site_label_2
_geom_bond_distance
_geom_bond_site_symmetry_2
Cd0 Cd6 3.050251 1_555
Cd0 Cd39 3.225132 1_555
Cd0 Cd37 3.225132 1_555
Cd0 Cd3 3.258956 1_555
Cd0 Cd2 3.258970 1_555
Cd0 Sm12 3.305464 1_655
Cd0 Sm4 3.305476 1_655
Cd0 Sm1 3.308486 1_555
Cd0 Cd54 3.319492 1_555
Cd0 Cd53 3.319504 1_555
Cd0 Cd64 3.347993 1_655
Cd0 Cd31 3.347993 1_655
Cd1 Cd47 2.933471 1_565
Cd1 Cd60 2.933484 1_555
Cd1 Cd16 3.059023 1_555
Cd1 Cd21 3.059023 1_555
Cd1 Sm7 3.182802 1_555
Cd1 Sm19 3.182815 1_565
Cd1 Sm8 3.287053 1_565
Cd1 Sm15 3.287053 1_565
Cd2 Cd31 2.848826 1_655
Cd2 Cd29 2.933472 1_545
Cd2 Cd24 2.985073 1_555
Cd2 Cd37 2.985081 1_555
Cd2 Cd62 3.217294 1_555
Cd2 Cd54 3.217321 1_555
Cd2 Cd79 3.258957 1_555
Cd2 Sm19 3.300452 1_555
Cd2 Sm1 3.398112 1_555
Cd2 Sm17 3.430153 1_655
Cd2 Sm12 3.430175 1_655
Cd3 Cd64 2.848819 1_655
Cd3 Cd71 2.933484 1_555
Cd3 Cd39 2.985073 1_555
Cd3 Cd56 2.985073 1_555
Cd3 Cd89 3.217319 1_555
Cd3 Cd53 3.217319 1_555
Cd3 Cd4 3.258956 1_555
Cd3 Sm7 3.300472 1_555
Cd3 Sm1 3.398099 1_555
Cd3 Sm3 3.430171 1_655
Cd3 Sm4 3.430171 1_655
Cd4 Cd88 3.050251 1_555
Cd4 Cd56 3.225132 1_555
Cd4 Cd66 3.225132 1_555
Cd4 Cd52 3.258970 1_555
Cd4 Sm9 3.305464 1_655
Cd4 Sm3 3.305476 1_655
Cd4 Sm1 3.308486 1_555
Cd4 Cd89 3.319504 1_555
Cd4 Cd64 3.347993 1_655
Cd5 Cd7 3.049605 1_554
Cd5 Cd88 3.049605 1_455
Cd5 Cd68 3.049605 1_555
Cd5 Sm16 3.170060 1_565
Cd5 Sm9 3.198707 1_555
Cd5 Sm13 3.198720 1_555
Cd5 Sm3 3.198720 1_555
Cd6 Cd81 3.049605 1_556
Cd6 Cd8 3.124819 1_545
Cd6 Sm16 3.442863 1_656
Cd6 Sm21 3.850858 1_556
Cd6 Sm12 3.850858 1_655
Cd6 Sm18 3.850868 1_556
Cd6 Sm4 3.850868 1_655
Cd7 Cd74 3.124819 1_555
Cd7 Cd8 3.124819 1_455
Cd7 Cd76 3.142816 1_555
Cd7 Cd9 3.142829 1_555
Cd7 Sm16 3.442863 1_566
Cd7 Sm9 3.850858 1_556
Cd7 Sm12 3.850858 1_565
Cd7 Sm13 3.850868 1_556
Cd7 Sm15 3.850868 1_565
Cd8 Cd88 3.124819 1_556
Cd8 Sm16 3.352395 1_666
Cd8 Sm12 3.484154 1_665
Cd8 Sm21 3.484154 1_566
Cd8 Sm9 3.484154 1_656
Cd9 Sm15 3.227274 1_565
Cd9 Sm13 3.227274 1_556
Cd9 Sm7 3.307682 1_555
Cd10 Cd25 2.848826 1_556
Cd10 Cd72 2.933472 1_545
Cd10 Cd51 2.985073 1_555
Cd10 Cd37 2.985081 1_555
Cd10 Cd32 3.217294 1_555
Cd10 Cd54 3.217321 1_555
Cd10 Cd46 3.258957 1_555
Cd10 Cd49 3.258970 1_555
Cd10 Sm19 3.300452 1_555
Cd10 Sm5 3.398112 1_555
Cd10 Sm14 3.430153 1_556
Cd10 Sm21 3.430175 1_556
Cd11 Cd75 2.825181 1_555
Cd11 Cd28 2.954852 1_555
Cd11 Cd22 2.954852 1_555
Cd11 Cd76 2.979888 1_555
Cd11 Cd70 2.985081 1_555
Cd11 Cd63 2.985081 1_555
Cd11 Cd15 3.225132 1_555
Cd11 Cd65 3.225132 1_555
Cd11 Sm10 3.391519 1_555
Cd11 Sm5 3.391519 1_555
Cd11 Cd78 3.395981 1_555
Cd11 Sm0 3.645405 1_555
Cd12 Cd36 3.050251 1_555
Cd12 Cd51 3.225132 1_555
Cd12 Cd28 3.225132 1_555
Cd12 Cd47 3.258960 1_555
Cd12 Cd13 3.258960 1_555
Cd12 Sm4 3.305461 1_555
Cd12 Sm15 3.305461 1_555
Cd12 Sm2 3.308486 1_555
Cd12 Cd84 3.319501 1_555
Cd12 Cd32 3.319501 1_555
Cd12 Cd33 3.347993 1_555
Cd12 Cd77 3.347993 1_555
Cd13 Cd77 2.848813 1_555
Cd13 Cd71 2.933471 1_455
Cd13 Cd28 2.985086 1_555
Cd13 Cd22 2.985086 1_555
Cd13 Cd84 3.217318 1_555
Cd13 Cd19 3.217318 1_555
Cd13 Cd58 3.258960 1_555
Cd13 Sm0 3.300475 1_555
Cd13 Sm2 3.398110 1_555
Cd13 Sm3 3.430150 1_555
Cd13 Sm4 3.430150 1_555
Cd14 Cd5 3.071821 1_555
Cd14 Cd40 3.270966 1_555
Cd14 Cd77 3.270966 1_555
Cd14 Cd85 3.270966 1_555
Cd14 Cd64 3.270966 1_555
Cd14 Cd83 3.270966 1_555
Cd14 Cd34 3.270966 1_555
Cd14 Sm6 3.288465 1_555
Cd14 Sm9 3.308954 1_555
Cd14 Sm3 3.308965 1_555
Cd14 Sm13 3.308965 1_555
Cd15 Cd7 3.050251 1_555
Cd15 Cd75 3.225132 1_555
Cd15 Cd60 3.258956 1_555
Cd15 Cd63 3.258970 1_555
Cd15 Sm12 3.305464 1_565
Cd15 Sm15 3.305476 1_565
Cd15 Sm10 3.308486 1_555
Cd15 Cd76 3.319492 1_555
Cd15 Cd9 3.319504 1_555
Cd15 Cd69 3.347993 1_565
Cd15 Cd23 3.347993 1_565
Cd16 Cd45 3.039380 1_555
Cd16 Cd9 3.049052 1_555
Cd16 Cd32 3.049064 1_565
Cd16 Cd59 3.049064 1_556
Cd16 Cd72 3.059023 1_555
Cd16 Cd73 3.059023 1_555
Cd16 Cd74 3.138572 1_555
Cd16 Sm7 3.711797 1_555
Cd16 Sm19 3.711809 1_565
Cd16 Sm20 3.711809 1_556
Cd17 Cd61 3.050251 1_555
Cd17 Cd20 3.225132 1_555
Cd17 Cd24 3.225132 1_555
Cd17 Cd47 3.258960 1_555
Cd17 Cd87 3.258960 1_555
Cd17 Sm8 3.305461 1_555
Cd17 Sm18 3.305461 1_555
Cd17 Sm2 3.308486 1_555
Cd17 Cd62 3.319501 1_555
Cd17 Cd86 3.319501 1_555
Cd17 Cd33 3.347993 1_555
Cd17 Cd40 3.347993 1_555
Cd18 Cd88 3.050251 1_555
Cd18 Cd56 3.225132 1_555
Cd18 Cd66 3.225132 1_555
Cd18 Cd60 3.258956 1_555
Cd18 Cd26 3.258970 1_555
Cd18 Sm21 3.305464 1_565
Cd18 Sm8 3.305476 1_565
Cd18 Sm10 3.308486 1_555
Cd18 Cd27 3.319492 1_555
Cd18 Cd89 3.319504 1_555
Cd18 Cd69 3.347993 1_565
Cd18 Cd44 3.347993 1_565
Cd19 Cd22 2.979881 1_555
Cd19 Cd21 3.049064 1_455
Cd19 Cd68 3.142829 1_555
Cd19 Cd63 3.217294 1_555
Cd19 Sm3 3.227274 1_555
Cd19 Sm17 3.227274 1_565
Cd19 Cd35 3.255940 1_455
Cd19 Sm0 3.307682 1_555
Cd19 Cd57 3.319492 1_555
Cd19 Cd58 3.319501 1_555
Cd20 Cd24 2.825181 1_555
Cd20 Cd66 2.954852 1_555
Cd20 Cd82 2.954852 1_555
Cd20 Cd86 2.979881 1_555
Cd20 Cd52 2.985073 1_555
Cd20 Cd87 2.985086 1_555
Cd20 Cd79 3.225132 1_555
Cd20 Sm2 3.391519 1_555
Cd20 Sm1 3.391519 1_555
Cd20 Cd78 3.395981 1_555
Cd20 Sm20 3.645412 1_555
Cd21 Cd45 3.039380 1_555
Cd21 Cd89 3.049052 1_555
Cd21 Cd62 3.049064 1_565
Cd21 Cd29 3.059023 1_555
Cd21 Cd71 3.059023 1_555
Cd21 Cd35 3.138572 1_555
Cd21 Sm7 3.711797 1_555
Cd21 Sm19 3.711809 1_565
Cd21 Sm0 3.711809 1_655
Cd22 Cd82 2.825181 1_555
Cd22 Cd28 2.954852 1_555
Cd22 Cd63 2.985073 1_555
Cd22 Cd58 3.225132 1_555
Cd22 Cd57 3.225132 1_555
Cd22 Sm10 3.391519 1_555
Cd22 Sm2 3.391519 1_555
Cd22 Cd78 3.395981 1_555
Cd22 Sm0 3.645412 1_555
Cd23 Cd63 2.848826 1_545
Cd23 Cd31 2.866765 1_555
Cd23 Cd69 2.945919 1_555
Cd23 Cd44 2.945919 1_555
Cd23 Cd67 3.270966 1_555
Cd23 Cd50 3.270966 1_555
Cd23 Cd57 3.347993 1_545
Cd23 Sm6 3.412290 1_555
Cd23 Sm10 3.461360 1_545
Cd23 Sm17 3.480276 1_555
Cd23 Sm12 3.480287 1_555
Cd24 Cd37 2.954852 1_555
Cd24 Cd51 2.954852 1_555
Cd24 Cd62 2.979881 1_555
Cd24 Cd47 2.985086 1_555
Cd24 Cd79 3.225132 1_555
Cd24 Sm1 3.391519 1_555
Cd24 Sm2 3.391519 1_555
Cd24 Cd78 3.395981 1_555
Cd24 Sm19 3.645412 1_555
Cd25 Cd44 2.866765 1_555
Cd25 Cd83 2.945919 1_555
Cd25 Cd85 2.945919 1_555
Cd25 Cd67 3.270966 1_555
Cd25 Cd80 3.270966 1_555
Cd25 Cd46 3.347993 1_554
Cd25 Cd49 3.347993 1_554
Cd25 Sm6 3.412290 1_555
Cd25 Sm5 3.461360 1_554
Cd25 Sm14 3.480276 1_555
Cd25 Sm21 3.480287 1_555
Cd26 Cd44 2.848826 1_565
Cd26 Cd72 2.933472 1_554
Cd26 Cd82 2.985073 1_555
Cd26 Cd66 2.985081 1_555
Cd26 Cd59 3.217294 1_555
Cd26 Cd27 3.217321 1_555
Cd26 Cd57 3.258957 1_555
Cd26 Sm20 3.300452 1_555
Cd26 Sm10 3.398112 1_555
Cd26 Sm14 3.430153 1_565
Cd26 Sm21 3.430175 1_565
Cd27 Cd66 2.979888 1_555
Cd27 Cd30 3.049066 1_554
Cd27 Cd88 3.142816 1_555
Cd27 Cd52 3.217321 1_555
Cd27 Sm21 3.227274 1_565
Cd27 Sm9 3.227274 1_655
Cd27 Cd8 3.255929 1_554
Cd27 Sm20 3.307682 1_555
Cd27 Cd4 3.319492 1_555
Cd28 Cd51 2.825181 1_555
Cd28 Cd84 2.979881 1_555
Cd28 Cd70 2.985073 1_555
Cd28 Cd46 3.225132 1_555
Cd28 Sm2 3.391519 1_555
Cd28 Sm5 3.391519 1_555
Cd28 Cd78 3.395981 1_555
Cd28 Sm0 3.645412 1_555
Cd29 Cd63 2.933472 1_655
Cd29 Cd30 3.059023 1_555
Cd29 Sm0 3.182803 1_655
Cd29 Sm19 3.182803 1_565
Cd29 Sm17 3.287055 1_665
Cd29 Sm12 3.287066 1_665
Cd30 Cd45 3.039380 1_555
Cd30 Cd76 3.049066 1_655
Cd30 Cd54 3.049066 1_565
Cd30 Cd42 3.059023 1_555
Cd30 Cd72 3.059023 1_555
Cd30 Cd8 3.138572 1_555
Cd30 Sm19 3.711798 1_565
Cd30 Sm20 3.711798 1_556
Cd30 Sm0 3.711798 1_655
Cd31 Cd34 2.945919 1_555
Cd31 Cd64 2.945919 1_555
Cd31 Cd67 3.270966 1_555
Cd31 Cd50 3.270966 1_555
Cd31 Cd79 3.347993 1_455
Cd31 Sm6 3.412290 1_555
Cd31 Sm1 3.461360 1_455
Cd31 Sm17 3.480276 1_555
Cd31 Sm12 3.480287 1_555
Cd32 Cd51 2.979881 1_555
Cd32 Cd36 3.142829 1_555
Cd32 Cd47 3.217318 1_555
Cd32 Sm15 3.227274 1_555
Cd32 Sm14 3.227274 1_556
Cd32 Cd74 3.255940 1_545
Cd32 Sm19 3.307682 1_555
Cd32 Cd46 3.319492 1_555
Cd33 Cd47 2.848813 1_555
Cd33 Cd69 2.866765 1_555
Cd33 Cd77 2.945919 1_555
Cd33 Cd40 2.945919 1_555
Cd33 Cd50 3.270966 1_555
Cd33 Cd80 3.270966 1_555
Cd33 Sm6 3.412290 1_555
Cd33 Sm2 3.461360 1_555
Cd33 Sm15 3.480285 1_555
Cd33 Sm8 3.480285 1_555
Cd34 Cd52 2.848826 1_455
Cd34 Cd83 2.866765 1_555
Cd34 Cd64 2.945919 1_555
Cd34 Cd67 3.270966 1_555
Cd34 Cd79 3.347993 1_455
Cd34 Cd4 3.347993 1_455
Cd34 Sm6 3.412290 1_555
Cd34 Sm1 3.461360 1_455
Cd34 Sm11 3.480276 1_555
Cd34 Sm9 3.480287 1_555
Cd35 Cd88 3.124819 1_555
Cd35 Cd61 3.124819 1_565
Cd35 Cd68 3.124819 1_655
Cd35 Cd89 3.255928 1_555
Cd35 Cd62 3.255940 1_565
Cd35 Sm16 3.352395 1_665
Cd35 Sm8 3.484153 1_565
Cd35 Sm3 3.484153 1_655
Cd35 Sm17 3.484166 1_665
Cd36 Cd41 3.049605 1_556
Cd36 Cd55 3.049605 1_555
Cd36 Cd46 3.050251 1_555
Cd36 Cd48 3.124819 1_455
Cd36 Cd74 3.124819 1_545
Cd36 Cd84 3.142829 1_555
Cd36 Sm16 3.442863 1_556
Cd36 Sm15 3.850858 1_555
Cd36 Sm4 3.850858 1_555
Cd36 Sm11 3.850870 1_556
Cd36 Sm14 3.850870 1_556
Cd37 Cd39 2.825181 1_555
Cd37 Cd51 2.954852 1_555
Cd37 Cd54 2.979888 1_555
Cd37 Cd49 3.225132 1_555
Cd37 Sm1 3.391519 1_555
Cd37 Sm5 3.391519 1_555
Cd37 Cd78 3.395981 1_555
Cd37 Sm19 3.645405 1_555
Cd38 Cd45 3.039380 1_555
Cd38 Cd53 3.049052 1_555
Cd38 Cd84 3.049064 1_655
Cd38 Cd86 3.049064 1_556
Cd38 Cd42 3.059023 1_555
Cd38 Cd73 3.059023 1_555
Cd38 Cd71 3.059023 1_555
Cd38 Cd48 3.138572 1_555
Cd38 Sm7 3.711797 1_555
Cd38 Sm0 3.711809 1_655
Cd38 Sm20 3.711809 1_556
Cd39 Cd75 2.954852 1_555
Cd39 Cd56 2.954852 1_555
Cd39 Cd53 2.979895 1_555
Cd39 Cd43 2.985073 1_555
Cd39 Cd49 3.225132 1_555
Cd39 Sm1 3.391519 1_555
Cd39 Sm5 3.391519 1_555
Cd39 Cd78 3.395981 1_555
Cd39 Sm7 3.645421 1_555
Cd40 Cd87 2.848813 1_555
Cd40 Cd85 2.866765 1_555
Cd40 Cd77 2.945919 1_555
Cd40 Cd80 3.270966 1_555
Cd40 Cd58 3.347993 1_555
Cd40 Sm6 3.412290 1_555
Cd40 Sm2 3.461360 1_555
Cd40 Sm18 3.480285 1_555
Cd40 Sm13 3.480285 1_555
Cd41 Cd68 3.049605 1_545
Cd41 Cd61 3.049605 1_455
Cd41 Cd67 3.071821 1_555
Cd41 Sm16 3.170060 1_555
Cd41 Sm11 3.198721 1_555
Cd41 Sm14 3.198721 1_555
Cd41 Sm17 3.198721 1_555
Cd42 Cd52 2.933472 1_556
Cd42 Cd70 2.933472 1_655
Cd42 Sm20 3.182803 1_556
Cd42 Sm0 3.182803 1_655
Cd42 Sm11 3.287055 1_656
Cd42 Sm9 3.287066 1_656
Cd43 Cd85 2.848819 1_556
Cd43 Cd73 2.933484 1_555
Cd43 Cd75 2.985073 1_555
Cd43 Cd9 3.217319 1_555
Cd43 Cd53 3.217319 1_555
Cd43 Cd49 3.258956 1_555
Cd43 Cd65 3.258956 1_555
Cd43 Sm7 3.300472 1_555
Cd43 Sm5 3.398099 1_555
Cd43 Sm18 3.430171 1_556
Cd43 Sm13 3.430171 1_556
Cd44 Cd69 2.945919 1_555
Cd44 Cd67 3.270966 1_555
Cd44 Cd80 3.270966 1_555
Cd44 Cd57 3.347993 1_545
Cd44 Sm6 3.412290 1_555
Cd44 Sm10 3.461360 1_545
Cd44 Sm14 3.480276 1_555
Cd44 Sm21 3.480287 1_555
Cd45 Sm7 3.372371 1_555
Cd45 Sm20 3.372383 1_556
Cd45 Sm19 3.372383 1_565
Cd45 Sm0 3.372383 1_655
Cd46 Cd51 3.225132 1_555
Cd46 Cd70 3.258957 1_555
Cd46 Sm14 3.305466 1_556
Cd46 Sm11 3.305466 1_556
Cd46 Sm5 3.308486 1_555
Cd46 Cd84 3.319492 1_555
Cd46 Cd83 3.347993 1_556
Cd47 Cd51 2.985086 1_555
Cd47 Cd62 3.217318 1_555
Cd47 Sm19 3.300475 1_555
Cd47 Sm2 3.398110 1_555
Cd47 Sm8 3.430150 1_555
Cd47 Sm15 3.430150 1_555
Cd48 Cd6 3.124819 1_555
Cd48 Cd61 3.124819 1_556
Cd48 Cd53 3.255928 1_555
Cd48 Cd84 3.255940 1_655
Cd48 Cd86 3.255940 1_556
Cd48 Sm16 3.352395 1_656
Cd48 Sm4 3.484153 1_655
Cd48 Sm18 3.484153 1_556
Cd48 Sm11 3.484166 1_656
Cd49 Cd6 3.050251 1_555
Cd49 Sm21 3.305464 1_556
Cd49 Sm18 3.305476 1_556
Cd49 Sm5 3.308486 1_555
Cd49 Cd54 3.319492 1_555
Cd49 Cd53 3.319504 1_555
Cd49 Cd85 3.347993 1_556
Cd50 Cd55 3.071821 1_555
Cd50 Cd77 3.270966 1_555
Cd50 Cd69 3.270966 1_555
Cd50 Cd64 3.270966 1_555
Cd50 Sm6 3.288465 1_555
Cd50 Sm12 3.308954 1_555
Cd50 Sm4 3.308965 1_555
Cd50 Sm15 3.308965 1_555
Cd51 Sm2 3.391519 1_555
Cd51 Sm5 3.391519 1_555
Cd51 Cd78 3.395981 1_555
Cd51 Sm19 3.645412 1_555
Cd52 Cd66 2.985081 1_555
Cd52 Cd86 3.217294 1_555
Cd52 Cd79 3.258957 1_555
Cd52 Sm20 3.300452 1_555
Cd52 Sm1 3.398112 1_555
Cd52 Sm11 3.430153 1_655
Cd52 Sm9 3.430175 1_655
Cd53 Cd6 3.142829 1_555
Cd53 Sm4 3.227274 1_655
Cd53 Sm18 3.227274 1_556
Cd53 Sm7 3.307682 1_555
Cd54 Cd6 3.142816 1_555
Cd54 Sm21 3.227274 1_556
Cd54 Sm12 3.227274 1_655
Cd54 Cd8 3.255929 1_545
Cd54 Sm19 3.307682 1_555
Cd55 Cd7 3.049605 1_545
Cd55 Cd6 3.049605 1_455
Cd55 Sm16 3.170060 1_556
Cd55 Sm12 3.198707 1_555
Cd55 Sm15 3.198720 1_555
Cd55 Sm4 3.198720 1_555
Cd56 Cd66 2.825181 1_555
Cd56 Cd75 2.954852 1_555
Cd56 Cd89 2.979895 1_555
Cd56 Cd60 2.985073 1_555
Cd56 Sm10 3.391519 1_555
Cd56 Sm1 3.391519 1_555
Cd56 Cd78 3.395981 1_555
Cd56 Sm7 3.645421 1_555
Cd57 Cd68 3.050251 1_555
Cd57 Cd82 3.225132 1_555
Cd57 Cd63 3.258957 1_555
Cd57 Sm14 3.305466 1_565
Cd57 Sm17 3.305466 1_565
Cd57 Sm10 3.308486 1_555
Cd57 Cd59 3.319492 1_555
Cd58 Cd68 3.050251 1_555
Cd58 Cd82 3.225132 1_555
Cd58 Cd87 3.258960 1_555
Cd58 Sm3 3.305461 1_555
Cd58 Sm13 3.305461 1_555
Cd58 Sm2 3.308486 1_555
Cd58 Cd59 3.319501 1_555
Cd58 Cd77 3.347993 1_555
Cd59 Cd82 2.979881 1_555
Cd59 Cd68 3.142829 1_555
Cd59 Cd87 3.217318 1_555
Cd59 Sm13 3.227274 1_555
Cd59 Sm14 3.227274 1_565
Cd59 Cd74 3.255940 1_554
Cd59 Sm20 3.307682 1_555
Cd60 Cd69 2.848819 1_565
Cd60 Cd75 2.985073 1_555
Cd60 Cd89 3.217319 1_555
Cd60 Cd9 3.217319 1_555
Cd60 Sm7 3.300472 1_555
Cd60 Sm10 3.398099 1_555
Cd60 Sm8 3.430171 1_565
Cd60 Sm15 3.430171 1_565
Cd61 Cd81 3.049605 1_555
Cd61 Cd79 3.050251 1_555
Cd61 Cd86 3.142829 1_555
Cd61 Cd62 3.142829 1_555
Cd61 Sm16 3.442863 1_655
Cd61 Sm18 3.850858 1_555
Cd61 Sm8 3.850858 1_555
Cd61 Sm17 3.850870 1_655
Cd61 Sm11 3.850870 1_655
Cd62 Sm8 3.227274 1_555
Cd62 Sm17 3.227274 1_655
Cd62 Sm19 3.307682 1_555
Cd62 Cd79 3.319492 1_555
Cd63 Cd76 3.217321 1_555
Cd63 Sm0 3.300452 1_555
Cd63 Sm10 3.398112 1_555
Cd63 Sm17 3.430153 1_565
Cd63 Sm12 3.430175 1_565
Cd64 Cd77 2.866765 1_555
Cd64 Sm6 3.412290 1_555
Cd64 Sm1 3.461360 1_455
Cd64 Sm4 3.480291 1_555
Cd64 Sm3 3.480291 1_555
Cd65 Cd7 3.050251 1_555
Cd65 Cd75 3.225132 1_555
Cd65 Cd70 3.258970 1_555
Cd65 Sm9 3.305464 1_556
Cd65 Sm13 3.305476 1_556
Cd65 Sm5 3.308486 1_555
Cd65 Cd76 3.319492 1_555
Cd65 Cd9 3.319504 1_555
Cd65 Cd85 3.347993 1_556
Cd65 Cd83 3.347993 1_556
Cd66 Cd82 2.954852 1_555
Cd66 Sm10 3.391519 1_555
Cd66 Sm1 3.391519 1_555
Cd66 Cd78 3.395981 1_555
Cd66 Sm20 3.645405 1_555
Cd67 Cd83 3.270966 1_555
Cd67 Sm6 3.288465 1_555
Cd67 Sm11 3.308955 1_555
Cd67 Sm14 3.308955 1_555
Cd67 Sm17 3.308955 1_555
Cd68 Cd74 3.124819 1_554
Cd68 Sm16 3.442863 1_565
Cd68 Sm13 3.850858 1_555
Cd68 Sm3 3.850858 1_555
Cd68 Sm17 3.850870 1_565
Cd68 Sm14 3.850870 1_565
Cd69 Cd80 3.270966 1_555
Cd69 Sm6 3.412290 1_555
Cd69 Sm10 3.461360 1_545
Cd69 Sm8 3.480291 1_555
Cd69 Sm15 3.480291 1_555
Cd70 Cd83 2.848826 1_556
Cd70 Cd84 3.217294 1_555
Cd70 Cd76 3.217321 1_555
Cd70 Sm0 3.300452 1_555
Cd70 Sm5 3.398112 1_555
Cd70 Sm11 3.430153 1_556
Cd70 Sm9 3.430175 1_556
Cd71 Sm7 3.182802 1_555
Cd71 Sm0 3.182815 1_655
Cd71 Sm3 3.287053 1_655
Cd71 Sm4 3.287053 1_655
Cd72 Sm19 3.182803 1_565
Cd72 Sm20 3.182803 1_556
Cd72 Sm14 3.287055 1_566
Cd72 Sm21 3.287066 1_566
Cd73 Cd87 2.933471 1_556
Cd73 Sm7 3.182802 1_555
Cd73 Sm20 3.182815 1_556
Cd73 Sm18 3.287053 1_556
Cd73 Sm13 3.287053 1_556
Cd74 Cd9 3.255928 1_555
Cd74 Sm16 3.352395 1_566
Cd74 Sm15 3.484153 1_565
Cd74 Sm13 3.484153 1_556
Cd74 Sm14 3.484166 1_566
Cd75 Cd9 2.979895 1_555
Cd75 Sm10 3.391519 1_555
Cd75 Sm5 3.391519 1_555
Cd75 Cd78 3.395981 1_555
Cd75 Sm7 3.645421 1_555
Cd76 Sm9 3.227274 1_556
Cd76 Sm12 3.227274 1_565
Cd76 Cd8 3.255929 1_455
Cd76 Sm0 3.307682 1_555
Cd77 Sm6 3.412290 1_555
Cd77 Sm2 3.461360 1_555
Cd77 Sm3 3.480285 1_555
Cd77 Sm4 3.480285 1_555
Cd78 Cd82 3.395981 1_555
Cd78 Sm10 3.557488 1_555
Cd78 Sm5 3.557488 1_555
Cd78 Sm1 3.557488 1_555
Cd78 Sm2 3.557488 1_555
Cd79 Sm17 3.305466 1_655
Cd79 Sm11 3.305466 1_655
Cd79 Sm1 3.308486 1_555
Cd79 Cd86 3.319492 1_555
Cd80 Cd81 3.071821 1_555
Cd80 Cd85 3.270966 1_555
Cd80 Sm6 3.288465 1_555
Cd80 Sm21 3.308954 1_555
Cd80 Sm8 3.308965 1_555
Cd80 Sm18 3.308965 1_555
Cd81 Cd88 3.049605 1_545
Cd81 Sm16 3.170060 1_655
Cd81 Sm21 3.198707 1_555
Cd81 Sm8 3.198720 1_555
Cd81 Sm18 3.198720 1_555
Cd82 Cd87 2.985086 1_555
Cd82 Sm10 3.391519 1_555
Cd82 Sm2 3.391519 1_555
Cd82 Sm20 3.645412 1_555
Cd83 Cd85 2.945919 1_555
Cd83 Sm6 3.412290 1_555
Cd83 Sm5 3.461360 1_554
Cd83 Sm11 3.480276 1_555
Cd83 Sm9 3.480287 1_555
Cd84 Sm4 3.227274 1_555
Cd84 Sm11 3.227274 1_556
Cd84 Sm0 3.307682 1_555
Cd85 Sm6 3.412290 1_555
Cd85 Sm5 3.461360 1_554
Cd85 Sm18 3.480291 1_555
Cd85 Sm13 3.480291 1_555
Cd86 Cd87 3.217318 1_555
Cd86 Sm18 3.227274 1_555
Cd86 Sm11 3.227274 1_655
Cd86 Sm20 3.307682 1_555
Cd87 Sm20 3.300475 1_555
Cd87 Sm2 3.398110 1_555
Cd87 Sm18 3.430150 1_555
Cd87 Sm13 3.430150 1_555
Cd88 Cd89 3.142829 1_555
Cd88 Sm16 3.442863 1_665
Cd88 Sm21 3.850858 1_565
Cd88 Sm9 3.850858 1_655
Cd88 Sm8 3.850868 1_565
Cd88 Sm3 3.850868 1_655
Cd89 Sm8 3.227274 1_565
Cd89 Sm3 3.227274 1_655
Cd89 Sm7 3.307682 1_555
