# generated using pymatgen
data_Nd(IO3)3
_symmetry_space_group_name_H-M   'P 1'
_cell_length_a   5.90656486
_cell_length_b   8.83708986
_cell_length_c   16.76078042
_cell_angle_alpha   65.41310597
_cell_angle_beta   90.00000000
_cell_angle_gamma   90.00000000
_symmetry_Int_Tables_number   1
_chemical_formula_structural   Nd(IO3)3
_chemical_formula_sum   'Nd4 I12 O36'
_cell_volume   795.53744881
_cell_formula_units_Z   4
loop_
 _symmetry_equiv_pos_site_id
 _symmetry_equiv_pos_as_xyz
  1  'x, y, z'
loop_
 _atom_site_type_symbol
 _atom_site_label
 _atom_site_symmetry_multiplicity
 _atom_site_fract_x
 _atom_site_fract_y
 _atom_site_fract_z
 _atom_site_occupancy
  Nd  Nd0  1  0.23356096  0.13860804  0.90077780  1
  Nd  Nd1  1  0.26643904  0.13860804  0.40077780  1
  Nd  Nd2  1  0.73356096  0.86139196  0.59922220  1
  Nd  Nd3  1  0.76643904  0.86139196  0.09922220  1
  I  I0  1  0.18771991  0.07062201  0.65010023  1
  I  I1  1  0.64012997  0.36024674  0.47711721  1
  I  I2  1  0.09138408  0.58356921  0.30053715  1
  I  I3  1  0.14012997  0.63975326  0.02288279  1
  I  I4  1  0.81228009  0.92937799  0.34989977  1
  I  I5  1  0.35987003  0.63975326  0.52288279  1
  I  I6  1  0.90861592  0.41643079  0.69946285  1
  I  I7  1  0.59138408  0.41643079  0.19946285  1
  I  I8  1  0.31228009  0.07062201  0.15010023  1
  I  I9  1  0.68771991  0.92937799  0.84989977  1
  I  I10  1  0.40861592  0.58356921  0.80053715  1
  I  I11  1  0.85987003  0.36024674  0.97711721  1
  O  O0  1  0.41029945  0.66743778  0.88260455  1
  O  O1  1  0.46859057  0.40383484  0.38005423  1
  O  O2  1  0.08970055  0.66743778  0.38260455  1
  O  O3  1  0.53140943  0.59616516  0.61994577  1
  O  O4  1  0.08808330  0.36078889  0.05251141  1
  O  O5  1  0.31381779  0.34277198  0.24486955  1
  O  O6  1  0.91307184  0.90874584  0.45687189  1
  O  O7  1  0.03140943  0.40383484  0.88005423  1
  O  O8  1  0.89081444  0.09677555  0.82964785  1
  O  O9  1  0.39081444  0.90322445  0.67035215  1
  O  O10  1  0.41307184  0.09125416  0.04312811  1
  O  O11  1  0.96859057  0.59616516  0.11994577  1
  O  O12  1  0.00238334  0.62946899  0.63253231  1
  O  O13  1  0.99761666  0.37053101  0.36746769  1
  O  O14  1  0.41191670  0.36078889  0.55251141  1
  O  O15  1  0.55226425  0.93924868  0.20478591  1
  O  O16  1  0.58808330  0.63921111  0.44748859  1
  O  O17  1  0.49761666  0.62946899  0.13253231  1
  O  O18  1  0.59471806  0.13556917  0.50919590  1
  O  O19  1  0.58970055  0.33256222  0.11739545  1
  O  O20  1  0.91191670  0.63921111  0.94748859  1
  O  O21  1  0.09471806  0.86443083  0.99080410  1
  O  O22  1  0.18618221  0.34277198  0.74486955  1
  O  O23  1  0.81381779  0.65722802  0.25513045  1
  O  O24  1  0.05226425  0.06075132  0.29521409  1
  O  O25  1  0.44773575  0.06075132  0.79521409  1
  O  O26  1  0.94773575  0.93924868  0.70478591  1
  O  O27  1  0.90528194  0.13556917  0.00919590  1
  O  O28  1  0.40528194  0.86443083  0.49080410  1
  O  O29  1  0.60918556  0.09677555  0.32964785  1
  O  O30  1  0.68618221  0.65722802  0.75513045  1
  O  O31  1  0.08692816  0.09125416  0.54312811  1
  O  O32  1  0.50238334  0.37053101  0.86746769  1
  O  O33  1  0.10918556  0.90322445  0.17035215  1
  O  O34  1  0.91029945  0.33256222  0.61739545  1
  O  O35  1  0.58692816  0.90874584  0.95687189  1
loop_
_geom_bond_atom_site_label_1
_geom_bond_atom_site_label_2
_geom_bond_distance
_geom_bond_site_symmetry_2
Nd0 O21 2.403669 1_545
Nd0 O8 2.454211 1_455
Nd0 O32 2.466014 1_555
Nd0 O10 2.482142 1_556
Nd0 O25 2.493439 1_555
Nd0 O22 2.497745 1_555
Nd0 O7 2.522385 1_555
Nd0 O27 2.649897 1_456
Nd0 O35 2.788779 1_545
Nd1 O28 2.403669 1_545
Nd1 O29 2.454211 1_555
Nd1 O13 2.466014 1_455
Nd1 O31 2.482142 1_555
Nd1 O24 2.493439 1_555
Nd1 O5 2.497745 1_555
Nd1 O1 2.522385 1_555
Nd1 O18 2.649897 1_555
Nd1 O6 2.788779 1_445
Nd2 O18 2.403669 1_565
Nd2 O9 2.454211 1_555
Nd2 O12 2.466014 1_655
Nd2 O6 2.482142 1_555
Nd2 O26 2.493439 1_555
Nd2 O30 2.497745 1_555
Nd2 O3 2.522385 1_555
Nd2 O28 2.649897 1_555
Nd2 O31 2.788779 1_665
Nd3 O27 2.403669 1_565
Nd3 O33 2.454211 1_655
Nd3 O17 2.466014 1_555
Nd3 O35 2.482142 1_554
Nd3 O15 2.493439 1_555
Nd3 O23 2.497745 1_555
Nd3 O11 2.522385 1_555
Nd3 O21 2.649897 1_654
Nd3 O10 2.788779 1_565
I0 O26 1.819807 1_445
I0 O9 1.823387 1_545
I0 O31 1.824898 1_555
I1 O1 1.816630 1_555
I1 O18 1.847940 1_555
I1 O14 1.849026 1_555
I1 O16 2.323736 1_555
I2 O23 1.810666 1_455
I2 O2 1.813778 1_555
I2 O13 1.830864 1_455
I3 O11 1.816630 1_455
I3 O21 1.847940 1_554
I3 O20 1.849026 1_454
I3 O4 2.323736 1_555
I4 O24 1.819807 1_665
I4 O29 1.823387 1_565
I4 O6 1.824898 1_555
I5 O3 1.816630 1_555
I5 O28 1.847940 1_555
I5 O16 1.849026 1_555
I5 O14 2.323736 1_555
I6 O22 1.810666 1_655
I6 O34 1.813778 1_555
I6 O12 1.830864 1_655
I7 O5 1.810666 1_555
I7 O19 1.813778 1_555
I7 O17 1.830864 1_555
I8 O15 1.819807 1_545
I8 O33 1.823387 1_545
I8 O10 1.824898 1_555
I9 O25 1.819807 1_565
I9 O8 1.823387 1_565
I9 O35 1.824898 1_555
I10 O30 1.810666 1_555
I10 O0 1.813778 1_555
I10 O32 1.830864 1_555
I11 O7 1.816630 1_655
I11 O27 1.847940 1_556
I11 O4 1.849026 1_656
I11 O20 2.323736 1_555
