# generated using pymatgen
data_Ba2Ti2Si2O9F2
_symmetry_space_group_name_H-M   'P 1'
_cell_length_a   8.87257800
_cell_length_b   10.95090100
_cell_length_c   19.04214100
_cell_angle_alpha   90.00000000
_cell_angle_beta   90.00000000
_cell_angle_gamma   90.00000000
_symmetry_Int_Tables_number   1
_chemical_formula_structural   Ba2Ti2Si2O9F2
_chemical_formula_sum   'Ba16 Ti16 Si16 O72 F16'
_cell_volume   1850.18627689
_cell_formula_units_Z   8
loop_
 _symmetry_equiv_pos_site_id
 _symmetry_equiv_pos_as_xyz
  1  'x, y, z'
loop_
 _atom_site_type_symbol
 _atom_site_label
 _atom_site_symmetry_multiplicity
 _atom_site_fract_x
 _atom_site_fract_y
 _atom_site_fract_z
 _atom_site_occupancy
  Ba  Ba0  1  0.74694600  0.69921800  0.78133800  1
  Ba  Ba1  1  0.24694600  0.69921800  0.71866200  1
  Ba  Ba2  1  0.25647300  0.50374500  0.02715800  1
  Ba  Ba3  1  0.75647300  0.99625500  0.97284200  1
  Ba  Ba4  1  0.25305400  0.19921800  0.71866200  1
  Ba  Ba5  1  0.75305400  0.19921800  0.78133800  1
  Ba  Ba6  1  0.25305400  0.30078200  0.21866200  1
  Ba  Ba7  1  0.75647300  0.50374500  0.47284200  1
  Ba  Ba8  1  0.74352700  0.00374500  0.47284200  1
  Ba  Ba9  1  0.75305400  0.30078200  0.28133800  1
  Ba  Ba10  1  0.74694600  0.80078200  0.28133800  1
  Ba  Ba11  1  0.24352700  0.00374500  0.02715800  1
  Ba  Ba12  1  0.24694600  0.80078200  0.21866200  1
  Ba  Ba13  1  0.74352700  0.49625500  0.97284200  1
  Ba  Ba14  1  0.24352700  0.49625500  0.52715800  1
  Ba  Ba15  1  0.25647300  0.99625500  0.52715800  1
  Ti  Ti0  1  0.05048400  0.23762400  0.92274300  1
  Ti  Ti1  1  0.96906400  0.54062300  0.16228700  1
  Ti  Ti2  1  0.96906400  0.95937700  0.66228700  1
  Ti  Ti3  1  0.94951600  0.76237600  0.07725700  1
  Ti  Ti4  1  0.03093600  0.45937700  0.83771300  1
  Ti  Ti5  1  0.44951600  0.76237600  0.42274300  1
  Ti  Ti6  1  0.55048400  0.23762400  0.57725700  1
  Ti  Ti7  1  0.44951600  0.73762400  0.92274300  1
  Ti  Ti8  1  0.55048400  0.26237600  0.07725700  1
  Ti  Ti9  1  0.53093600  0.04062300  0.16228700  1
  Ti  Ti10  1  0.53093600  0.45937700  0.66228700  1
  Ti  Ti11  1  0.03093600  0.04062300  0.33771300  1
  Ti  Ti12  1  0.94951600  0.73762400  0.57725700  1
  Ti  Ti13  1  0.46906400  0.54062300  0.33771300  1
  Ti  Ti14  1  0.05048400  0.26237600  0.42274300  1
  Ti  Ti15  1  0.46906400  0.95937700  0.83771300  1
  Si  Si0  1  0.58397600  0.51747300  0.16878800  1
  Si  Si1  1  0.41602400  0.48252700  0.83121200  1
  Si  Si2  1  0.08397600  0.98252700  0.83121200  1
  Si  Si3  1  0.44033000  0.25859600  0.40991600  1
  Si  Si4  1  0.55967000  0.74140400  0.59008400  1
  Si  Si5  1  0.44033000  0.24140400  0.90991600  1
  Si  Si6  1  0.91602400  0.48252700  0.66878800  1
  Si  Si7  1  0.05967000  0.75859600  0.40991600  1
  Si  Si8  1  0.05967000  0.74140400  0.90991600  1
  Si  Si9  1  0.94033000  0.25859600  0.09008400  1
  Si  Si10  1  0.08397600  0.51747300  0.33121200  1
  Si  Si11  1  0.94033000  0.24140400  0.59008400  1
  Si  Si12  1  0.91602400  0.01747300  0.16878800  1
  Si  Si13  1  0.41602400  0.01747300  0.33121200  1
  Si  Si14  1  0.58397600  0.98252700  0.66878800  1
  Si  Si15  1  0.55967000  0.75859600  0.09008400  1
  O  O0  1  0.73303400  0.99668400  0.17458500  1
  O  O1  1  0.98070500  0.80845800  0.97722200  1
  O  O2  1  0.97014700  0.62099200  0.88259200  1
  O  O3  1  0.51929500  0.19154200  0.47722200  1
  O  O4  1  0.49316500  0.97073800  0.25829700  1
  O  O5  1  0.97014700  0.87900800  0.38259200  1
  O  O6  1  0.23303400  0.99668400  0.32541500  1
  O  O7  1  0.95378400  0.79040500  0.67758400  1
  O  O8  1  0.76696600  0.49668400  0.17458500  1
  O  O9  1  0.26288500  0.28514400  0.42913400  1
  O  O10  1  0.76288500  0.21485600  0.57086600  1
  O  O11  1  0.47014700  0.62099200  0.61740800  1
  O  O12  1  0.73711500  0.78514400  0.07086600  1
  O  O13  1  0.50683500  0.47073800  0.24170300  1
  O  O14  1  0.52985300  0.12099200  0.88259200  1
  O  O15  1  0.44681000  0.16639800  0.33976600  1
  O  O16  1  0.54621600  0.20959500  0.17758400  1
  O  O17  1  0.98070500  0.69154200  0.47722200  1
  O  O18  1  0.46154700  0.90512700  0.93709200  1
  O  O19  1  0.45378400  0.79040500  0.82241600  1
  O  O20  1  0.53845300  0.40512700  0.56290800  1
  O  O21  1  0.53845300  0.09487300  0.06290800  1
  O  O22  1  0.05319000  0.66639800  0.33976600  1
  O  O23  1  0.02985300  0.12099200  0.61740800  1
  O  O24  1  0.48070500  0.69154200  0.02277800  1
  O  O25  1  0.05319000  0.83360200  0.83976600  1
  O  O26  1  0.04621600  0.20959500  0.32241600  1
  O  O27  1  0.01929500  0.30845800  0.52277800  1
  O  O28  1  0.02985300  0.37900800  0.11740800  1
  O  O29  1  0.26288500  0.21485600  0.92913400  1
  O  O30  1  0.94681000  0.16639800  0.16023400  1
  O  O31  1  0.73711500  0.71485600  0.57086600  1
  O  O32  1  0.49316500  0.52926200  0.75829700  1
  O  O33  1  0.97769000  0.55536700  0.60047900  1
  O  O34  1  0.55319000  0.66639800  0.16023400  1
  O  O35  1  0.04621600  0.29040500  0.82241600  1
  O  O36  1  0.26696600  0.49668400  0.32541500  1
  O  O37  1  0.47769000  0.55536700  0.89952100  1
  O  O38  1  0.76288500  0.28514400  0.07086600  1
  O  O39  1  0.26696600  0.00331600  0.82541500  1
  O  O40  1  0.73303400  0.50331600  0.67458500  1
  O  O41  1  0.47014700  0.87900800  0.11740800  1
  O  O42  1  0.76696600  0.00331600  0.67458500  1
  O  O43  1  0.46154700  0.59487300  0.43709200  1
  O  O44  1  0.55319000  0.83360200  0.66023400  1
  O  O45  1  0.97769000  0.94463300  0.10047900  1
  O  O46  1  0.03845300  0.09487300  0.43709200  1
  O  O47  1  0.96154700  0.90512700  0.56290800  1
  O  O48  1  0.02231000  0.05536700  0.89952100  1
  O  O49  1  0.23711500  0.78514400  0.42913400  1
  O  O50  1  0.52231000  0.44463300  0.10047900  1
  O  O51  1  0.95378400  0.70959500  0.17758400  1
  O  O52  1  0.96154700  0.59487300  0.06290800  1
  O  O53  1  0.52231000  0.05536700  0.60047900  1
  O  O54  1  0.48070500  0.80845800  0.52277800  1
  O  O55  1  0.23711500  0.71485600  0.92913400  1
  O  O56  1  0.99316500  0.52926200  0.74170300  1
  O  O57  1  0.01929500  0.19154200  0.02277800  1
  O  O58  1  0.02231000  0.44463300  0.39952100  1
  O  O59  1  0.94681000  0.33360200  0.66023400  1
  O  O60  1  0.52985300  0.37900800  0.38259200  1
  O  O61  1  0.00683500  0.47073800  0.25829700  1
  O  O62  1  0.47769000  0.94463300  0.39952100  1
  O  O63  1  0.03845300  0.40512700  0.93709200  1
  O  O64  1  0.23303400  0.50331600  0.82541500  1
  O  O65  1  0.00683500  0.02926200  0.75829700  1
  O  O66  1  0.51929500  0.30845800  0.97722200  1
  O  O67  1  0.54621600  0.29040500  0.67758400  1
  O  O68  1  0.45378400  0.70959500  0.32241600  1
  O  O69  1  0.99316500  0.97073800  0.24170300  1
  O  O70  1  0.50683500  0.02926200  0.74170300  1
  O  O71  1  0.44681000  0.33360200  0.83976600  1
  F  F0  1  0.82281200  0.27169400  0.41665400  1
  F  F1  1  0.29901600  0.05796700  0.16402600  1
  F  F2  1  0.79901600  0.05796700  0.33597400  1
  F  F3  1  0.20098400  0.55796700  0.16402600  1
  F  F4  1  0.67718800  0.72830600  0.91665400  1
  F  F5  1  0.82281200  0.22830600  0.91665400  1
  F  F6  1  0.29901600  0.44203300  0.66402600  1
  F  F7  1  0.32281200  0.22830600  0.58334600  1
  F  F8  1  0.70098400  0.55796700  0.33597400  1
  F  F9  1  0.20098400  0.94203300  0.66402600  1
  F  F10  1  0.32281200  0.27169400  0.08334600  1
  F  F11  1  0.70098400  0.94203300  0.83597400  1
  F  F12  1  0.67718800  0.77169400  0.41665400  1
  F  F13  1  0.17718800  0.77169400  0.08334600  1
  F  F14  1  0.79901600  0.44203300  0.83597400  1
  F  F15  1  0.17718800  0.72830600  0.58334600  1
loop_
_geom_bond_atom_site_label_1
_geom_bond_atom_site_label_2
_geom_bond_distance
_geom_bond_site_symmetry_2
Ba0 F4 2.669075 1_555
Ba0 O7 2.875492 1_555
Ba0 F11 2.884305 1_555
Ba0 O2 2.893655 1_555
Ba0 O19 2.893917 1_555
Ba0 O32 2.954078 1_555
Ba0 O40 2.958017 1_555
Ba0 O56 2.967499 1_555
Ba0 F14 3.037761 1_555
Ba0 O44 3.230951 1_555
Ba0 O25 3.284293 1_655
Ba1 F15 2.669075 1_555
Ba1 O19 2.875492 1_555
Ba1 F9 2.884305 1_555
Ba1 O11 2.893655 1_555
Ba1 O7 2.893917 1_455
Ba1 O56 2.954078 1_455
Ba1 O64 2.958017 1_555
Ba1 O32 2.967499 1_555
Ba1 F6 3.037761 1_555
Ba1 O25 3.230951 1_555
Ba1 O44 3.284293 1_555
Ba2 F3 2.718005 1_555
Ba2 O63 2.801714 1_554
Ba2 O50 2.816319 1_555
Ba2 F10 2.819353 1_555
Ba2 O24 2.862606 1_555
Ba2 O52 2.882135 1_455
Ba2 O55 2.976293 1_554
Ba2 O28 2.976955 1_555
Ba2 O37 3.174785 1_554
Ba2 F13 3.201507 1_555
Ba2 O66 3.303856 1_554
Ba3 F11 2.718005 1_555
Ba3 O21 2.801714 1_566
Ba3 O48 2.816319 1_665
Ba3 F5 2.819353 1_565
Ba3 O1 2.862606 1_555
Ba3 O18 2.882135 1_555
Ba3 O12 2.976293 1_556
Ba3 O14 2.976955 1_565
Ba3 O45 3.174785 1_556
Ba3 F4 3.201507 1_555
Ba3 O57 3.303856 1_666
Ba4 F7 2.669075 1_555
Ba4 O35 2.875492 1_555
Ba4 F6 2.884305 1_555
Ba4 O23 2.893655 1_555
Ba4 O67 2.893917 1_555
Ba4 O70 2.954078 1_555
Ba4 O39 2.958017 1_555
Ba4 O65 2.967499 1_555
Ba4 F9 3.037761 1_545
Ba4 O71 3.230951 1_555
Ba4 O59 3.284293 1_455
Ba5 F5 2.669075 1_555
Ba5 O67 2.875492 1_555
Ba5 F14 2.884305 1_555
Ba5 O14 2.893655 1_555
Ba5 O35 2.893917 1_655
Ba5 O65 2.954078 1_655
Ba5 O42 2.958017 1_555
Ba5 O70 2.967499 1_555
Ba5 F11 3.037761 1_545
Ba5 O59 3.230951 1_555
Ba5 O71 3.284293 1_555
Ba6 F10 2.669075 1_555
Ba6 O26 2.875492 1_555
Ba6 F1 2.884305 1_555
Ba6 O28 2.893655 1_555
Ba6 O16 2.893917 1_555
Ba6 O13 2.954078 1_555
Ba6 O36 2.958017 1_555
Ba6 O61 2.967499 1_555
Ba6 F3 3.037761 1_555
Ba6 O15 3.230951 1_555
Ba6 O30 3.284293 1_455
Ba7 F8 2.718005 1_555
Ba7 O20 2.801714 1_555
Ba7 O58 2.816319 1_655
Ba7 F0 2.819353 1_555
Ba7 O17 2.862606 1_555
Ba7 O43 2.882135 1_555
Ba7 O31 2.976293 1_555
Ba7 O60 2.976955 1_555
Ba7 O33 3.174785 1_555
Ba7 F12 3.201507 1_555
Ba7 O27 3.303856 1_655
Ba8 F2 2.718005 1_555
Ba8 O47 2.801714 1_545
Ba8 O62 2.816319 1_545
Ba8 F12 2.819353 1_545
Ba8 O3 2.862606 1_555
Ba8 O46 2.882135 1_655
Ba8 O10 2.976293 1_555
Ba8 O5 2.976955 1_545
Ba8 O53 3.174785 1_555
Ba8 F0 3.201507 1_555
Ba8 O54 3.303856 1_545
Ba9 F0 2.669075 1_555
Ba9 O16 2.875492 1_555
Ba9 F2 2.884305 1_555
Ba9 O60 2.893655 1_555
Ba9 O26 2.893917 1_655
Ba9 O61 2.954078 1_655
Ba9 O8 2.958017 1_555
Ba9 O13 2.967499 1_555
Ba9 F8 3.037761 1_555
Ba9 O30 3.230951 1_555
Ba9 O15 3.284293 1_555
Ba10 F12 2.669075 1_555
Ba10 O51 2.875492 1_555
Ba10 F8 2.884305 1_555
Ba10 O5 2.893655 1_555
Ba10 O68 2.893917 1_555
Ba10 O4 2.954078 1_555
Ba10 O0 2.958017 1_555
Ba10 O69 2.967499 1_555
Ba10 F2 3.037761 1_565
Ba10 O34 3.230951 1_555
Ba10 O22 3.284293 1_655
Ba11 F1 2.718005 1_555
Ba11 O18 2.801714 1_544
Ba11 O45 2.816319 1_445
Ba11 F13 2.819353 1_545
Ba11 O57 2.862606 1_555
Ba11 O21 2.882135 1_555
Ba11 O29 2.976293 1_554
Ba11 O41 2.976955 1_545
Ba11 O48 3.174785 1_554
Ba11 F10 3.201507 1_555
Ba11 O1 3.303856 1_444
Ba12 F13 2.669075 1_555
Ba12 O68 2.875492 1_555
Ba12 F3 2.884305 1_555
Ba12 O41 2.893655 1_555
Ba12 O51 2.893917 1_455
Ba12 O69 2.954078 1_455
Ba12 O6 2.958017 1_555
Ba12 O4 2.967499 1_555
Ba12 F1 3.037761 1_565
Ba12 O22 3.230951 1_555
Ba12 O34 3.284293 1_555
Ba13 F14 2.718005 1_555
Ba13 O52 2.801714 1_556
Ba13 O37 2.816319 1_555
Ba13 F4 2.819353 1_555
Ba13 O66 2.862606 1_555
Ba13 O63 2.882135 1_655
Ba13 O38 2.976293 1_556
Ba13 O2 2.976955 1_555
Ba13 O50 3.174785 1_556
Ba13 F5 3.201507 1_555
Ba13 O24 3.303856 1_556
Ba14 F6 2.718005 1_555
Ba14 O43 2.801714 1_555
Ba14 O33 2.816319 1_455
Ba14 F15 2.819353 1_555
Ba14 O27 2.862606 1_555
Ba14 O20 2.882135 1_555
Ba14 O9 2.976293 1_555
Ba14 O11 2.976955 1_555
Ba14 O58 3.174785 1_555
Ba14 F7 3.201507 1_555
Ba14 O17 3.303856 1_455
Ba15 F9 2.718005 1_555
Ba15 O46 2.801714 1_565
Ba15 O53 2.816319 1_565
Ba15 F7 2.819353 1_565
Ba15 O54 2.862606 1_555
Ba15 O47 2.882135 1_455
Ba15 O49 2.976293 1_555
Ba15 O23 2.976955 1_565
Ba15 O62 3.174785 1_555
Ba15 F15 3.201507 1_555
Ba15 O3 3.303856 1_565
O0 Si12 1.643188 1_565
O0 Ti9 1.871278 1_565
O1 Si8 1.634839 1_655
O1 Ti3 1.989927 1_556
O2 Si8 1.624928 1_655
O2 Ti4 2.038021 1_655
O3 Si3 1.634839 1_555
O3 Ti6 1.989927 1_555
O4 Si13 1.630399 1_565
O4 Ti9 2.010086 1_565
O5 Si7 1.624928 1_655
O5 Ti11 2.038021 1_665
O6 Si13 1.643188 1_565
O6 Ti11 1.871278 1_565
O7 Ti2 1.878082 1_555
O7 Ti12 1.996322 1_555
O8 Si0 1.643188 1_555
O8 Ti1 1.871278 1_555
O9 Si3 1.642303 1_555
O9 Ti14 1.904858 1_555
O10 Si11 1.642303 1_555
O10 Ti6 1.904858 1_555
O11 Si4 1.624928 1_555
O11 Ti10 2.038021 1_555
O12 Si15 1.642303 1_555
O12 Ti3 1.904858 1_555
O13 Si0 1.630399 1_555
O13 Ti13 2.010086 1_555
O14 Si5 1.624928 1_555
O14 Ti15 2.038021 1_545
O15 Si13 1.661583 1_555
O15 Si3 1.675434 1_555
O16 Ti9 1.878082 1_555
O16 Ti8 1.996322 1_555
O17 Si7 1.634839 1_655
O17 Ti12 1.989927 1_555
O18 Ti7 1.857617 1_555
O18 Ti15 1.984571 1_555
O19 Ti15 1.878082 1_555
O19 Ti7 1.996322 1_555
O20 Ti6 1.857617 1_555
O20 Ti10 1.984571 1_555
O21 Ti8 1.857617 1_555
O21 Ti9 1.984571 1_555
O22 Si10 1.661583 1_555
O22 Si7 1.675434 1_555
O23 Si11 1.624928 1_455
O23 Ti2 2.038021 1_445
O24 Si15 1.634839 1_555
O24 Ti7 1.989927 1_554
O25 Si2 1.661583 1_555
O25 Si8 1.675434 1_555
O26 Ti11 1.878082 1_555
O26 Ti14 1.996322 1_555
O27 Si11 1.634839 1_455
O27 Ti14 1.989927 1_555
O28 Si9 1.624928 1_455
O28 Ti1 2.038021 1_455
O29 Si5 1.642303 1_555
O29 Ti0 1.904858 1_555
O30 Si12 1.661583 1_555
O30 Si9 1.675434 1_555
O31 Si4 1.642303 1_555
O31 Ti12 1.904858 1_555
O32 Si1 1.630399 1_555
O32 Ti10 2.010086 1_555
O33 Si6 1.620980 1_555
O33 Ti12 2.059504 1_555
O34 Si0 1.661583 1_555
O34 Si15 1.675434 1_555
O35 Ti4 1.878082 1_555
O35 Ti0 1.996322 1_555
O36 Si10 1.643188 1_555
O36 Ti13 1.871278 1_555
O37 Si1 1.620980 1_555
O37 Ti7 2.059504 1_555
O38 Si9 1.642303 1_555
O38 Ti8 1.904858 1_555
O39 Si2 1.643188 1_545
O39 Ti15 1.871278 1_545
O40 Si6 1.643188 1_555
O40 Ti10 1.871278 1_555
O41 Si15 1.624928 1_555
O41 Ti9 2.038021 1_565
O42 Si14 1.643188 1_545
O42 Ti2 1.871278 1_545
O43 Ti5 1.857617 1_555
O43 Ti13 1.984571 1_555
O44 Si14 1.661583 1_555
O44 Si4 1.675434 1_555
O45 Si12 1.620980 1_565
O45 Ti3 2.059504 1_555
O46 Ti14 1.857617 1_555
O46 Ti11 1.984571 1_555
O47 Ti12 1.857617 1_555
O47 Ti2 1.984571 1_555
O48 Si2 1.620980 1_545
O48 Ti0 2.059504 1_555
O49 Si7 1.642303 1_555
O49 Ti5 1.904858 1_555
O50 Si0 1.620980 1_555
O50 Ti8 2.059504 1_555
O51 Ti1 1.878082 1_555
O51 Ti3 1.996322 1_555
O52 Ti3 1.857617 1_555
O52 Ti1 1.984571 1_555
O53 Si14 1.620980 1_545
O53 Ti6 2.059504 1_555
O54 Si4 1.634839 1_555
O54 Ti5 1.989927 1_555
O55 Si8 1.642303 1_555
O55 Ti7 1.904858 1_555
O56 Si6 1.630399 1_555
O56 Ti4 2.010086 1_655
O57 Si9 1.634839 1_455
O57 Ti0 1.989927 1_554
O58 Si10 1.620980 1_555
O58 Ti14 2.059504 1_555
O59 Si6 1.661583 1_555
O59 Si11 1.675434 1_555
O60 Si3 1.624928 1_555
O60 Ti13 2.038021 1_555
O61 Si10 1.630399 1_555
O61 Ti1 2.010086 1_455
O62 Si13 1.620980 1_565
O62 Ti5 2.059504 1_555
O63 Ti0 1.857617 1_555
O63 Ti4 1.984571 1_555
O64 Si1 1.643188 1_555
O64 Ti4 1.871278 1_555
O65 Si2 1.630399 1_545
O65 Ti2 2.010086 1_445
O66 Si5 1.634839 1_555
O66 Ti8 1.989927 1_556
O67 Ti10 1.878082 1_555
O67 Ti6 1.996322 1_555
O68 Ti13 1.878082 1_555
O68 Ti5 1.996322 1_555
O69 Si12 1.630399 1_565
O69 Ti11 2.010086 1_665
O70 Si14 1.630399 1_545
O70 Ti15 2.010086 1_545
O71 Si1 1.661583 1_555
O71 Si5 1.675434 1_555
F0 Ti14 2.025934 1_655
F1 Ti9 2.066741 1_555
F2 Ti11 2.066741 1_655
F3 Ti1 2.066741 1_455
F4 Ti7 2.025934 1_555
F5 Ti0 2.025934 1_655
F6 Ti10 2.066741 1_555
F7 Ti6 2.025934 1_555
F8 Ti13 2.066741 1_555
F9 Ti2 2.066741 1_455
F10 Ti8 2.025934 1_555
F11 Ti15 2.066741 1_555
F12 Ti5 2.025934 1_555
F13 Ti3 2.025934 1_455
F14 Ti4 2.066741 1_655
F15 Ti12 2.025934 1_455
