# generated using pymatgen
data_NaCuO2
_symmetry_space_group_name_H-M   'P 1'
_cell_length_a   5.55500178
_cell_length_b   5.55500178
_cell_length_c   5.55500178
_cell_angle_alpha   31.75989538
_cell_angle_beta   31.75989538
_cell_angle_gamma   31.75989321
_symmetry_Int_Tables_number   1
_chemical_formula_structural   NaCuO2
_chemical_formula_sum   'Na1 Cu1 O2'
_cell_volume   42.18037817
_cell_formula_units_Z   1
loop_
 _symmetry_equiv_pos_site_id
 _symmetry_equiv_pos_as_xyz
  1  'x, y, z'
loop_
 _atom_site_type_symbol
 _atom_site_label
 _atom_site_symmetry_multiplicity
 _atom_site_fract_x
 _atom_site_fract_y
 _atom_site_fract_z
 _atom_site_occupancy
  Na  Na0  1  0.50000000  0.50000000  0.50000000  1
  Cu  Cu0  1  0.00000000  0.00000000  0.00000000  1
  O  O0  1  0.26657400  0.26657400  0.26657400  1
  O  O1  1  0.73342600  0.73342600  0.73342600  1
loop_
_geom_bond_atom_site_label_1
_geom_bond_atom_site_label_2
_geom_bond_distance
_geom_bond_site_symmetry_2
Na0 O0 2.361309 1_655
Na0 O0 2.361309 1_565
Na0 O1 2.361309 1_545
Na0 O1 2.361309 1_455
Na0 O0 2.361310 1_556
Na0 O1 2.361310 1_554
Cu0 O1 2.048078 1_544
Cu0 O1 2.048078 1_454
Cu0 O0 2.048078 1_455
Cu0 O0 2.048078 1_545
Cu0 O1 2.048078 1_445
Cu0 O0 2.048078 1_554
