# generated using pymatgen
data_Ce2Ge4Pt7
_symmetry_space_group_name_H-M   'P 1'
_cell_length_a   4.10844400
_cell_length_b   11.59261400
_cell_length_c   20.11886700
_cell_angle_alpha   90.00000000
_cell_angle_beta   90.00000000
_cell_angle_gamma   90.00000000
_symmetry_Int_Tables_number   1
_chemical_formula_structural   Ce2Ge4Pt7
_chemical_formula_sum   'Ce8 Ge16 Pt28'
_cell_volume   958.21345923
_cell_formula_units_Z   4
loop_
 _symmetry_equiv_pos_site_id
 _symmetry_equiv_pos_as_xyz
  1  'x, y, z'
loop_
 _atom_site_type_symbol
 _atom_site_label
 _atom_site_symmetry_multiplicity
 _atom_site_fract_x
 _atom_site_fract_y
 _atom_site_fract_z
 _atom_site_occupancy
  Ce  Ce0  1  0.75000000  0.74309100  0.02808900  1
  Ce  Ce1  1  0.75000000  0.75690900  0.52808900  1
  Ce  Ce2  1  0.25000000  0.25690900  0.97191100  1
  Ce  Ce3  1  0.25000000  0.01398100  0.28064100  1
  Ce  Ce4  1  0.25000000  0.24309100  0.47191100  1
  Ce  Ce5  1  0.75000000  0.98601900  0.71935900  1
  Ce  Ce6  1  0.25000000  0.48601900  0.78064100  1
  Ce  Ce7  1  0.75000000  0.51398100  0.21935900  1
  Ge  Ge0  1  0.75000000  0.42290400  0.41438700  1
  Ge  Ge1  1  0.25000000  0.29292700  0.25577800  1
  Ge  Ge2  1  0.25000000  0.56411500  0.08682700  1
  Ge  Ge3  1  0.25000000  0.92290400  0.08561300  1
  Ge  Ge4  1  0.25000000  0.20707300  0.75577800  1
  Ge  Ge5  1  0.75000000  0.24685200  0.59486400  1
  Ge  Ge6  1  0.75000000  0.43588500  0.91317300  1
  Ge  Ge7  1  0.25000000  0.74685200  0.90513600  1
  Ge  Ge8  1  0.25000000  0.93588500  0.58682700  1
  Ge  Ge9  1  0.75000000  0.06411500  0.41317300  1
  Ge  Ge10  1  0.75000000  0.70707300  0.74422200  1
  Ge  Ge11  1  0.75000000  0.79292700  0.24422200  1
  Ge  Ge12  1  0.25000000  0.75314800  0.40513600  1
  Ge  Ge13  1  0.75000000  0.25314800  0.09486400  1
  Ge  Ge14  1  0.25000000  0.57709600  0.58561300  1
  Ge  Ge15  1  0.75000000  0.07709600  0.91438700  1
  Pt  Pt0  1  0.75000000  0.45249700  0.04135900  1
  Pt  Pt1  1  0.75000000  0.62061700  0.37014500  1
  Pt  Pt2  1  0.75000000  0.43686800  0.53488800  1
  Pt  Pt3  1  0.75000000  0.87938300  0.87014500  1
  Pt  Pt4  1  0.75000000  0.06313200  0.03488800  1
  Pt  Pt5  1  0.25000000  0.54750300  0.95864100  1
  Pt  Pt6  1  0.25000000  0.12061700  0.12985500  1
  Pt  Pt7  1  0.75000000  0.55151200  0.66194900  1
  Pt  Pt8  1  0.75000000  0.94848800  0.16194900  1
  Pt  Pt9  1  0.75000000  0.25651500  0.84852000  1
  Pt  Pt10  1  0.25000000  0.74348500  0.15148000  1
  Pt  Pt11  1  0.25000000  0.37938300  0.62985500  1
  Pt  Pt12  1  0.25000000  0.82151400  0.78293600  1
  Pt  Pt13  1  0.75000000  0.24348500  0.34852000  1
  Pt  Pt14  1  0.75000000  0.87080200  0.36303100  1
  Pt  Pt15  1  0.25000000  0.93686800  0.96511200  1
  Pt  Pt16  1  0.25000000  0.67848600  0.28293600  1
  Pt  Pt17  1  0.75000000  0.32151400  0.71706400  1
  Pt  Pt18  1  0.75000000  0.62919800  0.86303100  1
  Pt  Pt19  1  0.25000000  0.05151200  0.83805100  1
  Pt  Pt20  1  0.25000000  0.12919800  0.63696900  1
  Pt  Pt21  1  0.25000000  0.95249700  0.45864100  1
  Pt  Pt22  1  0.75000000  0.04750300  0.54135900  1
  Pt  Pt23  1  0.25000000  0.56313200  0.46511200  1
  Pt  Pt24  1  0.25000000  0.44848800  0.33805100  1
  Pt  Pt25  1  0.25000000  0.75651500  0.65148000  1
  Pt  Pt26  1  0.25000000  0.37080200  0.13696900  1
  Pt  Pt27  1  0.75000000  0.17848600  0.21706400  1
loop_
_geom_bond_atom_site_label_1
_geom_bond_atom_site_label_2
_geom_bond_distance
_geom_bond_site_symmetry_2
Ce0 Ge3 3.147120 1_555
Ce0 Ge3 3.147120 1_655
Ce0 Ge2 3.149783 1_555
Ce0 Ge2 3.149783 1_655
Ce0 Ge7 3.215711 1_554
Ce0 Ge7 3.215711 1_654
Ce0 Pt10 3.222203 1_655
Ce0 Pt10 3.222203 1_555
Ce0 Pt15 3.297183 1_554
Ce0 Pt15 3.297183 1_654
Ce0 Pt5 3.363485 1_654
Ce0 Pt5 3.363485 1_554
Ce0 Pt0 3.379307 1_555
Ce0 Pt3 3.548778 1_554
Ce0 Pt18 3.573628 1_554
Ce0 Pt8 3.594778 1_555
Ce0 Pt4 3.712633 1_565
Ce1 Ge14 3.147120 1_555
Ce1 Ge14 3.147120 1_655
Ce1 Ge8 3.149783 1_655
Ce1 Ge8 3.149783 1_555
Ce1 Ge12 3.215711 1_655
Ce1 Ge12 3.215711 1_555
Ce1 Pt25 3.222203 1_555
Ce1 Pt25 3.222203 1_655
Ce1 Pt23 3.297183 1_655
Ce1 Pt23 3.297183 1_555
Ce1 Pt21 3.363485 1_555
Ce1 Pt21 3.363485 1_655
Ce1 Pt22 3.379307 1_565
Ce1 Pt1 3.548778 1_555
Ce1 Pt14 3.573628 1_555
Ce1 Pt7 3.594778 1_555
Ce1 Pt2 3.712633 1_555
Ce2 Ge15 3.147120 1_555
Ce2 Ge15 3.147120 1_455
Ce2 Ge6 3.149783 1_455
Ce2 Ge6 3.149783 1_555
Ce2 Ge13 3.215711 1_456
Ce2 Ge13 3.215711 1_556
Ce2 Pt9 3.222203 1_455
Ce2 Pt9 3.222203 1_555
Ce2 Pt4 3.297183 1_456
Ce2 Pt4 3.297183 1_556
Ce2 Pt0 3.363485 1_556
Ce2 Pt0 3.363485 1_456
Ce2 Pt5 3.379307 1_555
Ce2 Pt6 3.548778 1_556
Ce2 Pt26 3.573628 1_556
Ce2 Pt19 3.594778 1_555
Ce2 Pt15 3.712633 1_545
Ce3 Pt27 3.081028 1_455
Ce3 Pt27 3.081028 1_555
Ce3 Pt14 3.118083 1_545
Ce3 Pt14 3.118083 1_445
Ce3 Pt8 3.240149 1_445
Ce3 Pt8 3.240149 1_545
Ce3 Ge1 3.272173 1_555
Ce3 Pt6 3.275845 1_555
Ce3 Ge11 3.365052 1_545
Ce3 Ge11 3.365052 1_445
Ce3 Ge9 3.415737 1_455
Ce3 Ge9 3.415737 1_555
Ce4 Ge0 3.147120 1_555
Ce4 Ge0 3.147120 1_455
Ce4 Ge9 3.149783 1_455
Ce4 Ge9 3.149783 1_555
Ce4 Ge5 3.215711 1_555
Ce4 Ge5 3.215711 1_455
Ce4 Pt13 3.222203 1_455
Ce4 Pt13 3.222203 1_555
Ce4 Pt2 3.297183 1_455
Ce4 Pt2 3.297183 1_555
Ce4 Pt22 3.363485 1_555
Ce4 Pt22 3.363485 1_455
Ce4 Pt21 3.379307 1_545
Ce4 Pt11 3.548778 1_555
Ce4 Pt20 3.573628 1_555
Ce4 Pt24 3.594778 1_555
Ce4 Pt23 3.712633 1_555
Ce5 Pt12 3.081028 1_555
Ce5 Pt12 3.081028 1_655
Ce5 Pt20 3.118083 1_665
Ce5 Pt20 3.118083 1_565
Ce5 Pt19 3.240149 1_565
Ce5 Pt19 3.240149 1_665
Ce5 Ge10 3.272173 1_555
Ce5 Pt3 3.275845 1_555
Ce5 Ge4 3.365052 1_565
Ce5 Ge4 3.365052 1_665
Ce5 Ge8 3.415737 1_655
Ce5 Ge8 3.415737 1_555
Ce6 Pt17 3.081028 1_455
Ce6 Pt17 3.081028 1_555
Ce6 Pt18 3.118083 1_455
Ce6 Pt18 3.118083 1_555
Ce6 Pt7 3.240149 1_455
Ce6 Pt7 3.240149 1_555
Ce6 Ge4 3.272173 1_555
Ce6 Pt11 3.275845 1_555
Ce6 Ge10 3.365052 1_455
Ce6 Ge10 3.365052 1_555
Ce6 Ge6 3.415737 1_455
Ce6 Ge6 3.415737 1_555
Ce7 Pt16 3.081028 1_555
Ce7 Pt16 3.081028 1_655
Ce7 Pt26 3.118083 1_655
Ce7 Pt26 3.118083 1_555
Ce7 Pt24 3.240149 1_655
Ce7 Pt24 3.240149 1_555
Ce7 Ge11 3.272173 1_555
Ce7 Pt1 3.275845 1_555
Ce7 Ge1 3.365052 1_555
Ce7 Ge1 3.365052 1_655
Ce7 Ge2 3.415737 1_555
Ce7 Ge2 3.415737 1_655
Ge0 Pt2 2.429742 1_555
Ge0 Pt1 2.458778 1_555
Ge0 Pt13 2.466213 1_555
Ge0 Pt24 2.581948 1_655
Ge0 Pt24 2.581948 1_555
Ge0 Pt23 2.811390 1_655
Ge0 Pt23 2.811390 1_555
Ge1 Pt24 2.447840 1_555
Ge1 Pt26 2.555102 1_555
Ge1 Pt27 2.566425 1_555
Ge1 Pt27 2.566425 1_455
Ge1 Pt13 2.833689 1_455
Ge1 Pt13 2.833689 1_555
Ge2 Pt10 2.452694 1_555
Ge2 Pt26 2.457595 1_555
Ge2 Pt5 2.586137 1_554
Ge2 Pt0 2.594401 1_455
Ge2 Pt0 2.594401 1_555
Ge3 Pt15 2.429742 1_554
Ge3 Pt6 2.458778 1_565
Ge3 Pt10 2.466213 1_555
Ge3 Pt8 2.581948 1_555
Ge3 Pt8 2.581948 1_455
Ge3 Pt4 2.811390 1_565
Ge3 Pt4 2.811390 1_465
Ge4 Pt19 2.447840 1_555
Ge4 Pt20 2.555102 1_555
Ge4 Pt17 2.566425 1_455
Ge4 Pt17 2.566425 1_555
Ge4 Pt9 2.833689 1_455
Ge4 Pt9 2.833689 1_555
Ge5 Pt2 2.511623 1_555
Ge5 Pt22 2.549387 1_555
Ge5 Pt17 2.606432 1_555
Ge5 Pt20 2.607237 1_555
Ge5 Pt20 2.607237 1_655
Ge5 Pt11 2.660053 1_555
Ge5 Pt11 2.660053 1_655
Ge6 Pt9 2.452694 1_555
Ge6 Pt18 2.457595 1_555
Ge6 Pt0 2.586137 1_556
Ge6 Pt5 2.594401 1_555
Ge6 Pt5 2.594401 1_655
Ge7 Pt15 2.511623 1_555
Ge7 Pt5 2.549387 1_555
Ge7 Pt12 2.606432 1_555
Ge7 Pt18 2.607237 1_455
Ge7 Pt18 2.607237 1_555
Ge7 Pt3 2.660053 1_455
Ge7 Pt3 2.660053 1_555
Ge8 Pt25 2.452694 1_555
Ge8 Pt20 2.457595 1_565
Ge8 Pt21 2.586137 1_555
Ge8 Pt22 2.594401 1_465
Ge8 Pt22 2.594401 1_565
Ge9 Pt13 2.452694 1_555
Ge9 Pt14 2.457595 1_545
Ge9 Pt22 2.586137 1_555
Ge9 Pt21 2.594401 1_645
Ge9 Pt21 2.594401 1_545
Ge10 Pt7 2.447840 1_555
Ge10 Pt18 2.555102 1_555
Ge10 Pt12 2.566425 1_655
Ge10 Pt12 2.566425 1_555
Ge10 Pt25 2.833689 1_655
Ge10 Pt25 2.833689 1_555
Ge11 Pt8 2.447840 1_555
Ge11 Pt14 2.555102 1_555
Ge11 Pt16 2.566425 1_555
Ge11 Pt16 2.566425 1_655
Ge11 Pt10 2.833689 1_555
Ge11 Pt10 2.833689 1_655
Ge12 Pt23 2.511623 1_555
Ge12 Pt21 2.549387 1_555
Ge12 Pt16 2.606432 1_555
Ge12 Pt14 2.607237 1_455
Ge12 Pt14 2.607237 1_555
Ge12 Pt1 2.660053 1_455
Ge12 Pt1 2.660053 1_555
Ge13 Pt4 2.511623 1_555
Ge13 Pt0 2.549387 1_555
Ge13 Pt27 2.606432 1_555
Ge13 Pt26 2.607237 1_655
Ge13 Pt26 2.607237 1_555
Ge13 Pt6 2.660053 1_555
Ge13 Pt6 2.660053 1_655
Ge14 Pt23 2.429742 1_555
Ge14 Pt11 2.458778 1_555
Ge14 Pt25 2.466213 1_555
Ge14 Pt7 2.581948 1_555
Ge14 Pt7 2.581948 1_455
Ge14 Pt2 2.811390 1_555
Ge14 Pt2 2.811390 1_455
Ge15 Pt4 2.429742 1_556
Ge15 Pt3 2.458778 1_545
Ge15 Pt9 2.466213 1_555
Ge15 Pt19 2.581948 1_555
Ge15 Pt19 2.581948 1_655
Ge15 Pt15 2.811390 1_545
Ge15 Pt15 2.811390 1_645
