# generated using pymatgen
data_TbCuS2
_symmetry_space_group_name_H-M   'P 1'
_cell_length_a   6.35976516
_cell_length_b   6.74120031
_cell_length_c   6.99886418
_cell_angle_alpha   90.00000000
_cell_angle_beta   90.00000000
_cell_angle_gamma   97.30826649
_symmetry_Int_Tables_number   1
_chemical_formula_structural   TbCuS2
_chemical_formula_sum   'Tb4 Cu4 S8'
_cell_volume   297.62081536
_cell_formula_units_Z   4
loop_
 _symmetry_equiv_pos_site_id
 _symmetry_equiv_pos_as_xyz
  1  'x, y, z'
loop_
 _atom_site_type_symbol
 _atom_site_label
 _atom_site_symmetry_multiplicity
 _atom_site_fract_x
 _atom_site_fract_y
 _atom_site_fract_z
 _atom_site_occupancy
  Tb  Tb0  1  0.69218284  0.30091640  0.04900861  1
  Tb  Tb1  1  0.30781716  0.19908360  0.54900861  1
  Tb  Tb2  1  0.30781716  0.69908360  0.95099139  1
  Tb  Tb3  1  0.69218284  0.80091640  0.45099139  1
  Cu  Cu0  1  0.92124732  0.94957596  0.83865782  1
  Cu  Cu1  1  0.07875268  0.05042404  0.16134218  1
  Cu  Cu2  1  0.07875268  0.55042404  0.33865782  1
  Cu  Cu3  1  0.92124732  0.44957596  0.66134218  1
  S  S0  1  0.57703302  0.49732660  0.72664476  1
  S  S1  1  0.42296698  0.00267340  0.22664476  1
  S  S2  1  0.42296698  0.50267340  0.27335524  1
  S  S3  1  0.57703302  0.99732660  0.77335524  1
  S  S4  1  0.90960459  0.22084299  0.38615090  1
  S  S5  1  0.90960459  0.72084299  0.11384910  1
  S  S6  1  0.09039541  0.77915701  0.61384910  1
  S  S7  1  0.09039541  0.27915701  0.88615090  1
loop_
_geom_bond_atom_site_label_1
_geom_bond_atom_site_label_2
_geom_bond_distance
_geom_bond_site_symmetry_2
Cu0 S6 2.295006 1_655
Cu0 S3 2.298704 1_555
Cu0 S7 2.365568 1_665
Cu0 S5 2.462433 1_556
Cu1 S4 2.295006 1_455
Cu1 S1 2.298704 1_555
Cu1 S5 2.365568 1_445
Cu1 S7 2.462433 1_554
Cu2 S5 2.295006 1_455
Cu2 S2 2.298704 1_555
Cu2 S4 2.365568 1_455
Cu2 S6 2.462433 1_555
Cu3 S7 2.295006 1_655
Cu3 S0 2.298704 1_555
Cu3 S6 2.365568 1_655
Cu3 S4 2.462433 1_555
S0 Tb0 2.761598 1_556
S0 Tb1 2.764693 1_555
S0 Tb2 2.799852 1_555
S0 Tb3 2.839973 1_555
S1 Tb1 2.761598 1_555
S1 Tb0 2.764693 1_555
S1 Tb3 2.799852 1_545
S1 Tb2 2.839973 1_544
S2 Tb2 2.761598 1_554
S2 Tb3 2.764693 1_555
S2 Tb0 2.799852 1_555
S2 Tb1 2.839973 1_555
S3 Tb3 2.761598 1_555
S3 Tb2 2.764693 1_555
S3 Tb1 2.799852 1_565
S3 Tb0 2.839973 1_566
S4 Tb1 2.798029 1_655
S4 Tb0 2.821532 1_555
S4 Tb3 3.022510 1_545
S5 Tb2 2.798029 1_654
S5 Tb3 2.821532 1_555
S5 Tb0 3.022510 1_555
S6 Tb3 2.798029 1_455
S6 Tb2 2.821532 1_555
S6 Tb1 3.022510 1_565
S7 Tb0 2.798029 1_456
S7 Tb1 2.821532 1_555
S7 Tb2 3.022510 1_555
