# generated using pymatgen
data_Fe2W2C
_symmetry_space_group_name_H-M   'P 1'
_cell_length_a   7.87592362
_cell_length_b   7.87592362
_cell_length_c   7.87592362
_cell_angle_alpha   60.00000000
_cell_angle_beta   60.00000000
_cell_angle_gamma   60.00000000
_symmetry_Int_Tables_number   1
_chemical_formula_structural   Fe2W2C
_chemical_formula_sum   'Fe12 W12 C6'
_cell_volume   345.45341432
_cell_formula_units_Z   6
loop_
 _symmetry_equiv_pos_site_id
 _symmetry_equiv_pos_as_xyz
  1  'x, y, z'
loop_
 _atom_site_type_symbol
 _atom_site_label
 _atom_site_symmetry_multiplicity
 _atom_site_fract_x
 _atom_site_fract_y
 _atom_site_fract_z
 _atom_site_occupancy
  Fe  Fe0  1  0.82589300  0.82589300  0.82589300  1
  Fe  Fe1  1  0.82589300  0.52232200  0.82589300  1
  Fe  Fe2  1  0.82589300  0.82589300  0.52232200  1
  Fe  Fe3  1  0.52232200  0.82589300  0.82589300  1
  Fe  Fe4  1  0.42410700  0.42410700  0.42410700  1
  Fe  Fe5  1  0.42410700  0.72767800  0.42410700  1
  Fe  Fe6  1  0.42410700  0.42410700  0.72767800  1
  Fe  Fe7  1  0.72767800  0.42410700  0.42410700  1
  Fe  Fe8  1  0.62500000  0.62500000  0.62500000  1
  Fe  Fe9  1  0.62500000  0.12500000  0.62500000  1
  Fe  Fe10  1  0.62500000  0.62500000  0.12500000  1
  Fe  Fe11  1  0.12500000  0.62500000  0.62500000  1
  W  W0  1  0.19980700  0.80019300  0.19980700  1
  W  W1  1  0.19980700  0.19980700  0.80019300  1
  W  W2  1  0.80019300  0.19980700  0.19980700  1
  W  W3  1  0.19980700  0.80019300  0.80019300  1
  W  W4  1  0.80019300  0.80019300  0.19980700  1
  W  W5  1  0.80019300  0.19980700  0.80019300  1
  W  W6  1  0.05019300  0.44980700  0.05019300  1
  W  W7  1  0.05019300  0.05019300  0.44980700  1
  W  W8  1  0.44980700  0.05019300  0.05019300  1
  W  W9  1  0.05019300  0.44980700  0.44980700  1
  W  W10  1  0.44980700  0.44980700  0.05019300  1
  W  W11  1  0.44980700  0.05019300  0.44980700  1
  C  C0  1  0.12500000  0.12500000  0.12500000  1
  C  C1  1  0.12500000  0.62500000  0.12500000  1
  C  C2  1  0.12500000  0.12500000  0.62500000  1
  C  C3  1  0.62500000  0.12500000  0.12500000  1
  C  C4  1  0.00000000  0.00000000  0.00000000  1
  C  C5  1  0.25000000  0.25000000  0.25000000  1
loop_
_geom_bond_atom_site_label_1
_geom_bond_atom_site_label_2
_geom_bond_distance
_geom_bond_site_symmetry_2
Fe0 Fe11 2.367524 1_655
Fe0 Fe9 2.367524 1_565
Fe0 Fe10 2.367524 1_556
Fe0 Fe3 2.390902 1_555
Fe0 Fe1 2.390902 1_555
Fe0 Fe2 2.390902 1_555
Fe0 W4 2.757405 1_556
Fe0 W3 2.757405 1_655
Fe0 W5 2.757405 1_565
Fe0 W6 2.769594 1_656
Fe0 W7 2.769594 1_665
Fe0 W8 2.769594 1_566
Fe1 Fe10 2.367520 1_556
Fe1 Fe11 2.367520 1_655
Fe1 Fe8 2.367526 1_555
Fe1 Fe3 2.390902 1_555
Fe1 Fe2 2.390902 1_555
Fe1 W2 2.757409 1_556
Fe1 W1 2.757409 1_655
Fe1 W5 2.757413 1_555
Fe1 W6 2.769590 1_656
Fe1 W10 2.769597 1_556
Fe1 W9 2.769597 1_655
Fe2 Fe9 2.367520 1_565
Fe2 Fe8 2.367526 1_555
Fe2 Fe3 2.390902 1_555
Fe2 W2 2.757409 1_565
Fe2 W0 2.757409 1_655
Fe2 W4 2.757413 1_555
Fe2 W7 2.769590 1_665
Fe2 W11 2.769597 1_565
Fe2 W9 2.769597 1_655
Fe3 Fe9 2.367520 1_565
Fe3 Fe8 2.367526 1_555
Fe3 W0 2.757409 1_556
Fe3 W1 2.757409 1_565
Fe3 W3 2.757413 1_555
Fe3 W8 2.769590 1_566
Fe3 W10 2.769597 1_556
Fe3 W11 2.769597 1_565
Fe4 Fe9 2.367524 1_555
Fe4 Fe7 2.390902 1_555
Fe4 Fe6 2.390902 1_555
Fe4 Fe5 2.390902 1_555
Fe4 W9 2.757405 1_555
Fe4 W10 2.757405 1_555
Fe4 W11 2.757405 1_555
Fe4 W0 2.769594 1_555
Fe4 W1 2.769594 1_555
Fe4 W2 2.769594 1_555
Fe5 Fe8 2.367526 1_555
Fe5 Fe7 2.390902 1_555
Fe5 Fe6 2.390902 1_555
Fe5 W8 2.757409 1_565
Fe5 W7 2.757409 1_565
Fe5 W11 2.757413 1_565
Fe5 W0 2.769590 1_555
Fe5 W4 2.769597 1_555
Fe5 W3 2.769597 1_555
Fe6 Fe9 2.367520 1_555
Fe6 Fe8 2.367526 1_555
Fe6 Fe7 2.390902 1_555
Fe6 W8 2.757409 1_556
Fe6 W6 2.757409 1_556
Fe6 W10 2.757413 1_556
Fe6 W1 2.769590 1_555
Fe6 W3 2.769597 1_555
Fe6 W5 2.769597 1_555
Fe7 Fe9 2.367520 1_555
Fe7 Fe8 2.367526 1_555
Fe7 W6 2.757409 1_655
Fe7 W7 2.757409 1_655
Fe7 W9 2.757413 1_655
Fe7 W2 2.769590 1_555
Fe7 W5 2.769597 1_555
Fe7 W4 2.769597 1_555
Fe8 W10 2.772114 1_556
Fe8 W9 2.772114 1_655
Fe8 W11 2.772114 1_565
Fe8 W5 2.772114 1_555
Fe8 W3 2.772114 1_555
Fe8 W4 2.772114 1_555
Fe9 W5 2.772114 1_555
Fe9 W7 2.772114 1_655
Fe9 W8 2.772114 1_556
Fe9 W1 2.772114 1_555
Fe9 W2 2.772114 1_555
Fe9 W11 2.772114 1_555
Fe10 Fe7 2.367520 1_555
Fe10 Fe5 2.367520 1_555
Fe10 Fe3 2.367520 1_554
Fe10 Fe4 2.367524 1_555
Fe10 W4 2.772114 1_555
Fe10 W6 2.772114 1_655
Fe10 W8 2.772114 1_565
Fe10 W2 2.772114 1_555
Fe10 W0 2.772114 1_555
Fe10 W10 2.772114 1_555
Fe11 Fe5 2.367520 1_555
Fe11 Fe6 2.367520 1_555
Fe11 Fe2 2.367520 1_455
Fe11 Fe4 2.367524 1_555
Fe11 W3 2.772114 1_555
Fe11 W6 2.772114 1_556
Fe11 W7 2.772114 1_565
Fe11 W1 2.772114 1_555
Fe11 W0 2.772114 1_555
Fe11 W9 2.772114 1_555
C0 W8 2.138022 1_555
C0 W6 2.138022 1_555
C0 W7 2.138022 1_555
C0 W0 2.138022 1_545
C0 W2 2.138022 1_455
C0 W1 2.138022 1_554
C1 W0 2.138022 1_555
C1 W9 2.138022 1_555
C1 W10 2.138022 1_555
C1 W4 2.138022 1_455
C1 W3 2.138022 1_554
C1 W6 2.138022 1_555
C2 W1 2.138022 1_555
C2 W9 2.138022 1_555
C2 W11 2.138022 1_555
C2 W5 2.138022 1_455
C2 W3 2.138022 1_545
C2 W7 2.138022 1_555
C3 W2 2.138022 1_555
C3 W10 2.138022 1_555
C3 W11 2.138022 1_555
C3 W4 2.138022 1_545
C3 W5 2.138022 1_554
C3 W8 2.138022 1_555
C4 W0 2.225498 1_545
C4 W2 2.225498 1_455
C4 W1 2.225498 1_554
C4 W5 2.225498 1_454
C4 W3 2.225498 1_544
C4 W4 2.225498 1_445
C5 W10 2.225498 1_555
C5 W11 2.225498 1_555
C5 W9 2.225498 1_555
C5 W6 2.225498 1_555
C5 W7 2.225498 1_555
C5 W8 2.225498 1_555
