# generated using pymatgen
data_Nd5Ti4FeO17
_symmetry_space_group_name_H-M   'P 1'
_cell_length_a   5.50361300
_cell_length_b   7.74454300
_cell_length_c   32.16366416
_cell_angle_alpha   83.03061515
_cell_angle_beta   90.00000000
_cell_angle_gamma   90.00000000
_symmetry_Int_Tables_number   1
_chemical_formula_structural   Nd5Ti4FeO17
_chemical_formula_sum   'Nd20 Ti16 Fe4 O68'
_cell_volume   1360.78133034
_cell_formula_units_Z   4
loop_
 _symmetry_equiv_pos_site_id
 _symmetry_equiv_pos_as_xyz
  1  'x, y, z'
loop_
 _atom_site_type_symbol
 _atom_site_label
 _atom_site_symmetry_multiplicity
 _atom_site_fract_x
 _atom_site_fract_y
 _atom_site_fract_z
 _atom_site_occupancy
  Nd  Nd0  1  0.04200300  0.35540400  0.29924500  1
  Nd  Nd1  1  0.00126900  0.70047400  0.09658400  1
  Nd  Nd2  1  0.50126900  0.29952600  0.40341600  1
  Nd  Nd3  1  0.47904300  0.21192200  0.57898400  1
  Nd  Nd4  1  0.52095700  0.78807800  0.42101600  1
  Nd  Nd5  1  0.54200300  0.64459600  0.20075500  1
  Nd  Nd6  1  0.38653800  0.85738100  0.77844600  1
  Nd  Nd7  1  0.49873100  0.70047400  0.59658400  1
  Nd  Nd8  1  0.97904300  0.78807800  0.92101600  1
  Nd  Nd9  1  0.88653800  0.14261900  0.72155400  1
  Nd  Nd10  1  0.45799700  0.35540400  0.79924500  1
  Nd  Nd11  1  0.99006500  0.74458300  0.50861100  1
  Nd  Nd12  1  0.49006500  0.25541700  0.99138900  1
  Nd  Nd13  1  0.95799700  0.64459600  0.70075500  1
  Nd  Nd14  1  0.00993500  0.25541700  0.49138900  1
  Nd  Nd15  1  0.50993500  0.74458300  0.00861100  1
  Nd  Nd16  1  0.02095700  0.21192200  0.07898400  1
  Nd  Nd17  1  0.11346200  0.85738100  0.27844600  1
  Nd  Nd18  1  0.61346200  0.14261900  0.22155400  1
  Nd  Nd19  1  0.99873100  0.29952600  0.90341600  1
  Ti  Ti0  1  0.04164000  0.92392100  0.17616500  1
  Ti  Ti1  1  0.01428800  0.54688100  0.40545800  1
  Ti  Ti2  1  0.54164000  0.07607900  0.32383500  1
  Ti  Ti3  1  0.01689900  0.04504300  0.40657200  1
  Ti  Ti4  1  0.48310100  0.04504300  0.90657200  1
  Ti  Ti5  1  0.98571200  0.45311900  0.59454200  1
  Ti  Ti6  1  0.55249900  0.59260000  0.32110600  1
  Ti  Ti7  1  0.98310100  0.95495700  0.59342800  1
  Ti  Ti8  1  0.51689900  0.95495700  0.09342800  1
  Ti  Ti9  1  0.95836000  0.07607900  0.82383500  1
  Ti  Ti10  1  0.45836000  0.92392100  0.67616500  1
  Ti  Ti11  1  0.51428800  0.45311900  0.09454200  1
  Ti  Ti12  1  0.05249900  0.40740000  0.17889400  1
  Ti  Ti13  1  0.44750100  0.40740000  0.67889400  1
  Ti  Ti14  1  0.94750100  0.59260000  0.82110600  1
  Ti  Ti15  1  0.48571200  0.54688100  0.90545800  1
  Fe  Fe0  1  0.50000000  0.50000000  0.50000000  1
  Fe  Fe1  1  0.00000000  0.00000000  0.00000000  1
  Fe  Fe2  1  0.00000000  0.50000000  0.00000000  1
  Fe  Fe3  1  0.50000000  0.00000000  0.50000000  1
  O  O0  1  0.30044200  0.96619100  0.61948100  1
  O  O1  1  0.83946200  0.63207800  0.29643800  1
  O  O2  1  0.20644700  0.02956500  0.53654500  1
  O  O3  1  0.29329000  0.43487700  0.03618600  1
  O  O4  1  0.78521100  0.51480900  0.05303900  1
  O  O5  1  0.69648200  0.58457900  0.38119200  1
  O  O6  1  0.71274600  0.86987600  0.13804800  1
  O  O7  1  0.11310400  0.66307000  0.17061200  1
  O  O8  1  0.42586200  0.70894900  0.08242600  1
  O  O9  1  0.80351800  0.58457900  0.88119200  1
  O  O10  1  0.28725400  0.13012400  0.86195200  1
  O  O11  1  0.79355300  0.97043500  0.46345500  1
  O  O12  1  0.71507900  0.93193800  0.55260500  1
  O  O13  1  0.18790500  0.91900900  0.71116000  1
  O  O14  1  0.19955800  0.96619100  0.11948100  1
  O  O15  1  0.58806900  0.24799700  0.50369200  1
  O  O16  1  0.79329000  0.56512300  0.46381400  1
  O  O17  1  0.78492100  0.93193800  0.05260500  1
  O  O18  1  0.07413800  0.70894900  0.58242600  1
  O  O19  1  0.66053800  0.63207800  0.79643800  1
  O  O20  1  0.91682000  0.20426000  0.59174200  1
  O  O21  1  0.68790500  0.08099100  0.78884000  1
  O  O22  1  0.28492100  0.06806200  0.44739500  1
  O  O23  1  0.31209500  0.91900900  0.21116000  1
  O  O24  1  0.81209500  0.08099100  0.28884000  1
  O  O25  1  0.08318000  0.79574000  0.40825800  1
  O  O26  1  0.20823600  0.50633400  0.36088300  1
  O  O27  1  0.17455700  0.13418500  0.77948400  1
  O  O28  1  0.29355300  0.02956500  0.03654500  1
  O  O29  1  0.30351800  0.41542100  0.61880800  1
  O  O30  1  0.70644700  0.97043500  0.96345500  1
  O  O31  1  0.79176400  0.49366600  0.63911700  1
  O  O32  1  0.80044200  0.03380900  0.88051900  1
  O  O33  1  0.57413800  0.29105100  0.91757400  1
  O  O34  1  0.41193100  0.75200300  0.49630800  1
  O  O35  1  0.08806900  0.75200300  0.99630800  1
  O  O36  1  0.32544300  0.13418500  0.27948400  1
  O  O37  1  0.21274600  0.13012400  0.36195200  1
  O  O38  1  0.04917300  0.83511900  0.82853500  1
  O  O39  1  0.58318000  0.20426000  0.09174200  1
  O  O40  1  0.95082700  0.16488100  0.17146500  1
  O  O41  1  0.65525900  0.40751500  0.72609900  1
  O  O42  1  0.45082700  0.83511900  0.32853500  1
  O  O43  1  0.21478900  0.48519100  0.94696100  1
  O  O44  1  0.21507900  0.06806200  0.94739500  1
  O  O45  1  0.92586200  0.29105100  0.41757400  1
  O  O46  1  0.28521100  0.48519100  0.44696100  1
  O  O47  1  0.38689600  0.66307000  0.67061200  1
  O  O48  1  0.33946200  0.36792200  0.20356200  1
  O  O49  1  0.78725400  0.86987600  0.63804800  1
  O  O50  1  0.20671000  0.43487700  0.53618600  1
  O  O51  1  0.29176400  0.50633400  0.86088300  1
  O  O52  1  0.41682000  0.79574000  0.90825800  1
  O  O53  1  0.70671000  0.56512300  0.96381400  1
  O  O54  1  0.15525900  0.59248500  0.77390100  1
  O  O55  1  0.54917300  0.16488100  0.67146500  1
  O  O56  1  0.61310400  0.33693000  0.32938800  1
  O  O57  1  0.69955800  0.03380900  0.38051900  1
  O  O58  1  0.34474100  0.59248500  0.27390100  1
  O  O59  1  0.71478900  0.51480900  0.55303900  1
  O  O60  1  0.16053800  0.36792200  0.70356200  1
  O  O61  1  0.91193100  0.24799700  0.00369200  1
  O  O62  1  0.70823600  0.49366600  0.13911700  1
  O  O63  1  0.82544300  0.86581500  0.22051600  1
  O  O64  1  0.67455700  0.86581500  0.72051600  1
  O  O65  1  0.88689600  0.33693000  0.82938800  1
  O  O66  1  0.19648200  0.41542100  0.11880800  1
  O  O67  1  0.84474100  0.40751500  0.22609900  1
loop_
_geom_bond_atom_site_label_1
_geom_bond_atom_site_label_2
_geom_bond_distance
_geom_bond_site_symmetry_2
Nd0 O1 2.407280 1_455
Nd0 O36 2.456998 1_555
Nd0 O24 2.530244 1_455
Nd0 O58 2.539396 1_555
Nd0 O56 2.549253 1_455
Nd0 O67 2.577990 1_455
Nd0 O26 2.587660 1_555
Nd0 O37 2.672242 1_555
Nd1 O8 2.380133 1_555
Nd1 O4 2.435528 1_455
Nd1 O7 2.442250 1_555
Nd1 O17 2.452885 1_455
Nd1 O66 2.481090 1_555
Nd1 O14 2.517114 1_555
Nd1 O6 2.538869 1_455
Nd1 O62 2.550668 1_455
Nd2 O45 2.380133 1_555
Nd2 O46 2.435528 1_555
Nd2 O56 2.442250 1_555
Nd2 O22 2.452885 1_555
Nd2 O5 2.481090 1_555
Nd2 O57 2.517114 1_555
Nd2 O37 2.538869 1_555
Nd2 O26 2.550668 1_555
Nd3 O29 2.355325 1_555
Nd3 O0 2.383888 1_545
Nd3 O20 2.443560 1_555
Nd3 O15 2.477575 1_555
Nd3 O50 2.558504 1_555
Nd3 O2 2.564435 1_555
Nd3 O59 2.721604 1_555
Nd3 O12 2.748743 1_545
Nd3 O55 2.977672 1_555
Nd3 O20 3.120966 1_455
Nd4 O5 2.355325 1_555
Nd4 O57 2.383888 1_565
Nd4 O25 2.443560 1_555
Nd4 O34 2.477575 1_555
Nd4 O16 2.558504 1_555
Nd4 O11 2.564435 1_555
Nd4 O46 2.721604 1_555
Nd4 O22 2.748743 1_565
Nd4 O42 2.977672 1_555
Nd4 O25 3.120966 1_655
Nd5 O48 2.407280 1_555
Nd5 O63 2.456998 1_555
Nd5 O23 2.530244 1_555
Nd5 O67 2.539396 1_555
Nd5 O7 2.549253 1_555
Nd5 O58 2.577990 1_555
Nd5 O62 2.587660 1_555
Nd5 O6 2.672242 1_555
Nd6 O19 2.325605 1_555
Nd6 O13 2.419881 1_555
Nd6 O54 2.433720 1_555
Nd6 O64 2.441124 1_555
Nd6 O27 2.444406 1_565
Nd6 O21 2.449943 1_565
Nd6 O38 2.450555 1_555
Nd7 O18 2.380133 1_555
Nd7 O59 2.435528 1_555
Nd7 O47 2.442250 1_555
Nd7 O12 2.452885 1_555
Nd7 O29 2.481090 1_555
Nd7 O0 2.517114 1_555
Nd7 O49 2.538869 1_555
Nd7 O31 2.550668 1_555
Nd8 O9 2.355325 1_555
Nd8 O32 2.383888 1_565
Nd8 O52 2.443560 1_655
Nd8 O35 2.477575 1_655
Nd8 O53 2.558504 1_555
Nd8 O30 2.564435 1_555
Nd8 O43 2.721604 1_655
Nd8 O44 2.748743 1_665
Nd8 O38 2.977672 1_655
Nd8 O52 3.120966 1_555
Nd9 O60 2.325605 1_655
Nd9 O21 2.419881 1_555
Nd9 O41 2.433720 1_555
Nd9 O27 2.441124 1_655
Nd9 O64 2.444406 1_545
Nd9 O13 2.449943 1_645
Nd9 O55 2.450555 1_555
Nd10 O19 2.407280 1_555
Nd10 O27 2.456998 1_555
Nd10 O21 2.530244 1_555
Nd10 O54 2.539396 1_555
Nd10 O65 2.549253 1_555
Nd10 O41 2.577990 1_555
Nd10 O51 2.587660 1_555
Nd10 O10 2.672242 1_555
Nd11 O34 2.354796 1_655
Nd11 O16 2.380431 1_555
Nd11 O11 2.392078 1_555
Nd11 O18 2.401644 1_655
Nd11 O59 2.624256 1_555
Nd11 O12 2.626075 1_555
Nd11 O50 2.728548 1_655
Nd11 O2 2.752770 1_665
Nd12 O61 2.354796 1_556
Nd12 O3 2.380431 1_556
Nd12 O28 2.392078 1_556
Nd12 O33 2.401644 1_555
Nd12 O43 2.624256 1_555
Nd12 O44 2.626075 1_555
Nd12 O53 2.728548 1_555
Nd12 O30 2.752770 1_545
Nd13 O60 2.407280 1_655
Nd13 O64 2.456998 1_555
Nd13 O13 2.530244 1_655
Nd13 O41 2.539396 1_555
Nd13 O47 2.549253 1_655
Nd13 O54 2.577990 1_655
Nd13 O31 2.587660 1_555
Nd13 O49 2.672242 1_555
Nd14 O15 2.354796 1_455
Nd14 O50 2.380431 1_555
Nd14 O2 2.392078 1_555
Nd14 O45 2.401644 1_455
Nd14 O46 2.624256 1_555
Nd14 O22 2.626075 1_555
Nd14 O16 2.728548 1_455
Nd14 O11 2.752770 1_445
Nd15 O35 2.354796 1_554
Nd15 O53 2.380431 1_554
Nd15 O30 2.392078 1_554
Nd15 O8 2.401644 1_555
Nd15 O4 2.624256 1_555
Nd15 O17 2.626075 1_555
Nd15 O3 2.728548 1_555
Nd15 O28 2.752770 1_565
Nd16 O66 2.355325 1_555
Nd16 O14 2.383888 1_545
Nd16 O39 2.443560 1_455
Nd16 O61 2.477575 1_455
Nd16 O3 2.558504 1_555
Nd16 O28 2.564435 1_555
Nd16 O4 2.721604 1_455
Nd16 O17 2.748743 1_445
Nd16 O40 2.977672 1_455
Nd16 O39 3.120966 1_555
Nd17 O1 2.325605 1_455
Nd17 O23 2.419881 1_555
Nd17 O58 2.433720 1_555
Nd17 O63 2.441124 1_455
Nd17 O36 2.444406 1_565
Nd17 O24 2.449943 1_465
Nd17 O42 2.450555 1_555
Nd18 O48 2.325605 1_555
Nd18 O24 2.419881 1_555
Nd18 O67 2.433720 1_555
Nd18 O36 2.441124 1_555
Nd18 O63 2.444406 1_545
Nd18 O23 2.449943 1_545
Nd18 O40 2.450555 1_555
Nd19 O33 2.380133 1_555
Nd19 O43 2.435528 1_655
Nd19 O65 2.442250 1_555
Nd19 O44 2.452885 1_655
Nd19 O9 2.481090 1_555
Nd19 O32 2.517114 1_555
Nd19 O10 2.538869 1_655
Nd19 O51 2.550668 1_655
Fe0 O15 2.000430 1_555
Fe0 O34 2.000430 1_555
Fe0 O16 2.017923 1_555
Fe0 O50 2.017923 1_555
Fe0 O59 2.090029 1_555
Fe0 O46 2.090029 1_555
Fe1 O61 1.998293 1_455
Fe1 O35 1.998293 1_544
Fe1 O28 2.027196 1_555
Fe1 O30 2.027196 1_444
Fe1 O17 2.079746 1_445
Fe1 O44 2.079746 1_554
Fe2 O35 2.000430 1_554
Fe2 O61 2.000430 1_455
Fe2 O3 2.017923 1_555
Fe2 O53 2.017923 1_454
Fe2 O43 2.090029 1_554
Fe2 O4 2.090029 1_455
Fe3 O15 1.998293 1_555
Fe3 O34 1.998293 1_545
Fe3 O11 2.027196 1_545
Fe3 O2 2.027196 1_555
Fe3 O12 2.079746 1_545
Fe3 O22 2.079746 1_555
O0 Ti7 1.943651 1_455
O0 Ti10 2.010380 1_555
O1 Ti6 1.777191 1_555
O2 Ti7 2.221617 1_445
O3 Ti11 2.255344 1_555
O4 Ti11 2.019569 1_555
O5 Ti1 1.923117 1_655
O5 Ti6 2.082679 1_555
O6 Ti8 1.850976 1_555
O6 Ti0 2.253714 1_655
O7 Ti12 1.993690 1_555
O7 Ti0 2.086923 1_555
O8 Ti11 2.031459 1_555
O8 Ti8 2.041991 1_555
O9 Ti15 1.923117 1_555
O9 Ti14 2.082679 1_555
O10 Ti4 1.850976 1_555
O10 Ti9 2.253714 1_455
O11 Ti3 2.221617 1_665
O12 Ti7 1.997120 1_555
O13 Ti10 1.863741 1_555
O14 Ti8 1.943651 1_555
O14 Ti0 2.010380 1_555
O16 Ti1 2.255344 1_655
O17 Ti8 1.997120 1_555
O18 Ti5 2.031459 1_455
O18 Ti7 2.041991 1_455
O19 Ti14 1.777191 1_555
O20 Ti7 1.959170 1_545
O20 Ti5 1.976986 1_555
O21 Ti9 1.863741 1_555
O22 Ti3 1.997120 1_555
O23 Ti0 1.863741 1_555
O24 Ti2 1.863741 1_555
O25 Ti3 1.959170 1_565
O25 Ti1 1.976986 1_555
O26 Ti1 1.844646 1_555
O26 Ti6 2.337856 1_555
O27 Ti9 1.870127 1_455
O28 Ti8 2.221617 1_545
O29 Ti5 1.923117 1_455
O29 Ti13 2.082679 1_555
O30 Ti4 2.221617 1_565
O31 Ti5 1.844646 1_555
O31 Ti13 2.337856 1_555
O32 Ti4 1.943651 1_555
O32 Ti9 2.010380 1_555
O33 Ti15 2.031459 1_555
O33 Ti4 2.041991 1_555
O36 Ti2 1.870127 1_555
O37 Ti3 1.850976 1_555
O37 Ti2 2.253714 1_555
O38 Ti9 1.920056 1_465
O38 Ti14 2.001686 1_455
O39 Ti8 1.959170 1_545
O39 Ti11 1.976986 1_555
O40 Ti0 1.920056 1_645
O40 Ti12 2.001686 1_655
O41 Ti13 1.900771 1_555
O42 Ti2 1.920056 1_565
O42 Ti6 2.001686 1_555
O43 Ti15 2.019569 1_555
O44 Ti4 1.997120 1_555
O45 Ti1 2.031459 1_655
O45 Ti3 2.041991 1_655
O46 Ti1 2.019569 1_555
O47 Ti13 1.993690 1_555
O47 Ti10 2.086923 1_555
O48 Ti12 1.777191 1_555
O49 Ti7 1.850976 1_555
O49 Ti10 2.253714 1_555
O50 Ti5 2.255344 1_455
O51 Ti15 1.844646 1_555
O51 Ti14 2.337856 1_455
O52 Ti4 1.959170 1_565
O52 Ti15 1.976986 1_555
O53 Ti15 2.255344 1_555
O54 Ti14 1.900771 1_455
O55 Ti10 1.920056 1_545
O55 Ti13 2.001686 1_555
O56 Ti6 1.993690 1_555
O56 Ti2 2.086923 1_555
O57 Ti3 1.943651 1_655
O57 Ti2 2.010380 1_555
O58 Ti6 1.900771 1_555
O59 Ti5 2.019569 1_555
O60 Ti13 1.777191 1_555
O62 Ti11 1.844646 1_555
O62 Ti12 2.337856 1_655
O63 Ti0 1.870127 1_655
O64 Ti10 1.870127 1_555
O65 Ti14 1.993690 1_555
O65 Ti9 2.086923 1_555
O66 Ti11 1.923117 1_555
O66 Ti12 2.082679 1_555
O67 Ti12 1.900771 1_655
