# generated using pymatgen
data_BaCoSiO4
_symmetry_space_group_name_H-M   'P 1'
_cell_length_a   9.22902243
_cell_length_b   9.22902243
_cell_length_c   8.78892100
_cell_angle_alpha   90.00000000
_cell_angle_beta   90.00000000
_cell_angle_gamma   120.00000308
_symmetry_Int_Tables_number   1
_chemical_formula_structural   BaCoSiO4
_chemical_formula_sum   'Ba6 Co6 Si6 O24'
_cell_volume   648.30232923
_cell_formula_units_Z   6
loop_
 _symmetry_equiv_pos_site_id
 _symmetry_equiv_pos_as_xyz
  1  'x, y, z'
loop_
 _atom_site_type_symbol
 _atom_site_label
 _atom_site_symmetry_multiplicity
 _atom_site_fract_x
 _atom_site_fract_y
 _atom_site_fract_z
 _atom_site_occupancy
  Ba  Ba0  1  0.00000000  0.00000000  0.24950500  1
  Ba  Ba1  1  0.00000000  0.00000000  0.74950500  1
  Ba  Ba2  1  0.66666700  0.33333300  0.27957700  1
  Ba  Ba3  1  0.33333300  0.66666700  0.77957700  1
  Ba  Ba4  1  0.33333300  0.66666700  0.28175300  1
  Ba  Ba5  1  0.66666700  0.33333300  0.78175300  1
  Co  Co0  1  0.31719100  0.98873100  0.96721600  1
  Co  Co1  1  0.01126900  0.32845900  0.96721600  1
  Co  Co2  1  0.67154100  0.68280900  0.96721600  1
  Co  Co3  1  0.68280900  0.01126900  0.46721600  1
  Co  Co4  1  0.98873100  0.67154100  0.46721600  1
  Co  Co5  1  0.32845900  0.31719100  0.46721600  1
  Si  Si0  1  0.34040600  0.32899000  0.06976100  1
  Si  Si1  1  0.67101000  0.01141700  0.06976100  1
  Si  Si2  1  0.98858300  0.65959400  0.06976100  1
  Si  Si3  1  0.65959400  0.67101000  0.56976100  1
  Si  Si4  1  0.32899000  0.98858300  0.56976100  1
  Si  Si5  1  0.01141700  0.34040600  0.56976100  1
  O  O0  1  0.23583500  0.14956200  0.97775200  1
  O  O1  1  0.85043800  0.08627400  0.97775200  1
  O  O2  1  0.91372600  0.76416500  0.97775200  1
  O  O3  1  0.76416500  0.85043800  0.47775200  1
  O  O4  1  0.14956200  0.91372600  0.47775200  1
  O  O5  1  0.08627400  0.23583500  0.47775200  1
  O  O6  1  0.53593600  0.44071400  0.01094500  1
  O  O7  1  0.55928600  0.09522200  0.01094500  1
  O  O8  1  0.90477800  0.46406400  0.01094500  1
  O  O9  1  0.46406400  0.55928600  0.51094500  1
  O  O10  1  0.44071400  0.90477800  0.51094500  1
  O  O11  1  0.09522200  0.53593600  0.51094500  1
  O  O12  1  0.23964300  0.43402700  0.05445000  1
  O  O13  1  0.56597300  0.80561600  0.05445000  1
  O  O14  1  0.19438400  0.76035700  0.05445000  1
  O  O15  1  0.76035700  0.56597300  0.55445000  1
  O  O16  1  0.43402700  0.19438400  0.55445000  1
  O  O17  1  0.80561600  0.23964300  0.55445000  1
  O  O18  1  0.27789800  0.93101400  0.74909400  1
  O  O19  1  0.06898600  0.34688400  0.74909400  1
  O  O20  1  0.65311600  0.72210200  0.74909400  1
  O  O21  1  0.72210200  0.06898600  0.24909400  1
  O  O22  1  0.93101400  0.65311600  0.24909400  1
  O  O23  1  0.34688400  0.27789800  0.24909400  1
loop_
_geom_bond_atom_site_label_1
_geom_bond_atom_site_label_2
_geom_bond_distance
_geom_bond_site_symmetry_2
Ba0 O5 2.768114 1_555
Ba0 O3 2.768115 1_445
Ba0 O4 2.768120 1_545
Ba0 O23 2.935316 1_555
Ba0 O22 2.935317 1_445
Ba0 O21 2.935317 1_455
Ba0 O2 3.056594 1_444
Ba0 O0 3.056595 1_554
Ba0 O1 3.056599 1_454
Ba1 O2 2.768114 1_445
Ba1 O0 2.768115 1_555
Ba1 O1 2.768120 1_455
Ba1 O20 2.935316 1_445
Ba1 O19 2.935317 1_555
Ba1 O18 2.935317 1_545
Ba1 O5 3.056594 1_555
Ba1 O3 3.056595 1_445
Ba1 O4 3.056599 1_545
Ba2 O21 2.744748 1_555
Ba2 O22 2.744754 1_555
Ba2 O23 2.744757 1_555
Ba2 O7 3.034423 1_555
Ba2 O8 3.034423 1_555
Ba2 O6 3.034428 1_555
Ba2 O17 3.055682 1_555
Ba2 O16 3.055686 1_555
Ba2 O15 3.055687 1_555
Ba3 O18 2.744748 1_555
Ba3 O19 2.744754 1_555
Ba3 O20 2.744757 1_555
Ba3 O10 3.034423 1_555
Ba3 O11 3.034423 1_555
Ba3 O9 3.034428 1_555
Ba3 O14 3.055682 1_556
Ba3 O13 3.055686 1_556
Ba3 O12 3.055687 1_556
Ba4 O14 2.737137 1_555
Ba4 O13 2.737142 1_555
Ba4 O12 2.737143 1_555
Ba4 O10 2.773279 1_555
Ba4 O11 2.773279 1_555
Ba4 O9 2.773285 1_555
Ba5 O17 2.737137 1_555
Ba5 O16 2.737142 1_555
Ba5 O15 2.737143 1_555
Ba5 O7 2.773279 1_556
Ba5 O8 2.773279 1_556
Ba5 O6 2.773285 1_556
Co0 O0 1.972306 1_565
Co0 O18 1.974129 1_555
Co0 O7 1.977329 1_566
Co0 O14 1.981375 1_556
Co1 O1 1.972292 1_455
Co1 O19 1.974129 1_555
Co1 O8 1.977337 1_456
Co1 O12 1.981375 1_556
Co2 O2 1.972289 1_555
Co2 O20 1.974131 1_555
Co2 O6 1.977330 1_556
Co2 O13 1.981382 1_556
Co3 O3 1.972306 1_545
Co3 O21 1.974129 1_555
Co3 O10 1.977329 1_545
Co3 O17 1.981375 1_555
Co4 O4 1.972292 1_655
Co4 O22 1.974129 1_555
Co4 O11 1.977337 1_655
Co4 O15 1.981375 1_555
Co5 O5 1.972289 1_555
Co5 O23 1.974131 1_555
Co5 O9 1.977330 1_555
Co5 O16 1.981382 1_555
O0 Si0 1.652073 1_556
O1 Si1 1.652073 1_556
O2 Si2 1.652074 1_556
O3 Si3 1.652073 1_555
O4 Si4 1.652073 1_555
O5 Si5 1.652074 1_555
O6 Si0 1.651095 1_555
O7 Si1 1.651088 1_555
O8 Si2 1.651096 1_555
O9 Si3 1.651095 1_555
O10 Si4 1.651088 1_555
O11 Si5 1.651096 1_555
O12 Si0 1.650484 1_555
O13 Si1 1.650491 1_565
O14 Si2 1.650492 1_455
O15 Si3 1.650484 1_555
O16 Si4 1.650491 1_545
O17 Si5 1.650492 1_655
O18 Si4 1.654789 1_555
O19 Si5 1.654788 1_555
O20 Si3 1.654791 1_555
O21 Si1 1.654789 1_555
O22 Si2 1.654788 1_555
O23 Si0 1.654791 1_555
