# generated using pymatgen
data_K2Cd(NO2)4
_symmetry_space_group_name_H-M   'P 1'
_cell_length_a   6.69441900
_cell_length_b   12.02671100
_cell_length_c   12.44201300
_cell_angle_alpha   90.00000000
_cell_angle_beta   90.00000000
_cell_angle_gamma   90.00000000
_symmetry_Int_Tables_number   1
_chemical_formula_structural   K2Cd(NO2)4
_chemical_formula_sum   'K8 Cd4 N16 O32'
_cell_volume   1001.72939261
_cell_formula_units_Z   4
loop_
 _symmetry_equiv_pos_site_id
 _symmetry_equiv_pos_as_xyz
  1  'x, y, z'
loop_
 _atom_site_type_symbol
 _atom_site_label
 _atom_site_symmetry_multiplicity
 _atom_site_fract_x
 _atom_site_fract_y
 _atom_site_fract_z
 _atom_site_occupancy
  K  K0  1  0.09107800  0.99981800  0.35245700  1
  K  K1  1  0.09107800  0.50018200  0.35245700  1
  K  K2  1  0.90892200  0.49981800  0.64754300  1
  K  K3  1  0.40892200  0.50018200  0.85245700  1
  K  K4  1  0.59107800  0.49981800  0.14754300  1
  K  K5  1  0.59107800  0.00018200  0.14754300  1
  K  K6  1  0.90892200  0.00018200  0.64754300  1
  K  K7  1  0.40892200  0.99981800  0.85245700  1
  Cd  Cd0  1  0.48870300  0.75000000  0.51615300  1
  Cd  Cd1  1  0.98870300  0.25000000  0.98384700  1
  Cd  Cd2  1  0.51129700  0.25000000  0.48384700  1
  Cd  Cd3  1  0.01129700  0.75000000  0.01615300  1
  N  N0  1  0.07790800  0.25000000  0.75095400  1
  N  N1  1  0.13218600  0.06862600  0.12437400  1
  N  N2  1  0.57790800  0.75000000  0.74904600  1
  N  N3  1  0.63218600  0.56862600  0.37562600  1
  N  N4  1  0.42209200  0.25000000  0.25095400  1
  N  N5  1  0.92209200  0.75000000  0.24904600  1
  N  N6  1  0.05907400  0.75000000  0.56125100  1
  N  N7  1  0.86781400  0.56862600  0.87562600  1
  N  N8  1  0.36781400  0.06862600  0.62437400  1
  N  N9  1  0.44092600  0.75000000  0.06125100  1
  N  N10  1  0.86781400  0.93137400  0.87562600  1
  N  N11  1  0.36781400  0.43137400  0.62437400  1
  N  N12  1  0.63218600  0.93137400  0.37562600  1
  N  N13  1  0.94092600  0.25000000  0.43874900  1
  N  N14  1  0.55907400  0.25000000  0.93874900  1
  N  N15  1  0.13218600  0.43137400  0.12437400  1
  O  O0  1  0.03113900  0.61635600  0.85331600  1
  O  O1  1  0.15878200  0.83867600  0.54731800  1
  O  O2  1  0.53113900  0.38364400  0.64668400  1
  O  O3  1  0.78392500  0.89761500  0.96122200  1
  O  O4  1  0.15878200  0.66132400  0.54731800  1
  O  O5  1  0.93818900  0.66128100  0.19435100  1
  O  O6  1  0.71607500  0.89761500  0.46122200  1
  O  O7  1  0.34121800  0.83867600  0.04731800  1
  O  O8  1  0.84121800  0.33867600  0.45268200  1
  O  O9  1  0.96886100  0.11635600  0.14668400  1
  O  O10  1  0.21607500  0.10238500  0.03877800  1
  O  O11  1  0.06181100  0.16128100  0.80564900  1
  O  O12  1  0.06181100  0.33871900  0.80564900  1
  O  O13  1  0.78392500  0.60238500  0.96122200  1
  O  O14  1  0.46886100  0.88364400  0.35331600  1
  O  O15  1  0.53113900  0.11635600  0.64668400  1
  O  O16  1  0.21607500  0.39761500  0.03877800  1
  O  O17  1  0.65878200  0.16132400  0.95268200  1
  O  O18  1  0.34121800  0.66132400  0.04731800  1
  O  O19  1  0.43818900  0.33871900  0.30564900  1
  O  O20  1  0.93818900  0.83871900  0.19435100  1
  O  O21  1  0.28392500  0.10238500  0.53877800  1
  O  O22  1  0.71607500  0.60238500  0.46122200  1
  O  O23  1  0.28392500  0.39761500  0.53877800  1
  O  O24  1  0.65878200  0.33867600  0.95268200  1
  O  O25  1  0.84121800  0.16132400  0.45268200  1
  O  O26  1  0.46886100  0.61635600  0.35331600  1
  O  O27  1  0.96886100  0.38364400  0.14668400  1
  O  O28  1  0.56181100  0.83871900  0.69435100  1
  O  O29  1  0.56181100  0.66128100  0.69435100  1
  O  O30  1  0.43818900  0.16128100  0.30564900  1
  O  O31  1  0.03113900  0.88364400  0.85331600  1
loop_
_geom_bond_atom_site_label_1
_geom_bond_atom_site_label_2
_geom_bond_distance
_geom_bond_site_symmetry_2
K0 O25 2.850560 1_465
K0 O14 2.889341 1_555
K0 O21 2.926157 1_565
K0 O20 2.944679 1_455
K0 N1 2.968791 1_565
K0 O9 3.031267 1_465
K0 O30 3.083770 1_565
K0 O6 3.105543 1_455
K0 O1 3.136769 1_555
K0 N12 3.193425 1_455
K1 O8 2.850560 1_455
K1 O26 2.889341 1_555
K1 O23 2.926157 1_555
K1 O5 2.944679 1_455
K1 N15 2.968791 1_555
K1 O27 3.031267 1_455
K1 O19 3.083770 1_555
K1 O22 3.105543 1_455
K1 O4 3.136769 1_555
K1 N3 3.193425 1_455
K2 O4 2.850560 1_655
K2 O2 2.889341 1_555
K2 O22 2.926157 1_555
K2 O12 2.944679 1_655
K2 N7 2.968791 1_555
K2 O0 3.031267 1_655
K2 O29 3.083770 1_555
K2 O23 3.105543 1_655
K2 O8 3.136769 1_555
K2 N11 3.193425 1_655
K3 O24 2.850560 1_555
K3 O0 2.889341 1_555
K3 O16 2.926157 1_556
K3 O29 2.944679 1_555
K3 N11 2.968791 1_555
K3 O2 3.031267 1_555
K3 O12 3.083770 1_555
K3 O13 3.105543 1_555
K3 O18 3.136769 1_556
K3 N7 3.193425 1_555
K4 O18 2.850560 1_555
K4 O27 2.889341 1_555
K4 O13 2.926157 1_554
K4 O19 2.944679 1_555
K4 N3 2.968791 1_555
K4 O26 3.031267 1_555
K4 O5 3.083770 1_555
K4 O16 3.105543 1_555
K4 O24 3.136769 1_554
K4 N15 3.193425 1_555
K5 O7 2.850560 1_545
K5 O9 2.889341 1_555
K5 O3 2.926157 1_544
K5 O30 2.944679 1_555
K5 N12 2.968791 1_545
K5 O14 3.031267 1_545
K5 O20 3.083770 1_545
K5 O10 3.105543 1_555
K5 O17 3.136769 1_554
K5 N1 3.193425 1_555
K6 O1 2.850560 1_645
K6 O15 2.889341 1_555
K6 O6 2.926157 1_545
K6 O11 2.944679 1_655
K6 N10 2.968791 1_545
K6 O31 3.031267 1_645
K6 O28 3.083770 1_545
K6 O21 3.105543 1_655
K6 O25 3.136769 1_555
K6 N8 3.193425 1_655
K7 O17 2.850560 1_565
K7 O31 2.889341 1_555
K7 O10 2.926157 1_566
K7 O28 2.944679 1_555
K7 N8 2.968791 1_565
K7 O15 3.031267 1_565
K7 O11 3.083770 1_565
K7 O3 3.105543 1_555
K7 O7 3.136769 1_556
K7 N10 3.193425 1_555
Cd0 O6 2.436337 1_555
Cd0 O22 2.436337 1_555
Cd0 O4 2.483099 1_555
Cd0 O1 2.483099 1_555
Cd0 O28 2.508731 1_555
Cd0 O29 2.508731 1_555
Cd0 O26 2.589557 1_555
Cd0 O14 2.589557 1_555
Cd1 O16 2.436337 1_656
Cd1 O10 2.436337 1_656
Cd1 O17 2.483099 1_555
Cd1 O24 2.483099 1_555
Cd1 O12 2.508731 1_655
Cd1 O11 2.508731 1_655
Cd1 O27 2.589557 1_556
Cd1 O9 2.589557 1_556
Cd2 O23 2.436337 1_555
Cd2 O21 2.436337 1_555
Cd2 O8 2.483099 1_555
Cd2 O25 2.483099 1_555
Cd2 O30 2.508731 1_555
Cd2 O19 2.508731 1_555
Cd2 O2 2.589557 1_555
Cd2 O15 2.589557 1_555
Cd3 O3 2.436337 1_454
Cd3 O13 2.436337 1_454
Cd3 O7 2.483099 1_555
Cd3 O18 2.483099 1_555
Cd3 O20 2.508731 1_455
Cd3 O5 2.508731 1_455
Cd3 O31 2.589557 1_554
Cd3 O0 2.589557 1_554
N0 O12 1.270117 1_555
N0 O11 1.270117 1_555
N1 O9 1.265708 1_455
N1 O10 1.270599 1_555
N2 O29 1.270117 1_555
N2 O28 1.270117 1_555
N3 O26 1.265708 1_555
N3 O22 1.270599 1_555
N4 O19 1.270117 1_555
N4 O30 1.270117 1_555
N5 O5 1.270117 1_555
N5 O20 1.270117 1_555
N6 O4 1.270028 1_555
N6 O1 1.270028 1_555
N7 O0 1.265708 1_655
N7 O13 1.270599 1_555
N8 O15 1.265708 1_555
N8 O21 1.270599 1_555
N9 O7 1.270028 1_555
N9 O18 1.270028 1_555
N10 O31 1.265708 1_655
N10 O3 1.270599 1_555
N11 O2 1.265708 1_555
N11 O23 1.270599 1_555
N12 O14 1.265708 1_555
N12 O6 1.270599 1_555
N13 O8 1.270028 1_555
N13 O25 1.270028 1_555
N14 O24 1.270028 1_555
N14 O17 1.270028 1_555
N15 O27 1.265708 1_455
N15 O16 1.270599 1_555
