# generated using pymatgen
data_Cs7Fe4F15
_symmetry_space_group_name_H-M   'P 1'
_cell_length_a   11.04104974
_cell_length_b   7.85399365
_cell_length_c   11.64232651
_cell_angle_alpha   87.80101445
_cell_angle_beta   90.00000000
_cell_angle_gamma   90.00000000
_symmetry_Int_Tables_number   1
_chemical_formula_structural   Cs7Fe4F15
_chemical_formula_sum   'Cs14 Fe8 F30'
_cell_volume   1008.83642123
_cell_formula_units_Z   2
loop_
 _symmetry_equiv_pos_site_id
 _symmetry_equiv_pos_as_xyz
  1  'x, y, z'
loop_
 _atom_site_type_symbol
 _atom_site_label
 _atom_site_symmetry_multiplicity
 _atom_site_fract_x
 _atom_site_fract_y
 _atom_site_fract_z
 _atom_site_occupancy
  Cs  Cs0  1  0.31893796  0.49479168  0.47219773  1
  Cs  Cs1  1  0.65364216  0.84495324  0.80634519  1
  Cs  Cs2  1  0.81893796  0.50520832  0.02780227  1
  Cs  Cs3  1  0.99601426  0.66987132  0.66579304  1
  Cs  Cs4  1  0.00000000  -0.00000000  0.00000000  1
  Cs  Cs5  1  0.15364216  0.15504676  0.69365481  1
  Cs  Cs6  1  0.50398574  0.66987132  0.16579304  1
  Cs  Cs7  1  0.49601426  0.33012868  0.83420696  1
  Cs  Cs8  1  0.68106204  0.50520832  0.52780227  1
  Cs  Cs9  1  0.18106204  0.49479168  0.97219773  1
  Cs  Cs10  1  0.50000000  -0.00000000  0.50000000  1
  Cs  Cs11  1  0.84635784  0.84495324  0.30634519  1
  Cs  Cs12  1  0.00398574  0.33012868  0.33420696  1
  Cs  Cs13  1  0.34635784  0.15504676  0.19365481  1
  Fe  Fe0  1  0.17246708  0.73789109  0.22724048  1
  Fe  Fe1  1  0.33800858  0.92063295  0.92451392  1
  Fe  Fe2  1  0.82753292  0.26210891  0.77275952  1
  Fe  Fe3  1  0.83800858  0.07936705  0.57548608  1
  Fe  Fe4  1  0.16199142  0.92063295  0.42451392  1
  Fe  Fe5  1  0.67246708  0.26210891  0.27275952  1
  Fe  Fe6  1  0.32753292  0.73789109  0.72724048  1
  Fe  Fe7  1  0.66199142  0.07936705  0.07548608  1
  F  F0  1  0.97584880  0.33152382  0.85248873  1
  F  F1  1  0.40125857  0.98596680  0.75153162  1
  F  F2  1  0.23644623  0.82499806  0.58030980  1
  F  F3  1  0.26355377  0.82499806  0.08030980  1
  F  F4  1  0.24981445  0.50319631  0.72338198  1
  F  F5  1  0.68592697  0.18270079  0.67072280  1
  F  F6  1  0.74981445  0.49680369  0.77661802  1
  F  F7  1  0.31407303  0.81729921  0.32927720  1
  F  F8  1  0.59114533  0.31466005  0.10189178  1
  F  F9  1  0.76355377  0.17500194  0.41969020  1
  F  F10  1  0.25018555  0.50319631  0.22338198  1
  F  F11  1  0.90125857  0.01403320  0.74846838  1
  F  F12  1  0.81407303  0.18270079  0.17072280  1
  F  F13  1  0.90885467  0.31466005  0.60189178  1
  F  F14  1  0.73796841  0.85664984  0.05998635  1
  F  F15  1  0.26203159  0.14335016  0.94001365  1
  F  F16  1  0.47584880  0.66847618  0.64751127  1
  F  F17  1  0.02415120  0.66847618  0.14751127  1
  F  F18  1  0.09114533  0.68533995  0.39810822  1
  F  F19  1  0.76203159  0.85664984  0.55998635  1
  F  F20  1  0.75018555  0.49680369  0.27661802  1
  F  F21  1  0.09874143  0.98596680  0.25153162  1
  F  F22  1  0.73644623  0.17500194  0.91969020  1
  F  F23  1  0.23796841  0.14335016  0.44001365  1
  F  F24  1  0.59874143  0.01403320  0.24846838  1
  F  F25  1  0.18592697  0.81729921  0.82927720  1
  F  F26  1  0.52415120  0.33152382  0.35248873  1
  F  F27  1  0.40885467  0.68533995  0.89810822  1
  F  F28  1  0.00000000  -0.00000000  0.50000000  1
  F  F29  1  0.50000000  -0.00000000  0.00000000  1
loop_
_geom_bond_atom_site_label_1
_geom_bond_atom_site_label_2
_geom_bond_distance
_geom_bond_site_symmetry_2
Cs0 F23 2.939012 1_555
Cs0 F26 2.976162 1_555
Cs0 F7 2.977256 1_555
Cs0 F10 2.992880 1_555
Cs0 F4 3.025487 1_555
Cs0 F18 3.034840 1_555
Cs0 F16 3.040035 1_555
Cs0 F2 3.064350 1_555
Cs1 F6 2.965917 1_555
Cs1 F5 3.055388 1_565
Cs1 F1 3.056899 1_555
Cs1 F16 3.064445 1_555
Cs1 F22 3.091794 1_565
Cs1 F14 3.100994 1_556
Cs1 F11 3.102141 1_565
Cs1 F19 3.105946 1_555
Cs1 F29 3.107158 1_566
Cs1 F27 3.148766 1_555
Cs2 F14 2.939012 1_555
Cs2 F17 2.976162 1_655
Cs2 F12 2.977256 1_555
Cs2 F20 2.992880 1_555
Cs2 F6 3.025487 1_554
Cs2 F8 3.034840 1_555
Cs2 F0 3.040035 1_554
Cs2 F22 3.064350 1_554
Cs3 F13 3.069523 1_555
Cs3 F2 3.070643 1_655
Cs3 F11 3.086604 1_565
Cs3 F25 3.086950 1_655
Cs3 F4 3.154087 1_655
Cs3 F28 3.172754 1_665
Cs3 F19 3.194486 1_555
Cs3 F6 3.281308 1_555
Cs3 F18 3.286540 1_655
Cs3 F0 3.375263 1_555
Cs4 F0 3.075227 1_454
Cs4 F17 3.075227 1_545
Cs4 F11 3.122745 1_454
Cs4 F21 3.122745 1_545
Cs4 F14 3.172543 1_445
Cs4 F15 3.172543 1_554
Cs4 F25 3.231501 1_544
Cs4 F12 3.231501 1_455
Cs4 F22 3.336513 1_454
Cs4 F3 3.336513 1_545
Cs5 F4 2.965917 1_555
Cs5 F25 3.055388 1_545
Cs5 F11 3.056899 1_455
Cs5 F0 3.064445 1_455
Cs5 F2 3.091794 1_545
Cs5 F23 3.100994 1_555
Cs5 F1 3.102141 1_545
Cs5 F15 3.105946 1_555
Cs5 F28 3.107158 1_555
Cs5 F13 3.148766 1_455
Cs6 F8 3.069523 1_555
Cs6 F3 3.070643 1_555
Cs6 F24 3.086604 1_565
Cs6 F7 3.086950 1_555
Cs6 F10 3.154087 1_555
Cs6 F29 3.172754 1_565
Cs6 F14 3.194486 1_555
Cs6 F20 3.281308 1_555
Cs6 F27 3.286540 1_554
Cs6 F26 3.375263 1_555
Cs7 F27 3.069523 1_555
Cs7 F22 3.070643 1_555
Cs7 F1 3.086604 1_545
Cs7 F5 3.086950 1_555
Cs7 F6 3.154087 1_555
Cs7 F29 3.172754 1_556
Cs7 F15 3.194486 1_555
Cs7 F4 3.281308 1_555
Cs7 F8 3.286540 1_556
Cs7 F16 3.375263 1_555
Cs8 F19 2.939012 1_555
Cs8 F16 2.976162 1_555
Cs8 F5 2.977256 1_555
Cs8 F6 2.992880 1_555
Cs8 F20 3.025487 1_555
Cs8 F13 3.034840 1_555
Cs8 F26 3.040035 1_555
Cs8 F9 3.064350 1_555
Cs9 F15 2.939012 1_555
Cs9 F0 2.976162 1_455
Cs9 F25 2.977256 1_555
Cs9 F4 2.992880 1_555
Cs9 F10 3.025487 1_556
Cs9 F27 3.034840 1_555
Cs9 F17 3.040035 1_556
Cs9 F3 3.064350 1_556
Cs10 F16 3.075227 1_545
Cs10 F26 3.075227 1_555
Cs10 F1 3.122745 1_545
Cs10 F24 3.122745 1_555
Cs10 F19 3.172543 1_545
Cs10 F23 3.172543 1_555
Cs10 F5 3.231501 1_555
Cs10 F7 3.231501 1_545
Cs10 F9 3.336513 1_555
Cs10 F2 3.336513 1_545
Cs11 F20 2.965917 1_555
Cs11 F12 3.055388 1_565
Cs11 F21 3.056899 1_655
Cs11 F17 3.064445 1_655
Cs11 F9 3.091794 1_565
Cs11 F19 3.100994 1_555
Cs11 F24 3.102141 1_565
Cs11 F14 3.105946 1_555
Cs11 F28 3.107158 1_665
Cs11 F18 3.148766 1_655
Cs12 F18 3.069523 1_555
Cs12 F9 3.070643 1_455
Cs12 F21 3.086604 1_545
Cs12 F12 3.086950 1_455
Cs12 F20 3.154087 1_455
Cs12 F28 3.172754 1_555
Cs12 F23 3.194486 1_555
Cs12 F10 3.281308 1_555
Cs12 F13 3.286540 1_455
Cs12 F17 3.375263 1_555
Cs13 F10 2.965917 1_555
Cs13 F7 3.055388 1_545
Cs13 F24 3.056899 1_555
Cs13 F26 3.064445 1_555
Cs13 F3 3.091794 1_545
Cs13 F15 3.100994 1_554
Cs13 F21 3.102141 1_545
Cs13 F23 3.105946 1_555
Cs13 F29 3.107158 1_555
Cs13 F8 3.148766 1_555
F0 Fe2 1.969592 1_555
F1 Fe6 2.140345 1_555
F1 Fe1 2.174292 1_555
F2 Fe6 2.077464 1_555
F2 Fe4 2.103657 1_555
F3 Fe0 2.077464 1_555
F3 Fe1 2.103657 1_554
F4 Fe6 2.035294 1_555
F5 Fe2 2.074005 1_555
F5 Fe3 2.185548 1_555
F6 Fe2 2.035294 1_555
F7 Fe0 2.074005 1_555
F7 Fe4 2.185548 1_555
F8 Fe7 2.040841 1_555
F8 Fe5 2.206997 1_555
F9 Fe5 2.077464 1_555
F9 Fe3 2.103657 1_555
F10 Fe0 2.035294 1_555
F11 Fe2 2.140345 1_555
F11 Fe3 2.174292 1_555
F12 Fe5 2.074005 1_555
F12 Fe7 2.185548 1_555
F13 Fe3 2.040841 1_555
F13 Fe2 2.206997 1_555
F14 Fe7 1.954546 1_565
F15 Fe1 1.954546 1_545
F16 Fe6 1.969592 1_555
F17 Fe0 1.969592 1_555
F18 Fe4 2.040841 1_555
F18 Fe0 2.206997 1_555
F19 Fe3 1.954546 1_565
F20 Fe5 2.035294 1_555
F21 Fe0 2.140345 1_555
F21 Fe4 2.174292 1_555
F22 Fe2 2.077464 1_555
F22 Fe7 2.103657 1_556
F23 Fe4 1.954546 1_545
F24 Fe5 2.140345 1_555
F24 Fe7 2.174292 1_555
F25 Fe6 2.074005 1_555
F25 Fe1 2.185548 1_555
F26 Fe5 1.969592 1_555
F27 Fe1 2.040841 1_555
F27 Fe6 2.206997 1_555
F28 Fe4 2.098066 1_545
F28 Fe3 2.098066 1_455
F29 Fe1 2.098066 1_544
F29 Fe7 2.098066 1_555
