# generated using pymatgen
data_KTaN2
_symmetry_space_group_name_H-M   'P 1'
_cell_length_a   5.94471153
_cell_length_b   11.93336622
_cell_length_c   16.55434540
_cell_angle_alpha   90.00000000
_cell_angle_beta   90.00000000
_cell_angle_gamma   90.00000000
_symmetry_Int_Tables_number   1
_chemical_formula_structural   KTaN2
_chemical_formula_sum   'K16 Ta16 N32'
_cell_volume   1174.37221152
_cell_formula_units_Z   16
loop_
 _symmetry_equiv_pos_site_id
 _symmetry_equiv_pos_as_xyz
  1  'x, y, z'
loop_
 _atom_site_type_symbol
 _atom_site_label
 _atom_site_symmetry_multiplicity
 _atom_site_fract_x
 _atom_site_fract_y
 _atom_site_fract_z
 _atom_site_occupancy
  K  K0  1  0.73931283  0.99466085  0.43748706  1
  K  K1  1  0.23931283  0.50533915  0.56251294  1
  K  K2  1  0.26068717  0.49466085  0.06251294  1
  K  K3  1  0.76068717  0.00533915  0.93748706  1
  K  K4  1  0.26068717  0.00533915  0.56251294  1
  K  K5  1  0.76068717  0.49466085  0.43748706  1
  K  K6  1  0.73931283  0.50533915  0.93748706  1
  K  K7  1  0.23931283  0.99466085  0.06251294  1
  K  K8  1  0.81135776  0.26282057  0.31244938  1
  K  K9  1  0.31135776  0.23717943  0.68755062  1
  K  K10  1  0.18864224  0.76282057  0.18755062  1
  K  K11  1  0.68864224  0.73717943  0.81244938  1
  K  K12  1  0.18864224  0.73717943  0.68755062  1
  K  K13  1  0.68864224  0.76282057  0.31244938  1
  K  K14  1  0.81135776  0.23717943  0.81244938  1
  K  K15  1  0.31135776  0.26282057  0.18755062  1
  Ta  Ta0  1  0.22870069  0.01212248  0.31241297  1
  Ta  Ta1  1  0.72870069  0.48787752  0.68758703  1
  Ta  Ta2  1  0.77129931  0.51212248  0.18758703  1
  Ta  Ta3  1  0.27129931  0.98787752  0.81241297  1
  Ta  Ta4  1  0.77129931  0.98787752  0.68758703  1
  Ta  Ta5  1  0.27129931  0.51212248  0.31241297  1
  Ta  Ta6  1  0.22870069  0.48787752  0.81241297  1
  Ta  Ta7  1  0.72870069  0.01212248  0.18758703  1
  Ta  Ta8  1  0.29294915  0.26736556  0.43772157  1
  Ta  Ta9  1  0.79294915  0.23263444  0.56227843  1
  Ta  Ta10  1  0.70705085  0.76736556  0.06227843  1
  Ta  Ta11  1  0.20705085  0.73263444  0.93772157  1
  Ta  Ta12  1  0.70705085  0.73263444  0.56227843  1
  Ta  Ta13  1  0.20705085  0.76736556  0.43772157  1
  Ta  Ta14  1  0.29294915  0.23263444  0.93772157  1
  Ta  Ta15  1  0.79294915  0.26736556  0.06227843  1
  N  N0  1  0.60548273  0.27424373  0.47117432  1
  N  N1  1  0.10548273  0.22575627  0.52882568  1
  N  N2  1  0.39451727  0.77424373  0.02882568  1
  N  N3  1  0.89451727  0.72575627  0.97117432  1
  N  N4  1  0.39451727  0.72575627  0.52882568  1
  N  N5  1  0.89451727  0.77424373  0.47117432  1
  N  N6  1  0.60548273  0.22575627  0.97117432  1
  N  N7  1  0.10548273  0.27424373  0.02882568  1
  N  N8  1  0.19857203  0.41443678  0.40229986  1
  N  N9  1  0.69857203  0.08556322  0.59770014  1
  N  N10  1  0.80142797  0.91443678  0.09770014  1
  N  N11  1  0.30142797  0.58556322  0.90229986  1
  N  N12  1  0.80142797  0.58556322  0.59770014  1
  N  N13  1  0.30142797  0.91443678  0.40229986  1
  N  N14  1  0.19857203  0.08556322  0.90229986  1
  N  N15  1  0.69857203  0.41443678  0.09770014  1
  N  N16  1  0.25907850  0.16628453  0.34674028  1
  N  N17  1  0.75907850  0.33371547  0.65325972  1
  N  N18  1  0.74092150  0.66628453  0.15325972  1
  N  N19  1  0.24092150  0.83371547  0.84674028  1
  N  N20  1  0.74092150  0.83371547  0.65325972  1
  N  N21  1  0.24092150  0.66628453  0.34674028  1
  N  N22  1  0.25907850  0.33371547  0.84674028  1
  N  N23  1  0.75907850  0.16628453  0.15325972  1
  N  N24  1  0.07752009  0.48275253  0.22077441  1
  N  N25  1  0.57752009  0.01724747  0.77922559  1
  N  N26  1  0.92247991  0.98275253  0.27922559  1
  N  N27  1  0.42247991  0.51724747  0.72077441  1
  N  N28  1  0.92247991  0.51724747  0.77922559  1
  N  N29  1  0.42247991  0.98275253  0.22077441  1
  N  N30  1  0.07752009  0.01724747  0.72077441  1
  N  N31  1  0.57752009  0.48275253  0.27922559  1
loop_
_geom_bond_atom_site_label_1
_geom_bond_atom_site_label_2
_geom_bond_distance
_geom_bond_site_symmetry_2
K0 N13 2.834068 1_555
K0 N26 2.840739 1_555
K0 N5 2.842683 1_555
K0 N9 2.875704 1_565
K1 N12 2.834068 1_455
K1 N27 2.840739 1_555
K1 N4 2.842683 1_555
K1 N8 2.875704 1_555
K2 N15 2.834068 1_555
K2 N24 2.840739 1_555
K2 N7 2.842683 1_555
K2 N11 2.875704 1_554
K3 N14 2.834068 1_655
K3 N25 2.840739 1_555
K3 N6 2.842683 1_555
K3 N10 2.875704 1_546
K4 N9 2.834068 1_555
K4 N30 2.840739 1_555
K4 N1 2.842683 1_555
K4 N13 2.875704 1_545
K5 N8 2.834068 1_655
K5 N31 2.840739 1_555
K5 N0 2.842683 1_555
K5 N12 2.875704 1_555
K6 N11 2.834068 1_555
K6 N28 2.840739 1_555
K6 N3 2.842683 1_555
K6 N15 2.875704 1_556
K7 N10 2.834068 1_455
K7 N29 2.840739 1_555
K7 N2 2.842683 1_555
K7 N14 2.875704 1_564
K8 N23 2.892818 1_555
K8 N0 2.901836 1_555
K8 N16 2.955216 1_655
K8 N31 3.020434 1_555
K9 N22 2.892818 1_555
K9 N1 2.901836 1_555
K9 N17 2.955216 1_555
K9 N30 3.020434 1_555
K10 N21 2.892818 1_555
K10 N2 2.901836 1_555
K10 N18 2.955216 1_455
K10 N29 3.020434 1_555
K11 N20 2.892818 1_555
K11 N3 2.901836 1_555
K11 N19 2.955216 1_555
K11 N28 3.020434 1_555
K12 N19 2.892818 1_555
K12 N4 2.901836 1_555
K12 N20 2.955216 1_455
K12 N27 3.020434 1_555
K13 N18 2.892818 1_555
K13 N5 2.901836 1_555
K13 N21 2.955216 1_555
K13 N26 3.020434 1_555
K14 N17 2.892818 1_555
K14 N6 2.901836 1_555
K14 N22 2.955216 1_655
K14 N25 3.020434 1_555
K15 N16 2.892818 1_555
K15 N7 2.901836 1_555
K15 N23 2.955216 1_555
K15 N24 3.020434 1_555
N0 Ta9 1.939868 1_555
N0 Ta8 1.940436 1_555
N1 Ta8 1.939868 1_555
N1 Ta9 1.940436 1_455
N2 Ta11 1.939868 1_554
N2 Ta10 1.940436 1_555
N3 Ta10 1.939868 1_556
N3 Ta11 1.940436 1_655
N4 Ta13 1.939868 1_555
N4 Ta12 1.940436 1_555
N5 Ta12 1.939868 1_555
N5 Ta13 1.940436 1_655
N6 Ta15 1.939868 1_556
N6 Ta14 1.940436 1_555
N7 Ta14 1.939868 1_554
N7 Ta15 1.940436 1_455
N8 Ta8 1.933606 1_555
N8 Ta5 1.939077 1_555
N9 Ta9 1.933606 1_555
N9 Ta4 1.939077 1_545
N10 Ta10 1.933606 1_555
N10 Ta7 1.939077 1_565
N11 Ta11 1.933606 1_555
N11 Ta6 1.939077 1_555
N12 Ta12 1.933606 1_555
N12 Ta1 1.939077 1_555
N13 Ta13 1.933606 1_555
N13 Ta0 1.939077 1_565
N14 Ta14 1.933606 1_555
N14 Ta3 1.939077 1_545
N15 Ta15 1.933606 1_555
N15 Ta2 1.939077 1_555
N16 Ta0 1.933890 1_555
N16 Ta8 1.940102 1_555
N17 Ta1 1.933890 1_555
N17 Ta9 1.940102 1_555
N18 Ta2 1.933890 1_555
N18 Ta10 1.940102 1_555
N19 Ta3 1.933890 1_555
N19 Ta11 1.940102 1_555
N20 Ta4 1.933890 1_555
N20 Ta12 1.940102 1_555
N21 Ta5 1.933890 1_555
N21 Ta13 1.940102 1_555
N22 Ta6 1.933890 1_555
N22 Ta14 1.940102 1_555
N23 Ta7 1.933890 1_555
N23 Ta15 1.940102 1_555
N24 Ta2 1.933522 1_455
N24 Ta5 1.936799 1_555
N25 Ta3 1.933522 1_545
N25 Ta4 1.936799 1_545
N26 Ta0 1.933522 1_665
N26 Ta7 1.936799 1_565
N27 Ta1 1.933522 1_555
N27 Ta6 1.936799 1_555
N28 Ta6 1.933522 1_655
N28 Ta1 1.936799 1_555
N29 Ta7 1.933522 1_565
N29 Ta0 1.936799 1_565
N30 Ta4 1.933522 1_445
N30 Ta3 1.936799 1_545
N31 Ta5 1.933522 1_555
N31 Ta2 1.936799 1_555
