# generated using pymatgen
data_PbI2
_symmetry_space_group_name_H-M   'P 1'
_cell_length_a   4.61784276
_cell_length_b   4.61784318
_cell_length_c   14.55122959
_cell_angle_alpha   90.00000000
_cell_angle_beta   90.00000000
_cell_angle_gamma   119.99999697
_symmetry_Int_Tables_number   1
_chemical_formula_structural   PbI2
_chemical_formula_sum   'Pb2 I4'
_cell_volume   268.72536389
_cell_formula_units_Z   2
loop_
 _symmetry_equiv_pos_site_id
 _symmetry_equiv_pos_as_xyz
  1  'x, y, z'
loop_
 _atom_site_type_symbol
 _atom_site_label
 _atom_site_symmetry_multiplicity
 _atom_site_fract_x
 _atom_site_fract_y
 _atom_site_fract_z
 _atom_site_occupancy
  Pb  Pb0  1  0.66666700  0.33333300  0.50010071  1
  Pb  Pb1  1  0.33333300  0.66666700  1.00010071  1
  I  I0  1  0.66666700  0.33333300  0.87135195  1
  I  I1  1  0.00000000  -0.00000000  0.12854834  1
  I  I2  1  -0.00000000  0.00000000  0.62854834  1
  I  I3  1  0.33333300  0.66666700  0.37135195  1
loop_
_geom_bond_atom_site_label_1
_geom_bond_atom_site_label_2
_geom_bond_distance
_geom_bond_site_symmetry_2
I0 Pb1 3.258522 1_655
I0 Pb1 3.258523 1_545
I0 Pb1 3.258529 1_555
I1 Pb1 3.256005 1_544
I1 Pb1 3.256008 1_444
I1 Pb1 3.256009 1_554
I2 Pb0 3.256005 1_455
I2 Pb0 3.256008 1_555
I2 Pb0 3.256009 1_445
I3 Pb0 3.258522 1_455
I3 Pb0 3.258523 1_565
I3 Pb0 3.258529 1_555
