# generated using pymatgen
data_Na2LiFeO4
_symmetry_space_group_name_H-M   'P 1'
_cell_length_a   6.33711000
_cell_length_b   7.74026700
_cell_length_c   8.53815800
_cell_angle_alpha   90.00000000
_cell_angle_beta   90.00000000
_cell_angle_gamma   90.00000000
_symmetry_Int_Tables_number   1
_chemical_formula_structural   Na2LiFeO4
_chemical_formula_sum   'Na8 Li4 Fe4 O16'
_cell_volume   418.80453411
_cell_formula_units_Z   4
loop_
 _symmetry_equiv_pos_site_id
 _symmetry_equiv_pos_as_xyz
  1  'x, y, z'
loop_
 _atom_site_type_symbol
 _atom_site_label
 _atom_site_symmetry_multiplicity
 _atom_site_fract_x
 _atom_site_fract_y
 _atom_site_fract_z
 _atom_site_occupancy
  Na  Na0  1  0.73856300  0.50000000  0.00000000  1
  Na  Na1  1  0.00000000  0.75884500  0.24152200  1
  Na  Na2  1  0.50000000  0.25884500  0.25847800  1
  Na  Na3  1  0.23856300  0.00000000  0.50000000  1
  Na  Na4  1  0.76143700  0.00000000  0.50000000  1
  Na  Na5  1  0.50000000  0.74115500  0.74152200  1
  Na  Na6  1  0.00000000  0.24115500  0.75847800  1
  Na  Na7  1  0.26143700  0.50000000  0.00000000  1
  Li  Li0  1  0.50000000  0.83825000  0.08492500  1
  Li  Li1  1  0.00000000  0.33825000  0.41507500  1
  Li  Li2  1  0.00000000  0.66175000  0.58492500  1
  Li  Li3  1  0.50000000  0.16175000  0.91507500  1
  Fe  Fe0  1  0.00000000  0.21086900  0.13139400  1
  Fe  Fe1  1  0.50000000  0.71086900  0.36860600  1
  Fe  Fe2  1  0.50000000  0.28913100  0.63139400  1
  Fe  Fe3  1  0.00000000  0.78913100  0.86860600  1
  O  O0  1  0.75566700  0.20121100  0.03477700  1
  O  O1  1  0.24433300  0.20121100  0.03477700  1
  O  O2  1  0.50000000  0.58058800  0.20286800  1
  O  O3  1  0.00000000  0.42516600  0.19893400  1
  O  O4  1  0.50000000  0.92516600  0.30106600  1
  O  O5  1  0.00000000  0.08058800  0.29713200  1
  O  O6  1  0.25566700  0.70121100  0.46522300  1
  O  O7  1  0.74433300  0.70121100  0.46522300  1
  O  O8  1  0.74433300  0.29878900  0.53477700  1
  O  O9  1  0.25566700  0.29878900  0.53477700  1
  O  O10  1  0.00000000  0.91941200  0.70286800  1
  O  O11  1  0.50000000  0.07483400  0.69893400  1
  O  O12  1  0.00000000  0.57483400  0.80106600  1
  O  O13  1  0.50000000  0.41941200  0.79713200  1
  O  O14  1  0.75566700  0.79878900  0.96522300  1
  O  O15  1  0.24433300  0.79878900  0.96522300  1
loop_
_geom_bond_atom_site_label_1
_geom_bond_atom_site_label_2
_geom_bond_distance
_geom_bond_site_symmetry_2
Na0 O0 2.334208 1_555
Na0 O14 2.334208 1_554
Na0 O13 2.382198 1_554
Na0 O2 2.382198 1_555
Na0 O3 2.442408 1_655
Na0 O12 2.442408 1_654
Na1 O5 2.535235 1_565
Na1 O6 2.544033 1_555
Na1 O7 2.544033 1_455
Na1 O3 2.608236 1_555
Na1 O14 2.838715 1_454
Na1 O15 2.838715 1_554
Na2 O2 2.535235 1_555
Na2 O0 2.544033 1_555
Na2 O1 2.544033 1_555
Na2 O4 2.608236 1_545
Na2 O8 2.838715 1_555
Na2 O9 2.838715 1_555
Na3 O9 2.334208 1_555
Na3 O6 2.334208 1_545
Na3 O10 2.382198 1_545
Na3 O5 2.382198 1_555
Na3 O11 2.442408 1_555
Na3 O4 2.442408 1_545
Na4 O8 2.334208 1_555
Na4 O7 2.334208 1_545
Na4 O10 2.382198 1_645
Na4 O5 2.382198 1_655
Na4 O11 2.442408 1_555
Na4 O4 2.442408 1_545
Na5 O13 2.535235 1_555
Na5 O14 2.544033 1_555
Na5 O15 2.544033 1_555
Na5 O11 2.608236 1_565
Na5 O7 2.838715 1_555
Na5 O6 2.838715 1_555
Na6 O10 2.535235 1_545
Na6 O9 2.544033 1_555
Na6 O8 2.544033 1_455
Na6 O12 2.608236 1_555
Na6 O0 2.838715 1_456
Na6 O1 2.838715 1_556
Na7 O1 2.334208 1_555
Na7 O15 2.334208 1_554
Na7 O2 2.382198 1_555
Na7 O13 2.382198 1_554
Na7 O12 2.442408 1_554
Na7 O3 2.442408 1_555
Li0 O15 1.939810 1_554
Li0 O14 1.939810 1_554
Li0 O4 1.964247 1_555
Li0 O2 2.234190 1_555
Li1 O9 1.939810 1_555
Li1 O8 1.939810 1_455
Li1 O3 1.964247 1_555
Li1 O5 2.234190 1_555
Li2 O6 1.939810 1_555
Li2 O7 1.939810 1_455
Li2 O12 1.964247 1_555
Li2 O10 2.234190 1_555
Li3 O0 1.939810 1_556
Li3 O1 1.939810 1_556
Li3 O11 1.964247 1_555
Li3 O13 2.234190 1_555
Fe0 O5 1.737639 1_555
Fe0 O1 1.756000 1_555
Fe0 O0 1.756000 1_455
Fe0 O3 1.756099 1_555
Fe1 O2 1.737639 1_555
Fe1 O7 1.756000 1_555
Fe1 O6 1.756000 1_555
Fe1 O4 1.756099 1_555
Fe2 O13 1.737639 1_555
Fe2 O8 1.756000 1_555
Fe2 O9 1.756000 1_555
Fe2 O11 1.756099 1_555
Fe3 O10 1.737639 1_555
Fe3 O14 1.756000 1_455
Fe3 O15 1.756000 1_555
Fe3 O12 1.756099 1_555
