# generated using pymatgen
data_MgBeAl4O8
_symmetry_space_group_name_H-M   'P 1'
_cell_length_a   5.66261214
_cell_length_b   5.66261214
_cell_length_c   18.31749600
_cell_angle_alpha   90.00000000
_cell_angle_beta   90.00000000
_cell_angle_gamma   120.00000158
_symmetry_Int_Tables_number   1
_chemical_formula_structural   MgBeAl4O8
_chemical_formula_sum   'Mg4 Be4 Al16 O32'
_cell_volume   508.66324888
_cell_formula_units_Z   4
loop_
 _symmetry_equiv_pos_site_id
 _symmetry_equiv_pos_as_xyz
  1  'x, y, z'
loop_
 _atom_site_type_symbol
 _atom_site_label
 _atom_site_symmetry_multiplicity
 _atom_site_fract_x
 _atom_site_fract_y
 _atom_site_fract_z
 _atom_site_occupancy
  Mg  Mg0  1  0.00000000  0.00000000  0.15554700  1
  Mg  Mg1  1  0.33333300  0.66666700  0.40541500  1
  Mg  Mg2  1  0.66666700  0.33333300  0.90541500  1
  Mg  Mg3  1  0.00000000  0.00000000  0.65554700  1
  Be  Be0  1  0.66666700  0.33333300  0.71808200  1
  Be  Be1  1  0.33333300  0.66666700  0.95465900  1
  Be  Be2  1  0.66666700  0.33333300  0.45465900  1
  Be  Be3  1  0.33333300  0.66666700  0.21808200  1
  Al  Al0  1  0.16333600  0.83666400  0.81348700  1
  Al  Al1  1  0.50147300  0.00294700  0.06239500  1
  Al  Al2  1  0.00294700  0.50147300  0.56239500  1
  Al  Al3  1  0.83666400  0.67332800  0.31348700  1
  Al  Al4  1  0.00000000  0.00000000  0.94586500  1
  Al  Al5  1  0.33333300  0.66666700  0.68711300  1
  Al  Al6  1  0.83666400  0.16333600  0.31348700  1
  Al  Al7  1  0.49852700  0.99705300  0.56239500  1
  Al  Al8  1  0.32667200  0.16333600  0.31348700  1
  Al  Al9  1  0.99705300  0.49852700  0.06239500  1
  Al  Al10  1  0.50147300  0.49852700  0.06239500  1
  Al  Al11  1  0.16333600  0.32667200  0.81348700  1
  Al  Al12  1  0.00000000  0.00000000  0.44586500  1
  Al  Al13  1  0.66666700  0.33333300  0.18711300  1
  Al  Al14  1  0.49852700  0.50147300  0.56239500  1
  Al  Al15  1  0.67332800  0.83666400  0.81348700  1
  O  O0  1  0.36049900  0.18025000  0.49986000  1
  O  O1  1  0.36814600  0.18407300  0.12144300  1
  O  O2  1  0.18025000  0.36049900  0.99986000  1
  O  O3  1  0.33333300  0.66666700  0.50957900  1
  O  O4  1  0.85257200  0.14742800  0.87456000  1
  O  O5  1  0.33333300  0.66666700  0.12150500  1
  O  O6  1  0.00000000  0.00000000  0.26007800  1
  O  O7  1  0.66666700  0.33333300  0.62150500  1
  O  O8  1  0.50651000  0.01302000  0.25168900  1
  O  O9  1  0.63950100  0.81975000  0.99986000  1
  O  O10  1  0.66666700  0.33333300  0.36685700  1
  O  O11  1  0.18407300  0.36814600  0.62144300  1
  O  O12  1  0.81592700  0.18407300  0.12144300  1
  O  O13  1  0.14742800  0.29485700  0.37456000  1
  O  O14  1  0.18407300  0.81592700  0.62144300  1
  O  O15  1  0.63185400  0.81592700  0.62144300  1
  O  O16  1  0.50651000  0.49349000  0.25168900  1
  O  O17  1  0.81592700  0.63185400  0.12144300  1
  O  O18  1  0.14742800  0.85257200  0.37456000  1
  O  O19  1  0.70514300  0.85257200  0.37456000  1
  O  O20  1  0.29485700  0.14742800  0.87456000  1
  O  O21  1  0.01302000  0.50651000  0.75168900  1
  O  O22  1  0.49349000  0.50651000  0.75168900  1
  O  O23  1  0.81975000  0.63950100  0.49986000  1
  O  O24  1  0.66666700  0.33333300  0.00957900  1
  O  O25  1  0.49349000  0.98698000  0.75168900  1
  O  O26  1  0.81975000  0.18025000  0.49986000  1
  O  O27  1  0.18025000  0.81975000  0.99986000  1
  O  O28  1  0.33333300  0.66666700  0.86685700  1
  O  O29  1  0.98698000  0.49349000  0.25168900  1
  O  O30  1  0.85257200  0.70514300  0.87456000  1
  O  O31  1  0.00000000  0.00000000  0.76007800  1
loop_
_geom_bond_atom_site_label_1
_geom_bond_atom_site_label_2
_geom_bond_distance
_geom_bond_site_symmetry_2
Mg0 O17 1.910401 1_445
Mg0 O1 1.910401 1_555
Mg0 O12 1.910401 1_455
Mg0 O6 1.914746 1_555
Mg1 O3 1.908024 1_555
Mg1 O19 1.908931 1_555
Mg1 O13 1.908931 1_555
Mg1 O18 1.908931 1_555
Mg2 O24 1.908024 1_556
Mg2 O30 1.908931 1_555
Mg2 O20 1.908931 1_555
Mg2 O4 1.908931 1_555
Mg3 O11 1.910401 1_555
Mg3 O15 1.910401 1_445
Mg3 O14 1.910401 1_545
Mg3 O31 1.914746 1_555
Be0 O7 1.769049 1_555
Be0 O25 1.806619 1_545
Be0 O21 1.806619 1_655
Be0 O22 1.806624 1_555
Be1 O28 1.608313 1_555
Be1 O27 1.714590 1_555
Be1 O9 1.714598 1_555
Be1 O2 1.714598 1_555
Be2 O10 1.608313 1_555
Be2 O26 1.714590 1_555
Be2 O23 1.714598 1_555
Be2 O0 1.714598 1_555
Be3 O5 1.769049 1_555
Be3 O29 1.806619 1_455
Be3 O8 1.806619 1_565
Be3 O16 1.806624 1_555
Al0 O31 1.877092 1_565
Al0 O30 1.895326 1_455
Al0 O20 1.895326 1_565
Al0 O28 1.932787 1_555
Al0 O21 1.977307 1_555
Al0 O25 1.977307 1_555
Al1 O24 1.887068 1_555
Al1 O1 1.888430 1_555
Al1 O12 1.888434 1_555
Al1 O27 1.951911 1_544
Al1 O9 1.951919 1_544
Al1 O5 1.972788 1_545
Al2 O3 1.887068 1_555
Al2 O11 1.888430 1_555
Al2 O14 1.888434 1_555
Al2 O26 1.951911 1_455
Al2 O23 1.951919 1_455
Al2 O7 1.972788 1_455
Al3 O6 1.877092 1_665
Al3 O18 1.895326 1_655
Al3 O19 1.895330 1_555
Al3 O10 1.932791 1_555
Al3 O16 1.977307 1_555
Al3 O29 1.977307 1_555
Al4 O4 1.948534 1_455
Al4 O20 1.948538 1_555
Al4 O30 1.948538 1_445
Al4 O2 2.025736 1_555
Al4 O9 2.025736 1_445
Al4 O27 2.025741 1_545
Al5 O14 1.894753 1_555
Al5 O15 1.894757 1_555
Al5 O11 1.894757 1_555
Al5 O21 1.966369 1_555
Al5 O25 1.966369 1_555
Al5 O22 1.966373 1_555
Al6 O6 1.877092 1_655
Al6 O19 1.895326 1_545
Al6 O13 1.895326 1_655
Al6 O10 1.932787 1_555
Al6 O8 1.977307 1_555
Al6 O29 1.977307 1_555
Al7 O3 1.887068 1_555
Al7 O15 1.888430 1_555
Al7 O14 1.888434 1_555
Al7 O26 1.951911 1_565
Al7 O0 1.951919 1_565
Al7 O7 1.972788 1_565
Al8 O6 1.877092 1_555
Al8 O18 1.895326 1_545
Al8 O13 1.895330 1_555
Al8 O10 1.932791 1_555
Al8 O16 1.977307 1_555
Al8 O8 1.977307 1_555
Al9 O24 1.887068 1_555
Al9 O17 1.888430 1_555
Al9 O12 1.888434 1_555
Al9 O27 1.951911 1_654
Al9 O2 1.951919 1_654
Al9 O5 1.972788 1_655
Al10 O24 1.887077 1_555
Al10 O1 1.888434 1_555
Al10 O17 1.888434 1_555
Al10 O2 1.951910 1_554
Al10 O9 1.951910 1_554
Al10 O5 1.972788 1_555
Al11 O31 1.877092 1_555
Al11 O4 1.895326 1_455
Al11 O20 1.895330 1_555
Al11 O28 1.932791 1_555
Al11 O22 1.977307 1_555
Al11 O21 1.977307 1_555
Al12 O18 1.948534 1_545
Al12 O13 1.948538 1_555
Al12 O19 1.948538 1_445
Al12 O0 2.025736 1_555
Al12 O23 2.025736 1_445
Al12 O26 2.025741 1_455
Al13 O12 1.894753 1_555
Al13 O1 1.894757 1_555
Al13 O17 1.894757 1_555
Al13 O8 1.966369 1_555
Al13 O29 1.966369 1_555
Al13 O16 1.966373 1_555
Al14 O3 1.887077 1_555
Al14 O11 1.888434 1_555
Al14 O15 1.888434 1_555
Al14 O0 1.951910 1_555
Al14 O23 1.951910 1_555
Al14 O7 1.972788 1_555
Al15 O31 1.877092 1_665
Al15 O4 1.895326 1_565
Al15 O30 1.895330 1_555
Al15 O28 1.932791 1_555
Al15 O22 1.977307 1_555
Al15 O25 1.977307 1_555
