# generated using pymatgen
data_LaSeO3F
_symmetry_space_group_name_H-M   'P 1'
_cell_length_a   7.13904226
_cell_length_b   8.47451245
_cell_length_c   18.13089186
_cell_angle_alpha   83.09681838
_cell_angle_beta   90.00000000
_cell_angle_gamma   90.00000000
_symmetry_Int_Tables_number   1
_chemical_formula_structural   LaSeO3F
_chemical_formula_sum   'La12 Se12 O36 F12'
_cell_volume   1088.96527468
_cell_formula_units_Z   12
loop_
 _symmetry_equiv_pos_site_id
 _symmetry_equiv_pos_as_xyz
  1  'x, y, z'
loop_
 _atom_site_type_symbol
 _atom_site_label
 _atom_site_symmetry_multiplicity
 _atom_site_fract_x
 _atom_site_fract_y
 _atom_site_fract_z
 _atom_site_occupancy
  La  La0  1  0.66865243  0.38218598  0.15347687  1
  La  La1  1  0.67111034  0.20183952  0.95382569  1
  La  La2  1  0.82888966  0.70183952  0.95382569  1
  La  La3  1  0.16865243  0.11781402  0.84652313  1
  La  La4  1  0.83134757  0.88218598  0.15347687  1
  La  La5  1  0.17994283  0.18625979  0.54927694  1
  La  La6  1  0.67994283  0.31374021  0.45072306  1
  La  La7  1  0.32005717  0.68625979  0.54927694  1
  La  La8  1  0.17111034  0.29816048  0.04617431  1
  La  La9  1  0.33134757  0.61781402  0.84652313  1
  La  La10  1  0.32888966  0.79816048  0.04617431  1
  La  La11  1  0.82005717  0.81374021  0.45072306  1
  Se  Se0  1  0.90405656  0.09316230  0.30255173  1
  Se  Se1  1  0.67975073  0.02068546  0.60026306  1
  Se  Se2  1  0.82560287  0.47591648  0.80327302  1
  Se  Se3  1  0.17975073  0.47931454  0.39973694  1
  Se  Se4  1  0.40405656  0.40683770  0.69744827  1
  Se  Se5  1  0.67439713  0.97591648  0.80327302  1
  Se  Se6  1  0.32024927  0.97931454  0.39973694  1
  Se  Se7  1  0.09594344  0.90683770  0.69744827  1
  Se  Se8  1  0.17439713  0.52408352  0.19672698  1
  Se  Se9  1  0.59594344  0.59316230  0.30255173  1
  Se  Se10  1  0.82024927  0.52068546  0.60026306  1
  Se  Se11  1  0.32560287  0.02408352  0.19672698  1
  O  O0  1  0.98207810  0.58767067  0.84724943  1
  O  O1  1  0.11150987  0.71395281  0.16970730  1
  O  O2  1  0.01792190  0.41232933  0.15275057  1
  O  O3  1  0.08868825  0.63293640  0.43939501  1
  O  O4  1  0.88849013  0.28604719  0.83029270  1
  O  O5  1  0.38849013  0.21395281  0.16970730  1
  O  O6  1  0.51792190  0.08767067  0.84724943  1
  O  O7  1  0.74749637  0.62439653  0.22969845  1
  O  O8  1  0.63907119  0.47194552  0.86336857  1
  O  O9  1  0.93050752  0.89353251  0.30266913  1
  O  O10  1  0.35140310  0.43559835  0.46646326  1
  O  O11  1  0.73538279  0.58807963  0.37958027  1
  O  O12  1  0.03302264  0.32154814  0.42231521  1
  O  O13  1  0.75250363  0.12439653  0.22969845  1
  O  O14  1  0.64859690  0.56440165  0.53353674  1
  O  O15  1  0.46697736  0.82154814  0.42231521  1
  O  O16  1  0.24749637  0.87560347  0.77030155  1
  O  O17  1  0.14859690  0.93559835  0.46646326  1
  O  O18  1  0.23538279  0.91192037  0.62041973  1
  O  O19  1  0.58868825  0.86706360  0.56060499  1
  O  O20  1  0.53302264  0.17845186  0.57768479  1
  O  O21  1  0.41131175  0.13293640  0.43939501  1
  O  O22  1  0.36092881  0.52805448  0.13663143  1
  O  O23  1  0.26461721  0.41192037  0.62041973  1
  O  O24  1  0.25250363  0.37560347  0.77030155  1
  O  O25  1  0.85140310  0.06440165  0.53353674  1
  O  O26  1  0.43050752  0.60646749  0.69733087  1
  O  O27  1  0.61150987  0.78604719  0.83029270  1
  O  O28  1  0.13907119  0.02805448  0.13663143  1
  O  O29  1  0.91131175  0.36706360  0.56060499  1
  O  O30  1  0.86092881  0.97194552  0.86336857  1
  O  O31  1  0.76461721  0.08807963  0.37958027  1
  O  O32  1  0.96697736  0.67845186  0.57768479  1
  O  O33  1  0.48207810  0.91232933  0.15275057  1
  O  O34  1  0.06949248  0.10646749  0.69733087  1
  O  O35  1  0.56949248  0.39353251  0.30266913  1
  F  F0  1  0.29129125  0.34452608  0.91542021  1
  F  F1  1  0.50318381  0.34926768  0.03657691  1
  F  F2  1  0.20870875  0.84452608  0.91542021  1
  F  F3  1  0.70870875  0.65547392  0.08457979  1
  F  F4  1  0.00318381  0.15073232  0.96342309  1
  F  F5  1  0.99681619  0.84926768  0.03657691  1
  F  F6  1  0.85059096  0.41965201  0.00220366  1
  F  F7  1  0.64940904  0.91965201  0.00220366  1
  F  F8  1  0.79129125  0.15547392  0.08457979  1
  F  F9  1  0.14940904  0.58034799  0.99779634  1
  F  F10  1  0.49681619  0.65073232  0.96342309  1
  F  F11  1  0.35059096  0.08034799  0.99779634  1
loop_
_geom_bond_atom_site_label_1
_geom_bond_atom_site_label_2
_geom_bond_distance
_geom_bond_site_symmetry_2
La0 O5 2.453306 1_555
La0 O2 2.506374 1_655
La0 O13 2.512982 1_555
La0 O22 2.521267 1_555
La0 O7 2.668664 1_555
La0 O35 2.808891 1_555
La1 O6 2.513045 1_555
La1 O8 2.660696 1_555
La1 O4 2.747712 1_555
La1 O30 3.014947 1_545
La2 O0 2.513045 1_555
La2 O30 2.660696 1_555
La2 O27 2.747712 1_555
La2 O8 3.014947 1_555
La3 O4 2.453306 1_455
La3 O6 2.506374 1_555
La3 O24 2.512982 1_555
La3 O30 2.521267 1_445
La3 O16 2.668664 1_545
La3 O34 2.808891 1_555
La4 O1 2.453306 1_655
La4 O33 2.506374 1_555
La4 O7 2.512982 1_555
La4 O28 2.521267 1_665
La4 O13 2.668664 1_565
La4 O9 2.808891 1_555
La5 O29 2.478584 1_455
La5 O23 2.505854 1_555
La5 O18 2.550431 1_545
La5 O20 2.571995 1_555
La5 O25 2.592279 1_455
La5 O12 2.660650 1_555
La5 O21 2.667957 1_555
La5 O10 2.730383 1_555
La5 O17 2.753836 1_545
La5 O34 2.801498 1_555
La6 O21 2.478584 1_555
La6 O31 2.505854 1_555
La6 O11 2.550431 1_555
La6 O12 2.571995 1_655
La6 O10 2.592279 1_555
La6 O20 2.660650 1_555
La6 O29 2.667957 1_555
La6 O25 2.730383 1_555
La6 O14 2.753836 1_555
La6 O35 2.801498 1_555
La7 O19 2.478584 1_555
La7 O18 2.505854 1_555
La7 O23 2.550431 1_555
La7 O32 2.571995 1_455
La7 O14 2.592279 1_555
La7 O15 2.660650 1_555
La7 O3 2.667957 1_555
La7 O17 2.730383 1_555
La7 O10 2.753836 1_555
La7 O26 2.801498 1_555
La8 O2 2.513045 1_555
La8 O28 2.660696 1_555
La8 O5 2.747712 1_555
La8 O22 3.014947 1_555
La9 O27 2.453306 1_555
La9 O0 2.506374 1_455
La9 O16 2.512982 1_555
La9 O8 2.521267 1_555
La9 O24 2.668664 1_555
La9 O26 2.808891 1_555
La10 O33 2.513045 1_555
La10 O22 2.660696 1_555
La10 O1 2.747712 1_555
La10 O28 3.014947 1_565
La11 O3 2.478584 1_655
La11 O11 2.505854 1_555
La11 O31 2.550431 1_565
La11 O15 2.571995 1_555
La11 O17 2.592279 1_655
La11 O32 2.660650 1_555
La11 O19 2.667957 1_555
La11 O14 2.730383 1_555
La11 O25 2.753836 1_565
La11 O9 2.801498 1_555
O0 Se2 1.721063 1_555
O1 Se8 1.685559 1_555
O2 Se8 1.721063 1_555
O3 Se3 1.691014 1_555
O4 Se2 1.685559 1_555
O5 Se11 1.685559 1_555
O6 Se5 1.721063 1_545
O7 Se9 1.703344 1_555
O8 Se2 1.718379 1_555
O9 Se0 1.702018 1_565
O10 Se3 1.730558 1_555
O11 Se9 1.711380 1_555
O12 Se3 1.709040 1_555
O13 Se0 1.703344 1_555
O14 Se10 1.730558 1_555
O15 Se6 1.709040 1_555
O16 Se7 1.703344 1_555
O17 Se6 1.730558 1_555
O18 Se7 1.711380 1_555
O19 Se1 1.691014 1_565
O20 Se1 1.709040 1_555
O21 Se6 1.691014 1_545
O22 Se8 1.718379 1_555
O23 Se4 1.711380 1_555
O24 Se4 1.703344 1_555
O25 Se1 1.730558 1_555
O26 Se4 1.702018 1_555
O27 Se5 1.685559 1_555
O28 Se11 1.718379 1_555
O29 Se10 1.691014 1_555
O30 Se5 1.718379 1_555
O31 Se0 1.711380 1_555
O32 Se10 1.709040 1_555
O33 Se11 1.721063 1_565
O34 Se7 1.702018 1_545
O35 Se9 1.702018 1_555
F0 La8 2.507341 1_556
F0 La9 2.512075 1_555
F0 La3 2.568106 1_555
F0 La1 3.016140 1_555
F1 La1 2.387430 1_554
F1 La8 2.412447 1_555
F1 La0 2.471371 1_555
F2 La10 2.507341 1_556
F2 La3 2.512075 1_565
F2 La9 2.568106 1_555
F2 La2 3.016140 1_455
F3 La2 2.507341 1_554
F3 La0 2.512075 1_555
F3 La4 2.568106 1_555
F3 La10 3.016140 1_555
F4 La8 2.387430 1_556
F4 La1 2.412447 1_455
F4 La3 2.471371 1_555
F5 La2 2.387430 1_554
F5 La10 2.412447 1_655
F5 La4 2.471371 1_555
F6 La2 2.451111 1_554
F6 La1 2.491490 1_554
F6 La8 2.595027 1_655
F6 La0 3.016792 1_555
F7 La1 2.451111 1_564
F7 La2 2.491490 1_554
F7 La10 2.595027 1_555
F7 La4 3.016792 1_555
F8 La1 2.507341 1_554
F8 La4 2.512075 1_545
F8 La0 2.568106 1_555
F8 La8 3.016140 1_655
F9 La8 2.451111 1_556
F9 La10 2.491490 1_556
F9 La2 2.595027 1_455
F9 La9 3.016792 1_555
F10 La10 2.387430 1_556
F10 La2 2.412447 1_555
F10 La9 2.471371 1_555
F11 La10 2.451111 1_546
F11 La8 2.491490 1_556
F11 La1 2.595027 1_555
F11 La3 3.016792 1_555
