# generated using pymatgen
data_Fe2Cu(P2O7)2
_symmetry_space_group_name_H-M   'P 1'
_cell_length_a   5.25675700
_cell_length_b   6.70243200
_cell_length_c   17.00197646
_cell_angle_alpha   68.96678864
_cell_angle_beta   90.00000000
_cell_angle_gamma   90.00000000
_symmetry_Int_Tables_number   1
_chemical_formula_structural   Fe2Cu(P2O7)2
_chemical_formula_sum   'Fe4 Cu2 P8 O28'
_cell_volume   559.11964243
_cell_formula_units_Z   2
loop_
 _symmetry_equiv_pos_site_id
 _symmetry_equiv_pos_as_xyz
  1  'x, y, z'
loop_
 _atom_site_type_symbol
 _atom_site_label
 _atom_site_symmetry_multiplicity
 _atom_site_fract_x
 _atom_site_fract_y
 _atom_site_fract_z
 _atom_site_occupancy
  Fe  Fe0  1  0.75193500  0.78296400  0.88013800  1
  Fe  Fe1  1  0.25193500  0.21703600  0.61986200  1
  Fe  Fe2  1  0.24806500  0.21703600  0.11986200  1
  Fe  Fe3  1  0.74806500  0.78296400  0.38013800  1
  Cu  Cu0  1  0.00000000  0.00000000  0.00000000  1
  Cu  Cu1  1  0.50000000  0.00000000  0.50000000  1
  P  P0  1  0.74719200  0.88569300  0.16805400  1
  P  P1  1  0.24719200  0.11430700  0.33194600  1
  P  P2  1  0.25280800  0.11430700  0.83194600  1
  P  P3  1  0.75280800  0.88569300  0.66805400  1
  P  P4  1  0.73003100  0.55085500  0.09432600  1
  P  P5  1  0.23003100  0.44914500  0.40567400  1
  P  P6  1  0.26996900  0.44914500  0.90567400  1
  P  P7  1  0.76996900  0.55085500  0.59432600  1
  O  O0  1  0.46233100  0.47198300  0.08847200  1
  O  O1  1  0.96233100  0.52801700  0.41152800  1
  O  O2  1  0.53766900  0.52801700  0.91152800  1
  O  O3  1  0.03766900  0.47198300  0.58847200  1
  O  O4  1  0.93252500  0.38011600  0.11747400  1
  O  O5  1  0.43252500  0.61988400  0.38252600  1
  O  O6  1  0.06747500  0.61988400  0.88252600  1
  O  O7  1  0.56747500  0.38011600  0.61747400  1
  O  O8  1  0.77742800  0.86964000  0.25804000  1
  O  O9  1  0.27742800  0.13036000  0.24196000  1
  O  O10  1  0.22257200  0.13036000  0.74196000  1
  O  O11  1  0.72257200  0.86964000  0.75804000  1
  O  O12  1  0.52333700  0.01392900  0.11961700  1
  O  O13  1  0.02333700  0.98607100  0.38038300  1
  O  O14  1  0.70385400  0.74386500  0.51192300  1
  O  O15  1  0.20385400  0.25613500  0.98807700  1
  O  O16  1  0.29614600  0.25613500  0.48807700  1
  O  O17  1  0.79614600  0.74386500  0.01192300  1
  O  O18  1  0.77766800  0.64468100  0.66957700  1
  O  O19  1  0.27766800  0.35531900  0.83042300  1
  O  O20  1  0.22233200  0.35531900  0.33042300  1
  O  O21  1  0.72233200  0.64468100  0.16957700  1
  O  O22  1  0.49859600  0.96759500  0.61822700  1
  O  O23  1  0.99859600  0.03240500  0.88177300  1
  O  O24  1  0.50140400  0.03240500  0.38177300  1
  O  O25  1  0.00140400  0.96759500  0.11822700  1
  O  O26  1  0.97666300  0.01392900  0.61961700  1
  O  O27  1  0.47666300  0.98607100  0.88038300  1
loop_
_geom_bond_atom_site_label_1
_geom_bond_atom_site_label_2
_geom_bond_distance
_geom_bond_site_symmetry_2
Fe0 O11 1.950650 1_555
Fe0 O2 1.954159 1_555
Fe0 O6 1.978852 1_655
Fe0 O27 1.987756 1_555
Fe0 O23 2.123799 1_565
Fe0 O17 2.172906 1_556
Fe1 O10 1.950650 1_555
Fe1 O3 1.954159 1_555
Fe1 O7 1.978852 1_555
Fe1 O26 1.987756 1_455
Fe1 O22 2.123799 1_545
Fe1 O16 2.172906 1_555
Fe2 O9 1.950650 1_555
Fe2 O0 1.954159 1_555
Fe2 O4 1.978852 1_455
Fe2 O12 1.987756 1_555
Fe2 O25 2.123799 1_545
Fe2 O15 2.172906 1_554
Fe3 O8 1.950650 1_555
Fe3 O1 1.954159 1_555
Fe3 O5 1.978852 1_555
Fe3 O13 1.987756 1_655
Fe3 O24 2.123799 1_565
Fe3 O14 2.172906 1_555
Cu0 O23 1.942760 1_454
Cu0 O25 1.942760 1_545
Cu0 O17 1.971495 1_445
Cu0 O15 1.971495 1_554
Cu1 O22 1.942760 1_545
Cu1 O24 1.942760 1_555
Cu1 O14 1.971495 1_545
Cu1 O16 1.971495 1_555
O0 P4 1.519024 1_555
O1 P5 1.519024 1_655
O2 P6 1.519024 1_555
O3 P7 1.519024 1_455
O4 P4 1.508063 1_555
O5 P5 1.508063 1_555
O6 P6 1.508063 1_555
O7 P7 1.508063 1_555
O8 P0 1.503128 1_555
O9 P1 1.503128 1_555
O10 P2 1.503128 1_555
O11 P3 1.503128 1_555
O12 P0 1.514458 1_545
O13 P1 1.514458 1_565
O14 P7 1.567211 1_555
O15 P6 1.567211 1_555
O16 P5 1.567211 1_555
O17 P4 1.567211 1_555
O18 P3 1.611562 1_555
O18 P7 1.616029 1_555
O19 P2 1.611562 1_555
O19 P6 1.616029 1_555
O20 P1 1.611562 1_555
O20 P5 1.616029 1_555
O21 P0 1.611562 1_555
O21 P4 1.616029 1_555
O22 P3 1.571935 1_555
O23 P2 1.571935 1_655
O24 P1 1.571935 1_555
O25 P0 1.571935 1_455
O26 P3 1.514458 1_545
O27 P2 1.514458 1_565
