# generated using pymatgen
data_Np2Si4Tc3
_symmetry_space_group_name_H-M   'P 1'
_cell_length_a   8.09995615
_cell_length_b   5.64196470
_cell_length_c   6.80698838
_cell_angle_alpha   76.41346858
_cell_angle_beta   89.99931691
_cell_angle_gamma   90.00011465
_symmetry_Int_Tables_number   1
_chemical_formula_structural   Np2Si4Tc3
_chemical_formula_sum   'Np4 Si8 Tc6'
_cell_volume   302.37199571
_cell_formula_units_Z   2
loop_
 _symmetry_equiv_pos_site_id
 _symmetry_equiv_pos_as_xyz
  1  'x, y, z'
loop_
 _atom_site_type_symbol
 _atom_site_label
 _atom_site_symmetry_multiplicity
 _atom_site_fract_x
 _atom_site_fract_y
 _atom_site_fract_z
 _atom_site_occupancy
  Np  Np0  1  0.93643807  0.57424158  0.25206090  1
  Np  Np1  1  0.43648454  0.92575982  0.74796186  1
  Np  Np2  1  0.06354331  0.42575577  0.74794080  1
  Np  Np3  1  0.56353022  0.07425017  0.25203952  1
  Si  Si0  1  0.59088771  0.61627308  0.11999780  1
  Si  Si1  1  0.09090118  0.88370450  0.87999704  1
  Si  Si2  1  0.40910617  0.38371789  0.87999768  1
  Si  Si3  1  0.90910795  0.11627392  0.12000637  1
  Si  Si4  1  0.75173936  0.72214323  0.58431020  1
  Si  Si5  1  0.25174991  0.77787361  0.41568409  1
  Si  Si6  1  0.24826393  0.27786240  0.41567364  1
  Si  Si7  1  0.74824462  0.22213547  0.58429172  1
  Tc  Tc0  1  0.29251357  0.61345454  0.11444421  1
  Tc  Tc1  1  0.79247121  0.88656010  0.88558331  1
  Tc  Tc2  1  0.70749498  0.38652501  0.88561281  1
  Tc  Tc3  1  0.20752495  0.11344546  0.11446104  1
  Tc  Tc4  1  0.50000394  0.50001402  0.49996714  1
  Tc  Tc5  1  -0.00000564  0.00000943  0.49996988  1
loop_
_geom_bond_atom_site_label_1
_geom_bond_atom_site_label_2
_geom_bond_distance
_geom_bond_site_symmetry_2
Np0 Si0 2.932292 1_555
Np0 Tc1 2.936448 1_554
Np0 Si3 2.936742 1_555
Np0 Si3 2.986242 1_565
Np0 Si4 2.989313 1_555
Np0 Si1 2.991725 1_654
Np0 Tc0 3.024501 1_655
Np0 Si7 3.045263 1_555
Np0 Si6 3.088873 1_655
Np0 Si5 3.112021 1_655
Np0 Tc5 3.284461 1_665
Np0 Tc5 3.322710 1_655
Np1 Si1 2.932472 1_555
Np1 Tc0 2.936428 1_556
Np1 Si2 2.936654 1_565
Np1 Si2 2.986313 1_555
Np1 Si5 2.989603 1_555
Np1 Si0 2.991467 1_556
Np1 Tc1 3.023846 1_555
Np1 Si6 3.045625 1_565
Np1 Si7 3.088493 1_565
Np1 Si4 3.111670 1_555
Np1 Tc4 3.284703 1_555
Np1 Tc4 3.322924 1_565
Np2 Si2 2.932377 1_555
Np2 Si1 2.936663 1_555
Np2 Tc3 2.936683 1_556
Np2 Si1 2.986362 1_545
Np2 Si6 2.989480 1_555
Np2 Si3 2.991680 1_456
Np2 Tc2 3.024401 1_455
Np2 Si5 3.045452 1_555
Np2 Si4 3.088778 1_455
Np2 Si7 3.111982 1_455
Np2 Tc5 3.284637 1_555
Np2 Tc5 3.322922 1_565
Np3 Si3 2.932423 1_555
Np3 Tc2 2.936071 1_554
Np3 Si0 2.936764 1_545
Np3 Si0 2.986200 1_555
Np3 Si7 2.989376 1_555
Np3 Si2 2.991524 1_554
Np3 Tc3 3.023905 1_555
Np3 Si4 3.045520 1_545
Np3 Si5 3.088588 1_545
Np3 Si6 3.111682 1_555
Np3 Tc4 3.284485 1_555
Np3 Tc4 3.322718 1_545
Si0 Tc0 2.417224 1_555
Si0 Tc2 2.467673 1_554
Si0 Tc1 2.528712 1_554
Si0 Tc4 2.620067 1_555
Si0 Si2 2.750560 1_554
Si1 Tc1 2.417682 1_455
Si1 Tc3 2.468123 1_566
Si1 Tc0 2.528905 1_556
Si1 Tc5 2.620508 1_565
Si1 Si3 2.750686 1_466
Si2 Tc2 2.417350 1_555
Si2 Tc0 2.467906 1_556
Si2 Tc3 2.528825 1_556
Si2 Tc4 2.620490 1_555
Si3 Tc3 2.417570 1_655
Si3 Tc1 2.467845 1_544
Si3 Tc2 2.528733 1_554
Si3 Tc5 2.620055 1_655
Si4 Tc1 2.463489 1_555
Si4 Tc2 2.468960 1_555
Si4 Tc4 2.529034 1_555
Si4 Tc5 2.531393 1_665
Si4 Si7 2.821051 1_565
Si4 Si7 2.821198 1_555
Si5 Tc0 2.463316 1_555
Si5 Tc3 2.468444 1_565
Si5 Tc5 2.529045 1_565
Si5 Tc4 2.531350 1_555
Si5 Si6 2.821044 1_565
Si5 Si6 2.821204 1_555
Si6 Tc3 2.463118 1_555
Si6 Tc0 2.468558 1_555
Si6 Tc4 2.529018 1_555
Si6 Tc5 2.531420 1_555
Si7 Tc2 2.463715 1_555
Si7 Tc1 2.468760 1_545
Si7 Tc5 2.529061 1_655
Si7 Tc4 2.531348 1_555
