# generated using pymatgen
data_K11LiMn4O16
_symmetry_space_group_name_H-M   'P 1'
_cell_length_a   7.96443211
_cell_length_b   7.96443008
_cell_length_c   10.53017879
_cell_angle_alpha   112.22127134
_cell_angle_beta   112.22137229
_cell_angle_gamma   89.99818872
_symmetry_Int_Tables_number   1
_chemical_formula_structural   K11LiMn4O16
_chemical_formula_sum   'K11 Li1 Mn4 O16'
_cell_volume   564.39407080
_cell_formula_units_Z   1
loop_
 _symmetry_equiv_pos_site_id
 _symmetry_equiv_pos_as_xyz
  1  'x, y, z'
loop_
 _atom_site_type_symbol
 _atom_site_label
 _atom_site_symmetry_multiplicity
 _atom_site_fract_x
 _atom_site_fract_y
 _atom_site_fract_z
 _atom_site_occupancy
  K  K0  1  0.29147600  0.29147700  0.58295900  1
  K  K1  1  0.50000000  0.00000000  0.00000000  1
  K  K2  1  0.24999900  0.75000100  0.50000100  1
  K  K3  1  0.92769400  0.92769500  0.24435000  1
  K  K4  1  0.07230500  0.68334700  0.75564300  1
  K  K5  1  0.70852300  0.70852300  0.41704200  1
  K  K6  1  0.00000000  0.50000100  0.00000100  1
  K  K7  1  0.68334600  0.07230500  0.75564300  1
  K  K8  1  0.31665400  0.31665700  0.24435600  1
  K  K9  1  0.75000000  0.25000000  0.50000100  1
  K  K10  1  0.50000100  0.50000100  0.00000000  1
  Li  Li0  1  0.00000000  0.00000000  0.00000100  1
  Mn  Mn0  1  0.86698100  0.38005100  0.24703200  1
  Mn  Mn1  1  0.13302400  0.13302300  0.75296800  1
  Mn  Mn2  1  0.61994700  0.61994800  0.75297200  1
  Mn  Mn3  1  0.38005600  0.86697500  0.24703100  1
  O  O0  1  0.41109600  0.01481800  0.42591000  1
  O  O1  1  0.79740300  0.79740300  0.88641300  1
  O  O2  1  0.64522500  0.33480300  0.22735400  1
  O  O3  1  0.33480400  0.64522300  0.22735500  1
  O  O4  1  0.01481700  0.41109500  0.42590900  1
  O  O5  1  0.58213600  0.89255200  0.22735500  1
  O  O6  1  0.35477600  0.10744600  0.77264500  1
  O  O7  1  0.20259600  0.91099300  0.11358700  1
  O  O8  1  0.58890200  0.58890200  0.57409100  1
  O  O9  1  0.08900500  0.08900400  0.88641000  1
  O  O10  1  0.66519700  0.41786500  0.77264600  1
  O  O11  1  0.98518300  0.98518400  0.57409300  1
  O  O12  1  0.89255200  0.58213700  0.22735700  1
  O  O13  1  0.91099300  0.20259600  0.11358600  1
  O  O14  1  0.10744500  0.35477600  0.77264500  1
  O  O15  1  0.41786300  0.66519700  0.77264600  1
loop_
_geom_bond_atom_site_label_1
_geom_bond_atom_site_label_2
_geom_bond_distance
_geom_bond_site_symmetry_2
K0 O4 2.633063 1_555
K0 O0 2.633071 1_555
K0 O6 2.800861 1_555
K0 O14 2.800864 1_555
K0 O15 2.800879 1_555
K0 O10 2.800884 1_555
K1 O15 2.693852 1_544
K1 O6 2.693852 1_554
K1 O2 2.693867 1_555
K1 O5 2.693870 1_545
K1 O1 3.213658 1_544
K1 O9 3.213674 1_554
K1 O7 3.213722 1_545
K1 O13 3.213738 1_555
K2 O8 2.950351 1_555
K2 O11 2.950353 1_455
K2 O4 2.950414 1_555
K2 O0 2.950459 1_565
K2 O6 3.008240 1_565
K2 O12 3.008253 1_455
K2 O15 3.008263 1_555
K2 O3 3.008292 1_555
K3 O5 2.697119 1_555
K3 O12 2.697126 1_555
K3 O13 2.974738 1_565
K3 O7 2.974739 1_655
K3 O11 3.173458 1_555
K3 O1 3.231632 1_554
K4 O15 2.697082 1_555
K4 O14 2.697196 1_555
K4 O9 2.974658 1_565
K4 O1 2.974757 1_455
K4 O4 3.173365 1_555
K4 O7 3.231691 1_556
K5 O11 2.633093 1_555
K5 O8 2.633190 1_555
K5 O12 2.800830 1_555
K5 O5 2.800844 1_555
K5 O3 2.800858 1_555
K5 O2 2.800871 1_555
K6 O10 2.693854 1_454
K6 O14 2.693859 1_554
K6 O3 2.693868 1_555
K6 O12 2.693882 1_455
K6 O1 3.213653 1_454
K6 O9 3.213693 1_554
K6 O13 3.213712 1_455
K6 O7 3.213731 1_555
K7 O10 2.697097 1_555
K7 O6 2.697190 1_555
K7 O9 2.974672 1_655
K7 O1 2.974756 1_545
K7 O0 3.173352 1_555
K7 O13 3.231681 1_556
K8 O3 2.697173 1_555
K8 O2 2.697216 1_555
K8 O13 2.974699 1_455
K8 O7 2.974719 1_545
K8 O8 3.173371 1_555
K8 O9 3.231710 1_554
K9 O8 2.950341 1_555
K9 O11 2.950351 1_545
K9 O0 2.950405 1_555
K9 O4 2.950459 1_655
K9 O14 3.008238 1_655
K9 O10 3.008262 1_555
K9 O5 3.008269 1_545
K9 O2 3.008292 1_555
K10 O5 3.014697 1_555
K10 O12 3.014700 1_555
K10 O15 3.014700 1_554
K10 O10 3.014704 1_554
K10 O2 3.014705 1_555
K10 O3 3.014709 1_555
K10 O6 3.014734 1_554
K10 O14 3.014738 1_554
Li0 O13 1.928261 1_455
Li0 O7 1.928264 1_545
Li0 O9 1.928320 1_554
Li0 O1 1.928330 1_444
Mn0 O2 1.720139 1_555
Mn0 O12 1.720187 1_555
Mn0 O13 1.722020 1_555
Mn0 O4 1.722126 1_655
Mn1 O6 1.720102 1_555
Mn1 O14 1.720112 1_555
Mn1 O9 1.722078 1_555
Mn1 O11 1.722144 1_445
Mn2 O10 1.720147 1_555
Mn2 O15 1.720154 1_555
Mn2 O1 1.722026 1_555
Mn2 O8 1.722165 1_555
Mn3 O3 1.720120 1_555
Mn3 O5 1.720154 1_555
Mn3 O7 1.722050 1_555
Mn3 O0 1.722168 1_565
