# generated using pymatgen
data_Ce5Pb3O
_symmetry_space_group_name_H-M   'P 1'
_cell_length_a   9.46905496
_cell_length_b   9.46886420
_cell_length_c   9.46867094
_cell_angle_alpha   125.27039551
_cell_angle_beta   125.27105673
_cell_angle_gamma   81.09497795
_symmetry_Int_Tables_number   1
_chemical_formula_structural   Ce5Pb3O
_chemical_formula_sum   'Ce10 Pb6 O2'
_cell_volume   545.19161515
_cell_formula_units_Z   2
loop_
 _symmetry_equiv_pos_site_id
 _symmetry_equiv_pos_as_xyz
  1  'x, y, z'
loop_
 _atom_site_type_symbol
 _atom_site_label
 _atom_site_symmetry_multiplicity
 _atom_site_fract_x
 _atom_site_fract_y
 _atom_site_fract_z
 _atom_site_occupancy
  Ce  Ce0  1  0.00008545  0.19879713  0.49994970  1
  Ce  Ce1  1  0.80128271  0.30133266  0.80169576  1
  Ce  Ce2  1  0.50030027  0.00034629  0.80164389  1
  Ce  Ce3  1  0.49971803  -0.00036018  0.19836249  1
  Ce  Ce4  1  -0.00011616  0.80120419  0.50000057  1
  Ce  Ce5  1  0.49998266  0.49998212  0.99999742  1
  Ce  Ce6  1  0.19871243  0.69869922  0.19831645  1
  Ce  Ce7  1  0.69875162  0.50003216  0.49988556  1
  Ce  Ce8  1  0.30123616  0.49996964  0.50011891  1
  Ce  Ce9  1  0.00003419  0.00001585  0.00000940  1
  Pb  Pb0  1  0.85200479  0.35203043  0.20399521  1
  Pb  Pb1  1  0.14799228  0.64794094  0.79597448  1
  Pb  Pb2  1  0.35205177  0.14802525  0.50006677  1
  Pb  Pb3  1  0.74993350  0.74998468  0.00000250  1
  Pb  Pb4  1  0.64794638  0.85195826  0.49995415  1
  Pb  Pb5  1  0.25008510  0.25002893  0.00001514  1
  O  O0  1  0.75000541  0.24999623  0.50002406  1
  O  O1  1  0.24999339  0.75001721  0.49998754  1
loop_
_geom_bond_atom_site_label_1
_geom_bond_atom_site_label_2
_geom_bond_distance
_geom_bond_site_symmetry_2
Ce0 O0 2.342791 1_455
Ce0 Pb2 3.292249 1_555
Ce0 Pb1 3.383579 1_555
Ce0 Pb0 3.384093 1_455
Ce0 Pb3 3.607449 1_445
Ce0 Pb5 3.607889 1_556
Ce1 O0 2.344997 1_555
Ce1 Pb0 3.289084 1_556
Ce1 Pb2 3.384070 1_555
Ce1 Pb4 3.385059 1_545
Ce1 Pb3 3.607244 1_556
Ce1 Pb5 3.608392 1_656
Ce2 O1 2.344466 1_545
Ce2 Pb0 3.289910 1_556
Ce2 Pb2 3.384430 1_555
Ce2 Pb4 3.384939 1_545
Ce2 Pb5 3.606669 1_556
Ce2 Pb3 3.607624 1_546
Ce3 O0 2.344503 1_555
Ce3 Pb1 3.290077 1_544
Ce3 Pb4 3.384593 1_545
Ce3 Pb2 3.385217 1_555
Ce3 Pb3 3.606550 1_545
Ce3 Pb5 3.607791 1_555
Ce4 O1 2.342789 1_555
Ce4 Pb4 3.292315 1_455
Ce4 Pb0 3.383809 1_455
Ce4 Pb1 3.384452 1_555
Ce4 Pb3 3.607442 1_455
Ce4 Pb5 3.607709 1_566
Ce5 Pb2 3.323391 1_555
Ce5 Pb4 3.323508 1_556
Ce5 Pb1 3.323796 1_555
Ce5 Pb0 3.323878 1_556
Ce5 Pb5 3.596631 1_556
Ce5 Pb3 3.597205 1_556
Ce6 O1 2.345057 1_555
Ce6 Pb1 3.289205 1_554
Ce6 Pb4 3.384021 1_555
Ce6 Pb2 3.384670 1_565
Ce6 Pb5 3.607452 1_555
Ce6 Pb3 3.608162 1_455
Ce7 O0 2.342644 1_555
Ce7 Pb4 3.292032 1_555
Ce7 Pb0 3.383892 1_555
Ce7 Pb1 3.384318 1_655
Ce7 Pb5 3.606447 1_555
Ce7 Pb3 3.608612 1_556
Ce8 O1 2.342715 1_555
Ce8 Pb2 3.292280 1_555
Ce8 Pb1 3.383580 1_555
Ce8 Pb0 3.384236 1_455
Ce8 Pb3 3.606640 1_556
Ce8 Pb5 3.608666 1_555
Ce9 Pb2 3.324069 1_555
Ce9 Pb4 3.324109 1_444
Ce9 Pb0 3.324252 1_455
Ce9 Pb1 3.324304 1_544
Ce9 Pb5 3.597996 1_555
Ce9 Pb3 3.598476 1_445
