# generated using pymatgen
data_K3Nd3(PS4)4
_symmetry_space_group_name_H-M   'P 1'
_cell_length_a   10.11134837
_cell_length_b   10.11134837
_cell_length_c   15.03599541
_cell_angle_alpha   89.34222185
_cell_angle_beta   89.34222185
_cell_angle_gamma   71.81675923
_symmetry_Int_Tables_number   1
_chemical_formula_structural   K3Nd3(PS4)4
_chemical_formula_sum   'K6 Nd6 P8 S32'
_cell_volume   1460.35780760
_cell_formula_units_Z   2
loop_
 _symmetry_equiv_pos_site_id
 _symmetry_equiv_pos_as_xyz
  1  'x, y, z'
loop_
 _atom_site_type_symbol
 _atom_site_label
 _atom_site_symmetry_multiplicity
 _atom_site_fract_x
 _atom_site_fract_y
 _atom_site_fract_z
 _atom_site_occupancy
  K  K0  1  0.97083900  0.60830500  0.33769800  1
  K  K1  1  0.00000000  0.00000000  0.00000000  1
  K  K2  1  0.60830500  0.97083900  0.83769800  1
  K  K3  1  0.02916100  0.39169500  0.66230200  1
  K  K4  1  0.39169500  0.02916100  0.16230200  1
  K  K5  1  0.00000000  0.00000000  0.50000000  1
  Nd  Nd0  1  0.74870500  0.25129500  0.25000000  1
  Nd  Nd1  1  0.25129500  0.74870500  0.75000000  1
  Nd  Nd2  1  0.51269500  0.74805700  0.48781000  1
  Nd  Nd3  1  0.48730500  0.25194300  0.51219000  1
  Nd  Nd4  1  0.25194300  0.48730500  0.01219000  1
  Nd  Nd5  1  0.74805700  0.51269500  0.98781000  1
  P  P0  1  0.03712600  0.33207300  0.13958500  1
  P  P1  1  0.76548200  0.39726200  0.47556400  1
  P  P2  1  0.33207300  0.03712600  0.63958500  1
  P  P3  1  0.96287400  0.66792700  0.86041500  1
  P  P4  1  0.23451800  0.60273800  0.52443600  1
  P  P5  1  0.60273800  0.23451800  0.02443600  1
  P  P6  1  0.66792700  0.96287400  0.36041500  1
  P  P7  1  0.39726200  0.76548200  0.97556400  1
  S  S0  1  0.45372700  0.58579600  0.89790800  1
  S  S1  1  0.60033800  0.80731700  0.31297800  1
  S  S2  1  0.25464100  0.72849100  0.42044600  1
  S  S3  1  0.20920100  0.42393700  0.47632200  1
  S  S4  1  0.41420400  0.54627300  0.60209200  1
  S  S5  1  0.29530300  0.92513500  0.89327900  1
  S  S6  1  0.15561700  0.52572300  0.82867500  1
  S  S7  1  0.05274100  0.31940000  0.00314100  1
  S  S8  1  0.84438300  0.47427700  0.17132500  1
  S  S9  1  0.47427700  0.84438300  0.67132500  1
  S  S10  1  0.80731700  0.60033800  0.81297800  1
  S  S11  1  0.04091800  0.14488100  0.19388000  1
  S  S12  1  0.95908200  0.85511900  0.80612000  1
  S  S13  1  0.68060000  0.94725900  0.49685900  1
  S  S14  1  0.52572300  0.15561700  0.32867500  1
  S  S15  1  0.79079900  0.57606300  0.52367800  1
  S  S16  1  0.54627300  0.41420400  0.10209200  1
  S  S17  1  0.42393700  0.20920100  0.97632200  1
  S  S18  1  0.07486500  0.70469700  0.60672100  1
  S  S19  1  0.19268300  0.39966200  0.18702200  1
  S  S20  1  0.94725900  0.68059900  0.99685900  1
  S  S21  1  0.70469700  0.07486500  0.10672100  1
  S  S22  1  0.92513500  0.29530300  0.39327900  1
  S  S23  1  0.14488100  0.04091800  0.69388000  1
  S  S24  1  0.74535900  0.27150900  0.57955400  1
  S  S25  1  0.58579600  0.45372700  0.39790800  1
  S  S26  1  0.39966200  0.19268300  0.68702200  1
  S  S27  1  0.27150900  0.74535900  0.07955400  1
  S  S28  1  0.72849100  0.25464100  0.92044600  1
  S  S29  1  0.31940000  0.05274100  0.50314100  1
  S  S30  1  0.85511900  0.95908200  0.30612000  1
  S  S31  1  0.57606300  0.79079900  0.02367800  1
loop_
_geom_bond_atom_site_label_1
_geom_bond_atom_site_label_2
_geom_bond_distance
_geom_bond_site_symmetry_2
K0 S3 3.294028 1_655
K0 S8 3.310918 1_555
K0 S15 3.387140 1_555
K0 S30 3.399778 1_555
K0 S19 3.413901 1_655
K0 S22 3.430980 1_555
K0 S1 3.678562 1_555
K0 S2 3.681403 1_655
K1 S21 3.251279 1_455
K1 S5 3.251279 1_544
K1 S27 3.345166 1_545
K1 S28 3.345166 1_454
K1 S11 3.364450 1_555
K1 S12 3.364450 1_444
K1 S7 3.434484 1_555
K1 S20 3.434494 1_444
K2 S17 3.294028 1_565
K2 S9 3.310918 1_555
K2 S31 3.387140 1_556
K2 S12 3.399778 1_555
K2 S26 3.413901 1_565
K2 S5 3.430980 1_555
K2 S10 3.678562 1_555
K2 S28 3.681403 1_565
K3 S15 3.294028 1_455
K3 S6 3.310918 1_555
K3 S3 3.387140 1_555
K3 S23 3.399778 1_555
K3 S10 3.413901 1_455
K3 S18 3.430980 1_555
K3 S26 3.678562 1_555
K3 S24 3.681403 1_455
K4 S31 3.294028 1_545
K4 S14 3.310918 1_555
K4 S17 3.387140 1_554
K4 S11 3.399778 1_555
K4 S1 3.413901 1_545
K4 S21 3.430980 1_555
K4 S19 3.678562 1_555
K4 S27 3.681403 1_545
K5 S18 3.251279 1_545
K5 S22 3.251279 1_455
K5 S24 3.345166 1_455
K5 S2 3.345166 1_545
K5 S23 3.364450 1_555
K5 S30 3.364450 1_445
K5 S29 3.434484 1_555
K5 S13 3.434484 1_445
Nd0 S11 2.929039 1_655
Nd0 S30 2.929039 1_545
Nd0 S22 2.937234 1_555
Nd0 S21 2.937234 1_555
Nd0 S8 2.948317 1_555
Nd0 S14 2.948317 1_555
Nd0 S16 3.124907 1_555
Nd0 S25 3.124907 1_555
Nd1 S23 2.929039 1_565
Nd1 S12 2.929039 1_455
Nd1 S5 2.937234 1_555
Nd1 S18 2.937234 1_555
Nd1 S9 2.948317 1_555
Nd1 S6 2.948317 1_555
Nd1 S0 3.124907 1_555
Nd1 S4 3.124907 1_555
Nd2 S15 2.860740 1_555
Nd2 S2 2.874169 1_555
Nd2 S1 2.880377 1_555
Nd2 S9 2.917947 1_555
Nd2 S13 3.017230 1_555
Nd2 S4 3.042315 1_555
Nd2 S29 3.100358 1_565
Nd2 S25 3.150738 1_555
Nd3 S3 2.860740 1_555
Nd3 S24 2.874169 1_555
Nd3 S26 2.880377 1_555
Nd3 S14 2.917947 1_555
Nd3 S29 3.017230 1_555
Nd3 S25 3.042315 1_555
Nd3 S13 3.100358 1_545
Nd3 S4 3.150738 1_555
Nd4 S17 2.860740 1_554
Nd4 S27 2.874169 1_555
Nd4 S19 2.880377 1_555
Nd4 S6 2.917947 1_554
Nd4 S7 3.017230 1_555
Nd4 S0 3.042315 1_554
Nd4 S20 3.100355 1_454
Nd4 S16 3.150738 1_555
Nd5 S31 2.860740 1_556
Nd5 S28 2.874169 1_555
Nd5 S10 2.880377 1_555
Nd5 S8 2.917947 1_556
Nd5 S20 3.017222 1_555
Nd5 S16 3.042315 1_556
Nd5 S7 3.100358 1_656
Nd5 S0 3.150738 1_555
P0 S19 2.039025 1_555
P0 S11 2.042167 1_555
P0 S7 2.058219 1_555
P0 S8 2.083001 1_455
P1 S22 2.035762 1_555
P1 S15 2.044651 1_555
P1 S24 2.052203 1_555
P1 S25 2.091972 1_555
P2 S26 2.039025 1_555
P2 S23 2.042167 1_555
P2 S29 2.058219 1_555
P2 S9 2.083001 1_545
P3 S10 2.039025 1_555
P3 S12 2.042167 1_555
P3 S20 2.058219 1_555
P3 S6 2.083001 1_655
P4 S18 2.035762 1_555
P4 S3 2.044651 1_555
P4 S2 2.052203 1_555
P4 S4 2.091972 1_555
P5 S21 2.035762 1_555
P5 S17 2.044651 1_554
P5 S28 2.052203 1_554
P5 S16 2.091972 1_555
P6 S1 2.039025 1_555
P6 S30 2.042167 1_555
P6 S13 2.058219 1_555
P6 S14 2.083001 1_565
P7 S5 2.035762 1_555
P7 S31 2.044651 1_556
P7 S27 2.052203 1_556
P7 S0 2.091972 1_555
