# generated using pymatgen
data_KV2PO8
_symmetry_space_group_name_H-M   'P 1'
_cell_length_a   4.83794600
_cell_length_b   13.94843400
_cell_length_c   20.56934700
_cell_angle_alpha   90.00000000
_cell_angle_beta   90.00000000
_cell_angle_gamma   90.00000000
_symmetry_Int_Tables_number   1
_chemical_formula_structural   KV2PO8
_chemical_formula_sum   'K8 V16 P8 O64'
_cell_volume   1388.05595311
_cell_formula_units_Z   8
loop_
 _symmetry_equiv_pos_site_id
 _symmetry_equiv_pos_as_xyz
  1  'x, y, z'
loop_
 _atom_site_type_symbol
 _atom_site_label
 _atom_site_symmetry_multiplicity
 _atom_site_fract_x
 _atom_site_fract_y
 _atom_site_fract_z
 _atom_site_occupancy
  K  K0  1  0.31428400  0.47006700  0.74954700  1
  K  K1  1  0.81428400  0.02993300  0.24954700  1
  K  K2  1  0.29151300  0.71363100  0.50527100  1
  K  K3  1  0.18571600  0.97006700  0.74954700  1
  K  K4  1  0.20848700  0.21363100  0.50527100  1
  K  K5  1  0.79151300  0.78636900  0.00527100  1
  K  K6  1  0.68571600  0.52993300  0.24954700  1
  K  K7  1  0.70848700  0.28636900  0.00527100  1
  V  V0  1  0.20482200  0.95779600  0.39894400  1
  V  V1  1  0.16438100  0.37277100  0.13406000  1
  V  V2  1  0.79846300  0.28962200  0.35815600  1
  V  V3  1  0.34351200  0.12224800  0.12288500  1
  V  V4  1  0.70153700  0.78962200  0.35815600  1
  V  V5  1  0.70482200  0.54220400  0.89894400  1
  V  V6  1  0.79517800  0.04220400  0.89894400  1
  V  V7  1  0.66438100  0.12722900  0.63406000  1
  V  V8  1  0.29517800  0.45779600  0.39894400  1
  V  V9  1  0.33561900  0.87277100  0.13406000  1
  V  V10  1  0.20153700  0.71037800  0.85815600  1
  V  V11  1  0.29846300  0.21037800  0.85815600  1
  V  V12  1  0.65648800  0.87775200  0.62288500  1
  V  V13  1  0.15648800  0.62224800  0.12288500  1
  V  V14  1  0.83561900  0.62722900  0.63406000  1
  V  V15  1  0.84351200  0.37775200  0.62288500  1
  P  P0  1  0.18831900  0.73626900  0.25880400  1
  P  P1  1  0.30598100  0.98630700  0.99766800  1
  P  P2  1  0.81168100  0.26373100  0.75880400  1
  P  P3  1  0.68831900  0.76373100  0.75880400  1
  P  P4  1  0.31168100  0.23626900  0.25880400  1
  P  P5  1  0.69401900  0.01369300  0.49766800  1
  P  P6  1  0.80598100  0.51369300  0.49766800  1
  P  P7  1  0.19401900  0.48630700  0.99766800  1
  O  O0  1  0.38356200  0.72869300  0.31778200  1
  O  O1  1  0.11597100  0.26916500  0.78170100  1
  O  O2  1  0.81961100  0.61871400  0.12241400  1
  O  O3  1  0.32616300  0.01989100  0.33844500  1
  O  O4  1  0.67383700  0.98010900  0.83844500  1
  O  O5  1  0.73952500  0.75567400  0.60678000  1
  O  O6  1  0.24057600  0.64759300  0.21486000  1
  O  O7  1  0.23952500  0.74432600  0.10678000  1
  O  O8  1  0.74909500  0.41905300  0.53550200  1
  O  O9  1  0.58505600  0.39105500  0.35175400  1
  O  O10  1  0.75863700  0.16862300  0.72133800  1
  O  O11  1  0.39029700  0.01903800  0.47436300  1
  O  O12  1  0.82719200  0.37357700  0.13430700  1
  O  O13  1  0.75603000  0.60266200  0.54166500  1
  O  O14  1  0.68038900  0.11871400  0.12241400  1
  O  O15  1  0.91492300  0.64408300  0.90699500  1
  O  O16  1  0.17383700  0.51989100  0.33844500  1
  O  O17  1  0.38402900  0.76916500  0.78170100  1
  O  O18  1  0.75090500  0.91905300  0.53550200  1
  O  O19  1  0.23993200  0.99399700  0.15022000  1
  O  O20  1  0.32719200  0.12642300  0.63430700  1
  O  O21  1  0.60918800  0.52109000  0.43910900  1
  O  O22  1  0.26047500  0.24432600  0.10678000  1
  O  O23  1  0.41492300  0.85591700  0.40699500  1
  O  O24  1  0.24136300  0.83137700  0.22133800  1
  O  O25  1  0.25603000  0.89733800  0.04166500  1
  O  O26  1  0.75942400  0.35240700  0.71486000  1
  O  O27  1  0.67280800  0.87357700  0.13430700  1
  O  O28  1  0.17844000  0.27500100  0.91752700  1
  O  O29  1  0.67844000  0.22499900  0.41752700  1
  O  O30  1  0.73993200  0.50600300  0.65022000  1
  O  O31  1  0.17280800  0.62642300  0.63430700  1
  O  O32  1  0.74136300  0.66862300  0.72133800  1
  O  O33  1  0.89081200  0.02109000  0.43910900  1
  O  O34  1  0.32156000  0.77500100  0.91752700  1
  O  O35  1  0.61597100  0.23083500  0.28170100  1
  O  O36  1  0.10970300  0.51903800  0.47436300  1
  O  O37  1  0.58507700  0.14408300  0.90699500  1
  O  O38  1  0.08505600  0.10894500  0.85175400  1
  O  O39  1  0.91494400  0.89105500  0.35175400  1
  O  O40  1  0.89029700  0.48096200  0.97436300  1
  O  O41  1  0.25863700  0.33137700  0.22133800  1
  O  O42  1  0.74057600  0.85240700  0.71486000  1
  O  O43  1  0.39081200  0.47891000  0.93910900  1
  O  O44  1  0.41494400  0.60894500  0.85175400  1
  O  O45  1  0.60970300  0.98096200  0.97436300  1
  O  O46  1  0.26006800  0.49399700  0.15022000  1
  O  O47  1  0.82616300  0.48010900  0.83844500  1
  O  O48  1  0.76047500  0.25567400  0.60678000  1
  O  O49  1  0.24909500  0.08094700  0.03550200  1
  O  O50  1  0.76006800  0.00600300  0.65022000  1
  O  O51  1  0.25090500  0.58094700  0.03550200  1
  O  O52  1  0.08507700  0.35591700  0.40699500  1
  O  O53  1  0.88356200  0.77130700  0.81778200  1
  O  O54  1  0.11643800  0.22869300  0.31778200  1
  O  O55  1  0.74397000  0.10266200  0.54166500  1
  O  O56  1  0.25942400  0.14759300  0.21486000  1
  O  O57  1  0.31961100  0.88128600  0.62241400  1
  O  O58  1  0.61643800  0.27130700  0.81778200  1
  O  O59  1  0.88402900  0.73083500  0.28170100  1
  O  O60  1  0.18038900  0.38128600  0.62241400  1
  O  O61  1  0.24397000  0.39733800  0.04166500  1
  O  O62  1  0.10918800  0.97891000  0.93910900  1
  O  O63  1  0.82156000  0.72499900  0.41752700  1
loop_
_geom_bond_atom_site_label_1
_geom_bond_atom_site_label_2
_geom_bond_distance
_geom_bond_site_symmetry_2
K0 O26 2.800062 1_555
K0 O44 2.899901 1_555
K0 O30 2.943813 1_555
K0 O60 2.965061 1_555
K0 O47 2.989983 1_455
K0 O1 3.034904 1_555
K0 O47 3.081570 1_555
K0 O26 3.226209 1_455
K0 O31 3.292984 1_555
K1 O56 2.800062 1_655
K1 O39 2.899901 1_545
K1 O19 2.943813 1_645
K1 O14 2.965061 1_555
K1 O3 2.989983 1_555
K1 O35 3.034904 1_555
K1 O3 3.081570 1_655
K1 O56 3.226209 1_555
K1 O27 3.292984 1_545
K2 O13 2.829597 1_555
K2 O23 2.895121 1_555
K2 O63 2.907210 1_455
K2 O36 2.923202 1_555
K2 O31 2.975597 1_555
K2 O5 3.066172 1_555
K2 O13 3.109281 1_455
K2 O63 3.139811 1_555
K2 O57 3.360526 1_555
K2 O21 3.380356 1_555
K2 O5 3.440210 1_455
K3 O42 2.800062 1_455
K3 O38 2.899901 1_565
K3 O50 2.943813 1_465
K3 O57 2.965061 1_555
K3 O4 2.989983 1_555
K3 O17 3.034904 1_555
K3 O4 3.081570 1_455
K3 O42 3.226209 1_555
K3 O20 3.292984 1_565
K4 O55 2.829597 1_455
K4 O52 2.895121 1_555
K4 O29 2.907210 1_555
K4 O11 2.923202 1_555
K4 O20 2.975597 1_555
K4 O48 3.066172 1_455
K4 O55 3.109281 1_555
K4 O29 3.139811 1_455
K4 O60 3.360526 1_555
K4 O33 3.380356 1_455
K4 O48 3.440210 1_555
K5 O25 2.829597 1_655
K5 O15 2.895121 1_554
K5 O34 2.907210 1_554
K5 O45 2.923202 1_554
K5 O27 2.975597 1_555
K5 O7 3.066172 1_655
K5 O25 3.109281 1_555
K5 O34 3.139811 1_654
K5 O2 3.360526 1_555
K5 O62 3.380356 1_654
K5 O7 3.440210 1_555
K6 O6 2.800062 1_555
K6 O9 2.899901 1_555
K6 O46 2.943813 1_555
K6 O2 2.965061 1_555
K6 O16 2.989983 1_655
K6 O59 3.034904 1_555
K6 O16 3.081570 1_555
K6 O6 3.226209 1_655
K6 O12 3.292984 1_555
K7 O61 2.829597 1_555
K7 O37 2.895121 1_554
K7 O28 2.907210 1_654
K7 O40 2.923202 1_554
K7 O12 2.975597 1_555
K7 O22 3.066172 1_555
K7 O61 3.109281 1_655
K7 O28 3.139811 1_554
K7 O14 3.360526 1_555
K7 O43 3.380356 1_554
K7 O22 3.440210 1_655
O0 P0 1.541134 1_555
O0 V4 1.943824 1_555
O1 P2 1.547500 1_455
O1 V11 1.981169 1_555
O2 V13 1.630567 1_655
O3 V0 1.625850 1_545
O4 V6 1.625850 1_565
O5 V12 1.780630 1_555
O5 V14 1.934128 1_555
O6 P0 1.552691 1_555
O6 V13 1.967138 1_555
O7 V13 1.780630 1_555
O7 V9 1.934128 1_555
O8 P6 1.556913 1_555
O8 V15 1.941961 1_555
O9 V2 1.756430 1_555
O9 V8 1.943089 1_555
O10 P2 1.555521 1_555
O10 V7 1.940164 1_555
O11 P5 1.547405 1_555
O11 V0 1.985316 1_545
O12 V1 1.631349 1_655
O13 P6 1.554810 1_555
O13 V14 1.969163 1_555
O14 V3 1.630567 1_555
O15 V5 1.754993 1_555
O15 V10 1.946024 1_655
O16 V8 1.625850 1_555
O17 P3 1.547500 1_555
O17 V10 1.981169 1_555
O18 P5 1.556913 1_565
O18 V12 1.941961 1_555
O19 V9 1.784371 1_555
O19 V3 1.940985 1_565
O20 V7 1.631349 1_555
O21 P6 1.538818 1_555
O21 V8 1.941607 1_555
O22 V3 1.780630 1_555
O22 V1 1.934128 1_555
O23 V0 1.754993 1_555
O23 V4 1.946024 1_555
O24 P0 1.555521 1_555
O24 V9 1.940164 1_555
O25 P1 1.554810 1_554
O25 V9 1.969163 1_555
O26 P2 1.552691 1_555
O26 V15 1.967138 1_555
O27 V9 1.631349 1_555
O28 V11 1.625134 1_555
O29 V2 1.625134 1_555
O30 V14 1.784371 1_555
O30 V15 1.940985 1_555
O31 V14 1.631349 1_455
O32 P3 1.555521 1_555
O32 V14 1.940164 1_555
O33 P5 1.538818 1_555
O33 V0 1.941607 1_645
O34 V10 1.625134 1_555
O35 P4 1.547500 1_555
O35 V2 1.981169 1_555
O36 P6 1.547405 1_455
O36 V8 1.985316 1_555
O37 V6 1.754993 1_555
O37 V11 1.946024 1_555
O38 V11 1.756430 1_555
O38 V6 1.943089 1_455
O39 V4 1.756430 1_555
O39 V0 1.943089 1_655
O40 P7 1.547405 1_655
O40 V5 1.985316 1_555
O41 P4 1.555521 1_555
O41 V1 1.940164 1_555
O42 P3 1.552691 1_555
O42 V12 1.967138 1_555
O43 P7 1.538818 1_555
O43 V5 1.941607 1_555
O44 V10 1.756430 1_555
O44 V5 1.943089 1_555
O45 P1 1.547405 1_555
O45 V6 1.985316 1_565
O46 V1 1.784371 1_555
O46 V13 1.940985 1_555
O47 V5 1.625850 1_555
O48 V15 1.780630 1_555
O48 V7 1.934128 1_555
O49 P1 1.556913 1_544
O49 V3 1.941961 1_555
O50 V7 1.784371 1_555
O50 V12 1.940985 1_545
O51 P7 1.556913 1_554
O51 V13 1.941961 1_555
O52 V8 1.754993 1_555
O52 V2 1.946024 1_455
O53 P3 1.541134 1_555
O53 V10 1.943824 1_655
O54 P4 1.541134 1_555
O54 V2 1.943824 1_455
O55 P5 1.554810 1_555
O55 V7 1.969163 1_555
O56 P4 1.552691 1_555
O56 V3 1.967138 1_555
O57 V12 1.630567 1_555
O58 P2 1.541134 1_555
O58 V11 1.943824 1_555
O59 P0 1.547500 1_655
O59 V4 1.981169 1_555
O60 V15 1.630567 1_455
O61 P7 1.554810 1_554
O61 V1 1.969163 1_555
O62 P1 1.538818 1_555
O62 V6 1.941607 1_465
O63 V4 1.625134 1_555
