# generated using pymatgen
data_K2OsN3Cl3O5
_symmetry_space_group_name_H-M   'P 1'
_cell_length_a   7.09743800
_cell_length_b   7.71143038
_cell_length_c   10.54125088
_cell_angle_alpha   90.34028801
_cell_angle_beta   101.66922435
_cell_angle_gamma   90.53912736
_symmetry_Int_Tables_number   1
_chemical_formula_structural   K2OsN3Cl3O5
_chemical_formula_sum   'K4 Os2 N6 Cl6 O10'
_cell_volume   564.96990190
_cell_formula_units_Z   2
loop_
 _symmetry_equiv_pos_site_id
 _symmetry_equiv_pos_as_xyz
  1  'x, y, z'
loop_
 _atom_site_type_symbol
 _atom_site_label
 _atom_site_symmetry_multiplicity
 _atom_site_fract_x
 _atom_site_fract_y
 _atom_site_fract_z
 _atom_site_occupancy
  K  K0  1  0.38945300  0.24608100  0.87031100  1
  K  K1  1  0.22967500  0.75180300  0.47237500  1
  K  K2  1  0.61054700  0.75391900  0.12968900  1
  K  K3  1  0.77032500  0.24819700  0.52762500  1
  Os  Os0  1  0.87709700  0.74694700  0.76259200  1
  Os  Os1  1  0.12290300  0.25305300  0.23740800  1
  N  N0  1  0.67968700  0.93313800  0.79420500  1
  N  N1  1  0.01256300  0.24305200  0.07266800  1
  N  N2  1  0.69666600  0.54923200  0.80338400  1
  N  N3  1  0.30333400  0.45076800  0.19661600  1
  N  N4  1  0.98743700  0.75694800  0.92733200  1
  N  N5  1  0.32031300  0.06686200  0.20579500  1
  Cl  Cl0  1  0.28628100  0.26822000  0.45438300  1
  Cl  Cl1  1  0.07883800  0.97362500  0.69919400  1
  Cl  Cl2  1  0.71371900  0.73178000  0.54561700  1
  Cl  Cl3  1  0.90307100  0.46705700  0.29251500  1
  Cl  Cl4  1  0.09692900  0.53294300  0.70748500  1
  Cl  Cl5  1  0.92116200  0.02637500  0.30080600  1
  O  O0  1  0.63898900  0.94544200  0.90473500  1
  O  O1  1  0.36101100  0.05455800  0.09526500  1
  O  O2  1  0.95032100  0.23740500  0.96059400  1
  O  O3  1  0.63185500  0.43484400  0.72137800  1
  O  O4  1  0.34498200  0.45608500  0.08621900  1
  O  O5  1  0.04967900  0.76259500  0.03940600  1
  O  O6  1  0.39540600  0.96591800  0.29323800  1
  O  O7  1  0.65501800  0.54391500  0.91378100  1
  O  O8  1  0.60459400  0.03408200  0.70676200  1
  O  O9  1  0.36814500  0.56515600  0.27862200  1
loop_
_geom_bond_atom_site_label_1
_geom_bond_atom_site_label_2
_geom_bond_distance
_geom_bond_site_symmetry_2
K0 O1 2.841603 1_556
K0 O4 2.856311 1_556
K0 O0 2.910398 1_545
K0 O7 2.931581 1_555
K0 O3 2.935318 1_555
K0 O8 3.009121 1_555
K1 O9 2.830646 1_555
K1 O6 2.928246 1_555
K2 O0 2.841603 1_554
K2 O7 2.856311 1_554
K2 O1 2.910398 1_565
K2 O4 2.931581 1_555
K2 O9 2.935318 1_555
K2 O6 3.009121 1_555
K3 O3 2.830646 1_555
K3 O8 2.928246 1_555
N0 O8 1.247893 1_565
N0 O0 1.259086 1_555
N0 Os0 2.087274 1_555
N1 O2 1.175016 1_454
N1 Os1 1.755574 1_555
N2 O3 1.248761 1_555
N2 O7 1.258093 1_555
N2 Os0 2.084042 1_555
N3 O9 1.248761 1_555
N3 O4 1.258093 1_555
N3 Os1 2.084042 1_555
N4 O5 1.175016 1_656
N4 Os0 1.755574 1_555
N5 O6 1.247893 1_545
N5 O1 1.259086 1_555
N5 Os1 2.087274 1_555
Cl0 Os1 2.347534 1_555
Cl0 K3 3.370584 1_555
Cl1 Os0 2.430267 1_455
Cl1 K0 3.284401 1_565
Cl1 K1 3.287874 1_555
Cl1 K3 3.328567 1_465
Cl2 Os0 2.347534 1_555
Cl2 K1 3.370584 1_555
Cl3 Os1 2.428769 1_655
Cl3 K2 3.292407 1_555
Cl3 K3 3.292814 1_555
Cl3 K1 3.444770 1_655
Cl4 Os0 2.428769 1_455
Cl4 K0 3.292407 1_555
Cl4 K1 3.292814 1_555
Cl4 K3 3.444770 1_455
Cl5 Os1 2.430267 1_655
Cl5 K2 3.284401 1_545
Cl5 K3 3.287874 1_555
Cl5 K1 3.328567 1_645
