# generated using pymatgen
data_LiGd6B3O14
_symmetry_space_group_name_H-M   'P 1'
_cell_length_a   8.53941374
_cell_length_b   9.02766077
_cell_length_c   15.80023917
_cell_angle_alpha   90.00000000
_cell_angle_beta   90.00000000
_cell_angle_gamma   92.11529149
_symmetry_Int_Tables_number   1
_chemical_formula_structural   LiGd6B3O14
_chemical_formula_sum   'Li4 Gd24 B12 O56'
_cell_volume   1217.22512914
_cell_formula_units_Z   4
loop_
 _symmetry_equiv_pos_site_id
 _symmetry_equiv_pos_as_xyz
  1  'x, y, z'
loop_
 _atom_site_type_symbol
 _atom_site_label
 _atom_site_symmetry_multiplicity
 _atom_site_fract_x
 _atom_site_fract_y
 _atom_site_fract_z
 _atom_site_occupancy
  Li  Li0  1  0.17828555  0.06244581  0.39419852  1
  Li  Li1  1  0.67828555  0.56244581  0.10580148  1
  Li  Li2  1  0.32171445  0.43755419  0.89419852  1
  Li  Li3  1  0.82171445  0.93755419  0.60580148  1
  Gd  Gd0  1  0.44805355  0.78332943  0.51374247  1
  Gd  Gd1  1  0.22753703  0.07511948  0.64362881  1
  Gd  Gd2  1  0.64164912  0.19401888  0.17767397  1
  Gd  Gd3  1  0.79978643  0.56274815  0.50425769  1
  Gd  Gd4  1  0.14164912  0.69401888  0.32232603  1
  Gd  Gd5  1  0.35835088  0.80598112  0.82232603  1
  Gd  Gd6  1  0.70021357  0.93725185  0.00425769  1
  Gd  Gd7  1  0.07870743  0.66592381  0.66588843  1
  Gd  Gd8  1  0.72753703  0.57511948  0.85637119  1
  Gd  Gd9  1  0.85835088  0.30598112  0.67767397  1
  Gd  Gd10  1  0.55194645  0.21667057  0.48625753  1
  Gd  Gd11  1  0.57870743  0.16592381  0.83411157  1
  Gd  Gd12  1  0.27246297  0.42488052  0.14362881  1
  Gd  Gd13  1  0.94805355  0.28332943  0.98625753  1
  Gd  Gd14  1  0.03966002  0.05520746  0.17420987  1
  Gd  Gd15  1  0.20021357  0.43725185  0.49574231  1
  Gd  Gd16  1  0.77246297  0.92488052  0.35637119  1
  Gd  Gd17  1  0.92129257  0.33407619  0.33411157  1
  Gd  Gd18  1  0.42129257  0.83407619  0.16588843  1
  Gd  Gd19  1  0.53966002  0.55520746  0.32579013  1
  Gd  Gd20  1  0.29978643  0.06274815  0.99574231  1
  Gd  Gd21  1  0.96033998  0.94479254  0.82579013  1
  Gd  Gd22  1  0.46033998  0.44479254  0.67420987  1
  Gd  Gd23  1  0.05194645  0.71667057  0.01374247  1
  B  B0  1  0.07048499  0.52743220  0.82742155  1
  B  B1  1  0.92951501  0.47256780  0.17257845  1
  B  B2  1  0.31996788  0.27731445  0.30697747  1
  B  B3  1  0.06375935  0.85544265  0.49961727  1
  B  B4  1  0.42951501  0.97256780  0.32742155  1
  B  B5  1  0.81996788  0.77731445  0.19302253  1
  B  B6  1  0.43624065  0.64455735  0.99961727  1
  B  B7  1  0.93624065  0.14455735  0.50038273  1
  B  B8  1  0.18003212  0.22268555  0.80697747  1
  B  B9  1  0.57048499  0.02743220  0.67257845  1
  B  B10  1  0.68003212  0.72268555  0.69302253  1
  B  B11  1  0.56375935  0.35544265  0.00038273  1
  O  O0  1  0.02957471  0.88235597  0.41554298  1
  O  O1  1  0.19244346  0.89576001  0.09814810  1
  O  O2  1  0.32370055  0.27432040  0.77586642  1
  O  O3  1  0.16184695  0.87651827  0.91462327  1
  O  O4  1  0.54252764  0.71999071  0.05104109  1
  O  O5  1  0.00931896  0.53595318  0.41067731  1
  O  O6  1  0.46739544  0.99037351  0.41178191  1
  O  O7  1  0.34541765  0.62219106  0.23225017  1
  O  O8  1  0.43732431  0.32257779  0.24931162  1
  O  O9  1  0.04252764  0.21999071  0.44895891  1
  O  O10  1  0.53260456  0.00962649  0.58821809  1
  O  O11  1  0.83815305  0.12348173  0.08537673  1
  O  O12  1  0.67629945  0.72567960  0.22413358  1
  O  O13  1  0.65458235  0.37780894  0.76774983  1
  O  O14  1  0.97042529  0.11764403  0.58445702  1
  O  O15  1  0.20789809  0.90526449  0.53339869  1
  O  O16  1  0.64934387  0.70314346  0.60760878  1
  O  O17  1  0.84446365  0.77864077  0.92072300  1
  O  O18  1  0.34446365  0.27864077  0.57927700  1
  O  O19  1  0.65553635  0.72135923  0.42072300  1
  O  O20  1  0.06267569  0.17742221  0.74931162  1
  O  O21  1  0.15458235  0.87780894  0.73225017  1
  O  O22  1  0.93732431  0.82257779  0.25068838  1
  O  O23  1  0.79210191  0.09473551  0.46660131  1
  O  O24  1  0.29210191  0.59473551  0.03339869  1
  O  O25  1  0.35065613  0.29685654  0.39239122  1
  O  O26  1  0.95747236  0.78000929  0.55104109  1
  O  O27  1  0.21538132  0.57645038  0.79725553  1
  O  O28  1  0.95188708  0.50325312  0.76808228  1
  O  O29  1  0.80755654  0.10423999  0.90185190  1
  O  O30  1  0.70789809  0.40526449  0.96660131  1
  O  O31  1  0.54811292  0.99674688  0.26808228  1
  O  O32  1  0.15553635  0.22135923  0.07927700  1
  O  O33  1  0.04811292  0.49674688  0.23191772  1
  O  O34  1  0.66184695  0.37651827  0.58537673  1
  O  O35  1  0.99068104  0.46404682  0.58932269  1
  O  O36  1  0.45747236  0.28000929  0.94895891  1
  O  O37  1  0.71538132  0.07645038  0.70274447  1
  O  O38  1  0.47042529  0.61764403  0.91554298  1
  O  O39  1  0.49068104  0.96404682  0.91067731  1
  O  O40  1  0.52957471  0.38235597  0.08445702  1
  O  O41  1  0.03260456  0.50962649  0.91178191  1
  O  O42  1  0.50931896  0.03595318  0.08932269  1
  O  O43  1  0.69244346  0.39576001  0.40185190  1
  O  O44  1  0.33815305  0.62348173  0.41462327  1
  O  O45  1  0.84541765  0.12219106  0.26774983  1
  O  O46  1  0.28461868  0.92354962  0.29725553  1
  O  O47  1  0.85065613  0.79685654  0.10760878  1
  O  O48  1  0.82370055  0.77432040  0.72413358  1
  O  O49  1  0.30755654  0.60423999  0.59814810  1
  O  O50  1  0.45188708  0.00325312  0.73191772  1
  O  O51  1  0.78461868  0.42354962  0.20274447  1
  O  O52  1  0.14934387  0.20314346  0.89239122  1
  O  O53  1  0.17629945  0.22567960  0.27586642  1
  O  O54  1  0.96739544  0.49037351  0.08821809  1
  O  O55  1  0.56267569  0.67742221  0.75068838  1
loop_
_geom_bond_atom_site_label_1
_geom_bond_atom_site_label_2
_geom_bond_distance
_geom_bond_site_symmetry_2
Li0 O0 2.053576 1_545
Li0 O9 2.058428 1_555
Li0 O46 2.197047 1_545
Li0 O53 2.381044 1_555
Li1 O40 2.053576 1_555
Li1 O4 2.058428 1_555
Li1 O51 2.197047 1_555
Li1 O12 2.381044 1_555
Li2 O38 2.053576 1_555
Li2 O36 2.058428 1_555
Li2 O27 2.197047 1_555
Li2 O2 2.381044 1_555
Li3 O14 2.053576 1_565
Li3 O26 2.058428 1_555
Li3 O37 2.197047 1_565
Li3 O48 2.381044 1_555
Gd0 O44 2.305617 1_555
Gd0 O15 2.383394 1_555
Gd0 O19 2.384422 1_555
Gd0 O49 2.385102 1_555
Gd0 O16 2.402106 1_555
Gd0 O10 2.443500 1_565
Gd0 O6 2.468489 1_555
Gd1 O18 2.295893 1_555
Gd1 O15 2.322461 1_545
Gd1 O21 2.332322 1_545
Gd1 O20 2.391478 1_555
Gd1 O14 2.429872 1_455
Gd1 O50 2.475686 1_555
Gd2 O42 2.267791 1_555
Gd2 O11 2.329560 1_555
Gd2 O45 2.357359 1_555
Gd2 O31 2.396902 1_545
Gd2 O51 2.398833 1_555
Gd2 O8 2.412883 1_555
Gd2 O40 2.469045 1_555
Gd3 O35 2.316239 1_555
Gd3 O19 2.332363 1_555
Gd3 O5 2.340564 1_655
Gd3 O43 2.372523 1_555
Gd3 O34 2.389679 1_555
Gd3 O26 2.451847 1_555
Gd3 O16 2.458381 1_555
Gd4 O5 2.267791 1_555
Gd4 O44 2.329560 1_555
Gd4 O7 2.357359 1_555
Gd4 O33 2.396902 1_555
Gd4 O46 2.398833 1_555
Gd4 O22 2.412883 1_455
Gd4 O0 2.469045 1_555
Gd5 O39 2.267791 1_555
Gd5 O3 2.329560 1_555
Gd5 O21 2.357359 1_555
Gd5 O50 2.396902 1_565
Gd5 O27 2.398833 1_555
Gd5 O55 2.412883 1_555
Gd5 O38 2.469045 1_555
Gd6 O42 2.316239 1_565
Gd6 O17 2.332363 1_554
Gd6 O39 2.340564 1_554
Gd6 O29 2.372523 1_564
Gd6 O11 2.389679 1_565
Gd6 O4 2.451847 1_555
Gd6 O47 2.458381 1_555
Gd7 O21 2.255359 1_555
Gd7 O35 2.291036 1_455
Gd7 O49 2.314096 1_555
Gd7 O26 2.346078 1_455
Gd7 O28 2.412309 1_455
Gd7 O27 2.528326 1_555
Gd7 O48 2.589172 1_455
Gd8 O17 2.295893 1_555
Gd8 O30 2.322461 1_555
Gd8 O13 2.332322 1_555
Gd8 O55 2.391478 1_555
Gd8 O38 2.429872 1_555
Gd8 O28 2.475686 1_555
Gd9 O35 2.267791 1_555
Gd9 O34 2.329560 1_555
Gd9 O13 2.357359 1_555
Gd9 O28 2.396902 1_555
Gd9 O37 2.398833 1_555
Gd9 O20 2.412883 1_655
Gd9 O14 2.469045 1_555
Gd10 O34 2.305617 1_555
Gd10 O23 2.383394 1_555
Gd10 O18 2.384422 1_555
Gd10 O43 2.385102 1_555
Gd10 O25 2.402106 1_555
Gd10 O6 2.443500 1_545
Gd10 O10 2.468489 1_555
Gd11 O13 2.255359 1_555
Gd11 O39 2.291036 1_545
Gd11 O29 2.314096 1_555
Gd11 O36 2.346078 1_555
Gd11 O50 2.412309 1_555
Gd11 O37 2.528326 1_555
Gd11 O2 2.589172 1_555
Gd12 O32 2.295893 1_555
Gd12 O24 2.322461 1_555
Gd12 O7 2.332322 1_555
Gd12 O8 2.391478 1_555
Gd12 O40 2.429872 1_555
Gd12 O33 2.475686 1_555
Gd13 O11 2.305617 1_556
Gd13 O30 2.383394 1_555
Gd13 O32 2.384422 1_656
Gd13 O29 2.385102 1_555
Gd13 O52 2.402106 1_655
Gd13 O41 2.443500 1_655
Gd13 O54 2.468489 1_556
Gd14 O1 2.314545 1_545
Gd14 O32 2.317185 1_555
Gd14 O45 2.318491 1_455
Gd14 O11 2.321471 1_455
Gd14 O53 2.485396 1_555
Gd14 O22 2.549275 1_445
Gd15 O5 2.316239 1_555
Gd15 O18 2.332363 1_555
Gd15 O35 2.340564 1_455
Gd15 O49 2.372523 1_555
Gd15 O44 2.389679 1_555
Gd15 O9 2.451847 1_555
Gd15 O25 2.458381 1_555
Gd16 O19 2.295893 1_555
Gd16 O23 2.322461 1_565
Gd16 O45 2.332322 1_565
Gd16 O22 2.391478 1_555
Gd16 O0 2.429872 1_655
Gd16 O31 2.475686 1_555
Gd17 O45 2.255359 1_555
Gd17 O5 2.291036 1_655
Gd17 O43 2.314096 1_555
Gd17 O9 2.346078 1_655
Gd17 O33 2.412309 1_655
Gd17 O51 2.528326 1_555
Gd17 O53 2.589172 1_655
Gd18 O7 2.255359 1_555
Gd18 O42 2.291036 1_565
Gd18 O1 2.314096 1_555
Gd18 O4 2.346078 1_555
Gd18 O31 2.412309 1_555
Gd18 O46 2.528326 1_555
Gd18 O12 2.589172 1_555
Gd19 O43 2.314545 1_555
Gd19 O19 2.317185 1_555
Gd19 O7 2.318491 1_555
Gd19 O44 2.321471 1_555
Gd19 O12 2.485396 1_555
Gd19 O8 2.549275 1_555
Gd20 O39 2.316239 1_545
Gd20 O32 2.332363 1_556
Gd20 O42 2.340564 1_556
Gd20 O1 2.372523 1_546
Gd20 O3 2.389679 1_545
Gd20 O36 2.451847 1_555
Gd20 O52 2.458381 1_555
Gd21 O29 2.314545 1_565
Gd21 O17 2.317185 1_555
Gd21 O21 2.318491 1_655
Gd21 O3 2.321471 1_655
Gd21 O48 2.485396 1_555
Gd21 O20 2.549275 1_665
Gd22 O49 2.314545 1_555
Gd22 O18 2.317185 1_555
Gd22 O13 2.318491 1_555
Gd22 O34 2.321471 1_555
Gd22 O2 2.485396 1_555
Gd22 O55 2.549275 1_555
Gd23 O3 2.305617 1_554
Gd23 O24 2.383394 1_555
Gd23 O17 2.384422 1_454
Gd23 O1 2.385102 1_555
Gd23 O47 2.402106 1_455
Gd23 O54 2.443500 1_455
Gd23 O41 2.468489 1_554
B0 O41 1.379600 1_555
B0 O27 1.383317 1_555
B0 O28 1.391420 1_455
B1 O54 1.379600 1_555
B1 O51 1.383317 1_555
B1 O33 1.391420 1_655
B2 O25 1.384808 1_555
B2 O53 1.386308 1_555
B2 O8 1.404002 1_555
B3 O26 1.379158 1_455
B3 O0 1.383515 1_555
B3 O15 1.400479 1_555
B4 O6 1.379600 1_555
B4 O46 1.383317 1_555
B4 O31 1.391420 1_555
B5 O47 1.384808 1_555
B5 O12 1.386308 1_555
B5 O22 1.404002 1_555
B6 O4 1.379158 1_556
B6 O38 1.383515 1_555
B6 O24 1.400479 1_556
B7 O9 1.379158 1_655
B7 O14 1.383515 1_555
B7 O23 1.400479 1_555
B8 O52 1.384808 1_555
B8 O2 1.386308 1_555
B8 O20 1.404002 1_555
B9 O10 1.379600 1_555
B9 O37 1.383317 1_555
B9 O50 1.391420 1_555
B10 O16 1.384808 1_555
B10 O48 1.386308 1_555
B10 O55 1.404002 1_555
B11 O36 1.379158 1_554
B11 O40 1.383515 1_555
B11 O30 1.400479 1_554
