# generated using pymatgen
data_K2Sr3Mn2(P2O7)3
_symmetry_space_group_name_H-M   'P 1'
_cell_length_a   5.41353300
_cell_length_b   13.43990200
_cell_length_c   14.01814227
_cell_angle_alpha   80.32863103
_cell_angle_beta   90.00000000
_cell_angle_gamma   90.00000000
_symmetry_Int_Tables_number   1
_chemical_formula_structural   K2Sr3Mn2(P2O7)3
_chemical_formula_sum   'K4 Sr6 Mn4 P12 O42'
_cell_volume   1005.42731286
_cell_formula_units_Z   2
loop_
 _symmetry_equiv_pos_site_id
 _symmetry_equiv_pos_as_xyz
  1  'x, y, z'
loop_
 _atom_site_type_symbol
 _atom_site_label
 _atom_site_symmetry_multiplicity
 _atom_site_fract_x
 _atom_site_fract_y
 _atom_site_fract_z
 _atom_site_occupancy
  K  K0  1  0.12696500  0.43367500  0.39850000  1
  K  K1  1  0.62696500  0.56632500  0.60150000  1
  K  K2  1  0.16803900  0.55921300  0.08542100  1
  K  K3  1  0.66803900  0.44078700  0.91457900  1
  Sr  Sr0  1  0.17314800  0.75408400  0.35311700  1
  Sr  Sr1  1  0.61788600  0.77741500  0.83627200  1
  Sr  Sr2  1  0.63910800  0.99102900  0.25118900  1
  Sr  Sr3  1  0.13910800  0.00897100  0.74881100  1
  Sr  Sr4  1  0.67314800  0.24591600  0.64688300  1
  Sr  Sr5  1  0.11788600  0.22258500  0.16372800  1
  Mn  Mn0  1  0.62299900  0.77341700  0.11739900  1
  Mn  Mn1  1  0.65959900  0.21238700  0.37489400  1
  Mn  Mn2  1  0.15959900  0.78761300  0.62510600  1
  Mn  Mn3  1  0.12299900  0.22658300  0.88260100  1
  P  P0  1  0.12337700  0.40748800  0.69151400  1
  P  P1  1  0.66095200  0.94108800  0.62424200  1
  P  P2  1  0.66547800  0.81042700  0.48016500  1
  P  P3  1  0.16095200  0.05891200  0.37575800  1
  P  P4  1  0.61841000  0.18865000  0.02777400  1
  P  P5  1  0.12035800  0.92394000  0.13105000  1
  P  P6  1  0.62035800  0.07606000  0.86895000  1
  P  P7  1  0.11841000  0.81135000  0.97222600  1
  P  P8  1  0.62337700  0.59251200  0.30848600  1
  P  P9  1  0.61471200  0.40565300  0.20753900  1
  P  P10  1  0.11471200  0.59434700  0.79246100  1
  P  P11  1  0.16547800  0.18957300  0.51983500  1
  O  O0  1  0.86271000  0.24326300  0.99655000  1
  O  O1  1  0.19096500  0.94790800  0.37284900  1
  O  O2  1  0.22416500  0.53405200  0.88368900  1
  O  O3  1  0.37196900  0.12327800  0.32155700  1
  O  O4  1  0.28116100  0.68372500  0.74515400  1
  O  O5  1  0.16838500  0.17006100  0.62973700  1
  O  O6  1  0.90394000  0.85897800  0.17917500  1
  O  O7  1  0.41312500  0.89696500  0.66694800  1
  O  O8  1  0.86652700  0.12370500  0.82839500  1
  O  O9  1  0.10592400  0.52643500  0.70426000  1
  O  O10  1  0.96880400  0.40351500  0.60100800  1
  O  O11  1  0.39817900  0.38446000  0.68385900  1
  O  O12  1  0.59346200  0.96630400  0.85891200  1
  O  O13  1  0.99651200  0.34470400  0.78124100  1
  O  O14  1  0.39820000  0.24771200  0.47882600  1
  O  O15  1  0.89820000  0.75228800  0.52117400  1
  O  O16  1  0.42600700  0.75929600  0.52124400  1
  O  O17  1  0.10478300  0.84351600  0.86334500  1
  O  O18  1  0.11460800  0.91682400  0.01652800  1
  O  O19  1  0.17415200  0.07726300  0.48729500  1
  O  O20  1  0.89029700  0.74926100  0.01135800  1
  O  O21  1  0.91312500  0.10303500  0.33305200  1
  O  O22  1  0.60478300  0.15648400  0.13665500  1
  O  O23  1  0.34549100  0.37316900  0.19834500  1
  O  O24  1  0.40394000  0.14102200  0.82082500  1
  O  O25  1  0.36271000  0.75673700  0.00345000  1
  O  O26  1  0.69096500  0.05209200  0.62715100  1
  O  O27  1  0.78116100  0.31627500  0.25484600  1
  O  O28  1  0.49651200  0.65529600  0.21875900  1
  O  O29  1  0.67415200  0.92273700  0.51270500  1
  O  O30  1  0.39029700  0.25073900  0.98864200  1
  O  O31  1  0.87196900  0.87672200  0.67844300  1
  O  O32  1  0.66838500  0.82993900  0.37026300  1
  O  O33  1  0.46880400  0.59648500  0.39899200  1
  O  O34  1  0.09346200  0.03369600  0.14108800  1
  O  O35  1  0.36652700  0.87629500  0.17160500  1
  O  O36  1  0.72416500  0.46594800  0.11631100  1
  O  O37  1  0.61460800  0.08317600  0.98347200  1
  O  O38  1  0.89817900  0.61554000  0.31614100  1
  O  O39  1  0.60592400  0.47356500  0.29574000  1
  O  O40  1  0.92600700  0.24070400  0.47875600  1
  O  O41  1  0.84549100  0.62683100  0.80165500  1
loop_
_geom_bond_atom_site_label_1
_geom_bond_atom_site_label_2
_geom_bond_distance
_geom_bond_site_symmetry_2
K0 O38 2.809465 1_455
K0 O40 2.862720 1_455
K0 O33 2.866650 1_555
K0 O10 2.927368 1_455
K0 O14 2.953808 1_555
K0 O39 2.970845 1_555
K0 O39 3.171622 1_455
K0 O23 3.271072 1_555
K0 O27 3.334199 1_455
K1 O11 2.809465 1_555
K1 O16 2.862720 1_555
K1 O10 2.866650 1_555
K1 O33 2.927368 1_555
K1 O15 2.953808 1_555
K1 O9 2.970845 1_655
K1 O9 3.171622 1_555
K1 O41 3.271072 1_555
K1 O4 3.334199 1_555
K2 O36 2.711159 1_455
K2 O23 2.889782 1_555
K2 O25 2.907493 1_555
K2 O2 2.919767 1_554
K2 O20 2.995277 1_455
K2 O28 3.022299 1_555
K2 O36 3.261914 1_555
K3 O2 2.711159 1_555
K3 O41 2.889782 1_555
K3 O0 2.907493 1_555
K3 O36 2.919767 1_556
K3 O30 2.995277 1_555
K3 O13 3.022299 1_555
K3 O2 3.261914 1_655
Mn0 O28 2.061586 1_555
Mn0 O20 2.138016 1_555
Mn0 O25 2.169706 1_555
Mn0 O6 2.172544 1_555
Mn0 O35 2.184009 1_555
Mn1 O27 2.103587 1_555
Mn1 O40 2.128562 1_555
Mn1 O14 2.140782 1_555
Mn1 O21 2.162710 1_555
Mn1 O3 2.172262 1_555
Mn2 O4 2.103587 1_555
Mn2 O16 2.128562 1_555
Mn2 O15 2.140782 1_455
Mn2 O7 2.162710 1_555
Mn2 O31 2.172262 1_455
Mn3 O13 2.061586 1_455
Mn3 O30 2.138016 1_555
Mn3 O0 2.169706 1_455
Mn3 O24 2.172544 1_555
Mn3 O8 2.184009 1_455
O0 P4 1.539955 1_556
O0 Sr5 2.694214 1_656
O1 P3 1.508051 1_565
O1 Sr0 2.667173 1_555
O1 Sr2 2.966140 1_555
O2 P10 1.514933 1_555
O3 P3 1.552340 1_555
O3 Sr2 2.610121 1_545
O3 Sr5 2.752486 1_555
O4 P10 1.557889 1_555
O4 Sr1 2.660886 1_555
O5 P11 1.518811 1_555
O5 Sr3 2.506885 1_555
O5 Sr4 2.892596 1_455
O5 Sr4 2.940457 1_555
O6 P5 1.546642 1_655
O6 Sr2 2.612708 1_555
O6 Sr0 2.983605 1_655
O7 P1 1.546193 1_555
O7 Sr3 2.522675 1_565
O7 Sr1 2.857089 1_555
O8 P6 1.544948 1_555
O8 Sr3 2.525450 1_655
O8 Sr4 2.977215 1_555
O9 P0 1.640872 1_555
O9 P10 1.656271 1_555
O10 P0 1.528231 1_655
O10 Sr4 2.646515 1_555
O11 P0 1.526945 1_555
O11 Sr4 2.505166 1_555
O12 P6 1.512181 1_565
O12 Sr1 2.614126 1_555
O12 Sr3 2.909211 1_565
O13 P0 1.552148 1_655
O13 Sr4 3.035585 1_555
O14 P11 1.541858 1_555
O14 Sr4 2.783333 1_555
O15 P2 1.541858 1_555
O15 Sr0 2.783333 1_655
O16 P2 1.533458 1_555
O16 Sr0 2.736566 1_555
O17 P7 1.516658 1_555
O17 Sr3 2.521425 1_565
O17 Sr1 2.827396 1_455
O17 Sr1 2.960096 1_555
O18 P5 1.624489 1_555
O18 P7 1.640540 1_554
O19 P3 1.624859 1_555
O19 P11 1.649247 1_555
O20 P7 1.538969 1_654
O20 Sr1 2.833704 1_554
O21 P3 1.546193 1_655
O21 Sr2 2.522675 1_545
O21 Sr5 2.857089 1_655
O22 P4 1.516658 1_555
O22 Sr2 2.521425 1_545
O22 Sr5 2.827396 1_555
O22 Sr5 2.960096 1_655
O23 P9 1.533050 1_555
O23 Sr5 2.485871 1_555
O24 P6 1.546642 1_555
O24 Sr3 2.612708 1_555
O24 Sr4 2.983605 1_555
O25 P7 1.539955 1_554
O25 Sr1 2.694214 1_554
O26 P1 1.508051 1_545
O26 Sr4 2.667173 1_555
O26 Sr3 2.966140 1_655
O27 P9 1.557889 1_555
O27 Sr5 2.660886 1_655
O28 P8 1.552148 1_555
O28 Sr0 3.035585 1_555
O29 P1 1.624859 1_555
O29 P2 1.649247 1_555
O30 P4 1.538969 1_556
O30 Sr5 2.833704 1_556
O31 P1 1.552340 1_555
O31 Sr3 2.610121 1_665
O31 Sr1 2.752486 1_555
O32 P2 1.518811 1_555
O32 Sr2 2.506885 1_555
O32 Sr0 2.892596 1_555
O32 Sr0 2.940457 1_655
O33 P8 1.528231 1_555
O33 Sr0 2.646515 1_555
O34 P5 1.512181 1_545
O34 Sr5 2.614126 1_555
O34 Sr2 2.909211 1_445
O35 P5 1.544948 1_555
O35 Sr2 2.525450 1_555
O35 Sr0 2.977215 1_555
O36 P9 1.514933 1_555
O37 P6 1.624489 1_555
O37 P4 1.640540 1_556
O38 P8 1.526945 1_555
O38 Sr0 2.505166 1_655
O39 P8 1.640872 1_555
O39 P9 1.656271 1_555
O40 P11 1.533458 1_655
O40 Sr4 2.736566 1_555
O41 P10 1.533050 1_655
O41 Sr1 2.485871 1_555
