# generated using pymatgen
data_PrAl
_symmetry_space_group_name_H-M   'P 1'
_cell_length_a   5.73650700
_cell_length_b   6.04989266
_cell_length_c   6.04974990
_cell_angle_alpha   100.84139211
_cell_angle_beta   90.00000000
_cell_angle_gamma   90.00000000
_symmetry_Int_Tables_number   1
_chemical_formula_structural   PrAl
_chemical_formula_sum   'Pr4 Al4'
_cell_volume   206.21068151
_cell_formula_units_Z   4
loop_
 _symmetry_equiv_pos_site_id
 _symmetry_equiv_pos_as_xyz
  1  'x, y, z'
loop_
 _atom_site_type_symbol
 _atom_site_label
 _atom_site_symmetry_multiplicity
 _atom_site_fract_x
 _atom_site_fract_y
 _atom_site_fract_z
 _atom_site_occupancy
  Pr  Pr0  1  0.25000100  0.33958466  0.98185686  1
  Pr  Pr1  1  0.25000000  0.98186740  0.33961072  1
  Pr  Pr2  1  0.75000000  0.01813260  0.66038928  1
  Pr  Pr3  1  0.74999900  0.66041534  0.01814314  1
  Al  Al0  1  0.25000000  0.80165126  0.80166309  1
  Al  Al1  1  0.75000000  0.19834874  0.19833691  1
  Al  Al2  1  -0.00000000  0.50000000  0.50000000  1
  Al  Al3  1  0.50000000  0.50000000  0.50000000  1
loop_
_geom_bond_atom_site_label_1
_geom_bond_atom_site_label_2
_geom_bond_distance
_geom_bond_site_symmetry_2
Pr0 Pr1 3.336142 1_546
Pr0 Pr3 3.447051 1_556
Pr0 Pr3 3.447070 1_456
Pr0 Pr2 3.790563 1_555
Pr0 Pr2 3.790571 1_455
Pr0 Pr1 4.076386 1_545
Pr0 Pr1 4.076713 1_556
Pr1 Pr2 3.446867 1_565
Pr1 Pr2 3.446867 1_465
Pr1 Pr3 3.790563 1_555
Pr1 Pr3 3.790571 1_455
Pr2 Pr3 3.336142 1_546
Pr2 Pr3 4.076386 1_545
Pr2 Pr3 4.076713 1_556
Al0 Al2 2.732194 1_555
Al0 Al3 2.732194 1_555
Al0 Pr1 3.185737 1_555
Al0 Pr0 3.185799 1_555
Al0 Pr0 3.231896 1_565
Al0 Pr1 3.231929 1_556
Al0 Pr3 3.330630 1_556
Al0 Pr3 3.330640 1_456
Al0 Pr2 3.330722 1_465
Al0 Pr2 3.330722 1_565
Al1 Al2 2.732194 1_655
Al1 Al3 2.732194 1_555
Al1 Pr2 3.185737 1_555
Al1 Pr3 3.185799 1_555
Al1 Pr3 3.231896 1_545
Al1 Pr2 3.231929 1_554
Al1 Pr0 3.330630 1_554
Al1 Pr0 3.330640 1_654
Al1 Pr1 3.330722 1_545
Al1 Pr1 3.330722 1_645
Al2 Al3 2.868253 1_555
Al2 Al3 2.868253 1_455
Al2 Pr2 3.417608 1_465
Al2 Pr1 3.417608 1_545
Al2 Pr0 3.417622 1_554
Al2 Pr3 3.417622 1_456
Al2 Pr3 3.544114 1_455
Al2 Pr0 3.544114 1_555
Al2 Pr1 3.544150 1_555
Al2 Pr2 3.544150 1_455
Al3 Pr2 3.417608 1_565
Al3 Pr1 3.417608 1_545
Al3 Pr0 3.417617 1_554
Al3 Pr3 3.417617 1_556
Al3 Pr3 3.544109 1_555
Al3 Pr0 3.544109 1_555
Al3 Pr1 3.544150 1_555
Al3 Pr2 3.544150 1_555
