# generated using pymatgen
data_YMgGa
_symmetry_space_group_name_H-M   'P 1'
_cell_length_a   7.26296372
_cell_length_b   7.26296675
_cell_length_c   4.42438267
_cell_angle_alpha   90.00000000
_cell_angle_beta   90.00000000
_cell_angle_gamma   120.00001639
_symmetry_Int_Tables_number   1
_chemical_formula_structural   YMgGa
_chemical_formula_sum   'Y3 Mg3 Ga3'
_cell_volume   202.12087672
_cell_formula_units_Z   3
loop_
 _symmetry_equiv_pos_site_id
 _symmetry_equiv_pos_as_xyz
  1  'x, y, z'
loop_
 _atom_site_type_symbol
 _atom_site_label
 _atom_site_symmetry_multiplicity
 _atom_site_fract_x
 _atom_site_fract_y
 _atom_site_fract_z
 _atom_site_occupancy
  Y  Y0  1  0.00000000  0.57448723  0.50000000  1
  Y  Y1  1  0.42551277  0.42551277  0.50000000  1
  Y  Y2  1  0.57448723  0.00000000  0.50000000  1
  Mg  Mg0  1  0.00000000  0.24362554  0.00000000  1
  Mg  Mg1  1  0.75637446  0.75637446  -0.00000000  1
  Mg  Mg2  1  0.24362554  0.00000000  0.00000000  1
  Ga  Ga0  1  0.33333300  0.66666700  0.00000000  1
  Ga  Ga1  1  0.66666700  0.33333300  -0.00000000  1
  Ga  Ga2  1  0.00000000  0.00000000  0.50000000  1
loop_
_geom_bond_atom_site_label_1
_geom_bond_atom_site_label_2
_geom_bond_distance
_geom_bond_site_symmetry_2
Ga0 Mg2 2.804114 1_565
Ga0 Mg0 2.804118 1_555
Ga0 Mg1 2.804120 1_555
Ga0 Y0 3.095536 1_554
Ga0 Y0 3.095536 1_555
Ga0 Y2 3.095537 1_564
Ga0 Y2 3.095537 1_565
Ga0 Y1 3.095542 1_555
Ga0 Y1 3.095542 1_554
Ga1 Mg0 2.804114 1_655
Ga1 Mg2 2.804118 1_555
Ga1 Mg1 2.804122 1_555
Ga1 Y2 3.095537 1_554
Ga1 Y2 3.095537 1_555
Ga1 Y0 3.095537 1_655
Ga1 Y0 3.095537 1_654
Ga1 Y1 3.095541 1_555
Ga1 Y1 3.095541 1_554
Ga2 Mg1 2.832794 1_446
Ga2 Mg1 2.832794 1_445
Ga2 Mg2 2.832794 1_556
Ga2 Mg2 2.832794 1_555
Ga2 Mg0 2.832794 1_556
Ga2 Mg0 2.832794 1_555
Ga2 Y1 3.090484 1_555
Ga2 Y2 3.090484 1_455
Ga2 Y0 3.090485 1_545
