# generated using pymatgen
data_Ba2InBrO3
_symmetry_space_group_name_H-M   'P 1'
_cell_length_a   4.31416300
_cell_length_b   4.31416300
_cell_length_c   15.73323400
_cell_angle_alpha   90.00000000
_cell_angle_beta   90.00000000
_cell_angle_gamma   90.00000000
_symmetry_Int_Tables_number   1
_chemical_formula_structural   Ba2InBrO3
_chemical_formula_sum   'Ba4 In2 Br2 O6'
_cell_volume   292.82698882
_cell_formula_units_Z   2
loop_
 _symmetry_equiv_pos_site_id
 _symmetry_equiv_pos_as_xyz
  1  'x, y, z'
loop_
 _atom_site_type_symbol
 _atom_site_label
 _atom_site_symmetry_multiplicity
 _atom_site_fract_x
 _atom_site_fract_y
 _atom_site_fract_z
 _atom_site_occupancy
  Ba  Ba0  1  0.00000000  0.50000000  0.65976600  1
  Ba  Ba1  1  0.50000000  0.00000000  0.34023400  1
  Ba  Ba2  1  0.50000000  0.00000000  0.09210900  1
  Ba  Ba3  1  0.00000000  0.50000000  0.90789100  1
  In  In0  1  0.00000000  0.50000000  0.20653600  1
  In  In1  1  0.50000000  0.00000000  0.79346400  1
  Br  Br0  1  0.50000000  0.00000000  0.57572500  1
  Br  Br1  1  0.00000000  0.50000000  0.42427500  1
  O  O0  1  0.00000000  0.00000000  0.77001300  1
  O  O1  1  0.50000000  0.50000000  0.77001300  1
  O  O2  1  0.00000000  0.00000000  0.22998700  1
  O  O3  1  0.50000000  0.00000000  0.92772800  1
  O  O4  1  0.50000000  0.50000000  0.22998700  1
  O  O5  1  0.00000000  0.50000000  0.07227200  1
loop_
_geom_bond_atom_site_label_1
_geom_bond_atom_site_label_2
_geom_bond_distance
_geom_bond_site_symmetry_2
Ba0 O0 2.767966 1_555
Ba0 O1 2.767966 1_455
Ba0 O1 2.767966 1_555
Ba0 O0 2.767966 1_565
Ba0 Br0 3.324802 1_555
Ba0 Br0 3.324802 1_465
Ba0 Br0 3.324802 1_565
Ba0 Br0 3.324802 1_455
Ba0 Br1 3.705035 1_555
Ba1 O2 2.767966 1_655
Ba1 O4 2.767966 1_555
Ba1 O2 2.767966 1_555
Ba1 O4 2.767966 1_545
Ba1 Br1 3.324802 1_545
Ba1 Br1 3.324802 1_555
Ba1 Br1 3.324802 1_655
Ba1 Br1 3.324802 1_645
Ba1 Br0 3.705035 1_555
Ba2 O3 2.586245 1_554
Ba2 O2 3.059202 1_555
Ba2 O4 3.059202 1_545
Ba2 O2 3.059202 1_655
Ba2 O4 3.059202 1_555
Ba2 O5 3.066498 1_645
Ba2 O5 3.066498 1_555
Ba2 O5 3.066498 1_655
Ba2 O5 3.066498 1_545
Ba3 O5 2.586245 1_556
Ba3 O0 3.059202 1_555
Ba3 O1 3.059202 1_555
Ba3 O0 3.059202 1_565
Ba3 O1 3.059202 1_455
Ba3 O3 3.066498 1_455
Ba3 O3 3.066498 1_555
Ba3 O3 3.066498 1_565
Ba3 O3 3.066498 1_465
In0 O5 2.112407 1_555
In0 O4 2.188409 1_455
In0 O2 2.188409 1_565
In0 O4 2.188409 1_555
In0 O2 2.188409 1_555
In1 O3 2.112407 1_555
In1 O0 2.188409 1_655
In1 O1 2.188409 1_555
In1 O1 2.188409 1_545
In1 O0 2.188409 1_555
