# generated using pymatgen
data_Ba(InAu)2
_symmetry_space_group_name_H-M   'P 1'
_cell_length_a   4.76020389
_cell_length_b   8.83485852
_cell_length_c   12.56808883
_cell_angle_alpha   90.00000000
_cell_angle_beta   90.00000000
_cell_angle_gamma   90.00000000
_symmetry_Int_Tables_number   1
_chemical_formula_structural   Ba(InAu)2
_chemical_formula_sum   'Ba4 In8 Au8'
_cell_volume   528.56012399
_cell_formula_units_Z   4
loop_
 _symmetry_equiv_pos_site_id
 _symmetry_equiv_pos_as_xyz
  1  'x, y, z'
loop_
 _atom_site_type_symbol
 _atom_site_label
 _atom_site_symmetry_multiplicity
 _atom_site_fract_x
 _atom_site_fract_y
 _atom_site_fract_z
 _atom_site_occupancy
  Ba  Ba0  1  0.75000000  0.72002813  0.33329347  1
  Ba  Ba1  1  0.25000000  0.77997187  0.83329347  1
  Ba  Ba2  1  0.25000000  0.27997187  0.66670653  1
  Ba  Ba3  1  0.75000000  0.22002813  0.16670653  1
  In  In0  1  0.25000000  0.36189970  0.35790325  1
  In  In1  1  0.25000000  0.86189970  0.14209675  1
  In  In2  1  0.75000000  0.60174165  0.04882700  1
  In  In3  1  0.75000000  0.63810030  0.64209675  1
  In  In4  1  0.75000000  0.13810030  0.85790325  1
  In  In5  1  0.25000000  0.89825835  0.54882700  1
  In  In6  1  0.75000000  0.10174165  0.45117300  1
  In  In7  1  0.25000000  0.39825835  0.95117300  1
  Au  Au0  1  0.25000000  0.09000609  0.97853261  1
  Au  Au1  1  0.75000000  0.47210263  0.83740628  1
  Au  Au2  1  0.75000000  0.97210263  0.66259372  1
  Au  Au3  1  0.25000000  0.52789737  0.16259372  1
  Au  Au4  1  0.25000000  0.02789737  0.33740628  1
  Au  Au5  1  0.75000000  0.90999391  0.02146739  1
  Au  Au6  1  0.25000000  0.59000609  0.52146739  1
  Au  Au7  1  0.75000000  0.40999391  0.47853261  1
loop_
_geom_bond_atom_site_label_1
_geom_bond_atom_site_label_2
_geom_bond_distance
_geom_bond_site_symmetry_2
Ba0 In1 3.606970 1_655
Ba0 In1 3.606970 1_555
Ba0 In6 3.683461 1_565
Ba0 In2 3.724805 1_555
Ba1 In3 3.606970 1_555
Ba1 In3 3.606970 1_455
Ba1 In7 3.683461 1_555
Ba1 In5 3.724805 1_555
Ba2 In4 3.606970 1_455
Ba2 In4 3.606970 1_555
Ba2 In5 3.683461 1_545
Ba2 In7 3.724805 1_555
Ba3 In0 3.606970 1_555
Ba3 In0 3.606970 1_655
Ba3 In2 3.683461 1_555
Ba3 In6 3.724805 1_555
Au0 In7 2.744987 1_555
Au0 In4 2.853757 1_455
Au0 In4 2.853757 1_555
Au0 In1 2.878757 1_546
Au0 Au5 2.912967 1_446
Au0 Au5 2.912967 1_546
Au0 Ba1 3.291614 1_545
Au0 Ba3 3.546494 1_456
Au0 Ba3 3.546494 1_556
Au1 In7 2.852180 1_555
Au1 In7 2.852180 1_655
Au1 In3 2.859407 1_555
Au1 In2 2.893489 1_556
Au1 In4 2.962086 1_555
Au1 Ba1 3.614672 1_555
Au1 Ba1 3.614672 1_655
Au1 Ba2 3.626131 1_555
Au1 Ba2 3.626131 1_655
Au2 In5 2.852180 1_555
Au2 In5 2.852180 1_655
Au2 In4 2.859407 1_565
Au2 In6 2.893489 1_565
Au2 In3 2.962086 1_555
Au2 Ba2 3.614672 1_565
Au2 Ba2 3.614672 1_665
Au2 Ba1 3.626131 1_555
Au2 Ba1 3.626131 1_655
Au3 In2 2.852180 1_455
Au3 In2 2.852180 1_555
Au3 In0 2.859407 1_555
Au3 In7 2.893489 1_554
Au3 In1 2.962086 1_555
Au3 Ba3 3.614672 1_455
Au3 Ba3 3.614672 1_555
Au3 Ba0 3.626131 1_455
Au3 Ba0 3.626131 1_555
Au4 In6 2.852180 1_455
Au4 In6 2.852180 1_555
Au4 In1 2.859407 1_545
Au4 In5 2.893489 1_545
Au4 In0 2.962086 1_555
Au4 Ba0 3.614672 1_445
Au4 Ba0 3.614672 1_545
Au4 Ba3 3.626131 1_455
Au4 Ba3 3.626131 1_555
Au5 In2 2.744987 1_555
Au5 In1 2.853757 1_655
Au5 In1 2.853757 1_555
Au5 In4 2.878757 1_564
Au5 Ba3 3.291614 1_565
Au5 Ba1 3.546494 1_554
Au5 Ba1 3.546494 1_654
Au6 In5 2.744987 1_555
Au6 In3 2.853757 1_455
Au6 In3 2.853757 1_555
Au6 In0 2.878757 1_555
Au6 Au7 2.912967 1_555
Au6 Au7 2.912967 1_455
Au6 Ba2 3.291614 1_555
Au6 Ba0 3.546494 1_555
Au6 Ba0 3.546494 1_455
Au7 In6 2.744987 1_555
Au7 In0 2.853757 1_555
Au7 In0 2.853757 1_655
Au7 In3 2.878757 1_555
Au7 Ba0 3.291614 1_555
Au7 Ba2 3.546494 1_555
Au7 Ba2 3.546494 1_655
