# generated using pymatgen
data_Cu8GeSe6
_symmetry_space_group_name_H-M   'P 1'
_cell_length_a   12.72122300
_cell_length_b   12.72122300
_cell_length_c   11.78547900
_cell_angle_alpha   90.00000000
_cell_angle_beta   90.00000000
_cell_angle_gamma   119.99999481
_symmetry_Int_Tables_number   1
_chemical_formula_structural   Cu8GeSe6
_chemical_formula_sum   'Cu48 Ge6 Se36'
_cell_volume   1651.71694586
_cell_formula_units_Z   6
loop_
 _symmetry_equiv_pos_site_id
 _symmetry_equiv_pos_as_xyz
  1  'x, y, z'
loop_
 _atom_site_type_symbol
 _atom_site_label
 _atom_site_symmetry_multiplicity
 _atom_site_fract_x
 _atom_site_fract_y
 _atom_site_fract_z
 _atom_site_occupancy
  Cu  Cu0  1  0.83893700  0.19466700  0.05530800  1
  Cu  Cu1  1  0.16106300  0.80533300  0.55530800  1
  Cu  Cu2  1  0.12914800  0.64074800  0.93015500  1
  Cu  Cu3  1  0.80533300  0.16106300  0.55530800  1
  Cu  Cu4  1  0.87085200  0.35925200  0.43015500  1
  Cu  Cu5  1  0.83893700  0.64427000  0.55530800  1
  Cu  Cu6  1  0.35573000  0.16106300  0.05530800  1
  Cu  Cu7  1  0.19466700  0.35573000  0.55530800  1
  Cu  Cu8  1  0.45941200  0.00000000  0.76925100  1
  Cu  Cu9  1  0.80533300  0.64427000  0.05530800  1
  Cu  Cu10  1  0.51159900  0.87085200  0.93015500  1
  Cu  Cu11  1  0.80867300  0.66621800  0.83610400  1
  Cu  Cu12  1  0.35925200  0.48840100  0.93015500  1
  Cu  Cu13  1  0.14245500  0.33378200  0.83610400  1
  Cu  Cu14  1  0.48840100  0.35925200  0.93015500  1
  Cu  Cu15  1  0.54058800  0.00000000  0.26925100  1
  Cu  Cu16  1  0.00000000  0.18696800  0.45822600  1
  Cu  Cu17  1  0.35925200  0.87085200  0.43015500  1
  Cu  Cu18  1  0.85754500  0.66621800  0.33610400  1
  Cu  Cu19  1  0.18696800  0.18696800  0.95822600  1
  Cu  Cu20  1  0.35573000  0.19466700  0.55530800  1
  Cu  Cu21  1  0.33378200  0.19132700  0.33610400  1
  Cu  Cu22  1  0.00000000  0.45941200  0.76925100  1
  Cu  Cu23  1  0.64427000  0.83893700  0.55530800  1
  Cu  Cu24  1  0.64074800  0.51159900  0.43015500  1
  Cu  Cu25  1  0.33378200  0.14245500  0.83610400  1
  Cu  Cu26  1  0.87085200  0.51159900  0.93015500  1
  Cu  Cu27  1  0.64074800  0.12914800  0.93015500  1
  Cu  Cu28  1  0.80867300  0.14245500  0.33610400  1
  Cu  Cu29  1  0.85754500  0.19132700  0.83610400  1
  Cu  Cu30  1  0.19132700  0.33378200  0.33610400  1
  Cu  Cu31  1  0.51159900  0.64074800  0.43015500  1
  Cu  Cu32  1  0.64427000  0.80533300  0.05530800  1
  Cu  Cu33  1  0.81303200  0.00000000  0.95822600  1
  Cu  Cu34  1  0.45941200  0.45941200  0.26925100  1
  Cu  Cu35  1  0.00000000  0.54058800  0.26925100  1
  Cu  Cu36  1  0.18696800  0.00000000  0.45822600  1
  Cu  Cu37  1  0.00000000  0.81303200  0.95822600  1
  Cu  Cu38  1  0.14245500  0.80867300  0.33610400  1
  Cu  Cu39  1  0.48840100  0.12914800  0.43015500  1
  Cu  Cu40  1  0.12914800  0.48840100  0.43015500  1
  Cu  Cu41  1  0.54058800  0.54058800  0.76925100  1
  Cu  Cu42  1  0.19466700  0.83893700  0.05530800  1
  Cu  Cu43  1  0.66621800  0.85754500  0.33610400  1
  Cu  Cu44  1  0.19132700  0.85754500  0.83610400  1
  Cu  Cu45  1  0.81303200  0.81303200  0.45822600  1
  Cu  Cu46  1  0.16106300  0.35573000  0.05530800  1
  Cu  Cu47  1  0.66621800  0.80867300  0.83610400  1
  Ge  Ge0  1  0.66666700  0.33333300  0.67313800  1
  Ge  Ge1  1  0.66666700  0.33333300  0.17313800  1
  Ge  Ge2  1  0.33333300  0.66666700  0.17313800  1
  Ge  Ge3  1  0.00000000  0.00000000  0.70048600  1
  Ge  Ge4  1  0.33333300  0.66666700  0.67313800  1
  Ge  Ge5  1  0.00000000  0.00000000  0.20048600  1
  Se  Se0  1  0.65163800  0.00000000  0.07867800  1
  Se  Se1  1  0.00000000  0.63997400  0.44499300  1
  Se  Se2  1  0.34836200  0.34836200  0.07867800  1
  Se  Se3  1  0.00000000  0.18252300  0.24669600  1
  Se  Se4  1  0.00000000  0.34836200  0.57867800  1
  Se  Se5  1  0.81747700  0.81747700  0.24669600  1
  Se  Se6  1  0.33333300  0.66666700  0.97144500  1
  Se  Se7  1  0.65163800  0.65163800  0.57867800  1
  Se  Se8  1  0.84369100  0.51856200  0.72339900  1
  Se  Se9  1  0.18252300  0.00000000  0.24669600  1
  Se  Se10  1  0.66666700  0.33333300  0.47144500  1
  Se  Se11  1  0.32512900  0.48143800  0.72339900  1
  Se  Se12  1  0.81747700  0.00000000  0.74669600  1
  Se  Se13  1  0.00000000  0.65163800  0.07867800  1
  Se  Se14  1  0.67487100  0.51856200  0.22339900  1
  Se  Se15  1  0.00000000  0.00000000  0.49922600  1
  Se  Se16  1  0.84369100  0.32512900  0.22339900  1
  Se  Se17  1  0.34836200  0.00000000  0.57867800  1
  Se  Se18  1  0.33333300  0.66666700  0.47144500  1
  Se  Se19  1  0.18252300  0.18252300  0.74669600  1
  Se  Se20  1  0.51856200  0.84369100  0.72339900  1
  Se  Se21  1  0.32512900  0.84369100  0.22339900  1
  Se  Se22  1  0.15630900  0.48143800  0.22339900  1
  Se  Se23  1  0.15630900  0.67487100  0.72339900  1
  Se  Se24  1  0.66666700  0.33333300  0.97144500  1
  Se  Se25  1  0.00000000  0.81747700  0.74669600  1
  Se  Se26  1  0.00000000  0.36002600  0.94499300  1
  Se  Se27  1  0.36002600  0.00000000  0.94499300  1
  Se  Se28  1  0.63997400  0.00000000  0.44499300  1
  Se  Se29  1  0.51856200  0.67487100  0.22339900  1
  Se  Se30  1  0.63997400  0.63997400  0.94499300  1
  Se  Se31  1  0.36002600  0.36002600  0.44499300  1
  Se  Se32  1  0.67487100  0.15630900  0.72339900  1
  Se  Se33  1  0.48143800  0.32512900  0.72339900  1
  Se  Se34  1  0.00000000  0.00000000  0.99922600  1
  Se  Se35  1  0.48143800  0.15630900  0.22339900  1
loop_
_geom_bond_atom_site_label_1
_geom_bond_atom_site_label_2
_geom_bond_distance
_geom_bond_site_symmetry_2
Cu0 Se0 2.446447 1_555
Cu0 Se26 2.450169 1_654
Cu0 Se16 2.565574 1_555
Cu0 Se3 3.102610 1_655
Cu1 Se17 2.446447 1_565
Cu1 Se1 2.450169 1_555
Cu1 Se23 2.565574 1_555
Cu1 Se25 3.102610 1_555
Cu2 Se13 2.451516 1_556
Cu2 Se23 2.468892 1_555
Cu2 Se6 2.497196 1_555
Cu2 Se26 3.100910 1_555
Cu3 Se4 2.446447 1_655
Cu3 Se28 2.450169 1_555
Cu3 Se32 2.565574 1_555
Cu3 Se12 3.102610 1_555
Cu4 Se4 2.451516 1_655
Cu4 Se16 2.468892 1_555
Cu4 Se10 2.497196 1_555
Cu4 Se1 3.100910 1_655
Cu5 Se7 2.446446 1_555
Cu5 Se1 2.450169 1_655
Cu5 Se8 2.565574 1_555
Cu5 Se25 3.102610 1_655
Cu6 Se2 2.446446 1_555
Cu6 Se27 2.450169 1_554
Cu6 Se35 2.565574 1_555
Cu6 Se9 3.102610 1_555
Cu7 Se4 2.446447 1_555
Cu7 Se31 2.450169 1_555
Cu7 Se11 2.565574 1_555
Cu7 Se19 3.102610 1_555
Cu8 Se27 2.426596 1_555
Cu8 Se20 2.511641 1_545
Cu8 Se32 2.511641 1_555
Cu8 Se17 2.653335 1_555
Cu9 Se13 2.446447 1_655
Cu9 Se30 2.450169 1_554
Cu9 Se14 2.565574 1_555
Cu9 Se5 3.102610 1_555
Cu10 Se0 2.451521 1_566
Cu10 Se20 2.468893 1_555
Cu10 Se6 2.497197 1_555
Cu10 Se27 3.100898 1_565
Cu11 Se30 2.376432 1_555
Cu11 Se25 2.460378 1_655
Cu11 Se8 2.515510 1_555
Cu12 Se2 2.451525 1_556
Cu12 Se11 2.468891 1_555
Cu12 Se6 2.497196 1_555
Cu12 Se30 3.100909 1_555
Cu13 Se26 2.376432 1_555
Cu13 Se19 2.460378 1_555
Cu13 Se11 2.515511 1_555
Cu14 Se2 2.451525 1_556
Cu14 Se33 2.468891 1_555
Cu14 Se24 2.497196 1_555
Cu14 Se30 3.100909 1_555
Cu15 Se28 2.426596 1_555
Cu15 Se35 2.511641 1_555
Cu15 Se21 2.511641 1_545
Cu15 Se0 2.653335 1_555
Cu16 Se15 2.427049 1_555
Cu16 Se3 2.493624 1_555
Cu16 Se4 2.496109 1_555
Cu17 Se17 2.451516 1_565
Cu17 Se21 2.468892 1_555
Cu17 Se18 2.497196 1_555
Cu17 Se28 3.100910 1_565
Cu18 Se1 2.376432 1_655
Cu18 Se5 2.460378 1_555
Cu18 Se14 2.515511 1_555
Cu19 Se34 2.427049 1_555
Cu19 Se19 2.493624 1_555
Cu19 Se2 2.496109 1_556
Cu20 Se17 2.446447 1_555
Cu20 Se31 2.450169 1_555
Cu20 Se33 2.565574 1_555
Cu20 Se19 3.102610 1_555
Cu21 Se31 2.376432 1_555
Cu21 Se9 2.460378 1_555
Cu21 Se35 2.515510 1_555
Cu22 Se26 2.426596 1_555
Cu22 Se8 2.511641 1_455
Cu22 Se23 2.511641 1_555
Cu22 Se4 2.653335 1_555
Cu23 Se7 2.446446 1_555
Cu23 Se28 2.450169 1_565
Cu23 Se20 2.565574 1_555
Cu23 Se12 3.102610 1_565
Cu24 Se7 2.451525 1_555
Cu24 Se14 2.468891 1_555
Cu24 Se10 2.497196 1_555
Cu24 Se31 3.100909 1_555
Cu25 Se27 2.376432 1_555
Cu25 Se19 2.460378 1_555
Cu25 Se33 2.515511 1_555
Cu26 Se13 2.451521 1_656
Cu26 Se8 2.468893 1_555
Cu26 Se24 2.497197 1_555
Cu26 Se26 3.100898 1_655
Cu27 Se0 2.451516 1_556
Cu27 Se32 2.468892 1_555
Cu27 Se24 2.497196 1_555
Cu27 Se27 3.100910 1_555
Cu28 Se28 2.376433 1_555
Cu28 Se3 2.460378 1_655
Cu28 Se16 2.515510 1_555
Cu29 Se26 2.376433 1_655
Cu29 Se12 2.460378 1_555
Cu29 Se32 2.515510 1_555
Cu30 Se31 2.376432 1_555
Cu30 Se3 2.460378 1_555
Cu30 Se22 2.515510 1_555
Cu31 Se7 2.451525 1_555
Cu31 Se29 2.468891 1_555
Cu31 Se18 2.497196 1_555
Cu31 Se31 3.100909 1_555
Cu32 Se0 2.446447 1_565
Cu32 Se30 2.450169 1_554
Cu32 Se29 2.565574 1_555
Cu32 Se5 3.102610 1_555
Cu33 Se34 2.427049 1_655
Cu33 Se12 2.493624 1_555
Cu33 Se0 2.496109 1_556
Cu34 Se31 2.426596 1_555
Cu34 Se29 2.511641 1_555
Cu34 Se14 2.511641 1_555
Cu34 Se2 2.653335 1_555
Cu35 Se1 2.426596 1_555
Cu35 Se22 2.511641 1_555
Cu35 Se16 2.511641 1_455
Cu35 Se13 2.653335 1_555
Cu36 Se15 2.427049 1_555
Cu36 Se9 2.493624 1_555
Cu36 Se17 2.496109 1_555
Cu37 Se34 2.427049 1_565
Cu37 Se25 2.493624 1_555
Cu37 Se13 2.496109 1_556
Cu38 Se1 2.376433 1_555
Cu38 Se9 2.460378 1_565
Cu38 Se21 2.515510 1_555
Cu39 Se17 2.451521 1_555
Cu39 Se35 2.468893 1_555
Cu39 Se10 2.497197 1_555
Cu39 Se28 3.100898 1_555
Cu40 Se4 2.451521 1_555
Cu40 Se22 2.468893 1_555
Cu40 Se18 2.497197 1_555
Cu40 Se1 3.100898 1_555
Cu41 Se30 2.426596 1_555
Cu41 Se11 2.511641 1_555
Cu41 Se33 2.511641 1_555
Cu41 Se7 2.653335 1_555
Cu42 Se13 2.446447 1_555
Cu42 Se27 2.450169 1_564
Cu42 Se21 2.565574 1_555
Cu42 Se9 3.102610 1_565
Cu43 Se28 2.376432 1_565
Cu43 Se5 2.460378 1_555
Cu43 Se29 2.515511 1_555
Cu44 Se27 2.376433 1_565
Cu44 Se25 2.460378 1_555
Cu44 Se23 2.515510 1_555
Cu45 Se15 2.427049 1_665
Cu45 Se5 2.493624 1_555
Cu45 Se7 2.496109 1_555
Cu46 Se2 2.446446 1_555
Cu46 Se26 2.450169 1_554
Cu46 Se22 2.565574 1_555
Cu46 Se3 3.102610 1_555
Cu47 Se30 2.376432 1_555
Cu47 Se12 2.460378 1_565
Cu47 Se20 2.515510 1_555
Ge0 Se10 2.377049 1_555
Ge0 Se32 2.380783 1_555
Ge0 Se8 2.380790 1_555
Ge0 Se33 2.380795 1_555
Ge1 Se24 2.377049 1_554
Ge1 Se16 2.380783 1_555
Ge1 Se35 2.380790 1_555
Ge1 Se14 2.380795 1_555
Ge2 Se6 2.377049 1_554
Ge2 Se21 2.380783 1_555
Ge2 Se22 2.380790 1_555
Ge2 Se29 2.380795 1_555
Ge3 Se15 2.371946 1_555
Ge3 Se25 2.384930 1_545
Ge3 Se12 2.384930 1_455
Ge3 Se19 2.384930 1_555
Ge4 Se18 2.377049 1_555
Ge4 Se23 2.380783 1_555
Ge4 Se20 2.380790 1_555
Ge4 Se11 2.380795 1_555
Ge5 Se34 2.371946 1_554
Ge5 Se3 2.384930 1_555
Ge5 Se9 2.384930 1_555
Ge5 Se5 2.384930 1_445
