# generated using pymatgen
data_Li23(MnAs)20
_symmetry_space_group_name_H-M   'P 1'
_cell_length_a   4.43672200
_cell_length_b   4.43672200
_cell_length_c   55.40841300
_cell_angle_alpha   90.00000000
_cell_angle_beta   90.00000000
_cell_angle_gamma   90.00000000
_symmetry_Int_Tables_number   1
_chemical_formula_structural   Li23(MnAs)20
_chemical_formula_sum   'Li23 Mn20 As20'
_cell_volume   1090.68702235
_cell_formula_units_Z   1
loop_
 _symmetry_equiv_pos_site_id
 _symmetry_equiv_pos_as_xyz
  1  'x, y, z'
loop_
 _atom_site_type_symbol
 _atom_site_label
 _atom_site_symmetry_multiplicity
 _atom_site_fract_x
 _atom_site_fract_y
 _atom_site_fract_z
 _atom_site_occupancy
  Li  Li0  1  0.00000000  0.50000000  0.05044100  1
  Li  Li1  1  0.00000000  0.50000000  0.14998100  1
  Li  Li2  1  0.00000000  0.50000000  0.24995200  1
  Li  Li3  1  0.00000000  0.50000000  0.44996700  1
  Li  Li4  1  0.00000000  0.50000000  0.64908000  1
  Li  Li5  1  0.00000000  0.50000000  0.75002600  1
  Li  Li6  1  0.00000000  0.50000000  0.85097500  1
  Li  Li7  1  0.00000000  0.00000000  0.82604100  1
  Li  Li8  1  0.50000000  0.00000000  0.05044100  1
  Li  Li9  1  0.50000000  0.00000000  0.24995200  1
  Li  Li10  1  0.50000000  0.00000000  0.14998100  1
  Li  Li11  1  0.50000000  0.00000000  0.35002400  1
  Li  Li12  1  0.50000000  0.00000000  0.55001100  1
  Li  Li13  1  0.50000000  0.00000000  0.44996700  1
  Li  Li14  1  0.50000000  0.00000000  0.75002600  1
  Li  Li15  1  0.50000000  0.00000000  0.64908000  1
  Li  Li16  1  0.50000000  0.50000000  0.67399300  1
  Li  Li17  1  0.50000000  0.00000000  0.85097500  1
  Li  Li18  1  0.50000000  0.00000000  0.94883300  1
  Li  Li19  1  0.50000000  0.50000000  0.97377300  1
  Li  Li20  1  0.00000000  0.50000000  0.35002400  1
  Li  Li21  1  0.00000000  0.50000000  0.55001100  1
  Li  Li22  1  0.00000000  0.50000000  0.94883300  1
  Mn  Mn0  1  0.00000000  0.50000000  0.00127200  1
  Mn  Mn1  1  0.00000000  0.50000000  0.10005900  1
  Mn  Mn2  1  0.00000000  0.50000000  0.19997800  1
  Mn  Mn3  1  0.00000000  0.50000000  0.30006500  1
  Mn  Mn4  1  0.00000000  0.50000000  0.39999600  1
  Mn  Mn5  1  0.00000000  0.50000000  0.49996000  1
  Mn  Mn6  1  0.00000000  0.50000000  0.59972800  1
  Mn  Mn7  1  0.00000000  0.50000000  0.79875200  1
  Mn  Mn8  1  0.00000000  0.50000000  0.89992900  1
  Mn  Mn9  1  0.50000000  0.00000000  0.00127200  1
  Mn  Mn10  1  0.50000000  0.00000000  0.19997800  1
  Mn  Mn11  1  0.50000000  0.00000000  0.10005900  1
  Mn  Mn12  1  0.50000000  0.00000000  0.39999600  1
  Mn  Mn13  1  0.50000000  0.00000000  0.30006500  1
  Mn  Mn14  1  0.50000000  0.00000000  0.49996000  1
  Mn  Mn15  1  0.50000000  0.00000000  0.70130000  1
  Mn  Mn16  1  0.50000000  0.00000000  0.59972800  1
  Mn  Mn17  1  0.50000000  0.00000000  0.89992900  1
  Mn  Mn18  1  0.50000000  0.00000000  0.79875200  1
  Mn  Mn19  1  0.00000000  0.50000000  0.70130000  1
  As  As0  1  0.00000000  0.00000000  0.07746900  1
  As  As1  1  0.00000000  0.00000000  0.17703500  1
  As  As2  1  0.00000000  0.00000000  0.27707000  1
  As  As3  1  0.00000000  0.00000000  0.57695600  1
  As  As4  1  0.00000000  0.00000000  0.77538200  1
  As  As5  1  0.00000000  0.00000000  0.87676800  1
  As  As6  1  0.50000000  0.50000000  0.02488400  1
  As  As7  1  0.50000000  0.50000000  0.12267900  1
  As  As8  1  0.50000000  0.50000000  0.22295300  1
  As  As9  1  0.50000000  0.50000000  0.42291100  1
  As  As10  1  0.50000000  0.50000000  0.32294500  1
  As  As11  1  0.50000000  0.50000000  0.52290600  1
  As  As12  1  0.50000000  0.50000000  0.62302000  1
  As  As13  1  0.50000000  0.50000000  0.82317200  1
  As  As14  1  0.50000000  0.50000000  0.92311100  1
  As  As15  1  0.50000000  0.50000000  0.72471200  1
  As  As16  1  0.00000000  0.00000000  0.37707000  1
  As  As17  1  0.00000000  0.00000000  0.47707700  1
  As  As18  1  0.00000000  0.00000000  0.67679000  1
  As  As19  1  0.00000000  0.00000000  0.97662300  1
loop_
_geom_bond_atom_site_label_1
_geom_bond_atom_site_label_2
_geom_bond_distance
_geom_bond_site_symmetry_2
Li0 Mn0 2.724376 1_555
Li0 Mn1 2.749255 1_555
Li1 Mn1 2.766099 1_555
Li1 Mn2 2.770254 1_555
Li2 Mn2 2.768980 1_555
Li2 Mn3 2.776682 1_555
Li3 Mn4 2.768814 1_555
Li3 Mn5 2.770033 1_555
Li4 Mn6 2.734516 1_555
Li4 Mn19 2.893427 1_555
Li5 Mn19 2.699830 1_555
Li5 Mn7 2.699830 1_555
Li6 Li7 2.613392 1_555
Li6 Li7 2.613392 1_565
Li6 Mn8 2.712463 1_555
Li6 Mn7 2.893594 1_555
Li7 Mn7 2.684658 1_555
Li7 Mn18 2.684658 1_455
Li7 Mn7 2.684658 1_545
Li7 Mn18 2.684658 1_555
Li8 Mn9 2.724376 1_555
Li8 Mn11 2.749255 1_555
Li9 Mn10 2.768980 1_555
Li9 Mn13 2.776682 1_555
Li10 Mn11 2.766099 1_555
Li10 Mn10 2.770254 1_555
Li11 Mn13 2.768149 1_555
Li11 Mn12 2.768869 1_555
Li12 Mn16 2.754740 1_555
Li12 Mn14 2.773246 1_555
Li13 Mn12 2.768814 1_555
Li13 Mn14 2.770033 1_555
Li14 Mn15 2.699830 1_555
Li14 Mn18 2.699830 1_555
Li15 Li16 2.612777 1_545
Li15 Li16 2.612777 1_555
Li15 Mn16 2.734516 1_555
Li15 Mn15 2.893427 1_555
Li16 Li4 2.612777 1_555
Li16 Li4 2.612777 1_655
Li16 Mn15 2.685220 1_555
Li16 Mn15 2.685220 1_565
Li16 Mn19 2.685220 1_555
Li16 Mn19 2.685220 1_655
Li17 Li7 2.613392 1_555
Li17 Li7 2.613392 1_655
Li17 Mn17 2.712463 1_555
Li17 Mn18 2.893594 1_555
Li18 Li19 2.613567 1_545
Li18 Li19 2.613567 1_555
Li18 Mn17 2.709693 1_555
Li18 Mn9 2.905562 1_556
Li19 Li22 2.613567 1_555
Li19 Li22 2.613567 1_655
Li19 Mn9 2.691229 1_556
Li19 Mn0 2.691229 1_556
Li19 Mn9 2.691229 1_566
Li19 Mn0 2.691229 1_656
Li20 Mn3 2.768149 1_555
Li20 Mn4 2.768869 1_555
Li21 Mn6 2.754740 1_555
Li21 Mn5 2.773246 1_555
Li22 Mn8 2.709693 1_555
Li22 Mn0 2.905562 1_556
As0 Mn11 2.547120 1_455
As0 Mn1 2.547120 1_555
As0 Mn1 2.547120 1_545
As0 Mn11 2.547120 1_555
As0 Li8 2.676540 1_455
As0 Li8 2.676540 1_555
As0 Li0 2.676540 1_545
As0 Li0 2.676540 1_555
As1 Mn2 2.556788 1_555
As1 Mn10 2.556788 1_455
As1 Mn2 2.556788 1_545
As1 Mn10 2.556788 1_555
As1 Li10 2.677346 1_455
As1 Li1 2.677346 1_555
As1 Li10 2.677346 1_555
As1 Li1 2.677346 1_545
As2 Mn13 2.558222 1_555
As2 Mn13 2.558222 1_455
As2 Mn3 2.558222 1_545
As2 Mn3 2.558222 1_555
As2 Li9 2.679334 1_555
As2 Li2 2.679334 1_555
As2 Li2 2.679334 1_545
As2 Li9 2.679334 1_455
As3 Mn6 2.552090 1_545
As3 Mn16 2.552090 1_455
As3 Mn6 2.552090 1_555
As3 Mn16 2.552090 1_555
As3 Li21 2.673970 1_545
As3 Li12 2.673970 1_555
As3 Li12 2.673970 1_455
As3 Li21 2.673970 1_555
As4 Mn7 2.568633 1_555
As4 Mn7 2.568633 1_545
As4 Mn18 2.568633 1_455
As4 Mn18 2.568633 1_555
As4 Li5 2.625827 1_555
As4 Li5 2.625827 1_545
As4 Li14 2.625827 1_455
As4 Li14 2.625827 1_555
As4 Li7 2.806935 1_555
As5 Mn8 2.562815 1_545
As5 Mn17 2.562815 1_455
As5 Mn8 2.562815 1_555
As5 Mn17 2.562815 1_555
As5 Li6 2.638862 1_555
As5 Li17 2.638862 1_455
As5 Li17 2.638862 1_555
As5 Li6 2.638862 1_545
As5 Li7 2.810703 1_555
As6 Mn9 2.575419 1_565
As6 Mn0 2.575419 1_555
As6 Mn0 2.575419 1_655
As6 Mn9 2.575419 1_555
As6 Li8 2.631803 1_565
As6 Li0 2.631803 1_555
As6 Li0 2.631803 1_655
As6 Li8 2.631803 1_555
As6 Li19 2.831979 1_554
As7 Mn11 2.547937 1_565
As7 Mn1 2.547937 1_655
As7 Mn11 2.547937 1_555
As7 Mn1 2.547937 1_555
As7 Li10 2.685064 1_555
As7 Li1 2.685064 1_555
As7 Li10 2.685064 1_565
As7 Li1 2.685064 1_655
As8 Mn2 2.557670 1_555
As8 Mn2 2.557670 1_655
As8 Mn10 2.557670 1_565
As8 Mn10 2.557670 1_555
As8 Li9 2.675641 1_555
As8 Li2 2.675641 1_555
As8 Li2 2.675641 1_655
As8 Li9 2.675641 1_565
As9 Mn4 2.556017 1_655
As9 Mn12 2.556017 1_565
As9 Mn4 2.556017 1_555
As9 Mn12 2.556017 1_555
As9 Li13 2.677409 1_555
As9 Li3 2.677409 1_555
As9 Li13 2.677409 1_565
As9 Li3 2.677409 1_655
As10 Mn3 2.555054 1_555
As10 Mn13 2.555054 1_555
As10 Mn13 2.555054 1_565
As10 Mn3 2.555054 1_655
As10 Li20 2.678122 1_555
As10 Li20 2.678122 1_655
As10 Li11 2.678122 1_565
As10 Li11 2.678122 1_555
As11 Mn14 2.556871 1_565
As11 Mn14 2.556871 1_555
As11 Mn5 2.556871 1_555
As11 Mn5 2.556871 1_655
As11 Li21 2.678930 1_555
As11 Li12 2.678930 1_555
As11 Li21 2.678930 1_655
As11 Li12 2.678930 1_565
As12 Mn16 2.566457 1_565
As12 Mn16 2.566457 1_555
As12 Mn6 2.566457 1_555
As12 Mn6 2.566457 1_655
As12 Li4 2.646903 1_555
As12 Li4 2.646903 1_655
As12 Li15 2.646903 1_565
As12 Li15 2.646903 1_555
As12 Li16 2.824333 1_555
As13 Mn7 2.598448 1_555
As13 Mn18 2.598448 1_565
As13 Mn7 2.598448 1_655
As13 Mn18 2.598448 1_555
As13 Li6 2.700801 1_555
As13 Li6 2.700801 1_655
As13 Li17 2.700801 1_555
As13 Li17 2.700801 1_565
As13 Li7 3.141261 1_565
As13 Li7 3.141261 1_555
As13 Li7 3.141261 1_655
As13 Li7 3.141261 1_665
As14 Mn8 2.563398 1_655
As14 Mn17 2.563398 1_565
As14 Mn8 2.563398 1_555
As14 Mn17 2.563398 1_555
As14 Li18 2.636734 1_565
As14 Li18 2.636734 1_555
As14 Li22 2.636734 1_555
As14 Li22 2.636734 1_655
As14 Li19 2.807101 1_555
As15 Mn15 2.569807 1_555
As15 Mn15 2.569807 1_565
As15 Mn19 2.569807 1_555
As15 Mn19 2.569807 1_655
As15 Li5 2.624583 1_655
As15 Li5 2.624583 1_555
As15 Li14 2.624583 1_555
As15 Li14 2.624583 1_565
As15 Li16 2.810259 1_555
As16 Mn12 2.556320 1_455
As16 Mn12 2.556320 1_555
As16 Mn4 2.556320 1_545
As16 Mn4 2.556320 1_555
As16 Li11 2.677098 1_455
As16 Li20 2.677098 1_555
As16 Li20 2.677098 1_545
As16 Li11 2.677098 1_555
As17 Mn14 2.555137 1_555
As17 Mn5 2.555137 1_555
As17 Mn5 2.555137 1_545
As17 Mn14 2.555137 1_455
As17 Li3 2.679085 1_545
As17 Li13 2.679085 1_455
As17 Li3 2.679085 1_555
As17 Li13 2.679085 1_555
As18 Mn15 2.601048 1_455
As18 Mn19 2.601048 1_545
As18 Mn15 2.601048 1_555
As18 Mn19 2.601048 1_555
As18 Li4 2.697865 1_555
As18 Li15 2.697865 1_455
As18 Li15 2.697865 1_555
As18 Li4 2.697865 1_545
As18 Li16 3.141062 1_555
As18 Li16 3.141062 1_455
As18 Li16 3.141062 1_445
As18 Li16 3.141062 1_545
As19 Mn9 2.605078 1_456
As19 Mn0 2.605078 1_546
As19 Mn9 2.605078 1_556
As19 Mn0 2.605078 1_556
As19 Li22 2.700391 1_545
As19 Li22 2.700391 1_555
As19 Li18 2.700391 1_455
As19 Li18 2.700391 1_555
As19 Li19 3.141208 1_455
As19 Li19 3.141208 1_545
As19 Li19 3.141208 1_555
As19 Li19 3.141208 1_445
