# generated using pymatgen
data_PS2N(Cl3O2)2
_symmetry_space_group_name_H-M   'P 1'
_cell_length_a   10.71301600
_cell_length_b   10.91503700
_cell_length_c   11.11004700
_cell_angle_alpha   90.00000000
_cell_angle_beta   90.00000000
_cell_angle_gamma   90.00000000
_symmetry_Int_Tables_number   1
_chemical_formula_structural   PS2N(Cl3O2)2
_chemical_formula_sum   'P4 S8 N4 Cl24 O16'
_cell_volume   1299.13074835
_cell_formula_units_Z   4
loop_
 _symmetry_equiv_pos_site_id
 _symmetry_equiv_pos_as_xyz
  1  'x, y, z'
loop_
 _atom_site_type_symbol
 _atom_site_label
 _atom_site_symmetry_multiplicity
 _atom_site_fract_x
 _atom_site_fract_y
 _atom_site_fract_z
 _atom_site_occupancy
  P  P0  1  0.64010600  0.94570800  0.75000000  1
  P  P1  1  0.14010600  0.55429200  0.25000000  1
  P  P2  1  0.85989400  0.44570800  0.75000000  1
  P  P3  1  0.35989400  0.05429200  0.25000000  1
  S  S0  1  0.70209100  0.60178300  0.37708600  1
  S  S1  1  0.70209100  0.60178300  0.12291400  1
  S  S2  1  0.29790900  0.39821700  0.62291400  1
  S  S3  1  0.20209100  0.89821700  0.87708600  1
  S  S4  1  0.20209100  0.89821700  0.62291400  1
  S  S5  1  0.79790900  0.10178300  0.12291400  1
  S  S6  1  0.29790900  0.39821700  0.87708600  1
  S  S7  1  0.79790900  0.10178300  0.37708600  1
  N  N0  1  0.27120000  0.90595500  0.75000000  1
  N  N1  1  0.72880000  0.09404500  0.25000000  1
  N  N2  1  0.22880000  0.40595500  0.75000000  1
  N  N3  1  0.77120000  0.59404500  0.25000000  1
  Cl  Cl0  1  0.82024900  0.97840300  0.75000000  1
  Cl  Cl1  1  0.40159500  0.15045700  0.39295000  1
  Cl  Cl2  1  0.32024900  0.52159700  0.25000000  1
  Cl  Cl3  1  0.54841900  0.10047700  0.75000000  1
  Cl  Cl4  1  0.04841900  0.39952300  0.25000000  1
  Cl  Cl5  1  0.86903100  0.92450200  0.40578600  1
  Cl  Cl6  1  0.90159500  0.34954300  0.60705000  1
  Cl  Cl7  1  0.13096900  0.07549800  0.59421400  1
  Cl  Cl8  1  0.59840500  0.84954300  0.60705000  1
  Cl  Cl9  1  0.36903100  0.57549800  0.59421400  1
  Cl  Cl10  1  0.45158100  0.89952300  0.25000000  1
  Cl  Cl11  1  0.09840500  0.65045700  0.39295000  1
  Cl  Cl12  1  0.95158100  0.60047700  0.75000000  1
  Cl  Cl13  1  0.63096900  0.42450200  0.09421400  1
  Cl  Cl14  1  0.63096900  0.42450200  0.40578600  1
  Cl  Cl15  1  0.67975100  0.47840300  0.75000000  1
  Cl  Cl16  1  0.36903100  0.57549800  0.90578600  1
  Cl  Cl17  1  0.86903100  0.92450200  0.09421400  1
  Cl  Cl18  1  0.09840500  0.65045700  0.10705000  1
  Cl  Cl19  1  0.59840500  0.84954300  0.89295000  1
  Cl  Cl20  1  0.13096900  0.07549800  0.90578600  1
  Cl  Cl21  1  0.90159500  0.34954300  0.89295000  1
  Cl  Cl22  1  0.40159500  0.15045700  0.10705000  1
  Cl  Cl23  1  0.17975100  0.02159700  0.25000000  1
  O  O0  1  0.09382400  0.81931300  0.88323600  1
  O  O1  1  0.70244500  0.11427800  0.03209000  1
  O  O2  1  0.40617600  0.31931300  0.61676400  1
  O  O3  1  0.59382400  0.68068700  0.38323600  1
  O  O4  1  0.29755500  0.88572200  0.96791000  1
  O  O5  1  0.20244500  0.38572200  0.96791000  1
  O  O6  1  0.20244500  0.38572200  0.53209000  1
  O  O7  1  0.70244500  0.11427800  0.46791000  1
  O  O8  1  0.90617600  0.18068700  0.38323600  1
  O  O9  1  0.90617600  0.18068700  0.11676400  1
  O  O10  1  0.79755500  0.61427800  0.03209000  1
  O  O11  1  0.79755500  0.61427800  0.46791000  1
  O  O12  1  0.29755500  0.88572200  0.53209000  1
  O  O13  1  0.40617600  0.31931300  0.88323600  1
  O  O14  1  0.59382400  0.68068700  0.11676400  1
  O  O15  1  0.09382400  0.81931300  0.61676400  1
loop_
_geom_bond_atom_site_label_1
_geom_bond_atom_site_label_2
_geom_bond_distance
_geom_bond_site_symmetry_2
N0 S4 1.596504 1_555
N0 S3 1.596504 1_555
N1 S7 1.596504 1_555
N1 S5 1.596504 1_555
N2 S6 1.596504 1_555
N2 S2 1.596504 1_555
N3 S0 1.596504 1_555
N3 S1 1.596504 1_555
Cl0 P0 1.962593 1_555
Cl1 P3 1.955416 1_555
Cl2 P1 1.962593 1_555
Cl3 P0 1.954116 1_545
Cl4 P1 1.954116 1_555
Cl5 S7 2.103936 1_565
Cl6 P2 1.955416 1_555
Cl7 S4 2.103936 1_545
Cl8 P0 1.955416 1_555
Cl9 S2 2.103936 1_555
Cl10 P3 1.954116 1_565
Cl11 P1 1.955416 1_555
Cl12 P2 1.954116 1_555
Cl13 S1 2.103936 1_555
Cl14 S0 2.103936 1_555
Cl15 P2 1.962593 1_555
Cl16 S6 2.103936 1_555
Cl17 S5 2.103936 1_565
Cl18 P1 1.955416 1_555
Cl19 P0 1.955416 1_555
Cl20 S3 2.103936 1_545
Cl21 P2 1.955416 1_555
Cl22 P3 1.955416 1_555
Cl23 P3 1.962593 1_555
O0 S3 1.446268 1_555
O1 S5 1.443167 1_555
O2 S2 1.446268 1_555
O3 S0 1.446268 1_555
O4 S3 1.443167 1_555
O5 S6 1.443167 1_555
O6 S2 1.443167 1_555
O7 S7 1.443167 1_555
O8 S7 1.446268 1_555
O9 S5 1.446268 1_555
O10 S1 1.443167 1_555
O11 S0 1.443167 1_555
O12 S4 1.443167 1_555
O13 S6 1.446268 1_555
O14 S1 1.446268 1_555
O15 S4 1.446268 1_555
