# generated using pymatgen
data_RbCdAuS2
_symmetry_space_group_name_H-M   'P 1'
_cell_length_a   5.91933700
_cell_length_b   6.96972000
_cell_length_c   13.96045200
_cell_angle_alpha   90.00000000
_cell_angle_beta   90.00000000
_cell_angle_gamma   90.00000000
_symmetry_Int_Tables_number   1
_chemical_formula_structural   RbCdAuS2
_chemical_formula_sum   'Rb4 Cd4 Au4 S8'
_cell_volume   575.95410357
_cell_formula_units_Z   4
loop_
 _symmetry_equiv_pos_site_id
 _symmetry_equiv_pos_as_xyz
  1  'x, y, z'
loop_
 _atom_site_type_symbol
 _atom_site_label
 _atom_site_symmetry_multiplicity
 _atom_site_fract_x
 _atom_site_fract_y
 _atom_site_fract_z
 _atom_site_occupancy
  Rb  Rb0  1  0.72269400  0.75000000  0.00000000  1
  Rb  Rb1  1  0.72269400  0.25000000  0.50000000  1
  Rb  Rb2  1  0.27730600  0.75000000  0.50000000  1
  Rb  Rb3  1  0.27730600  0.25000000  0.00000000  1
  Cd  Cd0  1  0.00000000  0.56241500  0.75000000  1
  Cd  Cd1  1  0.00000000  0.06241500  0.75000000  1
  Cd  Cd2  1  0.00000000  0.93758500  0.25000000  1
  Cd  Cd3  1  0.00000000  0.43758500  0.25000000  1
  Au  Au0  1  0.50000000  0.31587200  0.75000000  1
  Au  Au1  1  0.50000000  0.68412800  0.25000000  1
  Au  Au2  1  0.50000000  0.81587200  0.75000000  1
  Au  Au3  1  0.50000000  0.18412800  0.25000000  1
  S  S0  1  0.79509100  0.31517200  0.86121100  1
  S  S1  1  0.79509100  0.68482800  0.36121100  1
  S  S2  1  0.20490900  0.31517200  0.63878900  1
  S  S3  1  0.79509100  0.81517200  0.63878900  1
  S  S4  1  0.20490900  0.18482800  0.36121100  1
  S  S5  1  0.20490900  0.68482800  0.13878900  1
  S  S6  1  0.79509100  0.18482800  0.13878900  1
  S  S7  1  0.20490900  0.81517200  0.86121100  1
loop_
_geom_bond_atom_site_label_1
_geom_bond_atom_site_label_2
_geom_bond_distance
_geom_bond_site_symmetry_2
Rb0 S5 3.479657 1_655
Rb0 S7 3.479657 1_654
Rb0 S6 3.622498 1_565
Rb0 S0 3.622498 1_554
Rb0 S5 3.654358 1_555
Rb0 S7 3.654358 1_554
Rb1 S2 3.479657 1_655
Rb1 S4 3.479657 1_655
Rb1 S3 3.622498 1_545
Rb1 S1 3.622498 1_555
Rb1 S2 3.654358 1_555
Rb1 S4 3.654358 1_555
Rb2 S3 3.479657 1_455
Rb2 S1 3.479657 1_455
Rb2 S2 3.622498 1_555
Rb2 S4 3.622498 1_565
Rb2 S3 3.654358 1_555
Rb2 S1 3.654358 1_555
Rb3 S6 3.479657 1_455
Rb3 S0 3.479657 1_454
Rb3 S5 3.622498 1_555
Rb3 S7 3.622498 1_544
Rb3 S6 3.654358 1_555
Rb3 S0 3.654358 1_554
Cd0 S0 2.617458 1_455
Cd0 S2 2.617458 1_555
Cd0 S7 2.642917 1_555
Cd0 S3 2.642917 1_455
Cd1 S7 2.617458 1_545
Cd1 S3 2.617458 1_445
Cd1 S0 2.642917 1_455
Cd1 S2 2.642917 1_555
Cd2 S4 2.617458 1_565
Cd2 S6 2.617458 1_465
Cd2 S5 2.642917 1_555
Cd2 S1 2.642917 1_455
Cd3 S5 2.617458 1_555
Cd3 S1 2.617458 1_455
Cd3 S4 2.642917 1_555
Cd3 S6 2.642917 1_455
Au0 S0 2.336999 1_555
Au0 S2 2.336999 1_555
Au0 Rb1 3.758899 1_555
Au0 Rb3 3.758899 1_556
Au1 S1 2.336999 1_555
Au1 S5 2.336999 1_555
Au1 Rb2 3.758899 1_555
Au1 Rb0 3.758899 1_555
Au2 S7 2.336999 1_555
Au2 S3 2.336999 1_555
Au2 Rb0 3.758899 1_556
Au2 Rb2 3.758899 1_555
Au3 S6 2.336999 1_555
Au3 S4 2.336999 1_555
Au3 Rb3 3.758899 1_555
Au3 Rb1 3.758899 1_555
