# generated using pymatgen
data_Dy(CoB)2
_symmetry_space_group_name_H-M   'P 1'
_cell_length_a   3.52847303
_cell_length_b   3.52847345
_cell_length_c   5.30778085
_cell_angle_alpha   109.41369749
_cell_angle_beta   109.41369546
_cell_angle_gamma   90.00000576
_symmetry_Int_Tables_number   1
_chemical_formula_structural   Dy(CoB)2
_chemical_formula_sum   'Dy1 Co2 B2'
_cell_volume   58.32651635
_cell_formula_units_Z   1
loop_
 _symmetry_equiv_pos_site_id
 _symmetry_equiv_pos_as_xyz
  1  'x, y, z'
loop_
 _atom_site_type_symbol
 _atom_site_label
 _atom_site_symmetry_multiplicity
 _atom_site_fract_x
 _atom_site_fract_y
 _atom_site_fract_z
 _atom_site_occupancy
  Dy  Dy0  1  0.00000000  -0.00000000  0.00000000  1
  Co  Co0  1  0.25000000  0.75000000  0.50000000  1
  Co  Co1  1  0.75000000  0.25000000  0.50000000  1
  B  B0  1  0.65386555  0.65386555  0.30773010  1
  B  B1  1  0.34613445  0.34613445  0.69226990  1
loop_
_geom_bond_atom_site_label_1
_geom_bond_atom_site_label_2
_geom_bond_distance
_geom_bond_site_symmetry_2
Co0 Dy0 2.932473 1_566
Co0 Dy0 2.932473 1_565
Co0 Dy0 2.932474 1_666
Co0 Dy0 2.932474 1_555
Co1 Dy0 2.932473 1_655
Co1 Dy0 2.932473 1_656
Co1 Dy0 2.932474 1_555
Co1 Dy0 2.932474 1_666
B0 Co0 1.980877 1_655
B0 Co1 1.980877 1_565
B0 Co0 1.980880 1_555
B0 Co1 1.980880 1_555
B0 Dy0 2.881566 1_665
B0 Dy0 2.881569 1_565
B0 Dy0 2.881569 1_655
B0 Dy0 2.881572 1_555
B1 Co1 1.980877 1_455
B1 Co0 1.980877 1_545
B1 Co1 1.980880 1_555
B1 Co0 1.980880 1_555
B1 Dy0 2.881566 1_556
B1 Dy0 2.881569 1_656
B1 Dy0 2.881569 1_566
B1 Dy0 2.881572 1_666
