# generated using pymatgen
data_K6CoMo5O19
_symmetry_space_group_name_H-M   'P 1'
_cell_length_a   10.56189800
_cell_length_b   8.26714700
_cell_length_c   25.88138234
_cell_angle_alpha   72.49219769
_cell_angle_beta   90.00000000
_cell_angle_gamma   90.00000000
_symmetry_Int_Tables_number   1
_chemical_formula_structural   K6CoMo5O19
_chemical_formula_sum   'K24 Co4 Mo20 O76'
_cell_volume   2155.19190787
_cell_formula_units_Z   4
loop_
 _symmetry_equiv_pos_site_id
 _symmetry_equiv_pos_as_xyz
  1  'x, y, z'
loop_
 _atom_site_type_symbol
 _atom_site_label
 _atom_site_symmetry_multiplicity
 _atom_site_fract_x
 _atom_site_fract_y
 _atom_site_fract_z
 _atom_site_occupancy
  K  K0  1  0.00023300  0.20275400  0.93335900  1
  K  K1  1  0.43606300  0.99686000  0.30388900  1
  K  K2  1  0.74425000  0.21368900  0.80541400  1
  K  K3  1  0.56393700  0.00314000  0.69611100  1
  K  K4  1  0.35387800  0.09565400  0.04584300  1
  K  K5  1  0.74172100  0.69579700  0.31223200  1
  K  K6  1  0.50023300  0.79724600  0.56664100  1
  K  K7  1  0.93606300  0.00314000  0.19611100  1
  K  K8  1  0.59765800  0.70175900  0.15918100  1
  K  K9  1  0.24425000  0.78631100  0.69458600  1
  K  K10  1  0.09765800  0.29824100  0.34081900  1
  K  K11  1  0.75827900  0.69579700  0.81223200  1
  K  K12  1  0.14612200  0.09565400  0.54584300  1
  K  K13  1  0.25827900  0.30420300  0.68776800  1
  K  K14  1  0.99976700  0.79724600  0.06664100  1
  K  K15  1  0.90234200  0.70175900  0.65918100  1
  K  K16  1  0.06393700  0.99686000  0.80388900  1
  K  K17  1  0.64612200  0.90434600  0.95415700  1
  K  K18  1  0.24172100  0.30420300  0.18776800  1
  K  K19  1  0.49976700  0.20275400  0.43335900  1
  K  K20  1  0.25575000  0.78631100  0.19458600  1
  K  K21  1  0.75575000  0.21368900  0.30541400  1
  K  K22  1  0.40234200  0.29824100  0.84081900  1
  K  K23  1  0.85387800  0.90434600  0.45415700  1
  Co  Co0  1  0.74999400  0.47479500  0.05896500  1
  Co  Co1  1  0.25000600  0.52520500  0.94103500  1
  Co  Co2  1  0.75000600  0.47479500  0.55896500  1
  Co  Co3  1  0.24999400  0.52520500  0.44103500  1
  Mo  Mo0  1  0.24119300  0.91230800  0.44154000  1
  Mo  Mo1  1  0.59707500  0.51732600  0.68731500  1
  Mo  Mo2  1  0.90292500  0.51732600  0.18731500  1
  Mo  Mo3  1  0.06933000  0.30743200  0.06657500  1
  Mo  Mo4  1  0.09707500  0.48267400  0.81268500  1
  Mo  Mo5  1  0.93067000  0.69256800  0.93342500  1
  Mo  Mo6  1  0.91766200  0.16064600  0.67495200  1
  Mo  Mo7  1  0.56933000  0.69256800  0.43342500  1
  Mo  Mo8  1  0.25880700  0.91230800  0.94154000  1
  Mo  Mo9  1  0.74119300  0.08769200  0.05846000  1
  Mo  Mo10  1  0.40292500  0.48267400  0.31268500  1
  Mo  Mo11  1  0.09091800  0.57991200  0.56033500  1
  Mo  Mo12  1  0.58233800  0.16064600  0.17495200  1
  Mo  Mo13  1  0.59091800  0.42008800  0.93966500  1
  Mo  Mo14  1  0.41766200  0.83935400  0.82504800  1
  Mo  Mo15  1  0.75880700  0.08769200  0.55846000  1
  Mo  Mo16  1  0.90908200  0.42008800  0.43966500  1
  Mo  Mo17  1  0.40908200  0.57991200  0.06033500  1
  Mo  Mo18  1  0.43067000  0.30743200  0.56657500  1
  Mo  Mo19  1  0.08233800  0.83935400  0.32504800  1
  O  O0  1  0.69588200  0.93994800  0.61795600  1
  O  O1  1  0.90098300  0.52776900  0.90491800  1
  O  O2  1  0.62800000  0.88612500  0.38786600  1
  O  O3  1  0.52877100  0.31126700  0.71639200  1
  O  O4  1  0.13441300  0.69051800  0.60702200  1
  O  O5  1  0.57881300  0.60363700  0.04991500  1
  O  O6  1  0.02877100  0.68873300  0.78360800  1
  O  O7  1  0.14747000  0.34959300  0.00117800  1
  O  O8  1  0.51665400  0.32957500  0.19482700  1
  O  O9  1  0.62539700  0.63741000  0.91142200  1
  O  O10  1  0.17148100  0.76029300  0.39020300  1
  O  O11  1  0.21380700  0.45244000  0.76599300  1
  O  O12  1  0.37460300  0.36259000  0.08857800  1
  O  O13  1  0.87460300  0.63741000  0.41142200  1
  O  O14  1  0.59272200  0.99664200  0.05252000  1
  O  O15  1  0.31961500  0.46256200  0.37639300  1
  O  O16  1  0.85253000  0.65040700  0.99882200  1
  O  O17  1  0.81961500  0.53743800  0.12360700  1
  O  O18  1  0.09272200  0.00335800  0.44748000  1
  O  O19  1  0.30411800  0.06005200  0.38204400  1
  O  O20  1  0.19588200  0.06005200  0.88204400  1
  O  O21  1  0.81388100  0.04678700  0.72884300  1
  O  O22  1  0.66942500  0.04426700  0.50576500  1
  O  O23  1  0.67993900  0.33808800  0.00416700  1
  O  O24  1  0.71380700  0.54756000  0.73400700  1
  O  O25  1  0.60332300  0.28499400  0.56098700  1
  O  O26  1  0.68611900  0.04678700  0.22884300  1
  O  O27  1  0.82851900  0.23970700  0.60979700  1
  O  O28  1  0.47882000  0.67898800  0.67694500  1
  O  O29  1  0.97882000  0.32101200  0.82305500  1
  O  O30  1  0.47122900  0.68873300  0.28360800  1
  O  O31  1  0.82006100  0.33808800  0.50416700  1
  O  O32  1  0.02118000  0.67898800  0.17694500  1
  O  O33  1  0.32006100  0.66191200  0.99583300  1
  O  O34  1  0.07881300  0.39636300  0.45008500  1
  O  O35  1  0.40727800  0.00335800  0.94748000  1
  O  O36  1  0.45905100  0.01721500  0.17137200  1
  O  O37  1  0.37200000  0.11387500  0.61213400  1
  O  O38  1  0.36558700  0.69051800  0.10702200  1
  O  O39  1  0.35253000  0.34959300  0.50117800  1
  O  O40  1  0.64747000  0.65040700  0.49882200  1
  O  O41  1  0.31388100  0.95321300  0.77115700  1
  O  O42  1  0.68038500  0.53743800  0.62360700  1
  O  O43  1  0.10332300  0.71500600  0.93901300  1
  O  O44  1  0.04094900  0.01721500  0.67137200  1
  O  O45  1  0.80411800  0.93994800  0.11795600  1
  O  O46  1  0.09901700  0.47223100  0.09508200  1
  O  O47  1  0.97122900  0.31126700  0.21639200  1
  O  O48  1  0.63441300  0.30948200  0.89297800  1
  O  O49  1  0.87200000  0.88612500  0.88786600  1
  O  O50  1  0.52118000  0.32101200  0.32305500  1
  O  O51  1  0.78619300  0.54756000  0.23400700  1
  O  O52  1  0.92118700  0.60363700  0.54991500  1
  O  O53  1  0.18611900  0.95321300  0.27115700  1
  O  O54  1  0.12539700  0.36259000  0.58857800  1
  O  O55  1  0.95905100  0.98278500  0.32862800  1
  O  O56  1  0.89667700  0.28499400  0.06098700  1
  O  O57  1  0.67148100  0.23970700  0.10979700  1
  O  O58  1  0.28619300  0.45244000  0.26599300  1
  O  O59  1  0.40098300  0.47223100  0.59508200  1
  O  O60  1  0.86558700  0.30948200  0.39297800  1
  O  O61  1  0.42118700  0.39636300  0.95008500  1
  O  O62  1  0.48334600  0.67042500  0.80517300  1
  O  O63  1  0.12800000  0.11387500  0.11213400  1
  O  O64  1  0.98334600  0.32957500  0.69482700  1
  O  O65  1  0.83057500  0.04426700  0.00576500  1
  O  O66  1  0.01665400  0.67042500  0.30517300  1
  O  O67  1  0.39667700  0.71500600  0.43901300  1
  O  O68  1  0.16942500  0.95573300  0.99423500  1
  O  O69  1  0.18038500  0.46256200  0.87639300  1
  O  O70  1  0.59901700  0.52776900  0.40491800  1
  O  O71  1  0.90727800  0.99664200  0.55252000  1
  O  O72  1  0.32851900  0.76029300  0.89020300  1
  O  O73  1  0.17993900  0.66191200  0.49583300  1
  O  O74  1  0.33057500  0.95573300  0.49423500  1
  O  O75  1  0.54094900  0.98278500  0.82862800  1
loop_
_geom_bond_atom_site_label_1
_geom_bond_atom_site_label_2
_geom_bond_distance
_geom_bond_site_symmetry_2
K0 O65 2.638580 1_456
K0 O29 2.734534 1_455
K0 O1 2.769544 1_455
K0 O68 2.812511 1_545
K0 O7 2.873137 1_556
K0 O20 2.892829 1_555
K0 O69 2.915853 1_555
K1 O19 2.634838 1_565
K1 O30 2.776123 1_555
K1 O53 2.828563 1_555
K1 O2 2.911080 1_555
K1 O50 3.005903 1_565
K1 O26 3.230441 1_565
K2 O29 2.716145 1_555
K2 O75 2.815234 1_545
K2 O21 2.831492 1_555
K2 O24 2.840460 1_555
K2 O48 2.861612 1_555
K2 O3 3.165519 1_555
K2 O49 3.198564 1_545
K3 O0 2.634838 1_545
K3 O3 2.776123 1_555
K3 O21 2.828563 1_555
K3 O37 2.911080 1_555
K3 O28 3.005903 1_545
K3 O41 3.230441 1_545
K4 O14 2.641688 1_545
K4 O12 2.758581 1_555
K4 O68 2.801271 1_544
K4 O35 2.924037 1_554
K4 O63 2.968736 1_555
K4 O7 3.006010 1_555
K4 O61 3.020070 1_554
K4 O38 3.248004 1_545
K4 O36 3.307865 1_555
K5 O51 2.704472 1_555
K5 O70 2.819730 1_555
K5 O13 2.836826 1_555
K5 O66 2.921056 1_655
K5 O30 2.956382 1_555
K5 O2 3.098956 1_555
K5 O26 3.107189 1_565
K6 O74 2.638580 1_555
K6 O28 2.734534 1_555
K6 O59 2.769544 1_555
K6 O22 2.812511 1_565
K6 O40 2.873137 1_555
K6 O0 2.892829 1_555
K6 O42 2.915853 1_555
K7 O45 2.634838 1_545
K7 O47 2.776123 1_555
K7 O26 2.828563 1_555
K7 O63 2.911080 1_655
K7 O32 3.005903 1_645
K7 O53 3.230441 1_645
K8 O51 2.802740 1_555
K8 O38 2.813257 1_555
K8 O45 2.916655 1_555
K8 O17 2.990208 1_555
K8 O8 3.056548 1_555
K8 O14 3.085003 1_555
K8 O36 3.088535 1_565
K8 O5 3.174147 1_555
K9 O28 2.716145 1_555
K9 O44 2.815234 1_565
K9 O41 2.831492 1_555
K9 O11 2.840460 1_555
K9 O4 2.861612 1_555
K9 O6 3.165519 1_555
K9 O37 3.198564 1_565
K10 O58 2.802740 1_555
K10 O60 2.813257 1_455
K10 O19 2.916655 1_555
K10 O15 2.990208 1_555
K10 O66 3.056548 1_555
K10 O18 3.085003 1_555
K10 O55 3.088535 1_445
K10 O34 3.174147 1_555
K11 O24 2.704472 1_555
K11 O1 2.819730 1_555
K11 O9 2.836826 1_555
K11 O62 2.921056 1_555
K11 O6 2.956382 1_655
K11 O49 3.098956 1_555
K11 O21 3.107189 1_565
K12 O71 2.641688 1_445
K12 O54 2.758581 1_555
K12 O74 2.801271 1_545
K12 O18 2.924037 1_555
K12 O37 2.968736 1_555
K12 O39 3.006010 1_555
K12 O34 3.020070 1_555
K12 O4 3.248004 1_545
K12 O44 3.307865 1_555
K13 O11 2.704472 1_555
K13 O59 2.819730 1_555
K13 O54 2.836826 1_555
K13 O64 2.921056 1_455
K13 O3 2.956382 1_555
K13 O37 3.098956 1_555
K13 O41 3.107189 1_545
K14 O68 2.638580 1_654
K14 O32 2.734534 1_655
K14 O46 2.769544 1_655
K14 O65 2.812511 1_565
K14 O16 2.873137 1_554
K14 O45 2.892829 1_555
K14 O17 2.915853 1_555
K15 O24 2.802740 1_555
K15 O4 2.813257 1_655
K15 O0 2.916655 1_555
K15 O42 2.990208 1_555
K15 O64 3.056548 1_555
K15 O71 3.085003 1_555
K15 O44 3.088535 1_665
K15 O52 3.174147 1_555
K16 O20 2.634838 1_565
K16 O6 2.776123 1_555
K16 O41 2.828563 1_555
K16 O49 2.911080 1_455
K16 O29 3.005903 1_465
K16 O21 3.230441 1_465
K17 O35 2.641688 1_565
K17 O9 2.758581 1_555
K17 O65 2.801271 1_566
K17 O14 2.924037 1_556
K17 O49 2.968736 1_555
K17 O16 3.006010 1_555
K17 O5 3.020070 1_556
K17 O48 3.248004 1_565
K17 O75 3.307865 1_555
K18 O58 2.704472 1_555
K18 O46 2.819730 1_555
K18 O12 2.836826 1_555
K18 O8 2.921056 1_555
K18 O47 2.956382 1_455
K18 O63 3.098956 1_555
K18 O53 3.107189 1_545
K19 O22 2.638580 1_555
K19 O50 2.734534 1_555
K19 O70 2.769544 1_555
K19 O74 2.812511 1_545
K19 O39 2.873137 1_555
K19 O19 2.892829 1_555
K19 O15 2.915853 1_555
K20 O32 2.716145 1_555
K20 O36 2.815234 1_565
K20 O53 2.831492 1_555
K20 O58 2.840460 1_555
K20 O38 2.861612 1_555
K20 O30 3.165519 1_555
K20 O63 3.198564 1_565
K21 O50 2.716145 1_555
K21 O55 2.815234 1_545
K21 O26 2.831492 1_555
K21 O51 2.840460 1_555
K21 O60 2.861612 1_555
K21 O47 3.165519 1_555
K21 O2 3.198564 1_545
K22 O11 2.802740 1_555
K22 O48 2.813257 1_555
K22 O20 2.916655 1_555
K22 O69 2.990208 1_555
K22 O62 3.056548 1_555
K22 O35 3.085003 1_555
K22 O75 3.088535 1_545
K22 O61 3.174147 1_555
K23 O18 2.641688 1_665
K23 O13 2.758581 1_555
K23 O22 2.801271 1_565
K23 O71 2.924037 1_555
K23 O2 2.968736 1_555
K23 O40 3.006010 1_555
K23 O52 3.020070 1_555
K23 O60 3.248004 1_565
K23 O55 3.307865 1_555
Co0 O17 2.032049 1_555
Co0 O5 2.075611 1_555
Co0 O16 2.084189 1_554
Co0 O57 2.158072 1_555
Co0 O23 2.191027 1_555
Co0 O56 2.194453 1_555
Co1 O69 2.032049 1_555
Co1 O61 2.075611 1_555
Co1 O7 2.084189 1_556
Co1 O72 2.158072 1_555
Co1 O33 2.191027 1_555
Co1 O43 2.194453 1_555
Co2 O42 2.032049 1_555
Co2 O52 2.075611 1_555
Co2 O40 2.084189 1_555
Co2 O27 2.158072 1_555
Co2 O31 2.191027 1_555
Co2 O25 2.194453 1_555
Co3 O15 2.032049 1_555
Co3 O34 2.075611 1_555
Co3 O39 2.084189 1_555
Co3 O10 2.158072 1_555
Co3 O73 2.191027 1_555
Co3 O67 2.194453 1_555
Mo0 O18 1.766041 1_565
Mo0 O19 1.781308 1_565
Mo0 O74 1.781766 1_555
Mo0 O10 2.211680 1_555
Mo0 O73 2.219930 1_555
Mo0 O67 2.329350 1_555
Mo1 O28 1.789524 1_555
Mo1 O3 1.793719 1_555
Mo1 O24 1.795729 1_555
Mo1 O42 1.831843 1_555
Mo2 O32 1.789524 1_655
Mo2 O47 1.793719 1_555
Mo2 O51 1.795729 1_555
Mo2 O17 1.831843 1_555
Mo3 O46 1.761715 1_555
Mo3 O63 1.788750 1_555
Mo3 O7 1.820011 1_555
Mo3 O56 1.843035 1_455
Mo4 O29 1.789524 1_455
Mo4 O6 1.793719 1_555
Mo4 O11 1.795729 1_555
Mo4 O69 1.831843 1_555
Mo5 O1 1.761715 1_555
Mo5 O49 1.788750 1_555
Mo5 O16 1.820011 1_555
Mo5 O43 1.843035 1_655
Mo6 O64 1.768756 1_555
Mo6 O44 1.782220 1_655
Mo6 O21 1.800828 1_555
Mo6 O27 1.869258 1_555
Mo7 O70 1.761715 1_555
Mo7 O2 1.788750 1_555
Mo7 O40 1.820011 1_555
Mo7 O67 1.843035 1_555
Mo8 O35 1.766041 1_565
Mo8 O20 1.781308 1_565
Mo8 O68 1.781766 1_555
Mo8 O72 2.211680 1_555
Mo8 O33 2.219930 1_555
Mo8 O43 2.329350 1_555
Mo9 O14 1.766041 1_545
Mo9 O45 1.781308 1_545
Mo9 O65 1.781766 1_555
Mo9 O57 2.211680 1_555
Mo9 O23 2.219930 1_555
Mo9 O56 2.329350 1_555
Mo10 O50 1.789524 1_555
Mo10 O30 1.793719 1_555
Mo10 O58 1.795729 1_555
Mo10 O15 1.831843 1_555
Mo11 O54 1.762003 1_555
Mo11 O4 1.781007 1_555
Mo11 O52 1.814685 1_455
Mo11 O73 1.857305 1_555
Mo12 O8 1.768756 1_555
Mo12 O36 1.782220 1_555
Mo12 O26 1.800828 1_555
Mo12 O57 1.869258 1_555
Mo13 O9 1.762003 1_555
Mo13 O48 1.781007 1_555
Mo13 O61 1.814685 1_555
Mo13 O23 1.857305 1_556
Mo14 O62 1.768756 1_555
Mo14 O75 1.782220 1_555
Mo14 O41 1.800828 1_555
Mo14 O72 1.869258 1_555
Mo15 O71 1.766041 1_545
Mo15 O0 1.781308 1_545
Mo15 O22 1.781766 1_555
Mo15 O27 2.211680 1_555
Mo15 O31 2.219930 1_555
Mo15 O25 2.329350 1_555
Mo16 O13 1.762003 1_555
Mo16 O60 1.781007 1_555
Mo16 O34 1.814685 1_655
Mo16 O31 1.857305 1_555
Mo17 O12 1.762003 1_555
Mo17 O38 1.781007 1_555
Mo17 O5 1.814685 1_555
Mo17 O33 1.857305 1_554
Mo18 O59 1.761715 1_555
Mo18 O37 1.788750 1_555
Mo18 O39 1.820011 1_555
Mo18 O25 1.843035 1_555
Mo19 O66 1.768756 1_555
Mo19 O55 1.782220 1_455
Mo19 O53 1.800828 1_555
Mo19 O10 1.869258 1_555
