# generated using pymatgen
data_Nb3SiTe6
_symmetry_space_group_name_H-M   'P 1'
_cell_length_a   6.41852600
_cell_length_b   11.63838900
_cell_length_c   14.94060400
_cell_angle_alpha   90.00000000
_cell_angle_beta   90.00000000
_cell_angle_gamma   90.00000000
_symmetry_Int_Tables_number   1
_chemical_formula_structural   Nb3SiTe6
_chemical_formula_sum   'Nb12 Si4 Te24'
_cell_volume   1116.08257736
_cell_formula_units_Z   4
loop_
 _symmetry_equiv_pos_site_id
 _symmetry_equiv_pos_as_xyz
  1  'x, y, z'
loop_
 _atom_site_type_symbol
 _atom_site_label
 _atom_site_symmetry_multiplicity
 _atom_site_fract_x
 _atom_site_fract_y
 _atom_site_fract_z
 _atom_site_occupancy
  Nb  Nb0  1  0.16701200  0.83596000  0.75000000  1
  Nb  Nb1  1  0.66701200  0.66404000  0.75000000  1
  Nb  Nb2  1  0.33298800  0.33596000  0.25000000  1
  Nb  Nb3  1  0.83298800  0.16404000  0.25000000  1
  Nb  Nb4  1  0.69778400  0.96626100  0.75000000  1
  Nb  Nb5  1  0.19778400  0.53373900  0.75000000  1
  Nb  Nb6  1  0.80221600  0.46626100  0.25000000  1
  Nb  Nb7  1  0.30221600  0.03373900  0.25000000  1
  Nb  Nb8  1  0.96839900  0.31187000  0.75000000  1
  Nb  Nb9  1  0.46839900  0.18813000  0.75000000  1
  Nb  Nb10  1  0.53160100  0.81187000  0.25000000  1
  Nb  Nb11  1  0.03160100  0.68813000  0.25000000  1
  Si  Si0  1  0.07538300  0.07479500  0.75000000  1
  Si  Si1  1  0.57538300  0.42520500  0.75000000  1
  Si  Si2  1  0.42461700  0.57479500  0.25000000  1
  Si  Si3  1  0.92461700  0.92520500  0.25000000  1
  Te  Te0  1  0.84904200  0.81680100  0.62190400  1
  Te  Te1  1  0.34904200  0.68319900  0.87809600  1
  Te  Te2  1  0.65095800  0.31680100  0.37809600  1
  Te  Te3  1  0.15095800  0.18319900  0.12190400  1
  Te  Te4  1  0.15095800  0.18319900  0.37809600  1
  Te  Te5  1  0.65095800  0.31680100  0.12190400  1
  Te  Te6  1  0.34904200  0.68319900  0.62190400  1
  Te  Te7  1  0.84904200  0.81680100  0.87809600  1
  Te  Te8  1  0.79579800  0.15515200  0.62459200  1
  Te  Te9  1  0.29579800  0.34484800  0.87540800  1
  Te  Te10  1  0.70420200  0.65515200  0.37540800  1
  Te  Te11  1  0.20420200  0.84484800  0.12459200  1
  Te  Te12  1  0.20420200  0.84484800  0.37540800  1
  Te  Te13  1  0.70420200  0.65515200  0.12459200  1
  Te  Te14  1  0.29579800  0.34484800  0.62459200  1
  Te  Te15  1  0.79579800  0.15515200  0.87540800  1
  Te  Te16  1  0.35631200  0.99782800  0.62799300  1
  Te  Te17  1  0.85631200  0.50217200  0.87200700  1
  Te  Te18  1  0.14368800  0.49782800  0.37200700  1
  Te  Te19  1  0.64368800  0.00217200  0.12799300  1
  Te  Te20  1  0.64368800  0.00217200  0.37200700  1
  Te  Te21  1  0.14368800  0.49782800  0.12799300  1
  Te  Te22  1  0.85631200  0.50217200  0.62799300  1
  Te  Te23  1  0.35631200  0.99782800  0.87200700  1
loop_
_geom_bond_atom_site_label_1
_geom_bond_atom_site_label_2
_geom_bond_distance
_geom_bond_site_symmetry_2
Nb0 Te7 2.806731 1_455
Nb0 Te0 2.806731 1_455
Nb0 Si0 2.841191 1_565
Nb0 Te6 2.861595 1_555
Nb0 Te1 2.861595 1_555
Nb0 Te16 2.889311 1_555
Nb0 Te23 2.889311 1_555
Nb1 Te6 2.806731 1_555
Nb1 Te1 2.806731 1_555
Nb1 Si1 2.841191 1_555
Nb1 Te0 2.861595 1_555
Nb1 Te7 2.861595 1_555
Nb1 Te22 2.889311 1_555
Nb1 Te17 2.889311 1_555
Nb2 Te2 2.806731 1_555
Nb2 Te5 2.806731 1_555
Nb2 Si2 2.841191 1_555
Nb2 Te3 2.861595 1_555
Nb2 Te4 2.861595 1_555
Nb2 Te18 2.889311 1_555
Nb2 Te21 2.889311 1_555
Nb3 Te4 2.806731 1_655
Nb3 Te3 2.806731 1_655
Nb3 Si3 2.841191 1_545
Nb3 Te2 2.861595 1_555
Nb3 Te5 2.861595 1_555
Nb3 Te19 2.889311 1_555
Nb3 Te20 2.889311 1_555
Nb4 Si0 2.733048 1_665
Nb4 Te0 2.762440 1_555
Nb4 Te7 2.762440 1_555
Nb4 Te16 2.874290 1_555
Nb4 Te23 2.874290 1_555
Nb4 Te15 2.956235 1_565
Nb4 Te8 2.956235 1_565
Nb5 Si1 2.733048 1_555
Nb5 Te1 2.762440 1_555
Nb5 Te6 2.762440 1_555
Nb5 Te22 2.874290 1_455
Nb5 Te17 2.874290 1_455
Nb5 Te9 2.956235 1_555
Nb5 Te14 2.956235 1_555
Nb6 Si2 2.733048 1_555
Nb6 Te5 2.762440 1_555
Nb6 Te2 2.762440 1_555
Nb6 Te18 2.874290 1_655
Nb6 Te21 2.874290 1_655
Nb6 Te10 2.956235 1_555
Nb6 Te13 2.956235 1_555
Nb7 Si3 2.733048 1_445
Nb7 Te3 2.762440 1_555
Nb7 Te4 2.762440 1_555
Nb7 Te20 2.874290 1_555
Nb7 Te19 2.874290 1_555
Nb7 Te12 2.956235 1_545
Nb7 Te11 2.956235 1_545
Nb8 Te15 2.839848 1_555
Nb8 Te8 2.839848 1_555
Nb8 Te9 2.841464 1_655
Nb8 Te14 2.841464 1_655
Nb8 Si0 2.843335 1_655
Nb8 Si1 2.846627 1_555
Nb8 Te22 2.957326 1_555
Nb8 Te17 2.957326 1_555
Nb9 Te9 2.839848 1_555
Nb9 Te14 2.839848 1_555
Nb9 Te15 2.841464 1_555
Nb9 Te8 2.841464 1_555
Nb9 Si1 2.843335 1_555
Nb9 Si0 2.846627 1_555
Nb9 Te16 2.957326 1_545
Nb9 Te23 2.957326 1_545
Nb10 Te10 2.839848 1_555
Nb10 Te13 2.839848 1_555
Nb10 Te12 2.841464 1_555
Nb10 Te11 2.841464 1_555
Nb10 Si2 2.843335 1_555
Nb10 Si3 2.846627 1_555
Nb10 Te20 2.957326 1_565
Nb10 Te19 2.957326 1_565
Nb11 Te12 2.839848 1_555
Nb11 Te11 2.839848 1_555
Nb11 Te10 2.841464 1_455
Nb11 Te13 2.841464 1_455
Nb11 Si3 2.843335 1_455
Nb11 Si2 2.846627 1_555
Nb11 Te21 2.957326 1_555
Nb11 Te18 2.957326 1_555
Si0 Te23 2.715984 1_545
Si0 Te16 2.715984 1_545
Si0 Te15 2.757826 1_455
Si0 Te8 2.757826 1_455
Si1 Te17 2.715984 1_555
Si1 Te22 2.715984 1_555
Si1 Te9 2.757826 1_555
Si1 Te14 2.757826 1_555
Si2 Te21 2.715984 1_555
Si2 Te18 2.715984 1_555
Si2 Te10 2.757826 1_555
Si2 Te13 2.757826 1_555
Si3 Te20 2.715984 1_565
Si3 Te19 2.715984 1_565
Si3 Te12 2.757826 1_655
Si3 Te11 2.757826 1_655
