# generated using pymatgen
data_BaVClO3
_symmetry_space_group_name_H-M   'P 1'
_cell_length_a   5.34938000
_cell_length_b   7.54383900
_cell_length_c   10.65338000
_cell_angle_alpha   90.00000000
_cell_angle_beta   90.00000000
_cell_angle_gamma   90.00000000
_symmetry_Int_Tables_number   1
_chemical_formula_structural   BaVClO3
_chemical_formula_sum   'Ba4 V4 Cl4 O12'
_cell_volume   429.91567409
_cell_formula_units_Z   4
loop_
 _symmetry_equiv_pos_site_id
 _symmetry_equiv_pos_as_xyz
  1  'x, y, z'
loop_
 _atom_site_type_symbol
 _atom_site_label
 _atom_site_symmetry_multiplicity
 _atom_site_fract_x
 _atom_site_fract_y
 _atom_site_fract_z
 _atom_site_occupancy
  Ba  Ba0  1  0.75000000  0.59805700  0.30689500  1
  Ba  Ba1  1  0.25000000  0.40194300  0.69310500  1
  Ba  Ba2  1  0.25000000  0.09805700  0.19310500  1
  Ba  Ba3  1  0.75000000  0.90194300  0.80689500  1
  V  V0  1  0.25000000  0.94797900  0.53931900  1
  V  V1  1  0.25000000  0.55202100  0.03931900  1
  V  V2  1  0.75000000  0.05202100  0.46068100  1
  V  V3  1  0.75000000  0.44797900  0.96068100  1
  Cl  Cl0  1  0.75000000  0.92649700  0.10598600  1
  Cl  Cl1  1  0.25000000  0.42649700  0.39401400  1
  Cl  Cl2  1  0.25000000  0.07350300  0.89401400  1
  Cl  Cl3  1  0.75000000  0.57350300  0.60598600  1
  O  O0  1  0.99359400  0.40600200  0.09349500  1
  O  O1  1  0.49359400  0.90600200  0.40650500  1
  O  O2  1  0.50640600  0.09399800  0.59349500  1
  O  O3  1  0.00640600  0.90600200  0.40650500  1
  O  O4  1  0.75000000  0.28233700  0.85927700  1
  O  O5  1  0.25000000  0.71766300  0.14072300  1
  O  O6  1  0.49359400  0.59399800  0.90650500  1
  O  O7  1  0.50640600  0.40600200  0.09349500  1
  O  O8  1  0.99359400  0.09399800  0.59349500  1
  O  O9  1  0.75000000  0.21766300  0.35927700  1
  O  O10  1  0.25000000  0.78233700  0.64072300  1
  O  O11  1  0.00640600  0.59399800  0.90650500  1
loop_
_geom_bond_atom_site_label_1
_geom_bond_atom_site_label_2
_geom_bond_distance
_geom_bond_site_symmetry_2
Ba0 O3 2.898994 1_655
Ba0 O1 2.898994 1_555
Ba0 O9 2.923388 1_555
Ba0 O0 2.994263 1_555
Ba0 O7 2.994263 1_555
Ba0 Cl1 3.112935 1_655
Ba0 Cl1 3.112935 1_555
Ba0 Cl3 3.191710 1_555
Ba0 Cl0 3.274161 1_555
Ba0 O5 3.331971 1_655
Ba0 O5 3.331971 1_555
Ba1 O8 2.898994 1_455
Ba1 O2 2.898994 1_555
Ba1 O10 2.923388 1_555
Ba1 O6 2.994263 1_555
Ba1 O11 2.994263 1_555
Ba1 Cl3 3.112935 1_455
Ba1 Cl3 3.112935 1_555
Ba1 Cl1 3.191710 1_555
Ba1 Cl2 3.274161 1_555
Ba1 O4 3.331971 1_455
Ba1 O4 3.331971 1_555
Ba2 O0 2.898994 1_455
Ba2 O7 2.898994 1_555
Ba2 O5 2.923388 1_545
Ba2 O1 2.994263 1_545
Ba2 O3 2.994263 1_545
Ba2 Cl0 3.112935 1_545
Ba2 Cl0 3.112935 1_445
Ba2 Cl2 3.191710 1_554
Ba2 Cl1 3.274161 1_555
Ba2 O9 3.331971 1_455
Ba2 O9 3.331971 1_555
Ba3 O11 2.898994 1_655
Ba3 O6 2.898994 1_555
Ba3 O4 2.923388 1_565
Ba3 O2 2.994263 1_565
Ba3 O8 2.994263 1_565
Ba3 Cl2 3.112935 1_665
Ba3 Cl2 3.112935 1_565
Ba3 Cl0 3.191710 1_556
Ba3 Cl3 3.274161 1_555
Ba3 O10 3.331971 1_555
Ba3 O10 3.331971 1_655
O0 V1 1.851441 1_655
O0 V3 1.949431 1_554
O1 V2 1.851441 1_565
O1 V0 1.949431 1_555
O2 V0 1.851441 1_545
O2 V2 1.949431 1_555
O3 V2 1.851441 1_465
O3 V0 1.949431 1_555
O4 V3 1.651811 1_555
O5 V1 1.651811 1_555
O6 V3 1.851441 1_555
O6 V1 1.949431 1_556
O7 V1 1.851441 1_555
O7 V3 1.949431 1_554
O8 V0 1.851441 1_645
O8 V2 1.949431 1_555
O9 V2 1.651811 1_555
O10 V0 1.651811 1_555
O11 V3 1.851441 1_455
O11 V1 1.949431 1_556
