# generated using pymatgen
data_Fe12PbO19
_symmetry_space_group_name_H-M   'P 1'
_cell_length_a   5.96577700
_cell_length_b   5.96577637
_cell_length_c   23.22228400
_cell_angle_alpha   90.00000000
_cell_angle_beta   90.00000000
_cell_angle_gamma   119.99999793
_symmetry_Int_Tables_number   1
_chemical_formula_structural   Fe12PbO19
_chemical_formula_sum   'Fe24 Pb2 O38'
_cell_volume   715.76351655
_cell_formula_units_Z   2
loop_
 _symmetry_equiv_pos_site_id
 _symmetry_equiv_pos_as_xyz
  1  'x, y, z'
loop_
 _atom_site_type_symbol
 _atom_site_label
 _atom_site_symmetry_multiplicity
 _atom_site_fract_x
 _atom_site_fract_y
 _atom_site_fract_z
 _atom_site_occupancy
  Fe  Fe0  1  0.33567500  0.16783700  0.39145300  1
  Fe  Fe1  1  0.66666700  0.33333300  0.69090500  1
  Fe  Fe2  1  0.66432500  0.83216300  0.60854700  1
  Fe  Fe3  1  0.83216300  0.16783700  0.10854700  1
  Fe  Fe4  1  0.83216300  0.66432500  0.39145300  1
  Fe  Fe5  1  0.66666700  0.33333300  0.97313500  1
  Fe  Fe6  1  0.16783700  0.83216300  0.60854700  1
  Fe  Fe7  1  0.33333300  0.66666700  0.47313500  1
  Fe  Fe8  1  0.16783700  0.33567500  0.60854700  1
  Fe  Fe9  1  0.33567500  0.16783700  0.10854700  1
  Fe  Fe10  1  0.33333300  0.66666700  0.30909500  1
  Fe  Fe11  1  0.66666700  0.33333300  0.80909500  1
  Fe  Fe12  1  0.16783700  0.33567500  0.89145300  1
  Fe  Fe13  1  0.00000000  0.00000000  0.50000000  1
  Fe  Fe14  1  0.66666700  0.33333300  0.52686500  1
  Fe  Fe15  1  0.33333300  0.66666700  0.02686500  1
  Fe  Fe16  1  0.83216300  0.16783700  0.39145300  1
  Fe  Fe17  1  0.83216300  0.66432500  0.10854700  1
  Fe  Fe18  1  0.66432500  0.83216300  0.89145300  1
  Fe  Fe19  1  0.00000000  0.00000000  0.75000000  1
  Fe  Fe20  1  0.16783700  0.83216300  0.89145300  1
  Fe  Fe21  1  0.33333300  0.66666700  0.19090500  1
  Fe  Fe22  1  0.00000000  0.00000000  0.00000000  1
  Fe  Fe23  1  0.00000000  0.00000000  0.25000000  1
  Pb  Pb0  1  0.66666700  0.33333300  0.25000000  1
  Pb  Pb1  1  0.33333300  0.66666700  0.75000000  1
  O  O0  1  0.84819900  0.69639900  0.55048300  1
  O  O1  1  0.00483200  0.50241600  0.64978900  1
  O  O2  1  0.49758400  0.50241600  0.85021100  1
  O  O3  1  0.84819900  0.15180100  0.55048300  1
  O  O4  1  0.66666700  0.33333300  0.05622100  1
  O  O5  1  0.50241600  0.49758400  0.35021100  1
  O  O6  1  0.63479800  0.81739900  0.25000000  1
  O  O7  1  0.49758400  0.99516800  0.64978900  1
  O  O8  1  0.36520200  0.18260100  0.75000000  1
  O  O9  1  0.30360100  0.15180100  0.94951700  1
  O  O10  1  0.30360100  0.15180100  0.55048300  1
  O  O11  1  0.69639900  0.84819900  0.05048300  1
  O  O12  1  0.15180100  0.30360100  0.05048300  1
  O  O13  1  0.50241600  0.00483200  0.35021100  1
  O  O14  1  0.33333300  0.66666700  0.55622100  1
  O  O15  1  0.18260100  0.36520200  0.25000000  1
  O  O16  1  0.00000000  0.00000000  0.84775800  1
  O  O17  1  0.18260100  0.81739900  0.25000000  1
  O  O18  1  0.00000000  0.00000000  0.34775800  1
  O  O19  1  0.84819900  0.15180100  0.94951700  1
  O  O20  1  0.50241600  0.00483200  0.14978900  1
  O  O21  1  0.00483200  0.50241600  0.85021100  1
  O  O22  1  0.81739900  0.18260100  0.75000000  1
  O  O23  1  0.00000000  0.00000000  0.65224200  1
  O  O24  1  0.66666700  0.33333300  0.44377900  1
  O  O25  1  0.33333300  0.66666700  0.94377900  1
  O  O26  1  0.50241600  0.49758400  0.14978900  1
  O  O27  1  0.49758400  0.50241600  0.64978900  1
  O  O28  1  0.81739900  0.63479800  0.75000000  1
  O  O29  1  0.99516800  0.49758400  0.14978900  1
  O  O30  1  0.69639900  0.84819900  0.44951700  1
  O  O31  1  0.49758400  0.99516800  0.85021100  1
  O  O32  1  0.15180100  0.84819900  0.44951700  1
  O  O33  1  0.15180100  0.30360100  0.44951700  1
  O  O34  1  0.15180100  0.84819900  0.05048300  1
  O  O35  1  0.00000000  0.00000000  0.15224200  1
  O  O36  1  0.99516800  0.49758400  0.35021100  1
  O  O37  1  0.84819900  0.69639900  0.94951700  1
loop_
_geom_bond_atom_site_label_1
_geom_bond_atom_site_label_2
_geom_bond_distance
_geom_bond_site_symmetry_2
Fe0 O13 1.954420 1_555
Fe0 O5 1.954425 1_555
Fe0 O18 2.009304 1_555
Fe0 O24 2.097831 1_555
Fe0 O32 2.136794 1_545
Fe0 O33 2.136794 1_555
Fe1 O7 1.991014 1_545
Fe1 O1 1.991014 1_655
Fe1 O27 1.991018 1_555
Fe1 O22 2.075844 1_555
Fe1 O28 2.075848 1_555
Fe1 O8 2.075848 1_555
Fe2 O7 1.954420 1_555
Fe2 O27 1.954425 1_555
Fe2 O23 2.009304 1_665
Fe2 O14 2.097831 1_555
Fe2 O3 2.136794 1_565
Fe2 O0 2.136794 1_555
Fe3 O29 1.954425 1_555
Fe3 O20 1.954425 1_555
Fe3 O35 2.009300 1_655
Fe3 O4 2.097831 1_555
Fe3 O11 2.136794 1_545
Fe3 O12 2.136794 1_655
Fe4 O36 1.954420 1_555
Fe4 O5 1.954425 1_555
Fe4 O18 2.009304 1_665
Fe4 O24 2.097831 1_555
Fe4 O30 2.136794 1_555
Fe4 O32 2.136794 1_655
Fe5 O4 1.929447 1_556
Fe5 O19 1.954315 1_555
Fe5 O37 1.954324 1_555
Fe5 O9 1.954325 1_555
Fe6 O1 1.954425 1_555
Fe6 O7 1.954425 1_555
Fe6 O23 2.009300 1_565
Fe6 O14 2.097831 1_555
Fe6 O10 2.136794 1_565
Fe6 O0 2.136794 1_455
Fe7 O14 1.929447 1_555
Fe7 O32 1.954315 1_555
Fe7 O33 1.954324 1_555
Fe7 O30 1.954325 1_555
Fe8 O1 1.954420 1_555
Fe8 O27 1.954425 1_555
Fe8 O23 2.009304 1_555
Fe8 O14 2.097831 1_555
Fe8 O10 2.136794 1_555
Fe8 O3 2.136794 1_455
Fe9 O20 1.954420 1_555
Fe9 O26 1.954425 1_555
Fe9 O35 2.009304 1_555
Fe9 O4 2.097831 1_555
Fe9 O34 2.136794 1_545
Fe9 O12 2.136794 1_555
Fe10 O13 1.991014 1_565
Fe10 O36 1.991014 1_455
Fe10 O5 1.991018 1_555
Fe10 O17 2.075844 1_555
Fe10 O15 2.075848 1_555
Fe10 O6 2.075848 1_555
Fe11 O31 1.991014 1_545
Fe11 O21 1.991014 1_655
Fe11 O2 1.991018 1_555
Fe11 O22 2.075844 1_555
Fe11 O28 2.075848 1_555
Fe11 O8 2.075848 1_555
Fe12 O21 1.954420 1_555
Fe12 O2 1.954425 1_555
Fe12 O16 2.009304 1_555
Fe12 O25 2.097831 1_555
Fe12 O9 2.136794 1_555
Fe12 O19 2.136794 1_455
Fe13 O0 1.958248 1_445
Fe13 O33 1.958248 1_555
Fe13 O10 1.958248 1_555
Fe13 O30 1.958248 1_445
Fe13 O3 1.958252 1_455
Fe13 O32 1.958252 1_545
Fe14 O24 1.929447 1_555
Fe14 O3 1.954315 1_555
Fe14 O0 1.954324 1_555
Fe14 O10 1.954325 1_555
Fe15 O25 1.929447 1_554
Fe15 O34 1.954315 1_555
Fe15 O12 1.954324 1_555
Fe15 O11 1.954325 1_555
Fe16 O36 1.954425 1_555
Fe16 O13 1.954425 1_555
Fe16 O18 2.009300 1_655
Fe16 O24 2.097831 1_555
Fe16 O30 2.136794 1_545
Fe16 O33 2.136794 1_655
Fe17 O29 1.954420 1_555
Fe17 O26 1.954425 1_555
Fe17 O35 2.009304 1_665
Fe17 O4 2.097831 1_555
Fe17 O11 2.136794 1_555
Fe17 O34 2.136794 1_655
Fe18 O31 1.954420 1_555
Fe18 O2 1.954425 1_555
Fe18 O16 2.009304 1_665
Fe18 O25 2.097831 1_555
Fe18 O19 2.136794 1_565
Fe18 O37 2.136794 1_555
Fe19 O28 1.886821 1_445
Fe19 O22 1.886821 1_455
Fe19 O8 1.886821 1_555
Fe19 O16 2.270164 1_555
Fe19 O23 2.270164 1_555
Fe20 O21 1.954425 1_555
Fe20 O31 1.954425 1_555
Fe20 O16 2.009300 1_565
Fe20 O25 2.097831 1_555
Fe20 O9 2.136794 1_565
Fe20 O37 2.136794 1_455
Fe21 O20 1.991014 1_565
Fe21 O29 1.991014 1_455
Fe21 O26 1.991018 1_555
Fe21 O17 2.075844 1_555
Fe21 O15 2.075848 1_555
Fe21 O6 2.075848 1_555
Fe22 O37 1.958248 1_444
Fe22 O12 1.958248 1_555
Fe22 O9 1.958248 1_554
Fe22 O11 1.958248 1_445
Fe22 O19 1.958252 1_454
Fe22 O34 1.958252 1_545
Fe23 O15 1.886821 1_555
Fe23 O17 1.886821 1_545
Fe23 O6 1.886821 1_445
Fe23 O35 2.270164 1_555
Fe23 O18 2.270164 1_555
