# generated using pymatgen
data_CuO2
_symmetry_space_group_name_H-M   'P 1'
_cell_length_a   5.83183489
_cell_length_b   5.83183489
_cell_length_c   5.83183489
_cell_angle_alpha   60.00000000
_cell_angle_beta   60.00000000
_cell_angle_gamma   60.00000000
_symmetry_Int_Tables_number   1
_chemical_formula_structural   CuO2
_chemical_formula_sum   'Cu4 O8'
_cell_volume   140.24928710
_cell_formula_units_Z   4
loop_
 _symmetry_equiv_pos_site_id
 _symmetry_equiv_pos_as_xyz
  1  'x, y, z'
loop_
 _atom_site_type_symbol
 _atom_site_label
 _atom_site_symmetry_multiplicity
 _atom_site_fract_x
 _atom_site_fract_y
 _atom_site_fract_z
 _atom_site_occupancy
  Cu  Cu0  1  0.12500000  0.12500000  0.12500000  1
  Cu  Cu1  1  0.12500000  0.12500000  0.62500000  1
  Cu  Cu2  1  0.12500000  0.62500000  0.12500000  1
  Cu  Cu3  1  0.62500000  0.12500000  0.12500000  1
  O  O0  1  0.92207700  0.35930800  0.35930800  1
  O  O1  1  0.35930800  0.35930800  0.35930800  1
  O  O2  1  0.32792300  0.89069200  0.89069200  1
  O  O3  1  0.89069200  0.89069200  0.32792300  1
  O  O4  1  0.89069200  0.89069200  0.89069200  1
  O  O5  1  0.89069200  0.32792300  0.89069200  1
  O  O6  1  0.35930800  0.35930800  0.92207700  1
  O  O7  1  0.35930800  0.92207700  0.35930800  1
loop_
_geom_bond_atom_site_label_1
_geom_bond_atom_site_label_2
_geom_bond_distance
_geom_bond_site_symmetry_2
Cu0 O3 1.941094 1_445
Cu0 O5 1.941094 1_454
Cu0 O2 1.941094 1_544
Cu0 O7 1.941094 1_545
Cu0 O6 1.941094 1_554
Cu0 O0 1.941094 1_455
Cu1 O7 1.941090 1_545
Cu1 O0 1.941090 1_455
Cu1 O5 1.941090 1_455
Cu1 O2 1.941090 1_545
Cu1 O4 1.941094 1_445
Cu1 O1 1.941094 1_555
Cu2 O6 1.941090 1_554
Cu2 O0 1.941090 1_455
Cu2 O2 1.941090 1_554
Cu2 O3 1.941090 1_455
Cu2 O4 1.941094 1_454
Cu2 O1 1.941094 1_555
Cu3 O7 1.941090 1_545
Cu3 O6 1.941090 1_554
Cu3 O3 1.941090 1_545
Cu3 O5 1.941090 1_554
Cu3 O4 1.941094 1_544
Cu3 O1 1.941094 1_555
