# generated using pymatgen
data_K3WF6
_symmetry_space_group_name_H-M   'P 1'
_cell_length_a   6.38510283
_cell_length_b   6.38510425
_cell_length_c   6.38510549
_cell_angle_alpha   59.99994802
_cell_angle_beta   59.99996901
_cell_angle_gamma   59.99998421
_symmetry_Int_Tables_number   1
_chemical_formula_structural   K3WF6
_chemical_formula_sum   'K3 W1 F6'
_cell_volume   184.07238655
_cell_formula_units_Z   1
loop_
 _symmetry_equiv_pos_site_id
 _symmetry_equiv_pos_as_xyz
  1  'x, y, z'
loop_
 _atom_site_type_symbol
 _atom_site_label
 _atom_site_symmetry_multiplicity
 _atom_site_fract_x
 _atom_site_fract_y
 _atom_site_fract_z
 _atom_site_occupancy
  K  K0  1  0.74999999  0.74999995  0.74999993  1
  K  K1  1  0.25000004  0.25000002  0.25000002  1
  K  K2  1  0.50000001  0.49999998  0.49999999  1
  W  W0  1  -0.00000093  0.00000089  0.00000097  1
  F  F0  1  0.22814209  0.77185777  0.22814127  1
  F  F1  1  0.77185739  0.77185744  0.22814276  1
  F  F2  1  0.22814255  0.22814262  0.77185728  1
  F  F3  1  0.22814200  0.77185816  0.77185815  1
  F  F4  1  0.77185870  0.22814145  0.77185792  1
  F  F5  1  0.77185813  0.22814172  0.22814171  1
loop_
_geom_bond_atom_site_label_1
_geom_bond_atom_site_label_2
_geom_bond_distance
_geom_bond_site_symmetry_2
F0 W0 2.060096 1_565
F0 K2 2.454853 1_555
F0 K0 3.198644 1_554
F0 K1 3.198644 1_555
F0 K0 3.198649 1_455
F0 K1 3.198652 1_565
F1 W0 2.060104 1_665
F1 K2 2.454844 1_555
F1 K1 3.198646 1_565
F1 K0 3.198646 1_555
F1 K1 3.198646 1_655
F1 K0 3.198650 1_554
F2 W0 2.060104 1_556
F2 K2 2.454844 1_555
F2 K0 3.198646 1_455
F2 K0 3.198646 1_545
F2 K1 3.198647 1_555
F2 K1 3.198649 1_556
F3 W0 2.060107 1_566
F3 K2 2.454853 1_555
F3 K0 3.198645 1_555
F3 K1 3.198645 1_565
F3 K1 3.198645 1_556
F3 K0 3.198649 1_455
F4 W0 2.060096 1_656
F4 K2 2.454853 1_555
F4 K1 3.198644 1_655
F4 K0 3.198647 1_545
F4 K0 3.198649 1_555
F4 K1 3.198649 1_556
F5 W0 2.060089 1_655
F5 K2 2.454854 1_555
F5 K0 3.198645 1_545
F5 K1 3.198646 1_555
F5 K0 3.198646 1_554
F5 K1 3.198649 1_655
