# generated using pymatgen
data_K3Nb3Ge2O13
_symmetry_space_group_name_H-M   'P 1'
_cell_length_a   9.43365895
_cell_length_b   9.43365895
_cell_length_c   7.93414400
_cell_angle_alpha   90.00000000
_cell_angle_beta   90.00000000
_cell_angle_gamma   119.99999265
_symmetry_Int_Tables_number   1
_chemical_formula_structural   K3Nb3Ge2O13
_chemical_formula_sum   'K6 Nb6 Ge4 O26'
_cell_volume   611.49243019
_cell_formula_units_Z   2
loop_
 _symmetry_equiv_pos_site_id
 _symmetry_equiv_pos_as_xyz
  1  'x, y, z'
loop_
 _atom_site_type_symbol
 _atom_site_label
 _atom_site_symmetry_multiplicity
 _atom_site_fract_x
 _atom_site_fract_y
 _atom_site_fract_z
 _atom_site_occupancy
  K  K0  1  0.60020500  0.00000000  0.50000000  1
  K  K1  1  0.39979500  0.39979500  0.50000000  1
  K  K2  1  0.00000000  0.60020500  0.50000000  1
  K  K3  1  0.61490300  0.00000000  0.00000000  1
  K  K4  1  0.38509700  0.38509700  0.00000000  1
  K  K5  1  0.00000000  0.61490300  0.00000000  1
  Nb  Nb0  1  0.23228500  0.00000000  0.25129300  1
  Nb  Nb1  1  0.76771500  0.76771500  0.74870700  1
  Nb  Nb2  1  0.00000000  0.23228500  0.74870700  1
  Nb  Nb3  1  0.00000000  0.23228500  0.25129300  1
  Nb  Nb4  1  0.76771500  0.76771500  0.25129300  1
  Nb  Nb5  1  0.23228500  0.00000000  0.74870700  1
  Ge  Ge0  1  0.33333300  0.66666700  0.22282200  1
  Ge  Ge1  1  0.33333300  0.66666700  0.77717800  1
  Ge  Ge2  1  0.66666700  0.33333300  0.77717800  1
  Ge  Ge3  1  0.66666700  0.33333300  0.22282200  1
  O  O0  1  0.33333300  0.66666700  0.00000000  1
  O  O1  1  0.66666700  0.33333300  0.00000000  1
  O  O2  1  0.27063400  0.00000000  0.00000000  1
  O  O3  1  0.72936600  0.72936600  0.00000000  1
  O  O4  1  0.00000000  0.27063400  0.00000000  1
  O  O5  1  0.82819600  0.00000000  0.22781600  1
  O  O6  1  0.17180400  0.17180400  0.77218400  1
  O  O7  1  0.00000000  0.82819600  0.77218400  1
  O  O8  1  0.00000000  0.82819600  0.22781600  1
  O  O9  1  0.17180400  0.17180400  0.22781600  1
  O  O10  1  0.82819600  0.00000000  0.77218400  1
  O  O11  1  0.47486900  0.17754100  0.28746300  1
  O  O12  1  0.70267200  0.52513100  0.71253700  1
  O  O13  1  0.82245900  0.29732800  0.71253700  1
  O  O14  1  0.82245900  0.29732800  0.28746300  1
  O  O15  1  0.70267200  0.52513100  0.28746300  1
  O  O16  1  0.29732800  0.82245900  0.71253700  1
  O  O17  1  0.52513100  0.70267200  0.71253700  1
  O  O18  1  0.17754100  0.47486900  0.71253700  1
  O  O19  1  0.47486900  0.17754100  0.71253700  1
  O  O20  1  0.17754100  0.47486900  0.28746300  1
  O  O21  1  0.29732800  0.82245900  0.28746300  1
  O  O22  1  0.52513100  0.70267200  0.28746300  1
  O  O23  1  0.21300000  0.00000000  0.50000000  1
  O  O24  1  0.78700000  0.78700000  0.50000000  1
  O  O25  1  0.00000000  0.21300000  0.50000000  1
loop_
_geom_bond_atom_site_label_1
_geom_bond_atom_site_label_2
_geom_bond_distance
_geom_bond_site_symmetry_2
K0 O19 3.004513 1_555
K0 O11 3.004513 1_555
K0 O21 3.004513 1_545
K0 O16 3.004513 1_545
K0 O22 3.037451 1_545
K0 O17 3.037451 1_545
K0 O13 3.037452 1_555
K0 O14 3.037452 1_555
K0 O5 3.047874 1_555
K0 O10 3.047874 1_555
K0 O24 3.268578 1_545
K0 O25 3.268579 1_655
K1 O15 3.004513 1_555
K1 O22 3.004513 1_555
K1 O12 3.004513 1_555
K1 O17 3.004513 1_555
K1 O18 3.037451 1_555
K1 O19 3.037451 1_555
K1 O20 3.037451 1_555
K1 O11 3.037451 1_555
K1 O6 3.047875 1_555
K1 O9 3.047875 1_555
K1 O23 3.268579 1_555
K1 O25 3.268579 1_555
K2 O18 3.004513 1_555
K2 O20 3.004513 1_555
K2 O13 3.004513 1_455
K2 O14 3.004513 1_455
K2 O15 3.037451 1_455
K2 O12 3.037451 1_455
K2 O16 3.037452 1_555
K2 O21 3.037452 1_555
K2 O8 3.047874 1_555
K2 O7 3.047874 1_555
K2 O24 3.268578 1_455
K2 O23 3.268579 1_565
K3 O5 2.704779 1_555
K3 O10 2.704779 1_554
K3 O1 2.931057 1_555
K3 O0 2.931061 1_545
K4 O6 2.704779 1_554
K4 O9 2.704779 1_555
K4 O1 2.931066 1_555
K4 O0 2.931066 1_555
K5 O8 2.704779 1_555
K5 O7 2.704779 1_554
K5 O0 2.931057 1_555
K5 O1 2.931061 1_455
Nb0 O9 1.977816 1_555
Nb0 O8 1.977816 1_545
Nb0 O23 1.981646 1_555
Nb0 O2 2.026351 1_555
Nb0 O21 2.071641 1_545
Nb0 O11 2.071641 1_555
Nb1 O7 1.977816 1_655
Nb1 O10 1.977816 1_565
Nb1 O24 1.981646 1_555
Nb1 O3 2.026351 1_556
Nb1 O12 2.071641 1_555
Nb1 O17 2.071641 1_555
Nb2 O6 1.977816 1_555
Nb2 O10 1.977816 1_455
Nb2 O25 1.981646 1_555
Nb2 O4 2.026351 1_556
Nb2 O13 2.071641 1_455
Nb2 O18 2.071641 1_555
Nb3 O9 1.977816 1_555
Nb3 O5 1.977816 1_455
Nb3 O25 1.981646 1_555
Nb3 O4 2.026351 1_555
Nb3 O14 2.071641 1_455
Nb3 O20 2.071641 1_555
Nb4 O5 1.977816 1_565
Nb4 O8 1.977816 1_655
Nb4 O24 1.981646 1_555
Nb4 O3 2.026351 1_555
Nb4 O15 2.071641 1_555
Nb4 O22 2.071641 1_555
Nb5 O6 1.977816 1_555
Nb5 O7 1.977816 1_545
Nb5 O23 1.981646 1_555
Nb5 O2 2.026351 1_556
Nb5 O16 2.071641 1_545
Nb5 O19 2.071641 1_555
Ge0 O21 1.742866 1_555
Ge0 O20 1.742872 1_555
Ge0 O22 1.742875 1_555
Ge0 O0 1.767902 1_555
Ge1 O16 1.742866 1_555
Ge1 O18 1.742872 1_555
Ge1 O17 1.742875 1_555
Ge1 O0 1.767902 1_556
Ge2 O13 1.742866 1_555
Ge2 O19 1.742872 1_555
Ge2 O12 1.742875 1_555
Ge2 O1 1.767902 1_556
Ge3 O14 1.742866 1_555
Ge3 O11 1.742872 1_555
Ge3 O15 1.742875 1_555
Ge3 O1 1.767902 1_555
