# generated using pymatgen
data_SiO2
_symmetry_space_group_name_H-M   'P 1'
_cell_length_a   7.03307129
_cell_length_b   6.85758117
_cell_length_c   6.85758117
_cell_angle_alpha   90.00000000
_cell_angle_beta   90.00000000
_cell_angle_gamma   90.00000000
_symmetry_Int_Tables_number   1
_chemical_formula_structural   SiO2
_chemical_formula_sum   'Si8 O16'
_cell_volume   330.74016088
_cell_formula_units_Z   8
loop_
 _symmetry_equiv_pos_site_id
 _symmetry_equiv_pos_as_xyz
  1  'x, y, z'
loop_
 _atom_site_type_symbol
 _atom_site_label
 _atom_site_symmetry_multiplicity
 _atom_site_fract_x
 _atom_site_fract_y
 _atom_site_fract_z
 _atom_site_occupancy
  Si  Si0  1  0.94917857  0.45100694  0.79418079  1
  Si  Si1  1  0.55082143  0.29418079  0.95100694  1
  Si  Si2  1  0.55082143  0.70581921  0.04899306  1
  Si  Si3  1  0.05082143  0.79418079  0.54899306  1
  Si  Si4  1  0.94917857  0.54899306  0.20581921  1
  Si  Si5  1  0.44917857  0.04899306  0.29418079  1
  Si  Si6  1  0.44917857  0.95100694  0.70581921  1
  Si  Si7  1  0.05082143  0.20581921  0.45100694  1
  O  O0  1  0.58323830  0.81801520  0.84305681  1
  O  O1  1  0.08323830  0.31801520  0.65694319  1
  O  O2  1  0.08323830  0.68198480  0.34305681  1
  O  O3  1  0.05028089  0.50000000  -0.00000000  1
  O  O4  1  0.75000000  0.33920913  0.83920913  1
  O  O5  1  0.94972011  0.00000000  0.50000000  1
  O  O6  1  0.91676170  0.34305681  0.31801520  1
  O  O7  1  0.91676170  0.65694319  0.68198480  1
  O  O8  1  0.44972011  0.50000000  -0.00000000  1
  O  O9  1  0.58323830  0.18198480  0.15694319  1
  O  O10  1  0.55027989  0.00000000  0.50000000  1
  O  O11  1  0.41676170  0.15694319  0.81801520  1
  O  O12  1  0.41676170  0.84305681  0.18198480  1
  O  O13  1  0.25000000  0.16079087  0.33920913  1
  O  O14  1  0.25000000  0.83920913  0.66079087  1
  O  O15  1  0.75000000  0.66079087  0.16079087  1
loop_
_geom_bond_atom_site_label_1
_geom_bond_atom_site_label_2
_geom_bond_distance
_geom_bond_site_symmetry_2
O0 Si6 1.614441 1_555
O0 Si2 1.624292 1_556
O1 Si0 1.614441 1_455
O1 Si7 1.624292 1_555
O2 Si4 1.614441 1_455
O2 Si3 1.624292 1_555
O3 Si0 1.615734 1_454
O3 Si4 1.615734 1_455
O4 Si1 1.626488 1_555
O4 Si0 1.626488 1_555
O5 Si7 1.615731 1_655
O5 Si3 1.615731 1_645
O6 Si7 1.614441 1_655
O6 Si4 1.624292 1_555
O7 Si3 1.614441 1_655
O7 Si0 1.624292 1_555
O8 Si1 1.615731 1_554
O8 Si2 1.615731 1_555
O9 Si5 1.614441 1_555
O9 Si1 1.624292 1_554
O10 Si5 1.615731 1_555
O10 Si6 1.615731 1_545
O11 Si1 1.614441 1_555
O11 Si6 1.624292 1_545
O12 Si2 1.614441 1_555
O12 Si5 1.624292 1_565
O13 Si7 1.626488 1_555
O13 Si5 1.626488 1_555
O14 Si6 1.626488 1_555
O14 Si3 1.626488 1_555
O15 Si2 1.626488 1_555
O15 Si4 1.626488 1_555
