# generated using pymatgen
data_NaLi3GeO4
_symmetry_space_group_name_H-M   'P 1'
_cell_length_a   10.23593075
_cell_length_b   10.23593075
_cell_length_c   10.23593075
_cell_angle_alpha   113.62647814
_cell_angle_beta   113.62647814
_cell_angle_gamma   101.44662978
_symmetry_Int_Tables_number   1
_chemical_formula_structural   NaLi3GeO4
_chemical_formula_sum   'Na8 Li24 Ge8 O32'
_cell_volume   813.67825820
_cell_formula_units_Z   8
loop_
 _symmetry_equiv_pos_site_id
 _symmetry_equiv_pos_as_xyz
  1  'x, y, z'
loop_
 _atom_site_type_symbol
 _atom_site_label
 _atom_site_symmetry_multiplicity
 _atom_site_fract_x
 _atom_site_fract_y
 _atom_site_fract_z
 _atom_site_occupancy
  Na  Na0  1  0.55590000  0.01819300  0.01214200  1
  Na  Na1  1  0.19410000  0.23180700  0.48785800  1
  Na  Na2  1  0.98180700  0.99394900  0.53770700  1
  Na  Na3  1  0.00605100  0.54375800  0.98785800  1
  Na  Na4  1  0.74394900  0.70624200  0.51214200  1
  Na  Na5  1  0.29375800  0.80590000  0.03770700  1
  Na  Na6  1  0.76819300  0.25605100  0.96229300  1
  Na  Na7  1  0.45624200  0.44410000  0.46229300  1
  Li  Li0  1  0.41007900  0.58785700  0.13562000  1
  Li  Li1  1  0.44718700  0.31126500  0.14751000  1
  Li  Li2  1  0.22352900  0.09013200  0.19070800  1
  Li  Li3  1  0.85057600  0.21717900  0.69070800  1
  Li  Li4  1  0.68873500  0.83624500  0.13592200  1
  Li  Li5  1  0.90986800  0.10057600  0.13339700  1
  Li  Li6  1  0.30281300  0.93873500  0.35249000  1
  Li  Li7  1  0.72554100  0.58992100  0.17777800  1
  Li  Li8  1  0.06126500  0.41375500  0.36407800  1
  Li  Li9  1  0.33992100  0.66214300  0.36438000  1
  Li  Li10  1  0.41214300  0.54776300  0.82222200  1
  Li  Li11  1  0.96717900  0.77647100  0.86660300  1
  Li  Li12  1  0.70032300  0.55281300  0.86407800  1
  Li  Li13  1  0.45223700  0.27445900  0.86438000  1
  Li  Li14  1  0.89942400  0.03282100  0.80929200  1
  Li  Li15  1  0.04967700  0.69718700  0.63592200  1
  Li  Li16  1  0.29776300  0.97554100  0.63562000  1
  Li  Li17  1  0.16375500  0.29967700  0.85249000  1
  Li  Li18  1  0.52647100  0.15986800  0.30929200  1
  Li  Li19  1  0.02445900  0.66007900  0.32222200  1
  Li  Li20  1  0.84013200  0.14942400  0.36660300  1
  Li  Li21  1  0.33785700  0.70223700  0.67777800  1
  Li  Li22  1  0.58624500  0.95032300  0.64751000  1
  Li  Li23  1  0.78282100  0.47352900  0.63339700  1
  Ge  Ge0  1  0.21567600  0.00422500  0.85723800  1
  Ge  Ge1  1  0.75422500  0.39698700  0.28854800  1
  Ge  Ge2  1  0.14698700  0.35843900  0.14276200  1
  Ge  Ge3  1  0.53432400  0.24577500  0.64276200  1
  Ge  Ge4  1  0.60301300  0.89156100  0.35723800  1
  Ge  Ge5  1  0.99577500  0.85301300  0.21145200  1
  Ge  Ge6  1  0.10843900  0.46567600  0.71145200  1
  Ge  Ge7  1  0.64156100  0.78432400  0.78854800  1
  O  O0  1  0.47951100  0.72764700  0.58970400  1
  O  O1  1  0.73616300  0.65903200  0.74580800  1
  O  O2  1  0.50538800  0.10578800  0.70140600  1
  O  O3  1  0.64897600  0.38011400  0.38785200  1
  O  O4  1  0.75773800  0.98887600  0.88785200  1
  O  O5  1  0.01112400  0.89897600  0.76886200  1
  O  O6  1  0.01383700  0.59096800  0.75419200  1
  O  O7  1  0.99226200  0.26112400  0.61214800  1
  O  O8  1  0.27235300  0.86205700  0.75186400  1
  O  O9  1  0.73887600  0.35102400  0.73113800  1
  O  O10  1  0.27048900  0.52235300  0.91029600  1
  O  O11  1  0.83677600  0.25964500  0.24580800  1
  O  O12  1  0.19601800  0.49461200  0.60040000  1
  O  O13  1  0.40438200  0.80398200  0.29859400  1
  O  O14  1  0.11019300  0.52048900  0.24813600  1
  O  O15  1  0.61988600  0.00773800  0.26886200  1
  O  O16  1  0.10102400  0.86988600  0.11214800  1
  O  O17  1  0.24461200  0.14421200  0.79859400  1
  O  O18  1  0.34561800  0.44601800  0.20140600  1
  O  O19  1  0.34096800  0.08677600  0.07713100  1
  O  O20  1  0.55398200  0.75538800  0.89960000  1
  O  O21  1  0.61205700  0.36019300  0.08970400  1
  O  O22  1  0.89421200  0.59561800  0.39960000  1
  O  O23  1  0.63980700  0.72951100  0.25186400  1
  O  O24  1  0.40903200  0.16322400  0.42286900  1
  O  O25  1  0.13011400  0.24226200  0.23113800  1
  O  O26  1  0.47764700  0.38794300  0.74813600  1
  O  O27  1  0.00964500  0.26383700  0.92286900  1
  O  O28  1  0.13794300  0.88980700  0.41029600  1
  O  O29  1  0.74035500  0.98616300  0.57713100  1
  O  O30  1  0.85578800  0.65438200  0.10040000  1
  O  O31  1  0.91322400  0.99035500  0.25419200  1
loop_
_geom_bond_atom_site_label_1
_geom_bond_atom_site_label_2
_geom_bond_distance
_geom_bond_site_symmetry_2
Na0 O20 2.457813 1_544
Na0 O15 2.493851 1_555
Na0 O8 2.573708 1_544
Na0 O11 2.650369 1_555
Na0 O19 2.680900 1_555
Na0 O4 2.832634 1_544
Na1 O12 2.457813 1_555
Na1 O25 2.493851 1_555
Na1 O26 2.573708 1_555
Na1 O31 2.650369 1_445
Na1 O24 2.680900 1_555
Na1 O7 2.832634 1_455
Na2 O17 2.457813 1_665
Na2 O7 2.493851 1_565
Na2 O28 2.573708 1_655
Na2 O29 2.650369 1_555
Na2 O31 2.680900 1_555
Na2 O5 2.832634 1_655
Na3 O30 2.457813 1_456
Na3 O9 2.493851 1_455
Na3 O14 2.573708 1_556
Na3 O6 2.650369 1_555
Na3 O27 2.680900 1_555
Na3 O16 2.832634 1_556
Na4 O22 2.457813 1_555
Na4 O5 2.493851 1_655
Na4 O23 2.573708 1_555
Na4 O1 2.650369 1_555
Na4 O29 2.680900 1_555
Na4 O3 2.832634 1_555
Na5 O13 2.457813 1_555
Na5 O16 2.493851 1_555
Na5 O10 2.573708 1_554
Na5 O19 2.650369 1_565
Na5 O6 2.680900 1_554
Na5 O15 2.832634 1_565
Na6 O2 2.457813 1_555
Na6 O4 2.493851 1_545
Na6 O21 2.573708 1_556
Na6 O27 2.650369 1_655
Na6 O11 2.680900 1_556
Na6 O9 2.832634 1_555
Na7 O18 2.457813 1_555
Na7 O3 2.493851 1_555
Na7 O0 2.573708 1_555
Na7 O24 2.650369 1_555
Na7 O1 2.680900 1_555
Na7 O25 2.832634 1_555
Li0 O10 1.883977 1_554
Li0 O18 1.938098 1_555
Li0 O23 2.017123 1_555
Li0 O13 2.202588 1_555
Li1 O18 1.925287 1_555
Li1 O19 2.008716 1_555
Li1 O21 2.037489 1_555
Li1 O3 2.185125 1_555
Li2 O25 1.975357 1_555
Li2 O19 1.975432 1_555
Li2 O16 1.979416 1_545
Li2 O24 2.051011 1_555
Li3 O9 1.975357 1_555
Li3 O29 1.975432 1_545
Li3 O7 1.979416 1_555
Li3 O27 2.051011 1_655
Li4 O20 1.925287 1_554
Li4 O31 2.008716 1_555
Li4 O23 2.037489 1_555
Li4 O15 2.185125 1_565
Li5 O4 1.975357 1_544
Li5 O31 1.975432 1_545
Li5 O25 1.979416 1_655
Li5 O11 2.051011 1_555
Li6 O13 1.925287 1_555
Li6 O24 2.008716 1_565
Li6 O28 2.037489 1_555
Li6 O16 2.185125 1_555
Li7 O23 1.883977 1_555
Li7 O30 1.938098 1_555
Li7 O21 2.017123 1_555
Li7 O22 2.202588 1_555
Li8 O12 1.925287 1_555
Li8 O11 2.008716 1_455
Li8 O14 2.037489 1_555
Li8 O25 2.185125 1_555
Li9 O0 1.883977 1_555
Li9 O13 1.938098 1_555
Li9 O14 2.017123 1_555
Li9 O18 2.202588 1_555
Li10 O26 1.883977 1_555
Li10 O20 1.938098 1_555
Li10 O10 2.017123 1_555
Li10 O12 2.202588 1_555
Li11 O16 1.975357 1_656
Li11 O1 1.975432 1_555
Li11 O5 1.979416 1_655
Li11 O6 2.051011 1_655
Li12 O30 1.925287 1_556
Li12 O1 2.008716 1_555
Li12 O26 2.037489 1_555
Li12 O9 2.185125 1_555
Li13 O21 1.883977 1_556
Li13 O17 1.938098 1_555
Li13 O26 2.017123 1_555
Li13 O2 2.202588 1_555
Li14 O5 1.975357 1_645
Li14 O27 1.975432 1_655
Li14 O4 1.979416 1_545
Li14 O29 2.051011 1_545
Li15 O22 1.925287 1_455
Li15 O6 2.008716 1_555
Li15 O8 2.037489 1_555
Li15 O5 2.185125 1_555
Li16 O28 1.883977 1_555
Li16 O2 1.938098 1_565
Li16 O8 2.017123 1_555
Li16 O17 2.202588 1_565
Li17 O17 1.925287 1_555
Li17 O27 2.008716 1_555
Li17 O10 2.037489 1_555
Li17 O7 2.185125 1_455
Li18 O15 1.975357 1_555
Li18 O24 1.975432 1_555
Li18 O3 1.979416 1_555
Li18 O19 2.051011 1_555
Li19 O14 1.883977 1_555
Li19 O22 1.938098 1_455
Li19 O28 2.017123 1_555
Li19 O30 2.202588 1_455
Li20 O7 1.975357 1_555
Li20 O11 1.975432 1_555
Li20 O15 1.979416 1_555
Li20 O31 2.051011 1_545
Li21 O8 1.883977 1_555
Li21 O12 1.938098 1_555
Li21 O0 2.017123 1_555
Li21 O20 2.202588 1_555
Li22 O2 1.925287 1_565
Li22 O29 2.008716 1_555
Li22 O0 2.037489 1_555
Li22 O4 2.185125 1_555
Li23 O3 1.975357 1_555
Li23 O6 1.975432 1_655
Li23 O9 1.979416 1_555
Li23 O1 2.051011 1_555
Ge0 O19 1.776672 1_556
Ge0 O17 1.778974 1_555
Ge0 O5 1.779954 1_545
Ge0 O8 1.787779 1_545
Ge1 O11 1.776671 1_555
Ge1 O22 1.778972 1_555
Ge1 O3 1.779963 1_555
Ge1 O21 1.787771 1_555
Ge2 O27 1.776671 1_554
Ge2 O18 1.778972 1_555
Ge2 O25 1.779963 1_555
Ge2 O14 1.787771 1_555
Ge3 O24 1.776672 1_555
Ge3 O2 1.778974 1_555
Ge3 O9 1.779954 1_555
Ge3 O26 1.787779 1_555
Ge4 O29 1.776671 1_555
Ge4 O13 1.778972 1_555
Ge4 O15 1.779963 1_565
Ge4 O23 1.787771 1_555
Ge5 O31 1.776671 1_555
Ge5 O30 1.778972 1_555
Ge5 O16 1.779963 1_655
Ge5 O28 1.787771 1_655
Ge6 O6 1.776678 1_555
Ge6 O12 1.778975 1_555
Ge6 O7 1.779954 1_455
Ge6 O10 1.787768 1_555
Ge7 O1 1.776678 1_555
Ge7 O20 1.778975 1_555
Ge7 O4 1.779954 1_555
Ge7 O0 1.787768 1_555
