# generated using pymatgen
data_Sr2MnSbO6
_symmetry_space_group_name_H-M   'P 1'
_cell_length_a   5.74008525
_cell_length_b   5.74008525
_cell_length_c   5.74008525
_cell_angle_alpha   121.64546057
_cell_angle_beta   121.64546057
_cell_angle_gamma   87.17284948
_symmetry_Int_Tables_number   1
_chemical_formula_structural   Sr2MnSbO6
_chemical_formula_sum   'Sr2 Mn1 Sb1 O6'
_cell_volume   130.23496497
_cell_formula_units_Z   1
loop_
 _symmetry_equiv_pos_site_id
 _symmetry_equiv_pos_as_xyz
  1  'x, y, z'
loop_
 _atom_site_type_symbol
 _atom_site_label
 _atom_site_symmetry_multiplicity
 _atom_site_fract_x
 _atom_site_fract_y
 _atom_site_fract_z
 _atom_site_occupancy
  Sr  Sr0  1  0.75000000  0.25000000  0.50000000  1
  Sr  Sr1  1  0.25000000  0.75000000  0.50000000  1
  Mn  Mn0  1  0.00000000  0.00000000  0.00000000  1
  Sb  Sb0  1  0.50000000  0.50000000  0.00000000  1
  O  O0  1  0.73729700  0.73729700  0.00000000  1
  O  O1  1  0.24648100  0.24648100  0.49296100  1
  O  O2  1  0.24648100  0.75351900  0.00000000  1
  O  O3  1  0.75351900  0.75351900  0.50703900  1
  O  O4  1  0.26270300  0.26270300  0.00000000  1
  O  O5  1  0.75351900  0.24648100  0.00000000  1
loop_
_geom_bond_atom_site_label_1
_geom_bond_atom_site_label_2
_geom_bond_distance
_geom_bond_site_symmetry_2
Mn0 O1 1.950888 1_555
Mn0 O3 1.950888 1_444
Mn0 O2 1.950892 1_545
Mn0 O5 1.950892 1_455
Mn0 O4 2.184505 1_555
Mn0 O0 2.184505 1_445
O0 Sb0 1.973241 1_555
O0 Sr0 2.800361 1_554
O0 Sr1 2.800361 1_554
O0 Sr1 2.800361 1_655
O0 Sr0 2.800361 1_565
O1 Sb0 2.006602 1_556
O1 Sr1 2.870175 1_555
O1 Sr0 2.870175 1_555
O1 Sr1 2.870181 1_545
O1 Sr0 2.870181 1_455
O2 Sb0 2.006598 1_555
O2 Sr1 2.870178 1_555
O2 Sr0 2.870178 1_454
O2 Sr1 2.870178 1_554
O2 Sr0 2.870178 1_565
O3 Sb0 2.006602 1_555
O3 Sr1 2.870175 1_555
O3 Sr0 2.870175 1_555
O3 Sr1 2.870181 1_655
O3 Sr0 2.870181 1_565
O4 Sb0 1.973241 1_555
O4 Sr1 2.800361 1_555
O4 Sr1 2.800361 1_544
O4 Sr0 2.800361 1_555
O4 Sr0 2.800361 1_454
O5 Sb0 2.006598 1_555
O5 Sr1 2.870178 1_544
O5 Sr0 2.870178 1_555
O5 Sr1 2.870178 1_655
O5 Sr0 2.870178 1_554
