# generated using pymatgen
data_Ba(BO2)2
_symmetry_space_group_name_H-M   'P 1'
_cell_length_a   8.39774696
_cell_length_b   8.39774625
_cell_length_c   8.39774744
_cell_angle_alpha   97.03737863
_cell_angle_beta   97.03737751
_cell_angle_gamma   97.03737895
_symmetry_Int_Tables_number   1
_chemical_formula_structural   Ba(BO2)2
_chemical_formula_sum   'Ba6 B12 O24'
_cell_volume   577.62369083
_cell_formula_units_Z   6
loop_
 _symmetry_equiv_pos_site_id
 _symmetry_equiv_pos_as_xyz
  1  'x, y, z'
loop_
 _atom_site_type_symbol
 _atom_site_label
 _atom_site_symmetry_multiplicity
 _atom_site_fract_x
 _atom_site_fract_y
 _atom_site_fract_z
 _atom_site_occupancy
  Ba  Ba0  1  0.25753034  0.62060489  0.97518909  1
  Ba  Ba1  1  0.62060489  0.97518909  0.25753034  1
  Ba  Ba2  1  0.97518909  0.25753034  0.62060489  1
  Ba  Ba3  1  0.47518909  0.12060489  0.75753034  1
  Ba  Ba4  1  0.12060489  0.75753034  0.47518909  1
  Ba  Ba5  1  0.75753034  0.47518909  0.12060489  1
  B  B0  1  0.12297511  0.95126629  0.90620296  1
  B  B1  1  0.95126629  0.90620296  0.12297511  1
  B  B2  1  0.90620296  0.12297511  0.95126629  1
  B  B3  1  0.40620296  0.45126629  0.62297511  1
  B  B4  1  0.45126629  0.62297511  0.40620296  1
  B  B5  1  0.62297511  0.40620296  0.45126629  1
  B  B6  1  0.65525180  0.73337228  0.87917649  1
  B  B7  1  0.87917649  0.65525180  0.73337228  1
  B  B8  1  0.73337228  0.87917649  0.65525180  1
  B  B9  1  0.23337228  0.15525180  0.37917649  1
  B  B10  1  0.37917649  0.23337228  0.15525180  1
  B  B11  1  0.15525180  0.37917649  0.23337228  1
  O  O0  1  0.57843950  0.53653782  0.37192775  1
  O  O1  1  0.37192775  0.57843950  0.53653782  1
  O  O2  1  0.53653782  0.37192775  0.57843950  1
  O  O3  1  0.03653782  0.07843950  0.87192775  1
  O  O4  1  0.87192775  0.03653782  0.07843950  1
  O  O5  1  0.07843950  0.87192775  0.03653782  1
  O  O6  1  0.57163226  0.71520293  0.00018178  1
  O  O7  1  0.00018178  0.57163226  0.71520293  1
  O  O8  1  0.71520293  0.00018178  0.57163226  1
  O  O9  1  0.21520293  0.07163226  0.50018178  1
  O  O10  1  0.50018178  0.21520293  0.07163226  1
  O  O11  1  0.07163226  0.50018178  0.21520293  1
  O  O12  1  0.77590030  0.63522840  0.84995857  1
  O  O13  1  0.84995857  0.77590030  0.63522840  1
  O  O14  1  0.63522840  0.84995857  0.77590030  1
  O  O15  1  0.13522840  0.27590030  0.34995857  1
  O  O16  1  0.34995857  0.13522840  0.27590030  1
  O  O17  1  0.27590030  0.34995857  0.13522840  1
  O  O18  1  0.73623558  0.32378820  0.40330566  1
  O  O19  1  0.40330566  0.73623558  0.32378820  1
  O  O20  1  0.32378820  0.40330566  0.73623558  1
  O  O21  1  0.82378820  0.23623558  0.90330566  1
  O  O22  1  0.90330566  0.82378820  0.23623558  1
  O  O23  1  0.23623558  0.90330566  0.82378820  1
loop_
_geom_bond_atom_site_label_1
_geom_bond_atom_site_label_2
_geom_bond_distance
_geom_bond_site_symmetry_2
Ba0 O6 2.634936 1_556
Ba0 O20 2.700265 1_555
Ba0 O5 2.771809 1_556
Ba0 O17 2.789149 1_556
Ba0 O7 2.830638 1_555
Ba0 O23 2.841223 1_555
Ba0 O11 2.899306 1_556
Ba0 O19 3.024157 1_556
Ba1 O8 2.634936 1_565
Ba1 O19 2.700265 1_555
Ba1 O4 2.771809 1_565
Ba1 O16 2.789149 1_565
Ba1 O6 2.830638 1_555
Ba1 O22 2.841223 1_555
Ba1 O10 2.899306 1_565
Ba1 O18 3.024157 1_565
Ba2 O7 2.634936 1_655
Ba2 O18 2.700265 1_555
Ba2 O3 2.771809 1_655
Ba2 O15 2.789149 1_655
Ba2 O8 2.830638 1_555
Ba2 O21 2.841223 1_555
Ba2 O9 2.899306 1_655
Ba2 O20 3.024157 1_655
Ba3 O10 2.634936 1_556
Ba3 O23 2.700265 1_545
Ba3 O2 2.771809 1_555
Ba3 O14 2.789149 1_545
Ba3 O9 2.830638 1_555
Ba3 O20 2.841223 1_555
Ba3 O8 2.899306 1_555
Ba3 O21 3.024157 1_555
Ba4 O9 2.634936 1_565
Ba4 O22 2.700265 1_455
Ba4 O1 2.771809 1_555
Ba4 O13 2.789149 1_455
Ba4 O11 2.830638 1_555
Ba4 O19 2.841223 1_555
Ba4 O7 2.899306 1_555
Ba4 O23 3.024157 1_555
Ba5 O11 2.634936 1_655
Ba5 O21 2.700265 1_554
Ba5 O0 2.771809 1_555
Ba5 O12 2.789149 1_554
Ba5 O10 2.830638 1_555
Ba5 O18 2.841223 1_555
Ba5 O6 2.899306 1_555
Ba5 O22 3.024157 1_555
B0 O23 1.316334 1_555
B0 O3 1.401566 1_565
B0 O5 1.414104 1_556
B1 O22 1.316334 1_555
B1 O5 1.401566 1_655
B1 O4 1.414104 1_565
B2 O21 1.316334 1_555
B2 O4 1.401566 1_556
B2 O3 1.414104 1_655
B3 O20 1.316334 1_555
B3 O1 1.401566 1_555
B3 O2 1.414104 1_555
B4 O19 1.316334 1_555
B4 O0 1.401566 1_555
B4 O1 1.414104 1_555
B5 O18 1.316334 1_555
B5 O2 1.401566 1_555
B5 O0 1.414104 1_555
B6 O6 1.317414 1_556
B6 O14 1.397031 1_555
B6 O12 1.407832 1_555
B7 O7 1.317414 1_655
B7 O12 1.397031 1_555
B7 O13 1.407832 1_555
B8 O8 1.317414 1_565
B8 O13 1.397031 1_555
B8 O14 1.407832 1_555
B9 O9 1.317414 1_555
B9 O16 1.397031 1_555
B9 O15 1.407832 1_555
B10 O10 1.317414 1_555
B10 O17 1.397031 1_555
B10 O16 1.407832 1_555
B11 O11 1.317414 1_555
B11 O15 1.397031 1_555
B11 O17 1.407832 1_555
