# generated using pymatgen
data_UV2PbO9
_symmetry_space_group_name_H-M   'P 1'
_cell_length_a   9.90611900
_cell_length_b   7.02201000
_cell_length_c   13.65989536
_cell_angle_alpha   61.74453890
_cell_angle_beta   90.00000000
_cell_angle_gamma   90.00000000
_symmetry_Int_Tables_number   1
_chemical_formula_structural   UV2PbO9
_chemical_formula_sum   'U4 V8 Pb4 O36'
_cell_volume   836.97436415
_cell_formula_units_Z   4
loop_
 _symmetry_equiv_pos_site_id
 _symmetry_equiv_pos_as_xyz
  1  'x, y, z'
loop_
 _atom_site_type_symbol
 _atom_site_label
 _atom_site_symmetry_multiplicity
 _atom_site_fract_x
 _atom_site_fract_y
 _atom_site_fract_z
 _atom_site_occupancy
  U  U0  1  0.00010800  0.27520600  0.27102100  1
  U  U1  1  0.99989200  0.72479400  0.72897900  1
  U  U2  1  0.49989200  0.27520600  0.77102100  1
  U  U3  1  0.50010800  0.72479400  0.22897900  1
  V  V0  1  0.72742700  0.68272200  0.53816400  1
  V  V1  1  0.77257300  0.68272200  0.03816400  1
  V  V2  1  0.04180000  0.23466800  0.66993000  1
  V  V3  1  0.54180000  0.76533200  0.83007000  1
  V  V4  1  0.22742700  0.31727800  0.96183600  1
  V  V5  1  0.45820000  0.23466800  0.16993000  1
  V  V6  1  0.95820000  0.76533200  0.33007000  1
  V  V7  1  0.27257300  0.31727800  0.46183600  1
  Pb  Pb0  1  0.69297900  0.15255800  0.53588200  1
  Pb  Pb1  1  0.80702100  0.15255800  0.03588200  1
  Pb  Pb2  1  0.30702100  0.84744200  0.46411800  1
  Pb  Pb3  1  0.19297900  0.84744200  0.96411800  1
  O  O0  1  0.64939200  0.63963700  0.95105400  1
  O  O1  1  0.85060800  0.63963700  0.45105400  1
  O  O2  1  0.34334000  0.56595500  0.37124400  1
  O  O3  1  0.37665800  0.82178200  0.11535200  1
  O  O4  1  0.38741300  0.00037200  0.27215800  1
  O  O5  1  0.61258700  0.99962800  0.72784200  1
  O  O6  1  0.18802600  0.21029500  0.38661200  1
  O  O7  1  0.62040000  0.61460400  0.34323400  1
  O  O8  1  0.00201600  0.58683800  0.28081200  1
  O  O9  1  0.14939200  0.36036300  0.54894600  1
  O  O10  1  0.81197400  0.78970500  0.61338800  1
  O  O11  1  0.09137500  0.88214700  0.36175800  1
  O  O12  1  0.65666000  0.43404500  0.62875600  1
  O  O13  1  0.37960000  0.38539600  0.65676600  1
  O  O14  1  0.40862500  0.88214700  0.86175800  1
  O  O15  1  0.11258700  0.00037200  0.77215800  1
  O  O16  1  0.89455900  0.86750300  0.97356600  1
  O  O17  1  0.68802600  0.78970500  0.11338800  1
  O  O18  1  0.62334200  0.17821800  0.88464800  1
  O  O19  1  0.87960000  0.61460400  0.84323400  1
  O  O20  1  0.35060800  0.36036300  0.04894600  1
  O  O21  1  0.12334200  0.82178200  0.61535200  1
  O  O22  1  0.39455900  0.13249700  0.52643400  1
  O  O23  1  0.84334000  0.43404500  0.12875600  1
  O  O24  1  0.90862500  0.11785300  0.63824200  1
  O  O25  1  0.59137500  0.11785300  0.13824200  1
  O  O26  1  0.60544100  0.86750300  0.47356600  1
  O  O27  1  0.88741300  0.99962800  0.22784200  1
  O  O28  1  0.99798400  0.41316200  0.71918800  1
  O  O29  1  0.31197400  0.21029500  0.88661200  1
  O  O30  1  0.87665800  0.17821800  0.38464800  1
  O  O31  1  0.12040000  0.38539600  0.15676600  1
  O  O32  1  0.50201600  0.41316200  0.21918800  1
  O  O33  1  0.15666000  0.56595500  0.87124400  1
  O  O34  1  0.49798400  0.58683800  0.78081200  1
  O  O35  1  0.10544100  0.13249700  0.02643400  1
loop_
_geom_bond_atom_site_label_1
_geom_bond_atom_site_label_2
_geom_bond_distance
_geom_bond_site_symmetry_2
O0 V3 1.806964 1_555
O0 V1 1.826822 1_556
O1 V6 1.806964 1_555
O1 V0 1.826822 1_555
O2 V7 1.739566 1_555
O2 U3 2.319488 1_555
O3 U3 1.835103 1_555
O3 Pb3 2.694156 1_554
O4 V5 1.724315 1_555
O4 Pb2 2.448882 1_545
O4 U3 2.533670 1_545
O5 V3 1.724315 1_555
O5 Pb0 2.448882 1_565
O5 U2 2.533670 1_565
O6 V7 1.747155 1_555
O6 U0 2.341962 1_555
O6 Pb2 2.539372 1_545
O7 U3 1.819648 1_555
O8 V6 1.735110 1_455
O8 U0 2.254757 1_555
O9 V2 1.806964 1_555
O9 V7 1.826822 1_555
O10 V0 1.747155 1_555
O10 U1 2.341962 1_555
O10 Pb0 2.539372 1_565
O11 V6 1.713710 1_455
O11 Pb2 2.501044 1_555
O11 U0 2.594725 1_565
O12 V0 1.739566 1_555
O12 U2 2.319488 1_555
O13 U2 1.819648 1_555
O14 V3 1.713710 1_555
O14 Pb3 2.501044 1_555
O14 U2 2.594725 1_565
O15 V2 1.724315 1_555
O15 Pb3 2.448882 1_545
O15 U1 2.533670 1_445
O16 V1 1.684765 1_556
O16 Pb1 2.663914 1_566
O17 V1 1.747155 1_555
O17 U3 2.341962 1_555
O17 Pb1 2.539372 1_565
O18 U2 1.835103 1_555
O18 Pb1 2.694156 1_556
O19 U1 1.819648 1_555
O20 V5 1.806964 1_555
O20 V4 1.826822 1_554
O21 U1 1.835103 1_455
O21 Pb2 2.694156 1_555
O22 V7 1.684765 1_555
O22 Pb2 2.663914 1_545
O23 V1 1.739566 1_555
O23 U0 2.319488 1_655
O24 V2 1.713710 1_655
O24 Pb0 2.501044 1_555
O24 U1 2.594725 1_545
O25 V5 1.713710 1_555
O25 Pb1 2.501044 1_555
O25 U3 2.594725 1_545
O26 V0 1.684765 1_555
O26 Pb0 2.663914 1_565
O27 V6 1.724315 1_555
O27 Pb1 2.448882 1_565
O27 U0 2.533670 1_665
O28 V2 1.735110 1_655
O28 U1 2.254757 1_555
O29 V4 1.747155 1_555
O29 U2 2.341962 1_555
O29 Pb3 2.539372 1_545
O30 U0 1.835103 1_655
O30 Pb0 2.694156 1_555
O31 U0 1.819648 1_555
O32 V5 1.735110 1_555
O32 U3 2.254757 1_555
O33 V4 1.739566 1_555
O33 U1 2.319488 1_455
O34 V3 1.735110 1_555
O34 U2 2.254757 1_555
O35 V4 1.684765 1_554
O35 Pb3 2.663914 1_544
