# generated using pymatgen
data_In2(SO4)3
_symmetry_space_group_name_H-M   'P 1'
_cell_length_a   9.16116383
_cell_length_b   9.16116383
_cell_length_c   9.16116429
_cell_angle_alpha   54.91410387
_cell_angle_beta   54.91410389
_cell_angle_gamma   54.91410897
_symmetry_Int_Tables_number   1
_chemical_formula_structural   In2(SO4)3
_chemical_formula_sum   'In4 S6 O24'
_cell_volume   479.31489721
_cell_formula_units_Z   2
loop_
 _symmetry_equiv_pos_site_id
 _symmetry_equiv_pos_as_xyz
  1  'x, y, z'
loop_
 _atom_site_type_symbol
 _atom_site_label
 _atom_site_symmetry_multiplicity
 _atom_site_fract_x
 _atom_site_fract_y
 _atom_site_fract_z
 _atom_site_occupancy
  In  In0  1  0.85549671  0.85549671  0.85549671  1
  In  In1  1  0.14450329  0.14450329  0.14450329  1
  In  In2  1  0.65162821  0.65162821  0.65162821  1
  In  In3  1  0.34837179  0.34837179  0.34837179  1
  S  S0  1  0.54405306  0.24806847  0.95937411  1
  S  S1  1  0.95937411  0.54405306  0.24806847  1
  S  S2  1  0.24806846  0.95937411  0.54405306  1
  S  S3  1  0.45594694  0.75193153  0.04062589  1
  S  S4  1  0.04062589  0.45594694  0.75193153  1
  S  S5  1  0.75193154  0.04062589  0.45594694  1
  O  O0  1  0.40192899  0.20266590  0.98005807  1
  O  O1  1  0.98005807  0.40192899  0.20266590  1
  O  O2  1  0.20266590  0.98005807  0.40192899  1
  O  O3  1  0.59807101  0.79733410  0.01994193  1
  O  O4  1  0.01994193  0.59807101  0.79733410  1
  O  O5  1  0.79733410  0.01994193  0.59807101  1
  O  O6  1  0.52786481  0.20609428  0.14810218  1
  O  O7  1  0.14810218  0.52786481  0.20609428  1
  O  O8  1  0.20609428  0.14810218  0.52786481  1
  O  O9  1  0.47213519  0.79390572  0.85189782  1
  O  O10  1  0.85189782  0.47213519  0.79390572  1
  O  O11  1  0.79390572  0.85189782  0.47213519  1
  O  O12  1  0.73752218  0.13087606  0.86557394  1
  O  O13  1  0.86557394  0.73752218  0.13087606  1
  O  O14  1  0.13087606  0.86557394  0.73752218  1
  O  O15  1  0.26247782  0.86912394  0.13442606  1
  O  O16  1  0.13442606  0.26247782  0.86912394  1
  O  O17  1  0.86912394  0.13442606  0.26247782  1
  O  O18  1  0.51087269  0.45195812  0.83984162  1
  O  O19  1  0.83984162  0.51087269  0.45195812  1
  O  O20  1  0.45195812  0.83984162  0.51087269  1
  O  O21  1  0.48912731  0.54804188  0.16015838  1
  O  O22  1  0.16015838  0.48912731  0.54804188  1
  O  O23  1  0.54804188  0.16015838  0.48912731  1
loop_
_geom_bond_atom_site_label_1
_geom_bond_atom_site_label_2
_geom_bond_distance
_geom_bond_site_symmetry_2
In0 O3 2.133676 1_556
In0 O5 2.133676 1_565
In0 O4 2.133676 1_655
In0 O14 2.135331 1_655
In0 O12 2.135331 1_565
In0 O13 2.135331 1_556
In1 O0 2.133676 1_554
In1 O2 2.133676 1_545
In1 O1 2.133676 1_455
In1 O17 2.135331 1_455
In1 O15 2.135331 1_545
In1 O16 2.135331 1_554
In2 O18 2.124036 1_555
In2 O19 2.124037 1_555
In2 O20 2.124037 1_555
In2 O11 2.141477 1_555
In2 O9 2.141478 1_555
In2 O10 2.141478 1_555
In3 O21 2.124036 1_555
In3 O22 2.124037 1_555
In3 O23 2.124037 1_555
In3 O8 2.141477 1_555
In3 O6 2.141478 1_555
In3 O7 2.141478 1_555
O0 S0 1.467147 1_555
O1 S1 1.467147 1_555
O2 S2 1.467147 1_555
O3 S3 1.467147 1_555
O4 S4 1.467147 1_555
O5 S5 1.467147 1_555
O6 S0 1.471621 1_554
O7 S1 1.471621 1_455
O8 S2 1.471621 1_545
O9 S3 1.471621 1_556
O10 S4 1.471621 1_655
O11 S5 1.471621 1_565
O12 S0 1.467860 1_555
O13 S1 1.467860 1_555
O14 S2 1.467859 1_555
O15 S3 1.467860 1_555
O16 S4 1.467860 1_555
O17 S5 1.467859 1_555
O18 S0 1.469349 1_555
O19 S1 1.469349 1_555
O20 S2 1.469349 1_555
O21 S3 1.469349 1_555
O22 S4 1.469349 1_555
O23 S5 1.469349 1_555
