# generated using pymatgen
data_HoH18C3S3(O2F)9
_symmetry_space_group_name_H-M   'P 1'
_cell_length_a   13.70747872
_cell_length_b   13.70747872
_cell_length_c   7.52589400
_cell_angle_alpha   90.00000000
_cell_angle_beta   90.00000000
_cell_angle_gamma   120.00000347
_symmetry_Int_Tables_number   1
_chemical_formula_structural   HoH18C3S3(O2F)9
_chemical_formula_sum   'Ho2 H36 C6 S6 O36 F18'
_cell_volume   1224.62712384
_cell_formula_units_Z   2
loop_
 _symmetry_equiv_pos_site_id
 _symmetry_equiv_pos_as_xyz
  1  'x, y, z'
loop_
 _atom_site_type_symbol
 _atom_site_label
 _atom_site_symmetry_multiplicity
 _atom_site_fract_x
 _atom_site_fract_y
 _atom_site_fract_z
 _atom_site_occupancy
  Ho  Ho0  1  0.33333300  0.66666700  0.25000000  1
  Ho  Ho1  1  0.66666700  0.33333300  0.75000000  1
  H  H0  1  0.09918400  0.44916500  0.35575500  1
  H  H1  1  0.65001900  0.09918400  0.85575500  1
  H  H2  1  0.44916500  0.34998100  0.85575500  1
  H  H3  1  0.55083500  0.65001900  0.35575500  1
  H  H4  1  0.34998100  0.90081600  0.35575500  1
  H  H5  1  0.90081600  0.55083500  0.85575500  1
  H  H6  1  0.90081600  0.55083500  0.64424500  1
  H  H7  1  0.34998100  0.90081600  0.14424500  1
  H  H8  1  0.55083500  0.65001900  0.14424500  1
  H  H9  1  0.44916500  0.34998100  0.64424500  1
  H  H10  1  0.65001900  0.09918400  0.64424500  1
  H  H11  1  0.09918400  0.44916500  0.14424500  1
  H  H12  1  0.36259100  0.49211000  0.44847700  1
  H  H13  1  0.87048000  0.36259100  0.94847700  1
  H  H14  1  0.49211000  0.12952000  0.94847700  1
  H  H15  1  0.50789000  0.87048000  0.44847700  1
  H  H16  1  0.12952000  0.63740900  0.44847700  1
  H  H17  1  0.63740900  0.50789000  0.94847700  1
  H  H18  1  0.63740900  0.50789000  0.55152300  1
  H  H19  1  0.12952000  0.63740900  0.05152300  1
  H  H20  1  0.50789000  0.87048000  0.05152300  1
  H  H21  1  0.49211000  0.12952000  0.55152300  1
  H  H22  1  0.87048000  0.36259100  0.55152300  1
  H  H23  1  0.36259100  0.49211000  0.05152300  1
  H  H24  1  0.27977800  0.51286000  0.56774400  1
  H  H25  1  0.76691800  0.27977800  0.06774400  1
  H  H26  1  0.51286000  0.23308200  0.06774400  1
  H  H27  1  0.48714000  0.76691800  0.56774400  1
  H  H28  1  0.23308200  0.72022200  0.56774400  1
  H  H29  1  0.72022200  0.48714000  0.06774400  1
  H  H30  1  0.72022200  0.48714000  0.43225600  1
  H  H31  1  0.23308200  0.72022200  0.93225600  1
  H  H32  1  0.48714000  0.76691800  0.93225600  1
  H  H33  1  0.51286000  0.23308200  0.43225600  1
  H  H34  1  0.76691800  0.27977800  0.43225600  1
  H  H35  1  0.27977800  0.51286000  0.93225600  1
  C  C0  1  0.23161600  0.20479300  0.25000000  1
  C  C1  1  0.02682300  0.23161600  0.75000000  1
  C  C2  1  0.20479300  0.97317700  0.75000000  1
  C  C3  1  0.79520700  0.02682300  0.25000000  1
  C  C4  1  0.97317700  0.76838400  0.25000000  1
  C  C5  1  0.76838400  0.79520700  0.75000000  1
  S  S0  1  0.38359000  0.31660400  0.25000000  1
  S  S1  1  0.06698600  0.38359000  0.75000000  1
  S  S2  1  0.31660400  0.93301400  0.75000000  1
  S  S3  1  0.68339600  0.06698600  0.25000000  1
  S  S4  1  0.93301400  0.61641000  0.25000000  1
  S  S5  1  0.61641000  0.68339600  0.75000000  1
  O  O0  1  0.14357100  0.48781700  0.25000000  1
  O  O1  1  0.65575400  0.14357100  0.75000000  1
  O  O2  1  0.48781700  0.34424600  0.75000000  1
  O  O3  1  0.51218300  0.65575400  0.25000000  1
  O  O4  1  0.34424600  0.85642900  0.25000000  1
  O  O5  1  0.85642900  0.51218300  0.75000000  1
  O  O6  1  0.33722000  0.54652200  0.47322600  1
  O  O7  1  0.79069800  0.33722000  0.97322600  1
  O  O8  1  0.54652200  0.20930200  0.97322600  1
  O  O9  1  0.45347800  0.79069800  0.47322600  1
  O  O10  1  0.20930200  0.66278000  0.47322600  1
  O  O11  1  0.66278000  0.45347800  0.97322600  1
  O  O12  1  0.66278000  0.45347800  0.52677400  1
  O  O13  1  0.20930200  0.66278000  0.02677400  1
  O  O14  1  0.45347800  0.79069800  0.02677400  1
  O  O15  1  0.54652200  0.20930200  0.52677400  1
  O  O16  1  0.79069800  0.33722000  0.52677400  1
  O  O17  1  0.33722000  0.54652200  0.02677400  1
  O  O18  1  0.44369200  0.25299100  0.25000000  1
  O  O19  1  0.19070100  0.44369200  0.75000000  1
  O  O20  1  0.25299100  0.80929900  0.75000000  1
  O  O21  1  0.74700900  0.19070100  0.25000000  1
  O  O22  1  0.80929900  0.55630800  0.25000000  1
  O  O23  1  0.55630800  0.74700900  0.75000000  1
  O  O24  1  0.39741500  0.37935000  0.41441000  1
  O  O25  1  0.01806500  0.39741500  0.91441000  1
  O  O26  1  0.37935000  0.98193500  0.91441000  1
  O  O27  1  0.62065000  0.01806500  0.41441000  1
  O  O28  1  0.98193500  0.60258500  0.41441000  1
  O  O29  1  0.60258500  0.62065000  0.91441000  1
  O  O30  1  0.60258500  0.62065000  0.58559000  1
  O  O31  1  0.98193500  0.60258500  0.08559000  1
  O  O32  1  0.62065000  0.01806500  0.08559000  1
  O  O33  1  0.37935000  0.98193500  0.58559000  1
  O  O34  1  0.01806500  0.39741500  0.58559000  1
  O  O35  1  0.39741500  0.37935000  0.08559000  1
  F  F0  1  0.16663400  0.25340100  0.25000000  1
  F  F1  1  0.91323200  0.16663400  0.75000000  1
  F  F2  1  0.25340100  0.08676800  0.75000000  1
  F  F3  1  0.74659900  0.91323200  0.25000000  1
  F  F4  1  0.08676800  0.83336600  0.25000000  1
  F  F5  1  0.83336600  0.74659900  0.75000000  1
  F  F6  1  0.20760100  0.13930500  0.39586600  1
  F  F7  1  0.06829700  0.20760100  0.89586600  1
  F  F8  1  0.13930500  0.93170300  0.89586600  1
  F  F9  1  0.86069500  0.06829700  0.39586600  1
  F  F10  1  0.93170300  0.79239900  0.39586600  1
  F  F11  1  0.79239900  0.86069500  0.89586600  1
  F  F12  1  0.79239900  0.86069500  0.60413400  1
  F  F13  1  0.93170300  0.79239900  0.10413400  1
  F  F14  1  0.86069500  0.06829700  0.10413400  1
  F  F15  1  0.13930500  0.93170300  0.60413400  1
  F  F16  1  0.06829700  0.20760100  0.60413400  1
  F  F17  1  0.20760100  0.13930500  0.10413400  1
loop_
_geom_bond_atom_site_label_1
_geom_bond_atom_site_label_2
_geom_bond_distance
_geom_bond_site_symmetry_2
Ho0 O13 2.371727 1_555
Ho0 O10 2.371727 1_555
Ho0 O14 2.371731 1_555
Ho0 O9 2.371731 1_555
Ho0 O6 2.371736 1_555
Ho0 O17 2.371736 1_555
Ho0 O4 2.529683 1_555
Ho0 O0 2.529689 1_555
Ho0 O3 2.529697 1_555
Ho1 O7 2.371727 1_555
Ho1 O16 2.371727 1_555
Ho1 O8 2.371731 1_555
Ho1 O15 2.371731 1_555
Ho1 O11 2.371736 1_555
Ho1 O12 2.371736 1_555
Ho1 O1 2.529683 1_555
Ho1 O5 2.529689 1_555
Ho1 O2 2.529697 1_555
H0 O0 0.980816 1_555
H1 O1 0.980816 1_555
H2 O2 0.980816 1_555
H3 O3 0.980816 1_555
H4 O4 0.980816 1_555
H5 O5 0.980816 1_555
H6 O5 0.980816 1_555
H7 O4 0.980816 1_555
H8 O3 0.980816 1_555
H9 O2 0.980816 1_555
H10 O1 0.980816 1_555
H11 O0 0.980816 1_555
H12 O6 0.985555 1_555
H13 O7 0.985542 1_555
H14 O8 0.985545 1_555
H15 O9 0.985545 1_555
H16 O10 0.985542 1_555
H17 O11 0.985555 1_555
H18 O12 0.985555 1_555
H19 O13 0.985542 1_555
H20 O14 0.985545 1_555
H21 O15 0.985545 1_555
H22 O16 0.985542 1_555
H23 O17 0.985555 1_555
H24 O6 0.987706 1_555
H25 O7 0.987706 1_554
H26 O8 0.987706 1_554
H27 O9 0.987706 1_555
H28 O10 0.987706 1_555
H29 O11 0.987706 1_554
H30 O12 0.987706 1_555
H31 O13 0.987706 1_556
H32 O14 0.987706 1_556
H33 O15 0.987706 1_555
H34 O16 0.987706 1_555
H35 O17 0.987706 1_556
C0 F6 1.350476 1_555
C0 F17 1.350476 1_555
C0 F0 1.353092 1_555
C1 F7 1.350484 1_555
C1 F16 1.350484 1_555
C1 F1 1.353103 1_455
C2 F8 1.350477 1_555
C2 F15 1.350477 1_555
C2 F2 1.353104 1_565
C3 F9 1.350477 1_555
C3 F14 1.350477 1_555
C3 F3 1.353104 1_545
C4 F10 1.350484 1_555
C4 F13 1.350484 1_555
C4 F4 1.353103 1_655
C5 F11 1.350476 1_555
C5 F12 1.350476 1_555
C5 F5 1.353092 1_555
O18 S0 1.468821 1_555
O19 S1 1.468821 1_555
O20 S2 1.468821 1_555
O21 S3 1.468821 1_555
O22 S4 1.468821 1_555
O23 S5 1.468821 1_555
O24 S0 1.464126 1_555
O25 S1 1.464126 1_555
O26 S2 1.464126 1_555
O27 S3 1.464126 1_555
O28 S4 1.464126 1_555
O29 S5 1.464126 1_555
O30 S5 1.464126 1_555
O31 S4 1.464126 1_555
O32 S3 1.464126 1_555
O33 S2 1.464126 1_555
O34 S1 1.464126 1_555
O35 S0 1.464126 1_555
