# generated using pymatgen
data_LaCN2F
_symmetry_space_group_name_H-M   'P 1'
_cell_length_a   4.80140634
_cell_length_b   4.80140634
_cell_length_c   7.86634900
_cell_angle_alpha   90.00000000
_cell_angle_beta   90.00000000
_cell_angle_gamma   132.10196860
_symmetry_Int_Tables_number   1
_chemical_formula_structural   LaCN2F
_chemical_formula_sum   'La2 C2 N4 F2'
_cell_volume   134.55084063
_cell_formula_units_Z   2
loop_
 _symmetry_equiv_pos_site_id
 _symmetry_equiv_pos_as_xyz
  1  'x, y, z'
loop_
 _atom_site_type_symbol
 _atom_site_label
 _atom_site_symmetry_multiplicity
 _atom_site_fract_x
 _atom_site_fract_y
 _atom_site_fract_z
 _atom_site_occupancy
  La  La0  1  0.22218400  0.77781600  0.25000000  1
  La  La1  1  0.77781600  0.22218400  0.75000000  1
  C  C0  1  0.50000000  0.50000000  0.50000000  1
  C  C1  1  0.50000000  0.50000000  0.00000000  1
  N  N0  1  0.63207600  0.36792400  0.05261900  1
  N  N1  1  0.36792400  0.63207600  0.55261900  1
  N  N2  1  0.63207600  0.36792400  0.44738100  1
  N  N3  1  0.36792400  0.63207600  0.94738100  1
  F  F0  1  0.08119000  0.91881000  0.75000000  1
  F  F1  1  0.91881000  0.08119000  0.25000000  1
loop_
_geom_bond_atom_site_label_1
_geom_bond_atom_site_label_2
_geom_bond_distance
_geom_bond_site_symmetry_2
La0 N2 2.614336 1_565
La0 N0 2.614336 1_565
La0 N2 2.614336 1_455
La0 N0 2.614336 1_455
La0 N3 2.702354 1_554
La0 N1 2.702354 1_555
La1 N3 2.614336 1_655
La1 N1 2.614336 1_655
La1 N1 2.614336 1_545
La1 N3 2.614336 1_545
La1 N0 2.702354 1_556
La1 N2 2.702354 1_555
C0 N2 1.230798 1_555
C0 N1 1.230798 1_555
C1 N0 1.230798 1_555
C1 N3 1.230798 1_554
F0 La1 2.603138 1_455
F0 La1 2.603138 1_565
F0 La1 2.662434 1_465
F1 La0 2.603138 1_655
F1 La0 2.603138 1_545
F1 La0 2.662434 1_645
