# generated using pymatgen
data_Mg2Si
_symmetry_space_group_name_H-M   'P 1'
_cell_length_a   5.58851804
_cell_length_b   5.58851804
_cell_length_c   5.58851804
_cell_angle_alpha   60.00000000
_cell_angle_beta   60.00000000
_cell_angle_gamma   60.00000000
_symmetry_Int_Tables_number   1
_chemical_formula_structural   Mg2Si
_chemical_formula_sum   'Mg4 Si2'
_cell_volume   123.41699641
_cell_formula_units_Z   2
loop_
 _symmetry_equiv_pos_site_id
 _symmetry_equiv_pos_as_xyz
  1  'x, y, z'
loop_
 _atom_site_type_symbol
 _atom_site_label
 _atom_site_symmetry_multiplicity
 _atom_site_fract_x
 _atom_site_fract_y
 _atom_site_fract_z
 _atom_site_occupancy
  Mg  Mg0  1  0.37500000  0.87500000  0.87500000  1
  Mg  Mg1  1  0.87500000  0.37500000  0.87500000  1
  Mg  Mg2  1  0.87500000  0.87500000  0.87500000  1
  Mg  Mg3  1  0.87500000  0.87500000  0.37500000  1
  Si  Si0  1  0.50000000  0.50000000  0.50000000  1
  Si  Si1  1  0.25000000  0.25000000  0.25000000  1
loop_
_geom_bond_atom_site_label_1
_geom_bond_atom_site_label_2
_geom_bond_distance
_geom_bond_site_symmetry_2
Mg0 Mg2 2.794259 1_555
Mg0 Mg3 2.794259 1_555
Mg0 Mg2 2.794259 1_455
Mg0 Mg3 2.794259 1_456
Mg0 Mg1 2.794259 1_555
Mg0 Mg1 2.794259 1_465
Mg0 Si0 3.276559 1_556
Mg0 Si0 3.276559 1_555
Mg0 Si1 3.276559 1_565
Mg0 Si0 3.276559 1_565
Mg0 Si1 3.276559 1_556
Mg0 Si1 3.276559 1_566
Mg1 Mg2 2.794259 1_555
Mg1 Mg2 2.794259 1_545
Mg1 Mg3 2.794259 1_555
Mg1 Mg3 2.794259 1_546
Mg1 Si1 3.276559 1_655
Mg1 Si0 3.276559 1_556
Mg1 Si0 3.276559 1_555
Mg1 Si0 3.276559 1_655
Mg1 Si1 3.276559 1_656
Mg1 Si1 3.276559 1_556
Mg2 Mg3 2.794259 1_556
Mg2 Mg3 2.794259 1_555
Mg2 Si0 3.276559 1_556
Mg2 Si0 3.276559 1_655
Mg2 Si0 3.276559 1_565
Mg2 Si1 3.276559 1_665
Mg2 Si1 3.276559 1_656
Mg2 Si1 3.276559 1_566
Mg3 Si1 3.276559 1_655
Mg3 Si0 3.276559 1_555
Mg3 Si1 3.276559 1_565
Mg3 Si0 3.276559 1_655
Mg3 Si0 3.276559 1_565
Mg3 Si1 3.276559 1_665
