# generated using pymatgen
data_MoCl4
_symmetry_space_group_name_H-M   'P 1'
_cell_length_a   12.39834840
_cell_length_b   12.39851132
_cell_length_c   6.10014305
_cell_angle_alpha   90.00386804
_cell_angle_beta   90.00174984
_cell_angle_gamma   120.00223041
_symmetry_Int_Tables_number   1
_chemical_formula_structural   MoCl4
_chemical_formula_sum   'Mo6 Cl24'
_cell_volume   812.07149542
_cell_formula_units_Z   6
loop_
 _symmetry_equiv_pos_site_id
 _symmetry_equiv_pos_as_xyz
  1  'x, y, z'
loop_
 _atom_site_type_symbol
 _atom_site_label
 _atom_site_symmetry_multiplicity
 _atom_site_fract_x
 _atom_site_fract_y
 _atom_site_fract_z
 _atom_site_occupancy
  Mo  Mo0  1  0.82726933  0.65452684  0.00000950  1
  Mo  Mo1  1  0.17271752  0.82726191  0.00001978  1
  Mo  Mo2  1  0.17275957  0.34546519  0.00006374  1
  Mo  Mo3  1  0.82725732  0.17271433  0.00003218  1
  Mo  Mo4  1  0.34546557  0.17275683  0.00005533  1
  Mo  Mo5  1  0.65452336  0.82726803  0.00001397  1
  Cl  Cl0  1  0.16683956  0.48046650  0.76034738  1
  Cl  Cl1  1  0.00000564  0.67017955  0.77763310  1
  Cl  Cl2  1  0.83315088  0.31361730  0.76036358  1
  Cl  Cl3  1  0.16935252  -0.00000055  0.79377766  1
  Cl  Cl4  1  0.83315468  0.51955641  0.23961582  1
  Cl  Cl5  1  0.67017264  0.67017148  0.22236618  1
  Cl  Cl6  1  0.00000198  0.83064540  0.20621448  1
  Cl  Cl7  1  -0.00000186  0.16935225  0.79377986  1
  Cl  Cl8  1  0.48046309  0.16683917  0.76035231  1
  Cl  Cl9  1  0.16684725  0.68640098  0.23963088  1
  Cl  Cl10  1  0.32982597  -0.00000586  0.22235695  1
  Cl  Cl11  1  0.32982106  0.32982130  0.77762449  1
  Cl  Cl12  1  0.68640508  0.16684676  0.23962547  1
  Cl  Cl13  1  0.31361818  0.83315660  0.76036493  1
  Cl  Cl14  1  0.16935467  0.16935417  0.20621426  1
  Cl  Cl15  1  0.31358132  0.48042594  0.23960103  1
  Cl  Cl16  1  0.67018002  0.00000550  0.77763359  1
  Cl  Cl17  1  0.51955605  0.68639521  0.76037943  1
  Cl  Cl18  1  0.83065333  0.83065269  0.79377735  1
  Cl  Cl19  1  0.48043113  0.31358507  0.23959560  1
  Cl  Cl20  1  0.51955952  0.83315553  0.23961422  1
  Cl  Cl21  1  0.68639601  0.51955815  0.76036977  1
  Cl  Cl22  1  0.83064555  0.00000158  0.20621350  1
  Cl  Cl23  1  -0.00000693  0.32982575  0.22235365  1
loop_
_geom_bond_atom_site_label_1
_geom_bond_atom_site_label_2
_geom_bond_distance
_geom_bond_site_symmetry_2
Cl0 Mo2 2.251348 1_556
Cl1 Mo1 2.459169 1_556
Cl1 Mo0 2.459477 1_456
Cl2 Mo3 2.251105 1_556
Cl3 Mo1 2.502223 1_546
Cl3 Mo4 2.502238 1_556
Cl4 Mo0 2.250447 1_555
Cl5 Mo0 2.459494 1_555
Cl5 Mo5 2.459568 1_555
Cl6 Mo1 2.501879 1_555
Cl6 Mo0 2.501917 1_455
Cl7 Mo3 2.502209 1_456
Cl7 Mo2 2.502278 1_556
Cl8 Mo4 2.251189 1_556
Cl9 Mo1 2.250584 1_555
Cl10 Mo1 2.459238 1_545
Cl10 Mo4 2.459620 1_555
Cl11 Mo2 2.459404 1_556
Cl11 Mo4 2.459474 1_556
Cl12 Mo3 2.250385 1_555
Cl13 Mo1 2.250966 1_556
Cl14 Mo4 2.501797 1_555
Cl14 Mo2 2.501826 1_555
Cl15 Mo2 2.249726 1_555
Cl16 Mo3 2.459169 1_556
Cl16 Mo5 2.459549 1_546
Cl17 Mo5 2.250396 1_556
Cl18 Mo5 2.502334 1_556
Cl18 Mo0 2.502344 1_556
Cl19 Mo4 2.249791 1_555
Cl20 Mo5 2.250313 1_555
Cl21 Mo0 2.250425 1_556
Cl22 Mo3 2.501899 1_555
Cl22 Mo5 2.501925 1_545
Cl23 Mo3 2.459219 1_455
Cl23 Mo2 2.459556 1_555
