# generated using pymatgen
data_Dy(FeB)2
_symmetry_space_group_name_H-M   'P 1'
_cell_length_a   3.55646481
_cell_length_b   3.55646598
_cell_length_c   5.39110959
_cell_angle_alpha   109.25938352
_cell_angle_beta   109.25939117
_cell_angle_gamma   90.00001189
_symmetry_Int_Tables_number   1
_chemical_formula_structural   Dy(FeB)2
_chemical_formula_sum   'Dy1 Fe2 B2'
_cell_volume   60.31577185
_cell_formula_units_Z   1
loop_
 _symmetry_equiv_pos_site_id
 _symmetry_equiv_pos_as_xyz
  1  'x, y, z'
loop_
 _atom_site_type_symbol
 _atom_site_label
 _atom_site_symmetry_multiplicity
 _atom_site_fract_x
 _atom_site_fract_y
 _atom_site_fract_z
 _atom_site_occupancy
  Dy  Dy0  1  0.00000000  -0.00000000  -0.00000000  1
  Fe  Fe0  1  0.25000000  0.75000000  0.50000000  1
  Fe  Fe1  1  0.75000000  0.25000000  0.50000000  1
  B  B0  1  0.34687008  0.34687008  0.69374016  1
  B  B1  1  0.65312992  0.65312992  0.30625984  1
loop_
_geom_bond_atom_site_label_1
_geom_bond_atom_site_label_2
_geom_bond_distance
_geom_bond_site_symmetry_2
Dy0 Fe1 2.974402 1_555
Dy0 Fe0 2.974402 1_444
Dy0 Fe0 2.974403 1_545
Dy0 Fe1 2.974403 1_454
Dy0 Fe0 2.974403 1_544
Dy0 Fe1 2.974403 1_455
Dy0 Fe0 2.974403 1_555
Dy0 Fe1 2.974403 1_444
B0 Fe1 2.003910 1_455
B0 Fe1 2.003910 1_555
B0 Fe0 2.003911 1_555
B0 Fe0 2.003911 1_545
B0 Dy0 2.908111 1_556
B0 Dy0 2.908111 1_666
B0 Dy0 2.908111 1_656
B0 Dy0 2.908111 1_566
B1 Fe0 2.003910 1_655
B1 Fe0 2.003910 1_555
B1 Fe1 2.003911 1_555
B1 Fe1 2.003911 1_565
B1 Dy0 2.908111 1_665
B1 Dy0 2.908111 1_555
B1 Dy0 2.908111 1_565
B1 Dy0 2.908111 1_655
