# generated using pymatgen
data_NbBiO4
_symmetry_space_group_name_H-M   'P 1'
_cell_length_a   5.54344881
_cell_length_b   7.68842931
_cell_length_c   7.93684949
_cell_angle_alpha   101.42763416
_cell_angle_beta   90.15048500
_cell_angle_gamma   92.76230980
_symmetry_Int_Tables_number   1
_chemical_formula_structural   NbBiO4
_chemical_formula_sum   'Nb4 Bi4 O16'
_cell_volume   331.15495177
_cell_formula_units_Z   4
loop_
 _symmetry_equiv_pos_site_id
 _symmetry_equiv_pos_as_xyz
  1  'x, y, z'
loop_
 _atom_site_type_symbol
 _atom_site_label
 _atom_site_symmetry_multiplicity
 _atom_site_fract_x
 _atom_site_fract_y
 _atom_site_fract_z
 _atom_site_occupancy
  Nb  Nb0  1  0.75286473  0.67526661  0.82169620  1
  Nb  Nb1  1  0.24713527  0.32473339  0.17830380  1
  Nb  Nb2  1  0.22121072  0.34581854  0.67838233  1
  Nb  Nb3  1  0.77878928  0.65418146  0.32161767  1
  Bi  Bi0  1  0.23458857  0.87866336  0.62439865  1
  Bi  Bi1  1  0.71323242  0.16752284  0.87511988  1
  Bi  Bi2  1  0.28676758  0.83247716  0.12488012  1
  Bi  Bi3  1  0.76541143  0.12133664  0.37560135  1
  O  O0  1  0.00809261  0.89578624  0.32346032  1
  O  O1  1  0.08517020  0.55603142  0.22014556  1
  O  O2  1  0.31307671  0.32923306  0.94747380  1
  O  O3  1  0.53802841  0.84328050  0.35933963  1
  O  O4  1  0.46197159  0.15671950  0.64066037  1
  O  O5  1  0.99190739  0.10421376  0.67653968  1
  O  O6  1  0.56698932  0.44947804  0.28954844  1
  O  O7  1  0.55471837  0.89360103  0.82230786  1
  O  O8  1  0.43301068  0.55052196  0.71045156  1
  O  O9  1  0.04026903  0.82877906  0.86514561  1
  O  O10  1  0.91482980  0.44396858  0.77985444  1
  O  O11  1  0.14323113  0.32168988  0.44417785  1
  O  O12  1  0.44528163  0.10639897  0.17769214  1
  O  O13  1  0.95973097  0.17122094  0.13485439  1
  O  O14  1  0.85676887  0.67831012  0.55582215  1
  O  O15  1  0.68692329  0.67076694  0.05252620  1
loop_
_geom_bond_atom_site_label_1
_geom_bond_atom_site_label_2
_geom_bond_distance
_geom_bond_site_symmetry_2
Nb0 O15 1.875817 1_556
Nb0 O9 1.924802 1_655
Nb0 O10 2.000068 1_555
Nb0 O7 2.049126 1_555
Nb0 O8 2.082210 1_555
Nb0 O14 2.193152 1_555
Nb1 O2 1.875817 1_554
Nb1 O13 1.924802 1_455
Nb1 O1 2.000068 1_555
Nb1 O12 2.049126 1_555
Nb1 O6 2.082210 1_555
Nb1 O11 2.193152 1_555
Nb2 O11 1.878294 1_555
Nb2 O8 1.892586 1_555
Nb2 O10 1.998136 1_455
Nb2 O4 2.000327 1_555
Nb2 O5 2.197288 1_455
Nb2 O2 2.223835 1_555
Nb3 O14 1.878294 1_555
Nb3 O6 1.892586 1_555
Nb3 O1 1.998136 1_655
Nb3 O3 2.000327 1_555
Nb3 O0 2.197288 1_655
Nb3 O15 2.223835 1_555
Bi0 O5 2.220738 1_465
Bi0 O9 2.284709 1_555
Bi0 O7 2.350328 1_555
Bi0 O4 2.409526 1_565
Bi0 O14 2.531109 1_455
Bi0 O3 2.676768 1_555
Bi0 O0 2.724611 1_555
Bi1 O7 2.202971 1_545
Bi1 O5 2.211053 1_555
Bi1 O4 2.307327 1_555
Bi1 O13 2.464935 1_556
Bi1 O10 2.598150 1_555
Bi1 O2 2.604949 1_555
Bi2 O12 2.202971 1_565
Bi2 O0 2.211053 1_555
Bi2 O3 2.307327 1_555
Bi2 O9 2.464935 1_554
Bi2 O1 2.598150 1_555
Bi2 O15 2.604949 1_555
Bi3 O0 2.220738 1_645
Bi3 O13 2.284709 1_555
Bi3 O12 2.350328 1_555
Bi3 O3 2.409526 1_545
Bi3 O11 2.531109 1_655
Bi3 O4 2.676768 1_555
Bi3 O5 2.724611 1_555
