# generated using pymatgen
data_CsMoIO6
_symmetry_space_group_name_H-M   'P 1'
_cell_length_a   7.53607300
_cell_length_b   8.05007600
_cell_length_c   10.68408700
_cell_angle_alpha   90.00000000
_cell_angle_beta   90.00000000
_cell_angle_gamma   90.00000000
_symmetry_Int_Tables_number   1
_chemical_formula_structural   CsMoIO6
_chemical_formula_sum   'Cs4 Mo4 I4 O24'
_cell_volume   648.16039876
_cell_formula_units_Z   4
loop_
 _symmetry_equiv_pos_site_id
 _symmetry_equiv_pos_as_xyz
  1  'x, y, z'
loop_
 _atom_site_type_symbol
 _atom_site_label
 _atom_site_symmetry_multiplicity
 _atom_site_fract_x
 _atom_site_fract_y
 _atom_site_fract_z
 _atom_site_occupancy
  Cs  Cs0  1  0.37173800  0.48530600  0.12304900  1
  Cs  Cs1  1  0.87173800  0.51469400  0.87695100  1
  Cs  Cs2  1  0.87173800  0.01469400  0.62304900  1
  Cs  Cs3  1  0.37173800  0.98530600  0.37695100  1
  Mo  Mo0  1  0.59357000  0.49191600  0.47354200  1
  Mo  Mo1  1  0.09357000  0.50808500  0.52645800  1
  Mo  Mo2  1  0.09357000  0.00808400  0.97354200  1
  Mo  Mo3  1  0.59357000  0.99191500  0.02645800  1
  I  I0  1  0.42680000  0.27360000  0.73958000  1
  I  I1  1  0.92680000  0.72640000  0.26042000  1
  I  I2  1  0.92680000  0.22640000  0.23958000  1
  I  I3  1  0.42680000  0.77360000  0.76042000  1
  O  O0  1  0.54043700  0.63951100  0.35864700  1
  O  O1  1  0.04043700  0.36048900  0.64135300  1
  O  O2  1  0.04043700  0.86048900  0.85864700  1
  O  O3  1  0.54043700  0.13951100  0.14135300  1
  O  O4  1  0.62740800  0.30911000  0.38622200  1
  O  O5  1  0.12740800  0.69089000  0.61377800  1
  O  O6  1  0.12740800  0.19089000  0.88622200  1
  O  O7  1  0.62740800  0.80911000  0.11377800  1
  O  O8  1  0.33641600  0.44638700  0.51144600  1
  O  O9  1  0.83641600  0.55361300  0.48855400  1
  O  O10  1  0.83641600  0.05361300  0.01144600  1
  O  O11  1  0.33641600  0.94638700  0.98855400  1
  O  O12  1  0.41509300  0.07416600  0.65728800  1
  O  O13  1  0.91509300  0.92583400  0.34271200  1
  O  O14  1  0.91509300  0.42583400  0.15728800  1
  O  O15  1  0.41509300  0.57416600  0.84271200  1
  O  O16  1  0.62256900  0.36121200  0.65486700  1
  O  O17  1  0.12256900  0.63878800  0.34513300  1
  O  O18  1  0.12256900  0.13878800  0.15486700  1
  O  O19  1  0.62256900  0.86121200  0.84513300  1
  O  O20  1  0.55022900  0.21770500  0.88172500  1
  O  O21  1  0.05022900  0.78229500  0.11827500  1
  O  O22  1  0.05022900  0.28229500  0.38172500  1
  O  O23  1  0.55022900  0.71770500  0.61827500  1
loop_
_geom_bond_atom_site_label_1
_geom_bond_atom_site_label_2
_geom_bond_distance
_geom_bond_site_symmetry_2
Cs0 O3 3.066492 1_555
Cs0 O0 3.081119 1_555
Cs0 O15 3.096666 1_554
Cs0 O7 3.242958 1_555
Cs0 O17 3.268416 1_555
Cs0 O18 3.379766 1_555
Cs0 O21 3.404257 1_555
Cs0 O14 3.493657 1_455
Cs0 O20 3.619079 1_554
Cs0 O4 3.691910 1_555
Cs1 O2 3.066492 1_655
Cs1 O1 3.081119 1_655
Cs1 O14 3.096666 1_556
Cs1 O6 3.242958 1_655
Cs1 O16 3.268416 1_555
Cs1 O19 3.379766 1_555
Cs1 O20 3.404257 1_555
Cs1 O15 3.493657 1_555
Cs1 O21 3.619079 1_656
Cs1 O5 3.691910 1_655
Cs2 O1 3.066492 1_655
Cs2 O2 3.081119 1_645
Cs2 O13 3.096666 1_545
Cs2 O5 3.242958 1_645
Cs2 O19 3.268416 1_545
Cs2 O16 3.379766 1_555
Cs2 O23 3.404257 1_545
Cs2 O12 3.493657 1_555
Cs2 O22 3.619079 1_655
Cs2 O6 3.691910 1_655
Cs3 O0 3.066492 1_555
Cs3 O3 3.081119 1_565
Cs3 O12 3.096666 1_565
Cs3 O4 3.242958 1_565
Cs3 O18 3.268416 1_565
Cs3 O17 3.379766 1_555
Cs3 O22 3.404257 1_565
Cs3 O13 3.493657 1_455
Cs3 O23 3.619079 1_555
Cs3 O7 3.691910 1_555
Mo0 O0 1.754682 1_555
Mo0 O4 1.760968 1_555
Mo0 O9 1.903073 1_555
Mo0 O8 2.013432 1_555
Mo0 O16 2.215386 1_555
Mo0 O23 2.408648 1_555
Mo1 O1 1.754687 1_555
Mo1 O5 1.760961 1_555
Mo1 O8 1.903075 1_555
Mo1 O9 2.013431 1_455
Mo1 O17 2.215382 1_555
Mo1 O22 2.408654 1_555
Mo2 O2 1.754682 1_545
Mo2 O6 1.760968 1_555
Mo2 O11 1.903073 1_545
Mo2 O10 2.013432 1_456
Mo2 O18 2.215386 1_556
Mo2 O21 2.408648 1_546
Mo3 O3 1.754687 1_565
Mo3 O7 1.760961 1_555
Mo3 O10 1.903075 1_565
Mo3 O11 2.013431 1_554
Mo3 O19 2.215382 1_554
Mo3 O20 2.408654 1_564
I0 O12 1.832567 1_555
I0 O20 1.836872 1_555
I0 O16 1.869009 1_555
I1 O13 1.832567 1_555
I1 O21 1.836872 1_655
I1 O17 1.869009 1_655
I2 O14 1.832567 1_555
I2 O22 1.836872 1_655
I2 O18 1.869009 1_655
I3 O15 1.832567 1_555
I3 O23 1.836872 1_555
I3 O19 1.869009 1_555
