# generated using pymatgen
data_CoP2PbO7
_symmetry_space_group_name_H-M   'P 1'
_cell_length_a   8.21306248
_cell_length_b   5.32138717
_cell_length_c   13.67863946
_cell_angle_alpha   67.17137480
_cell_angle_beta   90.00000000
_cell_angle_gamma   90.00000000
_symmetry_Int_Tables_number   1
_chemical_formula_structural   CoP2PbO7
_chemical_formula_sum   'Co4 P8 Pb4 O28'
_cell_volume   550.99552457
_cell_formula_units_Z   4
loop_
 _symmetry_equiv_pos_site_id
 _symmetry_equiv_pos_as_xyz
  1  'x, y, z'
loop_
 _atom_site_type_symbol
 _atom_site_label
 _atom_site_symmetry_multiplicity
 _atom_site_fract_x
 _atom_site_fract_y
 _atom_site_fract_z
 _atom_site_occupancy
  Co  Co0  1  0.64512797  0.90890172  0.88503734  1
  Co  Co1  1  0.14512797  0.09109828  0.61496266  1
  Co  Co2  1  0.35487203  0.09109828  0.11496266  1
  Co  Co3  1  0.85487203  0.90890172  0.38503734  1
  P  P0  1  0.69360354  0.30199435  0.01257353  1
  P  P1  1  0.19360354  0.69800565  0.48742647  1
  P  P2  1  0.30639646  0.69800565  0.98742647  1
  P  P3  1  0.80639646  0.30199435  0.51257353  1
  P  P4  1  0.96209451  0.08180170  0.15877938  1
  P  P5  1  0.46209451  0.91819830  0.34122062  1
  P  P6  1  0.03790549  0.91819830  0.84122062  1
  P  P7  1  0.53790549  0.08180170  0.65877938  1
  Pb  Pb0  1  0.83640432  0.56672189  0.71753480  1
  Pb  Pb1  1  0.33640432  0.43327811  0.78246520  1
  Pb  Pb2  1  0.16359568  0.43327811  0.28246520  1
  Pb  Pb3  1  0.66359568  0.56672189  0.21753480  1
  O  O0  1  0.66341603  0.58148584  0.01677069  1
  O  O1  1  0.16341603  0.41851416  0.48322931  1
  O  O2  1  0.33658397  0.41851416  0.98322931  1
  O  O3  1  0.83658397  0.58148584  0.51677069  1
  O  O4  1  0.67732707  0.29455963  0.90386882  1
  O  O5  1  0.17732707  0.70544037  0.59613118  1
  O  O6  1  0.32267293  0.70544037  0.09613118  1
  O  O7  1  0.82267293  0.29455963  0.40386882  1
  O  O8  1  0.59408486  0.08156246  0.09820807  1
  O  O9  1  0.09408486  0.91843754  0.40179193  1
  O  O10  1  0.40591514  0.91843754  0.90179193  1
  O  O11  1  0.90591514  0.08156246  0.59820807  1
  O  O12  1  0.88150075  0.23065012  0.04493207  1
  O  O13  1  0.38150075  0.76934988  0.45506793  1
  O  O14  1  0.11849925  0.76934988  0.95506793  1
  O  O15  1  0.61849925  0.23065012  0.54493207  1
  O  O16  1  0.13808100  0.17222566  0.14933707  1
  O  O17  1  0.63808100  0.82777434  0.35066293  1
  O  O18  1  0.86191900  0.82777434  0.85066293  1
  O  O19  1  0.36191900  0.17222566  0.64933707  1
  O  O20  1  0.87553969  0.18587923  0.23515661  1
  O  O21  1  0.37553969  0.81412077  0.26484339  1
  O  O22  1  0.12446031  0.81412077  0.76484339  1
  O  O23  1  0.62446031  0.18587923  0.73515661  1
  O  O24  1  0.93944036  0.77851723  0.19085935  1
  O  O25  1  0.43944036  0.22148277  0.30914065  1
  O  O26  1  0.06055964  0.22148277  0.80914065  1
  O  O27  1  0.56055964  0.77851723  0.69085935  1
loop_
_geom_bond_atom_site_label_1
_geom_bond_atom_site_label_2
_geom_bond_distance
_geom_bond_site_symmetry_2
Co0 O18 1.932670 1_555
Co0 O0 1.966987 1_556
Co0 O10 1.980922 1_555
Co0 O23 2.014858 1_565
Co0 O4 2.181319 1_565
Co1 O19 1.932670 1_555
Co1 O1 1.966987 1_555
Co1 O11 1.980922 1_455
Co1 O22 2.014858 1_545
Co1 O5 2.181319 1_545
Co2 O16 1.932670 1_555
Co2 O2 1.966987 1_554
Co2 O8 1.980922 1_555
Co2 O21 2.014858 1_545
Co2 O6 2.181319 1_545
Co3 O17 1.932670 1_555
Co3 O3 1.966987 1_555
Co3 O9 1.980922 1_655
Co3 O20 2.014858 1_565
Co3 O7 2.181319 1_565
O0 P0 1.530696 1_555
O0 Pb3 2.716664 1_555
O1 P1 1.530696 1_555
O1 Pb2 2.716664 1_555
O2 P2 1.530696 1_555
O2 Pb1 2.716664 1_555
O3 P3 1.530696 1_555
O3 Pb0 2.716664 1_555
O4 P0 1.508659 1_556
O4 Pb0 2.726999 1_555
O5 P1 1.508659 1_555
O5 Pb1 2.726999 1_555
O6 P2 1.508659 1_554
O6 Pb2 2.726999 1_555
O7 P3 1.508659 1_555
O7 Pb3 2.726999 1_555
O8 P0 1.532947 1_555
O8 Pb3 2.650658 1_545
O9 P1 1.532947 1_555
O9 Pb2 2.650658 1_565
O10 P2 1.532947 1_555
O10 Pb1 2.650658 1_565
O11 P3 1.532947 1_555
O11 Pb0 2.650658 1_545
O12 P4 1.591701 1_555
O12 P0 1.609707 1_555
O13 P5 1.591701 1_555
O13 P1 1.609707 1_555
O14 P6 1.591701 1_555
O14 P2 1.609707 1_555
O15 P7 1.591701 1_555
O15 P3 1.609707 1_555
O16 P4 1.512990 1_455
O16 Pb2 2.693079 1_555
O17 P5 1.512990 1_555
O17 Pb3 2.693079 1_555
O18 P6 1.512990 1_655
O18 Pb0 2.693079 1_555
O19 P7 1.512990 1_555
O19 Pb1 2.693079 1_555
O20 P4 1.533798 1_555
O20 Pb3 2.610799 1_555
O21 P5 1.533798 1_555
O21 Pb2 2.610799 1_555
O22 P6 1.533798 1_555
O22 Pb1 2.610799 1_555
O23 P7 1.533798 1_555
O23 Pb0 2.610799 1_555
O24 P4 1.510729 1_565
O24 Pb3 2.493370 1_555
O24 Pb2 2.558957 1_655
O25 P5 1.510729 1_545
O25 Pb2 2.493370 1_555
O25 Pb3 2.558957 1_555
O26 P6 1.510729 1_545
O26 Pb1 2.493370 1_555
O26 Pb0 2.558957 1_455
O27 P7 1.510729 1_565
O27 Pb0 2.493370 1_555
O27 Pb1 2.558957 1_555
