# generated using pymatgen
data_Np5Ge4
_symmetry_space_group_name_H-M   'P 1'
_cell_length_a   8.42958187
_cell_length_b   8.42958187
_cell_length_c   5.68741000
_cell_angle_alpha   90.00000000
_cell_angle_beta   90.00000000
_cell_angle_gamma   119.99999894
_symmetry_Int_Tables_number   1
_chemical_formula_structural   Np5Ge4
_chemical_formula_sum   'Np10 Ge8'
_cell_volume   349.99129208
_cell_formula_units_Z   2
loop_
 _symmetry_equiv_pos_site_id
 _symmetry_equiv_pos_as_xyz
  1  'x, y, z'
loop_
 _atom_site_type_symbol
 _atom_site_label
 _atom_site_symmetry_multiplicity
 _atom_site_fract_x
 _atom_site_fract_y
 _atom_site_fract_z
 _atom_site_occupancy
  Np  Np0  1  0.33333300  0.66666700  0.00000000  1
  Np  Np1  1  0.66666700  0.33333300  0.50000000  1
  Np  Np2  1  0.66666700  0.33333300  0.00000000  1
  Np  Np3  1  0.33333300  0.66666700  0.50000000  1
  Np  Np4  1  0.29985300  0.00000000  0.25000000  1
  Np  Np5  1  0.29985300  0.29985300  0.75000000  1
  Np  Np6  1  0.00000000  0.70014700  0.75000000  1
  Np  Np7  1  0.00000000  0.29985300  0.25000000  1
  Np  Np8  1  0.70014700  0.70014700  0.25000000  1
  Np  Np9  1  0.70014700  0.00000000  0.75000000  1
  Ge  Ge0  1  0.63406200  0.00000000  0.25000000  1
  Ge  Ge1  1  0.63406200  0.63406200  0.75000000  1
  Ge  Ge2  1  0.00000000  0.36593800  0.75000000  1
  Ge  Ge3  1  0.00000000  0.63406200  0.25000000  1
  Ge  Ge4  1  0.36593800  0.36593800  0.25000000  1
  Ge  Ge5  1  0.36593800  0.00000000  0.75000000  1
  Ge  Ge6  1  0.00000000  0.00000000  0.00000000  1
  Ge  Ge7  1  0.00000000  0.00000000  0.50000000  1
loop_
_geom_bond_atom_site_label_1
_geom_bond_atom_site_label_2
_geom_bond_distance
_geom_bond_site_symmetry_2
Np0 Np3 2.843705 1_554
Np0 Np3 2.843705 1_555
Np1 Np2 2.843705 1_556
Np1 Np2 2.843705 1_555
Ge0 Np4 2.817242 1_555
Ge0 Np8 2.847338 1_545
Ge0 Np7 2.847338 1_655
Ge0 Np9 2.897755 1_554
Ge0 Np9 2.897755 1_555
Ge0 Np2 3.036483 1_555
Ge0 Np1 3.036483 1_555
Ge0 Np0 3.036486 1_545
Ge0 Np3 3.036486 1_545
Ge1 Np5 2.817242 1_555
Ge1 Np6 2.847338 1_655
Ge1 Np9 2.847338 1_565
Ge1 Np8 2.897755 1_556
Ge1 Np8 2.897755 1_555
Ge1 Np3 3.036490 1_555
Ge1 Np2 3.036490 1_556
Ge1 Np1 3.036490 1_555
Ge1 Np0 3.036490 1_556
Ge2 Np6 2.817242 1_555
Ge2 Np5 2.847338 1_555
Ge2 Np9 2.847338 1_455
Ge2 Np7 2.897755 1_555
Ge2 Np7 2.897755 1_556
Ge2 Np1 3.036483 1_455
Ge2 Np2 3.036483 1_456
Ge2 Np0 3.036486 1_556
Ge2 Np3 3.036486 1_555
Ge3 Np7 2.817242 1_555
Ge3 Np8 2.847338 1_455
Ge3 Np4 2.847338 1_565
Ge3 Np6 2.897755 1_555
Ge3 Np6 2.897755 1_554
Ge3 Np3 3.036483 1_555
Ge3 Np0 3.036483 1_555
Ge3 Np2 3.036486 1_455
Ge3 Np1 3.036486 1_455
Ge4 Np8 2.817242 1_555
Ge4 Np7 2.847338 1_555
Ge4 Np4 2.847338 1_555
Ge4 Np5 2.897755 1_555
Ge4 Np5 2.897755 1_554
Ge4 Np3 3.036490 1_555
Ge4 Np1 3.036490 1_555
Ge4 Np2 3.036490 1_555
Ge4 Np0 3.036490 1_555
Ge5 Np9 2.817242 1_555
Ge5 Np5 2.847338 1_555
Ge5 Np6 2.847338 1_545
Ge5 Np4 2.897755 1_556
Ge5 Np4 2.897755 1_555
Ge5 Np3 3.036483 1_545
Ge5 Np0 3.036483 1_546
Ge5 Np1 3.036486 1_555
Ge5 Np2 3.036486 1_556
Ge6 Ge7 2.843705 1_555
Ge6 Ge7 2.843705 1_554
Ge6 Np9 2.900104 1_454
Ge6 Np6 2.900104 1_544
Ge6 Np7 2.900104 1_555
Ge6 Np4 2.900104 1_555
Ge6 Np5 2.900104 1_554
Ge6 Np8 2.900104 1_445
Ge7 Np6 2.900104 1_545
Ge7 Np9 2.900104 1_455
Ge7 Np7 2.900104 1_555
Ge7 Np4 2.900104 1_555
Ge7 Np5 2.900104 1_555
Ge7 Np8 2.900104 1_445
