# generated using pymatgen
data_RbCr2BiO8
_symmetry_space_group_name_H-M   'P 1'
_cell_length_a   5.76568700
_cell_length_b   10.25961600
_cell_length_c   13.45428100
_cell_angle_alpha   90.00000000
_cell_angle_beta   90.00000000
_cell_angle_gamma   90.00000000
_symmetry_Int_Tables_number   1
_chemical_formula_structural   RbCr2BiO8
_chemical_formula_sum   'Rb4 Cr8 Bi4 O32'
_cell_volume   795.87096746
_cell_formula_units_Z   4
loop_
 _symmetry_equiv_pos_site_id
 _symmetry_equiv_pos_as_xyz
  1  'x, y, z'
loop_
 _atom_site_type_symbol
 _atom_site_label
 _atom_site_symmetry_multiplicity
 _atom_site_fract_x
 _atom_site_fract_y
 _atom_site_fract_z
 _atom_site_occupancy
  Rb  Rb0  1  0.25000000  0.58037400  0.75000000  1
  Rb  Rb1  1  0.25000000  0.91962600  0.25000000  1
  Rb  Rb2  1  0.75000000  0.08037400  0.75000000  1
  Rb  Rb3  1  0.75000000  0.41962600  0.25000000  1
  Cr  Cr0  1  0.73463500  0.41454200  0.91737200  1
  Cr  Cr1  1  0.26536500  0.58545800  0.08262800  1
  Cr  Cr2  1  0.73463500  0.08545800  0.08262800  1
  Cr  Cr3  1  0.26536500  0.91454200  0.91737200  1
  Cr  Cr4  1  0.23463500  0.91454200  0.58262800  1
  Cr  Cr5  1  0.76536500  0.41454200  0.58262800  1
  Cr  Cr6  1  0.76536500  0.08545800  0.41737200  1
  Cr  Cr7  1  0.23463500  0.58545800  0.41737200  1
  Bi  Bi0  1  0.29573700  0.25000000  0.50000000  1
  Bi  Bi1  1  0.79573700  0.75000000  0.00000000  1
  Bi  Bi2  1  0.20426300  0.25000000  0.00000000  1
  Bi  Bi3  1  0.70426300  0.75000000  0.50000000  1
  O  O0  1  0.47265800  0.34038800  0.90042100  1
  O  O1  1  0.81676800  0.10234600  0.96689800  1
  O  O2  1  0.05963600  0.65505200  0.14999700  1
  O  O3  1  0.94036400  0.15505200  0.14999700  1
  O  O4  1  0.21085300  0.42590100  0.38992700  1
  O  O5  1  0.97265800  0.84038800  0.59957900  1
  O  O6  1  0.28914700  0.07409900  0.88992700  1
  O  O7  1  0.31676800  0.60234600  0.53310200  1
  O  O8  1  0.18323200  0.89765400  0.03310200  1
  O  O9  1  0.55963600  0.34494800  0.64999700  1
  O  O10  1  0.81676800  0.39765400  0.03310200  1
  O  O11  1  0.68323200  0.39765400  0.46689800  1
  O  O12  1  0.52734200  0.84038800  0.90042100  1
  O  O13  1  0.55963600  0.15505200  0.35000300  1
  O  O14  1  0.44036400  0.65505200  0.35000300  1
  O  O15  1  0.21085300  0.07409900  0.61007300  1
  O  O16  1  0.18323200  0.60234600  0.96689800  1
  O  O17  1  0.71085300  0.92590100  0.11007300  1
  O  O18  1  0.47265800  0.15961200  0.09957900  1
  O  O19  1  0.97265800  0.65961200  0.40042100  1
  O  O20  1  0.94036400  0.34494800  0.85000300  1
  O  O21  1  0.78914700  0.92590100  0.38992700  1
  O  O22  1  0.78914700  0.57409900  0.61007300  1
  O  O23  1  0.05963600  0.84494800  0.85000300  1
  O  O24  1  0.68323200  0.10234600  0.53310200  1
  O  O25  1  0.02734200  0.34038800  0.59957900  1
  O  O26  1  0.28914700  0.42590100  0.11007300  1
  O  O27  1  0.44036400  0.84494800  0.64999700  1
  O  O28  1  0.02734200  0.15961200  0.40042100  1
  O  O29  1  0.71085300  0.57409900  0.88992700  1
  O  O30  1  0.31676800  0.89765400  0.46689800  1
  O  O31  1  0.52734200  0.65961200  0.09957900  1
loop_
_geom_bond_atom_site_label_1
_geom_bond_atom_site_label_2
_geom_bond_distance
_geom_bond_site_symmetry_2
Cr0 O10 1.636680 1_556
Cr0 O20 1.654801 1_555
Cr0 O29 1.683715 1_555
Cr0 O0 1.706563 1_555
Cr1 O16 1.636680 1_554
Cr1 O2 1.654801 1_555
Cr1 O26 1.683715 1_555
Cr1 O31 1.706563 1_555
Cr2 O1 1.636680 1_554
Cr2 O3 1.654801 1_555
Cr2 O17 1.683715 1_545
Cr2 O18 1.706563 1_555
Cr3 O8 1.636680 1_556
Cr3 O23 1.654801 1_555
Cr3 O6 1.683715 1_565
Cr3 O12 1.706563 1_555
Cr4 O30 1.636680 1_555
Cr4 O27 1.654801 1_555
Cr4 O15 1.683715 1_565
Cr4 O5 1.706563 1_455
Cr5 O11 1.636680 1_555
Cr5 O9 1.654801 1_555
Cr5 O22 1.683715 1_555
Cr5 O25 1.706563 1_655
Cr6 O24 1.636680 1_555
Cr6 O13 1.654801 1_555
Cr6 O21 1.683715 1_545
Cr6 O28 1.706563 1_655
Cr7 O7 1.636680 1_555
Cr7 O14 1.654801 1_555
Cr7 O4 1.683715 1_555
Cr7 O19 1.706563 1_455
Bi0 O25 2.247140 1_555
Bi0 O28 2.247140 1_555
Bi0 O15 2.385290 1_555
Bi0 O4 2.385290 1_555
Bi0 O9 2.708654 1_555
Bi0 O13 2.708654 1_555
Bi0 O11 2.735823 1_555
Bi0 O24 2.735823 1_555
Bi1 O31 2.247140 1_555
Bi1 O12 2.247140 1_554
Bi1 O17 2.385290 1_555
Bi1 O29 2.385290 1_554
Bi1 O23 2.708654 1_654
Bi1 O2 2.708654 1_655
Bi1 O8 2.735823 1_655
Bi1 O16 2.735823 1_654
Bi2 O18 2.247140 1_555
Bi2 O0 2.247140 1_554
Bi2 O26 2.385290 1_555
Bi2 O6 2.385290 1_554
Bi2 O3 2.708654 1_455
Bi2 O20 2.708654 1_454
Bi2 O10 2.735823 1_455
Bi2 O1 2.735823 1_454
Bi3 O5 2.247140 1_555
Bi3 O19 2.247140 1_555
Bi3 O22 2.385290 1_555
Bi3 O21 2.385290 1_555
Bi3 O27 2.708654 1_555
Bi3 O14 2.708654 1_555
Bi3 O30 2.735823 1_555
Bi3 O7 2.735823 1_555
O0 Rb0 3.436004 1_555
O1 Rb2 2.952108 1_555
O2 Rb1 3.222279 1_555
O2 Rb3 3.291127 1_455
O3 Rb3 3.222279 1_555
O3 Rb1 3.291127 1_645
O4 Rb3 3.257108 1_455
O5 Rb2 3.436004 1_565
O6 Rb2 3.257108 1_555
O7 Rb0 2.952108 1_555
O8 Rb1 2.952108 1_555
O9 Rb2 3.222279 1_555
O9 Rb0 3.291127 1_555
O10 Rb3 2.952108 1_555
O11 Rb3 2.952108 1_555
O12 Rb2 3.436004 1_565
O13 Rb3 3.222279 1_555
O13 Rb1 3.291127 1_545
O14 Rb1 3.222279 1_555
O14 Rb3 3.291127 1_555
O15 Rb2 3.257108 1_455
O16 Rb0 2.952108 1_555
O17 Rb1 3.257108 1_555
O18 Rb1 3.436004 1_545
O19 Rb3 3.436004 1_555
O20 Rb2 3.222279 1_555
O20 Rb0 3.291127 1_655
O21 Rb1 3.257108 1_655
O22 Rb0 3.257108 1_655
O23 Rb0 3.222279 1_555
O23 Rb2 3.291127 1_465
O24 Rb2 2.952108 1_555
O25 Rb0 3.436004 1_555
O26 Rb3 3.257108 1_555
O27 Rb0 3.222279 1_555
O27 Rb2 3.291127 1_565
O28 Rb1 3.436004 1_545
O29 Rb0 3.257108 1_555
O30 Rb1 2.952108 1_555
O31 Rb3 3.436004 1_555
