# generated using pymatgen
data_CeIr2
_symmetry_space_group_name_H-M   'P 1'
_cell_length_a   5.37012695
_cell_length_b   5.37012882
_cell_length_c   5.37013151
_cell_angle_alpha   59.99999973
_cell_angle_beta   59.99999555
_cell_angle_gamma   60.00000117
_symmetry_Int_Tables_number   1
_chemical_formula_structural   CeIr2
_chemical_formula_sum   'Ce2 Ir4'
_cell_volume   109.50631604
_cell_formula_units_Z   2
loop_
 _symmetry_equiv_pos_site_id
 _symmetry_equiv_pos_as_xyz
  1  'x, y, z'
loop_
 _atom_site_type_symbol
 _atom_site_label
 _atom_site_symmetry_multiplicity
 _atom_site_fract_x
 _atom_site_fract_y
 _atom_site_fract_z
 _atom_site_occupancy
  Ce  Ce0  1  0.87499900  0.87500000  0.87500100  1
  Ce  Ce1  1  0.12500100  0.12500000  0.12499900  1
  Ir  Ir0  1  0.50000000  0.50000000  0.50000000  1
  Ir  Ir1  1  0.50000000  0.50000000  -0.00000000  1
  Ir  Ir2  1  0.00000000  0.50000000  0.50000000  1
  Ir  Ir3  1  0.50000000  0.00000000  0.50000000  1
loop_
_geom_bond_atom_site_label_1
_geom_bond_atom_site_label_2
_geom_bond_distance
_geom_bond_site_symmetry_2
Ce0 Ir0 3.148513 1_556
Ce0 Ir3 3.148514 1_566
Ce0 Ir1 3.148514 1_556
Ce0 Ir1 3.148515 1_566
Ce0 Ir2 3.148516 1_656
Ce0 Ir0 3.148517 1_565
Ce0 Ir3 3.148517 1_565
Ce0 Ir1 3.148519 1_656
Ce0 Ir2 3.148519 1_665
Ce0 Ir2 3.148520 1_655
Ce0 Ir3 3.148521 1_665
Ce0 Ir0 3.148522 1_655
Ce1 Ir0 3.148513 1_554
Ce1 Ir3 3.148514 1_554
Ce1 Ir1 3.148514 1_555
Ce1 Ir1 3.148515 1_545
Ce1 Ir2 3.148516 1_554
Ce1 Ir0 3.148517 1_545
Ce1 Ir3 3.148517 1_555
Ce1 Ir1 3.148519 1_455
Ce1 Ir2 3.148519 1_545
Ce1 Ir2 3.148520 1_555
Ce1 Ir3 3.148521 1_455
Ce1 Ir0 3.148522 1_455
Ir0 Ir2 2.685063 1_655
Ir0 Ir2 2.685063 1_555
Ir0 Ir3 2.685064 1_565
Ir0 Ir3 2.685064 1_555
Ir0 Ir1 2.685066 1_555
Ir0 Ir1 2.685066 1_556
Ir1 Ir2 2.685064 1_555
Ir1 Ir2 2.685064 1_654
Ir1 Ir3 2.685065 1_564
Ir1 Ir3 2.685065 1_555
Ir2 Ir3 2.685064 1_555
Ir2 Ir3 2.685064 1_465
