# generated using pymatgen
data_Sm3Si2S8I
_symmetry_space_group_name_H-M   'P 1'
_cell_length_a   8.85329534
_cell_length_b   8.85329534
_cell_length_c   10.80343671
_cell_angle_alpha   82.45814637
_cell_angle_beta   82.45814637
_cell_angle_gamma   52.19565589
_symmetry_Int_Tables_number   1
_chemical_formula_structural   Sm3Si2S8I
_chemical_formula_sum   'Sm6 Si4 S16 I2'
_cell_volume   661.86592835
_cell_formula_units_Z   2
loop_
 _symmetry_equiv_pos_site_id
 _symmetry_equiv_pos_as_xyz
  1  'x, y, z'
loop_
 _atom_site_type_symbol
 _atom_site_label
 _atom_site_symmetry_multiplicity
 _atom_site_fract_x
 _atom_site_fract_y
 _atom_site_fract_z
 _atom_site_occupancy
  Sm  Sm0  1  0.07596200  0.32403500  0.81860000  1
  Sm  Sm1  1  0.92403800  0.67596500  0.18140000  1
  Sm  Sm2  1  0.32403500  0.07596200  0.31860000  1
  Sm  Sm3  1  0.39674000  0.60326000  0.75000000  1
  Sm  Sm4  1  0.67596500  0.92403800  0.68140000  1
  Sm  Sm5  1  0.60326000  0.39674000  0.25000000  1
  Si  Si0  1  0.30342100  0.37822000  0.52771400  1
  Si  Si1  1  0.62178000  0.69657900  0.97228600  1
  Si  Si2  1  0.37822000  0.30342100  0.02771400  1
  Si  Si3  1  0.69657900  0.62178000  0.47228600  1
  S  S0  1  0.60389800  0.10780500  0.14697900  1
  S  S1  1  0.44950000  0.25319200  0.83433200  1
  S  S2  1  0.14873300  0.28643400  0.08620800  1
  S  S3  1  0.74680800  0.55050000  0.66566800  1
  S  S4  1  0.39610200  0.89219500  0.85302100  1
  S  S5  1  0.85126700  0.71356600  0.91379200  1
  S  S6  1  0.10780500  0.60389800  0.64697900  1
  S  S7  1  0.55050000  0.74680800  0.16566800  1
  S  S8  1  0.71356600  0.85126700  0.41379200  1
  S  S9  1  0.28643400  0.14873300  0.58620800  1
  S  S10  1  0.58999000  0.27434400  0.53997300  1
  S  S11  1  0.41001000  0.72565600  0.46002700  1
  S  S12  1  0.25319200  0.44950000  0.33433200  1
  S  S13  1  0.89219500  0.39610200  0.35302100  1
  S  S14  1  0.72565600  0.41001000  0.96002700  1
  S  S15  1  0.27434400  0.58999000  0.03997300  1
  I  I0  1  0.98486200  0.01513800  0.75000000  1
  I  I1  1  0.01513800  0.98486200  0.25000000  1
loop_
_geom_bond_atom_site_label_1
_geom_bond_atom_site_label_2
_geom_bond_distance
_geom_bond_site_symmetry_2
S0 Si2 2.121191 1_555
S0 Sm5 2.917232 1_555
S0 Sm2 3.028102 1_555
S0 Sm1 3.067173 1_545
S1 Si2 2.124727 1_556
S1 Sm3 2.872174 1_555
S1 Sm4 2.910869 1_545
S1 Sm0 2.989242 1_555
S2 Si2 2.135987 1_555
S2 Sm2 2.904063 1_555
S2 Sm0 2.976180 1_554
S2 Sm1 2.981878 1_455
S3 Si3 2.124727 1_555
S3 Sm3 2.872174 1_555
S3 Sm0 2.910869 1_655
S3 Sm4 2.989242 1_555
S4 Si1 2.121191 1_555
S4 Sm3 2.917232 1_555
S4 Sm4 3.028102 1_555
S4 Sm0 3.067173 1_565
S5 Si1 2.135987 1_555
S5 Sm4 2.904063 1_555
S5 Sm1 2.976180 1_556
S5 Sm0 2.981878 1_655
S6 Si0 2.121191 1_555
S6 Sm3 2.917232 1_555
S6 Sm0 3.028102 1_555
S6 Sm4 3.067173 1_455
S7 Si1 2.124727 1_554
S7 Sm5 2.872174 1_555
S7 Sm2 2.910869 1_565
S7 Sm1 2.989242 1_555
S8 Si3 2.135987 1_555
S8 Sm1 2.904063 1_555
S8 Sm4 2.976180 1_555
S8 Sm2 2.981878 1_565
S9 Si0 2.135987 1_555
S9 Sm0 2.904063 1_555
S9 Sm2 2.976180 1_555
S9 Sm4 2.981878 1_545
S10 Si0 2.120360 1_555
S10 Sm4 2.949526 1_545
S10 Sm5 3.189077 1_555
S10 Sm3 3.341096 1_555
S11 Si3 2.120360 1_555
S11 Sm2 2.949526 1_565
S11 Sm3 3.189077 1_555
S11 Sm5 3.341096 1_555
S12 Si0 2.124727 1_555
S12 Sm5 2.872174 1_555
S12 Sm1 2.910869 1_455
S12 Sm2 2.989242 1_555
S13 Si3 2.121191 1_555
S13 Sm5 2.917232 1_555
S13 Sm1 3.028102 1_555
S13 Sm2 3.067173 1_655
S14 Si1 2.120360 1_555
S14 Sm0 2.949526 1_655
S14 Sm5 3.189077 1_556
S14 Sm3 3.341096 1_555
S15 Si2 2.120360 1_555
S15 Sm1 2.949526 1_455
S15 Sm3 3.189077 1_554
S15 Sm5 3.341096 1_555
I0 Sm3 3.208208 1_645
I0 Sm4 3.474420 1_545
I0 Sm0 3.474420 1_655
I1 Sm5 3.208208 1_465
I1 Sm1 3.474420 1_455
I1 Sm2 3.474420 1_565
