# generated using pymatgen
data_Na10U8W5O44
_symmetry_space_group_name_H-M   'P 1'
_cell_length_a   17.29555141
_cell_length_b   17.29555141
_cell_length_c   6.83798702
_cell_angle_alpha   86.59998488
_cell_angle_beta   86.59998488
_cell_angle_gamma   87.28490330
_symmetry_Int_Tables_number   1
_chemical_formula_structural   Na10U8W5O44
_chemical_formula_sum   'Na20 U16 W10 O88'
_cell_volume   2036.31954202
_cell_formula_units_Z   2
loop_
 _symmetry_equiv_pos_site_id
 _symmetry_equiv_pos_as_xyz
  1  'x, y, z'
loop_
 _atom_site_type_symbol
 _atom_site_label
 _atom_site_symmetry_multiplicity
 _atom_site_fract_x
 _atom_site_fract_y
 _atom_site_fract_z
 _atom_site_occupancy
  Na  Na0  1  0.12788000  0.37252300  0.68296800  1
  Na  Na1  1  0.04236200  0.45316600  0.20588000  1
  Na  Na2  1  0.04715400  0.95284600  0.75000000  1
  Na  Na3  1  0.87212000  0.62747700  0.31703200  1
  Na  Na4  1  0.21102600  0.29509500  0.17263500  1
  Na  Na5  1  0.37252300  0.12788000  0.18296800  1
  Na  Na6  1  0.60733300  0.39266700  0.75000000  1
  Na  Na7  1  0.45316600  0.04236200  0.70588000  1
  Na  Na8  1  0.10618500  0.89381500  0.25000000  1
  Na  Na9  1  0.29509500  0.21102600  0.67263500  1
  Na  Na10  1  0.89381500  0.10618500  0.75000000  1
  Na  Na11  1  0.95763800  0.54683400  0.79412000  1
  Na  Na12  1  0.62747700  0.87212000  0.81703200  1
  Na  Na13  1  0.45257300  0.54742700  0.75000000  1
  Na  Na14  1  0.78897400  0.70490500  0.82736500  1
  Na  Na15  1  0.95284600  0.04715400  0.25000000  1
  Na  Na16  1  0.54683400  0.95763800  0.29412000  1
  Na  Na17  1  0.39266700  0.60733300  0.25000000  1
  Na  Na18  1  0.54742700  0.45257300  0.25000000  1
  Na  Na19  1  0.70490500  0.78897400  0.32736500  1
  U  U0  1  0.49785600  0.74932800  0.51584700  1
  U  U1  1  0.40749500  0.33887500  0.95471300  1
  U  U2  1  0.74931600  0.00172500  0.09509000  1
  U  U3  1  0.99827500  0.25068400  0.40491000  1
  U  U4  1  0.00172500  0.74931600  0.59509000  1
  U  U5  1  0.25068400  0.99827500  0.90491000  1
  U  U6  1  0.16139200  0.09368600  0.37362400  1
  U  U7  1  0.33887500  0.40749500  0.45471300  1
  U  U8  1  0.59250500  0.66112500  0.04528700  1
  U  U9  1  0.25067200  0.50214400  0.98415300  1
  U  U10  1  0.09368600  0.16139200  0.87362400  1
  U  U11  1  0.50214400  0.25067200  0.48415300  1
  U  U12  1  0.90631400  0.83860800  0.12637600  1
  U  U13  1  0.83860800  0.90631400  0.62637600  1
  U  U14  1  0.66112500  0.59250500  0.54528700  1
  U  U15  1  0.74932800  0.49785600  0.01584700  1
  W  W0  1  0.33758900  0.93263200  0.37781900  1
  W  W1  1  0.43044300  0.83099200  0.03621600  1
  W  W2  1  0.06736800  0.66241100  0.12218100  1
  W  W3  1  0.56955700  0.16900800  0.96378400  1
  W  W4  1  0.66241100  0.06736800  0.62218100  1
  W  W5  1  0.83099200  0.43044300  0.53621600  1
  W  W6  1  0.16900800  0.56955700  0.46378400  1
  W  W7  1  0.75363000  0.24637000  0.75000000  1
  W  W8  1  0.93263200  0.33758900  0.87781900  1
  W  W9  1  0.24637000  0.75363000  0.25000000  1
  O  O0  1  0.33240200  0.74935400  0.08557900  1
  O  O1  1  0.25737100  0.99985500  0.27669700  1
  O  O2  1  0.32912100  0.06971200  0.87405000  1
  O  O3  1  0.00014500  0.74262900  0.22330300  1
  O  O4  1  0.19426200  0.56886600  0.71955700  1
  O  O5  1  0.34533900  0.90978100  0.06707600  1
  O  O6  1  0.84095200  0.40773300  0.85272600  1
  O  O7  1  0.07188100  0.82784100  0.55705800  1
  O  O8  1  0.40647200  0.31968300  0.63482800  1
  O  O9  1  0.01831700  0.08497200  0.89069200  1
  O  O10  1  0.18577500  0.06447600  0.67994400  1
  O  O11  1  0.93028800  0.67087900  0.62595000  1
  O  O12  1  0.91373800  0.82664200  0.44953700  1
  O  O13  1  0.42998700  0.66879100  0.52442800  1
  O  O14  1  0.93552400  0.81422500  0.82005600  1
  O  O15  1  0.84354400  0.24591800  0.87487200  1
  O  O16  1  0.25064600  0.66759800  0.41442100  1
  O  O17  1  0.31010400  0.93421400  0.64036000  1
  O  O18  1  0.24591800  0.84354400  0.37487200  1
  O  O19  1  0.59226700  0.15904800  0.64727400  1
  O  O20  1  0.75408200  0.15645600  0.62512800  1
  O  O21  1  0.59352800  0.68031700  0.36517200  1
  O  O22  1  0.10231500  0.49296800  0.48598800  1
  O  O23  1  0.48810600  0.74362700  0.14489900  1
  O  O24  1  0.58116500  0.52152400  0.57897200  1
  O  O25  1  0.50703200  0.89768500  0.01401200  1
  O  O26  1  0.06578600  0.68989600  0.85964000  1
  O  O27  1  0.56145100  0.68268300  0.74103000  1
  O  O28  1  0.40773300  0.84095200  0.35272600  1
  O  O29  1  0.31731700  0.43854900  0.75897000  1
  O  O30  1  0.17335800  0.08626200  0.05046300  1
  O  O31  1  0.68268300  0.56145100  0.24103000  1
  O  O32  1  0.23991500  0.16683200  0.35381100  1
  O  O33  1  0.89768500  0.50703200  0.51401200  1
  O  O34  1  0.92811900  0.17215900  0.44294200  1
  O  O35  1  0.82784100  0.07188100  0.05705800  1
  O  O36  1  0.90978100  0.34533900  0.56707600  1
  O  O37  1  0.16951000  0.43315700  0.99966400  1
  O  O38  1  0.66879100  0.42998700  0.02442800  1
  O  O39  1  0.25578900  0.33980900  0.48749800  1
  O  O40  1  0.76008500  0.83316800  0.64618900  1
  O  O41  1  0.15904800  0.59226700  0.14727400  1
  O  O42  1  0.15645600  0.75408200  0.12512800  1
  O  O43  1  0.06447600  0.18577500  0.17994400  1
  O  O44  1  0.68989600  0.06578600  0.35964000  1
  O  O45  1  0.56886600  0.19426200  0.21955700  1
  O  O46  1  0.17215900  0.92811900  0.94294200  1
  O  O47  1  0.06971200  0.32912100  0.37405000  1
  O  O48  1  0.33120900  0.57001300  0.97557200  1
  O  O49  1  0.52152400  0.58116500  0.07897200  1
  O  O50  1  0.09021900  0.65466100  0.43292400  1
  O  O51  1  0.99985500  0.25737100  0.77669700  1
  O  O52  1  0.91502800  0.98168300  0.60930800  1
  O  O53  1  0.93421400  0.31010400  0.14036000  1
  O  O54  1  0.74262900  0.00014500  0.72330300  1
  O  O55  1  0.51189400  0.25637300  0.85510100  1
  O  O56  1  0.67087900  0.93028800  0.12595000  1
  O  O57  1  0.74362700  0.48810600  0.64489900  1
  O  O58  1  0.81422500  0.93552400  0.32005600  1
  O  O59  1  0.41360200  0.00095500  0.36803800  1
  O  O60  1  0.43854900  0.31731700  0.25897000  1
  O  O61  1  0.66019100  0.74421100  0.01250200  1
  O  O62  1  0.98168300  0.91502800  0.10930800  1
  O  O63  1  0.99904500  0.58639800  0.13196200  1
  O  O64  1  0.00095500  0.41360200  0.86803800  1
  O  O65  1  0.80573800  0.43113400  0.28044300  1
  O  O66  1  0.47847600  0.41883500  0.92102800  1
  O  O67  1  0.56684300  0.83049000  0.50033600  1
  O  O68  1  0.83316800  0.76008500  0.14618900  1
  O  O69  1  0.25637300  0.51189400  0.35510100  1
  O  O70  1  0.41883500  0.47847600  0.42102800  1
  O  O71  1  0.83049000  0.56684300  0.00033600  1
  O  O72  1  0.08626200  0.17335800  0.55046300  1
  O  O73  1  0.57001300  0.33120900  0.47557200  1
  O  O74  1  0.31968300  0.40647200  0.13482800  1
  O  O75  1  0.08497200  0.01831700  0.39069200  1
  O  O76  1  0.66759800  0.25064600  0.91442100  1
  O  O77  1  0.43113400  0.80573800  0.78044300  1
  O  O78  1  0.74421100  0.66019100  0.51250200  1
  O  O79  1  0.43315700  0.16951000  0.49966400  1
  O  O80  1  0.16683200  0.23991500  0.85381100  1
  O  O81  1  0.58639800  0.99904500  0.63196200  1
  O  O82  1  0.68031700  0.59352800  0.86517200  1
  O  O83  1  0.74935400  0.33240200  0.58557900  1
  O  O84  1  0.82664200  0.91373800  0.94953700  1
  O  O85  1  0.49296800  0.10231500  0.98598800  1
  O  O86  1  0.65466100  0.09021900  0.93292400  1
  O  O87  1  0.33980900  0.25578900  0.98749800  1
loop_
_geom_bond_atom_site_label_1
_geom_bond_atom_site_label_2
_geom_bond_distance
_geom_bond_site_symmetry_2
Na0 O22 2.449469 1_555
Na0 O47 2.559192 1_555
Na0 O64 2.560221 1_555
Na0 O39 2.573161 1_555
Na0 O80 2.589989 1_555
Na0 O37 2.614136 1_555
Na1 O22 2.382720 1_555
Na1 O47 2.413447 1_555
Na1 O63 2.422782 1_455
Na1 O37 2.561667 1_554
Na1 O64 2.597716 1_554
Na2 O52 2.547994 1_455
Na2 O9 2.547994 1_565
Na2 O7 2.604176 1_555
Na2 O46 2.604176 1_555
Na2 O75 2.701145 1_565
Na2 O62 2.701145 1_456
Na3 O33 2.449469 1_555
Na3 O11 2.559192 1_555
Na3 O63 2.560221 1_555
Na3 O78 2.573161 1_555
Na3 O68 2.589989 1_555
Na3 O71 2.614136 1_555
Na4 O39 2.506976 1_555
Na4 O32 2.519545 1_555
Na4 O87 2.578793 1_554
Na4 O80 2.600292 1_554
Na4 O37 2.686951 1_554
Na4 O74 2.745094 1_555
Na4 O47 2.788808 1_555
Na5 O85 2.449469 1_554
Na5 O2 2.559192 1_554
Na5 O59 2.560221 1_555
Na5 O87 2.573161 1_554
Na5 O32 2.589989 1_555
Na5 O79 2.614136 1_555
Na6 O38 2.348008 1_556
Na6 O73 2.348008 1_555
Na6 O24 2.489478 1_555
Na6 O66 2.489478 1_555
Na6 O83 2.820094 1_555
Na6 O76 2.820094 1_555
Na6 O57 2.970684 1_555
Na6 O55 2.970684 1_555
Na7 O85 2.382720 1_555
Na7 O2 2.413447 1_555
Na7 O81 2.422782 1_545
Na7 O79 2.561667 1_555
Na7 O59 2.597716 1_555
Na8 O7 2.386376 1_555
Na8 O46 2.386376 1_554
Na8 O75 2.413709 1_565
Na8 O62 2.413709 1_455
Na8 O18 2.698783 1_555
Na8 O42 2.698783 1_555
Na9 O87 2.506976 1_555
Na9 O80 2.519545 1_555
Na9 O39 2.578793 1_555
Na9 O32 2.600292 1_555
Na9 O79 2.686951 1_555
Na9 O8 2.745094 1_555
Na9 O2 2.788808 1_555
Na10 O34 2.386376 1_555
Na10 O35 2.386376 1_556
Na10 O9 2.413709 1_655
Na10 O52 2.413709 1_545
Na10 O20 2.698783 1_555
Na10 O15 2.698783 1_555
Na11 O33 2.382720 1_555
Na11 O11 2.413447 1_555
Na11 O64 2.422782 1_655
Na11 O71 2.561667 1_556
Na11 O63 2.597716 1_556
Na12 O25 2.449469 1_556
Na12 O56 2.559192 1_556
Na12 O81 2.560221 1_555
Na12 O61 2.573161 1_556
Na12 O40 2.589989 1_555
Na12 O67 2.614136 1_555
Na13 O66 2.484779 1_555
Na13 O24 2.484779 1_555
Na13 O13 2.558822 1_555
Na13 O48 2.558822 1_555
Na13 O70 2.713439 1_555
Na13 O49 2.713439 1_556
Na14 O78 2.506976 1_555
Na14 O40 2.519545 1_555
Na14 O61 2.578793 1_556
Na14 O68 2.600292 1_556
Na14 O71 2.686951 1_556
Na14 O82 2.745094 1_555
Na14 O11 2.788808 1_555
Na15 O62 2.547994 1_545
Na15 O75 2.547994 1_655
Na15 O35 2.604176 1_555
Na15 O34 2.604176 1_555
Na15 O9 2.701145 1_654
Na15 O52 2.701145 1_545
Na16 O25 2.382720 1_555
Na16 O56 2.413447 1_555
Na16 O59 2.422782 1_565
Na16 O67 2.561667 1_555
Na16 O81 2.597716 1_555
Na17 O13 2.348008 1_555
Na17 O48 2.348008 1_554
Na17 O70 2.489478 1_555
Na17 O49 2.489478 1_555
Na17 O0 2.820094 1_555
Na17 O16 2.820094 1_555
Na17 O23 2.970684 1_555
Na17 O69 2.970684 1_555
Na18 O70 2.484779 1_555
Na18 O49 2.484779 1_555
Na18 O73 2.558822 1_555
Na18 O38 2.558822 1_555
Na18 O66 2.713439 1_554
Na18 O24 2.713439 1_555
Na19 O61 2.506976 1_555
Na19 O68 2.519545 1_555
Na19 O78 2.578793 1_555
Na19 O40 2.600292 1_555
Na19 O67 2.686951 1_555
Na19 O21 2.745094 1_555
Na19 O56 2.788808 1_555
O0 W9 1.812347 1_555
O0 W1 2.255066 1_555
O1 W0 1.902745 1_555
O1 U6 2.360179 1_565
O1 U5 2.553566 1_554
O2 U5 1.872273 1_545
O3 W2 1.902745 1_555
O3 U12 2.360179 1_455
O3 U4 2.553566 1_555
O4 W6 1.826872 1_555
O4 U9 2.326418 1_555
O5 W1 1.968570 1_555
O5 W0 2.179447 1_555
O5 U5 2.455399 1_554
O6 W8 1.959817 1_555
O6 W5 2.192051 1_555
O6 U15 2.438765 1_556
O7 U4 1.860448 1_555
O8 U7 2.229592 1_555
O8 U11 2.231760 1_555
O8 U1 2.233013 1_555
O9 U10 1.893860 1_555
O10 U6 2.186218 1_555
O10 U5 2.193594 1_545
O10 U10 2.619286 1_555
O11 U4 1.872273 1_655
O12 U13 2.211591 1_555
O12 U12 2.217949 1_555
O12 U4 2.219010 1_655
O13 U0 1.859738 1_555
O14 U12 2.186218 1_556
O14 U4 2.193594 1_655
O14 U13 2.619286 1_555
O15 W7 1.817442 1_555
O15 W8 2.264350 1_555
O16 W9 1.812347 1_555
O16 W6 2.255066 1_555
O17 W0 1.831126 1_555
O17 U5 2.337853 1_555
O18 W9 1.817442 1_555
O18 W0 2.264350 1_555
O19 W4 1.959817 1_555
O19 W3 2.192051 1_555
O19 U11 2.438765 1_555
O20 W7 1.817442 1_555
O20 W4 2.264350 1_555
O21 U14 2.229592 1_555
O21 U0 2.231760 1_555
O21 U8 2.233013 1_555
O22 W6 1.791207 1_555
O23 W1 1.908425 1_555
O23 U8 2.342155 1_555
O23 U0 2.560109 1_555
O24 U14 1.887399 1_555
O25 W1 1.791207 1_555
O26 W2 1.831126 1_556
O26 U4 2.337853 1_555
O27 U8 2.185762 1_556
O27 U0 2.186244 1_555
O27 U14 2.629682 1_555
O28 W0 1.959817 1_555
O28 W1 2.192051 1_555
O28 U0 2.438765 1_555
O29 U7 2.185762 1_555
O29 U9 2.186244 1_555
O29 U1 2.629682 1_555
O30 U10 2.211591 1_554
O30 U6 2.217949 1_555
O30 U5 2.219010 1_544
O31 U14 2.185762 1_555
O31 U15 2.186244 1_555
O31 U8 2.629682 1_555
O32 U6 1.893115 1_555
O33 W5 1.791207 1_555
O34 U3 1.860448 1_555
O35 U2 1.860448 1_555
O36 W5 1.968570 1_555
O36 W8 2.179447 1_555
O36 U3 2.455399 1_555
O37 U9 1.879202 1_555
O38 U15 1.859738 1_555
O39 U7 1.890972 1_555
O40 U13 1.893115 1_555
O41 W2 1.959817 1_555
O41 W6 2.192051 1_555
O41 U9 2.438765 1_554
O42 W9 1.817442 1_555
O42 W2 2.264350 1_555
O43 U10 2.186218 1_554
O43 U3 2.193594 1_455
O43 U6 2.619286 1_555
O44 W4 1.831126 1_555
O44 U2 2.337853 1_555
O45 W3 1.826872 1_554
O45 U11 2.326418 1_555
O46 U5 1.860448 1_555
O47 U3 1.872273 1_455
O48 U9 1.859738 1_555
O49 U8 1.887399 1_555
O50 W6 1.968570 1_555
O50 W2 2.179447 1_555
O50 U4 2.455399 1_555
O51 W8 1.902745 1_555
O51 U10 2.360179 1_655
O51 U3 2.553566 1_555
O52 U13 1.893860 1_555
O53 W8 1.831126 1_554
O53 U3 2.337853 1_555
O54 W4 1.902745 1_555
O54 U13 2.360179 1_545
O54 U2 2.553566 1_556
O55 W3 1.908425 1_555
O55 U1 2.342155 1_555
O55 U11 2.560109 1_555
O56 U2 1.872273 1_565
O57 W5 1.908425 1_555
O57 U14 2.342155 1_555
O57 U15 2.560109 1_556
O58 U13 2.186218 1_555
O58 U2 2.193594 1_565
O58 U12 2.619286 1_555
O59 W0 1.804613 1_545
O60 U1 2.185762 1_554
O60 U11 2.186244 1_555
O60 U7 2.629682 1_555
O61 U8 1.890972 1_555
O62 U12 1.893860 1_555
O63 W2 1.804613 1_655
O64 W8 1.804613 1_455
O65 W5 1.826872 1_555
O65 U15 2.326418 1_555
O66 U1 1.887399 1_555
O67 U0 1.879202 1_555
O68 U12 1.893115 1_555
O69 W6 1.908425 1_555
O69 U7 2.342155 1_555
O69 U9 2.560109 1_554
O70 U7 1.887399 1_555
O71 U15 1.879202 1_555
O72 U6 2.211591 1_555
O72 U10 2.217949 1_555
O72 U3 2.219010 1_455
O73 U11 1.859738 1_555
O74 U1 2.229592 1_554
O74 U9 2.231760 1_554
O74 U7 2.233013 1_555
O75 U6 1.893860 1_555
O76 W7 1.812347 1_555
O76 W3 2.255066 1_555
O77 W1 1.826872 1_556
O77 U0 2.326418 1_555
O78 U14 1.890972 1_555
O79 U11 1.879202 1_555
O80 U10 1.893115 1_555
O81 W4 1.804613 1_565
O82 U8 2.229592 1_556
O82 U15 2.231760 1_556
O82 U14 2.233013 1_555
O83 W7 1.812347 1_555
O83 W5 2.255066 1_555
O84 U12 2.211591 1_556
O84 U13 2.217949 1_555
O84 U2 2.219010 1_566
O85 W3 1.791207 1_555
O86 W3 1.968570 1_555
O86 W4 2.179447 1_555
O86 U2 2.455399 1_556
O87 U1 1.890972 1_555
