# generated using pymatgen
data_EuTiClO3
_symmetry_space_group_name_H-M   'P 1'
_cell_length_a   5.30831558
_cell_length_b   5.30831558
_cell_length_c   10.29770784
_cell_angle_alpha   74.68986284
_cell_angle_beta   74.68986284
_cell_angle_gamma   43.43611968
_symmetry_Int_Tables_number   1
_chemical_formula_structural   EuTiClO3
_chemical_formula_sum   'Eu2 Ti2 Cl2 O6'
_cell_volume   191.27803116
_cell_formula_units_Z   2
loop_
 _symmetry_equiv_pos_site_id
 _symmetry_equiv_pos_as_xyz
  1  'x, y, z'
loop_
 _atom_site_type_symbol
 _atom_site_label
 _atom_site_symmetry_multiplicity
 _atom_site_fract_x
 _atom_site_fract_y
 _atom_site_fract_z
 _atom_site_occupancy
  Eu  Eu0  1  0.77935100  0.77935100  0.20188800  1
  Eu  Eu1  1  0.22064900  0.22064900  0.79811200  1
  Ti  Ti0  1  0.61917500  0.61917500  0.56462700  1
  Ti  Ti1  1  0.38082500  0.38082500  0.43537300  1
  Cl  Cl0  1  0.11190000  0.11190000  0.09722400  1
  Cl  Cl1  1  0.88810000  0.88810000  0.90277600  1
  O  O0  1  0.64938400  0.64938400  0.73799700  1
  O  O1  1  0.57640400  0.57640400  0.38068300  1
  O  O2  1  0.35061600  0.35061600  0.26200300  1
  O  O3  1  0.42359600  0.42359600  0.61931700  1
  O  O4  1  0.16688400  0.16688400  0.55964500  1
  O  O5  1  0.83311600  0.83311600  0.44035500  1
loop_
_geom_bond_atom_site_label_1
_geom_bond_atom_site_label_2
_geom_bond_distance
_geom_bond_site_symmetry_2
Eu0 O2 2.232271 1_565
Eu0 O2 2.232271 1_655
Eu0 O1 2.302539 1_555
Eu0 O5 2.655505 1_555
Eu1 O0 2.232271 1_545
Eu1 O0 2.232271 1_455
Eu1 O3 2.302539 1_555
Eu1 O4 2.655505 1_555
Cl0 Eu0 2.959666 1_545
Cl0 Eu0 2.959666 1_455
Cl0 Eu1 2.959714 1_554
Cl0 Eu0 3.148039 1_445
Cl1 Eu1 2.959666 1_655
Cl1 Eu1 2.959666 1_565
Cl1 Eu0 2.959714 1_556
Cl1 Eu1 3.148039 1_665
O0 Ti0 1.891691 1_555
O1 Ti1 1.849507 1_555
O1 Ti0 2.054308 1_555
O2 Ti1 1.891691 1_555
O3 Ti0 1.849507 1_555
O3 Ti1 2.054308 1_555
O4 Ti0 2.017115 1_455
O4 Ti0 2.017115 1_545
O4 Ti1 2.134302 1_555
O5 Ti1 2.017115 1_565
O5 Ti1 2.017115 1_655
O5 Ti0 2.134302 1_555
