# generated using pymatgen
data_NaSiBO4
_symmetry_space_group_name_H-M   'P 1'
_cell_length_a   8.13476016
_cell_length_b   8.13476016
_cell_length_c   7.78641900
_cell_angle_alpha   90.00000000
_cell_angle_beta   90.00000000
_cell_angle_gamma   120.00000131
_symmetry_Int_Tables_number   1
_chemical_formula_structural   NaSiBO4
_chemical_formula_sum   'Na6 Si6 B6 O24'
_cell_volume   446.22911401
_cell_formula_units_Z   6
loop_
 _symmetry_equiv_pos_site_id
 _symmetry_equiv_pos_as_xyz
  1  'x, y, z'
loop_
 _atom_site_type_symbol
 _atom_site_label
 _atom_site_symmetry_multiplicity
 _atom_site_fract_x
 _atom_site_fract_y
 _atom_site_fract_z
 _atom_site_occupancy
  Na  Na0  1  0.00000000  0.00000000  0.23134600  1
  Na  Na1  1  0.33333300  0.66666700  0.26850000  1
  Na  Na2  1  0.66666700  0.33333300  0.76850000  1
  Na  Na3  1  0.66666700  0.33333300  0.20105300  1
  Na  Na4  1  0.00000000  0.00000000  0.73134600  1
  Na  Na5  1  0.33333300  0.66666700  0.70105300  1
  Si  Si0  1  0.68221500  0.66058400  0.51254200  1
  Si  Si1  1  0.33941600  0.02163100  0.51254200  1
  Si  Si2  1  0.31778500  0.33941600  0.01254200  1
  Si  Si3  1  0.02163100  0.68221500  0.01254200  1
  Si  Si4  1  0.97836900  0.31778500  0.51254200  1
  Si  Si5  1  0.66058400  0.97836900  0.01254200  1
  B  B0  1  0.01786500  0.67977000  0.39245900  1
  B  B1  1  0.33809500  0.01786500  0.89245900  1
  B  B2  1  0.32023000  0.33809500  0.39245900  1
  B  B3  1  0.67977000  0.66190500  0.89245900  1
  B  B4  1  0.98213500  0.32023000  0.89245900  1
  B  B5  1  0.66190500  0.98213500  0.39245900  1
  O  O0  1  0.18947600  0.39861200  0.89273700  1
  O  O1  1  0.09089500  0.72313600  0.21279200  1
  O  O2  1  0.13991600  0.25423500  0.48961200  1
  O  O3  1  0.36775900  0.09089500  0.71279200  1
  O  O4  1  0.88568100  0.13991600  0.98961200  1
  O  O5  1  0.63224100  0.90910500  0.21279200  1
  O  O6  1  0.39861200  0.20913600  0.39273700  1
  O  O7  1  0.11431900  0.86008400  0.48961200  1
  O  O8  1  0.47207000  0.92860900  0.46669200  1
  O  O9  1  0.20913600  0.81052400  0.89273700  1
  O  O10  1  0.07139100  0.54346100  0.46669200  1
  O  O11  1  0.25423500  0.11431900  0.98961200  1
  O  O12  1  0.92860900  0.45653900  0.96669200  1
  O  O13  1  0.90910500  0.27686400  0.71279200  1
  O  O14  1  0.27686400  0.36775900  0.21279200  1
  O  O15  1  0.86008400  0.74576500  0.98961200  1
  O  O16  1  0.45653900  0.52793000  0.46669200  1
  O  O17  1  0.54346100  0.47207000  0.96669200  1
  O  O18  1  0.81052400  0.60138800  0.39273700  1
  O  O19  1  0.72313600  0.63224100  0.71279200  1
  O  O20  1  0.74576500  0.88568100  0.48961200  1
  O  O21  1  0.52793000  0.07139100  0.96669200  1
  O  O22  1  0.60138800  0.79086400  0.89273700  1
  O  O23  1  0.79086400  0.18947600  0.39273700  1
loop_
_geom_bond_atom_site_label_1
_geom_bond_atom_site_label_2
_geom_bond_distance
_geom_bond_site_symmetry_2
Na0 O15 2.600304 1_444
Na0 O11 2.600304 1_554
Na0 O4 2.600304 1_454
Na0 O2 2.694946 1_555
Na0 O20 2.694946 1_445
Na0 O7 2.694946 1_545
Na0 O14 2.702853 1_555
Na0 O5 2.702853 1_445
Na0 O1 2.702853 1_545
Na1 O1 2.279163 1_555
Na1 O5 2.279168 1_555
Na1 O14 2.279170 1_555
Na1 O10 2.406412 1_555
Na1 O8 2.406412 1_555
Na1 O16 2.406418 1_555
Na2 O13 2.279163 1_555
Na2 O3 2.279168 1_555
Na2 O19 2.279170 1_555
Na2 O12 2.406412 1_555
Na2 O21 2.406412 1_555
Na2 O17 2.406418 1_555
Na3 O23 2.408352 1_555
Na3 O18 2.408358 1_555
Na3 O6 2.408358 1_555
Na3 O12 2.596026 1_554
Na3 O21 2.596026 1_554
Na3 O17 2.596031 1_554
Na4 O2 2.600304 1_555
Na4 O20 2.600304 1_445
Na4 O7 2.600304 1_545
Na4 O15 2.694946 1_445
Na4 O11 2.694946 1_555
Na4 O4 2.694946 1_455
Na4 O19 2.702853 1_445
Na4 O3 2.702853 1_555
Na4 O13 2.702853 1_455
Na5 O9 2.408352 1_555
Na5 O0 2.408358 1_555
Na5 O22 2.408358 1_555
Na5 O10 2.596026 1_555
Na5 O8 2.596026 1_555
Na5 O16 2.596031 1_555
B0 O18 1.475115 1_455
B0 O7 1.479367 1_555
B0 O1 1.491610 1_555
B0 O10 1.495335 1_555
B1 O9 1.475115 1_545
B1 O11 1.479367 1_555
B1 O3 1.491610 1_555
B1 O21 1.495335 1_555
B2 O6 1.475115 1_555
B2 O2 1.479367 1_555
B2 O14 1.491610 1_555
B2 O16 1.495335 1_555
B3 O22 1.475115 1_555
B3 O15 1.479367 1_555
B3 O19 1.491610 1_555
B3 O17 1.495335 1_555
B4 O0 1.475115 1_655
B4 O4 1.479367 1_555
B4 O13 1.491610 1_555
B4 O12 1.495335 1_555
B5 O23 1.475115 1_565
B5 O20 1.479367 1_555
B5 O5 1.491610 1_555
B5 O8 1.495335 1_555
O0 Si2 1.641389 1_556
O1 Si3 1.634601 1_555
O2 Si4 1.644833 1_455
O3 Si1 1.634601 1_555
O4 Si5 1.644833 1_546
O5 Si5 1.634601 1_555
O6 Si1 1.641389 1_555
O7 Si1 1.644833 1_565
O8 Si1 1.637411 1_565
O9 Si3 1.641389 1_556
O10 Si4 1.637411 1_455
O11 Si2 1.644833 1_556
O12 Si3 1.637411 1_656
O13 Si4 1.634601 1_555
O14 Si2 1.634601 1_555
O15 Si3 1.644833 1_656
O16 Si0 1.637411 1_555
O17 Si2 1.637411 1_556
O18 Si0 1.641389 1_555
O19 Si0 1.634601 1_555
O20 Si0 1.644833 1_555
O21 Si5 1.637411 1_546
O22 Si5 1.641389 1_556
O23 Si4 1.641389 1_555
