# generated using pymatgen
data_NaClO4
_symmetry_space_group_name_H-M   'P 1'
_cell_length_a   5.21850037
_cell_length_b   5.21850037
_cell_length_c   5.21850037
_cell_angle_alpha   60.00000000
_cell_angle_beta   60.00000000
_cell_angle_gamma   60.00000000
_symmetry_Int_Tables_number   1
_chemical_formula_structural   NaClO4
_chemical_formula_sum   'Na1 Cl1 O4'
_cell_volume   100.48984080
_cell_formula_units_Z   1
loop_
 _symmetry_equiv_pos_site_id
 _symmetry_equiv_pos_as_xyz
  1  'x, y, z'
loop_
 _atom_site_type_symbol
 _atom_site_label
 _atom_site_symmetry_multiplicity
 _atom_site_fract_x
 _atom_site_fract_y
 _atom_site_fract_z
 _atom_site_occupancy
  Na  Na0  1  0.25000000  0.25000000  0.25000000  1
  Cl  Cl0  1  0.75000000  0.75000000  0.75000000  1
  O  O0  1  0.86453200  0.40640400  0.86453200  1
  O  O1  1  0.40640400  0.86453200  0.86453200  1
  O  O2  1  0.86453200  0.86453200  0.86453200  1
  O  O3  1  0.86453200  0.86453200  0.40640400  1
loop_
_geom_bond_atom_site_label_1
_geom_bond_atom_site_label_2
_geom_bond_distance
_geom_bond_site_symmetry_2
Na0 O1 3.085725 1_545
Na0 O0 3.085725 1_455
Na0 O3 3.085725 1_455
Na0 O0 3.085725 1_554
Na0 O2 3.085725 1_544
Na0 O3 3.085725 1_545
Na0 O1 3.085725 1_554
Na0 O1 3.085725 1_544
Na0 O2 3.085725 1_445
Na0 O2 3.085725 1_454
Na0 O0 3.085725 1_454
Na0 O3 3.085725 1_445
Cl0 O2 1.464024 1_555
Cl0 O1 1.464024 1_555
Cl0 O0 1.464024 1_555
Cl0 O3 1.464024 1_555
