# generated using pymatgen
data_KLiNd2(MoO4)4
_symmetry_space_group_name_H-M   'P 1'
_cell_length_a   7.06525143
_cell_length_b   7.06525143
_cell_length_c   19.92223003
_cell_angle_alpha   88.70035317
_cell_angle_beta   88.70035317
_cell_angle_gamma   134.99795773
_symmetry_Int_Tables_number   1
_chemical_formula_structural   KLiNd2(MoO4)4
_chemical_formula_sum   'K2 Li2 Nd4 Mo8 O32'
_cell_volume   701.98786783
_cell_formula_units_Z   2
loop_
 _symmetry_equiv_pos_site_id
 _symmetry_equiv_pos_as_xyz
  1  'x, y, z'
loop_
 _atom_site_type_symbol
 _atom_site_label
 _atom_site_symmetry_multiplicity
 _atom_site_fract_x
 _atom_site_fract_y
 _atom_site_fract_z
 _atom_site_occupancy
  K  K0  1  0.96793100  0.03206900  0.75000000  1
  K  K1  1  0.03206900  0.96793100  0.25000000  1
  Li  Li0  1  0.31032600  0.68967400  0.25000000  1
  Li  Li1  1  0.68967400  0.31032600  0.75000000  1
  Nd  Nd0  1  0.85382300  0.14735600  0.53347700  1
  Nd  Nd1  1  0.14617700  0.85264400  0.46652300  1
  Nd  Nd2  1  0.14735600  0.85382300  0.03347700  1
  Nd  Nd3  1  0.85264400  0.14617700  0.96652300  1
  Mo  Mo0  1  0.57764700  0.45295300  0.90749400  1
  Mo  Mo1  1  0.26864200  0.75818600  0.85090900  1
  Mo  Mo2  1  0.45295300  0.57764700  0.40749400  1
  Mo  Mo3  1  0.75818600  0.26864200  0.35090900  1
  Mo  Mo4  1  0.24181400  0.73135800  0.64909100  1
  Mo  Mo5  1  0.73135800  0.24181400  0.14909100  1
  Mo  Mo6  1  0.54704700  0.42235300  0.59250600  1
  Mo  Mo7  1  0.42235300  0.54704700  0.09250600  1
  O  O0  1  0.50426000  0.69228700  0.17088700  1
  O  O1  1  0.69228700  0.50426000  0.67088700  1
  O  O2  1  0.41035900  0.93166100  0.93152200  1
  O  O3  1  0.76688800  0.67814300  0.39870200  1
  O  O4  1  0.06162900  0.47245800  0.71360500  1
  O  O5  1  0.23311200  0.32185700  0.60129800  1
  O  O6  1  0.26108000  0.22112700  0.95991100  1
  O  O7  1  0.81960700  0.48671600  0.95702800  1
  O  O8  1  0.51328400  0.18039300  0.54297200  1
  O  O9  1  0.25674400  0.98057500  0.67263600  1
  O  O10  1  0.52754200  0.93837100  0.78639500  1
  O  O11  1  0.49574000  0.30771300  0.82911300  1
  O  O12  1  0.93166100  0.41035900  0.43152200  1
  O  O13  1  0.74325600  0.01942500  0.32736400  1
  O  O14  1  0.47245800  0.06162900  0.21360500  1
  O  O15  1  0.73892000  0.77887300  0.04008900  1
  O  O16  1  0.01942500  0.74325600  0.82736400  1
  O  O17  1  0.58527900  0.89535400  0.63395400  1
  O  O18  1  0.77887300  0.73892000  0.54008900  1
  O  O19  1  0.41472100  0.10464600  0.36604600  1
  O  O20  1  0.67814300  0.76688800  0.89870200  1
  O  O21  1  0.58964100  0.06833900  0.06847800  1
  O  O22  1  0.30771300  0.49574000  0.32911300  1
  O  O23  1  0.10464600  0.41472100  0.86604600  1
  O  O24  1  0.98057500  0.25674400  0.17263600  1
  O  O25  1  0.93837100  0.52754200  0.28639500  1
  O  O26  1  0.06833900  0.58964100  0.56847800  1
  O  O27  1  0.89535400  0.58527900  0.13395400  1
  O  O28  1  0.32185700  0.23311200  0.10129800  1
  O  O29  1  0.22112700  0.26108000  0.45991100  1
  O  O30  1  0.48671600  0.81960700  0.45702800  1
  O  O31  1  0.18039300  0.51328400  0.04297200  1
loop_
_geom_bond_atom_site_label_1
_geom_bond_atom_site_label_2
_geom_bond_distance
_geom_bond_site_symmetry_2
K0 O16 2.757584 1_645
K0 O9 2.757584 1_645
K0 O10 2.758290 1_545
K0 O4 2.758290 1_655
K0 O23 3.206061 1_655
K0 O17 3.206061 1_545
K0 O1 3.212271 1_545
K0 O11 3.212271 1_655
K0 O20 3.244508 1_545
K0 O5 3.244508 1_655
K1 O13 2.757584 1_465
K1 O24 2.757584 1_465
K1 O25 2.758290 1_455
K1 O14 2.758290 1_565
K1 O19 3.206061 1_565
K1 O27 3.206061 1_455
K1 O0 3.212271 1_455
K1 O22 3.212271 1_565
K1 O3 3.244508 1_455
K1 O28 3.244508 1_565
Li0 O0 2.055925 1_555
Li0 O22 2.055925 1_555
Li0 O14 2.088742 1_565
Li0 O25 2.088742 1_455
Li1 O11 2.055925 1_555
Li1 O1 2.055925 1_555
Li1 O4 2.088742 1_655
Li1 O10 2.088742 1_545
Nd0 O17 2.380260 1_545
Nd0 O26 2.448925 1_655
Nd0 O5 2.468683 1_655
Nd0 O12 2.492774 1_555
Nd0 O30 2.500941 1_545
Nd0 O29 2.520601 1_655
Nd0 O18 2.538437 1_545
Nd0 O8 2.579654 1_555
Nd1 O19 2.380260 1_565
Nd1 O12 2.448925 1_455
Nd1 O3 2.468683 1_455
Nd1 O26 2.492774 1_555
Nd1 O8 2.500941 1_565
Nd1 O18 2.520601 1_455
Nd1 O29 2.538437 1_565
Nd1 O30 2.579654 1_555
Nd2 O27 2.380260 1_455
Nd2 O21 2.448925 1_565
Nd2 O28 2.468683 1_565
Nd2 O2 2.492774 1_554
Nd2 O7 2.500941 1_454
Nd2 O6 2.520601 1_564
Nd2 O15 2.538437 1_455
Nd2 O31 2.579654 1_555
Nd3 O23 2.380260 1_655
Nd3 O2 2.448925 1_545
Nd3 O20 2.468683 1_545
Nd3 O21 2.492774 1_556
Nd3 O31 2.500941 1_656
Nd3 O15 2.520601 1_546
Nd3 O6 2.538437 1_655
Nd3 O7 2.579654 1_555
Mo0 O11 1.760724 1_555
Mo0 O20 1.789998 1_555
Mo0 O6 1.847040 1_555
Mo0 O7 1.861093 1_555
Mo1 O16 1.763109 1_555
Mo1 O10 1.773285 1_555
Mo1 O23 1.815739 1_555
Mo1 O2 1.873692 1_555
Mo2 O22 1.760724 1_555
Mo2 O3 1.789998 1_555
Mo2 O29 1.847040 1_555
Mo2 O30 1.861093 1_555
Mo3 O13 1.763109 1_555
Mo3 O25 1.773285 1_555
Mo3 O19 1.815739 1_555
Mo3 O12 1.873692 1_555
Mo4 O9 1.763109 1_555
Mo4 O4 1.773285 1_555
Mo4 O17 1.815739 1_555
Mo4 O26 1.873692 1_555
Mo5 O24 1.763109 1_555
Mo5 O14 1.773285 1_555
Mo5 O27 1.815739 1_555
Mo5 O21 1.873692 1_555
Mo6 O1 1.760724 1_555
Mo6 O5 1.789998 1_555
Mo6 O18 1.847040 1_555
Mo6 O8 1.861093 1_555
Mo7 O0 1.760724 1_555
Mo7 O28 1.789998 1_555
Mo7 O15 1.847040 1_555
Mo7 O31 1.861093 1_555
