# generated using pymatgen
data_K3ReClF6
_symmetry_space_group_name_H-M   'P 1'
_cell_length_a   8.43464600
_cell_length_b   8.43464600
_cell_length_c   6.09198600
_cell_angle_alpha   90.00000000
_cell_angle_beta   90.00000000
_cell_angle_gamma   90.00000000
_symmetry_Int_Tables_number   1
_chemical_formula_structural   K3ReClF6
_chemical_formula_sum   'K6 Re2 Cl2 F12'
_cell_volume   433.40370216
_cell_formula_units_Z   2
loop_
 _symmetry_equiv_pos_site_id
 _symmetry_equiv_pos_as_xyz
  1  'x, y, z'
loop_
 _atom_site_type_symbol
 _atom_site_label
 _atom_site_symmetry_multiplicity
 _atom_site_fract_x
 _atom_site_fract_y
 _atom_site_fract_z
 _atom_site_occupancy
  K  K0  1  0.68551400  0.18551400  0.50000000  1
  K  K1  1  0.81448600  0.68551400  0.50000000  1
  K  K2  1  0.50000000  0.50000000  0.00000000  1
  K  K3  1  0.18551400  0.31448600  0.50000000  1
  K  K4  1  0.31448600  0.81448600  0.50000000  1
  K  K5  1  0.00000000  0.00000000  0.00000000  1
  Re  Re0  1  0.50000000  0.00000000  0.00000000  1
  Re  Re1  1  0.00000000  0.50000000  0.00000000  1
  Cl  Cl0  1  0.50000000  0.50000000  0.50000000  1
  Cl  Cl1  1  0.00000000  0.00000000  0.50000000  1
  F  F0  1  0.88751900  0.38751900  0.24109700  1
  F  F1  1  0.61248100  0.88751900  0.75890300  1
  F  F2  1  0.16673700  0.33326300  0.00000000  1
  F  F3  1  0.88751900  0.38751900  0.75890300  1
  F  F4  1  0.38751900  0.11248100  0.75890300  1
  F  F5  1  0.83326300  0.66673700  0.00000000  1
  F  F6  1  0.11248100  0.61248100  0.24109700  1
  F  F7  1  0.66673700  0.16673700  0.00000000  1
  F  F8  1  0.61248100  0.88751900  0.24109700  1
  F  F9  1  0.38751900  0.11248100  0.24109700  1
  F  F10  1  0.11248100  0.61248100  0.75890300  1
  F  F11  1  0.33326300  0.83326300  0.00000000  1
loop_
_geom_bond_atom_site_label_1
_geom_bond_atom_site_label_2
_geom_bond_distance
_geom_bond_site_symmetry_2
Cl0 K2 3.045993 1_555
Cl0 K2 3.045993 1_556
Cl0 K0 3.079707 1_555
Cl0 K3 3.079707 1_555
Cl0 K1 3.079707 1_555
Cl0 K4 3.079707 1_555
Cl1 K5 3.045993 1_556
Cl1 K5 3.045993 1_555
Cl1 K4 3.079707 1_545
Cl1 K3 3.079707 1_555
Cl1 K0 3.079707 1_455
Cl1 K1 3.079707 1_445
F0 Re1 1.989337 1_655
F0 K0 2.879898 1_555
F0 K1 3.030631 1_555
F0 K3 3.030631 1_655
F1 Re0 1.989337 1_566
F1 K1 2.879898 1_555
F1 K0 3.030631 1_565
F1 K4 3.030631 1_555
F2 Re1 1.988904 1_555
F2 K3 3.054217 1_554
F2 K3 3.054217 1_555
F2 K2 3.143142 1_555
F2 K5 3.143142 1_555
F3 Re1 1.989337 1_656
F3 K0 2.879898 1_555
F3 K1 3.030631 1_555
F3 K3 3.030631 1_655
F4 Re0 1.989337 1_556
F4 K3 2.879898 1_555
F4 K4 3.030631 1_545
F4 K0 3.030631 1_555
F5 Re1 1.988904 1_655
F5 K1 3.054217 1_555
F5 K1 3.054217 1_554
F5 K2 3.143142 1_555
F5 K5 3.143142 1_665
F6 Re1 1.989337 1_555
F6 K4 2.879898 1_555
F6 K1 3.030631 1_455
F6 K3 3.030631 1_555
F7 Re0 1.988904 1_555
F7 K0 3.054217 1_555
F7 K0 3.054217 1_554
F7 K2 3.143142 1_555
F7 K5 3.143142 1_655
F8 Re0 1.989337 1_565
F8 K1 2.879898 1_555
F8 K0 3.030631 1_565
F8 K4 3.030631 1_555
F9 Re0 1.989337 1_555
F9 K3 2.879898 1_555
F9 K4 3.030631 1_545
F9 K0 3.030631 1_555
F10 Re1 1.989337 1_556
F10 K4 2.879898 1_555
F10 K1 3.030631 1_455
F10 K3 3.030631 1_555
F11 Re0 1.988904 1_565
F11 K4 3.054217 1_555
F11 K4 3.054217 1_554
F11 K2 3.143142 1_555
F11 K5 3.143142 1_565
