# generated using pymatgen
data_PuAl3
_symmetry_space_group_name_H-M   'P 1'
_cell_length_a   7.90381078
_cell_length_b   7.90381118
_cell_length_c   7.90381146
_cell_angle_alpha   45.77925200
_cell_angle_beta   45.77924906
_cell_angle_gamma   45.77926236
_symmetry_Int_Tables_number   1
_chemical_formula_structural   PuAl3
_chemical_formula_sum   'Pu3 Al9'
_cell_volume   231.19706775
_cell_formula_units_Z   3
loop_
 _symmetry_equiv_pos_site_id
 _symmetry_equiv_pos_as_xyz
  1  'x, y, z'
loop_
 _atom_site_type_symbol
 _atom_site_label
 _atom_site_symmetry_multiplicity
 _atom_site_fract_x
 _atom_site_fract_y
 _atom_site_fract_z
 _atom_site_occupancy
  Pu  Pu0  1  -0.00000000  -0.00000000  0.00000000  1
  Pu  Pu1  1  0.21868402  0.21868302  0.21868402  1
  Pu  Pu2  1  0.78131598  0.78131698  0.78131598  1
  Al  Al0  1  0.50000000  0.50000000  0.00000000  1
  Al  Al1  1  0.50000000  -0.00000000  0.50000000  1
  Al  Al2  1  -0.00000000  0.50000000  0.50000000  1
  Al  Al3  1  0.74614372  0.29278328  0.29278328  1
  Al  Al4  1  0.29278328  0.29278328  0.74614372  1
  Al  Al5  1  0.29278328  0.74614372  0.29278328  1
  Al  Al6  1  0.70721672  0.25385628  0.70721672  1
  Al  Al7  1  0.25385628  0.70721672  0.70721672  1
  Al  Al8  1  0.70721672  0.70721672  0.25385628  1
loop_
_geom_bond_atom_site_label_1
_geom_bond_atom_site_label_2
_geom_bond_distance
_geom_bond_site_symmetry_2
Al0 Al3 2.893275 1_555
Al0 Al7 2.893275 1_554
Al0 Al5 2.893275 1_555
Al0 Al6 2.893275 1_554
Al0 Pu1 3.008300 1_555
Al0 Pu2 3.008300 1_554
Al0 Al2 3.074244 1_555
Al0 Al2 3.074244 1_654
Al0 Al1 3.074244 1_555
Al0 Al1 3.074244 1_564
Al0 Pu0 3.074244 1_565
Al0 Pu0 3.074244 1_655
Al1 Al3 2.893275 1_555
Al1 Al7 2.893275 1_545
Al1 Al4 2.893275 1_555
Al1 Al8 2.893275 1_545
Al1 Pu1 3.008297 1_555
Al1 Pu2 3.008297 1_545
Al1 Pu0 3.074244 1_655
Al1 Pu0 3.074244 1_556
Al1 Al2 3.074244 1_555
Al1 Al2 3.074244 1_645
Al2 Al5 2.893275 1_555
Al2 Al6 2.893275 1_455
Al2 Al4 2.893275 1_555
Al2 Al8 2.893275 1_455
Al2 Pu2 3.008300 1_455
Al2 Pu1 3.008300 1_555
Al2 Pu0 3.074244 1_565
Al2 Pu0 3.074244 1_556
Al3 Al4 2.787481 1_555
Al3 Al5 2.787482 1_555
Al3 Al8 2.870445 1_555
Al3 Al6 2.870445 1_555
Al3 Pu1 3.001919 1_655
Al3 Pu0 3.041812 1_655
Al3 Pu2 3.079909 1_545
Al3 Pu2 3.079915 1_554
Al4 Al5 2.787481 1_555
Al4 Al6 2.870445 1_555
Al4 Al7 2.870445 1_555
Al4 Pu1 3.001920 1_556
Al4 Pu0 3.041811 1_556
Al4 Pu2 3.079909 1_545
Al4 Pu2 3.079915 1_455
Al5 Al8 2.870445 1_555
Al5 Al7 2.870445 1_555
Al5 Pu1 3.001916 1_565
Al5 Pu0 3.041812 1_565
Al5 Pu2 3.079912 1_554
Al5 Pu2 3.079912 1_455
Al6 Al8 2.787481 1_555
Al6 Al7 2.787482 1_555
Al6 Pu2 3.001916 1_545
Al6 Pu0 3.041812 1_656
Al6 Pu1 3.079912 1_556
Al6 Pu1 3.079912 1_655
Al7 Al8 2.787481 1_555
Al7 Pu2 3.001919 1_455
Al7 Pu0 3.041812 1_566
Al7 Pu1 3.079909 1_565
Al7 Pu1 3.079915 1_556
Al8 Pu2 3.001920 1_554
Al8 Pu0 3.041811 1_665
Al8 Pu1 3.079909 1_565
Al8 Pu1 3.079915 1_655
