# generated using pymatgen
data_Pr3Si2S8Cl
_symmetry_space_group_name_H-M   'P 1'
_cell_length_a   8.80605580
_cell_length_b   8.80605580
_cell_length_c   11.05109666
_cell_angle_alpha   83.11777061
_cell_angle_beta   83.11777061
_cell_angle_gamma   52.13035657
_symmetry_Int_Tables_number   1
_chemical_formula_structural   Pr3Si2S8Cl
_chemical_formula_sum   'Pr6 Si4 S16 Cl2'
_cell_volume   670.45825167
_cell_formula_units_Z   2
loop_
 _symmetry_equiv_pos_site_id
 _symmetry_equiv_pos_as_xyz
  1  'x, y, z'
loop_
 _atom_site_type_symbol
 _atom_site_label
 _atom_site_symmetry_multiplicity
 _atom_site_fract_x
 _atom_site_fract_y
 _atom_site_fract_z
 _atom_site_occupancy
  Pr  Pr0  1  0.92695600  0.68187200  0.18550400  1
  Pr  Pr1  1  0.62197000  0.37803000  0.25000000  1
  Pr  Pr2  1  0.68187200  0.92695600  0.68550400  1
  Pr  Pr3  1  0.31812800  0.07304400  0.31449600  1
  Pr  Pr4  1  0.37803000  0.62197000  0.75000000  1
  Pr  Pr5  1  0.07304400  0.31812800  0.81449600  1
  Si  Si0  1  0.62745100  0.69212400  0.97076700  1
  Si  Si1  1  0.30787600  0.37254900  0.52923300  1
  Si  Si2  1  0.37254900  0.30787600  0.02923300  1
  Si  Si3  1  0.69212400  0.62745100  0.47076700  1
  S  S0  1  0.59157800  0.27665300  0.54896500  1
  S  S1  1  0.10378900  0.60371400  0.64208100  1
  S  S2  1  0.14339200  0.28894700  0.08541900  1
  S  S3  1  0.55785900  0.73697500  0.16055800  1
  S  S4  1  0.39628600  0.89621100  0.85791900  1
  S  S5  1  0.85660800  0.71105300  0.91458100  1
  S  S6  1  0.72334800  0.40842200  0.95103500  1
  S  S7  1  0.44214100  0.26302500  0.83944200  1
  S  S8  1  0.28894700  0.14339200  0.58541900  1
  S  S9  1  0.26302500  0.44214100  0.33944200  1
  S  S10  1  0.60371400  0.10378900  0.14208100  1
  S  S11  1  0.71105300  0.85660800  0.41458100  1
  S  S12  1  0.89621100  0.39628600  0.35791900  1
  S  S13  1  0.73697500  0.55785900  0.66055800  1
  S  S14  1  0.27665300  0.59157800  0.04896500  1
  S  S15  1  0.40842200  0.72334800  0.45103500  1
  Cl  Cl0  1  0.99324700  0.00675300  0.25000000  1
  Cl  Cl1  1  0.00675300  0.99324700  0.75000000  1
loop_
_geom_bond_atom_site_label_1
_geom_bond_atom_site_label_2
_geom_bond_distance
_geom_bond_site_symmetry_2
Pr0 S14 2.925713 1_655
Pr0 S11 2.929081 1_555
Pr0 S9 2.963857 1_655
Pr0 S10 3.008789 1_565
Pr0 S3 3.020294 1_555
Pr0 S2 3.023857 1_655
Pr0 S5 3.078716 1_554
Pr0 S12 3.097149 1_555
Pr1 S9 2.912215 1_555
Pr1 S3 2.912215 1_555
Pr1 S12 2.914308 1_555
Pr1 S10 2.914308 1_555
Pr1 S0 3.340486 1_555
Pr1 S6 3.340488 1_554
Pr1 S14 3.363952 1_555
Pr1 S15 3.363958 1_555
Pr2 S0 2.925713 1_565
Pr2 S5 2.929081 1_555
Pr2 S7 2.963857 1_565
Pr2 S1 3.008789 1_655
Pr2 S13 3.020294 1_555
Pr2 S8 3.023857 1_565
Pr2 S11 3.078716 1_555
Pr2 S4 3.097149 1_555
Pr3 S15 2.925706 1_545
Pr3 S2 2.929081 1_555
Pr3 S3 2.963857 1_545
Pr3 S12 3.008789 1_455
Pr3 S9 3.020294 1_555
Pr3 S11 3.023857 1_545
Pr3 S8 3.078716 1_555
Pr3 S10 3.097149 1_555
Pr4 S7 2.912215 1_555
Pr4 S13 2.912215 1_555
Pr4 S4 2.914308 1_555
Pr4 S1 2.914308 1_555
Pr4 S14 3.340486 1_556
Pr4 S15 3.340488 1_555
Pr4 S0 3.363952 1_555
Pr4 S6 3.363958 1_555
Pr5 S6 2.925706 1_455
Pr5 S8 2.929081 1_555
Pr5 S13 2.963857 1_455
Pr5 S4 3.008789 1_545
Pr5 S7 3.020294 1_555
Pr5 S5 3.023857 1_455
Pr5 S2 3.078716 1_556
Pr5 S1 3.097149 1_555
S0 Si1 2.120944 1_555
S1 Si1 2.123367 1_555
S2 Si2 2.138553 1_555
S3 Si0 2.126960 1_554
S4 Si0 2.123367 1_555
S5 Si0 2.138553 1_555
S6 Si0 2.120941 1_555
S7 Si2 2.126960 1_556
S8 Si1 2.138553 1_555
S9 Si1 2.126960 1_555
S10 Si2 2.123367 1_555
S11 Si3 2.138553 1_555
S12 Si3 2.123367 1_555
S13 Si3 2.126960 1_555
S14 Si2 2.120944 1_555
S15 Si3 2.120941 1_555
Cl0 Pr1 2.873181 1_555
Cl0 Pr3 3.416504 1_655
Cl0 Pr0 3.416504 1_545
Cl1 Pr4 2.873181 1_555
Cl1 Pr2 3.416504 1_455
Cl1 Pr5 3.416504 1_565
