# generated using pymatgen
data_KGdCO3F2
_symmetry_space_group_name_H-M   'P 1'
_cell_length_a   12.40850418
_cell_length_b   11.59199053
_cell_length_c   6.67499573
_cell_angle_alpha   80.71869641
_cell_angle_beta   67.21537629
_cell_angle_gamma   32.06592730
_symmetry_Int_Tables_number   1
_chemical_formula_structural   KGdCO3F2
_chemical_formula_sum   'K4 Gd4 C4 O12 F8'
_cell_volume   441.78495047
_cell_formula_units_Z   4
loop_
 _symmetry_equiv_pos_site_id
 _symmetry_equiv_pos_as_xyz
  1  'x, y, z'
loop_
 _atom_site_type_symbol
 _atom_site_label
 _atom_site_symmetry_multiplicity
 _atom_site_fract_x
 _atom_site_fract_y
 _atom_site_fract_z
 _atom_site_occupancy
  K  K0  1  0.83233100  0.83233100  0.66766900  1
  K  K1  1  0.66766900  0.66766900  0.83233100  1
  K  K2  1  0.58233100  0.58233100  0.41766900  1
  K  K3  1  0.41766900  0.41766900  0.58233100  1
  Gd  Gd0  1  0.06731600  0.43268400  0.06731600  1
  Gd  Gd1  1  0.81731600  0.18268400  0.81731600  1
  Gd  Gd2  1  0.43268400  0.06731600  0.43268400  1
  Gd  Gd3  1  0.18268400  0.81731600  0.18268400  1
  C  C0  1  0.12218600  0.12218600  0.87781400  1
  C  C1  1  0.87781400  0.87781400  0.12218600  1
  C  C2  1  0.12781400  0.12781400  0.37218600  1
  C  C3  1  0.37218600  0.37218600  0.12781400  1
  O  O0  1  0.18734500  0.18734500  0.31265500  1
  O  O1  1  0.06265500  0.06265500  0.93734500  1
  O  O2  1  0.93993900  0.25853200  0.56157700  1
  O  O3  1  0.56157700  0.23995200  0.93993900  1
  O  O4  1  0.01004800  0.68842300  0.99146800  1
  O  O5  1  0.31265500  0.31265500  0.18734500  1
  O  O6  1  0.25853200  0.93993900  0.23995200  1
  O  O7  1  0.23995200  0.56157700  0.25853200  1
  O  O8  1  0.31006100  0.99146800  0.68842300  1
  O  O9  1  0.68842300  0.01004800  0.31006100  1
  O  O10  1  0.93734500  0.93734500  0.06265500  1
  O  O11  1  0.99146800  0.31006100  0.01004800  1
  F  F0  1  0.77428100  0.69328900  0.43439000  1
  F  F1  1  0.69328900  0.77428100  0.09804100  1
  F  F2  1  0.43439000  0.09804100  0.77428100  1
  F  F3  1  0.47571900  0.55671100  0.81561000  1
  F  F4  1  0.09804100  0.43439000  0.69328900  1
  F  F5  1  0.15195900  0.81561000  0.55671100  1
  F  F6  1  0.55671100  0.47571900  0.15195900  1
  F  F7  1  0.81561000  0.15195900  0.47571900  1
loop_
_geom_bond_atom_site_label_1
_geom_bond_atom_site_label_2
_geom_bond_distance
_geom_bond_site_symmetry_2
K0 O7 2.837624 1_655
K0 O3 2.837624 1_565
K0 O9 2.934436 1_565
K0 O4 2.934436 1_655
K1 O2 2.837624 1_555
K1 O6 2.837624 1_556
K1 O8 2.934436 1_555
K1 O11 2.934436 1_556
K2 O11 2.837624 1_555
K2 O8 2.837624 1_555
K2 O6 2.934436 1_555
K2 O2 2.934436 1_555
K3 O9 2.837624 1_555
K3 O4 2.837624 1_555
K3 O7 2.934436 1_555
K3 O3 2.934436 1_555
Gd0 O11 2.402864 1_455
Gd0 O4 2.402864 1_554
Gd0 O5 2.489183 1_555
Gd0 O0 2.489183 1_555
Gd1 O3 2.402864 1_555
Gd1 O2 2.402864 1_555
Gd1 O10 2.489183 1_546
Gd1 O1 2.489183 1_655
Gd2 O8 2.402864 1_545
Gd2 O9 2.402864 1_555
Gd2 O5 2.489183 1_555
Gd2 O0 2.489183 1_555
Gd3 O7 2.402864 1_555
Gd3 O6 2.402864 1_555
Gd3 O10 2.489183 1_455
Gd3 O1 2.489183 1_564
C0 O8 1.295013 1_545
C0 O11 1.295013 1_456
C0 O1 1.314516 1_555
C1 O4 1.295013 1_654
C1 O9 1.295013 1_565
C1 O10 1.314516 1_555
C2 O6 1.295013 1_545
C2 O2 1.295013 1_455
C2 O0 1.314516 1_555
C3 O3 1.295013 1_554
C3 O7 1.295013 1_555
C3 O5 1.314516 1_555
F0 Gd0 2.284882 1_655
F0 Gd2 2.374558 1_565
F0 K1 2.565870 1_555
F0 K0 3.031065 1_555
F1 Gd2 2.284877 1_565
F1 Gd0 2.374556 1_655
F1 K1 2.565875 1_554
F1 K0 3.031070 1_554
F2 Gd0 2.284880 1_556
F2 Gd2 2.374562 1_555
F2 K0 2.565865 1_545
F2 K1 3.031074 1_545
F3 Gd3 2.284882 1_556
F3 Gd1 2.374558 1_555
F3 K2 2.565870 1_555
F3 K3 3.031065 1_555
F4 Gd2 2.284882 1_555
F4 Gd0 2.374556 1_556
F4 K0 2.565867 1_455
F4 K1 3.031076 1_455
F5 Gd1 2.284882 1_465
F5 Gd3 2.374556 1_555
F5 K3 2.565867 1_555
F5 K2 3.031076 1_555
F6 Gd1 2.284877 1_554
F6 Gd3 2.374556 1_555
F6 K2 2.565875 1_555
F6 K3 3.031070 1_555
F7 Gd3 2.284880 1_645
F7 Gd1 2.374562 1_555
F7 K3 2.565865 1_555
F7 K2 3.031074 1_555
