# generated using pymatgen
data_CsKTeH6SO10
_symmetry_space_group_name_H-M   'P 1'
_cell_length_a   6.70884300
_cell_length_b   12.71474600
_cell_length_c   15.33362569
_cell_angle_alpha   53.95716394
_cell_angle_beta   90.00000000
_cell_angle_gamma   90.00000000
_symmetry_Int_Tables_number   1
_chemical_formula_structural   CsKTeH6SO10
_chemical_formula_sum   'Cs4 K4 Te4 H24 S4 O40'
_cell_volume   1057.60070492
_cell_formula_units_Z   4
loop_
 _symmetry_equiv_pos_site_id
 _symmetry_equiv_pos_as_xyz
  1  'x, y, z'
loop_
 _atom_site_type_symbol
 _atom_site_label
 _atom_site_symmetry_multiplicity
 _atom_site_fract_x
 _atom_site_fract_y
 _atom_site_fract_z
 _atom_site_occupancy
  Cs  Cs0  1  0.97936700  0.00358300  0.72708700  1
  Cs  Cs1  1  0.47669900  0.99877400  0.50166300  1
  Cs  Cs2  1  0.52330100  0.99877400  0.00166300  1
  Cs  Cs3  1  0.02063300  0.00358300  0.22708700  1
  K  K0  1  0.95930400  0.46729100  0.52151100  1
  K  K1  1  0.04069600  0.46729100  0.02151100  1
  K  K2  1  0.46279700  0.53908200  0.71134800  1
  K  K3  1  0.53720300  0.53908200  0.21134800  1
  Te  Te0  1  0.49333500  0.71264300  0.88117800  1
  Te  Te1  1  0.00445100  0.29068300  0.84975500  1
  Te  Te2  1  0.99554900  0.29068300  0.34975500  1
  Te  Te3  1  0.50666500  0.71264300  0.38117800  1
  H  H0  1  0.49108400  0.95156200  0.79414700  1
  H  H1  1  0.45333500  0.47601000  0.45415700  1
  H  H2  1  0.01570700  0.05333900  0.93288900  1
  H  H3  1  0.25551800  0.25126200  0.98730300  1
  H  H4  1  0.81254400  0.70663600  0.97289900  1
  H  H5  1  0.74448200  0.25126200  0.48730300  1
  H  H6  1  0.72843600  0.31327900  0.22771400  1
  H  H7  1  0.22547800  0.25665300  0.49513400  1
  H  H8  1  0.18745600  0.70663600  0.47289900  1
  H  H9  1  0.31196600  0.29750900  0.25591900  1
  H  H10  1  0.50891600  0.95156200  0.29414700  1
  H  H11  1  0.05147100  0.52557400  0.27946000  1
  H  H12  1  0.94852900  0.52557400  0.77946000  1
  H  H13  1  0.71575000  0.74584500  0.73341100  1
  H  H14  1  0.28425000  0.74584500  0.23341100  1
  H  H15  1  0.77452200  0.25665300  0.99513400  1
  H  H16  1  0.76832000  0.69228400  0.50452400  1
  H  H17  1  0.68803400  0.29750900  0.75591900  1
  H  H18  1  0.23168000  0.69228400  0.00452400  1
  H  H19  1  0.54666500  0.47601000  0.95415700  1
  H  H20  1  0.76534500  0.74894300  0.24851800  1
  H  H21  1  0.27156400  0.31327900  0.72771400  1
  H  H22  1  0.98429300  0.05333900  0.43288900  1
  H  H23  1  0.23465500  0.74894300  0.74851800  1
  S  S0  1  0.00242800  0.77649700  0.09494200  1
  S  S1  1  0.99757200  0.77649700  0.59494200  1
  S  S2  1  0.50195700  0.22621600  0.63667200  1
  S  S3  1  0.49804300  0.22621600  0.13667200  1
  O  O0  1  0.98586400  0.76818000  0.50132800  1
  O  O1  1  0.94741100  0.91051900  0.55876800  1
  O  O2  1  0.05258900  0.91051900  0.05876800  1
  O  O3  1  0.65542800  0.63355000  0.51581100  1
  O  O4  1  0.01413600  0.76818000  0.00132800  1
  O  O5  1  0.76740600  0.36216800  0.75872000  1
  O  O6  1  0.00676400  0.13197800  0.35698900  1
  O  O7  1  0.63416600  0.80411200  0.74344000  1
  O  O8  1  0.34457200  0.63355000  0.01581100  1
  O  O9  1  0.54771100  0.09292800  0.17085500  1
  O  O10  1  0.23259400  0.36216800  0.25872000  1
  O  O11  1  0.16232700  0.37360200  0.71733500  1
  O  O12  1  0.70938800  0.26111600  0.59321200  1
  O  O13  1  0.48623700  0.23303700  0.73097500  1
  O  O14  1  0.98821500  0.44763700  0.34511400  1
  O  O15  1  0.45228900  0.09292800  0.67085500  1
  O  O16  1  0.23766700  0.76404100  0.80580300  1
  O  O17  1  0.51050300  0.87324800  0.87069500  1
  O  O18  1  0.64293000  0.32136900  0.05082800  1
  O  O19  1  0.85038200  0.68204400  0.67977000  1
  O  O20  1  0.14836200  0.19788400  0.48405500  1
  O  O21  1  0.74654700  0.23431800  0.43106900  1
  O  O22  1  0.85163800  0.19788400  0.98405500  1
  O  O23  1  0.01178500  0.44763700  0.84511400  1
  O  O24  1  0.20314500  0.74110200  0.64085000  1
  O  O25  1  0.76233300  0.76404100  0.30580300  1
  O  O26  1  0.25345300  0.23431800  0.93106900  1
  O  O27  1  0.83767300  0.37360200  0.21733500  1
  O  O28  1  0.48010700  0.55347000  0.88939500  1
  O  O29  1  0.26340500  0.64339900  0.46689100  1
  O  O30  1  0.29061200  0.26111600  0.09321200  1
  O  O31  1  0.36583400  0.80411200  0.24344000  1
  O  O32  1  0.51376300  0.23303700  0.23097500  1
  O  O33  1  0.99323600  0.13197800  0.85698900  1
  O  O34  1  0.35707000  0.32136900  0.55082800  1
  O  O35  1  0.51989300  0.55347000  0.38939500  1
  O  O36  1  0.14961800  0.68204400  0.17977000  1
  O  O37  1  0.73659500  0.64339900  0.96689100  1
  O  O38  1  0.79685500  0.74110200  0.14085000  1
  O  O39  1  0.48949700  0.87324800  0.37069500  1
loop_
_geom_bond_atom_site_label_1
_geom_bond_atom_site_label_2
_geom_bond_distance
_geom_bond_site_symmetry_2
Cs0 O16 3.067589 1_645
Cs0 O12 3.210393 1_555
Cs0 O20 3.231416 1_655
Cs0 O33 3.235409 1_555
Cs0 O15 3.308730 1_655
Cs0 O7 3.333213 1_545
Cs0 H0 3.380152 1_545
Cs0 O1 3.420709 1_545
Cs0 O4 3.447415 1_646
Cs1 O21 3.098957 1_565
Cs1 O7 3.191900 1_555
Cs1 O39 3.218601 1_555
Cs1 O24 3.229303 1_555
Cs1 O20 3.244975 1_565
Cs1 O1 3.292747 1_555
Cs1 O32 3.407785 1_565
Cs1 O15 3.441704 1_565
Cs2 O26 3.098957 1_564
Cs2 O31 3.191900 1_555
Cs2 O17 3.218601 1_554
Cs2 O38 3.229303 1_555
Cs2 O22 3.244975 1_564
Cs2 O2 3.292747 1_555
Cs2 O13 3.407785 1_564
Cs2 O9 3.441704 1_565
Cs3 O25 3.067589 1_445
Cs3 O30 3.210393 1_555
Cs3 O22 3.231416 1_454
Cs3 O6 3.235409 1_555
Cs3 O9 3.308730 1_455
Cs3 O31 3.333213 1_545
Cs3 H10 3.380152 1_545
Cs3 O2 3.420709 1_545
Cs3 O0 3.447415 1_445
K0 O12 2.738675 1_555
K0 O29 2.769606 1_655
K0 O11 2.842735 1_655
K0 O14 2.865563 1_555
K0 O3 2.900876 1_555
K0 O34 3.127956 1_655
K1 O30 2.738675 1_555
K1 O37 2.769606 1_454
K1 O27 2.842735 1_455
K1 O23 2.865563 1_554
K1 O8 2.900876 1_555
K1 O18 3.127956 1_455
K2 O24 2.744691 1_555
K2 O5 2.800163 1_555
K2 O3 2.804388 1_555
K2 O28 2.843971 1_555
K2 O11 2.876033 1_555
K2 O19 3.043702 1_555
K3 O38 2.744691 1_555
K3 O10 2.800163 1_555
K3 O8 2.804388 1_555
K3 O35 2.843971 1_555
K3 O27 2.876033 1_555
K3 O36 3.043702 1_555
H0 O17 1.005390 1_555
H1 O35 1.002289 1_555
H2 O33 1.003777 1_455
H3 O26 1.004352 1_555
H4 O37 1.000879 1_555
H5 O21 1.004352 1_555
H6 O27 1.003512 1_555
H7 O20 1.002127 1_555
H8 O29 1.000879 1_555
H9 O10 1.001415 1_555
H10 O39 1.005390 1_555
H11 O14 1.000794 1_455
H12 O23 1.000794 1_655
H13 O7 1.003071 1_555
H14 O31 1.003071 1_555
H15 O22 1.002127 1_555
H16 O3 1.004573 1_555
H17 O5 1.001415 1_555
H18 O8 1.004573 1_555
H19 O28 1.002289 1_555
H20 O25 1.003620 1_555
H21 O11 1.003512 1_555
H22 O6 1.003777 1_655
H23 O16 1.003620 1_555
O0 S1 1.502157 1_555
O1 S1 1.487422 1_555
O2 S0 1.487422 1_555
O3 Te3 1.956043 1_555
O4 S0 1.502157 1_555
O5 Te1 1.952091 1_655
O6 Te2 1.956134 1_455
O7 Te0 1.953299 1_555
O8 Te0 1.956043 1_554
O9 S3 1.487458 1_555
O10 Te2 1.952091 1_455
O11 Te1 1.958840 1_555
O12 S2 1.493192 1_555
O13 S2 1.502384 1_555
O14 Te2 1.955225 1_555
O15 S2 1.487458 1_555
O16 Te0 1.953481 1_555
O17 Te0 1.955200 1_555
O18 S3 1.505708 1_555
O19 S1 1.506987 1_555
O20 Te2 1.955665 1_455
O21 Te2 1.951232 1_555
O22 Te1 1.955665 1_655
O23 Te1 1.955225 1_555
O24 S1 1.492425 1_455
O25 Te3 1.953481 1_555
O26 Te1 1.951232 1_555
O27 Te2 1.958840 1_555
O28 Te0 1.954385 1_555
O29 Te3 1.950440 1_555
O30 S3 1.493192 1_555
O31 Te3 1.953299 1_555
O32 S3 1.502384 1_555
O33 Te1 1.956134 1_655
O34 S2 1.505708 1_555
O35 Te3 1.954385 1_555
O36 S0 1.506987 1_555
O37 Te0 1.950440 1_555
O38 S0 1.492425 1_655
O39 Te3 1.955200 1_555
