# generated using pymatgen
data_Cu3As4H18C8I3(NO2)2
_symmetry_space_group_name_H-M   'P 1'
_cell_length_a   11.31775772
_cell_length_b   11.31775772
_cell_length_c   11.25749371
_cell_angle_alpha   81.66748147
_cell_angle_beta   81.66748147
_cell_angle_gamma   112.45988730
_symmetry_Int_Tables_number   1
_chemical_formula_structural   Cu3As4H18C8I3(NO2)2
_chemical_formula_sum   'Cu6 As8 H36 C16 I6 N4 O8'
_cell_volume   1286.52683724
_cell_formula_units_Z   2
loop_
 _symmetry_equiv_pos_site_id
 _symmetry_equiv_pos_as_xyz
  1  'x, y, z'
loop_
 _atom_site_type_symbol
 _atom_site_label
 _atom_site_symmetry_multiplicity
 _atom_site_fract_x
 _atom_site_fract_y
 _atom_site_fract_z
 _atom_site_occupancy
  Cu  Cu0  1  0.87385000  0.12615000  0.75000000  1
  Cu  Cu1  1  0.12615000  0.87385000  0.25000000  1
  Cu  Cu2  1  0.14637100  0.45656300  0.74570000  1
  Cu  Cu3  1  0.54343700  0.85362900  0.75430000  1
  Cu  Cu4  1  0.85362900  0.54343700  0.25430000  1
  Cu  Cu5  1  0.45656300  0.14637100  0.24570000  1
  As  As0  1  0.88147600  0.25980900  0.56219700  1
  As  As1  1  0.74019100  0.11852400  0.93780300  1
  As  As2  1  0.11852400  0.74019100  0.43780300  1
  As  As3  1  0.25980900  0.88147600  0.06219700  1
  As  As4  1  0.17096500  0.48237800  0.52954100  1
  As  As5  1  0.51762200  0.82903500  0.97045900  1
  As  As6  1  0.82903500  0.51762200  0.47045900  1
  As  As7  1  0.48237800  0.17096500  0.02954100  1
  H  H0  1  0.86803200  0.12072100  0.40392000  1
  H  H1  1  0.87927900  0.13196800  0.09608000  1
  H  H2  1  0.13196800  0.87927900  0.59608000  1
  H  H3  1  0.12072100  0.86803200  0.90392000  1
  H  H4  1  0.71333500  0.12877800  0.45324200  1
  H  H5  1  0.87122200  0.28666500  0.04675800  1
  H  H6  1  0.28666500  0.87122200  0.54675800  1
  H  H7  1  0.12877800  0.71333500  0.95324200  1
  H  H8  1  0.84396800  0.26558100  0.34578500  1
  H  H9  1  0.73441900  0.15603200  0.15421500  1
  H  H10  1  0.15603200  0.73441900  0.65421500  1
  H  H11  1  0.26558100  0.84396800  0.84578500  1
  H  H12  1  0.40253700  0.50104400  0.46596400  1
  H  H13  1  0.49895600  0.59746300  0.03403600  1
  H  H14  1  0.59746300  0.49895600  0.53403600  1
  H  H15  1  0.50104400  0.40253700  0.96596400  1
  H  H16  1  0.28476900  0.34549900  0.45387900  1
  H  H17  1  0.65450100  0.71523100  0.04612100  1
  H  H18  1  0.71523100  0.65450100  0.54612100  1
  H  H19  1  0.34549900  0.28476900  0.95387900  1
  H  H20  1  0.32309300  0.48921500  0.33776400  1
  H  H21  1  0.51078500  0.67690700  0.16223600  1
  H  H22  1  0.67690700  0.51078500  0.66223600  1
  H  H23  1  0.48921500  0.32309300  0.83776400  1
  H  H24  1  0.84311000  0.66520300  0.82944600  1
  H  H25  1  0.33479700  0.15689000  0.67055400  1
  H  H26  1  0.15689000  0.33479700  0.17055400  1
  H  H27  1  0.66520300  0.84311000  0.32944600  1
  H  H28  1  0.73065300  0.49669700  0.88317600  1
  H  H29  1  0.50330300  0.26934700  0.61682400  1
  H  H30  1  0.26934700  0.50330300  0.11682400  1
  H  H31  1  0.49669700  0.73065300  0.38317600  1
  H  H32  1  0.81634300  0.58345900  0.98655000  1
  H  H33  1  0.41654100  0.18365700  0.51345000  1
  H  H34  1  0.18365700  0.41654100  0.01345000  1
  H  H35  1  0.58345900  0.81634300  0.48655000  1
  C  C0  1  0.81963100  0.18507900  0.42488800  1
  C  C1  1  0.81492100  0.18036900  0.07511200  1
  C  C2  1  0.18036900  0.81492100  0.57511200  1
  C  C3  1  0.18507900  0.81963100  0.92488800  1
  C  C4  1  0.31180900  0.45134900  0.43583000  1
  C  C5  1  0.54865100  0.68819100  0.06417000  1
  C  C6  1  0.68819100  0.54865100  0.56417000  1
  C  C7  1  0.45134900  0.31180900  0.93583000  1
  C  C8  1  0.92768400  0.53059000  0.85640900  1
  C  C9  1  0.46941000  0.07231600  0.64359100  1
  C  C10  1  0.07231600  0.46941000  0.14359100  1
  C  C11  1  0.53059000  0.92768400  0.35640900  1
  C  C12  1  0.82407300  0.57164400  0.89071300  1
  C  C13  1  0.42835600  0.17592700  0.60928700  1
  C  C14  1  0.17592700  0.42835600  0.10928700  1
  C  C15  1  0.57164400  0.82407300  0.39071300  1
  I  I0  1  0.39473300  0.60526700  0.75000000  1
  I  I1  1  0.60526700  0.39473300  0.25000000  1
  I  I2  1  0.10624000  0.20785100  0.80291500  1
  I  I3  1  0.79214900  0.89376000  0.69708500  1
  I  I4  1  0.89376000  0.79214900  0.19708500  1
  I  I5  1  0.20785100  0.10624000  0.30291500  1
  N  N0  1  0.01205800  0.49836100  0.82809000  1
  N  N1  1  0.50163900  0.98794200  0.67191000  1
  N  N2  1  0.98794200  0.50163900  0.17191000  1
  N  N3  1  0.49836100  0.01205800  0.32809000  1
  O  O0  1  0.79372500  0.36442000  0.57869600  1
  O  O1  1  0.63558000  0.20627500  0.92130400  1
  O  O2  1  0.20627500  0.63558000  0.42130400  1
  O  O3  1  0.36442000  0.79372500  0.07869600  1
  O  O4  1  0.04002700  0.37393900  0.46591400  1
  O  O5  1  0.62606100  0.95997300  0.03408600  1
  O  O6  1  0.95997300  0.62606100  0.53408600  1
  O  O7  1  0.37393900  0.04002700  0.96591400  1
loop_
_geom_bond_atom_site_label_1
_geom_bond_atom_site_label_2
_geom_bond_distance
_geom_bond_site_symmetry_2
Cu0 I2 2.623543 1_655
Cu0 I3 2.623543 1_545
Cu1 I5 2.623543 1_565
Cu1 I4 2.623543 1_455
Cu2 N0 1.913844 1_555
Cu2 I2 2.637701 1_555
Cu2 I0 2.680374 1_555
Cu3 N1 1.913844 1_555
Cu3 I3 2.637701 1_555
Cu3 I0 2.680374 1_555
Cu4 N2 1.913844 1_555
Cu4 I4 2.637701 1_555
Cu4 I1 2.680374 1_555
Cu5 N3 1.913844 1_555
Cu5 I5 2.637701 1_555
Cu5 I1 2.680374 1_555
As0 O4 1.822856 1_655
As0 O0 1.825186 1_555
As0 C0 1.958264 1_555
As0 Cu0 2.384530 1_555
As1 O5 1.822856 1_546
As1 O1 1.825186 1_555
As1 C1 1.958264 1_556
As1 Cu0 2.384530 1_555
As2 O6 1.822856 1_455
As2 O2 1.825186 1_555
As2 C2 1.958264 1_555
As2 Cu1 2.384530 1_555
As3 O7 1.822856 1_564
As3 O3 1.825186 1_555
As3 C3 1.958264 1_554
As3 Cu1 2.384530 1_555
As4 O2 1.835183 1_555
As4 O4 1.840700 1_555
As4 C4 1.955737 1_555
As4 Cu2 2.370612 1_555
As5 O3 1.835183 1_556
As5 O5 1.840700 1_556
As5 C5 1.955737 1_556
As5 Cu3 2.370612 1_555
As6 O0 1.835183 1_555
As6 O6 1.840700 1_555
As6 C6 1.955737 1_555
As6 Cu4 2.370612 1_555
As7 O1 1.835183 1_554
As7 O7 1.840700 1_554
As7 C7 1.955737 1_554
As7 Cu5 2.370612 1_555
C0 H4 1.095094 1_555
C0 H8 1.095890 1_555
C0 H0 1.097072 1_555
C1 H5 1.095094 1_555
C1 H9 1.095890 1_555
C1 H1 1.097072 1_555
C2 H6 1.095094 1_555
C2 H10 1.095890 1_555
C2 H2 1.097072 1_555
C3 H7 1.095094 1_555
C3 H11 1.095890 1_555
C3 H3 1.097072 1_555
C4 H20 1.094956 1_555
C4 H12 1.095807 1_555
C4 H16 1.096088 1_555
C5 H21 1.094956 1_555
C5 H13 1.095807 1_555
C5 H17 1.096088 1_555
C6 H22 1.094956 1_555
C6 H14 1.095807 1_555
C6 H18 1.096088 1_555
C7 H23 1.094956 1_555
C7 H15 1.095807 1_555
C7 H19 1.096088 1_555
C8 N0 1.165407 1_655
C9 N1 1.165407 1_545
C10 N2 1.165407 1_455
C10 C14 1.441243 1_555
C11 N3 1.165407 1_565
C11 C15 1.441243 1_555
C12 H28 1.098271 1_555
C12 H32 1.101327 1_555
C12 H24 1.101947 1_555
C12 C8 1.441243 1_555
C13 H29 1.098271 1_555
C13 H33 1.101327 1_555
C13 H25 1.101947 1_555
C13 C9 1.441243 1_555
C14 H30 1.098271 1_555
C14 H34 1.101327 1_555
C14 H26 1.101947 1_555
C15 H31 1.098271 1_555
C15 H35 1.101327 1_555
C15 H27 1.101947 1_555
