# generated using pymatgen
data_Ba4CeMn3O12
_symmetry_space_group_name_H-M   'P 1'
_cell_length_a   10.32576580
_cell_length_b   10.32576580
_cell_length_c   10.32576641
_cell_angle_alpha   33.13734107
_cell_angle_beta   33.13734107
_cell_angle_gamma   33.13734224
_symmetry_Int_Tables_number   1
_chemical_formula_structural   Ba4CeMn3O12
_chemical_formula_sum   'Ba4 Ce1 Mn3 O12'
_cell_volume   292.83755863
_cell_formula_units_Z   1
loop_
 _symmetry_equiv_pos_site_id
 _symmetry_equiv_pos_as_xyz
  1  'x, y, z'
loop_
 _atom_site_type_symbol
 _atom_site_label
 _atom_site_symmetry_multiplicity
 _atom_site_fract_x
 _atom_site_fract_y
 _atom_site_fract_z
 _atom_site_occupancy
  Ba  Ba0  1  0.28148700  0.28148700  0.28148700  1
  Ba  Ba1  1  0.13083400  0.13083400  0.13083400  1
  Ba  Ba2  1  0.71851300  0.71851300  0.71851300  1
  Ba  Ba3  1  0.86916600  0.86916600  0.86916600  1
  Ce  Ce0  1  0.00000000  0.00000000  0.00000000  1
  Mn  Mn0  1  0.41254000  0.41254000  0.41254000  1
  Mn  Mn1  1  0.58746000  0.58746000  0.58746000  1
  Mn  Mn2  1  0.50000000  0.50000000  0.50000000  1
  O  O0  1  0.77948300  0.77948300  0.30769800  1
  O  O1  1  0.22051700  0.22051700  0.69230200  1
  O  O2  1  0.77948300  0.30769800  0.77948300  1
  O  O3  1  0.83514700  0.39563300  0.39563300  1
  O  O4  1  0.22051700  0.69230200  0.22051700  1
  O  O5  1  0.39563300  0.83514700  0.39563300  1
  O  O6  1  0.39563300  0.39563300  0.83514700  1
  O  O7  1  0.60436700  0.16485300  0.60436700  1
  O  O8  1  0.60436700  0.60436700  0.16485300  1
  O  O9  1  0.30769800  0.77948300  0.77948300  1
  O  O10  1  0.16485300  0.60436700  0.60436700  1
  O  O11  1  0.69230200  0.22051700  0.22051700  1
loop_
_geom_bond_atom_site_label_1
_geom_bond_atom_site_label_2
_geom_bond_distance
_geom_bond_site_symmetry_2
Ba0 O3 2.855050 1_455
Ba0 O5 2.855050 1_545
Ba0 O6 2.855051 1_554
Ba0 O9 2.954045 1_554
Ba0 O2 2.954045 1_554
Ba0 O0 2.954045 1_455
Ba0 O0 2.954045 1_545
Ba0 O2 2.954045 1_455
Ba0 O9 2.954045 1_545
Ba0 O4 3.241274 1_555
Ba0 O11 3.241274 1_555
Ba0 O1 3.241274 1_555
Ba1 O10 2.957469 1_545
Ba1 O7 2.957469 1_455
Ba1 O8 2.957469 1_545
Ba1 O8 2.957469 1_455
Ba1 O10 2.957469 1_554
Ba1 O7 2.957469 1_554
Ba1 O6 2.972010 1_554
Ba1 O3 2.972011 1_455
Ba1 O5 2.972011 1_545
Ba1 O4 3.100073 1_545
Ba1 O11 3.100073 1_455
Ba1 O1 3.100073 1_554
Ba2 O10 2.855050 1_655
Ba2 O7 2.855050 1_565
Ba2 O8 2.855051 1_556
Ba2 O11 2.954045 1_556
Ba2 O4 2.954045 1_556
Ba2 O1 2.954045 1_655
Ba2 O1 2.954045 1_565
Ba2 O4 2.954045 1_655
Ba2 O11 2.954045 1_565
Ba2 O2 3.241274 1_555
Ba2 O9 3.241274 1_555
Ba2 O0 3.241274 1_555
Ba3 O5 2.957469 1_655
Ba3 O3 2.957469 1_565
Ba3 O6 2.957469 1_565
Ba3 O6 2.957469 1_655
Ba3 O3 2.957469 1_556
Ba3 O5 2.957469 1_556
Ba3 O8 2.972010 1_556
Ba3 O7 2.972011 1_565
Ba3 O10 2.972011 1_655
Ba3 O9 3.100073 1_655
Ba3 O2 3.100073 1_565
Ba3 O0 3.100073 1_556
Ce0 O0 2.217099 1_445
Ce0 O1 2.217099 1_554
Ce0 O9 2.217099 1_544
Ce0 O2 2.217099 1_454
Ce0 O4 2.217099 1_545
Ce0 O11 2.217099 1_455
Mn0 O1 1.899193 1_555
Mn0 O4 1.899193 1_555
Mn0 O11 1.899193 1_555
Mn0 O8 1.997636 1_555
Mn0 O7 1.997637 1_555
Mn0 O10 1.997637 1_555
Mn1 O0 1.899193 1_555
Mn1 O2 1.899193 1_555
Mn1 O9 1.899193 1_555
Mn1 O6 1.997636 1_555
Mn1 O5 1.997637 1_555
Mn1 O3 1.997637 1_555
Mn2 O10 1.937074 1_555
Mn2 O3 1.937074 1_555
Mn2 O7 1.937074 1_555
Mn2 O5 1.937074 1_555
Mn2 O6 1.937074 1_555
Mn2 O8 1.937074 1_555
