# generated using pymatgen
data_SiAg6SO8
_symmetry_space_group_name_H-M   'P 1'
_cell_length_a   10.42679990
_cell_length_b   10.42679990
_cell_length_c   10.42679990
_cell_angle_alpha   140.46493210
_cell_angle_beta   140.46493210
_cell_angle_gamma   57.14804141
_symmetry_Int_Tables_number   1
_chemical_formula_structural   SiAg6SO8
_chemical_formula_sum   'Si2 Ag12 S2 O16'
_cell_volume   455.47637211
_cell_formula_units_Z   2
loop_
 _symmetry_equiv_pos_site_id
 _symmetry_equiv_pos_as_xyz
  1  'x, y, z'
loop_
 _atom_site_type_symbol
 _atom_site_label
 _atom_site_symmetry_multiplicity
 _atom_site_fract_x
 _atom_site_fract_y
 _atom_site_fract_z
 _atom_site_occupancy
  Si  Si0  1  0.00000000  0.00000000  0.00000000  1
  Si  Si1  1  0.75000000  0.25000000  0.50000000  1
  Ag  Ag0  1  0.08045900  0.12500000  0.45545900  1
  Ag  Ag1  1  0.66954100  0.12500000  0.04454100  1
  Ag  Ag2  1  0.37500000  0.91954100  0.04454100  1
  Ag  Ag3  1  0.23611100  0.23611100  0.00000000  1
  Ag  Ag4  1  0.66954100  0.62500000  0.54454100  1
  Ag  Ag5  1  0.98611100  0.48611100  0.50000000  1
  Ag  Ag6  1  0.51388900  0.01388900  0.50000000  1
  Ag  Ag7  1  0.37500000  0.33045900  0.45545900  1
  Ag  Ag8  1  0.76388900  0.76388900  0.00000000  1
  Ag  Ag9  1  0.87500000  0.91954100  0.54454100  1
  Ag  Ag10  1  0.87500000  0.33045900  0.95545900  1
  Ag  Ag11  1  0.08045900  0.62500000  0.95545900  1
  S  S0  1  0.25000000  0.75000000  0.50000000  1
  S  S1  1  0.50000000  0.50000000  0.00000000  1
  O  O0  1  0.29728900  0.62378500  0.32649600  1
  O  O1  1  0.29728900  0.97079300  0.67350400  1
  O  O2  1  0.45271100  0.62621500  0.17350400  1
  O  O3  1  0.69874400  0.00403500  0.30529100  1
  O  O4  1  0.99596500  0.30125600  0.69470900  1
  O  O5  1  0.14345300  0.94874400  0.19470900  1
  O  O6  1  0.75403500  0.94874400  0.80529100  1
  O  O7  1  0.60654700  0.30125600  0.30529100  1
  O  O8  1  0.05125600  0.85654700  0.80529100  1
  O  O9  1  0.72079300  0.54728900  0.17350400  1
  O  O10  1  0.69874400  0.39345300  0.69470900  1
  O  O11  1  0.37621500  0.70271100  0.67350400  1
  O  O12  1  0.05125600  0.24596500  0.19470900  1
  O  O13  1  0.02920700  0.70271100  0.32649600  1
  O  O14  1  0.37378500  0.54728900  0.82649600  1
  O  O15  1  0.45271100  0.27920700  0.82649600  1
loop_
_geom_bond_atom_site_label_1
_geom_bond_atom_site_label_2
_geom_bond_distance
_geom_bond_site_symmetry_2
Ag0 O5 2.222277 1_545
Ag0 O4 2.222277 1_455
Ag0 O15 2.575229 1_555
Ag0 O1 2.575229 1_545
Ag1 O7 2.222277 1_555
Ag1 O6 2.222277 1_544
Ag1 O15 2.575229 1_554
Ag1 O1 2.575229 1_544
Ag2 O3 2.222277 1_565
Ag2 O8 2.222277 1_554
Ag2 O14 2.575229 1_554
Ag2 O11 2.575229 1_554
Ag3 O4 2.461587 1_454
Ag3 O7 2.461587 1_555
Ag3 O1 2.560807 1_544
Ag3 O0 2.560807 1_555
Ag4 O6 2.222277 1_555
Ag4 O7 2.222277 1_555
Ag4 O2 2.575229 1_555
Ag4 O0 2.575229 1_555
Ag5 O12 2.461587 1_655
Ag5 O8 2.461587 1_655
Ag5 O14 2.560807 1_655
Ag5 O9 2.560807 1_555
Ag6 O5 2.461587 1_545
Ag6 O6 2.461587 1_545
Ag6 O2 2.560807 1_545
Ag6 O15 2.560807 1_555
Ag7 O10 2.222277 1_555
Ag7 O12 2.222277 1_555
Ag7 O11 2.575229 1_555
Ag7 O14 2.575229 1_555
Ag8 O10 2.461587 1_554
Ag8 O3 2.461587 1_565
Ag8 O13 2.560807 1_655
Ag8 O11 2.560807 1_554
Ag9 O3 2.222277 1_565
Ag9 O8 2.222277 1_655
Ag9 O13 2.575229 1_655
Ag9 O9 2.575229 1_555
Ag10 O10 2.222277 1_555
Ag10 O12 2.222277 1_656
Ag10 O9 2.575229 1_556
Ag10 O13 2.575229 1_656
Ag11 O5 2.222277 1_556
Ag11 O4 2.222277 1_455
Ag11 O2 2.575229 1_556
Ag11 O0 2.575229 1_556
O0 S0 1.499141 1_555
O1 S0 1.499141 1_555
O2 S1 1.499141 1_555
O3 Si1 1.663405 1_555
O4 Si1 1.663405 1_555
O5 Si0 1.663405 1_565
O6 Si0 1.663405 1_666
O7 Si1 1.663405 1_555
O8 Si0 1.663405 1_566
O9 S1 1.499141 1_555
O10 Si1 1.663405 1_555
O11 S0 1.499141 1_555
O12 Si0 1.663405 1_555
O13 S0 1.499141 1_555
O14 S1 1.499141 1_556
O15 S1 1.499141 1_556
