# generated using pymatgen
data_Ca5Nb5O17
_symmetry_space_group_name_H-M   'P 1'
_cell_length_a   5.54759500
_cell_length_b   7.84663600
_cell_length_c   32.87761935
_cell_angle_alpha   83.07513789
_cell_angle_beta   90.00000000
_cell_angle_gamma   90.00000000
_symmetry_Int_Tables_number   1
_chemical_formula_structural   Ca5Nb5O17
_chemical_formula_sum   'Ca20 Nb20 O68'
_cell_volume   1420.72125705
_cell_formula_units_Z   4
loop_
 _symmetry_equiv_pos_site_id
 _symmetry_equiv_pos_as_xyz
  1  'x, y, z'
loop_
 _atom_site_type_symbol
 _atom_site_label
 _atom_site_symmetry_multiplicity
 _atom_site_fract_x
 _atom_site_fract_y
 _atom_site_fract_z
 _atom_site_occupancy
  Ca  Ca0  1  0.01672700  0.36377600  0.29015500  1
  Ca  Ca1  1  0.49305500  0.25518100  0.99245300  1
  Ca  Ca2  1  0.99305500  0.74481900  0.50754700  1
  Ca  Ca3  1  0.58871900  0.13699300  0.22275100  1
  Ca  Ca4  1  0.49715300  0.30018700  0.40305700  1
  Ca  Ca5  1  0.00084200  0.20882100  0.08247100  1
  Ca  Ca6  1  0.50284700  0.69981300  0.59694300  1
  Ca  Ca7  1  0.98327300  0.63622400  0.70984500  1
  Ca  Ca8  1  0.99915800  0.79117900  0.91752900  1
  Ca  Ca9  1  0.41128100  0.86300700  0.77724900  1
  Ca  Ca10  1  0.49915800  0.20882100  0.58247100  1
  Ca  Ca11  1  0.00694500  0.25518100  0.49245300  1
  Ca  Ca12  1  0.99715300  0.69981300  0.09694300  1
  Ca  Ca13  1  0.50084200  0.79117900  0.41752900  1
  Ca  Ca14  1  0.51672700  0.63622400  0.20984500  1
  Ca  Ca15  1  0.00284700  0.30018700  0.90305700  1
  Ca  Ca16  1  0.50694500  0.74481900  0.00754700  1
  Ca  Ca17  1  0.91128100  0.13699300  0.72275100  1
  Ca  Ca18  1  0.48327300  0.36377600  0.79015500  1
  Ca  Ca19  1  0.08871900  0.86300700  0.27724900  1
  Nb  Nb0  1  0.53143000  0.59543600  0.32204000  1
  Nb  Nb1  1  0.52678200  0.08554700  0.32299600  1
  Nb  Nb2  1  0.50643200  0.95085100  0.09096000  1
  Nb  Nb3  1  0.97321800  0.08554700  0.82299600  1
  Nb  Nb4  1  0.49416900  0.54253400  0.90824700  1
  Nb  Nb5  1  0.00000000  0.50000000  0.00000000  1
  Nb  Nb6  1  0.46857000  0.40456400  0.67796000  1
  Nb  Nb7  1  0.49356800  0.04914900  0.90904000  1
  Nb  Nb8  1  0.00583100  0.54253400  0.40824700  1
  Nb  Nb9  1  0.50583100  0.45746600  0.09175300  1
  Nb  Nb10  1  0.47321800  0.91445300  0.67700400  1
  Nb  Nb11  1  0.03143000  0.40456400  0.17796000  1
  Nb  Nb12  1  0.00000000  0.00000000  0.00000000  1
  Nb  Nb13  1  0.50000000  0.50000000  0.50000000  1
  Nb  Nb14  1  0.99356800  0.95085100  0.59096000  1
  Nb  Nb15  1  0.02678200  0.91445300  0.17700400  1
  Nb  Nb16  1  0.99416900  0.45746600  0.59175300  1
  Nb  Nb17  1  0.96857000  0.59543600  0.82204000  1
  Nb  Nb18  1  0.50000000  0.00000000  0.50000000  1
  Nb  Nb19  1  0.00643200  0.04914900  0.40904000  1
  O  O0  1  0.20387800  0.92302200  0.71104900  1
  O  O1  1  0.42512100  0.83547600  0.32995300  1
  O  O2  1  0.81519100  0.03241400  0.88194200  1
  O  O3  1  0.59366700  0.33622100  0.33040400  1
  O  O4  1  0.40633300  0.66377900  0.66959600  1
  O  O5  1  0.30178100  0.13775100  0.28022200  1
  O  O6  1  0.18202900  0.41496900  0.11723200  1
  O  O7  1  0.09170200  0.71037700  0.57866700  1
  O  O8  1  0.06806800  0.79454400  0.41039500  1
  O  O9  1  0.29472400  0.12663400  0.86470800  1
  O  O10  1  0.29654100  0.44141100  0.03367500  1
  O  O11  1  0.79694800  0.97469800  0.46623400  1
  O  O12  1  0.29454300  0.06814000  0.44864100  1
  O  O13  1  0.56806800  0.20545600  0.08960500  1
  O  O14  1  0.82397300  0.63777000  0.29703900  1
  O  O15  1  0.19821900  0.13775100  0.78022200  1
  O  O16  1  0.43193200  0.79454400  0.91039500  1
  O  O17  1  0.70615200  0.51641600  0.55159300  1
  O  O18  1  0.93193200  0.20545600  0.58960500  1
  O  O19  1  0.68480900  0.03241400  0.38194200  1
  O  O20  1  0.70242100  0.49041700  0.13648700  1
  O  O21  1  0.20615200  0.48358400  0.94840700  1
  O  O22  1  0.32397300  0.36223000  0.20296100  1
  O  O23  1  0.79454300  0.93186000  0.05135900  1
  O  O24  1  0.70545700  0.93186000  0.55135900  1
  O  O25  1  0.20242100  0.50958300  0.36351300  1
  O  O26  1  0.40829800  0.71037700  0.07866700  1
  O  O27  1  0.80178100  0.86224900  0.21977800  1
  O  O28  1  0.67602700  0.63777000  0.79703900  1
  O  O29  1  0.29757900  0.50958300  0.86351300  1
  O  O30  1  0.20527600  0.12663400  0.36470800  1
  O  O31  1  0.20305200  0.02530200  0.53376600  1
  O  O32  1  0.79757900  0.49041700  0.63648700  1
  O  O33  1  0.70387800  0.07697800  0.78895100  1
  O  O34  1  0.91400700  0.24752100  0.00489100  1
  O  O35  1  0.31797100  0.41496900  0.61723200  1
  O  O36  1  0.08599300  0.75247900  0.99510900  1
  O  O37  1  0.82420300  0.40858600  0.22457300  1
  O  O38  1  0.81797100  0.58503100  0.88276800  1
  O  O39  1  0.79654100  0.55858900  0.46632500  1
  O  O40  1  0.92512100  0.16452400  0.17004700  1
  O  O41  1  0.29384800  0.48358400  0.44840700  1
  O  O42  1  0.17579700  0.59141400  0.77542700  1
  O  O43  1  0.79612200  0.07697800  0.28895100  1
  O  O44  1  0.31519100  0.96758600  0.61805800  1
  O  O45  1  0.20345900  0.44141100  0.53367500  1
  O  O46  1  0.59170200  0.28962300  0.92133300  1
  O  O47  1  0.70305200  0.97469800  0.96623400  1
  O  O48  1  0.70527600  0.87336600  0.13529200  1
  O  O49  1  0.32420300  0.59141400  0.27542700  1
  O  O50  1  0.79384800  0.51641600  0.05159300  1
  O  O51  1  0.09366700  0.66377900  0.16959600  1
  O  O52  1  0.17602700  0.36223000  0.70296100  1
  O  O53  1  0.29612200  0.92302200  0.21104900  1
  O  O54  1  0.67579700  0.40858600  0.72457300  1
  O  O55  1  0.29694800  0.02530200  0.03376600  1
  O  O56  1  0.18480900  0.96758600  0.11805800  1
  O  O57  1  0.90829800  0.28962300  0.42133300  1
  O  O58  1  0.90633300  0.33622100  0.83040400  1
  O  O59  1  0.79472400  0.87336600  0.63529200  1
  O  O60  1  0.07487900  0.83547600  0.82995300  1
  O  O61  1  0.68202900  0.58503100  0.38276800  1
  O  O62  1  0.58599300  0.24752100  0.50489100  1
  O  O63  1  0.70345900  0.55858900  0.96632500  1
  O  O64  1  0.41400700  0.75247900  0.49510900  1
  O  O65  1  0.20545700  0.06814000  0.94864100  1
  O  O66  1  0.57487900  0.16452400  0.67004700  1
  O  O67  1  0.69821900  0.86224900  0.71977800  1
loop_
_geom_bond_atom_site_label_1
_geom_bond_atom_site_label_2
_geom_bond_distance
_geom_bond_site_symmetry_2
Ca0 O37 2.393877 1_455
Ca0 O5 2.427438 1_555
Ca0 O14 2.436024 1_455
Ca0 O49 2.475073 1_555
Ca0 O43 2.566145 1_455
Ca0 O3 2.690187 1_455
Ca0 O25 2.975316 1_555
Ca0 O30 3.076485 1_555
Ca1 O34 2.370317 1_556
Ca1 O10 2.374483 1_556
Ca1 O46 2.384866 1_555
Ca1 O55 2.385646 1_556
Ca1 O21 2.686349 1_555
Ca1 O63 2.697240 1_555
Ca1 O65 2.698915 1_555
Ca1 O47 2.720562 1_545
Ca2 O64 2.370317 1_655
Ca2 O39 2.374483 1_555
Ca2 O7 2.384866 1_655
Ca2 O11 2.385646 1_555
Ca2 O17 2.686349 1_555
Ca2 O45 2.697240 1_655
Ca2 O24 2.698915 1_555
Ca2 O31 2.720562 1_665
Ca3 O22 2.329524 1_555
Ca3 O53 2.399473 1_545
Ca3 O43 2.456748 1_555
Ca3 O27 2.470828 1_545
Ca3 O5 2.471208 1_555
Ca3 O37 2.506496 1_555
Ca3 O40 2.538055 1_555
Ca4 O57 2.357596 1_555
Ca4 O3 2.430935 1_555
Ca4 O41 2.466452 1_555
Ca4 O61 2.476462 1_555
Ca4 O12 2.483287 1_555
Ca4 O19 2.516368 1_555
Ca4 O30 2.545601 1_555
Ca4 O25 2.558949 1_555
Ca5 O6 2.319215 1_555
Ca5 O56 2.336552 1_545
Ca5 O13 2.412120 1_455
Ca5 O34 2.577459 1_455
Ca5 O50 2.753872 1_455
Ca5 O23 2.759525 1_445
Ca5 O10 2.808829 1_555
Ca5 O55 2.809308 1_555
Ca5 O40 2.888989 1_455
Ca6 O7 2.357596 1_555
Ca6 O4 2.430935 1_555
Ca6 O17 2.466452 1_555
Ca6 O35 2.476462 1_555
Ca6 O24 2.483287 1_555
Ca6 O44 2.516368 1_555
Ca6 O59 2.545601 1_555
Ca6 O32 2.558949 1_555
Ca7 O42 2.393877 1_655
Ca7 O67 2.427438 1_555
Ca7 O52 2.436024 1_655
Ca7 O54 2.475073 1_555
Ca7 O0 2.566145 1_655
Ca7 O4 2.690187 1_655
Ca7 O32 2.975316 1_555
Ca7 O59 3.076485 1_555
Ca8 O38 2.319215 1_555
Ca8 O2 2.336552 1_565
Ca8 O16 2.412120 1_655
Ca8 O36 2.577459 1_655
Ca8 O21 2.753872 1_655
Ca8 O65 2.759525 1_665
Ca8 O63 2.808829 1_555
Ca8 O47 2.809308 1_555
Ca8 O60 2.888989 1_655
Ca9 O28 2.329524 1_555
Ca9 O33 2.399473 1_565
Ca9 O0 2.456748 1_555
Ca9 O15 2.470828 1_565
Ca9 O67 2.471208 1_555
Ca9 O42 2.506496 1_555
Ca9 O60 2.538055 1_555
Ca10 O35 2.319215 1_555
Ca10 O44 2.336552 1_545
Ca10 O18 2.412120 1_555
Ca10 O62 2.577459 1_555
Ca10 O17 2.753872 1_555
Ca10 O24 2.759525 1_545
Ca10 O45 2.808829 1_555
Ca10 O31 2.809308 1_555
Ca10 O66 2.888989 1_555
Ca11 O62 2.370317 1_455
Ca11 O45 2.374483 1_555
Ca11 O57 2.384866 1_455
Ca11 O31 2.385646 1_555
Ca11 O41 2.686349 1_555
Ca11 O39 2.697240 1_455
Ca11 O12 2.698915 1_555
Ca11 O11 2.720562 1_445
Ca12 O26 2.357596 1_655
Ca12 O51 2.430935 1_655
Ca12 O50 2.466452 1_555
Ca12 O6 2.476462 1_655
Ca12 O23 2.483287 1_555
Ca12 O56 2.516368 1_655
Ca12 O48 2.545601 1_555
Ca12 O20 2.558949 1_555
Ca13 O61 2.319215 1_555
Ca13 O19 2.336552 1_565
Ca13 O8 2.412120 1_555
Ca13 O64 2.577459 1_555
Ca13 O41 2.753872 1_555
Ca13 O12 2.759525 1_565
Ca13 O39 2.808829 1_555
Ca13 O11 2.809308 1_555
Ca13 O1 2.888989 1_555
Ca14 O49 2.393877 1_555
Ca14 O27 2.427438 1_555
Ca14 O22 2.436024 1_555
Ca14 O37 2.475073 1_555
Ca14 O53 2.566145 1_555
Ca14 O51 2.690187 1_555
Ca14 O20 2.975316 1_555
Ca14 O48 3.076485 1_555
Ca15 O46 2.357596 1_455
Ca15 O58 2.430935 1_455
Ca15 O21 2.466452 1_555
Ca15 O38 2.476462 1_455
Ca15 O65 2.483287 1_555
Ca15 O2 2.516368 1_455
Ca15 O9 2.545601 1_555
Ca15 O29 2.558949 1_555
Ca16 O36 2.370317 1_554
Ca16 O63 2.374483 1_554
Ca16 O26 2.384866 1_555
Ca16 O47 2.385646 1_554
Ca16 O50 2.686349 1_555
Ca16 O10 2.697240 1_555
Ca16 O23 2.698915 1_555
Ca16 O55 2.720562 1_565
Ca17 O52 2.329524 1_655
Ca17 O0 2.399473 1_645
Ca17 O33 2.456748 1_555
Ca17 O67 2.470828 1_545
Ca17 O15 2.471208 1_655
Ca17 O54 2.506496 1_555
Ca17 O66 2.538055 1_555
Ca18 O54 2.393877 1_555
Ca18 O15 2.427438 1_555
Ca18 O28 2.436024 1_555
Ca18 O42 2.475073 1_555
Ca18 O33 2.566145 1_555
Ca18 O58 2.690187 1_555
Ca18 O29 2.975316 1_555
Ca18 O9 3.076485 1_555
Ca19 O14 2.329524 1_455
Ca19 O43 2.399473 1_465
Ca19 O53 2.456748 1_555
Ca19 O5 2.470828 1_565
Ca19 O27 2.471208 1_455
Ca19 O49 2.506496 1_555
Ca19 O1 2.538055 1_555
Nb0 O14 1.831388 1_555
Nb0 O49 1.919087 1_555
Nb0 O1 2.020212 1_555
Nb0 O3 2.048651 1_555
Nb0 O61 2.156788 1_555
Nb0 O25 2.328718 1_555
Nb1 O43 1.873004 1_555
Nb1 O5 1.888021 1_555
Nb1 O1 2.027918 1_545
Nb1 O3 2.044848 1_555
Nb1 O19 2.122120 1_555
Nb1 O30 2.296180 1_555
Nb2 O48 1.870083 1_555
Nb2 O56 2.005662 1_555
Nb2 O13 2.022033 1_565
Nb2 O26 2.050381 1_555
Nb2 O23 2.078171 1_555
Nb2 O55 2.227746 1_565
Nb3 O33 1.873004 1_555
Nb3 O15 1.888021 1_655
Nb3 O60 2.027918 1_645
Nb3 O58 2.044848 1_555
Nb3 O2 2.122120 1_555
Nb3 O9 2.296180 1_655
Nb4 O29 1.873781 1_555
Nb4 O38 1.993071 1_555
Nb4 O16 2.016954 1_555
Nb4 O46 2.051883 1_555
Nb4 O21 2.088785 1_555
Nb4 O63 2.251219 1_555
Nb5 O10 2.005174 1_555
Nb5 O63 2.005174 1_454
Nb5 O36 2.025196 1_554
Nb5 O34 2.025196 1_455
Nb5 O50 2.062642 1_455
Nb5 O21 2.062642 1_554
Nb6 O52 1.831388 1_555
Nb6 O54 1.919087 1_555
Nb6 O66 2.020212 1_555
Nb6 O4 2.048651 1_555
Nb6 O35 2.156788 1_555
Nb6 O32 2.328718 1_555
Nb7 O9 1.870083 1_555
Nb7 O2 2.005662 1_555
Nb7 O16 2.022033 1_545
Nb7 O46 2.050381 1_555
Nb7 O65 2.078171 1_555
Nb7 O47 2.227746 1_545
Nb8 O25 1.873781 1_555
Nb8 O61 1.993071 1_455
Nb8 O8 2.016954 1_555
Nb8 O57 2.051883 1_455
Nb8 O41 2.088785 1_555
Nb8 O39 2.251219 1_455
Nb9 O20 1.873781 1_555
Nb9 O6 1.993071 1_555
Nb9 O13 2.016954 1_555
Nb9 O26 2.051883 1_555
Nb9 O50 2.088785 1_555
Nb9 O10 2.251219 1_555
Nb10 O0 1.873004 1_555
Nb10 O67 1.888021 1_555
Nb10 O66 2.027918 1_565
Nb10 O4 2.044848 1_555
Nb10 O44 2.122120 1_555
Nb10 O59 2.296180 1_555
Nb11 O22 1.831388 1_555
Nb11 O37 1.919087 1_455
Nb11 O40 2.020212 1_455
Nb11 O51 2.048651 1_555
Nb11 O6 2.156788 1_555
Nb11 O20 2.328718 1_455
Nb12 O55 2.009662 1_555
Nb12 O47 2.009662 1_444
Nb12 O34 2.025072 1_455
Nb12 O36 2.025072 1_544
Nb12 O23 2.053908 1_445
Nb12 O65 2.053908 1_554
Nb13 O39 2.005174 1_555
Nb13 O45 2.005174 1_555
Nb13 O62 2.025196 1_555
Nb13 O64 2.025196 1_555
Nb13 O17 2.062642 1_555
Nb13 O41 2.062642 1_555
Nb14 O59 1.870083 1_555
Nb14 O44 2.005662 1_655
Nb14 O18 2.022033 1_565
Nb14 O7 2.050381 1_655
Nb14 O24 2.078171 1_555
Nb14 O31 2.227746 1_665
Nb15 O53 1.873004 1_555
Nb15 O27 1.888021 1_455
Nb15 O40 2.027918 1_465
Nb15 O51 2.044848 1_555
Nb15 O56 2.122120 1_555
Nb15 O48 2.296180 1_455
Nb16 O32 1.873781 1_555
Nb16 O35 1.993071 1_655
Nb16 O18 2.016954 1_555
Nb16 O7 2.051883 1_655
Nb16 O17 2.088785 1_555
Nb16 O45 2.251219 1_655
Nb17 O28 1.831388 1_555
Nb17 O42 1.919087 1_655
Nb17 O60 2.020212 1_655
Nb17 O58 2.048651 1_555
Nb17 O38 2.156788 1_555
Nb17 O29 2.328718 1_655
Nb18 O11 2.009662 1_545
Nb18 O31 2.009662 1_555
Nb18 O62 2.025072 1_555
Nb18 O64 2.025072 1_545
Nb18 O24 2.053908 1_545
Nb18 O12 2.053908 1_555
Nb19 O30 1.870083 1_555
Nb19 O19 2.005662 1_455
Nb19 O8 2.022033 1_545
Nb19 O57 2.050381 1_455
Nb19 O12 2.078171 1_555
Nb19 O11 2.227746 1_445
