# generated using pymatgen
data_K2Be2(SiO3)3
_symmetry_space_group_name_H-M   'P 1'
_cell_length_a   6.98091800
_cell_length_b   10.31488300
_cell_length_c   12.24735813
_cell_angle_alpha   73.28348183
_cell_angle_beta   90.00000000
_cell_angle_gamma   90.00000000
_symmetry_Int_Tables_number   1
_chemical_formula_structural   K2Be2(SiO3)3
_chemical_formula_sum   'K8 Be8 Si12 O36'
_cell_volume   844.63040206
_cell_formula_units_Z   4
loop_
 _symmetry_equiv_pos_site_id
 _symmetry_equiv_pos_as_xyz
  1  'x, y, z'
loop_
 _atom_site_type_symbol
 _atom_site_label
 _atom_site_symmetry_multiplicity
 _atom_site_fract_x
 _atom_site_fract_y
 _atom_site_fract_z
 _atom_site_occupancy
  K  K0  1  0.37374000  0.54023400  0.14391400  1
  K  K1  1  0.10672000  0.06278200  0.35230800  1
  K  K2  1  0.87374000  0.45976600  0.35608600  1
  K  K3  1  0.62626000  0.45976600  0.85608600  1
  K  K4  1  0.12626000  0.54023400  0.64391400  1
  K  K5  1  0.39328000  0.06278200  0.85230800  1
  K  K6  1  0.89328000  0.93721800  0.64769200  1
  K  K7  1  0.60672000  0.93721800  0.14769200  1
  Be  Be0  1  0.07193900  0.06477100  0.05751900  1
  Be  Be1  1  0.92806100  0.93522900  0.94248100  1
  Be  Be2  1  0.57193900  0.93522900  0.44248100  1
  Be  Be3  1  0.09057500  0.42888100  0.95808500  1
  Be  Be4  1  0.59057500  0.57111900  0.54191500  1
  Be  Be5  1  0.42806100  0.06477100  0.55751900  1
  Be  Be6  1  0.40942500  0.42888100  0.45808500  1
  Be  Be7  1  0.90942500  0.57111900  0.04191500  1
  Si  Si0  1  0.31814800  0.74237800  0.37342000  1
  Si  Si1  1  0.88509200  0.76215600  0.41945400  1
  Si  Si2  1  0.11490800  0.23784400  0.58054600  1
  Si  Si3  1  0.61490800  0.76215600  0.91945400  1
  Si  Si4  1  0.96868700  0.24186000  0.81851900  1
  Si  Si5  1  0.18185200  0.74237800  0.87342000  1
  Si  Si6  1  0.38509200  0.23784400  0.08054600  1
  Si  Si7  1  0.81814800  0.25762200  0.12658000  1
  Si  Si8  1  0.53131300  0.24186000  0.31851900  1
  Si  Si9  1  0.03131300  0.75814000  0.18148100  1
  Si  Si10  1  0.68185200  0.25762200  0.62658000  1
  Si  Si11  1  0.46868700  0.75814000  0.68148100  1
  O  O0  1  0.80042500  0.62195100  0.50000400  1
  O  O1  1  0.19957500  0.37804900  0.49999600  1
  O  O2  1  0.87346900  0.76465000  0.28205200  1
  O  O3  1  0.30042500  0.37804900  0.99999600  1
  O  O4  1  0.45089100  0.87272300  0.36003500  1
  O  O5  1  0.37346900  0.23535000  0.21794800  1
  O  O6  1  0.69957500  0.62195100  0.00000400  1
  O  O7  1  0.12653100  0.23535000  0.71794800  1
  O  O8  1  0.98119500  0.10111400  0.92193900  1
  O  O9  1  0.54910900  0.12727700  0.63996500  1
  O  O10  1  0.87887800  0.24052800  0.55508700  1
  O  O11  1  0.74604600  0.25801400  0.25639700  1
  O  O12  1  0.50678800  0.62351100  0.64361800  1
  O  O13  1  0.48119500  0.89888600  0.57806100  1
  O  O14  1  0.25395400  0.74198600  0.74360300  1
  O  O15  1  0.00678800  0.37648900  0.85638200  1
  O  O16  1  0.99321200  0.62351100  0.14361800  1
  O  O17  1  0.12112200  0.75947200  0.44491300  1
  O  O18  1  0.20264000  0.10112700  0.56041800  1
  O  O19  1  0.62112200  0.24052800  0.05508700  1
  O  O20  1  0.42563400  0.59866200  0.43362600  1
  O  O21  1  0.79736000  0.89887300  0.43958200  1
  O  O22  1  0.04910900  0.87272300  0.86003500  1
  O  O23  1  0.92563400  0.40133800  0.06637400  1
  O  O24  1  0.07436600  0.59866200  0.93362600  1
  O  O25  1  0.49321200  0.37648900  0.35638200  1
  O  O26  1  0.57436600  0.40133800  0.56637400  1
  O  O27  1  0.37887800  0.75947200  0.94491300  1
  O  O28  1  0.75395400  0.25801400  0.75639700  1
  O  O29  1  0.51880500  0.10111400  0.42193900  1
  O  O30  1  0.24604600  0.74198600  0.24360300  1
  O  O31  1  0.01880500  0.89888600  0.07806100  1
  O  O32  1  0.29736000  0.10112700  0.06041800  1
  O  O33  1  0.95089100  0.12727700  0.13996500  1
  O  O34  1  0.70264000  0.89887300  0.93958200  1
  O  O35  1  0.62653100  0.76465000  0.78205200  1
loop_
_geom_bond_atom_site_label_1
_geom_bond_atom_site_label_2
_geom_bond_distance
_geom_bond_site_symmetry_2
K0 O25 2.791285 1_555
K0 O16 2.791547 1_455
K0 O3 2.804235 1_554
K0 O27 2.807975 1_554
K0 O30 2.842132 1_555
K0 O6 2.852409 1_555
K0 O5 3.011942 1_555
K1 O33 2.719190 1_455
K1 O21 2.761396 1_445
K1 O5 2.767470 1_555
K1 O18 2.771484 1_555
K1 O17 3.007216 1_545
K1 O29 3.058293 1_555
K1 O4 3.085153 1_545
K1 O11 3.227052 1_455
K2 O16 2.791285 1_555
K2 O25 2.791547 1_555
K2 O0 2.804235 1_555
K2 O10 2.807975 1_555
K2 O11 2.842132 1_555
K2 O1 2.852409 1_655
K2 O2 3.011942 1_555
K3 O12 2.791285 1_555
K3 O15 2.791547 1_655
K3 O6 2.804235 1_556
K3 O19 2.807975 1_556
K3 O28 2.842132 1_555
K3 O3 2.852409 1_555
K3 O35 3.011942 1_555
K4 O15 2.791285 1_555
K4 O12 2.791547 1_555
K4 O1 2.804235 1_555
K4 O17 2.807975 1_555
K4 O14 2.842132 1_555
K4 O0 2.852409 1_455
K4 O7 3.011942 1_555
K5 O9 2.719190 1_555
K5 O34 2.761396 1_545
K5 O7 2.767470 1_555
K5 O32 2.771484 1_556
K5 O27 3.007216 1_545
K5 O8 3.058293 1_455
K5 O22 3.085153 1_545
K5 O28 3.227052 1_555
K6 O22 2.719190 1_655
K6 O18 2.761396 1_665
K6 O35 2.767470 1_555
K6 O21 2.771484 1_555
K6 O10 3.007216 1_565
K6 O13 3.058293 1_555
K6 O9 3.085153 1_565
K6 O14 3.227052 1_655
K7 O4 2.719190 1_555
K7 O32 2.761396 1_565
K7 O2 2.767470 1_555
K7 O34 2.771484 1_554
K7 O19 3.007216 1_565
K7 O31 3.058293 1_655
K7 O33 3.085153 1_565
K7 O30 3.227052 1_555
Be0 O33 1.588668 1_455
Be0 O32 1.620466 1_555
Be0 O31 1.697364 1_545
Be0 O8 1.714928 1_454
Be1 O22 1.588668 1_655
Be1 O34 1.620466 1_555
Be1 O8 1.697364 1_565
Be1 O31 1.714928 1_656
Be2 O4 1.588668 1_555
Be2 O21 1.620466 1_555
Be2 O29 1.697364 1_565
Be2 O13 1.714928 1_555
Be3 O3 1.590482 1_555
Be3 O15 1.604030 1_555
Be3 O24 1.693428 1_555
Be3 O23 1.717183 1_456
Be4 O0 1.590482 1_555
Be4 O12 1.604030 1_555
Be4 O26 1.693428 1_555
Be4 O20 1.717183 1_555
Be5 O9 1.588668 1_555
Be5 O18 1.620466 1_555
Be5 O13 1.697364 1_545
Be5 O29 1.714928 1_555
Be6 O1 1.590482 1_555
Be6 O25 1.604030 1_555
Be6 O20 1.693428 1_555
Be6 O26 1.717183 1_555
Be7 O6 1.590482 1_555
Be7 O16 1.604030 1_555
Be7 O23 1.693428 1_555
Be7 O24 1.717183 1_654
O0 Si1 1.610378 1_555
O1 Si2 1.610378 1_555
O2 Si9 1.668359 1_655
O2 Si1 1.677557 1_555
O3 Si6 1.610378 1_556
O4 Si0 1.602017 1_555
O5 Si8 1.668359 1_555
O5 Si6 1.677557 1_555
O6 Si3 1.610378 1_554
O7 Si4 1.668359 1_455
O7 Si2 1.677557 1_555
O8 Si4 1.631494 1_555
O9 Si10 1.602017 1_555
O10 Si10 1.666844 1_555
O10 Si2 1.675696 1_655
O11 Si8 1.667573 1_555
O11 Si7 1.668800 1_555
O12 Si11 1.607693 1_555
O13 Si11 1.631494 1_555
O14 Si11 1.667573 1_555
O14 Si5 1.668800 1_555
O15 Si4 1.607693 1_455
O16 Si9 1.607693 1_655
O17 Si0 1.666844 1_555
O17 Si1 1.675696 1_455
O18 Si2 1.620053 1_555
O19 Si7 1.666844 1_555
O19 Si6 1.675696 1_555
O20 Si0 1.635685 1_555
O21 Si1 1.620053 1_555
O22 Si5 1.602017 1_555
O23 Si7 1.635685 1_555
O24 Si5 1.635685 1_555
O25 Si8 1.607693 1_555
O26 Si10 1.635685 1_555
O27 Si5 1.666844 1_555
O27 Si3 1.675696 1_555
O28 Si4 1.667573 1_555
O28 Si10 1.668800 1_555
O29 Si8 1.631494 1_555
O30 Si9 1.667573 1_555
O30 Si0 1.668800 1_555
O31 Si9 1.631494 1_555
O32 Si6 1.620053 1_555
O33 Si7 1.602017 1_555
O34 Si3 1.620053 1_555
O35 Si11 1.668359 1_555
O35 Si3 1.677557 1_555
