# generated using pymatgen
data_U4As6Ru7
_symmetry_space_group_name_H-M   'P 1'
_cell_length_a   7.23151747
_cell_length_b   7.23145303
_cell_length_c   7.23276405
_cell_angle_alpha   109.47575704
_cell_angle_beta   109.47420467
_cell_angle_gamma   109.46687903
_symmetry_Int_Tables_number   1
_chemical_formula_structural   U4As6Ru7
_chemical_formula_sum   'U4 As6 Ru7'
_cell_volume   291.15240013
_cell_formula_units_Z   1
loop_
 _symmetry_equiv_pos_site_id
 _symmetry_equiv_pos_as_xyz
  1  'x, y, z'
loop_
 _atom_site_type_symbol
 _atom_site_label
 _atom_site_symmetry_multiplicity
 _atom_site_fract_x
 _atom_site_fract_y
 _atom_site_fract_z
 _atom_site_occupancy
  U  U0  1  0.50000000  0.50000000  0.50000000  1
  U  U1  1  0.50000000  -0.00000000  0.00000000  1
  U  U2  1  -0.00000000  0.50000000  0.00000000  1
  U  U3  1  -0.00000000  -0.00000000  0.50000000  1
  As  As0  1  0.00000072  0.31271451  0.31272176  1
  As  As1  1  0.31274404  0.00000338  0.31273387  1
  As  As2  1  0.68725596  -0.00000338  0.68726613  1
  As  As3  1  0.68725623  0.68725886  0.99998998  1
  As  As4  1  0.31274377  0.31274114  0.00001002  1
  As  As5  1  -0.00000072  0.68728549  0.68727824  1
  Ru  Ru0  1  0.49999907  0.74999773  0.25000152  1
  Ru  Ru1  1  0.75000213  0.50000105  0.25000147  1
  Ru  Ru2  1  0.24999787  0.49999895  0.74999853  1
  Ru  Ru3  1  0.75000229  0.25000494  0.50000446  1
  Ru  Ru4  1  0.24999771  0.74999506  0.49999554  1
  Ru  Ru5  1  0.50000093  0.25000227  0.74999848  1
  Ru  Ru6  1  -0.00000000  -0.00000000  0.00000000  1
loop_
_geom_bond_atom_site_label_1
_geom_bond_atom_site_label_2
_geom_bond_distance
_geom_bond_site_symmetry_2
As0 Ru4 2.608291 1_555
As0 Ru1 2.608312 1_455
As0 Ru2 2.608601 1_555
As0 Ru3 2.608619 1_455
As0 Ru6 2.611335 1_555
As0 U0 2.998310 1_555
As0 U1 2.998321 1_455
As0 U3 2.998526 1_555
As0 U2 2.998808 1_555
As1 Ru0 2.608162 1_545
As1 Ru3 2.608206 1_555
As1 Ru5 2.608537 1_555
As1 Ru4 2.608591 1_545
As1 Ru6 2.611559 1_555
As1 U0 2.998267 1_555
As1 U2 2.998318 1_545
As1 U3 2.998648 1_555
As1 U1 2.998718 1_555
As2 Ru5 2.608162 1_555
As2 Ru4 2.608206 1_545
As2 Ru0 2.608537 1_545
As2 Ru3 2.608591 1_555
As2 Ru6 2.611559 1_656
As2 U0 2.998267 1_545
As2 U2 2.998318 1_656
As2 U3 2.998648 1_655
As2 U1 2.998718 1_556
As3 Ru5 2.608145 1_555
As3 Ru2 2.608208 1_555
As3 Ru0 2.608554 1_556
As3 Ru1 2.608586 1_556
As3 Ru6 2.611560 1_666
As3 U1 2.998268 1_566
As3 U2 2.998308 1_656
As3 U3 2.998653 1_666
As3 U0 2.998723 1_555
As4 Ru0 2.608145 1_555
As4 Ru1 2.608208 1_555
As4 Ru5 2.608554 1_554
As4 Ru2 2.608586 1_554
As4 Ru6 2.611560 1_555
As4 U1 2.998268 1_555
As4 U2 2.998308 1_555
As4 U3 2.998653 1_554
As4 U0 2.998723 1_555
As5 Ru3 2.608291 1_455
As5 Ru2 2.608312 1_555
As5 Ru1 2.608601 1_455
As5 Ru4 2.608619 1_555
As5 Ru6 2.611335 1_566
As5 U0 2.998310 1_455
As5 U1 2.998321 1_566
As5 U3 2.998526 1_565
As5 U2 2.998808 1_556
Ru0 U2 2.952216 1_555
Ru0 U3 2.952227 1_665
Ru0 U0 2.952556 1_555
Ru0 U1 2.952601 1_565
Ru1 U3 2.952161 1_665
Ru1 U1 2.952173 1_555
Ru1 U2 2.952560 1_655
Ru1 U0 2.952567 1_555
Ru2 U3 2.952161 1_555
Ru2 U1 2.952173 1_566
Ru2 U2 2.952560 1_556
Ru2 U0 2.952567 1_555
Ru3 U0 2.952147 1_555
Ru3 U3 2.952178 1_655
Ru3 U2 2.952542 1_656
Ru3 U1 2.952595 1_555
Ru4 U0 2.952147 1_555
Ru4 U3 2.952178 1_565
Ru4 U2 2.952542 1_555
Ru4 U1 2.952595 1_566
Ru5 U2 2.952216 1_656
Ru5 U3 2.952227 1_555
Ru5 U0 2.952556 1_555
Ru5 U1 2.952601 1_556
