# generated using pymatgen
data_Tl3PbBr5
_symmetry_space_group_name_H-M   'P 1'
_cell_length_a   8.83430342
_cell_length_b   8.83430342
_cell_length_c   15.50117348
_cell_angle_alpha   90.00000000
_cell_angle_beta   90.00000000
_cell_angle_gamma   90.00000000
_symmetry_Int_Tables_number   1
_chemical_formula_structural   Tl3PbBr5
_chemical_formula_sum   'Tl12 Pb4 Br20'
_cell_volume   1209.78779636
_cell_formula_units_Z   4
loop_
 _symmetry_equiv_pos_site_id
 _symmetry_equiv_pos_as_xyz
  1  'x, y, z'
loop_
 _atom_site_type_symbol
 _atom_site_label
 _atom_site_symmetry_multiplicity
 _atom_site_fract_x
 _atom_site_fract_y
 _atom_site_fract_z
 _atom_site_occupancy
  Tl  Tl0  1  0.99836952  0.81257691  0.80236027  1
  Tl  Tl1  1  0.88085084  0.68519666  0.38224298  1
  Tl  Tl2  1  0.18742309  0.99836952  0.05236027  1
  Tl  Tl3  1  0.17480022  0.36138237  0.56722196  1
  Tl  Tl4  1  0.68519666  0.11914916  0.13224298  1
  Tl  Tl5  1  0.36138237  0.82519978  0.31722196  1
  Tl  Tl6  1  0.11914916  0.31480334  0.88224298  1
  Tl  Tl7  1  0.00163048  0.18742309  0.30236027  1
  Tl  Tl8  1  0.63861763  0.17480022  0.81722196  1
  Tl  Tl9  1  0.82519978  0.63861763  0.06722196  1
  Tl  Tl10  1  0.31480334  0.88085084  0.63224298  1
  Tl  Tl11  1  0.81257691  0.00163048  0.55236027  1
  Pb  Pb0  1  0.69513255  0.51283573  0.64606231  1
  Pb  Pb1  1  0.48716427  0.69513255  0.89606231  1
  Pb  Pb2  1  0.51283573  0.30486745  0.39606231  1
  Pb  Pb3  1  0.30486745  0.48716427  0.14606231  1
  Br  Br0  1  0.35984674  0.51642234  0.75575230  1
  Br  Br1  1  0.49286982  0.80134778  0.10302504  1
  Br  Br2  1  0.19865222  0.49286982  0.35302504  1
  Br  Br3  1  0.67013360  0.01625329  0.35032206  1
  Br  Br4  1  0.64909858  0.82559036  0.72422766  1
  Br  Br5  1  0.50713018  0.19865222  0.60302504  1
  Br  Br6  1  0.64015326  0.48357766  0.25575230  1
  Br  Br7  1  0.48357766  0.35984674  0.00575230  1
  Br  Br8  1  0.01625329  0.32986640  0.10032206  1
  Br  Br9  1  0.97393628  0.17425772  0.70578641  1
  Br  Br10  1  0.80134778  0.50713018  0.85302504  1
  Br  Br11  1  0.82574228  0.97393628  0.95578641  1
  Br  Br12  1  0.17425772  0.02606372  0.45578641  1
  Br  Br13  1  0.17440964  0.64909858  0.97422766  1
  Br  Br14  1  0.32986640  0.98374671  0.85032206  1
  Br  Br15  1  0.82559036  0.35090142  0.47422766  1
  Br  Br16  1  0.98374671  0.67013360  0.60032206  1
  Br  Br17  1  0.51642234  0.64015326  0.50575230  1
  Br  Br18  1  0.35090142  0.17440964  0.22422766  1
  Br  Br19  1  0.02606372  0.82574228  0.20578641  1
loop_
_geom_bond_atom_site_label_1
_geom_bond_atom_site_label_2
_geom_bond_distance
_geom_bond_site_symmetry_2
Br0 Pb1 2.913439 1_555
Br0 Tl6 3.396860 1_555
Br0 Pb0 3.415501 1_555
Br1 Pb3 3.302645 1_555
Br1 Tl2 3.305710 1_555
Br1 Tl4 3.312754 1_565
Br1 Tl9 3.315759 1_555
Br1 Pb1 3.342954 1_554
Br2 Pb2 3.302645 1_555
Br2 Tl7 3.305710 1_555
Br2 Tl1 3.312754 1_455
Br2 Tl5 3.315759 1_555
Br2 Pb3 3.342954 1_555
Br3 Pb2 2.989105 1_555
Br3 Tl5 3.248358 1_545
Br3 Tl11 3.377659 1_555
Br3 Tl7 3.378721 1_655
Br4 Pb0 3.044256 1_555
Br4 Pb1 3.235705 1_555
Br4 Tl10 3.315601 1_555
Br4 Tl0 3.316747 1_555
Br4 Tl11 3.406180 1_565
Br4 Tl8 3.406456 1_565
Br5 Pb0 3.302645 1_555
Br5 Tl11 3.305710 1_555
Br5 Tl10 3.312754 1_545
Br5 Tl3 3.315759 1_555
Br5 Pb2 3.342954 1_555
Br6 Pb2 2.913439 1_555
Br6 Tl1 3.396860 1_555
Br6 Pb3 3.415501 1_555
Br7 Pb3 2.913439 1_555
Br7 Tl4 3.396860 1_555
Br7 Pb1 3.415501 1_554
Br8 Pb3 2.989105 1_555
Br8 Tl9 3.248358 1_455
Br8 Tl7 3.377659 1_555
Br8 Tl2 3.378721 1_545
Br9 Tl11 3.164496 1_555
Br9 Tl3 3.239621 1_655
Br9 Tl6 3.266362 1_655
Br10 Pb1 3.302645 1_555
Br10 Tl0 3.305710 1_555
Br10 Tl6 3.312754 1_655
Br10 Tl8 3.315759 1_555
Br10 Pb0 3.342954 1_555
Br11 Tl0 3.164496 1_555
Br11 Tl8 3.239621 1_565
Br11 Tl4 3.266362 1_566
Br12 Tl7 3.164496 1_555
Br12 Tl5 3.239621 1_545
Br12 Tl10 3.266362 1_545
Br13 Pb1 3.044256 1_555
Br13 Pb3 3.235705 1_556
Br13 Tl6 3.315601 1_555
Br13 Tl2 3.316747 1_556
Br13 Tl0 3.406180 1_455
Br13 Tl9 3.406456 1_456
Br14 Pb1 2.989105 1_555
Br14 Tl8 3.248358 1_565
Br14 Tl2 3.377659 1_556
Br14 Tl0 3.378721 1_455
Br15 Pb2 3.044256 1_555
Br15 Pb0 3.235705 1_555
Br15 Tl1 3.315601 1_555
Br15 Tl11 3.316747 1_555
Br15 Tl7 3.406180 1_655
Br15 Tl3 3.406456 1_655
Br16 Pb0 2.989105 1_555
Br16 Tl3 3.248358 1_655
Br16 Tl0 3.377659 1_555
Br16 Tl11 3.378721 1_565
Br17 Pb0 2.913439 1_555
Br17 Tl10 3.396860 1_555
Br17 Pb2 3.415501 1_555
Br18 Pb3 3.044256 1_555
Br18 Pb2 3.235705 1_555
Br18 Tl4 3.315601 1_555
Br18 Tl7 3.316747 1_555
Br18 Tl2 3.406180 1_545
Br18 Tl5 3.406456 1_545
Br19 Tl2 3.164496 1_555
Br19 Tl9 3.239621 1_455
Br19 Tl1 3.266362 1_455
