# generated using pymatgen
data_Cs2Zr(Si2O5)3
_symmetry_space_group_name_H-M   'P 1'
_cell_length_a   14.03161846
_cell_length_b   14.03161846
_cell_length_c   11.78537985
_cell_angle_alpha   73.30656721
_cell_angle_beta   73.30656721
_cell_angle_gamma   31.48096952
_symmetry_Int_Tables_number   1
_chemical_formula_structural   Cs2Zr(Si2O5)3
_chemical_formula_sum   'Cs6 Zr3 Si18 O45'
_cell_volume   1156.51634818
_cell_formula_units_Z   3
loop_
 _symmetry_equiv_pos_site_id
 _symmetry_equiv_pos_as_xyz
  1  'x, y, z'
loop_
 _atom_site_type_symbol
 _atom_site_label
 _atom_site_symmetry_multiplicity
 _atom_site_fract_x
 _atom_site_fract_y
 _atom_site_fract_z
 _atom_site_occupancy
  Cs  Cs0  1  0.89741900  0.89741900  0.62914400  1
  Cs  Cs1  1  0.57602700  0.57602700  0.98747000  1
  Cs  Cs2  1  0.24727500  0.24727500  0.36173000  1
  Cs  Cs3  1  0.75272500  0.75272500  0.63827000  1
  Cs  Cs4  1  0.42397300  0.42397300  0.01253000  1
  Cs  Cs5  1  0.10258100  0.10258100  0.37085600  1
  Zr  Zr0  1  0.00000000  0.00000000  0.00000000  1
  Zr  Zr1  1  0.32055400  0.32055400  0.64189700  1
  Zr  Zr2  1  0.67944600  0.67944600  0.35810300  1
  Si  Si0  1  0.56965600  0.17410400  0.37094900  1
  Si  Si1  1  0.81690100  0.81690100  0.26781700  1
  Si  Si2  1  0.86295900  0.86295900  0.99819500  1
  Si  Si3  1  0.10847300  0.50349600  0.90792100  1
  Si  Si4  1  0.43034400  0.82589600  0.62905100  1
  Si  Si5  1  0.20887400  0.81623900  0.73191800  1
  Si  Si6  1  0.81623900  0.20887400  0.73191800  1
  Si  Si7  1  0.89152700  0.49650400  0.09207900  1
  Si  Si8  1  0.18309900  0.18309900  0.73218300  1
  Si  Si9  1  0.45838100  0.45838100  0.63244800  1
  Si  Si10  1  0.54161900  0.54161900  0.36755200  1
  Si  Si11  1  0.49650400  0.89152700  0.09207900  1
  Si  Si12  1  0.18376100  0.79112600  0.26808200  1
  Si  Si13  1  0.82589600  0.43034400  0.62905100  1
  Si  Si14  1  0.79112600  0.18376100  0.26808200  1
  Si  Si15  1  0.13704100  0.13704100  0.00180500  1
  Si  Si16  1  0.17410400  0.56965600  0.37094900  1
  Si  Si17  1  0.50349600  0.10847300  0.90792100  1
  O  O0  1  0.81863400  0.81863400  0.12830000  1
  O  O1  1  0.53264600  0.13811800  0.50693200  1
  O  O2  1  0.92131700  0.92131700  0.00522400  1
  O  O3  1  0.32796600  0.97489800  0.71292100  1
  O  O4  1  0.49232300  0.89603700  0.22906400  1
  O  O5  1  0.50000000  0.00000000  0.00000000  1
  O  O6  1  0.00000000  0.50000000  0.00000000  1
  O  O7  1  0.37464000  0.37464000  0.31009900  1
  O  O8  1  0.18136600  0.18136600  0.87170000  1
  O  O9  1  0.46735400  0.86188200  0.49306800  1
  O  O10  1  0.07868300  0.07868300  0.99477600  1
  O  O11  1  0.82946300  0.30920000  0.63590800  1
  O  O12  1  0.64207500  0.29605200  0.70603900  1
  O  O13  1  0.86188200  0.46735400  0.49306800  1
  O  O14  1  0.10396300  0.50767700  0.77093600  1
  O  O15  1  0.67810700  0.02577400  0.92585800  1
  O  O16  1  0.24165900  0.24165900  0.64507000  1
  O  O17  1  0.35792500  0.70394800  0.29396100  1
  O  O18  1  0.97489800  0.32796600  0.71292100  1
  O  O19  1  0.67883500  0.67883500  0.05447400  1
  O  O20  1  0.13811800  0.53264600  0.50693200  1
  O  O21  1  0.69080000  0.17053700  0.36409200  1
  O  O22  1  0.00362100  0.00362100  0.30526200  1
  O  O23  1  0.97422600  0.32189300  0.07414200  1
  O  O24  1  0.99637900  0.99637900  0.69473800  1
  O  O25  1  0.60063200  0.60063200  0.36932800  1
  O  O26  1  0.89603700  0.49232300  0.22906400  1
  O  O27  1  0.21500100  0.81160100  0.86807600  1
  O  O28  1  0.30920000  0.82946300  0.63590800  1
  O  O29  1  0.70394800  0.35792500  0.29396100  1
  O  O30  1  0.29605200  0.64207500  0.70603900  1
  O  O31  1  0.75834100  0.75834100  0.35493000  1
  O  O32  1  0.39936800  0.39936800  0.63067200  1
  O  O33  1  0.62536000  0.62536000  0.68990100  1
  O  O34  1  0.18839900  0.78499900  0.13192400  1
  O  O35  1  0.50767700  0.10396300  0.77093600  1
  O  O36  1  0.78499900  0.18839900  0.13192400  1
  O  O37  1  0.50000000  0.50000000  0.50000000  1
  O  O38  1  0.32189300  0.97422600  0.07414200  1
  O  O39  1  0.67203400  0.02510200  0.28707900  1
  O  O40  1  0.17053700  0.69080000  0.36409200  1
  O  O41  1  0.02577400  0.67810700  0.92585800  1
  O  O42  1  0.81160100  0.21500100  0.86807600  1
  O  O43  1  0.02510200  0.67203400  0.28707900  1
  O  O44  1  0.32116500  0.32116500  0.94552600  1
loop_
_geom_bond_atom_site_label_1
_geom_bond_atom_site_label_2
_geom_bond_distance
_geom_bond_site_symmetry_2
Cs0 O24 2.995979 1_555
Cs0 O35 3.405585 1_565
Cs0 O14 3.405585 1_655
Cs0 O1 3.410977 1_565
Cs0 O20 3.410977 1_655
Cs0 O12 3.436556 1_565
Cs0 O30 3.436556 1_655
Cs0 O21 3.496359 1_565
Cs0 O40 3.496359 1_655
Cs0 O15 3.595081 1_565
Cs0 O41 3.595081 1_655
Cs1 O19 3.105450 1_556
Cs1 O33 3.359331 1_555
Cs1 O36 3.380162 1_556
Cs1 O34 3.380162 1_556
Cs1 O42 3.380946 1_555
Cs1 O27 3.380946 1_555
Cs1 O38 3.490140 1_556
Cs1 O23 3.490140 1_556
Cs1 O29 3.693196 1_556
Cs1 O17 3.693196 1_556
Cs2 O9 3.260311 1_545
Cs2 O13 3.260311 1_455
Cs2 O16 3.297178 1_555
Cs2 O7 3.309988 1_555
Cs2 O4 3.315357 1_545
Cs2 O26 3.315357 1_455
Cs2 O43 3.589872 1_555
Cs2 O39 3.589872 1_555
Cs2 O20 3.643932 1_555
Cs2 O1 3.643932 1_555
Cs3 O20 3.260311 1_655
Cs3 O1 3.260311 1_565
Cs3 O31 3.297178 1_555
Cs3 O33 3.309988 1_555
Cs3 O35 3.315357 1_565
Cs3 O14 3.315357 1_655
Cs3 O18 3.589872 1_555
Cs3 O3 3.589872 1_555
Cs3 O9 3.643932 1_555
Cs3 O13 3.643932 1_555
Cs4 O44 3.105450 1_554
Cs4 O7 3.359331 1_555
Cs4 O42 3.380162 1_554
Cs4 O27 3.380162 1_554
Cs4 O34 3.380946 1_555
Cs4 O36 3.380946 1_555
Cs4 O15 3.490140 1_554
Cs4 O41 3.490140 1_554
Cs4 O12 3.693196 1_554
Cs4 O30 3.693196 1_554
Cs5 O22 2.995979 1_555
Cs5 O4 3.405585 1_545
Cs5 O26 3.405585 1_455
Cs5 O13 3.410977 1_455
Cs5 O9 3.410977 1_545
Cs5 O29 3.436556 1_455
Cs5 O17 3.436556 1_545
Cs5 O11 3.496359 1_455
Cs5 O28 3.496359 1_545
Cs5 O23 3.595081 1_455
Cs5 O38 3.595081 1_545
O0 Si1 1.630903 1_555
O0 Si2 1.639752 1_554
O1 Si0 1.611593 1_555
O1 Zr1 2.136711 1_555
O2 Si2 1.602974 1_554
O2 Zr0 2.107742 1_665
O3 Si4 1.631142 1_555
O3 Si8 1.644773 1_565
O4 Si11 1.616091 1_555
O4 Zr2 2.114581 1_555
O5 Si17 1.626202 1_554
O5 Si11 1.626202 1_545
O6 Si3 1.626202 1_554
O6 Si7 1.626202 1_455
O7 Si0 1.659814 1_555
O7 Si16 1.659814 1_555
O8 Si8 1.630903 1_555
O8 Si15 1.639752 1_556
O9 Si4 1.611593 1_555
O9 Zr2 2.136711 1_555
O10 Si15 1.602974 1_556
O10 Zr0 2.107742 1_556
O11 Si13 1.636095 1_555
O11 Si6 1.645076 1_555
O12 Si6 1.636041 1_555
O12 Si9 1.649148 1_555
O13 Si13 1.611593 1_555
O13 Zr2 2.136711 1_555
O14 Si3 1.616091 1_555
O14 Zr1 2.114581 1_555
O15 Si17 1.643623 1_555
O15 Si2 1.648693 1_545
O16 Si8 1.608319 1_555
O16 Zr1 2.120163 1_555
O17 Si12 1.636041 1_555
O17 Si10 1.649148 1_555
O18 Si13 1.631142 1_555
O18 Si8 1.644773 1_655
O19 Si11 1.653482 1_555
O19 Si7 1.653482 1_555
O20 Si16 1.611593 1_555
O20 Zr1 2.136711 1_555
O21 Si0 1.636095 1_555
O21 Si14 1.645076 1_555
O22 Si14 1.652562 1_455
O22 Si12 1.652562 1_545
O23 Si7 1.643623 1_555
O23 Si15 1.648693 1_655
O24 Si5 1.652562 1_655
O24 Si6 1.652562 1_565
O25 Si10 1.600364 1_555
O25 Zr2 2.093165 1_555
O26 Si7 1.616091 1_555
O26 Zr2 2.114581 1_555
O27 Si5 1.611311 1_555
O27 Zr0 2.137963 1_566
O28 Si4 1.636095 1_555
O28 Si5 1.645076 1_555
O29 Si14 1.636041 1_555
O29 Si10 1.649148 1_555
O30 Si5 1.636041 1_555
O30 Si9 1.649148 1_555
O31 Si1 1.608319 1_555
O31 Zr2 2.120163 1_555
O32 Si9 1.600364 1_555
O32 Zr1 2.093165 1_555
O33 Si13 1.659814 1_555
O33 Si4 1.659814 1_555
O34 Si12 1.611311 1_555
O34 Zr0 2.137963 1_565
O35 Si17 1.616091 1_555
O35 Zr1 2.114581 1_555
O36 Si14 1.611311 1_555
O36 Zr0 2.137963 1_655
O37 Si10 1.628779 1_555
O37 Si9 1.628779 1_555
O38 Si11 1.643623 1_555
O38 Si15 1.648693 1_565
O39 Si0 1.631142 1_555
O39 Si1 1.644773 1_545
O40 Si16 1.636095 1_555
O40 Si12 1.645076 1_555
O41 Si3 1.643623 1_555
O41 Si2 1.648693 1_455
O42 Si6 1.611311 1_555
O42 Zr0 2.137963 1_656
O43 Si16 1.631142 1_555
O43 Si1 1.644773 1_455
O44 Si17 1.653482 1_555
O44 Si3 1.653482 1_555
