# generated using pymatgen
data_NaLi2Mo2P3O14
_symmetry_space_group_name_H-M   'P 1'
_cell_length_a   8.99275895
_cell_length_b   8.99275895
_cell_length_c   18.06727063
_cell_angle_alpha   74.02590250
_cell_angle_beta   74.02590250
_cell_angle_gamma   54.60710001
_symmetry_Int_Tables_number   1
_chemical_formula_structural   NaLi2Mo2P3O14
_chemical_formula_sum   'Na4 Li8 Mo8 P12 O56'
_cell_volume   1132.52059794
_cell_formula_units_Z   4
loop_
 _symmetry_equiv_pos_site_id
 _symmetry_equiv_pos_as_xyz
  1  'x, y, z'
loop_
 _atom_site_type_symbol
 _atom_site_label
 _atom_site_symmetry_multiplicity
 _atom_site_fract_x
 _atom_site_fract_y
 _atom_site_fract_z
 _atom_site_occupancy
  Na  Na0  1  0.00000000  0.50000000  0.00000000  1
  Na  Na1  1  0.90655600  0.09344400  0.25000000  1
  Na  Na2  1  0.50000000  0.00000000  0.50000000  1
  Na  Na3  1  0.09344400  0.90655600  0.75000000  1
  Li  Li0  1  0.72557600  0.06589100  0.14555700  1
  Li  Li1  1  0.51781400  0.72180800  0.74301500  1
  Li  Li2  1  0.27819200  0.48218600  0.75698500  1
  Li  Li3  1  0.72180800  0.51781400  0.24301500  1
  Li  Li4  1  0.48218600  0.27819200  0.25698500  1
  Li  Li5  1  0.93410900  0.27442400  0.35444300  1
  Li  Li6  1  0.27442400  0.93410900  0.85444300  1
  Li  Li7  1  0.06589100  0.72557600  0.64555700  1
  Mo  Mo0  1  0.69807800  0.15788900  0.56003200  1
  Mo  Mo1  1  0.30192200  0.84211100  0.43996800  1
  Mo  Mo2  1  0.15788900  0.69807800  0.06003200  1
  Mo  Mo3  1  0.43324400  0.90822400  0.15902800  1
  Mo  Mo4  1  0.09177600  0.56675600  0.34097200  1
  Mo  Mo5  1  0.84211100  0.30192200  0.93996800  1
  Mo  Mo6  1  0.56675600  0.09177600  0.84097200  1
  Mo  Mo7  1  0.90822400  0.43324400  0.65902800  1
  P  P0  1  0.15133100  0.35647800  0.19395300  1
  P  P1  1  0.51348200  0.40857500  0.38854600  1
  P  P2  1  0.02571600  0.25345600  0.48829600  1
  P  P3  1  0.48651800  0.59142500  0.61145400  1
  P  P4  1  0.25345600  0.02571600  0.98829600  1
  P  P5  1  0.59142500  0.48651800  0.11145400  1
  P  P6  1  0.40857500  0.51348200  0.88854600  1
  P  P7  1  0.35647800  0.15133100  0.69395300  1
  P  P8  1  0.97428400  0.74654400  0.51170400  1
  P  P9  1  0.64352200  0.84866900  0.30604700  1
  P  P10  1  0.84866900  0.64352200  0.80604700  1
  P  P11  1  0.74654400  0.97428400  0.01170400  1
  O  O0  1  0.49845800  0.90315700  0.38189800  1
  O  O1  1  0.60940900  0.44156600  0.89460400  1
  O  O2  1  0.58781300  0.62745000  0.14899900  1
  O  O3  1  0.00923700  0.66491800  0.76517000  1
  O  O4  1  0.99272500  0.13905100  0.87806200  1
  O  O5  1  0.99076300  0.33508200  0.23483000  1
  O  O6  1  0.41218700  0.37255000  0.85100100  1
  O  O7  1  0.37255000  0.41218700  0.35100100  1
  O  O8  1  0.33508200  0.99076300  0.73483000  1
  O  O9  1  0.93436200  0.22810700  0.70561300  1
  O  O10  1  0.66656000  0.30363200  0.16702500  1
  O  O11  1  0.24608300  0.85984000  0.98307300  1
  O  O12  1  0.90315700  0.49845800  0.88189800  1
  O  O13  1  0.57755100  0.79416000  0.25158200  1
  O  O14  1  0.69636800  0.33344000  0.33297500  1
  O  O15  1  0.66491800  0.00923700  0.26517000  1
  O  O16  1  0.13905100  0.99272500  0.37806200  1
  O  O17  1  0.20584000  0.42244900  0.24841800  1
  O  O18  1  0.06563800  0.77189300  0.29438700  1
  O  O19  1  0.52812900  0.29178100  0.47003100  1
  O  O20  1  0.33344000  0.69636800  0.83297500  1
  O  O21  1  0.00727500  0.86094900  0.12193800  1
  O  O22  1  0.85984000  0.24608300  0.48307300  1
  O  O23  1  0.62745000  0.58781300  0.64899900  1
  O  O24  1  0.79416000  0.57755100  0.75158200  1
  O  O25  1  0.36274500  0.98177800  0.05074400  1
  O  O26  1  0.06782300  0.34213500  0.40555900  1
  O  O27  1  0.05600000  0.19810700  0.00471100  1
  O  O28  1  0.77189300  0.06563800  0.79438700  1
  O  O29  1  0.19810700  0.05600000  0.50471100  1
  O  O30  1  0.09684300  0.50154200  0.11810200  1
  O  O31  1  0.30363200  0.66656000  0.66702500  1
  O  O32  1  0.34213500  0.06782300  0.90555900  1
  O  O33  1  0.55843400  0.39059100  0.60539600  1
  O  O34  1  0.98177800  0.36274500  0.55074400  1
  O  O35  1  0.22810700  0.93436200  0.20561300  1
  O  O36  1  0.65786500  0.93217700  0.09444100  1
  O  O37  1  0.75391700  0.14016000  0.01692700  1
  O  O38  1  0.39059100  0.55843400  0.10539600  1
  O  O39  1  0.33318300  0.17577100  0.17167900  1
  O  O40  1  0.80189300  0.94400000  0.49528900  1
  O  O41  1  0.70821900  0.47187100  0.02996900  1
  O  O42  1  0.17577100  0.33318300  0.67167900  1
  O  O43  1  0.01822200  0.63725500  0.44925600  1
  O  O44  1  0.63725500  0.01822200  0.94925600  1
  O  O45  1  0.44156600  0.60940900  0.39460400  1
  O  O46  1  0.94400000  0.80189300  0.99528900  1
  O  O47  1  0.29178100  0.52812900  0.97003100  1
  O  O48  1  0.93217700  0.65786500  0.59444100  1
  O  O49  1  0.86094900  0.00727500  0.62193800  1
  O  O50  1  0.66681700  0.82422900  0.82832100  1
  O  O51  1  0.82422900  0.66681700  0.32832100  1
  O  O52  1  0.50154200  0.09684300  0.61810200  1
  O  O53  1  0.42244900  0.20584000  0.74841800  1
  O  O54  1  0.14016000  0.75391700  0.51692700  1
  O  O55  1  0.47187100  0.70821900  0.52996900  1
loop_
_geom_bond_atom_site_label_1
_geom_bond_atom_site_label_2
_geom_bond_distance
_geom_bond_site_symmetry_2
Na0 O46 2.438029 1_454
Na0 O27 2.438029 1_555
Na0 O30 2.522843 1_555
Na0 O12 2.522843 1_454
Na0 O47 2.674618 1_554
Na0 O41 2.674618 1_455
Na1 O35 2.369495 1_645
Na1 O18 2.369495 1_645
Na1 O14 2.444142 1_555
Na1 O10 2.444142 1_555
Na1 O15 2.614286 1_555
Na1 O5 2.614286 1_555
Na2 O40 2.438029 1_545
Na2 O29 2.438029 1_555
Na2 O52 2.522843 1_555
Na2 O0 2.522843 1_545
Na2 O19 2.674618 1_555
Na2 O55 2.674618 1_545
Na3 O9 2.369495 1_465
Na3 O28 2.369495 1_465
Na3 O20 2.444142 1_555
Na3 O31 2.444142 1_555
Na3 O3 2.614286 1_555
Na3 O8 2.614286 1_555
Li0 O10 2.007913 1_555
Li0 O15 2.072309 1_555
Li0 O21 2.103770 1_645
Li0 O36 2.106764 1_545
Li0 O37 2.220095 1_555
Li1 O8 1.976121 1_555
Li1 O23 2.034198 1_555
Li1 O20 2.048066 1_555
Li1 O24 2.061421 1_555
Li2 O3 1.976121 1_555
Li2 O6 2.034198 1_555
Li2 O31 2.048066 1_555
Li2 O53 2.061421 1_555
Li3 O5 1.976121 1_555
Li3 O2 2.034198 1_555
Li3 O14 2.048066 1_555
Li3 O13 2.061421 1_555
Li4 O15 1.976121 1_555
Li4 O7 2.034198 1_555
Li4 O10 2.048066 1_555
Li4 O17 2.061421 1_555
Li5 O14 2.007913 1_555
Li5 O5 2.072309 1_555
Li5 O16 2.103770 1_645
Li5 O26 2.106764 1_655
Li5 O22 2.220095 1_555
Li6 O20 2.007913 1_555
Li6 O8 2.072309 1_555
Li6 O4 2.103770 1_465
Li6 O32 2.106764 1_565
Li6 O11 2.220095 1_555
Li7 O31 2.007913 1_555
Li7 O3 2.072309 1_555
Li7 O49 2.103770 1_465
Li7 O48 2.106764 1_455
Li7 O54 2.220095 1_555
Mo0 O49 1.732230 1_555
Mo0 O33 1.990307 1_555
Mo0 O22 2.072349 1_555
Mo0 O52 2.076560 1_555
Mo0 O40 2.120553 1_545
Mo0 O19 2.142013 1_555
Mo1 O16 1.732230 1_555
Mo1 O45 1.990307 1_555
Mo1 O54 2.072349 1_555
Mo1 O0 2.076560 1_555
Mo1 O29 2.120553 1_565
Mo1 O55 2.142013 1_555
Mo2 O21 1.732230 1_555
Mo2 O38 1.990307 1_555
Mo2 O11 2.072349 1_554
Mo2 O30 2.076560 1_555
Mo2 O46 2.120553 1_454
Mo2 O47 2.142013 1_554
Mo3 O35 1.708438 1_555
Mo3 O25 2.037547 1_555
Mo3 O13 2.059336 1_555
Mo3 O39 2.081434 1_565
Mo3 O2 2.094746 1_555
Mo3 O36 2.134624 1_555
Mo4 O18 1.708438 1_555
Mo4 O43 2.037547 1_555
Mo4 O17 2.059336 1_555
Mo4 O51 2.081434 1_455
Mo4 O7 2.094746 1_555
Mo4 O26 2.134624 1_555
Mo5 O4 1.732230 1_555
Mo5 O1 1.990307 1_555
Mo5 O37 2.072349 1_556
Mo5 O12 2.076560 1_555
Mo5 O27 2.120553 1_656
Mo5 O41 2.142013 1_556
Mo6 O28 1.708438 1_555
Mo6 O44 2.037547 1_555
Mo6 O53 2.059336 1_555
Mo6 O50 2.081434 1_545
Mo6 O6 2.094746 1_555
Mo6 O32 2.134624 1_555
Mo7 O9 1.708438 1_555
Mo7 O34 2.037547 1_555
Mo7 O24 2.059336 1_555
Mo7 O42 2.081434 1_655
Mo7 O23 2.094746 1_555
Mo7 O48 2.134624 1_555
O0 P9 1.570066 1_555
O1 P6 1.552067 1_555
O2 P5 1.575051 1_555
O3 P10 1.524501 1_455
O5 P0 1.524501 1_655
O6 P6 1.575051 1_555
O7 P1 1.575051 1_555
O8 P7 1.524501 1_565
O10 P5 1.531914 1_555
O11 P4 1.560098 1_565
O12 P10 1.570066 1_555
O13 P9 1.576147 1_555
O14 P1 1.531914 1_555
O15 P9 1.524501 1_545
O17 P0 1.576147 1_555
O19 P1 1.543793 1_555
O20 P6 1.531914 1_555
O22 P2 1.560098 1_655
O23 P3 1.575051 1_555
O24 P10 1.576147 1_555
O25 P4 1.519917 1_564
O26 P2 1.547893 1_555
O27 P4 1.555254 1_554
O29 P2 1.555254 1_555
O30 P0 1.570066 1_555
O31 P3 1.531914 1_555
O32 P4 1.547893 1_555
O33 P3 1.552067 1_555
O34 P2 1.519917 1_655
O36 P11 1.547893 1_555
O37 P11 1.560098 1_545
O38 P5 1.552067 1_555
O39 P0 1.548051 1_555
O40 P8 1.555254 1_555
O41 P5 1.543793 1_555
O42 P7 1.548051 1_555
O43 P8 1.519917 1_455
O44 P11 1.519917 1_546
O45 P1 1.552067 1_555
O46 P11 1.555254 1_556
O47 P6 1.543793 1_555
O48 P8 1.547893 1_555
O50 P10 1.548051 1_555
O51 P9 1.548051 1_555
O52 P7 1.570066 1_555
O53 P7 1.576147 1_555
O54 P8 1.560098 1_455
O55 P3 1.543793 1_555
