# generated using pymatgen
data_Bi5BrO7
_symmetry_space_group_name_H-M   'P 1'
_cell_length_a   8.67560410
_cell_length_b   8.67560410
_cell_length_c   23.77379100
_cell_angle_alpha   90.00000000
_cell_angle_beta   90.00000000
_cell_angle_gamma   143.43798119
_symmetry_Int_Tables_number   1
_chemical_formula_structural   Bi5BrO7
_chemical_formula_sum   'Bi20 Br4 O28'
_cell_volume   1065.90884427
_cell_formula_units_Z   4
loop_
 _symmetry_equiv_pos_site_id
 _symmetry_equiv_pos_as_xyz
  1  'x, y, z'
loop_
 _atom_site_type_symbol
 _atom_site_label
 _atom_site_symmetry_multiplicity
 _atom_site_fract_x
 _atom_site_fract_y
 _atom_site_fract_z
 _atom_site_occupancy
  Bi  Bi0  1  0.38576900  0.04259000  0.06082900  1
  Bi  Bi1  1  0.28415000  0.28415000  0.20169400  1
  Bi  Bi2  1  0.78415000  0.78415000  0.29830600  1
  Bi  Bi3  1  0.98516900  0.63430000  0.19073600  1
  Bi  Bi4  1  0.01483100  0.36570000  0.80926400  1
  Bi  Bi5  1  0.13430000  0.48516900  0.30926400  1
  Bi  Bi6  1  0.51483100  0.86570000  0.69073600  1
  Bi  Bi7  1  0.88576900  0.54259000  0.43917100  1
  Bi  Bi8  1  0.11423100  0.45741000  0.56082900  1
  Bi  Bi9  1  0.63430000  0.98516900  0.19073600  1
  Bi  Bi10  1  0.86570000  0.51483100  0.69073600  1
  Bi  Bi11  1  0.61423100  0.95741000  0.93917100  1
  Bi  Bi12  1  0.21585000  0.21585000  0.70169400  1
  Bi  Bi13  1  0.45741000  0.11423100  0.56082900  1
  Bi  Bi14  1  0.95741000  0.61423100  0.93917100  1
  Bi  Bi15  1  0.04259000  0.38576900  0.06082900  1
  Bi  Bi16  1  0.54259000  0.88576900  0.43917100  1
  Bi  Bi17  1  0.36570000  0.01483100  0.80926400  1
  Bi  Bi18  1  0.71585000  0.71585000  0.79830600  1
  Bi  Bi19  1  0.48516900  0.13430000  0.30926400  1
  Br  Br0  1  0.31887900  0.31887900  0.39478400  1
  Br  Br1  1  0.81887900  0.81887900  0.10521600  1
  Br  Br2  1  0.68112100  0.68112100  0.60521600  1
  Br  Br3  1  0.18112100  0.18112100  0.89478400  1
  O  O0  1  0.99284000  0.61150100  0.85023500  1
  O  O1  1  0.27011500  0.77011500  0.25000000  1
  O  O2  1  0.61150100  0.99284000  0.85023500  1
  O  O3  1  0.72988500  0.22988500  0.75000000  1
  O  O4  1  0.55397700  0.39086000  0.74696300  1
  O  O5  1  0.39086000  0.55397700  0.74696300  1
  O  O6  1  0.11150100  0.49284000  0.64976500  1
  O  O7  1  0.62993000  0.03880400  0.04996600  1
  O  O8  1  0.49284000  0.11150100  0.64976500  1
  O  O9  1  0.53880400  0.12993000  0.45003400  1
  O  O10  1  0.37007000  0.96119600  0.95003400  1
  O  O11  1  0.77011500  0.27011500  0.25000000  1
  O  O12  1  0.60914000  0.44602300  0.25303700  1
  O  O13  1  0.05397700  0.89086000  0.75303700  1
  O  O14  1  0.03880400  0.62993000  0.04996600  1
  O  O15  1  0.50716000  0.88849900  0.35023500  1
  O  O16  1  0.96119600  0.37007000  0.95003400  1
  O  O17  1  0.10914000  0.94602300  0.24696300  1
  O  O18  1  0.94602300  0.10914000  0.24696300  1
  O  O19  1  0.22988500  0.72988500  0.75000000  1
  O  O20  1  0.38849900  0.00716000  0.14976500  1
  O  O21  1  0.89086000  0.05397700  0.75303700  1
  O  O22  1  0.00716000  0.38849900  0.14976500  1
  O  O23  1  0.44602300  0.60914000  0.25303700  1
  O  O24  1  0.88849900  0.50716000  0.35023500  1
  O  O25  1  0.12993000  0.53880400  0.45003400  1
  O  O26  1  0.87007000  0.46119600  0.54996600  1
  O  O27  1  0.46119600  0.87007000  0.54996600  1
loop_
_geom_bond_atom_site_label_1
_geom_bond_atom_site_label_2
_geom_bond_distance
_geom_bond_site_symmetry_2
Bi0 O20 2.139438 1_555
Bi0 O14 2.152415 1_545
Bi0 O7 2.160208 1_555
Bi0 O10 2.701987 1_544
Bi1 O17 2.216711 1_545
Bi1 O18 2.216711 1_455
Bi1 O23 2.247420 1_555
Bi1 O12 2.247420 1_555
Bi1 Br1 3.416649 1_445
Bi2 O23 2.216711 1_555
Bi2 O12 2.216711 1_555
Bi2 O17 2.247420 1_655
Bi2 O18 2.247420 1_565
Bi2 Br0 3.416649 1_555
Bi3 O1 2.192124 1_655
Bi3 O20 2.339546 1_665
Bi3 O17 2.363218 1_655
Bi3 O11 2.445210 1_555
Bi3 O22 2.487197 1_655
Bi3 O12 2.635179 1_555
Bi4 O3 2.192124 1_455
Bi4 O2 2.339546 1_445
Bi4 O21 2.363218 1_455
Bi4 O19 2.445210 1_555
Bi4 O0 2.487197 1_455
Bi4 O5 2.635179 1_555
Bi5 O1 2.192124 1_555
Bi5 O15 2.339546 1_555
Bi5 O23 2.363218 1_555
Bi5 O11 2.445210 1_455
Bi5 O24 2.487197 1_455
Bi5 O18 2.635179 1_455
Bi6 O19 2.192124 1_555
Bi6 O6 2.339546 1_555
Bi6 O5 2.363218 1_555
Bi6 O3 2.445210 1_565
Bi6 O8 2.487197 1_565
Bi6 O21 2.635179 1_565
Bi7 O24 2.139438 1_555
Bi7 O9 2.152415 1_555
Bi7 O25 2.160208 1_655
Bi7 O26 2.701987 1_555
Bi8 O6 2.139438 1_555
Bi8 O27 2.152415 1_555
Bi8 O26 2.160208 1_455
Bi8 O25 2.701987 1_555
Bi9 O11 2.192124 1_565
Bi9 O22 2.339546 1_665
Bi9 O18 2.363218 1_565
Bi9 O1 2.445210 1_555
Bi9 O20 2.487197 1_565
Bi9 O23 2.635179 1_555
Bi10 O3 2.192124 1_555
Bi10 O8 2.339546 1_555
Bi10 O4 2.363218 1_555
Bi10 O19 2.445210 1_655
Bi10 O6 2.487197 1_655
Bi10 O13 2.635179 1_655
Bi11 O2 2.139438 1_555
Bi11 O16 2.152415 1_565
Bi11 O10 2.160208 1_555
Bi11 O7 2.701987 1_566
Bi12 O5 2.216711 1_555
Bi12 O4 2.216711 1_555
Bi12 O13 2.247420 1_545
Bi12 O21 2.247420 1_455
Bi12 Br2 3.416649 1_555
Bi13 O8 2.139438 1_555
Bi13 O26 2.152415 1_555
Bi13 O27 2.160208 1_545
Bi13 O9 2.701987 1_555
Bi14 O0 2.139438 1_555
Bi14 O10 2.152415 1_655
Bi14 O16 2.160208 1_555
Bi14 O14 2.701987 1_656
Bi15 O22 2.139438 1_555
Bi15 O7 2.152415 1_455
Bi15 O14 2.160208 1_555
Bi15 O16 2.701987 1_454
Bi16 O15 2.139438 1_555
Bi16 O25 2.152415 1_555
Bi16 O9 2.160208 1_565
Bi16 O27 2.701987 1_555
Bi17 O19 2.192124 1_545
Bi17 O0 2.339546 1_445
Bi17 O13 2.363218 1_545
Bi17 O3 2.445210 1_555
Bi17 O2 2.487197 1_545
Bi17 O4 2.635179 1_555
Bi18 O13 2.216711 1_655
Bi18 O21 2.216711 1_565
Bi18 O4 2.247420 1_555
Bi18 O5 2.247420 1_555
Bi18 Br3 3.416649 1_665
Bi19 O11 2.192124 1_555
Bi19 O24 2.339546 1_555
Bi19 O12 2.363218 1_555
Bi19 O1 2.445210 1_545
Bi19 O15 2.487197 1_545
Bi19 O17 2.635179 1_545
