# generated using pymatgen
data_Ba3SrIr2O9
_symmetry_space_group_name_H-M   'P 1'
_cell_length_a   6.05654184
_cell_length_b   6.05654184
_cell_length_c   15.06945785
_cell_angle_alpha   88.43120587
_cell_angle_beta   88.43120587
_cell_angle_gamma   119.42508238
_symmetry_Int_Tables_number   1
_chemical_formula_structural   Ba3SrIr2O9
_chemical_formula_sum   'Ba6 Sr2 Ir4 O18'
_cell_volume   480.75502477
_cell_formula_units_Z   2
loop_
 _symmetry_equiv_pos_site_id
 _symmetry_equiv_pos_as_xyz
  1  'x, y, z'
loop_
 _atom_site_type_symbol
 _atom_site_label
 _atom_site_symmetry_multiplicity
 _atom_site_fract_x
 _atom_site_fract_y
 _atom_site_fract_z
 _atom_site_occupancy
  Ba  Ba0  1  0.98849800  0.01150200  0.25000000  1
  Ba  Ba1  1  0.01150200  0.98849800  0.75000000  1
  Ba  Ba2  1  0.32677200  0.65899200  0.09143900  1
  Ba  Ba3  1  0.67322800  0.34100800  0.90856100  1
  Ba  Ba4  1  0.65899200  0.32677200  0.59143900  1
  Ba  Ba5  1  0.34100800  0.67322800  0.40856100  1
  Sr  Sr0  1  0.00000000  0.00000000  0.00000000  1
  Sr  Sr1  1  0.00000000  0.00000000  0.50000000  1
  Ir  Ir0  1  0.68979200  0.36071800  0.33403800  1
  Ir  Ir1  1  0.31020800  0.63928200  0.66596200  1
  Ir  Ir2  1  0.36071800  0.68979200  0.83403800  1
  Ir  Ir3  1  0.63928200  0.31020800  0.16596200  1
  O  O0  1  0.68269000  0.86726900  0.89191200  1
  O  O1  1  0.50940200  0.49059800  0.25000000  1
  O  O2  1  0.12989500  0.77033700  0.59592900  1
  O  O3  1  0.51112300  0.03374500  0.26665300  1
  O  O4  1  0.22966300  0.87010500  0.90407100  1
  O  O5  1  0.96625500  0.48887700  0.23334700  1
  O  O6  1  0.31731000  0.13273100  0.10808800  1
  O  O7  1  0.87010500  0.22966300  0.40407100  1
  O  O8  1  0.48887700  0.96625500  0.73334700  1
  O  O9  1  0.49059800  0.50940200  0.75000000  1
  O  O10  1  0.86726900  0.68269000  0.39191200  1
  O  O11  1  0.76553600  0.58108200  0.07394100  1
  O  O12  1  0.58108200  0.76553600  0.57394100  1
  O  O13  1  0.23446400  0.41891800  0.92605900  1
  O  O14  1  0.03374500  0.51112300  0.76665300  1
  O  O15  1  0.41891800  0.23446400  0.42605900  1
  O  O16  1  0.13273100  0.31731000  0.60808800  1
  O  O17  1  0.77033700  0.12989500  0.09592900  1
loop_
_geom_bond_atom_site_label_1
_geom_bond_atom_site_label_2
_geom_bond_distance
_geom_bond_site_symmetry_2
Ba0 O6 2.706010 1_655
Ba0 O10 2.706010 1_545
Ba0 O17 2.942507 1_555
Ba0 O7 2.942507 1_555
Ba0 O3 2.963989 1_555
Ba0 O5 2.963989 1_555
Ba0 O1 3.062364 1_545
Ba0 O1 3.062364 1_655
Ba0 O5 3.118752 1_545
Ba0 O3 3.118752 1_655
Ba1 O16 2.706010 1_565
Ba1 O0 2.706010 1_455
Ba1 O4 2.942507 1_555
Ba1 O2 2.942507 1_555
Ba1 O8 2.963989 1_555
Ba1 O14 2.963989 1_555
Ba1 O9 3.062364 1_455
Ba1 O9 3.062364 1_565
Ba1 O14 3.118752 1_565
Ba1 O8 3.118752 1_455
Ba2 O5 2.795616 1_455
Ba2 O17 2.801426 1_565
Ba2 O13 2.848455 1_554
Ba2 O6 2.915278 1_565
Ba2 O11 2.924798 1_555
Ba2 O1 3.015414 1_555
Ba2 O6 3.162468 1_555
Ba2 O11 3.213457 1_455
Ba2 O4 3.253501 1_554
Ba2 O17 3.315909 1_455
Ba2 O3 3.371846 1_565
Ba2 O0 3.470481 1_554
Ba3 O14 2.795616 1_655
Ba3 O4 2.801426 1_545
Ba3 O11 2.848455 1_556
Ba3 O0 2.915278 1_545
Ba3 O13 2.924798 1_555
Ba3 O9 3.015414 1_555
Ba3 O0 3.162468 1_555
Ba3 O13 3.213457 1_655
Ba3 O17 3.253501 1_556
Ba3 O4 3.315909 1_655
Ba3 O8 3.371846 1_545
Ba3 O6 3.470481 1_556
Ba4 O8 2.795616 1_545
Ba4 O2 2.801426 1_655
Ba4 O15 2.848455 1_555
Ba4 O16 2.915278 1_655
Ba4 O12 2.924798 1_555
Ba4 O9 3.015414 1_555
Ba4 O16 3.162468 1_555
Ba4 O12 3.213457 1_545
Ba4 O7 3.253501 1_555
Ba4 O2 3.315909 1_545
Ba4 O14 3.371846 1_655
Ba4 O10 3.470481 1_555
Ba5 O3 2.795616 1_565
Ba5 O7 2.801426 1_455
Ba5 O12 2.848455 1_555
Ba5 O10 2.915278 1_455
Ba5 O15 2.924798 1_555
Ba5 O1 3.015414 1_555
Ba5 O10 3.162468 1_555
Ba5 O15 3.213457 1_565
Ba5 O2 3.253501 1_555
Ba5 O7 3.315909 1_565
Ba5 O5 3.371846 1_455
Ba5 O16 3.470481 1_555
Ir0 O15 1.945216 1_555
Ir0 O10 1.950270 1_555
Ir0 O7 1.950739 1_555
Ir0 O3 2.046582 1_555
Ir0 O5 2.056183 1_555
Ir0 O1 2.069265 1_555
Ir1 O12 1.945216 1_555
Ir1 O16 1.950270 1_555
Ir1 O2 1.950739 1_555
Ir1 O8 2.046582 1_555
Ir1 O14 2.056183 1_555
Ir1 O9 2.069265 1_555
Ir2 O13 1.945216 1_555
Ir2 O0 1.950270 1_555
Ir2 O4 1.950739 1_555
Ir2 O14 2.046582 1_555
Ir2 O8 2.056183 1_555
Ir2 O9 2.069265 1_555
Ir3 O11 1.945216 1_555
Ir3 O6 1.950270 1_555
Ir3 O17 1.950739 1_555
Ir3 O5 2.046582 1_555
Ir3 O3 2.056183 1_555
Ir3 O1 2.069265 1_555
O0 Sr0 2.391180 1_666
O2 Sr1 2.381353 1_565
O4 Sr0 2.381353 1_566
O6 Sr0 2.391180 1_555
O7 Sr1 2.381353 1_655
O10 Sr1 2.391180 1_665
O11 Sr0 2.431846 1_665
O12 Sr1 2.431846 1_665
O13 Sr0 2.431846 1_556
O15 Sr1 2.431846 1_555
O16 Sr1 2.391180 1_555
O17 Sr0 2.381353 1_655
