# generated using pymatgen
data_SiO2
_symmetry_space_group_name_H-M   'P 1'
_cell_length_a   6.86624337
_cell_length_b   6.86624337
_cell_length_c   13.58805900
_cell_angle_alpha   90.00000000
_cell_angle_beta   90.00000000
_cell_angle_gamma   119.99999389
_symmetry_Int_Tables_number   1
_chemical_formula_structural   SiO2
_chemical_formula_sum   'Si12 O24'
_cell_volume   554.78724427
_cell_formula_units_Z   12
loop_
 _symmetry_equiv_pos_site_id
 _symmetry_equiv_pos_as_xyz
  1  'x, y, z'
loop_
 _atom_site_type_symbol
 _atom_site_label
 _atom_site_symmetry_multiplicity
 _atom_site_fract_x
 _atom_site_fract_y
 _atom_site_fract_z
 _atom_site_occupancy
  Si  Si0  1  0.17727300  0.77225000  0.04889300  1
  Si  Si1  1  0.77225000  0.59497700  0.38222600  1
  Si  Si2  1  0.59497700  0.82272700  0.71556000  1
  Si  Si3  1  0.22775000  0.40502300  0.38222600  1
  Si  Si4  1  0.77225000  0.17727300  0.28444000  1
  Si  Si5  1  0.40502300  0.17727300  0.71556000  1
  Si  Si6  1  0.17727300  0.40502300  0.61777400  1
  Si  Si7  1  0.82272700  0.59497700  0.61777400  1
  Si  Si8  1  0.59497700  0.77225000  0.95110700  1
  Si  Si9  1  0.40502300  0.22775000  0.95110700  1
  Si  Si10  1  0.22775000  0.82272700  0.28444000  1
  Si  Si11  1  0.82272700  0.22775000  0.04889300  1
  O  O0  1  0.81233200  0.62466500  0.50000000  1
  O  O1  1  0.00000000  0.18348300  0.33333300  1
  O  O2  1  0.00000000  0.50000000  0.63702500  1
  O  O3  1  0.00000000  0.81651700  0.33333300  1
  O  O4  1  0.78743000  0.39371500  0.33333300  1
  O  O5  1  0.39371500  0.78743000  0.00000000  1
  O  O6  1  0.50000000  0.50000000  0.97035800  1
  O  O7  1  0.50000000  0.00000000  0.69630800  1
  O  O8  1  0.18348300  0.18348300  0.66666700  1
  O  O9  1  0.18766800  0.37533500  0.50000000  1
  O  O10  1  0.81651700  0.00000000  0.00000000  1
  O  O11  1  0.39371500  0.60628500  0.66666700  1
  O  O12  1  0.81651700  0.81651700  0.66666700  1
  O  O13  1  0.00000000  0.50000000  0.02964200  1
  O  O14  1  0.50000000  0.00000000  0.30369200  1
  O  O15  1  0.50000000  0.50000000  0.36297500  1
  O  O16  1  0.60628500  0.21257000  0.00000000  1
  O  O17  1  0.18766800  0.81233200  0.16666700  1
  O  O18  1  0.81233200  0.18766800  0.16666700  1
  O  O19  1  0.21257000  0.60628500  0.33333300  1
  O  O20  1  0.18348300  0.00000000  0.00000000  1
  O  O21  1  0.60628500  0.39371500  0.66666700  1
  O  O22  1  0.62466500  0.81233200  0.83333300  1
  O  O23  1  0.37533500  0.18766800  0.83333300  1
loop_
_geom_bond_atom_site_label_1
_geom_bond_atom_site_label_2
_geom_bond_distance
_geom_bond_site_symmetry_2
O0 Si1 1.619327 1_555
O0 Si7 1.619327 1_555
O1 Si4 1.679864 1_455
O1 Si3 1.679864 1_555
O2 Si7 1.664049 1_455
O2 Si6 1.664049 1_555
O3 Si10 1.679864 1_555
O3 Si1 1.679864 1_455
O4 Si1 1.583023 1_555
O4 Si4 1.583023 1_555
O5 Si8 1.583023 1_554
O5 Si0 1.583023 1_555
O6 Si9 1.664049 1_555
O6 Si8 1.664049 1_555
O7 Si2 1.664051 1_545
O7 Si5 1.664051 1_555
O8 Si5 1.679864 1_555
O8 Si6 1.679864 1_555
O9 Si3 1.619327 1_555
O9 Si6 1.619327 1_555
O10 Si11 1.679864 1_555
O10 Si8 1.679864 1_544
O11 Si2 1.583023 1_555
O11 Si6 1.583023 1_555
O12 Si2 1.679864 1_555
O12 Si7 1.679864 1_555
O13 Si11 1.664049 1_455
O13 Si0 1.664049 1_555
O14 Si10 1.664051 1_545
O14 Si4 1.664051 1_555
O15 Si3 1.664049 1_555
O15 Si1 1.664049 1_555
O16 Si9 1.583023 1_554
O16 Si11 1.583023 1_555
O17 Si10 1.619313 1_555
O17 Si0 1.619326 1_555
O18 Si4 1.619313 1_555
O18 Si11 1.619326 1_555
O19 Si3 1.583023 1_555
O19 Si10 1.583023 1_555
O20 Si0 1.679864 1_545
O20 Si9 1.679864 1_554
O21 Si5 1.583023 1_555
O21 Si7 1.583023 1_555
O22 Si2 1.619314 1_555
O22 Si8 1.619327 1_555
O23 Si5 1.619314 1_555
O23 Si9 1.619327 1_555
