# generated using pymatgen
data_Nd(Re2Si)2
_symmetry_space_group_name_H-M   'P 1'
_cell_length_a   4.17252208
_cell_length_b   7.26900161
_cell_length_c   15.52648567
_cell_angle_alpha   90.00000000
_cell_angle_beta   90.00000000
_cell_angle_gamma   90.00000000
_symmetry_Int_Tables_number   1
_chemical_formula_structural   Nd(Re2Si)2
_chemical_formula_sum   'Nd4 Re16 Si8'
_cell_volume   470.91939284
_cell_formula_units_Z   4
loop_
 _symmetry_equiv_pos_site_id
 _symmetry_equiv_pos_as_xyz
  1  'x, y, z'
loop_
 _atom_site_type_symbol
 _atom_site_label
 _atom_site_symmetry_multiplicity
 _atom_site_fract_x
 _atom_site_fract_y
 _atom_site_fract_z
 _atom_site_occupancy
  Nd  Nd0  1  -0.00000000  0.58204983  0.11803441  1
  Nd  Nd1  1  0.00000000  0.41795017  0.88196559  1
  Nd  Nd2  1  0.50000000  0.08204983  0.38196559  1
  Nd  Nd3  1  0.50000000  0.91795017  0.61803441  1
  Re  Re0  1  -0.00000000  0.13599800  0.05256438  1
  Re  Re1  1  -0.00000000  0.86400200  0.94743562  1
  Re  Re2  1  0.50000000  0.63599800  0.44743562  1
  Re  Re3  1  0.50000000  0.36400200  0.55256438  1
  Re  Re4  1  0.00000000  0.73240127  0.31986771  1
  Re  Re5  1  -0.00000000  0.26759873  0.68013229  1
  Re  Re6  1  0.50000000  0.23240127  0.18013229  1
  Re  Re7  1  0.50000000  0.76759873  0.81986771  1
  Re  Re8  1  -0.00000000  0.43586719  0.41889961  1
  Re  Re9  1  0.00000000  0.56413281  0.58110039  1
  Re  Re10  1  0.50000000  0.93586719  0.08110039  1
  Re  Re11  1  0.50000000  0.06413281  0.91889961  1
  Re  Re12  1  -0.00000000  0.99428135  0.20723951  1
  Re  Re13  1  0.00000000  0.00571865  0.79276049  1
  Re  Re14  1  0.50000000  0.49428135  0.29276049  1
  Re  Re15  1  0.50000000  0.50571865  0.70723951  1
  Si  Si0  1  0.00000000  0.82542749  0.47462108  1
  Si  Si1  1  -0.00000000  0.17457251  0.52537892  1
  Si  Si2  1  0.50000000  0.32542749  0.02537892  1
  Si  Si3  1  0.50000000  0.67457251  0.97462108  1
  Si  Si4  1  -0.00000000  0.29759017  0.27372593  1
  Si  Si5  1  -0.00000000  0.70240983  0.72627407  1
  Si  Si6  1  0.50000000  0.79759017  0.22627407  1
  Si  Si7  1  0.50000000  0.20240983  0.77372593  1
loop_
_geom_bond_atom_site_label_1
_geom_bond_atom_site_label_2
_geom_bond_distance
_geom_bond_site_symmetry_2
Nd0 Si6 3.103480 1_455
Nd0 Si6 3.103480 1_555
Nd0 Si3 3.124583 1_454
Nd0 Si3 3.124583 1_554
Nd0 Si2 3.146708 1_555
Nd0 Si2 3.146708 1_455
Nd0 Si4 3.181051 1_555
Nd0 Re12 3.301124 1_555
Nd0 Re4 3.318871 1_555
Nd0 Re1 3.349124 1_554
Nd0 Re10 3.360952 1_455
Nd0 Re10 3.360952 1_555
Nd0 Re0 3.397963 1_555
Nd0 Re6 3.426631 1_555
Nd0 Re6 3.426631 1_455
Nd0 Re14 3.481270 1_455
Nd0 Re14 3.481270 1_555
Nd1 Si7 3.103480 1_555
Nd1 Si7 3.103480 1_455
Nd1 Si2 3.124583 1_456
Nd1 Si2 3.124583 1_556
Nd1 Si3 3.146708 1_455
Nd1 Si3 3.146708 1_555
Nd1 Si5 3.181051 1_555
Nd1 Re13 3.301124 1_555
Nd1 Re5 3.318871 1_555
Nd1 Re0 3.349124 1_556
Nd1 Re11 3.360952 1_455
Nd1 Re11 3.360952 1_555
Nd1 Re1 3.397963 1_555
Nd1 Re7 3.426631 1_555
Nd1 Re7 3.426631 1_455
Nd1 Re15 3.481270 1_555
Nd1 Re15 3.481270 1_455
Nd2 Si4 3.103480 1_655
Nd2 Si4 3.103480 1_555
Nd2 Si1 3.124583 1_555
Nd2 Si1 3.124583 1_655
Nd2 Si0 3.146708 1_645
Nd2 Si0 3.146708 1_545
Nd2 Si6 3.181051 1_545
Nd2 Re14 3.301124 1_555
Nd2 Re6 3.318871 1_555
Nd2 Re3 3.349124 1_555
Nd2 Re8 3.360952 1_655
Nd2 Re8 3.360952 1_555
Nd2 Re2 3.397963 1_545
Nd2 Re4 3.426631 1_645
Nd2 Re4 3.426631 1_545
Nd2 Re12 3.481270 1_545
Nd2 Re12 3.481270 1_645
Nd3 Si5 3.103480 1_555
Nd3 Si5 3.103480 1_655
Nd3 Si0 3.124583 1_555
Nd3 Si0 3.124583 1_655
Nd3 Si1 3.146708 1_665
Nd3 Si1 3.146708 1_565
Nd3 Si7 3.181051 1_565
Nd3 Re15 3.301124 1_555
Nd3 Re7 3.318871 1_555
Nd3 Re2 3.349124 1_555
Nd3 Re9 3.360952 1_655
Nd3 Re9 3.360952 1_555
Nd3 Re3 3.397963 1_565
Nd3 Re5 3.426631 1_565
Nd3 Re5 3.426631 1_665
Nd3 Re13 3.481270 1_665
Nd3 Re13 3.481270 1_565
Re0 Si2 2.535089 1_455
Re0 Si2 2.535089 1_555
Re0 Re1 2.563868 1_544
Re0 Re10 2.581684 1_445
Re0 Re10 2.581684 1_545
Re0 Re12 2.613175 1_545
Re0 Re6 2.960852 1_455
Re0 Re6 2.960852 1_555
Re0 Re11 2.988717 1_454
Re0 Re11 2.988717 1_554
Re1 Si3 2.535089 1_455
Re1 Si3 2.535089 1_555
Re1 Re11 2.581684 1_565
Re1 Re11 2.581684 1_465
Re1 Re13 2.613175 1_565
Re1 Re7 2.960852 1_455
Re1 Re7 2.960852 1_555
Re1 Re10 2.988717 1_456
Re1 Re10 2.988717 1_556
Re2 Si0 2.535089 1_655
Re2 Si0 2.535089 1_555
Re2 Re3 2.563868 1_555
Re2 Re8 2.581684 1_655
Re2 Re8 2.581684 1_555
Re2 Re4 2.960852 1_655
Re2 Re4 2.960852 1_555
Re2 Re9 2.988717 1_655
Re2 Re9 2.988717 1_555
Re3 Si1 2.535089 1_555
Re3 Si1 2.535089 1_655
Re3 Re9 2.581684 1_555
Re3 Re9 2.581684 1_655
Re3 Re5 2.960852 1_555
Re3 Re5 2.960852 1_655
Re3 Re8 2.988717 1_655
Re3 Re8 2.988717 1_555
Re4 Si0 2.496115 1_555
Re4 Si6 2.586264 1_455
Re4 Si6 2.586264 1_555
Re4 Re8 2.647730 1_555
Re5 Si1 2.496115 1_555
Re5 Si7 2.586264 1_455
Re5 Si7 2.586264 1_555
Re5 Re9 2.647730 1_555
Re6 Si2 2.496115 1_555
Re6 Si4 2.586264 1_555
Re6 Si4 2.586264 1_655
Re7 Si3 2.496115 1_555
Re7 Si5 2.586264 1_555
Re7 Si5 2.586264 1_655
Re8 Si4 2.467991 1_555
Re8 Si1 2.518089 1_555
Re8 Re9 2.685457 1_555
Re8 Si0 2.960930 1_555
Re9 Si5 2.467991 1_555
Re9 Si0 2.518089 1_555
Re9 Si1 2.960930 1_555
Re10 Si6 2.467991 1_555
Re10 Si3 2.518089 1_554
Re10 Re6 2.647730 1_565
Re10 Re11 2.685457 1_564
Re10 Re12 2.892835 1_655
Re10 Re12 2.892835 1_555
Re10 Si2 2.960930 1_565
Re11 Si7 2.467991 1_555
Re11 Si2 2.518089 1_556
Re11 Re7 2.647730 1_545
Re11 Re13 2.892835 1_555
Re11 Re13 2.892835 1_655
Re11 Si3 2.960930 1_545
Re12 Si4 2.434456 1_565
Re12 Si6 2.546372 1_455
Re12 Si6 2.546372 1_555
Re12 Re4 2.584906 1_555
Re12 Re6 2.743286 1_465
Re12 Re6 2.743286 1_565
Re13 Si5 2.434456 1_545
Re13 Si7 2.546372 1_455
Re13 Si7 2.546372 1_555
Re13 Re5 2.584906 1_555
Re13 Re7 2.743286 1_545
Re13 Re7 2.743286 1_445
Re14 Si6 2.434456 1_555
Re14 Si4 2.546372 1_555
Re14 Si4 2.546372 1_655
Re14 Re6 2.584906 1_555
Re14 Re2 2.613175 1_555
Re14 Re4 2.743286 1_655
Re14 Re4 2.743286 1_555
Re14 Re8 2.892835 1_555
Re14 Re8 2.892835 1_655
Re15 Si7 2.434456 1_555
Re15 Si5 2.546372 1_655
Re15 Si5 2.546372 1_555
Re15 Re7 2.584906 1_555
Re15 Re3 2.613175 1_555
Re15 Re5 2.743286 1_655
Re15 Re5 2.743286 1_555
Re15 Re9 2.892835 1_555
Re15 Re9 2.892835 1_655
Si0 Si1 2.657481 1_565
Si2 Si3 2.657481 1_554
