# generated using pymatgen
data_CuH14C3NCl3O2
_symmetry_space_group_name_H-M   'P 1'
_cell_length_a   7.92857800
_cell_length_b   7.67801000
_cell_length_c   16.96909834
_cell_angle_alpha   87.31628244
_cell_angle_beta   90.00000000
_cell_angle_gamma   90.00000000
_symmetry_Int_Tables_number   1
_chemical_formula_structural   CuH14C3NCl3O2
_chemical_formula_sum   'Cu4 H56 C12 N4 Cl12 O8'
_cell_volume   1031.87278129
_cell_formula_units_Z   4
loop_
 _symmetry_equiv_pos_site_id
 _symmetry_equiv_pos_as_xyz
  1  'x, y, z'
loop_
 _atom_site_type_symbol
 _atom_site_label
 _atom_site_symmetry_multiplicity
 _atom_site_fract_x
 _atom_site_fract_y
 _atom_site_fract_z
 _atom_site_occupancy
  Cu  Cu0  1  0.00000000  0.00000000  0.00000000  1
  Cu  Cu1  1  0.50000000  0.50000000  0.50000000  1
  Cu  Cu2  1  0.00000000  0.50000000  0.00000000  1
  Cu  Cu3  1  0.50000000  0.00000000  0.50000000  1
  H  H0  1  0.79756600  0.53135800  0.69455300  1
  H  H1  1  0.39482600  0.89829700  0.26794800  1
  H  H2  1  0.88106000  0.41578400  0.23559100  1
  H  H3  1  0.38106000  0.58421600  0.26440900  1
  H  H4  1  0.01850700  0.37339400  0.63148800  1
  H  H5  1  0.81218300  0.40313500  0.48552400  1
  H  H6  1  0.31844700  0.59729200  0.71406600  1
  H  H7  1  0.05313400  0.24117500  0.72011400  1
  H  H8  1  0.31101500  0.90026300  0.01883700  1
  H  H9  1  0.22571100  0.01666000  0.31050600  1
  H  H10  1  0.72571100  0.98334000  0.18949400  1
  H  H11  1  0.68781700  0.40313500  0.98552400  1
  H  H12  1  0.80412400  0.08407800  0.78293200  1
  H  H13  1  0.94686600  0.75882500  0.27988600  1
  H  H14  1  0.44686600  0.24117500  0.22011400  1
  H  H15  1  0.68155300  0.40270800  0.28593400  1
  H  H16  1  0.30979900  0.43318300  0.96114900  1
  H  H17  1  0.18155300  0.59729200  0.21406600  1
  H  H18  1  0.70243400  0.53135800  0.19455300  1
  H  H19  1  0.80979900  0.56681700  0.53885100  1
  H  H20  1  0.31218300  0.59686500  0.01447600  1
  H  H21  1  0.68898500  0.09973700  0.98116300  1
  H  H22  1  0.76591100  0.27118600  0.12977800  1
  H  H23  1  0.18898500  0.90026300  0.51883700  1
  H  H24  1  0.61894000  0.41578400  0.73559100  1
  H  H25  1  0.89482600  0.10170300  0.23205200  1
  H  H26  1  0.80848400  0.92926500  0.53858400  1
  H  H27  1  0.81101500  0.09973700  0.48116300  1
  H  H28  1  0.48149300  0.37339400  0.13148800  1
  H  H29  1  0.69151600  0.92926500  0.03858400  1
  H  H30  1  0.98149300  0.62660600  0.36851200  1
  H  H31  1  0.10517400  0.89829700  0.76794800  1
  H  H32  1  0.19020100  0.43318300  0.46114900  1
  H  H33  1  0.69020100  0.56681700  0.03885100  1
  H  H34  1  0.29756600  0.46864200  0.80544700  1
  H  H35  1  0.26591100  0.72881400  0.37022200  1
  H  H36  1  0.27428900  0.01666000  0.81050600  1
  H  H37  1  0.99131900  0.85970700  0.37122600  1
  H  H38  1  0.23408900  0.72881400  0.87022200  1
  H  H39  1  0.19587600  0.91592200  0.21706800  1
  H  H40  1  0.55313400  0.75882500  0.77988600  1
  H  H41  1  0.60517400  0.10170300  0.73205200  1
  H  H42  1  0.19151600  0.07073500  0.46141600  1
  H  H43  1  0.11894000  0.58421600  0.76440900  1
  H  H44  1  0.77428900  0.98334000  0.68949400  1
  H  H45  1  0.30412400  0.91592200  0.71706800  1
  H  H46  1  0.81844700  0.40270800  0.78593400  1
  H  H47  1  0.00868100  0.14029300  0.62877400  1
  H  H48  1  0.51850700  0.62660600  0.86851200  1
  H  H49  1  0.49131900  0.14029300  0.12877400  1
  H  H50  1  0.30848400  0.07073500  0.96141600  1
  H  H51  1  0.50868100  0.85970700  0.87122600  1
  H  H52  1  0.73408900  0.27118600  0.62977800  1
  H  H53  1  0.69587600  0.08407800  0.28293200  1
  H  H54  1  0.18781700  0.59686500  0.51447600  1
  H  H55  1  0.20243400  0.46864200  0.30544700  1
  C  C0  1  0.25596300  0.58598000  0.77166800  1
  C  C1  1  0.51639300  0.25274500  0.16433200  1
  C  C2  1  0.98360700  0.25274500  0.66433200  1
  C  C3  1  0.48360700  0.74725500  0.83566800  1
  C  C4  1  0.01639300  0.74725500  0.33566800  1
  C  C5  1  0.75596300  0.41402000  0.72833200  1
  C  C6  1  0.24403700  0.58598000  0.27166800  1
  C  C7  1  0.75792900  0.09385400  0.22513400  1
  C  C8  1  0.25792900  0.90614600  0.27486600  1
  C  C9  1  0.24207100  0.90614600  0.77486600  1
  C  C10  1  0.74403700  0.41402000  0.22833200  1
  C  C11  1  0.74207100  0.09385400  0.72513400  1
  N  N0  1  0.20034900  0.74188600  0.31717200  1
  N  N1  1  0.70034900  0.25811400  0.18282800  1
  N  N2  1  0.79965100  0.25811400  0.68282800  1
  N  N3  1  0.29965100  0.74188600  0.81717200  1
  Cl  Cl0  1  0.00475500  0.25548300  0.42190000  1
  Cl  Cl1  1  0.00715800  0.79022100  0.09920900  1
  Cl  Cl2  1  0.99284200  0.20977900  0.90079100  1
  Cl  Cl3  1  0.50715800  0.20977900  0.40079100  1
  Cl  Cl4  1  0.49284200  0.79022100  0.59920900  1
  Cl  Cl5  1  0.57949100  0.69372800  0.39972800  1
  Cl  Cl6  1  0.50475500  0.74451700  0.07810000  1
  Cl  Cl7  1  0.92050900  0.69372800  0.89972800  1
  Cl  Cl8  1  0.07949100  0.30627200  0.10027200  1
  Cl  Cl9  1  0.49524500  0.25548300  0.92190000  1
  Cl  Cl10  1  0.99524500  0.74451700  0.57810000  1
  Cl  Cl11  1  0.42050900  0.30627200  0.60027200  1
  O  O0  1  0.24774800  0.54289100  0.97165300  1
  O  O1  1  0.25545100  0.96233100  0.47646900  1
  O  O2  1  0.74774800  0.45710900  0.52834700  1
  O  O3  1  0.75225200  0.45710900  0.02834700  1
  O  O4  1  0.24454900  0.96233100  0.97646900  1
  O  O5  1  0.74454900  0.03766900  0.52353100  1
  O  O6  1  0.25225200  0.54289100  0.47165300  1
  O  O7  1  0.75545100  0.03766900  0.02353100  1
loop_
_geom_bond_atom_site_label_1
_geom_bond_atom_site_label_2
_geom_bond_distance
_geom_bond_site_symmetry_2
Cu0 O4 2.003332 1_544
Cu0 O7 2.003332 1_455
Cu1 O2 2.045344 1_555
Cu1 O6 2.045344 1_555
Cu2 O0 2.045344 1_554
Cu2 O3 2.045344 1_455
Cu3 O1 2.003332 1_545
Cu3 O5 2.003332 1_555
H5 O2 0.994475 1_555
H8 O4 0.994795 1_554
H11 O3 0.994475 1_556
H16 O0 0.998702 1_555
H19 O2 0.998702 1_555
H20 O0 0.994475 1_554
H21 O7 0.994795 1_556
H22 N1 1.040287 1_555
H23 O1 0.994795 1_555
H26 O5 0.997531 1_565
H27 O5 0.994795 1_555
H29 O7 0.997531 1_565
H32 O6 0.998702 1_555
H33 O3 0.998702 1_555
H35 N0 1.040287 1_555
H38 N3 1.040287 1_555
H42 O1 0.997531 1_545
H50 O4 0.997531 1_545
H52 N2 1.040287 1_555
H54 O6 0.994475 1_555
C0 H43 1.093514 1_555
C0 H6 1.095646 1_555
C0 H34 1.095747 1_555
C0 N3 1.495225 1_555
C1 H28 1.094054 1_555
C1 H49 1.094466 1_555
C1 H14 1.095395 1_555
C1 N1 1.492873 1_555
C2 H4 1.094054 1_655
C2 H47 1.094466 1_655
C2 H7 1.095395 1_655
C2 N2 1.492873 1_555
C3 H48 1.094054 1_555
C3 H51 1.094466 1_555
C3 H40 1.095395 1_555
C3 N3 1.492873 1_555
C4 H30 1.094054 1_455
C4 H37 1.094466 1_455
C4 H13 1.095395 1_455
C4 N0 1.492873 1_555
C5 H24 1.093514 1_555
C5 H46 1.095646 1_555
C5 H0 1.095747 1_555
C5 N2 1.495225 1_555
C6 H3 1.093514 1_555
C6 H17 1.095646 1_555
C6 H55 1.095747 1_555
C6 N0 1.495225 1_555
C7 H25 1.093693 1_555
C7 H10 1.095018 1_545
C7 H53 1.096688 1_555
C7 N1 1.493186 1_555
C8 H1 1.093693 1_555
C8 H9 1.095018 1_565
C8 H39 1.096688 1_555
C8 N0 1.493186 1_555
C9 H31 1.093693 1_555
C9 H36 1.095018 1_565
C9 H45 1.096688 1_555
C9 N3 1.493186 1_555
C10 H2 1.093514 1_555
C10 H15 1.095646 1_555
C10 H18 1.095747 1_555
C10 N1 1.495225 1_555
C11 H41 1.093693 1_555
C11 H44 1.095018 1_545
C11 H12 1.096688 1_555
C11 N2 1.493186 1_555
Cl1 Cu0 2.275463 1_565
Cl1 Cu2 2.855531 1_555
Cl2 Cu0 2.275463 1_656
Cl2 Cu2 2.855531 1_656
Cl3 Cu3 2.275463 1_555
Cl3 Cu1 2.855531 1_555
Cl4 Cu3 2.275463 1_565
Cl4 Cu1 2.855531 1_555
Cl5 Cu1 2.295188 1_555
Cl7 Cu2 2.295188 1_656
Cl8 Cu2 2.295188 1_555
Cl11 Cu1 2.295188 1_555
