# generated using pymatgen
data_Ba5Hf4S13
_symmetry_space_group_name_H-M   'P 1'
_cell_length_a   23.15322739
_cell_length_b   23.15322739
_cell_length_c   23.15322739
_cell_angle_alpha   167.59249077
_cell_angle_beta   167.59249077
_cell_angle_gamma   17.58149923
_symmetry_Int_Tables_number   1
_chemical_formula_structural   Ba5Hf4S13
_chemical_formula_sum   'Ba5 Hf4 S13'
_cell_volume   572.96605181
_cell_formula_units_Z   1
loop_
 _symmetry_equiv_pos_site_id
 _symmetry_equiv_pos_as_xyz
  1  'x, y, z'
loop_
 _atom_site_type_symbol
 _atom_site_label
 _atom_site_symmetry_multiplicity
 _atom_site_fract_x
 _atom_site_fract_y
 _atom_site_fract_z
 _atom_site_occupancy
  Ba  Ba0  1  0.71102100  0.71102100  0.00000000  1
  Ba  Ba1  1  0.60745100  0.60745100  0.00000000  1
  Ba  Ba2  1  0.28897900  0.28897900  0.00000000  1
  Ba  Ba3  1  0.50000000  0.50000000  0.00000000  1
  Ba  Ba4  1  0.39254900  0.39254900  0.00000000  1
  Hf  Hf0  1  0.83383800  0.83383800  0.00000000  1
  Hf  Hf1  1  0.05526500  0.05526500  0.00000000  1
  Hf  Hf2  1  0.16616200  0.16616200  0.00000000  1
  Hf  Hf3  1  0.94473500  0.94473500  0.00000000  1
  S  S0  1  0.89023300  0.89023300  0.00000000  1
  S  S1  1  0.33657600  0.83657600  0.50000000  1
  S  S2  1  0.44524000  0.94524000  0.50000000  1
  S  S3  1  0.05476000  0.55476000  0.50000000  1
  S  S4  1  0.10976700  0.10976700  0.00000000  1
  S  S5  1  0.77947200  0.77947200  0.00000000  1
  S  S6  1  0.22052800  0.22052800  0.00000000  1
  S  S7  1  0.83657600  0.33657600  0.50000000  1
  S  S8  1  0.16342400  0.66342400  0.50000000  1
  S  S9  1  0.94524000  0.44524000  0.50000000  1
  S  S10  1  0.66342400  0.16342400  0.50000000  1
  S  S11  1  0.00000000  0.00000000  0.00000000  1
  S  S12  1  0.55476000  0.05476000  0.50000000  1
loop_
_geom_bond_atom_site_label_1
_geom_bond_atom_site_label_2
_geom_bond_distance
_geom_bond_site_symmetry_2
Ba0 S5 3.132489 1_555
Ba0 S10 3.317316 1_565
Ba0 S8 3.317316 1_655
Ba0 S8 3.317316 1_554
Ba0 S10 3.317316 1_554
Ba0 S6 3.565068 1_655
Ba0 S6 3.565068 1_554
Ba0 S6 3.565068 1_666
Ba0 S6 3.565068 1_565
Ba1 S3 3.474830 1_554
Ba1 S12 3.474830 1_554
Ba1 S12 3.474830 1_565
Ba1 S3 3.474830 1_655
Ba1 S4 3.540009 1_554
Ba1 S4 3.540009 1_565
Ba1 S4 3.540009 1_655
Ba1 S4 3.540009 1_666
Ba1 S10 3.580686 1_565
Ba1 S8 3.580686 1_655
Ba1 S10 3.580686 1_554
Ba1 S8 3.580686 1_554
Ba2 S6 3.132489 1_555
Ba2 S7 3.317316 1_555
Ba2 S7 3.317316 1_454
Ba2 S1 3.317316 1_555
Ba2 S1 3.317316 1_544
Ba2 S5 3.565068 1_455
Ba2 S5 3.565068 1_556
Ba2 S5 3.565068 1_444
Ba2 S5 3.565068 1_545
Ba3 S11 3.538422 1_655
Ba3 S11 3.538422 1_554
Ba3 S11 3.538422 1_565
Ba3 S11 3.538422 1_666
Ba3 S2 3.541189 1_544
Ba3 S9 3.541189 1_454
Ba3 S9 3.541189 1_555
Ba3 S2 3.541189 1_555
Ba3 S3 3.541189 1_655
Ba3 S12 3.541189 1_565
Ba3 S12 3.541189 1_554
Ba3 S3 3.541189 1_554
Ba4 S2 3.474830 1_555
Ba4 S2 3.474830 1_544
Ba4 S9 3.474830 1_454
Ba4 S9 3.474830 1_555
Ba4 S0 3.540009 1_545
Ba4 S0 3.540009 1_455
Ba4 S0 3.540009 1_444
Ba4 S0 3.540009 1_556
Ba4 S7 3.580686 1_555
Ba4 S1 3.580686 1_555
Ba4 S1 3.580686 1_544
Ba4 S7 3.580686 1_454
Hf0 S5 2.487924 1_555
Hf0 S1 2.505177 1_655
Hf0 S7 2.505177 1_554
Hf0 S1 2.505177 1_554
Hf0 S7 2.505177 1_565
Hf0 S0 2.580776 1_555
Hf1 S4 2.494148 1_555
Hf1 S12 2.502149 1_454
Hf1 S12 2.502149 1_555
Hf1 S3 2.502149 1_555
Hf1 S3 2.502149 1_544
Hf1 S11 2.529064 1_555
Hf2 S6 2.487924 1_555
Hf2 S10 2.505177 1_454
Hf2 S8 2.505177 1_544
Hf2 S10 2.505177 1_555
Hf2 S8 2.505177 1_555
Hf2 S4 2.580776 1_555
Hf3 S0 2.494148 1_555
Hf3 S2 2.502149 1_655
Hf3 S9 2.502149 1_565
Hf3 S9 2.502149 1_554
Hf3 S2 2.502149 1_554
Hf3 S11 2.529064 1_665
