# generated using pymatgen
data_Rb2ZnO2
_symmetry_space_group_name_H-M   'P 1'
_cell_length_a   6.32907365
_cell_length_b   9.56232784
_cell_length_c   15.93645086
_cell_angle_alpha   60.90164795
_cell_angle_beta   90.00000000
_cell_angle_gamma   90.00000000
_symmetry_Int_Tables_number   1
_chemical_formula_structural   Rb2ZnO2
_chemical_formula_sum   'Rb16 Zn8 O16'
_cell_volume   842.75351651
_cell_formula_units_Z   8
loop_
 _symmetry_equiv_pos_site_id
 _symmetry_equiv_pos_as_xyz
  1  'x, y, z'
loop_
 _atom_site_type_symbol
 _atom_site_label
 _atom_site_symmetry_multiplicity
 _atom_site_fract_x
 _atom_site_fract_y
 _atom_site_fract_z
 _atom_site_occupancy
  Rb  Rb0  1  0.58374070  0.68051972  0.23856669  1
  Rb  Rb1  1  0.36868654  0.92030954  0.33622585  1
  Rb  Rb2  1  0.63131346  0.07969046  0.66377415  1
  Rb  Rb3  1  0.86868654  0.07969046  0.16377415  1
  Rb  Rb4  1  0.32353889  0.14259506  0.02750404  1
  Rb  Rb5  1  0.41625930  0.31948028  0.76143331  1
  Rb  Rb6  1  0.56564780  0.43340442  0.12026918  1
  Rb  Rb7  1  0.17646111  0.14259506  0.52750404  1
  Rb  Rb8  1  0.06564780  0.56659558  0.37973082  1
  Rb  Rb9  1  0.93435220  0.43340442  0.62026918  1
  Rb  Rb10  1  0.67646111  0.85740494  0.97249596  1
  Rb  Rb11  1  0.08374070  0.31948028  0.26143331  1
  Rb  Rb12  1  0.13131346  0.92030954  0.83622585  1
  Rb  Rb13  1  0.82353889  0.85740494  0.47249596  1
  Rb  Rb14  1  0.43435220  0.56659558  0.87973082  1
  Rb  Rb15  1  0.91625930  0.68051972  0.73856669  1
  Zn  Zn0  1  0.55236430  0.41271818  0.45986730  1
  Zn  Zn1  1  0.87359545  0.24138914  0.87055871  1
  Zn  Zn2  1  0.44763570  0.58728182  0.54013270  1
  Zn  Zn3  1  0.12640455  0.75861086  0.12944129  1
  Zn  Zn4  1  0.62640455  0.24138914  0.37055871  1
  Zn  Zn5  1  0.94763570  0.41271818  0.95986730  1
  Zn  Zn6  1  0.05236430  0.58728182  0.04013270  1
  Zn  Zn7  1  0.37359545  0.75861086  0.62944129  1
  O  O0  1  0.86723210  0.63447695  0.92733406  1
  O  O1  1  0.22121273  0.74187160  0.52831397  1
  O  O2  1  0.19281765  0.85906121  0.19944828  1
  O  O3  1  0.30718235  0.85906121  0.69944828  1
  O  O4  1  0.72121273  0.25812840  0.97168603  1
  O  O5  1  0.39730791  0.38288925  0.35842359  1
  O  O6  1  0.60269209  0.61711075  0.64157641  1
  O  O7  1  0.13276790  0.36552305  0.07266594  1
  O  O8  1  0.27878727  0.74187160  0.02831397  1
  O  O9  1  0.80718235  0.14093879  0.80055172  1
  O  O10  1  0.89730791  0.61711075  0.14157641  1
  O  O11  1  0.69281765  0.14093879  0.30055172  1
  O  O12  1  0.10269209  0.38288925  0.85842359  1
  O  O13  1  0.77878727  0.25812840  0.47168603  1
  O  O14  1  0.36723210  0.36552305  0.57266594  1
  O  O15  1  0.63276790  0.63447695  0.42733406  1
loop_
_geom_bond_atom_site_label_1
_geom_bond_atom_site_label_2
_geom_bond_distance
_geom_bond_site_symmetry_2
O0 Zn5 1.988742 1_555
O0 Zn6 2.004731 1_656
O0 Rb10 2.830590 1_555
O0 Rb15 2.837548 1_555
O0 Rb12 2.917597 1_655
O0 Rb14 2.996983 1_555
O0 Rb6 3.323257 1_556
O1 Zn7 1.950374 1_555
O1 Zn2 2.000872 1_555
O1 Rb13 2.718600 1_455
O1 Rb1 2.841352 1_555
O1 Rb9 3.152791 1_455
O2 Zn3 1.840195 1_555
O2 Rb1 2.752265 1_555
O2 Rb3 2.795717 1_465
O2 Rb4 2.884102 1_565
O2 Rb0 2.896515 1_555
O2 Rb8 2.984728 1_555
O3 Zn7 1.840195 1_555
O3 Rb12 2.752265 1_555
O3 Rb2 2.795717 1_565
O3 Rb7 2.884102 1_565
O3 Rb15 2.896515 1_455
O3 Rb14 2.984728 1_555
O4 Zn1 1.950374 1_555
O4 Zn5 2.000872 1_555
O4 Rb4 2.718600 1_556
O4 Rb3 2.841352 1_556
O4 Rb14 3.152791 1_555
O5 Zn4 1.927720 1_555
O5 Zn0 2.026449 1_555
O5 Rb11 2.758064 1_555
O5 Rb0 2.802377 1_555
O5 Rb8 2.861389 1_555
O5 Rb7 2.910689 1_555
O6 Zn7 1.927720 1_555
O6 Zn2 2.026449 1_555
O6 Rb15 2.758064 1_555
O6 Rb5 2.802377 1_555
O6 Rb9 2.861389 1_555
O6 Rb13 2.910689 1_555
O7 Zn6 1.988742 1_555
O7 Zn5 2.004731 1_454
O7 Rb4 2.830590 1_555
O7 Rb11 2.837548 1_555
O7 Rb3 2.917597 1_455
O7 Rb6 2.996983 1_555
O7 Rb14 3.323257 1_554
O8 Zn3 1.950374 1_555
O8 Zn6 2.000872 1_555
O8 Rb10 2.718600 1_554
O8 Rb12 2.841352 1_554
O8 Rb6 3.152791 1_555
O9 Zn1 1.840195 1_555
O9 Rb2 2.752265 1_555
O9 Rb12 2.795717 1_645
O9 Rb10 2.884102 1_545
O9 Rb5 2.896515 1_555
O9 Rb9 2.984728 1_555
O10 Zn3 1.927720 1_655
O10 Zn6 2.026449 1_655
O10 Rb0 2.758064 1_555
O10 Rb11 2.802377 1_655
O10 Rb6 2.861389 1_555
O10 Rb10 2.910689 1_554
O11 Zn4 1.840195 1_555
O11 Rb3 2.752265 1_555
O11 Rb1 2.795717 1_545
O11 Rb13 2.884102 1_545
O11 Rb11 2.896515 1_655
O11 Rb6 2.984728 1_555
O12 Zn1 1.927720 1_455
O12 Zn5 2.026449 1_455
O12 Rb5 2.758064 1_555
O12 Rb15 2.802377 1_455
O12 Rb14 2.861389 1_555
O12 Rb4 2.910689 1_556
O13 Zn4 1.950374 1_555
O13 Zn0 2.000872 1_555
O13 Rb7 2.718600 1_655
O13 Rb2 2.841352 1_555
O13 Rb8 3.152791 1_655
O14 Zn2 1.988742 1_555
O14 Zn0 2.004731 1_555
O14 Rb7 2.830590 1_555
O14 Rb5 2.837548 1_555
O14 Rb2 2.917597 1_555
O14 Rb9 2.996983 1_455
O14 Rb8 3.323257 1_555
O15 Zn0 1.988742 1_555
O15 Zn2 2.004731 1_555
O15 Rb13 2.830590 1_555
O15 Rb0 2.837548 1_555
O15 Rb1 2.917597 1_555
O15 Rb8 2.996983 1_655
O15 Rb9 3.323257 1_555
