# generated using pymatgen
data_SrCr2O7
_symmetry_space_group_name_H-M   'P 1'
_cell_length_a   11.13961747
_cell_length_b   11.13961747
_cell_length_c   9.61458437
_cell_angle_alpha   90.00000000
_cell_angle_beta   90.00000000
_cell_angle_gamma   90.00000000
_symmetry_Int_Tables_number   1
_chemical_formula_structural   SrCr2O7
_chemical_formula_sum   'Sr8 Cr16 O56'
_cell_volume   1193.08413301
_cell_formula_units_Z   8
loop_
 _symmetry_equiv_pos_site_id
 _symmetry_equiv_pos_as_xyz
  1  'x, y, z'
loop_
 _atom_site_type_symbol
 _atom_site_label
 _atom_site_symmetry_multiplicity
 _atom_site_fract_x
 _atom_site_fract_y
 _atom_site_fract_z
 _atom_site_occupancy
  Sr  Sr0  1  0.80135594  0.80135594  0.00000000  1
  Sr  Sr1  1  0.30135594  0.69864406  0.50000000  1
  Sr  Sr2  1  0.19864406  0.19864406  0.00000000  1
  Sr  Sr3  1  0.80135594  0.19864406  0.00000000  1
  Sr  Sr4  1  0.30135594  0.30135594  0.50000000  1
  Sr  Sr5  1  0.69864406  0.69864406  0.50000000  1
  Sr  Sr6  1  0.69864406  0.30135594  0.50000000  1
  Sr  Sr7  1  0.19864406  0.80135594  0.00000000  1
  Cr  Cr0  1  0.14965025  -0.00000000  0.30446291  1
  Cr  Cr1  1  -0.00000000  0.14965025  0.69553709  1
  Cr  Cr2  1  0.50000000  0.86156717  0.23479184  1
  Cr  Cr3  1  0.13843283  0.50000000  0.76520816  1
  Cr  Cr4  1  0.86156717  0.50000000  0.76520816  1
  Cr  Cr5  1  0.50000000  0.35034975  0.80446291  1
  Cr  Cr6  1  0.36156717  -0.00000000  0.73479184  1
  Cr  Cr7  1  0.85034975  -0.00000000  0.30446291  1
  Cr  Cr8  1  0.50000000  0.13843283  0.23479184  1
  Cr  Cr9  1  -0.00000000  0.85034975  0.69553709  1
  Cr  Cr10  1  0.63843283  -0.00000000  0.73479184  1
  Cr  Cr11  1  -0.00000000  0.36156717  0.26520816  1
  Cr  Cr12  1  0.50000000  0.64965025  0.80446291  1
  Cr  Cr13  1  -0.00000000  0.63843283  0.26520816  1
  Cr  Cr14  1  0.35034975  0.50000000  0.19553709  1
  Cr  Cr15  1  0.64965025  0.50000000  0.19553709  1
  O  O0  1  0.50000000  -0.00000000  0.32233346  1
  O  O1  1  0.50000000  0.34860609  0.63396024  1
  O  O2  1  0.61728948  0.85575684  0.13804230  1
  O  O3  1  0.61910430  0.28493203  0.86153366  1
  O  O4  1  0.25501132  -0.00000000  0.85294027  1
  O  O5  1  0.75501132  0.50000000  0.64705973  1
  O  O6  1  0.38089570  0.28493203  0.86153366  1
  O  O7  1  0.88271052  0.64424316  0.36195770  1
  O  O8  1  0.78493203  0.11910430  0.36153366  1
  O  O9  1  0.11728948  0.64424316  0.36195770  1
  O  O10  1  -0.00000000  0.50000000  0.17766654  1
  O  O11  1  0.61728948  0.14424316  0.13804230  1
  O  O12  1  0.64424316  0.88271052  0.63804230  1
  O  O13  1  0.71506797  0.61910430  0.13846634  1
  O  O14  1  0.61910430  0.71506797  0.86153366  1
  O  O15  1  0.14424316  0.61728948  0.86195770  1
  O  O16  1  0.11728948  0.35575684  0.36195770  1
  O  O17  1  -0.00000000  0.15139391  0.86603976  1
  O  O18  1  0.88089570  0.21506797  0.63846634  1
  O  O19  1  0.21506797  0.11910430  0.36153366  1
  O  O20  1  0.35575684  0.11728948  0.63804230  1
  O  O21  1  0.65139391  0.50000000  0.36603976  1
  O  O22  1  0.38089570  0.71506797  0.86153366  1
  O  O23  1  0.50000000  0.50000000  0.85844883  1
  O  O24  1  0.11910430  0.78493203  0.63846634  1
  O  O25  1  0.84860609  -0.00000000  0.13396024  1
  O  O26  1  0.50000000  0.50000000  0.14155117  1
  O  O27  1  -0.00000000  0.74498868  0.14705973  1
  O  O28  1  0.34860609  0.50000000  0.36603976  1
  O  O29  1  0.78493203  0.88089570  0.36153366  1
  O  O30  1  0.85575684  0.38271052  0.86195770  1
  O  O31  1  0.64424316  0.11728948  0.63804230  1
  O  O32  1  0.88089570  0.78493203  0.63846634  1
  O  O33  1  0.85575684  0.61728948  0.86195770  1
  O  O34  1  0.38271052  0.85575684  0.13804230  1
  O  O35  1  -0.00000000  0.50000000  0.67766654  1
  O  O36  1  0.50000000  0.24498868  0.35294027  1
  O  O37  1  -0.00000000  0.25501132  0.14705973  1
  O  O38  1  -0.00000000  -0.00000000  0.64155117  1
  O  O39  1  0.88271052  0.35575684  0.36195770  1
  O  O40  1  0.35575684  0.88271052  0.63804230  1
  O  O41  1  0.14424316  0.38271052  0.86195770  1
  O  O42  1  0.71506797  0.38089570  0.13846634  1
  O  O43  1  0.11910430  0.21506797  0.63846634  1
  O  O44  1  0.50000000  0.65139391  0.63396024  1
  O  O45  1  -0.00000000  -0.00000000  0.35844883  1
  O  O46  1  -0.00000000  0.84860609  0.86603976  1
  O  O47  1  0.74498868  -0.00000000  0.85294027  1
  O  O48  1  0.21506797  0.88089570  0.36153366  1
  O  O49  1  0.50000000  -0.00000000  0.82233346  1
  O  O50  1  0.38271052  0.14424316  0.13804230  1
  O  O51  1  0.28493203  0.38089570  0.13846634  1
  O  O52  1  0.15139391  -0.00000000  0.13396024  1
  O  O53  1  0.24498868  0.50000000  0.64705973  1
  O  O54  1  0.28493203  0.61910430  0.13846634  1
  O  O55  1  0.50000000  0.75501132  0.35294027  1
loop_
_geom_bond_atom_site_label_1
_geom_bond_atom_site_label_2
_geom_bond_distance
_geom_bond_site_symmetry_2
Cr0 O19 1.610113 1_555
Cr0 O48 1.610113 1_545
Cr0 O52 1.639427 1_555
Cr0 O45 1.745984 1_555
Cr1 O43 1.610113 1_555
Cr1 O18 1.610113 1_455
Cr1 O17 1.639427 1_555
Cr1 O38 1.745984 1_555
Cr2 O2 1.605171 1_555
Cr2 O34 1.605171 1_555
Cr2 O55 1.642963 1_555
Cr2 O0 1.756831 1_565
Cr3 O15 1.605171 1_555
Cr3 O41 1.605171 1_555
Cr3 O53 1.642963 1_555
Cr3 O35 1.756831 1_555
Cr4 O33 1.605171 1_555
Cr4 O30 1.605171 1_555
Cr4 O5 1.642963 1_555
Cr4 O35 1.756831 1_655
Cr5 O6 1.610113 1_555
Cr5 O3 1.610113 1_555
Cr5 O1 1.639427 1_555
Cr5 O23 1.745984 1_555
Cr6 O40 1.605171 1_545
Cr6 O20 1.605171 1_555
Cr6 O4 1.642963 1_555
Cr6 O49 1.756831 1_555
Cr7 O8 1.610113 1_555
Cr7 O29 1.610113 1_545
Cr7 O25 1.639427 1_555
Cr7 O45 1.745984 1_655
Cr8 O11 1.605171 1_555
Cr8 O50 1.605171 1_555
Cr8 O36 1.642963 1_555
Cr8 O0 1.756831 1_555
Cr9 O24 1.610113 1_555
Cr9 O32 1.610113 1_455
Cr9 O46 1.639427 1_555
Cr9 O38 1.745984 1_565
Cr10 O12 1.605171 1_545
Cr10 O31 1.605171 1_555
Cr10 O47 1.642963 1_555
Cr10 O49 1.756831 1_555
Cr11 O39 1.605171 1_455
Cr11 O16 1.605171 1_555
Cr11 O37 1.642963 1_555
Cr11 O10 1.756831 1_555
Cr12 O22 1.610113 1_555
Cr12 O14 1.610113 1_555
Cr12 O44 1.639427 1_555
Cr12 O23 1.745984 1_555
Cr13 O7 1.605171 1_455
Cr13 O9 1.605171 1_555
Cr13 O27 1.642963 1_555
Cr13 O10 1.756831 1_555
Cr14 O51 1.610113 1_555
Cr14 O54 1.610113 1_555
Cr14 O28 1.639427 1_555
Cr14 O26 1.745984 1_555
Cr15 O42 1.610113 1_555
Cr15 O13 1.610113 1_555
Cr15 O21 1.639427 1_555
Cr15 O26 1.745984 1_555
O1 Sr4 2.613902 1_555
O1 Sr6 2.613902 1_555
O2 Sr0 2.516549 1_555
O3 Sr3 2.611140 1_556
O4 Sr7 2.700000 1_546
O4 Sr2 2.700000 1_556
O5 Sr5 2.700000 1_555
O5 Sr6 2.700000 1_555
O6 Sr2 2.611140 1_556
O7 Sr5 2.516549 1_555
O8 Sr6 2.611140 1_555
O9 Sr1 2.516549 1_555
O11 Sr3 2.516549 1_555
O12 Sr5 2.516549 1_555
O13 Sr0 2.611140 1_555
O14 Sr0 2.611140 1_556
O15 Sr7 2.516549 1_556
O16 Sr4 2.516549 1_555
O17 Sr2 2.613902 1_556
O17 Sr3 2.613902 1_456
O18 Sr6 2.611140 1_555
O19 Sr4 2.611140 1_555
O20 Sr4 2.516549 1_555
O21 Sr5 2.613902 1_555
O21 Sr6 2.613902 1_555
O22 Sr7 2.611140 1_556
O24 Sr1 2.611140 1_555
O25 Sr3 2.613902 1_555
O25 Sr0 2.613902 1_545
O27 Sr7 2.700000 1_555
O27 Sr0 2.700000 1_455
O28 Sr4 2.613902 1_555
O28 Sr1 2.613902 1_555
O29 Sr5 2.611140 1_555
O30 Sr3 2.516549 1_556
O31 Sr6 2.516549 1_555
O32 Sr5 2.611140 1_555
O33 Sr0 2.516549 1_556
O34 Sr7 2.516549 1_555
O36 Sr4 2.700000 1_555
O36 Sr6 2.700000 1_555
O37 Sr3 2.700000 1_455
O37 Sr2 2.700000 1_555
O39 Sr6 2.516549 1_555
O40 Sr1 2.516549 1_555
O41 Sr2 2.516549 1_556
O42 Sr3 2.611140 1_555
O43 Sr4 2.611140 1_555
O44 Sr5 2.613902 1_555
O44 Sr1 2.613902 1_555
O46 Sr7 2.613902 1_556
O46 Sr0 2.613902 1_456
O47 Sr0 2.700000 1_546
O47 Sr3 2.700000 1_556
O48 Sr1 2.611140 1_555
O50 Sr2 2.516549 1_555
O51 Sr2 2.611140 1_555
O52 Sr7 2.613902 1_545
O52 Sr2 2.613902 1_555
O53 Sr4 2.700000 1_555
O53 Sr1 2.700000 1_555
O54 Sr7 2.611140 1_555
O55 Sr5 2.700000 1_555
O55 Sr1 2.700000 1_555
