# generated using pymatgen
data_K3Ta2Ag3S8
_symmetry_space_group_name_H-M   'P 1'
_cell_length_a   12.91070115
_cell_length_b   12.91070115
_cell_length_c   14.37275475
_cell_angle_alpha   61.19018753
_cell_angle_beta   61.19018753
_cell_angle_gamma   26.87747053
_symmetry_Int_Tables_number   1
_chemical_formula_structural   K3Ta2Ag3S8
_chemical_formula_sum   'K6 Ta4 Ag6 S16'
_cell_volume   940.78655681
_cell_formula_units_Z   2
loop_
 _symmetry_equiv_pos_site_id
 _symmetry_equiv_pos_as_xyz
  1  'x, y, z'
loop_
 _atom_site_type_symbol
 _atom_site_label
 _atom_site_symmetry_multiplicity
 _atom_site_fract_x
 _atom_site_fract_y
 _atom_site_fract_z
 _atom_site_occupancy
  K  K0  1  0.63314000  0.76125600  0.39792900  1
  K  K1  1  0.00000000  0.00000000  0.00000000  1
  K  K2  1  0.76125600  0.63314000  0.89792900  1
  K  K3  1  0.00000000  0.00000000  0.50000000  1
  K  K4  1  0.23874400  0.36686000  0.10207100  1
  K  K5  1  0.36686000  0.23874400  0.60207100  1
  Ta  Ta0  1  0.58326000  0.16170400  0.27870200  1
  Ta  Ta1  1  0.16170400  0.58326000  0.77870200  1
  Ta  Ta2  1  0.83829600  0.41674000  0.22129800  1
  Ta  Ta3  1  0.41674000  0.83829600  0.72129800  1
  Ag  Ag0  1  0.28804700  0.71195300  0.75000000  1
  Ag  Ag1  1  0.33753200  0.91614900  0.21399700  1
  Ag  Ag2  1  0.91614900  0.33753200  0.71399700  1
  Ag  Ag3  1  0.08385100  0.66246800  0.28600300  1
  Ag  Ag4  1  0.71195300  0.28804700  0.25000000  1
  Ag  Ag5  1  0.66246800  0.08385100  0.78600300  1
  S  S0  1  0.45814200  0.44803700  0.65347100  1
  S  S1  1  0.22301500  0.09194300  0.81715200  1
  S  S2  1  0.44803700  0.45814200  0.15347100  1
  S  S3  1  0.77698500  0.90805700  0.18284800  1
  S  S4  1  0.55196300  0.54185800  0.84652900  1
  S  S5  1  0.29196000  0.28731000  0.89032500  1
  S  S6  1  0.71269000  0.70804000  0.60967500  1
  S  S7  1  0.28731000  0.29196000  0.39032500  1
  S  S8  1  0.90805700  0.77698500  0.68284800  1
  S  S9  1  0.18183200  0.01560700  0.61596300  1
  S  S10  1  0.70804000  0.71269000  0.10967500  1
  S  S11  1  0.54185800  0.55196300  0.34652900  1
  S  S12  1  0.98439300  0.81816800  0.88403700  1
  S  S13  1  0.09194300  0.22301500  0.31715200  1
  S  S14  1  0.81816800  0.98439300  0.38403700  1
  S  S15  1  0.01560700  0.18183200  0.11596300  1
loop_
_geom_bond_atom_site_label_1
_geom_bond_atom_site_label_2
_geom_bond_distance
_geom_bond_site_symmetry_2
K0 S6 3.244601 1_555
K0 S3 3.420004 1_555
K0 S7 3.473770 1_565
K0 S13 3.527111 1_655
K0 S13 3.542169 1_565
K0 S9 3.569330 1_565
K1 S3 3.521858 1_445
K1 S1 3.521858 1_554
K1 S4 3.535597 1_454
K1 S2 3.535597 1_545
K1 S2 3.586691 1_455
K1 S4 3.586691 1_544
K1 S15 3.642568 1_555
K1 S12 3.642568 1_444
K2 S10 3.244601 1_556
K2 S8 3.420004 1_555
K2 S5 3.473770 1_655
K2 S1 3.527111 1_565
K2 S1 3.542169 1_655
K2 S15 3.569330 1_656
K3 S8 3.521858 1_445
K3 S13 3.521858 1_555
K3 S0 3.535597 1_455
K3 S11 3.535597 1_545
K3 S11 3.586691 1_455
K3 S0 3.586691 1_545
K3 S9 3.642568 1_555
K3 S14 3.642568 1_445
K4 S5 3.244601 1_554
K4 S13 3.420004 1_555
K4 S10 3.473770 1_455
K4 S3 3.527111 1_545
K4 S3 3.542169 1_455
K4 S12 3.569330 1_454
K5 S7 3.244601 1_555
K5 S1 3.420004 1_555
K5 S6 3.473770 1_545
K5 S8 3.527111 1_455
K5 S8 3.542169 1_545
K5 S14 3.569330 1_545
Ag0 S0 2.574572 1_555
Ag0 S4 2.574572 1_555
Ag0 S12 2.576354 1_455
Ag0 S9 2.576354 1_565
Ag1 S10 2.549043 1_555
Ag1 S15 2.564922 1_565
Ag1 S13 2.582353 1_565
Ag1 S11 2.603612 1_555
Ag2 S6 2.549043 1_555
Ag2 S9 2.564922 1_655
Ag2 S1 2.582353 1_655
Ag2 S4 2.603612 1_555
Ag3 S7 2.549043 1_555
Ag3 S14 2.564922 1_455
Ag3 S3 2.582353 1_455
Ag3 S2 2.603612 1_555
Ag4 S2 2.574572 1_555
Ag4 S11 2.574572 1_555
Ag4 S15 2.576354 1_655
Ag4 S14 2.576354 1_545
Ag5 S5 2.549043 1_555
Ag5 S12 2.564922 1_545
Ag5 S8 2.582353 1_545
Ag5 S0 2.603612 1_555
S0 Ta1 2.324807 1_555
S1 Ta3 2.300729 1_545
S2 Ta0 2.324807 1_555
S3 Ta0 2.300729 1_565
S4 Ta3 2.324807 1_555
S5 Ta1 2.287051 1_555
S6 Ta3 2.287051 1_555
S7 Ta0 2.287051 1_555
S8 Ta1 2.300729 1_655
S9 Ta3 2.330250 1_545
S10 Ta2 2.287051 1_555
S11 Ta2 2.324807 1_555
S12 Ta1 2.330250 1_655
S13 Ta2 2.300729 1_455
S14 Ta0 2.330250 1_565
S15 Ta2 2.330250 1_455
