# generated using pymatgen
data_Rb2TiFe(PO4)3
_symmetry_space_group_name_H-M   'P 1'
_cell_length_a   10.05200900
_cell_length_b   10.05200900
_cell_length_c   10.05200900
_cell_angle_alpha   90.00000000
_cell_angle_beta   90.00000000
_cell_angle_gamma   90.00000000
_symmetry_Int_Tables_number   1
_chemical_formula_structural   Rb2TiFe(PO4)3
_chemical_formula_sum   'Rb8 Ti4 Fe4 P12 O48'
_cell_volume   1015.68398876
_cell_formula_units_Z   4
loop_
 _symmetry_equiv_pos_site_id
 _symmetry_equiv_pos_as_xyz
  1  'x, y, z'
loop_
 _atom_site_type_symbol
 _atom_site_label
 _atom_site_symmetry_multiplicity
 _atom_site_fract_x
 _atom_site_fract_y
 _atom_site_fract_z
 _atom_site_occupancy
  Rb  Rb0  1  0.06927400  0.06927400  0.06927400  1
  Rb  Rb1  1  0.20944300  0.70944300  0.79055700  1
  Rb  Rb2  1  0.29055700  0.29055700  0.29055700  1
  Rb  Rb3  1  0.43072600  0.93072600  0.56927400  1
  Rb  Rb4  1  0.56927400  0.43072600  0.93072600  1
  Rb  Rb5  1  0.70944300  0.79055700  0.20944300  1
  Rb  Rb6  1  0.79055700  0.20944300  0.70944300  1
  Rb  Rb7  1  0.93072600  0.56927400  0.43072600  1
  Ti  Ti0  1  0.14190800  0.35809200  0.64190800  1
  Ti  Ti1  1  0.35809200  0.64190800  0.14190800  1
  Ti  Ti2  1  0.64190800  0.14190800  0.35809200  1
  Ti  Ti3  1  0.85809200  0.85809200  0.85809200  1
  Fe  Fe0  1  0.08722500  0.91277500  0.41277500  1
  Fe  Fe1  1  0.41277500  0.08722500  0.91277500  1
  Fe  Fe2  1  0.58722500  0.58722500  0.58722500  1
  Fe  Fe3  1  0.91277500  0.41277500  0.08722500  1
  P  P0  1  0.04340000  0.72609600  0.12645700  1
  P  P1  1  0.12645700  0.04340000  0.72609600  1
  P  P2  1  0.22609600  0.37354300  0.95660000  1
  P  P3  1  0.27390400  0.62645700  0.45660000  1
  P  P4  1  0.37354300  0.95660000  0.22609600  1
  P  P5  1  0.45660000  0.27390400  0.62645700  1
  P  P6  1  0.54340000  0.77390400  0.87354300  1
  P  P7  1  0.62645700  0.45660000  0.27390400  1
  P  P8  1  0.72609600  0.12645700  0.04340000  1
  P  P9  1  0.77390400  0.87354300  0.54340000  1
  P  P10  1  0.87354300  0.54340000  0.77390400  1
  P  P11  1  0.95660000  0.22609600  0.37354300  1
  O  O0  1  0.99909900  0.58208600  0.14806300  1
  O  O1  1  0.01287900  0.96099800  0.79431300  1
  O  O2  1  0.01834100  0.80809600  0.25335500  1
  O  O3  1  0.03900200  0.29431300  0.48712100  1
  O  O4  1  0.08208600  0.35193700  0.00090100  1
  O  O5  1  0.08462200  0.19307000  0.73240200  1
  O  O6  1  0.14806300  0.99909900  0.58208600  1
  O  O7  1  0.19307000  0.73240200  0.08462200  1
  O  O8  1  0.19190400  0.75335500  0.48165900  1
  O  O9  1  0.20568700  0.51287900  0.53900200  1
  O  O10  1  0.23240200  0.41537800  0.80693000  1
  O  O11  1  0.24664500  0.98165900  0.30809600  1
  O  O12  1  0.25335500  0.01834100  0.80809600  1
  O  O13  1  0.26759800  0.58462200  0.30693000  1
  O  O14  1  0.29431300  0.48712100  0.03900200  1
  O  O15  1  0.30809600  0.24664500  0.98165900  1
  O  O16  1  0.30693000  0.26759800  0.58462200  1
  O  O17  1  0.35193700  0.00090100  0.08208600  1
  O  O18  1  0.41537800  0.80693000  0.23240200  1
  O  O19  1  0.41791400  0.64806300  0.50090100  1
  O  O20  1  0.46099800  0.70568700  0.98712100  1
  O  O21  1  0.48165900  0.19190400  0.75335500  1
  O  O22  1  0.48712100  0.03900200  0.29431300  1
  O  O23  1  0.50090100  0.41791400  0.64806300  1
  O  O24  1  0.49909900  0.91791400  0.85193700  1
  O  O25  1  0.51287900  0.53900200  0.20568700  1
  O  O26  1  0.51834100  0.69190400  0.74664500  1
  O  O27  1  0.53900200  0.20568700  0.51287900  1
  O  O28  1  0.58208600  0.14806300  0.99909900  1
  O  O29  1  0.58462200  0.30693000  0.26759800  1
  O  O30  1  0.64806300  0.50090100  0.41791400  1
  O  O31  1  0.69307000  0.76759800  0.91537800  1
  O  O32  1  0.69190400  0.74664500  0.51834100  1
  O  O33  1  0.70568700  0.98712100  0.46099800  1
  O  O34  1  0.73240200  0.08462200  0.19307000  1
  O  O35  1  0.74664500  0.51834100  0.69190400  1
  O  O36  1  0.75335500  0.48165900  0.19190400  1
  O  O37  1  0.76759800  0.91537800  0.69307000  1
  O  O38  1  0.79431300  0.01287900  0.96099800  1
  O  O39  1  0.80809600  0.25335500  0.01834100  1
  O  O40  1  0.80693000  0.23240200  0.41537800  1
  O  O41  1  0.85193700  0.49909900  0.91791400  1
  O  O42  1  0.91537800  0.69307000  0.76759800  1
  O  O43  1  0.91791400  0.85193700  0.49909900  1
  O  O44  1  0.96099800  0.79431300  0.01287900  1
  O  O45  1  0.98165900  0.30809600  0.24664500  1
  O  O46  1  0.98712100  0.46099800  0.70568700  1
  O  O47  1  0.00090100  0.08208600  0.35193700  1
loop_
_geom_bond_atom_site_label_1
_geom_bond_atom_site_label_2
_geom_bond_distance
_geom_bond_site_symmetry_2
Fe0 O6 2.005856 1_555
Fe0 O43 2.005856 1_455
Fe0 O47 2.005856 1_565
Fe0 O8 2.038290 1_555
Fe0 O11 2.038290 1_555
Fe0 O2 2.038290 1_555
Fe1 O24 2.005856 1_545
Fe1 O28 2.005856 1_555
Fe1 O17 2.005856 1_556
Fe1 O15 2.038290 1_555
Fe1 O12 2.038290 1_555
Fe1 O21 2.038290 1_555
Fe2 O19 2.005856 1_555
Fe2 O30 2.005856 1_555
Fe2 O23 2.005856 1_555
Fe2 O35 2.038290 1_555
Fe2 O32 2.038290 1_555
Fe2 O26 2.038290 1_555
Fe3 O41 2.005856 1_554
Fe3 O0 2.005856 1_555
Fe3 O4 2.005856 1_655
Fe3 O36 2.038290 1_555
Fe3 O45 2.038290 1_555
Fe3 O39 2.038290 1_555
O0 P0 1.530029 1_655
O0 Rb7 2.926108 1_555
O1 P1 1.568359 1_565
O1 Ti3 1.975326 1_455
O1 Rb0 3.024095 1_566
O1 Rb1 3.209275 1_555
O2 P0 1.539470 1_555
O2 Rb7 3.117303 1_455
O2 Rb5 3.141214 1_455
O2 Rb0 3.252472 1_565
O3 P11 1.568359 1_455
O3 Ti0 1.975326 1_555
O3 Rb7 3.024095 1_455
O3 Rb2 3.209275 1_555
O4 P2 1.530029 1_554
O4 Rb0 2.926108 1_555
O5 P1 1.563436 1_555
O5 Ti0 1.977542 1_555
O5 Rb6 2.969504 1_455
O6 P1 1.530029 1_565
O6 Rb3 2.926108 1_555
O7 P0 1.563436 1_555
O7 Ti1 1.977542 1_555
O7 Rb1 2.969504 1_554
O8 P3 1.539470 1_555
O8 Rb3 3.117303 1_555
O8 Rb1 3.141214 1_555
O8 Rb7 3.252472 1_455
O9 P3 1.568359 1_555
O9 Ti0 1.975326 1_555
O9 Rb7 3.024095 1_455
O9 Rb1 3.209275 1_555
O10 P2 1.563436 1_555
O10 Ti0 1.977542 1_555
O10 Rb1 2.969504 1_555
O11 P4 1.539470 1_555
O11 Rb0 3.117303 1_565
O11 Rb2 3.141214 1_565
O11 Rb3 3.252472 1_555
O12 P1 1.539470 1_555
O12 Rb3 3.117303 1_545
O12 Rb1 3.141214 1_545
O12 Rb0 3.252472 1_556
O13 P3 1.563436 1_555
O13 Ti1 1.977542 1_555
O13 Rb2 2.969504 1_555
O14 P2 1.568359 1_554
O14 Ti1 1.975326 1_555
O14 Rb4 3.024095 1_554
O14 Rb2 3.209275 1_555
O15 P2 1.539470 1_555
O15 Rb0 3.117303 1_556
O15 Rb2 3.141214 1_556
O15 Rb4 3.252472 1_555
O16 P5 1.563436 1_555
O16 Ti0 1.977542 1_555
O16 Rb2 2.969504 1_555
O17 P4 1.530029 1_545
O17 Rb0 2.926108 1_555
O18 P4 1.563436 1_555
O18 Ti1 1.977542 1_555
O18 Rb5 2.969504 1_555
O19 P3 1.530029 1_555
O19 Rb3 2.926108 1_555
O20 P6 1.568359 1_555
O20 Ti1 1.975326 1_556
O20 Rb4 3.024095 1_555
O20 Rb1 3.209275 1_555
O21 P5 1.539470 1_555
O21 Rb4 3.117303 1_555
O21 Rb6 3.141214 1_555
O21 Rb3 3.252472 1_545
O22 P4 1.568359 1_545
O22 Ti2 1.975326 1_555
O22 Rb3 3.024095 1_545
O22 Rb2 3.209275 1_555
O23 P5 1.530029 1_555
O23 Rb4 2.926108 1_555
O24 P6 1.530029 1_555
O24 Rb3 2.926108 1_555
O25 P7 1.568359 1_555
O25 Ti1 1.975326 1_555
O25 Rb4 3.024095 1_554
O25 Rb5 3.209275 1_555
O26 P6 1.539470 1_555
O26 Rb3 3.117303 1_555
O26 Rb1 3.141214 1_555
O26 Rb4 3.252472 1_555
O27 P5 1.568359 1_555
O27 Ti2 1.975326 1_555
O27 Rb3 3.024095 1_545
O27 Rb6 3.209275 1_555
O28 P8 1.530029 1_556
O28 Rb4 2.926108 1_555
O29 P7 1.563436 1_555
O29 Ti2 1.977542 1_555
O29 Rb2 2.969504 1_555
O30 P7 1.530029 1_555
O30 Rb7 2.926108 1_555
O31 P6 1.563436 1_555
O31 Ti3 1.977542 1_555
O31 Rb5 2.969504 1_556
O32 P9 1.539470 1_555
O32 Rb7 3.117303 1_555
O32 Rb5 3.141214 1_555
O32 Rb3 3.252472 1_555
O33 P9 1.568359 1_555
O33 Ti2 1.975326 1_565
O33 Rb3 3.024095 1_555
O33 Rb5 3.209275 1_555
O34 P8 1.563436 1_555
O34 Ti2 1.977542 1_555
O34 Rb5 2.969504 1_545
O35 P10 1.539470 1_555
O35 Rb4 3.117303 1_555
O35 Rb6 3.141214 1_555
O35 Rb7 3.252472 1_555
O36 P7 1.539470 1_555
O36 Rb7 3.117303 1_555
O36 Rb5 3.141214 1_555
O36 Rb4 3.252472 1_554
O37 P9 1.563436 1_555
O37 Ti3 1.977542 1_555
O37 Rb6 2.969504 1_565
O38 P8 1.568359 1_556
O38 Ti3 1.975326 1_545
O38 Rb0 3.024095 1_656
O38 Rb6 3.209275 1_555
O39 P8 1.539470 1_555
O39 Rb4 3.117303 1_554
O39 Rb6 3.141214 1_554
O39 Rb0 3.252472 1_655
O40 P11 1.563436 1_555
O40 Ti2 1.977542 1_555
O40 Rb6 2.969504 1_555
O41 P10 1.530029 1_555
O41 Rb4 2.926108 1_555
O42 P10 1.563436 1_555
O42 Ti3 1.977542 1_555
O42 Rb1 2.969504 1_655
O43 P9 1.530029 1_555
O43 Rb7 2.926108 1_555
O44 P0 1.568359 1_655
O44 Ti3 1.975326 1_554
O44 Rb0 3.024095 1_665
O44 Rb5 3.209275 1_555
O45 P11 1.539470 1_555
O45 Rb0 3.117303 1_655
O45 Rb2 3.141214 1_655
O45 Rb7 3.252472 1_555
O46 P10 1.568359 1_555
O46 Ti0 1.975326 1_655
O46 Rb7 3.024095 1_555
O46 Rb6 3.209275 1_555
O47 P11 1.530029 1_455
O47 Rb0 2.926108 1_555
