# generated using pymatgen
data_Cr3Te4
_symmetry_space_group_name_H-M   'P 1'
_cell_length_a   4.02898200
_cell_length_b   4.02880000
_cell_length_c   12.64197755
_cell_angle_alpha   90.22338797
_cell_angle_beta   90.00000000
_cell_angle_gamma   120.00149434
_symmetry_Int_Tables_number   1
_chemical_formula_structural   Cr3Te4
_chemical_formula_sum   'Cr3 Te4'
_cell_volume   177.70749346
_cell_formula_units_Z   1
loop_
 _symmetry_equiv_pos_site_id
 _symmetry_equiv_pos_as_xyz
  1  'x, y, z'
loop_
 _atom_site_type_symbol
 _atom_site_label
 _atom_site_symmetry_multiplicity
 _atom_site_fract_x
 _atom_site_fract_y
 _atom_site_fract_z
 _atom_site_occupancy
  Cr  Cr0  1  0.00000000  0.00000000  0.50000000  1
  Cr  Cr1  1  0.99817400  0.99634700  0.24408400  1
  Cr  Cr2  1  0.00182600  0.00365300  0.75591600  1
  Te  Te0  1  0.66374700  0.32749400  0.13479000  1
  Te  Te1  1  0.66796800  0.33593700  0.62528400  1
  Te  Te2  1  0.33625300  0.67250600  0.86521000  1
  Te  Te3  1  0.33203200  0.66406300  0.37471600  1
loop_
_geom_bond_atom_site_label_1
_geom_bond_atom_site_label_2
_geom_bond_distance
_geom_bond_site_symmetry_2
Cr0 Te1 2.812411 1_445
Cr0 Te3 2.812411 1_555
Cr0 Te1 2.814918 1_555
Cr0 Te3 2.814918 1_445
Cr0 Te1 2.814921 1_455
Cr0 Te3 2.814921 1_545
Cr1 Te0 2.704901 1_665
Cr1 Te0 2.704904 1_565
Cr1 Te0 2.706627 1_555
Cr1 Te3 2.849549 1_665
Cr1 Te3 2.854251 1_655
Cr1 Te3 2.854251 1_555
Cr2 Te2 2.704901 1_445
Cr2 Te2 2.704904 1_545
Cr2 Te2 2.706627 1_555
Cr2 Te1 2.849549 1_445
Cr2 Te1 2.854251 1_455
Cr2 Te1 2.854251 1_555
