# generated using pymatgen
data_Ca13Y6F43
_symmetry_space_group_name_H-M   'P 1'
_cell_length_a   10.38899321
_cell_length_b   10.38899321
_cell_length_c   10.38899375
_cell_angle_alpha   110.64248800
_cell_angle_beta   110.64248800
_cell_angle_gamma   110.64248522
_symmetry_Int_Tables_number   1
_chemical_formula_structural   Ca13Y6F43
_chemical_formula_sum   'Ca13 Y6 F43'
_cell_volume   823.62139328
_cell_formula_units_Z   1
loop_
 _symmetry_equiv_pos_site_id
 _symmetry_equiv_pos_as_xyz
  1  'x, y, z'
loop_
 _atom_site_type_symbol
 _atom_site_label
 _atom_site_symmetry_multiplicity
 _atom_site_fract_x
 _atom_site_fract_y
 _atom_site_fract_z
 _atom_site_occupancy
  Ca  Ca0  1  0.56768300  0.08293500  0.87376000  1
  Ca  Ca1  1  0.93003000  0.13688900  0.44446000  1
  Ca  Ca2  1  0.66355900  0.23811100  0.60742600  1
  Ca  Ca3  1  0.39935400  0.34165300  0.76460500  1
  Ca  Ca4  1  0.76460500  0.39935400  0.34165300  1
  Ca  Ca5  1  0.13688900  0.44446000  0.93003000  1
  Ca  Ca6  1  0.53628900  0.53628900  0.53628900  1
  Ca  Ca7  1  0.87376000  0.56768300  0.08293500  1
  Ca  Ca8  1  0.23811100  0.60742600  0.66355900  1
  Ca  Ca9  1  0.60742600  0.66355900  0.23811100  1
  Ca  Ca10  1  0.34165300  0.76460500  0.39935400  1
  Ca  Ca11  1  0.08293500  0.87376000  0.56768300  1
  Ca  Ca12  1  0.44446000  0.93003000  0.13688900  1
  Y  Y0  1  0.19766500  0.03668400  0.30926600  1
  Y  Y1  1  0.96799800  0.69876400  0.80922100  1
  Y  Y2  1  0.30926600  0.19766500  0.03668400  1
  Y  Y3  1  0.69876400  0.80922100  0.96799800  1
  Y  Y4  1  0.03668400  0.30926600  0.19766500  1
  Y  Y5  1  0.80922100  0.96799800  0.69876400  1
  F  F0  1  0.89040000  0.19264000  0.92323800  1
  F  F1  1  0.59627800  0.01602700  0.64284700  1
  F  F2  1  0.87633800  0.18719400  0.65932900  1
  F  F3  1  0.35006300  0.12665300  0.81440100  1
  F  F4  1  0.79937700  0.07797000  0.09461100  1
  F  F5  1  0.69892200  0.16566300  0.37737600  1
  F  F6  1  0.62504800  0.30664400  0.83123000  1
  F  F7  1  0.07797000  0.09461100  0.79937700  1
  F  F8  1  0.16083100  0.09261900  0.53157900  1
  F  F9  1  0.91232400  0.47801800  0.84882700  1
  F  F10  1  0.98709000  0.37217700  0.41110800  1
  F  F11  1  0.43807600  0.28369700  0.53970000  1
  F  F12  1  0.36336300  0.12767600  0.22341300  1
  F  F13  1  0.37217700  0.41110800  0.98709000  1
  F  F14  1  0.53157900  0.16083100  0.09261900  1
  F  F15  1  0.73381600  0.45069300  0.56366100  1
  F  F16  1  0.81440100  0.35006300  0.12665300  1
  F  F17  1  0.12767600  0.22341300  0.36336300  1
  F  F18  1  0.16566300  0.37737600  0.69892200  1
  F  F19  1  0.73988800  0.62021600  0.82042100  1
  F  F20  1  0.53970000  0.43807600  0.28369700  1
  F  F21  1  0.45069300  0.56366100  0.73381500  1
  F  F22  1  0.22341300  0.36336300  0.12767600  1
  F  F23  1  0.83123000  0.62504800  0.30664400  1
  F  F24  1  0.82042100  0.73988800  0.62021600  1
  F  F25  1  0.18719400  0.65932900  0.87633800  1
  F  F26  1  0.91750600  0.91750600  0.91750600  1
  F  F27  1  0.28369700  0.53970000  0.43807600  1
  F  F28  1  0.47801800  0.84882700  0.91232400  1
  F  F29  1  0.64284700  0.59627800  0.01602700  1
  F  F30  1  0.62021600  0.82042100  0.73988800  1
  F  F31  1  0.56366100  0.73381500  0.45069300  1
  F  F32  1  0.01602700  0.64284700  0.59627800  1
  F  F33  1  0.09261900  0.53157900  0.16083100  1
  F  F34  1  0.84882700  0.91232400  0.47801800  1
  F  F35  1  0.92323800  0.89040000  0.19264000  1
  F  F36  1  0.37737600  0.69892200  0.16566300  1
  F  F37  1  0.30664400  0.83123000  0.62504800  1
  F  F38  1  0.19264000  0.92323800  0.89040000  1
  F  F39  1  0.65932900  0.87633800  0.18719400  1
  F  F40  1  0.12665300  0.81440100  0.35006300  1
  F  F41  1  0.41110800  0.98709000  0.37217700  1
  F  F42  1  0.09461100  0.79937700  0.07797000  1
loop_
_geom_bond_atom_site_label_1
_geom_bond_atom_site_label_2
_geom_bond_distance
_geom_bond_site_symmetry_2
Ca0 F14 2.341664 1_556
Ca0 F3 2.374129 1_555
Ca0 F1 2.408060 1_555
Ca0 F6 2.425902 1_555
Ca0 F37 2.482800 1_545
Ca0 F16 2.503972 1_556
Ca0 F28 2.509253 1_545
Ca0 F4 2.708874 1_556
Ca0 F0 2.912295 1_555
Ca0 F30 2.929226 1_545
Ca1 F34 2.381029 1_545
Ca1 F18 2.385654 1_655
Ca1 F5 2.410998 1_555
Ca1 F2 2.414175 1_555
Ca1 F10 2.483326 1_555
Ca1 F17 2.487251 1_655
Ca1 F8 2.514159 1_655
Ca1 F39 2.571306 1_545
Ca2 F15 2.328612 1_555
Ca2 F1 2.364362 1_555
Ca2 F2 2.375351 1_555
Ca2 F9 2.379521 1_555
Ca2 F6 2.400545 1_555
Ca2 F41 2.411832 1_545
Ca2 F5 2.441157 1_555
Ca2 F11 2.462091 1_555
Ca3 F13 2.317490 1_555
Ca3 F21 2.340851 1_555
Ca3 F8 2.351339 1_555
Ca3 F3 2.390403 1_555
Ca3 F6 2.396590 1_555
Ca3 F11 2.413577 1_555
Ca3 F29 2.443516 1_556
Ca3 F18 2.478592 1_555
Ca4 F10 2.317490 1_555
Ca4 F15 2.340845 1_555
Ca4 F14 2.351339 1_555
Ca4 F16 2.390403 1_555
Ca4 F23 2.396590 1_555
Ca4 F20 2.413577 1_555
Ca4 F32 2.443516 1_655
Ca4 F5 2.478592 1_555
Ca5 F9 2.381029 1_455
Ca5 F36 2.385654 1_556
Ca5 F18 2.410998 1_555
Ca5 F25 2.414175 1_555
Ca5 F13 2.483326 1_555
Ca5 F22 2.487251 1_556
Ca5 F33 2.514160 1_556
Ca5 F2 2.571306 1_455
Ca6 F27 2.476256 1_555
Ca6 F11 2.476256 1_555
Ca6 F20 2.476256 1_555
Ca6 F31 2.477142 1_555
Ca6 F21 2.477142 1_555
Ca6 F15 2.477152 1_555
Ca6 F30 2.535816 1_555
Ca6 F24 2.535816 1_555
Ca6 F19 2.535816 1_555
Ca7 F33 2.341664 1_655
Ca7 F16 2.374129 1_555
Ca7 F29 2.408060 1_555
Ca7 F23 2.425903 1_555
Ca7 F6 2.482800 1_554
Ca7 F40 2.503972 1_655
Ca7 F9 2.509253 1_554
Ca7 F42 2.708874 1_655
Ca7 F35 2.912295 1_555
Ca7 F19 2.929226 1_554
Ca8 F21 2.328611 1_555
Ca8 F32 2.364362 1_555
Ca8 F25 2.375351 1_555
Ca8 F28 2.379521 1_555
Ca8 F37 2.400545 1_555
Ca8 F10 2.411832 1_455
Ca8 F18 2.441157 1_555
Ca8 F27 2.462091 1_555
Ca9 F31 2.328611 1_555
Ca9 F29 2.364362 1_555
Ca9 F39 2.375351 1_555
Ca9 F34 2.379521 1_555
Ca9 F23 2.400545 1_555
Ca9 F13 2.411832 1_554
Ca9 F36 2.441157 1_555
Ca9 F20 2.462091 1_555
Ca10 F41 2.317490 1_555
Ca10 F31 2.340851 1_555
Ca10 F33 2.351339 1_555
Ca10 F40 2.390403 1_555
Ca10 F37 2.396590 1_555
Ca10 F27 2.413577 1_555
Ca10 F1 2.443516 1_565
Ca10 F36 2.478592 1_555
Ca11 F8 2.341664 1_565
Ca11 F40 2.374129 1_555
Ca11 F32 2.408060 1_555
Ca11 F37 2.425902 1_555
Ca11 F23 2.482800 1_455
Ca11 F3 2.503972 1_565
Ca11 F34 2.509253 1_455
Ca11 F7 2.708874 1_565
Ca11 F38 2.912295 1_555
Ca11 F24 2.929226 1_455
Ca12 F28 2.381029 1_554
Ca12 F5 2.385654 1_565
Ca12 F36 2.410998 1_555
Ca12 F39 2.414175 1_555
Ca12 F41 2.483326 1_555
Ca12 F12 2.487251 1_565
Ca12 F14 2.514160 1_565
Ca12 F25 2.571306 1_554
F0 Y5 2.232605 1_545
F0 Y4 2.262114 1_656
F1 Y5 2.357351 1_545
F2 Y5 2.362089 1_545
F3 Y2 2.401274 1_556
F4 Y3 2.236449 1_544
F4 Y4 2.268601 1_655
F7 Y5 2.236449 1_445
F7 Y2 2.268601 1_556
F8 Y0 2.377405 1_555
F9 Y1 2.379303 1_555
F10 Y4 2.372947 1_655
F11 Y0 2.342697 1_555
F12 Y2 2.263144 1_555
F12 Y0 2.276439 1_555
F13 Y2 2.372947 1_556
F14 Y2 2.377405 1_555
F15 Y1 2.374150 1_555
F16 Y4 2.401274 1_655
F17 Y0 2.263144 1_555
F17 Y4 2.276439 1_555
F19 Y1 2.278907 1_555
F19 Y3 2.306402 1_555
F20 Y2 2.342697 1_555
F21 Y3 2.374153 1_555
F22 Y4 2.263144 1_555
F22 Y2 2.276439 1_555
F24 Y5 2.278907 1_555
F24 Y1 2.306402 1_555
F25 Y1 2.362089 1_455
F26 Y1 2.481748 1_555
F26 Y3 2.481748 1_555
F26 Y5 2.481748 1_555
F27 Y4 2.342697 1_555
F28 Y3 2.379303 1_555
F29 Y3 2.357351 1_554
F30 Y3 2.278907 1_555
F30 Y5 2.306402 1_555
F31 Y5 2.374153 1_555
F32 Y1 2.357351 1_455
F33 Y4 2.377405 1_555
F34 Y5 2.379304 1_555
F35 Y3 2.232605 1_554
F35 Y0 2.262114 1_665
F38 Y1 2.232605 1_455
F38 Y2 2.262114 1_566
F39 Y3 2.362089 1_554
F40 Y0 2.401274 1_565
F41 Y0 2.372947 1_565
F42 Y1 2.236449 1_454
F42 Y0 2.268601 1_565
