# generated using pymatgen
data_CaS2(ClO3)2
_symmetry_space_group_name_H-M   'P 1'
_cell_length_a   9.38964700
_cell_length_b   10.44626400
_cell_length_c   17.63812600
_cell_angle_alpha   90.00000000
_cell_angle_beta   90.00000000
_cell_angle_gamma   90.00000000
_symmetry_Int_Tables_number   1
_chemical_formula_structural   CaS2(ClO3)2
_chemical_formula_sum   'Ca8 S16 Cl16 O48'
_cell_volume   1730.06612787
_cell_formula_units_Z   8
loop_
 _symmetry_equiv_pos_site_id
 _symmetry_equiv_pos_as_xyz
  1  'x, y, z'
loop_
 _atom_site_type_symbol
 _atom_site_label
 _atom_site_symmetry_multiplicity
 _atom_site_fract_x
 _atom_site_fract_y
 _atom_site_fract_z
 _atom_site_occupancy
  Ca  Ca0  1  0.63901900  0.40194700  0.37161800  1
  Ca  Ca1  1  0.86098100  0.90194700  0.62838200  1
  Ca  Ca2  1  0.63901900  0.90194700  0.12838200  1
  Ca  Ca3  1  0.13901900  0.09805300  0.37161800  1
  Ca  Ca4  1  0.36098100  0.59805300  0.62838200  1
  Ca  Ca5  1  0.13901900  0.59805300  0.12838200  1
  Ca  Ca6  1  0.86098100  0.40194700  0.87161800  1
  Ca  Ca7  1  0.36098100  0.09805300  0.87161800  1
  S  S0  1  0.03191800  0.64960300  0.74641900  1
  S  S1  1  0.22151900  0.38721000  0.96907600  1
  S  S2  1  0.96808200  0.35039700  0.25358100  1
  S  S3  1  0.46808200  0.14960300  0.25358100  1
  S  S4  1  0.27848100  0.38721000  0.46907600  1
  S  S5  1  0.22151900  0.88721000  0.53092400  1
  S  S6  1  0.96808200  0.85039700  0.24641900  1
  S  S7  1  0.46808200  0.64960300  0.24641900  1
  S  S8  1  0.03191800  0.14960300  0.75358100  1
  S  S9  1  0.77848100  0.11279000  0.46907600  1
  S  S10  1  0.72151900  0.61279000  0.53092400  1
  S  S11  1  0.27848100  0.88721000  0.03092400  1
  S  S12  1  0.53191800  0.35039700  0.75358100  1
  S  S13  1  0.53191800  0.85039700  0.74641900  1
  S  S14  1  0.72151900  0.11279000  0.96907600  1
  S  S15  1  0.77848100  0.61279000  0.03092400  1
  Cl  Cl0  1  0.85826200  0.48776600  0.58362500  1
  Cl  Cl1  1  0.38085300  0.25697900  0.16792600  1
  Cl  Cl2  1  0.35826200  0.01223400  0.58362500  1
  Cl  Cl3  1  0.61914700  0.24302100  0.66792600  1
  Cl  Cl4  1  0.88085300  0.74302100  0.33207400  1
  Cl  Cl5  1  0.61914700  0.74302100  0.83207400  1
  Cl  Cl6  1  0.11914700  0.25697900  0.66792600  1
  Cl  Cl7  1  0.11914700  0.75697900  0.83207400  1
  Cl  Cl8  1  0.88085300  0.24302100  0.16792600  1
  Cl  Cl9  1  0.14173800  0.01223400  0.08362500  1
  Cl  Cl10  1  0.64173800  0.98776600  0.41637500  1
  Cl  Cl11  1  0.85826200  0.98776600  0.91637500  1
  Cl  Cl12  1  0.14173800  0.51223400  0.41637500  1
  Cl  Cl13  1  0.35826200  0.51223400  0.91637500  1
  Cl  Cl14  1  0.64173800  0.48776600  0.08362500  1
  Cl  Cl15  1  0.38085300  0.75697900  0.33207400  1
  O  O0  1  0.78533100  0.23886700  0.95867400  1
  O  O1  1  0.56225600  0.23744600  0.29339200  1
  O  O2  1  0.95676000  0.54673400  0.78494100  1
  O  O3  1  0.28001300  0.42984300  0.54800500  1
  O  O4  1  0.08562100  0.90376100  0.56951400  1
  O  O5  1  0.71998700  0.57015700  0.45199500  1
  O  O6  1  0.54324000  0.04673400  0.21505900  1
  O  O7  1  0.91437900  0.59623900  0.06951400  1
  O  O8  1  0.08562100  0.40376100  0.93048600  1
  O  O9  1  0.84782400  0.39422100  0.29892000  1
  O  O10  1  0.28533100  0.76113300  0.54132600  1
  O  O11  1  0.54324000  0.54673400  0.28494100  1
  O  O12  1  0.78001300  0.57015700  0.95199500  1
  O  O13  1  0.41437900  0.40376100  0.43048600  1
  O  O14  1  0.95676000  0.04673400  0.71505900  1
  O  O15  1  0.56225600  0.73744600  0.20660800  1
  O  O16  1  0.58562100  0.09623900  0.93048600  1
  O  O17  1  0.15217600  0.60577900  0.70108000  1
  O  O18  1  0.04324000  0.45326600  0.21505900  1
  O  O19  1  0.71466900  0.73886700  0.04132600  1
  O  O20  1  0.15217600  0.10577900  0.79892000  1
  O  O21  1  0.28533100  0.26113300  0.95867400  1
  O  O22  1  0.34782400  0.60577900  0.20108000  1
  O  O23  1  0.78533100  0.73886700  0.54132600  1
  O  O24  1  0.91437900  0.09623900  0.43048600  1
  O  O25  1  0.43774400  0.76255400  0.70660800  1
  O  O26  1  0.06225600  0.26255400  0.29339200  1
  O  O27  1  0.41437900  0.90376100  0.06951400  1
  O  O28  1  0.21998700  0.92984300  0.45199500  1
  O  O29  1  0.43774400  0.26255400  0.79339200  1
  O  O30  1  0.21998700  0.42984300  0.04800500  1
  O  O31  1  0.58562100  0.59623900  0.56951400  1
  O  O32  1  0.71466900  0.23886700  0.45867400  1
  O  O33  1  0.28001300  0.92984300  0.95199500  1
  O  O34  1  0.45676000  0.95326600  0.78494100  1
  O  O35  1  0.21466900  0.26113300  0.45867400  1
  O  O36  1  0.65217600  0.39422100  0.79892000  1
  O  O37  1  0.06225600  0.76255400  0.20660800  1
  O  O38  1  0.04324000  0.95326600  0.28494100  1
  O  O39  1  0.71998700  0.07015700  0.04800500  1
  O  O40  1  0.21466900  0.76113300  0.04132600  1
  O  O41  1  0.65217600  0.89422100  0.70108000  1
  O  O42  1  0.93774400  0.23744600  0.79339200  1
  O  O43  1  0.93774400  0.73744600  0.70660800  1
  O  O44  1  0.84782400  0.89422100  0.20108000  1
  O  O45  1  0.45676000  0.45326600  0.71505900  1
  O  O46  1  0.78001300  0.07015700  0.54800500  1
  O  O47  1  0.34782400  0.10577900  0.29892000  1
loop_
_geom_bond_atom_site_label_1
_geom_bond_atom_site_label_2
_geom_bond_distance
_geom_bond_site_symmetry_2
Ca0 O1 2.318669 1_555
Ca0 O11 2.331028 1_555
Ca0 O9 2.344071 1_555
Ca0 O13 2.351080 1_555
Ca0 O5 2.382331 1_555
Ca0 O32 2.400940 1_555
Ca1 O43 2.318669 1_555
Ca1 O14 2.331028 1_565
Ca1 O41 2.344071 1_555
Ca1 O4 2.351080 1_655
Ca1 O46 2.382331 1_565
Ca1 O23 2.400940 1_555
Ca2 O15 2.318669 1_555
Ca2 O6 2.331028 1_565
Ca2 O44 2.344071 1_555
Ca2 O27 2.351080 1_555
Ca2 O39 2.382331 1_565
Ca2 O19 2.400940 1_555
Ca3 O26 2.318669 1_555
Ca3 O38 2.331028 1_545
Ca3 O47 2.344071 1_555
Ca3 O24 2.351080 1_455
Ca3 O28 2.382331 1_545
Ca3 O35 2.400940 1_555
Ca4 O25 2.318669 1_555
Ca4 O45 2.331028 1_555
Ca4 O17 2.344071 1_555
Ca4 O31 2.351080 1_555
Ca4 O3 2.382331 1_555
Ca4 O10 2.400940 1_555
Ca5 O37 2.318669 1_555
Ca5 O18 2.331028 1_555
Ca5 O22 2.344071 1_555
Ca5 O7 2.351080 1_455
Ca5 O30 2.382331 1_555
Ca5 O40 2.400940 1_555
Ca6 O42 2.318669 1_555
Ca6 O2 2.331028 1_555
Ca6 O36 2.344071 1_555
Ca6 O8 2.351080 1_655
Ca6 O12 2.382331 1_555
Ca6 O0 2.400940 1_555
Ca7 O29 2.318669 1_555
Ca7 O34 2.331028 1_545
Ca7 O20 2.344071 1_555
Ca7 O16 2.351080 1_555
Ca7 O33 2.382331 1_545
Ca7 O21 2.400940 1_555
Cl0 S10 2.053864 1_555
Cl1 S3 2.052194 1_555
Cl2 S5 2.053864 1_545
Cl3 S12 2.052194 1_555
Cl4 S6 2.052194 1_555
Cl5 S13 2.052194 1_555
Cl6 S8 2.052194 1_555
Cl7 S0 2.052194 1_555
Cl8 S2 2.052194 1_555
Cl9 S11 2.053864 1_545
Cl10 S9 2.053864 1_565
Cl11 S14 2.053864 1_565
Cl12 S4 2.053864 1_555
Cl13 S1 2.053864 1_555
Cl14 S15 2.053864 1_555
Cl15 S7 2.052194 1_555
O0 S14 1.458508 1_555
O1 S3 1.455004 1_555
O2 S0 1.454112 1_655
O3 S4 1.461731 1_555
O4 S5 1.456519 1_555
O5 S10 1.461731 1_555
O6 S3 1.454112 1_555
O7 S15 1.456519 1_555
O8 S1 1.456519 1_555
O9 S2 1.457442 1_555
O10 S5 1.458508 1_555
O11 S7 1.454112 1_555
O12 S15 1.461731 1_556
O13 S4 1.456519 1_555
O14 S8 1.454112 1_655
O15 S7 1.455004 1_555
O16 S14 1.456519 1_555
O17 S0 1.457442 1_555
O18 S2 1.454112 1_455
O19 S15 1.458508 1_555
O20 S8 1.457442 1_555
O21 S1 1.458508 1_555
O22 S7 1.457442 1_555
O23 S10 1.458508 1_555
O24 S9 1.456519 1_555
O25 S13 1.455004 1_555
O26 S2 1.455004 1_455
O27 S11 1.456519 1_555
O28 S5 1.461731 1_555
O29 S12 1.455004 1_555
O30 S1 1.461731 1_554
O31 S10 1.456519 1_555
O32 S9 1.458508 1_555
O33 S11 1.461731 1_556
O34 S13 1.454112 1_555
O35 S4 1.458508 1_555
O36 S12 1.457442 1_555
O37 S6 1.455004 1_455
O38 S6 1.454112 1_455
O39 S14 1.461731 1_554
O40 S11 1.458508 1_555
O41 S13 1.457442 1_555
O42 S8 1.455004 1_655
O43 S0 1.455004 1_655
O44 S6 1.457442 1_555
O45 S12 1.454112 1_555
O46 S9 1.461731 1_555
O47 S3 1.457442 1_555
