# generated using pymatgen
data_Ce(Ni5P2)2
_symmetry_space_group_name_H-M   'P 1'
_cell_length_a   3.63959800
_cell_length_b   9.21739600
_cell_length_c   21.95631400
_cell_angle_alpha   90.00000000
_cell_angle_beta   90.00000000
_cell_angle_gamma   90.00000000
_symmetry_Int_Tables_number   1
_chemical_formula_structural   Ce(Ni5P2)2
_chemical_formula_sum   'Ce4 Ni40 P16'
_cell_volume   736.58199188
_cell_formula_units_Z   4
loop_
 _symmetry_equiv_pos_site_id
 _symmetry_equiv_pos_as_xyz
  1  'x, y, z'
loop_
 _atom_site_type_symbol
 _atom_site_label
 _atom_site_symmetry_multiplicity
 _atom_site_fract_x
 _atom_site_fract_y
 _atom_site_fract_z
 _atom_site_occupancy
  Ce  Ce0  1  0.75000000  0.79879000  0.89243300  1
  Ce  Ce1  1  0.25000000  0.20121000  0.10756700  1
  Ce  Ce2  1  0.75000000  0.29879000  0.60756700  1
  Ce  Ce3  1  0.25000000  0.70121000  0.39243300  1
  Ni  Ni0  1  0.25000000  0.08326000  0.53149100  1
  Ni  Ni1  1  0.25000000  0.04980500  0.41742100  1
  Ni  Ni2  1  0.75000000  0.17302200  0.90273900  1
  Ni  Ni3  1  0.75000000  0.20557700  0.32923300  1
  Ni  Ni4  1  0.25000000  0.29442300  0.82923300  1
  Ni  Ni5  1  0.75000000  0.59836000  0.70254300  1
  Ni  Ni6  1  0.25000000  0.58326000  0.96850900  1
  Ni  Ni7  1  0.25000000  0.92312800  0.77878100  1
  Ni  Ni8  1  0.25000000  0.79442300  0.67076700  1
  Ni  Ni9  1  0.25000000  0.66017900  0.78438900  1
  Ni  Ni10  1  0.25000000  0.32697800  0.40273900  1
  Ni  Ni11  1  0.75000000  0.95019500  0.58257900  1
  Ni  Ni12  1  0.75000000  0.96422300  0.03807300  1
  Ni  Ni13  1  0.25000000  0.40164000  0.29745700  1
  Ni  Ni14  1  0.75000000  0.57687200  0.27878100  1
  Ni  Ni15  1  0.75000000  0.70557700  0.17076700  1
  Ni  Ni16  1  0.75000000  0.09836000  0.79745700  1
  Ni  Ni17  1  0.25000000  0.90164000  0.20254300  1
  Ni  Ni18  1  0.25000000  0.01912900  0.30635400  1
  Ni  Ni19  1  0.75000000  0.19230100  0.46806000  1
  Ni  Ni20  1  0.25000000  0.30769900  0.96806000  1
  Ni  Ni21  1  0.75000000  0.41674000  0.03149100  1
  Ni  Ni22  1  0.75000000  0.67302200  0.59726100  1
  Ni  Ni23  1  0.25000000  0.53577700  0.53807300  1
  Ni  Ni24  1  0.25000000  0.16017900  0.71561100  1
  Ni  Ni25  1  0.75000000  0.69230100  0.03194000  1
  Ni  Ni26  1  0.25000000  0.42312800  0.72121900  1
  Ni  Ni27  1  0.75000000  0.45019500  0.91742100  1
  Ni  Ni28  1  0.75000000  0.48087100  0.80635400  1
  Ni  Ni29  1  0.25000000  0.80769900  0.53194000  1
  Ni  Ni30  1  0.75000000  0.46422300  0.46192700  1
  Ni  Ni31  1  0.25000000  0.82697800  0.09726100  1
  Ni  Ni32  1  0.25000000  0.03577700  0.96192700  1
  Ni  Ni33  1  0.75000000  0.07687200  0.22121900  1
  Ni  Ni34  1  0.75000000  0.83982100  0.28438900  1
  Ni  Ni35  1  0.75000000  0.33982100  0.21561100  1
  Ni  Ni36  1  0.25000000  0.54980500  0.08257900  1
  Ni  Ni37  1  0.75000000  0.91674000  0.46850900  1
  Ni  Ni38  1  0.75000000  0.98087100  0.69364600  1
  Ni  Ni39  1  0.25000000  0.51912900  0.19364600  1
  P  P0  1  0.25000000  0.06195800  0.86086100  1
  P  P1  1  0.25000000  0.20489200  0.24320900  1
  P  P2  1  0.75000000  0.43804200  0.36086100  1
  P  P3  1  0.75000000  0.97483400  0.36849500  1
  P  P4  1  0.25000000  0.31453100  0.50101400  1
  P  P5  1  0.75000000  0.68546900  0.49898600  1
  P  P6  1  0.75000000  0.29510800  0.74320900  1
  P  P7  1  0.25000000  0.52516600  0.86849500  1
  P  P8  1  0.25000000  0.56195800  0.63913900  1
  P  P9  1  0.75000000  0.79510800  0.75679100  1
  P  P10  1  0.75000000  0.93804200  0.13913900  1
  P  P11  1  0.75000000  0.18546900  0.00101400  1
  P  P12  1  0.25000000  0.81453100  0.99898600  1
  P  P13  1  0.25000000  0.70489200  0.25679100  1
  P  P14  1  0.25000000  0.02516600  0.63150500  1
  P  P15  1  0.75000000  0.47483400  0.13150500  1
loop_
_geom_bond_atom_site_label_1
_geom_bond_atom_site_label_2
_geom_bond_distance
_geom_bond_site_symmetry_2
Ce0 P12 2.967496 1_655
Ce0 P12 2.967496 1_555
Ce0 P9 2.978392 1_555
Ce0 P0 3.110681 1_565
Ce0 P0 3.110681 1_665
Ce0 P7 3.154189 1_555
Ce0 P7 3.154189 1_655
Ce0 Ni6 3.169923 1_555
Ce0 Ni6 3.169923 1_655
Ce0 Ni25 3.216485 1_556
Ce0 Ni32 3.226678 1_565
Ce0 Ni32 3.226678 1_665
Ce0 Ni9 3.251396 1_555
Ce0 Ni9 3.251396 1_655
Ce0 Ni27 3.259642 1_555
Ce0 Ni7 3.294248 1_655
Ce0 Ni7 3.294248 1_555
Ce1 P11 2.967496 1_555
Ce1 P11 2.967496 1_455
Ce1 P1 2.978392 1_555
Ce1 P10 3.110681 1_545
Ce1 P10 3.110681 1_445
Ce1 P15 3.154189 1_455
Ce1 P15 3.154189 1_555
Ce1 Ni21 3.169923 1_455
Ce1 Ni21 3.169923 1_555
Ce1 Ni20 3.216485 1_554
Ce1 Ni12 3.226678 1_445
Ce1 Ni12 3.226678 1_545
Ce1 Ni35 3.251396 1_455
Ce1 Ni35 3.251396 1_555
Ce1 Ni36 3.259642 1_555
Ce1 Ni33 3.294248 1_455
Ce1 Ni33 3.294248 1_555
Ce2 P4 2.967496 1_555
Ce2 P4 2.967496 1_655
Ce2 P6 2.978392 1_555
Ce2 P8 3.110681 1_655
Ce2 P8 3.110681 1_555
Ce2 P14 3.154189 1_555
Ce2 P14 3.154189 1_655
Ce2 Ni0 3.169923 1_555
Ce2 Ni0 3.169923 1_655
Ce2 Ni19 3.216485 1_555
Ce2 Ni23 3.226678 1_655
Ce2 Ni23 3.226678 1_555
Ce2 Ni24 3.251396 1_655
Ce2 Ni24 3.251396 1_555
Ce2 Ni11 3.259642 1_545
Ce2 Ni26 3.294248 1_555
Ce2 Ni26 3.294248 1_655
Ce3 P5 2.967496 1_455
Ce3 P5 2.967496 1_555
Ce3 P13 2.978392 1_555
Ce3 P2 3.110681 1_555
Ce3 P2 3.110681 1_455
Ce3 P3 3.154189 1_555
Ce3 P3 3.154189 1_455
Ce3 Ni37 3.169923 1_555
Ce3 Ni37 3.169923 1_455
Ce3 Ni29 3.216485 1_555
Ce3 Ni30 3.226678 1_455
Ce3 Ni30 3.226678 1_555
Ce3 Ni34 3.251396 1_455
Ce3 Ni34 3.251396 1_555
Ce3 Ni1 3.259642 1_565
Ce3 Ni14 3.294248 1_455
Ce3 Ni14 3.294248 1_555
Ni0 P4 2.234277 1_555
Ni0 P14 2.260283 1_555
Ni1 P3 2.223327 1_445
Ni1 P3 2.223327 1_545
Ni2 P11 2.160805 1_556
Ni2 P0 2.281475 1_555
Ni2 P0 2.281475 1_655
Ni3 P2 2.252442 1_555
Ni3 P3 2.294911 1_545
Ni3 P1 2.622815 1_555
Ni3 P1 2.622815 1_655
Ni4 P0 2.252442 1_555
Ni4 P7 2.294911 1_555
Ni4 P6 2.622815 1_555
Ni4 P6 2.622815 1_455
Ni5 P9 2.169674 1_555
Ni5 P8 2.315652 1_655
Ni5 P8 2.315652 1_555
Ni6 P12 2.234277 1_555
Ni6 P7 2.260283 1_555
Ni7 P0 2.210280 1_565
Ni7 P9 2.221983 1_555
Ni7 P9 2.221983 1_455
Ni8 P8 2.252442 1_555
Ni8 P14 2.294911 1_565
Ni8 P9 2.622815 1_455
Ni8 P9 2.622815 1_555
Ni9 P7 2.226847 1_555
Ni9 P9 2.285961 1_555
Ni9 P9 2.285961 1_455
Ni10 P4 2.160805 1_555
Ni10 P2 2.281475 1_455
Ni10 P2 2.281475 1_555
Ni11 P14 2.223327 1_565
Ni11 P14 2.223327 1_665
Ni12 P11 2.195647 1_565
Ni12 P10 2.232120 1_555
Ni12 P12 2.439663 1_554
Ni12 P12 2.439663 1_654
Ni13 P1 2.169674 1_555
Ni13 P2 2.315652 1_455
Ni13 P2 2.315652 1_555
Ni14 P2 2.210280 1_555
Ni14 P13 2.221983 1_555
Ni14 P13 2.221983 1_655
Ni15 P10 2.252442 1_555
Ni15 P15 2.294911 1_555
Ni15 P13 2.622815 1_655
Ni15 P13 2.622815 1_555
Ni16 P6 2.169674 1_555
Ni16 P0 2.315652 1_555
Ni16 P0 2.315652 1_655
Ni17 P13 2.169674 1_555
Ni17 P10 2.315652 1_455
Ni17 P10 2.315652 1_555
Ni18 P1 2.203179 1_555
Ni18 P3 2.310826 1_445
Ni18 P3 2.310826 1_545
Ni19 P4 2.259317 1_555
Ni19 P4 2.259317 1_655
Ni20 P11 2.259317 1_456
Ni20 P11 2.259317 1_556
Ni21 P11 2.234277 1_555
Ni21 P15 2.260283 1_555
Ni22 P5 2.160805 1_555
Ni22 P8 2.281475 1_655
Ni22 P8 2.281475 1_555
Ni23 P4 2.195647 1_555
Ni23 P8 2.232120 1_555
Ni23 P5 2.439663 1_555
Ni23 P5 2.439663 1_455
Ni24 P14 2.226847 1_555
Ni24 P6 2.285961 1_555
Ni24 P6 2.285961 1_455
Ni25 P12 2.259317 1_554
Ni25 P12 2.259317 1_654
Ni26 P8 2.210280 1_555
Ni26 P6 2.221983 1_555
Ni26 P6 2.221983 1_455
Ni27 P7 2.223327 1_655
Ni27 P7 2.223327 1_555
Ni28 P6 2.203179 1_555
Ni28 P7 2.310826 1_655
Ni28 P7 2.310826 1_555
Ni29 P5 2.259317 1_555
Ni29 P5 2.259317 1_455
Ni30 P5 2.195647 1_555
Ni30 P2 2.232120 1_555
Ni30 P4 2.439663 1_655
Ni30 P4 2.439663 1_555
Ni31 P12 2.160805 1_554
Ni31 P10 2.281475 1_455
Ni31 P10 2.281475 1_555
Ni32 P12 2.195647 1_545
Ni32 P0 2.232120 1_555
Ni32 P11 2.439663 1_456
Ni32 P11 2.439663 1_556
Ni33 P10 2.210280 1_545
Ni33 P1 2.221983 1_655
Ni33 P1 2.221983 1_555
Ni34 P3 2.226847 1_555
Ni34 P13 2.285961 1_655
Ni34 P13 2.285961 1_555
Ni35 P15 2.226847 1_555
Ni35 P1 2.285961 1_655
Ni35 P1 2.285961 1_555
Ni36 P15 2.223327 1_555
Ni36 P15 2.223327 1_455
Ni37 P5 2.234277 1_555
Ni37 P3 2.260283 1_555
Ni38 P9 2.203179 1_555
Ni38 P14 2.310826 1_565
Ni38 P14 2.310826 1_665
Ni39 P13 2.203179 1_555
Ni39 P15 2.310826 1_455
Ni39 P15 2.310826 1_555
