# generated using pymatgen
data_K2MnP2O7
_symmetry_space_group_name_H-M   'P 1'
_cell_length_a   5.60369800
_cell_length_b   9.69772500
_cell_length_c   14.05048674
_cell_angle_alpha   62.52771714
_cell_angle_beta   90.00000000
_cell_angle_gamma   90.00000000
_symmetry_Int_Tables_number   1
_chemical_formula_structural   K2MnP2O7
_chemical_formula_sum   'K8 Mn4 P8 O28'
_cell_volume   677.44521955
_cell_formula_units_Z   4
loop_
 _symmetry_equiv_pos_site_id
 _symmetry_equiv_pos_as_xyz
  1  'x, y, z'
loop_
 _atom_site_type_symbol
 _atom_site_label
 _atom_site_symmetry_multiplicity
 _atom_site_fract_x
 _atom_site_fract_y
 _atom_site_fract_z
 _atom_site_occupancy
  K  K0  1  0.26675800  0.49059300  0.13900600  1
  K  K1  1  0.23324200  0.49059300  0.63900600  1
  K  K2  1  0.72693500  0.96489700  0.67653300  1
  K  K3  1  0.73324200  0.50940700  0.86099400  1
  K  K4  1  0.27306500  0.03510300  0.32346700  1
  K  K5  1  0.76675800  0.50940700  0.36099400  1
  K  K6  1  0.77306500  0.96489700  0.17653300  1
  K  K7  1  0.22693500  0.03510300  0.82346700  1
  Mn  Mn0  1  0.24227700  0.23308400  0.01813300  1
  Mn  Mn1  1  0.74227700  0.76691600  0.48186700  1
  Mn  Mn2  1  0.25772300  0.23308400  0.51813300  1
  Mn  Mn3  1  0.75772300  0.76691600  0.98186700  1
  P  P0  1  0.25937500  0.66856400  0.36224200  1
  P  P1  1  0.24062500  0.66856400  0.86224200  1
  P  P2  1  0.22463200  0.82694300  0.62087500  1
  P  P3  1  0.75937500  0.33143600  0.13775800  1
  P  P4  1  0.77536800  0.17305700  0.37912500  1
  P  P5  1  0.27536800  0.82694300  0.12087500  1
  P  P6  1  0.72463200  0.17305700  0.87912500  1
  P  P7  1  0.74062500  0.33143600  0.63775800  1
  O  O0  1  0.04527300  0.74356000  0.38791700  1
  O  O1  1  0.49747500  0.75053600  0.35571900  1
  O  O2  1  0.95472700  0.25644000  0.61208300  1
  O  O3  1  0.02688600  0.21897700  0.39747600  1
  O  O4  1  0.97311400  0.78102300  0.60252400  1
  O  O5  1  0.73231900  0.02019900  0.87200800  1
  O  O6  1  0.22908600  0.49195300  0.92997600  1
  O  O7  1  0.26768100  0.97980100  0.12799200  1
  O  O8  1  0.00252500  0.75053600  0.85571900  1
  O  O9  1  0.19958100  0.68768700  0.24127800  1
  O  O10  1  0.91424200  0.19051200  0.95054300  1
  O  O11  1  0.76768100  0.02019900  0.37200800  1
  O  O12  1  0.50252500  0.24946400  0.64428100  1
  O  O13  1  0.23231900  0.97980100  0.62799200  1
  O  O14  1  0.30041900  0.68768700  0.74127800  1
  O  O15  1  0.80041900  0.31231300  0.75872200  1
  O  O16  1  0.27091400  0.49195300  0.42997600  1
  O  O17  1  0.54527300  0.25644000  0.11208300  1
  O  O18  1  0.77091400  0.50804700  0.07002400  1
  O  O19  1  0.72908600  0.50804700  0.57002400  1
  O  O20  1  0.99747500  0.24946400  0.14428100  1
  O  O21  1  0.69958100  0.31231300  0.25872200  1
  O  O22  1  0.58575800  0.19051200  0.45054300  1
  O  O23  1  0.47311400  0.21897700  0.89747600  1
  O  O24  1  0.41424200  0.80948800  0.54945700  1
  O  O25  1  0.52688600  0.78102300  0.10252400  1
  O  O26  1  0.45472700  0.74356000  0.88791700  1
  O  O27  1  0.08575800  0.80948800  0.04945700  1
loop_
_geom_bond_atom_site_label_1
_geom_bond_atom_site_label_2
_geom_bond_distance
_geom_bond_site_symmetry_2
K0 O20 2.755129 1_455
K0 O9 2.897240 1_555
K0 O17 2.920234 1_555
K0 O18 2.921830 1_455
K0 O27 2.930132 1_555
K0 O6 2.938505 1_554
K0 O18 2.966159 1_555
K0 O25 2.998046 1_555
K0 O21 3.002986 1_555
K1 O12 2.755129 1_555
K1 O14 2.897240 1_555
K1 O2 2.920234 1_455
K1 O19 2.921830 1_555
K1 O24 2.930132 1_555
K1 O16 2.938505 1_555
K1 O19 2.966159 1_455
K1 O4 2.998046 1_455
K1 O15 3.002986 1_455
K2 O4 2.806211 1_555
K2 O13 2.842059 1_555
K2 O2 2.842685 1_565
K2 O8 2.866378 1_655
K2 O12 2.872037 1_565
K2 O13 2.900936 1_655
K2 O22 3.014208 1_565
K2 O5 3.031652 1_565
K2 O26 3.142187 1_555
K3 O8 2.755129 1_655
K3 O15 2.897240 1_555
K3 O26 2.920234 1_555
K3 O6 2.921830 1_655
K3 O10 2.930132 1_555
K3 O18 2.938505 1_556
K3 O6 2.966159 1_555
K3 O23 2.998046 1_555
K3 O14 3.002986 1_555
K4 O3 2.806211 1_555
K4 O11 2.842059 1_555
K4 O0 2.842685 1_545
K4 O20 2.866378 1_455
K4 O1 2.872037 1_545
K4 O11 2.900936 1_455
K4 O24 3.014208 1_545
K4 O7 3.031652 1_545
K4 O17 3.142187 1_555
K5 O1 2.755129 1_555
K5 O21 2.897240 1_555
K5 O0 2.920234 1_655
K5 O16 2.921830 1_555
K5 O22 2.930132 1_555
K5 O19 2.938505 1_555
K5 O16 2.966159 1_655
K5 O3 2.998046 1_655
K5 O9 3.002986 1_655
K6 O25 2.806211 1_555
K6 O7 2.842059 1_655
K6 O17 2.842685 1_565
K6 O1 2.866378 1_555
K6 O20 2.872037 1_565
K6 O7 2.900936 1_555
K6 O10 3.014208 1_564
K6 O11 3.031652 1_565
K6 O0 3.142187 1_655
K7 O23 2.806211 1_555
K7 O5 2.842059 1_455
K7 O26 2.842685 1_545
K7 O12 2.866378 1_555
K7 O8 2.872037 1_545
K7 O5 2.900936 1_555
K7 O27 3.014208 1_546
K7 O13 3.031652 1_545
K7 O2 3.142187 1_455
Mn0 O23 2.186311 1_554
Mn0 O10 2.193873 1_454
Mn0 O7 2.222165 1_545
Mn0 O17 2.225429 1_555
Mn0 O6 2.230029 1_554
Mn0 O20 2.303991 1_455
Mn1 O4 2.186311 1_555
Mn1 O24 2.193873 1_555
Mn1 O11 2.222165 1_565
Mn1 O0 2.225429 1_655
Mn1 O19 2.230029 1_555
Mn1 O1 2.303991 1_555
Mn2 O3 2.186311 1_555
Mn2 O22 2.193873 1_555
Mn2 O13 2.222165 1_545
Mn2 O2 2.225429 1_455
Mn2 O16 2.230029 1_555
Mn2 O12 2.303991 1_555
Mn3 O25 2.186311 1_556
Mn3 O27 2.193873 1_656
Mn3 O5 2.222165 1_565
Mn3 O26 2.225429 1_555
Mn3 O18 2.230029 1_556
Mn3 O8 2.303991 1_655
O0 P0 1.529899 1_555
O1 P0 1.534050 1_555
O2 P7 1.529899 1_555
O3 P4 1.535326 1_455
O4 P2 1.535326 1_655
O5 P6 1.531684 1_555
O6 P1 1.529522 1_555
O7 P5 1.531684 1_555
O8 P1 1.534050 1_555
O9 P0 1.656655 1_555
O9 P5 1.660773 1_555
O10 P6 1.523562 1_555
O11 P4 1.531684 1_555
O12 P7 1.534050 1_555
O13 P2 1.531684 1_555
O14 P1 1.656655 1_555
O14 P2 1.660773 1_555
O15 P7 1.656655 1_555
O15 P6 1.660773 1_555
O16 P0 1.529522 1_555
O17 P3 1.529899 1_555
O18 P3 1.529522 1_555
O19 P7 1.529522 1_555
O20 P3 1.534050 1_555
O21 P3 1.656655 1_555
O21 P4 1.660773 1_555
O22 P4 1.523562 1_555
O23 P6 1.535326 1_555
O24 P2 1.523562 1_555
O25 P5 1.535326 1_555
O26 P1 1.529899 1_555
O27 P5 1.523562 1_555
