# generated using pymatgen
data_Eu4Mo4O11
_symmetry_space_group_name_H-M   'P 1'
_cell_length_a   5.80062017
_cell_length_b   11.15512187
_cell_length_c   16.59717806
_cell_angle_alpha   90.00000000
_cell_angle_beta   90.00000000
_cell_angle_gamma   90.00000000
_symmetry_Int_Tables_number   1
_chemical_formula_structural   Eu4Mo4O11
_chemical_formula_sum   'Eu16 Mo16 O44'
_cell_volume   1073.94737542
_cell_formula_units_Z   4
loop_
 _symmetry_equiv_pos_site_id
 _symmetry_equiv_pos_as_xyz
  1  'x, y, z'
loop_
 _atom_site_type_symbol
 _atom_site_label
 _atom_site_symmetry_multiplicity
 _atom_site_fract_x
 _atom_site_fract_y
 _atom_site_fract_z
 _atom_site_occupancy
  Eu  Eu0  1  0.50000000  0.81931755  0.22016573  1
  Eu  Eu1  1  0.50000000  0.07796085  0.09594334  1
  Eu  Eu2  1  0.00000000  0.11639398  0.92415381  1
  Eu  Eu3  1  0.50000000  0.68068245  0.72016573  1
  Eu  Eu4  1  0.00000000  0.61639398  0.57584619  1
  Eu  Eu5  1  0.00000000  0.90641967  0.76253419  1
  Eu  Eu6  1  0.00000000  0.38360602  0.42415381  1
  Eu  Eu7  1  0.00000000  0.88360602  0.07584619  1
  Eu  Eu8  1  0.00000000  0.59358033  0.26253419  1
  Eu  Eu9  1  0.00000000  0.09358033  0.23746581  1
  Eu  Eu10  1  0.50000000  0.92203915  0.90405666  1
  Eu  Eu11  1  0.00000000  0.40641967  0.73746581  1
  Eu  Eu12  1  0.50000000  0.31931755  0.27983427  1
  Eu  Eu13  1  0.50000000  0.57796085  0.40405666  1
  Eu  Eu14  1  0.50000000  0.42203915  0.59594334  1
  Eu  Eu15  1  0.50000000  0.18068245  0.77983427  1
  Mo  Mo0  1  0.50000000  0.40593696  0.93060618  1
  Mo  Mo1  1  0.50000000  0.09406304  0.43060618  1
  Mo  Mo2  1  0.00000000  0.58284375  0.05908250  1
  Mo  Mo3  1  0.00000000  0.08284375  0.44091750  1
  Mo  Mo4  1  0.27727778  0.36239947  0.08791539  1
  Mo  Mo5  1  0.72272222  0.36239947  0.08791539  1
  Mo  Mo6  1  0.00000000  0.41715625  0.94091750  1
  Mo  Mo7  1  0.50000000  0.59406304  0.06939382  1
  Mo  Mo8  1  0.27727778  0.63760053  0.91208461  1
  Mo  Mo9  1  0.27727778  0.86239947  0.41208461  1
  Mo  Mo10  1  0.00000000  0.91715625  0.55908250  1
  Mo  Mo11  1  0.72272222  0.86239947  0.41208461  1
  Mo  Mo12  1  0.50000000  0.90593696  0.56939382  1
  Mo  Mo13  1  0.72272222  0.63760053  0.91208461  1
  Mo  Mo14  1  0.72272222  0.13760053  0.58791539  1
  Mo  Mo15  1  0.27727778  0.13760053  0.58791539  1
  O  O0  1  0.50000000  0.46009690  0.16220829  1
  O  O1  1  0.23875250  0.00000000  0.00000000  1
  O  O2  1  0.24404665  0.46030200  0.33037231  1
  O  O3  1  0.23795074  0.68207615  0.13134187  1
  O  O4  1  0.75595335  0.46030200  0.33037231  1
  O  O5  1  0.26021116  0.73498313  0.33131197  1
  O  O6  1  0.76124750  0.50000000  0.50000000  1
  O  O7  1  0.50000000  0.76155280  0.48502404  1
  O  O8  1  0.00000000  0.95304055  0.35256563  1
  O  O9  1  0.73978884  0.76501687  0.83131197  1
  O  O10  1  0.73978884  0.26501687  0.66868803  1
  O  O11  1  0.76204926  0.31792385  0.86865813  1
  O  O12  1  0.75595335  0.53969800  0.66962769  1
  O  O13  1  0.50000000  0.03990310  0.66220829  1
  O  O14  1  0.75595335  0.03969800  0.83037231  1
  O  O15  1  0.23795074  0.18207615  0.36865813  1
  O  O16  1  0.76124750  0.00000000  0.00000000  1
  O  O17  1  0.26021116  0.76501687  0.83131197  1
  O  O18  1  0.26021116  0.26501687  0.66868803  1
  O  O19  1  0.75595335  0.96030200  0.16962769  1
  O  O20  1  0.26021116  0.23498313  0.16868803  1
  O  O21  1  0.50000000  0.73844720  0.98502404  1
  O  O22  1  0.00000000  0.45304055  0.14743437  1
  O  O23  1  0.00000000  0.27805124  0.02330138  1
  O  O24  1  0.23795074  0.81792385  0.63134187  1
  O  O25  1  0.76204926  0.18207615  0.36865813  1
  O  O26  1  0.00000000  0.77805124  0.47669862  1
  O  O27  1  0.50000000  0.26155280  0.01497596  1
  O  O28  1  0.76204926  0.68207615  0.13134187  1
  O  O29  1  0.73978884  0.73498313  0.33131197  1
  O  O30  1  0.50000000  0.96009690  0.33779171  1
  O  O31  1  0.50000000  0.23844720  0.51497596  1
  O  O32  1  0.50000000  0.53990310  0.83779171  1
  O  O33  1  0.00000000  0.72194876  0.97669862  1
  O  O34  1  0.24404665  0.03969800  0.83037231  1
  O  O35  1  0.24404665  0.53969800  0.66962769  1
  O  O36  1  0.76204926  0.81792385  0.63134187  1
  O  O37  1  0.23875250  0.50000000  0.50000000  1
  O  O38  1  0.00000000  0.54695945  0.85256563  1
  O  O39  1  0.73978884  0.23498313  0.16868803  1
  O  O40  1  0.00000000  0.04695945  0.64743437  1
  O  O41  1  0.00000000  0.22194876  0.52330138  1
  O  O42  1  0.24404665  0.96030200  0.16962769  1
  O  O43  1  0.23795074  0.31792385  0.86865813  1
loop_
_geom_bond_atom_site_label_1
_geom_bond_atom_site_label_2
_geom_bond_distance
_geom_bond_site_symmetry_2
Eu0 O19 2.319751 1_555
Eu0 O42 2.319751 1_555
Eu0 O5 2.494528 1_555
Eu0 O29 2.494528 1_555
Eu0 O30 2.505495 1_555
Eu0 O3 2.612983 1_555
Eu0 O28 2.612983 1_555
Eu1 O19 2.328640 1_545
Eu1 O42 2.328640 1_545
Eu1 O16 2.363989 1_555
Eu1 O1 2.363989 1_555
Eu1 O27 2.449519 1_555
Eu1 O39 2.541750 1_555
Eu1 O20 2.541750 1_555
Eu2 O14 2.271272 1_455
Eu2 O34 2.271272 1_555
Eu2 O1 2.277818 1_556
Eu2 O16 2.277818 1_456
Eu2 O23 2.441273 1_556
Eu2 O11 2.794174 1_455
Eu2 O43 2.794174 1_555
Eu3 O35 2.319751 1_555
Eu3 O12 2.319751 1_555
Eu3 O17 2.494528 1_555
Eu3 O9 2.494528 1_555
Eu3 O32 2.505495 1_555
Eu3 O24 2.612983 1_555
Eu3 O36 2.612983 1_555
Eu4 O35 2.271272 1_555
Eu4 O12 2.271272 1_455
Eu4 O37 2.277818 1_555
Eu4 O6 2.277818 1_455
Eu4 O26 2.441273 1_555
Eu4 O24 2.794174 1_555
Eu4 O36 2.794174 1_455
Eu5 O34 2.341382 1_565
Eu5 O14 2.341382 1_465
Eu5 O17 2.463613 1_555
Eu5 O9 2.463613 1_455
Eu5 O40 2.471269 1_565
Eu5 O36 2.760583 1_455
Eu5 O24 2.760583 1_555
Eu6 O2 2.271272 1_555
Eu6 O4 2.271272 1_455
Eu6 O37 2.277818 1_555
Eu6 O6 2.277818 1_455
Eu6 O41 2.441273 1_555
Eu6 O25 2.794174 1_455
Eu6 O15 2.794174 1_555
Eu7 O42 2.271272 1_555
Eu7 O19 2.271272 1_455
Eu7 O1 2.277818 1_565
Eu7 O16 2.277818 1_465
Eu7 O33 2.441273 1_554
Eu7 O28 2.794174 1_455
Eu7 O3 2.794174 1_555
Eu8 O2 2.341382 1_555
Eu8 O4 2.341382 1_455
Eu8 O29 2.463613 1_455
Eu8 O5 2.463613 1_555
Eu8 O22 2.471269 1_555
Eu8 O3 2.760583 1_555
Eu8 O28 2.760583 1_455
Eu9 O42 2.341382 1_545
Eu9 O19 2.341382 1_445
Eu9 O39 2.463613 1_455
Eu9 O20 2.463613 1_555
Eu9 O8 2.471269 1_545
Eu9 O25 2.760583 1_455
Eu9 O15 2.760583 1_555
Eu10 O14 2.328640 1_565
Eu10 O34 2.328640 1_565
Eu10 O16 2.363989 1_566
Eu10 O1 2.363989 1_566
Eu10 O21 2.449519 1_555
Eu10 O17 2.541750 1_555
Eu10 O9 2.541750 1_555
Eu11 O35 2.341382 1_555
Eu11 O12 2.341382 1_455
Eu11 O10 2.463613 1_455
Eu11 O18 2.463613 1_555
Eu11 O38 2.471269 1_555
Eu11 O11 2.760583 1_455
Eu11 O43 2.760583 1_555
Eu12 O2 2.319751 1_555
Eu12 O4 2.319751 1_555
Eu12 O39 2.494528 1_555
Eu12 O20 2.494528 1_555
Eu12 O0 2.505495 1_555
Eu12 O15 2.612983 1_555
Eu12 O25 2.612983 1_555
Eu13 O2 2.328640 1_555
Eu13 O4 2.328640 1_555
Eu13 O6 2.363989 1_555
Eu13 O37 2.363989 1_555
Eu13 O7 2.449519 1_555
Eu13 O5 2.541750 1_555
Eu13 O29 2.541750 1_555
Eu14 O35 2.328640 1_555
Eu14 O12 2.328640 1_555
Eu14 O6 2.363989 1_555
Eu14 O37 2.363989 1_555
Eu14 O31 2.449519 1_555
Eu14 O10 2.541750 1_555
Eu14 O18 2.541750 1_555
Eu15 O14 2.319751 1_555
Eu15 O34 2.319751 1_555
Eu15 O10 2.494528 1_555
Eu15 O18 2.494528 1_555
Eu15 O13 2.505495 1_555
Eu15 O43 2.612983 1_555
Eu15 O11 2.612983 1_555
Mo0 O43 2.081247 1_555
Mo0 O11 2.081247 1_555
Mo0 O27 2.134232 1_556
Mo0 O32 2.146222 1_555
Mo1 O15 2.081247 1_555
Mo1 O25 2.081247 1_555
Mo1 O31 2.134232 1_555
Mo1 O30 2.146222 1_545
Mo2 O22 2.060806 1_555
Mo2 O33 2.068211 1_554
Mo2 O3 2.137472 1_555
Mo2 O28 2.137472 1_455
Mo3 O8 2.060806 1_545
Mo3 O41 2.068211 1_555
Mo3 O15 2.137472 1_555
Mo3 O25 2.137472 1_455
Mo4 O20 1.956329 1_555
Mo4 O0 2.092180 1_555
Mo4 O27 2.097648 1_555
Mo4 O22 2.141281 1_555
Mo4 O23 2.149949 1_555
Mo5 O39 1.956329 1_555
Mo5 O0 2.092180 1_555
Mo5 O27 2.097648 1_555
Mo5 O22 2.141281 1_655
Mo5 O23 2.149949 1_655
Mo6 O38 2.060806 1_555
Mo6 O23 2.068211 1_556
Mo6 O11 2.137472 1_455
Mo6 O43 2.137472 1_555
Mo7 O3 2.081247 1_555
Mo7 O28 2.081247 1_555
Mo7 O21 2.134232 1_554
Mo7 O0 2.146222 1_555
Mo8 O17 1.956329 1_555
Mo8 O32 2.092180 1_555
Mo8 O21 2.097648 1_555
Mo8 O38 2.141281 1_555
Mo8 O33 2.149949 1_555
Mo9 O5 1.956329 1_555
Mo9 O30 2.092180 1_555
Mo9 O7 2.097648 1_555
Mo9 O8 2.141281 1_555
Mo9 O26 2.149949 1_555
Mo10 O40 2.060806 1_565
Mo10 O26 2.068211 1_555
Mo10 O36 2.137472 1_455
Mo10 O24 2.137472 1_555
Mo11 O29 1.956329 1_555
Mo11 O30 2.092180 1_555
Mo11 O7 2.097648 1_555
Mo11 O8 2.141281 1_655
Mo11 O26 2.149949 1_655
Mo12 O24 2.081247 1_555
Mo12 O36 2.081247 1_555
Mo12 O7 2.134232 1_555
Mo12 O13 2.146222 1_565
Mo13 O9 1.956329 1_555
Mo13 O32 2.092180 1_555
Mo13 O21 2.097648 1_555
Mo13 O38 2.141281 1_655
Mo13 O33 2.149949 1_655
Mo14 O10 1.956329 1_555
Mo14 O13 2.092180 1_555
Mo14 O31 2.097648 1_555
Mo14 O40 2.141281 1_655
Mo14 O41 2.149949 1_655
Mo15 O18 1.956329 1_555
Mo15 O13 2.092180 1_555
Mo15 O31 2.097648 1_555
Mo15 O40 2.141281 1_555
Mo15 O41 2.149949 1_555
