# generated using pymatgen
data_Na5Zr2F13
_symmetry_space_group_name_H-M   'P 1'
_cell_length_a   5.46530049
_cell_length_b   6.37467476
_cell_length_c   8.37741577
_cell_angle_alpha   96.54833063
_cell_angle_beta   90.00000000
_cell_angle_gamma   115.38336782
_symmetry_Int_Tables_number   1
_chemical_formula_structural   Na5Zr2F13
_chemical_formula_sum   'Na5 Zr2 F13'
_cell_volume   261.57921165
_cell_formula_units_Z   1
loop_
 _symmetry_equiv_pos_site_id
 _symmetry_equiv_pos_as_xyz
  1  'x, y, z'
loop_
 _atom_site_type_symbol
 _atom_site_label
 _atom_site_symmetry_multiplicity
 _atom_site_fract_x
 _atom_site_fract_y
 _atom_site_fract_z
 _atom_site_occupancy
  Na  Na0  1  0.33561059  0.67122119  0.07170336  1
  Na  Na1  1  0.77814866  0.55629832  0.34561241  1
  Na  Na2  1  0.50000000  0.00000000  0.50000000  1
  Na  Na3  1  0.22185134  0.44370168  0.65438759  1
  Na  Na4  1  0.66438941  0.32877881  0.92829664  1
  Zr  Zr0  1  0.92642210  0.85284320  0.75472262  1
  Zr  Zr1  1  0.07357790  0.14715680  0.24527738  1
  F  F0  1  0.42206243  0.36545640  0.14295483  1
  F  F1  1  0.69721126  0.87439456  0.25074637  1
  F  F2  1  0.94339396  0.36545640  0.14295483  1
  F  F3  1  0.09397797  0.73158400  0.56779519  1
  F  F4  1  0.30278874  0.12560544  0.74925363  1
  F  F5  1  0.57793757  0.63454360  0.85704517  1
  F  F6  1  0.05660604  0.63454360  0.85704517  1
  F  F7  1  0.63760803  0.73158400  0.56779519  1
  F  F8  1  0.36239197  0.26841600  0.43220481  1
  F  F9  1  0.90602203  0.26841600  0.43220481  1
  F  F10  1  0.17718430  0.87439456  0.25074637  1
  F  F11  1  0.82281570  0.12560544  0.74925363  1
  F  F12  1  0.00000000  0.00000000  0.00000000  1
loop_
_geom_bond_atom_site_label_1
_geom_bond_atom_site_label_2
_geom_bond_distance
_geom_bond_site_symmetry_2
F0 Zr1 2.073279 1_555
F0 Na4 2.282996 1_554
F0 Na0 2.331021 1_555
F0 Na1 2.376726 1_555
F1 Zr1 2.051414 1_665
F1 Na0 2.279313 1_555
F1 Na1 2.464885 1_555
F1 Na2 2.553728 1_565
F2 Zr1 2.073275 1_655
F2 Na4 2.282996 1_554
F2 Na0 2.331021 1_655
F2 Na1 2.376729 1_555
F3 Zr0 2.054056 1_455
F3 Na2 2.267333 1_565
F3 Na1 2.358926 1_455
F3 Na3 2.405339 1_555
F4 Zr0 2.051414 1_445
F4 Na4 2.279313 1_555
F4 Na3 2.464885 1_555
F4 Na2 2.553728 1_555
F5 Zr0 2.073279 1_555
F5 Na0 2.282996 1_556
F5 Na4 2.331021 1_555
F5 Na3 2.376726 1_555
F6 Zr0 2.073275 1_455
F6 Na0 2.282996 1_556
F6 Na4 2.331021 1_455
F6 Na3 2.376729 1_555
F7 Zr0 2.054053 1_555
F7 Na2 2.267340 1_565
F7 Na1 2.358918 1_555
F7 Na3 2.405342 1_555
F8 Zr1 2.054053 1_555
F8 Na2 2.267340 1_555
F8 Na3 2.358918 1_555
F8 Na1 2.405342 1_555
F9 Zr1 2.054056 1_655
F9 Na2 2.267333 1_555
F9 Na3 2.358926 1_655
F9 Na1 2.405339 1_555
F10 Zr1 2.051421 1_565
F10 Na0 2.279310 1_555
F10 Na1 2.464891 1_455
F10 Na2 2.553725 1_565
F11 Zr0 2.051421 1_545
F11 Na4 2.279310 1_555
F11 Na3 2.464891 1_655
F11 Na2 2.553725 1_555
F12 Zr1 2.121510 1_555
F12 Zr0 2.121510 1_444
