# generated using pymatgen
data_Cr4Si2Br2O7
_symmetry_space_group_name_H-M   'P 1'
_cell_length_a   13.07069100
_cell_length_b   6.55092900
_cell_length_c   10.70892326
_cell_angle_alpha   88.40498673
_cell_angle_beta   90.00000000
_cell_angle_gamma   90.00000000
_symmetry_Int_Tables_number   1
_chemical_formula_structural   Cr4Si2Br2O7
_chemical_formula_sum   'Cr16 Si8 Br8 O28'
_cell_volume   916.59807988
_cell_formula_units_Z   4
loop_
 _symmetry_equiv_pos_site_id
 _symmetry_equiv_pos_as_xyz
  1  'x, y, z'
loop_
 _atom_site_type_symbol
 _atom_site_label
 _atom_site_symmetry_multiplicity
 _atom_site_fract_x
 _atom_site_fract_y
 _atom_site_fract_z
 _atom_site_occupancy
  Cr  Cr0  1  0.88734000  0.15599700  0.09254500  1
  Cr  Cr1  1  0.11266000  0.15599700  0.59254500  1
  Cr  Cr2  1  0.63837800  0.18947900  0.11700600  1
  Cr  Cr3  1  0.72279400  0.82149400  0.91873400  1
  Cr  Cr4  1  0.27720600  0.82149400  0.41873400  1
  Cr  Cr5  1  0.62790900  0.21623300  0.61463900  1
  Cr  Cr6  1  0.36162200  0.18947900  0.61700600  1
  Cr  Cr7  1  0.37209100  0.21623300  0.11463900  1
  Cr  Cr8  1  0.76783400  0.54878800  0.41762600  1
  Cr  Cr9  1  0.23216600  0.54878800  0.91762600  1
  Cr  Cr10  1  0.12852600  0.19153500  0.09961000  1
  Cr  Cr11  1  0.96329600  0.81682400  0.41082600  1
  Cr  Cr12  1  0.45547600  0.55686600  0.31735600  1
  Cr  Cr13  1  0.87147400  0.19153500  0.59961000  1
  Cr  Cr14  1  0.03670400  0.81682400  0.91082600  1
  Cr  Cr15  1  0.54452400  0.55686600  0.81735600  1
  Si  Si0  1  0.23913700  0.32458300  0.36268500  1
  Si  Si1  1  0.99872600  0.32267700  0.85509100  1
  Si  Si2  1  0.00127400  0.32267700  0.35509100  1
  Si  Si3  1  0.50504000  0.06592500  0.87329700  1
  Si  Si4  1  0.49496000  0.06592500  0.37329700  1
  Si  Si5  1  0.76086300  0.32458300  0.86268500  1
  Si  Si6  1  0.73901800  0.05925500  0.35333600  1
  Si  Si7  1  0.26098200  0.05925500  0.85333600  1
  Br  Br0  1  0.12198500  0.80247800  0.22255000  1
  Br  Br1  1  0.12163800  0.74420600  0.56893000  1
  Br  Br2  1  0.36847800  0.57829700  0.70597400  1
  Br  Br3  1  0.63152200  0.57829700  0.20597400  1
  Br  Br4  1  0.38698700  0.64485400  0.05339300  1
  Br  Br5  1  0.87801500  0.80247800  0.72255000  1
  Br  Br6  1  0.87836200  0.74420600  0.06893000  1
  Br  Br7  1  0.61301300  0.64485400  0.55339300  1
  O  O0  1  0.22658900  0.16729400  0.72000300  1
  O  O1  1  0.26340000  0.13138100  0.46438500  1
  O  O2  1  0.02162400  0.12753400  0.95808900  1
  O  O3  1  0.00014600  0.25323800  0.71039200  1
  O  O4  1  0.80413100  0.85405200  0.38902700  1
  O  O5  1  0.19586900  0.85405200  0.88902700  1
  O  O6  1  0.50478400  0.14909700  0.01687300  1
  O  O7  1  0.11915500  0.37902700  0.39630600  1
  O  O8  1  0.38491800  0.02402300  0.82757400  1
  O  O9  1  0.25282100  0.22674800  0.96832500  1
  O  O10  1  0.97837600  0.12753400  0.45808900  1
  O  O11  1  0.88084500  0.37902700  0.89630600  1
  O  O12  1  0.24365200  0.25573300  0.21837600  1
  O  O13  1  0.61508200  0.02402300  0.32757400  1
  O  O14  1  0.68889000  0.51996000  0.89272600  1
  O  O15  1  0.45523900  0.24855900  0.27605300  1
  O  O16  1  0.31111000  0.51996000  0.39272600  1
  O  O17  1  0.99985400  0.25323800  0.21039200  1
  O  O18  1  0.92528800  0.51138800  0.38919400  1
  O  O19  1  0.77341100  0.16729400  0.22000300  1
  O  O20  1  0.74717900  0.22674800  0.46832500  1
  O  O21  1  0.75634800  0.25573300  0.71837600  1
  O  O22  1  0.42685600  0.85997300  0.35648200  1
  O  O23  1  0.07471200  0.51138800  0.88919400  1
  O  O24  1  0.49521600  0.14909700  0.51687300  1
  O  O25  1  0.54476100  0.24855900  0.77605300  1
  O  O26  1  0.73660000  0.13138100  0.96438500  1
  O  O27  1  0.57314400  0.85997300  0.85648200  1
loop_
_geom_bond_atom_site_label_1
_geom_bond_atom_site_label_2
_geom_bond_distance
_geom_bond_site_symmetry_2
Cr0 O19 2.022787 1_555
Cr0 O17 2.050853 1_555
Cr0 O2 2.281148 1_654
Cr0 O26 2.409138 1_554
Cr0 O11 2.527310 1_554
Cr1 O0 2.022787 1_555
Cr1 O3 2.050853 1_555
Cr1 O10 2.281148 1_455
Cr1 O1 2.409138 1_555
Cr1 O7 2.527310 1_555
Cr2 O6 2.069959 1_555
Cr2 O19 2.084206 1_555
Cr2 O26 2.121081 1_554
Cr2 O13 2.493251 1_555
Cr3 O14 2.050975 1_555
Cr3 O27 2.079582 1_555
Cr3 O26 2.109005 1_565
Cr4 O16 2.050975 1_555
Cr4 O22 2.079582 1_555
Cr4 O1 2.109005 1_565
Cr5 O21 2.033570 1_555
Cr5 O25 2.057745 1_555
Cr5 O24 2.079257 1_555
Cr5 O20 2.210000 1_555
Cr6 O24 2.069959 1_555
Cr6 O0 2.084206 1_555
Cr6 O1 2.121081 1_555
Cr6 O8 2.493251 1_555
Cr7 O12 2.033570 1_555
Cr7 O15 2.057745 1_555
Cr7 O6 2.079257 1_555
Cr7 O9 2.210000 1_554
Cr8 O4 2.069743 1_555
Cr8 O18 2.095802 1_555
Cr8 O20 2.180497 1_555
Cr9 O5 2.069743 1_555
Cr9 O23 2.095802 1_555
Cr9 O9 2.180497 1_555
Cr10 O12 2.022032 1_555
Cr10 O17 2.103826 1_455
Cr10 O2 2.111968 1_554
Cr10 O9 2.156656 1_554
Cr11 O18 2.080824 1_555
Cr11 O4 2.106859 1_555
Cr11 O10 2.120233 1_565
Cr12 O16 2.063899 1_555
Cr12 O22 2.074741 1_555
Cr12 O15 2.079557 1_555
Cr13 O21 2.022032 1_555
Cr13 O3 2.103826 1_655
Cr13 O10 2.111968 1_555
Cr13 O20 2.156656 1_555
Cr14 O23 2.080824 1_555
Cr14 O5 2.106859 1_555
Cr14 O2 2.120233 1_565
Cr15 O14 2.063899 1_555
Cr15 O27 2.074741 1_555
Cr15 O25 2.079557 1_555
Br0 Cr10 2.837186 1_565
Br0 Cr11 2.895994 1_455
Br0 Cr4 2.925776 1_555
Br1 Cr4 2.633006 1_555
Br1 Cr11 2.707682 1_455
Br1 Cr1 2.718974 1_565
Br2 Cr15 2.593822 1_555
Br2 Cr6 2.745665 1_555
Br2 Cr9 2.885259 1_555
Br3 Cr12 2.593822 1_555
Br3 Cr2 2.745665 1_555
Br3 Cr8 2.885259 1_555
Br4 Cr9 2.579901 1_554
Br4 Cr7 2.872225 1_555
Br4 Cr12 3.005576 1_555
Br5 Cr13 2.837186 1_565
Br5 Cr14 2.895994 1_655
Br5 Cr3 2.925776 1_555
Br6 Cr3 2.633006 1_554
Br6 Cr14 2.707682 1_654
Br6 Cr0 2.718974 1_565
Br7 Cr8 2.579901 1_555
Br7 Cr5 2.872225 1_555
Br7 Cr15 3.005576 1_555
O0 Si7 1.638753 1_555
O1 Si0 1.676857 1_555
O2 Si1 1.691718 1_455
O3 Si1 1.627169 1_455
O4 Si6 1.627535 1_565
O5 Si7 1.627535 1_565
O6 Si3 1.645465 1_554
O7 Si2 1.647473 1_555
O7 Si0 1.650269 1_555
O8 Si7 1.660451 1_555
O8 Si3 1.669648 1_555
O9 Si7 1.675376 1_555
O10 Si2 1.691718 1_655
O11 Si1 1.647473 1_555
O11 Si5 1.650269 1_555
O12 Si0 1.622947 1_555
O13 Si6 1.660451 1_555
O13 Si4 1.669648 1_555
O14 Si5 1.627744 1_555
O15 Si4 1.648055 1_555
O16 Si0 1.627744 1_555
O17 Si2 1.627169 1_655
O18 Si2 1.634994 1_655
O19 Si6 1.638753 1_555
O20 Si6 1.675376 1_555
O21 Si5 1.622947 1_555
O22 Si4 1.630529 1_565
O23 Si1 1.634994 1_455
O24 Si4 1.645465 1_555
O25 Si3 1.648055 1_555
O26 Si5 1.676857 1_555
O27 Si3 1.630529 1_565
