# generated using pymatgen
data_KCa2Nb3O10
_symmetry_space_group_name_H-M   'P 1'
_cell_length_a   7.80844300
_cell_length_b   7.85488100
_cell_length_c   15.19056011
_cell_angle_alpha   82.99393719
_cell_angle_beta   90.00000000
_cell_angle_gamma   90.00000000
_symmetry_Int_Tables_number   1
_chemical_formula_structural   KCa2Nb3O10
_chemical_formula_sum   'K4 Ca8 Nb12 O40'
_cell_volume   924.74694795
_cell_formula_units_Z   4
loop_
 _symmetry_equiv_pos_site_id
 _symmetry_equiv_pos_as_xyz
  1  'x, y, z'
loop_
 _atom_site_type_symbol
 _atom_site_label
 _atom_site_symmetry_multiplicity
 _atom_site_fract_x
 _atom_site_fract_y
 _atom_site_fract_z
 _atom_site_occupancy
  K  K0  1  0.25000000  0.36414100  0.52281800  1
  K  K1  1  0.25000000  0.86939300  0.50956900  1
  K  K2  1  0.75000000  0.13060700  0.49043100  1
  K  K3  1  0.75000000  0.63585900  0.47718200  1
  Ca  Ca0  1  0.25000000  0.20169800  0.14917200  1
  Ca  Ca1  1  0.25000000  0.70740900  0.15799300  1
  Ca  Ca2  1  0.75000000  0.21604500  0.14909900  1
  Ca  Ca3  1  0.75000000  0.79830200  0.85082800  1
  Ca  Ca4  1  0.75000000  0.29259100  0.84200700  1
  Ca  Ca5  1  0.25000000  0.28814000  0.86191800  1
  Ca  Ca6  1  0.25000000  0.78395500  0.85090100  1
  Ca  Ca7  1  0.75000000  0.71186000  0.13808200  1
  Nb  Nb0  1  0.50521600  0.93233100  0.28588100  1
  Nb  Nb1  1  0.00521600  0.06766900  0.71411900  1
  Nb  Nb2  1  0.49478400  0.06766900  0.71411900  1
  Nb  Nb3  1  0.00331800  0.57144300  0.71330800  1
  Nb  Nb4  1  0.50331800  0.42855700  0.28669200  1
  Nb  Nb5  1  0.99478400  0.93233100  0.28588100  1
  Nb  Nb6  1  0.99668200  0.42855700  0.28669200  1
  Nb  Nb7  1  0.50000000  0.50000000  0.00000000  1
  Nb  Nb8  1  0.49668200  0.57144300  0.71330800  1
  Nb  Nb9  1  0.00000000  0.00000000  0.00000000  1
  Nb  Nb10  1  0.00000000  0.50000000  0.00000000  1
  Nb  Nb11  1  0.50000000  0.00000000  0.00000000  1
  O  O0  1  0.51077400  0.31499700  0.73107300  1
  O  O1  1  0.04492700  0.08312700  0.59705300  1
  O  O2  1  0.51228800  0.19063300  0.24516000  1
  O  O3  1  0.03572400  0.49996700  0.12787200  1
  O  O4  1  0.48922600  0.68500300  0.26892700  1
  O  O5  1  0.25000000  0.54725700  0.75807300  1
  O  O6  1  0.98771200  0.19063300  0.24516000  1
  O  O7  1  0.25000000  0.95179500  0.28134700  1
  O  O8  1  0.56680100  0.75283600  0.98896500  1
  O  O9  1  0.06680100  0.24716400  0.01103500  1
  O  O10  1  0.75000000  0.93018300  0.23682500  1
  O  O11  1  0.46686800  0.61161500  0.59518000  1
  O  O12  1  0.98922600  0.31499700  0.73107300  1
  O  O13  1  0.75000000  0.45274300  0.24192700  1
  O  O14  1  0.25000000  0.95612200  0.96853000  1
  O  O15  1  0.75000000  0.58443600  0.72608100  1
  O  O16  1  0.53313200  0.38838500  0.40482000  1
  O  O17  1  0.75000000  0.43648100  0.02542900  1
  O  O18  1  0.03313200  0.61161500  0.59518000  1
  O  O19  1  0.05101000  0.94222000  0.12714800  1
  O  O20  1  0.25000000  0.41556400  0.27391900  1
  O  O21  1  0.46427600  0.49996700  0.12787200  1
  O  O22  1  0.95507300  0.91687300  0.40294700  1
  O  O23  1  0.54492700  0.91687300  0.40294700  1
  O  O24  1  0.01228800  0.80936700  0.75484000  1
  O  O25  1  0.94899000  0.05778000  0.87285200  1
  O  O26  1  0.48771200  0.80936700  0.75484000  1
  O  O27  1  0.75000000  0.04820500  0.71865300  1
  O  O28  1  0.01077400  0.68500300  0.26892700  1
  O  O29  1  0.25000000  0.56351900  0.97457100  1
  O  O30  1  0.96427600  0.50003300  0.87212800  1
  O  O31  1  0.96686800  0.38838500  0.40482000  1
  O  O32  1  0.75000000  0.04387800  0.03147000  1
  O  O33  1  0.43319900  0.24716400  0.01103500  1
  O  O34  1  0.44899000  0.94222000  0.12714800  1
  O  O35  1  0.53572400  0.50003300  0.87212800  1
  O  O36  1  0.55101000  0.05778000  0.87285200  1
  O  O37  1  0.45507300  0.08312700  0.59705300  1
  O  O38  1  0.93319900  0.75283600  0.98896500  1
  O  O39  1  0.25000000  0.06981700  0.76317500  1
loop_
_geom_bond_atom_site_label_1
_geom_bond_atom_site_label_2
_geom_bond_distance
_geom_bond_site_symmetry_2
K0 O16 2.837890 1_555
K0 O31 2.837890 1_455
K0 O1 2.846207 1_555
K0 O37 2.846207 1_555
K0 O11 2.894100 1_555
K0 O18 2.894100 1_555
K1 O1 2.773634 1_565
K1 O37 2.773634 1_565
K1 O23 2.813972 1_555
K1 O22 2.813972 1_455
K1 O11 2.831318 1_555
K1 O18 2.831318 1_555
K2 O23 2.773634 1_545
K2 O22 2.773634 1_545
K2 O1 2.813972 1_655
K2 O37 2.813972 1_555
K2 O31 2.831318 1_555
K2 O16 2.831318 1_555
K3 O18 2.837890 1_655
K3 O11 2.837890 1_555
K3 O22 2.846207 1_555
K3 O23 2.846207 1_555
K3 O16 2.894100 1_555
K3 O31 2.894100 1_555
Ca0 O6 2.509438 1_455
Ca0 O2 2.509438 1_555
Ca0 O9 2.528685 1_555
Ca0 O33 2.528685 1_555
Ca0 O34 2.616621 1_545
Ca0 O19 2.616621 1_545
Ca0 O7 2.631169 1_545
Ca0 O20 2.681334 1_555
Ca0 O21 2.865007 1_555
Ca0 O3 2.865007 1_555
Ca1 O34 2.413478 1_555
Ca1 O19 2.413478 1_555
Ca1 O21 2.417799 1_555
Ca1 O3 2.417799 1_555
Ca1 O4 2.507531 1_555
Ca1 O28 2.507531 1_555
Ca1 O20 2.715031 1_555
Ca1 O7 2.841413 1_555
Ca2 O6 2.354452 1_555
Ca2 O2 2.354452 1_555
Ca2 O32 2.368793 1_555
Ca2 O17 2.394528 1_555
Ca2 O13 2.466724 1_555
Ca2 O10 2.467339 1_545
Ca3 O26 2.509438 1_555
Ca3 O24 2.509438 1_655
Ca3 O8 2.528685 1_555
Ca3 O38 2.528685 1_555
Ca3 O25 2.616621 1_565
Ca3 O36 2.616621 1_565
Ca3 O27 2.631169 1_565
Ca3 O15 2.681334 1_555
Ca3 O30 2.865007 1_555
Ca3 O35 2.865007 1_555
Ca4 O25 2.413478 1_555
Ca4 O36 2.413478 1_555
Ca4 O30 2.417799 1_555
Ca4 O35 2.417799 1_555
Ca4 O12 2.507531 1_555
Ca4 O0 2.507531 1_555
Ca4 O15 2.715031 1_555
Ca4 O27 2.841413 1_555
Ca5 O39 2.412110 1_555
Ca5 O5 2.418209 1_555
Ca5 O33 2.665158 1_556
Ca5 O9 2.665158 1_556
Ca5 O35 2.799082 1_555
Ca5 O30 2.799082 1_455
Ca5 O12 2.835326 1_455
Ca5 O0 2.835326 1_555
Ca5 O14 2.897222 1_545
Ca5 O29 2.917239 1_555
Ca5 O36 2.958522 1_555
Ca5 O25 2.958522 1_455
Ca6 O24 2.354452 1_555
Ca6 O26 2.354452 1_555
Ca6 O14 2.368793 1_555
Ca6 O29 2.394528 1_555
Ca6 O5 2.466724 1_555
Ca6 O39 2.467339 1_565
Ca7 O10 2.412110 1_555
Ca7 O13 2.418209 1_555
Ca7 O38 2.665158 1_554
Ca7 O8 2.665158 1_554
Ca7 O21 2.799082 1_555
Ca7 O3 2.799082 1_655
Ca7 O4 2.835326 1_555
Ca7 O28 2.835326 1_655
Ca7 O32 2.897222 1_565
Ca7 O17 2.917239 1_555
Ca7 O34 2.958522 1_555
Ca7 O19 2.958522 1_655
Nb0 O23 1.794593 1_555
Nb0 O4 1.994537 1_555
Nb0 O7 1.999240 1_555
Nb0 O2 2.048434 1_565
Nb0 O10 2.052325 1_555
Nb0 O34 2.442783 1_555
Nb1 O1 1.794593 1_555
Nb1 O12 1.994537 1_455
Nb1 O27 1.999240 1_455
Nb1 O24 2.048434 1_545
Nb1 O39 2.052325 1_555
Nb1 O25 2.442783 1_455
Nb2 O37 1.794593 1_555
Nb2 O0 1.994537 1_555
Nb2 O27 1.999240 1_555
Nb2 O26 2.048434 1_545
Nb2 O39 2.052325 1_555
Nb2 O36 2.442783 1_555
Nb3 O18 1.798782 1_555
Nb3 O15 1.991345 1_455
Nb3 O12 2.002484 1_455
Nb3 O5 2.043830 1_555
Nb3 O24 2.045292 1_555
Nb3 O30 2.428562 1_455
Nb4 O16 1.798782 1_555
Nb4 O20 1.991345 1_555
Nb4 O4 2.002484 1_555
Nb4 O13 2.043830 1_555
Nb4 O2 2.045292 1_555
Nb4 O21 2.428562 1_555
Nb5 O22 1.794593 1_555
Nb5 O28 1.994537 1_655
Nb5 O7 1.999240 1_655
Nb5 O6 2.048434 1_565
Nb5 O10 2.052325 1_555
Nb5 O19 2.442783 1_655
Nb6 O31 1.798782 1_555
Nb6 O20 1.991345 1_655
Nb6 O28 2.002484 1_655
Nb6 O13 2.043830 1_555
Nb6 O6 2.045292 1_555
Nb6 O3 2.428562 1_655
Nb7 O35 1.962343 1_554
Nb7 O21 1.962343 1_555
Nb7 O29 2.040066 1_554
Nb7 O17 2.040066 1_555
Nb7 O8 2.040379 1_554
Nb7 O33 2.040379 1_555
Nb8 O11 1.798782 1_555
Nb8 O15 1.991345 1_555
Nb8 O0 2.002484 1_555
Nb8 O5 2.043830 1_555
Nb8 O26 2.045292 1_555
Nb8 O35 2.428562 1_555
Nb9 O19 1.970098 1_545
Nb9 O25 1.970098 1_454
Nb9 O9 2.036854 1_555
Nb9 O38 2.036854 1_444
Nb9 O14 2.048962 1_544
Nb9 O32 2.048962 1_455
Nb10 O30 1.962343 1_454
Nb10 O3 1.962343 1_555
Nb10 O29 2.040066 1_554
Nb10 O17 2.040066 1_455
Nb10 O38 2.040379 1_454
Nb10 O9 2.040379 1_555
Nb11 O34 1.970098 1_545
Nb11 O36 1.970098 1_554
Nb11 O33 2.036854 1_555
Nb11 O8 2.036854 1_544
Nb11 O32 2.048962 1_555
Nb11 O14 2.048962 1_544
