# generated using pymatgen
data_Tb8CrTe13Cl
_symmetry_space_group_name_H-M   'P 1'
_cell_length_a   13.46663198
_cell_length_b   13.46663198
_cell_length_c   23.83521900
_cell_angle_alpha   90.00000000
_cell_angle_beta   90.00000000
_cell_angle_gamma   162.06542531
_symmetry_Int_Tables_number   1
_chemical_formula_structural   Tb8CrTe13Cl
_chemical_formula_sum   'Tb16 Cr2 Te26 Cl2'
_cell_volume   1331.03737899
_cell_formula_units_Z   2
loop_
 _symmetry_equiv_pos_site_id
 _symmetry_equiv_pos_as_xyz
  1  'x, y, z'
loop_
 _atom_site_type_symbol
 _atom_site_label
 _atom_site_symmetry_multiplicity
 _atom_site_fract_x
 _atom_site_fract_y
 _atom_site_fract_z
 _atom_site_occupancy
  Tb  Tb0  1  0.39255600  0.60744400  0.61544300  1
  Tb  Tb1  1  0.22458800  0.77541200  0.59498700  1
  Tb  Tb2  1  0.35220500  0.64779500  0.28244300  1
  Tb  Tb3  1  0.77541200  0.22458800  0.09498700  1
  Tb  Tb4  1  0.48223800  0.51776200  0.77771800  1
  Tb  Tb5  1  0.94058000  0.05942000  0.10269100  1
  Tb  Tb6  1  0.51776200  0.48223800  0.27771800  1
  Tb  Tb7  1  0.19332400  0.80667600  0.26826500  1
  Tb  Tb8  1  0.44773200  0.55226800  0.44366100  1
  Tb  Tb9  1  0.05942000  0.94058000  0.60269100  1
  Tb  Tb10  1  0.55226800  0.44773200  0.94366100  1
  Tb  Tb11  1  0.86798800  0.13201200  0.93506800  1
  Tb  Tb12  1  0.60744400  0.39255600  0.11544300  1
  Tb  Tb13  1  0.13201200  0.86798800  0.43506800  1
  Tb  Tb14  1  0.64779500  0.35220500  0.78244300  1
  Tb  Tb15  1  0.80667600  0.19332400  0.76826500  1
  Cr  Cr0  1  0.79118200  0.20881800  0.44101400  1
  Cr  Cr1  1  0.20881800  0.79118200  0.94101400  1
  Te  Te0  1  0.87710600  0.12289400  0.38052300  1
  Te  Te1  1  0.93394000  0.06606000  0.24004300  1
  Te  Te2  1  0.05018100  0.94981900  0.04124000  1
  Te  Te3  1  0.19570500  0.80429500  0.13544600  1
  Te  Te4  1  0.29756900  0.70243100  0.99790300  1
  Te  Te5  1  0.67338700  0.32661300  0.00453600  1
  Te  Te6  1  0.36981900  0.63018100  0.83660500  1
  Te  Te7  1  0.70243100  0.29756900  0.49790300  1
  Te  Te8  1  0.98137100  0.01862900  0.87871000  1
  Te  Te9  1  0.35642400  0.64357600  0.14181600  1
  Te  Te10  1  0.80429500  0.19570500  0.63544600  1
  Te  Te11  1  0.64357600  0.35642400  0.64181600  1
  Te  Te12  1  0.94981900  0.05018100  0.54124000  1
  Te  Te13  1  0.06606000  0.93394000  0.74004300  1
  Te  Te14  1  0.25628600  0.74371400  0.37671800  1
  Te  Te15  1  0.74371400  0.25628600  0.87671800  1
  Te  Te16  1  0.22535500  0.77464500  0.73442700  1
  Te  Te17  1  0.32661300  0.67338700  0.50453600  1
  Te  Te18  1  0.43817700  0.56182300  0.99996100  1
  Te  Te19  1  0.08621100  0.91378900  0.21501200  1
  Te  Te20  1  0.91378900  0.08621100  0.71501200  1
  Te  Te21  1  0.56182300  0.43817700  0.49996100  1
  Te  Te22  1  0.12289400  0.87710600  0.88052300  1
  Te  Te23  1  0.77464500  0.22535500  0.23442700  1
  Te  Te24  1  0.63018100  0.36981900  0.33660500  1
  Te  Te25  1  0.01862900  0.98137100  0.37871000  1
  Cl  Cl0  1  0.49950400  0.50049600  0.14648100  1
  Cl  Cl1  1  0.50049600  0.49950400  0.64648100  1
loop_
_geom_bond_atom_site_label_1
_geom_bond_atom_site_label_2
_geom_bond_distance
_geom_bond_site_symmetry_2
Tb0 Te12 3.139260 1_565
Tb0 Te12 3.139260 1_455
Tb0 Te17 3.172665 1_555
Tb0 Te10 3.185422 1_455
Tb0 Te10 3.185422 1_565
Tb0 Te20 3.218295 1_455
Tb0 Te20 3.218295 1_565
Tb1 Te10 3.135703 1_565
Tb1 Te10 3.135703 1_455
Tb1 Te7 3.179334 1_455
Tb1 Te7 3.179334 1_565
Tb1 Te11 3.208889 1_455
Tb1 Te11 3.208889 1_565
Tb1 Te16 3.323646 1_555
Tb1 Te17 3.466310 1_555
Tb2 Te23 3.158085 1_565
Tb2 Te23 3.158085 1_455
Tb2 Te1 3.186806 1_455
Tb2 Te1 3.186806 1_565
Tb2 Te0 3.210918 1_565
Tb2 Te0 3.210918 1_455
Tb2 Te9 3.353754 1_555
Tb2 Te14 3.400172 1_555
Tb3 Te3 3.135703 1_545
Tb3 Te3 3.135703 1_655
Tb3 Te4 3.179334 1_544
Tb3 Te4 3.179334 1_654
Tb3 Te9 3.208889 1_545
Tb3 Te9 3.208889 1_655
Tb3 Te23 3.323646 1_555
Tb3 Te5 3.466310 1_555
Tb4 Te20 3.155313 1_455
Tb4 Te20 3.155313 1_565
Tb4 Te13 3.191447 1_545
Tb4 Te13 3.191447 1_655
Tb4 Te8 3.193900 1_455
Tb4 Te8 3.193900 1_565
Tb4 Te6 3.303779 1_555
Tb5 Te9 3.207539 1_655
Tb5 Te9 3.207539 1_545
Tb5 Te18 3.225788 1_654
Tb5 Te18 3.225788 1_544
Tb5 Te2 3.263039 1_645
Tb5 Te1 3.278577 1_555
Tb6 Te19 3.155313 1_545
Tb6 Te19 3.155313 1_655
Tb6 Te1 3.191447 1_455
Tb6 Te1 3.191447 1_565
Tb6 Te25 3.193900 1_545
Tb6 Te25 3.193900 1_655
Tb6 Te24 3.303779 1_555
Tb7 Te14 3.080261 1_555
Tb7 Te19 3.119547 1_555
Tb7 Te23 3.120435 1_565
Tb7 Te23 3.120435 1_455
Tb7 Te24 3.143447 1_455
Tb7 Te24 3.143447 1_565
Tb7 Te3 3.166404 1_555
Tb8 Te12 3.133452 1_455
Tb8 Te12 3.133452 1_565
Tb8 Te0 3.193928 1_455
Tb8 Te0 3.193928 1_565
Tb8 Te25 3.218735 1_545
Tb8 Te25 3.218735 1_655
Tb8 Te21 3.318691 1_555
Tb8 Te17 3.533873 1_555
Tb9 Te11 3.207539 1_455
Tb9 Te11 3.207539 1_565
Tb9 Te21 3.225788 1_565
Tb9 Te21 3.225788 1_455
Tb9 Te12 3.263039 1_465
Tb9 Te13 3.278577 1_555
Tb10 Te2 3.133452 1_546
Tb10 Te2 3.133452 1_656
Tb10 Te22 3.193928 1_545
Tb10 Te22 3.193928 1_655
Tb10 Te8 3.218735 1_565
Tb10 Te8 3.218735 1_455
Tb10 Te18 3.318691 1_555
Tb10 Te5 3.533873 1_556
Tb11 Te6 3.149011 1_545
Tb11 Te6 3.149011 1_655
Tb11 Te4 3.187291 1_545
Tb11 Te4 3.187291 1_655
Tb11 Te18 3.207066 1_545
Tb11 Te18 3.207066 1_655
Tb11 Te8 3.302035 1_555
Tb11 Te15 3.586810 1_555
Tb12 Te2 3.139260 1_655
Tb12 Te2 3.139260 1_545
Tb12 Te5 3.172665 1_555
Tb12 Te3 3.185422 1_655
Tb12 Te3 3.185422 1_545
Tb12 Te19 3.218295 1_655
Tb12 Te19 3.218295 1_545
Tb13 Te24 3.149011 1_565
Tb13 Te24 3.149011 1_455
Tb13 Te7 3.187291 1_565
Tb13 Te7 3.187291 1_455
Tb13 Te21 3.207066 1_455
Tb13 Te21 3.207066 1_565
Tb13 Te25 3.302035 1_555
Tb13 Te14 3.586810 1_555
Tb14 Te16 3.158085 1_655
Tb14 Te16 3.158085 1_545
Tb14 Te13 3.186806 1_655
Tb14 Te13 3.186806 1_545
Tb14 Te22 3.210918 1_545
Tb14 Te22 3.210918 1_655
Tb14 Te11 3.353754 1_555
Tb14 Te15 3.400172 1_555
Tb15 Te15 3.080261 1_555
Tb15 Te20 3.119547 1_555
Tb15 Te16 3.120435 1_655
Tb15 Te16 3.120435 1_545
Tb15 Te6 3.143447 1_545
Tb15 Te6 3.143447 1_655
Tb15 Te10 3.166404 1_555
Cr0 Te0 2.702647 1_555
Cr0 Te7 2.722794 1_555
Cr0 Te17 2.754434 1_545
Cr0 Te17 2.754434 1_655
Cr0 Te14 2.759797 1_545
Cr0 Te14 2.759797 1_655
Cr1 Te22 2.702647 1_555
Cr1 Te4 2.722794 1_555
Cr1 Te5 2.754434 1_456
Cr1 Te5 2.754434 1_566
Cr1 Te15 2.759797 1_455
Cr1 Te15 2.759797 1_565
Cl0 Tb5 2.820079 1_455
Cl0 Tb5 2.820079 1_565
Cl0 Tb12 2.965407 1_555
Cl0 Tb6 3.165552 1_555
Cl1 Tb9 2.820079 1_545
Cl1 Tb9 2.820079 1_655
Cl1 Tb0 2.965407 1_555
Cl1 Tb4 3.165552 1_555
