# generated using pymatgen
data_CeTmS3
_symmetry_space_group_name_H-M   'P 1'
_cell_length_a   3.93902459
_cell_length_b   10.99816952
_cell_length_c   21.46751046
_cell_angle_alpha   78.63580823
_cell_angle_beta   90.00000000
_cell_angle_gamma   90.00000000
_symmetry_Int_Tables_number   1
_chemical_formula_structural   CeTmS3
_chemical_formula_sum   'Ce8 Tm8 S24'
_cell_volume   911.78334854
_cell_formula_units_Z   8
loop_
 _symmetry_equiv_pos_site_id
 _symmetry_equiv_pos_as_xyz
  1  'x, y, z'
loop_
 _atom_site_type_symbol
 _atom_site_label
 _atom_site_symmetry_multiplicity
 _atom_site_fract_x
 _atom_site_fract_y
 _atom_site_fract_z
 _atom_site_occupancy
  Ce  Ce0  1  0.25000000  0.30018376  0.53738080  1
  Ce  Ce1  1  0.25000000  0.19072492  0.73305629  1
  Ce  Ce2  1  0.75000000  0.59126433  0.13595540  1
  Ce  Ce3  1  0.75000000  0.80927508  0.26694371  1
  Ce  Ce4  1  0.75000000  0.69981624  0.46261920  1
  Ce  Ce5  1  0.25000000  0.80250001  0.76667425  1
  Ce  Ce6  1  0.75000000  0.19749999  0.23332575  1
  Ce  Ce7  1  0.25000000  0.40873567  0.86404460  1
  Tm  Tm0  1  0.25000000  0.32008003  0.04632872  1
  Tm  Tm1  1  0.75000000  0.94628448  0.58288783  1
  Tm  Tm2  1  0.25000000  0.47008032  0.35058929  1
  Tm  Tm3  1  0.75000000  0.02274502  0.91241916  1
  Tm  Tm4  1  0.75000000  0.67991997  0.95367128  1
  Tm  Tm5  1  0.75000000  0.52991968  0.64941071  1
  Tm  Tm6  1  0.25000000  0.97725498  0.08758084  1
  Tm  Tm7  1  0.25000000  0.05371552  0.41711217  1
  S  S0  1  0.75000000  0.29574057  0.63569853  1
  S  S1  1  0.25000000  0.46451802  0.73010213  1
  S  S2  1  0.25000000  0.04612722  0.63419086  1
  S  S3  1  0.25000000  0.13536163  0.96456139  1
  S  S4  1  0.25000000  0.37494490  0.16284209  1
  S  S5  1  0.25000000  0.55751644  0.55691731  1
  S  S6  1  0.25000000  0.00735048  0.22011414  1
  S  S7  1  0.25000000  0.84209475  0.90124642  1
  S  S8  1  0.25000000  0.85675740  0.51372094  1
  S  S9  1  0.75000000  0.41334546  0.96397236  1
  S  S10  1  0.75000000  0.62505510  0.83715791  1
  S  S11  1  0.75000000  0.95387278  0.36580914  1
  S  S12  1  0.75000000  0.86463837  0.03543861  1
  S  S13  1  0.75000000  0.44248356  0.44308269  1
  S  S14  1  0.75000000  0.15790525  0.09875358  1
  S  S15  1  0.75000000  0.14324260  0.48627906  1
  S  S16  1  0.75000000  0.99264952  0.77988586  1
  S  S17  1  0.75000000  0.53548198  0.26989787  1
  S  S18  1  0.25000000  0.75294266  0.17281132  1
  S  S19  1  0.25000000  0.70425943  0.36430147  1
  S  S20  1  0.75000000  0.24705734  0.82718868  1
  S  S21  1  0.25000000  0.58665454  0.03602764  1
  S  S22  1  0.25000000  0.24548589  0.32422368  1
  S  S23  1  0.75000000  0.75451411  0.67577632  1
loop_
_geom_bond_atom_site_label_1
_geom_bond_atom_site_label_2
_geom_bond_distance
_geom_bond_site_symmetry_2
Ce0 S0 2.880192 1_455
Ce0 S0 2.880192 1_555
Ce0 S5 2.941707 1_555
Ce0 S15 2.967823 1_555
Ce0 S15 2.967823 1_455
Ce0 S13 3.029480 1_555
Ce0 S13 3.029480 1_455
Ce0 S2 3.136565 1_555
Ce1 S2 2.892024 1_555
Ce1 S0 2.937664 1_555
Ce1 S0 2.937664 1_455
Ce1 S16 2.961804 1_445
Ce1 S16 2.961804 1_545
Ce1 S20 2.973181 1_455
Ce1 S20 2.973181 1_555
Ce1 S1 2.999371 1_555
Ce2 S17 2.819428 1_555
Ce2 S18 2.867281 1_555
Ce2 S18 2.867281 1_655
Ce2 S21 2.919982 1_555
Ce2 S21 2.919982 1_655
Ce2 S4 3.054695 1_655
Ce2 S4 3.054695 1_555
Ce2 S12 3.337551 1_555
Ce3 S11 2.892024 1_555
Ce3 S19 2.937664 1_555
Ce3 S19 2.937664 1_655
Ce3 S6 2.961804 1_565
Ce3 S6 2.961804 1_665
Ce3 S18 2.973181 1_655
Ce3 S18 2.973181 1_555
Ce3 S17 2.999371 1_555
Ce4 S19 2.880192 1_555
Ce4 S19 2.880192 1_655
Ce4 S13 2.941707 1_555
Ce4 S8 2.967823 1_655
Ce4 S8 2.967823 1_555
Ce4 S5 3.029480 1_555
Ce4 S5 3.029480 1_655
Ce4 S11 3.136565 1_555
Ce5 S23 2.893291 1_555
Ce5 S23 2.893291 1_455
Ce5 S16 2.926891 1_555
Ce5 S16 2.926891 1_455
Ce5 S10 2.968733 1_455
Ce5 S10 2.968733 1_555
Ce5 S7 3.005217 1_555
Ce5 S2 3.502158 1_565
Ce6 S22 2.893291 1_555
Ce6 S22 2.893291 1_655
Ce6 S6 2.926891 1_555
Ce6 S6 2.926891 1_655
Ce6 S4 2.968733 1_555
Ce6 S4 2.968733 1_655
Ce6 S14 3.005217 1_555
Ce6 S11 3.502158 1_545
Ce7 S1 2.819428 1_555
Ce7 S20 2.867281 1_455
Ce7 S20 2.867281 1_555
Ce7 S9 2.919982 1_455
Ce7 S9 2.919982 1_555
Ce7 S10 3.054695 1_555
Ce7 S10 3.054695 1_455
Ce7 S3 3.337551 1_555
S0 Tm5 2.649310 1_555
S1 Tm5 2.627927 1_455
S1 Tm5 2.627927 1_555
S2 Tm1 2.602757 1_445
S2 Tm1 2.602757 1_545
S3 Tm3 2.685591 1_555
S3 Tm3 2.685591 1_455
S3 Tm6 2.861542 1_546
S3 Tm0 2.934933 1_556
S4 Tm0 2.686106 1_555
S5 Tm5 2.770599 1_455
S5 Tm5 2.770599 1_555
S6 Tm6 2.928416 1_545
S7 Tm4 2.745145 1_455
S7 Tm4 2.745145 1_555
S7 Tm3 2.841086 1_465
S7 Tm3 2.841086 1_565
S8 Tm7 2.687589 1_565
S8 Tm1 2.762138 1_455
S8 Tm1 2.762138 1_555
S9 Tm0 2.709655 1_556
S9 Tm0 2.709655 1_656
S9 Tm4 2.896383 1_555
S10 Tm4 2.686106 1_555
S11 Tm7 2.602757 1_565
S11 Tm7 2.602757 1_665
S12 Tm6 2.685591 1_555
S12 Tm6 2.685591 1_655
S12 Tm3 2.861542 1_564
S12 Tm4 2.934933 1_554
S13 Tm2 2.770599 1_655
S13 Tm2 2.770599 1_555
S14 Tm0 2.745145 1_555
S14 Tm0 2.745145 1_655
S14 Tm6 2.841086 1_545
S14 Tm6 2.841086 1_645
S15 Tm1 2.687589 1_545
S15 Tm7 2.762138 1_655
S15 Tm7 2.762138 1_555
S16 Tm3 2.928416 1_565
S17 Tm2 2.627927 1_655
S17 Tm2 2.627927 1_555
S18 Tm6 2.766784 1_555
S19 Tm2 2.649310 1_555
S20 Tm3 2.766784 1_555
S21 Tm4 2.709655 1_554
S21 Tm4 2.709655 1_454
S21 Tm0 2.896383 1_555
S22 Tm7 2.601408 1_555
S22 Tm2 2.640619 1_555
S23 Tm1 2.601408 1_555
S23 Tm5 2.640619 1_555
