# generated using pymatgen
data_NaGaO2
_symmetry_space_group_name_H-M   'P 1'
_cell_length_a   5.27508527
_cell_length_b   10.52836855
_cell_length_c   14.79447341
_cell_angle_alpha   90.00000000
_cell_angle_beta   90.00000000
_cell_angle_gamma   90.00000000
_symmetry_Int_Tables_number   1
_chemical_formula_structural   NaGaO2
_chemical_formula_sum   'Na16 Ga16 O32'
_cell_volume   821.65608347
_cell_formula_units_Z   16
loop_
 _symmetry_equiv_pos_site_id
 _symmetry_equiv_pos_as_xyz
  1  'x, y, z'
loop_
 _atom_site_type_symbol
 _atom_site_label
 _atom_site_symmetry_multiplicity
 _atom_site_fract_x
 _atom_site_fract_y
 _atom_site_fract_z
 _atom_site_occupancy
  Na  Na0  1  0.27932288  0.48494903  0.43666620  1
  Na  Na1  1  0.18419881  0.72688813  0.81027130  1
  Na  Na2  1  0.22067712  0.51505097  0.93666620  1
  Na  Na3  1  0.18419881  0.77311187  0.31027130  1
  Na  Na4  1  0.27932288  0.01505097  0.93666620  1
  Na  Na5  1  0.81580119  0.27311187  0.18972870  1
  Na  Na6  1  0.77932288  0.01505097  0.56333380  1
  Na  Na7  1  0.72067712  0.51505097  0.56333380  1
  Na  Na8  1  0.77932288  0.48494903  0.06333380  1
  Na  Na9  1  0.31580119  0.27311187  0.31027130  1
  Na  Na10  1  0.72067712  0.98494903  0.06333380  1
  Na  Na11  1  0.81580119  0.22688813  0.68972870  1
  Na  Na12  1  0.68419881  0.72688813  0.68972870  1
  Na  Na13  1  0.22067712  0.98494903  0.43666620  1
  Na  Na14  1  0.68419881  0.77311187  0.18972870  1
  Na  Na15  1  0.31580119  0.22688813  0.81027130  1
  Ga  Ga0  1  0.19187993  0.72280073  0.56201898  1
  Ga  Ga1  1  0.19187993  0.77719927  0.06201898  1
  Ga  Ga2  1  0.80444826  0.52414017  0.31283049  1
  Ga  Ga3  1  0.69187993  0.77719927  0.43798102  1
  Ga  Ga4  1  0.69555174  0.02414017  0.31283049  1
  Ga  Ga5  1  0.19555174  0.02414017  0.18716951  1
  Ga  Ga6  1  0.69187993  0.72280073  0.93798102  1
  Ga  Ga7  1  0.80812007  0.27719927  0.43798102  1
  Ga  Ga8  1  0.69555174  0.47585983  0.81283049  1
  Ga  Ga9  1  0.80444826  0.97585983  0.81283049  1
  Ga  Ga10  1  0.19555174  0.47585983  0.68716951  1
  Ga  Ga11  1  0.30444826  0.52414017  0.18716951  1
  Ga  Ga12  1  0.30812007  0.27719927  0.06201898  1
  Ga  Ga13  1  0.30444826  0.97585983  0.68716951  1
  Ga  Ga14  1  0.30812007  0.22280073  0.56201898  1
  Ga  Ga15  1  0.80812007  0.22280073  0.93798102  1
  O  O0  1  0.27401686  0.80318967  0.66889185  1
  O  O1  1  0.13836779  0.02196966  0.79173732  1
  O  O2  1  0.36163221  0.52196966  0.79173732  1
  O  O3  1  0.86163221  0.52196966  0.70826268  1
  O  O4  1  0.79111841  0.94486039  0.41853745  1
  O  O5  1  0.63836779  0.47803034  0.20826268  1
  O  O6  1  0.20888159  0.44486039  0.08146255  1
  O  O7  1  0.34370449  0.72888298  0.95521578  1
  O  O8  1  0.79111841  0.55513961  0.91853745  1
  O  O9  1  0.36163221  0.97803034  0.29173732  1
  O  O10  1  0.84370449  0.77111702  0.04478422  1
  O  O11  1  0.65629551  0.27111702  0.04478422  1
  O  O12  1  0.65629551  0.22888298  0.54478422  1
  O  O13  1  0.22598314  0.19681033  0.16889185  1
  O  O14  1  0.70888159  0.05513961  0.91853745  1
  O  O15  1  0.70888159  0.44486039  0.41853745  1
  O  O16  1  0.84370449  0.72888298  0.54478422  1
  O  O17  1  0.63836779  0.02196966  0.70826268  1
  O  O18  1  0.27401686  0.69681033  0.16889185  1
  O  O19  1  0.77401686  0.80318967  0.83110815  1
  O  O20  1  0.72598314  0.19681033  0.33110815  1
  O  O21  1  0.20888159  0.05513961  0.58146255  1
  O  O22  1  0.34370449  0.77111702  0.45521578  1
  O  O23  1  0.15629551  0.27111702  0.45521578  1
  O  O24  1  0.29111841  0.94486039  0.08146255  1
  O  O25  1  0.15629551  0.22888298  0.95521578  1
  O  O26  1  0.13836779  0.47803034  0.29173732  1
  O  O27  1  0.77401686  0.69681033  0.33110815  1
  O  O28  1  0.86163221  0.97803034  0.20826268  1
  O  O29  1  0.72598314  0.30318967  0.83110815  1
  O  O30  1  0.22598314  0.30318967  0.66889185  1
  O  O31  1  0.29111841  0.55513961  0.58146255  1
loop_
_geom_bond_atom_site_label_1
_geom_bond_atom_site_label_2
_geom_bond_distance
_geom_bond_site_symmetry_2
Na0 O31 2.266923 1_555
Na0 O26 2.270581 1_555
Na0 O15 2.320484 1_555
Na0 O23 2.358993 1_555
Na1 O0 2.290144 1_555
Na1 O7 2.303640 1_555
Na1 O19 2.328554 1_455
Na1 O2 2.367670 1_555
Na2 O6 2.266923 1_556
Na2 O2 2.270581 1_555
Na2 O8 2.320484 1_455
Na2 O7 2.358993 1_555
Na3 O18 2.290144 1_555
Na3 O22 2.303640 1_555
Na3 O27 2.328554 1_455
Na3 O9 2.367670 1_555
Na4 O24 2.266923 1_546
Na4 O1 2.270581 1_555
Na4 O14 2.320484 1_555
Na4 O25 2.358993 1_555
Na5 O20 2.290144 1_555
Na5 O11 2.303640 1_555
Na5 O13 2.328554 1_655
Na5 O5 2.367670 1_555
Na6 O4 2.266923 1_545
Na6 O17 2.270581 1_555
Na6 O21 2.320484 1_655
Na6 O12 2.358993 1_555
Na7 O15 2.266923 1_555
Na7 O3 2.270581 1_555
Na7 O31 2.320484 1_555
Na7 O16 2.358993 1_555
Na8 O8 2.266923 1_554
Na8 O5 2.270581 1_555
Na8 O6 2.320484 1_655
Na8 O11 2.358993 1_555
Na9 O13 2.290144 1_555
Na9 O23 2.303640 1_555
Na9 O20 2.328554 1_555
Na9 O26 2.367670 1_555
Na10 O14 2.266923 1_564
Na10 O28 2.270581 1_555
Na10 O24 2.320484 1_555
Na10 O10 2.358993 1_555
Na11 O29 2.290144 1_555
Na11 O12 2.303640 1_555
Na11 O30 2.328554 1_655
Na11 O17 2.367670 1_555
Na12 O19 2.290144 1_555
Na12 O16 2.303640 1_555
Na12 O0 2.328554 1_555
Na12 O3 2.367670 1_555
Na13 O21 2.266923 1_565
Na13 O9 2.270581 1_555
Na13 O4 2.320484 1_455
Na13 O22 2.358993 1_555
Na14 O27 2.290144 1_555
Na14 O10 2.303640 1_555
Na14 O18 2.328554 1_555
Na14 O28 2.367670 1_555
Na15 O30 2.290144 1_555
Na15 O25 2.303640 1_555
Na15 O29 2.328554 1_555
Na15 O1 2.367670 1_555
Ga0 O22 1.843067 1_555
Ga0 O0 1.845001 1_555
Ga0 O16 1.855375 1_455
Ga0 O31 1.863522 1_555
Ga1 O7 1.843067 1_554
Ga1 O18 1.845001 1_555
Ga1 O10 1.855375 1_455
Ga1 O24 1.863522 1_555
Ga2 O5 1.842958 1_555
Ga2 O15 1.842975 1_555
Ga2 O27 1.844933 1_555
Ga2 O26 1.853585 1_655
Ga3 O16 1.843067 1_555
Ga3 O27 1.845001 1_555
Ga3 O22 1.855375 1_555
Ga3 O4 1.863522 1_555
Ga4 O28 1.842958 1_545
Ga4 O4 1.842975 1_545
Ga4 O20 1.844933 1_555
Ga4 O9 1.853585 1_545
Ga5 O9 1.842958 1_545
Ga5 O24 1.842975 1_545
Ga5 O13 1.844933 1_555
Ga5 O28 1.853585 1_445
Ga6 O10 1.843067 1_556
Ga6 O19 1.845001 1_555
Ga6 O7 1.855375 1_555
Ga6 O8 1.863522 1_555
Ga7 O12 1.843067 1_555
Ga7 O20 1.845001 1_555
Ga7 O23 1.855375 1_655
Ga7 O15 1.863522 1_555
Ga8 O3 1.842958 1_555
Ga8 O8 1.842975 1_555
Ga8 O29 1.844933 1_555
Ga8 O2 1.853585 1_555
Ga9 O17 1.842958 1_565
Ga9 O14 1.842975 1_565
Ga9 O19 1.844933 1_555
Ga9 O1 1.853585 1_665
Ga10 O2 1.842958 1_555
Ga10 O31 1.842975 1_555
Ga10 O30 1.844933 1_555
Ga10 O3 1.853585 1_455
Ga11 O26 1.842958 1_555
Ga11 O6 1.842975 1_555
Ga11 O18 1.844933 1_555
Ga11 O5 1.853585 1_555
Ga12 O25 1.843067 1_554
Ga12 O13 1.845001 1_555
Ga12 O11 1.855375 1_555
Ga12 O6 1.863522 1_555
Ga13 O1 1.842958 1_565
Ga13 O21 1.842975 1_565
Ga13 O0 1.844933 1_555
Ga13 O17 1.853585 1_565
Ga14 O23 1.843067 1_555
Ga14 O30 1.845001 1_555
Ga14 O12 1.855375 1_555
Ga14 O21 1.863522 1_555
Ga15 O11 1.843067 1_556
Ga15 O29 1.845001 1_555
Ga15 O25 1.855375 1_655
Ga15 O14 1.863522 1_555
