# generated using pymatgen
data_CaMg3Si3O10
_symmetry_space_group_name_H-M   'P 1'
_cell_length_a   8.93076100
_cell_length_b   9.83294466
_cell_length_c   10.38657191
_cell_angle_alpha   115.62343353
_cell_angle_beta   84.01368025
_cell_angle_gamma   114.12731194
_symmetry_Int_Tables_number   1
_chemical_formula_structural   CaMg3Si3O10
_chemical_formula_sum   'Ca4 Mg12 Si12 O40'
_cell_volume   747.64076892
_cell_formula_units_Z   4
loop_
 _symmetry_equiv_pos_site_id
 _symmetry_equiv_pos_as_xyz
  1  'x, y, z'
loop_
 _atom_site_type_symbol
 _atom_site_label
 _atom_site_symmetry_multiplicity
 _atom_site_fract_x
 _atom_site_fract_y
 _atom_site_fract_z
 _atom_site_occupancy
  Ca  Ca0  1  0.38303900  0.63362700  0.42778800  1
  Ca  Ca1  1  0.61696100  0.36637300  0.57221200  1
  Ca  Ca2  1  0.36605300  0.61894000  0.94984600  1
  Ca  Ca3  1  0.63394700  0.38106000  0.05015400  1
  Mg  Mg0  1  0.50000000  0.00000000  0.00000000  1
  Mg  Mg1  1  0.00000000  0.50000000  0.50000000  1
  Mg  Mg2  1  0.16812800  0.84731800  0.54030300  1
  Mg  Mg3  1  0.83187200  0.15268200  0.45969700  1
  Mg  Mg4  1  0.15289300  0.83344500  0.05036100  1
  Mg  Mg5  1  0.84710700  0.16655500  0.94963900  1
  Mg  Mg6  1  0.06702100  0.93014700  0.84110700  1
  Mg  Mg7  1  0.93297900  0.06985300  0.15889300  1
  Mg  Mg8  1  0.06478900  0.94172800  0.34488900  1
  Mg  Mg9  1  0.93521100  0.05827200  0.65511100  1
  Mg  Mg10  1  0.25746900  0.74372300  0.74697700  1
  Mg  Mg11  1  0.74253100  0.25627700  0.25302300  1
  Si  Si0  1  0.32932800  0.22956400  0.75684800  1
  Si  Si1  1  0.67067200  0.77043600  0.24315200  1
  Si  Si2  1  0.34001300  0.22635200  0.24900200  1
  Si  Si3  1  0.65998700  0.77364800  0.75099800  1
  Si  Si4  1  0.23361100  0.33683100  0.55065400  1
  Si  Si5  1  0.76638900  0.66316900  0.44934600  1
  Si  Si6  1  0.22043100  0.33350400  0.06229700  1
  Si  Si7  1  0.77956900  0.66649600  0.93770300  1
  Si  Si8  1  0.43883600  0.94775000  0.30439900  1
  Si  Si9  1  0.56116400  0.05225000  0.69560100  1
  Si  Si10  1  0.04795300  0.56359000  0.20187400  1
  Si  Si11  1  0.95204700  0.43641000  0.79812600  1
  O  O0  1  0.16278000  0.06721000  0.71211300  1
  O  O1  1  0.83722000  0.93279000  0.28788700  1
  O  O2  1  0.16931900  0.06506800  0.21459300  1
  O  O3  1  0.83068100  0.93493200  0.78540700  1
  O  O4  1  0.28759400  0.95489800  0.40555500  1
  O  O5  1  0.71240600  0.04510200  0.59444500  1
  O  O6  1  0.27092500  0.94222300  0.92506500  1
  O  O7  1  0.72907500  0.05777700  0.07493500  1
  O  O8  1  0.39906000  0.87632100  0.62380700  1
  O  O9  1  0.60094000  0.12367900  0.37619300  1
  O  O10  1  0.38412200  0.87426300  0.13243700  1
  O  O11  1  0.61587800  0.12573700  0.86756300  1
  O  O12  1  0.49722300  0.19986500  0.70194200  1
  O  O13  1  0.50277700  0.80013500  0.29805800  1
  O  O14  1  0.49066300  0.77759500  0.82174300  1
  O  O15  1  0.50933700  0.22240500  0.17825700  1
  O  O16  1  0.37388800  0.31832500  0.42876200  1
  O  O17  1  0.62611200  0.68167500  0.57123800  1
  O  O18  1  0.35831000  0.34004100  0.93685600  1
  O  O19  1  0.64169000  0.65995900  0.06314400  1
  O  O20  1  0.06998400  0.16795900  0.51677600  1
  O  O21  1  0.93001600  0.83204100  0.48322400  1
  O  O22  1  0.06316700  0.16296400  0.00858200  1
  O  O23  1  0.93683300  0.83703600  0.99141800  1
  O  O24  1  0.03938800  0.71497900  0.18079300  1
  O  O25  1  0.96061200  0.28502100  0.81920700  1
  O  O26  1  0.05978800  0.72958300  0.66021100  1
  O  O27  1  0.94021200  0.27041700  0.33978900  1
  O  O28  1  0.12304800  0.61567200  0.36295300  1
  O  O29  1  0.87695200  0.38432800  0.63704700  1
  O  O30  1  0.12751500  0.59986600  0.86367600  1
  O  O31  1  0.87248500  0.40013400  0.13632400  1
  O  O32  1  0.19211000  0.50041000  0.09780900  1
  O  O33  1  0.80789000  0.49959000  0.90219100  1
  O  O34  1  0.22512400  0.50688800  0.57371900  1
  O  O35  1  0.77487600  0.49311200  0.42628100  1
  O  O36  1  0.31824000  0.36784700  0.20739600  1
  O  O37  1  0.68176000  0.63215300  0.79260400  1
  O  O38  1  0.33822300  0.36582300  0.69666600  1
  O  O39  1  0.66177700  0.63417700  0.30333400  1
loop_
_geom_bond_atom_site_label_1
_geom_bond_atom_site_label_2
_geom_bond_distance
_geom_bond_site_symmetry_2
Ca0 O8 2.332353 1_555
Ca0 O34 2.364414 1_555
Ca0 O28 2.400861 1_555
Ca0 O13 2.411635 1_555
Ca0 O36 2.504095 1_555
Ca0 O17 2.526459 1_555
Ca0 O39 2.681726 1_555
Ca1 O9 2.332353 1_555
Ca1 O35 2.364414 1_555
Ca1 O29 2.400861 1_555
Ca1 O12 2.411635 1_555
Ca1 O37 2.504095 1_555
Ca1 O16 2.526459 1_555
Ca1 O38 2.681726 1_555
Ca2 O30 2.302254 1_555
Ca2 O14 2.347275 1_555
Ca2 O10 2.353777 1_556
Ca2 O32 2.388406 1_556
Ca2 O19 2.643709 1_556
Ca2 O18 2.659064 1_555
Ca2 O38 2.672324 1_555
Ca3 O31 2.302254 1_555
Ca3 O15 2.347275 1_555
Ca3 O11 2.353777 1_554
Ca3 O33 2.388406 1_554
Ca3 O18 2.643709 1_554
Ca3 O19 2.659064 1_555
Ca3 O39 2.672324 1_555
Mg0 O7 2.028149 1_555
Mg0 O6 2.028149 1_544
Mg0 O15 2.144423 1_555
Mg0 O14 2.144423 1_544
Mg0 O11 2.149363 1_554
Mg0 O10 2.149363 1_545
Mg1 O26 2.025135 1_555
Mg1 O27 2.025135 1_455
Mg1 O29 2.140021 1_455
Mg1 O28 2.140021 1_555
Mg1 O34 2.190436 1_555
Mg1 O35 2.190436 1_455
Mg2 O26 1.976728 1_555
Mg2 O4 2.064577 1_555
Mg2 O28 2.125911 1_555
Mg2 O0 2.142723 1_565
Mg2 O8 2.182977 1_555
Mg2 O21 2.195659 1_455
Mg3 O27 1.976728 1_555
Mg3 O5 2.064577 1_555
Mg3 O29 2.125911 1_555
Mg3 O1 2.142723 1_545
Mg3 O9 2.182977 1_555
Mg3 O20 2.195659 1_655
Mg4 O6 1.986176 1_554
Mg4 O24 2.081567 1_555
Mg4 O23 2.102412 1_454
Mg4 O2 2.130098 1_565
Mg4 O10 2.132118 1_555
Mg4 O30 2.213719 1_554
Mg5 O7 1.986176 1_556
Mg5 O25 2.081567 1_555
Mg5 O22 2.102412 1_656
Mg5 O3 2.130098 1_545
Mg5 O11 2.132118 1_555
Mg5 O31 2.213719 1_556
Mg6 O26 2.034706 1_555
Mg6 O6 2.038515 1_555
Mg6 O23 2.148224 1_455
Mg6 O0 2.173323 1_565
Mg6 O22 2.208056 1_566
Mg6 O3 2.269666 1_455
Mg7 O27 2.034706 1_555
Mg7 O7 2.038515 1_555
Mg7 O22 2.148224 1_655
Mg7 O1 2.173323 1_545
Mg7 O23 2.208056 1_544
Mg7 O2 2.269666 1_655
Mg8 O24 2.075563 1_555
Mg8 O4 2.086497 1_555
Mg8 O2 2.098649 1_565
Mg8 O1 2.132770 1_455
Mg8 O21 2.143541 1_455
Mg8 O20 2.153120 1_565
Mg9 O25 2.075563 1_555
Mg9 O5 2.086497 1_555
Mg9 O3 2.098649 1_545
Mg9 O0 2.132770 1_655
Mg9 O20 2.143541 1_655
Mg9 O21 2.153120 1_545
Mg10 O26 1.992759 1_555
Mg10 O6 1.994384 1_555
Mg10 O14 2.144240 1_555
Mg10 O30 2.159735 1_555
Mg10 O34 2.163080 1_555
Mg10 O8 2.166331 1_555
Mg11 O27 1.992759 1_555
Mg11 O7 1.994384 1_555
Mg11 O15 2.144240 1_555
Mg11 O31 2.159735 1_555
Mg11 O35 2.163080 1_555
Mg11 O9 2.166331 1_555
O0 Si0 1.593160 1_555
O1 Si1 1.593160 1_555
O2 Si2 1.616677 1_555
O3 Si3 1.616677 1_555
O4 Si8 1.628182 1_555
O5 Si9 1.628182 1_555
O8 Si9 1.645152 1_565
O9 Si8 1.645152 1_545
O10 Si8 1.651713 1_555
O11 Si9 1.651713 1_555
O12 Si0 1.641455 1_555
O12 Si9 1.739064 1_555
O13 Si1 1.641455 1_555
O13 Si8 1.739064 1_555
O14 Si3 1.618551 1_555
O15 Si2 1.618551 1_555
O16 Si2 1.682006 1_555
O16 Si4 1.691661 1_555
O17 Si3 1.682006 1_555
O17 Si5 1.691661 1_555
O18 Si0 1.690303 1_555
O18 Si6 1.700304 1_556
O19 Si1 1.690303 1_555
O19 Si7 1.700304 1_554
O20 Si4 1.623169 1_555
O21 Si5 1.623169 1_555
O22 Si6 1.588927 1_555
O23 Si7 1.588927 1_555
O24 Si10 1.627334 1_555
O25 Si11 1.627334 1_555
O28 Si10 1.650262 1_555
O29 Si11 1.650262 1_555
O30 Si11 1.649087 1_455
O31 Si10 1.649087 1_655
O32 Si6 1.640065 1_555
O32 Si10 1.730481 1_555
O33 Si7 1.640065 1_555
O33 Si11 1.730481 1_555
O34 Si4 1.616357 1_555
O35 Si5 1.616357 1_555
O36 Si6 1.655779 1_555
O36 Si2 1.708518 1_555
O37 Si7 1.655779 1_555
O37 Si3 1.708518 1_555
O38 Si0 1.679039 1_555
O38 Si4 1.719869 1_555
O39 Si1 1.679039 1_555
O39 Si5 1.719869 1_555
