# generated using pymatgen
data_CdI2
_symmetry_space_group_name_H-M   'P 1'
_cell_length_a   4.33362719
_cell_length_b   4.33362719
_cell_length_c   136.42000100
_cell_angle_alpha   90.00000000
_cell_angle_beta   90.00000000
_cell_angle_gamma   119.99998759
_symmetry_Int_Tables_number   1
_chemical_formula_structural   CdI2
_chemical_formula_sum   'Cd18 I36'
_cell_volume   2218.76766796
_cell_formula_units_Z   18
loop_
 _symmetry_equiv_pos_site_id
 _symmetry_equiv_pos_as_xyz
  1  'x, y, z'
loop_
 _atom_site_type_symbol
 _atom_site_label
 _atom_site_symmetry_multiplicity
 _atom_site_fract_x
 _atom_site_fract_y
 _atom_site_fract_z
 _atom_site_occupancy
  Cd  Cd0  1  0.00000000  0.00000000  0.40279700  1
  Cd  Cd1  1  0.66666700  0.33333300  0.45836800  1
  Cd  Cd2  1  0.66666700  0.33333300  0.12501900  1
  Cd  Cd3  1  0.66666700  0.33333300  0.68053100  1
  Cd  Cd4  1  0.00000000  0.00000000  0.84720200  1
  Cd  Cd5  1  0.66666700  0.33333300  0.90278800  1
  Cd  Cd6  1  0.66666700  0.33333300  0.56940700  1
  Cd  Cd7  1  0.66666700  0.33333300  0.73608600  1
  Cd  Cd8  1  0.00000000  0.00000000  0.95829200  1
  Cd  Cd9  1  0.00000000  0.00000000  0.51389400  1
  Cd  Cd10  1  0.66666700  0.33333300  0.62501800  1
  Cd  Cd11  1  0.66666700  0.33333300  0.23608400  1
  Cd  Cd12  1  0.66666700  0.33333300  0.01388900  1
  Cd  Cd13  1  0.66666700  0.33333300  0.34724900  1
  Cd  Cd14  1  0.66666700  0.33333300  0.29169400  1
  Cd  Cd15  1  0.66666700  0.33333300  0.79169200  1
  Cd  Cd16  1  0.00000000  0.00000000  0.18054200  1
  Cd  Cd17  1  0.00000000  0.00000000  0.06943900  1
  I  I0  1  0.00000000  0.00000000  0.11237700  1
  I  I1  1  0.33333300  0.66666700  0.91543400  1
  I  I2  1  0.00000000  0.00000000  0.44574700  1
  I  I3  1  0.33333300  0.66666700  0.35988500  1
  I  I4  1  0.00000000  0.00000000  0.27904500  1
  I  I5  1  0.33333300  0.66666700  0.80434400  1
  I  I6  1  0.00000000  0.00000000  0.77904400  1
  I  I7  1  0.33333300  0.66666700  0.08207800  1
  I  I8  1  0.33333300  0.66666700  0.30434500  1
  I  I9  1  0.00000000  0.00000000  0.22344400  1
  I  I10  1  0.33333300  0.66666700  0.13767000  1
  I  I11  1  0.00000000  0.00000000  0.66788900  1
  I  I12  1  0.66666700  0.33333300  0.83456000  1
  I  I13  1  0.33333300  0.66666700  0.02653200  1
  I  I14  1  0.33333300  0.66666700  0.85984000  1
  I  I15  1  0.66666700  0.33333300  0.16790900  1
  I  I16  1  0.33333300  0.66666700  0.63766800  1
  I  I17  1  0.33333300  0.66666700  0.19318300  1
  I  I18  1  0.33333300  0.66666700  0.47098600  1
  I  I19  1  0.33333300  0.66666700  0.69317600  1
  I  I20  1  0.66666700  0.33333300  0.05680200  1
  I  I21  1  0.00000000  0.00000000  0.00124000  1
  I  I22  1  0.33333300  0.66666700  0.41544200  1
  I  I23  1  0.00000000  0.00000000  0.55675600  1
  I  I24  1  0.00000000  0.00000000  0.72344600  1
  I  I25  1  0.33333300  0.66666700  0.97094300  1
  I  I26  1  0.66666700  0.33333300  0.39015800  1
  I  I27  1  0.66666700  0.33333300  0.94563800  1
  I  I28  1  0.33333300  0.66666700  0.52653100  1
  I  I29  1  0.00000000  0.00000000  0.33461500  1
  I  I30  1  0.33333300  0.66666700  0.74873000  1
  I  I31  1  0.33333300  0.66666700  0.58205900  1
  I  I32  1  0.66666700  0.33333300  0.50125800  1
  I  I33  1  0.33333300  0.66666700  0.24872700  1
  I  I34  1  0.00000000  0.00000000  0.89013400  1
  I  I35  1  0.00000000  0.00000000  0.61237500  1
loop_
_geom_bond_atom_site_label_1
_geom_bond_atom_site_label_2
_geom_bond_distance
_geom_bond_site_symmetry_2
Cd0 I26 3.038586 1_455
Cd0 I26 3.038589 1_445
Cd0 I26 3.038589 1_555
Cd0 I22 3.039050 1_545
Cd0 I22 3.039054 1_555
Cd0 I22 3.039054 1_445
Cd1 I18 3.036961 1_655
Cd1 I18 3.036961 1_545
Cd1 I18 3.036967 1_555
Cd1 I2 3.037193 1_655
Cd1 I2 3.037197 1_555
Cd1 I2 3.037197 1_665
Cd2 I0 3.038818 1_655
Cd2 I0 3.038821 1_665
Cd2 I0 3.038821 1_555
Cd2 I10 3.039515 1_545
Cd2 I10 3.039515 1_655
Cd2 I10 3.039521 1_555
Cd3 I11 3.038818 1_655
Cd3 I11 3.038821 1_555
Cd3 I11 3.038821 1_665
Cd3 I19 3.039051 1_545
Cd3 I19 3.039051 1_655
Cd3 I19 3.039056 1_555
Cd4 I14 3.038508 1_545
Cd4 I14 3.038512 1_445
Cd4 I14 3.038512 1_555
Cd4 I12 3.038818 1_455
Cd4 I12 3.038821 1_445
Cd4 I12 3.038821 1_555
Cd5 I1 3.039128 1_545
Cd5 I1 3.039128 1_655
Cd5 I1 3.039134 1_555
Cd5 I34 3.039747 1_655
Cd5 I34 3.039751 1_665
Cd5 I34 3.039751 1_555
Cd6 I23 3.039515 1_655
Cd6 I23 3.039518 1_665
Cd6 I23 3.039518 1_555
Cd6 I31 3.039593 1_545
Cd6 I31 3.039593 1_655
Cd6 I31 3.039599 1_555
Cd7 I24 3.038663 1_655
Cd7 I24 3.038667 1_555
Cd7 I24 3.038667 1_665
Cd7 I30 3.038973 1_545
Cd7 I30 3.038973 1_655
Cd7 I30 3.038979 1_555
Cd8 I25 3.039515 1_545
Cd8 I25 3.039518 1_445
Cd8 I25 3.039518 1_555
Cd8 I27 3.039747 1_455
Cd8 I27 3.039751 1_445
Cd8 I27 3.039751 1_555
Cd9 I32 3.038354 1_455
Cd9 I32 3.038357 1_445
Cd9 I32 3.038357 1_555
Cd9 I28 3.038431 1_545
Cd9 I28 3.038434 1_555
Cd9 I28 3.038434 1_445
Cd10 I35 3.038895 1_655
Cd10 I35 3.038899 1_665
Cd10 I35 3.038899 1_555
Cd10 I16 3.039438 1_655
Cd10 I16 3.039438 1_545
Cd10 I16 3.039444 1_555
Cd11 I9 3.038663 1_655
Cd11 I9 3.038667 1_665
Cd11 I9 3.038667 1_555
Cd11 I33 3.038896 1_655
Cd11 I33 3.038896 1_545
Cd11 I33 3.038902 1_555
Cd12 I13 3.038896 1_545
Cd12 I13 3.038896 1_655
Cd12 I13 3.038902 1_555
Cd12 I21 3.039360 1_655
Cd12 I21 3.039364 1_555
Cd12 I21 3.039364 1_665
Cd13 I29 3.038199 1_655
Cd13 I29 3.038202 1_555
Cd13 I29 3.038202 1_665
Cd13 I3 3.038354 1_545
Cd13 I3 3.038354 1_655
Cd13 I3 3.038360 1_555
Cd14 I4 3.039360 1_655
Cd14 I4 3.039364 1_665
Cd14 I4 3.039364 1_555
Cd14 I8 3.039515 1_655
Cd14 I8 3.039515 1_545
Cd14 I8 3.039521 1_555
Cd15 I6 3.039283 1_655
Cd15 I6 3.039286 1_555
Cd15 I6 3.039286 1_665
Cd15 I5 3.039593 1_655
Cd15 I5 3.039593 1_545
Cd15 I5 3.039599 1_555
Cd16 I15 3.038121 1_455
Cd16 I15 3.038125 1_555
Cd16 I15 3.038125 1_445
Cd16 I17 3.038741 1_545
Cd16 I17 3.038744 1_555
Cd16 I17 3.038744 1_445
Cd17 I20 3.038431 1_455
Cd17 I20 3.038434 1_445
Cd17 I20 3.038434 1_555
Cd17 I7 3.038586 1_545
Cd17 I7 3.038589 1_445
Cd17 I7 3.038589 1_555
