# generated using pymatgen
data_KNb4O5F
_symmetry_space_group_name_H-M   'P 1'
_cell_length_a   4.19468009
_cell_length_b   4.19468009
_cell_length_c   8.42509277
_cell_angle_alpha   90.00000000
_cell_angle_beta   90.00000000
_cell_angle_gamma   90.00000000
_symmetry_Int_Tables_number   1
_chemical_formula_structural   KNb4O5F
_chemical_formula_sum   'K1 Nb4 O5 F1'
_cell_volume   148.24238073
_cell_formula_units_Z   1
loop_
 _symmetry_equiv_pos_site_id
 _symmetry_equiv_pos_as_xyz
  1  'x, y, z'
loop_
 _atom_site_type_symbol
 _atom_site_label
 _atom_site_symmetry_multiplicity
 _atom_site_fract_x
 _atom_site_fract_y
 _atom_site_fract_z
 _atom_site_occupancy
  K  K0  1  -0.00000000  -0.00000000  0.50000000  1
  Nb  Nb0  1  0.50000000  0.50000000  0.23809198  1
  Nb  Nb1  1  0.50000000  0.50000000  0.76190802  1
  Nb  Nb2  1  0.50000000  -0.00000000  0.00000000  1
  Nb  Nb3  1  -0.00000000  0.50000000  0.00000000  1
  O  O0  1  -0.00000000  0.50000000  0.25148230  1
  O  O1  1  0.00000000  0.50000000  0.74851770  1
  O  O2  1  0.50000000  0.00000000  0.25148230  1
  O  O3  1  -0.00000000  -0.00000000  0.00000000  1
  O  O4  1  0.50000000  -0.00000000  0.74851770  1
  F  F0  1  0.50000000  0.50000000  0.50000000  1
loop_
_geom_bond_atom_site_label_1
_geom_bond_atom_site_label_2
_geom_bond_distance
_geom_bond_site_symmetry_2
K0 O2 2.963574 1_455
K0 O2 2.963574 1_555
K0 O0 2.963574 1_545
K0 O1 2.963574 1_545
K0 O0 2.963574 1_555
K0 O1 2.963574 1_555
K0 O4 2.963574 1_555
K0 O4 2.963574 1_455
Nb0 O0 2.100372 1_655
Nb0 O2 2.100372 1_555
Nb0 O2 2.100372 1_565
Nb0 O0 2.100372 1_555
Nb1 O4 2.100372 1_555
Nb1 O1 2.100372 1_655
Nb1 O4 2.100372 1_565
Nb1 O1 2.100372 1_555
Nb2 O3 2.097340 1_555
Nb2 O3 2.097340 1_655
Nb2 O2 2.118762 1_555
Nb2 O4 2.118762 1_554
Nb3 O3 2.097340 1_555
Nb3 O3 2.097340 1_565
Nb3 O0 2.118762 1_555
Nb3 O1 2.118762 1_554
F0 Nb1 2.206599 1_555
F0 Nb0 2.206599 1_555
F0 K0 2.966087 1_555
F0 K0 2.966087 1_655
F0 K0 2.966087 1_565
F0 K0 2.966087 1_665
