# generated using pymatgen
data_Na2FeCuF7
_symmetry_space_group_name_H-M   'P 1'
_cell_length_a   7.32055758
_cell_length_b   7.32055758
_cell_length_c   13.10348828
_cell_angle_alpha   73.15648083
_cell_angle_beta   73.15648083
_cell_angle_gamma   61.29850197
_symmetry_Int_Tables_number   1
_chemical_formula_structural   Na2FeCuF7
_chemical_formula_sum   'Na8 Fe4 Cu4 F28'
_cell_volume   579.95575367
_cell_formula_units_Z   4
loop_
 _symmetry_equiv_pos_site_id
 _symmetry_equiv_pos_as_xyz
  1  'x, y, z'
loop_
 _atom_site_type_symbol
 _atom_site_label
 _atom_site_symmetry_multiplicity
 _atom_site_fract_x
 _atom_site_fract_y
 _atom_site_fract_z
 _atom_site_occupancy
  Na  Na0  1  0.50000000  0.50000000  0.00000000  1
  Na  Na1  1  0.50000000  0.50000000  0.50000000  1
  Na  Na2  1  0.27143100  0.72856900  0.75000000  1
  Na  Na3  1  0.72856900  0.27143100  0.25000000  1
  Na  Na4  1  0.20756900  0.28570100  0.25427500  1
  Na  Na5  1  0.28570100  0.20756900  0.75427500  1
  Na  Na6  1  0.79243100  0.71429900  0.74572500  1
  Na  Na7  1  0.71429900  0.79243100  0.24572500  1
  Fe  Fe0  1  0.00000000  0.50000000  0.00000000  1
  Fe  Fe1  1  0.25744900  0.74255100  0.25000000  1
  Fe  Fe2  1  0.50000000  0.00000000  0.50000000  1
  Fe  Fe3  1  0.74255100  0.25744900  0.75000000  1
  Cu  Cu0  1  0.50000000  0.00000000  0.00000000  1
  Cu  Cu1  1  0.00000000  0.50000000  0.50000000  1
  Cu  Cu2  1  0.00000000  0.00000000  0.50000000  1
  Cu  Cu3  1  0.00000000  0.00000000  0.00000000  1
  F  F0  1  0.57822900  0.10502500  0.84799200  1
  F  F1  1  0.89497500  0.42177100  0.65200800  1
  F  F2  1  0.42177100  0.89497500  0.15200800  1
  F  F3  1  0.10502500  0.57822900  0.34799200  1
  F  F4  1  0.50115800  0.40267000  0.67416900  1
  F  F5  1  0.59733000  0.49884200  0.82583100  1
  F  F6  1  0.49884200  0.59733000  0.32583100  1
  F  F7  1  0.40267000  0.50115800  0.17416900  1
  F  F8  1  0.29371300  0.95846500  0.95079700  1
  F  F9  1  0.04153500  0.70628700  0.54920300  1
  F  F10  1  0.70628700  0.04153500  0.04920300  1
  F  F11  1  0.95846500  0.29371300  0.45079700  1
  F  F12  1  0.27918700  0.89664100  0.53500800  1
  F  F13  1  0.10335900  0.72081300  0.96499200  1
  F  F14  1  0.72081300  0.10335900  0.46499200  1
  F  F15  1  0.89664100  0.27918700  0.03500800  1
  F  F16  1  0.08698700  0.49803500  0.84206300  1
  F  F17  1  0.50196500  0.91301300  0.65793700  1
  F  F18  1  0.91301300  0.50196500  0.15793700  1
  F  F19  1  0.49803500  0.08698700  0.34206300  1
  F  F20  1  0.98626100  0.11919600  0.82259300  1
  F  F21  1  0.88080400  0.01373900  0.67740700  1
  F  F22  1  0.01373900  0.88080400  0.17740700  1
  F  F23  1  0.11919600  0.98626100  0.32259300  1
  F  F24  1  0.28192600  0.31186500  0.03153100  1
  F  F25  1  0.68813500  0.71807400  0.46846900  1
  F  F26  1  0.71807400  0.68813500  0.96846900  1
  F  F27  1  0.31186500  0.28192600  0.53153100  1
loop_
_geom_bond_atom_site_label_1
_geom_bond_atom_site_label_2
_geom_bond_distance
_geom_bond_site_symmetry_2
Cu0 F2 1.939296 1_545
Cu0 F0 1.939296 1_554
Cu0 F8 1.976743 1_544
Cu0 F10 1.976743 1_555
Cu0 F26 2.143640 1_544
Cu0 F24 2.143640 1_555
Cu1 F3 1.939296 1_555
Cu1 F1 1.939296 1_455
Cu1 F9 1.976743 1_555
Cu1 F11 1.976743 1_455
Cu1 F25 2.143640 1_455
Cu1 F27 2.143640 1_555
Cu2 F9 1.952830 1_545
Cu2 F11 1.952830 1_455
Cu2 F14 1.953693 1_455
Cu2 F12 1.953693 1_545
Cu2 F21 2.247486 1_455
Cu2 F23 2.247486 1_545
Cu3 F10 1.952830 1_455
Cu3 F8 1.952830 1_544
Cu3 F13 1.953693 1_544
Cu3 F15 1.953693 1_455
Cu3 F20 2.247486 1_454
Cu3 F22 2.247486 1_545
F0 Fe3 1.976020 1_555
F0 Na5 2.470457 1_555
F1 Fe3 1.976020 1_555
F1 Na6 2.470457 1_555
F2 Fe1 1.976020 1_555
F2 Na7 2.470457 1_555
F3 Fe1 1.976020 1_555
F3 Na4 2.470457 1_555
F4 Fe3 1.959915 1_555
F4 Na1 2.186168 1_555
F4 Na5 2.442321 1_555
F4 Na2 2.461530 1_555
F5 Fe3 1.959915 1_555
F5 Na0 2.186168 1_556
F5 Na6 2.442321 1_555
F5 Na2 2.461530 1_555
F6 Fe1 1.959915 1_555
F6 Na1 2.186168 1_555
F6 Na7 2.442321 1_555
F6 Na3 2.461530 1_555
F7 Fe1 1.959915 1_555
F7 Na0 2.186168 1_555
F7 Na4 2.442321 1_555
F7 Na3 2.461530 1_555
F8 Na5 2.687668 1_565
F8 Na0 2.898711 1_556
F9 Na6 2.687668 1_455
F9 Na1 2.898711 1_555
F10 Na7 2.687668 1_545
F10 Na0 2.898711 1_555
F11 Na4 2.687668 1_655
F11 Na1 2.898711 1_555
F12 Fe2 1.984902 1_565
F12 Na1 2.662418 1_555
F12 Na2 2.723797 1_555
F13 Fe0 1.984902 1_556
F13 Na0 2.662418 1_556
F13 Na2 2.723797 1_555
F14 Fe2 1.984902 1_555
F14 Na1 2.662418 1_555
F14 Na3 2.723797 1_555
F15 Fe0 1.984902 1_655
F15 Na0 2.662418 1_555
F15 Na3 2.723797 1_555
F16 Fe0 1.983275 1_556
F16 Na5 2.331867 1_555
F16 Na6 2.426938 1_455
F16 Na2 2.488258 1_555
F17 Fe2 1.983275 1_565
F17 Na6 2.331867 1_555
F17 Na5 2.426938 1_565
F17 Na2 2.488258 1_555
F18 Fe0 1.983275 1_655
F18 Na7 2.331867 1_555
F18 Na4 2.426938 1_655
F18 Na3 2.488258 1_555
F19 Fe2 1.983275 1_555
F19 Na4 2.331867 1_555
F19 Na7 2.426938 1_545
F19 Na3 2.488258 1_555
F20 Fe3 1.950225 1_555
F20 Na5 2.431944 1_655
F20 Na2 2.851658 1_645
F21 Fe3 1.950225 1_555
F21 Na6 2.431944 1_545
F21 Na2 2.851658 1_645
F22 Fe1 1.950225 1_555
F22 Na7 2.431944 1_455
F22 Na3 2.851658 1_465
F23 Fe1 1.950225 1_555
F23 Na4 2.431944 1_565
F23 Na3 2.851658 1_465
F24 Fe0 1.939401 1_555
F24 Na0 2.452735 1_555
F24 Na4 2.776218 1_555
F25 Fe2 1.939401 1_565
F25 Na1 2.452735 1_555
F25 Na7 2.776218 1_555
F26 Fe0 1.939401 1_656
F26 Na0 2.452735 1_556
F26 Na6 2.776218 1_555
F27 Fe2 1.939401 1_555
F27 Na1 2.452735 1_555
F27 Na5 2.776218 1_555
