# generated using pymatgen
data_LiEuH3
_symmetry_space_group_name_H-M   'P 1'
_cell_length_a   3.71667895
_cell_length_b   3.71671165
_cell_length_c   3.71667895
_cell_angle_alpha   90.00000000
_cell_angle_beta   90.00000000
_cell_angle_gamma   90.00000000
_symmetry_Int_Tables_number   1
_chemical_formula_structural   LiEuH3
_chemical_formula_sum   'Li1 Eu1 H3'
_cell_volume   51.34154870
_cell_formula_units_Z   1
loop_
 _symmetry_equiv_pos_site_id
 _symmetry_equiv_pos_as_xyz
  1  'x, y, z'
loop_
 _atom_site_type_symbol
 _atom_site_label
 _atom_site_symmetry_multiplicity
 _atom_site_fract_x
 _atom_site_fract_y
 _atom_site_fract_z
 _atom_site_occupancy
  Li  Li0  1  0.50000000  0.50000000  0.50000000  1
  Eu  Eu0  1  0.00000000  -0.00000000  -0.00000000  1
  H  H0  1  0.00000000  0.50000000  0.50000000  1
  H  H1  1  0.50000000  0.50000000  0.00000000  1
  H  H2  1  0.50000000  -0.00000000  0.50000000  1
loop_
_geom_bond_atom_site_label_1
_geom_bond_atom_site_label_2
_geom_bond_distance
_geom_bond_site_symmetry_2
Eu0 H2 2.628089 1_455
Eu0 H2 2.628089 1_454
Eu0 H2 2.628089 1_555
Eu0 H2 2.628089 1_554
Eu0 H0 2.628100 1_545
Eu0 H1 2.628100 1_545
Eu0 H1 2.628100 1_445
Eu0 H1 2.628100 1_555
Eu0 H0 2.628100 1_554
Eu0 H1 2.628100 1_455
Eu0 H0 2.628100 1_544
Eu0 H0 2.628100 1_555
H0 Li0 1.858339 1_555
H0 Li0 1.858339 1_455
H1 Li0 1.858339 1_555
H1 Li0 1.858339 1_554
H2 Li0 1.858356 1_545
H2 Li0 1.858356 1_555
