# generated using pymatgen
data_Zn2P2O7
_symmetry_space_group_name_H-M   'P 1'
_cell_length_a   4.94724925
_cell_length_b   13.31124135
_cell_length_c   16.43407348
_cell_angle_alpha   90.00000000
_cell_angle_beta   90.00000000
_cell_angle_gamma   90.00000000
_symmetry_Int_Tables_number   1
_chemical_formula_structural   Zn2P2O7
_chemical_formula_sum   'Zn16 P16 O56'
_cell_volume   1082.24994801
_cell_formula_units_Z   8
loop_
 _symmetry_equiv_pos_site_id
 _symmetry_equiv_pos_as_xyz
  1  'x, y, z'
loop_
 _atom_site_type_symbol
 _atom_site_label
 _atom_site_symmetry_multiplicity
 _atom_site_fract_x
 _atom_site_fract_y
 _atom_site_fract_z
 _atom_site_occupancy
  Zn  Zn0  1  0.67980066  0.75761254  0.65658433  1
  Zn  Zn1  1  0.32019934  0.25761254  0.84341567  1
  Zn  Zn2  1  0.90843501  0.54539764  0.91372594  1
  Zn  Zn3  1  0.09156499  0.45460236  0.08627406  1
  Zn  Zn4  1  0.90843501  0.54539764  0.58627406  1
  Zn  Zn5  1  0.32019934  0.25761254  0.65658433  1
  Zn  Zn6  1  0.67980066  0.75761254  0.84341567  1
  Zn  Zn7  1  0.90843501  0.95460236  0.41372594  1
  Zn  Zn8  1  0.90843501  0.95460236  0.08627406  1
  Zn  Zn9  1  0.09156499  0.04539764  0.58627406  1
  Zn  Zn10  1  0.67980066  0.74238746  0.34341567  1
  Zn  Zn11  1  0.32019934  0.24238746  0.15658433  1
  Zn  Zn12  1  0.09156499  0.45460236  0.41372594  1
  Zn  Zn13  1  0.67980066  0.74238746  0.15658433  1
  Zn  Zn14  1  0.32019934  0.24238746  0.34341567  1
  Zn  Zn15  1  0.09156499  0.04539764  0.91372594  1
  P  P0  1  0.17473137  0.85022024  0.25000000  1
  P  P1  1  0.42086915  0.85647583  0.99727344  1
  P  P2  1  0.82526863  0.35022024  0.25000000  1
  P  P3  1  0.03913818  0.44265013  0.75000000  1
  P  P4  1  0.42086915  0.64352417  0.00272656  1
  P  P5  1  0.57913085  0.14352417  0.49727344  1
  P  P6  1  0.82526863  0.14977976  0.75000000  1
  P  P7  1  0.03913818  0.05734987  0.25000000  1
  P  P8  1  0.42086915  0.85647583  0.50272656  1
  P  P9  1  0.17473137  0.64977976  0.75000000  1
  P  P10  1  0.57913085  0.14352417  0.00272656  1
  P  P11  1  0.96086182  0.94265013  0.75000000  1
  P  P12  1  0.42086915  0.64352417  0.49727344  1
  P  P13  1  0.96086182  0.55734987  0.25000000  1
  P  P14  1  0.57913085  0.35647583  0.50272656  1
  P  P15  1  0.57913085  0.35647583  0.99727344  1
  O  O0  1  0.98515640  0.16852018  0.67201429  1
  O  O1  1  0.01484360  0.66852018  0.82798571  1
  O  O2  1  0.12153179  0.95104909  0.82721677  1
  O  O3  1  0.01484360  0.83147982  0.32798571  1
  O  O4  1  0.19730023  0.93460097  0.00291056  1
  O  O5  1  0.98515640  0.33147982  0.32798571  1
  O  O6  1  0.87846821  0.45104909  0.67278323  1
  O  O7  1  0.19730023  0.93460097  0.49708944  1
  O  O8  1  0.26739950  0.75000000  0.50000000  1
  O  O9  1  0.44107388  0.79340157  0.25000000  1
  O  O10  1  0.87846821  0.45104909  0.82721677  1
  O  O11  1  0.73260050  0.25000000  0.50000000  1
  O  O12  1  0.41667457  0.13773832  0.07947260  1
  O  O13  1  0.87846821  0.04895091  0.17278323  1
  O  O14  1  0.44107388  0.70659843  0.75000000  1
  O  O15  1  0.74371154  0.03431222  0.75000000  1
  O  O16  1  0.12153179  0.54895091  0.32721677  1
  O  O17  1  0.12153179  0.95104909  0.67278323  1
  O  O18  1  0.59838191  0.85945252  0.07376072  1
  O  O19  1  0.12153179  0.54895091  0.17278323  1
  O  O20  1  0.01484360  0.66852018  0.67201429  1
  O  O21  1  0.98515640  0.16852018  0.82798571  1
  O  O22  1  0.59838191  0.64054748  0.92623928  1
  O  O23  1  0.80269977  0.06539903  0.50291056  1
  O  O24  1  0.40161809  0.35945252  0.07376072  1
  O  O25  1  0.73260050  0.25000000  0.00000000  1
  O  O26  1  0.41667457  0.13773832  0.42052740  1
  O  O27  1  0.41667457  0.36226168  0.57947260  1
  O  O28  1  0.59838191  0.85945252  0.42623928  1
  O  O29  1  0.55892612  0.29340157  0.25000000  1
  O  O30  1  0.80269977  0.43460097  0.00291056  1
  O  O31  1  0.19730023  0.56539903  0.50291056  1
  O  O32  1  0.58332543  0.86226168  0.57947260  1
  O  O33  1  0.40161809  0.35945252  0.42623928  1
  O  O34  1  0.25628846  0.53431222  0.75000000  1
  O  O35  1  0.80269977  0.43460097  0.49708944  1
  O  O36  1  0.40161809  0.14054748  0.57376072  1
  O  O37  1  0.58332543  0.63773832  0.42052740  1
  O  O38  1  0.58332543  0.63773832  0.07947260  1
  O  O39  1  0.21042818  0.34786280  0.75000000  1
  O  O40  1  0.55892612  0.20659843  0.75000000  1
  O  O41  1  0.98515640  0.33147982  0.17201429  1
  O  O42  1  0.78957182  0.84786280  0.75000000  1
  O  O43  1  0.26739950  0.75000000  0.00000000  1
  O  O44  1  0.01484360  0.83147982  0.17201429  1
  O  O45  1  0.87846821  0.04895091  0.32721677  1
  O  O46  1  0.40161809  0.14054748  0.92623928  1
  O  O47  1  0.58332543  0.86226168  0.92052740  1
  O  O48  1  0.19730023  0.56539903  0.99708944  1
  O  O49  1  0.78957182  0.65213720  0.25000000  1
  O  O50  1  0.25628846  0.96568778  0.25000000  1
  O  O51  1  0.21042818  0.15213720  0.25000000  1
  O  O52  1  0.74371154  0.46568778  0.25000000  1
  O  O53  1  0.41667457  0.36226168  0.92052740  1
  O  O54  1  0.80269977  0.06539903  0.99708944  1
  O  O55  1  0.59838191  0.64054748  0.57376072  1
loop_
_geom_bond_atom_site_label_1
_geom_bond_atom_site_label_2
_geom_bond_distance
_geom_bond_site_symmetry_2
O0 P6 1.526589 1_555
O0 Zn5 2.053819 1_655
O0 Zn9 2.224550 1_655
O1 P9 1.526589 1_555
O1 Zn6 2.053819 1_455
O1 Zn2 2.224550 1_455
O2 P11 1.501549 1_455
O2 Zn15 1.902756 1_565
O3 P0 1.526589 1_555
O3 Zn10 2.053819 1_455
O3 Zn7 2.224550 1_455
O4 P1 1.520991 1_554
O4 Zn8 1.997519 1_455
O4 Zn15 2.144054 1_564
O5 P2 1.526589 1_555
O5 Zn14 2.053819 1_655
O5 Zn12 2.224550 1_655
O6 P3 1.501549 1_655
O6 Zn4 1.902756 1_555
O7 P8 1.520991 1_555
O7 Zn7 1.997519 1_455
O7 Zn9 2.144054 1_565
O8 P12 1.608504 1_555
O8 P8 1.608504 1_555
O9 P0 1.519298 1_555
O9 Zn13 2.052516 1_555
O9 Zn10 2.052516 1_555
O10 P3 1.501549 1_655
O10 Zn2 1.902756 1_555
O11 P5 1.608504 1_555
O11 P14 1.608504 1_555
O12 P10 1.497543 1_555
O12 Zn11 1.942737 1_555
O13 P7 1.501549 1_655
O13 Zn8 1.902756 1_545
O14 P9 1.519298 1_555
O14 Zn0 2.052516 1_555
O14 Zn6 2.052516 1_555
O15 P6 1.589093 1_555
O15 P11 1.625683 1_545
O16 P13 1.501549 1_455
O16 Zn12 1.902756 1_555
O17 P11 1.501549 1_455
O17 Zn9 1.902756 1_565
O18 P1 1.533900 1_554
O18 Zn8 1.999838 1_555
O18 Zn13 2.107881 1_555
O19 P13 1.501549 1_455
O19 Zn3 1.902756 1_555
O20 P9 1.526589 1_555
O20 Zn0 2.053819 1_455
O20 Zn4 2.224550 1_455
O21 P6 1.526589 1_555
O21 Zn1 2.053819 1_655
O21 Zn15 2.224550 1_655
O22 P4 1.533900 1_556
O22 Zn2 1.999838 1_555
O22 Zn6 2.107881 1_555
O23 P5 1.520991 1_555
O23 Zn9 1.997519 1_655
O23 Zn7 2.144054 1_545
O24 P15 1.533900 1_554
O24 Zn3 1.999838 1_555
O24 Zn11 2.107881 1_555
O25 P10 1.608504 1_555
O25 P15 1.608504 1_554
O26 P5 1.497543 1_555
O26 Zn14 1.942737 1_555
O27 P14 1.497543 1_555
O27 Zn5 1.942737 1_555
O28 P8 1.533900 1_555
O28 Zn7 1.999838 1_555
O28 Zn10 2.107881 1_555
O29 P2 1.519298 1_555
O29 Zn14 2.052516 1_555
O29 Zn11 2.052516 1_555
O30 P15 1.520991 1_554
O30 Zn3 1.997519 1_655
O30 Zn2 2.144054 1_554
O31 P12 1.520991 1_555
O31 Zn4 1.997519 1_455
O31 Zn12 2.144054 1_555
O32 P8 1.497543 1_555
O32 Zn0 1.942737 1_555
O33 P14 1.533900 1_555
O33 Zn12 1.999838 1_555
O33 Zn14 2.107881 1_555
O34 P9 1.589093 1_555
O34 P3 1.625683 1_555
O35 P14 1.520991 1_555
O35 Zn12 1.997519 1_655
O35 Zn4 2.144054 1_555
O36 P5 1.533900 1_555
O36 Zn9 1.999838 1_555
O36 Zn5 2.107881 1_555
O37 P12 1.497543 1_555
O37 Zn10 1.942737 1_555
O38 P4 1.497543 1_555
O38 Zn13 1.942737 1_555
O39 P3 1.519898 1_555
O39 Zn5 2.023607 1_555
O39 Zn1 2.023607 1_555
O40 P6 1.519298 1_555
O40 Zn5 2.052516 1_555
O40 Zn1 2.052516 1_555
O41 P2 1.526589 1_555
O41 Zn11 2.053819 1_655
O41 Zn3 2.224550 1_655
O42 P11 1.519898 1_555
O42 Zn0 2.023607 1_555
O42 Zn6 2.023607 1_555
O43 P4 1.608504 1_555
O43 P1 1.608504 1_554
O44 P0 1.526589 1_555
O44 Zn13 2.053819 1_455
O44 Zn8 2.224550 1_455
O45 P7 1.501549 1_655
O45 Zn7 1.902756 1_545
O46 P10 1.533900 1_556
O46 Zn15 1.999838 1_555
O46 Zn1 2.107881 1_555
O47 P1 1.497543 1_555
O47 Zn6 1.942737 1_555
O48 P4 1.520991 1_556
O48 Zn2 1.997519 1_455
O48 Zn3 2.144054 1_556
O49 P13 1.519898 1_555
O49 Zn13 2.023607 1_555
O49 Zn10 2.023607 1_555
O50 P0 1.589093 1_555
O50 P7 1.625683 1_565
O51 P7 1.519898 1_555
O51 Zn14 2.023607 1_555
O51 Zn11 2.023607 1_555
O52 P2 1.589093 1_555
O52 P13 1.625683 1_555
O53 P15 1.497543 1_555
O53 Zn1 1.942737 1_555
O54 P10 1.520991 1_556
O54 Zn15 1.997519 1_655
O54 Zn8 2.144054 1_546
O55 P12 1.533900 1_555
O55 Zn4 1.999838 1_555
O55 Zn0 2.107881 1_555
