# generated using pymatgen
data_La3Ge3Cl2
_symmetry_space_group_name_H-M   'P 1'
_cell_length_a   4.32475461
_cell_length_b   9.33409564
_cell_length_c   10.78619251
_cell_angle_alpha   98.02770460
_cell_angle_beta   90.00000000
_cell_angle_gamma   103.39507281
_symmetry_Int_Tables_number   1
_chemical_formula_structural   La3Ge3Cl2
_chemical_formula_sum   'La6 Ge6 Cl4'
_cell_volume   419.18110263
_cell_formula_units_Z   2
loop_
 _symmetry_equiv_pos_site_id
 _symmetry_equiv_pos_as_xyz
  1  'x, y, z'
loop_
 _atom_site_type_symbol
 _atom_site_label
 _atom_site_symmetry_multiplicity
 _atom_site_fract_x
 _atom_site_fract_y
 _atom_site_fract_z
 _atom_site_occupancy
  La  La0  1  0.68265490  0.36530980  0.14793248  1
  La  La1  1  0.53310046  0.06619992  0.83138408  1
  La  La2  1  0.38298664  0.76597629  0.50889391  1
  La  La3  1  0.31734510  0.63469020  0.85206752  1
  La  La4  1  0.46689954  0.93380008  0.16861592  1
  La  La5  1  0.61701336  0.23402371  0.49110609  1
  Ge  Ge0  1  0.97640938  0.95281576  0.38361115  1
  Ge  Ge1  1  0.90494544  0.80989189  0.71848926  1
  Ge  Ge2  1  0.09505456  0.19010811  0.28151074  1
  Ge  Ge3  1  0.93059605  0.86119210  0.95486569  1
  Ge  Ge4  1  0.02359062  0.04718424  0.61638885  1
  Ge  Ge5  1  0.06940395  0.13880790  0.04513431  1
  Cl  Cl0  1  0.77357876  0.54715753  0.39256414  1
  Cl  Cl1  1  0.29795468  0.59591036  0.12726230  1
  Cl  Cl2  1  0.70204532  0.40408964  0.87273770  1
  Cl  Cl3  1  0.22642124  0.45284247  0.60743586  1
loop_
_geom_bond_atom_site_label_1
_geom_bond_atom_site_label_2
_geom_bond_distance
_geom_bond_site_symmetry_2
Ge0 Ge4 2.533886 1_665
Ge0 Ge2 2.556683 1_665
Ge0 La4 3.157270 1_655
Ge0 La4 3.157282 1_555
Ge0 La2 3.168336 1_655
Ge0 La2 3.168354 1_555
Ge0 La5 3.419083 1_565
Ge0 La5 3.419083 1_665
Ge1 Ge3 2.525166 1_555
Ge1 Ge4 2.556683 1_665
Ge1 La2 3.112388 1_655
Ge1 La2 3.112394 1_555
Ge1 La3 3.152889 1_555
Ge1 La3 3.152892 1_655
Ge1 La1 3.280458 1_565
Ge1 La1 3.280464 1_665
Ge2 Ge5 2.525166 1_555
Ge2 La5 3.112388 1_455
Ge2 La5 3.112394 1_555
Ge2 La0 3.152889 1_555
Ge2 La0 3.152892 1_455
Ge2 La4 3.280458 1_545
Ge2 La4 3.280464 1_445
Ge3 Ge5 2.568606 1_666
Ge3 La3 3.079039 1_655
Ge3 La3 3.079039 1_555
Ge3 La4 3.160645 1_656
Ge3 La4 3.160648 1_556
Ge3 La1 3.259888 1_565
Ge3 La1 3.259891 1_665
Ge4 La1 3.157270 1_455
Ge4 La1 3.157282 1_555
Ge4 La5 3.168336 1_455
Ge4 La5 3.168354 1_555
Ge4 La2 3.419083 1_545
Ge4 La2 3.419083 1_445
Ge5 La0 3.079039 1_455
Ge5 La0 3.079039 1_555
Ge5 La1 3.160645 1_454
Ge5 La1 3.160648 1_554
Ge5 La4 3.259888 1_545
Ge5 La4 3.259891 1_445
Cl0 La0 2.904821 1_555
Cl0 La2 3.079330 1_655
Cl0 La2 3.079339 1_555
Cl0 La5 3.175191 1_555
Cl1 La4 3.036322 1_555
Cl1 La3 3.038901 1_554
Cl1 La0 3.040394 1_455
Cl1 La0 3.040397 1_555
Cl2 La1 3.036322 1_555
Cl2 La0 3.038901 1_556
Cl2 La3 3.040394 1_655
Cl2 La3 3.040397 1_555
Cl3 La3 2.904821 1_555
Cl3 La5 3.079330 1_455
Cl3 La5 3.079339 1_555
Cl3 La2 3.175191 1_555
