# generated using pymatgen
data_ZnGaNO
_symmetry_space_group_name_H-M   'P 1'
_cell_length_a   6.53757163
_cell_length_b   6.53757163
_cell_length_c   10.55413900
_cell_angle_alpha   90.00000000
_cell_angle_beta   90.00000000
_cell_angle_gamma   119.99999622
_symmetry_Int_Tables_number   1
_chemical_formula_structural   ZnGaNO
_chemical_formula_sum   'Zn8 Ga8 N8 O8'
_cell_volume   390.64869518
_cell_formula_units_Z   8
loop_
 _symmetry_equiv_pos_site_id
 _symmetry_equiv_pos_as_xyz
  1  'x, y, z'
loop_
 _atom_site_type_symbol
 _atom_site_label
 _atom_site_symmetry_multiplicity
 _atom_site_fract_x
 _atom_site_fract_y
 _atom_site_fract_z
 _atom_site_occupancy
  Zn  Zn0  1  0.00000000  0.00000000  0.99651100  1
  Zn  Zn1  1  0.16069800  0.32139700  0.73763700  1
  Zn  Zn2  1  0.16069800  0.83930200  0.73763700  1
  Zn  Zn3  1  0.00824000  0.50412000  0.49017600  1
  Zn  Zn4  1  0.67860300  0.83930200  0.73763700  1
  Zn  Zn5  1  0.49588000  0.99176000  0.49017600  1
  Zn  Zn6  1  0.66666700  0.33333300  0.25513100  1
  Zn  Zn7  1  0.49588000  0.50412000  0.49017600  1
  Ga  Ga0  1  0.66666700  0.33333300  0.74921300  1
  Ga  Ga1  1  0.50244900  0.00489800  0.00733800  1
  Ga  Ga2  1  0.99510200  0.49755100  0.00733800  1
  Ga  Ga3  1  0.17275000  0.34550000  0.25618500  1
  Ga  Ga4  1  0.00000000  0.00000000  0.49579100  1
  Ga  Ga5  1  0.65450000  0.82725000  0.25618500  1
  Ga  Ga6  1  0.17275000  0.82725000  0.25618500  1
  Ga  Ga7  1  0.50244900  0.49755100  0.00733800  1
  N  N0  1  0.00000000  0.00000000  0.68199400  1
  N  N1  1  0.16134300  0.83865700  0.43516700  1
  N  N2  1  0.16134300  0.32268500  0.43516700  1
  N  N3  1  0.49629400  0.50370600  0.18646000  1
  N  N4  1  0.67731500  0.83865700  0.43516700  1
  N  N5  1  0.66666700  0.33333300  0.93747500  1
  N  N6  1  0.00741200  0.50370600  0.18646000  1
  N  N7  1  0.49629400  0.99258800  0.18646000  1
  O  O0  1  0.50673000  0.49327000  0.69822200  1
  O  O1  1  0.17421700  0.82578300  0.94389300  1
  O  O2  1  0.66666700  0.33333300  0.44637900  1
  O  O3  1  0.00000000  0.00000000  0.18825400  1
  O  O4  1  0.50673000  0.01346000  0.69822200  1
  O  O5  1  0.65156600  0.82578300  0.94389300  1
  O  O6  1  0.17421700  0.34843400  0.94389300  1
  O  O7  1  0.98654000  0.49327000  0.69822200  1
loop_
_geom_bond_atom_site_label_1
_geom_bond_atom_site_label_2
_geom_bond_distance
_geom_bond_site_symmetry_2
Ga0 O7 1.889296 1_555
Ga0 O4 1.889296 1_555
Ga0 O0 1.889301 1_555
Ga0 N5 1.986943 1_555
Ga1 N7 1.891763 1_545
Ga1 O5 1.977742 1_544
Ga1 O1 1.977742 1_544
Ga1 N5 2.000355 1_554
Ga2 N6 1.891763 1_655
Ga2 O6 1.977742 1_654
Ga2 O1 1.977742 1_654
Ga2 N5 2.000355 1_554
Ga3 N2 1.893412 1_555
Ga3 N6 1.974234 1_555
Ga3 N3 1.974235 1_555
Ga3 O3 2.083368 1_555
Ga4 N2 1.935748 1_555
Ga4 N4 1.935748 1_445
Ga4 N1 1.935754 1_545
Ga4 N0 1.965212 1_555
Ga5 N4 1.893412 1_555
Ga5 N7 1.974234 1_555
Ga5 N3 1.974235 1_555
Ga5 O3 2.083368 1_665
Ga6 N1 1.893412 1_555
Ga6 N6 1.974235 1_555
Ga6 N7 1.974235 1_555
Ga6 O3 2.083368 1_565
Ga7 N3 1.891763 1_555
Ga7 O6 1.977742 1_554
Ga7 O5 1.977742 1_554
Ga7 N5 2.000361 1_554
N0 Zn2 1.912067 1_545
N0 Zn1 1.912073 1_555
N0 Zn4 1.912073 1_445
N1 Zn3 1.983195 1_555
N1 Zn5 1.983195 1_555
N2 Zn7 1.983196 1_555
N2 Zn3 1.983201 1_555
N3 Zn6 2.060850 1_555
N4 Zn7 1.983196 1_555
N4 Zn5 1.983201 1_555
N6 Zn6 2.060845 1_455
N7 Zn6 2.060845 1_565
O0 Zn1 2.002822 1_555
O0 Zn4 2.002822 1_555
O0 Zn7 2.199181 1_555
O1 Zn0 2.049405 1_565
O1 Zn2 2.182230 1_555
O2 Zn5 1.988360 1_545
O2 Zn3 1.988360 1_655
O2 Zn7 1.988366 1_555
O2 Zn6 2.018458 1_555
O3 Zn0 2.023682 1_554
O4 Zn4 2.002817 1_545
O4 Zn2 2.002822 1_545
O4 Zn5 2.199181 1_545
O5 Zn0 2.049406 1_665
O5 Zn4 2.182230 1_555
O6 Zn0 2.049406 1_555
O6 Zn1 2.182230 1_555
O7 Zn1 2.002817 1_655
O7 Zn2 2.002822 1_655
O7 Zn3 2.199181 1_655
