# generated using pymatgen
data_SrLi3MnN3
_symmetry_space_group_name_H-M   'P 1'
_cell_length_a   7.22823716
_cell_length_b   7.22823716
_cell_length_c   7.22823703
_cell_angle_alpha   47.90653382
_cell_angle_beta   47.90653382
_cell_angle_gamma   47.90653446
_symmetry_Int_Tables_number   1
_chemical_formula_structural   SrLi3MnN3
_chemical_formula_sum   'Sr2 Li6 Mn2 N6'
_cell_volume   190.47245777
_cell_formula_units_Z   2
loop_
 _symmetry_equiv_pos_site_id
 _symmetry_equiv_pos_as_xyz
  1  'x, y, z'
loop_
 _atom_site_type_symbol
 _atom_site_label
 _atom_site_symmetry_multiplicity
 _atom_site_fract_x
 _atom_site_fract_y
 _atom_site_fract_z
 _atom_site_occupancy
  Sr  Sr0  1  0.33756400  0.33756400  0.33756400  1
  Sr  Sr1  1  0.66243600  0.66243600  0.66243600  1
  Li  Li0  1  0.47666900  0.23603700  0.89533800  1
  Li  Li1  1  0.89533800  0.47666900  0.23603700  1
  Li  Li2  1  0.76396300  0.10466200  0.52333100  1
  Li  Li3  1  0.23603700  0.89533800  0.47666900  1
  Li  Li4  1  0.10466200  0.52333100  0.76396300  1
  Li  Li5  1  0.52333100  0.76396300  0.10466200  1
  Mn  Mn0  1  0.06698300  0.06698300  0.06698300  1
  Mn  Mn1  1  0.93301700  0.93301700  0.93301700  1
  N  N0  1  0.62009600  0.90508600  0.20538600  1
  N  N1  1  0.79461400  0.37990400  0.09491400  1
  N  N2  1  0.37990400  0.09491400  0.79461400  1
  N  N3  1  0.09491400  0.79461400  0.37990400  1
  N  N4  1  0.20538600  0.62009600  0.90508600  1
  N  N5  1  0.90508600  0.20538600  0.62009600  1
loop_
_geom_bond_atom_site_label_1
_geom_bond_atom_site_label_2
_geom_bond_distance
_geom_bond_site_symmetry_2
Li0 N4 2.082191 1_555
Li0 N0 2.102928 1_546
Li0 N2 2.166744 1_555
Li0 N5 2.237873 1_555
Li1 N5 2.082191 1_555
Li1 N4 2.102928 1_654
Li1 N1 2.166744 1_555
Li1 N0 2.237873 1_555
Li2 N2 2.082191 1_555
Li2 N3 2.102928 1_645
Li2 N5 2.166744 1_555
Li2 N1 2.237873 1_555
Li3 N0 2.082191 1_555
Li3 N5 2.102928 1_465
Li3 N3 2.166744 1_555
Li3 N4 2.237873 1_555
Li4 N3 2.082191 1_555
Li4 N1 2.102928 1_456
Li4 N4 2.166744 1_555
Li4 N2 2.237873 1_555
Li5 N1 2.082191 1_555
Li5 N2 2.102928 1_564
Li5 N0 2.166744 1_555
Li5 N3 2.237873 1_555
Mn0 N3 1.772564 1_545
Mn0 N2 1.772564 1_554
Mn0 N1 1.772564 1_455
Mn1 N5 1.772564 1_565
Mn1 N0 1.772564 1_556
Mn1 N4 1.772564 1_655
N0 Sr1 2.636579 1_555
N0 Sr0 2.772174 1_565
N1 Sr0 2.636579 1_555
N1 Sr1 2.772174 1_554
N2 Sr0 2.636579 1_555
N2 Sr1 2.772174 1_545
N3 Sr0 2.636579 1_555
N3 Sr1 2.772174 1_455
N4 Sr1 2.636579 1_555
N4 Sr0 2.772174 1_556
N5 Sr1 2.636579 1_555
N5 Sr0 2.772174 1_655
