# generated using pymatgen
data_Y2Ge5Ir3
_symmetry_space_group_name_H-M   'P 1'
_cell_length_a   8.33126800
_cell_length_b   8.32903909
_cell_length_c   8.32868465
_cell_angle_alpha   137.71776459
_cell_angle_beta   104.39360842
_cell_angle_gamma   90.68426441
_symmetry_Int_Tables_number   1
_chemical_formula_structural   Y2Ge5Ir3
_chemical_formula_sum   'Y4 Ge10 Ir6'
_cell_volume   359.21115663
_cell_formula_units_Z   2
loop_
 _symmetry_equiv_pos_site_id
 _symmetry_equiv_pos_as_xyz
  1  'x, y, z'
loop_
 _atom_site_type_symbol
 _atom_site_label
 _atom_site_symmetry_multiplicity
 _atom_site_fract_x
 _atom_site_fract_y
 _atom_site_fract_z
 _atom_site_occupancy
  Y  Y0  1  0.64108775  0.36594738  0.27484573  1
  Y  Y1  1  0.35891222  0.63405213  0.72515370  1
  Y  Y2  1  0.90890316  0.13377521  0.77485554  1
  Y  Y3  1  0.09109751  0.86622614  0.22514619  1
  Ge  Ge0  1  0.43728795  0.09861018  0.33883405  1
  Ge  Ge1  1  0.56271117  0.90138984  0.66116497  1
  Ge  Ge2  1  0.24015089  0.40132638  0.83859861  1
  Ge  Ge3  1  0.75984951  0.59867388  0.16140167  1
  Ge  Ge4  1  0.27639749  0.52642425  0.25025287  1
  Ge  Ge5  1  0.72364514  0.97342823  0.24993665  1
  Ge  Ge6  1  0.72360208  0.47357517  0.74974660  1
  Ge  Ge7  1  0.27635481  0.02657214  0.75006374  1
  Ge  Ge8  1  0.00012293  0.25008357  0.25012174  1
  Ge  Ge9  1  0.99987679  0.74991660  0.74987850  1
  Ir  Ir0  1  0.25389082  0.14196265  0.11170312  1
  Ir  Ir1  1  0.74610942  0.85803751  0.88829761  1
  Ir  Ir2  1  0.96968014  0.35795661  0.61178006  1
  Ir  Ir3  1  0.03031915  0.64204359  0.38821990  1
  Ir  Ir4  1  0.49994507  0.25008379  0.75001561  1
  Ir  Ir5  1  0.50005401  0.74991576  0.24998414  1
loop_
_geom_bond_atom_site_label_1
_geom_bond_atom_site_label_2
_geom_bond_distance
_geom_bond_site_symmetry_2
Ge0 Ir0 2.372844 1_555
Ge0 Ir4 2.508890 1_555
Ge0 Ir5 2.510877 1_545
Ge0 Ge6 2.665392 1_555
Ge0 Ge5 2.668759 1_545
Ge0 Y3 2.959496 1_545
Ge0 Y0 3.200065 1_555
Ge0 Y1 3.246403 1_544
Ge0 Y1 3.248028 1_555
Ge1 Ir1 2.372858 1_555
Ge1 Ir5 2.508882 1_555
Ge1 Ir4 2.510871 1_565
Ge1 Ge4 2.665391 1_555
Ge1 Ge7 2.668755 1_565
Ge1 Y2 2.959503 1_565
Ge1 Y1 3.200068 1_555
Ge1 Y0 3.246403 1_566
Ge1 Y0 3.248034 1_555
Ge2 Ir2 2.373041 1_455
Ge2 Ir5 2.509886 1_556
Ge2 Ir4 2.509920 1_555
Ge2 Ge7 2.665502 1_555
Ge2 Ge4 2.668995 1_556
Ge2 Y1 2.959392 1_555
Ge2 Y2 3.199683 1_455
Ge2 Y3 3.244919 1_545
Ge2 Y3 3.249156 1_556
Ge3 Ir3 2.373033 1_655
Ge3 Ir4 2.509893 1_554
Ge3 Ir5 2.509928 1_555
Ge3 Ge5 2.665503 1_555
Ge3 Ge6 2.668996 1_554
Ge3 Y0 2.959393 1_555
Ge3 Y3 3.199683 1_655
Ge3 Y2 3.244926 1_565
Ge3 Y2 3.249151 1_554
Ge4 Ir0 2.455863 1_555
Ge4 Ir3 2.455984 1_555
Ge4 Ir5 2.619640 1_555
Ge4 Y1 3.210541 1_555
Ge4 Y2 3.212517 1_454
Ge4 Y0 3.354499 1_555
Ge4 Y3 3.355104 1_555
Ge5 Ir2 2.455922 1_565
Ge5 Ir1 2.455997 1_554
Ge5 Ir5 2.618083 1_555
Ge5 Y3 3.212236 1_655
Ge5 Y0 3.213339 1_565
Ge5 Y2 3.351969 1_565
Ge5 Y1 3.352318 1_554
Ge6 Ir1 2.455863 1_555
Ge6 Ir2 2.455980 1_555
Ge6 Ir4 2.619643 1_555
Ge6 Y0 3.210542 1_555
Ge6 Y3 3.212529 1_656
Ge6 Y1 3.354496 1_555
Ge6 Y2 3.355104 1_555
Ge7 Ir3 2.455926 1_545
Ge7 Ir0 2.456000 1_556
Ge7 Ir4 2.618077 1_555
Ge7 Y2 3.212233 1_455
Ge7 Y1 3.213341 1_545
Ge7 Y3 3.351963 1_545
Ge7 Y0 3.352315 1_556
Ge8 Ir3 2.514872 1_555
Ge8 Ir2 2.515016 1_455
Ge8 Ir1 2.515232 1_444
Ge8 Ir0 2.516140 1_555
Ge8 Y1 3.160027 1_555
Ge8 Y3 3.160978 1_545
Ge8 Y2 3.161858 1_454
Ge8 Y0 3.162628 1_455
Ge9 Ir2 2.514870 1_555
Ge9 Ir3 2.515017 1_655
Ge9 Ir0 2.515234 1_666
Ge9 Ir1 2.516138 1_555
Ge9 Y0 3.160028 1_555
Ge9 Y2 3.160978 1_565
Ge9 Y3 3.161863 1_656
Ge9 Y1 3.162632 1_655
Ir0 Y0 3.107890 1_555
Ir0 Y1 3.219162 1_544
Ir0 Y1 3.220975 1_555
Ir0 Y3 3.432219 1_545
Ir0 Y2 3.440893 1_454
Ir1 Y1 3.107890 1_555
Ir1 Y0 3.219159 1_566
Ir1 Y0 3.220982 1_555
Ir1 Y2 3.432222 1_565
Ir1 Y3 3.440895 1_656
Ir2 Y2 3.107972 1_555
Ir2 Y3 3.220308 1_656
Ir2 Y3 3.220316 1_645
Ir2 Y1 3.432509 1_655
Ir2 Y0 3.440213 1_555
Ir3 Y3 3.107970 1_555
Ir3 Y2 3.220300 1_454
Ir3 Y2 3.220317 1_465
Ir3 Y0 3.432505 1_455
Ir3 Y1 3.440217 1_555
Ir4 Y3 3.548312 1_545
Ir4 Y0 3.549178 1_556
Ir4 Y1 3.549632 1_555
Ir4 Y2 3.551732 1_555
Ir5 Y2 3.548325 1_565
Ir5 Y1 3.549181 1_554
Ir5 Y0 3.549633 1_555
Ir5 Y3 3.551724 1_555
