# generated using pymatgen
data_U5Re5Si9
_symmetry_space_group_name_H-M   'P 1'
_cell_length_a   16.28337713
_cell_length_b   16.28337713
_cell_length_c   5.63054400
_cell_angle_alpha   90.00000000
_cell_angle_beta   90.00000000
_cell_angle_gamma   119.99999646
_symmetry_Int_Tables_number   1
_chemical_formula_structural   U5Re5Si9
_chemical_formula_sum   'U20 Re20 Si36'
_cell_volume   1292.91497781
_cell_formula_units_Z   4
loop_
 _symmetry_equiv_pos_site_id
 _symmetry_equiv_pos_as_xyz
  1  'x, y, z'
loop_
 _atom_site_type_symbol
 _atom_site_label
 _atom_site_symmetry_multiplicity
 _atom_site_fract_x
 _atom_site_fract_y
 _atom_site_fract_z
 _atom_site_occupancy
  U  U0  1  0.33333300  0.66666700  0.75000000  1
  U  U1  1  0.66666700  0.33333300  0.25000000  1
  U  U2  1  0.83941800  0.52710400  0.75000000  1
  U  U3  1  0.31231400  0.83941800  0.25000000  1
  U  U4  1  0.52710400  0.68768600  0.25000000  1
  U  U5  1  0.47289600  0.31231400  0.75000000  1
  U  U6  1  0.68768600  0.16058200  0.75000000  1
  U  U7  1  0.16058200  0.47289600  0.25000000  1
  U  U8  1  0.68482700  0.65080300  0.75000000  1
  U  U9  1  0.03402400  0.68482700  0.25000000  1
  U  U10  1  0.65080300  0.96597600  0.25000000  1
  U  U11  1  0.34919700  0.03402400  0.75000000  1
  U  U12  1  0.96597600  0.31517300  0.75000000  1
  U  U13  1  0.31517300  0.34919700  0.25000000  1
  U  U14  1  0.99302200  0.11808700  0.75000000  1
  U  U15  1  0.87493500  0.99302200  0.25000000  1
  U  U16  1  0.11808700  0.12506500  0.25000000  1
  U  U17  1  0.88191300  0.87493500  0.75000000  1
  U  U18  1  0.12506500  0.00697800  0.75000000  1
  U  U19  1  0.00697800  0.88191300  0.25000000  1
  Re  Re0  1  0.57632000  0.79470100  0.75000000  1
  Re  Re1  1  0.78161900  0.57632000  0.25000000  1
  Re  Re2  1  0.79470100  0.21838100  0.25000000  1
  Re  Re3  1  0.20529900  0.78161900  0.75000000  1
  Re  Re4  1  0.21838100  0.42368000  0.75000000  1
  Re  Re5  1  0.42368000  0.20529900  0.25000000  1
  Re  Re6  1  0.76163900  0.97123000  0.75000000  1
  Re  Re7  1  0.79040900  0.76163900  0.25000000  1
  Re  Re8  1  0.97123000  0.20959100  0.25000000  1
  Re  Re9  1  0.02877000  0.79040900  0.75000000  1
  Re  Re10  1  0.20959100  0.23836100  0.75000000  1
  Re  Re11  1  0.23836100  0.02877000  0.25000000  1
  Re  Re12  1  0.50000000  0.00000000  0.00000000  1
  Re  Re13  1  0.50000000  0.50000000  0.50000000  1
  Re  Re14  1  0.00000000  0.50000000  0.50000000  1
  Re  Re15  1  0.00000000  0.50000000  0.00000000  1
  Re  Re16  1  0.50000000  0.50000000  0.00000000  1
  Re  Re17  1  0.50000000  0.00000000  0.50000000  1
  Re  Re18  1  0.66666700  0.33333300  0.75000000  1
  Re  Re19  1  0.33333300  0.66666700  0.25000000  1
  Si  Si0  1  0.12316300  0.29068800  0.02782900  1
  Si  Si1  1  0.83247500  0.12316300  0.52782900  1
  Si  Si2  1  0.29068800  0.16752500  0.52782900  1
  Si  Si3  1  0.70931200  0.83247500  0.02782900  1
  Si  Si4  1  0.16752500  0.87683700  0.02782900  1
  Si  Si5  1  0.87683700  0.70931200  0.52782900  1
  Si  Si6  1  0.87683700  0.70931200  0.97217100  1
  Si  Si7  1  0.16752500  0.87683700  0.47217100  1
  Si  Si8  1  0.70931200  0.83247500  0.47217100  1
  Si  Si9  1  0.29068800  0.16752500  0.97217100  1
  Si  Si10  1  0.83247500  0.12316300  0.97217100  1
  Si  Si11  1  0.12316300  0.29068800  0.47217100  1
  Si  Si12  1  0.17793100  0.64949900  0.03094100  1
  Si  Si13  1  0.52843200  0.17793100  0.53094100  1
  Si  Si14  1  0.64949900  0.47156800  0.53094100  1
  Si  Si15  1  0.35050100  0.52843200  0.03094100  1
  Si  Si16  1  0.47156800  0.82206900  0.03094100  1
  Si  Si17  1  0.82206900  0.35050100  0.53094100  1
  Si  Si18  1  0.82206900  0.35050100  0.96905900  1
  Si  Si19  1  0.47156800  0.82206900  0.46905900  1
  Si  Si20  1  0.35050100  0.52843200  0.46905900  1
  Si  Si21  1  0.64949900  0.47156800  0.96905900  1
  Si  Si22  1  0.52843200  0.17793100  0.96905900  1
  Si  Si23  1  0.17793100  0.64949900  0.46905900  1
  Si  Si24  1  0.37700100  0.86669300  0.75000000  1
  Si  Si25  1  0.51030800  0.37700100  0.25000000  1
  Si  Si26  1  0.86669300  0.48969200  0.25000000  1
  Si  Si27  1  0.13330700  0.51030800  0.75000000  1
  Si  Si28  1  0.48969200  0.62299900  0.75000000  1
  Si  Si29  1  0.62299900  0.13330700  0.25000000  1
  Si  Si30  1  0.04181300  0.64348000  0.75000000  1
  Si  Si31  1  0.39833300  0.04181300  0.25000000  1
  Si  Si32  1  0.64348000  0.60166700  0.25000000  1
  Si  Si33  1  0.35652000  0.39833300  0.75000000  1
  Si  Si34  1  0.60166700  0.95818700  0.75000000  1
  Si  Si35  1  0.95818700  0.35652000  0.25000000  1
loop_
_geom_bond_atom_site_label_1
_geom_bond_atom_site_label_2
_geom_bond_distance
_geom_bond_site_symmetry_2
Re0 Si28 2.421344 1_555
Re0 Si34 2.481614 1_555
Re0 Si8 2.486582 1_555
Re0 Si3 2.486582 1_556
Re0 Si19 2.523977 1_555
Re0 Si16 2.523977 1_556
Re0 Re6 2.948660 1_555
Re0 U4 3.195003 1_555
Re0 U4 3.195003 1_556
Re1 Si26 2.421343 1_555
Re1 Si32 2.481614 1_555
Re1 Si6 2.486583 1_554
Re1 Si5 2.486583 1_555
Re1 Si14 2.523977 1_555
Re1 Si21 2.523977 1_554
Re1 Re7 2.948660 1_555
Re1 U2 3.195002 1_554
Re1 U2 3.195002 1_555
Re2 Si29 2.421344 1_555
Re2 Si35 2.481614 1_555
Re2 Si10 2.486582 1_554
Re2 Si1 2.486582 1_555
Re2 Si17 2.523977 1_555
Re2 Si18 2.523977 1_554
Re2 Re8 2.948660 1_555
Re2 U6 3.195003 1_555
Re2 U6 3.195003 1_554
Re3 Si24 2.421344 1_555
Re3 Si30 2.481614 1_555
Re3 Si7 2.486582 1_555
Re3 Si4 2.486582 1_556
Re3 Si23 2.523977 1_555
Re3 Si12 2.523977 1_556
Re3 Re9 2.948660 1_555
Re3 U3 3.195003 1_556
Re3 U3 3.195003 1_555
Re4 Si27 2.421343 1_555
Re4 Si33 2.481614 1_555
Re4 Si11 2.486583 1_555
Re4 Si0 2.486583 1_556
Re4 Si20 2.523977 1_555
Re4 Si15 2.523977 1_556
Re4 U7 3.195002 1_555
Re4 U7 3.195002 1_556
Re5 Si25 2.421344 1_555
Re5 Si31 2.481614 1_555
Re5 Si9 2.486582 1_554
Re5 Si2 2.486582 1_555
Re5 Si22 2.523977 1_554
Re5 Si13 2.523977 1_555
Re5 U5 3.195003 1_554
Re5 U5 3.195003 1_555
Re6 Si10 2.482394 1_565
Re6 Si1 2.482394 1_565
Re6 Si34 2.505453 1_555
Re6 Si8 2.520491 1_555
Re6 Si3 2.520491 1_556
Re6 U17 3.060250 1_555
Re6 U15 3.286408 1_555
Re6 U15 3.286408 1_556
Re6 U14 3.302149 1_565
Re6 U10 3.322035 1_555
Re6 U10 3.322035 1_556
Re7 Si8 2.482394 1_555
Re7 Si3 2.482394 1_555
Re7 Si32 2.505453 1_555
Re7 Si5 2.520491 1_555
Re7 Si6 2.520491 1_554
Re7 U19 3.060251 1_655
Re7 U17 3.286408 1_554
Re7 U17 3.286408 1_555
Re7 U15 3.302149 1_555
Re7 U8 3.322035 1_555
Re7 U8 3.322035 1_554
Re8 Si11 2.482394 1_655
Re8 Si0 2.482394 1_655
Re8 Si35 2.505453 1_555
Re8 Si10 2.520491 1_554
Re8 Si1 2.520491 1_555
Re8 U15 3.060250 1_545
Re8 U14 3.286408 1_555
Re8 U14 3.286408 1_554
Re8 U16 3.302149 1_655
Re8 U12 3.322035 1_554
Re8 U12 3.322035 1_555
Re9 Si5 2.482394 1_455
Re9 Si6 2.482394 1_455
Re9 Si30 2.505453 1_555
Re9 Si7 2.520491 1_555
Re9 Si4 2.520491 1_556
Re9 U18 3.060250 1_565
Re9 U19 3.286408 1_555
Re9 U19 3.286408 1_556
Re9 U17 3.302149 1_455
Re9 U9 3.322035 1_556
Re9 U9 3.322035 1_555
Re10 Si2 2.482394 1_555
Re10 Si9 2.482394 1_555
Re10 Si33 2.505453 1_555
Re10 Si11 2.520491 1_555
Re10 Si0 2.520491 1_556
Re10 Re4 2.948660 1_555
Re10 U14 3.060251 1_455
Re10 U16 3.286408 1_555
Re10 U16 3.286408 1_556
Re10 U18 3.302149 1_555
Re10 U13 3.322035 1_555
Re10 U13 3.322035 1_556
Re11 Si7 2.482394 1_545
Re11 Si4 2.482394 1_545
Re11 Si31 2.505453 1_555
Re11 Si9 2.520491 1_554
Re11 Si2 2.520491 1_555
Re11 Re5 2.948660 1_555
Re11 U16 3.060250 1_555
Re11 U18 3.286408 1_555
Re11 U18 3.286408 1_554
Re11 U19 3.302149 1_545
Re11 U11 3.322035 1_555
Re11 U11 3.322035 1_554
Re12 Si34 2.512523 1_544
Re12 Si31 2.512523 1_555
Re12 Si29 2.521339 1_555
Re12 Si24 2.521339 1_544
Re12 Si16 2.701439 1_545
Re12 Si22 2.701439 1_554
Re12 Re17 2.815272 1_555
Re12 Re17 2.815272 1_554
Re12 U11 3.111064 1_554
Re12 U10 3.111064 1_545
Re12 U6 3.188656 1_554
Re12 U3 3.188656 1_545
Re13 Si33 2.512523 1_555
Re13 Si32 2.512523 1_555
Re13 Si28 2.521339 1_555
Re13 Si25 2.521339 1_555
Re13 Si20 2.701439 1_555
Re13 Si14 2.701439 1_555
Re13 Re16 2.815272 1_555
Re13 Re16 2.815272 1_556
Re13 U8 3.111065 1_555
Re13 U13 3.111065 1_555
Re13 U4 3.188656 1_555
Re13 U5 3.188656 1_555
Re14 Si35 2.512523 1_455
Re14 Si30 2.512523 1_555
Re14 Si26 2.521339 1_455
Re14 Si27 2.521339 1_555
Re14 Si17 2.701439 1_455
Re14 Si23 2.701439 1_555
Re14 Re15 2.815272 1_556
Re14 Re15 2.815272 1_555
Re14 U9 3.111065 1_555
Re14 U12 3.111065 1_455
Re14 U7 3.188656 1_555
Re14 U2 3.188656 1_455
Re15 Si35 2.512523 1_455
Re15 Si30 2.512523 1_554
Re15 Si26 2.521339 1_455
Re15 Si27 2.521339 1_554
Re15 Si18 2.701439 1_454
Re15 Si12 2.701439 1_555
Re15 U9 3.111065 1_555
Re15 U12 3.111065 1_454
Re15 U2 3.188656 1_454
Re15 U7 3.188656 1_555
Re16 Si33 2.512523 1_554
Re16 Si32 2.512523 1_555
Re16 Si28 2.521339 1_554
Re16 Si25 2.521339 1_555
Re16 Si15 2.701439 1_555
Re16 Si21 2.701439 1_554
Re16 U8 3.111065 1_554
Re16 U13 3.111065 1_555
Re16 U5 3.188656 1_554
Re16 U4 3.188656 1_555
Re17 Si34 2.512523 1_545
Re17 Si31 2.512523 1_555
Re17 Si29 2.521339 1_555
Re17 Si24 2.521339 1_545
Re17 Si19 2.701439 1_545
Re17 Si13 2.701439 1_555
Re17 U11 3.111064 1_555
Re17 U10 3.111064 1_545
Re17 U6 3.188656 1_555
Re17 U3 3.188656 1_545
Re18 Si17 2.700991 1_555
Re18 Si18 2.700991 1_555
Re18 Si13 2.700997 1_555
Re18 Si22 2.700997 1_555
Re18 Si14 2.701006 1_555
Re18 Si21 2.701006 1_555
Re18 U1 2.815272 1_556
Re18 U1 2.815272 1_555
Re18 U6 2.998784 1_555
Re18 U2 2.998794 1_555
Re18 U5 2.998801 1_555
Re19 Si23 2.700991 1_555
Re19 Si12 2.700991 1_555
Re19 Si19 2.700997 1_555
Re19 Si16 2.700997 1_555
Re19 Si20 2.701006 1_555
Re19 Si15 2.701006 1_555
Re19 U0 2.815272 1_554
Re19 U0 2.815272 1_555
Re19 U3 2.998784 1_555
Re19 U7 2.998794 1_555
Re19 U4 2.998801 1_555
Si0 Si11 2.501887 1_555
Si0 U16 2.936334 1_555
Si0 U14 2.980106 1_454
Si0 U7 2.988509 1_555
Si0 U13 3.044541 1_555
Si0 U12 3.190264 1_454
Si1 Si10 2.501887 1_555
Si1 U14 2.936334 1_555
Si1 U15 2.980106 1_545
Si1 U6 2.988509 1_555
Si1 U12 3.044541 1_555
Si1 U10 3.190265 1_545
Si2 Si9 2.501887 1_555
Si2 U18 2.936335 1_555
Si2 U16 2.980106 1_555
Si2 U5 2.988509 1_555
Si2 U11 3.044541 1_555
Si2 U13 3.190264 1_555
Si3 Si8 2.501887 1_555
Si3 U15 2.936335 1_555
Si3 U17 2.980106 1_554
Si3 U4 2.988509 1_555
Si3 U10 3.044541 1_555
Si3 U8 3.190264 1_554
Si4 Si7 2.501887 1_555
Si4 U19 2.936334 1_555
Si4 U18 2.980106 1_564
Si4 U3 2.988509 1_555
Si4 U9 3.044541 1_555
Si4 U11 3.190265 1_564
Si5 Si6 2.501887 1_555
Si5 U17 2.936334 1_555
Si5 U19 2.980106 1_655
Si5 U2 2.988509 1_555
Si5 U8 3.044541 1_555
Si5 U9 3.190264 1_655
Si6 U17 2.936334 1_555
Si6 U19 2.980106 1_656
Si6 U2 2.988509 1_555
Si6 U8 3.044541 1_555
Si6 U9 3.190264 1_656
Si7 U19 2.936334 1_555
Si7 U18 2.980106 1_565
Si7 U3 2.988509 1_555
Si7 U9 3.044541 1_555
Si7 U11 3.190265 1_565
Si8 U15 2.936335 1_555
Si8 U17 2.980106 1_555
Si8 U4 2.988509 1_555
Si8 U10 3.044541 1_555
Si8 U8 3.190264 1_555
Si9 U18 2.936335 1_555
Si9 U16 2.980106 1_556
Si9 U5 2.988509 1_555
Si9 U11 3.044541 1_555
Si9 U13 3.190264 1_556
Si10 U14 2.936334 1_555
Si10 U15 2.980106 1_546
Si10 U6 2.988509 1_555
Si10 U12 3.044541 1_555
Si10 U10 3.190265 1_546
Si11 U16 2.936334 1_555
Si11 U14 2.980106 1_455
Si11 U7 2.988509 1_555
Si11 U13 3.044541 1_555
Si11 U12 3.190264 1_455
Si12 Si23 2.466843 1_555
Si12 Si27 2.553499 1_554
Si12 Si30 2.684645 1_554
Si12 U0 2.876852 1_554
Si12 U9 2.948096 1_555
Si12 U7 3.009711 1_555
Si12 U3 3.017648 1_555
Si13 Si22 2.466843 1_555
Si13 Si29 2.553499 1_555
Si13 Si31 2.684646 1_555
Si13 U1 2.876857 1_555
Si13 U11 2.948096 1_555
Si13 U6 3.009711 1_555
Si13 U5 3.017648 1_555
Si14 Si21 2.466843 1_555
Si14 Si25 2.553499 1_555
Si14 Si32 2.684645 1_555
Si14 U1 2.876865 1_555
Si14 U8 2.948096 1_555
Si14 U5 3.009711 1_555
Si14 U2 3.017648 1_555
Si15 Si20 2.466843 1_555
Si15 Si28 2.553499 1_554
Si15 Si33 2.684645 1_554
Si15 U0 2.876865 1_554
Si15 U13 2.948096 1_555
Si15 U4 3.009711 1_555
Si15 U7 3.017648 1_555
Si16 Si19 2.466843 1_555
Si16 Si24 2.553499 1_554
Si16 Si34 2.684646 1_554
Si16 U0 2.876857 1_554
Si16 U10 2.948096 1_555
Si16 U3 3.009711 1_555
Si16 U4 3.017648 1_555
Si17 Si18 2.466843 1_555
Si17 Si26 2.553499 1_555
Si17 Si35 2.684645 1_555
Si17 U1 2.876852 1_555
Si17 U12 2.948096 1_555
Si17 U2 3.009711 1_555
Si17 U6 3.017648 1_555
Si18 Si26 2.553499 1_556
Si18 Si35 2.684645 1_556
Si18 U1 2.876852 1_556
Si18 U12 2.948096 1_555
Si18 U2 3.009711 1_555
Si18 U6 3.017648 1_555
Si19 Si24 2.553499 1_555
Si19 Si34 2.684646 1_555
Si19 U0 2.876857 1_555
Si19 U10 2.948096 1_555
Si19 U3 3.009711 1_555
Si19 U4 3.017648 1_555
Si20 Si28 2.553499 1_555
Si20 Si33 2.684645 1_555
Si20 U0 2.876865 1_555
Si20 U13 2.948096 1_555
Si20 U4 3.009711 1_555
Si20 U7 3.017648 1_555
Si21 Si25 2.553499 1_556
Si21 Si32 2.684645 1_556
Si21 U1 2.876865 1_556
Si21 U8 2.948096 1_555
Si21 U5 3.009711 1_555
Si21 U2 3.017648 1_555
Si22 Si29 2.553499 1_556
Si22 Si31 2.684646 1_556
Si22 U1 2.876857 1_556
Si22 U11 2.948096 1_555
Si22 U6 3.009711 1_555
Si22 U5 3.017648 1_555
Si23 Si27 2.553499 1_555
Si23 Si30 2.684645 1_555
Si23 U0 2.876852 1_555
Si23 U9 2.948096 1_555
Si23 U7 3.009711 1_555
Si23 U3 3.017648 1_555
Si24 U3 2.960521 1_556
Si24 U3 2.960521 1_555
Si24 U0 2.966193 1_555
Si24 U11 2.977018 1_565
Si25 U5 2.960521 1_555
Si25 U5 2.960521 1_554
Si25 U1 2.966209 1_555
Si25 U13 2.977018 1_555
Si26 U2 2.960521 1_555
Si26 U2 2.960521 1_554
Si26 U1 2.966198 1_555
Si26 U9 2.977018 1_655
Si27 U7 2.960521 1_555
Si27 U7 2.960521 1_556
Si27 U0 2.966198 1_555
Si27 U12 2.977018 1_455
Si28 U4 2.960521 1_556
Si28 U4 2.960521 1_555
Si28 U0 2.966209 1_555
Si28 U8 2.977018 1_555
Si29 U6 2.960521 1_554
Si29 U6 2.960521 1_555
Si29 U1 2.966193 1_555
Si29 U10 2.977018 1_545
Si30 U2 2.864819 1_455
Si30 U9 2.912134 1_556
Si30 U9 2.912134 1_555
Si31 U3 2.864819 1_545
Si31 U11 2.912134 1_555
Si31 U11 2.912134 1_554
Si32 U4 2.864819 1_555
Si32 U8 2.912134 1_555
Si32 U8 2.912134 1_554
Si33 U5 2.864819 1_555
Si33 U13 2.912134 1_556
Si33 U13 2.912134 1_555
Si34 U6 2.864819 1_565
Si34 U10 2.912134 1_555
Si34 U10 2.912134 1_556
Si35 U7 2.864819 1_655
Si35 U12 2.912134 1_554
Si35 U12 2.912134 1_555
