# generated using pymatgen
data_Cu3As4H18C8Br3(NO2)2
_symmetry_space_group_name_H-M   'P 1'
_cell_length_a   10.95252851
_cell_length_b   10.95252851
_cell_length_c   11.28177353
_cell_angle_alpha   81.89084407
_cell_angle_beta   81.89084407
_cell_angle_gamma   112.40543386
_symmetry_Int_Tables_number   1
_chemical_formula_structural   Cu3As4H18C8Br3(NO2)2
_chemical_formula_sum   'Cu6 As8 H36 C16 Br6 N4 O8'
_cell_volume   1210.27633303
_cell_formula_units_Z   2
loop_
 _symmetry_equiv_pos_site_id
 _symmetry_equiv_pos_as_xyz
  1  'x, y, z'
loop_
 _atom_site_type_symbol
 _atom_site_label
 _atom_site_symmetry_multiplicity
 _atom_site_fract_x
 _atom_site_fract_y
 _atom_site_fract_z
 _atom_site_occupancy
  Cu  Cu0  1  0.87790700  0.12209300  0.25000000  1
  Cu  Cu1  1  0.12209300  0.87790700  0.75000000  1
  Cu  Cu2  1  0.15328300  0.45704900  0.24170200  1
  Cu  Cu3  1  0.54295100  0.84671700  0.25829800  1
  Cu  Cu4  1  0.84671700  0.54295100  0.75829800  1
  Cu  Cu5  1  0.45704900  0.15328300  0.74170200  1
  As  As0  1  0.88013800  0.25335800  0.06222200  1
  As  As1  1  0.74664200  0.11986200  0.43777800  1
  As  As2  1  0.11986200  0.74664200  0.93777800  1
  As  As3  1  0.25335800  0.88013800  0.56222200  1
  As  As4  1  0.17849300  0.48335700  0.02819800  1
  As  As5  1  0.51664300  0.82150700  0.47180200  1
  As  As6  1  0.82150700  0.51664300  0.97180200  1
  As  As7  1  0.48335700  0.17849300  0.52819800  1
  H  H0  1  0.70842400  0.12386500  0.94813800  1
  H  H1  1  0.87613500  0.29157600  0.55186200  1
  H  H2  1  0.29157600  0.87613500  0.05186200  1
  H  H3  1  0.12386500  0.70842400  0.44813800  1
  H  H4  1  0.85479600  0.25278700  0.84337900  1
  H  H5  1  0.74721300  0.14520400  0.65662100  1
  H  H6  1  0.14520400  0.74721300  0.15662100  1
  H  H7  1  0.25278700  0.85479600  0.34337900  1
  H  H8  1  0.86114100  0.09742500  0.91449500  1
  H  H9  1  0.90257500  0.13885900  0.58550500  1
  H  H10  1  0.13885900  0.90257500  0.08550500  1
  H  H11  1  0.09742500  0.86114100  0.41449500  1
  H  H12  1  0.41527600  0.49712600  0.95911700  1
  H  H13  1  0.50287400  0.58472400  0.54088300  1
  H  H14  1  0.58472400  0.50287400  0.04088300  1
  H  H15  1  0.49712600  0.41527600  0.45911700  1
  H  H16  1  0.28875800  0.33788600  0.95015400  1
  H  H17  1  0.66211400  0.71124200  0.54984600  1
  H  H18  1  0.71124200  0.66211400  0.04984600  1
  H  H19  1  0.33788600  0.28875800  0.45015400  1
  H  H20  1  0.32822400  0.48548200  0.83454500  1
  H  H21  1  0.51451800  0.67177600  0.66545500  1
  H  H22  1  0.67177600  0.51451800  0.16545500  1
  H  H23  1  0.48548200  0.32822400  0.33454500  1
  H  H24  1  0.83350500  0.60746900  0.48318800  1
  H  H25  1  0.39253100  0.16649500  0.01681200  1
  H  H26  1  0.16649500  0.39253100  0.51681200  1
  H  H27  1  0.60746900  0.83350500  0.98318800  1
  H  H28  1  0.82646900  0.65560100  0.32623600  1
  H  H29  1  0.34439900  0.17353100  0.17376400  1
  H  H30  1  0.17353100  0.34439900  0.67376400  1
  H  H31  1  0.65560100  0.82646900  0.82623600  1
  H  H32  1  0.72439900  0.48653400  0.41227300  1
  H  H33  1  0.51346600  0.27560100  0.08772700  1
  H  H34  1  0.27560100  0.51346600  0.58772700  1
  H  H35  1  0.48653400  0.72439900  0.91227300  1
  C  C0  1  0.81893400  0.17224600  0.92584500  1
  C  C1  1  0.82775400  0.18106600  0.57415500  1
  C  C2  1  0.18106600  0.82775400  0.07415500  1
  C  C3  1  0.17224600  0.81893400  0.42584500  1
  C  C4  1  0.31921100  0.44750600  0.93188000  1
  C  C5  1  0.55249400  0.68078900  0.56812000  1
  C  C6  1  0.68078900  0.55249400  0.06812000  1
  C  C7  1  0.44750600  0.31921100  0.43188000  1
  C  C8  1  0.92837600  0.53036900  0.35815300  1
  C  C9  1  0.46963100  0.07162400  0.14184700  1
  C  C10  1  0.07162400  0.46963100  0.64184700  1
  C  C11  1  0.53036900  0.92837600  0.85815300  1
  C  C12  1  0.82253500  0.57281700  0.39677200  1
  C  C13  1  0.42718300  0.17746500  0.10322800  1
  C  C14  1  0.17746500  0.42718300  0.60322800  1
  C  C15  1  0.57281700  0.82253500  0.89677200  1
  Br  Br0  1  0.39321800  0.60678200  0.25000000  1
  Br  Br1  1  0.60678200  0.39321800  0.75000000  1
  Br  Br2  1  0.10863000  0.21129400  0.29200800  1
  Br  Br3  1  0.78870600  0.89137000  0.20799200  1
  Br  Br4  1  0.89137000  0.78870600  0.70799200  1
  Br  Br5  1  0.21129400  0.10863000  0.79200800  1
  N  N0  1  0.01482000  0.49692500  0.32730500  1
  N  N1  1  0.50307500  0.98518000  0.17269500  1
  N  N2  1  0.98518000  0.50307500  0.67269500  1
  N  N3  1  0.49692500  0.01482000  0.82730500  1
  O  O0  1  0.78474100  0.35756500  0.07724800  1
  O  O1  1  0.64243500  0.21525900  0.42275200  1
  O  O2  1  0.21525900  0.64243500  0.92275200  1
  O  O3  1  0.35756500  0.78474100  0.57724800  1
  O  O4  1  0.04102800  0.37372000  0.96536100  1
  O  O5  1  0.62628000  0.95897200  0.53463900  1
  O  O6  1  0.95897200  0.62628000  0.03463900  1
  O  O7  1  0.37372000  0.04102800  0.46536100  1
loop_
_geom_bond_atom_site_label_1
_geom_bond_atom_site_label_2
_geom_bond_distance
_geom_bond_site_symmetry_2
Cu2 N0 1.906297 1_555
Cu3 N1 1.906297 1_555
Cu4 N2 1.906297 1_555
Cu5 N3 1.906297 1_555
As0 O4 1.821162 1_654
As0 O0 1.826674 1_555
As0 C0 1.956628 1_554
As0 Cu0 2.377985 1_555
As1 O5 1.821162 1_545
As1 O1 1.826674 1_555
As1 C1 1.956628 1_555
As1 Cu0 2.377985 1_555
As2 O6 1.821162 1_456
As2 O2 1.826674 1_555
As2 C2 1.956628 1_556
As2 Cu1 2.377985 1_555
As3 O7 1.821162 1_565
As3 O3 1.826674 1_555
As3 C3 1.956628 1_555
As3 Cu1 2.377985 1_555
As4 O2 1.832553 1_554
As4 O4 1.836941 1_554
As4 C4 1.954366 1_554
As4 Cu2 2.348837 1_555
As5 O3 1.832553 1_555
As5 O5 1.836941 1_555
As5 C5 1.954366 1_555
As5 Cu3 2.348837 1_555
As6 O0 1.832553 1_556
As6 O6 1.836941 1_556
As6 C6 1.954366 1_556
As6 Cu4 2.348837 1_555
As7 O1 1.832553 1_555
As7 O7 1.836941 1_555
As7 C7 1.954366 1_555
As7 Cu5 2.348837 1_555
C0 H0 1.093902 1_555
C0 H4 1.095099 1_555
C0 H8 1.096962 1_555
C1 H1 1.093902 1_555
C1 H5 1.095099 1_555
C1 H9 1.096962 1_555
C2 H2 1.093902 1_555
C2 H6 1.095099 1_555
C2 H10 1.096962 1_555
C3 H3 1.093902 1_555
C3 H7 1.095099 1_555
C3 H11 1.096962 1_555
C4 H20 1.094467 1_555
C4 H12 1.095094 1_555
C4 H16 1.095778 1_555
C5 H21 1.094467 1_555
C5 H13 1.095094 1_555
C5 H17 1.095778 1_555
C6 H22 1.094467 1_555
C6 H14 1.095094 1_555
C6 H18 1.095778 1_555
C7 H23 1.094467 1_555
C7 H15 1.095094 1_555
C7 H19 1.095778 1_555
C8 N0 1.165789 1_655
C9 N1 1.165789 1_545
C10 N2 1.165789 1_455
C10 C14 1.440582 1_555
C11 N3 1.165789 1_565
C11 C15 1.440582 1_555
C12 H32 1.097701 1_555
C12 H24 1.100740 1_555
C12 H28 1.101904 1_555
C12 C8 1.440582 1_555
C13 H33 1.097701 1_555
C13 H25 1.100740 1_555
C13 H29 1.101904 1_555
C13 C9 1.440582 1_555
C14 H34 1.097701 1_555
C14 H26 1.100740 1_555
C14 H30 1.101904 1_555
C15 H35 1.097701 1_555
C15 H27 1.100740 1_555
C15 H31 1.101904 1_555
Br0 Cu2 2.536033 1_555
Br0 Cu3 2.536033 1_555
Br1 Cu5 2.536033 1_555
Br1 Cu4 2.536033 1_555
Br2 Cu0 2.480179 1_455
Br2 Cu2 2.508671 1_555
Br3 Cu0 2.480179 1_565
Br3 Cu3 2.508671 1_555
Br4 Cu1 2.480179 1_655
Br4 Cu4 2.508671 1_555
Br5 Cu1 2.480179 1_545
Br5 Cu5 2.508671 1_555
