# generated using pymatgen
data_LiBi(PdO2)2
_symmetry_space_group_name_H-M   'P 1'
_cell_length_a   7.01741800
_cell_length_b   7.01741800
_cell_length_c   4.42655100
_cell_angle_alpha   90.00000000
_cell_angle_beta   90.00000000
_cell_angle_gamma   90.00000000
_symmetry_Int_Tables_number   1
_chemical_formula_structural   LiBi(PdO2)2
_chemical_formula_sum   'Li2 Bi2 Pd4 O8'
_cell_volume   217.98176527
_cell_formula_units_Z   2
loop_
 _symmetry_equiv_pos_site_id
 _symmetry_equiv_pos_as_xyz
  1  'x, y, z'
loop_
 _atom_site_type_symbol
 _atom_site_label
 _atom_site_symmetry_multiplicity
 _atom_site_fract_x
 _atom_site_fract_y
 _atom_site_fract_z
 _atom_site_occupancy
  Li  Li0  1  0.00000000  0.00000000  0.50000000  1
  Li  Li1  1  0.50000000  0.50000000  0.50000000  1
  Bi  Bi0  1  0.00000000  0.50000000  0.50707700  1
  Bi  Bi1  1  0.50000000  0.00000000  0.49292300  1
  Pd  Pd0  1  0.25000000  0.25000000  0.00000000  1
  Pd  Pd1  1  0.25000000  0.75000000  0.00000000  1
  Pd  Pd2  1  0.75000000  0.75000000  0.00000000  1
  Pd  Pd3  1  0.75000000  0.25000000  0.00000000  1
  O  O0  1  0.22630200  0.00000000  0.76472400  1
  O  O1  1  0.00000000  0.77369800  0.23527600  1
  O  O2  1  0.77369800  0.00000000  0.76472400  1
  O  O3  1  0.27369800  0.50000000  0.23527600  1
  O  O4  1  0.00000000  0.22630200  0.23527600  1
  O  O5  1  0.50000000  0.27369800  0.76472400  1
  O  O6  1  0.72630200  0.50000000  0.23527600  1
  O  O7  1  0.50000000  0.72630200  0.76472400  1
loop_
_geom_bond_atom_site_label_1
_geom_bond_atom_site_label_2
_geom_bond_distance
_geom_bond_site_symmetry_2
Li0 O1 1.973593 1_545
Li0 O0 1.973593 1_555
Li0 O4 1.973593 1_555
Li0 O2 1.973593 1_455
Li1 O7 1.973593 1_555
Li1 O3 1.973593 1_555
Li1 O6 1.973593 1_555
Li1 O5 1.973593 1_555
Bi0 O3 2.266375 1_555
Bi0 O4 2.266375 1_555
Bi0 O1 2.266375 1_555
Bi0 O6 2.266375 1_455
Bi1 O0 2.266375 1_555
Bi1 O5 2.266375 1_555
Bi1 O7 2.266375 1_545
Bi1 O2 2.266375 1_555
O0 Pd1 2.046963 1_546
O0 Pd0 2.046963 1_556
O1 Pd2 2.046963 1_455
O1 Pd1 2.046963 1_555
O2 Pd3 2.046963 1_556
O2 Pd2 2.046963 1_546
O3 Pd0 2.046963 1_555
O3 Pd1 2.046963 1_555
O4 Pd0 2.046963 1_555
O4 Pd3 2.046963 1_455
O5 Pd3 2.046963 1_556
O5 Pd0 2.046963 1_556
O6 Pd2 2.046963 1_555
O6 Pd3 2.046963 1_555
O7 Pd2 2.046963 1_556
O7 Pd1 2.046963 1_556
