# generated using pymatgen
data_Si6O13
_symmetry_space_group_name_H-M   'P 1'
_cell_length_a   13.92908212
_cell_length_b   13.92908212
_cell_length_c   8.62109600
_cell_angle_alpha   90.00000000
_cell_angle_beta   90.00000000
_cell_angle_gamma   120.00000056
_symmetry_Int_Tables_number   1
_chemical_formula_structural   Si6O13
_chemical_formula_sum   'Si24 O52'
_cell_volume   1448.56540129
_cell_formula_units_Z   4
loop_
 _symmetry_equiv_pos_site_id
 _symmetry_equiv_pos_as_xyz
  1  'x, y, z'
loop_
 _atom_site_type_symbol
 _atom_site_label
 _atom_site_symmetry_multiplicity
 _atom_site_fract_x
 _atom_site_fract_y
 _atom_site_fract_z
 _atom_site_occupancy
  Si  Si0  1  0.54468800  0.87748500  0.31261000  1
  Si  Si1  1  0.54468800  0.87748500  0.68739000  1
  Si  Si2  1  0.66720300  0.12251500  0.81261000  1
  Si  Si3  1  0.66720300  0.12251500  0.18739000  1
  Si  Si4  1  0.87748500  0.33279700  0.68739000  1
  Si  Si5  1  0.54468800  0.66720300  0.81261000  1
  Si  Si6  1  0.54468800  0.66720300  0.18739000  1
  Si  Si7  1  0.87748500  0.33279700  0.31261000  1
  Si  Si8  1  0.12251500  0.45531200  0.18739000  1
  Si  Si9  1  0.12251500  0.45531200  0.81261000  1
  Si  Si10  1  0.66720300  0.54468800  0.31261000  1
  Si  Si11  1  0.66720300  0.54468800  0.68739000  1
  Si  Si12  1  0.33279700  0.45531200  0.31261000  1
  Si  Si13  1  0.33279700  0.45531200  0.68739000  1
  Si  Si14  1  0.87748500  0.54468800  0.18739000  1
  Si  Si15  1  0.87748500  0.54468800  0.81261000  1
  Si  Si16  1  0.12251500  0.66720300  0.68739000  1
  Si  Si17  1  0.45531200  0.33279700  0.81261000  1
  Si  Si18  1  0.45531200  0.33279700  0.18739000  1
  Si  Si19  1  0.12251500  0.66720300  0.31261000  1
  Si  Si20  1  0.33279700  0.87748500  0.81261000  1
  Si  Si21  1  0.33279700  0.87748500  0.18739000  1
  Si  Si22  1  0.45531200  0.12251500  0.31261000  1
  Si  Si23  1  0.45531200  0.12251500  0.68739000  1
  O  O0  1  0.57913000  0.15825900  0.25000000  1
  O  O1  1  0.57913000  0.15825900  0.75000000  1
  O  O2  1  0.66651500  0.12237900  0.00000000  1
  O  O3  1  0.54413600  0.87762100  0.50000000  1
  O  O4  1  0.42087000  0.57913000  0.75000000  1
  O  O5  1  0.42087000  0.57913000  0.25000000  1
  O  O6  1  0.63468200  0.00000000  0.25000000  1
  O  O7  1  0.63468200  0.00000000  0.75000000  1
  O  O8  1  0.58049500  0.79024700  0.25000000  1
  O  O9  1  0.79024700  0.20975300  0.75000000  1
  O  O10  1  0.79024700  0.20975300  0.25000000  1
  O  O11  1  0.58049500  0.79024700  0.75000000  1
  O  O12  1  0.54413600  0.66651500  0.00000000  1
  O  O13  1  0.87762100  0.33348500  0.50000000  1
  O  O14  1  0.63468200  0.63468200  0.25000000  1
  O  O15  1  0.00000000  0.36531800  0.25000000  1
  O  O16  1  0.00000000  0.36531800  0.75000000  1
  O  O17  1  0.63468200  0.63468200  0.75000000  1
  O  O18  1  0.15825900  0.57913000  0.25000000  1
  O  O19  1  0.15825900  0.57913000  0.75000000  1
  O  O20  1  0.12237900  0.45586400  0.00000000  1
  O  O21  1  0.66651500  0.54413600  0.50000000  1
  O  O22  1  0.20975300  0.41950500  0.75000000  1
  O  O23  1  0.00000000  0.00000000  0.57150000  1
  O  O24  1  0.79024700  0.58049500  0.75000000  1
  O  O25  1  0.00000000  0.00000000  0.92850000  1
  O  O26  1  0.00000000  0.00000000  0.07150000  1
  O  O27  1  0.20975300  0.41950500  0.25000000  1
  O  O28  1  0.00000000  0.00000000  0.42850000  1
  O  O29  1  0.79024700  0.58049500  0.25000000  1
  O  O30  1  0.33348500  0.45586400  0.50000000  1
  O  O31  1  0.87762100  0.54413600  0.00000000  1
  O  O32  1  0.84174100  0.42087000  0.25000000  1
  O  O33  1  0.84174100  0.42087000  0.75000000  1
  O  O34  1  0.36531800  0.36531800  0.25000000  1
  O  O35  1  0.00000000  0.63468200  0.25000000  1
  O  O36  1  0.00000000  0.63468200  0.75000000  1
  O  O37  1  0.36531800  0.36531800  0.75000000  1
  O  O38  1  0.45586400  0.33348500  0.00000000  1
  O  O39  1  0.12237900  0.66651500  0.50000000  1
  O  O40  1  0.41950500  0.20975300  0.25000000  1
  O  O41  1  0.20975300  0.79024700  0.75000000  1
  O  O42  1  0.20975300  0.79024700  0.25000000  1
  O  O43  1  0.41950500  0.20975300  0.75000000  1
  O  O44  1  0.36531800  0.00000000  0.25000000  1
  O  O45  1  0.36531800  0.00000000  0.75000000  1
  O  O46  1  0.57913000  0.42087000  0.75000000  1
  O  O47  1  0.57913000  0.42087000  0.25000000  1
  O  O48  1  0.45586400  0.12237900  0.50000000  1
  O  O49  1  0.33348500  0.87762100  0.00000000  1
  O  O50  1  0.42087000  0.84174100  0.25000000  1
  O  O51  1  0.42087000  0.84174100  0.75000000  1
loop_
_geom_bond_atom_site_label_1
_geom_bond_atom_site_label_2
_geom_bond_distance
_geom_bond_site_symmetry_2
O0 Si3 1.629418 1_555
O0 Si22 1.629430 1_555
O1 Si2 1.629418 1_555
O1 Si23 1.629430 1_555
O2 Si2 1.615531 1_554
O2 Si3 1.615531 1_555
O3 Si0 1.615531 1_555
O3 Si1 1.615531 1_555
O4 Si5 1.629427 1_555
O4 Si13 1.629427 1_555
O5 Si6 1.629427 1_555
O5 Si12 1.629427 1_555
O6 Si0 1.623493 1_545
O6 Si3 1.623493 1_555
O7 Si1 1.623493 1_545
O7 Si2 1.623493 1_555
O8 Si6 1.619478 1_555
O8 Si0 1.619491 1_555
O9 Si2 1.619481 1_555
O9 Si4 1.619481 1_555
O10 Si3 1.619481 1_555
O10 Si7 1.619481 1_555
O11 Si5 1.619478 1_555
O11 Si1 1.619491 1_555
O12 Si5 1.615531 1_554
O12 Si6 1.615531 1_555
O13 Si7 1.615531 1_555
O13 Si4 1.615531 1_555
O14 Si10 1.623493 1_555
O14 Si6 1.623493 1_555
O15 Si8 1.623493 1_555
O15 Si7 1.623493 1_455
O16 Si9 1.623493 1_555
O16 Si4 1.623493 1_455
O17 Si11 1.623493 1_555
O17 Si5 1.623493 1_555
O18 Si19 1.629418 1_555
O18 Si8 1.629430 1_555
O19 Si16 1.629418 1_555
O19 Si9 1.629430 1_555
O20 Si9 1.615531 1_554
O20 Si8 1.615531 1_555
O21 Si10 1.615531 1_555
O21 Si11 1.615531 1_555
O22 Si13 1.619478 1_555
O22 Si9 1.619491 1_555
O23 O28 1.232817 1_555
O24 Si11 1.619478 1_555
O24 Si15 1.619491 1_555
O25 O26 1.232817 1_556
O27 Si12 1.619478 1_555
O27 Si8 1.619491 1_555
O29 Si10 1.619478 1_555
O29 Si14 1.619491 1_555
O30 Si12 1.615531 1_555
O30 Si13 1.615531 1_555
O31 Si15 1.615531 1_554
O31 Si14 1.615531 1_555
O32 Si7 1.629418 1_555
O32 Si14 1.629430 1_555
O33 Si4 1.629418 1_555
O33 Si15 1.629430 1_555
O34 Si18 1.623493 1_555
O34 Si12 1.623493 1_555
O35 Si14 1.623493 1_455
O35 Si19 1.623493 1_555
O36 Si15 1.623493 1_455
O36 Si16 1.623493 1_555
O37 Si13 1.623493 1_555
O37 Si17 1.623493 1_555
O38 Si17 1.615531 1_554
O38 Si18 1.615531 1_555
O39 Si19 1.615531 1_555
O39 Si16 1.615531 1_555
O40 Si18 1.619478 1_555
O40 Si22 1.619491 1_555
O41 Si16 1.619481 1_555
O41 Si20 1.619481 1_555
O42 Si19 1.619481 1_555
O42 Si21 1.619481 1_555
O43 Si17 1.619478 1_555
O43 Si23 1.619491 1_555
O44 Si22 1.623493 1_555
O44 Si21 1.623493 1_545
O45 Si23 1.623493 1_555
O45 Si20 1.623493 1_545
O46 Si11 1.629427 1_555
O46 Si17 1.629427 1_555
O47 Si10 1.629427 1_555
O47 Si18 1.629427 1_555
O48 Si22 1.615531 1_555
O48 Si23 1.615531 1_555
O49 Si20 1.615531 1_554
O49 Si21 1.615531 1_555
O50 Si21 1.629418 1_555
O50 Si0 1.629430 1_555
O51 Si20 1.629418 1_555
O51 Si1 1.629430 1_555
