# generated using pymatgen
data_Sm2(CN2)3
_symmetry_space_group_name_H-M   'P 1'
_cell_length_a   3.89316318
_cell_length_b   5.28934613
_cell_length_c   7.56372529
_cell_angle_alpha   95.87233362
_cell_angle_beta   104.91333576
_cell_angle_gamma   89.99999852
_symmetry_Int_Tables_number   1
_chemical_formula_structural   Sm2(CN2)3
_chemical_formula_sum   'Sm2 C3 N6'
_cell_volume   149.66201096
_cell_formula_units_Z   1
loop_
 _symmetry_equiv_pos_site_id
 _symmetry_equiv_pos_as_xyz
  1  'x, y, z'
loop_
 _atom_site_type_symbol
 _atom_site_label
 _atom_site_symmetry_multiplicity
 _atom_site_fract_x
 _atom_site_fract_y
 _atom_site_fract_z
 _atom_site_occupancy
  Sm  Sm0  1  0.86554075  0.92853597  0.73108349  1
  Sm  Sm1  1  0.13445925  0.07146403  0.26891651  1
  C  C0  1  0.32807246  0.40563587  0.65614492  1
  C  C1  1  0.67192754  0.59436413  0.34385508  1
  C  C2  1  0.00000000  0.50000000  0.00000000  1
  N  N0  1  0.98870161  0.26703010  0.97740323  1
  N  N1  1  0.68957862  0.82933125  0.37915624  1
  N  N2  1  0.65742122  0.36441577  0.31484344  1
  N  N3  1  0.01129839  0.73296990  0.02259677  1
  N  N4  1  0.31042138  0.17066875  0.62084376  1
  N  N5  1  0.34257878  0.63558423  0.68515656  1
loop_
_geom_bond_atom_site_label_1
_geom_bond_atom_site_label_2
_geom_bond_distance
_geom_bond_site_symmetry_2
C0 N5 1.212303 1_555
C0 N4 1.242286 1_555
C1 N2 1.212303 1_555
C1 N1 1.242286 1_555
C2 N3 1.225823 1_555
C2 N0 1.225823 1_454
N0 Sm0 2.400881 1_545
N0 Sm1 2.465040 1_656
N1 Sm1 2.509413 1_565
N1 Sm1 2.509417 1_665
N1 Sm0 2.570182 1_555
N2 Sm1 2.488517 1_555
N2 Sm1 2.488526 1_655
N3 Sm1 2.400881 1_565
N3 Sm0 2.465040 1_454
N4 Sm0 2.509413 1_545
N4 Sm0 2.509417 1_445
N4 Sm1 2.570182 1_555
N5 Sm0 2.488517 1_555
N5 Sm0 2.488526 1_455
