# generated using pymatgen
data_TlCr5S8
_symmetry_space_group_name_H-M   'P 1'
_cell_length_a   3.48405226
_cell_length_b   8.70424778
_cell_length_c   9.16431103
_cell_angle_alpha   104.95851395
_cell_angle_beta   100.95630386
_cell_angle_gamma   89.99927590
_symmetry_Int_Tables_number   1
_chemical_formula_structural   TlCr5S8
_chemical_formula_sum   'Tl1 Cr5 S8'
_cell_volume   263.25285459
_cell_formula_units_Z   1
loop_
 _symmetry_equiv_pos_site_id
 _symmetry_equiv_pos_as_xyz
  1  'x, y, z'
loop_
 _atom_site_type_symbol
 _atom_site_label
 _atom_site_symmetry_multiplicity
 _atom_site_fract_x
 _atom_site_fract_y
 _atom_site_fract_z
 _atom_site_occupancy
  Tl  Tl0  1  0.00009544  0.00002813  0.00000485  1
  Cr  Cr0  1  0.49999505  0.49999964  -0.00000024  1
  Cr  Cr1  1  0.20378555  0.83513134  0.40788217  1
  Cr  Cr2  1  0.79619126  0.16486206  0.59211347  1
  Cr  Cr3  1  0.84168298  0.52789714  0.68357744  1
  Cr  Cr4  1  0.15830512  0.47209903  0.31642242  1
  S  S0  1  0.32882580  0.01195907  0.65765400  1
  S  S1  1  0.67115889  0.98803620  0.34234602  1
  S  S2  1  0.73742185  0.65523119  0.47470780  1
  S  S3  1  0.26255702  0.34476334  0.52529161  1
  S  S4  1  0.41549579  0.67412625  0.83124424  1
  S  S5  1  0.58449744  0.32587076  0.16875677  1
  S  S6  1  0.07680838  0.64834308  0.15363746  1
  S  S7  1  0.92317842  0.35165278  0.84636200  1
loop_
_geom_bond_atom_site_label_1
_geom_bond_atom_site_label_2
_geom_bond_distance
_geom_bond_site_symmetry_2
Cr0 S6 2.382028 1_555
Cr0 S7 2.382032 1_554
Cr0 S6 2.382081 1_655
Cr0 S7 2.382101 1_454
Cr0 S4 2.410926 1_554
Cr0 S5 2.410952 1_555
Cr1 S1 2.358945 1_455
Cr1 S1 2.359673 1_555
Cr1 S0 2.366525 1_565
Cr1 S6 2.433205 1_555
Cr1 S2 2.518042 1_455
Cr1 S2 2.519115 1_555
Cr2 S0 2.358965 1_655
Cr2 S0 2.359664 1_555
Cr2 S1 2.366488 1_545
Cr2 S7 2.433240 1_555
Cr2 S3 2.518035 1_655
Cr2 S3 2.519108 1_555
Cr3 S4 2.351729 1_655
Cr3 S4 2.351756 1_555
Cr3 S7 2.383256 1_555
Cr3 S2 2.419762 1_555
Cr3 S3 2.531820 1_655
Cr3 S3 2.531822 1_555
Cr4 S5 2.351710 1_455
Cr4 S5 2.351761 1_555
Cr4 S6 2.383257 1_555
Cr4 S3 2.419768 1_555
Cr4 S2 2.531792 1_555
Cr4 S2 2.531833 1_455
