# generated using pymatgen
data_FeCoPO4F
_symmetry_space_group_name_H-M   'P 1'
_cell_length_a   7.32744520
_cell_length_b   7.32744520
_cell_length_c   9.93776534
_cell_angle_alpha   64.78813478
_cell_angle_beta   64.78813478
_cell_angle_gamma   52.71488478
_symmetry_Int_Tables_number   1
_chemical_formula_structural   FeCoPO4F
_chemical_formula_sum   'Fe4 Co4 P4 O16 F4'
_cell_volume   373.48917025
_cell_formula_units_Z   4
loop_
 _symmetry_equiv_pos_site_id
 _symmetry_equiv_pos_as_xyz
  1  'x, y, z'
loop_
 _atom_site_type_symbol
 _atom_site_label
 _atom_site_symmetry_multiplicity
 _atom_site_fract_x
 _atom_site_fract_y
 _atom_site_fract_z
 _atom_site_occupancy
  Fe  Fe0  1  0.49879200  0.08242500  0.64597000  1
  Fe  Fe1  1  0.79389600  0.58032300  0.50211100  1
  Fe  Fe2  1  0.08242500  0.49879200  0.14597000  1
  Fe  Fe3  1  0.58032300  0.79389600  0.00211100  1
  Co  Co0  1  0.17352000  0.65139400  0.62770900  1
  Co  Co1  1  0.89765500  0.10771000  0.78004400  1
  Co  Co2  1  0.10771000  0.89765500  0.28004400  1
  Co  Co3  1  0.65139400  0.17352000  0.12770900  1
  P  P0  1  0.07865500  0.27488900  0.94510900  1
  P  P1  1  0.27488900  0.07865500  0.44510900  1
  P  P2  1  0.62140900  0.42831500  0.33245900  1
  P  P3  1  0.42831500  0.62140900  0.83245900  1
  O  O0  1  0.49789200  0.78861400  0.82805300  1
  O  O1  1  0.91395900  0.21685300  0.93716900  1
  O  O2  1  0.62895900  0.45263600  0.72461000  1
  O  O3  1  0.19968800  0.76986800  0.77530900  1
  O  O4  1  0.31458900  0.23314800  0.28196100  1
  O  O5  1  0.93588600  0.50530600  0.00309100  1
  O  O6  1  0.76986800  0.19968800  0.27530900  1
  O  O7  1  0.38975400  0.47831000  0.99914600  1
  O  O8  1  0.07611100  0.23331300  0.56100900  1
  O  O9  1  0.47831000  0.38975400  0.49914600  1
  O  O10  1  0.45263600  0.62895900  0.22461000  1
  O  O11  1  0.21685300  0.91395900  0.43716900  1
  O  O12  1  0.23331300  0.07611100  0.06100900  1
  O  O13  1  0.78861400  0.49789200  0.32805300  1
  O  O14  1  0.50530600  0.93588600  0.50309100  1
  O  O15  1  0.23314800  0.31458900  0.78196100  1
  F  F0  1  0.70367500  0.98429100  0.99005800  1
  F  F1  1  0.79703600  0.96113100  0.69949000  1
  F  F2  1  0.98429100  0.70367500  0.49005800  1
  F  F3  1  0.96113100  0.79703600  0.19949000  1
loop_
_geom_bond_atom_site_label_1
_geom_bond_atom_site_label_2
_geom_bond_distance
_geom_bond_site_symmetry_2
Fe0 O9 2.049517 1_555
Fe0 O15 2.053022 1_555
Fe0 O14 2.085758 1_545
Fe0 O0 2.144166 1_545
Fe1 O13 2.081777 1_555
Fe1 O8 2.115874 1_655
Fe1 O2 2.134491 1_555
Fe1 O14 2.142147 1_555
Fe2 O7 2.049517 1_554
Fe2 O4 2.053022 1_555
Fe2 O5 2.085758 1_455
Fe2 O13 2.144166 1_455
Fe3 O0 2.081777 1_554
Fe3 O12 2.115874 1_565
Fe3 O10 2.134491 1_555
Fe3 O5 2.142147 1_555
Co0 F2 2.113406 1_455
Co0 O3 2.113770 1_555
Co0 O11 2.124173 1_555
Co0 O15 2.161617 1_555
Co0 O9 2.182649 1_555
Co0 F1 2.321045 1_455
Co1 O2 2.068018 1_555
Co1 O3 2.097891 1_645
Co1 O1 2.104898 1_555
Co1 F1 2.129022 1_545
Co1 F0 2.148521 1_545
Co1 O8 2.149771 1_655
Co2 O10 2.068018 1_555
Co2 O6 2.097891 1_465
Co2 O11 2.104898 1_555
Co2 F3 2.129022 1_455
Co2 F2 2.148521 1_455
Co2 O12 2.149771 1_565
Co3 F0 2.113406 1_544
Co3 O6 2.113770 1_555
Co3 O1 2.124173 1_554
Co3 O4 2.161617 1_555
Co3 O7 2.182649 1_554
Co3 F3 2.321045 1_545
O0 P3 1.566834 1_555
O1 P0 1.541078 1_655
O2 P3 1.556766 1_555
O3 P3 1.545538 1_555
O4 P1 1.558321 1_555
O5 P0 1.565994 1_654
O6 P2 1.545538 1_555
O7 P3 1.550400 1_555
O8 P1 1.554127 1_555
O9 P2 1.550400 1_555
O10 P2 1.556766 1_555
O11 P1 1.541078 1_565
O12 P0 1.554127 1_554
O13 P2 1.566834 1_555
O14 P1 1.565994 1_565
O15 P0 1.558321 1_555
F0 Fe3 2.017619 1_556
F1 Fe0 2.020624 1_565
F2 Fe1 2.017619 1_555
F3 Fe2 2.020624 1_655
