# generated using pymatgen
data_KNdPdO3
_symmetry_space_group_name_H-M   'P 1'
_cell_length_a   3.97495000
_cell_length_b   6.97238576
_cell_length_c   7.57404624
_cell_angle_alpha   104.29759218
_cell_angle_beta   90.00000000
_cell_angle_gamma   106.56180682
_symmetry_Int_Tables_number   1
_chemical_formula_structural   KNdPdO3
_chemical_formula_sum   'K2 Nd2 Pd2 O6'
_cell_volume   194.41220113
_cell_formula_units_Z   2
loop_
 _symmetry_equiv_pos_site_id
 _symmetry_equiv_pos_as_xyz
  1  'x, y, z'
loop_
 _atom_site_type_symbol
 _atom_site_label
 _atom_site_symmetry_multiplicity
 _atom_site_fract_x
 _atom_site_fract_y
 _atom_site_fract_z
 _atom_site_occupancy
  K  K0  1  0.64370000  0.28740000  0.56502500  1
  K  K1  1  0.35630000  0.71260000  0.43497500  1
  Nd  Nd0  1  0.35049300  0.70098600  0.92149500  1
  Nd  Nd1  1  0.64950700  0.29901400  0.07850500  1
  Pd  Pd0  1  0.99321900  0.98643800  0.22763400  1
  Pd  Pd1  1  0.00678100  0.01356200  0.77236600  1
  O  O0  1  0.84760600  0.69521200  0.72182600  1
  O  O1  1  0.49333600  0.98667200  0.18838900  1
  O  O2  1  0.16910500  0.33821000  0.86723400  1
  O  O3  1  0.15239400  0.30478800  0.27817400  1
  O  O4  1  0.83089500  0.66179000  0.13276600  1
  O  O5  1  0.50666400  0.01332800  0.81161100  1
loop_
_geom_bond_atom_site_label_1
_geom_bond_atom_site_label_2
_geom_bond_distance
_geom_bond_site_symmetry_2
K0 O0 2.677806 1_555
K0 O5 2.933576 1_555
K0 O3 2.968829 1_655
K0 O3 2.968829 1_555
K0 O2 2.983977 1_655
K0 O2 2.983977 1_555
K0 O1 3.036879 1_545
K1 O3 2.677806 1_555
K1 O1 2.933576 1_555
K1 O0 2.968829 1_555
K1 O0 2.968829 1_455
K1 O4 2.983977 1_455
K1 O4 2.983977 1_555
K1 O5 3.036879 1_565
Nd0 O2 2.352349 1_555
Nd0 O1 2.396427 1_556
Nd0 O5 2.438279 1_565
Nd0 O0 2.491693 1_555
Nd0 O0 2.491693 1_455
Nd0 O4 2.606767 1_456
Nd0 O4 2.606767 1_556
Nd1 O4 2.352349 1_555
Nd1 O5 2.396427 1_554
Nd1 O1 2.438279 1_545
Nd1 O3 2.491693 1_555
Nd1 O3 2.491693 1_655
Nd1 O2 2.606767 1_554
Nd1 O2 2.606767 1_654
O0 Pd1 2.062383 1_665
O1 Pd0 2.009640 1_555
O1 Pd0 2.009640 1_455
O2 Pd1 2.102473 1_555
O3 Pd0 2.062383 1_445
O4 Pd0 2.102473 1_555
O5 Pd1 2.009640 1_655
O5 Pd1 2.009640 1_555
