# generated using pymatgen
data_Fe(PO3)4
_symmetry_space_group_name_H-M   'P 1'
_cell_length_a   8.38355100
_cell_length_b   9.41193200
_cell_length_c   13.08047900
_cell_angle_alpha   90.00000000
_cell_angle_beta   90.00000000
_cell_angle_gamma   90.00000000
_symmetry_Int_Tables_number   1
_chemical_formula_structural   Fe(PO3)4
_chemical_formula_sum   'Fe4 P16 O48'
_cell_volume   1032.12058374
_cell_formula_units_Z   4
loop_
 _symmetry_equiv_pos_site_id
 _symmetry_equiv_pos_as_xyz
  1  'x, y, z'
loop_
 _atom_site_type_symbol
 _atom_site_label
 _atom_site_symmetry_multiplicity
 _atom_site_fract_x
 _atom_site_fract_y
 _atom_site_fract_z
 _atom_site_occupancy
  Fe  Fe0  1  0.36314700  0.75000000  0.00000000  1
  Fe  Fe1  1  0.63685300  0.25000000  0.00000000  1
  Fe  Fe2  1  0.13685300  0.25000000  0.50000000  1
  Fe  Fe3  1  0.86314700  0.75000000  0.50000000  1
  P  P0  1  0.18678900  0.51556700  0.14814700  1
  P  P1  1  0.81321100  0.01556700  0.14814700  1
  P  P2  1  0.46015100  0.01606600  0.14786200  1
  P  P3  1  0.53984900  0.51606600  0.14786200  1
  P  P4  1  0.03984900  0.51606600  0.35213800  1
  P  P5  1  0.96015100  0.01606600  0.35213800  1
  P  P6  1  0.31321100  0.01556700  0.35185300  1
  P  P7  1  0.68678900  0.51556700  0.35185300  1
  P  P8  1  0.31321100  0.48443300  0.64814700  1
  P  P9  1  0.68678900  0.98443300  0.64814700  1
  P  P10  1  0.03984900  0.98393400  0.64786200  1
  P  P11  1  0.96015100  0.48393400  0.64786200  1
  P  P12  1  0.46015100  0.48393400  0.85213800  1
  P  P13  1  0.53984900  0.98393400  0.85213800  1
  P  P14  1  0.18678900  0.98443300  0.85185300  1
  P  P15  1  0.81321100  0.48443300  0.85185300  1
  O  O0  1  0.19589300  0.63335400  0.06970400  1
  O  O1  1  0.80410700  0.13335400  0.06970400  1
  O  O2  1  0.46907300  0.13228400  0.06903100  1
  O  O3  1  0.53092700  0.63228400  0.06903100  1
  O  O4  1  0.09398500  0.38715100  0.11589700  1
  O  O5  1  0.90601500  0.88715100  0.11589700  1
  O  O6  1  0.36821000  0.88400500  0.12158600  1
  O  O7  1  0.63179000  0.38400500  0.12158600  1
  O  O8  1  0.36366400  0.47231200  0.18532100  1
  O  O9  1  0.63633600  0.97231200  0.18532100  1
  O  O10  1  0.11574400  0.58527300  0.25116700  1
  O  O11  1  0.88425600  0.08527300  0.25116700  1
  O  O12  1  0.38425600  0.08527300  0.24883300  1
  O  O13  1  0.61574400  0.58527300  0.24883300  1
  O  O14  1  0.13633600  0.97231200  0.31467900  1
  O  O15  1  0.86366400  0.47231200  0.31467900  1
  O  O16  1  0.13179000  0.38400500  0.37841400  1
  O  O17  1  0.86821000  0.88400500  0.37841400  1
  O  O18  1  0.40601500  0.88715100  0.38410300  1
  O  O19  1  0.59398500  0.38715100  0.38410300  1
  O  O20  1  0.03092700  0.63228400  0.43096900  1
  O  O21  1  0.96907300  0.13228400  0.43096900  1
  O  O22  1  0.30410700  0.13335400  0.43029600  1
  O  O23  1  0.69589300  0.63335400  0.43029600  1
  O  O24  1  0.30410700  0.36664600  0.56970400  1
  O  O25  1  0.69589300  0.86664600  0.56970400  1
  O  O26  1  0.03092700  0.86771600  0.56903100  1
  O  O27  1  0.96907300  0.36771600  0.56903100  1
  O  O28  1  0.40601500  0.61284900  0.61589700  1
  O  O29  1  0.59398500  0.11284900  0.61589700  1
  O  O30  1  0.13179000  0.11599500  0.62158600  1
  O  O31  1  0.86821000  0.61599500  0.62158600  1
  O  O32  1  0.13633600  0.52768800  0.68532100  1
  O  O33  1  0.86366400  0.02768800  0.68532100  1
  O  O34  1  0.38425600  0.41472700  0.75116700  1
  O  O35  1  0.61574400  0.91472700  0.75116700  1
  O  O36  1  0.11574400  0.91472700  0.74883300  1
  O  O37  1  0.88425600  0.41472700  0.74883300  1
  O  O38  1  0.36366400  0.02768800  0.81467900  1
  O  O39  1  0.63633600  0.52768800  0.81467900  1
  O  O40  1  0.36821000  0.61599500  0.87841400  1
  O  O41  1  0.63179000  0.11599500  0.87841400  1
  O  O42  1  0.09398500  0.11284900  0.88410300  1
  O  O43  1  0.90601500  0.61284900  0.88410300  1
  O  O44  1  0.46907300  0.36771600  0.93096900  1
  O  O45  1  0.53092700  0.86771600  0.93096900  1
  O  O46  1  0.19589300  0.86664600  0.93029600  1
  O  O47  1  0.80410700  0.36664600  0.93029600  1
loop_
_geom_bond_atom_site_label_1
_geom_bond_atom_site_label_2
_geom_bond_distance
_geom_bond_site_symmetry_2
Fe0 O46 2.000683 1_554
Fe0 O0 2.000683 1_555
Fe0 O45 2.005332 1_554
Fe0 O3 2.005332 1_555
Fe0 O40 2.030252 1_554
Fe0 O6 2.030252 1_555
Fe1 O1 2.000683 1_555
Fe1 O47 2.000683 1_554
Fe1 O44 2.005332 1_554
Fe1 O2 2.005332 1_555
Fe1 O41 2.030252 1_554
Fe1 O7 2.030252 1_555
Fe2 O22 2.000683 1_555
Fe2 O24 2.000683 1_555
Fe2 O27 2.005332 1_455
Fe2 O21 2.005332 1_455
Fe2 O30 2.030252 1_555
Fe2 O16 2.030252 1_555
Fe3 O25 2.000683 1_555
Fe3 O23 2.000683 1_555
Fe3 O26 2.005332 1_655
Fe3 O20 2.005332 1_655
Fe3 O31 2.030252 1_555
Fe3 O17 2.030252 1_555
O0 P0 1.512498 1_555
O1 P1 1.512498 1_555
O2 P2 1.505103 1_555
O3 P3 1.505103 1_555
O4 P0 1.498031 1_555
O5 P1 1.498031 1_565
O6 P2 1.502390 1_565
O7 P3 1.502390 1_555
O8 P3 1.609771 1_555
O8 P0 1.612762 1_555
O9 P2 1.609771 1_565
O9 P1 1.612762 1_565
O10 P4 1.604214 1_555
O10 P0 1.612783 1_555
O11 P5 1.604214 1_555
O11 P1 1.612783 1_555
O12 P2 1.604214 1_555
O12 P6 1.612783 1_555
O13 P3 1.604214 1_555
O13 P7 1.612783 1_555
O14 P5 1.609771 1_465
O14 P6 1.612762 1_565
O15 P4 1.609771 1_655
O15 P7 1.612762 1_555
O16 P4 1.502390 1_555
O17 P5 1.502390 1_565
O18 P6 1.498031 1_565
O19 P7 1.498031 1_555
O20 P4 1.505103 1_555
O21 P5 1.505103 1_555
O22 P6 1.512498 1_555
O23 P7 1.512498 1_555
O24 P8 1.512498 1_555
O25 P9 1.512498 1_555
O26 P10 1.505103 1_555
O27 P11 1.505103 1_555
O28 P8 1.498031 1_555
O29 P9 1.498031 1_545
O30 P10 1.502390 1_545
O31 P11 1.502390 1_555
O32 P11 1.609771 1_455
O32 P8 1.612762 1_555
O33 P10 1.609771 1_645
O33 P9 1.612762 1_545
O34 P12 1.604214 1_555
O34 P8 1.612783 1_555
O35 P13 1.604214 1_555
O35 P9 1.612783 1_555
O36 P10 1.604214 1_555
O36 P14 1.612783 1_555
O37 P11 1.604214 1_555
O37 P15 1.612783 1_555
O38 P13 1.609771 1_545
O38 P14 1.612762 1_545
O39 P12 1.609771 1_555
O39 P15 1.612762 1_555
O40 P12 1.502390 1_555
O41 P13 1.502390 1_545
O42 P14 1.498031 1_545
O43 P15 1.498031 1_555
O44 P12 1.505103 1_555
O45 P13 1.505103 1_555
O46 P14 1.512498 1_555
O47 P15 1.512498 1_555
