# generated using pymatgen
data_YCo5P3
_symmetry_space_group_name_H-M   'P 1'
_cell_length_a   3.64075057
_cell_length_b   10.19275238
_cell_length_c   11.65338627
_cell_angle_alpha   90.00000000
_cell_angle_beta   90.00000000
_cell_angle_gamma   90.00000000
_symmetry_Int_Tables_number   1
_chemical_formula_structural   YCo5P3
_chemical_formula_sum   'Y4 Co20 P12'
_cell_volume   432.44864629
_cell_formula_units_Z   4
loop_
 _symmetry_equiv_pos_site_id
 _symmetry_equiv_pos_as_xyz
  1  'x, y, z'
loop_
 _atom_site_type_symbol
 _atom_site_label
 _atom_site_symmetry_multiplicity
 _atom_site_fract_x
 _atom_site_fract_y
 _atom_site_fract_z
 _atom_site_occupancy
  Y  Y0  1  0.25000000  0.91795589  0.20138195  1
  Y  Y1  1  0.75000000  0.08204411  0.79861805  1
  Y  Y2  1  0.75000000  0.41795589  0.29861805  1
  Y  Y3  1  0.25000000  0.58204411  0.70138195  1
  Co  Co0  1  0.25000000  0.78883503  0.48890286  1
  Co  Co1  1  0.75000000  0.21116497  0.51109714  1
  Co  Co2  1  0.75000000  0.28883503  0.01109714  1
  Co  Co3  1  0.25000000  0.71116497  0.98890286  1
  Co  Co4  1  0.25000000  0.09483802  0.98766518  1
  Co  Co5  1  0.75000000  0.90516198  0.01233482  1
  Co  Co6  1  0.75000000  0.59483802  0.51233482  1
  Co  Co7  1  0.25000000  0.40516198  0.48766518  1
  Co  Co8  1  0.25000000  0.27826932  0.67525449  1
  Co  Co9  1  0.75000000  0.72173068  0.32474551  1
  Co  Co10  1  0.75000000  0.77826932  0.82474551  1
  Co  Co11  1  0.25000000  0.22173068  0.17525449  1
  Co  Co12  1  0.25000000  0.61743152  0.19836297  1
  Co  Co13  1  0.75000000  0.38256848  0.80163703  1
  Co  Co14  1  0.75000000  0.11743152  0.30163703  1
  Co  Co15  1  0.25000000  0.88256848  0.69836297  1
  Co  Co16  1  0.25000000  0.03331231  0.43326370  1
  Co  Co17  1  0.75000000  0.96668769  0.56673630  1
  Co  Co18  1  0.75000000  0.53331231  0.06673630  1
  Co  Co19  1  0.25000000  0.46668769  0.93326370  1
  P  P0  1  0.25000000  0.08002265  0.61342092  1
  P  P1  1  0.75000000  0.91997735  0.38657908  1
  P  P2  1  0.75000000  0.58002265  0.88657908  1
  P  P3  1  0.25000000  0.41997735  0.11342092  1
  P  P4  1  0.25000000  0.22876728  0.36693554  1
  P  P5  1  0.75000000  0.77123272  0.63306446  1
  P  P6  1  0.75000000  0.72876728  0.13306446  1
  P  P7  1  0.25000000  0.27123272  0.86693554  1
  P  P8  1  0.25000000  0.89791451  0.89259862  1
  P  P9  1  0.75000000  0.10208549  0.10740138  1
  P  P10  1  0.75000000  0.39791451  0.60740138  1
  P  P11  1  0.25000000  0.60208549  0.39259862  1
loop_
_geom_bond_atom_site_label_1
_geom_bond_atom_site_label_2
_geom_bond_distance
_geom_bond_site_symmetry_2
Co0 P11 2.209700 1_555
Co0 P5 2.483598 1_455
Co0 P5 2.483598 1_555
Co0 P1 2.553899 1_555
Co0 P1 2.553899 1_455
Co0 Y3 3.251733 1_555
Co1 P10 2.209700 1_555
Co1 P4 2.483598 1_655
Co1 P4 2.483598 1_555
Co1 P0 2.553899 1_555
Co1 P0 2.553899 1_655
Co1 Y2 3.251733 1_555
Co2 P9 2.209700 1_555
Co2 P7 2.483598 1_554
Co2 P7 2.483598 1_654
Co2 P3 2.553899 1_555
Co2 P3 2.553899 1_655
Co2 Y1 3.251733 1_554
Co3 P8 2.209700 1_555
Co3 P6 2.483598 1_456
Co3 P6 2.483598 1_556
Co3 P2 2.553899 1_455
Co3 P2 2.553899 1_555
Co3 Y0 3.251733 1_556
Co4 P7 2.282982 1_555
Co4 P8 2.292629 1_545
Co4 P9 2.294815 1_456
Co4 P9 2.294815 1_556
Co4 Y1 2.860796 1_555
Co4 Y1 2.860796 1_455
Co4 Y0 3.074608 1_546
Co5 P6 2.282982 1_555
Co5 P9 2.292629 1_565
Co5 P8 2.294815 1_654
Co5 P8 2.294815 1_554
Co5 Y0 2.860796 1_655
Co5 Y0 2.860796 1_555
Co5 Y1 3.074608 1_564
Co6 P5 2.282982 1_555
Co6 P10 2.292629 1_555
Co6 P11 2.294815 1_555
Co6 P11 2.294815 1_655
Co6 Y3 2.860796 1_555
Co6 Y3 2.860796 1_655
Co6 Y2 3.074608 1_555
Co7 P4 2.282982 1_555
Co7 P11 2.292629 1_555
Co7 P10 2.294815 1_455
Co7 P10 2.294815 1_555
Co7 Y2 2.860796 1_455
Co7 Y2 2.860796 1_555
Co7 Y3 3.074608 1_555
Co8 P0 2.145313 1_555
Co8 P7 2.234884 1_555
Co8 P10 2.329424 1_555
Co8 P10 2.329424 1_455
Co8 Y1 3.062804 1_555
Co8 Y1 3.062804 1_455
Co8 Y3 3.111235 1_555
Co9 P1 2.145313 1_555
Co9 P6 2.234884 1_555
Co9 P11 2.329424 1_555
Co9 P11 2.329424 1_655
Co9 Y0 3.062804 1_655
Co9 Y0 3.062804 1_555
Co9 Y2 3.111235 1_555
Co10 P2 2.145313 1_555
Co10 P5 2.234884 1_555
Co10 P8 2.329424 1_555
Co10 P8 2.329424 1_655
Co10 Y3 3.062804 1_555
Co10 Y3 3.062804 1_655
Co10 Y1 3.111235 1_565
Co11 P3 2.145313 1_555
Co11 P4 2.234884 1_555
Co11 P9 2.329424 1_555
Co11 P9 2.329424 1_455
Co11 Y2 3.062804 1_455
Co11 Y2 3.062804 1_555
Co11 Y0 3.111235 1_545
Co12 P3 2.242854 1_555
Co12 P11 2.268901 1_555
Co12 P6 2.276098 1_555
Co12 P6 2.276098 1_455
Co12 Y2 2.968610 1_555
Co12 Y2 2.968610 1_455
Co12 Y0 3.063373 1_555
Co13 P2 2.242854 1_555
Co13 P10 2.268901 1_555
Co13 P7 2.276098 1_555
Co13 P7 2.276098 1_655
Co13 Y3 2.968610 1_655
Co13 Y3 2.968610 1_555
Co13 Y1 3.063373 1_555
Co14 P1 2.242854 1_545
Co14 P9 2.268901 1_555
Co14 P4 2.276098 1_555
Co14 P4 2.276098 1_655
Co14 Y0 2.968610 1_645
Co14 Y0 2.968610 1_545
Co14 Y2 3.063373 1_555
Co15 P0 2.242854 1_565
Co15 P8 2.268901 1_555
Co15 P5 2.276098 1_555
Co15 P5 2.276098 1_455
Co15 Y1 2.968610 1_465
Co15 Y1 2.968610 1_565
Co15 Y3 3.063373 1_555
Co16 P4 2.136915 1_555
Co16 P0 2.152750 1_555
Co16 P1 2.223559 1_445
Co16 P1 2.223559 1_545
Co16 Y0 2.946936 1_545
Co17 P5 2.136915 1_555
Co17 P1 2.152750 1_555
Co17 P0 2.223559 1_565
Co17 P0 2.223559 1_665
Co17 Y1 2.946936 1_565
Co18 P6 2.136915 1_555
Co18 P2 2.152750 1_554
Co18 P3 2.223559 1_655
Co18 P3 2.223559 1_555
Co18 Y2 2.946936 1_555
Co19 P7 2.136915 1_555
Co19 P3 2.152750 1_556
Co19 P2 2.223559 1_455
Co19 P2 2.223559 1_555
Co19 Y3 2.946936 1_555
P0 Y1 2.823456 1_455
P0 Y1 2.823456 1_555
P1 Y0 2.823456 1_555
P1 Y0 2.823456 1_655
P2 Y3 2.823456 1_555
P2 Y3 2.823456 1_655
P3 Y2 2.823456 1_455
P3 Y2 2.823456 1_555
P4 Y2 2.768778 1_455
P4 Y2 2.768778 1_555
P5 Y3 2.768778 1_555
P5 Y3 2.768778 1_655
P6 Y0 2.768778 1_655
P6 Y0 2.768778 1_555
P7 Y1 2.768778 1_455
P7 Y1 2.768778 1_555
P8 Y1 2.834703 1_565
P8 Y1 2.834703 1_465
P9 Y0 2.834703 1_645
P9 Y0 2.834703 1_545
P10 Y3 2.834703 1_655
P10 Y3 2.834703 1_555
P11 Y2 2.834703 1_455
P11 Y2 2.834703 1_555
