# generated using pymatgen
data_La2C2Cl
_symmetry_space_group_name_H-M   'P 1'
_cell_length_a   4.18424938
_cell_length_b   6.84594029
_cell_length_c   7.78263439
_cell_angle_alpha   101.50238066
_cell_angle_beta   105.58370874
_cell_angle_gamma   90.00800613
_symmetry_Int_Tables_number   1
_chemical_formula_structural   La2C2Cl
_chemical_formula_sum   'La4 C4 Cl2'
_cell_volume   210.08553046
_cell_formula_units_Z   2
loop_
 _symmetry_equiv_pos_site_id
 _symmetry_equiv_pos_as_xyz
  1  'x, y, z'
loop_
 _atom_site_type_symbol
 _atom_site_label
 _atom_site_symmetry_multiplicity
 _atom_site_fract_x
 _atom_site_fract_y
 _atom_site_fract_z
 _atom_site_occupancy
  La  La0  1  0.55137282  0.84647420  0.70333188  1
  La  La1  1  0.15191608  0.34645894  0.70334274  1
  La  La2  1  0.44862718  0.15352580  0.29666812  1
  La  La3  1  0.84808392  0.65354106  0.29665726  1
  C  C0  1  0.35982255  0.52779766  0.44458244  1
  C  C1  1  0.91520526  0.97219025  0.55543519  1
  C  C2  1  0.64017745  0.47220234  0.55541756  1
  C  C3  1  0.08479474  0.02780975  0.44456481  1
  Cl  Cl0  1  0.79061785  0.25002848  -0.00001236  1
  Cl  Cl1  1  0.20938215  0.74997252  0.00001236  1
loop_
_geom_bond_atom_site_label_1
_geom_bond_atom_site_label_2
_geom_bond_distance
_geom_bond_site_symmetry_2
C0 C2 1.361031 1_555
C0 La3 2.392195 1_455
C0 La0 2.614832 1_555
C0 La2 2.661220 1_555
C0 La3 2.810471 1_555
C0 La1 2.879500 1_555
C1 C3 1.361247 1_665
C1 La0 2.391520 1_555
C1 La3 2.614855 1_555
C1 La1 2.661104 1_665
C1 La0 2.810819 1_655
C1 La2 2.879851 1_565
C2 La1 2.392195 1_655
C2 La2 2.614832 1_555
C2 La0 2.661220 1_555
C2 La1 2.810471 1_555
C2 La3 2.879500 1_555
C3 La2 2.391520 1_555
C3 La1 2.614855 1_555
C3 La3 2.661104 1_445
C3 La2 2.810819 1_455
C3 La0 2.879851 1_545
Cl0 La3 3.190223 1_555
Cl0 La0 3.190403 1_544
Cl0 La2 3.193550 1_555
Cl0 La1 3.193944 1_554
Cl0 La1 3.245616 1_654
Cl0 La2 3.246762 1_655
Cl1 La1 3.190228 1_554
Cl1 La2 3.190398 1_565
Cl1 La0 3.193548 1_554
Cl1 La3 3.193946 1_555
Cl1 La3 3.245619 1_455
Cl1 La0 3.246760 1_454
