# generated using pymatgen
data_ZnS
_symmetry_space_group_name_H-M   'P 1'
_cell_length_a   3.80733357
_cell_length_b   3.80733248
_cell_length_c   49.84542432
_cell_angle_alpha   90.00000000
_cell_angle_beta   90.00000000
_cell_angle_gamma   120.00000066
_symmetry_Int_Tables_number   1
_chemical_formula_structural   ZnS
_chemical_formula_sum   'Zn16 S16'
_cell_volume   625.74538969
_cell_formula_units_Z   16
loop_
 _symmetry_equiv_pos_site_id
 _symmetry_equiv_pos_as_xyz
  1  'x, y, z'
loop_
 _atom_site_type_symbol
 _atom_site_label
 _atom_site_symmetry_multiplicity
 _atom_site_fract_x
 _atom_site_fract_y
 _atom_site_fract_z
 _atom_site_occupancy
  Zn  Zn0  1  0.33333300  0.66666700  0.56266342  1
  Zn  Zn1  1  0.66666700  0.33333300  0.12495042  1
  Zn  Zn2  1  0.00000000  -0.00000000  0.37501221  1
  Zn  Zn3  1  0.33333300  0.66666700  0.06250297  1
  Zn  Zn4  1  0.66666700  0.33333300  0.50014282  1
  Zn  Zn5  1  0.33333300  0.66666700  0.31249110  1
  Zn  Zn6  1  0.66666700  0.33333300  0.25000987  1
  Zn  Zn7  1  0.00000000  0.00000000  0.81250552  1
  Zn  Zn8  1  0.66666700  0.33333300  0.74997608  1
  Zn  Zn9  1  -0.00000000  0.00000000  0.18750178  1
  Zn  Zn10  1  0.33333300  0.66666700  0.43752021  1
  Zn  Zn11  1  0.33333300  0.66666700  0.93747430  1
  Zn  Zn12  1  0.00000000  -0.00000000  0.62504105  1
  Zn  Zn13  1  0.66666700  0.33333300  0.87500453  1
  Zn  Zn14  1  0.33333300  0.66666700  0.68751710  1
  Zn  Zn15  1  -0.00000000  0.00000000  0.00000692  1
  S  S0  1  0.00000000  -0.00000000  0.23438558  1
  S  S1  1  0.33333300  0.66666700  0.35929768  1
  S  S2  1  0.66666700  0.33333300  0.29682934  1
  S  S3  1  0.66666700  0.33333300  0.54702411  1
  S  S4  1  0.33333300  0.66666700  0.10930534  1
  S  S5  1  0.66666700  0.33333300  0.79677980  1
  S  S6  1  0.33333300  0.66666700  0.98427987  1
  S  S7  1  0.66666700  0.33333300  0.92181313  1
  S  S8  1  0.00000000  0.00000000  0.85938204  1
  S  S9  1  0.33333300  0.66666700  0.60939565  1
  S  S10  1  0.00000000  -0.00000000  0.42189549  1
  S  S11  1  0.33333300  0.66666700  0.73432088  1
  S  S12  1  0.00000000  -0.00000000  0.67190058  1
  S  S13  1  0.00000000  -0.00000000  0.04688350  1
  S  S14  1  0.66666700  0.33333300  0.17176423  1
  S  S15  1  0.33333300  0.66666700  0.48434748  1
loop_
_geom_bond_atom_site_label_1
_geom_bond_atom_site_label_2
_geom_bond_distance
_geom_bond_site_symmetry_2
S0 Zn6 2.332048 1_455
S0 Zn6 2.332051 1_445
S0 Zn6 2.332051 1_555
S0 Zn9 2.336943 1_555
S1 Zn5 2.333094 1_555
S1 Zn2 2.333554 1_565
S1 Zn2 2.333557 1_555
S1 Zn2 2.333557 1_665
S2 Zn5 2.332672 1_545
S2 Zn5 2.332672 1_655
S2 Zn5 2.332678 1_555
S2 Zn6 2.333736 1_555
S3 Zn0 2.332298 1_545
S3 Zn0 2.332298 1_655
S3 Zn0 2.332304 1_555
S3 Zn4 2.336818 1_555
S4 Zn1 2.332394 1_565
S4 Zn1 2.332394 1_455
S4 Zn1 2.332400 1_555
S4 Zn3 2.332884 1_555
S5 Zn8 2.332951 1_555
S5 Zn7 2.333741 1_655
S5 Zn7 2.333744 1_665
S5 Zn7 2.333744 1_555
S6 Zn11 2.333043 1_555
S6 Zn15 2.333763 1_566
S6 Zn15 2.333766 1_556
S6 Zn15 2.333767 1_666
S7 Zn11 2.332662 1_545
S7 Zn11 2.332663 1_655
S7 Zn11 2.332669 1_555
S7 Zn13 2.333195 1_555
S8 Zn13 2.332018 1_455
S8 Zn13 2.332021 1_445
S8 Zn13 2.332021 1_555
S8 Zn7 2.336580 1_555
S9 Zn0 2.329388 1_555
S9 Zn12 2.332399 1_565
S9 Zn12 2.332402 1_555
S9 Zn12 2.332403 1_665
S10 Zn10 2.332055 1_545
S10 Zn10 2.332058 1_555
S10 Zn10 2.332058 1_445
S10 Zn2 2.336917 1_555
S11 Zn8 2.332562 1_565
S11 Zn8 2.332563 1_455
S11 Zn8 2.332569 1_555
S11 Zn14 2.332954 1_555
S12 Zn14 2.331919 1_545
S12 Zn14 2.331921 1_555
S12 Zn14 2.331922 1_445
S12 Zn12 2.335733 1_555
S13 Zn3 2.331968 1_545
S13 Zn3 2.331970 1_555
S13 Zn3 2.331971 1_445
S13 Zn15 2.336583 1_555
S14 Zn1 2.333454 1_555
S14 Zn9 2.333939 1_655
S14 Zn9 2.333942 1_665
S14 Zn9 2.333943 1_555
S15 Zn10 2.334125 1_555
S15 Zn4 2.334909 1_565
S15 Zn4 2.334909 1_455
S15 Zn4 2.334915 1_555
