# generated using pymatgen
data_K4Nb2Se11O
_symmetry_space_group_name_H-M   'P 1'
_cell_length_a   14.13239800
_cell_length_b   16.39589800
_cell_length_c   18.98224600
_cell_angle_alpha   90.00000000
_cell_angle_beta   90.00000000
_cell_angle_gamma   90.00000000
_symmetry_Int_Tables_number   1
_chemical_formula_structural   K4Nb2Se11O
_chemical_formula_sum   'K32 Nb16 Se88 O8'
_cell_volume   4398.43992704
_cell_formula_units_Z   8
loop_
 _symmetry_equiv_pos_site_id
 _symmetry_equiv_pos_as_xyz
  1  'x, y, z'
loop_
 _atom_site_type_symbol
 _atom_site_label
 _atom_site_symmetry_multiplicity
 _atom_site_fract_x
 _atom_site_fract_y
 _atom_site_fract_z
 _atom_site_occupancy
  K  K0  1  0.23470600  0.90729300  0.80397400  1
  K  K1  1  0.97760700  0.37444800  0.40447900  1
  K  K2  1  0.74738400  0.67510500  0.54748600  1
  K  K3  1  0.25261600  0.32489500  0.45251400  1
  K  K4  1  0.76529400  0.59270700  0.30397400  1
  K  K5  1  0.52239300  0.87444800  0.59552100  1
  K  K6  1  0.02239300  0.12555200  0.90447900  1
  K  K7  1  0.74738400  0.17510500  0.95251400  1
  K  K8  1  0.76529400  0.09270700  0.19602600  1
  K  K9  1  0.02239300  0.62555200  0.59552100  1
  K  K10  1  0.26529400  0.90729300  0.30397400  1
  K  K11  1  0.09569000  0.08430500  0.62266700  1
  K  K12  1  0.59569000  0.41569500  0.62266700  1
  K  K13  1  0.40431000  0.08430500  0.12266700  1
  K  K14  1  0.52239300  0.37444800  0.90447900  1
  K  K15  1  0.75261600  0.17510500  0.45251400  1
  K  K16  1  0.75261600  0.67510500  0.04748600  1
  K  K17  1  0.26529400  0.40729300  0.19602600  1
  K  K18  1  0.25261600  0.82489500  0.04748600  1
  K  K19  1  0.90431000  0.41569500  0.12266700  1
  K  K20  1  0.24738400  0.82489500  0.54748600  1
  K  K21  1  0.47760700  0.12555200  0.40447900  1
  K  K22  1  0.90431000  0.91569500  0.37733300  1
  K  K23  1  0.97760700  0.87444800  0.09552100  1
  K  K24  1  0.73470600  0.09270700  0.69602600  1
  K  K25  1  0.47760700  0.62555200  0.09552100  1
  K  K26  1  0.09569000  0.58430500  0.87733300  1
  K  K27  1  0.24738400  0.32489500  0.95251400  1
  K  K28  1  0.73470600  0.59270700  0.80397400  1
  K  K29  1  0.59569000  0.91569500  0.87733300  1
  K  K30  1  0.40431000  0.58430500  0.37733300  1
  K  K31  1  0.23470600  0.40729300  0.69602600  1
  Nb  Nb0  1  0.10687400  0.17229800  0.32426300  1
  Nb  Nb1  1  0.10687400  0.67229800  0.17573700  1
  Nb  Nb2  1  0.60687400  0.32770200  0.32426300  1
  Nb  Nb3  1  0.07500300  0.62310400  0.37075000  1
  Nb  Nb4  1  0.42499700  0.12310400  0.62925000  1
  Nb  Nb5  1  0.89312600  0.82770200  0.67573700  1
  Nb  Nb6  1  0.57500300  0.37689600  0.12925000  1
  Nb  Nb7  1  0.60687400  0.82770200  0.17573700  1
  Nb  Nb8  1  0.07500300  0.12310400  0.12925000  1
  Nb  Nb9  1  0.89312600  0.32770200  0.82426300  1
  Nb  Nb10  1  0.39312600  0.67229800  0.67573700  1
  Nb  Nb11  1  0.57500300  0.87689600  0.37075000  1
  Nb  Nb12  1  0.39312600  0.17229800  0.82426300  1
  Nb  Nb13  1  0.42499700  0.62310400  0.87075000  1
  Nb  Nb14  1  0.92499700  0.37689600  0.62925000  1
  Nb  Nb15  1  0.92499700  0.87689600  0.87075000  1
  Se  Se0  1  0.77542500  0.80372200  0.78094500  1
  Se  Se1  1  0.76787300  0.97415500  0.52359300  1
  Se  Se2  1  0.07500900  0.36249100  0.82716900  1
  Se  Se3  1  0.22457500  0.69627800  0.28094500  1
  Se  Se4  1  0.66831700  0.01205400  0.35452100  1
  Se  Se5  1  0.77687000  0.88768100  0.18275100  1
  Se  Se6  1  0.72457500  0.30372200  0.21905500  1
  Se  Se7  1  0.19937700  0.15044900  0.02898800  1
  Se  Se8  1  0.40396500  0.78065300  0.88581800  1
  Se  Se9  1  0.44733700  0.52188100  0.76448000  1
  Se  Se10  1  0.92499100  0.13750900  0.32716900  1
  Se  Se11  1  0.91897200  0.42983300  0.93369900  1
  Se  Se12  1  0.83168300  0.01205400  0.85452100  1
  Se  Se13  1  0.94733700  0.47811900  0.73552000  1
  Se  Se14  1  0.06673000  0.40482400  0.56419500  1
  Se  Se15  1  0.58102800  0.92983300  0.06630100  1
  Se  Se16  1  0.19937700  0.65044900  0.47101200  1
  Se  Se17  1  0.23212700  0.52584500  0.02359300  1
  Se  Se18  1  0.40396500  0.28065300  0.61418200  1
  Se  Se19  1  0.27687000  0.11231900  0.31724900  1
  Se  Se20  1  0.41897200  0.07016700  0.93369900  1
  Se  Se21  1  0.48971200  0.77651700  0.27765400  1
  Se  Se22  1  0.33168300  0.48794600  0.85452100  1
  Se  Se23  1  0.91897200  0.92983300  0.56630100  1
  Se  Se24  1  0.73212700  0.47415500  0.47640700  1
  Se  Se25  1  0.93327000  0.59517600  0.43580500  1
  Se  Se26  1  0.26787300  0.02584500  0.97640700  1
  Se  Se27  1  0.43327000  0.90482400  0.43580500  1
  Se  Se28  1  0.27542500  0.69627800  0.78094500  1
  Se  Se29  1  0.05266300  0.52188100  0.26448000  1
  Se  Se30  1  0.55266300  0.47811900  0.23552000  1
  Se  Se31  1  0.30062300  0.65044900  0.97101200  1
  Se  Se32  1  0.26787300  0.52584500  0.52359300  1
  Se  Se33  1  0.08102800  0.07016700  0.43369900  1
  Se  Se34  1  0.07500900  0.86249100  0.67283100  1
  Se  Se35  1  0.72313000  0.38768100  0.81724900  1
  Se  Se36  1  0.22313000  0.11231900  0.81724900  1
  Se  Se37  1  0.48971200  0.27651700  0.22234600  1
  Se  Se38  1  0.33168300  0.98794600  0.64547900  1
  Se  Se39  1  0.90396500  0.71934700  0.88581800  1
  Se  Se40  1  0.01028800  0.77651700  0.77765400  1
  Se  Se41  1  0.01028800  0.27651700  0.72234600  1
  Se  Se42  1  0.76787300  0.47415500  0.97640700  1
  Se  Se43  1  0.22457500  0.19627800  0.21905500  1
  Se  Se44  1  0.59603500  0.71934700  0.38581800  1
  Se  Se45  1  0.72457500  0.80372200  0.28094500  1
  Se  Se46  1  0.41897200  0.57016700  0.56630100  1
  Se  Se47  1  0.73212700  0.97415500  0.02359300  1
  Se  Se48  1  0.09603500  0.28065300  0.11418200  1
  Se  Se49  1  0.27542500  0.19627800  0.71905500  1
  Se  Se50  1  0.69937700  0.34955100  0.02898800  1
  Se  Se51  1  0.44733700  0.02188100  0.73552000  1
  Se  Se52  1  0.98971200  0.72348300  0.27765400  1
  Se  Se53  1  0.30062300  0.15044900  0.52898800  1
  Se  Se54  1  0.51028800  0.22348300  0.72234600  1
  Se  Se55  1  0.56673000  0.59517600  0.93580500  1
  Se  Se56  1  0.55266300  0.97811900  0.26448000  1
  Se  Se57  1  0.51028800  0.72348300  0.77765400  1
  Se  Se58  1  0.77542500  0.30372200  0.71905500  1
  Se  Se59  1  0.69937700  0.84955100  0.47101200  1
  Se  Se60  1  0.05266300  0.02188100  0.23552000  1
  Se  Se61  1  0.27687000  0.61231900  0.18275100  1
  Se  Se62  1  0.23212700  0.02584500  0.47640700  1
  Se  Se63  1  0.22313000  0.61231900  0.68275100  1
  Se  Se64  1  0.93327000  0.09517600  0.06419500  1
  Se  Se65  1  0.83168300  0.51205400  0.64547900  1
  Se  Se66  1  0.16831700  0.98794600  0.14547900  1
  Se  Se67  1  0.77687000  0.38768100  0.31724900  1
  Se  Se68  1  0.58102800  0.42983300  0.43369900  1
  Se  Se69  1  0.06673000  0.90482400  0.93580500  1
  Se  Se70  1  0.42499100  0.86249100  0.17283100  1
  Se  Se71  1  0.72313000  0.88768100  0.68275100  1
  Se  Se72  1  0.42499100  0.36249100  0.32716900  1
  Se  Se73  1  0.57500900  0.13750900  0.82716900  1
  Se  Se74  1  0.56673000  0.09517600  0.56419500  1
  Se  Se75  1  0.57500900  0.63750900  0.67283100  1
  Se  Se76  1  0.80062300  0.34955100  0.52898800  1
  Se  Se77  1  0.98971200  0.22348300  0.22234600  1
  Se  Se78  1  0.08102800  0.57016700  0.06630100  1
  Se  Se79  1  0.92499100  0.63750900  0.17283100  1
  Se  Se80  1  0.59603500  0.21934700  0.11418200  1
  Se  Se81  1  0.66831700  0.51205400  0.14547900  1
  Se  Se82  1  0.43327000  0.40482400  0.06419500  1
  Se  Se83  1  0.90396500  0.21934700  0.61418200  1
  Se  Se84  1  0.09603500  0.78065300  0.38581800  1
  Se  Se85  1  0.80062300  0.84955100  0.97101200  1
  Se  Se86  1  0.94733700  0.97811900  0.76448000  1
  Se  Se87  1  0.16831700  0.48794600  0.35452100  1
  O  O0  1  0.61611100  0.73547000  0.12659400  1
  O  O1  1  0.38388900  0.26453000  0.87340600  1
  O  O2  1  0.11611100  0.76453000  0.12659400  1
  O  O3  1  0.11611100  0.26453000  0.37340600  1
  O  O4  1  0.88388900  0.73547000  0.62659400  1
  O  O5  1  0.38388900  0.76453000  0.62659400  1
  O  O6  1  0.61611100  0.23547000  0.37340600  1
  O  O7  1  0.88388900  0.23547000  0.87340600  1
loop_
_geom_bond_atom_site_label_1
_geom_bond_atom_site_label_2
_geom_bond_distance
_geom_bond_site_symmetry_2
K0 Se36 3.374984 1_565
K0 Se34 3.439513 1_555
K0 Se69 3.449537 1_555
K0 Se8 3.528001 1_555
K0 Se28 3.534448 1_555
K0 Se38 3.560705 1_555
K0 Se51 3.774678 1_565
K0 Se26 3.835564 1_565
K0 Se40 3.860827 1_555
K1 O3 2.725296 1_655
K1 Se67 3.291928 1_555
K1 Se14 3.320551 1_655
K1 Se87 3.409737 1_655
K1 Se76 3.465346 1_555
K1 Se25 3.720701 1_555
K1 Se29 3.745762 1_655
K2 O4 2.637446 1_555
K2 Se59 3.278463 1_555
K2 Se75 3.460582 1_555
K2 Se65 3.467892 1_555
K2 Se24 3.566841 1_555
K2 Se25 3.621167 1_555
K2 Se44 3.810361 1_555
K3 O3 2.637446 1_555
K3 Se53 3.278463 1_555
K3 Se72 3.460582 1_555
K3 Se87 3.467892 1_555
K3 Se32 3.566841 1_555
K3 Se14 3.621167 1_555
K3 Se18 3.810361 1_555
K4 Se67 3.374984 1_555
K4 Se79 3.439513 1_555
K4 Se25 3.449537 1_555
K4 Se44 3.528001 1_555
K4 Se45 3.534448 1_555
K4 Se81 3.560705 1_555
K4 Se30 3.774678 1_555
K4 Se24 3.835564 1_555
K4 Se52 3.860827 1_555
K5 O5 2.725296 1_555
K5 Se71 3.291928 1_555
K5 Se27 3.320551 1_555
K5 Se38 3.409737 1_555
K5 Se59 3.465346 1_555
K5 Se74 3.720701 1_565
K5 Se51 3.745762 1_565
K6 O7 2.725296 1_455
K6 Se36 3.291928 1_555
K6 Se64 3.320551 1_456
K6 Se12 3.409737 1_455
K6 Se7 3.465346 1_556
K6 Se69 3.720701 1_545
K6 Se86 3.745762 1_445
K7 O7 2.637446 1_555
K7 Se50 3.278463 1_556
K7 Se73 3.460582 1_555
K7 Se12 3.467892 1_555
K7 Se47 3.566841 1_546
K7 Se64 3.621167 1_556
K7 Se80 3.810361 1_556
K8 Se5 3.374984 1_545
K8 Se10 3.439513 1_555
K8 Se64 3.449537 1_555
K8 Se80 3.528001 1_555
K8 Se6 3.534448 1_555
K8 Se4 3.560705 1_555
K8 Se56 3.774678 1_545
K8 Se47 3.835564 1_545
K8 Se77 3.860827 1_555
K9 O4 2.725296 1_455
K9 Se63 3.291928 1_555
K9 Se25 3.320551 1_455
K9 Se65 3.409737 1_455
K9 Se16 3.465346 1_555
K9 Se14 3.720701 1_555
K9 Se13 3.745762 1_455
K10 Se19 3.374984 1_565
K10 Se70 3.439513 1_555
K10 Se27 3.449537 1_555
K10 Se84 3.528001 1_555
K10 Se3 3.534448 1_555
K10 Se66 3.560705 1_555
K10 Se60 3.774678 1_565
K10 Se62 3.835564 1_565
K10 Se21 3.860827 1_555
K11 Se83 3.502843 1_455
K11 Se62 3.513502 1_555
K11 Se53 3.567379 1_555
K11 Se33 3.600487 1_555
K11 Se49 3.629080 1_555
K11 Se23 3.714385 1_445
K11 Se38 3.715747 1_545
K11 Se34 3.770777 1_545
K11 Se86 3.830572 1_445
K11 Se41 3.868945 1_555
K12 Se18 3.502843 1_555
K12 Se24 3.513502 1_555
K12 Se76 3.567379 1_555
K12 Se68 3.600487 1_555
K12 Se58 3.629080 1_555
K12 Se46 3.714385 1_555
K12 Se65 3.715747 1_555
K12 Se75 3.770777 1_555
K12 Se9 3.830572 1_555
K12 Se54 3.868945 1_555
K13 Se80 3.502843 1_555
K13 Se26 3.513502 1_554
K13 Se7 3.567379 1_555
K13 Se20 3.600487 1_554
K13 Se43 3.629080 1_555
K13 Se15 3.714385 1_545
K13 Se66 3.715747 1_545
K13 Se70 3.770777 1_545
K13 Se56 3.830572 1_545
K13 Se37 3.868945 1_555
K14 O1 2.725296 1_555
K14 Se35 3.291928 1_555
K14 Se82 3.320551 1_556
K14 Se22 3.409737 1_555
K14 Se50 3.465346 1_556
K14 Se55 3.720701 1_555
K14 Se9 3.745762 1_555
K15 O6 2.637446 1_555
K15 Se76 3.278463 1_555
K15 Se10 3.460582 1_555
K15 Se4 3.467892 1_555
K15 Se1 3.566841 1_545
K15 Se74 3.621167 1_555
K15 Se83 3.810361 1_555
K16 O0 2.637446 1_555
K16 Se85 3.278463 1_554
K16 Se79 3.460582 1_555
K16 Se81 3.467892 1_555
K16 Se42 3.566841 1_554
K16 Se55 3.621167 1_554
K16 Se39 3.810361 1_554
K17 Se61 3.374984 1_555
K17 Se72 3.439513 1_555
K17 Se82 3.449537 1_555
K17 Se48 3.528001 1_555
K17 Se43 3.534448 1_555
K17 Se87 3.560705 1_555
K17 Se29 3.774678 1_555
K17 Se17 3.835564 1_555
K17 Se37 3.860827 1_555
K18 O2 2.637446 1_555
K18 Se31 3.278463 1_554
K18 Se70 3.460582 1_555
K18 Se66 3.467892 1_555
K18 Se26 3.566841 1_564
K18 Se69 3.621167 1_554
K18 Se8 3.810361 1_554
K19 Se48 3.502843 1_655
K19 Se42 3.513502 1_554
K19 Se50 3.567379 1_555
K19 Se11 3.600487 1_554
K19 Se6 3.629080 1_555
K19 Se78 3.714385 1_655
K19 Se81 3.715747 1_555
K19 Se79 3.770777 1_555
K19 Se29 3.830572 1_655
K19 Se77 3.868945 1_555
K20 O5 2.637446 1_555
K20 Se16 3.278463 1_555
K20 Se34 3.460582 1_555
K20 Se38 3.467892 1_555
K20 Se62 3.566841 1_565
K20 Se27 3.621167 1_555
K20 Se84 3.810361 1_555
K21 O6 2.725296 1_555
K21 Se19 3.291928 1_555
K21 Se74 3.320551 1_555
K21 Se4 3.409737 1_555
K21 Se53 3.465346 1_555
K21 Se27 3.720701 1_545
K21 Se56 3.745762 1_545
K22 Se84 3.502843 1_655
K22 Se1 3.513502 1_555
K22 Se59 3.567379 1_555
K22 Se23 3.600487 1_555
K22 Se45 3.629080 1_555
K22 Se33 3.714385 1_665
K22 Se4 3.715747 1_565
K22 Se10 3.770777 1_565
K22 Se60 3.830572 1_665
K22 Se52 3.868945 1_555
K23 O2 2.725296 1_655
K23 Se5 3.291928 1_555
K23 Se69 3.320551 1_654
K23 Se66 3.409737 1_655
K23 Se85 3.465346 1_554
K23 Se64 3.720701 1_565
K23 Se60 3.745762 1_665
K24 Se71 3.374984 1_545
K24 Se73 3.439513 1_555
K24 Se74 3.449537 1_555
K24 Se83 3.528001 1_555
K24 Se58 3.534448 1_555
K24 Se12 3.560705 1_555
K24 Se86 3.774678 1_545
K24 Se1 3.835564 1_545
K24 Se54 3.860827 1_555
K25 O0 2.725296 1_555
K25 Se61 3.291928 1_555
K25 Se55 3.320551 1_554
K25 Se81 3.409737 1_555
K25 Se31 3.465346 1_554
K25 Se82 3.720701 1_555
K25 Se30 3.745762 1_555
K26 Se39 3.502843 1_455
K26 Se17 3.513502 1_556
K26 Se31 3.567379 1_555
K26 Se78 3.600487 1_556
K26 Se28 3.629080 1_555
K26 Se11 3.714385 1_455
K26 Se22 3.715747 1_555
K26 Se2 3.770777 1_555
K26 Se13 3.830572 1_455
K26 Se40 3.868945 1_555
K27 O1 2.637446 1_555
K27 Se7 3.278463 1_556
K27 Se2 3.460582 1_555
K27 Se22 3.467892 1_555
K27 Se17 3.566841 1_556
K27 Se82 3.621167 1_556
K27 Se48 3.810361 1_556
K28 Se35 3.374984 1_555
K28 Se75 3.439513 1_555
K28 Se55 3.449537 1_555
K28 Se39 3.528001 1_555
K28 Se0 3.534448 1_555
K28 Se65 3.560705 1_555
K28 Se13 3.774678 1_555
K28 Se42 3.835564 1_555
K28 Se57 3.860827 1_555
K29 Se8 3.502843 1_555
K29 Se47 3.513502 1_556
K29 Se85 3.567379 1_555
K29 Se15 3.600487 1_556
K29 Se0 3.629080 1_555
K29 Se20 3.714385 1_565
K29 Se12 3.715747 1_565
K29 Se73 3.770777 1_565
K29 Se51 3.830572 1_565
K29 Se57 3.868945 1_555
K30 Se44 3.502843 1_555
K30 Se32 3.513502 1_555
K30 Se16 3.567379 1_555
K30 Se46 3.600487 1_555
K30 Se3 3.629080 1_555
K30 Se68 3.714385 1_555
K30 Se87 3.715747 1_555
K30 Se72 3.770777 1_555
K30 Se30 3.830572 1_555
K30 Se21 3.868945 1_555
K31 Se63 3.374984 1_555
K31 Se2 3.439513 1_555
K31 Se14 3.449537 1_555
K31 Se18 3.528001 1_555
K31 Se49 3.534448 1_555
K31 Se22 3.560705 1_555
K31 Se9 3.774678 1_555
K31 Se32 3.835564 1_555
K31 Se41 3.860827 1_555
Nb0 O3 1.781592 1_555
Nb0 Se19 2.599345 1_555
Nb0 Se43 2.628654 1_555
Nb0 Se10 2.633548 1_455
Nb0 Se77 2.681163 1_455
Nb0 Se33 2.693105 1_555
Nb0 Se60 3.083324 1_555
Nb1 O2 1.781592 1_555
Nb1 Se61 2.599345 1_555
Nb1 Se3 2.628654 1_555
Nb1 Se79 2.633548 1_455
Nb1 Se52 2.681163 1_455
Nb1 Se78 2.693105 1_555
Nb1 Se29 3.083324 1_555
Nb2 O6 1.781592 1_555
Nb2 Se67 2.599345 1_555
Nb2 Se6 2.628654 1_555
Nb2 Se72 2.633548 1_555
Nb2 Se37 2.681163 1_555
Nb2 Se68 2.693105 1_555
Nb2 Se30 3.083324 1_555
Nb3 Se25 2.397238 1_455
Nb3 Se87 2.597080 1_555
Nb3 Se84 2.615886 1_555
Nb3 Se16 2.629201 1_555
Nb3 Se29 2.631228 1_555
Nb3 Se52 2.698976 1_455
Nb3 Se3 2.968772 1_555
Nb4 Se74 2.397238 1_555
Nb4 Se38 2.597080 1_545
Nb4 Se18 2.615886 1_555
Nb4 Se53 2.629201 1_555
Nb4 Se51 2.631228 1_555
Nb4 Se54 2.698976 1_555
Nb4 Se49 2.968772 1_555
Nb5 O4 1.781592 1_555
Nb5 Se71 2.599345 1_555
Nb5 Se0 2.628654 1_555
Nb5 Se34 2.633548 1_655
Nb5 Se40 2.681163 1_655
Nb5 Se23 2.693105 1_555
Nb5 Se86 3.083324 1_555
Nb6 Se82 2.397238 1_555
Nb6 Se81 2.597080 1_555
Nb6 Se80 2.615886 1_555
Nb6 Se50 2.629201 1_555
Nb6 Se30 2.631228 1_555
Nb6 Se37 2.698976 1_555
Nb6 Se6 2.968772 1_555
Nb7 O0 1.781592 1_555
Nb7 Se5 2.599345 1_555
Nb7 Se45 2.628654 1_555
Nb7 Se70 2.633548 1_555
Nb7 Se21 2.681163 1_555
Nb7 Se15 2.693105 1_555
Nb7 Se56 3.083324 1_555
Nb8 Se64 2.397238 1_455
Nb8 Se66 2.597080 1_545
Nb8 Se48 2.615886 1_555
Nb8 Se7 2.629201 1_555
Nb8 Se60 2.631228 1_555
Nb8 Se77 2.698976 1_455
Nb8 Se43 2.968772 1_555
Nb9 O7 1.781592 1_555
Nb9 Se35 2.599345 1_555
Nb9 Se58 2.628654 1_555
Nb9 Se2 2.633548 1_655
Nb9 Se41 2.681163 1_655
Nb9 Se11 2.693105 1_555
Nb9 Se13 3.083324 1_555
Nb10 O5 1.781592 1_555
Nb10 Se63 2.599345 1_555
Nb10 Se28 2.628654 1_555
Nb10 Se75 2.633548 1_555
Nb10 Se57 2.681163 1_555
Nb10 Se46 2.693105 1_555
Nb10 Se9 3.083324 1_555
Nb11 Se27 2.397238 1_555
Nb11 Se4 2.597080 1_565
Nb11 Se44 2.615886 1_555
Nb11 Se59 2.629201 1_555
Nb11 Se56 2.631228 1_555
Nb11 Se21 2.698976 1_555
Nb11 Se45 2.968772 1_555
Nb12 O1 1.781592 1_555
Nb12 Se36 2.599345 1_555
Nb12 Se49 2.628654 1_555
Nb12 Se73 2.633548 1_555
Nb12 Se54 2.681163 1_555
Nb12 Se20 2.693105 1_555
Nb12 Se51 3.083324 1_555
Nb13 Se55 2.397238 1_555
Nb13 Se22 2.597080 1_555
Nb13 Se8 2.615886 1_555
Nb13 Se31 2.629201 1_555
Nb13 Se9 2.631228 1_555
Nb13 Se57 2.698976 1_555
Nb13 Se28 2.968772 1_555
Nb14 Se14 2.397238 1_655
Nb14 Se65 2.597080 1_555
Nb14 Se83 2.615886 1_555
Nb14 Se76 2.629201 1_555
Nb14 Se13 2.631228 1_555
Nb14 Se41 2.698976 1_655
Nb14 Se58 2.968772 1_555
Nb15 Se69 2.397238 1_655
Nb15 Se12 2.597080 1_565
Nb15 Se39 2.615886 1_555
Nb15 Se85 2.629201 1_555
Nb15 Se86 2.631228 1_555
Nb15 Se40 2.698976 1_655
Nb15 Se0 2.968772 1_555
Se0 Se71 2.432173 1_555
Se0 Se39 3.029315 1_555
Se1 Se23 2.396917 1_555
Se1 Se59 2.471253 1_555
Se2 Se41 2.604390 1_555
Se3 Se61 2.432173 1_555
Se3 Se84 3.029315 1_555
Se4 Se56 2.429477 1_545
Se6 Se67 2.432173 1_555
Se6 Se80 3.029315 1_555
Se10 Se77 2.604390 1_555
Se11 Se42 2.396917 1_555
Se12 Se86 2.429477 1_545
Se13 Se65 2.429477 1_555
Se15 Se47 2.396917 1_555
Se16 Se32 2.471253 1_555
Se16 Se84 3.050515 1_555
Se17 Se78 2.396917 1_555
Se17 Se31 2.471253 1_554
Se18 Se54 2.711466 1_555
Se18 Se49 3.029315 1_555
Se18 Se53 3.050515 1_555
Se19 Se43 2.432173 1_555
Se20 Se26 2.396917 1_555
Se21 Se70 2.604390 1_555
Se21 Se44 2.711466 1_555
Se22 Se9 2.429477 1_555
Se24 Se68 2.396917 1_555
Se24 Se76 2.471253 1_555
Se26 Se7 2.471253 1_556
Se28 Se63 2.432173 1_555
Se28 Se8 3.029315 1_555
Se29 Se87 2.429477 1_555
Se30 Se81 2.429477 1_555
Se31 Se8 3.050515 1_555
Se32 Se46 2.396917 1_555
Se33 Se62 2.396917 1_555
Se34 Se40 2.604390 1_555
Se35 Se58 2.432173 1_555
Se36 Se49 2.432173 1_555
Se37 Se72 2.604390 1_555
Se37 Se80 2.711466 1_555
Se38 Se51 2.429477 1_565
Se39 Se40 2.711466 1_655
Se39 Se85 3.050515 1_555
Se41 Se83 2.711466 1_455
Se42 Se50 2.471253 1_556
Se43 Se48 3.029315 1_555
Se44 Se45 3.029315 1_555
Se44 Se59 3.050515 1_555
Se45 Se5 2.432173 1_555
Se47 Se85 2.471253 1_554
Se48 Se77 2.711466 1_455
Se48 Se7 3.050515 1_555
Se50 Se80 3.050515 1_555
Se52 Se79 2.604390 1_555
Se52 Se84 2.711466 1_655
Se53 Se62 2.471253 1_555
Se54 Se73 2.604390 1_555
Se57 Se75 2.604390 1_555
Se57 Se8 2.711466 1_555
Se58 Se83 3.029315 1_555
Se60 Se66 2.429477 1_545
Se76 Se83 3.050515 1_555
