# generated using pymatgen
data_Pr3(AgSn)4
_symmetry_space_group_name_H-M   'P 1'
_cell_length_a   20.66006693
_cell_length_b   20.66006693
_cell_length_c   20.66006693
_cell_angle_alpha   159.17234279
_cell_angle_beta   128.86452307
_cell_angle_gamma   55.79640916
_symmetry_Int_Tables_number   1
_chemical_formula_structural   Pr3(AgSn)4
_chemical_formula_sum   'Pr24 Ag32 Sn32'
_cell_volume   2431.93887070
_cell_formula_units_Z   8
loop_
 _symmetry_equiv_pos_site_id
 _symmetry_equiv_pos_as_xyz
  1  'x, y, z'
loop_
 _atom_site_type_symbol
 _atom_site_label
 _atom_site_symmetry_multiplicity
 _atom_site_fract_x
 _atom_site_fract_y
 _atom_site_fract_z
 _atom_site_occupancy
  Pr  Pr0_0  1  0.08446300  0.33446300  0.25000000  1
  Pr  Pr0_1  1  0.08446300  0.33446300  0.75000000  1
  Pr  Pr0_2  1  0.08446300  0.83446300  0.25000000  1
  Pr  Pr0_3  1  0.08446300  0.83446300  0.75000000  1
  Pr  Pr0_4  1  0.58446300  0.33446300  0.25000000  1
  Pr  Pr0_5  1  0.58446300  0.33446300  0.75000000  1
  Pr  Pr0_6  1  0.58446300  0.83446300  0.25000000  1
  Pr  Pr0_7  1  0.58446300  0.83446300  0.75000000  1
  Pr  Pr1_0  1  0.25000000  0.25000000  0.00000000  1
  Pr  Pr1_1  1  0.25000000  0.25000000  0.50000000  1
  Pr  Pr1_2  1  0.25000000  0.75000000  0.00000000  1
  Pr  Pr1_3  1  0.25000000  0.75000000  0.50000000  1
  Pr  Pr1_4  1  0.75000000  0.25000000  0.00000000  1
  Pr  Pr1_5  1  0.75000000  0.25000000  0.50000000  1
  Pr  Pr1_6  1  0.75000000  0.75000000  0.00000000  1
  Pr  Pr1_7  1  0.75000000  0.75000000  0.50000000  1
  Pr  Pr2_0  1  0.41553700  0.16553700  0.25000000  1
  Pr  Pr2_1  1  0.41553700  0.16553700  0.75000000  1
  Pr  Pr2_2  1  0.41553700  0.66553700  0.25000000  1
  Pr  Pr2_3  1  0.41553700  0.66553700  0.75000000  1
  Pr  Pr2_4  1  0.91553700  0.16553700  0.25000000  1
  Pr  Pr2_5  1  0.91553700  0.16553700  0.75000000  1
  Pr  Pr2_6  1  0.91553700  0.66553700  0.25000000  1
  Pr  Pr2_7  1  0.91553700  0.66553700  0.75000000  1
  Ag  Ag0_0  1  0.20065050  0.05789450  0.14275600  1
  Ag  Ag0_1  1  0.20065050  0.05789450  0.64275600  1
  Ag  Ag0_2  1  0.20065050  0.55789450  0.14275600  1
  Ag  Ag0_3  1  0.20065050  0.55789450  0.64275600  1
  Ag  Ag0_4  1  0.70065050  0.05789450  0.14275600  1
  Ag  Ag0_5  1  0.70065050  0.05789450  0.64275600  1
  Ag  Ag0_6  1  0.70065050  0.55789450  0.14275600  1
  Ag  Ag0_7  1  0.70065050  0.55789450  0.64275600  1
  Ag  Ag1_0  1  0.08486150  0.44210550  0.14275600  1
  Ag  Ag1_1  1  0.08486150  0.44210550  0.64275600  1
  Ag  Ag1_2  1  0.08486150  0.94210550  0.14275600  1
  Ag  Ag1_3  1  0.08486150  0.94210550  0.64275600  1
  Ag  Ag1_4  1  0.58486150  0.44210550  0.14275600  1
  Ag  Ag1_5  1  0.58486150  0.44210550  0.64275600  1
  Ag  Ag1_6  1  0.58486150  0.94210550  0.14275600  1
  Ag  Ag1_7  1  0.58486150  0.94210550  0.64275600  1
  Ag  Ag2_0  1  0.41513850  0.05789450  0.35724400  1
  Ag  Ag2_1  1  0.41513850  0.05789450  0.85724400  1
  Ag  Ag2_2  1  0.41513850  0.55789450  0.35724400  1
  Ag  Ag2_3  1  0.41513850  0.55789450  0.85724400  1
  Ag  Ag2_4  1  0.91513850  0.05789450  0.35724400  1
  Ag  Ag2_5  1  0.91513850  0.05789450  0.85724400  1
  Ag  Ag2_6  1  0.91513850  0.55789450  0.35724400  1
  Ag  Ag2_7  1  0.91513850  0.55789450  0.85724400  1
  Ag  Ag3_0  1  0.29934950  0.44210550  0.35724400  1
  Ag  Ag3_1  1  0.29934950  0.44210550  0.85724400  1
  Ag  Ag3_2  1  0.29934950  0.94210550  0.35724400  1
  Ag  Ag3_3  1  0.29934950  0.94210550  0.85724400  1
  Ag  Ag3_4  1  0.79934950  0.44210550  0.35724400  1
  Ag  Ag3_5  1  0.79934950  0.44210550  0.85724400  1
  Ag  Ag3_6  1  0.79934950  0.94210550  0.35724400  1
  Ag  Ag3_7  1  0.79934950  0.94210550  0.85724400  1
  Sn  Sn0_0  1  0.15823050  0.15823050  0.00000000  1
  Sn  Sn0_1  1  0.15823050  0.15823050  0.50000000  1
  Sn  Sn0_2  1  0.15823050  0.65823050  0.00000000  1
  Sn  Sn0_3  1  0.15823050  0.65823050  0.50000000  1
  Sn  Sn0_4  1  0.65823050  0.15823050  0.00000000  1
  Sn  Sn0_5  1  0.65823050  0.15823050  0.50000000  1
  Sn  Sn0_6  1  0.65823050  0.65823050  0.00000000  1
  Sn  Sn0_7  1  0.65823050  0.65823050  0.50000000  1
  Sn  Sn1_0  1  0.42223750  0.25000000  0.17223750  1
  Sn  Sn1_1  1  0.42223750  0.25000000  0.67223750  1
  Sn  Sn1_2  1  0.42223750  0.75000000  0.17223750  1
  Sn  Sn1_3  1  0.42223750  0.75000000  0.67223750  1
  Sn  Sn1_4  1  0.92223750  0.25000000  0.17223750  1
  Sn  Sn1_5  1  0.92223750  0.25000000  0.67223750  1
  Sn  Sn1_6  1  0.92223750  0.75000000  0.17223750  1
  Sn  Sn1_7  1  0.92223750  0.75000000  0.67223750  1
  Sn  Sn2_0  1  0.34176950  0.34176950  0.00000000  1
  Sn  Sn2_1  1  0.34176950  0.34176950  0.50000000  1
  Sn  Sn2_2  1  0.34176950  0.84176950  0.00000000  1
  Sn  Sn2_3  1  0.34176950  0.84176950  0.50000000  1
  Sn  Sn2_4  1  0.84176950  0.34176950  0.00000000  1
  Sn  Sn2_5  1  0.84176950  0.34176950  0.50000000  1
  Sn  Sn2_6  1  0.84176950  0.84176950  0.00000000  1
  Sn  Sn2_7  1  0.84176950  0.84176950  0.50000000  1
  Sn  Sn3_0  1  0.07776250  0.25000000  0.32776250  1
  Sn  Sn3_1  1  0.07776250  0.25000000  0.82776250  1
  Sn  Sn3_2  1  0.07776250  0.75000000  0.32776250  1
  Sn  Sn3_3  1  0.07776250  0.75000000  0.82776250  1
  Sn  Sn3_4  1  0.57776250  0.25000000  0.32776250  1
  Sn  Sn3_5  1  0.57776250  0.25000000  0.82776250  1
  Sn  Sn3_6  1  0.57776250  0.75000000  0.32776250  1
  Sn  Sn3_7  1  0.57776250  0.75000000  0.82776250  1
loop_
_geom_bond_atom_site_label_1
_geom_bond_atom_site_label_2
_geom_bond_distance
_geom_bond_site_symmetry_2
Pr0_0 Sn0_3 3.277692 1_555
Pr0_0 Sn0_0 3.277692 1_555
Pr0_0 Sn1_4 3.381807 1_455
Pr0_0 Sn3_0 3.381807 1_555
Pr0_0 Pr0_3 3.734442 1_555
Pr0_0 Pr0_3 3.734442 1_544
Pr0_1 Sn0_1 3.277692 1_555
Pr0_1 Sn0_2 3.277692 1_556
Pr0_1 Sn1_5 3.381807 1_455
Pr0_1 Sn3_1 3.381807 1_555
Pr0_1 Pr0_2 3.734442 1_556
Pr0_1 Pr0_2 3.734442 1_545
Pr0_2 Sn0_2 3.277692 1_555
Pr0_2 Sn0_1 3.277692 1_565
Pr0_2 Sn3_2 3.381807 1_555
Pr0_2 Sn1_6 3.381807 1_455
Pr0_3 Sn0_3 3.277692 1_555
Pr0_3 Sn0_0 3.277692 1_566
Pr0_3 Sn3_3 3.381807 1_555
Pr0_3 Sn1_7 3.381807 1_455
Pr0_4 Sn0_7 3.277692 1_555
Pr0_4 Sn0_4 3.277692 1_555
Pr0_4 Sn1_0 3.381807 1_555
Pr0_4 Sn3_4 3.381807 1_555
Pr0_4 Pr0_7 3.734442 1_555
Pr0_4 Pr0_7 3.734442 1_544
Pr0_5 Sn0_6 3.277692 1_556
Pr0_5 Sn0_5 3.277692 1_555
Pr0_5 Sn3_5 3.381807 1_555
Pr0_5 Sn1_1 3.381807 1_555
Pr0_5 Pr0_6 3.734442 1_556
Pr0_5 Pr0_6 3.734442 1_545
Pr0_6 Sn0_5 3.277692 1_565
Pr0_6 Sn0_6 3.277692 1_555
Pr0_6 Sn1_2 3.381807 1_555
Pr0_6 Sn3_6 3.381807 1_555
Pr0_7 Sn0_7 3.277692 1_555
Pr0_7 Sn0_4 3.277692 1_566
Pr0_7 Sn3_7 3.381807 1_555
Pr0_7 Sn1_3 3.381807 1_555
Pr1_0 Sn3_1 3.071487 1_554
Pr1_0 Sn1_0 3.071487 1_555
Pr1_0 Sn0_0 3.351231 1_555
Pr1_0 Sn2_0 3.351231 1_555
Pr1_0 Pr1_3 3.734442 1_555
Pr1_0 Pr1_3 3.734442 1_544
Pr1_1 Sn3_0 3.071487 1_555
Pr1_1 Sn1_1 3.071487 1_555
Pr1_1 Sn0_1 3.351231 1_555
Pr1_1 Sn2_1 3.351231 1_555
Pr1_1 Pr1_2 3.734442 1_556
Pr1_1 Pr1_2 3.734442 1_545
Pr1_2 Sn3_3 3.071487 1_554
Pr1_2 Sn1_2 3.071487 1_555
Pr1_2 Sn0_2 3.351231 1_555
Pr1_2 Sn2_2 3.351231 1_555
Pr1_3 Sn3_2 3.071487 1_555
Pr1_3 Sn1_3 3.071487 1_555
Pr1_3 Sn2_3 3.351231 1_555
Pr1_3 Sn0_3 3.351231 1_555
Pr1_4 Sn1_4 3.071487 1_555
Pr1_4 Sn3_5 3.071487 1_554
Pr1_4 Sn0_4 3.351231 1_555
Pr1_4 Sn2_4 3.351231 1_555
Pr1_4 Pr1_7 3.734442 1_555
Pr1_4 Pr1_7 3.734442 1_544
Pr1_5 Sn3_4 3.071487 1_555
Pr1_5 Sn1_5 3.071487 1_555
Pr1_5 Sn2_5 3.351231 1_555
Pr1_5 Sn0_5 3.351231 1_555
Pr1_5 Pr1_6 3.734442 1_545
Pr1_5 Pr1_6 3.734442 1_556
Pr1_6 Sn3_7 3.071487 1_554
Pr1_6 Sn1_6 3.071487 1_555
Pr1_6 Sn0_6 3.351231 1_555
Pr1_6 Sn2_6 3.351231 1_555
Pr1_7 Sn1_7 3.071487 1_555
Pr1_7 Sn3_6 3.071487 1_555
Pr1_7 Sn0_7 3.351231 1_555
Pr1_7 Sn2_7 3.351231 1_555
Pr2_0 Sn2_2 3.277692 1_545
Pr2_0 Sn2_1 3.277692 1_555
Pr2_0 Sn3_4 3.381807 1_555
Pr2_0 Sn1_0 3.381807 1_555
Pr2_0 Pr2_3 3.734442 1_555
Pr2_0 Pr2_3 3.734442 1_544
Pr2_1 Sn2_0 3.277692 1_556
Pr2_1 Sn2_3 3.277692 1_545
Pr2_1 Sn1_1 3.381807 1_555
Pr2_1 Sn3_5 3.381807 1_555
Pr2_1 Pr2_2 3.734442 1_556
Pr2_1 Pr2_2 3.734442 1_545
Pr2_2 Sn2_0 3.277692 1_555
Pr2_2 Sn2_3 3.277692 1_555
Pr2_2 Sn1_2 3.381807 1_555
Pr2_2 Sn3_6 3.381807 1_555
Pr2_3 Sn2_2 3.277692 1_556
Pr2_3 Sn2_1 3.277692 1_555
Pr2_3 Sn3_7 3.381807 1_555
Pr2_3 Sn1_3 3.381807 1_555
Pr2_4 Sn2_5 3.277692 1_555
Pr2_4 Sn2_6 3.277692 1_545
Pr2_4 Sn3_0 3.381807 1_655
Pr2_4 Sn1_4 3.381807 1_555
Pr2_4 Pr2_7 3.734442 1_555
Pr2_4 Pr2_7 3.734442 1_544
Pr2_5 Sn2_4 3.277692 1_556
Pr2_5 Sn2_7 3.277692 1_545
Pr2_5 Sn3_1 3.381807 1_655
Pr2_5 Sn1_5 3.381807 1_555
Pr2_5 Pr2_6 3.734442 1_545
Pr2_5 Pr2_6 3.734442 1_556
Pr2_6 Sn2_4 3.277692 1_555
Pr2_6 Sn2_7 3.277692 1_555
Pr2_6 Sn1_6 3.381807 1_555
Pr2_6 Sn3_2 3.381807 1_655
Pr2_7 Sn2_5 3.277692 1_555
Pr2_7 Sn2_6 3.277692 1_556
Pr2_7 Sn1_7 3.381807 1_555
Pr2_7 Sn3_3 3.381807 1_655
Ag0_0 Sn2_1 2.945220 1_555
Ag0_0 Sn2_2 2.945220 1_545
Ag0_0 Sn3_0 3.049529 1_555
Ag0_0 Sn3_3 3.049529 1_544
Ag0_0 Pr0_3 3.302829 1_544
Ag0_0 Pr0_0 3.302829 1_555
Ag0_0 Pr1_1 3.407907 1_555
Ag0_0 Pr1_2 3.407907 1_545
Ag0_1 Sn2_3 2.945220 1_545
Ag0_1 Sn2_0 2.945220 1_556
Ag0_1 Sn3_1 3.049529 1_555
Ag0_1 Sn3_2 3.049529 1_545
Ag0_1 Pr0_2 3.302829 1_545
Ag0_1 Pr0_1 3.302829 1_555
Ag0_1 Pr1_0 3.407907 1_556
Ag0_1 Pr1_3 3.407907 1_545
Ag0_2 Sn2_0 2.945220 1_555
Ag0_2 Sn2_3 2.945220 1_555
Ag0_2 Sn3_1 3.049529 1_554
Ag0_2 Sn3_2 3.049529 1_555
Ag0_2 Pr0_2 3.302829 1_555
Ag0_2 Pr0_1 3.302829 1_554
Ag0_2 Pr1_0 3.407907 1_555
Ag0_2 Pr1_3 3.407907 1_555
Ag0_3 Sn2_1 2.945220 1_555
Ag0_3 Sn2_2 2.945220 1_556
Ag0_3 Sn3_3 3.049529 1_555
Ag0_3 Sn3_0 3.049529 1_555
Ag0_3 Pr0_3 3.302829 1_555
Ag0_3 Pr0_0 3.302829 1_555
Ag0_3 Pr1_1 3.407907 1_555
Ag0_3 Pr1_2 3.407907 1_556
Ag0_4 Sn2_6 2.945220 1_545
Ag0_4 Sn2_5 2.945220 1_555
Ag0_4 Sn3_4 3.049529 1_555
Ag0_4 Sn3_7 3.049529 1_544
Ag0_4 Pr0_7 3.302829 1_544
Ag0_4 Pr0_4 3.302829 1_555
Ag0_4 Pr1_5 3.407907 1_555
Ag0_4 Pr1_6 3.407907 1_545
Ag0_5 Sn2_7 2.945220 1_545
Ag0_5 Sn2_4 2.945220 1_556
Ag0_5 Sn3_5 3.049529 1_555
Ag0_5 Sn3_6 3.049529 1_545
Ag0_5 Pr0_5 3.302829 1_555
Ag0_5 Pr0_6 3.302829 1_545
Ag0_5 Pr1_4 3.407907 1_556
Ag0_5 Pr1_7 3.407907 1_545
Ag0_6 Sn2_7 2.945220 1_555
Ag0_6 Sn2_4 2.945220 1_555
Ag0_6 Sn3_5 3.049529 1_554
Ag0_6 Sn3_6 3.049529 1_555
Ag0_6 Pr0_5 3.302829 1_554
Ag0_6 Pr0_6 3.302829 1_555
Ag0_6 Pr1_4 3.407907 1_555
Ag0_6 Pr1_7 3.407907 1_555
Ag0_7 Sn2_5 2.945220 1_555
Ag0_7 Sn2_6 2.945220 1_556
Ag0_7 Sn3_4 3.049529 1_555
Ag0_7 Sn3_7 3.049529 1_555
Ag0_7 Pr0_7 3.302829 1_555
Ag0_7 Pr0_4 3.302829 1_555
Ag0_7 Pr1_5 3.407907 1_555
Ag0_7 Pr1_6 3.407907 1_556
Ag1_0 Sn0_3 2.945220 1_555
Ag1_0 Sn0_0 2.945220 1_555
Ag1_0 Sn3_2 3.049529 1_555
Ag1_0 Sn3_1 3.049529 1_554
Ag1_0 Pr2_6 3.302829 1_455
Ag1_0 Pr2_5 3.302829 1_454
Ag1_0 Pr1_3 3.407907 1_555
Ag1_0 Pr1_0 3.407907 1_555
Ag1_1 Sn0_2 2.945220 1_556
Ag1_1 Sn0_1 2.945220 1_555
Ag1_1 Sn3_3 3.049529 1_555
Ag1_1 Sn3_0 3.049529 1_555
Ag1_1 Pr2_7 3.302829 1_455
Ag1_1 Pr2_4 3.302829 1_455
Ag1_1 Pr1_2 3.407907 1_556
Ag1_1 Pr1_1 3.407907 1_555
Ag1_2 Sn0_1 2.945220 1_565
Ag1_2 Sn0_2 2.945220 1_555
Ag1_2 Sn3_0 3.049529 1_565
Ag1_2 Sn3_3 3.049529 1_554
Ag1_2 Pr2_4 3.302829 1_465
Ag1_2 Pr2_7 3.302829 1_454
Ag1_2 Pr1_1 3.407907 1_565
Ag1_2 Pr1_2 3.407907 1_555
Ag1_3 Sn0_0 2.945220 1_566
Ag1_3 Sn0_3 2.945220 1_555
Ag1_3 Sn3_2 3.049529 1_555
Ag1_3 Sn3_1 3.049529 1_565
Ag1_3 Pr2_5 3.302829 1_465
Ag1_3 Pr2_6 3.302829 1_455
Ag1_3 Pr1_0 3.407907 1_566
Ag1_3 Pr1_3 3.407907 1_555
Ag1_4 Sn0_7 2.945220 1_555
Ag1_4 Sn0_4 2.945220 1_555
Ag1_4 Sn3_6 3.049529 1_555
Ag1_4 Sn3_5 3.049529 1_554
Ag1_4 Pr2_2 3.302829 1_555
Ag1_4 Pr2_1 3.302829 1_554
Ag1_4 Pr1_7 3.407907 1_555
Ag1_4 Pr1_4 3.407907 1_555
Ag1_5 Sn0_6 2.945220 1_556
Ag1_5 Sn0_5 2.945220 1_555
Ag1_5 Sn3_7 3.049529 1_555
Ag1_5 Sn3_4 3.049529 1_555
Ag1_5 Pr2_3 3.302829 1_555
Ag1_5 Pr2_0 3.302829 1_555
Ag1_5 Pr1_6 3.407907 1_556
Ag1_5 Pr1_5 3.407907 1_555
Ag1_6 Sn0_5 2.945220 1_565
Ag1_6 Sn0_6 2.945220 1_555
Ag1_6 Sn3_4 3.049529 1_565
Ag1_6 Sn3_7 3.049529 1_554
Ag1_6 Pr2_0 3.302829 1_565
Ag1_6 Pr2_3 3.302829 1_554
Ag1_6 Pr1_6 3.407907 1_555
Ag1_6 Pr1_5 3.407907 1_565
Ag1_7 Sn0_4 2.945220 1_566
Ag1_7 Sn0_7 2.945220 1_555
Ag1_7 Sn3_6 3.049529 1_555
Ag1_7 Sn3_5 3.049529 1_565
Ag1_7 Pr2_1 3.302829 1_565
Ag1_7 Pr2_2 3.302829 1_555
Ag1_7 Pr1_4 3.407907 1_566
Ag1_7 Pr1_7 3.407907 1_555
Ag2_0 Sn2_1 2.945220 1_555
Ag2_0 Sn2_2 2.945220 1_545
Ag2_0 Sn1_1 3.049529 1_555
Ag2_0 Sn1_2 3.049529 1_545
Ag2_0 Pr0_6 3.302829 1_545
Ag2_0 Pr0_5 3.302829 1_555
Ag2_0 Pr1_1 3.407907 1_555
Ag2_0 Pr1_2 3.407907 1_545
Ag2_1 Sn2_3 2.945220 1_545
Ag2_1 Sn2_0 2.945220 1_556
Ag2_1 Sn1_0 3.049529 1_556
Ag2_1 Sn1_3 3.049529 1_545
Ag2_1 Pr0_4 3.302829 1_556
Ag2_1 Pr0_7 3.302829 1_545
Ag2_1 Pr1_0 3.407907 1_556
Ag2_1 Pr1_3 3.407907 1_545
Ag2_2 Sn2_3 2.945220 1_555
Ag2_2 Sn2_0 2.945220 1_555
Ag2_2 Sn1_0 3.049529 1_555
Ag2_2 Sn1_3 3.049529 1_555
Ag2_2 Pr0_4 3.302829 1_555
Ag2_2 Pr0_7 3.302829 1_555
Ag2_2 Pr1_0 3.407907 1_555
Ag2_2 Pr1_3 3.407907 1_555
Ag2_3 Sn2_1 2.945220 1_555
Ag2_3 Sn2_2 2.945220 1_556
Ag2_3 Sn1_1 3.049529 1_555
Ag2_3 Sn1_2 3.049529 1_556
Ag2_3 Pr0_5 3.302829 1_555
Ag2_3 Pr0_6 3.302829 1_556
Ag2_3 Pr1_2 3.407907 1_556
Ag2_3 Pr1_1 3.407907 1_555
Ag2_4 Sn2_6 2.945220 1_545
Ag2_4 Sn2_5 2.945220 1_555
Ag2_4 Sn1_5 3.049529 1_555
Ag2_4 Sn1_6 3.049529 1_545
Ag2_4 Pr0_1 3.302829 1_655
Ag2_4 Pr0_2 3.302829 1_645
Ag2_4 Pr1_5 3.407907 1_555
Ag2_4 Pr1_6 3.407907 1_545
Ag2_5 Sn2_7 2.945220 1_545
Ag2_5 Sn2_4 2.945220 1_556
Ag2_5 Sn1_4 3.049529 1_556
Ag2_5 Sn1_7 3.049529 1_545
Ag2_5 Pr0_0 3.302829 1_656
Ag2_5 Pr0_3 3.302829 1_645
Ag2_5 Pr1_4 3.407907 1_556
Ag2_5 Pr1_7 3.407907 1_545
Ag2_6 Sn2_7 2.945220 1_555
Ag2_6 Sn2_4 2.945220 1_555
Ag2_6 Sn1_4 3.049529 1_555
Ag2_6 Sn1_7 3.049529 1_555
Ag2_6 Pr0_0 3.302829 1_655
Ag2_6 Pr0_3 3.302829 1_655
Ag2_6 Pr1_4 3.407907 1_555
Ag2_6 Pr1_7 3.407907 1_555
Ag2_7 Sn2_6 2.945220 1_556
Ag2_7 Sn2_5 2.945220 1_555
Ag2_7 Sn1_5 3.049529 1_555
Ag2_7 Sn1_6 3.049529 1_556
Ag2_7 Pr0_1 3.302829 1_655
Ag2_7 Pr0_2 3.302829 1_656
Ag2_7 Pr1_5 3.407907 1_555
Ag2_7 Pr1_6 3.407907 1_556
Ag3_0 Sn0_0 2.945220 1_555
Ag3_0 Sn0_3 2.945220 1_555
Ag3_0 Sn1_3 3.049529 1_555
Ag3_0 Sn1_0 3.049529 1_555
Ag3_0 Pr2_0 3.302829 1_555
Ag3_0 Pr2_3 3.302829 1_555
Ag3_0 Pr1_3 3.407907 1_555
Ag3_0 Pr1_0 3.407907 1_555
Ag3_1 Sn0_1 2.945220 1_555
Ag3_1 Sn0_2 2.945220 1_556
Ag3_1 Sn1_2 3.049529 1_556
Ag3_1 Sn1_1 3.049529 1_555
Ag3_1 Pr2_1 3.302829 1_555
Ag3_1 Pr2_2 3.302829 1_556
Ag3_1 Pr1_2 3.407907 1_556
Ag3_1 Pr1_1 3.407907 1_555
Ag3_2 Sn0_1 2.945220 1_565
Ag3_2 Sn0_2 2.945220 1_555
Ag3_2 Sn1_2 3.049529 1_555
Ag3_2 Sn1_1 3.049529 1_565
Ag3_2 Pr2_1 3.302829 1_565
Ag3_2 Pr2_2 3.302829 1_555
Ag3_2 Pr1_2 3.407907 1_555
Ag3_2 Pr1_1 3.407907 1_565
Ag3_3 Sn0_0 2.945220 1_566
Ag3_3 Sn0_3 2.945220 1_555
Ag3_3 Sn1_3 3.049529 1_555
Ag3_3 Sn1_0 3.049529 1_566
Ag3_3 Pr2_0 3.302829 1_566
Ag3_3 Pr2_3 3.302829 1_555
Ag3_3 Pr1_3 3.407907 1_555
Ag3_3 Pr1_0 3.407907 1_566
Ag3_4 Sn0_7 2.945220 1_555
Ag3_4 Sn0_4 2.945220 1_555
Ag3_4 Sn1_7 3.049529 1_555
Ag3_4 Sn1_4 3.049529 1_555
Ag3_4 Pr2_4 3.302829 1_555
Ag3_4 Pr2_7 3.302829 1_555
Ag3_4 Pr1_7 3.407907 1_555
Ag3_4 Pr1_4 3.407907 1_555
Ag3_5 Sn0_5 2.945220 1_555
Ag3_5 Sn0_6 2.945220 1_556
Ag3_5 Sn1_6 3.049529 1_556
Ag3_5 Sn1_5 3.049529 1_555
Ag3_5 Pr2_5 3.302829 1_555
Ag3_5 Pr2_6 3.302829 1_556
Ag3_5 Pr1_6 3.407907 1_556
Ag3_5 Pr1_5 3.407907 1_555
Ag3_6 Sn0_6 2.945220 1_555
Ag3_6 Sn0_5 2.945220 1_565
Ag3_6 Sn1_6 3.049529 1_555
Ag3_6 Sn1_5 3.049529 1_565
Ag3_6 Pr2_5 3.302829 1_565
Ag3_6 Pr2_6 3.302829 1_555
Ag3_6 Pr1_6 3.407907 1_555
Ag3_6 Pr1_5 3.407907 1_565
Ag3_7 Sn0_7 2.945220 1_555
Ag3_7 Sn0_4 2.945220 1_566
Ag3_7 Sn1_7 3.049529 1_555
Ag3_7 Sn1_4 3.049529 1_566
Ag3_7 Pr2_4 3.302829 1_566
Ag3_7 Pr2_7 3.302829 1_555
Ag3_7 Pr1_7 3.407907 1_555
Ag3_7 Pr1_4 3.407907 1_566
Sn1_0 Sn3_4 2.773455 1_555
Sn1_1 Sn3_5 2.773455 1_555
Sn1_2 Sn3_6 2.773455 1_555
Sn1_3 Sn3_7 2.773455 1_555
Sn1_4 Sn3_0 2.773455 1_655
Sn1_5 Sn3_1 2.773455 1_655
Sn1_6 Sn3_2 2.773455 1_655
Sn1_7 Sn3_3 2.773455 1_655
