# generated using pymatgen
data_Ru(OF3)2
_symmetry_space_group_name_H-M   'P 1'
_cell_length_a   9.24851911
_cell_length_b   9.24851911
_cell_length_c   9.24851911
_cell_angle_alpha   109.47122063
_cell_angle_beta   109.47122063
_cell_angle_gamma   109.47122063
_symmetry_Int_Tables_number   1
_chemical_formula_structural   Ru(OF3)2
_chemical_formula_sum   'Ru4 O8 F24'
_cell_volume   608.96832621
_cell_formula_units_Z   4
loop_
 _symmetry_equiv_pos_site_id
 _symmetry_equiv_pos_as_xyz
  1  'x, y, z'
loop_
 _atom_site_type_symbol
 _atom_site_label
 _atom_site_symmetry_multiplicity
 _atom_site_fract_x
 _atom_site_fract_y
 _atom_site_fract_z
 _atom_site_occupancy
  Ru  Ru0  1  0.00000000  0.00000000  0.00000000  1
  Ru  Ru1  1  0.50000000  0.50000000  0.00000000  1
  Ru  Ru2  1  0.00000000  0.50000000  0.50000000  1
  Ru  Ru3  1  0.50000000  0.00000000  0.50000000  1
  O  O0  1  0.56463900  0.56463900  0.56463900  1
  O  O1  1  0.93536100  0.50000000  0.00000000  1
  O  O2  1  0.00000000  0.93536100  0.50000000  1
  O  O3  1  0.50000000  0.00000000  0.93536100  1
  O  O4  1  0.43536100  0.43536100  0.43536100  1
  O  O5  1  0.06463900  0.50000000  0.00000000  1
  O  O6  1  0.00000000  0.06463900  0.50000000  1
  O  O7  1  0.50000000  0.00000000  0.06463900  1
  F  F0  1  0.07767300  0.04204200  0.23223800  1
  F  F1  1  0.45795800  0.53563000  0.19019600  1
  F  F2  1  0.96437000  0.42232700  0.65456600  1
  F  F3  1  0.84543400  0.26776200  0.30980400  1
  F  F4  1  0.53563000  0.19019600  0.45795800  1
  F  F5  1  0.65456600  0.96437000  0.42232700  1
  F  F6  1  0.26776200  0.30980400  0.84543400  1
  F  F7  1  0.23223800  0.07767300  0.04204200  1
  F  F8  1  0.04204200  0.23223800  0.07767300  1
  F  F9  1  0.19019600  0.45795800  0.53563000  1
  F  F10  1  0.42232700  0.65456600  0.96437000  1
  F  F11  1  0.30980400  0.84543400  0.26776200  1
  F  F12  1  0.92232700  0.95795800  0.76776200  1
  F  F13  1  0.54204200  0.46437000  0.80980400  1
  F  F14  1  0.03563000  0.57767300  0.34543400  1
  F  F15  1  0.15456600  0.73223800  0.69019600  1
  F  F16  1  0.46437000  0.80980400  0.54204200  1
  F  F17  1  0.34543400  0.03563000  0.57767300  1
  F  F18  1  0.73223800  0.69019600  0.15456600  1
  F  F19  1  0.76776200  0.92232700  0.95795800  1
  F  F20  1  0.95795800  0.76776200  0.92232700  1
  F  F21  1  0.80980400  0.54204200  0.46437000  1
  F  F22  1  0.57767300  0.34543400  0.03563000  1
  F  F23  1  0.69019600  0.15456600  0.73223800  1
loop_
_geom_bond_atom_site_label_1
_geom_bond_atom_site_label_2
_geom_bond_distance
_geom_bond_site_symmetry_2
O0 O4 1.195630 1_555
O1 O5 1.195630 1_655
O2 O6 1.195630 1_565
O3 O7 1.195630 1_556
F0 Ru0 1.873212 1_555
F1 Ru1 1.873212 1_555
F2 Ru2 1.873218 1_655
F3 Ru2 1.873212 1_655
F4 Ru3 1.873212 1_555
F5 Ru3 1.873218 1_565
F6 Ru1 1.873212 1_556
F7 Ru0 1.873212 1_555
F8 Ru0 1.873212 1_555
F9 Ru2 1.873212 1_555
F10 Ru1 1.873218 1_556
F11 Ru3 1.873212 1_565
F12 Ru0 1.873212 1_666
F13 Ru1 1.873212 1_556
F14 Ru2 1.873218 1_555
F15 Ru2 1.873212 1_555
F16 Ru3 1.873212 1_565
F17 Ru3 1.873218 1_555
F18 Ru1 1.873212 1_555
F19 Ru0 1.873212 1_666
F20 Ru0 1.873212 1_666
F21 Ru2 1.873212 1_655
F22 Ru1 1.873218 1_555
F23 Ru3 1.873212 1_555
