# generated using pymatgen
data_CsAl(SiO3)2
_symmetry_space_group_name_H-M   'P 1'
_cell_length_a   12.07489351
_cell_length_b   12.07489351
_cell_length_c   12.07489351
_cell_angle_alpha   109.72552840
_cell_angle_beta   109.72552840
_cell_angle_gamma   108.96379363
_symmetry_Int_Tables_number   1
_chemical_formula_structural   CsAl(SiO3)2
_chemical_formula_sum   'Cs8 Al8 Si16 O48'
_cell_volume   1355.19726226
_cell_formula_units_Z   8
loop_
 _symmetry_equiv_pos_site_id
 _symmetry_equiv_pos_as_xyz
  1  'x, y, z'
loop_
 _atom_site_type_symbol
 _atom_site_label
 _atom_site_symmetry_multiplicity
 _atom_site_fract_x
 _atom_site_fract_y
 _atom_site_fract_z
 _atom_site_occupancy
  Cs  Cs0  1  0.87726300  0.37726300  0.25452600  1
  Cs  Cs1  1  0.12273700  0.62273700  0.74547400  1
  Cs  Cs2  1  0.37726300  0.12273700  0.50000000  1
  Cs  Cs3  1  0.37273700  0.12726300  0.00000000  1
  Cs  Cs4  1  0.62726300  0.62726300  0.75452600  1
  Cs  Cs5  1  0.87273700  0.87273700  0.24547400  1
  Cs  Cs6  1  0.62273700  0.87726300  0.50000000  1
  Cs  Cs7  1  0.12726300  0.37273700  0.00000000  1
  Al  Al0  1  0.33745700  0.83745700  0.17491400  1
  Al  Al1  1  0.08745700  0.08745700  0.67491400  1
  Al  Al2  1  0.16254300  0.33745700  0.50000000  1
  Al  Al3  1  0.91254300  0.58745700  0.00000000  1
  Al  Al4  1  0.66254300  0.16254300  0.82508600  1
  Al  Al5  1  0.58745700  0.91254300  0.00000000  1
  Al  Al6  1  0.83745700  0.66254300  0.50000000  1
  Al  Al7  1  0.41254300  0.41254300  0.32508600  1
  Si  Si0  1  0.16727100  0.69916800  0.28919400  1
  Si  Si1  1  0.30083200  0.59002600  0.46810300  1
  Si  Si2  1  0.34002600  0.37192300  0.78919400  1
  Si  Si3  1  0.84002600  0.05083200  0.96810300  1
  Si  Si4  1  0.40997400  0.87807700  0.71080600  1
  Si  Si5  1  0.80083200  0.33272900  0.71080600  1
  Si  Si6  1  0.44916800  0.65997400  0.03189700  1
  Si  Si7  1  0.66727100  0.37807700  0.46810300  1
  Si  Si8  1  0.08272900  0.87192300  0.03189700  1
  Si  Si9  1  0.62807700  0.41727100  0.96810300  1
  Si  Si10  1  0.12192300  0.83272900  0.53189700  1
  Si  Si11  1  0.62192300  0.09002600  0.28919400  1
  Si  Si12  1  0.12807700  0.15997400  0.21080600  1
  Si  Si13  1  0.94916800  0.91727100  0.78919400  1
  Si  Si14  1  0.58272900  0.55083200  0.21080600  1
  Si  Si15  1  0.90997400  0.19916800  0.53189700  1
  O  O0  1  0.13890300  0.79726400  0.39628800  1
  O  O1  1  0.61109700  0.45273600  0.10371200  1
  O  O2  1  0.71877400  0.65145700  0.35806600  1
  O  O3  1  0.70273600  0.36109700  0.60371200  1
  O  O4  1  0.51072500  0.00684500  0.71300600  1
  O  O5  1  0.49315500  0.98927500  0.28699400  1
  O  O6  1  0.79339100  0.15145700  0.93268300  1
  O  O7  1  0.40097600  0.74261500  0.60371200  1
  O  O8  1  0.23927500  0.24315500  0.78699400  1
  O  O9  1  0.75738500  0.09902400  0.39628800  1
  O  O10  1  0.45616100  0.45228100  0.21300600  1
  O  O11  1  0.53122600  0.38929200  0.43268300  1
  O  O12  1  0.84854300  0.78122600  0.64193400  1
  O  O13  1  0.04726400  0.88890300  0.89628800  1
  O  O14  1  0.13929200  0.20660900  0.35806600  1
  O  O15  1  0.25738500  0.86109700  0.65836100  1
  O  O16  1  0.90097600  0.29726400  0.65836100  1
  O  O17  1  0.49261500  0.38890300  0.84163900  1
  O  O18  1  0.29339100  0.36070800  0.64193400  1
  O  O19  1  0.03122600  0.59854300  0.14193400  1
  O  O20  1  0.45660900  0.88929200  0.85806600  1
  O  O21  1  0.01072500  0.29771900  0.50388000  1
  O  O22  1  0.79383900  0.50684500  0.49612000  1
  O  O23  1  0.25684500  0.26072500  0.21300600  1
  O  O24  1  0.99315500  0.70616100  0.50388000  1
  O  O25  1  0.40145700  0.54339100  0.43268300  1
  O  O26  1  0.21877400  0.86070800  0.06731700  1
  O  O27  1  0.34902400  0.50738500  0.89628800  1
  O  O28  1  0.54771900  0.76072500  0.00388000  1
  O  O29  1  0.11109700  0.00738500  0.15836100  1
  O  O30  1  0.61070800  0.04339100  0.14193400  1
  O  O31  1  0.95660900  0.09854300  0.56731700  1
  O  O32  1  0.90145700  0.46877400  0.85806600  1
  O  O33  1  0.04771900  0.04383900  0.78699400  1
  O  O34  1  0.63929200  0.28122600  0.93268300  1
  O  O35  1  0.11070800  0.96877400  0.56731700  1
  O  O36  1  0.29383900  0.79771900  0.28699400  1
  O  O37  1  0.20273600  0.59902400  0.34163900  1
  O  O38  1  0.99261500  0.15097600  0.10371200  1
  O  O39  1  0.73927500  0.95228100  0.99612000  1
  O  O40  1  0.20228100  0.48927500  0.49612000  1
  O  O41  1  0.63890300  0.24261500  0.34163900  1
  O  O42  1  0.34854300  0.70660900  0.06731700  1
  O  O43  1  0.84902400  0.95273600  0.84163900  1
  O  O44  1  0.54726400  0.65097600  0.15836100  1
  O  O45  1  0.70228100  0.20616100  0.71300600  1
  O  O46  1  0.75684500  0.54383900  0.99612000  1
  O  O47  1  0.95616100  0.74315500  0.00388000  1
loop_
_geom_bond_atom_site_label_1
_geom_bond_atom_site_label_2
_geom_bond_distance
_geom_bond_site_symmetry_2
Cs0 O40 3.449642 1_655
Cs0 O22 3.449642 1_555
Cs0 O6 3.458104 1_554
Cs0 O34 3.458104 1_554
Cs0 O41 3.491480 1_555
Cs0 O37 3.491480 1_655
Cs0 O21 3.502574 1_655
Cs0 O24 3.502574 1_555
Cs0 O30 3.656982 1_555
Cs0 O19 3.656982 1_655
Cs0 O38 3.680928 1_555
Cs0 O1 3.680928 1_555
Cs1 O24 3.449642 1_455
Cs1 O21 3.449642 1_555
Cs1 O26 3.458104 1_556
Cs1 O42 3.458104 1_556
Cs1 O16 3.491480 1_455
Cs1 O15 3.491480 1_555
Cs1 O22 3.502574 1_455
Cs1 O40 3.502574 1_555
Cs1 O20 3.656982 1_555
Cs1 O32 3.656982 1_455
Cs1 O27 3.680928 1_555
Cs1 O13 3.680928 1_555
Cs2 O45 3.449642 1_555
Cs2 O36 3.449642 1_545
Cs2 O14 3.458104 1_555
Cs2 O18 3.458104 1_555
Cs2 O0 3.491480 1_545
Cs2 O3 3.491480 1_555
Cs2 O4 3.502574 1_555
Cs2 O5 3.502574 1_545
Cs2 O35 3.656982 1_545
Cs2 O11 3.656982 1_555
Cs2 O17 3.680928 1_555
Cs2 O29 3.680928 1_555
Cs3 O33 3.449642 1_554
Cs3 O10 3.449642 1_555
Cs3 O30 3.458104 1_555
Cs3 O20 3.458104 1_544
Cs3 O1 3.491480 1_555
Cs3 O13 3.491480 1_544
Cs3 O8 3.502574 1_554
Cs3 O23 3.502574 1_555
Cs3 O34 3.656982 1_554
Cs3 O26 3.656982 1_545
Cs3 O41 3.680928 1_555
Cs3 O15 3.680928 1_544
Cs4 O39 3.449642 1_555
Cs4 O46 3.449642 1_555
Cs4 O25 3.458104 1_555
Cs4 O11 3.458104 1_555
Cs4 O43 3.491480 1_555
Cs4 O17 3.491480 1_555
Cs4 O47 3.502574 1_556
Cs4 O28 3.502574 1_556
Cs4 O12 3.656982 1_555
Cs4 O18 3.656982 1_555
Cs4 O7 3.680928 1_555
Cs4 O3 3.680928 1_555
Cs5 O47 3.449642 1_555
Cs5 O28 3.449642 1_555
Cs5 O31 3.458104 1_565
Cs5 O35 3.458104 1_655
Cs5 O29 3.491480 1_665
Cs5 O44 3.491480 1_555
Cs5 O39 3.502574 1_554
Cs5 O46 3.502574 1_554
Cs5 O14 3.656982 1_665
Cs5 O2 3.656982 1_555
Cs5 O9 3.680928 1_565
Cs5 O0 3.680928 1_655
Cs6 O4 3.449642 1_565
Cs6 O5 3.449642 1_555
Cs6 O2 3.458104 1_555
Cs6 O12 3.458104 1_555
Cs6 O9 3.491480 1_565
Cs6 O7 3.491480 1_555
Cs6 O45 3.502574 1_565
Cs6 O36 3.502574 1_555
Cs6 O31 3.656982 1_565
Cs6 O25 3.656982 1_555
Cs6 O43 3.680928 1_555
Cs6 O44 3.680928 1_555
Cs7 O23 3.449642 1_555
Cs7 O8 3.449642 1_554
Cs7 O32 3.458104 1_454
Cs7 O19 3.458104 1_555
Cs7 O27 3.491480 1_554
Cs7 O38 3.491480 1_455
Cs7 O10 3.502574 1_555
Cs7 O33 3.502574 1_554
Cs7 O42 3.656982 1_555
Cs7 O6 3.656982 1_454
Cs7 O37 3.680928 1_555
Cs7 O16 3.680928 1_454
Al0 O26 1.752547 1_555
Al0 O42 1.752547 1_555
Al0 O5 1.759106 1_555
Al0 O36 1.759106 1_555
Al1 O31 1.752547 1_455
Al1 O35 1.752547 1_545
Al1 O8 1.759106 1_555
Al1 O33 1.759106 1_555
Al2 O14 1.752547 1_555
Al2 O18 1.752547 1_555
Al2 O40 1.759106 1_555
Al2 O21 1.759106 1_555
Al3 O32 1.752547 1_554
Al3 O19 1.752547 1_655
Al3 O47 1.759106 1_555
Al3 O46 1.759106 1_554
Al4 O34 1.752547 1_555
Al4 O6 1.752547 1_555
Al4 O45 1.759106 1_555
Al4 O4 1.759106 1_555
Al5 O20 1.752547 1_554
Al5 O30 1.752547 1_565
Al5 O28 1.759106 1_555
Al5 O39 1.759106 1_554
Al6 O2 1.752547 1_555
Al6 O12 1.752547 1_555
Al6 O22 1.759106 1_555
Al6 O24 1.759106 1_555
Al7 O25 1.752547 1_555
Al7 O11 1.752547 1_555
Al7 O10 1.759106 1_555
Al7 O23 1.759106 1_555
O0 Si10 1.648352 1_555
O0 Si0 1.649653 1_555
O1 Si9 1.648352 1_554
O1 Si14 1.649653 1_555
O2 Si14 1.615313 1_555
O3 Si7 1.648352 1_555
O3 Si5 1.649653 1_555
O4 Si4 1.618393 1_545
O5 Si11 1.618393 1_565
O6 Si3 1.615313 1_555
O7 Si1 1.648352 1_555
O7 Si4 1.649653 1_555
O8 Si2 1.618393 1_555
O9 Si15 1.648352 1_555
O9 Si11 1.649653 1_555
O10 Si14 1.618393 1_555
O11 Si7 1.615313 1_555
O12 Si13 1.615313 1_555
O13 Si8 1.648352 1_556
O13 Si13 1.649653 1_455
O14 Si12 1.615313 1_555
O15 Si4 1.648352 1_555
O15 Si10 1.649653 1_555
O16 Si5 1.648352 1_555
O16 Si15 1.649653 1_555
O17 Si2 1.648352 1_555
O17 Si9 1.649653 1_555
O18 Si2 1.615313 1_555
O19 Si0 1.615313 1_555
O20 Si4 1.615313 1_555
O21 Si15 1.618393 1_455
O22 Si7 1.618393 1_555
O23 Si12 1.618393 1_555
O24 Si10 1.618393 1_655
O25 Si1 1.615313 1_555
O26 Si8 1.615313 1_555
O27 Si6 1.648352 1_556
O27 Si2 1.649653 1_555
O28 Si6 1.618393 1_555
O29 Si12 1.648352 1_555
O29 Si8 1.649653 1_545
O30 Si11 1.615313 1_555
O31 Si15 1.615313 1_555
O32 Si5 1.615313 1_555
O33 Si13 1.618393 1_445
O34 Si9 1.615313 1_555
O35 Si10 1.615313 1_555
O36 Si0 1.618393 1_555
O37 Si0 1.648352 1_555
O37 Si1 1.649653 1_555
O38 Si3 1.648352 1_554
O38 Si12 1.649653 1_655
O39 Si3 1.618393 1_565
O40 Si1 1.618393 1_555
O41 Si11 1.648352 1_555
O41 Si7 1.649653 1_555
O42 Si6 1.615313 1_555
O43 Si13 1.648352 1_555
O43 Si3 1.649653 1_565
O44 Si14 1.648352 1_555
O44 Si6 1.649653 1_555
O45 Si5 1.618393 1_555
O46 Si9 1.618393 1_555
O47 Si8 1.618393 1_655
