# generated using pymatgen
data_Nd2Ni17
_symmetry_space_group_name_H-M   'P 1'
_cell_length_a   8.32334010
_cell_length_b   8.32334010
_cell_length_c   8.06667200
_cell_angle_alpha   90.00000000
_cell_angle_beta   90.00000000
_cell_angle_gamma   120.00000080
_symmetry_Int_Tables_number   1
_chemical_formula_structural   Nd2Ni17
_chemical_formula_sum   'Nd4 Ni34'
_cell_volume   483.97207978
_cell_formula_units_Z   2
loop_
 _symmetry_equiv_pos_site_id
 _symmetry_equiv_pos_as_xyz
  1  'x, y, z'
loop_
 _atom_site_type_symbol
 _atom_site_label
 _atom_site_symmetry_multiplicity
 _atom_site_fract_x
 _atom_site_fract_y
 _atom_site_fract_z
 _atom_site_occupancy
  Nd  Nd0  1  0.00000000  0.00000000  0.25000000  1
  Nd  Nd1  1  0.00000000  0.00000000  0.75000000  1
  Nd  Nd2  1  0.66666700  0.33333300  0.25000000  1
  Nd  Nd3  1  0.33333300  0.66666700  0.75000000  1
  Ni  Ni0  1  0.50000000  0.00000000  0.50000000  1
  Ni  Ni1  1  0.50000000  0.50000000  0.50000000  1
  Ni  Ni2  1  0.83388000  0.16612000  0.48118400  1
  Ni  Ni3  1  0.33224000  0.16612000  0.01881600  1
  Ni  Ni4  1  0.16612000  0.33224000  0.51881600  1
  Ni  Ni5  1  0.67114200  0.62553600  0.75000000  1
  Ni  Ni6  1  0.66666700  0.33333300  0.89571600  1
  Ni  Ni7  1  0.33333300  0.66666700  0.39571600  1
  Ni  Ni8  1  0.66776000  0.83388000  0.98118400  1
  Ni  Ni9  1  0.37446400  0.32885800  0.75000000  1
  Ni  Ni10  1  0.04560500  0.37446400  0.25000000  1
  Ni  Ni11  1  0.83388000  0.16612000  0.01881600  1
  Ni  Ni12  1  0.62553600  0.95439500  0.25000000  1
  Ni  Ni13  1  0.95439500  0.62553600  0.75000000  1
  Ni  Ni14  1  0.33224000  0.16612000  0.48118400  1
  Ni  Ni15  1  0.83388000  0.66776000  0.48118400  1
  Ni  Ni16  1  0.16612000  0.33224000  0.98118400  1
  Ni  Ni17  1  0.83388000  0.66776000  0.01881600  1
  Ni  Ni18  1  0.66666700  0.33333300  0.60428400  1
  Ni  Ni19  1  0.66776000  0.83388000  0.51881600  1
  Ni  Ni20  1  0.00000000  0.50000000  0.00000000  1
  Ni  Ni21  1  0.32885800  0.95439500  0.25000000  1
  Ni  Ni22  1  0.32885800  0.37446400  0.25000000  1
  Ni  Ni23  1  0.33333300  0.66666700  0.10428400  1
  Ni  Ni24  1  0.16612000  0.83388000  0.51881600  1
  Ni  Ni25  1  0.04560500  0.67114200  0.25000000  1
  Ni  Ni26  1  0.67114200  0.04560500  0.75000000  1
  Ni  Ni27  1  0.16612000  0.83388000  0.98118400  1
  Ni  Ni28  1  0.62553600  0.67114200  0.25000000  1
  Ni  Ni29  1  0.50000000  0.50000000  0.00000000  1
  Ni  Ni30  1  0.95439500  0.32885800  0.75000000  1
  Ni  Ni31  1  0.37446400  0.04560500  0.75000000  1
  Ni  Ni32  1  0.00000000  0.50000000  0.50000000  1
  Ni  Ni33  1  0.50000000  0.00000000  0.00000000  1
loop_
_geom_bond_atom_site_label_1
_geom_bond_atom_site_label_2
_geom_bond_distance
_geom_bond_site_symmetry_2
Nd0 Ni25 2.945392 1_545
Nd0 Ni21 2.945392 1_545
Nd0 Ni22 2.945397 1_555
Nd0 Ni28 2.945397 1_445
Nd0 Ni12 2.945400 1_445
Nd0 Ni10 2.945400 1_555
Nd0 Ni3 3.035318 1_555
Nd0 Ni17 3.035318 1_445
Nd0 Ni14 3.035318 1_555
Nd0 Ni15 3.035318 1_445
Nd0 Ni11 3.035318 1_455
Nd0 Ni2 3.035318 1_455
Nd0 Ni19 3.230717 1_445
Nd0 Ni8 3.230717 1_444
Nd0 Ni4 3.230717 1_555
Nd0 Ni16 3.230717 1_554
Nd0 Ni27 3.230717 1_544
Nd0 Ni24 3.230717 1_545
Nd1 Ni30 2.945392 1_455
Nd1 Ni26 2.945392 1_455
Nd1 Ni5 2.945397 1_445
Nd1 Ni9 2.945397 1_555
Nd1 Ni13 2.945400 1_445
Nd1 Ni31 2.945400 1_555
Nd1 Ni19 3.035318 1_445
Nd1 Ni16 3.035318 1_555
Nd1 Ni8 3.035318 1_445
Nd1 Ni4 3.035318 1_555
Nd1 Ni27 3.035318 1_545
Nd1 Ni24 3.035318 1_545
Nd1 Ni17 3.230717 1_446
Nd1 Ni3 3.230717 1_556
Nd1 Ni14 3.230717 1_555
Nd1 Ni15 3.230717 1_445
Nd1 Ni11 3.230717 1_456
Nd1 Ni2 3.230717 1_455
Nd2 Ni6 2.857893 1_554
Nd2 Ni18 2.857893 1_555
Nd2 Ni10 2.997554 1_655
Nd2 Ni12 2.997554 1_545
Nd2 Ni25 2.997561 1_655
Nd2 Ni21 2.997561 1_545
Nd2 Ni28 2.997571 1_555
Nd2 Ni22 2.997571 1_555
Nd2 Ni2 3.047766 1_555
Nd2 Ni11 3.047766 1_555
Nd2 Ni14 3.047771 1_555
Nd2 Ni15 3.047771 1_555
Nd2 Ni3 3.047771 1_555
Nd2 Ni17 3.047771 1_555
Nd2 Ni20 3.136894 1_655
Nd2 Ni32 3.136894 1_655
Nd2 Ni0 3.136894 1_555
Nd2 Ni33 3.136894 1_555
Nd2 Ni29 3.136900 1_555
Nd2 Ni1 3.136900 1_555
Nd3 Ni7 2.857893 1_555
Nd3 Ni23 2.857893 1_556
Nd3 Ni31 2.997554 1_565
Nd3 Ni13 2.997554 1_455
Nd3 Ni26 2.997561 1_565
Nd3 Ni30 2.997561 1_455
Nd3 Ni9 2.997571 1_555
Nd3 Ni5 2.997571 1_555
Nd3 Ni24 3.047766 1_555
Nd3 Ni27 3.047766 1_555
Nd3 Ni16 3.047771 1_555
Nd3 Ni4 3.047771 1_555
Nd3 Ni19 3.047771 1_555
Nd3 Ni8 3.047771 1_555
Nd3 Ni20 3.136894 1_556
Nd3 Ni0 3.136894 1_565
Nd3 Ni33 3.136894 1_566
Nd3 Ni32 3.136894 1_555
Nd3 Ni1 3.136900 1_555
Nd3 Ni29 3.136900 1_556
Ni0 Ni12 2.387348 1_545
Ni0 Ni31 2.387348 1_555
Ni0 Ni26 2.387352 1_555
Ni0 Ni21 2.387352 1_545
Ni0 Ni2 2.411473 1_555
Ni0 Ni24 2.411473 1_545
Ni0 Ni14 2.411473 1_555
Ni0 Ni19 2.411473 1_545
Ni0 Ni18 2.545744 1_555
Ni0 Ni7 2.545744 1_545
Ni1 Ni28 2.387351 1_555
Ni1 Ni9 2.387351 1_555
Ni1 Ni5 2.387351 1_555
Ni1 Ni22 2.387351 1_555
Ni1 Ni15 2.411473 1_555
Ni1 Ni14 2.411473 1_555
Ni1 Ni4 2.411473 1_555
Ni1 Ni19 2.411473 1_555
Ni1 Ni18 2.545751 1_555
Ni1 Ni7 2.545751 1_555
Ni2 Ni32 2.411473 1_655
Ni2 Ni4 2.414023 1_655
Ni2 Ni26 2.486844 1_555
Ni2 Ni30 2.486844 1_555
Ni3 Ni33 2.411473 1_555
Ni3 Ni9 2.486842 1_554
Ni3 Ni31 2.486846 1_554
Ni3 Ni6 2.607139 1_554
Ni4 Ni9 2.556281 1_555
Ni4 Ni7 2.607139 1_555
Ni5 Ni9 2.469352 1_555
Ni5 Ni8 2.556281 1_555
Ni5 Ni6 2.684697 1_555
Ni6 Ni9 2.684697 1_555
Ni10 Ni22 2.357611 1_555
Ni10 Ni20 2.387348 1_555
Ni10 Ni32 2.387348 1_555
Ni10 Ni25 2.469352 1_555
Ni10 Ni4 2.486846 1_555
Ni10 Ni16 2.486846 1_554
Ni10 Ni11 2.556278 1_455
Ni10 Ni2 2.556278 1_455
Ni10 Ni7 2.684697 1_555
Ni10 Ni23 2.684697 1_555
Ni11 Ni33 2.411473 1_555
Ni11 Ni20 2.411473 1_655
Ni11 Ni8 2.414023 1_544
Ni11 Ni16 2.414023 1_654
Ni11 Ni26 2.486844 1_554
Ni11 Ni30 2.486844 1_554
Ni11 Ni12 2.556278 1_545
Ni11 Ni6 2.607133 1_554
Ni12 Ni28 2.357611 1_555
Ni12 Ni33 2.387348 1_565
Ni12 Ni21 2.469352 1_555
Ni12 Ni19 2.486846 1_555
Ni12 Ni8 2.486846 1_554
Ni12 Ni2 2.556278 1_565
Ni12 Ni7 2.684697 1_555
Ni12 Ni23 2.684697 1_555
Ni13 Ni5 2.357611 1_555
Ni13 Ni20 2.387348 1_656
Ni13 Ni32 2.387348 1_655
Ni13 Ni30 2.469352 1_555
Ni13 Ni17 2.486846 1_556
Ni13 Ni15 2.486846 1_555
Ni13 Ni27 2.556278 1_655
Ni13 Ni24 2.556278 1_655
Ni13 Ni6 2.684697 1_555
Ni13 Ni18 2.684697 1_555
Ni14 Ni24 2.414023 1_545
Ni14 Ni4 2.414023 1_555
Ni14 Ni9 2.486842 1_555
Ni14 Ni31 2.486846 1_555
Ni14 Ni21 2.556275 1_545
Ni14 Ni22 2.556281 1_555
Ni14 Ni18 2.607139 1_555
Ni15 Ni32 2.411473 1_655
Ni15 Ni24 2.414023 1_655
Ni15 Ni19 2.414023 1_555
Ni15 Ni5 2.486842 1_555
Ni15 Ni25 2.556275 1_655
Ni15 Ni28 2.556281 1_555
Ni15 Ni18 2.607139 1_555
Ni16 Ni29 2.411473 1_556
Ni16 Ni20 2.411473 1_556
Ni16 Ni3 2.414023 1_556
Ni16 Ni22 2.486842 1_556
Ni16 Ni30 2.556275 1_455
Ni16 Ni9 2.556281 1_555
Ni16 Ni23 2.607139 1_556
Ni17 Ni29 2.411473 1_555
Ni17 Ni20 2.411473 1_655
Ni17 Ni27 2.414023 1_654
Ni17 Ni8 2.414023 1_554
Ni17 Ni5 2.486842 1_554
Ni17 Ni25 2.556275 1_655
Ni17 Ni28 2.556281 1_555
Ni17 Ni6 2.607139 1_554
Ni18 Ni6 2.350886 1_555
Ni18 Ni32 2.545744 1_655
Ni18 Ni2 2.607133 1_555
Ni18 Ni31 2.684697 1_555
Ni18 Ni5 2.684697 1_555
Ni18 Ni9 2.684697 1_555
Ni18 Ni26 2.684697 1_555
Ni18 Ni30 2.684697 1_555
Ni19 Ni2 2.414023 1_565
Ni19 Ni28 2.486842 1_555
Ni19 Ni26 2.556275 1_565
Ni19 Ni5 2.556281 1_555
Ni19 Ni7 2.607139 1_555
Ni20 Ni25 2.387352 1_555
Ni20 Ni30 2.387352 1_454
Ni20 Ni27 2.411473 1_554
Ni20 Ni23 2.545744 1_555
Ni20 Ni6 2.545744 1_454
Ni21 Ni25 2.357611 1_555
Ni21 Ni33 2.387352 1_565
Ni21 Ni24 2.486844 1_555
Ni21 Ni27 2.486844 1_554
Ni21 Ni3 2.556275 1_565
Ni21 Ni23 2.684697 1_555
Ni21 Ni7 2.684697 1_555
Ni22 Ni29 2.387351 1_555
Ni22 Ni28 2.469352 1_555
Ni22 Ni4 2.486842 1_555
Ni22 Ni3 2.556281 1_555
Ni22 Ni7 2.684697 1_555
Ni22 Ni23 2.684697 1_555
Ni23 Ni7 2.350886 1_555
Ni23 Ni33 2.545744 1_565
Ni23 Ni29 2.545751 1_555
Ni23 Ni27 2.607133 1_554
Ni23 Ni8 2.607139 1_554
Ni23 Ni28 2.684697 1_555
Ni23 Ni25 2.684697 1_555
Ni24 Ni32 2.411473 1_555
Ni24 Ni25 2.486844 1_555
Ni24 Ni31 2.556278 1_565
Ni24 Ni7 2.607133 1_555
Ni25 Ni32 2.387352 1_555
Ni25 Ni27 2.486844 1_554
Ni25 Ni7 2.684697 1_555
Ni26 Ni30 2.357611 1_555
Ni26 Ni33 2.387352 1_556
Ni26 Ni31 2.469352 1_555
Ni26 Ni8 2.556275 1_545
Ni26 Ni6 2.684697 1_555
Ni27 Ni33 2.411473 1_566
Ni27 Ni3 2.414023 1_566
Ni27 Ni31 2.556278 1_565
Ni28 Ni29 2.387351 1_555
Ni28 Ni8 2.486842 1_554
Ni28 Ni7 2.684697 1_555
Ni29 Ni5 2.387351 1_554
Ni29 Ni9 2.387351 1_554
Ni29 Ni8 2.411473 1_554
Ni29 Ni3 2.411473 1_555
Ni29 Ni6 2.545751 1_554
Ni30 Ni32 2.387352 1_655
Ni30 Ni4 2.556275 1_655
Ni30 Ni6 2.684697 1_555
Ni31 Ni9 2.357611 1_555
Ni31 Ni33 2.387348 1_556
Ni31 Ni6 2.684697 1_555
Ni32 Ni4 2.411473 1_555
Ni32 Ni7 2.545744 1_555
Ni33 Ni8 2.411473 1_544
Ni33 Ni6 2.545744 1_554
