# generated using pymatgen
data_LiLa5Ti8O24
_symmetry_space_group_name_H-M   'P 1'
_cell_length_a   7.76910000
_cell_length_b   7.82106600
_cell_length_c   7.85238200
_cell_angle_alpha   90.00000000
_cell_angle_beta   90.00000000
_cell_angle_gamma   90.00000000
_symmetry_Int_Tables_number   1
_chemical_formula_structural   LiLa5Ti8O24
_chemical_formula_sum   'Li1 La5 Ti8 O24'
_cell_volume   477.13149092
_cell_formula_units_Z   1
loop_
 _symmetry_equiv_pos_site_id
 _symmetry_equiv_pos_as_xyz
  1  'x, y, z'
loop_
 _atom_site_type_symbol
 _atom_site_label
 _atom_site_symmetry_multiplicity
 _atom_site_fract_x
 _atom_site_fract_y
 _atom_site_fract_z
 _atom_site_occupancy
  Li  Li0  1  0.00000000  0.84297500  0.00000000  1
  La  La0  1  0.50000000  0.02119800  0.00000000  1
  La  La1  1  0.00000000  0.50326800  0.50000000  1
  La  La2  1  0.50000000  0.49465200  0.50000000  1
  La  La3  1  0.50000000  0.01253500  0.50000000  1
  La  La4  1  0.00000000  0.99463200  0.50000000  1
  Ti  Ti0  1  0.24509800  0.25604000  0.76150500  1
  Ti  Ti1  1  0.24509800  0.25604000  0.23849500  1
  Ti  Ti2  1  0.75490200  0.25604000  0.76150500  1
  Ti  Ti3  1  0.74970100  0.74666800  0.24139700  1
  Ti  Ti4  1  0.25029900  0.74666800  0.75860300  1
  Ti  Ti5  1  0.74970100  0.74666800  0.75860300  1
  Ti  Ti6  1  0.75490200  0.25604000  0.23849500  1
  Ti  Ti7  1  0.25029900  0.74666800  0.24139700  1
  O  O0  1  0.75155300  0.50248300  0.27115100  1
  O  O1  1  0.50000000  0.24273900  0.23279600  1
  O  O2  1  0.21140600  0.75195900  0.50000000  1
  O  O3  1  0.78859400  0.75195900  0.50000000  1
  O  O4  1  0.00000000  0.75997100  0.23276700  1
  O  O5  1  0.00000000  0.24903600  0.29774900  1
  O  O6  1  0.24844700  0.50248300  0.72884900  1
  O  O7  1  0.26044800  0.00249100  0.27077300  1
  O  O8  1  0.50000000  0.75138300  0.70771300  1
  O  O9  1  0.23912400  0.22883000  0.00000000  1
  O  O10  1  0.50000000  0.75138300  0.29228700  1
  O  O11  1  0.27363900  0.77929100  0.00000000  1
  O  O12  1  0.26044800  0.00249100  0.72922700  1
  O  O13  1  0.28588900  0.25677900  0.50000000  1
  O  O14  1  0.71411100  0.25677900  0.50000000  1
  O  O15  1  0.00000000  0.24903600  0.70225100  1
  O  O16  1  0.72636100  0.77929100  0.00000000  1
  O  O17  1  0.24844700  0.50248300  0.27115100  1
  O  O18  1  0.73955200  0.00249100  0.72922700  1
  O  O19  1  0.75155300  0.50248300  0.72884900  1
  O  O20  1  0.73955200  0.00249100  0.27077300  1
  O  O21  1  0.76087600  0.22883000  0.00000000  1
  O  O22  1  0.00000000  0.75997100  0.76723300  1
  O  O23  1  0.50000000  0.24273900  0.76720400  1
loop_
_geom_bond_atom_site_label_1
_geom_bond_atom_site_label_2
_geom_bond_distance
_geom_bond_site_symmetry_2
Li0 O22 1.939638 1_554
Li0 O4 1.939638 1_555
Li0 O16 2.183496 1_455
Li0 O11 2.183496 1_555
La0 O23 2.518690 1_554
La0 O1 2.518690 1_555
La0 O16 2.583080 1_545
La0 O11 2.583080 1_545
La0 O9 2.597088 1_555
La0 O21 2.597088 1_555
La0 O20 2.829469 1_555
La0 O7 2.829469 1_555
La0 O12 2.829469 1_554
La0 O18 2.829469 1_554
La0 O8 3.117824 1_544
La0 O10 3.117824 1_545
La1 O15 2.544764 1_555
La1 O5 2.544764 1_555
La1 O3 2.545727 1_455
La1 O2 2.545727 1_555
La1 O19 2.637232 1_455
La1 O0 2.637232 1_455
La1 O6 2.637232 1_555
La1 O17 2.637232 1_555
La1 O4 2.904165 1_555
La1 O22 2.904165 1_555
La1 O14 2.941041 1_455
La1 O13 2.941041 1_555
La2 O13 2.495642 1_555
La2 O14 2.495642 1_555
La2 O10 2.586890 1_555
La2 O8 2.586890 1_555
La2 O6 2.655643 1_555
La2 O19 2.655643 1_555
La2 O17 2.655643 1_555
La2 O0 2.655643 1_555
La2 O23 2.878227 1_555
La2 O1 2.878227 1_555
La2 O2 3.012789 1_555
La2 O3 3.012789 1_555
La3 O13 2.533005 1_555
La3 O14 2.533005 1_555
La3 O18 2.590328 1_555
La3 O12 2.590328 1_555
La3 O20 2.590328 1_555
La3 O7 2.590328 1_555
La3 O8 2.613819 1_545
La3 O10 2.613819 1_545
La3 O23 2.764775 1_555
La3 O1 2.764775 1_555
La3 O2 3.029926 1_545
La3 O3 3.029926 1_545
La4 O3 2.509950 1_455
La4 O2 2.509950 1_555
La4 O15 2.545815 1_565
La4 O5 2.545815 1_565
La4 O18 2.708881 1_465
La4 O7 2.708881 1_565
La4 O12 2.708881 1_565
La4 O20 2.708881 1_465
La4 O4 2.787772 1_555
La4 O22 2.787772 1_555
La4 O14 3.022729 1_465
La4 O13 3.022729 1_565
O0 Ti3 1.924079 1_555
O0 Ti6 1.944604 1_555
O1 Ti1 1.983594 1_555
O1 Ti6 1.983594 1_555
O2 Ti4 2.053425 1_555
O2 Ti7 2.053425 1_555
O3 Ti5 2.053425 1_555
O3 Ti3 2.053425 1_555
O4 Ti7 1.948558 1_555
O4 Ti3 1.948558 1_455
O5 Ti1 1.960978 1_555
O5 Ti6 1.960978 1_455
O6 Ti4 1.924079 1_555
O6 Ti0 1.944604 1_555
O7 Ti1 2.002710 1_555
O7 Ti7 2.015604 1_545
O8 Ti5 1.981025 1_555
O8 Ti4 1.981025 1_555
O9 Ti1 1.885378 1_555
O9 Ti0 1.885378 1_554
O10 Ti3 1.981025 1_555
O10 Ti7 1.981025 1_555
O11 Ti4 1.921213 1_554
O11 Ti7 1.921213 1_555
O12 Ti0 2.002710 1_555
O12 Ti4 2.015604 1_545
O13 Ti1 2.077756 1_555
O13 Ti0 2.077756 1_555
O14 Ti6 2.077756 1_555
O14 Ti2 2.077756 1_555
O15 Ti0 1.960978 1_555
O15 Ti2 1.960978 1_455
O16 Ti5 1.921213 1_554
O16 Ti3 1.921213 1_555
O17 Ti7 1.924079 1_555
O17 Ti1 1.944604 1_555
O18 Ti2 2.002710 1_555
O18 Ti5 2.015604 1_545
O19 Ti5 1.924079 1_555
O19 Ti2 1.944604 1_555
O20 Ti6 2.002710 1_555
O20 Ti3 2.015604 1_545
O21 Ti2 1.885378 1_554
O21 Ti6 1.885378 1_555
O22 Ti4 1.948558 1_555
O22 Ti5 1.948558 1_455
O23 Ti0 1.983594 1_555
O23 Ti2 1.983594 1_555
