# generated using pymatgen
data_Pr8(BCl)7
_symmetry_space_group_name_H-M   'P 1'
_cell_length_a   7.78394264
_cell_length_b   9.16964951
_cell_length_c   14.35793360
_cell_angle_alpha   91.38405463
_cell_angle_beta   97.85054177
_cell_angle_gamma   115.11096018
_symmetry_Int_Tables_number   1
_chemical_formula_structural   Pr8(BCl)7
_chemical_formula_sum   'Pr16 B14 Cl14'
_cell_volume   915.39749287
_cell_formula_units_Z   2
loop_
 _symmetry_equiv_pos_site_id
 _symmetry_equiv_pos_as_xyz
  1  'x, y, z'
loop_
 _atom_site_type_symbol
 _atom_site_label
 _atom_site_symmetry_multiplicity
 _atom_site_fract_x
 _atom_site_fract_y
 _atom_site_fract_z
 _atom_site_occupancy
  Pr  Pr0  1  0.95749460  0.83980794  0.19995895  1
  Pr  Pr1  1  0.48281630  0.84012763  0.20003578  1
  Pr  Pr2  1  0.78755541  0.28304769  0.58383158  1
  Pr  Pr3  1  0.72200505  0.73005491  0.42499066  1
  Pr  Pr4  1  0.23840217  0.58127959  0.74308930  1
  Pr  Pr5  1  0.60153162  0.72007860  0.96558895  1
  Pr  Pr6  1  0.51718370  0.15987237  0.79996422  1
  Pr  Pr7  1  0.27799495  0.26994509  0.57500934  1
  Pr  Pr8  1  0.76159783  0.41872041  0.25691070  1
  Pr  Pr9  1  0.09379492  0.70500136  0.96790757  1
  Pr  Pr10  1  0.28607149  0.41824982  0.25575271  1
  Pr  Pr11  1  0.04250540  0.16019206  0.80004105  1
  Pr  Pr12  1  0.90620508  0.29499864  0.03209243  1
  Pr  Pr13  1  0.71392851  0.58175018  0.74424729  1
  Pr  Pr14  1  0.39846838  0.27992140  0.03441105  1
  Pr  Pr15  1  0.21244459  0.71695231  0.41616842  1
  B  B0  1  0.25383147  0.46232003  0.93220444  1
  B  B1  1  0.67417787  0.46200606  0.93228338  1
  B  B2  1  0.82495887  0.42219095  0.87426589  1
  B  B3  1  0.17504113  0.57780905  0.12573411  1
  B  B4  1  0.12242596  0.62777740  0.23260469  1
  B  B5  1  0.36504857  0.35661086  0.74754064  1
  B  B6  1  0.74616853  0.53767997  0.06779556  1
  B  B7  1  0.87757404  0.37222260  0.76739531  1
  B  B8  1  0.63495143  0.64338914  0.25245936  1
  B  B9  1  0.57277758  0.57911928  0.13252144  1
  B  B10  1  0.42722242  0.42088072  0.86747856  1
  B  B11  1  0.03423057  0.42267955  0.87409740  1
  B  B12  1  0.32582213  0.53799394  0.06771662  1
  B  B13  1  0.96576943  0.57732045  0.12590260  1
  Cl  Cl0  1  0.36286048  0.11916393  0.21198111  1
  Cl  Cl1  1  0.86944550  0.13366112  0.20890709  1
  Cl  Cl2  1  0.63713952  0.88083607  0.78801889  1
  Cl  Cl3  1  0.09091691  0.97391411  0.39709869  1
  Cl  Cl4  1  0.96919071  0.64127008  0.57043534  1
  Cl  Cl5  1  0.13055450  0.86633888  0.79109291  1
  Cl  Cl6  1  0.03080929  0.35872992  0.42956466  1
  Cl  Cl7  1  0.00000000  0.00000000  0.00000000  1
  Cl  Cl8  1  0.90908309  0.02608589  0.60290131  1
  Cl  Cl9  1  0.45433363  0.63330402  0.56802559  1
  Cl  Cl10  1  0.54566637  0.36669598  0.43197441  1
  Cl  Cl11  1  0.41906133  0.02777773  0.60325581  1
  Cl  Cl12  1  0.50000000  0.00000000  0.00000000  1
  Cl  Cl13  1  0.58093867  0.97222227  0.39674419  1
loop_
_geom_bond_atom_site_label_1
_geom_bond_atom_site_label_2
_geom_bond_distance
_geom_bond_site_symmetry_2
B0 B11 1.678839 1_555
B0 B10 1.894862 1_555
B0 B12 1.971819 1_556
B0 Pr5 2.702352 1_555
B0 Pr14 2.735655 1_556
B0 Pr4 2.956749 1_555
B0 Pr11 3.001220 1_555
B0 Pr9 3.039524 1_555
B0 Pr12 3.061960 1_456
B1 B2 1.679517 1_555
B1 B10 1.892706 1_555
B1 B6 1.971819 1_556
B1 Pr5 2.702482 1_555
B1 Pr14 2.735023 1_556
B1 Pr13 2.945063 1_555
B1 Pr6 3.002694 1_555
B1 Pr9 3.034218 1_655
B1 Pr12 3.067121 1_556
B2 B7 1.740450 1_555
B2 Pr6 2.636326 1_555
B2 Pr13 2.671511 1_555
B2 Pr12 2.693971 1_556
B2 Pr9 2.714559 1_655
B3 B4 1.740450 1_555
B3 Pr1 2.636326 1_555
B3 Pr10 2.671511 1_555
B3 Pr9 2.693971 1_554
B3 Pr12 2.714559 1_455
B4 Pr15 2.647844 1_555
B4 Pr8 2.723143 1_455
B4 Pr10 2.723380 1_555
B4 Pr1 2.765114 1_555
B4 Pr0 2.765164 1_455
B5 Pr7 2.493288 1_555
B5 Pr6 2.618915 1_555
B5 Pr11 2.619192 1_555
B5 Pr13 2.630673 1_555
B5 Pr4 2.633043 1_555
B6 B9 1.894862 1_555
B6 Pr14 2.702352 1_555
B6 Pr5 2.735655 1_554
B6 Pr8 2.956749 1_555
B6 Pr0 3.001220 1_555
B6 Pr12 3.039524 1_555
B6 Pr9 3.061960 1_654
B7 Pr2 2.647844 1_555
B7 Pr4 2.723143 1_655
B7 Pr13 2.723380 1_555
B7 Pr6 2.765114 1_555
B7 Pr11 2.765164 1_655
B8 B9 1.740188 1_555
B8 Pr3 2.493288 1_555
B8 Pr1 2.618915 1_555
B8 Pr0 2.619192 1_555
B8 Pr10 2.630673 1_555
B8 Pr8 2.633043 1_555
B9 Pr14 2.735696 1_555
B9 Pr5 2.741554 1_554
B9 Pr0 2.939355 1_555
B9 Pr1 2.941767 1_555
B9 Pr10 2.949193 1_555
B9 Pr8 2.959348 1_555
B10 B5 1.740188 1_555
B10 Pr5 2.735696 1_555
B10 Pr14 2.741554 1_556
B10 Pr11 2.939355 1_555
B10 Pr6 2.941767 1_555
B10 Pr13 2.949193 1_555
B10 Pr4 2.959348 1_555
B11 B2 1.627395 1_455
B11 B7 1.739159 1_455
B11 Pr11 2.637169 1_555
B11 Pr4 2.676948 1_555
B11 Pr12 2.695450 1_456
B11 Pr9 2.715369 1_555
B12 B3 1.679517 1_555
B12 B9 1.892706 1_555
B12 Pr14 2.702482 1_555
B12 Pr5 2.735023 1_554
B12 Pr10 2.945063 1_555
B12 Pr1 3.002694 1_555
B12 Pr12 3.034218 1_455
B12 Pr9 3.067121 1_554
B13 B3 1.627395 1_655
B13 B6 1.678839 1_555
B13 B4 1.739159 1_655
B13 Pr0 2.637169 1_555
B13 Pr8 2.676948 1_555
B13 Pr9 2.695450 1_654
B13 Pr12 2.715369 1_555
Cl0 Pr14 2.962724 1_555
Cl0 Pr1 3.081934 1_545
Cl0 Pr0 3.085037 1_445
Cl0 Pr10 3.111959 1_555
Cl0 Pr8 3.118647 1_555
Cl1 Pr12 2.955685 1_555
Cl1 Pr0 3.053110 1_545
Cl1 Pr1 3.053128 1_545
Cl1 Pr10 3.148942 1_655
Cl1 Pr8 3.153673 1_555
Cl2 Pr5 2.962724 1_555
Cl2 Pr6 3.081934 1_565
Cl2 Pr11 3.085037 1_665
Cl2 Pr13 3.111959 1_555
Cl2 Pr4 3.118647 1_555
Cl3 Pr3 2.883406 1_455
Cl3 Pr15 2.893775 1_555
Cl3 Pr0 2.923606 1_455
Cl3 Pr7 3.362744 1_565
Cl4 Pr2 2.998131 1_555
Cl4 Pr3 3.006629 1_555
Cl4 Pr15 3.012898 1_655
Cl4 Pr4 3.234843 1_655
Cl4 Pr13 3.312661 1_555
Cl5 Pr9 2.955685 1_555
Cl5 Pr11 3.053110 1_565
Cl5 Pr6 3.053128 1_565
Cl5 Pr13 3.148942 1_455
Cl5 Pr4 3.153673 1_555
Cl6 Pr15 2.998131 1_555
Cl6 Pr7 3.006629 1_555
Cl6 Pr2 3.012898 1_455
Cl6 Pr8 3.234843 1_455
Cl6 Pr10 3.312661 1_555
Cl7 Pr5 3.035746 1_444
Cl7 Pr14 3.035746 1_555
Cl7 Pr9 3.125775 1_544
Cl7 Pr12 3.125775 1_455
Cl7 Pr0 3.249693 1_445
Cl7 Pr11 3.249693 1_554
Cl8 Pr7 2.883406 1_655
Cl8 Pr2 2.893775 1_555
Cl8 Pr11 2.923606 1_655
Cl8 Pr3 3.362744 1_545
Cl9 Pr3 3.005644 1_555
Cl9 Pr15 3.012054 1_555
Cl9 Pr7 3.027807 1_555
Cl9 Pr4 3.146762 1_555
Cl9 Pr13 3.190651 1_555
Cl10 Pr7 3.005644 1_555
Cl10 Pr2 3.012054 1_555
Cl10 Pr3 3.027807 1_555
Cl10 Pr8 3.146762 1_555
Cl10 Pr10 3.190651 1_555
Cl11 Pr7 2.879685 1_555
Cl11 Pr2 2.887171 1_555
Cl11 Pr6 2.913344 1_555
Cl12 Pr5 3.037140 1_544
Cl12 Pr14 3.037140 1_555
Cl12 Pr12 3.132008 1_555
Cl12 Pr9 3.132008 1_544
Cl12 Pr1 3.249284 1_545
Cl12 Pr6 3.249284 1_554
Cl13 Pr3 2.879685 1_555
Cl13 Pr15 2.887171 1_555
Cl13 Pr1 2.913344 1_555
