# generated using pymatgen
data_AlPO4
_symmetry_space_group_name_H-M   'P 1'
_cell_length_a   12.15377798
_cell_length_b   12.15377799
_cell_length_c   12.15377761
_cell_angle_alpha   118.14741321
_cell_angle_beta   118.14741318
_cell_angle_gamma   118.14741269
_symmetry_Int_Tables_number   1
_chemical_formula_structural   AlPO4
_chemical_formula_sum   'Al6 P6 O24'
_cell_volume   628.13580914
_cell_formula_units_Z   6
loop_
 _symmetry_equiv_pos_site_id
 _symmetry_equiv_pos_as_xyz
  1  'x, y, z'
loop_
 _atom_site_type_symbol
 _atom_site_label
 _atom_site_symmetry_multiplicity
 _atom_site_fract_x
 _atom_site_fract_y
 _atom_site_fract_z
 _atom_site_occupancy
  Al  Al0  1  0.64565562  0.94280343  0.49634362  1
  Al  Al1  1  0.35434438  0.05719657  0.50365638  1
  Al  Al2  1  0.94280343  0.49634362  0.64565562  1
  Al  Al3  1  0.49634362  0.64565562  0.94280343  1
  Al  Al4  1  0.50365638  0.35434438  0.05719657  1
  Al  Al5  1  0.05719657  0.50365638  0.35434438  1
  P  P0  1  0.25987070  0.40425989  0.96366249  1
  P  P1  1  0.74012930  0.59574011  0.03633751  1
  P  P2  1  0.59574011  0.03633751  0.74012930  1
  P  P3  1  0.03633751  0.74012930  0.59574011  1
  P  P4  1  0.96366249  0.25987070  0.40425989  1
  P  P5  1  0.40425989  0.96366249  0.25987070  1
  O  O0  1  0.97104881  0.30662416  0.30984238  1
  O  O1  1  0.68790494  0.95013040  0.15053325  1
  O  O2  1  0.02895119  0.69337584  0.69015762  1
  O  O3  1  0.30984238  0.97104881  0.30662416  1
  O  O4  1  0.99452900  0.40064480  0.55987170  1
  O  O5  1  0.00547100  0.59935520  0.44012830  1
  O  O6  1  0.79891470  0.61836356  0.40329436  1
  O  O7  1  0.04986960  0.84946675  0.31209506  1
  O  O8  1  0.40064480  0.55987170  0.99452900  1
  O  O9  1  0.95013040  0.15053325  0.68790494  1
  O  O10  1  0.40329436  0.79891470  0.61836356  1
  O  O11  1  0.15053325  0.68790494  0.95013040  1
  O  O12  1  0.31209506  0.04986960  0.84946675  1
  O  O13  1  0.20108530  0.38163644  0.59670564  1
  O  O14  1  0.61836356  0.40329436  0.79891470  1
  O  O15  1  0.84946675  0.31209506  0.04986960  1
  O  O16  1  0.69015762  0.02895119  0.69337584  1
  O  O17  1  0.59935520  0.44012830  0.00547100  1
  O  O18  1  0.30662416  0.30984238  0.97104881  1
  O  O19  1  0.55987170  0.99452900  0.40064480  1
  O  O20  1  0.44012830  0.00547100  0.59935520  1
  O  O21  1  0.69337584  0.69015762  0.02895119  1
  O  O22  1  0.59670564  0.20108530  0.38163644  1
  O  O23  1  0.38163644  0.59670564  0.20108530  1
loop_
_geom_bond_atom_site_label_1
_geom_bond_atom_site_label_2
_geom_bond_distance
_geom_bond_site_symmetry_2
Al0 O19 1.731817 1_555
Al0 O9 1.731866 1_565
Al0 O16 1.732463 1_565
Al0 O23 1.739903 1_555
Al1 O20 1.731817 1_555
Al1 O7 1.731866 1_545
Al1 O3 1.732463 1_545
Al1 O14 1.739903 1_555
Al2 O4 1.731817 1_555
Al2 O11 1.731866 1_655
Al2 O2 1.732463 1_655
Al2 O22 1.739903 1_555
Al3 O8 1.731817 1_555
Al3 O1 1.731866 1_556
Al3 O21 1.732463 1_556
Al3 O13 1.739903 1_555
Al4 O17 1.731817 1_555
Al4 O12 1.731866 1_554
Al4 O18 1.732463 1_554
Al4 O6 1.739903 1_555
Al5 O5 1.731817 1_555
Al5 O15 1.731866 1_455
Al5 O0 1.732463 1_455
Al5 O10 1.739903 1_555
O0 P4 1.520541 1_555
O1 P4 1.518592 1_565
O2 P3 1.520541 1_555
O3 P5 1.520541 1_555
O4 P4 1.522171 1_555
O5 P3 1.522171 1_555
O6 P3 1.524713 1_655
O7 P1 1.518592 1_455
O8 P0 1.522171 1_555
O9 P0 1.518592 1_655
O10 P2 1.524713 1_565
O11 P5 1.518592 1_556
O12 P3 1.518592 1_545
O13 P4 1.524713 1_455
O14 P1 1.524713 1_556
O15 P2 1.518592 1_554
O16 P2 1.520541 1_555
O17 P1 1.522171 1_555
O18 P0 1.520541 1_555
O19 P5 1.522171 1_555
O20 P2 1.522171 1_555
O21 P1 1.520541 1_555
O22 P5 1.524713 1_545
O23 P0 1.524713 1_554
