# generated using pymatgen
data_SnP2(Cl5O)2
_symmetry_space_group_name_H-M   'P 1'
_cell_length_a   8.07196769
_cell_length_b   14.30838947
_cell_length_c   14.49151819
_cell_angle_alpha   90.00000000
_cell_angle_beta   90.00000000
_cell_angle_gamma   90.00000000
_symmetry_Int_Tables_number   1
_chemical_formula_structural   SnP2(Cl5O)2
_chemical_formula_sum   'Sn4 P8 Cl40 O8'
_cell_volume   1673.72481132
_cell_formula_units_Z   4
loop_
 _symmetry_equiv_pos_site_id
 _symmetry_equiv_pos_as_xyz
  1  'x, y, z'
loop_
 _atom_site_type_symbol
 _atom_site_label
 _atom_site_symmetry_multiplicity
 _atom_site_fract_x
 _atom_site_fract_y
 _atom_site_fract_z
 _atom_site_occupancy
  Sn  Sn0  1  0.50000000  0.25608198  0.66003642  1
  Sn  Sn1  1  0.50000000  0.74391802  0.33996358  1
  Sn  Sn2  1  0.00000000  0.75608198  0.83996358  1
  Sn  Sn3  1  0.00000000  0.24391802  0.16003642  1
  P  P0  1  0.50000000  0.41548226  0.84660633  1
  P  P1  1  0.00000000  0.60768347  0.63962247  1
  P  P2  1  0.00000000  0.08451774  0.34660633  1
  P  P3  1  0.50000000  0.10768347  0.86037753  1
  P  P4  1  0.00000000  0.91548226  0.65339367  1
  P  P5  1  0.50000000  0.89231653  0.13962247  1
  P  P6  1  0.50000000  0.58451774  0.15339367  1
  P  P7  1  0.00000000  0.39231653  0.36037753  1
  Cl  Cl0  1  0.69530329  0.62584653  0.08304159  1
  Cl  Cl1  1  0.00000000  0.05268585  0.64750999  1
  Cl  Cl2  1  0.29030050  0.76184750  0.81644462  1
  Cl  Cl3  1  0.00000000  0.94731415  0.35249001  1
  Cl  Cl4  1  0.50000000  0.10342314  0.59352043  1
  Cl  Cl5  1  0.29030050  0.23815250  0.18355538  1
  Cl  Cl6  1  0.50000000  0.89657686  0.40647957  1
  Cl  Cl7  1  0.69468985  0.97282152  0.15839195  1
  Cl  Cl8  1  0.69468985  0.02717848  0.84160805  1
  Cl  Cl9  1  0.30531015  0.97282152  0.15839195  1
  Cl  Cl10  1  0.20969950  0.73815250  0.31644462  1
  Cl  Cl11  1  0.00000000  0.60342314  0.90647957  1
  Cl  Cl12  1  0.30469671  0.62584653  0.08304159  1
  Cl  Cl13  1  0.00000000  0.85322412  0.97255982  1
  Cl  Cl14  1  0.79030050  0.26184750  0.68355538  1
  Cl  Cl15  1  0.80469671  0.12584653  0.41695841  1
  Cl  Cl16  1  0.50000000  0.85754358  0.00847531  1
  Cl  Cl17  1  0.80469671  0.87415347  0.58304159  1
  Cl  Cl18  1  0.50000000  0.55268585  0.85249001  1
  Cl  Cl19  1  0.70969950  0.76184750  0.81644462  1
  Cl  Cl20  1  0.00000000  0.39657686  0.09352043  1
  Cl  Cl21  1  0.50000000  0.14245642  0.99152469  1
  Cl  Cl22  1  0.20969950  0.26184750  0.68355538  1
  Cl  Cl23  1  0.19468985  0.52717848  0.65839195  1
  Cl  Cl24  1  0.00000000  0.35754358  0.49152469  1
  Cl  Cl25  1  0.50000000  0.35322412  0.52744018  1
  Cl  Cl26  1  0.69530329  0.37415347  0.91695841  1
  Cl  Cl27  1  0.50000000  0.64677588  0.47255982  1
  Cl  Cl28  1  0.19530329  0.12584653  0.41695841  1
  Cl  Cl29  1  0.79030050  0.73815250  0.31644462  1
  Cl  Cl30  1  0.30469671  0.37415347  0.91695841  1
  Cl  Cl31  1  0.00000000  0.14677588  0.02744018  1
  Cl  Cl32  1  0.80531015  0.52717848  0.65839195  1
  Cl  Cl33  1  0.30531015  0.02717848  0.84160805  1
  Cl  Cl34  1  0.19530329  0.87415347  0.58304159  1
  Cl  Cl35  1  0.19468985  0.47282152  0.34160805  1
  Cl  Cl36  1  0.80531015  0.47282152  0.34160805  1
  Cl  Cl37  1  0.00000000  0.64245642  0.50847531  1
  Cl  Cl38  1  0.50000000  0.44731415  0.14750999  1
  Cl  Cl39  1  0.70969950  0.23815250  0.18355538  1
  O  O0  1  0.00000000  0.88465457  0.75087178  1
  O  O1  1  0.00000000  0.69230502  0.69777077  1
  O  O2  1  0.00000000  0.11534543  0.24912822  1
  O  O3  1  0.50000000  0.80769498  0.19777077  1
  O  O4  1  0.00000000  0.30769498  0.30222923  1
  O  O5  1  0.50000000  0.61534543  0.25087178  1
  O  O6  1  0.50000000  0.19230502  0.80222923  1
  O  O7  1  0.50000000  0.38465457  0.74912822  1
loop_
_geom_bond_atom_site_label_1
_geom_bond_atom_site_label_2
_geom_bond_distance
_geom_bond_site_symmetry_2
Cl0 P6 1.968346 1_555
Cl1 P4 1.965013 1_545
Cl2 Sn2 2.369389 1_555
Cl3 P2 1.965013 1_565
Cl4 Sn0 2.387533 1_555
Cl5 Sn3 2.369389 1_555
Cl6 Sn1 2.387533 1_555
Cl7 P5 1.967373 1_555
Cl8 P3 1.967373 1_555
Cl9 P5 1.967373 1_555
Cl10 Sn1 2.369389 1_555
Cl11 Sn2 2.387533 1_555
Cl12 P6 1.968346 1_555
Cl13 Sn2 2.371539 1_555
Cl14 Sn0 2.369389 1_555
Cl15 P2 1.968346 1_655
Cl16 P5 1.964569 1_555
Cl17 P4 1.968346 1_655
Cl18 P0 1.965013 1_555
Cl19 Sn2 2.369389 1_655
Cl20 Sn3 2.387533 1_555
Cl21 P3 1.964569 1_555
Cl22 Sn0 2.369389 1_555
Cl23 P1 1.967373 1_555
Cl24 P7 1.964569 1_555
Cl25 Sn0 2.371539 1_555
Cl26 P0 1.968346 1_555
Cl27 Sn1 2.371539 1_555
Cl28 P2 1.968346 1_555
Cl29 Sn1 2.369389 1_555
Cl30 P0 1.968346 1_555
Cl31 Sn3 2.371539 1_555
Cl32 P1 1.967373 1_655
Cl33 P3 1.967373 1_555
Cl34 P4 1.968346 1_555
Cl35 P7 1.967373 1_555
Cl36 P7 1.967373 1_655
Cl37 P1 1.964569 1_555
Cl38 P6 1.965013 1_555
Cl39 Sn3 2.369389 1_655
O0 P4 1.479871 1_555
O0 Sn2 2.247498 1_555
O1 P1 1.475162 1_555
O1 Sn2 2.253613 1_555
O2 P2 1.479871 1_555
O2 Sn3 2.247498 1_555
O3 P5 1.475162 1_555
O3 Sn1 2.253613 1_555
O4 P7 1.475162 1_555
O4 Sn3 2.253613 1_555
O5 P6 1.479871 1_555
O5 Sn1 2.247498 1_555
O6 P3 1.475162 1_555
O6 Sn0 2.253613 1_555
O7 P0 1.479871 1_555
O7 Sn0 2.247498 1_555
