# generated using pymatgen
data_Bi2Pt
_symmetry_space_group_name_H-M   'P 1'
_cell_length_a   7.08511635
_cell_length_b   7.08511633
_cell_length_c   5.62692903
_cell_angle_alpha   90.00000000
_cell_angle_beta   90.00000000
_cell_angle_gamma   120.00001058
_symmetry_Int_Tables_number   1
_chemical_formula_structural   Bi2Pt
_chemical_formula_sum   'Bi6 Pt3'
_cell_volume   244.62227177
_cell_formula_units_Z   3
loop_
 _symmetry_equiv_pos_site_id
 _symmetry_equiv_pos_as_xyz
  1  'x, y, z'
loop_
 _atom_site_type_symbol
 _atom_site_label
 _atom_site_symmetry_multiplicity
 _atom_site_fract_x
 _atom_site_fract_y
 _atom_site_fract_z
 _atom_site_occupancy
  Bi  Bi0  1  0.33320804  0.99974346  0.25832324  1
  Bi  Bi1  1  0.99974346  0.66653442  0.74167676  1
  Bi  Bi2  1  0.66679196  0.00025654  0.74167676  1
  Bi  Bi3  1  0.66653442  0.66679196  0.25832324  1
  Bi  Bi4  1  0.33346558  0.33320804  0.74167676  1
  Bi  Bi5  1  0.00025654  0.33346558  0.25832324  1
  Pt  Pt0  1  0.66666700  0.33333300  0.00036942  1
  Pt  Pt1  1  -0.00000000  -0.00000000  -0.00000000  1
  Pt  Pt2  1  0.33333300  0.66666700  0.99963058  1
loop_
_geom_bond_atom_site_label_1
_geom_bond_atom_site_label_2
_geom_bond_distance
_geom_bond_site_symmetry_2
Bi0 Pt2 2.773094 1_554
Bi0 Pt1 2.773195 1_565
Bi0 Pt0 2.773240 1_565
Bi1 Pt0 2.773094 1_556
Bi1 Pt1 2.773201 1_666
Bi1 Pt2 2.773234 1_655
Bi2 Pt0 2.773094 1_556
Bi2 Pt1 2.773195 1_656
Bi2 Pt2 2.773240 1_545
Bi3 Pt2 2.773094 1_554
Bi3 Pt1 2.773198 1_665
Bi3 Pt0 2.773246 1_555
Bi4 Pt0 2.773094 1_556
Bi4 Pt1 2.773198 1_556
Bi4 Pt2 2.773246 1_555
Bi5 Pt2 2.773094 1_554
Bi5 Pt1 2.773201 1_555
Bi5 Pt0 2.773234 1_455
