# generated using pymatgen
data_SiO2
_symmetry_space_group_name_H-M   'P 1'
_cell_length_a   9.59877805
_cell_length_b   9.59877805
_cell_length_c   9.59877768
_cell_angle_alpha   117.33407439
_cell_angle_beta   117.33407439
_cell_angle_gamma   117.33406562
_symmetry_Int_Tables_number   1
_chemical_formula_structural   SiO2
_chemical_formula_sum   'Si6 O12'
_cell_volume   368.73872997
_cell_formula_units_Z   6
loop_
 _symmetry_equiv_pos_site_id
 _symmetry_equiv_pos_as_xyz
  1  'x, y, z'
loop_
 _atom_site_type_symbol
 _atom_site_label
 _atom_site_symmetry_multiplicity
 _atom_site_fract_x
 _atom_site_fract_y
 _atom_site_fract_z
 _atom_site_occupancy
  Si  Si0  1  0.18261000  0.31739000  0.75000000  1
  Si  Si1  1  0.81739000  0.68261000  0.25000000  1
  Si  Si2  1  0.31739000  0.75000000  0.18261000  1
  Si  Si3  1  0.68261000  0.25000000  0.81739000  1
  Si  Si4  1  0.75000000  0.18261000  0.31739000  1
  Si  Si5  1  0.25000000  0.81739000  0.68261000  1
  O  O0  1  0.00000000  0.50000000  0.00000000  1
  O  O1  1  0.75000000  0.48989800  0.01010200  1
  O  O2  1  0.25000000  0.51010200  0.98989800  1
  O  O3  1  0.51010200  0.98989800  0.25000000  1
  O  O4  1  0.50000000  0.00000000  0.00000000  1
  O  O5  1  0.01010200  0.75000000  0.48989800  1
  O  O6  1  0.50000000  0.00000000  0.50000000  1
  O  O7  1  0.48989800  0.01010200  0.75000000  1
  O  O8  1  0.98989800  0.25000000  0.51010200  1
  O  O9  1  0.50000000  0.50000000  0.00000000  1
  O  O10  1  0.00000000  0.50000000  0.50000000  1
  O  O11  1  0.00000000  0.00000000  0.50000000  1
loop_
_geom_bond_atom_site_label_1
_geom_bond_atom_site_label_2
_geom_bond_distance
_geom_bond_site_symmetry_2
O0 Si2 1.622215 1_555
O0 Si3 1.622215 1_454
O1 Si1 1.662565 1_555
O1 Si3 1.662565 1_554
O2 Si0 1.662565 1_555
O2 Si2 1.662565 1_556
O3 Si2 1.662566 1_555
O3 Si4 1.662566 1_565
O4 Si4 1.622214 1_555
O4 Si5 1.622214 1_544
O5 Si1 1.662565 1_455
O5 Si5 1.662565 1_555
O6 Si2 1.622214 1_545
O6 Si3 1.622214 1_555
O7 Si3 1.662566 1_555
O7 Si5 1.662566 1_545
O8 Si0 1.662565 1_655
O8 Si4 1.662565 1_555
O9 Si0 1.622215 1_554
O9 Si1 1.622215 1_555
O10 Si4 1.622215 1_455
O10 Si5 1.622215 1_555
O11 Si0 1.622215 1_555
O11 Si1 1.622215 1_445
