# generated using pymatgen
data_Zn3Fe2(CN)12
_symmetry_space_group_name_H-M   'P 1'
_cell_length_a   13.04970176
_cell_length_b   13.04970176
_cell_length_c   13.04970150
_cell_angle_alpha   58.32390517
_cell_angle_beta   58.32390517
_cell_angle_gamma   58.32390336
_symmetry_Int_Tables_number   1
_chemical_formula_structural   Zn3Fe2(CN)12
_chemical_formula_sum   'Zn6 Fe4 C24 N24'
_cell_volume   1511.09004756
_cell_formula_units_Z   2
loop_
 _symmetry_equiv_pos_site_id
 _symmetry_equiv_pos_as_xyz
  1  'x, y, z'
loop_
 _atom_site_type_symbol
 _atom_site_label
 _atom_site_symmetry_multiplicity
 _atom_site_fract_x
 _atom_site_fract_y
 _atom_site_fract_z
 _atom_site_occupancy
  Zn  Zn0  1  0.96067700  0.25000000  0.53932300  1
  Zn  Zn1  1  0.46067700  0.03932300  0.75000000  1
  Zn  Zn2  1  0.25000000  0.53932300  0.96067700  1
  Zn  Zn3  1  0.53932300  0.96067700  0.25000000  1
  Zn  Zn4  1  0.75000000  0.46067700  0.03932300  1
  Zn  Zn5  1  0.03932300  0.75000000  0.46067700  1
  Fe  Fe0  1  0.64585800  0.64585800  0.64585800  1
  Fe  Fe1  1  0.35414200  0.35414200  0.35414200  1
  Fe  Fe2  1  0.85414200  0.85414200  0.85414200  1
  Fe  Fe3  1  0.14585800  0.14585800  0.14585800  1
  C  C0  1  0.55156100  0.79427900  0.69463500  1
  C  C1  1  0.25146400  0.50329700  0.40141700  1
  C  C2  1  0.05156100  0.19463500  0.29427900  1
  C  C3  1  0.69463500  0.55156100  0.79427900  1
  C  C4  1  0.99670300  0.24853600  0.09858300  1
  C  C5  1  0.29427900  0.05156100  0.19463500  1
  C  C6  1  0.20572100  0.30536500  0.44843900  1
  C  C7  1  0.49670300  0.59858300  0.74853600  1
  C  C8  1  0.74853600  0.49670300  0.59858300  1
  C  C9  1  0.79427900  0.69463500  0.55156100  1
  C  C10  1  0.50329700  0.40141700  0.25146400  1
  C  C11  1  0.30536500  0.44843900  0.20572100  1
  C  C12  1  0.90141700  0.00329700  0.75146400  1
  C  C13  1  0.70572100  0.94843900  0.80536500  1
  C  C14  1  0.00329700  0.75146400  0.90141700  1
  C  C15  1  0.40141700  0.25146400  0.50329700  1
  C  C16  1  0.94843900  0.80536500  0.70572100  1
  C  C17  1  0.24853600  0.09858300  0.99670300  1
  C  C18  1  0.44843900  0.20572100  0.30536500  1
  C  C19  1  0.75146400  0.90141700  0.00329700  1
  C  C20  1  0.59858300  0.74853600  0.49670300  1
  C  C21  1  0.80536500  0.70572100  0.94843900  1
  C  C22  1  0.09858300  0.99670300  0.24853600  1
  C  C23  1  0.19463500  0.29427900  0.05156100  1
  N  N0  1  0.18384300  0.59568600  0.42917400  1
  N  N1  1  0.27531900  0.50096800  0.11535300  1
  N  N2  1  0.07082600  0.90431400  0.31615700  1
  N  N3  1  0.77531900  0.61535300  0.00096800  1
  N  N4  1  0.22468100  0.38464700  0.99903200  1
  N  N5  1  0.81615700  0.40431400  0.57082600  1
  N  N6  1  0.59568600  0.42917400  0.18384300  1
  N  N7  1  0.90431400  0.31615700  0.07082600  1
  N  N8  1  0.49903200  0.88464700  0.72468100  1
  N  N9  1  0.00096800  0.77531900  0.61535300  1
  N  N10  1  0.92917400  0.09568600  0.68384300  1
  N  N11  1  0.42917400  0.18384300  0.59568600  1
  N  N12  1  0.61535300  0.00096800  0.77531900  1
  N  N13  1  0.50096800  0.11535300  0.27531900  1
  N  N14  1  0.99903200  0.22468100  0.38464700  1
  N  N15  1  0.57082600  0.81615700  0.40431400  1
  N  N16  1  0.88464700  0.72468100  0.49903200  1
  N  N17  1  0.72468100  0.49903200  0.88464700  1
  N  N18  1  0.38464700  0.99903200  0.22468100  1
  N  N19  1  0.31615700  0.07082600  0.90431400  1
  N  N20  1  0.11535300  0.27531900  0.50096800  1
  N  N21  1  0.09568600  0.68384300  0.92917400  1
  N  N22  1  0.40431400  0.57082600  0.81615700  1
  N  N23  1  0.68384300  0.92917400  0.09568600  1
loop_
_geom_bond_atom_site_label_1
_geom_bond_atom_site_label_2
_geom_bond_distance
_geom_bond_site_symmetry_2
C0 N8 1.169901 1_555
C0 Fe0 1.907839 1_555
C1 N0 1.170081 1_555
C1 Fe1 1.902225 1_555
C2 N14 1.169901 1_455
C2 Fe3 1.907839 1_555
C3 N17 1.169901 1_555
C3 Fe0 1.907839 1_555
C4 N7 1.170081 1_555
C4 Fe3 1.902225 1_655
C5 N18 1.169901 1_545
C5 Fe3 1.907839 1_555
C6 N20 1.169901 1_555
C6 Fe1 1.907839 1_555
C7 N22 1.170081 1_555
C7 Fe0 1.902225 1_555
C8 N5 1.170081 1_555
C8 Fe0 1.902225 1_555
C9 N16 1.169901 1_555
C9 Fe0 1.907839 1_555
C10 N6 1.170081 1_555
C10 Fe1 1.902225 1_555
C11 N1 1.169901 1_555
C11 Fe1 1.907839 1_555
C12 N10 1.170081 1_555
C12 Fe2 1.902225 1_545
C13 N12 1.169901 1_565
C13 Fe2 1.907839 1_555
C14 N21 1.170081 1_555
C14 Fe2 1.902225 1_455
C15 N11 1.170081 1_555
C15 Fe1 1.902225 1_555
C16 N9 1.169901 1_655
C16 Fe2 1.907839 1_555
C17 N19 1.170081 1_555
C17 Fe3 1.902225 1_556
C18 N13 1.169901 1_555
C18 Fe1 1.907839 1_555
C19 N23 1.170081 1_555
C19 Fe2 1.902225 1_554
C20 N15 1.170081 1_555
C20 Fe0 1.902225 1_555
C21 N3 1.169901 1_556
C21 Fe2 1.907839 1_555
C22 N2 1.170081 1_555
C22 Fe3 1.902225 1_565
C23 N4 1.169901 1_554
C23 Fe3 1.907839 1_555
N0 Zn5 1.961522 1_555
N1 Zn2 1.974747 1_554
N2 Zn5 1.961522 1_555
N3 Zn4 1.974747 1_555
N4 Zn2 1.974747 1_555
N5 Zn0 1.961522 1_555
N6 Zn4 1.961522 1_555
N7 Zn4 1.961522 1_555
N8 Zn1 1.974747 1_565
N9 Zn5 1.974747 1_555
N10 Zn0 1.961522 1_555
N11 Zn1 1.961522 1_555
N12 Zn1 1.974747 1_555
N13 Zn3 1.974747 1_545
N14 Zn0 1.974747 1_555
N15 Zn3 1.961522 1_555
N16 Zn5 1.974747 1_655
N17 Zn4 1.974747 1_556
N18 Zn3 1.974747 1_555
N19 Zn1 1.961522 1_555
N20 Zn0 1.974747 1_455
N21 Zn2 1.961522 1_555
N22 Zn2 1.961522 1_555
N23 Zn3 1.961522 1_555
