# generated using pymatgen
data_DyCuS2
_symmetry_space_group_name_H-M   'P 1'
_cell_length_a   3.96055800
_cell_length_b   6.25766800
_cell_length_c   13.47609000
_cell_angle_alpha   90.00000000
_cell_angle_beta   90.00000000
_cell_angle_gamma   90.00000000
_symmetry_Int_Tables_number   1
_chemical_formula_structural   DyCuS2
_chemical_formula_sum   'Dy4 Cu4 S8'
_cell_volume   333.98948827
_cell_formula_units_Z   4
loop_
 _symmetry_equiv_pos_site_id
 _symmetry_equiv_pos_as_xyz
  1  'x, y, z'
loop_
 _atom_site_type_symbol
 _atom_site_label
 _atom_site_symmetry_multiplicity
 _atom_site_fract_x
 _atom_site_fract_y
 _atom_site_fract_z
 _atom_site_occupancy
  Dy  Dy0  1  0.74226300  0.74830900  0.36691700  1
  Dy  Dy1  1  0.75773700  0.25169100  0.86691700  1
  Dy  Dy2  1  0.25773700  0.24830900  0.13308300  1
  Dy  Dy3  1  0.24226300  0.75169100  0.63308300  1
  Cu  Cu0  1  0.72688700  0.37393100  0.54745800  1
  Cu  Cu1  1  0.77311300  0.62606900  0.04745800  1
  Cu  Cu2  1  0.27311300  0.87393100  0.95254200  1
  Cu  Cu3  1  0.22688700  0.12606900  0.45254200  1
  S  S0  1  0.26035400  0.49727900  0.96137200  1
  S  S1  1  0.73964600  0.99727900  0.53862800  1
  S  S2  1  0.23964600  0.50272100  0.46137200  1
  S  S3  1  0.24295900  0.98723500  0.29490700  1
  S  S4  1  0.76035400  0.00272100  0.03862800  1
  S  S5  1  0.25704100  0.01276500  0.79490700  1
  S  S6  1  0.75704100  0.48723500  0.20509300  1
  S  S7  1  0.74295900  0.51276500  0.70509300  1
loop_
_geom_bond_atom_site_label_1
_geom_bond_atom_site_label_2
_geom_bond_distance
_geom_bond_site_symmetry_2
Dy0 S3 2.662270 1_555
Dy0 S3 2.666367 1_655
Dy0 S6 2.725461 1_555
Dy0 S1 2.789614 1_555
Dy0 S2 2.804028 1_655
Dy0 S2 2.818630 1_555
Dy1 S5 2.662270 1_655
Dy1 S5 2.666367 1_555
Dy1 S7 2.725461 1_555
Dy1 S4 2.789614 1_556
Dy1 S0 2.804028 1_555
Dy1 S0 2.818630 1_655
Dy2 S6 2.662270 1_555
Dy2 S6 2.666367 1_455
Dy2 S3 2.725461 1_545
Dy2 S0 2.789614 1_554
Dy2 S4 2.804028 1_455
Dy2 S4 2.818630 1_555
Dy3 S7 2.662270 1_455
Dy3 S7 2.666367 1_555
Dy3 S5 2.725461 1_565
Dy3 S2 2.789614 1_555
Dy3 S1 2.804028 1_555
Dy3 S1 2.818630 1_455
Cu0 S7 2.295973 1_555
Cu0 S1 2.360506 1_545
Cu0 S2 2.391500 1_555
Cu0 S2 2.473772 1_655
Cu1 S6 2.295973 1_555
Cu1 S4 2.360506 1_565
Cu1 S0 2.391500 1_654
Cu1 S0 2.473772 1_554
Cu2 S5 2.295973 1_565
Cu2 S0 2.360506 1_555
Cu2 S4 2.391500 1_566
Cu2 S4 2.473772 1_466
Cu3 S3 2.295973 1_545
Cu3 S2 2.360506 1_555
Cu3 S1 2.391500 1_445
Cu3 S1 2.473772 1_545
