# generated using pymatgen
data_Rb5LiSi2NiO8
_symmetry_space_group_name_H-M   'P 1'
_cell_length_a   6.80816848
_cell_length_b   6.80816848
_cell_length_c   13.94309626
_cell_angle_alpha   82.66363331
_cell_angle_beta   82.66363331
_cell_angle_gamma   99.87259868
_symmetry_Int_Tables_number   1
_chemical_formula_structural   Rb5LiSi2NiO8
_chemical_formula_sum   'Rb10 Li2 Si4 Ni2 O16'
_cell_volume   624.05192447
_cell_formula_units_Z   2
loop_
 _symmetry_equiv_pos_site_id
 _symmetry_equiv_pos_as_xyz
  1  'x, y, z'
loop_
 _atom_site_type_symbol
 _atom_site_label
 _atom_site_symmetry_multiplicity
 _atom_site_fract_x
 _atom_site_fract_y
 _atom_site_fract_z
 _atom_site_occupancy
  Rb  Rb0  1  0.36644000  0.63356000  0.75000000  1
  Rb  Rb1  1  0.09363600  0.46013700  0.35043500  1
  Rb  Rb2  1  0.63356000  0.36644000  0.25000000  1
  Rb  Rb3  1  0.90636400  0.53986300  0.64956500  1
  Rb  Rb4  1  0.04123800  0.74367600  0.07219800  1
  Rb  Rb5  1  0.46013700  0.09363600  0.85043500  1
  Rb  Rb6  1  0.25632400  0.95876200  0.42780200  1
  Rb  Rb7  1  0.74367600  0.04123800  0.57219800  1
  Rb  Rb8  1  0.53986300  0.90636400  0.14956500  1
  Rb  Rb9  1  0.95876200  0.25632400  0.92780200  1
  Li  Li0  1  0.96011000  0.03989000  0.25000000  1
  Li  Li1  1  0.03989000  0.96011000  0.75000000  1
  Si  Si0  1  0.27940000  0.21886600  0.62982600  1
  Si  Si1  1  0.78113400  0.72060000  0.87017400  1
  Si  Si2  1  0.72060000  0.78113400  0.37017400  1
  Si  Si3  1  0.21886600  0.27940000  0.12982600  1
  Ni  Ni0  1  0.50000000  0.50000000  0.50000000  1
  Ni  Ni1  1  0.50000000  0.50000000  0.00000000  1
  O  O0  1  0.51987800  0.33861700  0.62050700  1
  O  O1  1  0.74538900  0.85945500  0.77087100  1
  O  O2  1  0.85945500  0.74538900  0.27087100  1
  O  O3  1  0.77061200  0.65906700  0.47395800  1
  O  O4  1  0.22938800  0.34093300  0.52604200  1
  O  O5  1  0.14054500  0.25461100  0.72912900  1
  O  O6  1  0.33861700  0.51987800  0.12050700  1
  O  O7  1  0.75015600  0.02645100  0.36781800  1
  O  O8  1  0.97354900  0.24984400  0.13218200  1
  O  O9  1  0.48012200  0.66138300  0.37949300  1
  O  O10  1  0.25461100  0.14054500  0.22912900  1
  O  O11  1  0.02645100  0.75015600  0.86781800  1
  O  O12  1  0.65906700  0.77061200  0.97395800  1
  O  O13  1  0.24984400  0.97354900  0.63218200  1
  O  O14  1  0.66138300  0.48012200  0.87949300  1
  O  O15  1  0.34093300  0.22938800  0.02604200  1
loop_
_geom_bond_atom_site_label_1
_geom_bond_atom_site_label_2
_geom_bond_distance
_geom_bond_site_symmetry_2
Li0 O10 1.975667 1_655
Li0 O2 1.975667 1_545
Li0 O8 2.016745 1_555
Li0 O7 2.016745 1_555
Li1 O5 1.975667 1_565
Li1 O1 1.975667 1_455
Li1 O13 2.016745 1_555
Li1 O11 2.016745 1_555
Ni0 O0 1.919974 1_555
Ni0 O9 1.919974 1_555
Ni0 O3 1.934815 1_555
Ni0 O4 1.934815 1_555
Ni1 O6 1.919974 1_555
Ni1 O14 1.919974 1_554
Ni1 O12 1.934815 1_554
Ni1 O15 1.934815 1_555
O0 Si0 1.680160 1_555
O0 Rb7 2.831654 1_555
O0 Rb3 2.853539 1_555
O0 Rb0 3.089806 1_555
O0 Rb5 3.360635 1_555
O1 Si1 1.643369 1_555
O1 Rb0 2.837512 1_555
O1 Rb7 2.888426 1_565
O1 Rb5 2.916748 1_565
O1 Rb3 3.174951 1_555
O2 Si2 1.643369 1_555
O2 Rb2 2.837512 1_555
O2 Rb4 2.888426 1_655
O2 Rb1 2.916748 1_655
O2 Rb8 3.174951 1_555
O3 Si2 1.678193 1_555
O3 Rb3 2.799224 1_555
O3 Rb7 3.112775 1_565
O3 Rb1 3.207304 1_655
O3 Rb6 3.509948 1_655
O4 Si0 1.678193 1_555
O4 Rb1 2.799224 1_555
O4 Rb6 3.112775 1_545
O4 Rb3 3.207304 1_455
O4 Rb7 3.509948 1_455
O5 Si0 1.643369 1_555
O5 Rb0 2.837512 1_555
O5 Rb9 2.888426 1_455
O5 Rb3 2.916748 1_455
O5 Rb5 3.174951 1_555
O6 Si3 1.680160 1_555
O6 Rb4 2.831654 1_555
O6 Rb8 2.853539 1_555
O6 Rb2 3.089806 1_555
O6 Rb1 3.360635 1_555
O7 Si2 1.643185 1_545
O7 Rb7 2.859283 1_555
O7 Rb2 2.945946 1_555
O7 Rb6 3.296613 1_545
O7 Rb1 3.398510 1_655
O8 Si3 1.643185 1_655
O8 Rb9 2.859283 1_554
O8 Rb2 2.945946 1_555
O8 Rb4 3.296613 1_655
O8 Rb8 3.398510 1_545
O9 Si2 1.680160 1_555
O9 Rb6 2.831654 1_555
O9 Rb1 2.853539 1_555
O9 Rb2 3.089806 1_555
O9 Rb8 3.360635 1_555
O10 Si3 1.643369 1_555
O10 Rb2 2.837512 1_555
O10 Rb6 2.888426 1_545
O10 Rb8 2.916748 1_545
O10 Rb1 3.174951 1_555
O11 Si1 1.643185 1_455
O11 Rb4 2.859283 1_556
O11 Rb0 2.945946 1_555
O11 Rb9 3.296613 1_455
O11 Rb5 3.398510 1_565
O12 Si1 1.678193 1_555
O12 Rb8 2.799224 1_556
O12 Rb4 3.112775 1_656
O12 Rb5 3.207304 1_565
O12 Rb9 3.509948 1_565
O13 Si0 1.643185 1_565
O13 Rb6 2.859283 1_555
O13 Rb0 2.945946 1_555
O13 Rb7 3.296613 1_565
O13 Rb3 3.398510 1_455
O14 Si1 1.680160 1_555
O14 Rb9 2.831654 1_555
O14 Rb5 2.853539 1_555
O14 Rb0 3.089806 1_555
O14 Rb3 3.360635 1_555
O15 Si3 1.678193 1_555
O15 Rb5 2.799224 1_554
O15 Rb9 3.112775 1_454
O15 Rb8 3.207304 1_545
O15 Rb4 3.509948 1_545
