# generated using pymatgen
data_Li5SbS3I2
_symmetry_space_group_name_H-M   'P 1'
_cell_length_a   7.61569000
_cell_length_b   10.48105800
_cell_length_c   13.58059300
_cell_angle_alpha   90.00000000
_cell_angle_beta   90.00000000
_cell_angle_gamma   90.00000000
_symmetry_Int_Tables_number   1
_chemical_formula_structural   Li5SbS3I2
_chemical_formula_sum   'Li20 Sb4 S12 I8'
_cell_volume   1084.00956874
_cell_formula_units_Z   4
loop_
 _symmetry_equiv_pos_site_id
 _symmetry_equiv_pos_as_xyz
  1  'x, y, z'
loop_
 _atom_site_type_symbol
 _atom_site_label
 _atom_site_symmetry_multiplicity
 _atom_site_fract_x
 _atom_site_fract_y
 _atom_site_fract_z
 _atom_site_occupancy
  Li  Li0  1  0.23070000  0.06120700  0.09777400  1
  Li  Li1  1  0.26930000  0.56120700  0.40222600  1
  Li  Li2  1  0.50000000  0.31306800  0.96153800  1
  Li  Li3  1  0.73070000  0.56120700  0.40222600  1
  Li  Li4  1  0.24322700  0.30465700  0.25165600  1
  Li  Li5  1  0.76930000  0.93879300  0.90222600  1
  Li  Li6  1  0.50000000  0.68693200  0.03846200  1
  Li  Li7  1  0.75677300  0.30465700  0.25165600  1
  Li  Li8  1  0.75677300  0.69534300  0.74834400  1
  Li  Li9  1  0.26930000  0.43879300  0.59777400  1
  Li  Li10  1  0.76930000  0.06120700  0.09777400  1
  Li  Li11  1  0.25677300  0.19534300  0.75165600  1
  Li  Li12  1  0.25677300  0.80465700  0.24834400  1
  Li  Li13  1  0.24322700  0.69534300  0.74834400  1
  Li  Li14  1  0.00000000  0.18693200  0.46153800  1
  Li  Li15  1  0.23070000  0.93879300  0.90222600  1
  Li  Li16  1  0.74322700  0.80465700  0.24834400  1
  Li  Li17  1  0.74322700  0.19534300  0.75165600  1
  Li  Li18  1  0.00000000  0.81306800  0.53846200  1
  Li  Li19  1  0.73070000  0.43879300  0.59777400  1
  Sb  Sb0  1  0.00000000  0.30053800  0.99346300  1
  Sb  Sb1  1  0.50000000  0.80053800  0.50653700  1
  Sb  Sb2  1  0.50000000  0.19946200  0.49346300  1
  Sb  Sb3  1  0.00000000  0.69946200  0.00653700  1
  S  S0  1  0.00000000  0.79896300  0.84035800  1
  S  S1  1  0.74918300  0.67164100  0.56695200  1
  S  S2  1  0.24918300  0.17164100  0.93304800  1
  S  S3  1  0.75081700  0.17164100  0.93304800  1
  S  S4  1  0.50000000  0.70103700  0.34035800  1
  S  S5  1  0.74918300  0.32835900  0.43304800  1
  S  S6  1  0.50000000  0.29896300  0.65964200  1
  S  S7  1  0.75081700  0.82835900  0.06695200  1
  S  S8  1  0.24918300  0.82835900  0.06695200  1
  S  S9  1  0.25081700  0.67164100  0.56695200  1
  S  S10  1  0.00000000  0.20103700  0.15964200  1
  S  S11  1  0.25081700  0.32835900  0.43304800  1
  I  I0  1  0.00000000  0.42967000  0.73750500  1
  I  I1  1  0.00000000  0.94176400  0.35776600  1
  I  I2  1  0.00000000  0.05823600  0.64223400  1
  I  I3  1  0.50000000  0.07033000  0.23750500  1
  I  I4  1  0.50000000  0.92967000  0.76249500  1
  I  I5  1  0.50000000  0.55823600  0.85776600  1
  I  I6  1  0.00000000  0.57033000  0.26249500  1
  I  I7  1  0.50000000  0.44176400  0.14223400  1
loop_
_geom_bond_atom_site_label_1
_geom_bond_atom_site_label_2
_geom_bond_distance
_geom_bond_site_symmetry_2
Li0 S10 2.437348 1_555
Li0 S8 2.480127 1_545
Li0 S2 2.522707 1_554
Li1 S4 2.437348 1_555
Li1 S11 2.480127 1_555
Li1 S9 2.522707 1_555
Li2 S3 2.448587 1_555
Li2 S2 2.448587 1_555
Li3 S4 2.437348 1_555
Li3 S5 2.480127 1_555
Li3 S1 2.522707 1_555
Li4 S11 2.476580 1_555
Li4 S10 2.484387 1_555
Li5 S0 2.437348 1_655
Li5 S3 2.480127 1_565
Li5 S7 2.522707 1_556
Li6 S7 2.448587 1_555
Li6 S8 2.448587 1_555
Li7 S5 2.476580 1_555
Li7 S10 2.484387 1_655
Li8 S1 2.476580 1_555
Li8 S0 2.484387 1_655
Li9 S6 2.437348 1_555
Li9 S9 2.480127 1_555
Li9 S11 2.522707 1_555
Li10 S10 2.437348 1_655
Li10 S7 2.480127 1_545
Li10 S3 2.522707 1_554
Li11 S2 2.476580 1_555
Li11 S6 2.484387 1_555
Li12 S8 2.476580 1_555
Li12 S4 2.484387 1_555
Li13 S9 2.476580 1_555
Li13 S0 2.484387 1_555
Li14 S11 2.448587 1_555
Li14 S5 2.448587 1_455
Li15 S0 2.437348 1_555
Li15 S2 2.480127 1_565
Li15 S8 2.522707 1_556
Li16 S7 2.476580 1_555
Li16 S4 2.484387 1_555
Li17 S3 2.476580 1_555
Li17 S6 2.484387 1_555
Li18 S9 2.448587 1_555
Li18 S1 2.448587 1_455
Li19 S6 2.437348 1_555
Li19 S1 2.480127 1_555
Li19 S5 2.522707 1_555
S0 Sb3 2.486117 1_556
S1 Sb1 2.469733 1_555
S2 Sb0 2.469733 1_555
S3 Sb0 2.469733 1_655
S4 Sb1 2.486117 1_555
S5 Sb2 2.469733 1_555
S6 Sb2 2.486117 1_555
S7 Sb3 2.469733 1_655
S8 Sb3 2.469733 1_555
S9 Sb1 2.469733 1_555
S10 Sb0 2.486117 1_554
S11 Sb2 2.469733 1_555
I0 Li19 2.795774 1_455
I0 Li9 2.795774 1_555
I0 Li11 3.145288 1_555
I0 Li17 3.145288 1_455
I0 Li13 3.347606 1_555
I0 Li8 3.347606 1_455
I1 Li18 2.800244 1_555
I1 Li12 2.845572 1_555
I1 Li16 2.845572 1_455
I1 Li14 2.930705 1_565
I2 Li14 2.800244 1_555
I2 Li11 2.845572 1_555
I2 Li17 2.845572 1_455
I2 Li18 2.930705 1_545
I3 Li10 2.795774 1_555
I3 Li0 2.795774 1_555
I3 Li7 3.145288 1_555
I3 Li4 3.145288 1_555
I3 Li12 3.347606 1_545
I3 Li16 3.347606 1_545
I4 Li5 2.795774 1_555
I4 Li15 2.795774 1_555
I4 Li8 3.145288 1_555
I4 Li13 3.145288 1_555
I4 Li17 3.347606 1_565
I4 Li11 3.347606 1_565
I5 Li6 2.800244 1_556
I5 Li8 2.845572 1_555
I5 Li13 2.845572 1_555
I5 Li2 2.930705 1_555
I6 Li3 2.795774 1_455
I6 Li1 2.795774 1_555
I6 Li12 3.145288 1_555
I6 Li16 3.145288 1_455
I6 Li4 3.347606 1_555
I6 Li7 3.347606 1_455
I7 Li2 2.800244 1_554
I7 Li7 2.845572 1_555
I7 Li4 2.845572 1_555
I7 Li6 2.930705 1_555
