# generated using pymatgen
data_Si4Mo2P4O23
_symmetry_space_group_name_H-M   'P 1'
_cell_length_a   5.23176741
_cell_length_b   8.40987805
_cell_length_c   11.19202501
_cell_angle_alpha   77.53471593
_cell_angle_beta   77.81656725
_cell_angle_gamma   73.19219114
_symmetry_Int_Tables_number   1
_chemical_formula_structural   Si4Mo2P4O23
_chemical_formula_sum   'Si4 Mo2 P4 O23'
_cell_volume   454.42764211
_cell_formula_units_Z   1
loop_
 _symmetry_equiv_pos_site_id
 _symmetry_equiv_pos_as_xyz
  1  'x, y, z'
loop_
 _atom_site_type_symbol
 _atom_site_label
 _atom_site_symmetry_multiplicity
 _atom_site_fract_x
 _atom_site_fract_y
 _atom_site_fract_z
 _atom_site_occupancy
  Si  Si0  1  0.05917504  0.18376039  0.71582783  1
  Si  Si1  1  0.44124476  0.68823349  0.42640662  1
  Si  Si2  1  0.55875524  0.31176651  0.57359338  1
  Si  Si3  1  0.94082496  0.81623961  0.28417217  1
  Mo  Mo0  1  0.28948264  0.25460567  0.15037589  1
  Mo  Mo1  1  0.71051736  0.74539433  0.84962411  1
  P  P0  1  0.15915148  0.68808465  0.05010024  1
  P  P1  1  0.25023264  0.80816636  0.66808515  1
  P  P2  1  0.74976736  0.19183364  0.33191485  1
  P  P3  1  0.84084852  0.31191535  0.94989976  1
  O  O0  1  0.41048257  0.04603992  0.17575093  1
  O  O1  1  0.97045315  0.17340205  0.86393541  1
  O  O2  1  0.85915349  0.47939915  0.87243469  1
  O  O3  1  0.14084651  0.52060085  0.12756531  1
  O  O4  1  0.36228615  0.81822140  0.52677528  1
  O  O5  1  0.46985151  0.70631372  0.74137438  1
  O  O6  1  0.54902373  0.30222957  0.99525299  1
  O  O7  1  0.70517236  0.72127474  0.33417237  1
  O  O8  1  -0.00081476  0.74051855  0.94362328  1
  O  O9  1  0.63771385  0.18177860  0.47322472  1
  O  O10  1  0.58951743  0.95396008  0.82424907  1
  O  O11  1  0.00363404  0.74007128  0.69363919  1
  O  O12  1  0.16899309  0.99351383  0.68608059  1
  O  O13  1  0.80683770  0.27822296  0.64545966  1
  O  O14  1  0.99636596  0.25992872  0.30636081  1
  O  O15  1  0.50000000  0.50000000  0.50000000  1
  O  O16  1  0.00081476  0.25948145  0.05637672  1
  O  O17  1  0.45097627  0.69777043  0.00474701  1
  O  O18  1  0.19316230  0.72177704  0.35454034  1
  O  O19  1  0.29482764  0.27872526  0.66582763  1
  O  O20  1  0.53014849  0.29368628  0.25862562  1
  O  O21  1  0.02954685  0.82659795  0.13606459  1
  O  O22  1  0.83100691  0.00648617  0.31391941  1
loop_
_geom_bond_atom_site_label_1
_geom_bond_atom_site_label_2
_geom_bond_distance
_geom_bond_site_symmetry_2
Mo0 O0 1.666327 1_555
Mo0 O16 2.001373 1_555
Mo0 O6 2.009396 1_554
Mo0 O20 2.053357 1_555
Mo0 O14 2.065306 1_455
Mo0 O3 2.122552 1_555
Mo1 O10 1.666327 1_555
Mo1 O8 2.001373 1_655
Mo1 O17 2.009396 1_556
Mo1 O5 2.053357 1_555
Mo1 O11 2.065306 1_655
Mo1 O2 2.122552 1_555
O1 P3 1.579256 1_555
O1 Si0 1.614635 1_655
O2 P3 1.503515 1_555
O3 P0 1.503515 1_555
O4 P1 1.559391 1_555
O4 Si1 1.643368 1_555
O5 P1 1.500674 1_555
O6 P3 1.523893 1_555
O7 Si1 1.595586 1_555
O7 Si3 1.598835 1_555
O8 P0 1.515147 1_556
O9 P2 1.559391 1_555
O9 Si2 1.643368 1_555
O11 P1 1.508331 1_555
O12 P1 1.538558 1_555
O12 Si0 1.618141 1_565
O13 Si2 1.594375 1_555
O13 Si0 1.598885 1_655
O14 P2 1.508331 1_555
O15 Si1 1.594187 1_555
O15 Si2 1.594187 1_555
O16 P3 1.515147 1_454
O17 P0 1.523893 1_555
O18 Si1 1.594375 1_555
O18 Si3 1.598885 1_455
O19 Si2 1.595586 1_555
O19 Si0 1.598835 1_555
O20 P2 1.500674 1_555
O21 P0 1.579256 1_555
O21 Si3 1.614635 1_455
O22 P2 1.538558 1_555
O22 Si3 1.618141 1_545
