# generated using pymatgen
data_NdOF
_symmetry_space_group_name_H-M   'P 1'
_cell_length_a   6.96195610
_cell_length_b   6.96195610
_cell_length_c   6.96195676
_cell_angle_alpha   33.05788628
_cell_angle_beta   33.05788628
_cell_angle_gamma   33.05788032
_symmetry_Int_Tables_number   1
_chemical_formula_structural   NdOF
_chemical_formula_sum   'Nd2 O2 F2'
_cell_volume   89.36137484
_cell_formula_units_Z   2
loop_
 _symmetry_equiv_pos_site_id
 _symmetry_equiv_pos_as_xyz
  1  'x, y, z'
loop_
 _atom_site_type_symbol
 _atom_site_label
 _atom_site_symmetry_multiplicity
 _atom_site_fract_x
 _atom_site_fract_y
 _atom_site_fract_z
 _atom_site_occupancy
  Nd  Nd0  1  0.25801670  0.25801670  0.25801670  1
  Nd  Nd1  1  0.74198330  0.74198330  0.74198330  1
  O  O0  1  0.37822009  0.37822009  0.37822009  1
  O  O1  1  0.62177991  0.62177991  0.62177991  1
  F  F0  1  0.13006962  0.13006962  0.13006962  1
  F  F1  1  0.86993038  0.86993038  0.86993038  1
loop_
_geom_bond_atom_site_label_1
_geom_bond_atom_site_label_2
_geom_bond_distance
_geom_bond_site_symmetry_2
Nd0 O1 2.364550 1_455
Nd0 O1 2.364550 1_545
Nd0 O1 2.364550 1_554
Nd0 O0 2.371216 1_555
Nd1 O0 2.364550 1_565
Nd1 O0 2.364550 1_655
Nd1 O0 2.364550 1_556
Nd1 O1 2.371216 1_555
F0 Nd0 2.523974 1_555
F0 Nd1 2.529302 1_544
F0 Nd1 2.529302 1_454
F0 Nd1 2.529302 1_445
F1 Nd1 2.523974 1_555
F1 Nd0 2.529302 1_566
F1 Nd0 2.529302 1_656
F1 Nd0 2.529302 1_665
