# generated using pymatgen
data_Mn(Bi3O5)4
_symmetry_space_group_name_H-M   'P 1'
_cell_length_a   8.92446800
_cell_length_b   8.92446800
_cell_length_c   8.92446800
_cell_angle_alpha   109.47122063
_cell_angle_beta   109.47122063
_cell_angle_gamma   109.47122063
_symmetry_Int_Tables_number   1
_chemical_formula_structural   Mn(Bi3O5)4
_chemical_formula_sum   'Mn1 Bi12 O20'
_cell_volume   547.17357891
_cell_formula_units_Z   1
loop_
 _symmetry_equiv_pos_site_id
 _symmetry_equiv_pos_as_xyz
  1  'x, y, z'
loop_
 _atom_site_type_symbol
 _atom_site_label
 _atom_site_symmetry_multiplicity
 _atom_site_fract_x
 _atom_site_fract_y
 _atom_site_fract_z
 _atom_site_occupancy
  Mn  Mn0  1  0.00000000  0.00000000  0.00000000  1
  Bi  Bi0  1  0.19267800  0.49581700  0.33351500  1
  Bi  Bi1  1  0.50418300  0.69686100  0.83769800  1
  Bi  Bi2  1  0.30313900  0.80732200  0.14083700  1
  Bi  Bi3  1  0.85916300  0.66648500  0.16230200  1
  Bi  Bi4  1  0.69686100  0.83769800  0.50418300  1
  Bi  Bi5  1  0.14083700  0.30313900  0.80732200  1
  Bi  Bi6  1  0.66648500  0.16230200  0.85916300  1
  Bi  Bi7  1  0.33351500  0.19267800  0.49581700  1
  Bi  Bi8  1  0.49581700  0.33351500  0.19267800  1
  Bi  Bi9  1  0.83769800  0.50418300  0.69686100  1
  Bi  Bi10  1  0.80732200  0.14083700  0.30313900  1
  Bi  Bi11  1  0.16230200  0.85916300  0.66648500  1
  O  O0  1  0.38926300  0.38926300  0.38926300  1
  O  O1  1  0.61073700  0.00000000  0.00000000  1
  O  O2  1  0.00000000  0.61073700  0.00000000  1
  O  O3  1  0.00000000  0.00000000  0.61073700  1
  O  O4  1  0.61984800  0.38182800  0.73939600  1
  O  O5  1  0.61817200  0.23802100  0.35756800  1
  O  O6  1  0.76197900  0.38015200  0.11954700  1
  O  O7  1  0.88045300  0.26060400  0.64243200  1
  O  O8  1  0.23802100  0.35756800  0.61817200  1
  O  O9  1  0.11954700  0.76197900  0.38015200  1
  O  O10  1  0.26060400  0.64243200  0.88045300  1
  O  O11  1  0.73939600  0.61984800  0.38182800  1
  O  O12  1  0.38182800  0.73939600  0.61984800  1
  O  O13  1  0.35756800  0.61817200  0.23802100  1
  O  O14  1  0.38015200  0.11954700  0.76197900  1
  O  O15  1  0.64243200  0.88045300  0.26060400  1
  O  O16  1  0.79375100  0.79375100  0.79375100  1
  O  O17  1  0.20624900  0.00000000  0.00000000  1
  O  O18  1  0.00000000  0.20624900  0.00000000  1
  O  O19  1  0.00000000  0.00000000  0.20624900  1
loop_
_geom_bond_atom_site_label_1
_geom_bond_atom_site_label_2
_geom_bond_distance
_geom_bond_site_symmetry_2
Mn0 O17 1.840663 1_555
Mn0 O19 1.840663 1_555
Mn0 O18 1.840663 1_555
Mn0 O16 1.840663 1_444
Bi0 O13 2.114087 1_555
Bi0 O0 2.252891 1_555
Bi0 O12 2.253789 1_555
Bi0 O9 2.607109 1_555
Bi0 O18 2.644218 1_555
Bi1 O12 2.114094 1_555
Bi1 O1 2.252891 1_566
Bi1 O10 2.253794 1_555
Bi1 O8 2.607110 1_555
Bi1 O16 2.644218 1_555
Bi2 O10 2.114087 1_554
Bi2 O2 2.252891 1_555
Bi2 O13 2.253794 1_555
Bi2 O15 2.607110 1_555
Bi2 O17 2.644218 1_565
Bi3 O9 2.114091 1_655
Bi3 O2 2.252891 1_655
Bi3 O6 2.253785 1_555
Bi3 O11 2.607112 1_555
Bi3 O19 2.644218 1_665
Bi4 O11 2.114094 1_555
Bi4 O3 2.252891 1_665
Bi4 O15 2.253794 1_555
Bi4 O13 2.607110 1_555
Bi4 O16 2.644218 1_555
Bi5 O7 2.114087 1_455
Bi5 O3 2.252891 1_555
Bi5 O8 2.253794 1_555
Bi5 O10 2.607110 1_555
Bi5 O18 2.644218 1_556
Bi6 O6 2.114091 1_556
Bi6 O1 2.252891 1_556
Bi6 O14 2.253785 1_555
Bi6 O4 2.607112 1_555
Bi6 O18 2.644218 1_656
Bi7 O8 2.114087 1_555
Bi7 O0 2.252891 1_555
Bi7 O4 2.253789 1_555
Bi7 O14 2.607109 1_555
Bi7 O19 2.644218 1_555
Bi8 O5 2.114087 1_555
Bi8 O0 2.252891 1_555
Bi8 O11 2.253789 1_555
Bi8 O6 2.607109 1_555
Bi8 O17 2.644218 1_555
Bi9 O4 2.114094 1_555
Bi9 O2 2.252891 1_656
Bi9 O7 2.253794 1_555
Bi9 O5 2.607110 1_555
Bi9 O16 2.644218 1_555
Bi10 O15 2.114087 1_545
Bi10 O1 2.252891 1_555
Bi10 O5 2.253794 1_555
Bi10 O7 2.607110 1_555
Bi10 O19 2.644218 1_655
Bi11 O14 2.114091 1_565
Bi11 O3 2.252891 1_565
Bi11 O9 2.253785 1_555
Bi11 O12 2.607112 1_555
Bi11 O17 2.644218 1_566
