# generated using pymatgen
data_UHg3(TeCl3)2
_symmetry_space_group_name_H-M   'P 1'
_cell_length_a   8.08207800
_cell_length_b   7.02615500
_cell_length_c   14.05187096
_cell_angle_alpha   88.07247120
_cell_angle_beta   90.00000000
_cell_angle_gamma   90.00000000
_symmetry_Int_Tables_number   1
_chemical_formula_structural   UHg3(TeCl3)2
_chemical_formula_sum   'U2 Hg6 Te4 Cl12'
_cell_volume   797.49709667
_cell_formula_units_Z   2
loop_
 _symmetry_equiv_pos_site_id
 _symmetry_equiv_pos_as_xyz
  1  'x, y, z'
loop_
 _atom_site_type_symbol
 _atom_site_label
 _atom_site_symmetry_multiplicity
 _atom_site_fract_x
 _atom_site_fract_y
 _atom_site_fract_z
 _atom_site_occupancy
  U  U0  1  0.00000000  0.00000000  0.00000000  1
  U  U1  1  0.50000000  0.00000000  0.50000000  1
  Hg  Hg0  1  0.78786400  0.49453500  0.75925100  1
  Hg  Hg1  1  0.28786400  0.50546500  0.74074900  1
  Hg  Hg2  1  0.21213600  0.50546500  0.24074900  1
  Hg  Hg3  1  0.71213600  0.49453500  0.25925100  1
  Hg  Hg4  1  0.00000000  0.50000000  0.50000000  1
  Hg  Hg5  1  0.50000000  0.50000000  0.00000000  1
  Te  Te0  1  0.46791500  0.30247800  0.17003800  1
  Te  Te1  1  0.03208500  0.30247800  0.67003800  1
  Te  Te2  1  0.96791500  0.69752200  0.32996200  1
  Te  Te3  1  0.53208500  0.69752200  0.82996200  1
  Cl  Cl0  1  0.33914500  0.30867600  0.44063600  1
  Cl  Cl1  1  0.54749900  0.15753300  0.66434100  1
  Cl  Cl2  1  0.04749900  0.84246700  0.83565900  1
  Cl  Cl3  1  0.22405000  0.84914300  0.56975600  1
  Cl  Cl4  1  0.95250100  0.15753300  0.16434100  1
  Cl  Cl5  1  0.27595000  0.84914300  0.06975600  1
  Cl  Cl6  1  0.66085500  0.69132400  0.55936400  1
  Cl  Cl7  1  0.45250100  0.84246700  0.33565900  1
  Cl  Cl8  1  0.77595000  0.15085700  0.43024400  1
  Cl  Cl9  1  0.83914500  0.69132400  0.05936400  1
  Cl  Cl10  1  0.72405000  0.15085700  0.93024400  1
  Cl  Cl11  1  0.16085500  0.30867600  0.94063600  1
loop_
_geom_bond_atom_site_label_1
_geom_bond_atom_site_label_2
_geom_bond_distance
_geom_bond_site_symmetry_2
Hg0 Te3 2.718480 1_555
Hg0 Te1 2.720701 1_655
Hg1 Te1 2.718480 1_555
Hg1 Te3 2.720701 1_555
Hg2 Te0 2.718480 1_555
Hg2 Te2 2.720701 1_455
Hg3 Te2 2.718480 1_555
Hg3 Te0 2.720701 1_555
Hg4 Te2 2.734817 1_455
Hg4 Te1 2.734817 1_555
Hg5 Te0 2.734817 1_555
Hg5 Te3 2.734817 1_554
Cl0 U1 2.639692 1_555
Cl1 U1 2.622460 1_555
Cl2 U0 2.622460 1_566
Cl3 U1 2.643558 1_565
Cl4 U0 2.622460 1_655
Cl5 U0 2.643558 1_565
Cl6 U1 2.639692 1_565
Cl7 U1 2.622460 1_565
Cl8 U1 2.643558 1_555
Cl9 U0 2.639692 1_665
Cl10 U0 2.643558 1_656
Cl11 U0 2.639692 1_556
