# generated using pymatgen
data_SrCd(PO3)4
_symmetry_space_group_name_H-M   'P 1'
_cell_length_a   9.20569100
_cell_length_b   7.19902200
_cell_length_c   16.54909012
_cell_angle_alpha   65.30006045
_cell_angle_beta   90.00000000
_cell_angle_gamma   90.00000000
_symmetry_Int_Tables_number   1
_chemical_formula_structural   SrCd(PO3)4
_chemical_formula_sum   'Sr4 Cd4 P16 O48'
_cell_volume   996.39850309
_cell_formula_units_Z   4
loop_
 _symmetry_equiv_pos_site_id
 _symmetry_equiv_pos_as_xyz
  1  'x, y, z'
loop_
 _atom_site_type_symbol
 _atom_site_label
 _atom_site_symmetry_multiplicity
 _atom_site_fract_x
 _atom_site_fract_y
 _atom_site_fract_z
 _atom_site_occupancy
  Sr  Sr0  1  0.89480300  0.65210900  0.36395400  1
  Sr  Sr1  1  0.39480300  0.34789100  0.13604600  1
  Sr  Sr2  1  0.10519700  0.34789100  0.63604600  1
  Sr  Sr3  1  0.60519700  0.65210900  0.86395400  1
  Cd  Cd0  1  0.25879200  0.84522000  0.65385300  1
  Cd  Cd1  1  0.75879200  0.15478000  0.84614700  1
  Cd  Cd2  1  0.74120800  0.15478000  0.34614700  1
  Cd  Cd3  1  0.24120800  0.84522000  0.15385300  1
  P  P0  1  0.51188000  0.18959200  0.67520900  1
  P  P1  1  0.01188000  0.81040800  0.82479100  1
  P  P2  1  0.48812000  0.81040800  0.32479100  1
  P  P3  1  0.98812000  0.18959200  0.17520900  1
  P  P4  1  0.75691800  0.22251600  0.54603900  1
  P  P5  1  0.25691800  0.77748400  0.95396100  1
  P  P6  1  0.24308200  0.77748400  0.45396100  1
  P  P7  1  0.74308200  0.22251600  0.04603900  1
  P  P8  1  0.83936500  0.80385700  0.56098400  1
  P  P9  1  0.33936500  0.19614300  0.93901600  1
  P  P10  1  0.16063500  0.19614300  0.43901600  1
  P  P11  1  0.66063500  0.80385700  0.06098400  1
  P  P12  1  0.59808500  0.58727100  0.67994700  1
  P  P13  1  0.09808500  0.41272900  0.82005300  1
  P  P14  1  0.40191500  0.41272900  0.32005300  1
  P  P15  1  0.90191500  0.58727100  0.17994700  1
  O  O0  1  0.59427600  0.06346200  0.75892700  1
  O  O1  1  0.09427600  0.93653800  0.74107300  1
  O  O2  1  0.40572400  0.93653800  0.24107300  1
  O  O3  1  0.90572400  0.06346200  0.25892700  1
  O  O4  1  0.35664200  0.13677800  0.66581100  1
  O  O5  1  0.85664200  0.86322200  0.83418900  1
  O  O6  1  0.64335800  0.86322200  0.33418900  1
  O  O7  1  0.14335800  0.13677800  0.16581100  1
  O  O8  1  0.59603100  0.20065800  0.58797600  1
  O  O9  1  0.09603100  0.79934200  0.91202400  1
  O  O10  1  0.40396900  0.79934200  0.41202400  1
  O  O11  1  0.90396900  0.20065800  0.08797600  1
  O  O12  1  0.85498800  0.34720300  0.57601200  1
  O  O13  1  0.35498800  0.65279700  0.92398800  1
  O  O14  1  0.14501200  0.65279700  0.42398800  1
  O  O15  1  0.64501200  0.34720300  0.07601200  1
  O  O16  1  0.73473600  0.30109700  0.44689600  1
  O  O17  1  0.23473600  0.69890300  0.05310400  1
  O  O18  1  0.26526400  0.69890300  0.55310400  1
  O  O19  1  0.76526400  0.30109700  0.94689600  1
  O  O20  1  0.81559100  0.99171800  0.58907100  1
  O  O21  1  0.31559100  0.00828200  0.91092900  1
  O  O22  1  0.18440900  0.00828200  0.41092900  1
  O  O23  1  0.68440900  0.99171800  0.08907100  1
  O  O24  1  0.68127900  0.69428000  0.58650600  1
  O  O25  1  0.18127900  0.30572000  0.91349400  1
  O  O26  1  0.31872100  0.30572000  0.41349400  1
  O  O27  1  0.81872100  0.69428000  0.08650600  1
  O  O28  1  0.84975000  0.87814100  0.46105600  1
  O  O29  1  0.34975000  0.12185900  0.03894400  1
  O  O30  1  0.15025000  0.12185900  0.53894400  1
  O  O31  1  0.65025000  0.87814100  0.96105600  1
  O  O32  1  0.95948400  0.67628400  0.61674000  1
  O  O33  1  0.45948400  0.32371600  0.88326000  1
  O  O34  1  0.04051600  0.32371600  0.38326000  1
  O  O35  1  0.54051600  0.67628400  0.11674000  1
  O  O36  1  0.49738100  0.73697000  0.69352100  1
  O  O37  1  0.99738100  0.26303000  0.80647900  1
  O  O38  1  0.50261900  0.26303000  0.30647900  1
  O  O39  1  0.00261900  0.73697000  0.19352100  1
  O  O40  1  0.50393200  0.42484200  0.66037700  1
  O  O41  1  0.00393200  0.57515800  0.83962300  1
  O  O42  1  0.49606800  0.57515800  0.33962300  1
  O  O43  1  0.99606800  0.42484200  0.16037700  1
  O  O44  1  0.70394500  0.48897000  0.75557400  1
  O  O45  1  0.20394500  0.51103000  0.74442600  1
  O  O46  1  0.29605500  0.51103000  0.24442600  1
  O  O47  1  0.79605500  0.48897000  0.25557400  1
loop_
_geom_bond_atom_site_label_1
_geom_bond_atom_site_label_2
_geom_bond_distance
_geom_bond_site_symmetry_2
Cd0 O45 2.296945 1_555
Cd0 O18 2.315323 1_555
Cd0 O30 2.327181 1_565
Cd0 O36 2.331260 1_555
Cd0 O1 2.366917 1_555
Cd0 O4 2.367111 1_565
Cd1 O44 2.296945 1_555
Cd1 O19 2.315323 1_555
Cd1 O31 2.327181 1_545
Cd1 O37 2.331260 1_555
Cd1 O0 2.366917 1_555
Cd1 O5 2.367111 1_545
Cd2 O47 2.296945 1_555
Cd2 O16 2.315323 1_555
Cd2 O28 2.327181 1_545
Cd2 O38 2.331260 1_555
Cd2 O3 2.366917 1_555
Cd2 O6 2.367111 1_545
Cd3 O46 2.296945 1_555
Cd3 O17 2.315323 1_555
Cd3 O29 2.327181 1_565
Cd3 O39 2.331260 1_555
Cd3 O2 2.366917 1_555
Cd3 O7 2.367111 1_565
O0 P0 1.505974 1_555
O0 Sr3 2.738436 1_545
O1 P1 1.505974 1_555
O1 Sr2 2.738436 1_565
O2 P2 1.505974 1_555
O2 Sr1 2.738436 1_565
O3 P3 1.505974 1_555
O3 Sr0 2.738436 1_545
O4 P0 1.503468 1_555
O4 Sr2 2.699027 1_555
O5 P1 1.503468 1_655
O5 Sr3 2.699027 1_555
O6 P2 1.503468 1_555
O6 Sr0 2.699027 1_555
O7 P3 1.503468 1_455
O7 Sr1 2.699027 1_555
O8 P0 1.610715 1_555
O8 P4 1.615160 1_555
O9 P1 1.610715 1_555
O9 P5 1.615160 1_555
O10 P2 1.610715 1_555
O10 P6 1.615160 1_555
O11 P3 1.610715 1_555
O11 P7 1.615160 1_555
O12 P4 1.496305 1_555
O12 Sr2 2.509303 1_655
O13 P5 1.496305 1_555
O13 Sr3 2.509303 1_555
O14 P6 1.496305 1_555
O14 Sr0 2.509303 1_455
O15 P7 1.496305 1_555
O15 Sr1 2.509303 1_555
O16 P4 1.509306 1_555
O16 Sr0 2.746278 1_555
O17 P5 1.509306 1_554
O17 Sr1 2.746278 1_555
O18 P6 1.509306 1_555
O18 Sr2 2.746278 1_555
O19 P7 1.509306 1_556
O19 Sr3 2.746278 1_555
O20 P4 1.603328 1_565
O20 P8 1.618128 1_555
O21 P5 1.603328 1_545
O21 P9 1.618128 1_555
O22 P6 1.603328 1_545
O22 P10 1.618128 1_555
O23 P7 1.603328 1_565
O23 P11 1.618128 1_555
O24 P12 1.604887 1_555
O24 P8 1.624836 1_555
O25 P13 1.604887 1_555
O25 P9 1.624836 1_555
O26 P14 1.604887 1_555
O26 P10 1.624836 1_555
O27 P15 1.604887 1_555
O27 P11 1.624836 1_555
O28 P8 1.513543 1_555
O28 Sr0 2.754527 1_555
O29 P9 1.513543 1_554
O29 Sr1 2.754527 1_555
O30 P10 1.513543 1_555
O30 Sr2 2.754527 1_555
O31 P11 1.513543 1_556
O31 Sr3 2.754527 1_555
O32 P8 1.486401 1_555
O32 Sr2 2.619000 1_655
O33 P9 1.486401 1_555
O33 Sr3 2.619000 1_555
O34 P10 1.486401 1_555
O34 Sr0 2.619000 1_455
O35 P11 1.486401 1_555
O35 Sr1 2.619000 1_555
O36 P12 1.507850 1_555
O36 Sr3 2.805985 1_555
O37 P13 1.507850 1_655
O37 Sr2 2.805985 1_655
O38 P14 1.507850 1_555
O38 Sr1 2.805985 1_555
O39 P15 1.507850 1_455
O39 Sr0 2.805985 1_455
O40 P12 1.593726 1_555
O40 P0 1.608219 1_555
O41 P13 1.593726 1_555
O41 P1 1.608219 1_555
O42 P14 1.593726 1_555
O42 P2 1.608219 1_555
O43 P15 1.593726 1_555
O43 P3 1.608219 1_555
O44 P12 1.508865 1_555
O44 Sr3 2.680127 1_555
O45 P13 1.508865 1_555
O45 Sr2 2.680127 1_555
O46 P14 1.508865 1_555
O46 Sr1 2.680127 1_555
O47 P15 1.508865 1_555
O47 Sr0 2.680127 1_555
