# generated using pymatgen
data_Tb(SiPt)2
_symmetry_space_group_name_H-M   'P 1'
_cell_length_a   4.16328213
_cell_length_b   4.16328127
_cell_length_c   5.74623140
_cell_angle_alpha   111.23917021
_cell_angle_beta   111.23916786
_cell_angle_gamma   90.00000760
_symmetry_Int_Tables_number   1
_chemical_formula_structural   Tb(SiPt)2
_chemical_formula_sum   'Tb1 Si2 Pt2'
_cell_volume   85.53529107
_cell_formula_units_Z   1
loop_
 _symmetry_equiv_pos_site_id
 _symmetry_equiv_pos_as_xyz
  1  'x, y, z'
loop_
 _atom_site_type_symbol
 _atom_site_label
 _atom_site_symmetry_multiplicity
 _atom_site_fract_x
 _atom_site_fract_y
 _atom_site_fract_z
 _atom_site_occupancy
  Tb  Tb0  1  0.00000000  0.00000000  -0.00000000  1
  Si  Si0  1  0.38222283  0.38222283  0.76444466  1
  Si  Si1  1  0.61777717  0.61777717  0.23555534  1
  Pt  Pt0  1  0.75000000  0.25000000  0.50000000  1
  Pt  Pt1  1  0.25000000  0.75000000  0.50000000  1
loop_
_geom_bond_atom_site_label_1
_geom_bond_atom_site_label_2
_geom_bond_distance
_geom_bond_site_symmetry_2
Si0 Si1 2.324859 1_556
Si0 Tb0 3.165072 1_666
Si0 Tb0 3.165075 1_566
Si0 Tb0 3.165075 1_656
Si0 Tb0 3.165078 1_556
Si1 Tb0 3.165072 1_555
Si1 Tb0 3.165075 1_655
Si1 Tb0 3.165075 1_565
Si1 Tb0 3.165078 1_665
Pt0 Si1 2.456874 1_555
Pt0 Si0 2.456874 1_555
Pt0 Si1 2.456877 1_545
Pt0 Si0 2.456878 1_655
Pt0 Tb0 3.228220 1_666
Pt0 Tb0 3.228221 1_656
Pt0 Tb0 3.228221 1_655
Pt0 Tb0 3.228221 1_555
Pt1 Si0 2.456874 1_555
Pt1 Si1 2.456874 1_555
Pt1 Si0 2.456877 1_565
Pt1 Si1 2.456878 1_455
Pt1 Tb0 3.228220 1_555
Pt1 Tb0 3.228221 1_565
Pt1 Tb0 3.228221 1_566
Pt1 Tb0 3.228221 1_666
