# generated using pymatgen
data_HoNiGe
_symmetry_space_group_name_H-M   'P 1'
_cell_length_a   4.19042166
_cell_length_b   6.85938902
_cell_length_c   7.21122721
_cell_angle_alpha   90.00000000
_cell_angle_beta   90.00000000
_cell_angle_gamma   90.00000000
_symmetry_Int_Tables_number   1
_chemical_formula_structural   HoNiGe
_chemical_formula_sum   'Ho4 Ni4 Ge4'
_cell_volume   207.27758465
_cell_formula_units_Z   4
loop_
 _symmetry_equiv_pos_site_id
 _symmetry_equiv_pos_as_xyz
  1  'x, y, z'
loop_
 _atom_site_type_symbol
 _atom_site_label
 _atom_site_symmetry_multiplicity
 _atom_site_fract_x
 _atom_site_fract_y
 _atom_site_fract_z
 _atom_site_occupancy
  Ho  Ho0  1  0.75000000  0.00806201  0.29232405  1
  Ho  Ho1  1  0.25000000  0.99193799  0.70767595  1
  Ho  Ho2  1  0.75000000  0.50806201  0.20767595  1
  Ho  Ho3  1  0.25000000  0.49193799  0.79232405  1
  Ni  Ni0  1  0.75000000  0.80900438  0.91883626  1
  Ni  Ni1  1  0.25000000  0.19099562  0.08116374  1
  Ni  Ni2  1  0.75000000  0.30900438  0.58116374  1
  Ni  Ni3  1  0.25000000  0.69099562  0.41883626  1
  Ge  Ge0  1  0.75000000  0.69817890  0.58854019  1
  Ge  Ge1  1  0.25000000  0.30182110  0.41145981  1
  Ge  Ge2  1  0.75000000  0.19817890  0.91145981  1
  Ge  Ge3  1  0.25000000  0.80182110  0.08854019  1
loop_
_geom_bond_atom_site_label_1
_geom_bond_atom_site_label_2
_geom_bond_distance
_geom_bond_site_symmetry_2
Ho0 Ni1 2.878047 1_655
Ho0 Ni1 2.878047 1_555
Ho0 Ni2 2.932521 1_555
Ho0 Ni0 3.019644 1_544
Ho0 Ni3 3.154731 1_545
Ho0 Ni3 3.154731 1_645
Ho1 Ni0 2.878047 1_455
Ho1 Ni0 2.878047 1_555
Ho1 Ni3 2.932521 1_555
Ho1 Ni1 3.019644 1_566
Ho1 Ni2 3.154731 1_565
Ho1 Ni2 3.154731 1_465
Ho2 Ni3 2.878047 1_555
Ho2 Ni3 2.878047 1_655
Ho2 Ni0 2.932521 1_554
Ho2 Ni2 3.019644 1_555
Ho2 Ni1 3.154731 1_555
Ho2 Ni1 3.154731 1_655
Ho3 Ni2 2.878047 1_455
Ho3 Ni2 2.878047 1_555
Ho3 Ni1 2.932521 1_556
Ho3 Ni3 3.019644 1_555
Ho3 Ni0 3.154731 1_455
Ho3 Ni0 3.154731 1_555
Ge0 Ni3 2.426924 1_555
Ge0 Ni3 2.426924 1_655
Ge0 Ni0 2.500212 1_555
Ge0 Ni2 2.670029 1_555
Ge0 Ho3 2.924170 1_655
Ge0 Ho3 2.924170 1_555
Ge0 Ho0 3.013479 1_565
Ge0 Ho1 3.031212 1_555
Ge0 Ho1 3.031212 1_655
Ge0 Ho2 3.040377 1_555
Ge1 Ni2 2.426924 1_455
Ge1 Ni2 2.426924 1_555
Ge1 Ni1 2.500212 1_555
Ge1 Ni3 2.670029 1_555
Ge1 Ho2 2.924170 1_455
Ge1 Ho2 2.924170 1_555
Ge1 Ho1 3.013479 1_545
Ge1 Ho0 3.031212 1_555
Ge1 Ho0 3.031212 1_455
Ge1 Ho3 3.040377 1_555
Ge2 Ni1 2.426924 1_556
Ge2 Ni1 2.426924 1_656
Ge2 Ni2 2.500212 1_555
Ge2 Ni0 2.670029 1_545
Ge2 Ho1 2.924170 1_645
Ge2 Ho1 2.924170 1_545
Ge2 Ho2 3.013479 1_556
Ge2 Ho3 3.031212 1_655
Ge2 Ho3 3.031212 1_555
Ge2 Ho0 3.040377 1_556
Ge3 Ni0 2.426924 1_554
Ge3 Ni0 2.426924 1_454
Ge3 Ni3 2.500212 1_555
Ge3 Ni1 2.670029 1_565
Ge3 Ho0 2.924170 1_565
Ge3 Ho0 2.924170 1_465
Ge3 Ho3 3.013479 1_554
Ge3 Ho2 3.031212 1_555
Ge3 Ho2 3.031212 1_455
Ge3 Ho1 3.040377 1_554
