# generated using pymatgen
data_Na2Pr4Cl9O2
_symmetry_space_group_name_H-M   'P 1'
_cell_length_a   11.57029900
_cell_length_b   8.30739500
_cell_length_c   9.39062158
_cell_angle_alpha   73.10238676
_cell_angle_beta   90.00000000
_cell_angle_gamma   90.00000000
_symmetry_Int_Tables_number   1
_chemical_formula_structural   Na2Pr4Cl9O2
_chemical_formula_sum   'Na4 Pr8 Cl18 O4'
_cell_volume   863.64768127
_cell_formula_units_Z   2
loop_
 _symmetry_equiv_pos_site_id
 _symmetry_equiv_pos_as_xyz
  1  'x, y, z'
loop_
 _atom_site_type_symbol
 _atom_site_label
 _atom_site_symmetry_multiplicity
 _atom_site_fract_x
 _atom_site_fract_y
 _atom_site_fract_z
 _atom_site_occupancy
  Na  Na0  1  0.98472800  0.77097800  0.43301800  1
  Na  Na1  1  0.48472800  0.22902200  0.56698200  1
  Na  Na2  1  0.01527200  0.22902200  0.56698200  1
  Na  Na3  1  0.51527200  0.77097800  0.43301800  1
  Pr  Pr0  1  0.75000000  0.61072000  0.16461700  1
  Pr  Pr1  1  0.04633400  0.72131400  0.95228900  1
  Pr  Pr2  1  0.45366600  0.72131400  0.95228900  1
  Pr  Pr3  1  0.54633400  0.27868600  0.04771100  1
  Pr  Pr4  1  0.25000000  0.38928000  0.83538300  1
  Pr  Pr5  1  0.95366600  0.27868600  0.04771100  1
  Pr  Pr6  1  0.75000000  0.62867500  0.78095500  1
  Pr  Pr7  1  0.25000000  0.37132500  0.21904500  1
  Cl  Cl0  1  0.08095700  0.09987500  0.31530900  1
  Cl  Cl1  1  0.90650300  0.89274800  0.12335400  1
  Cl  Cl2  1  0.75000000  0.26082700  0.86283500  1
  Cl  Cl3  1  0.99703500  0.49929000  0.29887300  1
  Cl  Cl4  1  0.09349700  0.10725200  0.87664600  1
  Cl  Cl5  1  0.91904300  0.90012500  0.68469100  1
  Cl  Cl6  1  0.49703500  0.50071000  0.70112700  1
  Cl  Cl7  1  0.75000000  0.66903100  0.46114700  1
  Cl  Cl8  1  0.40650300  0.10725200  0.87664600  1
  Cl  Cl9  1  0.25000000  0.75920000  0.75319100  1
  Cl  Cl10  1  0.00296500  0.50071000  0.70112700  1
  Cl  Cl11  1  0.25000000  0.73917300  0.13716500  1
  Cl  Cl12  1  0.58095700  0.90012500  0.68469100  1
  Cl  Cl13  1  0.75000000  0.24080000  0.24680900  1
  Cl  Cl14  1  0.25000000  0.33096900  0.53885300  1
  Cl  Cl15  1  0.50296500  0.49929000  0.29887300  1
  Cl  Cl16  1  0.59349700  0.89274800  0.12335400  1
  Cl  Cl17  1  0.41904300  0.09987500  0.31530900  1
  O  O0  1  0.61948000  0.55205800  0.98635500  1
  O  O1  1  0.38052000  0.44794200  0.01364500  1
  O  O2  1  0.88052000  0.55205800  0.98635500  1
  O  O3  1  0.11948000  0.44794200  0.01364500  1
loop_
_geom_bond_atom_site_label_1
_geom_bond_atom_site_label_2
_geom_bond_distance
_geom_bond_site_symmetry_2
Cl0 Na0 2.858519 1_445
Cl0 Pr5 2.918980 1_455
Cl0 Pr7 2.922810 1_555
Cl0 Na2 2.964483 1_555
Cl1 Pr0 2.896654 1_555
Cl1 Pr1 2.925117 1_654
Cl1 Na0 2.930623 1_555
Cl1 Pr5 3.123741 1_565
Cl2 Pr6 2.926358 1_555
Cl2 Pr3 2.956141 1_556
Cl2 Pr5 2.956141 1_556
Cl3 Na2 2.852769 1_655
Cl3 Na0 2.890343 1_555
Cl3 Pr0 3.152404 1_555
Cl3 Pr7 3.274436 1_655
Cl3 Pr1 3.290944 1_654
Cl3 Pr5 3.418472 1_555
Cl4 Pr4 2.896654 1_555
Cl4 Pr5 2.925117 1_456
Cl4 Na2 2.930623 1_555
Cl4 Pr1 3.123741 1_545
Cl5 Na2 2.858519 1_665
Cl5 Pr1 2.918980 1_655
Cl5 Pr6 2.922810 1_555
Cl5 Na0 2.964483 1_555
Cl6 Na3 2.852769 1_555
Cl6 Na1 2.890343 1_555
Cl6 Pr4 3.152404 1_555
Cl6 Pr6 3.274436 1_555
Cl6 Pr3 3.290944 1_556
Cl6 Pr2 3.418472 1_555
Cl7 Na3 2.834247 1_555
Cl7 Na0 2.834247 1_555
Cl7 Pr6 2.923403 1_555
Cl7 Pr0 2.961892 1_555
Cl8 Pr4 2.896654 1_555
Cl8 Pr3 2.925117 1_556
Cl8 Na1 2.930623 1_555
Cl8 Pr2 3.123741 1_545
Cl9 Pr4 2.942899 1_555
Cl9 Pr1 2.967418 1_555
Cl9 Pr2 2.967418 1_555
Cl10 Na0 2.852769 1_455
Cl10 Na2 2.890343 1_555
Cl10 Pr4 3.152404 1_555
Cl10 Pr6 3.274436 1_455
Cl10 Pr5 3.290944 1_456
Cl10 Pr1 3.418472 1_555
Cl11 Pr7 2.926358 1_555
Cl11 Pr2 2.956141 1_554
Cl11 Pr1 2.956141 1_554
Cl12 Na1 2.858519 1_565
Cl12 Pr2 2.918980 1_555
Cl12 Pr6 2.922810 1_555
Cl12 Na3 2.964483 1_555
Cl13 Pr0 2.942899 1_555
Cl13 Pr3 2.967418 1_555
Cl13 Pr5 2.967418 1_555
Cl14 Na1 2.834247 1_555
Cl14 Na2 2.834247 1_555
Cl14 Pr7 2.923403 1_555
Cl14 Pr4 2.961892 1_555
Cl15 Na1 2.852769 1_555
Cl15 Na3 2.890343 1_555
Cl15 Pr0 3.152404 1_555
Cl15 Pr7 3.274436 1_555
Cl15 Pr2 3.290944 1_554
Cl15 Pr3 3.418472 1_555
Cl16 Pr0 2.896654 1_555
Cl16 Pr2 2.925117 1_554
Cl16 Na3 2.930623 1_555
Cl16 Pr3 3.123741 1_565
Cl17 Na3 2.858519 1_545
Cl17 Pr3 2.918980 1_555
Cl17 Pr7 2.922810 1_555
Cl17 Na1 2.964483 1_555
O0 Pr3 2.333465 1_556
O0 Pr2 2.344912 1_555
O0 Pr6 2.385876 1_555
O0 Pr0 2.407185 1_556
O1 Pr2 2.333465 1_554
O1 Pr3 2.344912 1_555
O1 Pr7 2.385876 1_555
O1 Pr4 2.407185 1_554
O2 Pr5 2.333465 1_556
O2 Pr1 2.344912 1_655
O2 Pr6 2.385876 1_555
O2 Pr0 2.407185 1_556
O3 Pr1 2.333465 1_554
O3 Pr5 2.344912 1_455
O3 Pr7 2.385876 1_555
O3 Pr4 2.407185 1_554
