# generated using pymatgen
data_K6U2(Cu4S5)3
_symmetry_space_group_name_H-M   'P 1'
_cell_length_a   16.24585890
_cell_length_b   16.24585965
_cell_length_c   16.24585954
_cell_angle_alpha   109.47122048
_cell_angle_beta   109.47122141
_cell_angle_gamma   109.47122070
_symmetry_Int_Tables_number   1
_chemical_formula_structural   K6U2(Cu4S5)3
_chemical_formula_sum   'K24 U8 Cu48 S60'
_cell_volume   3300.70091583
_cell_formula_units_Z   4
loop_
 _symmetry_equiv_pos_site_id
 _symmetry_equiv_pos_as_xyz
  1  'x, y, z'
loop_
 _atom_site_type_symbol
 _atom_site_label
 _atom_site_symmetry_multiplicity
 _atom_site_fract_x
 _atom_site_fract_y
 _atom_site_fract_z
 _atom_site_occupancy
  K  K0  1  0.59206345  0.75000000  0.90793655  1
  K  K1  1  0.31587310  0.40793655  0.65793655  1
  K  K2  1  0.09206345  0.18412690  0.84206345  1
  K  K3  1  0.84206345  0.09206345  0.18412690  1
  K  K4  1  0.84206345  0.25000000  0.65793655  1
  K  K5  1  0.81587310  0.15793655  0.90793655  1
  K  K6  1  0.75000000  0.90793655  0.59206345  1
  K  K7  1  0.68412690  0.59206345  0.34206345  1
  K  K8  1  0.34206345  0.15793655  0.75000000  1
  K  K9  1  0.25000000  0.65793655  0.84206345  1
  K  K10  1  0.18412690  0.84206345  0.09206345  1
  K  K11  1  0.15793655  0.90793655  0.81587310  1
  K  K12  1  0.40793655  0.25000000  0.09206345  1
  K  K13  1  0.75000000  0.34206345  0.15793655  1
  K  K14  1  0.25000000  0.09206345  0.40793655  1
  K  K15  1  0.40793655  0.65793655  0.31587310  1
  K  K16  1  0.34206345  0.68412690  0.59206345  1
  K  K17  1  0.15793655  0.75000000  0.34206345  1
  K  K18  1  0.65793655  0.84206345  0.25000000  1
  K  K19  1  0.09206345  0.40793655  0.25000000  1
  K  K20  1  0.59206345  0.34206345  0.68412690  1
  K  K21  1  0.90793655  0.59206345  0.75000000  1
  K  K22  1  0.65793655  0.31587310  0.40793655  1
  K  K23  1  0.90793655  0.81587310  0.15793655  1
  U  U0  1  0.00000000  0.00000000  0.00000000  1
  U  U1  1  0.00000000  0.50000000  0.50000000  1
  U  U2  1  0.00000000  0.00000000  0.50000000  1
  U  U3  1  0.50000000  0.00000000  0.00000000  1
  U  U4  1  0.00000000  0.50000000  0.00000000  1
  U  U5  1  0.50000000  0.50000000  0.00000000  1
  U  U6  1  0.50000000  0.50000000  0.50000000  1
  U  U7  1  0.50000000  0.00000000  0.50000000  1
  Cu  Cu0  1  0.91568434  0.84878617  0.78094961  1
  Cu  Cu1  1  0.06689818  0.15121383  0.43216344  1
  Cu  Cu2  1  0.43310182  0.06783656  0.34878617  1
  Cu  Cu3  1  0.06783656  0.21905039  0.63473473  1
  Cu  Cu4  1  0.56783656  0.13473473  0.71905039  1
  Cu  Cu5  1  0.63473473  0.06689818  0.41568434  1
  Cu  Cu6  1  0.65121383  0.56689818  0.93216344  1
  Cu  Cu7  1  0.91568434  0.56689818  0.13473473  1
  Cu  Cu8  1  0.84878617  0.56783656  0.93310182  1
  Cu  Cu9  1  0.93216344  0.65121383  0.56689818  1
  Cu  Cu10  1  0.36526527  0.93216344  0.78094961  1
  Cu  Cu11  1  0.65121383  0.58431566  0.71905039  1
  Cu  Cu12  1  0.13473473  0.71905039  0.56783656  1
  Cu  Cu13  1  0.43310182  0.86526527  0.08431566  1
  Cu  Cu14  1  0.28094961  0.34878617  0.41568434  1
  Cu  Cu15  1  0.15121383  0.21905039  0.08431566  1
  Cu  Cu16  1  0.58431566  0.36526527  0.93310182  1
  Cu  Cu17  1  0.34878617  0.43310182  0.06783656  1
  Cu  Cu18  1  0.86526527  0.08431566  0.43310182  1
  Cu  Cu19  1  0.56689818  0.13473473  0.91568434  1
  Cu  Cu20  1  0.36526527  0.93310182  0.58431566  1
  Cu  Cu21  1  0.63473473  0.06783656  0.21905039  1
  Cu  Cu22  1  0.41568434  0.63473473  0.06689818  1
  Cu  Cu23  1  0.34878617  0.41568434  0.28094961  1
  Cu  Cu24  1  0.86526527  0.28094961  0.43216344  1
  Cu  Cu25  1  0.43216344  0.86526527  0.28094961  1
  Cu  Cu26  1  0.84878617  0.78094961  0.91568434  1
  Cu  Cu27  1  0.28094961  0.43216344  0.86526527  1
  Cu  Cu28  1  0.43216344  0.06689818  0.15121383  1
  Cu  Cu29  1  0.71905039  0.65121383  0.58431566  1
  Cu  Cu30  1  0.78094961  0.91568434  0.84878617  1
  Cu  Cu31  1  0.06783656  0.34878617  0.43310182  1
  Cu  Cu32  1  0.71905039  0.56783656  0.13473473  1
  Cu  Cu33  1  0.21905039  0.63473473  0.06783656  1
  Cu  Cu34  1  0.56783656  0.93310182  0.84878617  1
  Cu  Cu35  1  0.08431566  0.43310182  0.86526527  1
  Cu  Cu36  1  0.93216344  0.78094961  0.36526527  1
  Cu  Cu37  1  0.41568434  0.28094961  0.34878617  1
  Cu  Cu38  1  0.78094961  0.36526527  0.93216344  1
  Cu  Cu39  1  0.58431566  0.71905039  0.65121383  1
  Cu  Cu40  1  0.08431566  0.15121383  0.21905039  1
  Cu  Cu41  1  0.56689818  0.93216344  0.65121383  1
  Cu  Cu42  1  0.13473473  0.91568434  0.56689818  1
  Cu  Cu43  1  0.93310182  0.84878617  0.56783656  1
  Cu  Cu44  1  0.15121383  0.43216344  0.06689818  1
  Cu  Cu45  1  0.93310182  0.58431566  0.36526527  1
  Cu  Cu46  1  0.21905039  0.08431566  0.15121383  1
  Cu  Cu47  1  0.06689818  0.41568434  0.63473473  1
  S  S0  1  0.58318216  0.16442353  0.49168465  1
  S  S1  1  0.16442353  0.17273888  0.58124137  1
  S  S2  1  0.99168465  0.82726112  0.90850249  1
  S  S3  1  0.12500000  0.37500000  0.75000000  1
  S  S4  1  0.49168465  0.40850249  0.32726112  1
  S  S5  1  0.87500000  0.75000000  0.62500000  1
  S  S6  1  0.17273888  0.09149751  0.00831535  1
  S  S7  1  0.08318216  0.99168465  0.66442353  1
  S  S8  1  0.87500000  0.62500000  0.25000000  1
  S  S9  1  0.82726112  0.90850249  0.99168465  1
  S  S10  1  0.09149751  0.58318216  0.91875863  1
  S  S11  1  0.08318216  0.59149751  0.41875863  1
  S  S12  1  0.58124137  0.16442353  0.17273888  1
  S  S13  1  0.91681784  0.40850249  0.58124137  1
  S  S14  1  0.91875863  0.32726112  0.33557647  1
  S  S15  1  0.62500000  0.87500000  0.75000000  1
  S  S16  1  0.50831535  0.59149751  0.67273888  1
  S  S17  1  0.83557647  0.50831535  0.41681784  1
  S  S18  1  0.08124137  0.90850249  0.41681784  1
  S  S19  1  0.49168465  0.58318216  0.16442353  1
  S  S20  1  0.58318216  0.91875863  0.09149751  1
  S  S21  1  0.37500000  0.75000000  0.12500000  1
  S  S22  1  0.37500000  0.12500000  0.25000000  1
  S  S23  1  0.09149751  0.00831535  0.17273888  1
  S  S24  1  0.41875863  0.83557647  0.82726112  1
  S  S25  1  0.91681784  0.00831535  0.33557647  1
  S  S26  1  0.83557647  0.82726112  0.41875863  1
  S  S27  1  0.58124137  0.91681784  0.40850249  1
  S  S28  1  0.82726112  0.41875863  0.83557647  1
  S  S29  1  0.90850249  0.41681784  0.08124137  1
  S  S30  1  0.25000000  0.87500000  0.62500000  1
  S  S31  1  0.66442353  0.08318216  0.99168465  1
  S  S32  1  0.75000000  0.12500000  0.37500000  1
  S  S33  1  0.33557647  0.91681784  0.00831535  1
  S  S34  1  0.50831535  0.41681784  0.83557647  1
  S  S35  1  0.40850249  0.58124137  0.91681784  1
  S  S36  1  0.16442353  0.49168465  0.58318216  1
  S  S37  1  0.12500000  0.25000000  0.37500000  1
  S  S38  1  0.67273888  0.66442353  0.08124137  1
  S  S39  1  0.59149751  0.67273888  0.50831535  1
  S  S40  1  0.32726112  0.49168465  0.40850249  1
  S  S41  1  0.99168465  0.66442353  0.08318216  1
  S  S42  1  0.62500000  0.25000000  0.87500000  1
  S  S43  1  0.67273888  0.50831535  0.59149751  1
  S  S44  1  0.32726112  0.33557647  0.91875863  1
  S  S45  1  0.08124137  0.67273888  0.66442353  1
  S  S46  1  0.66442353  0.08124137  0.67273888  1
  S  S47  1  0.91875863  0.09149751  0.58318216  1
  S  S48  1  0.41875863  0.08318216  0.59149751  1
  S  S49  1  0.90850249  0.99168465  0.82726112  1
  S  S50  1  0.41681784  0.83557647  0.50831535  1
  S  S51  1  0.40850249  0.32726112  0.49168465  1
  S  S52  1  0.33557647  0.91875863  0.32726112  1
  S  S53  1  0.17273888  0.58124137  0.16442353  1
  S  S54  1  0.25000000  0.37500000  0.12500000  1
  S  S55  1  0.00831535  0.17273888  0.09149751  1
  S  S56  1  0.00831535  0.33557647  0.91681784  1
  S  S57  1  0.75000000  0.62500000  0.87500000  1
  S  S58  1  0.59149751  0.41875863  0.08318216  1
  S  S59  1  0.41681784  0.08124137  0.90850249  1
loop_
_geom_bond_atom_site_label_1
_geom_bond_atom_site_label_2
_geom_bond_distance
_geom_bond_site_symmetry_2
K0 S9 3.274284 1_555
K0 S16 3.274284 1_555
K0 S35 3.395631 1_555
K0 S20 3.395631 1_556
K0 S24 3.597469 1_555
K0 S38 3.597469 1_556
K1 S36 3.274284 1_555
K1 S1 3.274284 1_555
K1 S34 3.395631 1_555
K1 S16 3.395631 1_555
K1 S51 3.597469 1_555
K1 S35 3.597469 1_555
K2 S44 3.274284 1_555
K2 S56 3.274284 1_555
K2 S49 3.395631 1_445
K2 S7 3.395631 1_545
K2 S47 3.597469 1_455
K2 S6 3.597469 1_556
K3 S25 3.274284 1_555
K3 S14 3.274284 1_555
K3 S31 3.395631 1_554
K3 S9 3.395631 1_544
K3 S20 3.597469 1_545
K3 S55 3.597469 1_655
K4 S47 3.274284 1_555
K4 S13 3.274284 1_555
K4 S46 3.395631 1_555
K4 S28 3.395631 1_555
K4 S0 3.597469 1_555
K4 S56 3.597469 1_655
K5 S31 3.274284 1_555
K5 S46 3.274284 1_555
K5 S55 3.395631 1_656
K5 S56 3.395631 1_655
K5 S49 3.597469 1_545
K5 S29 3.597469 1_556
K6 S49 3.274284 1_555
K6 S39 3.274284 1_555
K6 S27 3.395631 1_555
K6 S47 3.395631 1_565
K6 S26 3.597469 1_555
K6 S46 3.597469 1_565
K7 S17 3.274284 1_555
K7 S26 3.274284 1_555
K7 S19 3.395631 1_555
K7 S4 3.395631 1_555
K7 S39 3.597469 1_555
K7 S58 3.597469 1_555
K8 S48 3.274284 1_555
K8 S59 3.274284 1_555
K8 S1 3.395631 1_555
K8 S44 3.395631 1_555
K8 S7 3.597469 1_545
K8 S34 3.597469 1_555
K9 S35 3.274284 1_555
K9 S10 3.274284 1_555
K9 S45 3.395631 1_555
K9 S24 3.395631 1_555
K9 S36 3.597469 1_555
K9 S33 3.597469 1_556
K10 S33 3.274284 1_555
K10 S52 3.274284 1_555
K10 S2 3.395631 1_454
K10 S41 3.395631 1_455
K10 S23 3.597469 1_565
K10 S10 3.597469 1_554
K11 S7 3.274284 1_555
K11 S45 3.274284 1_555
K11 S33 3.395631 1_556
K11 S6 3.395631 1_566
K11 S59 3.597469 1_565
K11 S2 3.597469 1_455
K12 S6 3.274284 1_555
K12 S4 3.274284 1_555
K12 S58 3.395631 1_555
K12 S59 3.395631 1_554
K12 S12 3.597469 1_555
K12 S44 3.597469 1_554
K13 S58 3.274284 1_555
K13 S29 3.274284 1_555
K13 S14 3.395631 1_555
K13 S12 3.395631 1_555
K13 S17 3.597469 1_555
K13 S31 3.597469 1_554
K14 S23 3.274284 1_555
K14 S51 3.274284 1_555
K14 S48 3.395631 1_555
K14 S18 3.395631 1_545
K14 S1 3.597469 1_555
K14 S52 3.597469 1_545
K15 S53 3.274284 1_555
K15 S19 3.274284 1_555
K15 S39 3.395631 1_555
K15 S50 3.395631 1_555
K15 S27 3.597469 1_555
K15 S40 3.597469 1_555
K16 S50 3.274284 1_555
K16 S24 3.274284 1_555
K16 S36 3.395631 1_555
K16 S40 3.395631 1_555
K16 S11 3.597469 1_555
K16 S16 3.597469 1_555
K17 S18 3.274284 1_555
K17 S11 3.274284 1_555
K17 S52 3.395631 1_555
K17 S53 3.395631 1_555
K17 S50 3.597469 1_555
K17 S41 3.597469 1_455
K18 S27 3.274284 1_555
K18 S20 3.274284 1_555
K18 S26 3.395631 1_555
K18 S38 3.395631 1_555
K18 S25 3.597469 1_565
K18 S19 3.597469 1_555
K19 S40 3.274284 1_555
K19 S55 3.274284 1_555
K19 S29 3.395631 1_455
K19 S11 3.395631 1_555
K19 S14 3.597469 1_455
K19 S53 3.597469 1_555
K20 S28 3.274284 1_555
K20 S34 3.274284 1_555
K20 S51 3.395631 1_555
K20 S0 3.395631 1_555
K20 S48 3.597469 1_555
K20 S43 3.597469 1_555
K21 S43 3.274284 1_555
K21 S2 3.274284 1_555
K21 S10 3.395631 1_655
K21 S13 3.395631 1_555
K21 S45 3.597469 1_655
K21 S28 3.597469 1_555
K22 S0 3.274284 1_555
K22 S12 3.274284 1_555
K22 S17 3.395631 1_555
K22 S43 3.395631 1_555
K22 S13 3.597469 1_555
K22 S4 3.597469 1_555
K23 S38 3.274284 1_555
K23 S41 3.274284 1_555
K23 S23 3.395631 1_665
K23 S25 3.395631 1_565
K23 S18 3.597469 1_655
K23 S9 3.597469 1_554
Cu0 S5 2.212934 1_555
Cu0 S2 2.237415 1_555
Cu0 S49 2.245830 1_555
Cu0 K11 3.515805 1_655
Cu1 S37 2.212933 1_555
Cu1 S1 2.237415 1_555
Cu1 S25 2.245830 1_455
Cu1 K14 3.515805 1_555
Cu2 S22 2.212933 1_555
Cu2 S52 2.237415 1_545
Cu2 S0 2.245830 1_555
Cu2 K14 3.515805 1_555
Cu3 S3 2.212934 1_555
Cu3 S47 2.237415 1_455
Cu3 S1 2.245830 1_555
Cu3 K2 3.515805 1_555
Cu4 S42 2.212934 1_555
Cu4 S48 2.237415 1_555
Cu4 S46 2.245830 1_555
Cu4 K20 3.515805 1_555
Cu5 S32 2.212933 1_555
Cu5 S0 2.237415 1_555
Cu5 S27 2.245830 1_545
Cu5 K4 3.515805 1_555
Cu6 S57 2.212933 1_555
Cu6 S38 2.237415 1_556
Cu6 S34 2.245830 1_555
Cu6 K0 3.515805 1_555
Cu7 S8 2.212933 1_555
Cu7 S41 2.237415 1_555
Cu7 S29 2.245830 1_555
Cu7 K17 3.515805 1_655
Cu8 S57 2.212933 1_555
Cu8 S28 2.237415 1_555
Cu8 S41 2.245830 1_556
Cu8 K21 3.515805 1_555
Cu9 S5 2.212933 1_555
Cu9 S45 2.237415 1_655
Cu9 S17 2.245830 1_555
Cu9 K21 3.515805 1_555
Cu10 S30 2.212933 1_555
Cu10 S59 2.237415 1_565
Cu10 S24 2.245830 1_555
Cu10 K11 3.515805 1_555
Cu11 S57 2.212933 1_555
Cu11 S43 2.237415 1_555
Cu11 S16 2.245830 1_555
Cu11 K20 3.515805 1_555
Cu12 S30 2.212933 1_555
Cu12 S11 2.237415 1_555
Cu12 S45 2.245830 1_555
Cu12 K16 3.515805 1_555
Cu13 S21 2.212933 1_555
Cu13 S33 2.237415 1_555
Cu13 S20 2.245830 1_555
Cu13 K9 3.515805 1_554
Cu14 S37 2.212933 1_555
Cu14 S51 2.237415 1_555
Cu14 S40 2.245830 1_555
Cu14 K1 3.515805 1_555
Cu15 S54 2.212934 1_555
Cu15 S6 2.237415 1_555
Cu15 S55 2.245830 1_555
Cu15 K2 3.515805 1_554
Cu16 S42 2.212933 1_555
Cu16 S34 2.237415 1_555
Cu16 S58 2.245830 1_556
Cu16 K8 3.515805 1_555
Cu17 S54 2.212933 1_555
Cu17 S44 2.237415 1_554
Cu17 S19 2.245830 1_555
Cu17 K12 3.515805 1_555
Cu18 S32 2.212933 1_555
Cu18 S25 2.237415 1_555
Cu18 S47 2.245830 1_555
Cu18 K18 3.515805 1_545
Cu19 S42 2.212933 1_555
Cu19 S31 2.237415 1_555
Cu19 S59 2.245830 1_555
Cu19 K13 3.515805 1_556
Cu20 S30 2.212933 1_555
Cu20 S50 2.237415 1_555
Cu20 S48 2.245830 1_565
Cu20 K17 3.515805 1_555
Cu21 S32 2.212933 1_555
Cu21 S20 2.237415 1_545
Cu21 S12 2.245830 1_555
Cu21 K3 3.515805 1_555
Cu22 S21 2.212933 1_555
Cu22 S19 2.237415 1_555
Cu22 S35 2.245830 1_554
Cu22 K18 3.515805 1_555
Cu23 S54 2.212933 1_555
Cu23 S40 2.237415 1_555
Cu23 S4 2.245830 1_555
Cu23 K15 3.515805 1_555
Cu24 S32 2.212933 1_555
Cu24 S13 2.237415 1_555
Cu24 S14 2.245830 1_555
Cu24 K22 3.515805 1_555
Cu25 S21 2.212934 1_555
Cu25 S27 2.237415 1_555
Cu25 S52 2.245830 1_555
Cu25 K15 3.515805 1_555
Cu26 S57 2.212934 1_555
Cu26 S9 2.237415 1_555
Cu26 S2 2.245830 1_555
Cu26 K23 3.515805 1_556
Cu27 S3 2.212933 1_555
Cu27 S35 2.237415 1_555
Cu27 S44 2.245830 1_555
Cu27 K1 3.515805 1_555
Cu28 S22 2.212933 1_555
Cu28 S12 2.237415 1_555
Cu28 S33 2.245830 1_545
Cu28 K12 3.515805 1_555
Cu29 S5 2.212933 1_555
Cu29 S39 2.237415 1_555
Cu29 S43 2.245830 1_555
Cu29 K7 3.515805 1_555
Cu30 S15 2.212933 1_555
Cu30 S49 2.237415 1_555
Cu30 S9 2.245830 1_555
Cu30 K5 3.515805 1_565
Cu31 S37 2.212933 1_555
Cu31 S14 2.237415 1_455
Cu31 S36 2.245830 1_555
Cu31 K19 3.515805 1_555
Cu32 S8 2.212933 1_555
Cu32 S58 2.237415 1_555
Cu32 S38 2.245830 1_555
Cu32 K7 3.515805 1_555
Cu33 S21 2.212933 1_555
Cu33 S10 2.237415 1_554
Cu33 S53 2.245830 1_555
Cu33 K10 3.515805 1_555
Cu34 S15 2.212933 1_555
Cu34 S24 2.237415 1_555
Cu34 S31 2.245830 1_565
Cu34 K0 3.515805 1_555
Cu35 S3 2.212933 1_555
Cu35 S56 2.237415 1_555
Cu35 S10 2.245830 1_555
Cu35 K4 3.515805 1_455
Cu36 S8 2.212934 1_555
Cu36 S18 2.237415 1_655
Cu36 S26 2.245830 1_555
Cu36 K23 3.515805 1_555
Cu37 S22 2.212934 1_555
Cu37 S4 2.237415 1_555
Cu37 S51 2.245830 1_555
Cu37 K22 3.515805 1_555
Cu38 S42 2.212933 1_555
Cu38 S29 2.237415 1_556
Cu38 S28 2.245830 1_555
Cu38 K5 3.515805 1_555
Cu39 S15 2.212934 1_555
Cu39 S16 2.237415 1_555
Cu39 S39 2.245830 1_555
Cu39 K16 3.515805 1_555
Cu40 S37 2.212934 1_555
Cu40 S55 2.237415 1_555
Cu40 S23 2.245830 1_555
Cu40 K3 3.515805 1_455
Cu41 S15 2.212933 1_555
Cu41 S46 2.237415 1_565
Cu41 S50 2.245830 1_555
Cu41 K6 3.515805 1_555
Cu42 S30 2.212933 1_555
Cu42 S7 2.237415 1_555
Cu42 S18 2.245830 1_555
Cu42 K8 3.515805 1_565
Cu43 S5 2.212933 1_555
Cu43 S26 2.237415 1_555
Cu43 S7 2.245830 1_655
Cu43 K6 3.515805 1_555
Cu44 S54 2.212933 1_555
Cu44 S53 2.237415 1_555
Cu44 S56 2.245830 1_554
Cu44 K19 3.515805 1_555
Cu45 S8 2.212933 1_555
Cu45 S17 2.237415 1_555
Cu45 S11 2.245830 1_655
Cu45 K13 3.515805 1_555
Cu46 S22 2.212933 1_555
Cu46 S23 2.237415 1_555
Cu46 S6 2.245830 1_555
Cu46 K10 3.515805 1_545
Cu47 S3 2.212933 1_555
Cu47 S36 2.237415 1_555
Cu47 S13 2.245830 1_455
Cu47 K9 3.515805 1_555
S0 U7 2.633537 1_555
S1 U2 2.633537 1_555
S2 U0 2.633537 1_666
S4 U6 2.633537 1_555
S6 U0 2.633537 1_555
S7 U2 2.633537 1_565
S9 U0 2.633537 1_666
S10 U4 2.633537 1_556
S11 U1 2.633537 1_555
S12 U3 2.633537 1_555
S13 U1 2.633537 1_655
S14 U1 2.633537 1_655
S16 U6 2.633537 1_555
S17 U1 2.633537 1_655
S18 U2 2.633537 1_565
S19 U5 2.633537 1_555
S20 U3 2.633537 1_565
S23 U0 2.633537 1_555
S24 U3 2.633537 1_566
S25 U2 2.633537 1_655
S26 U2 2.633537 1_665
S27 U7 2.633537 1_565
S28 U4 2.633537 1_656
S29 U4 2.633537 1_655
S31 U3 2.633537 1_556
S33 U3 2.633537 1_565
S34 U5 2.633537 1_556
S35 U5 2.633537 1_556
S36 U1 2.633537 1_555
S38 U5 2.633537 1_555
S39 U6 2.633537 1_555
S40 U6 2.633537 1_555
S41 U4 2.633537 1_655
S43 U6 2.633537 1_555
S44 U5 2.633537 1_556
S45 U1 2.633537 1_555
S46 U7 2.633537 1_555
S47 U2 2.633537 1_655
S48 U7 2.633537 1_555
S49 U0 2.633537 1_666
S50 U7 2.633537 1_565
S51 U6 2.633537 1_555
S52 U7 2.633537 1_565
S53 U4 2.633537 1_555
S55 U0 2.633537 1_555
S56 U4 2.633537 1_556
S58 U5 2.633537 1_555
S59 U3 2.633537 1_556
