# generated using pymatgen
data_Ce2WC2
_symmetry_space_group_name_H-M   'P 1'
_cell_length_a   5.66101612
_cell_length_b   5.66101612
_cell_length_c   10.46854284
_cell_angle_alpha   90.00000000
_cell_angle_beta   90.00000000
_cell_angle_gamma   90.00000000
_symmetry_Int_Tables_number   1
_chemical_formula_structural   Ce2WC2
_chemical_formula_sum   'Ce8 W4 C8'
_cell_volume   335.48647600
_cell_formula_units_Z   4
loop_
 _symmetry_equiv_pos_site_id
 _symmetry_equiv_pos_as_xyz
  1  'x, y, z'
loop_
 _atom_site_type_symbol
 _atom_site_label
 _atom_site_symmetry_multiplicity
 _atom_site_fract_x
 _atom_site_fract_y
 _atom_site_fract_z
 _atom_site_occupancy
  Ce  Ce0  1  0.18597244  0.18597244  0.34341751  1
  Ce  Ce1  1  0.31402756  0.68597244  0.84341751  1
  Ce  Ce2  1  0.68597244  0.31402756  0.84341751  1
  Ce  Ce3  1  0.68597244  0.31402756  0.15658249  1
  Ce  Ce4  1  0.31402756  0.68597244  0.15658249  1
  Ce  Ce5  1  0.18597244  0.18597244  0.65658249  1
  Ce  Ce6  1  0.81402756  0.81402756  0.34341751  1
  Ce  Ce7  1  0.81402756  0.81402756  0.65658249  1
  W  W0  1  0.32054505  0.67945495  0.50000000  1
  W  W1  1  0.82054505  0.82054505  0.00000000  1
  W  W2  1  0.17945495  0.17945495  0.00000000  1
  W  W3  1  0.67945495  0.32054505  0.50000000  1
  C  C0  1  -0.00000000  -0.00000000  0.14368596  1
  C  C1  1  0.50000000  0.50000000  0.64368596  1
  C  C2  1  0.50000000  -0.00000000  0.50000000  1
  C  C3  1  0.50000000  0.50000000  0.35631404  1
  C  C4  1  -0.00000000  -0.00000000  0.85631404  1
  C  C5  1  0.50000000  -0.00000000  0.00000000  1
  C  C6  1  -0.00000000  0.50000000  0.00000000  1
  C  C7  1  -0.00000000  0.50000000  0.50000000  1
loop_
_geom_bond_atom_site_label_1
_geom_bond_atom_site_label_2
_geom_bond_distance
_geom_bond_site_symmetry_2
C0 W2 2.080063 1_555
C0 W1 2.080063 1_445
C0 Ce3 2.517691 1_455
C0 Ce4 2.517691 1_545
C0 Ce6 2.566827 1_445
C0 Ce0 2.566827 1_555
C1 W3 2.080063 1_555
C1 W0 2.080063 1_555
C1 Ce5 2.517691 1_555
C1 Ce7 2.517691 1_555
C1 Ce2 2.566827 1_555
C1 Ce1 2.566827 1_555
C2 W0 2.079630 1_545
C2 W3 2.079630 1_555
C2 Ce7 2.637345 1_545
C2 Ce6 2.637345 1_545
C2 Ce0 2.637345 1_555
C2 Ce5 2.637345 1_555
C3 W3 2.080063 1_555
C3 W0 2.080063 1_555
C3 Ce0 2.517691 1_555
C3 Ce6 2.517691 1_555
C3 Ce4 2.566827 1_555
C3 Ce3 2.566827 1_555
C4 W1 2.080063 1_446
C4 W2 2.080063 1_556
C4 Ce2 2.517691 1_455
C4 Ce1 2.517691 1_545
C4 Ce7 2.566827 1_445
C4 Ce5 2.566827 1_555
C5 W1 2.079630 1_545
C5 W2 2.079630 1_555
C5 Ce3 2.637345 1_555
C5 Ce1 2.637345 1_544
C5 Ce2 2.637345 1_554
C5 Ce4 2.637345 1_545
C6 W2 2.079630 1_555
C6 W1 2.079630 1_455
C6 Ce4 2.637345 1_555
C6 Ce2 2.637345 1_454
C6 Ce1 2.637345 1_554
C6 Ce3 2.637345 1_455
C7 W0 2.079630 1_555
C7 W3 2.079630 1_455
C7 Ce0 2.637345 1_555
C7 Ce6 2.637345 1_455
C7 Ce5 2.637345 1_555
C7 Ce7 2.637345 1_455
