# generated using pymatgen
data_Al(HO)3
_symmetry_space_group_name_H-M   'P 1'
_cell_length_a   4.95956200
_cell_length_b   5.14807988
_cell_length_c   5.19558482
_cell_angle_alpha   103.44678532
_cell_angle_beta   98.72321195
_cell_angle_gamma   118.00210368
_symmetry_Int_Tables_number   1
_chemical_formula_structural   Al(HO)3
_chemical_formula_sum   'Al2 H6 O6'
_cell_volume   108.53178579
_cell_formula_units_Z   2
loop_
 _symmetry_equiv_pos_site_id
 _symmetry_equiv_pos_as_xyz
  1  'x, y, z'
loop_
 _atom_site_type_symbol
 _atom_site_label
 _atom_site_symmetry_multiplicity
 _atom_site_fract_x
 _atom_site_fract_y
 _atom_site_fract_z
 _atom_site_occupancy
  Al  Al0  1  0.84787300  0.68849000  0.00174400  1
  Al  Al1  1  0.17023500  0.33083900  0.99935400  1
  H  H0  1  0.52211700  0.87968100  0.21573400  1
  H  H1  1  0.28791800  0.17848700  0.41843700  1
  H  H2  1  0.07921500  0.55447000  0.61481100  1
  H  H3  1  0.75406500  0.31981900  0.23770500  1
  H  H4  1  0.46977800  0.11846900  0.77345000  1
  H  H5  1  0.72454400  0.84494300  0.59189100  1
  O  O0  1  0.43826800  0.29425000  0.78381100  1
  O  O1  1  0.95840600  0.47876000  0.22822200  1
  O  O2  1  0.06533600  0.54896100  0.79986100  1
  O  O3  1  0.23128700  0.09466500  0.21278800  1
  O  O4  1  0.57810500  0.72260500  0.22513000  1
  O  O5  1  0.79795200  0.92856100  0.79826300  1
loop_
_geom_bond_atom_site_label_1
_geom_bond_atom_site_label_2
_geom_bond_distance
_geom_bond_site_symmetry_2
Al0 O2 1.870708 1_654
Al0 O5 1.876713 1_554
Al0 O3 1.938592 1_665
Al0 O4 1.940309 1_555
Al0 O1 1.949842 1_555
Al0 O0 1.972325 1_554
Al1 O2 1.879412 1_555
Al1 O5 1.899354 1_445
Al1 O0 1.909259 1_555
Al1 O3 1.915868 1_556
Al1 O1 1.951049 1_456
Al1 O4 1.970941 1_556
H0 O4 0.979019 1_555
H1 O3 0.993705 1_555
H2 O2 0.980223 1_555
H3 O1 0.976853 1_555
H4 O0 0.979243 1_555
H5 O5 0.993620 1_555
