# generated using pymatgen
data_Nb3Te8I7O
_symmetry_space_group_name_H-M   'P 1'
_cell_length_a   16.32869571
_cell_length_b   9.11435059
_cell_length_c   20.28794146
_cell_angle_alpha   75.56704528
_cell_angle_beta   90.00000000
_cell_angle_gamma   90.00000000
_symmetry_Int_Tables_number   1
_chemical_formula_structural   Nb3Te8I7O
_chemical_formula_sum   'Nb12 Te32 I28 O4'
_cell_volume   2924.07098413
_cell_formula_units_Z   4
loop_
 _symmetry_equiv_pos_site_id
 _symmetry_equiv_pos_as_xyz
  1  'x, y, z'
loop_
 _atom_site_type_symbol
 _atom_site_label
 _atom_site_symmetry_multiplicity
 _atom_site_fract_x
 _atom_site_fract_y
 _atom_site_fract_z
 _atom_site_occupancy
  Nb  Nb0  1  0.14253373  0.81792342  0.62103198  1
  Nb  Nb1  1  0.79560318  0.26617069  0.95033962  1
  Nb  Nb2  1  0.64253373  0.18207658  0.87896802  1
  Nb  Nb3  1  0.29560318  0.73382931  0.54966038  1
  Nb  Nb4  1  0.87169642  0.20194777  0.82354957  1
  Nb  Nb5  1  0.85746627  0.18207658  0.37896802  1
  Nb  Nb6  1  0.62830358  0.20194777  0.32354957  1
  Nb  Nb7  1  0.12830358  0.79805223  0.17645043  1
  Nb  Nb8  1  0.70439682  0.26617069  0.45033962  1
  Nb  Nb9  1  0.20439682  0.73382931  0.04966038  1
  Nb  Nb10  1  0.37169642  0.79805223  0.67645043  1
  Nb  Nb11  1  0.35746627  0.81792342  0.12103198  1
  Te  Te0  1  0.62930075  0.07417771  0.75139666  1
  Te  Te1  1  0.79817527  0.39826304  0.70314439  1
  Te  Te2  1  0.86894840  0.38538059  0.24322781  1
  Te  Te3  1  0.13424591  0.78139500  0.48818531  1
  Te  Te4  1  0.36894840  0.61461941  0.25677219  1
  Te  Te5  1  0.87069925  0.07417771  0.25139666  1
  Te  Te6  1  0.12930075  0.92582229  0.74860334  1
  Te  Te7  1  0.61207461  0.49023725  0.35321750  1
  Te  Te8  1  0.97076577  0.25005525  0.92893748  1
  Te  Te9  1  0.20182473  0.60173696  0.29685561  1
  Te  Te10  1  0.13105160  0.61461941  0.75677219  1
  Te  Te11  1  0.52923423  0.25005525  0.42893748  1
  Te  Te12  1  0.11207461  0.50976275  0.14678250  1
  Te  Te13  1  0.15931259  0.52994359  0.58963207  1
  Te  Te14  1  0.70182473  0.39826304  0.20314439  1
  Te  Te15  1  0.86575409  0.21860500  0.51181469  1
  Te  Te16  1  0.70470838  0.08511106  0.21273879  1
  Te  Te17  1  0.37069925  0.92582229  0.24860334  1
  Te  Te18  1  0.36575409  0.78139500  0.98818531  1
  Te  Te19  1  0.63105160  0.38538059  0.74322781  1
  Te  Te20  1  0.29817527  0.60173696  0.79685561  1
  Te  Te21  1  0.79529162  0.08511106  0.71273879  1
  Te  Te22  1  0.47076577  0.74994475  0.57106252  1
  Te  Te23  1  0.63424591  0.21860500  0.01181469  1
  Te  Te24  1  0.29529162  0.91488894  0.78726121  1
  Te  Te25  1  0.02923423  0.74994475  0.07106252  1
  Te  Te26  1  0.34068741  0.52994359  0.08963207  1
  Te  Te27  1  0.38792539  0.50976275  0.64678250  1
  Te  Te28  1  0.65931259  0.47005641  0.91036793  1
  Te  Te29  1  0.20470838  0.91488894  0.28726121  1
  Te  Te30  1  0.84068741  0.47005641  0.41036793  1
  Te  Te31  1  0.88792539  0.49023725  0.85321750  1
  I  I0  1  0.12542773  0.12230384  0.55647052  1
  I  I1  1  0.26980837  0.27943784  0.24961299  1
  I  I2  1  0.98812909  0.27344212  0.71331921  1
  I  I3  1  0.37457227  0.12230384  0.05647052  1
  I  I4  1  0.47180528  0.22272850  0.84619569  1
  I  I5  1  0.33667435  0.55327532  0.45797154  1
  I  I6  1  0.67602182  0.98998843  0.54326806  1
  I  I7  1  0.42499093  0.09442501  0.62873858  1
  I  I8  1  0.52819472  0.77727150  0.15380431  1
  I  I9  1  0.82397818  0.98998843  0.04326806  1
  I  I10  1  0.32397818  0.01001157  0.45673194  1
  I  I11  1  0.97180528  0.77727150  0.65380431  1
  I  I12  1  0.76980837  0.72056216  0.25038701  1
  I  I13  1  0.16332565  0.55327532  0.95797154  1
  I  I14  1  0.07500907  0.09442501  0.12873858  1
  I  I15  1  0.73019163  0.72056216  0.75038701  1
  I  I16  1  0.66332565  0.44672468  0.54202846  1
  I  I17  1  0.83667435  0.44672468  0.04202846  1
  I  I18  1  0.92499093  0.90557499  0.87126142  1
  I  I19  1  0.17602182  0.01001157  0.95673194  1
  I  I20  1  0.23019163  0.27943784  0.74961299  1
  I  I21  1  0.62542773  0.87769616  0.94352948  1
  I  I22  1  0.51187091  0.27344212  0.21331921  1
  I  I23  1  0.57500907  0.90557499  0.37126142  1
  I  I24  1  0.48812909  0.72655788  0.78668079  1
  I  I25  1  0.01187091  0.72655788  0.28668079  1
  I  I26  1  0.02819472  0.22272850  0.34619569  1
  I  I27  1  0.87457227  0.87769616  0.44352948  1
  O  O0  1  0.73805812  0.17731455  0.36470005  1
  O  O1  1  0.26194188  0.82268545  0.63529995  1
  O  O2  1  0.76194188  0.17731455  0.86470005  1
  O  O3  1  0.23805812  0.82268545  0.13529995  1
loop_
_geom_bond_atom_site_label_1
_geom_bond_atom_site_label_2
_geom_bond_distance
_geom_bond_site_symmetry_2
Nb0 O1 1.973215 1_555
Nb0 Te3 2.800087 1_555
Nb0 Te13 2.864211 1_555
Nb0 Te10 2.916991 1_555
Nb0 Te6 2.996864 1_555
Nb1 O2 2.162905 1_555
Nb1 Te28 2.883099 1_555
Nb1 Te31 2.884405 1_555
Nb1 Te23 2.901009 1_556
Nb1 Te8 2.902156 1_555
Nb2 O2 1.973215 1_555
Nb2 Te23 2.800087 1_556
Nb2 Te28 2.864211 1_555
Nb2 Te19 2.916991 1_555
Nb2 Te0 2.996864 1_555
Nb3 O1 2.162905 1_555
Nb3 Te13 2.883099 1_555
Nb3 Te27 2.884405 1_555
Nb3 Te3 2.901009 1_555
Nb3 Te22 2.902156 1_555
Nb4 O2 1.966152 1_555
Nb4 Te8 2.801418 1_555
Nb4 Te31 2.850443 1_555
Nb4 Te1 2.903630 1_555
Nb4 Te21 2.989637 1_555
Nb5 O0 1.973215 1_555
Nb5 Te15 2.800087 1_555
Nb5 Te30 2.864211 1_555
Nb5 Te2 2.916991 1_555
Nb5 Te5 2.996864 1_555
Nb6 O0 1.966152 1_555
Nb6 Te11 2.801418 1_555
Nb6 Te7 2.850443 1_555
Nb6 Te14 2.903630 1_555
Nb6 Te16 2.989637 1_555
Nb7 O3 1.966152 1_555
Nb7 Te25 2.801418 1_555
Nb7 Te12 2.850443 1_555
Nb7 Te9 2.903630 1_555
Nb7 Te29 2.989637 1_555
Nb8 O0 2.162905 1_555
Nb8 Te30 2.883099 1_555
Nb8 Te7 2.884405 1_555
Nb8 Te15 2.901009 1_555
Nb8 Te11 2.902156 1_555
Nb9 O3 2.162905 1_555
Nb9 Te26 2.883099 1_555
Nb9 Te12 2.884405 1_555
Nb9 Te18 2.901009 1_554
Nb9 Te25 2.902156 1_555
Nb10 O1 1.966152 1_555
Nb10 Te22 2.801418 1_555
Nb10 Te27 2.850443 1_555
Nb10 Te20 2.903630 1_555
Nb10 Te24 2.989637 1_555
Nb11 O3 1.973215 1_555
Nb11 Te18 2.800087 1_554
Nb11 Te26 2.864211 1_555
Nb11 Te4 2.916991 1_555
Nb11 Te17 2.996864 1_555
Te0 Te19 2.799855 1_555
Te0 Te21 2.816456 1_555
Te1 Te21 2.812381 1_555
Te1 Te19 2.841559 1_555
Te2 Te5 2.799855 1_555
Te4 Te9 2.841559 1_555
Te10 Te6 2.799855 1_555
Te10 Te20 2.841559 1_555
Te11 Te7 2.702856 1_555
Te12 Te25 2.702856 1_555
Te13 Te3 2.702698 1_555
Te14 Te16 2.812381 1_555
Te14 Te2 2.841559 1_555
Te15 Te30 2.702698 1_555
Te16 Te5 2.816456 1_555
Te17 Te4 2.799855 1_555
Te17 Te29 2.816456 1_555
Te18 Te26 2.702698 1_556
Te20 Te24 2.812381 1_555
Te22 Te27 2.702856 1_555
Te23 Te28 2.702698 1_554
Te24 Te6 2.816456 1_555
Te29 Te9 2.812381 1_555
Te31 Te8 2.702856 1_555
I0 Nb0 2.771029 1_545
I1 Te29 3.389412 1_545
I1 Te9 3.490504 1_555
I1 Te4 3.492232 1_555
I2 Nb4 2.883395 1_555
I2 Te1 3.292469 1_555
I3 Nb11 2.771029 1_545
I4 Nb2 2.868488 1_555
I4 Te19 3.432107 1_555
I5 Nb3 2.853787 1_555
I6 Nb8 2.782048 1_565
I7 Nb10 2.772647 1_545
I8 Nb11 2.868488 1_555
I8 Te4 3.432107 1_555
I9 Nb1 2.782048 1_564
I10 Nb3 2.782048 1_545
I11 Nb0 2.868488 1_655
I11 Te10 3.432107 1_655
I12 Te16 3.389412 1_565
I12 Te14 3.490504 1_555
I12 Te2 3.492232 1_555
I13 Nb9 2.853787 1_556
I14 Nb7 2.772647 1_545
I15 Te21 3.389412 1_565
I15 Te1 3.490504 1_555
I15 Te19 3.492232 1_555
I16 Nb8 2.853787 1_555
I17 Nb1 2.853787 1_554
I18 Nb4 2.772647 1_565
I19 Nb9 2.782048 1_546
I20 Te24 3.389412 1_545
I20 Te20 3.490504 1_555
I20 Te10 3.492232 1_555
I21 Nb2 2.771029 1_565
I22 Nb6 2.883395 1_555
I22 Te14 3.292469 1_555
I23 Nb6 2.772647 1_565
I24 Nb10 2.883395 1_555
I24 Te20 3.292469 1_555
I25 Nb7 2.883395 1_555
I25 Te9 3.292469 1_555
I26 Nb5 2.868488 1_455
I26 Te2 3.432107 1_455
I27 Nb5 2.771029 1_565
