# generated using pymatgen
data_Ba4Al2O7
_symmetry_space_group_name_H-M   'P 1'
_cell_length_a   8.23831821
_cell_length_b   8.23831821
_cell_length_c   27.58331100
_cell_angle_alpha   90.00000000
_cell_angle_beta   90.00000000
_cell_angle_gamma   92.28803101
_symmetry_Int_Tables_number   1
_chemical_formula_structural   Ba4Al2O7
_chemical_formula_sum   'Ba32 Al16 O56'
_cell_volume   1870.58370068
_cell_formula_units_Z   8
loop_
 _symmetry_equiv_pos_site_id
 _symmetry_equiv_pos_as_xyz
  1  'x, y, z'
loop_
 _atom_site_type_symbol
 _atom_site_label
 _atom_site_symmetry_multiplicity
 _atom_site_fract_x
 _atom_site_fract_y
 _atom_site_fract_z
 _atom_site_occupancy
  Ba  Ba0  1  0.53294400  0.02906800  0.08850900  1
  Ba  Ba1  1  0.20052600  0.20052600  0.00000000  1
  Ba  Ba2  1  0.50581800  0.49418100  0.60374500  1
  Ba  Ba3  1  0.00134300  0.99865700  0.56933500  1
  Ba  Ba4  1  0.74437500  0.25562500  0.33234300  1
  Ba  Ba5  1  0.00581900  0.99418200  0.89625500  1
  Ba  Ba6  1  0.03041500  0.46958500  0.75000000  1
  Ba  Ba7  1  0.96705600  0.47093200  0.58850900  1
  Ba  Ba8  1  0.46958500  0.03041500  0.25000000  1
  Ba  Ba9  1  0.53041500  0.96958500  0.75000000  1
  Ba  Ba10  1  0.70052600  0.70052600  0.50000000  1
  Ba  Ba11  1  0.99865700  0.00134300  0.43066500  1
  Ba  Ba12  1  0.47379800  0.52620200  0.25060200  1
  Ba  Ba13  1  0.24437500  0.75562500  0.16765700  1
  Ba  Ba14  1  0.47093200  0.96705600  0.41149100  1
  Ba  Ba15  1  0.52620200  0.47379800  0.74939800  1
  Ba  Ba16  1  0.02620200  0.97379800  0.75060200  1
  Ba  Ba17  1  0.99418200  0.00581800  0.10374500  1
  Ba  Ba18  1  0.97379800  0.02620200  0.24939800  1
  Ba  Ba19  1  0.25562500  0.74437500  0.66765700  1
  Ba  Ba20  1  0.75562500  0.24437500  0.83234300  1
  Ba  Ba21  1  0.52906800  0.03294400  0.58850900  1
  Ba  Ba22  1  0.49865700  0.50134300  0.06933500  1
  Ba  Ba23  1  0.97093200  0.46705600  0.08850900  1
  Ba  Ba24  1  0.46705600  0.97093200  0.91149100  1
  Ba  Ba25  1  0.29947400  0.29947400  0.50000000  1
  Ba  Ba26  1  0.50134300  0.49865700  0.93066500  1
  Ba  Ba27  1  0.02906800  0.53294400  0.91149100  1
  Ba  Ba28  1  0.03294400  0.52906800  0.41149100  1
  Ba  Ba29  1  0.96958500  0.53041500  0.25000000  1
  Ba  Ba30  1  0.79947400  0.79947400  0.00000000  1
  Ba  Ba31  1  0.49418200  0.50581800  0.39625500  1
  Al  Al0  1  0.69445600  0.30554400  0.17444900  1
  Al  Al1  1  0.23313700  0.23381300  0.34132000  1
  Al  Al2  1  0.76686300  0.76618700  0.65868000  1
  Al  Al3  1  0.73313700  0.73381300  0.15868000  1
  Al  Al4  1  0.26290900  0.73709100  0.00853200  1
  Al  Al5  1  0.26618700  0.26686300  0.15868000  1
  Al  Al6  1  0.80554400  0.19445600  0.67444900  1
  Al  Al7  1  0.76618700  0.76686300  0.34132000  1
  Al  Al8  1  0.19445600  0.80554400  0.32555100  1
  Al  Al9  1  0.73709100  0.26290900  0.99146800  1
  Al  Al10  1  0.76290900  0.23709100  0.49146800  1
  Al  Al11  1  0.23709100  0.76290900  0.50853200  1
  Al  Al12  1  0.30554400  0.69445600  0.82555100  1
  Al  Al13  1  0.23381300  0.23313700  0.65868000  1
  Al  Al14  1  0.73381300  0.73313700  0.84132000  1
  Al  Al15  1  0.26686300  0.26618700  0.84132000  1
  O  O0  1  0.24819000  0.75181000  0.76642800  1
  O  O1  1  0.78418200  0.21581800  0.12402000  1
  O  O2  1  0.25191100  0.74808900  0.07388800  1
  O  O3  1  0.51929300  0.72970100  0.83100800  1
  O  O4  1  0.02627600  0.72660800  0.49102600  1
  O  O5  1  0.44597200  0.18346100  0.81828100  1
  O  O6  1  0.25181000  0.74819000  0.26642800  1
  O  O7  1  0.47372400  0.77339200  0.99102600  1
  O  O8  1  0.73336000  0.75843300  0.40591300  1
  O  O9  1  0.22660800  0.52627600  0.99102600  1
  O  O10  1  0.57795100  0.69591700  0.68340800  1
  O  O11  1  0.87250200  0.12749800  0.01881400  1
  O  O12  1  0.77029900  0.98070700  0.66899200  1
  O  O13  1  0.71581800  0.28418200  0.62402000  1
  O  O14  1  0.75191100  0.24808900  0.42611200  1
  O  O15  1  0.75843300  0.73336000  0.59408700  1
  O  O16  1  0.98070700  0.77029900  0.33100800  1
  O  O17  1  0.55402800  0.81653900  0.18171900  1
  O  O18  1  0.72970100  0.51929300  0.16899200  1
  O  O19  1  0.21581800  0.78418200  0.87598000  1
  O  O20  1  0.27029900  0.48070700  0.83100800  1
  O  O21  1  0.74808900  0.25191100  0.92611200  1
  O  O22  1  0.18346100  0.44597200  0.18171900  1
  O  O23  1  0.68346100  0.94597200  0.31828100  1
  O  O24  1  0.80408300  0.92204900  0.81659200  1
  O  O25  1  0.19591700  0.07795100  0.18340800  1
  O  O26  1  0.23336000  0.25843300  0.09408700  1
  O  O27  1  0.07795100  0.19591700  0.81659200  1
  O  O28  1  0.81653900  0.55402800  0.81828100  1
  O  O29  1  0.22970100  0.01929300  0.33100800  1
  O  O30  1  0.31653900  0.05402800  0.68171900  1
  O  O31  1  0.77339200  0.47372400  0.00897400  1
  O  O32  1  0.97372400  0.27339200  0.50897400  1
  O  O33  1  0.26664000  0.24156700  0.59408700  1
  O  O34  1  0.37250200  0.62749800  0.48118600  1
  O  O35  1  0.12749800  0.87250200  0.98118600  1
  O  O36  1  0.75181000  0.24819000  0.23357200  1
  O  O37  1  0.74156700  0.76664000  0.09408700  1
  O  O38  1  0.25843300  0.23336000  0.90591300  1
  O  O39  1  0.52627600  0.22660800  0.00897400  1
  O  O40  1  0.27339200  0.97372400  0.49102600  1
  O  O41  1  0.76664000  0.74156700  0.90591300  1
  O  O42  1  0.01929300  0.22970100  0.66899200  1
  O  O43  1  0.92204900  0.80408300  0.18340800  1
  O  O44  1  0.74819000  0.25181000  0.73357200  1
  O  O45  1  0.05402800  0.31653900  0.31828100  1
  O  O46  1  0.24156700  0.26664000  0.40591300  1
  O  O47  1  0.24808900  0.75191100  0.57388800  1
  O  O48  1  0.62749800  0.37250200  0.51881400  1
  O  O49  1  0.42204900  0.30408300  0.31659200  1
  O  O50  1  0.30408300  0.42204900  0.68340800  1
  O  O51  1  0.28418200  0.71581800  0.37598000  1
  O  O52  1  0.94597200  0.68346100  0.68171900  1
  O  O53  1  0.72660800  0.02627600  0.50897400  1
  O  O54  1  0.69591700  0.57795100  0.31659200  1
  O  O55  1  0.48070700  0.27029900  0.16899200  1
loop_
_geom_bond_atom_site_label_1
_geom_bond_atom_site_label_2
_geom_bond_distance
_geom_bond_site_symmetry_2
Ba0 O1 2.712225 1_555
Ba0 O39 2.733406 1_555
Ba0 O37 2.819290 1_545
Ba0 O55 3.021811 1_555
Ba0 O17 3.119341 1_545
Ba0 O26 3.171423 1_555
Ba0 O2 3.233162 1_545
Ba1 O26 2.650598 1_555
Ba1 O38 2.650598 1_554
Ba1 O39 2.695048 1_555
Ba1 O9 2.695048 1_554
Ba1 O35 2.793606 1_544
Ba1 O11 2.793606 1_455
Ba2 O13 2.556920 1_555
Ba2 O48 2.752840 1_555
Ba2 O50 2.804426 1_555
Ba2 O10 2.804432 1_555
Ba2 O33 2.820843 1_555
Ba2 O15 2.820854 1_555
Ba2 O47 3.170907 1_555
Ba3 O53 2.826260 1_465
Ba3 O32 2.826260 1_465
Ba3 O47 2.934286 1_555
Ba3 O15 2.983026 1_455
Ba3 O33 2.983026 1_565
Ba3 O4 3.125338 1_555
Ba3 O40 3.125338 1_555
Ba3 O42 3.343451 1_565
Ba3 O12 3.343451 1_455
Ba4 O14 2.588009 1_555
Ba4 O45 2.609170 1_655
Ba4 O23 2.609170 1_545
Ba4 O36 2.725863 1_555
Ba4 O54 2.735699 1_555
Ba4 O49 2.735699 1_555
Ba5 O19 2.556920 1_555
Ba5 O35 2.752840 1_555
Ba5 O27 2.804426 1_565
Ba5 O24 2.804432 1_455
Ba5 O38 2.820843 1_565
Ba5 O41 2.820854 1_455
Ba5 O21 3.170907 1_465
Ba6 O28 2.689545 1_455
Ba6 O52 2.689545 1_455
Ba6 O44 2.914955 1_455
Ba6 O0 2.914955 1_555
Ba6 O50 2.946329 1_555
Ba6 O27 2.946329 1_555
Ba6 O42 2.981999 1_555
Ba6 O20 2.981999 1_555
Ba7 O13 2.712225 1_555
Ba7 O32 2.733406 1_555
Ba7 O15 2.819290 1_555
Ba7 O42 3.021811 1_655
Ba7 O52 3.119341 1_555
Ba7 O33 3.171423 1_655
Ba7 O47 3.233162 1_655
Ba8 O23 2.689545 1_545
Ba8 O17 2.689545 1_545
Ba8 O6 2.914955 1_545
Ba8 O36 2.914955 1_555
Ba8 O49 2.946329 1_555
Ba8 O25 2.946329 1_555
Ba8 O55 2.981999 1_555
Ba8 O29 2.981999 1_555
Ba9 O30 2.689545 1_565
Ba9 O5 2.689545 1_565
Ba9 O44 2.914955 1_565
Ba9 O0 2.914955 1_555
Ba9 O24 2.946329 1_555
Ba9 O10 2.946329 1_555
Ba9 O3 2.981999 1_555
Ba9 O12 2.981999 1_555
Ba10 O8 2.650598 1_555
Ba10 O15 2.650598 1_555
Ba10 O4 2.695048 1_655
Ba10 O53 2.695048 1_565
Ba10 O48 2.793606 1_555
Ba10 O34 2.793606 1_555
Ba11 O4 2.826260 1_645
Ba11 O40 2.826260 1_645
Ba11 O14 2.934286 1_555
Ba11 O8 2.983026 1_545
Ba11 O46 2.983026 1_655
Ba11 O53 3.125338 1_555
Ba11 O32 3.125338 1_555
Ba11 O29 3.343451 1_655
Ba11 O16 3.343451 1_545
Ba12 O49 2.604066 1_555
Ba12 O54 2.604066 1_555
Ba12 O6 2.673329 1_555
Ba12 O55 3.086212 1_555
Ba12 O18 3.086212 1_555
Ba12 O22 3.105133 1_555
Ba12 O17 3.105133 1_555
Ba12 O36 3.336304 1_555
Ba13 O2 2.588009 1_555
Ba13 O17 2.609170 1_555
Ba13 O22 2.609170 1_555
Ba13 O6 2.725863 1_555
Ba13 O43 2.735699 1_455
Ba13 O25 2.735699 1_565
Ba14 O51 2.712225 1_555
Ba14 O40 2.733406 1_555
Ba14 O8 2.819290 1_555
Ba14 O29 3.021811 1_565
Ba14 O23 3.119341 1_555
Ba14 O46 3.171423 1_565
Ba14 O14 3.233162 1_565
Ba15 O50 2.604066 1_555
Ba15 O10 2.604066 1_555
Ba15 O44 2.673329 1_555
Ba15 O20 3.086212 1_555
Ba15 O3 3.086212 1_555
Ba15 O5 3.105133 1_555
Ba15 O28 3.105133 1_555
Ba15 O0 3.336304 1_555
Ba16 O24 2.604066 1_455
Ba16 O27 2.604066 1_565
Ba16 O0 2.673329 1_555
Ba16 O42 3.086212 1_565
Ba16 O12 3.086212 1_455
Ba16 O30 3.105133 1_565
Ba16 O52 3.105133 1_455
Ba16 O44 3.336304 1_465
Ba17 O1 2.556926 1_555
Ba17 O11 2.752843 1_555
Ba17 O43 2.804428 1_545
Ba17 O25 2.804428 1_655
Ba17 O26 2.820849 1_655
Ba17 O37 2.820849 1_545
Ba17 O2 3.170902 1_645
Ba18 O43 2.604066 1_545
Ba18 O25 2.604066 1_655
Ba18 O36 2.673329 1_555
Ba18 O29 3.086212 1_655
Ba18 O16 3.086212 1_545
Ba18 O45 3.105133 1_655
Ba18 O23 3.105133 1_545
Ba18 O6 3.336304 1_645
Ba19 O47 2.588009 1_555
Ba19 O52 2.609170 1_455
Ba19 O30 2.609170 1_565
Ba19 O0 2.725863 1_555
Ba19 O10 2.735699 1_555
Ba19 O50 2.735699 1_555
Ba20 O21 2.588009 1_555
Ba20 O28 2.609170 1_555
Ba20 O5 2.609170 1_555
Ba20 O44 2.725863 1_555
Ba20 O24 2.735699 1_545
Ba20 O27 2.735699 1_655
Ba21 O13 2.712225 1_555
Ba21 O53 2.733406 1_555
Ba21 O33 2.819290 1_555
Ba21 O12 3.021811 1_545
Ba21 O30 3.119341 1_555
Ba21 O15 3.171423 1_545
Ba21 O47 3.233162 1_545
Ba22 O39 2.826260 1_555
Ba22 O31 2.826260 1_555
Ba22 O2 2.934286 1_555
Ba22 O37 2.983026 1_555
Ba22 O26 2.983026 1_555
Ba22 O7 3.125338 1_554
Ba22 O9 3.125338 1_554
Ba22 O55 3.343451 1_555
Ba22 O18 3.343451 1_555
Ba23 O1 2.712225 1_555
Ba23 O31 2.733406 1_555
Ba23 O26 2.819290 1_655
Ba23 O18 3.021811 1_555
Ba23 O22 3.119341 1_655
Ba23 O37 3.171423 1_555
Ba23 O2 3.233162 1_655
Ba24 O19 2.712225 1_555
Ba24 O7 2.733406 1_555
Ba24 O38 2.819290 1_565
Ba24 O3 3.021811 1_555
Ba24 O5 3.119341 1_565
Ba24 O41 3.171423 1_555
Ba24 O21 3.233162 1_565
Ba25 O46 2.650598 1_555
Ba25 O33 2.650598 1_555
Ba25 O40 2.695048 1_545
Ba25 O32 2.695048 1_455
Ba25 O48 2.793606 1_555
Ba25 O34 2.793606 1_555
Ba26 O7 2.826260 1_555
Ba26 O9 2.826260 1_555
Ba26 O21 2.934286 1_555
Ba26 O38 2.983026 1_555
Ba26 O41 2.983026 1_555
Ba26 O39 3.125338 1_556
Ba26 O31 3.125338 1_556
Ba26 O20 3.343451 1_555
Ba26 O3 3.343451 1_555
Ba27 O19 2.712225 1_555
Ba27 O9 2.733406 1_555
Ba27 O41 2.819290 1_455
Ba27 O20 3.021811 1_555
Ba27 O28 3.119341 1_455
Ba27 O38 3.171423 1_555
Ba27 O21 3.233162 1_455
Ba28 O51 2.712225 1_555
Ba28 O4 2.733406 1_555
Ba28 O46 2.819290 1_555
Ba28 O16 3.021811 1_455
Ba28 O45 3.119341 1_555
Ba28 O8 3.171423 1_455
Ba28 O14 3.233162 1_455
Ba29 O45 2.689545 1_655
Ba29 O22 2.689545 1_655
Ba29 O6 2.914955 1_655
Ba29 O36 2.914955 1_555
Ba29 O43 2.946329 1_555
Ba29 O54 2.946329 1_555
Ba29 O18 2.981999 1_555
Ba29 O16 2.981999 1_555
Ba30 O37 2.650598 1_555
Ba30 O41 2.650598 1_554
Ba30 O31 2.695048 1_555
Ba30 O7 2.695048 1_554
Ba30 O11 2.793606 1_565
Ba30 O35 2.793606 1_654
Ba31 O51 2.556926 1_555
Ba31 O34 2.752843 1_555
Ba31 O49 2.804428 1_555
Ba31 O54 2.804428 1_555
Ba31 O8 2.820849 1_555
Ba31 O46 2.820849 1_555
Ba31 O14 3.170902 1_555
Al0 O1 1.752516 1_555
Al0 O36 1.767449 1_555
Al0 O55 1.779613 1_555
Al0 O18 1.779613 1_555
Al1 O45 1.768018 1_555
Al1 O49 1.774979 1_555
Al1 O29 1.789135 1_555
Al1 O46 1.803019 1_555
Al2 O52 1.768018 1_555
Al2 O10 1.774979 1_555
Al2 O12 1.789135 1_555
Al2 O15 1.803019 1_555
Al3 O17 1.768018 1_555
Al3 O43 1.774979 1_555
Al3 O18 1.789135 1_555
Al3 O37 1.803019 1_555
Al4 O35 1.776870 1_554
Al4 O2 1.807464 1_555
Al4 O7 1.815894 1_554
Al4 O9 1.815894 1_554
Al5 O22 1.768018 1_555
Al5 O25 1.774979 1_555
Al5 O55 1.789135 1_555
Al5 O26 1.803019 1_555
Al6 O13 1.752516 1_555
Al6 O44 1.767449 1_555
Al6 O42 1.779613 1_655
Al6 O12 1.779613 1_545
Al7 O23 1.768018 1_555
Al7 O54 1.774979 1_555
Al7 O16 1.789135 1_555
Al7 O8 1.803019 1_555
Al8 O51 1.752516 1_555
Al8 O6 1.767449 1_555
Al8 O29 1.779613 1_565
Al8 O16 1.779613 1_455
Al9 O11 1.776870 1_556
Al9 O21 1.807464 1_555
Al9 O31 1.815894 1_556
Al9 O39 1.815894 1_556
Al10 O48 1.776870 1_555
Al10 O14 1.807464 1_555
Al10 O53 1.815894 1_555
Al10 O32 1.815894 1_555
Al11 O34 1.776870 1_555
Al11 O47 1.807464 1_555
Al11 O4 1.815894 1_555
Al11 O40 1.815894 1_555
Al12 O19 1.752516 1_555
Al12 O0 1.767449 1_555
Al12 O20 1.779613 1_555
Al12 O3 1.779613 1_555
Al13 O30 1.768018 1_555
Al13 O50 1.774979 1_555
Al13 O42 1.789135 1_555
Al13 O33 1.803019 1_555
Al14 O28 1.768018 1_555
Al14 O24 1.774979 1_555
Al14 O3 1.789135 1_555
Al14 O41 1.803019 1_555
Al15 O5 1.768018 1_555
Al15 O27 1.774979 1_555
Al15 O20 1.789135 1_555
Al15 O38 1.803019 1_555
