# generated using pymatgen
data_Cs2Te(MoO4)3
_symmetry_space_group_name_H-M   'P 1'
_cell_length_a   7.50964222
_cell_length_b   7.50964222
_cell_length_c   12.64107000
_cell_angle_alpha   90.00000000
_cell_angle_beta   90.00000000
_cell_angle_gamma   120.00000194
_symmetry_Int_Tables_number   1
_chemical_formula_structural   Cs2Te(MoO4)3
_chemical_formula_sum   'Cs4 Te2 Mo6 O24'
_cell_volume   617.38056309
_cell_formula_units_Z   2
loop_
 _symmetry_equiv_pos_site_id
 _symmetry_equiv_pos_as_xyz
  1  'x, y, z'
loop_
 _atom_site_type_symbol
 _atom_site_label
 _atom_site_symmetry_multiplicity
 _atom_site_fract_x
 _atom_site_fract_y
 _atom_site_fract_z
 _atom_site_occupancy
  Cs  Cs0  1  0.66666700  0.33333300  0.22900500  1
  Cs  Cs1  1  0.66666700  0.33333300  0.59694000  1
  Cs  Cs2  1  0.33333300  0.66666700  0.72900500  1
  Cs  Cs3  1  0.33333300  0.66666700  0.09694000  1
  Te  Te0  1  0.00000000  0.00000000  0.16219800  1
  Te  Te1  1  0.00000000  0.00000000  0.66219800  1
  Mo  Mo0  1  0.85968700  0.66187800  0.89545800  1
  Mo  Mo1  1  0.33812200  0.19780900  0.89545800  1
  Mo  Mo2  1  0.66187800  0.80219100  0.39545800  1
  Mo  Mo3  1  0.80219100  0.14031300  0.89545800  1
  Mo  Mo4  1  0.14031300  0.33812200  0.39545800  1
  Mo  Mo5  1  0.19780900  0.85968700  0.39545800  1
  O  O0  1  0.91093300  0.45488500  0.85836000  1
  O  O1  1  0.12385800  0.87442700  0.90576500  1
  O  O2  1  0.25990300  0.11707600  0.73211800  1
  O  O3  1  0.79875900  0.61278900  0.03068400  1
  O  O4  1  0.08906700  0.54511500  0.35836000  1
  O  O5  1  0.45604700  0.91093300  0.35836000  1
  O  O6  1  0.85717300  0.74009700  0.73211800  1
  O  O7  1  0.61278900  0.81403100  0.53068400  1
  O  O8  1  0.24943100  0.12385800  0.40576500  1
  O  O9  1  0.12557300  0.24943100  0.90576500  1
  O  O10  1  0.87614200  0.12557300  0.40576500  1
  O  O11  1  0.18596900  0.79875900  0.53068400  1
  O  O12  1  0.14282700  0.25990300  0.23211800  1
  O  O13  1  0.87442700  0.75056900  0.40576500  1
  O  O14  1  0.11707600  0.85717300  0.23211800  1
  O  O15  1  0.74009700  0.88292400  0.23211800  1
  O  O16  1  0.54511500  0.45604700  0.85836000  1
  O  O17  1  0.45488500  0.54395300  0.35836000  1
  O  O18  1  0.54395300  0.08906700  0.85836000  1
  O  O19  1  0.20124100  0.38721100  0.53068400  1
  O  O20  1  0.88292400  0.14282700  0.73211800  1
  O  O21  1  0.38721100  0.18596900  0.03068400  1
  O  O22  1  0.81403100  0.20124100  0.03068400  1
  O  O23  1  0.75056900  0.87614200  0.90576500  1
loop_
_geom_bond_atom_site_label_1
_geom_bond_atom_site_label_2
_geom_bond_distance
_geom_bond_site_symmetry_2
Cs0 O21 3.097002 1_555
Cs0 O3 3.097002 1_555
Cs0 O22 3.097002 1_555
Cs0 O5 3.196934 1_545
Cs0 O4 3.196934 1_655
Cs0 O17 3.196945 1_555
Cs1 O20 3.150789 1_555
Cs1 O2 3.150794 1_555
Cs1 O6 3.150794 1_555
Cs2 O7 3.097002 1_555
Cs2 O19 3.097002 1_555
Cs2 O11 3.097002 1_555
Cs2 O18 3.196934 1_565
Cs2 O0 3.196934 1_455
Cs2 O16 3.196945 1_555
Cs3 O14 3.150789 1_555
Cs3 O15 3.150794 1_555
Cs3 O12 3.150794 1_555
Mo0 O3 1.760292 1_556
Mo0 O1 1.825865 1_655
Mo0 O0 1.839165 1_555
Mo0 O16 2.130317 1_555
Mo0 O23 2.143827 1_555
Mo0 O6 2.149383 1_555
Mo1 O21 1.760293 1_556
Mo1 O9 1.825865 1_555
Mo1 O16 1.839160 1_555
Mo1 O18 2.130323 1_555
Mo1 O1 2.143827 1_545
Mo1 O2 2.149383 1_555
Mo2 O7 1.760293 1_555
Mo2 O13 1.825865 1_555
Mo2 O17 1.839160 1_555
Mo2 O5 2.130323 1_555
Mo2 O10 2.143827 1_565
Mo2 O15 2.149383 1_555
Mo3 O22 1.760291 1_556
Mo3 O23 1.825865 1_545
Mo3 O18 1.839158 1_555
Mo3 O0 2.130316 1_555
Mo3 O9 2.143827 1_655
Mo3 O20 2.149383 1_555
Mo4 O19 1.760292 1_555
Mo4 O10 1.825865 1_455
Mo4 O4 1.839165 1_555
Mo4 O17 2.130317 1_555
Mo4 O8 2.143827 1_555
Mo4 O12 2.149383 1_555
Mo5 O11 1.760291 1_555
Mo5 O8 1.825865 1_565
Mo5 O5 1.839158 1_555
Mo5 O4 2.130316 1_555
Mo5 O13 2.143827 1_455
Mo5 O14 2.149383 1_555
O2 Te1 1.909880 1_555
O6 Te1 1.909880 1_665
O12 Te0 1.909880 1_555
O14 Te0 1.909881 1_565
O15 Te0 1.909880 1_665
O20 Te1 1.909881 1_655
