# generated using pymatgen
data_LiMgAl3(SeO4)6
_symmetry_space_group_name_H-M   'P 1'
_cell_length_a   8.53038800
_cell_length_b   9.09120049
_cell_length_c   12.46604854
_cell_angle_alpha   84.95497978
_cell_angle_beta   89.93202298
_cell_angle_gamma   89.74295215
_symmetry_Int_Tables_number   1
_chemical_formula_structural   LiMgAl3(SeO4)6
_chemical_formula_sum   'Li2 Mg2 Al6 Se12 O48'
_cell_volume   963.00504499
_cell_formula_units_Z   2
loop_
 _symmetry_equiv_pos_site_id
 _symmetry_equiv_pos_as_xyz
  1  'x, y, z'
loop_
 _atom_site_type_symbol
 _atom_site_label
 _atom_site_symmetry_multiplicity
 _atom_site_fract_x
 _atom_site_fract_y
 _atom_site_fract_z
 _atom_site_occupancy
  Li  Li0  1  0.77564100  0.59850900  0.03006500  1
  Li  Li1  1  0.33150900  0.72627100  0.90722100  1
  Mg  Mg0  1  0.49727400  0.78901300  0.14587000  1
  Mg  Mg1  1  0.99861200  0.70740300  0.84567800  1
  Al  Al0  1  0.50153700  0.79934800  0.64615400  1
  Al  Al1  1  0.49916500  0.21738000  0.85564700  1
  Al  Al2  1  0.99763500  0.28817600  0.64132800  1
  Al  Al3  1  0.00202200  0.29673300  0.15206600  1
  Al  Al4  1  0.00165400  0.71368600  0.36029700  1
  Al  Al5  1  0.49835200  0.19479400  0.35133800  1
  Se  Se0  1  0.85691000  0.64100400  0.60340700  1
  Se  Se1  1  0.79052500  0.00016100  0.25191600  1
  Se  Se2  1  0.64830800  0.13683700  0.60672300  1
  Se  Se3  1  0.35654000  0.15206300  0.10535600  1
  Se  Se4  1  0.85465400  0.35178100  0.89510700  1
  Se  Se5  1  0.29279500  0.50094400  0.74793400  1
  Se  Se6  1  0.71393900  0.49144400  0.25113700  1
  Se  Se7  1  0.13396600  0.63886600  0.11127200  1
  Se  Se8  1  0.64115900  0.86290600  0.88527300  1
  Se  Se9  1  0.35188400  0.85661100  0.39775700  1
  Se  Se10  1  0.22224400  0.00982400  0.74603300  1
  Se  Se11  1  0.14304300  0.35609000  0.39480900  1
  O  O0  1  0.81317600  0.60780400  0.32007500  1
  O  O1  1  0.67119900  0.65890800  0.64383500  1
  O  O2  1  0.98740200  0.70342000  0.68556300  1
  O  O3  1  0.87962200  0.73529900  0.48394200  1
  O  O4  1  0.93855300  0.91513700  0.31882600  1
  O  O5  1  0.65477400  0.95274600  0.63383600  1
  O  O6  1  0.66791500  0.05737500  0.34593800  1
  O  O7  1  0.58621600  0.03152400  0.90779900  1
  O  O8  1  0.85619300  0.14152500  0.16972200  1
  O  O9  1  0.30996400  0.13455200  0.81533600  1
  O  O10  1  0.52617800  0.19188300  0.50623100  1
  O  O11  1  0.83050500  0.18711300  0.57576300  1
  O  O12  1  0.16923800  0.16559700  0.14293800  1
  O  O13  1  0.58890900  0.21837400  0.71375500  1
  O  O14  1  0.47825900  0.21527700  0.19716200  1
  O  O15  1  0.92152200  0.27964800  0.78644700  1
  O  O16  1  0.39081600  0.25279900  0.98945000  1
  O  O17  1  0.67503000  0.29259200  0.92678900  1
  O  O18  1  0.97815400  0.29907600  0.99501900  1
  O  O19  1  0.65130800  0.35549400  0.33843600  1
  O  O20  1  0.44650100  0.41548200  0.80820900  1
  O  O21  1  0.88200700  0.46011300  0.59292200  1
  O  O22  1  0.83299300  0.43677100  0.15084200  1
  O  O23  1  0.14973200  0.45558900  0.13782700  1
  O  O24  1  0.83770500  0.53603900  0.88019900  1
  O  O25  1  0.19512100  0.57003500  0.84925900  1
  O  O26  1  0.11356500  0.53547300  0.40573200  1
  O  O27  1  0.57363600  0.57331000  0.17701900  1
  O  O28  1  0.35681000  0.63630300  0.65996400  1
  O  O29  1  0.99838900  0.68795700  0.01833300  1
  O  O30  1  0.30774600  0.69515600  0.06400900  1
  O  O31  1  0.61297800  0.75192500  0.99748200  1
  O  O32  1  0.09092800  0.72420900  0.22007900  1
  O  O33  1  0.50941300  0.78945600  0.80190400  1
  O  O34  1  0.41613000  0.76871400  0.29710400  1
  O  O35  1  0.82369900  0.86228700  0.84468100  1
  O  O36  1  0.16929700  0.80784100  0.43202700  1
  O  O37  1  0.47703100  0.80804100  0.49771000  1
  O  O38  1  0.70444100  0.88891900  0.17337400  1
  O  O39  1  0.16919700  0.87302300  0.83683300  1
  O  O40  1  0.38161000  0.97530200  0.09325800  1
  O  O41  1  0.33590600  0.94659000  0.65027300  1
  O  O42  1  0.34706000  0.04137200  0.36945700  1
  O  O43  1  0.06674700  0.08809800  0.68530900  1
  O  O44  1  0.10961500  0.26029100  0.51207200  1
  O  O45  1  0.01877800  0.28989000  0.30681400  1
  O  O46  1  0.33169400  0.33912700  0.36144300  1
  O  O47  1  0.18647000  0.39120300  0.67811500  1
loop_
_geom_bond_atom_site_label_1
_geom_bond_atom_site_label_2
_geom_bond_distance
_geom_bond_site_symmetry_2
Li0 O31 1.979894 1_554
Li0 O22 2.067414 1_555
Li0 O24 2.067537 1_554
Li0 O29 2.070130 1_555
Li0 O27 2.509993 1_555
Li1 O30 1.960515 1_556
Li1 O25 2.022491 1_555
Li1 O33 2.056009 1_555
Li1 O39 2.060919 1_555
Mg0 O34 2.001090 1_555
Mg0 O40 2.015710 1_555
Mg0 O38 2.033756 1_555
Mg0 O27 2.067808 1_555
Mg0 O30 2.133722 1_555
Mg0 O31 2.147566 1_554
Mg1 O2 2.001917 1_555
Mg1 O35 2.046278 1_555
Mg1 O25 2.084025 1_655
Mg1 O39 2.094470 1_655
Mg1 O24 2.096702 1_555
Mg1 O29 2.144023 1_556
Al0 O37 1.857251 1_555
Al0 O5 1.911890 1_555
Al0 O1 1.927540 1_555
Al0 O28 1.929247 1_555
Al0 O33 1.936984 1_555
Al0 O41 1.945695 1_555
Al1 O9 1.871840 1_555
Al1 O20 1.897666 1_555
Al1 O17 1.903592 1_555
Al1 O7 1.904130 1_555
Al1 O13 1.925865 1_555
Al1 O16 1.956599 1_555
Al2 O21 1.897901 1_555
Al2 O44 1.907637 1_655
Al2 O15 1.916576 1_555
Al2 O11 1.921294 1_555
Al2 O43 1.942291 1_655
Al2 O47 1.942479 1_655
Al3 O12 1.864707 1_555
Al3 O8 1.883454 1_455
Al3 O23 1.917177 1_555
Al3 O22 1.918396 1_455
Al3 O45 1.930072 1_555
Al3 O18 1.966796 1_454
Al4 O3 1.882997 1_455
Al4 O32 1.900674 1_555
Al4 O26 1.919143 1_555
Al4 O36 1.930282 1_555
Al4 O4 1.932988 1_455
Al4 O0 1.965624 1_455
Al5 O42 1.903183 1_555
Al5 O6 1.912020 1_555
Al5 O14 1.922383 1_555
Al5 O46 1.941816 1_555
Al5 O10 1.943573 1_555
Al5 O19 1.959075 1_555
O0 Se6 1.656459 1_555
O1 Se0 1.673426 1_555
O2 Se0 1.649415 1_555
O3 Se0 1.663302 1_555
O4 Se1 1.663749 1_565
O5 Se2 1.678682 1_565
O6 Se1 1.684545 1_555
O7 Se8 1.648446 1_545
O8 Se1 1.669978 1_555
O9 Se10 1.665397 1_555
O10 Se2 1.671325 1_555
O11 Se2 1.657518 1_555
O12 Se3 1.671545 1_555
O13 Se2 1.659959 1_555
O14 Se3 1.685821 1_555
O15 Se4 1.655682 1_555
O16 Se3 1.667507 1_556
O17 Se4 1.661911 1_555
O18 Se4 1.668642 1_555
O19 Se6 1.662929 1_555
O20 Se5 1.666714 1_555
O21 Se0 1.673897 1_555
O22 Se6 1.715637 1_555
O23 Se7 1.674816 1_555
O24 Se4 1.674702 1_555
O25 Se5 1.678266 1_555
O26 Se11 1.666313 1_555
O27 Se6 1.647341 1_555
O28 Se5 1.668050 1_555
O29 Se7 1.669326 1_655
O30 Se7 1.660803 1_555
O31 Se8 1.669006 1_555
O32 Se7 1.660697 1_555
O33 Se8 1.708971 1_555
O34 Se9 1.638311 1_555
O35 Se8 1.636862 1_555
O36 Se9 1.666230 1_555
O37 Se9 1.670140 1_555
O38 Se1 1.644138 1_565
O39 Se10 1.670030 1_565
O40 Se3 1.640212 1_565
O41 Se10 1.675873 1_565
O42 Se9 1.686042 1_545
O43 Se10 1.654707 1_555
O44 Se11 1.659527 1_555
O45 Se11 1.677428 1_555
O46 Se11 1.671524 1_555
O47 Se5 1.654766 1_555
