# generated using pymatgen
data_KMoAsO6
_symmetry_space_group_name_H-M   'P 1'
_cell_length_a   6.75935000
_cell_length_b   7.13962600
_cell_length_c   10.94220000
_cell_angle_alpha   90.00000000
_cell_angle_beta   90.00000000
_cell_angle_gamma   90.00000000
_symmetry_Int_Tables_number   1
_chemical_formula_structural   KMoAsO6
_chemical_formula_sum   'K4 Mo4 As4 O24'
_cell_volume   528.06215748
_cell_formula_units_Z   4
loop_
 _symmetry_equiv_pos_site_id
 _symmetry_equiv_pos_as_xyz
  1  'x, y, z'
loop_
 _atom_site_type_symbol
 _atom_site_label
 _atom_site_symmetry_multiplicity
 _atom_site_fract_x
 _atom_site_fract_y
 _atom_site_fract_z
 _atom_site_occupancy
  K  K0  1  0.50000000  0.00000000  0.50000000  1
  K  K1  1  0.00000000  0.50000000  0.00000000  1
  K  K2  1  0.50000000  0.50000000  0.00000000  1
  K  K3  1  0.00000000  0.00000000  0.50000000  1
  Mo  Mo0  1  0.75000000  0.54838800  0.33998200  1
  Mo  Mo1  1  0.25000000  0.45161200  0.66001800  1
  Mo  Mo2  1  0.25000000  0.04838800  0.16001800  1
  Mo  Mo3  1  0.75000000  0.95161200  0.83998200  1
  As  As0  1  0.75000000  0.54261900  0.65430300  1
  As  As1  1  0.25000000  0.45738100  0.34569700  1
  As  As2  1  0.75000000  0.95738100  0.15430300  1
  As  As3  1  0.25000000  0.04261900  0.84569700  1
  O  O0  1  0.75000000  0.32849400  0.40915300  1
  O  O1  1  0.45604300  0.60288300  0.35035100  1
  O  O2  1  0.75000000  0.81524300  0.02789500  1
  O  O3  1  0.25000000  0.31524300  0.47210500  1
  O  O4  1  0.75000000  0.48777400  0.18641500  1
  O  O5  1  0.75000000  0.65020800  0.79484600  1
  O  O6  1  0.95604300  0.39711700  0.64964900  1
  O  O7  1  0.75000000  0.01222600  0.68641500  1
  O  O8  1  0.04395700  0.89711700  0.85035100  1
  O  O9  1  0.75000000  0.84979200  0.29484600  1
  O  O10  1  0.54395700  0.10288300  0.14964900  1
  O  O11  1  0.95604300  0.10288300  0.14964900  1
  O  O12  1  0.25000000  0.98777400  0.31358500  1
  O  O13  1  0.25000000  0.34979200  0.20515400  1
  O  O14  1  0.75000000  0.68475700  0.52789500  1
  O  O15  1  0.25000000  0.51222600  0.81358500  1
  O  O16  1  0.25000000  0.18475700  0.97210500  1
  O  O17  1  0.04395700  0.60288300  0.35035100  1
  O  O18  1  0.75000000  0.17150600  0.90915300  1
  O  O19  1  0.45604300  0.89711700  0.85035100  1
  O  O20  1  0.25000000  0.15020800  0.70515400  1
  O  O21  1  0.25000000  0.67150600  0.59084700  1
  O  O22  1  0.54395700  0.39711700  0.64964900  1
  O  O23  1  0.25000000  0.82849400  0.09084700  1
loop_
_geom_bond_atom_site_label_1
_geom_bond_atom_site_label_2
_geom_bond_distance
_geom_bond_site_symmetry_2
K0 O7 2.650267 1_555
K0 O12 2.650267 1_545
K0 O3 2.830980 1_555
K0 O14 2.830980 1_545
K0 O20 3.007481 1_555
K0 O9 3.007481 1_545
K0 O0 3.056839 1_555
K0 O21 3.056839 1_545
K1 O15 2.650267 1_554
K1 O4 2.650267 1_455
K1 O2 2.830980 1_455
K1 O16 2.830980 1_554
K1 O13 3.007481 1_555
K1 O5 3.007481 1_454
K1 O23 3.056839 1_555
K1 O18 3.056839 1_454
K2 O4 2.650267 1_555
K2 O15 2.650267 1_554
K2 O2 2.830980 1_555
K2 O16 2.830980 1_554
K2 O13 3.007481 1_555
K2 O5 3.007481 1_554
K2 O23 3.056839 1_555
K2 O18 3.056839 1_554
K3 O7 2.650267 1_455
K3 O12 2.650267 1_545
K3 O3 2.830980 1_555
K3 O14 2.830980 1_445
K3 O20 3.007481 1_555
K3 O9 3.007481 1_445
K3 O0 3.056839 1_455
K3 O21 3.056839 1_545
Mo0 O4 1.735193 1_555
Mo0 O0 1.742885 1_555
Mo0 O17 2.027869 1_655
Mo0 O1 2.027869 1_555
Mo0 O9 2.207861 1_555
Mo0 O14 2.275044 1_555
Mo1 O15 1.735193 1_555
Mo1 O21 1.742885 1_555
Mo1 O22 2.027869 1_555
Mo1 O6 2.027869 1_455
Mo1 O20 2.207861 1_555
Mo1 O3 2.275044 1_555
Mo2 O12 1.735193 1_545
Mo2 O23 1.742885 1_545
Mo2 O10 2.027869 1_555
Mo2 O11 2.027869 1_455
Mo2 O13 2.207861 1_555
Mo2 O16 2.275044 1_554
Mo3 O7 1.735193 1_565
Mo3 O18 1.742885 1_565
Mo3 O8 2.027869 1_655
Mo3 O19 2.027869 1_555
Mo3 O5 2.207861 1_555
Mo3 O2 2.275044 1_556
As0 O14 1.715528 1_555
As0 O5 1.719020 1_555
As0 O6 1.738223 1_555
As0 O22 1.738223 1_555
As1 O3 1.715528 1_555
As1 O13 1.719020 1_555
As1 O1 1.738223 1_555
As1 O17 1.738223 1_555
As2 O2 1.715528 1_555
As2 O9 1.719020 1_555
As2 O10 1.738223 1_565
As2 O11 1.738223 1_565
As3 O16 1.715528 1_555
As3 O20 1.719020 1_555
As3 O19 1.738223 1_545
As3 O8 1.738223 1_545
