# generated using pymatgen
data_Ga2H6(SeO4)3
_symmetry_space_group_name_H-M   'P 1'
_cell_length_a   8.62331737
_cell_length_b   8.62331737
_cell_length_c   8.62331739
_cell_angle_alpha   65.96884453
_cell_angle_beta   65.96884453
_cell_angle_gamma   65.96884785
_symmetry_Int_Tables_number   1
_chemical_formula_structural   Ga2H6(SeO4)3
_chemical_formula_sum   'Ga4 H12 Se6 O24'
_cell_volume   512.01347323
_cell_formula_units_Z   2
loop_
 _symmetry_equiv_pos_site_id
 _symmetry_equiv_pos_as_xyz
  1  'x, y, z'
loop_
 _atom_site_type_symbol
 _atom_site_label
 _atom_site_symmetry_multiplicity
 _atom_site_fract_x
 _atom_site_fract_y
 _atom_site_fract_z
 _atom_site_occupancy
  Ga  Ga0  1  0.12310900  0.12310900  0.12310900  1
  Ga  Ga1  1  0.62310900  0.62310900  0.62310900  1
  Ga  Ga2  1  0.35893100  0.35893100  0.35893100  1
  Ga  Ga3  1  0.85893100  0.85893100  0.85893100  1
  H  H0  1  0.33242900  0.18876800  0.71023900  1
  H  H1  1  0.18876800  0.71023900  0.33242900  1
  H  H2  1  0.71023900  0.33242900  0.18876800  1
  H  H3  1  0.68876800  0.83242900  0.21023900  1
  H  H4  1  0.83242900  0.21023900  0.68876800  1
  H  H5  1  0.21023900  0.68876800  0.83242900  1
  H  H6  1  0.36180100  0.37724100  0.65969300  1
  H  H7  1  0.37724100  0.65969300  0.36180100  1
  H  H8  1  0.65969300  0.36180100  0.37724100  1
  H  H9  1  0.87724100  0.86180100  0.15969300  1
  H  H10  1  0.86180100  0.15969300  0.87724100  1
  H  H11  1  0.15969300  0.87724100  0.86180100  1
  Se  Se0  1  0.91816700  0.46479800  0.84729100  1
  Se  Se1  1  0.46479800  0.84729100  0.91816700  1
  Se  Se2  1  0.84729100  0.91816700  0.46479800  1
  Se  Se3  1  0.96479800  0.41816700  0.34729100  1
  Se  Se4  1  0.41816700  0.34729100  0.96479800  1
  Se  Se5  1  0.34729100  0.96479800  0.41816700  1
  O  O0  1  0.91689800  0.26296000  0.01821900  1
  O  O1  1  0.26296000  0.01821900  0.91689800  1
  O  O2  1  0.01821900  0.91689800  0.26296000  1
  O  O3  1  0.76296000  0.41689800  0.51821900  1
  O  O4  1  0.41689800  0.51821900  0.76296000  1
  O  O5  1  0.51821900  0.76296000  0.41689800  1
  O  O6  1  0.21789400  0.32957200  0.98408300  1
  O  O7  1  0.32957200  0.98408300  0.21789400  1
  O  O8  1  0.98408300  0.21789400  0.32957200  1
  O  O9  1  0.82957200  0.71789400  0.48408300  1
  O  O10  1  0.71789400  0.48408300  0.82957200  1
  O  O11  1  0.48408300  0.82957200  0.71789400  1
  O  O12  1  0.84769000  0.61322300  0.96745700  1
  O  O13  1  0.61322300  0.96745700  0.84769000  1
  O  O14  1  0.96745700  0.84769000  0.61322300  1
  O  O15  1  0.11322300  0.34769000  0.46745700  1
  O  O16  1  0.34769000  0.46745700  0.11322300  1
  O  O17  1  0.46745700  0.11322300  0.34769000  1
  O  O18  1  0.37860700  0.28469200  0.61017100  1
  O  O19  1  0.28469200  0.61017100  0.37860700  1
  O  O20  1  0.61017100  0.37860700  0.28469200  1
  O  O21  1  0.78469200  0.87860700  0.11017100  1
  O  O22  1  0.87860700  0.11017100  0.78469200  1
  O  O23  1  0.11017100  0.78469200  0.87860700  1
loop_
_geom_bond_atom_site_label_1
_geom_bond_atom_site_label_2
_geom_bond_distance
_geom_bond_site_symmetry_2
Ga0 O6 1.980873 1_554
Ga0 O8 1.980873 1_455
Ga0 O7 1.980873 1_545
Ga0 O2 2.027196 1_545
Ga0 O1 2.027196 1_554
Ga0 O0 2.027196 1_455
Ga1 O9 1.980873 1_555
Ga1 O10 1.980873 1_555
Ga1 O11 1.980873 1_555
Ga1 O4 2.027196 1_555
Ga1 O5 2.027196 1_555
Ga1 O3 2.027196 1_555
Ga2 O15 1.962905 1_555
Ga2 O16 1.962905 1_555
Ga2 O17 1.962905 1_555
Ga2 O20 2.052736 1_555
Ga2 O18 2.052736 1_555
Ga2 O19 2.052736 1_555
Ga3 O12 1.962905 1_555
Ga3 O14 1.962905 1_555
Ga3 O13 1.962905 1_555
Ga3 O22 2.052736 1_565
Ga3 O21 2.052736 1_556
Ga3 O23 2.052736 1_655
H0 O18 0.997236 1_555
H1 O19 0.997236 1_555
H2 O20 0.997236 1_555
H3 O21 0.997236 1_555
H4 O22 0.997236 1_555
H5 O23 0.997236 1_555
H6 O18 0.986547 1_555
H7 O19 0.986547 1_555
H8 O20 0.986547 1_555
H9 O21 0.986547 1_555
H10 O22 0.986547 1_555
H11 O23 0.986547 1_555
O0 Se0 1.764930 1_554
O1 Se1 1.764930 1_545
O2 Se2 1.764930 1_455
O3 Se3 1.764930 1_555
O4 Se4 1.764930 1_555
O5 Se5 1.764930 1_555
O6 Se4 1.730290 1_555
O7 Se5 1.730290 1_555
O8 Se3 1.730290 1_555
O9 Se2 1.730290 1_555
O10 Se0 1.730290 1_555
O11 Se1 1.730290 1_555
O12 Se0 1.736393 1_555
O13 Se1 1.736393 1_555
O14 Se2 1.736393 1_555
O15 Se3 1.736393 1_455
O16 Se4 1.736393 1_554
O17 Se5 1.736393 1_545
