# generated using pymatgen
data_Al2CoO4
_symmetry_space_group_name_H-M   'P 1'
_cell_length_a   23.89953425
_cell_length_b   23.89953425
_cell_length_c   23.89953377
_cell_angle_alpha   13.89435276
_cell_angle_beta   13.89435276
_cell_angle_gamma   13.89435050
_symmetry_Int_Tables_number   1
_chemical_formula_structural   Al2CoO4
_chemical_formula_sum   'Al20 Co10 O40'
_cell_volume   685.05156035
_cell_formula_units_Z   10
loop_
 _symmetry_equiv_pos_site_id
 _symmetry_equiv_pos_as_xyz
  1  'x, y, z'
loop_
 _atom_site_type_symbol
 _atom_site_label
 _atom_site_symmetry_multiplicity
 _atom_site_fract_x
 _atom_site_fract_y
 _atom_site_fract_z
 _atom_site_occupancy
  Al  Al0  1  0.64901100  0.64901100  0.64901100  1
  Al  Al1  1  0.12158600  0.63196800  0.12158600  1
  Al  Al2  1  0.24969400  0.24969400  0.24969400  1
  Al  Al3  1  0.63196800  0.12158600  0.12158600  1
  Al  Al4  1  0.12158600  0.12158600  0.63196800  1
  Al  Al5  1  0.72289900  0.22906200  0.72289900  1
  Al  Al6  1  0.22906200  0.72289900  0.72289900  1
  Al  Al7  1  0.32468700  0.82544400  0.32468700  1
  Al  Al8  1  0.72289900  0.72289900  0.22906200  1
  Al  Al9  1  0.52478700  0.52478700  0.52478700  1
  Al  Al10  1  0.82544400  0.32468700  0.32468700  1
  Al  Al11  1  0.32468700  0.32468700  0.82544400  1
  Al  Al12  1  0.92486300  0.42466900  0.92486300  1
  Al  Al13  1  0.42466900  0.92486300  0.92486300  1
  Al  Al14  1  0.12486500  0.12486500  0.12486500  1
  Al  Al15  1  0.52322600  0.02904200  0.52322600  1
  Al  Al16  1  0.92486300  0.92486300  0.42466900  1
  Al  Al17  1  0.72491300  0.72491300  0.72491300  1
  Al  Al18  1  0.02904200  0.52322600  0.52322600  1
  Al  Al19  1  0.52322600  0.52322600  0.02904200  1
  Co  Co0  1  0.00076800  0.00076800  0.00076800  1
  Co  Co1  1  0.32560100  0.32560100  0.32560100  1
  Co  Co2  1  0.60053800  0.60053800  0.60053800  1
  Co  Co3  1  0.92521600  0.92521600  0.92521600  1
  Co  Co4  1  0.19998800  0.19998800  0.19998800  1
  Co  Co5  1  0.85037100  0.85037100  0.85037100  1
  Co  Co6  1  0.44994700  0.44994700  0.44994700  1
  Co  Co7  1  0.79977700  0.79977700  0.79977700  1
  Co  Co8  1  0.04920300  0.04920300  0.04920300  1
  Co  Co9  1  0.40019300  0.40019300  0.40019300  1
  O  O0  1  0.46771000  0.46771000  0.98363600  1
  O  O1  1  0.27603600  0.27603600  0.27603600  1
  O  O2  1  0.98363600  0.46771000  0.46771000  1
  O  O3  1  0.46771000  0.98363600  0.46771000  1
  O  O4  1  0.07199800  0.07199800  0.57547300  1
  O  O5  1  0.79111800  0.24950000  0.79111800  1
  O  O6  1  0.97269000  0.97269000  0.97269000  1
  O  O7  1  0.24950000  0.79111800  0.79111800  1
  O  O8  1  0.87893800  0.87893800  0.87893800  1
  O  O9  1  0.57547300  0.07199800  0.07199800  1
  O  O10  1  0.07199800  0.57547300  0.07199800  1
  O  O11  1  0.79111800  0.79111800  0.24950000  1
  O  O12  1  0.65540100  0.65540100  0.21155500  1
  O  O13  1  0.39598500  0.83520000  0.39598500  1
  O  O14  1  0.57223900  0.57223900  0.57223900  1
  O  O15  1  0.21155500  0.65540100  0.65540100  1
  O  O16  1  0.83520000  0.39598500  0.39598500  1
  O  O17  1  0.47801800  0.47801800  0.47801800  1
  O  O18  1  0.65540100  0.21155500  0.65540100  1
  O  O19  1  0.39598500  0.39598500  0.83520000  1
  O  O20  1  0.25459000  0.25459000  0.81280500  1
  O  O21  1  0.99525200  0.43752100  0.99525200  1
  O  O22  1  0.43752100  0.99525200  0.99525200  1
  O  O23  1  0.17216000  0.17216000  0.17216000  1
  O  O24  1  0.07759000  0.07759000  0.07759000  1
  O  O25  1  0.81280500  0.25459000  0.25459000  1
  O  O26  1  0.25459000  0.81280500  0.25459000  1
  O  O27  1  0.99525200  0.99525200  0.43752100  1
  O  O28  1  0.85192700  0.85192700  0.41775200  1
  O  O29  1  0.59553800  0.03689200  0.59553800  1
  O  O30  1  0.03689200  0.59553800  0.59553800  1
  O  O31  1  0.77206300  0.77206300  0.77206300  1
  O  O32  1  0.67499900  0.67499900  0.67499900  1
  O  O33  1  0.41775200  0.85192700  0.85192700  1
  O  O34  1  0.85192700  0.41775200  0.85192700  1
  O  O35  1  0.59553800  0.59553800  0.03689200  1
  O  O36  1  0.19079100  0.65196200  0.19079100  1
  O  O37  1  0.37277200  0.37277200  0.37277200  1
  O  O38  1  0.65196200  0.19079100  0.19079100  1
  O  O39  1  0.19079100  0.19079100  0.65196200  1
loop_
_geom_bond_atom_site_label_1
_geom_bond_atom_site_label_2
_geom_bond_distance
_geom_bond_site_symmetry_2
Al0 O3 1.845021 1_555
Al0 O2 1.845021 1_555
Al0 O0 1.845022 1_555
Al0 O32 1.845040 1_555
Al1 O11 1.888530 1_455
Al1 O7 1.888530 1_554
Al1 O6 1.924359 1_454
Al1 O0 1.959738 1_554
Al1 O2 1.959738 1_455
Al1 O1 2.034989 1_555
Al2 O9 1.820838 1_555
Al2 O10 1.820838 1_555
Al2 O4 1.820838 1_555
Al2 O1 1.870173 1_555
Al3 O11 1.888530 1_545
Al3 O5 1.888530 1_554
Al3 O6 1.924359 1_544
Al3 O0 1.959738 1_554
Al3 O3 1.959738 1_545
Al3 O1 2.034989 1_555
Al4 O5 1.888530 1_455
Al4 O7 1.888530 1_545
Al4 O6 1.924359 1_445
Al4 O3 1.959738 1_545
Al4 O2 1.959738 1_455
Al4 O1 2.034989 1_555
Al5 O8 1.914480 1_545
Al5 O14 1.923132 1_555
Al5 O19 1.929679 1_555
Al5 O16 1.929679 1_555
Al5 O4 1.978817 1_655
Al5 O9 1.978818 1_556
Al6 O8 1.914480 1_455
Al6 O14 1.923132 1_555
Al6 O19 1.929679 1_555
Al6 O13 1.929679 1_555
Al6 O4 1.978817 1_565
Al6 O10 1.978818 1_556
Al7 O27 1.929395 1_455
Al7 O22 1.929395 1_554
Al7 O17 1.929909 1_555
Al7 O23 1.936268 1_565
Al7 O12 1.943748 1_555
Al7 O15 1.943748 1_555
Al8 O8 1.914480 1_554
Al8 O14 1.923132 1_555
Al8 O16 1.929679 1_555
Al8 O13 1.929679 1_555
Al8 O9 1.978817 1_565
Al8 O10 1.978817 1_655
Al9 O18 1.926018 1_555
Al9 O15 1.926018 1_555
Al9 O12 1.926018 1_555
Al9 O16 1.926456 1_555
Al9 O13 1.926456 1_555
Al9 O19 1.926456 1_555
Al10 O27 1.929395 1_545
Al10 O21 1.929395 1_554
Al10 O17 1.929909 1_555
Al10 O23 1.936268 1_655
Al10 O12 1.943748 1_555
Al10 O18 1.943748 1_555
Al11 O21 1.929395 1_455
Al11 O22 1.929395 1_545
Al11 O17 1.929909 1_555
Al11 O23 1.936268 1_556
Al11 O15 1.943748 1_555
Al11 O18 1.943748 1_555
Al12 O35 1.924955 1_556
Al12 O30 1.924955 1_655
Al12 O24 1.937440 1_656
Al12 O31 1.940591 1_555
Al12 O20 1.940648 1_655
Al12 O25 1.940648 1_556
Al13 O35 1.924955 1_556
Al13 O29 1.924955 1_565
Al13 O24 1.937440 1_566
Al13 O31 1.940591 1_555
Al13 O20 1.940648 1_565
Al13 O26 1.940648 1_556
Al14 O25 1.929951 1_455
Al14 O26 1.929951 1_545
Al14 O20 1.929951 1_554
Al14 O22 1.943753 1_544
Al14 O21 1.943753 1_454
Al14 O27 1.943753 1_445
Al15 O39 1.880689 1_555
Al15 O38 1.880689 1_555
Al15 O28 1.922218 1_545
Al15 O33 1.922219 1_545
Al15 O37 1.935981 1_555
Al15 O32 2.068512 1_545
Al16 O30 1.924955 1_655
Al16 O29 1.924955 1_565
Al16 O24 1.937440 1_665
Al16 O31 1.940591 1_555
Al16 O25 1.940648 1_565
Al16 O26 1.940648 1_655
Al17 O33 1.918701 1_555
Al17 O34 1.918701 1_555
Al17 O28 1.918701 1_555
Al17 O29 1.938340 1_565
Al17 O30 1.938340 1_655
Al17 O35 1.938340 1_556
Al18 O39 1.880689 1_555
Al18 O36 1.880689 1_555
Al18 O28 1.922218 1_455
Al18 O34 1.922219 1_455
Al18 O37 1.935981 1_555
Al18 O32 2.068512 1_455
Al19 O36 1.880689 1_555
Al19 O38 1.880689 1_555
Al19 O33 1.922219 1_554
Al19 O34 1.922219 1_554
Al19 O37 1.935981 1_555
Al19 O32 2.068512 1_554
Co0 O38 1.944601 1_455
Co0 O36 1.944601 1_545
Co0 O39 1.944602 1_554
Co0 O6 1.993422 1_444
Co1 O36 2.042728 1_555
Co1 O38 2.042728 1_555
Co1 O39 2.042728 1_555
Co1 O2 2.116235 1_455
Co1 O3 2.116235 1_545
Co1 O0 2.116235 1_554
Co2 O7 1.943355 1_555
Co2 O5 1.943355 1_555
Co2 O11 1.943355 1_555
Co2 O14 2.009112 1_555
Co3 O7 2.025562 1_655
Co3 O5 2.025562 1_565
Co3 O11 2.025562 1_556
Co3 O10 2.124722 1_656
Co3 O9 2.124722 1_566
Co3 O4 2.124722 1_665
Co4 O23 1.975673 1_555
Co4 O16 1.979503 1_455
Co4 O13 1.979503 1_545
Co4 O19 1.979503 1_554
Co5 O18 1.977215 1_565
Co5 O15 1.977215 1_655
Co5 O12 1.977215 1_556
Co5 O8 2.028139 1_555
Co6 O26 1.976470 1_555
Co6 O25 1.976470 1_555
Co6 O20 1.976470 1_555
Co6 O17 1.992925 1_555
Co7 O31 1.967579 1_555
Co7 O21 1.981655 1_555
Co7 O22 1.981655 1_555
Co7 O27 1.981655 1_555
Co8 O34 1.986416 1_454
Co8 O33 1.986416 1_544
Co8 O28 1.986416 1_445
Co8 O24 2.015360 1_555
Co9 O37 1.946778 1_555
Co9 O30 1.974170 1_555
Co9 O29 1.974170 1_555
Co9 O35 1.974171 1_555
