# generated using pymatgen
data_LaSi2Ru3
_symmetry_space_group_name_H-M   'P 1'
_cell_length_a   11.59853702
_cell_length_b   11.59853702
_cell_length_c   6.98452000
_cell_angle_alpha   90.00000000
_cell_angle_beta   90.00000000
_cell_angle_gamma   120.00000582
_symmetry_Int_Tables_number   1
_chemical_formula_structural   LaSi2Ru3
_chemical_formula_sum   'La8 Si16 Ru24'
_cell_volume   813.71739013
_cell_formula_units_Z   8
loop_
 _symmetry_equiv_pos_site_id
 _symmetry_equiv_pos_as_xyz
  1  'x, y, z'
loop_
 _atom_site_type_symbol
 _atom_site_label
 _atom_site_symmetry_multiplicity
 _atom_site_fract_x
 _atom_site_fract_y
 _atom_site_fract_z
 _atom_site_occupancy
  La  La0_0  1  0.00000000  0.00000000  0.00000000  1
  La  La0_1  1  0.00000000  0.00000000  0.50000000  1
  La  La0_2  1  1.00000000  0.50000000  0.00000000  1
  La  La0_3  1  1.00000000  0.50000000  0.50000000  1
  La  La0_4  1  0.50000000  0.00000000  0.00000000  1
  La  La0_5  1  0.50000000  0.00000000  0.50000000  1
  La  La0_6  1  0.50000000  0.50000000  0.00000000  1
  La  La0_7  1  0.50000000  0.50000000  0.50000000  1
  Si  Si0_0  1  0.33333350  0.16666650  0.00000000  1
  Si  Si0_1  1  0.33333350  0.16666650  0.50000000  1
  Si  Si0_2  1  0.33333350  0.66666650  0.00000000  1
  Si  Si0_3  1  0.33333350  0.66666650  0.50000000  1
  Si  Si0_4  1  0.83333350  0.16666650  0.00000000  1
  Si  Si0_5  1  0.83333350  0.16666650  0.50000000  1
  Si  Si0_6  1  0.83333350  0.66666650  0.00000000  1
  Si  Si0_7  1  0.83333350  0.66666650  0.50000000  1
  Si  Si1_0  1  0.16666650  0.33333350  0.00000000  1
  Si  Si1_1  1  0.16666650  0.33333350  0.50000000  1
  Si  Si1_2  1  0.16666650  0.83333350  0.00000000  1
  Si  Si1_3  1  0.16666650  0.83333350  0.50000000  1
  Si  Si1_4  1  0.66666650  0.33333350  0.00000000  1
  Si  Si1_5  1  0.66666650  0.33333350  0.50000000  1
  Si  Si1_6  1  0.66666650  0.83333350  0.00000000  1
  Si  Si1_7  1  0.66666650  0.83333350  0.50000000  1
  Ru  Ru0_0  1  0.25000000  0.00000000  0.25000000  1
  Ru  Ru0_1  1  0.25000000  0.00000000  0.75000000  1
  Ru  Ru0_2  1  0.25000000  0.50000000  0.25000000  1
  Ru  Ru0_3  1  0.25000000  0.50000000  0.75000000  1
  Ru  Ru0_4  1  0.75000000  0.00000000  0.25000000  1
  Ru  Ru0_5  1  0.75000000  0.00000000  0.75000000  1
  Ru  Ru0_6  1  0.75000000  0.50000000  0.25000000  1
  Ru  Ru0_7  1  0.75000000  0.50000000  0.75000000  1
  Ru  Ru1_0  1  0.00000000  0.25000000  0.25000000  1
  Ru  Ru1_1  1  0.00000000  0.25000000  0.75000000  1
  Ru  Ru1_2  1  1.00000000  0.75000000  0.25000000  1
  Ru  Ru1_3  1  1.00000000  0.75000000  0.75000000  1
  Ru  Ru1_4  1  0.50000000  0.25000000  0.25000000  1
  Ru  Ru1_5  1  0.50000000  0.25000000  0.75000000  1
  Ru  Ru1_6  1  0.50000000  0.75000000  0.25000000  1
  Ru  Ru1_7  1  0.50000000  0.75000000  0.75000000  1
  Ru  Ru2_0  1  0.25000000  0.25000000  0.25000000  1
  Ru  Ru2_1  1  0.25000000  0.25000000  0.75000000  1
  Ru  Ru2_2  1  0.25000000  0.75000000  0.25000000  1
  Ru  Ru2_3  1  0.25000000  0.75000000  0.75000000  1
  Ru  Ru2_4  1  0.75000000  0.25000000  0.25000000  1
  Ru  Ru2_5  1  0.75000000  0.25000000  0.75000000  1
  Ru  Ru2_6  1  0.75000000  0.75000000  0.25000000  1
  Ru  Ru2_7  1  0.75000000  0.75000000  0.75000000  1
loop_
_geom_bond_atom_site_label_1
_geom_bond_atom_site_label_2
_geom_bond_distance
_geom_bond_site_symmetry_2
La0_0 Si1_2 3.348206 1_545
La0_0 Si0_4 3.348206 1_455
La0_0 Si0_0 3.348211 1_555
La0_0 Si1_0 3.348211 1_555
La0_0 Si0_6 3.348211 1_445
La0_0 Si1_6 3.348211 1_445
La0_0 Ru2_0 3.384796 1_555
La0_0 Ru2_1 3.384796 1_554
La0_0 Ru2_6 3.384796 1_445
La0_0 Ru2_7 3.384796 1_444
La0_0 Ru1_2 3.384797 1_445
La0_0 Ru1_3 3.384797 1_444
La0_0 Ru0_1 3.384797 1_554
La0_0 Ru0_0 3.384797 1_555
La0_0 Ru0_4 3.384797 1_455
La0_0 Ru0_5 3.384797 1_454
La0_0 Ru1_0 3.384797 1_555
La0_0 Ru1_1 3.384797 1_554
La0_0 La0_1 3.492260 1_555
La0_0 La0_1 3.492260 1_554
La0_1 Si1_3 3.348206 1_545
La0_1 Si0_5 3.348206 1_455
La0_1 Si0_1 3.348211 1_555
La0_1 Si1_1 3.348211 1_555
La0_1 Si0_7 3.348211 1_445
La0_1 Si1_7 3.348211 1_445
La0_1 Ru2_1 3.384796 1_555
La0_1 Ru2_0 3.384796 1_555
La0_1 Ru2_7 3.384796 1_445
La0_1 Ru2_6 3.384796 1_445
La0_1 Ru1_2 3.384797 1_445
La0_1 Ru1_3 3.384797 1_445
La0_1 Ru0_1 3.384797 1_555
La0_1 Ru0_0 3.384797 1_555
La0_1 Ru0_4 3.384797 1_455
La0_1 Ru1_0 3.384797 1_555
La0_1 Ru1_1 3.384797 1_555
La0_1 Ru0_5 3.384797 1_455
La0_2 Si0_6 3.348206 1_555
La0_2 Si1_0 3.348206 1_655
La0_2 Si1_4 3.348211 1_555
La0_2 Si1_2 3.348211 1_655
La0_2 Si0_4 3.348211 1_555
La0_2 Si0_2 3.348211 1_655
La0_2 Ru2_2 3.384796 1_655
La0_2 Ru2_3 3.384796 1_654
La0_2 Ru2_5 3.384796 1_554
La0_2 Ru2_4 3.384796 1_555
La0_2 Ru0_6 3.384797 1_555
La0_2 Ru0_7 3.384797 1_554
La0_2 Ru1_2 3.384797 1_555
La0_2 Ru1_3 3.384797 1_554
La0_2 Ru1_1 3.384797 1_654
La0_2 Ru1_0 3.384797 1_655
La0_2 Ru0_2 3.384797 1_655
La0_2 Ru0_3 3.384797 1_654
La0_2 La0_3 3.492260 1_554
La0_2 La0_3 3.492260 1_555
La0_3 Si0_7 3.348206 1_555
La0_3 Si1_1 3.348206 1_655
La0_3 Si1_5 3.348211 1_555
La0_3 Si1_3 3.348211 1_655
La0_3 Si0_3 3.348211 1_655
La0_3 Si0_5 3.348211 1_555
La0_3 Ru2_3 3.384796 1_655
La0_3 Ru2_2 3.384796 1_655
La0_3 Ru2_5 3.384796 1_555
La0_3 Ru2_4 3.384796 1_555
La0_3 Ru0_7 3.384797 1_555
La0_3 Ru0_6 3.384797 1_555
La0_3 Ru1_2 3.384797 1_555
La0_3 Ru1_3 3.384797 1_555
La0_3 Ru1_1 3.384797 1_655
La0_3 Ru1_0 3.384797 1_655
La0_3 Ru0_3 3.384797 1_655
La0_3 Ru0_2 3.384797 1_655
La0_4 Si1_6 3.348206 1_545
La0_4 Si0_0 3.348206 1_555
La0_4 Si1_4 3.348211 1_555
La0_4 Si1_2 3.348211 1_545
La0_4 Si0_4 3.348211 1_555
La0_4 Si0_2 3.348211 1_545
La0_4 Ru2_4 3.384796 1_555
La0_4 Ru2_5 3.384796 1_554
La0_4 Ru2_3 3.384796 1_544
La0_4 Ru2_2 3.384796 1_545
La0_4 Ru0_1 3.384797 1_554
La0_4 Ru0_0 3.384797 1_555
La0_4 Ru1_4 3.384797 1_555
La0_4 Ru1_5 3.384797 1_554
La0_4 Ru0_4 3.384797 1_555
La0_4 Ru0_5 3.384797 1_554
La0_4 Ru1_6 3.384797 1_545
La0_4 Ru1_7 3.384797 1_544
La0_4 La0_5 3.492260 1_554
La0_4 La0_5 3.492260 1_555
La0_5 Si1_7 3.348206 1_545
La0_5 Si0_1 3.348206 1_555
La0_5 Si1_5 3.348211 1_555
La0_5 Si1_3 3.348211 1_545
La0_5 Si0_5 3.348211 1_555
La0_5 Si0_3 3.348211 1_545
La0_5 Ru2_5 3.384796 1_555
La0_5 Ru2_4 3.384796 1_555
La0_5 Ru2_2 3.384796 1_545
La0_5 Ru2_3 3.384796 1_545
La0_5 Ru0_1 3.384797 1_555
La0_5 Ru0_0 3.384797 1_555
La0_5 Ru1_4 3.384797 1_555
La0_5 Ru0_5 3.384797 1_555
La0_5 Ru0_4 3.384797 1_555
La0_5 Ru1_5 3.384797 1_555
La0_5 Ru1_6 3.384797 1_545
La0_5 Ru1_7 3.384797 1_545
La0_6 Si0_2 3.348206 1_555
La0_6 Si1_4 3.348206 1_555
La0_6 Si1_0 3.348211 1_555
La0_6 Si0_0 3.348211 1_555
La0_6 Si1_6 3.348211 1_555
La0_6 Si0_6 3.348211 1_555
La0_6 Ru2_0 3.384796 1_555
La0_6 Ru2_1 3.384796 1_554
La0_6 Ru2_6 3.384796 1_555
La0_6 Ru2_7 3.384796 1_554
La0_6 Ru1_7 3.384797 1_554
La0_6 Ru1_6 3.384797 1_555
La0_6 Ru0_2 3.384797 1_555
La0_6 Ru0_3 3.384797 1_554
La0_6 Ru1_4 3.384797 1_555
La0_6 Ru1_5 3.384797 1_554
La0_6 Ru0_6 3.384797 1_555
La0_6 Ru0_7 3.384797 1_554
La0_6 La0_7 3.492260 1_554
La0_6 La0_7 3.492260 1_555
La0_7 Si0_3 3.348206 1_555
La0_7 Si1_5 3.348206 1_555
La0_7 Si1_1 3.348211 1_555
La0_7 Si0_1 3.348211 1_555
La0_7 Si1_7 3.348211 1_555
La0_7 Si0_7 3.348211 1_555
La0_7 Ru2_1 3.384796 1_555
La0_7 Ru2_7 3.384796 1_555
La0_7 Ru2_0 3.384796 1_555
La0_7 Ru2_6 3.384796 1_555
La0_7 Ru1_7 3.384797 1_555
La0_7 Ru1_6 3.384797 1_555
La0_7 Ru0_3 3.384797 1_555
La0_7 Ru0_2 3.384797 1_555
La0_7 Ru1_4 3.384797 1_555
La0_7 Ru1_5 3.384797 1_555
La0_7 Ru0_7 3.384797 1_555
La0_7 Ru0_6 3.384797 1_555
Ru0_0 Si0_0 2.419006 1_555
Ru0_0 Si0_1 2.419006 1_555
Ru0_0 Si1_2 2.419006 1_545
Ru0_0 Si1_3 2.419006 1_545
Ru0_1 Si0_0 2.419006 1_556
Ru0_1 Si0_1 2.419006 1_555
Ru0_1 Si1_3 2.419006 1_545
Ru0_1 Si1_2 2.419006 1_546
Ru0_2 Si0_3 2.419006 1_555
Ru0_2 Si0_2 2.419006 1_555
Ru0_2 Si1_1 2.419006 1_555
Ru0_2 Si1_0 2.419006 1_555
Ru0_3 Si0_3 2.419006 1_555
Ru0_3 Si0_2 2.419006 1_556
Ru0_3 Si1_1 2.419006 1_555
Ru0_3 Si1_0 2.419006 1_556
Ru0_4 Si0_5 2.419006 1_555
Ru0_4 Si1_6 2.419006 1_545
Ru0_4 Si0_4 2.419006 1_555
Ru0_4 Si1_7 2.419006 1_545
Ru0_5 Si0_4 2.419006 1_556
Ru0_5 Si0_5 2.419006 1_555
Ru0_5 Si1_7 2.419006 1_545
Ru0_5 Si1_6 2.419006 1_546
Ru0_6 Si1_4 2.419006 1_555
Ru0_6 Si1_5 2.419006 1_555
Ru0_6 Si0_7 2.419006 1_555
Ru0_6 Si0_6 2.419006 1_555
Ru0_7 Si1_4 2.419006 1_556
Ru0_7 Si1_5 2.419006 1_555
Ru0_7 Si0_6 2.419006 1_556
Ru0_7 Si0_7 2.419006 1_555
Ru1_0 Si1_0 2.419006 1_555
Ru1_0 Si1_1 2.419006 1_555
Ru1_0 Si0_4 2.419006 1_455
Ru1_0 Si0_5 2.419006 1_455
Ru1_1 Si1_0 2.419006 1_556
Ru1_1 Si1_1 2.419006 1_555
Ru1_1 Si0_5 2.419006 1_455
Ru1_1 Si0_4 2.419006 1_456
Ru1_2 Si0_7 2.419006 1_555
Ru1_2 Si0_6 2.419006 1_555
Ru1_2 Si1_3 2.419006 1_655
Ru1_2 Si1_2 2.419006 1_655
Ru1_3 Si0_7 2.419006 1_555
Ru1_3 Si0_6 2.419006 1_556
Ru1_3 Si1_3 2.419006 1_655
Ru1_3 Si1_2 2.419006 1_656
Ru1_4 Si1_4 2.419006 1_555
Ru1_4 Si1_5 2.419006 1_555
Ru1_4 Si0_0 2.419006 1_555
Ru1_4 Si0_1 2.419006 1_555
Ru1_5 Si0_0 2.419006 1_556
Ru1_5 Si1_4 2.419006 1_556
Ru1_5 Si1_5 2.419006 1_555
Ru1_5 Si0_1 2.419006 1_555
Ru1_6 Si1_6 2.419006 1_555
Ru1_6 Si1_7 2.419006 1_555
Ru1_6 Si0_3 2.419006 1_555
Ru1_6 Si0_2 2.419006 1_555
Ru1_7 Si1_7 2.419006 1_555
Ru1_7 Si1_6 2.419006 1_556
Ru1_7 Si0_3 2.419006 1_555
Ru1_7 Si0_2 2.419006 1_556
Ru2_0 Si1_1 2.419010 1_555
Ru2_0 Si0_0 2.419010 1_555
Ru2_0 Si1_0 2.419010 1_555
Ru2_0 Si0_1 2.419010 1_555
Ru2_1 Si1_1 2.419010 1_555
Ru2_1 Si0_0 2.419010 1_556
Ru2_1 Si0_1 2.419010 1_555
Ru2_1 Si1_0 2.419010 1_556
Ru2_2 Si1_2 2.419010 1_555
Ru2_2 Si1_3 2.419010 1_555
Ru2_2 Si0_2 2.419010 1_555
Ru2_2 Si0_3 2.419010 1_555
Ru2_3 Si1_2 2.419010 1_556
Ru2_3 Si1_3 2.419010 1_555
Ru2_3 Si0_2 2.419010 1_556
Ru2_3 Si0_3 2.419010 1_555
Ru2_4 Si1_5 2.419010 1_555
Ru2_4 Si1_4 2.419010 1_555
Ru2_4 Si0_4 2.419010 1_555
Ru2_4 Si0_5 2.419010 1_555
Ru2_5 Si1_4 2.419010 1_556
Ru2_5 Si1_5 2.419010 1_555
Ru2_5 Si0_5 2.419010 1_555
Ru2_5 Si0_4 2.419010 1_556
Ru2_6 Si0_7 2.419010 1_555
Ru2_6 Si0_6 2.419010 1_555
Ru2_6 Si1_6 2.419010 1_555
Ru2_6 Si1_7 2.419010 1_555
Ru2_7 Si0_7 2.419010 1_555
Ru2_7 Si0_6 2.419010 1_556
Ru2_7 Si1_7 2.419010 1_555
Ru2_7 Si1_6 2.419010 1_556
