# generated using pymatgen
data_Cs4SiTe4
_symmetry_space_group_name_H-M   'P 1'
_cell_length_a   15.27914550
_cell_length_b   15.27914550
_cell_length_c   15.27914550
_cell_angle_alpha   90.00000000
_cell_angle_beta   90.00000000
_cell_angle_gamma   90.00000000
_symmetry_Int_Tables_number   1
_chemical_formula_structural   Cs4SiTe4
_chemical_formula_sum   'Cs32 Si8 Te32'
_cell_volume   3566.95146359
_cell_formula_units_Z   8
loop_
 _symmetry_equiv_pos_site_id
 _symmetry_equiv_pos_as_xyz
  1  'x, y, z'
loop_
 _atom_site_type_symbol
 _atom_site_label
 _atom_site_symmetry_multiplicity
 _atom_site_fract_x
 _atom_site_fract_y
 _atom_site_fract_z
 _atom_site_occupancy
  Cs  Cs0  1  0.13295289  0.91218686  0.35035843  1
  Cs  Cs1  1  0.41218686  0.63295289  0.85035843  1
  Cs  Cs2  1  0.86704711  0.91218686  0.64964157  1
  Cs  Cs3  1  0.58781314  0.63295289  0.14964157  1
  Cs  Cs4  1  0.58781314  0.36704711  0.85035843  1
  Cs  Cs5  1  0.35035843  0.86704711  0.08781314  1
  Cs  Cs6  1  0.08781314  0.35035843  0.86704711  1
  Cs  Cs7  1  0.64990153  0.64990153  0.64990153  1
  Cs  Cs8  1  0.36704711  0.85035843  0.58781314  1
  Cs  Cs9  1  0.85009847  0.85009847  0.14990153  1
  Cs  Cs10  1  0.63295289  0.14964157  0.58781314  1
  Cs  Cs11  1  0.86704711  0.08781314  0.35035843  1
  Cs  Cs12  1  0.13295289  0.08781314  0.64964157  1
  Cs  Cs13  1  0.85035843  0.58781314  0.36704711  1
  Cs  Cs14  1  0.14990153  0.85009847  0.85009847  1
  Cs  Cs15  1  0.91218686  0.64964157  0.86704711  1
  Cs  Cs16  1  0.64964157  0.13295289  0.08781314  1
  Cs  Cs17  1  0.41218686  0.36704711  0.14964157  1
  Cs  Cs18  1  0.91218686  0.35035843  0.13295289  1
  Cs  Cs19  1  0.35035843  0.13295289  0.91218686  1
  Cs  Cs20  1  0.36704711  0.14964157  0.41218686  1
  Cs  Cs21  1  0.35009847  0.64990153  0.35009847  1
  Cs  Cs22  1  0.85035843  0.41218686  0.63295289  1
  Cs  Cs23  1  0.14990153  0.14990153  0.14990153  1
  Cs  Cs24  1  0.14964157  0.58781314  0.63295289  1
  Cs  Cs25  1  0.14964157  0.41218686  0.36704711  1
  Cs  Cs26  1  0.08781314  0.64964157  0.13295289  1
  Cs  Cs27  1  0.85009847  0.14990153  0.85009847  1
  Cs  Cs28  1  0.63295289  0.85035843  0.41218686  1
  Cs  Cs29  1  0.64964157  0.86704711  0.91218686  1
  Cs  Cs30  1  0.64990153  0.35009847  0.35009847  1
  Cs  Cs31  1  0.35009847  0.35009847  0.64990153  1
  Si  Si0  1  -0.00000000  0.75000000  0.50000000  1
  Si  Si1  1  0.50000000  -0.00000000  0.25000000  1
  Si  Si2  1  0.75000000  0.50000000  -0.00000000  1
  Si  Si3  1  0.50000000  0.50000000  0.50000000  1
  Si  Si4  1  0.25000000  0.50000000  -0.00000000  1
  Si  Si5  1  -0.00000000  0.25000000  0.50000000  1
  Si  Si6  1  0.50000000  -0.00000000  0.75000000  1
  Si  Si7  1  -0.00000000  -0.00000000  -0.00000000  1
  Te  Te0  1  0.60469733  0.90773432  0.65944201  1
  Te  Te1  1  0.84055799  0.59226568  0.10469733  1
  Te  Te2  1  0.34055799  0.39530267  0.90773432  1
  Te  Te3  1  0.65944201  0.39530267  0.09226568  1
  Te  Te4  1  0.84055799  0.40773432  0.89530267  1
  Te  Te5  1  0.10469733  0.84055799  0.59226568  1
  Te  Te6  1  0.60469733  0.09226568  0.34055799  1
  Te  Te7  1  0.59226568  0.89530267  0.15944201  1
  Te  Te8  1  0.40426831  0.40426831  0.40426831  1
  Te  Te9  1  0.15944201  0.59226568  0.89530267  1
  Te  Te10  1  0.89530267  0.84055799  0.40773432  1
  Te  Te11  1  0.09226568  0.34055799  0.60469733  1
  Te  Te12  1  0.15944201  0.40773432  0.10469733  1
  Te  Te13  1  0.39530267  0.09226568  0.65944201  1
  Te  Te14  1  0.40773432  0.89530267  0.84055799  1
  Te  Te15  1  0.59226568  0.10469733  0.84055799  1
  Te  Te16  1  0.09573169  0.09573169  0.90426831  1
  Te  Te17  1  0.59573169  0.40426831  0.59573169  1
  Te  Te18  1  0.34055799  0.60469733  0.09226568  1
  Te  Te19  1  0.40426831  0.59573169  0.59573169  1
  Te  Te20  1  0.09226568  0.65944201  0.39530267  1
  Te  Te21  1  0.90773432  0.34055799  0.39530267  1
  Te  Te22  1  0.89530267  0.15944201  0.59226568  1
  Te  Te23  1  0.59573169  0.59573169  0.40426831  1
  Te  Te24  1  0.10469733  0.15944201  0.40773432  1
  Te  Te25  1  0.90426831  0.90426831  0.90426831  1
  Te  Te26  1  0.09573169  0.90426831  0.09573169  1
  Te  Te27  1  0.40773432  0.10469733  0.15944201  1
  Te  Te28  1  0.90426831  0.09573169  0.09573169  1
  Te  Te29  1  0.65944201  0.60469733  0.90773432  1
  Te  Te30  1  0.39530267  0.90773432  0.34055799  1
  Te  Te31  1  0.90773432  0.65944201  0.60469733  1
loop_
_geom_bond_atom_site_label_1
_geom_bond_atom_site_label_2
_geom_bond_distance
_geom_bond_site_symmetry_2
Cs0 Te5 3.878863 1_555
Cs0 Te10 3.892445 1_455
Cs0 Te24 3.902184 1_565
Cs0 Te26 3.933687 1_555
Cs0 Te20 3.971267 1_555
Cs0 Te30 4.011853 1_555
Cs1 Te18 3.878863 1_556
Cs1 Te2 3.892445 1_555
Cs1 Te29 3.902184 1_555
Cs1 Te19 3.933687 1_555
Cs1 Te9 3.971267 1_555
Cs1 Te14 4.011853 1_555
Cs2 Te10 3.878863 1_555
Cs2 Te5 3.892445 1_655
Cs2 Te22 3.902184 1_565
Cs2 Te25 3.933687 1_555
Cs2 Te31 3.971267 1_555
Cs2 Te0 4.011853 1_555
Cs3 Te29 3.878863 1_554
Cs3 Te3 3.892445 1_555
Cs3 Te18 3.902184 1_555
Cs3 Te23 3.933687 1_555
Cs3 Te1 3.971267 1_555
Cs3 Te7 4.011853 1_555
Cs4 Te3 3.878863 1_556
Cs4 Te29 3.892445 1_555
Cs4 Te2 3.902184 1_555
Cs4 Te17 3.933687 1_555
Cs4 Te4 3.971267 1_555
Cs4 Te15 4.011853 1_555
Cs5 Te7 3.878863 1_555
Cs5 Te27 3.892445 1_565
Cs5 Te14 3.902184 1_554
Cs5 Te26 3.933687 1_555
Cs5 Te30 3.971267 1_555
Cs5 Te18 4.011853 1_555
Cs6 Te9 3.878863 1_555
Cs6 Te12 3.892445 1_556
Cs6 Te4 3.902184 1_455
Cs6 Te16 3.933687 1_555
Cs6 Te2 3.971267 1_555
Cs6 Te11 4.011853 1_555
Cs7 Te17 3.931358 1_555
Cs7 Te19 3.931358 1_555
Cs7 Te23 3.931358 1_555
Cs7 Te31 4.002208 1_555
Cs7 Te0 4.002208 1_555
Cs7 Te29 4.002208 1_555
Cs8 Te13 3.878863 1_565
Cs8 Te0 3.892445 1_555
Cs8 Te30 3.902184 1_555
Cs8 Te19 3.933687 1_555
Cs8 Te14 3.971267 1_555
Cs8 Te5 4.011853 1_555
Cs9 Te28 3.931358 1_565
Cs9 Te26 3.931358 1_655
Cs9 Te25 3.931358 1_554
Cs9 Te10 4.002208 1_555
Cs9 Te1 4.002208 1_555
Cs9 Te7 4.002208 1_555
Cs10 Te0 3.878863 1_545
Cs10 Te13 3.892445 1_555
Cs10 Te6 3.902184 1_555
Cs10 Te17 3.933687 1_555
Cs10 Te15 3.971267 1_555
Cs10 Te22 4.011853 1_555
Cs11 Te22 3.878863 1_555
Cs11 Te24 3.892445 1_655
Cs11 Te10 3.902184 1_545
Cs11 Te28 3.933687 1_555
Cs11 Te21 3.971267 1_555
Cs11 Te6 4.011853 1_555
Cs12 Te24 3.878863 1_555
Cs12 Te22 3.892445 1_455
Cs12 Te5 3.902184 1_545
Cs12 Te16 3.933687 1_555
Cs12 Te11 3.971267 1_555
Cs12 Te13 4.011853 1_555
Cs13 Te20 3.878863 1_655
Cs13 Te31 3.892445 1_555
Cs13 Te21 3.902184 1_555
Cs13 Te23 3.933687 1_555
Cs13 Te10 3.971267 1_555
Cs13 Te1 4.011853 1_555
Cs14 Te26 3.931358 1_556
Cs14 Te16 3.931358 1_565
Cs14 Te25 3.931358 1_455
Cs14 Te14 4.002208 1_555
Cs14 Te5 4.002208 1_555
Cs14 Te9 4.002208 1_555
Cs15 Te4 3.878863 1_555
Cs15 Te1 3.892445 1_556
Cs15 Te9 3.902184 1_655
Cs15 Te25 3.933687 1_555
Cs15 Te29 3.971267 1_555
Cs15 Te31 4.011853 1_555
Cs16 Te27 3.878863 1_555
Cs16 Te7 3.892445 1_545
Cs16 Te15 3.902184 1_554
Cs16 Te28 3.933687 1_555
Cs16 Te6 3.971267 1_555
Cs16 Te3 4.011853 1_555
Cs17 Te2 3.878863 1_554
Cs17 Te18 3.892445 1_555
Cs17 Te3 3.902184 1_555
Cs17 Te8 3.933687 1_555
Cs17 Te12 3.971267 1_555
Cs17 Te27 4.011853 1_555
Cs18 Te1 3.878863 1_555
Cs18 Te4 3.892445 1_554
Cs18 Te12 3.902184 1_655
Cs18 Te28 3.933687 1_555
Cs18 Te3 3.971267 1_555
Cs18 Te21 4.011853 1_555
Cs19 Te15 3.878863 1_555
Cs19 Te14 3.892445 1_545
Cs19 Te27 3.902184 1_556
Cs19 Te16 3.933687 1_555
Cs19 Te13 3.971267 1_555
Cs19 Te2 4.011853 1_555
Cs20 Te30 3.878863 1_545
Cs20 Te6 3.892445 1_555
Cs20 Te13 3.902184 1_555
Cs20 Te8 3.933687 1_555
Cs20 Te27 3.971267 1_555
Cs20 Te24 4.011853 1_555
Cs21 Te8 3.931358 1_555
Cs21 Te23 3.931358 1_555
Cs21 Te19 3.931358 1_555
Cs21 Te30 4.002208 1_555
Cs21 Te18 4.002208 1_555
Cs21 Te20 4.002208 1_555
Cs22 Te11 3.878863 1_655
Cs22 Te21 3.892445 1_555
Cs22 Te31 3.902184 1_555
Cs22 Te17 3.933687 1_555
Cs22 Te22 3.971267 1_555
Cs22 Te4 4.011853 1_555
Cs23 Te16 3.931358 1_554
Cs23 Te26 3.931358 1_545
Cs23 Te28 3.931358 1_455
Cs23 Te24 4.002208 1_555
Cs23 Te27 4.002208 1_555
Cs23 Te12 4.002208 1_555
Cs24 Te31 3.878863 1_455
Cs24 Te20 3.892445 1_555
Cs24 Te11 3.902184 1_555
Cs24 Te19 3.933687 1_555
Cs24 Te5 3.971267 1_555
Cs24 Te9 4.011853 1_555
Cs25 Te21 3.878863 1_455
Cs25 Te11 3.892445 1_555
Cs25 Te20 3.902184 1_555
Cs25 Te8 3.933687 1_555
Cs25 Te24 3.971267 1_555
Cs25 Te12 4.011853 1_555
Cs26 Te12 3.878863 1_555
Cs26 Te9 3.892445 1_554
Cs26 Te1 3.902184 1_455
Cs26 Te26 3.933687 1_555
Cs26 Te18 3.971267 1_555
Cs26 Te20 4.011853 1_555
Cs27 Te28 3.931358 1_556
Cs27 Te16 3.931358 1_655
Cs27 Te25 3.931358 1_545
Cs27 Te4 4.002208 1_555
Cs27 Te15 4.002208 1_555
Cs27 Te22 4.002208 1_555
Cs28 Te6 3.878863 1_565
Cs28 Te30 3.892445 1_555
Cs28 Te0 3.902184 1_555
Cs28 Te23 3.933687 1_555
Cs28 Te7 3.971267 1_555
Cs28 Te10 4.011853 1_555
Cs29 Te14 3.878863 1_555
Cs29 Te15 3.892445 1_565
Cs29 Te7 3.902184 1_556
Cs29 Te25 3.933687 1_555
Cs29 Te0 3.971267 1_555
Cs29 Te29 4.011853 1_555
Cs30 Te8 3.931358 1_555
Cs30 Te23 3.931358 1_555
Cs30 Te17 3.931358 1_555
Cs30 Te21 4.002208 1_555
Cs30 Te3 4.002208 1_555
Cs30 Te6 4.002208 1_555
Cs31 Te17 3.931358 1_555
Cs31 Te19 3.931358 1_555
Cs31 Te8 3.931358 1_555
Cs31 Te2 4.002208 1_555
Cs31 Te11 4.002208 1_555
Cs31 Te13 4.002208 1_555
Si0 Te20 2.541820 1_555
Si0 Te31 2.541820 1_455
Si0 Te5 2.541820 1_555
Si0 Te10 2.541820 1_455
Si1 Te30 2.541820 1_545
Si1 Te27 2.541820 1_555
Si1 Te6 2.541820 1_555
Si1 Te7 2.541820 1_545
Si2 Te3 2.541820 1_555
Si2 Te4 2.541820 1_554
Si2 Te1 2.541820 1_555
Si2 Te29 2.541820 1_554
Si3 Te8 2.533468 1_555
Si3 Te19 2.533468 1_555
Si3 Te23 2.533468 1_555
Si3 Te17 2.533468 1_555
Si4 Te2 2.541820 1_554
Si4 Te12 2.541820 1_555
Si4 Te9 2.541820 1_554
Si4 Te18 2.541820 1_555
Si5 Te21 2.541820 1_455
Si5 Te24 2.541820 1_555
Si5 Te22 2.541820 1_455
Si5 Te11 2.541820 1_555
Si6 Te13 2.541820 1_555
Si6 Te0 2.541820 1_545
Si6 Te14 2.541820 1_545
Si6 Te15 2.541820 1_555
Si7 Te28 2.533468 1_455
Si7 Te16 2.533468 1_554
Si7 Te26 2.533468 1_545
Si7 Te25 2.533468 1_444
