# generated using pymatgen
data_Ho(SiNi5)2
_symmetry_space_group_name_H-M   'P 1'
_cell_length_a   8.07740861
_cell_length_b   8.07741865
_cell_length_c   4.62946959
_cell_angle_alpha   90.00056507
_cell_angle_beta   90.00010015
_cell_angle_gamma   89.99998872
_symmetry_Int_Tables_number   1
_chemical_formula_structural   Ho(SiNi5)2
_chemical_formula_sum   'Ho2 Si4 Ni20'
_cell_volume   302.04794230
_cell_formula_units_Z   2
loop_
 _symmetry_equiv_pos_site_id
 _symmetry_equiv_pos_as_xyz
  1  'x, y, z'
loop_
 _atom_site_type_symbol
 _atom_site_label
 _atom_site_symmetry_multiplicity
 _atom_site_fract_x
 _atom_site_fract_y
 _atom_site_fract_z
 _atom_site_occupancy
  Ho  Ho0  1  0.00000632  0.49999959  0.22045157  1
  Ho  Ho1  1  0.49999333  0.00000096  0.77954368  1
  Si  Si0  1  0.74997463  0.74998873  0.50002553  1
  Si  Si1  1  0.25002472  0.74998835  0.50002608  1
  Si  Si2  1  0.74997537  0.25001189  0.50002629  1
  Si  Si3  1  0.25002431  0.25001186  0.50002676  1
  Ni  Ni0  1  0.74998555  0.24999568  -0.00003821  1
  Ni  Ni1  1  0.74998605  0.75000388  -0.00003684  1
  Ni  Ni2  1  0.25001468  0.24999531  -0.00003961  1
  Ni  Ni3  1  0.25001393  0.75000401  -0.00003832  1
  Ni  Ni4  1  0.35290260  0.50000483  0.23848415  1
  Ni  Ni5  1  -0.00000451  0.14705068  0.23849268  1
  Ni  Ni6  1  -0.00000333  0.85289263  0.23850607  1
  Ni  Ni7  1  0.64708094  0.50000378  0.23848571  1
  Ni  Ni8  1  0.14710032  -0.00000407  0.76150273  1
  Ni  Ni9  1  0.85291744  -0.00000321  0.76150192  1
  Ni  Ni10  1  0.50000418  0.35293110  0.76151905  1
  Ni  Ni11  1  0.50000305  0.64712432  0.76151173  1
  Ni  Ni12  1  0.77614552  0.49998714  0.72929180  1
  Ni  Ni13  1  -0.00001708  0.72393167  0.72923863  1
  Ni  Ni14  1  -0.00001828  0.27607690  0.72924686  1
  Ni  Ni15  1  0.22386164  0.49998836  0.72929204  1
  Ni  Ni16  1  0.72390522  0.00001191  0.27076907  1
  Ni  Ni17  1  0.27608654  0.00001083  0.27076961  1
  Ni  Ni18  1  0.50001785  0.77615728  0.27072328  1
  Ni  Ni19  1  0.50001902  0.22383560  0.27071771  1
loop_
_geom_bond_atom_site_label_1
_geom_bond_atom_site_label_2
_geom_bond_distance
_geom_bond_site_symmetry_2
Ho0 Ni6 2.851689 1_555
Ho0 Ni4 2.851709 1_555
Ho0 Ni7 2.851945 1_455
Ho0 Ni5 2.852140 1_555
Ho0 Ni15 2.905116 1_554
Ho0 Ni12 2.905140 1_454
Ho0 Ni14 2.905604 1_554
Ho0 Ni13 2.905708 1_554
Ho0 Ni15 2.969614 1_555
Ho0 Ni12 2.969645 1_455
Ho0 Ni13 2.969785 1_555
Ho0 Ni14 2.969798 1_555
Ho0 Ni2 3.032804 1_555
Ho0 Ni3 3.032812 1_555
Ho0 Ni0 3.032865 1_455
Ho0 Ni1 3.032875 1_455
Ho0 Si1 3.135429 1_555
Ho0 Si3 3.135439 1_555
Ho0 Si0 3.135502 1_455
Ho0 Si2 3.135509 1_455
Ho1 Ni11 2.851554 1_545
Ho1 Ni8 2.851684 1_555
Ho1 Ni9 2.851936 1_555
Ho1 Ni10 2.851986 1_555
Ho1 Ni19 2.905050 1_556
Ho1 Ni18 2.905143 1_546
Ho1 Ni17 2.905615 1_556
Ho1 Ni16 2.905634 1_556
Ho1 Ni18 2.969473 1_545
Ho1 Ni19 2.969477 1_555
Ho1 Ni17 2.969623 1_555
Ho1 Ni16 2.969656 1_555
Ho1 Ni2 3.032475 1_556
Ho1 Ni3 3.032509 1_546
Ho1 Ni0 3.032550 1_556
Ho1 Ni1 3.032580 1_546
Ho1 Si1 3.135185 1_545
Ho1 Si3 3.135193 1_555
Ho1 Si0 3.135253 1_545
Ho1 Si2 3.135266 1_555
Ni0 Si2 2.314436 1_554
Ni0 Si2 2.315033 1_555
Ni0 Ni12 2.385869 1_554
Ni0 Ni19 2.385898 1_555
Ni0 Ni14 2.385944 1_654
Ni0 Ni16 2.386093 1_555
Ni0 Ni10 2.446837 1_554
Ni0 Ni9 2.446971 1_554
Ni0 Ni7 2.447092 1_555
Ni0 Ni5 2.447238 1_655
Ni1 Si0 2.314446 1_554
Ni1 Si0 2.315024 1_555
Ni1 Ni18 2.385912 1_555
Ni1 Ni13 2.385964 1_654
Ni1 Ni12 2.386024 1_554
Ni1 Ni16 2.386235 1_565
Ni1 Ni11 2.446706 1_554
Ni1 Ni9 2.446951 1_564
Ni1 Ni7 2.447055 1_555
Ni1 Ni6 2.447106 1_655
Ni2 Si3 2.314428 1_554
Ni2 Si3 2.315042 1_555
Ni2 Ni8 2.446921 1_554
Ni2 Ni4 2.447054 1_555
Ni2 Ni5 2.447305 1_555
Ni3 Si1 2.314437 1_554
Ni3 Si1 2.315033 1_555
Ni3 Ni8 2.446890 1_564
Ni3 Ni4 2.447002 1_555
Ni3 Ni6 2.447156 1_555
Ni4 Ni7 2.376199 1_555
Ni4 Si1 2.496755 1_555
Ni4 Si3 2.496839 1_555
Ni5 Ni6 2.376038 1_545
Ni5 Si2 2.497205 1_455
Ni5 Si3 2.497259 1_555
Ni5 Ni9 2.774603 1_454
Ni5 Ni8 2.774699 1_554
Ni5 Ni9 2.947002 1_455
Ni5 Ni8 2.947091 1_555
Ni6 Si0 2.497040 1_455
Ni6 Si1 2.497077 1_555
Ni6 Ni9 2.774849 1_464
Ni6 Ni8 2.774931 1_564
Ni6 Ni9 2.947099 1_465
Ni6 Ni8 2.947175 1_565
Ni7 Si0 2.496801 1_555
Ni7 Si2 2.496869 1_555
Ni8 Ni9 2.376235 1_455
Ni8 Si1 2.496891 1_545
Ni8 Si3 2.496962 1_555
Ni9 Si0 2.496942 1_545
Ni9 Si2 2.497003 1_555
Ni10 Ni11 2.376322 1_555
Ni10 Ni2 2.446893 1_556
Ni10 Si2 2.496680 1_555
Ni10 Si3 2.496733 1_555
Ni10 Ni19 2.499993 1_555
Ni10 Ni12 2.531476 1_555
Ni10 Ni15 2.531488 1_555
Ni10 Ni19 2.577664 1_556
Ni10 Ni7 2.774575 1_556
Ni10 Ni4 2.774662 1_556
Ni10 Ni7 2.947150 1_555
Ni10 Ni4 2.947237 1_555
Ni11 Ni3 2.446747 1_556
Ni11 Si0 2.496529 1_555
Ni11 Si1 2.496567 1_555
Ni11 Ni18 2.499746 1_555
Ni11 Ni15 2.531776 1_555
Ni11 Ni12 2.531788 1_555
Ni11 Ni18 2.577495 1_556
Ni11 Ni7 2.774790 1_556
Ni11 Ni4 2.774862 1_556
Ni11 Ni7 2.947262 1_555
Ni11 Ni4 2.947335 1_555
Ni12 Si2 2.290884 1_555
Ni12 Si0 2.291092 1_555
Ni12 Ni7 2.499916 1_555
Ni12 Ni14 2.557346 1_655
Ni12 Ni13 2.557549 1_655
Ni12 Ni7 2.577534 1_556
Ni13 Si0 2.290929 1_455
Ni13 Si1 2.291170 1_555
Ni13 Ni3 2.386190 1_556
Ni13 Ni6 2.499269 1_555
Ni13 Ni9 2.530979 1_465
Ni13 Ni8 2.531170 1_565
Ni13 Ni15 2.557777 1_555
Ni13 Ni6 2.577497 1_556
Ni14 Si2 2.290936 1_455
Ni14 Si3 2.291196 1_555
Ni14 Ni2 2.386189 1_556
Ni14 Ni5 2.499561 1_555
Ni14 Ni9 2.531081 1_455
Ni14 Ni8 2.531293 1_555
Ni14 Ni15 2.557603 1_555
Ni14 Ni5 2.577637 1_556
Ni15 Si3 2.290887 1_555
Ni15 Si1 2.291075 1_555
Ni15 Ni2 2.385870 1_556
Ni15 Ni3 2.386007 1_556
Ni15 Ni4 2.499847 1_555
Ni15 Ni4 2.577446 1_556
Ni16 Si2 2.290968 1_555
Ni16 Si0 2.291149 1_545
Ni16 Ni9 2.499431 1_555
Ni16 Ni5 2.531061 1_655
Ni16 Ni6 2.531369 1_645
Ni16 Ni19 2.557137 1_555
Ni16 Ni18 2.557321 1_545
Ni16 Ni9 2.577673 1_554
Ni17 Si3 2.290970 1_555
Ni17 Si1 2.291139 1_545
Ni17 Ni2 2.386097 1_555
Ni17 Ni3 2.386226 1_545
Ni17 Ni8 2.499348 1_555
Ni17 Ni5 2.531070 1_555
Ni17 Ni6 2.531354 1_545
Ni17 Ni19 2.557408 1_555
Ni17 Ni18 2.557565 1_545
Ni17 Ni8 2.577584 1_554
Ni18 Si0 2.290837 1_555
Ni18 Si1 2.291100 1_555
Ni18 Ni3 2.386156 1_555
Ni18 Ni7 2.531591 1_555
Ni18 Ni4 2.531782 1_555
Ni19 Si2 2.290851 1_555
Ni19 Si3 2.291128 1_555
Ni19 Ni2 2.386156 1_555
Ni19 Ni7 2.531693 1_555
Ni19 Ni4 2.531907 1_555
