# generated using pymatgen
data_K3Hg3S2Br5O6
_symmetry_space_group_name_H-M   'P 1'
_cell_length_a   6.31507400
_cell_length_b   12.91028000
_cell_length_c   23.01724200
_cell_angle_alpha   90.00000000
_cell_angle_beta   90.00000000
_cell_angle_gamma   90.00000000
_symmetry_Int_Tables_number   1
_chemical_formula_structural   K3Hg3S2Br5O6
_chemical_formula_sum   'K12 Hg12 S8 Br20 O24'
_cell_volume   1876.58132136
_cell_formula_units_Z   4
loop_
 _symmetry_equiv_pos_site_id
 _symmetry_equiv_pos_as_xyz
  1  'x, y, z'
loop_
 _atom_site_type_symbol
 _atom_site_label
 _atom_site_symmetry_multiplicity
 _atom_site_fract_x
 _atom_site_fract_y
 _atom_site_fract_z
 _atom_site_occupancy
  K  K0  1  0.75000000  0.63235500  0.88246500  1
  K  K1  1  0.25000000  0.12673200  0.99513000  1
  K  K2  1  0.25000000  0.37326800  0.49513000  1
  K  K3  1  0.75000000  0.13362300  0.49017100  1
  K  K4  1  0.25000000  0.86637700  0.50982900  1
  K  K5  1  0.25000000  0.63362300  0.00982900  1
  K  K6  1  0.25000000  0.36764500  0.11753500  1
  K  K7  1  0.75000000  0.62673200  0.50487000  1
  K  K8  1  0.75000000  0.86764500  0.38246500  1
  K  K9  1  0.75000000  0.36637700  0.99017100  1
  K  K10  1  0.25000000  0.13235500  0.61753500  1
  K  K11  1  0.75000000  0.87326800  0.00487000  1
  Hg  Hg0  1  0.75000000  0.85387900  0.68160600  1
  Hg  Hg1  1  0.25000000  0.62061100  0.68967300  1
  Hg  Hg2  1  0.25000000  0.62072600  0.30979800  1
  Hg  Hg3  1  0.25000000  0.87938900  0.18967300  1
  Hg  Hg4  1  0.75000000  0.12061100  0.81032700  1
  Hg  Hg5  1  0.75000000  0.64612100  0.18160600  1
  Hg  Hg6  1  0.25000000  0.87927400  0.80979800  1
  Hg  Hg7  1  0.75000000  0.37927400  0.69020200  1
  Hg  Hg8  1  0.75000000  0.12072600  0.19020200  1
  Hg  Hg9  1  0.25000000  0.35387900  0.81839400  1
  Hg  Hg10  1  0.75000000  0.37938900  0.31032700  1
  Hg  Hg11  1  0.25000000  0.14612100  0.31839400  1
  S  S0  1  0.25000000  0.42104400  0.92018600  1
  S  S1  1  0.25000000  0.07895600  0.42018600  1
  S  S2  1  0.75000000  0.15948000  0.08500200  1
  S  S3  1  0.25000000  0.65948000  0.41499800  1
  S  S4  1  0.75000000  0.57895600  0.07981400  1
  S  S5  1  0.75000000  0.34052000  0.58500200  1
  S  S6  1  0.25000000  0.84052000  0.91499800  1
  S  S7  1  0.75000000  0.92104400  0.57981400  1
  Br  Br0  1  0.25000000  0.12879500  0.81368100  1
  Br  Br1  1  0.75000000  0.12429100  0.70082100  1
  Br  Br2  1  0.25000000  0.87741200  0.08048200  1
  Br  Br3  1  0.75000000  0.11260700  0.30358200  1
  Br  Br4  1  0.25000000  0.13392800  0.20278000  1
  Br  Br5  1  0.75000000  0.62879500  0.68631900  1
  Br  Br6  1  0.25000000  0.62429100  0.79917900  1
  Br  Br7  1  0.75000000  0.37741200  0.41951800  1
  Br  Br8  1  0.75000000  0.63392800  0.29722000  1
  Br  Br9  1  0.25000000  0.36607200  0.70278000  1
  Br  Br10  1  0.25000000  0.37120500  0.31368100  1
  Br  Br11  1  0.75000000  0.87120500  0.18631900  1
  Br  Br12  1  0.25000000  0.61260700  0.19641800  1
  Br  Br13  1  0.25000000  0.87570900  0.29917900  1
  Br  Br14  1  0.25000000  0.88739300  0.69641800  1
  Br  Br15  1  0.75000000  0.37570900  0.20082100  1
  Br  Br16  1  0.75000000  0.38739300  0.80358200  1
  Br  Br17  1  0.75000000  0.12258800  0.91951800  1
  Br  Br18  1  0.75000000  0.86607200  0.79722000  1
  Br  Br19  1  0.25000000  0.62258800  0.58048200  1
  O  O0  1  0.75000000  0.66810300  0.03880400  1
  O  O1  1  0.05572100  0.72138100  0.42756700  1
  O  O2  1  0.94472000  0.98518300  0.57234000  1
  O  O3  1  0.05528000  0.48518300  0.92766000  1
  O  O4  1  0.55572100  0.22138100  0.07243300  1
  O  O5  1  0.94427900  0.22138100  0.07243300  1
  O  O6  1  0.75000000  0.44003800  0.55354100  1
  O  O7  1  0.25000000  0.55996200  0.44645900  1
  O  O8  1  0.05572100  0.77861900  0.92756700  1
  O  O9  1  0.44472000  0.01481700  0.42766000  1
  O  O10  1  0.05528000  0.01481700  0.42766000  1
  O  O11  1  0.25000000  0.94003800  0.94645900  1
  O  O12  1  0.94472000  0.51481700  0.07234000  1
  O  O13  1  0.75000000  0.05996200  0.05354100  1
  O  O14  1  0.75000000  0.83189700  0.53880400  1
  O  O15  1  0.55572100  0.27861900  0.57243300  1
  O  O16  1  0.44427900  0.77861900  0.92756700  1
  O  O17  1  0.25000000  0.33189700  0.96119600  1
  O  O18  1  0.25000000  0.16810300  0.46119600  1
  O  O19  1  0.44427900  0.72138100  0.42756700  1
  O  O20  1  0.94427900  0.27861900  0.57243300  1
  O  O21  1  0.44472000  0.48518300  0.92766000  1
  O  O22  1  0.55528000  0.98518300  0.57234000  1
  O  O23  1  0.55528000  0.51481700  0.07234000  1
loop_
_geom_bond_atom_site_label_1
_geom_bond_atom_site_label_2
_geom_bond_distance
_geom_bond_site_symmetry_2
K0 O8 2.893238 1_655
K0 O16 2.893238 1_555
K0 O3 2.899817 1_655
K0 O21 2.899817 1_555
K1 O11 2.657898 1_545
K1 O17 2.761499 1_555
K1 O5 2.895942 1_456
K1 O4 2.895942 1_556
K2 O7 2.657898 1_555
K2 O18 2.761499 1_555
K2 O15 2.895942 1_555
K2 O20 2.895942 1_455
K3 O10 2.852981 1_655
K3 O9 2.852981 1_555
K3 O20 2.931644 1_555
K3 O15 2.931644 1_555
K3 O22 2.960020 1_545
K3 O2 2.960020 1_545
K3 O18 3.257757 1_655
K3 O18 3.257757 1_555
K4 O2 2.852981 1_455
K4 O22 2.852981 1_555
K4 O19 2.931644 1_555
K4 O1 2.931644 1_555
K4 O9 2.960020 1_565
K4 O10 2.960020 1_565
K4 O14 3.257757 1_455
K4 O14 3.257757 1_555
K5 O23 2.852981 1_555
K5 O12 2.852981 1_455
K5 O16 2.931644 1_554
K5 O8 2.931644 1_554
K5 O3 2.960020 1_554
K5 O21 2.960020 1_554
K5 O0 3.257757 1_555
K5 O0 3.257757 1_455
K6 O5 2.893238 1_455
K6 O4 2.893238 1_555
K6 O23 2.899817 1_555
K6 O12 2.899817 1_455
K7 O6 2.657898 1_555
K7 O14 2.761499 1_555
K7 O1 2.895942 1_655
K7 O19 2.895942 1_555
K8 O1 2.893238 1_655
K8 O19 2.893238 1_555
K8 O9 2.899817 1_565
K8 O10 2.899817 1_665
K9 O3 2.852981 1_655
K9 O21 2.852981 1_555
K9 O4 2.931644 1_556
K9 O5 2.931644 1_556
K9 O23 2.960020 1_556
K9 O12 2.960020 1_556
K9 O17 3.257757 1_655
K9 O17 3.257757 1_555
K10 O15 2.893238 1_555
K10 O20 2.893238 1_455
K10 O2 2.899817 1_445
K10 O22 2.899817 1_545
K11 O13 2.657898 1_565
K11 O0 2.761499 1_555
K11 O8 2.895942 1_654
K11 O16 2.895942 1_554
Hg0 S7 2.498281 1_555
Hg2 S3 2.472563 1_555
Hg5 S4 2.498281 1_555
Hg6 S6 2.472563 1_555
Hg7 S5 2.472563 1_555
Hg8 S2 2.472563 1_555
Hg9 S0 2.498281 1_555
Hg11 S1 2.498281 1_555
Br0 Hg9 2.907922 1_555
Br0 Hg4 3.160247 1_555
Br0 Hg4 3.160247 1_455
Br0 Hg6 3.222626 1_545
Br1 Hg4 2.520974 1_555
Br1 K10 3.695378 1_655
Br1 K10 3.695378 1_555
Br2 Hg3 2.513405 1_555
Br2 K5 3.542693 1_555
Br2 K11 3.605804 1_455
Br2 K11 3.605804 1_555
Br2 K1 3.770960 1_564
Br3 Hg8 2.611799 1_555
Br3 Hg11 3.205227 1_655
Br3 Hg11 3.205227 1_555
Br3 K8 3.646675 1_545
Br4 Hg11 2.665767 1_555
Br4 K6 3.599204 1_555
Br5 Hg0 2.907922 1_555
Br5 Hg1 3.160247 1_555
Br5 Hg1 3.160247 1_655
Br5 Hg7 3.222626 1_555
Br6 Hg1 2.520974 1_555
Br6 K0 3.695378 1_555
Br6 K0 3.695378 1_455
Br7 Hg10 2.513405 1_555
Br7 K3 3.542693 1_555
Br7 K2 3.605804 1_655
Br7 K2 3.605804 1_555
Br7 K7 3.770960 1_555
Br8 Hg5 2.665767 1_555
Br8 K8 3.599204 1_555
Br9 Hg9 2.665767 1_555
Br9 K10 3.599204 1_555
Br10 Hg11 2.907922 1_555
Br10 Hg10 3.160247 1_555
Br10 Hg10 3.160247 1_455
Br10 Hg2 3.222626 1_555
Br11 Hg5 2.907922 1_555
Br11 Hg3 3.160247 1_555
Br11 Hg3 3.160247 1_655
Br11 Hg8 3.222626 1_565
Br12 Hg2 2.611799 1_555
Br12 Hg5 3.205227 1_555
Br12 Hg5 3.205227 1_455
Br12 K6 3.646675 1_555
Br13 Hg3 2.520974 1_555
Br13 K8 3.695378 1_555
Br13 K8 3.695378 1_455
Br14 Hg6 2.611799 1_555
Br14 Hg0 3.205227 1_555
Br14 Hg0 3.205227 1_455
Br14 K10 3.646675 1_565
Br15 Hg10 2.520974 1_555
Br15 K6 3.695378 1_655
Br15 K6 3.695378 1_555
Br16 Hg7 2.611799 1_555
Br16 Hg9 3.205227 1_555
Br16 Hg9 3.205227 1_655
Br16 K0 3.646675 1_555
Br17 Hg4 2.513405 1_555
Br17 K9 3.542693 1_555
Br17 K1 3.605804 1_555
Br17 K1 3.605804 1_655
Br17 K11 3.770960 1_546
Br18 Hg0 2.665767 1_555
Br18 K0 3.599204 1_555
Br19 Hg1 2.513405 1_555
Br19 K4 3.542693 1_555
Br19 K7 3.605804 1_555
Br19 K7 3.605804 1_455
Br19 K2 3.770960 1_555
O0 S4 1.488495 1_555
O1 S3 1.492515 1_555
O2 S7 1.492433 1_555
O3 S0 1.492433 1_555
O4 S2 1.492515 1_555
O5 S2 1.492515 1_555
O6 S5 1.474826 1_555
O7 S3 1.474826 1_555
O8 S6 1.492515 1_555
O9 S1 1.492433 1_555
O10 S1 1.492433 1_555
O11 S6 1.474826 1_555
O12 S4 1.492433 1_555
O13 S2 1.474826 1_555
O14 S7 1.488495 1_555
O15 S5 1.492515 1_555
O16 S6 1.492515 1_555
O17 S0 1.488495 1_555
O18 S1 1.488495 1_555
O19 S3 1.492515 1_555
O20 S5 1.492515 1_555
O21 S0 1.492433 1_555
O22 S7 1.492433 1_555
O23 S4 1.492433 1_555
