# generated using pymatgen
data_Na2Zr12B2I5Cl23
_symmetry_space_group_name_H-M   'P 1'
_cell_length_a   13.62145300
_cell_length_b   13.49807200
_cell_length_c   13.49946427
_cell_angle_alpha   89.96676713
_cell_angle_beta   90.00000000
_cell_angle_gamma   90.00000000
_symmetry_Int_Tables_number   1
_chemical_formula_structural   Na2Zr12B2I5Cl23
_chemical_formula_sum   'Na4 Zr24 B4 I10 Cl46'
_cell_volume   2482.05635159
_cell_formula_units_Z   2
loop_
 _symmetry_equiv_pos_site_id
 _symmetry_equiv_pos_as_xyz
  1  'x, y, z'
loop_
 _atom_site_type_symbol
 _atom_site_label
 _atom_site_symmetry_multiplicity
 _atom_site_fract_x
 _atom_site_fract_y
 _atom_site_fract_z
 _atom_site_occupancy
  Na  Na0  1  0.03400100  0.71573900  0.28278200  1
  Na  Na1  1  0.96599900  0.71573900  0.78278200  1
  Na  Na2  1  0.53027800  0.77616200  0.28427700  1
  Na  Na3  1  0.46972200  0.77616200  0.78427700  1
  Zr  Zr0  1  0.59900500  0.05107600  0.43657400  1
  Zr  Zr1  1  0.40099500  0.05107600  0.93657400  1
  Zr  Zr2  1  0.29375700  0.06664100  0.15203500  1
  Zr  Zr3  1  0.70624300  0.06664100  0.65203500  1
  Zr  Zr4  1  0.81542200  0.15459200  0.45336300  1
  Zr  Zr5  1  0.18457800  0.15459200  0.95336300  1
  Zr  Zr6  1  0.31329700  0.34534100  0.45374400  1
  Zr  Zr7  1  0.68670300  0.34534100  0.95374400  1
  Zr  Zr8  1  0.79605200  0.43319200  0.15269200  1
  Zr  Zr9  1  0.20394800  0.43319200  0.65269200  1
  Zr  Zr10  1  0.09810600  0.45061900  0.43699100  1
  Zr  Zr11  1  0.90189400  0.45061900  0.93699100  1
  Zr  Zr12  1  0.59992200  0.54176000  0.06447700  1
  Zr  Zr13  1  0.40007800  0.54176000  0.56447700  1
  Zr  Zr14  1  0.29496400  0.56054700  0.34800100  1
  Zr  Zr15  1  0.70503600  0.56054700  0.84800100  1
  Zr  Zr16  1  0.81313200  0.64977400  0.04538800  1
  Zr  Zr17  1  0.18686800  0.64977400  0.54538800  1
  Zr  Zr18  1  0.68804200  0.85017800  0.54419100  1
  Zr  Zr19  1  0.31195800  0.85017800  0.04419100  1
  Zr  Zr20  1  0.19923800  0.93801900  0.84786800  1
  Zr  Zr21  1  0.80076200  0.93801900  0.34786800  1
  Zr  Zr22  1  0.09841800  0.95719200  0.06468700  1
  Zr  Zr23  1  0.90158200  0.95719200  0.56468700  1
  B  B0  1  0.24933000  0.00309500  0.99906400  1
  B  B1  1  0.75067000  0.00309500  0.49906400  1
  B  B2  1  0.24918400  0.49665400  0.50032600  1
  B  B3  1  0.75081600  0.49665400  0.00032600  1
  I  I0  1  0.38308400  0.13175000  0.36943200  1
  I  I1  1  0.61691600  0.13175000  0.86943200  1
  I  I2  1  0.88350000  0.36866300  0.36859300  1
  I  I3  1  0.11650000  0.36866300  0.86859300  1
  I  I4  1  0.61474300  0.63543300  0.63490400  1
  I  I5  1  0.38525700  0.63543300  0.13490400  1
  I  I6  1  0.11156800  0.86289900  0.63664100  1
  I  I7  1  0.88843200  0.86289900  0.13664100  1
  I  I8  1  0.62814200  0.98310800  0.23218400  1
  I  I9  1  0.37185800  0.98310800  0.73218400  1
  Cl  Cl0  1  0.13356900  0.01988000  0.23885900  1
  Cl  Cl1  1  0.86643100  0.01988000  0.73885900  1
  Cl  Cl2  1  0.87529100  0.09766100  0.28387100  1
  Cl  Cl3  1  0.12470900  0.09766100  0.78387100  1
  Cl  Cl4  1  0.01221900  0.11781600  0.02127900  1
  Cl  Cl5  1  0.98778100  0.11781600  0.52127900  1
  Cl  Cl6  1  0.46162800  0.12626000  0.09656400  1
  Cl  Cl7  1  0.53837200  0.12626000  0.59656400  1
  Cl  Cl8  1  0.65543600  0.21986600  0.37912700  1
  Cl  Cl9  1  0.34456400  0.21986600  0.87912700  1
  Cl  Cl10  1  0.22690000  0.23908000  0.11734600  1
  Cl  Cl11  1  0.77310000  0.23908000  0.61734600  1
  Cl  Cl12  1  0.72976700  0.26058400  0.11757300  1
  Cl  Cl13  1  0.27023300  0.26058400  0.61757300  1
  Cl  Cl14  1  0.15327800  0.28227900  0.37784600  1
  Cl  Cl15  1  0.84672200  0.28227900  0.87784600  1
  Cl  Cl16  1  0.96666700  0.37994300  0.09818400  1
  Cl  Cl17  1  0.03333300  0.37994300  0.59818400  1
  Cl  Cl18  1  0.51357500  0.38175200  0.01996700  1
  Cl  Cl19  1  0.48642500  0.38175200  0.51996700  1
  Cl  Cl20  1  0.36939000  0.40225700  0.28242700  1
  Cl  Cl21  1  0.63061000  0.40225700  0.78242700  1
  Cl  Cl22  1  0.63482700  0.47984100  0.23906000  1
  Cl  Cl23  1  0.36517300  0.47984100  0.73906000  1
  Cl  Cl24  1  0.13079200  0.52301700  0.26120800  1
  Cl  Cl25  1  0.86920800  0.52301700  0.76120800  1
  Cl  Cl26  1  0.87005000  0.59756600  0.21796400  1
  Cl  Cl27  1  0.12995000  0.59756600  0.71796400  1
  Cl  Cl28  1  0.98743100  0.61802900  0.97713000  1
  Cl  Cl29  1  0.01256900  0.61802900  0.47713000  1
  Cl  Cl30  1  0.46593200  0.61943800  0.40281700  1
  Cl  Cl31  1  0.53406800  0.61943800  0.90281700  1
  Cl  Cl32  1  0.65250100  0.71703000  0.11828300  1
  Cl  Cl33  1  0.34749900  0.71703000  0.61828300  1
  Cl  Cl34  1  0.22784100  0.73799600  0.38124200  1
  Cl  Cl35  1  0.77215900  0.73799600  0.88124200  1
  Cl  Cl36  1  0.73012100  0.76141300  0.38114000  1
  Cl  Cl37  1  0.26987900  0.76141300  0.88114000  1
  Cl  Cl38  1  0.15218800  0.78167100  0.11843900  1
  Cl  Cl39  1  0.84781200  0.78167100  0.61843900  1
  Cl  Cl40  1  0.03017400  0.87882600  0.90435000  1
  Cl  Cl41  1  0.96982600  0.87882600  0.40435000  1
  Cl  Cl42  1  0.48642400  0.88328100  0.97716800  1
  Cl  Cl43  1  0.51357600  0.88328100  0.47716800  1
  Cl  Cl44  1  0.36677700  0.90198200  0.21744200  1
  Cl  Cl45  1  0.63322300  0.90198200  0.71744200  1
loop_
_geom_bond_atom_site_label_1
_geom_bond_atom_site_label_2
_geom_bond_distance
_geom_bond_site_symmetry_2
B0 Zr5 2.310582 1_555
B0 Zr19 2.314704 1_546
B0 Zr2 2.316968 1_556
B0 Zr22 2.322435 1_546
B0 Zr1 2.323442 1_555
B0 Zr20 2.324905 1_545
B1 Zr4 2.310582 1_555
B1 Zr18 2.314704 1_545
B1 Zr3 2.316968 1_555
B1 Zr23 2.322435 1_545
B1 Zr0 2.323442 1_555
B1 Zr21 2.324905 1_545
B2 Zr6 2.308924 1_555
B2 Zr9 2.311297 1_555
B2 Zr13 2.312124 1_555
B2 Zr10 2.313590 1_555
B2 Zr14 2.314949 1_555
B2 Zr17 2.315985 1_555
B3 Zr7 2.308924 1_554
B3 Zr8 2.311297 1_555
B3 Zr12 2.312124 1_555
B3 Zr11 2.313590 1_554
B3 Zr15 2.314949 1_554
B3 Zr16 2.315985 1_555
I0 Zr6 3.242676 1_555
I0 Zr0 3.264443 1_555
I0 Zr2 3.296755 1_555
I1 Zr7 3.242676 1_555
I1 Zr1 3.264443 1_555
I1 Zr3 3.296755 1_555
I2 Zr4 3.242699 1_555
I2 Zr10 3.259277 1_655
I2 Zr8 3.266374 1_555
I3 Zr5 3.242699 1_555
I3 Zr11 3.259277 1_455
I3 Zr9 3.266374 1_555
I4 Zr15 3.287318 1_555
I4 Zr18 3.300679 1_555
I4 Zr13 3.324765 1_555
I4 Na3 3.403101 1_555
I5 Zr14 3.287318 1_555
I5 Zr19 3.300679 1_555
I5 Zr12 3.324765 1_555
I5 Na2 3.403101 1_555
I6 Zr20 3.253978 1_555
I6 Zr23 3.277716 1_455
I6 Zr17 3.293858 1_555
I6 Na1 3.430003 1_455
I7 Zr21 3.253978 1_555
I7 Zr22 3.277716 1_655
I7 Zr16 3.293858 1_555
I7 Na0 3.430003 1_655
I8 Zr21 2.887370 1_555
I8 Zr0 2.935147 1_565
I8 Na2 3.173673 1_555
I9 Zr20 2.887370 1_555
I9 Zr1 2.935147 1_565
I9 Na3 3.173673 1_555
Cl0 Zr22 2.544767 1_545
Cl0 Zr2 2.555855 1_555
Cl1 Zr23 2.544767 1_545
Cl1 Zr3 2.555855 1_555
Cl2 Zr21 2.533425 1_545
Cl2 Zr4 2.548096 1_555
Cl3 Zr20 2.533425 1_545
Cl3 Zr5 2.548096 1_555
Cl4 Zr22 2.534022 1_545
Cl4 Zr5 2.568762 1_554
Cl5 Zr23 2.534022 1_545
Cl5 Zr4 2.568762 1_555
Cl6 Zr1 2.525711 1_554
Cl6 Zr2 2.537008 1_555
Cl7 Zr0 2.525711 1_555
Cl7 Zr3 2.537008 1_555
Cl8 Zr0 2.526073 1_555
Cl8 Zr4 2.555124 1_555
Cl9 Zr1 2.526073 1_555
Cl9 Zr5 2.555124 1_555
Cl10 Zr2 2.542651 1_555
Cl10 Zr5 2.556604 1_554
Cl11 Zr3 2.542651 1_555
Cl11 Zr4 2.556604 1_555
Cl12 Zr8 2.543538 1_555
Cl12 Zr7 2.557580 1_554
Cl13 Zr9 2.543538 1_555
Cl13 Zr6 2.557580 1_555
Cl14 Zr10 2.523403 1_555
Cl14 Zr6 2.554682 1_555
Cl15 Zr11 2.523403 1_555
Cl15 Zr7 2.554682 1_555
Cl16 Zr11 2.534010 1_554
Cl16 Zr8 2.541606 1_555
Cl17 Zr10 2.534010 1_555
Cl17 Zr9 2.541606 1_555
Cl18 Zr12 2.531927 1_555
Cl18 Zr7 2.569556 1_554
Cl19 Zr13 2.531927 1_555
Cl19 Zr6 2.569556 1_555
Cl20 Zr14 2.525603 1_555
Cl20 Zr6 2.553523 1_555
Cl21 Zr15 2.525603 1_555
Cl21 Zr7 2.553523 1_555
Cl22 Zr12 2.544938 1_555
Cl22 Zr8 2.565083 1_555
Cl23 Zr13 2.544938 1_555
Cl23 Zr9 2.565083 1_555
Cl24 Zr14 2.575066 1_555
Cl24 Zr10 2.604139 1_555
Cl24 Na0 2.931061 1_555
Cl25 Zr15 2.575066 1_555
Cl25 Zr11 2.604139 1_555
Cl25 Na1 2.931061 1_555
Cl26 Zr16 2.554062 1_555
Cl26 Zr8 2.591800 1_555
Cl26 Na0 2.880805 1_655
Cl27 Zr17 2.554062 1_555
Cl27 Zr9 2.591800 1_555
Cl27 Na1 2.880805 1_455
Cl28 Zr16 2.582631 1_556
Cl28 Zr11 2.599783 1_555
Cl28 Na1 2.950245 1_555
Cl29 Zr17 2.582631 1_555
Cl29 Zr10 2.599783 1_555
Cl29 Na0 2.950245 1_555
Cl30 Zr14 2.569750 1_555
Cl30 Zr13 2.581453 1_555
Cl30 Na2 2.792892 1_555
Cl31 Zr15 2.569750 1_555
Cl31 Zr12 2.581453 1_556
Cl31 Na3 2.792892 1_555
Cl32 Zr16 2.565344 1_555
Cl32 Zr12 2.576736 1_555
Cl32 Na2 2.903826 1_555
Cl33 Zr17 2.565344 1_555
Cl33 Zr13 2.576736 1_555
Cl33 Na3 2.903826 1_555
Cl34 Zr17 2.576167 1_555
Cl34 Zr14 2.603009 1_555
Cl34 Na0 2.971363 1_555
Cl35 Zr16 2.576167 1_556
Cl35 Zr15 2.603009 1_555
Cl35 Na1 2.971363 1_555
Cl36 Zr18 2.571384 1_555
Cl36 Zr21 2.609422 1_555
Cl36 Na2 3.026427 1_555
Cl37 Zr19 2.571384 1_556
Cl37 Zr20 2.609422 1_555
Cl37 Na3 3.026427 1_555
Cl38 Zr19 2.568058 1_555
Cl38 Zr22 2.583422 1_555
Cl38 Na0 2.881557 1_555
Cl39 Zr18 2.568058 1_555
Cl39 Zr23 2.583422 1_555
Cl39 Na1 2.881557 1_555
Cl40 Zr20 2.553897 1_555
Cl40 Zr22 2.582751 1_556
Cl40 Na1 2.882281 1_455
Cl41 Zr21 2.553897 1_555
Cl41 Zr23 2.582751 1_555
Cl41 Na0 2.882281 1_655
Cl42 Zr19 2.581755 1_556
Cl42 Zr1 2.604380 1_565
Cl42 Na3 2.987839 1_555
Cl43 Zr18 2.581755 1_555
Cl43 Zr0 2.604380 1_565
Cl43 Na2 2.987839 1_555
Cl44 Zr19 2.553116 1_555
Cl44 Zr2 2.589692 1_565
Cl44 Na2 2.942217 1_555
Cl45 Zr18 2.553116 1_555
Cl45 Zr3 2.589692 1_565
Cl45 Na3 2.942217 1_555
