# generated using pymatgen
data_Cu2H3ClO3
_symmetry_space_group_name_H-M   'P 1'
_cell_length_a   6.08212100
_cell_length_b   6.95305600
_cell_length_c   9.18649900
_cell_angle_alpha   90.00000000
_cell_angle_beta   90.00000000
_cell_angle_gamma   90.00000000
_symmetry_Int_Tables_number   1
_chemical_formula_structural   Cu2H3ClO3
_chemical_formula_sum   'Cu8 H12 Cl4 O12'
_cell_volume   388.49086857
_cell_formula_units_Z   4
loop_
 _symmetry_equiv_pos_site_id
 _symmetry_equiv_pos_as_xyz
  1  'x, y, z'
loop_
 _atom_site_type_symbol
 _atom_site_label
 _atom_site_symmetry_multiplicity
 _atom_site_fract_x
 _atom_site_fract_y
 _atom_site_fract_z
 _atom_site_occupancy
  Cu  Cu0  1  0.00000000  0.00000000  0.00000000  1
  Cu  Cu1  1  0.50000000  0.50000000  0.50000000  1
  Cu  Cu2  1  0.00000000  0.50000000  0.00000000  1
  Cu  Cu3  1  0.50000000  0.00000000  0.50000000  1
  Cu  Cu4  1  0.18473100  0.25000000  0.25697800  1
  Cu  Cu5  1  0.68473100  0.25000000  0.24302200  1
  Cu  Cu6  1  0.81526900  0.75000000  0.74302200  1
  Cu  Cu7  1  0.31526900  0.75000000  0.75697800  1
  H  H0  1  0.70688400  0.75000000  0.04647000  1
  H  H1  1  0.20688400  0.75000000  0.45353000  1
  H  H2  1  0.29311600  0.25000000  0.95353000  1
  H  H3  1  0.79311600  0.25000000  0.54647000  1
  H  H4  1  0.41994700  0.54759600  0.22754700  1
  H  H5  1  0.91994700  0.95240400  0.27245300  1
  H  H6  1  0.58005300  0.04759600  0.77245300  1
  H  H7  1  0.08005300  0.45240400  0.72754700  1
  H  H8  1  0.58005300  0.45240400  0.77245300  1
  H  H9  1  0.08005300  0.04759600  0.72754700  1
  H  H10  1  0.41994700  0.95240400  0.22754700  1
  H  H11  1  0.91994700  0.54759600  0.27245300  1
  Cl  Cl0  1  0.36951200  0.75000000  0.06848800  1
  Cl  Cl1  1  0.86951200  0.75000000  0.43151200  1
  Cl  Cl2  1  0.63048800  0.25000000  0.93151200  1
  Cl  Cl3  1  0.13048800  0.25000000  0.56848800  1
  O  O0  1  0.14544600  0.25000000  0.99933500  1
  O  O1  1  0.64544600  0.25000000  0.50066500  1
  O  O2  1  0.85455400  0.75000000  0.00066500  1
  O  O3  1  0.35455400  0.75000000  0.49933500  1
  O  O4  1  0.43349600  0.06582800  0.29366400  1
  O  O5  1  0.93349600  0.43417200  0.20633600  1
  O  O6  1  0.56650400  0.56582800  0.70633600  1
  O  O7  1  0.06650400  0.93417200  0.79366400  1
  O  O8  1  0.56650400  0.93417200  0.70633600  1
  O  O9  1  0.06650400  0.56582800  0.79366400  1
  O  O10  1  0.43349600  0.43417200  0.29366400  1
  O  O11  1  0.93349600  0.06582800  0.20633600  1
loop_
_geom_bond_atom_site_label_1
_geom_bond_atom_site_label_2
_geom_bond_distance
_geom_bond_site_symmetry_2
Cu0 O0 1.950424 1_554
Cu0 O2 1.950424 1_445
Cu0 O11 1.991493 1_455
Cu0 O7 1.991493 1_544
Cu1 O3 1.950424 1_555
Cu1 O1 1.950424 1_555
Cu1 O6 1.991493 1_555
Cu1 O10 1.991493 1_555
Cu2 O0 1.950424 1_554
Cu2 O2 1.950424 1_455
Cu2 O5 1.991493 1_455
Cu2 O9 1.991493 1_554
Cu3 O3 1.950424 1_545
Cu3 O1 1.950424 1_555
Cu3 O8 1.991493 1_545
Cu3 O4 1.991493 1_555
Cu4 O10 2.010631 1_555
Cu4 O4 2.010631 1_555
Cu4 O5 2.047235 1_455
Cu4 O11 2.047235 1_455
Cu4 O0 2.378867 1_554
Cu5 O5 2.010631 1_555
Cu5 O11 2.010631 1_555
Cu5 O4 2.047235 1_555
Cu5 O10 2.047235 1_555
Cu5 O1 2.378867 1_555
Cu6 O8 2.010631 1_555
Cu6 O6 2.010631 1_555
Cu6 O9 2.047235 1_655
Cu6 O7 2.047235 1_655
Cu6 O2 2.378867 1_556
Cu7 O9 2.010631 1_555
Cu7 O7 2.010631 1_555
Cu7 O6 2.047235 1_555
Cu7 O8 2.047235 1_555
Cu7 O3 2.378867 1_555
H0 O2 0.991832 1_555
H1 O3 0.991832 1_555
H2 O0 0.991832 1_555
H3 O1 0.991832 1_555
H4 O10 0.998831 1_555
H5 O11 0.998831 1_565
H6 O8 0.998831 1_545
H7 O9 0.998831 1_555
H8 O6 0.998831 1_555
H9 O7 0.998831 1_545
H10 O4 0.998831 1_565
H11 O5 0.998831 1_555
Cl0 H10 2.051769 1_555
Cl0 H4 2.051769 1_555
Cl0 H0 2.061882 1_555
Cl0 Cu7 2.880641 1_554
Cl0 Cu0 2.910033 1_565
Cl0 Cu2 2.910033 1_555
Cl1 H5 2.051769 1_555
Cl1 H11 2.051769 1_555
Cl1 H1 2.061882 1_655
Cl1 Cu6 2.880641 1_555
Cl1 Cu3 2.910033 1_565
Cl1 Cu1 2.910033 1_555
Cl2 H8 2.051769 1_555
Cl2 H6 2.051769 1_555
Cl2 H2 2.061882 1_555
Cl2 Cu5 2.880641 1_556
Cl2 Cu2 2.910033 1_656
Cl2 Cu0 2.910033 1_656
Cl3 H7 2.051769 1_555
Cl3 H9 2.051769 1_555
Cl3 H3 2.061882 1_455
Cl3 Cu4 2.880641 1_555
Cl3 Cu3 2.910033 1_555
Cl3 Cu1 2.910033 1_555
