# generated using pymatgen
data_K3CaV5O15
_symmetry_space_group_name_H-M   'P 1'
_cell_length_a   15.45800982
_cell_length_b   15.45800982
_cell_length_c   7.96624300
_cell_angle_alpha   90.00000000
_cell_angle_beta   90.00000000
_cell_angle_gamma   117.65588773
_symmetry_Int_Tables_number   1
_chemical_formula_structural   K3CaV5O15
_chemical_formula_sum   'K12 Ca4 V20 O60'
_cell_volume   1686.05788340
_cell_formula_units_Z   4
loop_
 _symmetry_equiv_pos_site_id
 _symmetry_equiv_pos_as_xyz
  1  'x, y, z'
loop_
 _atom_site_type_symbol
 _atom_site_label
 _atom_site_symmetry_multiplicity
 _atom_site_fract_x
 _atom_site_fract_y
 _atom_site_fract_z
 _atom_site_occupancy
  K  K0  1  0.37989900  0.87989900  0.79863700  1
  K  K1  1  0.12010100  0.62010100  0.79863700  1
  K  K2  1  0.10024100  0.89976000  0.92189100  1
  K  K3  1  0.83651100  0.66348900  0.50000000  1
  K  K4  1  0.87989900  0.37989900  0.20136300  1
  K  K5  1  0.39976000  0.60024000  0.92189100  1
  K  K6  1  0.33651100  0.16348900  0.50000000  1
  K  K7  1  0.89976000  0.10024000  0.07810900  1
  K  K8  1  0.60024000  0.39976000  0.07810900  1
  K  K9  1  0.16348900  0.33651100  0.50000000  1
  K  K10  1  0.66348900  0.83651100  0.50000000  1
  K  K11  1  0.62010100  0.12010100  0.20136300  1
  Ca  Ca0  1  0.65506700  0.84493300  0.00000000  1
  Ca  Ca1  1  0.34493300  0.15506700  0.00000000  1
  Ca  Ca2  1  0.84493300  0.65506700  0.00000000  1
  Ca  Ca3  1  0.15506700  0.34493300  0.00000000  1
  V  V0  1  0.34500100  0.65499900  0.51727600  1
  V  V1  1  0.02166000  0.65591600  0.22139400  1
  V  V2  1  0.88764300  0.89126500  0.72384500  1
  V  V3  1  0.34408400  0.97834000  0.22139400  1
  V  V4  1  0.60873500  0.61235700  0.27615500  1
  V  V5  1  0.61235700  0.60873500  0.72384500  1
  V  V6  1  0.89126500  0.88764300  0.27615500  1
  V  V7  1  0.52166000  0.15591600  0.77860600  1
  V  V8  1  0.39126500  0.38764300  0.72384500  1
  V  V9  1  0.97834000  0.34408400  0.77860600  1
  V  V10  1  0.65499900  0.34500100  0.48272400  1
  V  V11  1  0.10873500  0.11235700  0.72384500  1
  V  V12  1  0.65591600  0.02166000  0.77860600  1
  V  V13  1  0.11235700  0.10873500  0.27615500  1
  V  V14  1  0.47834000  0.84408400  0.22139400  1
  V  V15  1  0.38764300  0.39126500  0.27615500  1
  V  V16  1  0.15591600  0.52166000  0.22139400  1
  V  V17  1  0.84500100  0.15499900  0.48272400  1
  V  V18  1  0.84408400  0.47834000  0.77860600  1
  V  V19  1  0.15499900  0.84500100  0.51727600  1
  O  O0  1  0.90644100  0.09355900  0.44108000  1
  O  O1  1  0.59355900  0.40644100  0.44108000  1
  O  O2  1  0.29866600  0.39908600  0.81430500  1
  O  O3  1  0.90952900  0.59992000  0.75108700  1
  O  O4  1  0.26663000  0.92241900  0.39916500  1
  O  O5  1  0.86509900  0.86509900  0.50000000  1
  O  O6  1  0.09992000  0.40952900  0.75108700  1
  O  O7  1  0.23337000  0.57758100  0.39916500  1
  O  O8  1  0.78238700  0.46556400  0.95793300  1
  O  O9  1  0.71761300  0.03443600  0.95793300  1
  O  O10  1  0.78803300  0.89428200  0.80112400  1
  O  O11  1  0.49441100  0.50558900  0.22519800  1
  O  O12  1  0.10571800  0.21196700  0.80112400  1
  O  O13  1  0.31322200  0.68677800  0.70001800  1
  O  O14  1  0.63490100  0.63490100  0.50000000  1
  O  O15  1  0.40008000  0.09047100  0.75108700  1
  O  O16  1  0.42241900  0.76663000  0.39916500  1
  O  O17  1  0.89428200  0.78803300  0.19887600  1
  O  O18  1  0.40644100  0.59355900  0.55892000  1
  O  O19  1  0.20133400  0.10091400  0.81430500  1
  O  O20  1  0.60571800  0.71196700  0.19887600  1
  O  O21  1  0.76663000  0.42241900  0.60083500  1
  O  O22  1  0.09047100  0.40008000  0.24891300  1
  O  O23  1  0.21196700  0.10571800  0.19887600  1
  O  O24  1  0.71196700  0.60571800  0.80112400  1
  O  O25  1  0.93029700  0.43029700  0.81087800  1
  O  O26  1  0.70133400  0.60091400  0.18569500  1
  O  O27  1  0.46556400  0.78238700  0.04206700  1
  O  O28  1  0.79866600  0.89908600  0.18569500  1
  O  O29  1  0.28238700  0.96556400  0.04206700  1
  O  O30  1  0.59992000  0.90952900  0.24891300  1
  O  O31  1  0.92241900  0.26663000  0.60083500  1
  O  O32  1  0.60091400  0.70133400  0.81430500  1
  O  O33  1  0.06970300  0.56970300  0.18912200  1
  O  O34  1  0.99441100  0.00558900  0.77480200  1
  O  O35  1  0.68677800  0.31322200  0.29998200  1
  O  O36  1  0.89908600  0.79866600  0.81430500  1
  O  O37  1  0.18677800  0.81322200  0.70001800  1
  O  O38  1  0.00558900  0.99441100  0.22519800  1
  O  O39  1  0.36509900  0.36509900  0.50000000  1
  O  O40  1  0.40952900  0.09992000  0.24891300  1
  O  O41  1  0.50558900  0.49441100  0.77480200  1
  O  O42  1  0.03443600  0.71761300  0.04206700  1
  O  O43  1  0.13490100  0.13490100  0.50000000  1
  O  O44  1  0.57758100  0.23337000  0.60083500  1
  O  O45  1  0.81322200  0.18677800  0.29998200  1
  O  O46  1  0.53443600  0.21761300  0.95793300  1
  O  O47  1  0.59047100  0.90008000  0.75108700  1
  O  O48  1  0.07758100  0.73337000  0.39916500  1
  O  O49  1  0.56970300  0.06970300  0.81087800  1
  O  O50  1  0.39908600  0.29866600  0.18569500  1
  O  O51  1  0.28803300  0.39428200  0.19887600  1
  O  O52  1  0.43029700  0.93029700  0.18912200  1
  O  O53  1  0.39428200  0.28803300  0.80112400  1
  O  O54  1  0.96556400  0.28238700  0.95793300  1
  O  O55  1  0.90008000  0.59047100  0.24891300  1
  O  O56  1  0.21761300  0.53443600  0.04206700  1
  O  O57  1  0.73337000  0.07758100  0.60083500  1
  O  O58  1  0.09355900  0.90644100  0.55892000  1
  O  O59  1  0.10091400  0.20133400  0.18569500  1
loop_
_geom_bond_atom_site_label_1
_geom_bond_atom_site_label_2
_geom_bond_distance
_geom_bond_site_symmetry_2
K0 O37 2.781187 1_555
K0 O13 2.781187 1_555
K0 O49 3.038891 1_565
K0 O29 3.104699 1_556
K0 O27 3.104699 1_556
K0 O47 3.145368 1_555
K0 O15 3.145368 1_565
K0 O52 3.213545 1_556
K1 O37 2.781187 1_555
K1 O13 2.781187 1_555
K1 O25 3.038891 1_455
K1 O42 3.104699 1_556
K1 O56 3.104699 1_556
K1 O6 3.145368 1_555
K1 O3 3.145368 1_455
K1 O33 3.213545 1_556
K2 O29 2.687034 1_556
K2 O42 2.687046 1_556
K2 O19 2.886931 1_565
K2 O36 2.886945 1_455
K2 O37 2.892071 1_555
K2 O58 2.896912 1_555
K2 O34 3.034765 1_465
K3 O3 2.696313 1_555
K3 O55 2.696313 1_555
K3 O5 2.937566 1_555
K3 O14 2.937566 1_555
K3 O24 2.943170 1_555
K3 O17 2.943170 1_555
K3 O36 3.113642 1_555
K3 O26 3.113642 1_555
K4 O45 2.781187 1_555
K4 O35 2.781187 1_555
K4 O33 3.038891 1_655
K4 O54 3.104699 1_554
K4 O8 3.104699 1_554
K4 O55 3.145368 1_555
K4 O22 3.145368 1_655
K4 O25 3.213545 1_554
K5 O27 2.687048 1_556
K5 O56 2.687048 1_556
K5 O32 2.886932 1_555
K5 O2 2.886932 1_555
K5 O13 2.892081 1_555
K5 O18 2.896911 1_555
K5 O41 3.034753 1_555
K6 O15 2.696313 1_555
K6 O40 2.696313 1_555
K6 O39 2.937566 1_555
K6 O43 2.937566 1_555
K6 O53 2.943170 1_555
K6 O23 2.943170 1_555
K6 O50 3.113642 1_555
K6 O19 3.113642 1_555
K7 O54 2.687048 1_554
K7 O9 2.687048 1_554
K7 O59 2.886932 1_655
K7 O28 2.886932 1_545
K7 O45 2.892081 1_555
K7 O0 2.896911 1_555
K7 O38 3.034753 1_645
K8 O8 2.687048 1_554
K8 O46 2.687048 1_554
K8 O26 2.886932 1_555
K8 O50 2.886932 1_555
K8 O35 2.892081 1_555
K8 O1 2.896911 1_555
K8 O11 3.034753 1_555
K9 O6 2.696313 1_555
K9 O22 2.696313 1_555
K9 O39 2.937566 1_555
K9 O43 2.937566 1_555
K9 O51 2.943170 1_555
K9 O12 2.943170 1_555
K9 O2 3.113642 1_555
K9 O59 3.113642 1_555
K10 O30 2.696313 1_555
K10 O47 2.696313 1_555
K10 O5 2.937566 1_555
K10 O14 2.937566 1_555
K10 O10 2.943170 1_555
K10 O20 2.943170 1_555
K10 O32 3.113642 1_555
K10 O28 3.113642 1_555
K11 O45 2.781187 1_555
K11 O35 2.781187 1_555
K11 O52 3.038891 1_545
K11 O9 3.104699 1_554
K11 O46 3.104699 1_554
K11 O40 3.145368 1_555
K11 O30 3.145368 1_545
K11 O49 3.213545 1_554
Ca0 O20 2.420950 1_555
Ca0 O10 2.420950 1_554
Ca0 O32 2.468074 1_554
Ca0 O28 2.468074 1_555
Ca0 O30 2.538865 1_555
Ca0 O47 2.538865 1_554
Ca0 O27 2.645548 1_555
Ca0 O9 2.645548 1_564
Ca1 O23 2.420950 1_555
Ca1 O53 2.420950 1_554
Ca1 O50 2.468074 1_555
Ca1 O19 2.468074 1_554
Ca1 O40 2.538865 1_555
Ca1 O15 2.538865 1_554
Ca1 O29 2.645548 1_545
Ca1 O46 2.645548 1_554
Ca2 O24 2.420950 1_554
Ca2 O17 2.420950 1_555
Ca2 O26 2.468074 1_555
Ca2 O36 2.468074 1_554
Ca2 O3 2.538865 1_554
Ca2 O55 2.538865 1_555
Ca2 O8 2.645548 1_554
Ca2 O42 2.645548 1_655
Ca3 O12 2.420950 1_554
Ca3 O51 2.420950 1_555
Ca3 O59 2.468074 1_555
Ca3 O2 2.468074 1_554
Ca3 O22 2.538865 1_555
Ca3 O6 2.538865 1_554
Ca3 O54 2.645548 1_454
Ca3 O56 2.645548 1_555
O0 V17 1.658740 1_555
O1 V10 1.658740 1_555
O2 V8 1.683607 1_555
O3 V18 1.684810 1_555
O4 V3 1.795961 1_555
O4 V19 1.837956 1_555
O5 V2 1.825926 1_555
O5 V6 1.825926 1_555
O6 V9 1.684810 1_455
O7 V16 1.795961 1_555
O7 V0 1.837956 1_555
O8 V18 1.677651 1_555
O9 V12 1.677651 1_555
O10 V2 1.678907 1_555
O11 V4 1.817732 1_555
O11 V15 1.817732 1_555
O12 V11 1.678907 1_555
O13 V0 1.681045 1_555
O14 V5 1.825926 1_555
O14 V4 1.825926 1_555
O15 V7 1.684810 1_555
O16 V14 1.795961 1_555
O16 V0 1.837956 1_555
O17 V6 1.678907 1_555
O18 V0 1.658740 1_555
O19 V11 1.683607 1_555
O20 V4 1.678907 1_555
O21 V18 1.795961 1_555
O21 V10 1.837956 1_555
O22 V16 1.684810 1_555
O23 V13 1.678907 1_555
O24 V5 1.678907 1_555
O25 V18 1.820009 1_555
O25 V9 1.820009 1_555
O26 V4 1.683607 1_555
O27 V14 1.677651 1_555
O28 V6 1.683607 1_555
O29 V3 1.677651 1_555
O30 V14 1.684810 1_555
O31 V9 1.795961 1_555
O31 V17 1.837956 1_555
O32 V5 1.683607 1_555
O33 V1 1.820009 1_555
O33 V16 1.820009 1_555
O34 V2 1.817732 1_545
O34 V11 1.817732 1_655
O35 V10 1.681045 1_555
O36 V2 1.683607 1_555
O37 V19 1.681045 1_555
O38 V6 1.817732 1_455
O38 V13 1.817732 1_565
O39 V8 1.825926 1_555
O39 V15 1.825926 1_555
O40 V3 1.684810 1_545
O41 V5 1.817732 1_555
O41 V8 1.817732 1_555
O42 V1 1.677651 1_555
O43 V11 1.825926 1_555
O43 V13 1.825926 1_555
O44 V7 1.795961 1_555
O44 V10 1.837956 1_555
O45 V17 1.681045 1_555
O46 V7 1.677651 1_555
O47 V12 1.684810 1_565
O48 V1 1.795961 1_555
O48 V19 1.837956 1_555
O49 V12 1.820009 1_555
O49 V7 1.820009 1_555
O50 V15 1.683607 1_555
O51 V15 1.678907 1_555
O52 V14 1.820009 1_555
O52 V3 1.820009 1_555
O53 V8 1.678907 1_555
O54 V9 1.677651 1_555
O55 V1 1.684810 1_655
O56 V16 1.677651 1_555
O57 V12 1.795961 1_555
O57 V17 1.837956 1_555
O58 V19 1.658740 1_555
O59 V13 1.683607 1_555
