# generated using pymatgen
data_KSbN(OF)3
_symmetry_space_group_name_H-M   'P 1'
_cell_length_a   8.01511200
_cell_length_b   8.07937700
_cell_length_c   18.42166800
_cell_angle_alpha   90.00000000
_cell_angle_beta   90.00000000
_cell_angle_gamma   90.00000000
_symmetry_Int_Tables_number   1
_chemical_formula_structural   KSbN(OF)3
_chemical_formula_sum   'K8 Sb8 N8 O24 F24'
_cell_volume   1192.93400953
_cell_formula_units_Z   8
loop_
 _symmetry_equiv_pos_site_id
 _symmetry_equiv_pos_as_xyz
  1  'x, y, z'
loop_
 _atom_site_type_symbol
 _atom_site_label
 _atom_site_symmetry_multiplicity
 _atom_site_fract_x
 _atom_site_fract_y
 _atom_site_fract_z
 _atom_site_occupancy
  K  K0  1  0.42720200  0.07557600  0.18402900  1
  K  K1  1  0.92720200  0.92442400  0.31597100  1
  K  K2  1  0.57279800  0.42442400  0.68402900  1
  K  K3  1  0.07279800  0.07557600  0.68402900  1
  K  K4  1  0.07279800  0.57557600  0.81597100  1
  K  K5  1  0.57279800  0.92442400  0.81597100  1
  K  K6  1  0.92720200  0.42442400  0.18402900  1
  K  K7  1  0.42720200  0.57557600  0.31597100  1
  Sb  Sb0  1  0.57250900  0.44593700  0.89225900  1
  Sb  Sb1  1  0.92749100  0.44593700  0.39225900  1
  Sb  Sb2  1  0.92749100  0.94593700  0.10774100  1
  Sb  Sb3  1  0.57250900  0.94593700  0.60774100  1
  Sb  Sb4  1  0.07250900  0.05406300  0.89225900  1
  Sb  Sb5  1  0.42749100  0.05406300  0.39225900  1
  Sb  Sb6  1  0.42749100  0.55406300  0.10774100  1
  Sb  Sb7  1  0.07250900  0.55406300  0.60774100  1
  N  N0  1  0.86784000  0.84987900  0.49669100  1
  N  N1  1  0.36784000  0.15012100  0.00330900  1
  N  N2  1  0.13216000  0.65012100  0.99669100  1
  N  N3  1  0.86784000  0.34987900  0.00330900  1
  N  N4  1  0.13216000  0.15012100  0.50330900  1
  N  N5  1  0.63216000  0.34987900  0.50330900  1
  N  N6  1  0.36784000  0.65012100  0.49669100  1
  N  N7  1  0.63216000  0.84987900  0.99669100  1
  O  O0  1  0.02890900  0.23592800  0.53863700  1
  O  O1  1  0.71112500  0.46658700  0.53213500  1
  O  O2  1  0.47109100  0.23592800  0.03863700  1
  O  O3  1  0.47109100  0.73592800  0.46136300  1
  O  O4  1  0.28887500  0.53341300  0.46786500  1
  O  O5  1  0.97109100  0.26407200  0.03863700  1
  O  O6  1  0.52890900  0.76407200  0.96136300  1
  O  O7  1  0.65502300  0.31755400  0.43502800  1
  O  O8  1  0.21112500  0.53341300  0.96786500  1
  O  O9  1  0.97109100  0.76407200  0.46136300  1
  O  O10  1  0.84497700  0.31755400  0.93502800  1
  O  O11  1  0.52890900  0.26407200  0.53863700  1
  O  O12  1  0.15502300  0.18244600  0.43502800  1
  O  O13  1  0.15502300  0.68244600  0.06497200  1
  O  O14  1  0.34497700  0.68244600  0.56497200  1
  O  O15  1  0.02890900  0.73592800  0.96136300  1
  O  O16  1  0.84497700  0.81755400  0.56497200  1
  O  O17  1  0.78887500  0.96658700  0.46786500  1
  O  O18  1  0.65502300  0.81755400  0.06497200  1
  O  O19  1  0.78887500  0.46658700  0.03213500  1
  O  O20  1  0.71112500  0.96658700  0.96786500  1
  O  O21  1  0.21112500  0.03341300  0.53213500  1
  O  O22  1  0.34497700  0.18244600  0.93502800  1
  O  O23  1  0.28887500  0.03341300  0.03213500  1
  F  F0  1  0.73504900  0.58892000  0.84075300  1
  F  F1  1  0.23504900  0.91108000  0.84075300  1
  F  F2  1  0.88553500  0.26967200  0.31992300  1
  F  F3  1  0.26495100  0.91108000  0.34075300  1
  F  F4  1  0.58818000  0.96403800  0.31837800  1
  F  F5  1  0.61446500  0.76967200  0.68007700  1
  F  F6  1  0.11446500  0.73032800  0.68007700  1
  F  F7  1  0.38553500  0.23032800  0.31992300  1
  F  F8  1  0.11446500  0.23032800  0.81992300  1
  F  F9  1  0.61446500  0.26967200  0.81992300  1
  F  F10  1  0.73504900  0.08892000  0.65924700  1
  F  F11  1  0.76495100  0.08892000  0.15924700  1
  F  F12  1  0.08818000  0.53596200  0.31837800  1
  F  F13  1  0.88553500  0.76967200  0.18007700  1
  F  F14  1  0.91182000  0.46403800  0.68162200  1
  F  F15  1  0.38553500  0.73032800  0.18007700  1
  F  F16  1  0.76495100  0.58892000  0.34075300  1
  F  F17  1  0.26495100  0.41108000  0.15924700  1
  F  F18  1  0.08818000  0.03596200  0.18162200  1
  F  F19  1  0.91182000  0.96403800  0.81837800  1
  F  F20  1  0.41182000  0.03596200  0.68162200  1
  F  F21  1  0.23504900  0.41108000  0.65924700  1
  F  F22  1  0.41182000  0.53596200  0.81837800  1
  F  F23  1  0.58818000  0.46403800  0.18162200  1
loop_
_geom_bond_atom_site_label_1
_geom_bond_atom_site_label_2
_geom_bond_distance
_geom_bond_site_symmetry_2
K0 O2 2.995966 1_555
K0 O23 3.029004 1_555
K1 O9 2.995966 1_555
K1 O17 3.029004 1_555
K2 O11 2.995966 1_555
K2 O1 3.029004 1_555
K3 O0 2.995966 1_555
K3 O21 3.029004 1_555
K4 O15 2.995966 1_555
K4 O8 3.029004 1_555
K5 O6 2.995966 1_555
K5 O20 3.029004 1_555
K6 O5 2.995966 1_555
K6 O19 3.029004 1_555
K7 O3 2.995966 1_555
K7 O4 3.029004 1_555
N0 O17 1.253666 1_555
N0 O9 1.260567 1_555
N0 O16 1.297680 1_555
N1 O23 1.253666 1_555
N1 O2 1.260567 1_555
N1 O22 1.297680 1_554
N2 O8 1.253666 1_555
N2 O15 1.260567 1_555
N2 O13 1.297680 1_556
N3 O19 1.253666 1_555
N3 O5 1.260567 1_555
N3 O10 1.297680 1_554
N4 O21 1.253666 1_555
N4 O0 1.260567 1_555
N4 O12 1.297680 1_555
N5 O1 1.253666 1_555
N5 O11 1.260567 1_555
N5 O7 1.297680 1_555
N6 O4 1.253666 1_555
N6 O3 1.260567 1_555
N6 O14 1.297680 1_555
N7 O20 1.253666 1_555
N7 O6 1.260567 1_555
N7 O18 1.297680 1_556
O7 Sb1 2.542813 1_555
O10 Sb0 2.542813 1_555
O12 Sb5 2.542813 1_555
O13 Sb6 2.542813 1_555
O14 Sb7 2.542813 1_555
O16 Sb3 2.542813 1_555
O18 Sb2 2.542813 1_555
O22 Sb4 2.542813 1_555
F0 Sb0 1.982931 1_555
F0 K4 2.747437 1_655
F0 K5 3.040939 1_555
F1 Sb4 1.982931 1_565
F1 K5 2.747437 1_555
F1 K4 3.040939 1_555
F2 Sb1 1.979108 1_555
F2 K1 2.810253 1_545
F2 K6 2.818114 1_555
F3 Sb5 1.982931 1_565
F3 K1 2.747437 1_455
F3 K7 3.040939 1_555
F4 Sb5 2.010018 1_565
F4 K1 2.736443 1_555
F4 K0 2.932940 1_565
F5 Sb3 1.979108 1_555
F5 K2 2.810253 1_555
F5 K5 2.818114 1_555
F6 Sb7 1.979108 1_555
F6 K3 2.810253 1_565
F6 K4 2.818114 1_555
F7 Sb5 1.979108 1_555
F7 K7 2.810253 1_555
F7 K0 2.818114 1_555
F8 Sb4 1.979108 1_555
F8 K4 2.810253 1_555
F8 K3 2.818114 1_555
F9 Sb0 1.979108 1_555
F9 K5 2.810253 1_545
F9 K2 2.818114 1_555
F10 Sb3 1.982931 1_545
F10 K3 2.747437 1_655
F10 K2 3.040939 1_555
F11 Sb2 1.982931 1_545
F11 K0 2.747437 1_555
F11 K6 3.040939 1_555
F12 Sb1 2.010018 1_455
F12 K7 2.736443 1_555
F12 K6 2.932940 1_455
F13 Sb2 1.979108 1_555
F13 K6 2.810253 1_555
F13 K1 2.818114 1_555
F14 Sb7 2.010018 1_655
F14 K2 2.736443 1_555
F14 K4 2.932940 1_655
F15 Sb6 1.979108 1_555
F15 K0 2.810253 1_565
F15 K7 2.818114 1_555
F16 Sb1 1.982931 1_555
F16 K7 2.747437 1_555
F16 K1 3.040939 1_555
F17 Sb6 1.982931 1_555
F17 K6 2.747437 1_455
F17 K0 3.040939 1_555
F18 Sb2 2.010018 1_445
F18 K0 2.736443 1_555
F18 K1 2.932940 1_445
F19 Sb4 2.010018 1_665
F19 K5 2.736443 1_555
F19 K3 2.932940 1_665
F20 Sb3 2.010018 1_545
F20 K3 2.736443 1_555
F20 K5 2.932940 1_545
F21 Sb7 1.982931 1_555
F21 K2 2.747437 1_555
F21 K3 3.040939 1_555
F22 Sb0 2.010018 1_555
F22 K4 2.736443 1_555
F22 K2 2.932940 1_555
F23 Sb6 2.010018 1_555
F23 K6 2.736443 1_555
F23 K7 2.932940 1_555
