# generated using pymatgen
data_Sr2FeReO6
_symmetry_space_group_name_H-M   'P 1'
_cell_length_a   7.99800789
_cell_length_b   7.95040452
_cell_length_c   9.92211507
_cell_angle_alpha   66.28429069
_cell_angle_beta   66.12906654
_cell_angle_gamma   89.77522065
_symmetry_Int_Tables_number   1
_chemical_formula_structural   Sr2FeReO6
_chemical_formula_sum   'Sr8 Fe4 Re4 O24'
_cell_volume   518.63653877
_cell_formula_units_Z   4
loop_
 _symmetry_equiv_pos_site_id
 _symmetry_equiv_pos_as_xyz
  1  'x, y, z'
loop_
 _atom_site_type_symbol
 _atom_site_label
 _atom_site_symmetry_multiplicity
 _atom_site_fract_x
 _atom_site_fract_y
 _atom_site_fract_z
 _atom_site_occupancy
  Sr  Sr0  1  0.12702700  0.12191100  0.25014400  1
  Sr  Sr1  1  0.87319900  0.37473300  0.74978600  1
  Sr  Sr2  1  0.37691300  0.87550900  0.74979400  1
  Sr  Sr3  1  0.62274100  0.62790500  0.25014400  1
  Sr  Sr4  1  0.62780300  0.12325800  0.25002600  1
  Sr  Sr5  1  0.37806500  0.37480400  0.75013500  1
  Sr  Sr6  1  0.87191300  0.87500000  0.75015300  1
  Sr  Sr7  1  0.12230000  0.62673000  0.24999100  1
  Fe  Fe0  1  0.25010700  0.25007200  0.49973700  1
  Fe  Fe1  1  0.99987100  0.49995400  0.00031600  1
  Fe  Fe2  1  0.50004900  0.99999200  0.99992200  1
  Fe  Fe3  1  0.74986200  0.75000000  0.50015300  1
  Re  Re0  1  0.24872100  0.74868800  0.50275600  1
  Re  Re1  1  0.00148800  0.00134900  0.99699000  1
  Re  Re2  1  0.49860200  0.49860600  0.00297400  1
  Re  Re3  1  0.75126600  0.25139800  0.49704800  1
  O  O0  1  0.36858800  0.86829800  0.26301800  1
  O  O1  1  0.12254200  0.12238200  0.75483500  1
  O  O2  1  0.61851400  0.61832200  0.76313300  1
  O  O3  1  0.87279500  0.37258200  0.25452100  1
  O  O4  1  0.37731100  0.37750500  0.24526900  1
  O  O5  1  0.12741100  0.62763600  0.74520400  1
  O  O6  1  0.63125500  0.13149400  0.73731200  1
  O  O7  1  0.88159700  0.88192600  0.23655600  1
  O  O8  1  0.54577800  0.25793500  0.00279000  1
  O  O9  1  0.29465600  0.51140100  0.50353800  1
  O  O10  1  0.79663500  0.00894700  0.49718400  1
  O  O11  1  0.04594600  0.76489300  0.99719300  1
  O  O12  1  0.76333200  0.95720700  0.99729100  1
  O  O13  1  0.51619300  0.20757900  0.49728100  1
  O  O14  1  0.01211800  0.70231800  0.50235900  1
  O  O15  1  0.26329100  0.45321500  0.00327200  1
  O  O16  1  0.23961600  0.04564100  0.99724000  1
  O  O17  1  0.98632800  0.29512300  0.49723100  1
  O  O18  1  0.48555900  0.79549700  0.50226100  1
  O  O19  1  0.73358500  0.54356900  0.00319700  1
  O  O20  1  0.45160300  0.73938100  0.00249800  1
  O  O21  1  0.20199000  0.98517700  0.50313200  1
  O  O22  1  0.70637200  0.49415300  0.49681900  1
  O  O23  1  0.95705300  0.23791700  0.99679700  1
loop_
_geom_bond_atom_site_label_1
_geom_bond_atom_site_label_2
_geom_bond_distance
_geom_bond_site_symmetry_2
Fe0 O4 2.075529 1_555
Fe0 O1 2.080667 1_555
Fe0 O21 2.126821 1_545
Fe0 O9 2.127159 1_555
Fe0 O13 2.145412 1_555
Fe0 O17 2.146889 1_455
Fe1 O3 2.073384 1_555
Fe1 O5 2.080781 1_654
Fe1 O11 2.125537 1_654
Fe1 O23 2.128949 1_554
Fe1 O19 2.147051 1_555
Fe1 O15 2.147743 1_655
Fe2 O20 2.097499 1_556
Fe2 O8 2.097953 1_566
Fe2 O16 2.121850 1_565
Fe2 O12 2.123101 1_555
Fe2 O6 2.141938 1_565
Fe2 O0 2.145901 1_556
Fe3 O10 2.080272 1_565
Fe3 O22 2.080525 1_555
Fe3 O18 2.136385 1_555
Fe3 O14 2.137299 1_655
Fe3 O2 2.144956 1_555
Fe3 O7 2.149988 1_555
O0 Re0 1.955386 1_555
O0 Sr3 2.785098 1_555
O0 Sr0 2.788643 1_565
O0 Sr7 2.832115 1_555
O0 Sr4 2.833751 1_565
O1 Re1 1.975099 1_555
O1 Sr2 2.821199 1_545
O1 Sr1 2.823714 1_455
O1 Sr6 2.840486 1_445
O1 Sr5 2.843593 1_555
O2 Re2 1.956226 1_556
O2 Sr1 2.806128 1_555
O2 Sr2 2.809033 1_555
O2 Sr5 2.809653 1_555
O2 Sr6 2.810385 1_555
O3 Re3 1.978134 1_555
O3 Sr4 2.818327 1_555
O3 Sr7 2.820096 1_655
O3 Sr0 2.841574 1_655
O3 Sr3 2.844245 1_555
O4 Re2 1.976241 1_555
O4 Sr3 2.829080 1_555
O4 Sr0 2.830769 1_555
O4 Sr7 2.837924 1_555
O4 Sr4 2.840761 1_555
O5 Re0 1.977489 1_555
O5 Sr6 2.830340 1_455
O5 Sr5 2.833826 1_555
O5 Sr2 2.836265 1_555
O5 Sr1 2.839454 1_455
O6 Re3 1.959676 1_555
O6 Sr5 2.795987 1_555
O6 Sr6 2.799675 1_545
O6 Sr1 2.813418 1_555
O6 Sr2 2.814468 1_545
O7 Re1 1.953984 1_664
O7 Sr4 2.788484 1_565
O7 Sr7 2.792836 1_655
O7 Sr0 2.821743 1_665
O7 Sr3 2.823294 1_555
O8 Re2 1.949405 1_555
O8 Sr4 2.603600 1_555
O8 Sr1 2.616318 1_554
O8 Sr0 3.106547 1_555
O8 Sr5 3.128121 1_554
O9 Re0 1.918102 1_555
O9 Sr5 2.605577 1_555
O9 Sr3 2.621238 1_555
O9 Sr1 3.120926 1_455
O9 Sr7 3.164054 1_555
O10 Re3 1.959608 1_555
O10 Sr0 2.608252 1_655
O10 Sr6 2.620028 1_545
O10 Sr4 3.088843 1_555
O10 Sr2 3.123438 1_545
O11 Re1 1.911238 1_565
O11 Sr2 2.613193 1_555
O11 Sr7 2.624733 1_556
O11 Sr6 3.120532 1_455
O11 Sr3 3.145895 1_456
O12 Re1 1.936784 1_665
O12 Sr6 2.599131 1_555
O12 Sr3 2.620937 1_556
O12 Sr1 3.088851 1_565
O12 Sr4 3.107730 1_566
O13 Re3 1.912376 1_555
O13 Sr4 2.609734 1_555
O13 Sr2 2.632812 1_545
O13 Sr3 3.105801 1_555
O13 Sr5 3.116198 1_555
O14 Re0 1.931217 1_555
O14 Sr1 2.591601 1_455
O14 Sr7 2.613086 1_555
O14 Sr6 3.107878 1_455
O14 Sr0 3.111748 1_565
O15 Re2 1.916300 1_555
O15 Sr0 2.607237 1_555
O15 Sr5 2.632231 1_554
O15 Sr7 3.104400 1_555
O15 Sr2 3.131328 1_554
O16 Re1 1.939357 1_555
O16 Sr5 2.598115 1_555
O16 Sr0 2.620347 1_556
O16 Sr2 3.088849 1_545
O16 Sr7 3.108590 1_546
O17 Re3 1.914093 1_555
O17 Sr7 2.609999 1_655
O17 Sr1 2.633430 1_555
O17 Sr0 3.105469 1_655
O17 Sr6 3.116797 1_545
O18 Re0 1.929551 1_555
O18 Sr2 2.591723 1_555
O18 Sr4 2.611709 1_565
O18 Sr5 3.109512 1_555
O18 Sr3 3.112092 1_555
O19 Re2 1.915514 1_555
O19 Sr3 2.607290 1_555
O19 Sr6 2.631352 1_554
O19 Sr4 3.105215 1_555
O19 Sr1 3.130738 1_554
O20 Re2 1.947877 1_555
O20 Sr7 2.604586 1_555
O20 Sr2 2.615217 1_554
O20 Sr3 3.107653 1_555
O20 Sr6 3.126789 1_554
O21 Re0 1.916715 1_555
O21 Sr6 2.607333 1_455
O21 Sr0 2.619187 1_565
O21 Sr2 3.122898 1_555
O21 Sr4 3.162265 1_565
O22 Re3 1.961002 1_555
O22 Sr3 2.606620 1_555
O22 Sr5 2.621467 1_555
O22 Sr7 3.087445 1_655
O22 Sr1 3.124957 1_555
O23 Re1 1.912111 1_655
O23 Sr1 2.611496 1_555
O23 Sr4 2.626756 1_556
O23 Sr5 3.119121 1_655
O23 Sr0 3.147805 1_656
