# generated using pymatgen
data_Ce3CuGeSe7
_symmetry_space_group_name_H-M   'P 1'
_cell_length_a   10.63026342
_cell_length_b   10.63026342
_cell_length_c   6.16822300
_cell_angle_alpha   90.00000000
_cell_angle_beta   90.00000000
_cell_angle_gamma   119.99999637
_symmetry_Int_Tables_number   1
_chemical_formula_structural   Ce3CuGeSe7
_chemical_formula_sum   'Ce6 Cu2 Ge2 Se14'
_cell_volume   603.64105137
_cell_formula_units_Z   2
loop_
 _symmetry_equiv_pos_site_id
 _symmetry_equiv_pos_as_xyz
  1  'x, y, z'
loop_
 _atom_site_type_symbol
 _atom_site_label
 _atom_site_symmetry_multiplicity
 _atom_site_fract_x
 _atom_site_fract_y
 _atom_site_fract_z
 _atom_site_occupancy
  Ce  Ce0  1  0.64311500  0.77318700  0.74881000  1
  Ce  Ce1  1  0.77318700  0.13007200  0.24881000  1
  Ce  Ce2  1  0.13007200  0.35688500  0.74881000  1
  Ce  Ce3  1  0.35688500  0.22681300  0.24881000  1
  Ce  Ce4  1  0.86992800  0.64311500  0.24881000  1
  Ce  Ce5  1  0.22681300  0.86992800  0.74881000  1
  Cu  Cu0  1  0.00000000  0.00000000  0.71975800  1
  Cu  Cu1  1  0.00000000  0.00000000  0.21975800  1
  Ge  Ge0  1  0.66666700  0.33333300  0.83069100  1
  Ge  Ge1  1  0.33333300  0.66666700  0.33069100  1
  Se  Se0  1  0.42125300  0.51679300  0.49124300  1
  Se  Se1  1  0.25486800  0.16179900  0.73167600  1
  Se  Se2  1  0.09306800  0.25486800  0.23167600  1
  Se  Se3  1  0.51679300  0.09554000  0.99124300  1
  Se  Se4  1  0.83820100  0.09306800  0.73167600  1
  Se  Se5  1  0.66666700  0.33333300  0.44376500  1
  Se  Se6  1  0.09554000  0.57874700  0.49124300  1
  Se  Se7  1  0.90446000  0.42125300  0.99124300  1
  Se  Se8  1  0.74513200  0.83820100  0.23167600  1
  Se  Se9  1  0.57874700  0.48320700  0.99124300  1
  Se  Se10  1  0.48320700  0.90446000  0.49124300  1
  Se  Se11  1  0.16179900  0.90693200  0.23167600  1
  Se  Se12  1  0.33333300  0.66666700  0.94376500  1
  Se  Se13  1  0.90693200  0.74513200  0.73167600  1
loop_
_geom_bond_atom_site_label_1
_geom_bond_atom_site_label_2
_geom_bond_distance
_geom_bond_site_symmetry_2
Ce0 Se13 2.966714 1_555
Ce0 Se4 2.970335 1_565
Ce0 Se0 3.014442 1_555
Ce0 Se10 3.119781 1_555
Ce0 Se8 3.126537 1_556
Ce0 Se12 3.137463 1_555
Ce0 Se9 3.177628 1_555
Ce0 Se8 3.328517 1_555
Ce1 Se8 2.966704 1_545
Ce1 Se2 2.970334 1_655
Ce1 Se3 3.014442 1_554
Ce1 Se7 3.119781 1_554
Ce1 Se4 3.126540 1_555
Ce1 Se5 3.137453 1_555
Ce1 Se10 3.177628 1_545
Ce1 Se4 3.328520 1_554
Ce2 Se4 2.966708 1_455
Ce2 Se1 2.970343 1_555
Ce2 Se6 3.014442 1_555
Ce2 Se0 3.119781 1_555
Ce2 Se2 3.126537 1_556
Ce2 Se12 3.137461 1_555
Ce2 Se7 3.177628 1_455
Ce2 Se2 3.328517 1_555
Ce3 Se2 2.966714 1_555
Ce3 Se11 2.970335 1_545
Ce3 Se9 3.014442 1_554
Ce3 Se3 3.119781 1_554
Ce3 Se1 3.126537 1_555
Ce3 Se5 3.137463 1_555
Ce3 Se0 3.177628 1_555
Ce3 Se1 3.328517 1_554
Ce4 Se11 2.966708 1_655
Ce4 Se8 2.970343 1_555
Ce4 Se7 3.014442 1_554
Ce4 Se9 3.119781 1_554
Ce4 Se13 3.126537 1_555
Ce4 Se5 3.137461 1_555
Ce4 Se6 3.177628 1_655
Ce4 Se13 3.328517 1_554
Ce5 Se1 2.966704 1_565
Ce5 Se13 2.970334 1_455
Ce5 Se10 3.014442 1_555
Ce5 Se6 3.119781 1_555
Ce5 Se11 3.126540 1_556
Ce5 Se12 3.137453 1_555
Ce5 Se3 3.177628 1_565
Ce5 Se11 3.328520 1_555
Cu0 Se4 2.375732 1_455
Cu0 Se1 2.375740 1_555
Cu0 Se13 2.375742 1_445
Cu1 Se11 2.375732 1_545
Cu1 Se8 2.375740 1_445
Cu1 Se2 2.375742 1_555
Ge0 Se5 2.386646 1_555
Ge0 Se7 2.425181 1_555
Ge0 Se3 2.425183 1_555
Ge0 Se9 2.425190 1_555
Ge1 Se12 2.386646 1_554
Ge1 Se6 2.425181 1_555
Ge1 Se10 2.425183 1_555
Ge1 Se0 2.425190 1_555
