# generated using pymatgen
data_KB3O5
_symmetry_space_group_name_H-M   'P 1'
_cell_length_a   6.73366900
_cell_length_b   9.42914300
_cell_length_c   21.44403326
_cell_angle_alpha   85.42966565
_cell_angle_beta   90.00000000
_cell_angle_gamma   90.00000000
_symmetry_Int_Tables_number   1
_chemical_formula_structural   KB3O5
_chemical_formula_sum   'K12 B36 O60'
_cell_volume   1357.21083754
_cell_formula_units_Z   12
loop_
 _symmetry_equiv_pos_site_id
 _symmetry_equiv_pos_as_xyz
  1  'x, y, z'
loop_
 _atom_site_type_symbol
 _atom_site_label
 _atom_site_symmetry_multiplicity
 _atom_site_fract_x
 _atom_site_fract_y
 _atom_site_fract_z
 _atom_site_occupancy
  K  K0  1  0.80056700  0.23836100  0.96365400  1
  K  K1  1  0.18690300  0.59821200  0.88166300  1
  K  K2  1  0.81309700  0.40178800  0.11833700  1
  K  K3  1  0.69943300  0.23836100  0.46365400  1
  K  K4  1  0.30056700  0.76163900  0.53634600  1
  K  K5  1  0.04653500  0.06449900  0.73742000  1
  K  K6  1  0.54653500  0.93550100  0.76258000  1
  K  K7  1  0.68690300  0.40178800  0.61833700  1
  K  K8  1  0.19943300  0.76163900  0.03634600  1
  K  K9  1  0.95346500  0.93550100  0.26258000  1
  K  K10  1  0.31309700  0.59821200  0.38166300  1
  K  K11  1  0.45346500  0.06449900  0.23742000  1
  B  B0  1  0.75090600  0.67299100  0.46242900  1
  B  B1  1  0.42122300  0.20828400  0.83282700  1
  B  B2  1  0.98122700  0.58758000  0.27743400  1
  B  B3  1  0.28864300  0.48064200  0.12901000  1
  B  B4  1  0.49304100  0.14151800  0.07976500  1
  B  B5  1  0.29767200  0.02182900  0.38737400  1
  B  B6  1  0.36081500  0.10279500  0.60039300  1
  B  B7  1  0.79767200  0.97817100  0.11262600  1
  B  B8  1  0.13918500  0.10279500  0.10039300  1
  B  B9  1  0.63918500  0.89720500  0.39960700  1
  B  B10  1  0.79690900  0.35797200  0.28437100  1
  B  B11  1  0.01877300  0.41242000  0.72256600  1
  B  B12  1  0.29690900  0.64202800  0.21562900  1
  B  B13  1  0.70309100  0.35797200  0.78437100  1
  B  B14  1  0.20232800  0.02182900  0.88737400  1
  B  B15  1  0.51877300  0.58758000  0.77743400  1
  B  B16  1  0.21135700  0.48064200  0.62901000  1
  B  B17  1  0.74909400  0.67299100  0.96242900  1
  B  B18  1  0.50695900  0.85848200  0.92023500  1
  B  B19  1  0.57877700  0.79171600  0.16717300  1
  B  B20  1  0.00695900  0.14151800  0.57976500  1
  B  B21  1  0.71135700  0.51935800  0.87099000  1
  B  B22  1  0.92122300  0.79171600  0.66717300  1
  B  B23  1  0.25750400  0.25997900  0.92910400  1
  B  B24  1  0.78864300  0.51935800  0.37099000  1
  B  B25  1  0.24249600  0.25997900  0.42910400  1
  B  B26  1  0.48122700  0.41242000  0.22256600  1
  B  B27  1  0.70232800  0.97817100  0.61262600  1
  B  B28  1  0.20309100  0.64202800  0.71562900  1
  B  B29  1  0.75750400  0.74002100  0.57089600  1
  B  B30  1  0.86081500  0.89720500  0.89960700  1
  B  B31  1  0.99304100  0.85848200  0.42023500  1
  B  B32  1  0.74249600  0.74002100  0.07089600  1
  B  B33  1  0.24909400  0.32700900  0.53757100  1
  B  B34  1  0.25090600  0.32700900  0.03757100  1
  B  B35  1  0.07877700  0.20828400  0.33282600  1
  O  O0  1  0.66068500  0.94151300  0.89195100  1
  O  O1  1  0.91274000  0.47346000  0.24926900  1
  O  O2  1  0.49942300  0.01734100  0.63127400  1
  O  O3  1  0.27242500  0.60199500  0.65413800  1
  O  O4  1  0.41274000  0.52654000  0.25073100  1
  O  O5  1  0.76681700  0.54011900  0.93095000  1
  O  O6  1  0.23318300  0.45988100  0.06905000  1
  O  O7  1  0.59573000  0.62067700  0.83578900  1
  O  O8  1  0.37214200  0.67906200  0.75506600  1
  O  O9  1  0.00057700  0.01734100  0.13127400  1
  O  O10  1  0.57301100  0.22990000  0.79146200  1
  O  O11  1  0.99942300  0.98265900  0.86872600  1
  O  O12  1  0.81532200  0.87539000  0.06404700  1
  O  O13  1  0.83931500  0.94151300  0.39195100  1
  O  O14  1  0.09573000  0.37932300  0.66421100  1
  O  O15  1  0.40427000  0.37932300  0.16421100  1
  O  O16  1  0.81143100  0.10545100  0.58686800  1
  O  O17  1  0.62186000  0.69571700  0.12216400  1
  O  O18  1  0.92698900  0.22990000  0.29146200  1
  O  O19  1  0.12785800  0.67906200  0.25506600  1
  O  O20  1  0.73318300  0.54011900  0.43095000  1
  O  O21  1  0.31143100  0.89454900  0.91313200  1
  O  O22  1  0.07301100  0.77010000  0.70853800  1
  O  O23  1  0.40404000  0.22675100  0.56585100  1
  O  O24  1  0.18467800  0.12461000  0.93595300  1
  O  O25  1  0.69472600  0.91220800  0.16931700  1
  O  O26  1  0.68856900  0.10545100  0.08686800  1
  O  O27  1  0.18856900  0.89454900  0.41313200  1
  O  O28  1  0.21233400  0.35992500  0.97019400  1
  O  O29  1  0.09596000  0.22675100  0.06585100  1
  O  O30  1  0.68467800  0.87539000  0.56404700  1
  O  O31  1  0.50057700  0.98265900  0.36872600  1
  O  O32  1  0.78766600  0.64007500  0.02980600  1
  O  O33  1  0.42698900  0.77010000  0.20853800  1
  O  O34  1  0.71233400  0.64007500  0.52980600  1
  O  O35  1  0.87814000  0.69571700  0.62216400  1
  O  O36  1  0.19472600  0.08779200  0.33068300  1
  O  O37  1  0.33931500  0.05848700  0.10804900  1
  O  O38  1  0.54744900  0.73591500  0.95641300  1
  O  O39  1  0.28766600  0.35992500  0.47019400  1
  O  O40  1  0.22757500  0.60199500  0.15413800  1
  O  O41  1  0.90427000  0.62067700  0.33578900  1
  O  O42  1  0.77242500  0.39800500  0.84586200  1
  O  O43  1  0.37814000  0.30428300  0.87783600  1
  O  O44  1  0.58726000  0.47346000  0.74926900  1
  O  O45  1  0.26681700  0.45988100  0.56905000  1
  O  O46  1  0.04744900  0.26408500  0.54358700  1
  O  O47  1  0.59596000  0.77324900  0.43414900  1
  O  O48  1  0.72757500  0.39800500  0.34586200  1
  O  O49  1  0.95255100  0.73591500  0.45641300  1
  O  O50  1  0.80527400  0.91220800  0.66931700  1
  O  O51  1  0.08726000  0.52654000  0.75073100  1
  O  O52  1  0.16068500  0.05848700  0.60804900  1
  O  O53  1  0.12186000  0.30428300  0.37783600  1
  O  O54  1  0.45255100  0.26408500  0.04358700  1
  O  O55  1  0.62785800  0.32093800  0.24493400  1
  O  O56  1  0.30527400  0.08779200  0.83068300  1
  O  O57  1  0.31532200  0.12461000  0.43595300  1
  O  O58  1  0.87214200  0.32093800  0.74493400  1
  O  O59  1  0.90404000  0.77324900  0.93414900  1
loop_
_geom_bond_atom_site_label_1
_geom_bond_atom_site_label_2
_geom_bond_distance
_geom_bond_site_symmetry_2
K0 O42 2.841874 1_555
K0 O24 2.880048 1_655
K0 O5 2.884669 1_555
K0 O54 2.924862 1_556
K0 O26 2.931361 1_556
K0 O29 2.955153 1_656
K0 O28 3.007830 1_655
K1 O59 2.813308 1_455
K1 O28 2.828781 1_555
K1 O7 2.925383 1_555
K1 O51 3.015383 1_555
K1 O8 3.029368 1_555
K1 O21 3.044108 1_555
K1 O5 3.053933 1_455
K1 O43 3.063075 1_555
K1 O38 3.237469 1_555
K2 O29 2.813308 1_655
K2 O32 2.828781 1_555
K2 O15 2.925383 1_555
K2 O1 3.015383 1_555
K2 O55 3.029368 1_555
K2 O26 3.044108 1_555
K2 O6 3.053933 1_655
K2 O17 3.063075 1_555
K2 O54 3.237469 1_555
K3 O48 2.841874 1_555
K3 O57 2.880048 1_555
K3 O20 2.884669 1_555
K3 O46 2.924862 1_655
K3 O16 2.931361 1_555
K3 O23 2.955153 1_555
K3 O39 3.007830 1_555
K4 O3 2.841874 1_555
K4 O30 2.880048 1_555
K4 O45 2.884669 1_555
K4 O49 2.924862 1_455
K4 O27 2.931361 1_555
K4 O47 2.955153 1_555
K4 O34 3.007830 1_555
K5 O56 2.674595 1_555
K5 O50 2.677356 1_445
K5 O58 2.704398 1_455
K5 O11 2.877184 1_445
K5 O52 2.883658 1_555
K5 O22 2.897439 1_545
K6 O50 2.674595 1_555
K6 O56 2.677356 1_565
K6 O8 2.704398 1_555
K6 O2 2.877184 1_565
K6 O0 2.883658 1_555
K6 O10 2.897439 1_565
K7 O23 2.813308 1_555
K7 O34 2.828781 1_555
K7 O14 2.925383 1_655
K7 O44 3.015383 1_555
K7 O58 3.029368 1_555
K7 O16 3.044108 1_555
K7 O45 3.053933 1_555
K7 O35 3.063075 1_555
K7 O46 3.237469 1_655
K8 O40 2.841874 1_555
K8 O12 2.880048 1_455
K8 O6 2.884669 1_555
K8 O38 2.924862 1_554
K8 O21 2.931361 1_554
K8 O59 2.955153 1_454
K8 O32 3.007830 1_455
K9 O25 2.674595 1_555
K9 O36 2.677356 1_665
K9 O19 2.704398 1_655
K9 O9 2.877184 1_665
K9 O13 2.883658 1_555
K9 O18 2.897439 1_565
K10 O47 2.813308 1_555
K10 O39 2.828781 1_555
K10 O41 2.925383 1_455
K10 O4 3.015383 1_555
K10 O19 3.029368 1_555
K10 O27 3.044108 1_555
K10 O20 3.053933 1_555
K10 O53 3.063075 1_555
K10 O49 3.237469 1_455
K11 O36 2.674595 1_555
K11 O25 2.677356 1_545
K11 O55 2.704398 1_555
K11 O31 2.877184 1_545
K11 O37 2.883658 1_555
K11 O33 2.897439 1_545
B0 O20 1.474577 1_555
B0 O34 1.476439 1_555
B0 O49 1.483281 1_555
B0 O47 1.502888 1_555
B1 O10 1.358022 1_555
B1 O56 1.382329 1_555
B1 O43 1.405106 1_555
B2 O1 1.356069 1_555
B2 O19 1.372260 1_655
B2 O41 1.412119 1_555
B3 O40 1.366393 1_555
B3 O6 1.367896 1_555
B3 O15 1.404912 1_555
B4 O26 1.365317 1_555
B4 O54 1.367101 1_555
B4 O37 1.405937 1_555
B5 O27 1.476320 1_545
B5 O31 1.478723 1_545
B5 O57 1.483052 1_555
B5 O36 1.491567 1_555
B6 O23 1.364369 1_555
B6 O2 1.368891 1_555
B6 O52 1.416552 1_555
B7 O26 1.476320 1_565
B7 O9 1.478723 1_665
B7 O12 1.483052 1_555
B7 O25 1.491567 1_555
B8 O29 1.364369 1_555
B8 O9 1.368891 1_555
B8 O37 1.416552 1_555
B9 O47 1.364369 1_555
B9 O31 1.368891 1_555
B9 O13 1.416552 1_555
B10 O48 1.475984 1_555
B10 O55 1.476480 1_555
B10 O18 1.489767 1_555
B10 O1 1.493365 1_555
B11 O51 1.356069 1_555
B11 O58 1.372260 1_455
B11 O14 1.412119 1_555
B12 O40 1.475984 1_555
B12 O19 1.476480 1_555
B12 O33 1.489767 1_555
B12 O4 1.493365 1_555
B13 O42 1.475984 1_555
B13 O58 1.476480 1_555
B13 O10 1.489767 1_555
B13 O44 1.493365 1_555
B14 O21 1.476320 1_545
B14 O11 1.478723 1_445
B14 O24 1.483052 1_555
B14 O56 1.491567 1_555
B15 O44 1.356069 1_555
B15 O8 1.372260 1_555
B15 O7 1.412119 1_555
B16 O3 1.366393 1_555
B16 O45 1.367896 1_555
B16 O14 1.404912 1_555
B17 O5 1.474577 1_555
B17 O32 1.476439 1_556
B17 O38 1.483281 1_555
B17 O59 1.502888 1_555
B18 O21 1.365317 1_555
B18 O38 1.367101 1_555
B18 O0 1.405937 1_555
B19 O33 1.358022 1_555
B19 O25 1.382329 1_555
B19 O17 1.405106 1_555
B20 O16 1.365317 1_455
B20 O46 1.367101 1_555
B20 O52 1.405937 1_555
B21 O42 1.366393 1_555
B21 O5 1.367896 1_555
B21 O7 1.404912 1_555
B22 O22 1.358022 1_655
B22 O50 1.382329 1_555
B22 O35 1.405106 1_555
B23 O24 1.364333 1_555
B23 O28 1.374545 1_555
B23 O43 1.403515 1_555
B24 O48 1.366393 1_555
B24 O20 1.367896 1_555
B24 O41 1.404912 1_555
B25 O57 1.364333 1_555
B25 O39 1.374545 1_555
B25 O53 1.403515 1_555
B26 O4 1.356069 1_555
B26 O55 1.372260 1_555
B26 O15 1.412119 1_555
B27 O16 1.476320 1_565
B27 O2 1.478723 1_565
B27 O30 1.483052 1_555
B27 O50 1.491567 1_555
B28 O3 1.475984 1_555
B28 O8 1.476480 1_555
B28 O22 1.489767 1_555
B28 O51 1.493365 1_555
B29 O30 1.364333 1_555
B29 O34 1.374545 1_555
B29 O35 1.403515 1_555
B30 O59 1.364369 1_555
B30 O11 1.368891 1_555
B30 O0 1.416552 1_555
B31 O27 1.365317 1_655
B31 O49 1.367101 1_555
B31 O13 1.405937 1_555
B32 O12 1.364333 1_555
B32 O32 1.374545 1_555
B32 O17 1.403515 1_555
B33 O45 1.474577 1_555
B33 O39 1.476439 1_555
B33 O46 1.483281 1_555
B33 O23 1.502888 1_555
B34 O6 1.474577 1_555
B34 O28 1.476439 1_554
B34 O54 1.483281 1_555
B34 O29 1.502888 1_555
B35 O18 1.358009 1_455
B35 O36 1.382327 1_555
B35 O53 1.405121 1_555
