# generated using pymatgen
data_Sr3NiRhO6
_symmetry_space_group_name_H-M   'P 1'
_cell_length_a   6.72485952
_cell_length_b   6.72235650
_cell_length_c   6.72509050
_cell_angle_alpha   92.17688214
_cell_angle_beta   92.17349031
_cell_angle_gamma   92.16588047
_symmetry_Int_Tables_number   1
_chemical_formula_structural   Sr3NiRhO6
_chemical_formula_sum   'Sr6 Ni2 Rh2 O12'
_cell_volume   303.34813624
_cell_formula_units_Z   2
loop_
 _symmetry_equiv_pos_site_id
 _symmetry_equiv_pos_as_xyz
  1  'x, y, z'
loop_
 _atom_site_type_symbol
 _atom_site_label
 _atom_site_symmetry_multiplicity
 _atom_site_fract_x
 _atom_site_fract_y
 _atom_site_fract_z
 _atom_site_occupancy
  Sr  Sr0  1  0.61510100  0.88486300  0.25011500  1
  Sr  Sr1  1  0.25000900  0.61509900  0.88482400  1
  Sr  Sr2  1  0.88485000  0.25001600  0.61509500  1
  Sr  Sr3  1  0.38490100  0.11513700  0.74988400  1
  Sr  Sr4  1  0.74999300  0.38489900  0.11517700  1
  Sr  Sr5  1  0.11515000  0.74998400  0.38490500  1
  Ni  Ni0  1  0.25001700  0.25000600  0.25003200  1
  Ni  Ni1  1  0.74998300  0.74999500  0.74996900  1
  Rh  Rh0  1  0.99999400  0.99999200  0.99999000  1
  Rh  Rh1  1  0.50000200  0.49999800  0.50000900  1
  O  O0  1  0.28837000  0.96424600  0.08946600  1
  O  O1  1  0.08958600  0.28836500  0.96425400  1
  O  O2  1  0.96424200  0.08952500  0.28844100  1
  O  O3  1  0.53570600  0.21164500  0.41042000  1
  O  O4  1  0.41049500  0.53573800  0.21170700  1
  O  O5  1  0.21164900  0.41050700  0.53573000  1
  O  O6  1  0.71163200  0.03575200  0.91053900  1
  O  O7  1  0.91041400  0.71163900  0.03574800  1
  O  O8  1  0.03575800  0.91047400  0.71155900  1
  O  O9  1  0.46429100  0.78835600  0.58958000  1
  O  O10  1  0.58950500  0.46426600  0.78828700  1
  O  O11  1  0.78835300  0.58949500  0.46426900  1
loop_
_geom_bond_atom_site_label_1
_geom_bond_atom_site_label_2
_geom_bond_distance
_geom_bond_site_symmetry_2
Ni0 O3 2.195997 1_555
Ni0 O4 2.196031 1_555
Ni0 O5 2.196229 1_555
Ni0 O0 2.196290 1_545
Ni0 O1 2.196703 1_554
Ni0 O2 2.196809 1_455
Ni1 O10 2.196006 1_555
Ni1 O9 2.196018 1_555
Ni1 O11 2.196240 1_555
Ni1 O6 2.196283 1_565
Ni1 O7 2.196705 1_556
Ni1 O8 2.196804 1_655
O0 Rh0 2.034296 1_454
O0 Sr0 2.496424 1_555
O0 Sr3 2.627609 1_564
O0 Sr1 2.674196 1_554
O0 Sr5 2.765008 1_555
O1 Rh0 2.033915 1_445
O1 Sr1 2.495438 1_555
O1 Sr4 2.627629 1_456
O1 Sr2 2.675398 1_455
O1 Sr3 2.764575 1_555
O2 Rh0 2.034877 1_544
O2 Sr2 2.495458 1_555
O2 Sr5 2.626453 1_645
O2 Sr0 2.674889 1_545
O2 Sr4 2.764223 1_555
O3 Rh1 2.033597 1_555
O3 Sr0 2.495072 1_545
O3 Sr3 2.626695 1_555
O3 Sr2 2.675093 1_555
O3 Sr4 2.764289 1_555
O4 Rh1 2.033961 1_555
O4 Sr1 2.496927 1_554
O4 Sr4 2.626679 1_555
O4 Sr0 2.674133 1_555
O4 Sr5 2.764061 1_555
O5 Rh1 2.034206 1_555
O5 Sr2 2.496426 1_455
O5 Sr5 2.625972 1_555
O5 Sr1 2.674266 1_555
O5 Sr3 2.763875 1_555
O6 Rh0 2.034178 1_545
O6 Sr3 2.496444 1_555
O6 Sr0 2.627568 1_546
O6 Sr4 2.674183 1_556
O6 Sr2 2.765035 1_555
O7 Rh0 2.033791 1_554
O7 Sr4 2.495466 1_555
O7 Sr1 2.627654 1_654
O7 Sr5 2.675385 1_655
O7 Sr0 2.764542 1_555
O8 Rh0 2.034737 1_455
O8 Sr5 2.495455 1_555
O8 Sr2 2.626459 1_465
O8 Sr3 2.674903 1_565
O8 Sr1 2.764238 1_555
O9 Rh1 2.033605 1_555
O9 Sr3 2.495055 1_565
O9 Sr0 2.626713 1_555
O9 Sr5 2.675077 1_555
O9 Sr1 2.764285 1_555
O10 Rh1 2.033792 1_555
O10 Sr4 2.496984 1_556
O10 Sr1 2.626663 1_555
O10 Sr3 2.674149 1_555
O10 Sr2 2.764058 1_555
O11 Rh1 2.034226 1_555
O11 Sr5 2.496407 1_655
O11 Sr2 2.625983 1_555
O11 Sr4 2.674268 1_555
O11 Sr0 2.763865 1_555
