# generated using pymatgen
data_InGaBr4
_symmetry_space_group_name_H-M   'P 1'
_cell_length_a   7.50672704
_cell_length_b   8.93969132
_cell_length_c   13.17389181
_cell_angle_alpha   74.13771748
_cell_angle_beta   90.00000000
_cell_angle_gamma   90.00000000
_symmetry_Int_Tables_number   1
_chemical_formula_structural   InGaBr4
_chemical_formula_sum   'In4 Ga4 Br16'
_cell_volume   850.40704222
_cell_formula_units_Z   4
loop_
 _symmetry_equiv_pos_site_id
 _symmetry_equiv_pos_as_xyz
  1  'x, y, z'
loop_
 _atom_site_type_symbol
 _atom_site_label
 _atom_site_symmetry_multiplicity
 _atom_site_fract_x
 _atom_site_fract_y
 _atom_site_fract_z
 _atom_site_occupancy
  In  In0  1  0.89105457  -0.00000000  0.25000000  1
  In  In1  1  0.10894543  -0.00000000  0.75000000  1
  In  In2  1  0.41784774  0.50000000  0.25000000  1
  In  In3  1  0.58215226  0.50000000  0.75000000  1
  Ga  Ga0  1  0.71533432  0.21709038  0.54696249  1
  Ga  Ga1  1  0.71533432  0.78290962  0.95303751  1
  Ga  Ga2  1  0.28466568  0.78290962  0.45303751  1
  Ga  Ga3  1  0.28466568  0.21709038  0.04696249  1
  Br  Br0  1  0.07411615  0.65798492  0.37280934  1
  Br  Br1  1  0.07411615  0.34201508  0.12719066  1
  Br  Br2  1  0.92588385  0.34201508  0.62719066  1
  Br  Br3  1  0.92588385  0.65798492  0.87280934  1
  Br  Br4  1  0.42994571  0.71418586  0.91064360  1
  Br  Br5  1  0.42994571  0.28581414  0.58935640  1
  Br  Br6  1  0.57005429  0.28581414  0.08935640  1
  Br  Br7  1  0.57005429  0.71418586  0.41064360  1
  Br  Br8  1  0.75731308  0.30130591  0.36291204  1
  Br  Br9  1  0.75731308  0.69869409  0.13708796  1
  Br  Br10  1  0.24268692  0.69869409  0.63708796  1
  Br  Br11  1  0.24268692  0.30130591  0.86291204  1
  Br  Br12  1  0.23418949  0.05099444  0.39585794  1
  Br  Br13  1  0.23418949  0.94900556  0.10414206  1
  Br  Br14  1  0.76581051  0.94900556  0.60414206  1
  Br  Br15  1  0.76581051  0.05099444  0.89585794  1
loop_
_geom_bond_atom_site_label_1
_geom_bond_atom_site_label_2
_geom_bond_distance
_geom_bond_site_symmetry_2
Br0 Ga2 2.346835 1_555
Br0 In0 3.339189 1_465
Br1 Ga3 2.346835 1_555
Br1 In0 3.339189 1_455
Br2 Ga0 2.346835 1_555
Br2 In1 3.339189 1_655
Br3 Ga1 2.346835 1_555
Br3 In1 3.339189 1_665
Br4 Ga1 2.338061 1_555
Br5 Ga0 2.338061 1_555
Br6 Ga3 2.338061 1_555
Br7 Ga2 2.338061 1_555
Br8 Ga0 2.355251 1_555
Br8 In2 3.227552 1_555
Br9 Ga1 2.355251 1_554
Br9 In2 3.227552 1_555
Br10 Ga2 2.355251 1_555
Br10 In3 3.227552 1_555
Br11 Ga3 2.355251 1_556
Br11 In3 3.227552 1_555
Br12 Ga2 2.338332 1_545
Br12 In0 3.318697 1_455
Br13 Ga3 2.338332 1_565
Br13 In0 3.318697 1_465
Br14 Ga0 2.338332 1_565
Br14 In1 3.318697 1_665
Br15 Ga1 2.338332 1_545
Br15 In1 3.318697 1_655
