# generated using pymatgen
data_RbTa(PO4)2
_symmetry_space_group_name_H-M   'P 1'
_cell_length_a   5.11185697
_cell_length_b   5.11185697
_cell_length_c   8.58059031
_cell_angle_alpha   87.25938498
_cell_angle_beta   87.25938498
_cell_angle_gamma   62.26345716
_symmetry_Int_Tables_number   1
_chemical_formula_structural   RbTa(PO4)2
_chemical_formula_sum   'Rb1 Ta1 P2 O8'
_cell_volume   198.14667712
_cell_formula_units_Z   1
loop_
 _symmetry_equiv_pos_site_id
 _symmetry_equiv_pos_as_xyz
  1  'x, y, z'
loop_
 _atom_site_type_symbol
 _atom_site_label
 _atom_site_symmetry_multiplicity
 _atom_site_fract_x
 _atom_site_fract_y
 _atom_site_fract_z
 _atom_site_occupancy
  Rb  Rb0  1  0.00000000  0.00000000  0.00000000  1
  Ta  Ta0  1  0.00000000  0.00000000  0.50000000  1
  P  P0  1  0.64359400  0.64359400  0.70129300  1
  P  P1  1  0.35640600  0.35640600  0.29870700  1
  O  O0  1  0.31923200  0.31923200  0.13159100  1
  O  O1  1  0.31062700  0.78395200  0.65589600  1
  O  O2  1  0.68937300  0.21604800  0.34410400  1
  O  O3  1  0.78395200  0.31062700  0.65589600  1
  O  O4  1  0.21604800  0.68937300  0.34410400  1
  O  O5  1  0.68076800  0.68076800  0.86840900  1
  O  O6  1  0.21235200  0.21235200  0.41648800  1
  O  O7  1  0.78764800  0.78764800  0.58351200  1
loop_
_geom_bond_atom_site_label_1
_geom_bond_atom_site_label_2
_geom_bond_distance
_geom_bond_site_symmetry_2
O0 P1 1.488010 1_555
O0 Rb0 3.071169 1_555
O0 Rb0 3.250032 1_655
O0 Rb0 3.250032 1_565
O1 P0 1.569569 1_555
O1 Ta0 1.989969 1_565
O1 Rb0 3.269583 1_566
O2 P1 1.569569 1_555
O2 Ta0 1.989969 1_655
O2 Rb0 3.269583 1_655
O3 P0 1.569569 1_555
O3 Ta0 1.989969 1_655
O3 Rb0 3.269583 1_656
O4 P1 1.569569 1_555
O4 Ta0 1.989969 1_565
O4 Rb0 3.269583 1_565
O5 P0 1.488010 1_555
O5 Rb0 3.071169 1_666
O5 Rb0 3.250032 1_566
O5 Rb0 3.250032 1_656
O6 P1 1.571083 1_555
O6 Ta0 1.954024 1_555
O7 P0 1.571083 1_555
O7 Ta0 1.954024 1_665
