# generated using pymatgen
data_LaCuSeO
_symmetry_space_group_name_H-M   'P 1'
_cell_length_a   4.06951200
_cell_length_b   4.06951200
_cell_length_c   8.82454000
_cell_angle_alpha   90.00000000
_cell_angle_beta   90.00000000
_cell_angle_gamma   90.00000000
_symmetry_Int_Tables_number   1
_chemical_formula_structural   LaCuSeO
_chemical_formula_sum   'La2 Cu2 Se2 O2'
_cell_volume   146.14257085
_cell_formula_units_Z   2
loop_
 _symmetry_equiv_pos_site_id
 _symmetry_equiv_pos_as_xyz
  1  'x, y, z'
loop_
 _atom_site_type_symbol
 _atom_site_label
 _atom_site_symmetry_multiplicity
 _atom_site_fract_x
 _atom_site_fract_y
 _atom_site_fract_z
 _atom_site_occupancy
  La  La0  1  0.00000000  0.50000000  0.85997900  1
  La  La1  1  0.50000000  0.00000000  0.14002100  1
  Cu  Cu0  1  0.50000000  0.50000000  0.50000000  1
  Cu  Cu1  1  0.00000000  0.00000000  0.50000000  1
  Se  Se0  1  0.00000000  0.50000000  0.33079400  1
  Se  Se1  1  0.50000000  0.00000000  0.66920600  1
  O  O0  1  0.50000000  0.50000000  0.00000000  1
  O  O1  1  0.00000000  0.00000000  0.00000000  1
loop_
_geom_bond_atom_site_label_1
_geom_bond_atom_site_label_2
_geom_bond_distance
_geom_bond_site_symmetry_2
La0 O1 2.380544 1_566
La0 O1 2.380544 1_556
La0 O0 2.380544 1_456
La0 O0 2.380544 1_556
La0 Se1 3.333854 1_555
La0 Se1 3.333854 1_465
La0 Se1 3.333854 1_565
La0 Se1 3.333854 1_455
La1 O1 2.380544 1_555
La1 O0 2.380544 1_545
La1 O0 2.380544 1_555
La1 O1 2.380544 1_655
La1 Se0 3.333854 1_555
La1 Se0 3.333854 1_545
La1 Se0 3.333854 1_655
La1 Se0 3.333854 1_645
Cu0 Se1 2.523841 1_565
Cu0 Se1 2.523841 1_555
Cu0 Se0 2.523841 1_555
Cu0 Se0 2.523841 1_655
Cu1 Se1 2.523841 1_455
Cu1 Se1 2.523841 1_555
Cu1 Se0 2.523841 1_545
Cu1 Se0 2.523841 1_555
