# generated using pymatgen
data_Sr(MnP)2
_symmetry_space_group_name_H-M   'P 1'
_cell_length_a   3.85172638
_cell_length_b   3.85172638
_cell_length_c   7.12574700
_cell_angle_alpha   90.00000000
_cell_angle_beta   90.00000000
_cell_angle_gamma   120.00000648
_symmetry_Int_Tables_number   1
_chemical_formula_structural   Sr(MnP)2
_chemical_formula_sum   'Sr1 Mn2 P2'
_cell_volume   91.55284771
_cell_formula_units_Z   1
loop_
 _symmetry_equiv_pos_site_id
 _symmetry_equiv_pos_as_xyz
  1  'x, y, z'
loop_
 _atom_site_type_symbol
 _atom_site_label
 _atom_site_symmetry_multiplicity
 _atom_site_fract_x
 _atom_site_fract_y
 _atom_site_fract_z
 _atom_site_occupancy
  Sr  Sr0  1  0.00000000  0.00000000  0.00000000  1
  Mn  Mn0  1  0.66666700  0.33333300  0.38777400  1
  Mn  Mn1  1  0.33333300  0.66666700  0.61222600  1
  P  P0  1  0.66666700  0.33333300  0.70594100  1
  P  P1  1  0.33333300  0.66666700  0.29405900  1
loop_
_geom_bond_atom_site_label_1
_geom_bond_atom_site_label_2
_geom_bond_distance
_geom_bond_site_symmetry_2
Mn0 P0 2.267178 1_555
Mn0 P1 2.321895 1_545
Mn0 P1 2.321895 1_655
Mn0 P1 2.321902 1_555
Mn1 P1 2.267178 1_555
Mn1 P0 2.321895 1_455
Mn1 P0 2.321895 1_565
Mn1 P0 2.321902 1_555
P0 Sr0 3.055473 1_656
P0 Sr0 3.055475 1_556
P0 Sr0 3.055475 1_666
P1 Sr0 3.055473 1_565
P1 Sr0 3.055475 1_555
P1 Sr0 3.055475 1_665
