# generated using pymatgen
data_Li4Al3Ge3ClO12
_symmetry_space_group_name_H-M   'P 1'
_cell_length_a   8.71804000
_cell_length_b   8.71804000
_cell_length_c   8.71804000
_cell_angle_alpha   90.00000000
_cell_angle_beta   90.00000000
_cell_angle_gamma   90.00000000
_symmetry_Int_Tables_number   1
_chemical_formula_structural   Li4Al3Ge3ClO12
_chemical_formula_sum   'Li8 Al6 Ge6 Cl2 O24'
_cell_volume   662.60784270
_cell_formula_units_Z   2
loop_
 _symmetry_equiv_pos_site_id
 _symmetry_equiv_pos_as_xyz
  1  'x, y, z'
loop_
 _atom_site_type_symbol
 _atom_site_label
 _atom_site_symmetry_multiplicity
 _atom_site_fract_x
 _atom_site_fract_y
 _atom_site_fract_z
 _atom_site_occupancy
  Li  Li0  1  0.82694300  0.82694300  0.17305700  1
  Li  Li1  1  0.82694300  0.17305700  0.82694300  1
  Li  Li2  1  0.32694300  0.67305700  0.32694300  1
  Li  Li3  1  0.17305700  0.17305700  0.17305700  1
  Li  Li4  1  0.67305700  0.67305700  0.67305700  1
  Li  Li5  1  0.32694300  0.32694300  0.67305700  1
  Li  Li6  1  0.67305700  0.32694300  0.32694300  1
  Li  Li7  1  0.17305700  0.82694300  0.82694300  1
  Al  Al0  1  0.00000000  0.75000000  0.50000000  1
  Al  Al1  1  0.25000000  0.50000000  0.00000000  1
  Al  Al2  1  0.50000000  0.00000000  0.75000000  1
  Al  Al3  1  0.50000000  0.00000000  0.25000000  1
  Al  Al4  1  0.00000000  0.25000000  0.50000000  1
  Al  Al5  1  0.75000000  0.50000000  0.00000000  1
  Ge  Ge0  1  0.00000000  0.50000000  0.25000000  1
  Ge  Ge1  1  0.50000000  0.75000000  0.00000000  1
  Ge  Ge2  1  0.50000000  0.25000000  0.00000000  1
  Ge  Ge3  1  0.00000000  0.50000000  0.75000000  1
  Ge  Ge4  1  0.75000000  0.00000000  0.50000000  1
  Ge  Ge5  1  0.25000000  0.00000000  0.50000000  1
  Cl  Cl0  1  0.00000000  0.00000000  0.00000000  1
  Cl  Cl1  1  0.50000000  0.50000000  0.50000000  1
  O  O0  1  0.40187700  0.86209800  0.86227500  1
  O  O1  1  0.63772500  0.36209800  0.09812300  1
  O  O2  1  0.13772500  0.59812300  0.86209800  1
  O  O3  1  0.63790200  0.90187700  0.63772500  1
  O  O4  1  0.90187700  0.36227500  0.36209800  1
  O  O5  1  0.13790200  0.86227500  0.59812300  1
  O  O6  1  0.13772500  0.40187700  0.13790200  1
  O  O7  1  0.36227500  0.63790200  0.09812300  1
  O  O8  1  0.36209800  0.90187700  0.36227500  1
  O  O9  1  0.86227500  0.59812300  0.13790200  1
  O  O10  1  0.36227500  0.36209800  0.90187700  1
  O  O11  1  0.86209800  0.13772500  0.59812300  1
  O  O12  1  0.59812300  0.13790200  0.86227500  1
  O  O13  1  0.40187700  0.13790200  0.13772500  1
  O  O14  1  0.86227500  0.40187700  0.86209800  1
  O  O15  1  0.59812300  0.86209800  0.13772500  1
  O  O16  1  0.13790200  0.13772500  0.40187700  1
  O  O17  1  0.63790200  0.09812300  0.36227500  1
  O  O18  1  0.86209800  0.86227500  0.40187700  1
  O  O19  1  0.36209800  0.09812300  0.63772500  1
  O  O20  1  0.63772500  0.63790200  0.90187700  1
  O  O21  1  0.90187700  0.63772500  0.63790200  1
  O  O22  1  0.09812300  0.36227500  0.63790200  1
  O  O23  1  0.09812300  0.63772500  0.36209800  1
loop_
_geom_bond_atom_site_label_1
_geom_bond_atom_site_label_2
_geom_bond_distance
_geom_bond_site_symmetry_2
Li0 O18 2.041638 1_555
Li0 O9 2.041638 1_555
Li0 O15 2.041638 1_555
Li1 O14 2.041638 1_555
Li1 O11 2.041638 1_555
Li1 O12 2.041638 1_555
Li2 O23 2.041638 1_555
Li2 O7 2.041638 1_555
Li2 O8 2.041638 1_555
Li3 O13 2.041638 1_555
Li3 O6 2.041638 1_555
Li3 O16 2.041638 1_555
Li4 O3 2.041638 1_555
Li4 O21 2.041638 1_555
Li4 O20 2.041638 1_555
Li5 O22 2.041638 1_555
Li5 O19 2.041638 1_555
Li5 O10 2.041638 1_555
Li6 O1 2.041638 1_555
Li6 O17 2.041638 1_555
Li6 O4 2.041638 1_555
Li7 O0 2.041638 1_555
Li7 O2 2.041638 1_555
Li7 O5 2.041638 1_555
Al0 O18 1.770659 1_455
Al0 O5 1.770659 1_555
Al0 O21 1.770659 1_455
Al0 O23 1.770659 1_555
Al1 O2 1.770659 1_554
Al1 O7 1.770659 1_555
Al1 O10 1.770659 1_554
Al1 O6 1.770659 1_555
Al2 O3 1.770659 1_545
Al2 O12 1.770659 1_555
Al2 O0 1.770659 1_545
Al2 O19 1.770659 1_555
Al3 O15 1.770659 1_545
Al3 O8 1.770659 1_545
Al3 O17 1.770659 1_555
Al3 O13 1.770659 1_555
Al4 O11 1.770659 1_455
Al4 O22 1.770659 1_555
Al4 O16 1.770659 1_555
Al4 O4 1.770659 1_455
Al5 O20 1.770659 1_554
Al5 O9 1.770659 1_555
Al5 O14 1.770659 1_554
Al5 O1 1.770659 1_555
Ge0 O4 1.768758 1_455
Ge0 O23 1.768758 1_555
Ge0 O9 1.768758 1_455
Ge0 O6 1.768758 1_555
Ge1 O15 1.768758 1_555
Ge1 O7 1.768758 1_555
Ge1 O20 1.768758 1_554
Ge1 O0 1.768758 1_554
Ge2 O12 1.768758 1_554
Ge2 O10 1.768758 1_554
Ge2 O1 1.768758 1_555
Ge2 O13 1.768758 1_555
Ge3 O21 1.768758 1_455
Ge3 O2 1.768758 1_555
Ge3 O22 1.768758 1_555
Ge3 O14 1.768758 1_455
Ge4 O3 1.768758 1_545
Ge4 O17 1.768758 1_555
Ge4 O11 1.768758 1_555
Ge4 O18 1.768758 1_545
Ge5 O8 1.768758 1_545
Ge5 O5 1.768758 1_545
Ge5 O19 1.768758 1_555
Ge5 O16 1.768758 1_555
Cl0 Li1 2.613176 1_454
Cl0 Li3 2.613176 1_555
Cl0 Li0 2.613176 1_445
Cl0 Li7 2.613176 1_544
Cl1 Li2 2.613176 1_555
Cl1 Li6 2.613176 1_555
Cl1 Li4 2.613176 1_555
Cl1 Li5 2.613176 1_555
