# generated using pymatgen
data_Cr2S3
_symmetry_space_group_name_H-M   'P 1'
_cell_length_a   6.61888937
_cell_length_b   6.61888884
_cell_length_c   6.61888926
_cell_angle_alpha   54.06101225
_cell_angle_beta   54.06101366
_cell_angle_gamma   54.06099337
_symmetry_Int_Tables_number   1
_chemical_formula_structural   Cr2S3
_chemical_formula_sum   'Cr4 S6'
_cell_volume   176.60390142
_cell_formula_units_Z   2
loop_
 _symmetry_equiv_pos_site_id
 _symmetry_equiv_pos_as_xyz
  1  'x, y, z'
loop_
 _atom_site_type_symbol
 _atom_site_label
 _atom_site_symmetry_multiplicity
 _atom_site_fract_x
 _atom_site_fract_y
 _atom_site_fract_z
 _atom_site_occupancy
  Cr  Cr0  1  0.67806902  0.67806902  0.67806902  1
  Cr  Cr1  1  0.50000000  0.50000000  0.50000000  1
  Cr  Cr2  1  -0.00000000  -0.00000000  0.00000000  1
  Cr  Cr3  1  0.32193098  0.32193098  0.32193098  1
  S  S0  1  0.59899583  0.89978315  0.26743276  1
  S  S1  1  0.73256724  0.40100417  0.10021685  1
  S  S2  1  0.26743276  0.59899583  0.89978315  1
  S  S3  1  0.40100417  0.10021685  0.73256724  1
  S  S4  1  0.10021685  0.73256724  0.40100417  1
  S  S5  1  0.89978315  0.26743276  0.59899583  1
loop_
_geom_bond_atom_site_label_1
_geom_bond_atom_site_label_2
_geom_bond_distance
_geom_bond_site_symmetry_2
Cr0 S3 2.385824 1_565
Cr0 S1 2.385825 1_556
Cr0 S4 2.385825 1_655
Cr0 S5 2.429195 1_555
Cr0 S0 2.429196 1_555
Cr0 S2 2.429196 1_555
Cr1 S5 2.422962 1_555
Cr1 S4 2.422962 1_555
Cr1 S2 2.422962 1_555
Cr1 S1 2.422962 1_555
Cr1 S3 2.422962 1_555
Cr1 S0 2.422962 1_555
Cr2 S2 2.406546 1_544
Cr2 S1 2.406546 1_455
Cr2 S4 2.406546 1_545
Cr2 S5 2.406546 1_454
Cr2 S0 2.406547 1_445
Cr2 S3 2.406547 1_554
Cr3 S0 2.385824 1_545
Cr3 S2 2.385825 1_554
Cr3 S5 2.385825 1_455
Cr3 S4 2.429195 1_555
Cr3 S3 2.429196 1_555
Cr3 S1 2.429196 1_555
