# generated using pymatgen
data_Mg15Si2Ir5
_symmetry_space_group_name_H-M   'P 1'
_cell_length_a   13.77835500
_cell_length_b   13.77835500
_cell_length_c   8.80872500
_cell_angle_alpha   90.00000000
_cell_angle_beta   90.00000000
_cell_angle_gamma   90.00000000
_symmetry_Int_Tables_number   1
_chemical_formula_structural   Mg15Si2Ir5
_chemical_formula_sum   'Mg60 Si8 Ir20'
_cell_volume   1672.27536601
_cell_formula_units_Z   4
loop_
 _symmetry_equiv_pos_site_id
 _symmetry_equiv_pos_as_xyz
  1  'x, y, z'
loop_
 _atom_site_type_symbol
 _atom_site_label
 _atom_site_symmetry_multiplicity
 _atom_site_fract_x
 _atom_site_fract_y
 _atom_site_fract_z
 _atom_site_occupancy
  Mg  Mg0  1  0.49402000  0.98339300  0.65807700  1
  Mg  Mg1  1  0.61890800  0.68906800  0.97433600  1
  Mg  Mg2  1  0.66341700  0.87850400  0.18488400  1
  Mg  Mg3  1  0.19404500  0.41045800  0.14390100  1
  Mg  Mg4  1  0.00598000  0.51660700  0.65807700  1
  Mg  Mg5  1  0.41045800  0.30595500  0.35609900  1
  Mg  Mg6  1  0.54700300  0.19698800  0.86105400  1
  Mg  Mg7  1  0.69698800  0.45299700  0.36105400  1
  Mg  Mg8  1  0.04700300  0.69698800  0.13894600  1
  Mg  Mg9  1  0.81093200  0.61890800  0.52566400  1
  Mg  Mg10  1  0.99402000  0.48339300  0.34192300  1
  Mg  Mg11  1  0.11890800  0.18906800  0.02566400  1
  Mg  Mg12  1  0.50598000  0.01660700  0.34192300  1
  Mg  Mg13  1  0.19698800  0.95299700  0.63894600  1
  Mg  Mg14  1  0.17748200  0.61822400  0.38462300  1
  Mg  Mg15  1  0.38109200  0.31093200  0.02566400  1
  Mg  Mg16  1  0.58954200  0.69404500  0.64390100  1
  Mg  Mg17  1  0.88114100  0.17794200  0.61168300  1
  Mg  Mg18  1  0.45299700  0.80301200  0.13894600  1
  Mg  Mg19  1  0.98339300  0.00598000  0.84192300  1
  Mg  Mg20  1  0.69404500  0.91045800  0.85609900  1
  Mg  Mg21  1  0.01660700  0.99402000  0.15807700  1
  Mg  Mg22  1  0.37850400  0.33658300  0.68488400  1
  Mg  Mg23  1  0.50000000  0.50000000  0.50000000  1
  Mg  Mg24  1  0.31093200  0.11890800  0.47433600  1
  Mg  Mg25  1  0.68906800  0.88109200  0.52566400  1
  Mg  Mg26  1  0.08954200  0.19404500  0.35609900  1
  Mg  Mg27  1  0.33658300  0.12149600  0.81511600  1
  Mg  Mg28  1  0.82205800  0.38114100  0.11168300  1
  Mg  Mg29  1  0.32251800  0.88177600  0.38462300  1
  Mg  Mg30  1  0.95299700  0.30301200  0.86105400  1
  Mg  Mg31  1  0.61885900  0.32205800  0.61168300  1
  Mg  Mg32  1  0.16341700  0.37850400  0.81511600  1
  Mg  Mg33  1  0.88109200  0.81093200  0.97433600  1
  Mg  Mg34  1  0.61822400  0.32251800  0.11537700  1
  Mg  Mg35  1  0.30595500  0.08954200  0.14390100  1
  Mg  Mg36  1  0.83658300  0.62149600  0.18488400  1
  Mg  Mg37  1  0.82251800  0.38177600  0.61537700  1
  Mg  Mg38  1  0.50000000  0.00000000  0.00000000  1
  Mg  Mg39  1  0.00000000  0.50000000  0.00000000  1
  Mg  Mg40  1  0.11885900  0.82205800  0.38831700  1
  Mg  Mg41  1  0.80595500  0.58954200  0.85609900  1
  Mg  Mg42  1  0.48339300  0.50598000  0.15807700  1
  Mg  Mg43  1  0.30301200  0.54700300  0.63894600  1
  Mg  Mg44  1  0.32205800  0.88114100  0.88831700  1
  Mg  Mg45  1  0.62149600  0.66341700  0.31511600  1
  Mg  Mg46  1  0.88177600  0.17748200  0.11537700  1
  Mg  Mg47  1  0.67794200  0.11885900  0.11168300  1
  Mg  Mg48  1  0.17794200  0.61885900  0.88831700  1
  Mg  Mg49  1  0.51660700  0.49402000  0.84192300  1
  Mg  Mg50  1  0.38114100  0.67794200  0.38831700  1
  Mg  Mg51  1  0.12149600  0.16341700  0.68488400  1
  Mg  Mg52  1  0.18906800  0.38109200  0.47433600  1
  Mg  Mg53  1  0.00000000  0.00000000  0.50000000  1
  Mg  Mg54  1  0.91045800  0.80595500  0.64390100  1
  Mg  Mg55  1  0.80301200  0.04700300  0.36105400  1
  Mg  Mg56  1  0.38177600  0.67748200  0.88462300  1
  Mg  Mg57  1  0.87850400  0.83658300  0.31511600  1
  Mg  Mg58  1  0.67748200  0.11822400  0.61537700  1
  Mg  Mg59  1  0.11822400  0.82251800  0.88462300  1
  Si  Si0  1  0.58417800  0.20212300  0.36509100  1
  Si  Si1  1  0.20212300  0.91582200  0.13490900  1
  Si  Si2  1  0.79787700  0.08417800  0.86509100  1
  Si  Si3  1  0.41582200  0.79787700  0.63490900  1
  Si  Si4  1  0.91582200  0.29787700  0.36509100  1
  Si  Si5  1  0.08417800  0.70212300  0.63490900  1
  Si  Si6  1  0.70212300  0.41582200  0.86509100  1
  Si  Si7  1  0.29787700  0.58417800  0.13490900  1
  Ir  Ir0  1  0.17009100  0.01458000  0.34853600  1
  Ir  Ir1  1  0.51805000  0.82575200  0.42453500  1
  Ir  Ir2  1  0.01805000  0.32575200  0.57546500  1
  Ir  Ir3  1  0.75000000  0.25000000  0.36351800  1
  Ir  Ir4  1  0.17424800  0.01805000  0.92453500  1
  Ir  Ir5  1  0.25000000  0.75000000  0.63648200  1
  Ir  Ir6  1  0.32575200  0.48195000  0.92453500  1
  Ir  Ir7  1  0.98195000  0.67424800  0.42453500  1
  Ir  Ir8  1  0.67009100  0.51458000  0.65146400  1
  Ir  Ir9  1  0.67424800  0.51805000  0.07546500  1
  Ir  Ir10  1  0.48195000  0.17424800  0.57546500  1
  Ir  Ir11  1  0.48542000  0.17009100  0.15146400  1
  Ir  Ir12  1  0.82575200  0.98195000  0.07546500  1
  Ir  Ir13  1  0.51458000  0.82990900  0.84853600  1
  Ir  Ir14  1  0.32990900  0.48542000  0.34853600  1
  Ir  Ir15  1  0.25000000  0.75000000  0.13648200  1
  Ir  Ir16  1  0.82990900  0.98542000  0.65146400  1
  Ir  Ir17  1  0.01458000  0.32990900  0.15146400  1
  Ir  Ir18  1  0.98542000  0.67009100  0.84853600  1
  Ir  Ir19  1  0.75000000  0.25000000  0.86351800  1
loop_
_geom_bond_atom_site_label_1
_geom_bond_atom_site_label_2
_geom_bond_distance
_geom_bond_site_symmetry_2
Mg0 Si3 2.781402 1_555
Mg3 Si7 2.789658 1_555
Mg4 Si5 2.781402 1_555
Mg5 Si0 2.789658 1_555
Mg10 Si4 2.781402 1_555
Mg12 Si0 2.781402 1_555
Mg14 Si7 2.794697 1_555
Mg14 Si5 2.801736 1_555
Mg16 Si3 2.789658 1_555
Mg17 Si4 2.770812 1_555
Mg17 Si2 2.822751 1_555
Mg19 Si2 2.781402 1_555
Mg20 Si2 2.789658 1_565
Mg21 Si1 2.781402 1_555
Mg26 Si4 2.789658 1_455
Mg28 Si6 2.770812 1_554
Mg28 Si4 2.822751 1_555
Mg29 Si1 2.794697 1_555
Mg29 Si3 2.801736 1_555
Mg31 Si0 2.770812 1_555
Mg31 Si6 2.822751 1_555
Mg34 Si0 2.794697 1_555
Mg34 Si6 2.801736 1_554
Mg35 Si1 2.789658 1_545
Mg37 Si6 2.794697 1_555
Mg37 Si4 2.801736 1_555
Mg40 Si5 2.770812 1_555
Mg40 Si1 2.822751 1_555
Mg41 Si6 2.789658 1_555
Mg42 Si7 2.781402 1_555
Mg44 Si1 2.770812 1_556
Mg44 Si3 2.822751 1_555
Mg46 Si4 2.794697 1_555
Mg46 Si2 2.801736 1_554
Mg47 Si2 2.770812 1_554
Mg47 Si0 2.822751 1_555
Mg48 Si7 2.770812 1_556
Mg48 Si5 2.822751 1_555
Mg49 Si6 2.781402 1_555
Mg50 Si3 2.770812 1_555
Mg50 Si7 2.822751 1_555
Mg54 Si5 2.789658 1_655
Mg56 Si3 2.794697 1_555
Mg56 Si7 2.801736 1_556
Mg58 Si2 2.794697 1_555
Mg58 Si0 2.801736 1_555
Mg59 Si5 2.794697 1_555
Mg59 Si1 2.801736 1_556
Ir0 Si1 2.363780 1_545
Ir0 Mg24 2.657075 1_555
Ir0 Mg53 2.704219 1_555
Ir0 Mg26 2.711194 1_555
Ir0 Mg21 2.714245 1_545
Ir0 Mg13 2.720552 1_545
Ir0 Mg40 2.767229 1_545
Ir0 Mg35 2.796493 1_555
Ir0 Mg29 2.803588 1_545
Ir1 Si3 2.359143 1_555
Ir1 Mg25 2.631981 1_555
Ir1 Mg18 2.688900 1_555
Ir1 Mg12 2.733563 1_565
Ir1 Mg50 2.794256 1_555
Ir1 Mg45 2.821947 1_555
Ir1 Mg29 2.824480 1_555
Ir1 Mg16 2.827964 1_555
Ir1 Mg2 2.999396 1_555
Ir1 Mg0 3.009893 1_555
Ir2 Si4 2.359143 1_455
Ir2 Mg52 2.631981 1_555
Ir2 Mg30 2.688900 1_455
Ir2 Mg4 2.733563 1_555
Ir2 Mg17 2.794256 1_455
Ir2 Mg51 2.821947 1_555
Ir2 Mg37 2.824480 1_455
Ir2 Mg26 2.827964 1_555
Ir2 Mg32 2.999396 1_555
Ir2 Mg10 3.009893 1_455
Ir3 Si0 2.378120 1_555
Ir3 Si4 2.378120 1_555
Ir3 Mg7 2.890846 1_555
Ir3 Mg55 2.890846 1_555
Ir3 Mg17 3.004882 1_555
Ir3 Mg31 3.004882 1_555
Ir3 Mg46 3.012095 1_555
Ir3 Mg34 3.012095 1_555
Ir3 Mg28 3.028482 1_555
Ir3 Mg47 3.028482 1_555
Ir3 Mg58 3.035945 1_555
Ir3 Mg37 3.035945 1_555
Ir4 Si1 2.359143 1_546
Ir4 Mg11 2.631981 1_556
Ir4 Mg13 2.688900 1_545
Ir4 Mg19 2.733563 1_455
Ir4 Mg44 2.794256 1_545
Ir4 Mg27 2.821947 1_555
Ir4 Mg59 2.824480 1_545
Ir4 Mg35 2.827964 1_556
Ir4 Mg51 2.999396 1_555
Ir4 Mg21 3.009893 1_546
Ir5 Si5 2.378120 1_555
Ir5 Si3 2.378120 1_555
Ir5 Mg43 2.890846 1_555
Ir5 Mg13 2.890846 1_555
Ir5 Mg40 3.004882 1_555
Ir5 Mg50 3.004882 1_555
Ir5 Mg59 3.012095 1_555
Ir5 Mg56 3.012095 1_555
Ir5 Mg44 3.028482 1_555
Ir5 Mg48 3.028482 1_555
Ir5 Mg14 3.035945 1_555
Ir5 Mg29 3.035945 1_555
Ir6 Si7 2.359143 1_556
Ir6 Mg15 2.631981 1_556
Ir6 Mg43 2.688900 1_555
Ir6 Mg49 2.733563 1_555
Ir6 Mg48 2.794256 1_555
Ir6 Mg32 2.821947 1_555
Ir6 Mg56 2.824480 1_555
Ir6 Mg3 2.827964 1_556
Ir6 Mg22 2.999396 1_555
Ir6 Mg42 3.009893 1_556
Ir7 Si5 2.359143 1_655
Ir7 Mg9 2.631981 1_555
Ir7 Mg8 2.688900 1_655
Ir7 Mg10 2.733563 1_555
Ir7 Mg40 2.794256 1_655
Ir7 Mg57 2.821947 1_555
Ir7 Mg14 2.824480 1_655
Ir7 Mg54 2.827964 1_555
Ir7 Mg36 2.999396 1_555
Ir7 Mg4 3.009893 1_655
Ir8 Si6 2.363780 1_555
Ir8 Mg9 2.657075 1_555
Ir8 Mg23 2.704219 1_555
Ir8 Mg16 2.711194 1_555
Ir8 Mg49 2.714245 1_555
Ir8 Mg7 2.720552 1_555
Ir8 Mg31 2.767229 1_555
Ir8 Mg41 2.796493 1_555
Ir8 Mg37 2.803588 1_555
Ir9 Si6 2.359143 1_554
Ir9 Mg1 2.631981 1_554
Ir9 Mg7 2.688900 1_555
Ir9 Mg42 2.733563 1_555
Ir9 Mg28 2.794256 1_555
Ir9 Mg36 2.821947 1_555
Ir9 Mg34 2.824480 1_555
Ir9 Mg41 2.827964 1_554
Ir9 Mg45 2.999396 1_555
Ir9 Mg49 3.009893 1_554
Ir10 Si0 2.359143 1_555
Ir10 Mg24 2.631981 1_555
Ir10 Mg6 2.688900 1_555
Ir10 Mg0 2.733563 1_545
Ir10 Mg31 2.794256 1_555
Ir10 Mg22 2.821947 1_555
Ir10 Mg58 2.824480 1_555
Ir10 Mg5 2.827964 1_555
Ir10 Mg27 2.999396 1_555
Ir10 Mg12 3.009893 1_555
Ir11 Si0 2.363780 1_555
Ir11 Mg15 2.657075 1_555
Ir11 Mg38 2.704219 1_555
Ir11 Mg35 2.711194 1_555
Ir11 Mg12 2.714245 1_555
Ir11 Mg6 2.720552 1_554
Ir11 Mg47 2.767229 1_555
Ir11 Mg5 2.796493 1_555
Ir11 Mg34 2.803588 1_555
Ir12 Si2 2.359143 1_564
Ir12 Mg33 2.631981 1_554
Ir12 Mg55 2.688900 1_565
Ir12 Mg21 2.733563 1_655
Ir12 Mg47 2.794256 1_565
Ir12 Mg2 2.821947 1_555
Ir12 Mg46 2.824480 1_565
Ir12 Mg20 2.827964 1_554
Ir12 Mg57 2.999396 1_555
Ir12 Mg19 3.009893 1_564
Ir13 Si3 2.363780 1_555
Ir13 Mg1 2.657075 1_555
Ir13 Mg38 2.704219 1_566
Ir13 Mg20 2.711194 1_555
Ir13 Mg0 2.714245 1_555
Ir13 Mg18 2.720552 1_556
Ir13 Mg44 2.767229 1_555
Ir13 Mg16 2.796493 1_555
Ir13 Mg56 2.803588 1_555
Ir14 Si7 2.363780 1_555
Ir14 Mg52 2.657075 1_555
Ir14 Mg23 2.704219 1_555
Ir14 Mg5 2.711194 1_555
Ir14 Mg42 2.714245 1_555
Ir14 Mg43 2.720552 1_555
Ir14 Mg50 2.767229 1_555
Ir14 Mg3 2.796493 1_555
Ir14 Mg14 2.803588 1_555
Ir15 Si7 2.378120 1_555
Ir15 Si1 2.378120 1_555
Ir15 Mg8 2.890846 1_555
Ir15 Mg18 2.890846 1_555
Ir15 Mg44 3.004882 1_554
Ir15 Mg48 3.004882 1_554
Ir15 Mg14 3.012095 1_555
Ir15 Mg29 3.012095 1_555
Ir15 Mg40 3.028482 1_555
Ir15 Mg50 3.028482 1_555
Ir15 Mg56 3.035945 1_554
Ir15 Mg59 3.035945 1_554
Ir16 Si2 2.363780 1_565
Ir16 Mg25 2.657075 1_555
Ir16 Mg53 2.704219 1_665
Ir16 Mg54 2.711194 1_555
Ir16 Mg19 2.714245 1_565
Ir16 Mg55 2.720552 1_565
Ir16 Mg17 2.767229 1_565
Ir16 Mg20 2.796493 1_555
Ir16 Mg58 2.803588 1_565
Ir17 Si4 2.363780 1_455
Ir17 Mg11 2.657075 1_555
Ir17 Mg39 2.704219 1_555
Ir17 Mg3 2.711194 1_555
Ir17 Mg10 2.714245 1_455
Ir17 Mg30 2.720552 1_454
Ir17 Mg28 2.767229 1_455
Ir17 Mg26 2.796493 1_555
Ir17 Mg46 2.803588 1_455
Ir18 Si5 2.363780 1_655
Ir18 Mg33 2.657075 1_555
Ir18 Mg39 2.704219 1_656
Ir18 Mg41 2.711194 1_555
Ir18 Mg4 2.714245 1_655
Ir18 Mg8 2.720552 1_656
Ir18 Mg48 2.767229 1_655
Ir18 Mg54 2.796493 1_555
Ir18 Mg59 2.803588 1_655
Ir19 Si2 2.378120 1_555
Ir19 Si6 2.378120 1_555
Ir19 Mg30 2.890846 1_555
Ir19 Mg6 2.890846 1_555
Ir19 Mg28 3.004882 1_556
Ir19 Mg47 3.004882 1_556
Ir19 Mg37 3.012095 1_555
Ir19 Mg58 3.012095 1_555
Ir19 Mg31 3.028482 1_555
Ir19 Mg17 3.028482 1_555
Ir19 Mg46 3.035945 1_556
Ir19 Mg34 3.035945 1_556
