# generated using pymatgen
data_Eu3BeO5
_symmetry_space_group_name_H-M   'P 1'
_cell_length_a   6.49325617
_cell_length_b   7.18816757
_cell_length_c   9.44272114
_cell_angle_alpha   90.00000000
_cell_angle_beta   90.00000000
_cell_angle_gamma   90.00000000
_symmetry_Int_Tables_number   1
_chemical_formula_structural   Eu3BeO5
_chemical_formula_sum   'Eu12 Be4 O20'
_cell_volume   440.73535889
_cell_formula_units_Z   4
loop_
 _symmetry_equiv_pos_site_id
 _symmetry_equiv_pos_as_xyz
  1  'x, y, z'
loop_
 _atom_site_type_symbol
 _atom_site_label
 _atom_site_symmetry_multiplicity
 _atom_site_fract_x
 _atom_site_fract_y
 _atom_site_fract_z
 _atom_site_occupancy
  Eu  Eu0  1  0.40865239  0.75000000  0.97762404  1
  Eu  Eu1  1  0.91868861  0.52108706  0.82834846  1
  Eu  Eu2  1  0.41868861  0.02108706  0.67165154  1
  Eu  Eu3  1  0.58131139  0.97891294  0.32834846  1
  Eu  Eu4  1  0.08131139  0.47891294  0.17165154  1
  Eu  Eu5  1  0.41868861  0.47891294  0.67165154  1
  Eu  Eu6  1  0.09134761  0.75000000  0.47762404  1
  Eu  Eu7  1  0.91868861  0.97891294  0.82834846  1
  Eu  Eu8  1  0.59134761  0.25000000  0.02237596  1
  Eu  Eu9  1  0.58131139  0.52108706  0.32834846  1
  Eu  Eu10  1  0.90865239  0.25000000  0.52237596  1
  Eu  Eu11  1  0.08131139  0.02108706  0.17165154  1
  Be  Be0  1  0.19321136  0.25000000  0.89782360  1
  Be  Be1  1  0.80678864  0.75000000  0.10217640  1
  Be  Be2  1  0.30678864  0.25000000  0.39782360  1
  Be  Be3  1  0.69321136  0.75000000  0.60217640  1
  O  O0  1  0.13668073  0.25000000  0.72476198  1
  O  O1  1  0.30510992  0.44362511  0.93094682  1
  O  O2  1  0.83744322  0.25000000  0.27806918  1
  O  O3  1  0.66255678  0.25000000  0.77806918  1
  O  O4  1  0.69489008  0.94362511  0.06905318  1
  O  O5  1  0.30510992  0.05637489  0.93094682  1
  O  O6  1  0.36331927  0.25000000  0.22476198  1
  O  O7  1  0.47852832  0.75000000  0.51062709  1
  O  O8  1  0.86331927  0.75000000  0.27523802  1
  O  O9  1  0.33744322  0.75000000  0.22193082  1
  O  O10  1  0.02147168  0.75000000  0.01062709  1
  O  O11  1  0.80510992  0.55637489  0.56905318  1
  O  O12  1  0.52147168  0.25000000  0.48937291  1
  O  O13  1  0.16255678  0.75000000  0.72193082  1
  O  O14  1  0.69489008  0.55637489  0.06905318  1
  O  O15  1  0.19489008  0.44362511  0.43094682  1
  O  O16  1  0.80510992  0.94362511  0.56905318  1
  O  O17  1  0.63668073  0.75000000  0.77523802  1
  O  O18  1  0.97852832  0.25000000  0.98937291  1
  O  O19  1  0.19489008  0.05637489  0.43094682  1
loop_
_geom_bond_atom_site_label_1
_geom_bond_atom_site_label_2
_geom_bond_distance
_geom_bond_site_symmetry_2
Eu0 O1 2.344420 1_555
Eu0 O5 2.344420 1_565
Eu0 O9 2.352802 1_556
Eu0 O17 2.417544 1_555
Eu0 O14 2.477284 1_556
Eu0 O4 2.477284 1_556
Eu0 O10 2.533305 1_556
Eu0 O13 2.895341 1_555
Eu1 O10 2.472958 1_656
Eu1 O13 2.494953 1_655
Eu1 O18 2.502007 1_555
Eu1 O17 2.512403 1_555
Eu1 O11 2.569662 1_555
Eu1 O0 2.599510 1_655
Eu1 O3 2.605480 1_555
Eu1 O14 2.709647 1_556
Eu1 O1 2.746702 1_655
Eu2 O12 2.472958 1_555
Eu2 O3 2.494953 1_555
Eu2 O7 2.502007 1_545
Eu2 O0 2.512403 1_555
Eu2 O5 2.569662 1_555
Eu2 O17 2.599510 1_545
Eu2 O13 2.605480 1_545
Eu2 O19 2.709647 1_555
Eu2 O16 2.746702 1_545
Eu3 O7 2.472958 1_555
Eu3 O9 2.494953 1_555
Eu3 O12 2.502007 1_565
Eu3 O8 2.512403 1_555
Eu3 O4 2.569662 1_555
Eu3 O6 2.599510 1_565
Eu3 O2 2.605480 1_565
Eu3 O16 2.709647 1_555
Eu3 O19 2.746702 1_565
Eu4 O18 2.472958 1_454
Eu4 O2 2.494953 1_455
Eu4 O10 2.502007 1_555
Eu4 O6 2.512403 1_555
Eu4 O15 2.569662 1_555
Eu4 O8 2.599510 1_455
Eu4 O9 2.605480 1_555
Eu4 O1 2.709647 1_554
Eu4 O14 2.746702 1_455
Eu5 O12 2.472958 1_555
Eu5 O3 2.494953 1_555
Eu5 O7 2.502007 1_555
Eu5 O0 2.512403 1_555
Eu5 O1 2.569662 1_555
Eu5 O17 2.599510 1_555
Eu5 O13 2.605480 1_555
Eu5 O15 2.709647 1_555
Eu5 O11 2.746702 1_555
Eu6 O15 2.344420 1_555
Eu6 O19 2.344420 1_565
Eu6 O13 2.352802 1_555
Eu6 O8 2.417544 1_455
Eu6 O11 2.477284 1_455
Eu6 O16 2.477284 1_455
Eu6 O7 2.533305 1_555
Eu6 O9 2.895341 1_555
Eu7 O10 2.472958 1_656
Eu7 O13 2.494953 1_655
Eu7 O18 2.502007 1_565
Eu7 O17 2.512403 1_555
Eu7 O16 2.569662 1_555
Eu7 O0 2.599510 1_665
Eu7 O3 2.605480 1_565
Eu7 O4 2.709647 1_556
Eu7 O5 2.746702 1_665
Eu8 O14 2.344420 1_555
Eu8 O4 2.344420 1_545
Eu8 O3 2.352802 1_554
Eu8 O6 2.417544 1_555
Eu8 O1 2.477284 1_554
Eu8 O5 2.477284 1_554
Eu8 O18 2.533305 1_554
Eu8 O2 2.895341 1_555
Eu9 O7 2.472958 1_555
Eu9 O9 2.494953 1_555
Eu9 O12 2.502007 1_555
Eu9 O8 2.512403 1_555
Eu9 O14 2.569662 1_555
Eu9 O6 2.599510 1_555
Eu9 O2 2.605480 1_555
Eu9 O11 2.709647 1_555
Eu9 O15 2.746702 1_555
Eu10 O16 2.344420 1_545
Eu10 O11 2.344420 1_555
Eu10 O2 2.352802 1_555
Eu10 O0 2.417544 1_655
Eu10 O15 2.477284 1_655
Eu10 O19 2.477284 1_655
Eu10 O12 2.533305 1_555
Eu10 O3 2.895341 1_555
Eu11 O18 2.472958 1_454
Eu11 O2 2.494953 1_455
Eu11 O10 2.502007 1_545
Eu11 O6 2.512403 1_555
Eu11 O19 2.569662 1_555
Eu11 O8 2.599510 1_445
Eu11 O9 2.605480 1_545
Eu11 O5 2.709647 1_554
Eu11 O4 2.746702 1_445
Be0 O1 1.600902 1_555
Be0 O5 1.600902 1_555
Be0 O18 1.640284 1_455
Be0 O0 1.674891 1_555
Be1 O14 1.600902 1_555
Be1 O4 1.600902 1_555
Be1 O10 1.640284 1_655
Be1 O8 1.674891 1_555
Be2 O15 1.600902 1_555
Be2 O19 1.600902 1_555
Be2 O12 1.640284 1_555
Be2 O6 1.674891 1_555
Be3 O11 1.600902 1_555
Be3 O16 1.600902 1_555
Be3 O7 1.640284 1_555
Be3 O17 1.674891 1_555
