# generated using pymatgen
data_CsB5O8
_symmetry_space_group_name_H-M   'P 1'
_cell_length_a   7.78097123
_cell_length_b   12.09525941
_cell_length_c   15.01116560
_cell_angle_alpha   90.00000000
_cell_angle_beta   90.00000000
_cell_angle_gamma   90.00000000
_symmetry_Int_Tables_number   1
_chemical_formula_structural   CsB5O8
_chemical_formula_sum   'Cs8 B40 O64'
_cell_volume   1412.74380894
_cell_formula_units_Z   8
loop_
 _symmetry_equiv_pos_site_id
 _symmetry_equiv_pos_as_xyz
  1  'x, y, z'
loop_
 _atom_site_type_symbol
 _atom_site_label
 _atom_site_symmetry_multiplicity
 _atom_site_fract_x
 _atom_site_fract_y
 _atom_site_fract_z
 _atom_site_occupancy
  Cs  Cs0  1  0.04049476  0.21366129  0.62297797  1
  Cs  Cs1  1  0.54049476  0.21366129  0.87702203  1
  Cs  Cs2  1  0.54049476  0.28633871  0.37702203  1
  Cs  Cs3  1  0.45950524  0.78633871  0.12297797  1
  Cs  Cs4  1  0.04049476  0.28633871  0.12297797  1
  Cs  Cs5  1  0.95950524  0.71366129  0.87702203  1
  Cs  Cs6  1  0.45950524  0.71366129  0.62297797  1
  Cs  Cs7  1  0.95950524  0.78633871  0.37702203  1
  B  B0  1  0.96625766  0.72891842  0.62493053  1
  B  B1  1  0.52167888  0.96853359  0.33913940  1
  B  B2  1  0.43352934  0.90382376  0.79214473  1
  B  B3  1  0.93352934  0.59617624  0.20785527  1
  B  B4  1  0.47832112  0.46853359  0.16086060  1
  B  B5  1  0.61369224  0.90382355  0.91963959  1
  B  B6  1  0.47832112  0.03146641  0.66086060  1
  B  B7  1  0.11369224  0.90382355  0.58036041  1
  B  B8  1  0.97832112  0.46853359  0.33913940  1
  B  B9  1  0.67666483  0.07361033  0.54444017  1
  B  B10  1  0.88630776  0.09617645  0.41963959  1
  B  B11  1  0.46625766  0.72891842  0.87506947  1
  B  B12  1  0.96625766  0.77108158  0.12493053  1
  B  B13  1  0.02167888  0.53146641  0.66086060  1
  B  B14  1  0.93352934  0.90382376  0.70785527  1
  B  B15  1  0.56647066  0.09617624  0.20785527  1
  B  B16  1  0.82333517  0.92638967  0.04444017  1
  B  B17  1  0.97832112  0.03146641  0.83913940  1
  B  B18  1  0.11369224  0.59617645  0.08036041  1
  B  B19  1  0.53374234  0.22891842  0.62493053  1
  B  B20  1  0.32333517  0.92638967  0.45555983  1
  B  B21  1  0.06647066  0.09617624  0.29214473  1
  B  B22  1  0.67666483  0.42638967  0.04444017  1
  B  B23  1  0.82333517  0.57361033  0.54444017  1
  B  B24  1  0.03374234  0.22891842  0.87506947  1
  B  B25  1  0.38630776  0.09617645  0.08036041  1
  B  B26  1  0.53374234  0.27108158  0.12493053  1
  B  B27  1  0.06647066  0.40382376  0.79214473  1
  B  B28  1  0.61369224  0.59617645  0.41963959  1
  B  B29  1  0.02167888  0.96853359  0.16086060  1
  B  B30  1  0.56647066  0.40382376  0.70785527  1
  B  B31  1  0.03374234  0.27108158  0.37506947  1
  B  B32  1  0.52167888  0.53146641  0.83913940  1
  B  B33  1  0.32333517  0.57361033  0.95555983  1
  B  B34  1  0.38630776  0.40382355  0.58036041  1
  B  B35  1  0.88630776  0.40382355  0.91963959  1
  B  B36  1  0.17666483  0.07361033  0.95555983  1
  B  B37  1  0.17666483  0.42638967  0.45555983  1
  B  B38  1  0.46625766  0.77108158  0.37506947  1
  B  B39  1  0.43352934  0.59617624  0.29214473  1
  O  O0  1  0.21551918  0.53593549  0.02242596  1
  O  O1  1  0.94462142  0.13936663  0.82615391  1
  O  O2  1  0.09174774  0.50514807  0.40478235  1
  O  O3  1  0.94462142  0.36063337  0.32615391  1
  O  O4  1  0.15787031  0.31773958  0.43812934  1
  O  O5  1  0.84212969  0.68226042  0.56187066  1
  O  O6  1  0.44462142  0.13936663  0.67384609  1
  O  O7  1  0.96818779  0.03687416  0.35293398  1
  O  O8  1  0.44462142  0.36063337  0.17384609  1
  O  O9  1  0.34212969  0.81773958  0.43812934  1
  O  O10  1  0.28448082  0.03593549  0.02242596  1
  O  O11  1  0.39966023  0.55012204  0.21076070  1
  O  O12  1  0.59300874  0.79353643  0.92610856  1
  O  O13  1  0.10033977  0.05012204  0.21076070  1
  O  O14  1  0.55537858  0.63936663  0.82615391  1
  O  O15  1  0.09300874  0.70646357  0.07389144  1
  O  O16  1  0.40825226  0.00514807  0.40478235  1
  O  O17  1  0.59300874  0.70646357  0.42610856  1
  O  O18  1  0.12116922  0.30006520  0.80976268  1
  O  O19  1  0.05537858  0.63936663  0.67384609  1
  O  O20  1  0.62116922  0.30006520  0.69023732  1
  O  O21  1  0.05537858  0.86063337  0.17384609  1
  O  O22  1  0.89966023  0.55012204  0.28923930  1
  O  O23  1  0.90825226  0.49485193  0.59521765  1
  O  O24  1  0.59174774  0.99485193  0.59521765  1
  O  O25  1  0.37883078  0.69993480  0.30976268  1
  O  O26  1  0.55537858  0.86063337  0.32615391  1
  O  O27  1  0.34212969  0.68226042  0.93812934  1
  O  O28  1  0.53181221  0.53687416  0.35293398  1
  O  O29  1  0.84212969  0.81773958  0.06187066  1
  O  O30  1  0.60033977  0.44987796  0.78923930  1
  O  O31  1  0.03181221  0.96312584  0.64706602  1
  O  O32  1  0.10033977  0.44987796  0.71076070  1
  O  O33  1  0.90699126  0.20646357  0.42610856  1
  O  O34  1  0.65787031  0.18226042  0.56187066  1
  O  O35  1  0.40699126  0.29353643  0.57389144  1
  O  O36  1  0.78448082  0.46406451  0.97757404  1
  O  O37  1  0.90699126  0.29353643  0.92610856  1
  O  O38  1  0.59174774  0.50514807  0.09521765  1
  O  O39  1  0.78448082  0.03593549  0.47757404  1
  O  O40  1  0.90825226  0.00514807  0.09521765  1
  O  O41  1  0.46818779  0.46312584  0.64706602  1
  O  O42  1  0.71551918  0.96406451  0.97757404  1
  O  O43  1  0.40699126  0.20646357  0.07389144  1
  O  O44  1  0.71551918  0.53593549  0.47757404  1
  O  O45  1  0.09300874  0.79353643  0.57389144  1
  O  O46  1  0.87883078  0.69993480  0.19023732  1
  O  O47  1  0.39966023  0.94987796  0.71076070  1
  O  O48  1  0.53181221  0.96312584  0.85293398  1
  O  O49  1  0.65787031  0.31773958  0.06187066  1
  O  O50  1  0.60033977  0.05012204  0.28923930  1
  O  O51  1  0.62116922  0.19993480  0.19023732  1
  O  O52  1  0.03181221  0.53687416  0.14706602  1
  O  O53  1  0.87883078  0.80006520  0.69023732  1
  O  O54  1  0.28448082  0.46406451  0.52242596  1
  O  O55  1  0.40825226  0.49485193  0.90478235  1
  O  O56  1  0.15787031  0.18226042  0.93812934  1
  O  O57  1  0.12116922  0.19993480  0.30976268  1
  O  O58  1  0.09174774  0.99485193  0.90478235  1
  O  O59  1  0.37883078  0.80006520  0.80976268  1
  O  O60  1  0.89966023  0.94987796  0.78923930  1
  O  O61  1  0.96818779  0.46312584  0.85293398  1
  O  O62  1  0.46818779  0.03687416  0.14706602  1
  O  O63  1  0.21551918  0.96406451  0.52242596  1
loop_
_geom_bond_atom_site_label_1
_geom_bond_atom_site_label_2
_geom_bond_distance
_geom_bond_site_symmetry_2
Cs0 O31 3.052536 1_545
Cs0 O18 3.057423 1_555
Cs0 O35 3.099758 1_555
Cs0 O33 3.133703 1_455
Cs0 O34 3.138365 1_455
Cs0 O32 3.180606 1_555
Cs0 O4 3.180928 1_555
Cs0 O1 3.265875 1_455
Cs0 O6 3.358339 1_555
Cs0 O20 3.571717 1_455
Cs0 O23 3.577673 1_455
Cs0 O63 3.639635 1_545
Cs1 O48 3.052536 1_545
Cs1 O20 3.057423 1_555
Cs1 O37 3.099758 1_555
Cs1 O43 3.133703 1_556
Cs1 O56 3.138365 1_555
Cs1 O30 3.180606 1_555
Cs1 O49 3.180928 1_556
Cs1 O6 3.265875 1_555
Cs1 O1 3.358339 1_555
Cs1 O18 3.571717 1_555
Cs1 O55 3.577673 1_555
Cs1 O42 3.639635 1_545
Cs2 O28 3.052536 1_555
Cs2 O51 3.057423 1_555
Cs2 O33 3.099758 1_555
Cs2 O35 3.133703 1_555
Cs2 O4 3.138365 1_555
Cs2 O50 3.180606 1_555
Cs2 O34 3.180928 1_555
Cs2 O8 3.265875 1_555
Cs2 O3 3.358339 1_555
Cs2 O57 3.571717 1_555
Cs2 O16 3.577673 1_555
Cs2 O44 3.639635 1_555
Cs3 O62 3.052536 1_565
Cs3 O25 3.057423 1_555
Cs3 O15 3.099758 1_555
Cs3 O12 3.133703 1_554
Cs3 O29 3.138365 1_555
Cs3 O11 3.180606 1_555
Cs3 O27 3.180928 1_554
Cs3 O26 3.265875 1_555
Cs3 O21 3.358339 1_555
Cs3 O46 3.571717 1_555
Cs3 O38 3.577673 1_555
Cs3 O10 3.639635 1_565
Cs4 O52 3.052536 1_555
Cs4 O57 3.057423 1_555
Cs4 O43 3.099758 1_555
Cs4 O37 3.133703 1_454
Cs4 O49 3.138365 1_455
Cs4 O13 3.180606 1_555
Cs4 O56 3.180928 1_554
Cs4 O3 3.265875 1_455
Cs4 O8 3.358339 1_555
Cs4 O51 3.571717 1_455
Cs4 O40 3.577673 1_455
Cs4 O0 3.639635 1_555
Cs5 O61 3.052536 1_555
Cs5 O53 3.057423 1_555
Cs5 O12 3.099758 1_555
Cs5 O15 3.133703 1_656
Cs5 O27 3.138365 1_655
Cs5 O60 3.180606 1_555
Cs5 O29 3.180928 1_556
Cs5 O19 3.265875 1_655
Cs5 O14 3.358339 1_555
Cs5 O59 3.571717 1_655
Cs5 O58 3.577673 1_655
Cs5 O36 3.639635 1_555
Cs6 O41 3.052536 1_555
Cs6 O59 3.057423 1_555
Cs6 O45 3.099758 1_555
Cs6 O17 3.133703 1_555
Cs6 O5 3.138365 1_555
Cs6 O47 3.180606 1_555
Cs6 O9 3.180928 1_555
Cs6 O14 3.265875 1_555
Cs6 O19 3.358339 1_555
Cs6 O53 3.571717 1_555
Cs6 O24 3.577673 1_555
Cs6 O54 3.639635 1_555
Cs7 O7 3.052536 1_565
Cs7 O46 3.057423 1_555
Cs7 O17 3.099758 1_555
Cs7 O45 3.133703 1_655
Cs7 O9 3.138365 1_655
Cs7 O22 3.180606 1_555
Cs7 O5 3.180928 1_555
Cs7 O21 3.265875 1_655
Cs7 O26 3.358339 1_555
Cs7 O25 3.571717 1_655
Cs7 O2 3.577673 1_655
Cs7 O39 3.639635 1_565
B0 O5 1.465393 1_555
B0 O53 1.471169 1_555
B0 O45 1.473272 1_655
B0 O19 1.480964 1_655
B1 O26 1.345359 1_555
B1 O50 1.381863 1_565
B1 O16 1.394999 1_565
B2 O59 1.351324 1_555
B2 O47 1.368290 1_555
B2 O48 1.389961 1_555
B3 O46 1.351324 1_555
B3 O22 1.368290 1_555
B3 O52 1.389961 1_655
B4 O8 1.345359 1_555
B4 O11 1.381863 1_555
B4 O38 1.394999 1_555
B5 O12 1.347129 1_555
B5 O42 1.383826 1_555
B5 O48 1.386741 1_555
B6 O6 1.345359 1_555
B6 O47 1.381863 1_545
B6 O24 1.394999 1_545
B7 O45 1.347129 1_555
B7 O63 1.383826 1_555
B7 O31 1.386741 1_555
B8 O3 1.345359 1_555
B8 O22 1.381863 1_555
B8 O2 1.394999 1_655
B9 O34 1.347902 1_555
B9 O39 1.385250 1_555
B9 O24 1.387451 1_545
B10 O33 1.347129 1_555
B10 O39 1.383826 1_555
B10 O7 1.386741 1_555
B11 O27 1.465393 1_555
B11 O59 1.471169 1_555
B11 O12 1.473272 1_555
B11 O14 1.480964 1_555
B12 O29 1.465393 1_555
B12 O46 1.471169 1_555
B12 O15 1.473272 1_655
B12 O21 1.480964 1_655
B13 O19 1.345359 1_555
B13 O32 1.381863 1_555
B13 O23 1.394999 1_455
B14 O53 1.351324 1_555
B14 O60 1.368290 1_555
B14 O31 1.389961 1_655
B15 O51 1.351324 1_555
B15 O50 1.368290 1_555
B15 O62 1.389961 1_555
B16 O29 1.347902 1_555
B16 O42 1.385250 1_554
B16 O40 1.387451 1_565
B17 O1 1.345359 1_555
B17 O60 1.381863 1_545
B17 O58 1.394999 1_645
B18 O15 1.347129 1_555
B18 O0 1.383826 1_555
B18 O52 1.386741 1_555
B19 O34 1.465393 1_555
B19 O20 1.471169 1_555
B19 O35 1.473272 1_555
B19 O6 1.480964 1_555
B20 O9 1.347902 1_555
B20 O63 1.385250 1_555
B20 O16 1.387451 1_565
B21 O57 1.351324 1_555
B21 O13 1.368290 1_555
B21 O7 1.389961 1_455
B22 O49 1.347902 1_555
B22 O36 1.385250 1_554
B22 O38 1.387451 1_555
B23 O5 1.347902 1_555
B23 O44 1.385250 1_555
B23 O23 1.387451 1_555
B24 O56 1.465393 1_555
B24 O18 1.471169 1_555
B24 O37 1.473272 1_455
B24 O1 1.480964 1_455
B25 O43 1.347129 1_555
B25 O10 1.383826 1_555
B25 O62 1.386741 1_555
B26 O49 1.465393 1_555
B26 O51 1.471169 1_555
B26 O43 1.473272 1_555
B26 O8 1.480964 1_555
B27 O18 1.351324 1_555
B27 O32 1.368290 1_555
B27 O61 1.389961 1_455
B28 O17 1.347129 1_555
B28 O44 1.383826 1_555
B28 O28 1.386741 1_555
B29 O21 1.345359 1_555
B29 O13 1.381863 1_565
B29 O40 1.394999 1_465
B30 O20 1.351324 1_555
B30 O30 1.368290 1_555
B30 O41 1.389961 1_555
B31 O4 1.465393 1_555
B31 O57 1.471169 1_555
B31 O33 1.473272 1_455
B31 O3 1.480964 1_455
B32 O14 1.345359 1_555
B32 O30 1.381863 1_555
B32 O55 1.394999 1_555
B33 O27 1.347902 1_555
B33 O0 1.385250 1_556
B33 O55 1.387451 1_555
B34 O35 1.347129 1_555
B34 O54 1.383826 1_555
B34 O41 1.386741 1_555
B35 O37 1.347129 1_555
B35 O36 1.383826 1_555
B35 O61 1.386741 1_555
B36 O56 1.347902 1_555
B36 O10 1.385250 1_556
B36 O58 1.387451 1_545
B37 O4 1.347902 1_555
B37 O54 1.385250 1_555
B37 O2 1.387451 1_555
B38 O9 1.465393 1_555
B38 O25 1.471169 1_555
B38 O17 1.473272 1_555
B38 O26 1.480964 1_555
B39 O25 1.351324 1_555
B39 O11 1.368290 1_555
B39 O28 1.389961 1_555
