# generated using pymatgen
data_VCu2BiO6
_symmetry_space_group_name_H-M   'P 1'
_cell_length_a   9.21179109
_cell_length_b   9.21179109
_cell_length_c   13.75184951
_cell_angle_alpha   65.09332703
_cell_angle_beta   65.09332703
_cell_angle_gamma   50.45509649
_symmetry_Int_Tables_number   1
_chemical_formula_structural   VCu2BiO6
_chemical_formula_sum   'V6 Cu12 Bi6 O36'
_cell_volume   796.39759455
_cell_formula_units_Z   6
loop_
 _symmetry_equiv_pos_site_id
 _symmetry_equiv_pos_as_xyz
  1  'x, y, z'
loop_
 _atom_site_type_symbol
 _atom_site_label
 _atom_site_symmetry_multiplicity
 _atom_site_fract_x
 _atom_site_fract_y
 _atom_site_fract_z
 _atom_site_occupancy
  V  V0  1  0.34648400  0.34648400  0.46157900  1
  V  V1  1  0.04252500  0.04252500  0.76714100  1
  V  V2  1  0.95747500  0.95747500  0.23285900  1
  V  V3  1  0.65351600  0.65351600  0.53842100  1
  V  V4  1  0.68459000  0.68459000  0.12305200  1
  V  V5  1  0.31541000  0.31541000  0.87694800  1
  Cu  Cu0  1  0.63120900  0.26099300  0.63582600  1
  Cu  Cu1  1  0.28187800  0.92155600  0.97903600  1
  Cu  Cu2  1  0.96347100  0.56088800  0.29787100  1
  Cu  Cu3  1  0.26099300  0.63120900  0.63582600  1
  Cu  Cu4  1  0.07844400  0.71812200  0.02096400  1
  Cu  Cu5  1  0.56088800  0.96347100  0.29787100  1
  Cu  Cu6  1  0.03652900  0.43911200  0.70212900  1
  Cu  Cu7  1  0.73900700  0.36879100  0.36417400  1
  Cu  Cu8  1  0.71812200  0.07844400  0.02096400  1
  Cu  Cu9  1  0.43911200  0.03652900  0.70212900  1
  Cu  Cu10  1  0.36879100  0.73900700  0.36417400  1
  Cu  Cu11  1  0.92155600  0.28187800  0.97903600  1
  Bi  Bi0  1  0.43641400  0.43641400  0.15657700  1
  Bi  Bi1  1  0.78458600  0.78458600  0.83807200  1
  Bi  Bi2  1  0.21541400  0.21541400  0.16192800  1
  Bi  Bi3  1  0.12072700  0.12072700  0.46773200  1
  Bi  Bi4  1  0.56358600  0.56358600  0.84342300  1
  Bi  Bi5  1  0.87927300  0.87927300  0.53226800  1
  O  O0  1  0.19360500  0.19360500  0.93701000  1
  O  O1  1  0.85028500  0.49182900  0.84408500  1
  O  O2  1  0.12598700  0.48047400  0.54400900  1
  O  O3  1  0.47363200  0.83129700  0.08025500  1
  O  O4  1  0.16870300  0.52636800  0.91974500  1
  O  O5  1  0.63382200  0.63382200  0.27075700  1
  O  O6  1  0.32650400  0.67349600  0.00000000  1
  O  O7  1  0.31657900  0.31657900  0.35444300  1
  O  O8  1  0.14971500  0.50817100  0.15591500  1
  O  O9  1  0.68342100  0.68342100  0.64555700  1
  O  O10  1  0.17239800  0.82760200  0.50000000  1
  O  O11  1  0.53371500  0.53371500  0.58978200  1
  O  O12  1  0.32025100  0.99573600  0.31378600  1
  O  O13  1  0.67349600  0.32650400  0.00000000  1
  O  O14  1  0.97215500  0.97215500  0.91351700  1
  O  O15  1  0.82760200  0.17239800  0.50000000  1
  O  O16  1  0.48047400  0.12598700  0.54400900  1
  O  O17  1  0.50817100  0.14971500  0.15591500  1
  O  O18  1  0.16322600  0.16322600  0.72865200  1
  O  O19  1  0.49182900  0.85028500  0.84408500  1
  O  O20  1  0.36617800  0.36617800  0.72924300  1
  O  O21  1  0.02784500  0.02784500  0.08648300  1
  O  O22  1  0.80144700  0.15639000  0.28694500  1
  O  O23  1  0.99573600  0.32025100  0.31378600  1
  O  O24  1  0.87401300  0.51952600  0.45599100  1
  O  O25  1  0.51952600  0.87401300  0.45599100  1
  O  O26  1  0.80639500  0.80639500  0.06299000  1
  O  O27  1  0.84361000  0.19855300  0.71305500  1
  O  O28  1  0.83677400  0.83677400  0.27134800  1
  O  O29  1  0.83129700  0.47363200  0.08025500  1
  O  O30  1  0.00426400  0.67974900  0.68621400  1
  O  O31  1  0.19855300  0.84361000  0.71305500  1
  O  O32  1  0.46628500  0.46628500  0.41021800  1
  O  O33  1  0.67974900  0.00426400  0.68621400  1
  O  O34  1  0.15639000  0.80144700  0.28694500  1
  O  O35  1  0.52636800  0.16870300  0.91974500  1
loop_
_geom_bond_atom_site_label_1
_geom_bond_atom_site_label_2
_geom_bond_distance
_geom_bond_site_symmetry_2
Cu0 O11 1.945519 1_555
Cu0 O33 1.951195 1_555
Cu0 O20 1.985987 1_555
Cu0 O15 1.996384 1_555
Cu0 O27 2.256038 1_555
Cu1 O6 1.955116 1_556
Cu1 O0 1.963823 1_565
Cu1 O19 2.000458 1_555
Cu1 O21 2.001657 1_566
Cu1 O3 2.230468 1_556
Cu2 O24 1.935244 1_555
Cu2 O28 1.937728 1_555
Cu2 O23 1.963975 1_555
Cu2 O8 1.976558 1_655
Cu3 O11 1.945519 1_555
Cu3 O30 1.951195 1_555
Cu3 O20 1.985987 1_555
Cu3 O10 1.996384 1_555
Cu3 O31 2.256038 1_555
Cu4 O6 1.955116 1_555
Cu4 O26 1.963823 1_455
Cu4 O8 2.000458 1_555
Cu4 O14 2.001657 1_454
Cu4 O4 2.230468 1_554
Cu5 O25 1.935244 1_555
Cu5 O28 1.937728 1_555
Cu5 O12 1.963975 1_555
Cu5 O17 1.976558 1_565
Cu6 O2 1.935244 1_555
Cu6 O18 1.937728 1_555
Cu6 O30 1.963975 1_555
Cu6 O1 1.976558 1_455
Cu7 O32 1.945519 1_555
Cu7 O23 1.951195 1_555
Cu7 O5 1.985987 1_555
Cu7 O15 1.996384 1_555
Cu7 O22 2.256038 1_555
Cu8 O13 1.955116 1_555
Cu8 O26 1.963823 1_545
Cu8 O17 2.000458 1_555
Cu8 O14 2.001657 1_544
Cu8 O35 2.230468 1_554
Cu9 O16 1.935244 1_555
Cu9 O18 1.937728 1_555
Cu9 O33 1.963975 1_555
Cu9 O19 1.976558 1_545
Cu10 O32 1.945519 1_555
Cu10 O12 1.951195 1_555
Cu10 O5 1.985987 1_555
Cu10 O10 1.996384 1_555
Cu10 O34 2.256038 1_555
Cu11 O13 1.955116 1_556
Cu11 O0 1.963823 1_655
Cu11 O1 2.000458 1_555
Cu11 O21 2.001657 1_656
Cu11 O29 2.230468 1_556
Bi0 O8 2.281267 1_555
Bi0 O17 2.281267 1_555
Bi0 O13 2.343253 1_555
Bi0 O6 2.343253 1_555
Bi0 O7 2.516519 1_555
Bi1 O33 2.244886 1_565
Bi1 O30 2.244886 1_655
Bi1 O19 2.328510 1_555
Bi1 O1 2.328510 1_555
Bi2 O12 2.244886 1_545
Bi2 O23 2.244886 1_455
Bi2 O8 2.328510 1_555
Bi2 O17 2.328510 1_555
Bi3 O15 2.290560 1_455
Bi3 O10 2.290560 1_545
Bi3 O12 2.294931 1_545
Bi3 O23 2.294931 1_455
Bi4 O19 2.281267 1_555
Bi4 O1 2.281267 1_555
Bi4 O6 2.343253 1_556
Bi4 O13 2.343253 1_556
Bi4 O9 2.516519 1_555
Bi5 O15 2.290560 1_565
Bi5 O10 2.290560 1_655
Bi5 O30 2.294931 1_655
Bi5 O33 2.294931 1_565
O0 V5 1.800587 1_555
O2 V0 1.726515 1_555
O3 V4 1.702469 1_555
O4 V5 1.702469 1_555
O5 V4 1.800429 1_555
O7 V0 1.761473 1_555
O9 V3 1.761473 1_555
O11 V3 1.781127 1_555
O14 V1 1.797027 1_665
O16 V0 1.726515 1_555
O18 V1 1.826336 1_555
O20 V5 1.800429 1_555
O21 V2 1.797027 1_445
O22 V2 1.694252 1_545
O24 V3 1.726515 1_555
O25 V3 1.726515 1_555
O26 V4 1.800587 1_555
O27 V1 1.694252 1_655
O28 V2 1.826336 1_555
O29 V4 1.702469 1_555
O31 V1 1.694252 1_565
O32 V0 1.781127 1_555
O34 V2 1.694252 1_455
O35 V5 1.702469 1_555
