# generated using pymatgen
data_Pb13(Cl3O5)2
_symmetry_space_group_name_H-M   'P 1'
_cell_length_a   8.91626592
_cell_length_b   8.91626592
_cell_length_c   23.79500535
_cell_angle_alpha   82.75094823
_cell_angle_beta   82.75094823
_cell_angle_gamma   46.83216562
_symmetry_Int_Tables_number   1
_chemical_formula_structural   Pb13(Cl3O5)2
_chemical_formula_sum   'Pb26 Cl12 O20'
_cell_volume   1366.60910690
_cell_formula_units_Z   2
loop_
 _symmetry_equiv_pos_site_id
 _symmetry_equiv_pos_as_xyz
  1  'x, y, z'
loop_
 _atom_site_type_symbol
 _atom_site_label
 _atom_site_symmetry_multiplicity
 _atom_site_fract_x
 _atom_site_fract_y
 _atom_site_fract_z
 _atom_site_occupancy
  Pb  Pb0  1  0.67445000  0.11695400  0.79068000  1
  Pb  Pb1  1  0.61802600  0.73338100  0.84676200  1
  Pb  Pb2  1  0.00629200  0.15970100  0.86658600  1
  Pb  Pb3  1  0.84029900  0.99370800  0.63341400  1
  Pb  Pb4  1  0.94996300  0.77790900  0.91678900  1
  Pb  Pb5  1  0.11695400  0.67445000  0.29068000  1
  Pb  Pb6  1  0.29224300  0.80292700  0.98856300  1
  Pb  Pb7  1  0.16608300  0.36641100  0.43737100  1
  Pb  Pb8  1  0.99370800  0.84029900  0.13341400  1
  Pb  Pb9  1  0.23642300  0.76357700  0.75000000  1
  Pb  Pb10  1  0.80292700  0.29224300  0.48856300  1
  Pb  Pb11  1  0.77790900  0.94996300  0.41678900  1
  Pb  Pb12  1  0.83391700  0.63358900  0.56262900  1
  Pb  Pb13  1  0.36641100  0.16608300  0.93737100  1
  Pb  Pb14  1  0.15970100  0.00629200  0.36658600  1
  Pb  Pb15  1  0.63358900  0.83391700  0.06262900  1
  Pb  Pb16  1  0.32555000  0.88304600  0.20932000  1
  Pb  Pb17  1  0.88304600  0.32555000  0.70932000  1
  Pb  Pb18  1  0.19707300  0.70775700  0.51143700  1
  Pb  Pb19  1  0.73338100  0.61802600  0.34676200  1
  Pb  Pb20  1  0.70775700  0.19707300  0.01143700  1
  Pb  Pb21  1  0.22209100  0.05003700  0.58321100  1
  Pb  Pb22  1  0.05003700  0.22209100  0.08321100  1
  Pb  Pb23  1  0.26661900  0.38197400  0.65323800  1
  Pb  Pb24  1  0.38197400  0.26661900  0.15323800  1
  Pb  Pb25  1  0.76357700  0.23642300  0.25000000  1
  Cl  Cl0  1  0.49425000  0.18098500  0.54368400  1
  Cl  Cl1  1  0.00932700  0.35008500  0.25259800  1
  Cl  Cl2  1  0.42913500  0.50555400  0.36460200  1
  Cl  Cl3  1  0.49444600  0.57086500  0.13539800  1
  Cl  Cl4  1  0.35008500  0.00932700  0.75259800  1
  Cl  Cl5  1  0.57086500  0.49444600  0.63539800  1
  Cl  Cl6  1  0.50575000  0.81901500  0.45631600  1
  Cl  Cl7  1  0.64991500  0.99067300  0.24740200  1
  Cl  Cl8  1  0.50555400  0.42913500  0.86460200  1
  Cl  Cl9  1  0.99067300  0.64991500  0.74740200  1
  Cl  Cl10  1  0.18098500  0.49425000  0.04368400  1
  Cl  Cl11  1  0.81901500  0.50575000  0.95631600  1
  O  O0  1  0.98528900  0.96765100  0.81706900  1
  O  O1  1  0.98223500  0.67383600  0.48172600  1
  O  O2  1  0.00215700  0.01801300  0.55807200  1
  O  O3  1  0.95025400  0.33053000  0.40153400  1
  O  O4  1  0.96765100  0.98528900  0.31706900  1
  O  O5  1  0.99784300  0.98198700  0.44192800  1
  O  O6  1  0.03234900  0.01471100  0.68293100  1
  O  O7  1  0.32616400  0.01776500  0.01827400  1
  O  O8  1  0.33053000  0.95025400  0.90153400  1
  O  O9  1  0.01801300  0.00215700  0.05807200  1
  O  O10  1  0.66076700  0.94766600  0.86359700  1
  O  O11  1  0.94766600  0.66076700  0.36359700  1
  O  O12  1  0.67383600  0.98223500  0.98172600  1
  O  O13  1  0.05233400  0.33923300  0.63640300  1
  O  O14  1  0.98198700  0.99784300  0.94192800  1
  O  O15  1  0.66946900  0.04974600  0.09846600  1
  O  O16  1  0.01471100  0.03234900  0.18293100  1
  O  O17  1  0.04974600  0.66946900  0.59846600  1
  O  O18  1  0.33923300  0.05233400  0.13640300  1
  O  O19  1  0.01776500  0.32616400  0.51827400  1
loop_
_geom_bond_atom_site_label_1
_geom_bond_atom_site_label_2
_geom_bond_distance
_geom_bond_site_symmetry_2
Cl0 Pb23 2.998913 1_555
Cl1 Pb19 2.949313 1_455
Cl1 Pb25 2.986727 1_455
Cl2 Pb5 2.818030 1_555
Cl3 Pb16 2.818030 1_555
Cl4 Pb1 2.949313 1_545
Cl4 Pb9 2.986727 1_545
Cl5 Pb17 2.818030 1_555
Cl6 Pb19 2.998913 1_555
Cl7 Pb24 2.949313 1_565
Cl7 Pb25 2.986727 1_565
Cl8 Pb0 2.818030 1_555
Cl9 Pb23 2.949313 1_655
Cl9 Pb9 2.986727 1_655
Cl10 Pb24 2.998913 1_555
Cl11 Pb1 2.998913 1_555
O0 Pb0 2.242265 1_565
O0 Pb9 2.264478 1_655
O0 Pb2 2.314993 1_665
O1 Pb11 2.319762 1_555
O1 Pb12 2.327253 1_555
O1 Pb18 2.334325 1_655
O1 Pb7 2.336662 1_655
O2 Pb3 2.240680 1_445
O2 Pb21 2.321661 1_555
O2 Pb18 2.369412 1_545
O2 Pb10 2.376455 1_455
O3 Pb19 2.240388 1_555
O3 Pb14 2.316141 1_655
O3 Pb7 2.420365 1_655
O3 Pb10 2.424709 1_555
O4 Pb5 2.242265 1_655
O4 Pb25 2.264478 1_565
O4 Pb14 2.314993 1_665
O5 Pb14 2.240680 1_665
O5 Pb11 2.321661 1_555
O5 Pb10 2.369412 1_565
O5 Pb18 2.376455 1_655
O6 Pb17 2.242265 1_455
O6 Pb9 2.264478 1_545
O6 Pb3 2.314993 1_445
O7 Pb22 2.319762 1_555
O7 Pb13 2.327253 1_554
O7 Pb6 2.334325 1_544
O7 Pb15 2.336662 1_545
O8 Pb1 2.240388 1_555
O8 Pb2 2.316141 1_565
O8 Pb13 2.420365 1_565
O8 Pb6 2.424709 1_555
O9 Pb8 2.240680 1_445
O9 Pb22 2.321661 1_555
O9 Pb20 2.369412 1_455
O9 Pb6 2.376455 1_544
O10 Pb0 2.200291 1_565
O10 Pb1 2.276867 1_555
O10 Pb4 2.354111 1_555
O10 Pb13 2.543422 1_565
O11 Pb5 2.200291 1_655
O11 Pb19 2.276867 1_555
O11 Pb11 2.354111 1_555
O11 Pb7 2.543422 1_655
O12 Pb4 2.319762 1_555
O12 Pb15 2.327253 1_556
O12 Pb20 2.334325 1_566
O12 Pb13 2.336662 1_565
O13 Pb17 2.200291 1_455
O13 Pb23 2.276867 1_555
O13 Pb21 2.354111 1_555
O13 Pb12 2.543422 1_455
O14 Pb2 2.240680 1_665
O14 Pb4 2.321661 1_555
O14 Pb6 2.369412 1_655
O14 Pb20 2.376455 1_566
O15 Pb24 2.240384 1_555
O15 Pb8 2.316148 1_545
O15 Pb15 2.420358 1_545
O15 Pb20 2.424712 1_555
O16 Pb16 2.242265 1_545
O16 Pb25 2.264478 1_455
O16 Pb8 2.314993 1_445
O17 Pb23 2.240384 1_555
O17 Pb3 2.316148 1_455
O17 Pb12 2.420358 1_455
O17 Pb18 2.424712 1_555
O18 Pb16 2.200291 1_545
O18 Pb24 2.276867 1_555
O18 Pb22 2.354111 1_555
O18 Pb15 2.543422 1_545
O19 Pb21 2.319762 1_555
O19 Pb7 2.327253 1_555
O19 Pb10 2.334325 1_455
O19 Pb12 2.336662 1_455
