# generated using pymatgen
data_AgAsS2
_symmetry_space_group_name_H-M   'P 1'
_cell_length_a   8.65879846
_cell_length_b   8.65879846
_cell_length_c   17.58374710
_cell_angle_alpha   80.00718376
_cell_angle_beta   80.00718376
_cell_angle_gamma   54.44413967
_symmetry_Int_Tables_number   1
_chemical_formula_structural   AgAsS2
_chemical_formula_sum   'Ag12 As12 S24'
_cell_volume   1051.91372250
_cell_formula_units_Z   12
loop_
 _symmetry_equiv_pos_site_id
 _symmetry_equiv_pos_as_xyz
  1  'x, y, z'
loop_
 _atom_site_type_symbol
 _atom_site_label
 _atom_site_symmetry_multiplicity
 _atom_site_fract_x
 _atom_site_fract_y
 _atom_site_fract_z
 _atom_site_occupancy
  Ag  Ag0  1  0.12197400  0.87802600  0.25000000  1
  Ag  Ag1  1  0.87802600  0.12197400  0.75000000  1
  Ag  Ag2  1  0.63352800  0.36647200  0.25000000  1
  Ag  Ag3  1  0.36647200  0.63352800  0.75000000  1
  Ag  Ag4  1  0.52586900  0.76211800  0.08776200  1
  Ag  Ag5  1  0.23788200  0.47413100  0.41223800  1
  Ag  Ag6  1  0.47413100  0.23788200  0.91223800  1
  Ag  Ag7  1  0.76211800  0.52586900  0.58776200  1
  Ag  Ag8  1  0.94789200  0.18643000  0.41919700  1
  Ag  Ag9  1  0.81357000  0.05210800  0.08080300  1
  Ag  Ag10  1  0.05210800  0.81357000  0.58080300  1
  Ag  Ag11  1  0.18643000  0.94789200  0.91919700  1
  As  As0  1  0.37796700  0.11436600  0.26874300  1
  As  As1  1  0.88563400  0.62203300  0.23125700  1
  As  As2  1  0.62203300  0.88563400  0.73125700  1
  As  As3  1  0.11436600  0.37796700  0.76874300  1
  As  As4  1  0.70760900  0.94693700  0.41862500  1
  As  As5  1  0.05306300  0.29239100  0.08137500  1
  As  As6  1  0.29239100  0.05306300  0.58137500  1
  As  As7  1  0.94693700  0.70760900  0.91862500  1
  As  As8  1  0.47113600  0.71431100  0.41244000  1
  As  As9  1  0.28568900  0.52886400  0.08756000  1
  As  As10  1  0.52886400  0.28568900  0.58756000  1
  As  As11  1  0.71431100  0.47113600  0.91244000  1
  S  S0  1  0.59228100  0.41222900  0.10317400  1
  S  S1  1  0.58777100  0.40771900  0.39682600  1
  S  S2  1  0.40771900  0.58777100  0.89682600  1
  S  S3  1  0.41222900  0.59228100  0.60317400  1
  S  S4  1  0.15703400  0.98041700  0.09019500  1
  S  S5  1  0.01958300  0.84296600  0.40980500  1
  S  S6  1  0.84296600  0.01958300  0.90980500  1
  S  S7  1  0.98041700  0.15703400  0.59019500  1
  S  S8  1  0.19761200  0.54883900  0.22131500  1
  S  S9  1  0.45116100  0.80238800  0.27868500  1
  S  S10  1  0.80238800  0.45116100  0.77868500  1
  S  S11  1  0.54883900  0.19761200  0.72131500  1
  S  S12  1  0.69192800  0.02114300  0.28517100  1
  S  S13  1  0.97885700  0.30807200  0.21482900  1
  S  S14  1  0.30807200  0.97885700  0.71482900  1
  S  S15  1  0.02114300  0.69192800  0.78517100  1
  S  S16  1  0.24853500  0.18356400  0.39149800  1
  S  S17  1  0.81643600  0.75146500  0.10850200  1
  S  S18  1  0.75146500  0.81643600  0.60850200  1
  S  S19  1  0.18356400  0.24853500  0.89149800  1
  S  S20  1  0.35441400  0.23207100  0.07416300  1
  S  S21  1  0.76792900  0.64558600  0.42583700  1
  S  S22  1  0.64558600  0.76792900  0.92583700  1
  S  S23  1  0.23207100  0.35441400  0.57416300  1
loop_
_geom_bond_atom_site_label_1
_geom_bond_atom_site_label_2
_geom_bond_distance
_geom_bond_site_symmetry_2
Ag0 S9 2.649746 1_555
Ag0 S8 2.649746 1_555
Ag0 S4 2.815403 1_555
Ag0 S5 2.815403 1_555
Ag0 S12 3.143901 1_465
Ag0 S13 3.143901 1_465
Ag1 S10 2.649746 1_555
Ag1 S11 2.649746 1_555
Ag1 S7 2.815403 1_555
Ag1 S6 2.815403 1_555
Ag1 S15 3.143901 1_645
Ag1 S14 3.143901 1_645
Ag2 S1 2.598156 1_555
Ag2 S0 2.598156 1_555
Ag2 S12 2.699510 1_555
Ag2 S13 2.699510 1_555
Ag3 S3 2.598156 1_555
Ag3 S2 2.598156 1_555
Ag3 S15 2.699510 1_555
Ag3 S14 2.699510 1_555
Ag4 S17 2.551160 1_555
Ag4 S4 2.595042 1_555
Ag4 S0 2.706606 1_555
Ag4 S22 2.858415 1_554
Ag5 S16 2.551160 1_555
Ag5 S5 2.595042 1_555
Ag5 S1 2.706606 1_555
Ag5 S23 2.858415 1_555
Ag6 S19 2.551160 1_555
Ag6 S6 2.595042 1_555
Ag6 S2 2.706606 1_555
Ag6 S20 2.858415 1_556
Ag7 S18 2.551160 1_555
Ag7 S7 2.595042 1_555
Ag7 S3 2.706606 1_555
Ag7 S21 2.858415 1_555
Ag8 S16 2.550209 1_655
Ag8 S1 2.600940 1_555
Ag8 S5 2.691662 1_645
Ag8 S7 3.021550 1_555
Ag9 S17 2.550209 1_545
Ag9 S0 2.600940 1_555
Ag9 S4 2.691662 1_645
Ag9 S6 3.021550 1_554
Ag10 S18 2.550209 1_455
Ag10 S3 2.600940 1_555
Ag10 S7 2.691662 1_465
Ag10 S5 3.021550 1_555
Ag11 S19 2.550209 1_565
Ag11 S2 2.600940 1_555
Ag11 S6 2.691662 1_465
Ag11 S4 3.021550 1_556
As0 S16 2.258864 1_555
As0 S9 2.369179 1_545
As0 S12 2.401030 1_555
As1 S17 2.258864 1_555
As1 S8 2.369179 1_655
As1 S13 2.401030 1_555
As2 S18 2.258864 1_555
As2 S11 2.369179 1_565
As2 S14 2.401030 1_555
As3 S19 2.258864 1_555
As3 S10 2.369179 1_455
As3 S15 2.401030 1_555
As4 S5 2.281761 1_655
As4 S21 2.328235 1_555
As4 S12 2.328896 1_565
As5 S4 2.281761 1_545
As5 S20 2.328235 1_555
As5 S13 2.328896 1_455
As6 S7 2.281761 1_455
As6 S23 2.328235 1_555
As6 S14 2.328896 1_545
As7 S6 2.281761 1_565
As7 S22 2.328235 1_555
As7 S15 2.328896 1_655
As8 S1 2.276296 1_555
As8 S21 2.323094 1_555
As8 S9 2.346980 1_555
As9 S0 2.276296 1_555
As9 S20 2.323094 1_555
As9 S8 2.346980 1_555
As10 S3 2.276296 1_555
As10 S23 2.323094 1_555
As10 S11 2.346980 1_555
As11 S2 2.276296 1_555
As11 S22 2.323094 1_555
As11 S10 2.346980 1_555
