# generated using pymatgen
data_KLiCrO4
_symmetry_space_group_name_H-M   'P 1'
_cell_length_a   5.27739900
_cell_length_b   8.48916700
_cell_length_c   19.76541600
_cell_angle_alpha   90.00000000
_cell_angle_beta   90.00000000
_cell_angle_gamma   90.00000000
_symmetry_Int_Tables_number   1
_chemical_formula_structural   KLiCrO4
_chemical_formula_sum   'K8 Li8 Cr8 O32'
_cell_volume   885.50489630
_cell_formula_units_Z   8
loop_
 _symmetry_equiv_pos_site_id
 _symmetry_equiv_pos_as_xyz
  1  'x, y, z'
loop_
 _atom_site_type_symbol
 _atom_site_label
 _atom_site_symmetry_multiplicity
 _atom_site_fract_x
 _atom_site_fract_y
 _atom_site_fract_z
 _atom_site_occupancy
  K  K0  1  0.79417600  0.48139600  0.23529500  1
  K  K1  1  0.76756000  0.17420200  0.05221100  1
  K  K2  1  0.26756000  0.32579800  0.55221100  1
  K  K3  1  0.26756000  0.82579800  0.94778900  1
  K  K4  1  0.76756000  0.67420200  0.44778900  1
  K  K5  1  0.79417600  0.98139600  0.26470500  1
  K  K6  1  0.29417600  0.01860400  0.73529500  1
  K  K7  1  0.29417600  0.51860400  0.76470500  1
  Li  Li0  1  0.24665900  0.49807200  0.05671000  1
  Li  Li1  1  0.24692600  0.30842400  0.34489500  1
  Li  Li2  1  0.74692600  0.19157600  0.84489500  1
  Li  Li3  1  0.74692600  0.69157600  0.65510500  1
  Li  Li4  1  0.24665900  0.99807200  0.44329000  1
  Li  Li5  1  0.74665900  0.00192800  0.55671000  1
  Li  Li6  1  0.74665900  0.50192800  0.94329000  1
  Li  Li7  1  0.24692600  0.80842400  0.15510500  1
  Cr  Cr0  1  0.74841100  0.79514400  0.82256100  1
  Cr  Cr1  1  0.24841100  0.20485600  0.17743900  1
  Cr  Cr2  1  0.25050400  0.78275700  0.57227200  1
  Cr  Cr3  1  0.24841100  0.70485600  0.32256100  1
  Cr  Cr4  1  0.75050400  0.71724300  0.07227200  1
  Cr  Cr5  1  0.25050400  0.28275700  0.92772800  1
  Cr  Cr6  1  0.74841100  0.29514400  0.67743900  1
  Cr  Cr7  1  0.75050400  0.21724300  0.42772800  1
  O  O0  1  0.61719100  0.55512800  0.03792500  1
  O  O1  1  0.20449000  0.13397000  0.97957500  1
  O  O2  1  0.63794500  0.76335300  0.74451000  1
  O  O3  1  0.06507100  0.19201500  0.41861000  1
  O  O4  1  0.11618100  0.24554500  0.85356200  1
  O  O5  1  0.14274700  0.34650800  0.12577800  1
  O  O6  1  0.11618100  0.74554500  0.64643800  1
  O  O7  1  0.13794500  0.23664700  0.25549000  1
  O  O8  1  0.61618100  0.25445500  0.35356200  1
  O  O9  1  0.64159100  0.96917700  0.84921100  1
  O  O10  1  0.64274700  0.15349200  0.62577800  1
  O  O11  1  0.56507100  0.30798500  0.91861000  1
  O  O12  1  0.13794500  0.73664700  0.24451000  1
  O  O13  1  0.06507100  0.69201500  0.08139000  1
  O  O14  1  0.14159100  0.53082300  0.34921100  1
  O  O15  1  0.63794500  0.26335300  0.75549000  1
  O  O16  1  0.61719100  0.05512800  0.46207500  1
  O  O17  1  0.14159100  0.03082300  0.15078900  1
  O  O18  1  0.56507100  0.80798500  0.58139000  1
  O  O19  1  0.64274700  0.65349200  0.87422200  1
  O  O20  1  0.06165000  0.29438500  0.67873400  1
  O  O21  1  0.14274700  0.84650800  0.37422200  1
  O  O22  1  0.70449000  0.86603000  0.02042500  1
  O  O23  1  0.70449000  0.36603000  0.47957500  1
  O  O24  1  0.11719100  0.44487200  0.96207500  1
  O  O25  1  0.11719100  0.94487200  0.53792500  1
  O  O26  1  0.61618100  0.75445500  0.14643800  1
  O  O27  1  0.06165000  0.79438500  0.82126600  1
  O  O28  1  0.56165000  0.70561500  0.32126600  1
  O  O29  1  0.64159100  0.46917700  0.65078900  1
  O  O30  1  0.20449000  0.63397000  0.52042500  1
  O  O31  1  0.56165000  0.20561500  0.17873400  1
loop_
_geom_bond_atom_site_label_1
_geom_bond_atom_site_label_2
_geom_bond_distance
_geom_bond_site_symmetry_2
K0 O7 2.787037 1_655
K0 O28 2.831319 1_555
K0 O12 2.831932 1_655
K0 O31 2.869958 1_555
K0 O14 2.933816 1_655
K0 O26 3.056187 1_555
K0 O5 3.062820 1_655
K0 O8 3.171481 1_555
K1 O22 2.711015 1_545
K1 O1 2.737661 1_654
K1 O31 2.739683 1_555
K1 O5 2.859090 1_655
K1 O17 3.028898 1_655
K1 O11 3.066750 1_554
K1 O1 3.317816 1_554
K1 O0 3.341642 1_555
K2 O30 2.711015 1_555
K2 O23 2.737661 1_555
K2 O20 2.739683 1_555
K2 O10 2.859090 1_555
K2 O29 3.028898 1_555
K2 O3 3.066750 1_555
K2 O23 3.317816 1_455
K2 O25 3.341642 1_545
K3 O1 2.711015 1_565
K3 O22 2.737661 1_556
K3 O27 2.739683 1_555
K3 O19 2.859090 1_555
K3 O9 3.028898 1_555
K3 O13 3.066750 1_556
K3 O22 3.317816 1_456
K3 O24 3.341642 1_555
K4 O23 2.711015 1_555
K4 O30 2.737661 1_655
K4 O28 2.739683 1_555
K4 O21 2.859090 1_655
K4 O14 3.028898 1_655
K4 O18 3.066750 1_555
K4 O30 3.317816 1_555
K4 O16 3.341642 1_565
K5 O12 2.787037 1_655
K5 O31 2.831319 1_565
K5 O7 2.831932 1_665
K5 O28 2.869958 1_555
K5 O17 2.933816 1_665
K5 O8 3.056187 1_565
K5 O21 3.062820 1_655
K5 O26 3.171481 1_555
K6 O15 2.787037 1_555
K6 O27 2.831319 1_545
K6 O2 2.831932 1_545
K6 O20 2.869958 1_555
K6 O9 2.933816 1_545
K6 O6 3.056187 1_545
K6 O10 3.062820 1_555
K6 O4 3.171481 1_555
K7 O2 2.787037 1_555
K7 O20 2.831319 1_555
K7 O15 2.831932 1_555
K7 O27 2.869958 1_555
K7 O29 2.933816 1_555
K7 O4 3.056187 1_555
K7 O19 3.062820 1_555
K7 O6 3.171481 1_555
Li0 O5 1.954445 1_555
Li0 O13 1.966470 1_555
Li0 O24 2.041953 1_554
Li0 O0 2.048469 1_555
Li1 O7 1.955709 1_555
Li1 O14 1.969968 1_555
Li1 O3 2.005120 1_555
Li1 O8 2.009155 1_555
Li2 O15 1.955709 1_555
Li2 O9 1.969968 1_545
Li2 O11 2.005120 1_555
Li2 O4 2.009155 1_655
Li3 O2 1.955709 1_555
Li3 O29 1.969968 1_555
Li3 O18 2.005120 1_555
Li3 O6 2.009155 1_655
Li4 O21 1.954445 1_555
Li4 O3 1.966470 1_565
Li4 O25 2.041953 1_555
Li4 O16 2.048469 1_565
Li5 O10 1.954445 1_555
Li5 O18 1.966470 1_545
Li5 O16 2.041953 1_555
Li5 O25 2.048469 1_645
Li6 O19 1.954445 1_555
Li6 O11 1.966470 1_555
Li6 O0 2.041953 1_556
Li6 O24 2.048469 1_655
Li7 O12 1.955709 1_555
Li7 O17 1.969968 1_565
Li7 O13 2.005120 1_555
Li7 O26 2.009155 1_555
Cr0 O27 1.653298 1_655
Cr0 O9 1.666719 1_555
Cr0 O2 1.671122 1_555
Cr0 O19 1.673208 1_555
Cr1 O31 1.653298 1_555
Cr1 O17 1.666719 1_555
Cr1 O7 1.671122 1_555
Cr1 O5 1.673208 1_555
Cr2 O30 1.644537 1_555
Cr2 O6 1.658681 1_555
Cr2 O18 1.683527 1_555
Cr2 O25 1.688148 1_555
Cr3 O28 1.653298 1_555
Cr3 O14 1.666719 1_555
Cr3 O12 1.671122 1_555
Cr3 O21 1.673208 1_555
Cr4 O22 1.644537 1_555
Cr4 O26 1.658681 1_555
Cr4 O13 1.683527 1_655
Cr4 O0 1.688148 1_555
Cr5 O1 1.644537 1_555
Cr5 O4 1.658681 1_555
Cr5 O11 1.683527 1_555
Cr5 O24 1.688148 1_555
Cr6 O20 1.653298 1_655
Cr6 O29 1.666719 1_555
Cr6 O15 1.671122 1_555
Cr6 O10 1.673208 1_555
Cr7 O23 1.644537 1_555
Cr7 O8 1.658681 1_555
Cr7 O3 1.683527 1_655
Cr7 O16 1.688148 1_555
