# generated using pymatgen
data_Cs(TeO3)2
_symmetry_space_group_name_H-M   'P 1'
_cell_length_a   7.42767672
_cell_length_b   7.42767713
_cell_length_c   7.42767857
_cell_angle_alpha   58.88451863
_cell_angle_beta   58.88452142
_cell_angle_gamma   58.88451648
_symmetry_Int_Tables_number   1
_chemical_formula_structural   Cs(TeO3)2
_chemical_formula_sum   'Cs2 Te4 O12'
_cell_volume   282.38590256
_cell_formula_units_Z   2
loop_
 _symmetry_equiv_pos_site_id
 _symmetry_equiv_pos_as_xyz
  1  'x, y, z'
loop_
 _atom_site_type_symbol
 _atom_site_label
 _atom_site_symmetry_multiplicity
 _atom_site_fract_x
 _atom_site_fract_y
 _atom_site_fract_z
 _atom_site_occupancy
  Cs  Cs0  1  0.87723002  0.87723002  0.87723002  1
  Cs  Cs1  1  0.12276998  0.12276998  0.12276998  1
  Te  Te0  1  0.50000000  -0.00000000  0.50000000  1
  Te  Te1  1  0.50000000  0.50000000  0.00000000  1
  Te  Te2  1  0.50000000  0.50000000  0.50000000  1
  Te  Te3  1  -0.00000000  0.50000000  0.50000000  1
  O  O0  1  0.57455495  0.18477089  0.18477089  1
  O  O1  1  0.83728099  0.42923694  0.42923694  1
  O  O2  1  0.81522911  0.42544505  0.81522911  1
  O  O3  1  0.18477089  0.57455495  0.18477089  1
  O  O4  1  0.42923694  0.42923694  0.83728099  1
  O  O5  1  0.42544505  0.81522911  0.81522911  1
  O  O6  1  0.42923694  0.83728099  0.42923694  1
  O  O7  1  0.57076306  0.16271901  0.57076306  1
  O  O8  1  0.81522911  0.81522911  0.42544505  1
  O  O9  1  0.57076306  0.57076306  0.16271901  1
  O  O10  1  0.16271901  0.57076306  0.57076306  1
  O  O11  1  0.18477089  0.18477089  0.57455495  1
loop_
_geom_bond_atom_site_label_1
_geom_bond_atom_site_label_2
_geom_bond_distance
_geom_bond_site_symmetry_2
Cs0 O9 3.199649 1_556
Cs0 O7 3.199649 1_565
Cs0 O10 3.199649 1_655
Cs0 O11 3.204382 1_665
Cs0 O3 3.204383 1_656
Cs0 O0 3.204383 1_566
Cs1 O4 3.199649 1_554
Cs1 O6 3.199649 1_545
Cs1 O1 3.199649 1_455
Cs1 O8 3.204382 1_445
Cs1 O2 3.204383 1_454
Cs1 O5 3.204383 1_544
O0 Te1 1.948511 1_555
O0 Te0 1.948511 1_555
O1 Te3 1.900509 1_655
O1 Te2 2.095790 1_555
O2 Te1 1.948511 1_556
O2 Te3 1.948511 1_655
O3 Te1 1.948511 1_555
O3 Te3 1.948511 1_555
O4 Te1 1.900510 1_556
O4 Te2 2.095791 1_555
O5 Te1 1.948511 1_556
O5 Te0 1.948511 1_565
O6 Te0 1.900509 1_565
O6 Te2 2.095790 1_555
O7 Te0 1.900509 1_555
O7 Te2 2.095790 1_555
O8 Te0 1.948511 1_565
O8 Te3 1.948511 1_655
O9 Te1 1.900510 1_555
O9 Te2 2.095791 1_555
O10 Te3 1.900509 1_555
O10 Te2 2.095790 1_555
O11 Te0 1.948511 1_555
O11 Te3 1.948511 1_555
