# generated using pymatgen
data_CdGe(BiO3)2
_symmetry_space_group_name_H-M   'P 1'
_cell_length_a   5.70901700
_cell_length_b   10.35137500
_cell_length_c   10.58609900
_cell_angle_alpha   90.00000000
_cell_angle_beta   90.00000000
_cell_angle_gamma   90.00000000
_symmetry_Int_Tables_number   1
_chemical_formula_structural   CdGe(BiO3)2
_chemical_formula_sum   'Cd4 Ge4 Bi8 O24'
_cell_volume   625.59796805
_cell_formula_units_Z   4
loop_
 _symmetry_equiv_pos_site_id
 _symmetry_equiv_pos_as_xyz
  1  'x, y, z'
loop_
 _atom_site_type_symbol
 _atom_site_label
 _atom_site_symmetry_multiplicity
 _atom_site_fract_x
 _atom_site_fract_y
 _atom_site_fract_z
 _atom_site_occupancy
  Cd  Cd0  1  0.25000000  0.38611300  0.50000000  1
  Cd  Cd1  1  0.75000000  0.61388700  0.50000000  1
  Cd  Cd2  1  0.75000000  0.11388700  0.00000000  1
  Cd  Cd3  1  0.25000000  0.88611300  0.00000000  1
  Ge  Ge0  1  0.25000000  0.84635400  0.50000000  1
  Ge  Ge1  1  0.75000000  0.65364600  0.00000000  1
  Ge  Ge2  1  0.75000000  0.15364600  0.50000000  1
  Ge  Ge3  1  0.25000000  0.34635400  0.00000000  1
  Bi  Bi0  1  0.21494300  0.60741300  0.24117800  1
  Bi  Bi1  1  0.78505700  0.39258700  0.75882200  1
  Bi  Bi2  1  0.71494300  0.39258700  0.24117800  1
  Bi  Bi3  1  0.21494300  0.10741300  0.25882200  1
  Bi  Bi4  1  0.28505700  0.60741300  0.75882200  1
  Bi  Bi5  1  0.78505700  0.89258700  0.74117800  1
  Bi  Bi6  1  0.28505700  0.10741300  0.74117800  1
  Bi  Bi7  1  0.71494300  0.89258700  0.25882200  1
  O  O0  1  0.12503500  0.94419200  0.62181200  1
  O  O1  1  0.96500000  0.24962900  0.57848600  1
  O  O2  1  0.01346200  0.47035700  0.35340200  1
  O  O3  1  0.03500000  0.75037100  0.42151400  1
  O  O4  1  0.62503500  0.05580800  0.62181200  1
  O  O5  1  0.98653800  0.02964300  0.85340200  1
  O  O6  1  0.51346200  0.02964300  0.14659800  1
  O  O7  1  0.48653800  0.97035700  0.85340200  1
  O  O8  1  0.87496500  0.55580800  0.12181200  1
  O  O9  1  0.37496500  0.94419200  0.37818800  1
  O  O10  1  0.53500000  0.24962900  0.42151400  1
  O  O11  1  0.98653800  0.52964300  0.64659800  1
  O  O12  1  0.46500000  0.75037100  0.57848600  1
  O  O13  1  0.48653800  0.47035700  0.64659800  1
  O  O14  1  0.87496500  0.05580800  0.37818800  1
  O  O15  1  0.46500000  0.25037100  0.92151400  1
  O  O16  1  0.03500000  0.25037100  0.07848600  1
  O  O17  1  0.01346200  0.97035700  0.14659800  1
  O  O18  1  0.51346200  0.52964300  0.35340200  1
  O  O19  1  0.37496500  0.44419200  0.12181200  1
  O  O20  1  0.12503500  0.44419200  0.87818800  1
  O  O21  1  0.96500000  0.74962900  0.92151400  1
  O  O22  1  0.62503500  0.55580800  0.87818800  1
  O  O23  1  0.53500000  0.74962900  0.07848600  1
loop_
_geom_bond_atom_site_label_1
_geom_bond_atom_site_label_2
_geom_bond_distance
_geom_bond_site_symmetry_2
Cd0 O13 2.234375 1_555
Cd0 O2 2.234375 1_555
Cd0 O1 2.309476 1_455
Cd0 O10 2.309476 1_555
Cd0 O11 2.622621 1_455
Cd0 O18 2.622621 1_555
Cd1 O11 2.234375 1_555
Cd1 O18 2.234375 1_555
Cd1 O12 2.309476 1_555
Cd1 O3 2.309476 1_655
Cd1 O13 2.622621 1_555
Cd1 O2 2.622621 1_655
Cd2 O6 2.234375 1_555
Cd2 O5 2.234375 1_554
Cd2 O16 2.309476 1_655
Cd2 O15 2.309476 1_554
Cd2 O17 2.622621 1_645
Cd2 O7 2.622621 1_544
Cd3 O17 2.234375 1_555
Cd3 O7 2.234375 1_554
Cd3 O21 2.309476 1_454
Cd3 O23 2.309476 1_555
Cd3 O6 2.622621 1_565
Cd3 O5 2.622621 1_464
Ge0 O12 1.784401 1_555
Ge0 O3 1.784401 1_555
Ge0 O9 1.788156 1_555
Ge0 O0 1.788156 1_555
Ge1 O21 1.784401 1_554
Ge1 O23 1.784401 1_555
Ge1 O8 1.788156 1_555
Ge1 O22 1.788156 1_554
Ge2 O1 1.784401 1_555
Ge2 O10 1.784401 1_555
Ge2 O14 1.788156 1_555
Ge2 O4 1.788156 1_555
Ge3 O15 1.784401 1_554
Ge3 O16 1.784401 1_555
Ge3 O19 1.788156 1_555
Ge3 O20 1.788156 1_554
Bi0 O2 2.178815 1_555
Bi0 O18 2.227984 1_555
Bi0 O19 2.299122 1_555
Bi0 O8 2.376833 1_455
Bi0 O3 2.624819 1_555
Bi1 O11 2.178815 1_555
Bi1 O13 2.227984 1_555
Bi1 O22 2.299122 1_555
Bi1 O20 2.376833 1_655
Bi1 O1 2.624819 1_555
Bi2 O18 2.178815 1_555
Bi2 O2 2.227984 1_655
Bi2 O8 2.299122 1_555
Bi2 O19 2.376833 1_555
Bi2 O10 2.624819 1_555
Bi3 O17 2.178815 1_545
Bi3 O6 2.227984 1_555
Bi3 O9 2.299122 1_545
Bi3 O14 2.376833 1_455
Bi3 O16 2.624819 1_555
Bi4 O13 2.178815 1_555
Bi4 O11 2.227984 1_455
Bi4 O20 2.299122 1_555
Bi4 O22 2.376833 1_555
Bi4 O12 2.624819 1_555
Bi5 O5 2.178815 1_565
Bi5 O7 2.227984 1_555
Bi5 O4 2.299122 1_565
Bi5 O0 2.376833 1_655
Bi5 O21 2.624819 1_555
Bi6 O7 2.178815 1_545
Bi6 O5 2.227984 1_455
Bi6 O0 2.299122 1_545
Bi6 O4 2.376833 1_555
Bi6 O15 2.624819 1_555
Bi7 O6 2.178815 1_565
Bi7 O17 2.227984 1_655
Bi7 O14 2.299122 1_565
Bi7 O9 2.376833 1_555
Bi7 O23 2.624819 1_555
