# generated using pymatgen
data_CuSb2(XeF5)4
_symmetry_space_group_name_H-M   'P 1'
_cell_length_a   9.07008224
_cell_length_b   9.07008224
_cell_length_c   9.07008224
_cell_angle_alpha   102.66147582
_cell_angle_beta   102.66147582
_cell_angle_gamma   124.16787377
_symmetry_Int_Tables_number   1
_chemical_formula_structural   CuSb2(XeF5)4
_chemical_formula_sum   'Cu1 Sb2 Xe4 F20'
_cell_volume   545.53108854
_cell_formula_units_Z   1
loop_
 _symmetry_equiv_pos_site_id
 _symmetry_equiv_pos_as_xyz
  1  'x, y, z'
loop_
 _atom_site_type_symbol
 _atom_site_label
 _atom_site_symmetry_multiplicity
 _atom_site_fract_x
 _atom_site_fract_y
 _atom_site_fract_z
 _atom_site_occupancy
  Cu  Cu0  1  0.50000000  0.50000000  0.00000000  1
  Sb  Sb0  1  0.25000000  0.75000000  0.50000000  1
  Sb  Sb1  1  0.00000000  0.00000000  0.00000000  1
  Xe  Xe0  1  0.09432700  0.51335600  0.88427800  1
  Xe  Xe1  1  0.78995100  0.90567300  0.41902900  1
  Xe  Xe2  1  0.62907800  0.21004900  0.11572200  1
  Xe  Xe3  1  0.48664400  0.37092200  0.58097100  1
  F  F0  1  0.34592500  0.54589100  0.86589400  1
  F  F1  1  0.38540000  0.64684600  0.52325400  1
  F  F2  1  0.03884000  0.14796500  0.61891200  1
  F  F3  1  0.35315400  0.87640900  0.73855400  1
  F  F4  1  0.92105500  0.84461900  0.77381100  1
  F  F5  1  0.13785400  0.61460000  0.26144600  1
  F  F6  1  0.58007200  0.96116000  0.10912500  1
  F  F7  1  0.52905200  0.41992800  0.38108800  1
  F  F8  1  0.02280200  0.52280200  0.50000000  1
  F  F9  1  0.07080800  0.14724500  0.22618900  1
  F  F10  1  0.47719800  0.97719800  0.50000000  1
  F  F11  1  0.45410900  0.32000400  0.80003500  1
  F  F12  1  0.22919400  0.22919400  0.00000000  1
  F  F13  1  0.51996900  0.65407500  0.19996500  1
  F  F14  1  0.85275500  0.07894400  0.92356400  1
  F  F15  1  0.85203500  0.47094800  0.89087500  1
  F  F16  1  0.67999600  0.48003100  0.13410600  1
  F  F17  1  0.12359100  0.86214600  0.47674600  1
  F  F18  1  0.15538100  0.92919200  0.07643600  1
  F  F19  1  0.77080600  0.77080600  0.00000000  1
loop_
_geom_bond_atom_site_label_1
_geom_bond_atom_site_label_2
_geom_bond_distance
_geom_bond_site_symmetry_2
Cu0 F11 1.932820 1_554
Cu0 F13 1.932825 1_555
Cu0 F16 1.932825 1_555
Cu0 F0 1.932831 1_554
Cu0 F12 2.299906 1_555
Cu0 F19 2.299906 1_555
F0 Xe0 2.180471 1_555
F1 Sb0 1.921365 1_555
F2 Xe1 2.024663 1_445
F3 Sb0 1.921366 1_555
F4 Sb1 1.913846 1_666
F5 Sb0 1.921365 1_555
F6 Xe2 2.024663 1_565
F7 Xe3 2.024661 1_555
F8 Sb0 1.929551 1_555
F9 Sb1 1.913849 1_555
F10 Sb0 1.929551 1_555
F11 Xe3 2.180477 1_555
F12 Sb1 1.946503 1_555
F13 Xe1 2.180475 1_555
F14 Sb1 1.913846 1_656
F15 Xe0 2.024667 1_655
F16 Xe2 2.180475 1_555
F17 Sb0 1.921373 1_555
F18 Sb1 1.913846 1_565
F19 Sb1 1.946503 1_665
