# generated using pymatgen
data_Rb4CO4
_symmetry_space_group_name_H-M   'P 1'
_cell_length_a   5.80247451
_cell_length_b   5.80247451
_cell_length_c   7.04947737
_cell_angle_alpha   74.93901288
_cell_angle_beta   74.93901288
_cell_angle_gamma   89.28631333
_symmetry_Int_Tables_number   1
_chemical_formula_structural   Rb4CO4
_chemical_formula_sum   'Rb4 C1 O4'
_cell_volume   220.93481529
_cell_formula_units_Z   1
loop_
 _symmetry_equiv_pos_site_id
 _symmetry_equiv_pos_as_xyz
  1  'x, y, z'
loop_
 _atom_site_type_symbol
 _atom_site_label
 _atom_site_symmetry_multiplicity
 _atom_site_fract_x
 _atom_site_fract_y
 _atom_site_fract_z
 _atom_site_occupancy
  Rb  Rb0  1  0.43004000  0.91517400  0.61950700  1
  Rb  Rb1  1  0.55279900  0.04188500  0.10469200  1
  Rb  Rb2  1  0.91517400  0.43004000  0.61950700  1
  Rb  Rb3  1  0.04188500  0.55279900  0.10469200  1
  C  C0  1  0.01938100  0.01938100  0.41659300  1
  O  O0  1  0.83021900  0.11806900  0.33248900  1
  O  O1  1  0.11806900  0.83021900  0.33248900  1
  O  O2  1  0.92814500  0.92814500  0.63834000  1
  O  O3  1  0.20452600  0.20452600  0.37011400  1
loop_
_geom_bond_atom_site_label_1
_geom_bond_atom_site_label_2
_geom_bond_distance
_geom_bond_site_symmetry_2
C0 O1 1.424875 1_545
C0 O0 1.424875 1_455
C0 O3 1.441695 1_555
C0 O2 1.466611 1_445
O0 Rb1 2.663722 1_555
O0 Rb0 2.694478 1_545
O0 Rb3 2.719795 1_655
O1 Rb3 2.663722 1_555
O1 Rb2 2.694478 1_455
O1 Rb1 2.719795 1_565
O2 Rb0 2.881526 1_655
O2 Rb2 2.881526 1_565
O2 Rb0 2.930327 1_555
O2 Rb2 2.930327 1_555
O3 Rb2 2.688659 1_455
O3 Rb0 2.688659 1_545
O3 Rb1 2.716706 1_555
O3 Rb3 2.716706 1_555
