# generated using pymatgen
data_Na3V(SO)2
_symmetry_space_group_name_H-M   'P 1'
_cell_length_a   5.99795100
_cell_length_b   11.74576800
_cell_length_c   17.89753000
_cell_angle_alpha   90.00000000
_cell_angle_beta   90.00000000
_cell_angle_gamma   90.00000000
_symmetry_Int_Tables_number   1
_chemical_formula_structural   Na3V(SO)2
_chemical_formula_sum   'Na24 V8 S16 O16'
_cell_volume   1260.89066966
_cell_formula_units_Z   8
loop_
 _symmetry_equiv_pos_site_id
 _symmetry_equiv_pos_as_xyz
  1  'x, y, z'
loop_
 _atom_site_type_symbol
 _atom_site_label
 _atom_site_symmetry_multiplicity
 _atom_site_fract_x
 _atom_site_fract_y
 _atom_site_fract_z
 _atom_site_occupancy
  Na  Na0  1  0.71086200  0.62213300  0.26199700  1
  Na  Na1  1  0.28913800  0.87786700  0.76199700  1
  Na  Na2  1  0.85595600  0.16991900  0.04693900  1
  Na  Na3  1  0.28913800  0.37786700  0.73800300  1
  Na  Na4  1  0.76100600  0.37223300  0.90005700  1
  Na  Na5  1  0.73899400  0.37223300  0.40005700  1
  Na  Na6  1  0.64404400  0.66991900  0.95306100  1
  Na  Na7  1  0.21086200  0.37786700  0.23800300  1
  Na  Na8  1  0.78913800  0.62213300  0.76199700  1
  Na  Na9  1  0.64404400  0.16991900  0.54693900  1
  Na  Na10  1  0.23899400  0.12776700  0.40005700  1
  Na  Na11  1  0.76100600  0.87223300  0.59994300  1
  Na  Na12  1  0.21086200  0.87786700  0.26199700  1
  Na  Na13  1  0.85595600  0.66991900  0.45306100  1
  Na  Na14  1  0.73899400  0.87223300  0.09994300  1
  Na  Na15  1  0.35595600  0.33008100  0.04693900  1
  Na  Na16  1  0.26100600  0.62776700  0.59994300  1
  Na  Na17  1  0.14404400  0.33008100  0.54693900  1
  Na  Na18  1  0.78913800  0.12213300  0.73800300  1
  Na  Na19  1  0.26100600  0.12776700  0.90005700  1
  Na  Na20  1  0.23899400  0.62776700  0.09994300  1
  Na  Na21  1  0.71086200  0.12213300  0.23800300  1
  Na  Na22  1  0.35595600  0.83008100  0.45306100  1
  Na  Na23  1  0.14404400  0.83008100  0.95306100  1
  V  V0  1  0.16758600  0.55823400  0.88774300  1
  V  V1  1  0.66758600  0.44176600  0.61225700  1
  V  V2  1  0.83241400  0.94176600  0.38774300  1
  V  V3  1  0.66758600  0.94176600  0.88774300  1
  V  V4  1  0.16758600  0.05823400  0.61225700  1
  V  V5  1  0.33241400  0.05823400  0.11225700  1
  V  V6  1  0.33241400  0.55823400  0.38774300  1
  V  V7  1  0.83241400  0.44176600  0.11225700  1
  S  S0  1  0.20337100  0.62853600  0.28192100  1
  S  S1  1  0.29662900  0.12853600  0.71807900  1
  S  S2  1  0.77231400  0.62369500  0.60327200  1
  S  S3  1  0.27231400  0.87630500  0.60327200  1
  S  S4  1  0.72768600  0.12369500  0.39672800  1
  S  S5  1  0.79662900  0.87146400  0.78192100  1
  S  S6  1  0.29662900  0.62853600  0.78192100  1
  S  S7  1  0.27231400  0.37630500  0.89672800  1
  S  S8  1  0.79662900  0.37146400  0.71807900  1
  S  S9  1  0.72768600  0.62369500  0.10327200  1
  S  S10  1  0.22768600  0.37630500  0.39672800  1
  S  S11  1  0.77231400  0.12369500  0.89672800  1
  S  S12  1  0.70337100  0.87146400  0.28192100  1
  S  S13  1  0.22768600  0.87630500  0.10327200  1
  S  S14  1  0.70337100  0.37146400  0.21807900  1
  S  S15  1  0.20337100  0.12853600  0.21807900  1
  O  O0  1  0.73791200  0.36157600  0.03863200  1
  O  O1  1  0.88264000  0.06224600  0.61586000  1
  O  O2  1  0.38264000  0.93775400  0.88414000  1
  O  O3  1  0.61736000  0.56224600  0.38414000  1
  O  O4  1  0.11736000  0.93775400  0.38414000  1
  O  O5  1  0.76208800  0.36157600  0.53863200  1
  O  O6  1  0.73791200  0.86157600  0.46136800  1
  O  O7  1  0.26208800  0.63842400  0.96136800  1
  O  O8  1  0.23791200  0.13842400  0.03863200  1
  O  O9  1  0.11736000  0.43775400  0.11586000  1
  O  O10  1  0.23791200  0.63842400  0.46136800  1
  O  O11  1  0.61736000  0.06224600  0.11586000  1
  O  O12  1  0.76208800  0.86157600  0.96136800  1
  O  O13  1  0.38264000  0.43775400  0.61586000  1
  O  O14  1  0.88264000  0.56224600  0.88414000  1
  O  O15  1  0.26208800  0.13842400  0.53863200  1
loop_
_geom_bond_atom_site_label_1
_geom_bond_atom_site_label_2
_geom_bond_distance
_geom_bond_site_symmetry_2
Na0 O3 2.363930 1_555
Na0 S9 2.842636 1_555
Na0 S12 2.950556 1_555
Na0 S0 2.976440 1_655
Na0 S14 3.047746 1_555
Na0 S0 3.065645 1_555
Na1 O2 2.363930 1_555
Na1 S3 2.842636 1_555
Na1 S6 2.950556 1_555
Na1 S5 2.976440 1_455
Na1 S1 3.047746 1_565
Na1 S5 3.065645 1_555
Na2 O11 2.273553 1_555
Na2 O8 2.325386 1_655
Na2 O0 2.364554 1_555
Na2 S11 2.788187 1_554
Na3 O13 2.363930 1_555
Na3 S7 2.842636 1_555
Na3 S1 2.950556 1_555
Na3 S8 2.976440 1_455
Na3 S6 3.047746 1_555
Na3 S8 3.065645 1_555
Na4 O14 2.365281 1_555
Na4 O0 2.487167 1_556
Na4 S11 2.920665 1_555
Na4 S7 2.932146 1_555
Na4 S7 3.067752 1_655
Na4 S8 3.263970 1_555
Na5 O3 2.365281 1_555
Na5 O5 2.487167 1_555
Na5 S4 2.920665 1_555
Na5 S10 2.932146 1_655
Na5 S10 3.067752 1_555
Na5 S14 3.263970 1_555
Na6 O14 2.273553 1_555
Na6 O7 2.325386 1_555
Na6 O12 2.364554 1_555
Na6 S9 2.788187 1_556
Na7 O9 2.363930 1_555
Na7 S10 2.842636 1_555
Na7 S15 2.950556 1_555
Na7 S14 2.976440 1_555
Na7 S0 3.047746 1_555
Na7 S14 3.065645 1_455
Na8 O14 2.363930 1_555
Na8 S2 2.842636 1_555
Na8 S5 2.950556 1_555
Na8 S6 2.976440 1_555
Na8 S8 3.047746 1_555
Na8 S6 3.065645 1_655
Na9 O1 2.273553 1_555
Na9 O15 2.325386 1_555
Na9 O5 2.364554 1_555
Na9 S4 2.788187 1_555
Na10 O4 2.365281 1_545
Na10 O15 2.487167 1_555
Na10 S10 2.920665 1_555
Na10 S4 2.932146 1_555
Na10 S4 3.067752 1_455
Na10 S15 3.263970 1_555
Na11 O1 2.365281 1_565
Na11 O6 2.487167 1_555
Na11 S2 2.920665 1_555
Na11 S3 2.932146 1_555
Na11 S3 3.067752 1_655
Na11 S5 3.263970 1_555
Na12 O4 2.363930 1_555
Na12 S13 2.842636 1_555
Na12 S0 2.950556 1_555
Na12 S12 2.976440 1_555
Na12 S15 3.047746 1_565
Na12 S12 3.065645 1_455
Na13 O3 2.273553 1_555
Na13 O10 2.325386 1_655
Na13 O6 2.364554 1_555
Na13 S2 2.788187 1_555
Na14 O11 2.365281 1_565
Na14 O12 2.487167 1_554
Na14 S9 2.920665 1_555
Na14 S13 2.932146 1_655
Na14 S13 3.067752 1_555
Na14 S12 3.263970 1_555
Na15 O9 2.273553 1_555
Na15 O0 2.325386 1_555
Na15 O8 2.364554 1_555
Na15 S7 2.788187 1_554
Na16 O13 2.365281 1_555
Na16 O10 2.487167 1_555
Na16 S3 2.920665 1_555
Na16 S2 2.932146 1_455
Na16 S2 3.067752 1_555
Na16 S6 3.263970 1_555
Na17 O13 2.273553 1_555
Na17 O5 2.325386 1_455
Na17 O15 2.364554 1_555
Na17 S10 2.788187 1_555
Na18 O1 2.363930 1_555
Na18 S11 2.842636 1_555
Na18 S8 2.950556 1_555
Na18 S1 2.976440 1_555
Na18 S5 3.047746 1_545
Na18 S1 3.065645 1_655
Na19 O2 2.365281 1_545
Na19 O8 2.487167 1_556
Na19 S7 2.920665 1_555
Na19 S11 2.932146 1_455
Na19 S11 3.067752 1_555
Na19 S1 3.263970 1_555
Na20 O9 2.365281 1_555
Na20 O7 2.487167 1_554
Na20 S13 2.920665 1_555
Na20 S9 2.932146 1_555
Na20 S9 3.067752 1_455
Na20 S0 3.263970 1_555
Na21 O11 2.363930 1_555
Na21 S4 2.842636 1_555
Na21 S14 2.950556 1_555
Na21 S15 2.976440 1_655
Na21 S12 3.047746 1_545
Na21 S15 3.065645 1_555
Na22 O4 2.273553 1_555
Na22 O6 2.325386 1_555
Na22 O10 2.364554 1_555
Na22 S3 2.788187 1_555
Na23 O2 2.273553 1_555
Na23 O12 2.325386 1_455
Na23 O7 2.364554 1_555
Na23 S13 2.788187 1_556
S0 V6 2.206351 1_555
S1 V4 2.206351 1_555
S2 V1 2.233105 1_555
S3 V4 2.233105 1_565
S4 V2 2.233105 1_545
S5 V3 2.206351 1_555
S6 V0 2.206351 1_555
S7 V0 2.233105 1_555
S8 V1 2.206351 1_555
S9 V7 2.233105 1_555
S10 V6 2.233105 1_555
S11 V3 2.233105 1_545
S12 V2 2.206351 1_555
S13 V5 2.233105 1_565
S14 V7 2.206351 1_555
S15 V5 2.206351 1_555
O0 V7 1.716040 1_555
O1 V4 1.710957 1_655
O2 V3 1.710957 1_555
O3 V6 1.710957 1_555
O4 V2 1.710957 1_455
O5 V1 1.716040 1_555
O6 V2 1.716040 1_555
O7 V0 1.716040 1_555
O8 V5 1.716040 1_555
O9 V7 1.710957 1_455
O10 V6 1.716040 1_555
O11 V5 1.710957 1_555
O12 V3 1.716040 1_555
O13 V1 1.710957 1_555
O14 V0 1.710957 1_655
O15 V4 1.716040 1_555
