# generated using pymatgen
data_Pu3Zn22
_symmetry_space_group_name_H-M   'P 1'
_cell_length_a   8.87120114
_cell_length_b   8.86454170
_cell_length_c   12.31813715
_cell_angle_alpha   111.07652464
_cell_angle_beta   111.11147817
_cell_angle_gamma   89.97496392
_symmetry_Int_Tables_number   1
_chemical_formula_structural   Pu3Zn22
_chemical_formula_sum   'Pu6 Zn44'
_cell_volume   833.89213635
_cell_formula_units_Z   2
loop_
 _symmetry_equiv_pos_site_id
 _symmetry_equiv_pos_as_xyz
  1  'x, y, z'
loop_
 _atom_site_type_symbol
 _atom_site_label
 _atom_site_symmetry_multiplicity
 _atom_site_fract_x
 _atom_site_fract_y
 _atom_site_fract_z
 _atom_site_occupancy
  Pu  Pu0  1  0.12546000  0.87551900  0.25095800  1
  Pu  Pu1  1  0.25312200  0.50315300  0.50632700  1
  Pu  Pu2  1  0.50241300  0.25240800  0.00485900  1
  Pu  Pu3  1  0.74687800  0.49684700  0.49367300  1
  Pu  Pu4  1  0.49758700  0.74759200  0.99514100  1
  Pu  Pu5  1  0.87454000  0.12448100  0.74904200  1
  Zn  Zn0  1  0.16499700  0.26094000  0.02180300  1
  Zn  Zn1  1  0.85677800  0.26088900  0.02180700  1
  Zn  Zn2  1  0.26105600  0.85659700  0.52220200  1
  Zn  Zn3  1  0.11842000  0.21934100  0.23670000  1
  Zn  Zn4  1  0.84425800  0.37554500  0.25108700  1
  Zn  Zn5  1  0.00000000  0.00000000  0.50000000  1
  Zn  Zn6  1  0.21917200  0.11848300  0.73675100  1
  Zn  Zn7  1  0.83500300  0.73906000  0.97819700  1
  Zn  Zn8  1  0.32021500  0.04174400  0.12186100  1
  Zn  Zn9  1  0.04177900  0.80114000  0.62181400  1
  Zn  Zn10  1  0.19837100  0.41992400  0.87815900  1
  Zn  Zn11  1  0.04185900  0.32071100  0.62179700  1
  Zn  Zn12  1  0.67978500  0.95825600  0.87813900  1
  Zn  Zn13  1  0.42012600  0.19897400  0.37826000  1
  Zn  Zn14  1  0.88158000  0.78065900  0.76330000  1
  Zn  Zn15  1  0.59314600  0.62446700  0.74891300  1
  Zn  Zn16  1  0.62403000  0.15582000  0.24808600  1
  Zn  Zn17  1  0.88168200  0.48261000  0.76330800  1
  Zn  Zn18  1  0.95822100  0.19886000  0.37818600  1
  Zn  Zn19  1  0.48239000  0.88173400  0.26324700  1
  Zn  Zn20  1  0.51761000  0.11826600  0.73675300  1
  Zn  Zn21  1  0.11831800  0.51739000  0.23669200  1
  Zn  Zn22  1  0.37593800  0.40769700  0.75191100  1
  Zn  Zn23  1  0.80162900  0.58007600  0.12184100  1
  Zn  Zn24  1  0.32021200  0.58011900  0.12196000  1
  Zn  Zn25  1  0.67978800  0.41988100  0.87804000  1
  Zn  Zn26  1  0.15574200  0.62445500  0.74891300  1
  Zn  Zn27  1  0.78082800  0.88151700  0.26324900  1
  Zn  Zn28  1  0.40685400  0.37553300  0.25108700  1
  Zn  Zn29  1  0.80172200  0.04178400  0.12193600  1
  Zn  Zn30  1  0.62406200  0.59230300  0.24808900  1
  Zn  Zn31  1  0.95814100  0.67928900  0.37820300  1
  Zn  Zn32  1  0.58003100  0.32068100  0.62185600  1
  Zn  Zn33  1  0.73882400  0.83441600  0.47779400  1
  Zn  Zn34  1  0.37597000  0.84418000  0.75191400  1
  Zn  Zn35  1  0.41996900  0.67931900  0.37814400  1
  Zn  Zn36  1  0.00000000  0.00000000  0.00000000  1
  Zn  Zn37  1  0.26117600  0.16558400  0.52220600  1
  Zn  Zn38  1  0.73894400  0.14340300  0.47779800  1
  Zn  Zn39  1  0.57987400  0.80102600  0.62174000  1
  Zn  Zn40  1  0.19827800  0.95821600  0.87806400  1
  Zn  Zn41  1  0.00000000  0.50000000  0.00000000  1
  Zn  Zn42  1  0.50000000  0.00000000  0.50000000  1
  Zn  Zn43  1  0.14322200  0.73911100  0.97819300  1
loop_
_geom_bond_atom_site_label_1
_geom_bond_atom_site_label_2
_geom_bond_distance
_geom_bond_site_symmetry_2
Pu0 Zn27 3.114538 1_455
Pu0 Zn19 3.114626 1_555
Pu0 Zn3 3.114629 1_565
Pu0 Zn21 3.115157 1_555
Pu0 Zn2 3.185357 1_555
Pu0 Zn37 3.186036 1_565
Pu0 Zn7 3.199158 1_454
Pu0 Zn43 3.199280 1_554
Pu0 Zn35 3.363413 1_555
Pu0 Zn18 3.363506 1_465
Pu0 Zn31 3.365272 1_455
Pu0 Zn13 3.366504 1_565
Pu0 Zn29 3.367378 1_465
Pu0 Zn24 3.368656 1_555
Pu0 Zn8 3.369241 1_565
Pu0 Zn23 3.370562 1_455
Pu0 Zn5 3.448356 1_565
Pu0 Zn42 3.448811 1_565
Pu0 Zn36 3.462163 1_565
Pu0 Zn41 3.464039 1_555
Pu1 Zn37 3.067329 1_555
Pu1 Zn2 3.067450 1_555
Pu1 Zn21 3.149256 1_555
Pu1 Zn3 3.149972 1_555
Pu1 Zn26 3.221750 1_555
Pu1 Zn15 3.222278 1_555
Pu1 Zn22 3.243532 1_555
Pu1 Zn34 3.244778 1_555
Pu1 Zn31 3.251184 1_455
Pu1 Zn13 3.251912 1_555
Pu1 Zn18 3.252822 1_455
Pu1 Zn35 3.252952 1_555
Pu1 Zn11 3.424706 1_555
Pu1 Zn32 3.424987 1_555
Pu1 Zn9 3.425024 1_555
Pu1 Zn39 3.425482 1_555
Pu2 Zn0 3.073685 1_555
Pu2 Zn1 3.073740 1_555
Pu2 Zn6 3.136064 1_554
Pu2 Zn20 3.136113 1_554
Pu2 Zn16 3.223258 1_555
Pu2 Zn30 3.224994 1_555
Pu2 Zn10 3.247585 1_554
Pu2 Zn12 3.248076 1_544
Pu2 Zn40 3.249751 1_544
Pu2 Zn25 3.249790 1_554
Pu2 Zn28 3.252668 1_555
Pu2 Zn4 3.253194 1_555
Pu2 Zn29 3.433645 1_555
Pu2 Zn8 3.434167 1_555
Pu2 Zn24 3.434232 1_555
Pu2 Zn23 3.435136 1_555
Pu3 Zn33 3.067329 1_555
Pu3 Zn38 3.067450 1_555
Pu3 Zn17 3.149256 1_555
Pu3 Zn14 3.149972 1_555
Pu3 Zn4 3.221750 1_555
Pu3 Zn28 3.222278 1_555
Pu3 Zn30 3.243532 1_555
Pu3 Zn16 3.244778 1_555
Pu3 Zn11 3.251184 1_655
Pu3 Zn39 3.251912 1_555
Pu3 Zn9 3.252822 1_655
Pu3 Zn32 3.252952 1_555
Pu3 Zn31 3.424706 1_555
Pu3 Zn35 3.424987 1_555
Pu3 Zn18 3.425024 1_555
Pu3 Zn13 3.425482 1_555
Pu4 Zn7 3.073685 1_555
Pu4 Zn43 3.073740 1_555
Pu4 Zn27 3.136064 1_556
Pu4 Zn19 3.136113 1_556
Pu4 Zn34 3.223258 1_555
Pu4 Zn22 3.224994 1_555
Pu4 Zn23 3.247585 1_556
Pu4 Zn8 3.248076 1_566
Pu4 Zn29 3.249751 1_566
Pu4 Zn24 3.249790 1_556
Pu4 Zn15 3.252668 1_555
Pu4 Zn26 3.253194 1_555
Pu4 Zn40 3.433645 1_555
Pu4 Zn12 3.434167 1_555
Pu4 Zn25 3.434232 1_555
Pu4 Zn10 3.435136 1_555
Pu5 Zn6 3.114538 1_655
Pu5 Zn20 3.114626 1_555
Pu5 Zn14 3.114629 1_545
Pu5 Zn17 3.115157 1_555
Pu5 Zn38 3.185357 1_555
Pu5 Zn33 3.186036 1_545
Pu5 Zn0 3.199158 1_656
Pu5 Zn1 3.199280 1_556
Pu5 Zn32 3.363413 1_555
Pu5 Zn9 3.363506 1_645
Pu5 Zn11 3.365272 1_655
Pu5 Zn39 3.366504 1_545
Pu5 Zn40 3.367378 1_645
Pu5 Zn25 3.368656 1_555
Pu5 Zn12 3.369241 1_545
Pu5 Zn10 3.370562 1_655
Pu5 Zn5 3.448356 1_655
Pu5 Zn42 3.448811 1_555
Pu5 Zn36 3.462163 1_656
Pu5 Zn41 3.464039 1_656
Zn0 Zn41 2.613214 1_555
Zn0 Zn36 2.614969 1_555
Zn0 Zn28 2.680560 1_555
Zn0 Zn10 2.715877 1_554
Zn0 Zn40 2.716971 1_544
Zn0 Zn1 2.734291 1_455
Zn0 Zn8 2.772772 1_555
Zn0 Zn24 2.773532 1_555
Zn0 Zn3 2.967177 1_555
Zn0 Zn21 2.967662 1_555
Zn1 Zn36 2.613684 1_655
Zn1 Zn41 2.614751 1_655
Zn1 Zn4 2.680173 1_555
Zn1 Zn25 2.716259 1_554
Zn1 Zn12 2.716892 1_544
Zn1 Zn23 2.772899 1_555
Zn1 Zn29 2.773083 1_555
Zn1 Zn3 2.967246 1_655
Zn1 Zn21 2.968412 1_655
Zn2 Zn5 2.616346 1_565
Zn2 Zn42 2.618009 1_565
Zn2 Zn34 2.684039 1_555
Zn2 Zn35 2.720367 1_555
Zn2 Zn31 2.720796 1_455
Zn2 Zn37 2.739011 1_565
Zn2 Zn39 2.771352 1_555
Zn2 Zn9 2.772256 1_555
Zn2 Zn6 2.967481 1_565
Zn2 Zn20 2.967756 1_565
Zn3 Zn36 2.665203 1_555
Zn3 Zn8 2.811456 1_555
Zn3 Zn4 2.827567 1_455
Zn5 Zn9 2.645309 1_545
Zn5 Zn6 2.665067 1_555
Zn6 Zn9 2.815821 1_545
Zn10 Zn22 2.560249 1_555
Zn10 Zn24 2.607607 1_556
Zn10 Zn41 2.643593 1_556
Zn10 Zn6 2.663072 1_555
Zn10 Zn11 2.742017 1_555
Zn10 Zn26 2.758026 1_555
Zn10 Zn43 2.772899 1_555
Zn10 Zn17 2.811400 1_455
Zn11 Zn26 2.559845 1_555
Zn11 Zn18 2.605332 1_455
Zn11 Zn5 2.646332 1_555
Zn11 Zn17 2.664702 1_455
Zn11 Zn38 2.720796 1_455
Zn11 Zn22 2.763722 1_555
Zn11 Zn37 2.772196 1_555
Zn11 Zn6 2.812780 1_555
Zn12 Zn34 2.560665 1_555
Zn12 Zn29 2.607371 1_566
Zn12 Zn36 2.643749 1_666
Zn12 Zn20 2.661749 1_565
Zn12 Zn39 2.742601 1_555
Zn12 Zn15 2.759113 1_555
Zn12 Zn7 2.772772 1_555
Zn12 Zn14 2.811456 1_555
Zn13 Zn28 2.558879 1_555
Zn13 Zn32 2.605151 1_555
Zn13 Zn42 2.645333 1_555
Zn13 Zn3 2.664742 1_555
Zn13 Zn37 2.720097 1_555
Zn13 Zn8 2.742601 1_555
Zn13 Zn16 2.763556 1_555
Zn13 Zn38 2.771352 1_555
Zn13 Zn19 2.813807 1_545
Zn14 Zn17 2.642103 1_555
Zn14 Zn39 2.664742 1_555
Zn14 Zn9 2.664997 1_655
Zn14 Zn36 2.665203 1_666
Zn14 Zn40 2.812741 1_655
Zn14 Zn26 2.827567 1_655
Zn14 Zn15 2.827654 1_555
Zn14 Zn7 2.967177 1_555
Zn14 Zn43 2.967246 1_655
Zn15 Zn39 2.558879 1_555
Zn15 Zn32 2.559822 1_555
Zn15 Zn7 2.680560 1_555
Zn15 Zn34 2.739124 1_555
Zn15 Zn22 2.740848 1_555
Zn15 Zn25 2.757284 1_555
Zn15 Zn17 2.827580 1_555
Zn16 Zn29 2.560236 1_555
Zn16 Zn8 2.560665 1_555
Zn16 Zn38 2.684039 1_555
Zn16 Zn28 2.739124 1_555
Zn16 Zn4 2.740720 1_555
Zn16 Zn18 2.764382 1_555
Zn16 Zn19 2.831070 1_545
Zn16 Zn27 2.831749 1_545
Zn17 Zn41 2.664315 1_656
Zn17 Zn32 2.665163 1_555
Zn17 Zn25 2.811395 1_555
Zn17 Zn26 2.827896 1_655
Zn17 Zn7 2.967662 1_555
Zn17 Zn43 2.968412 1_655
Zn18 Zn4 2.558983 1_555
Zn18 Zn5 2.645309 1_655
Zn18 Zn3 2.664997 1_655
Zn18 Zn37 2.719997 1_655
Zn18 Zn29 2.741093 1_555
Zn18 Zn38 2.772256 1_555
Zn18 Zn27 2.815821 1_545
Zn19 Zn27 2.647495 1_555
Zn19 Zn8 2.661749 1_565
Zn19 Zn24 2.664636 1_555
Zn19 Zn42 2.664878 1_565
Zn19 Zn35 2.814476 1_555
Zn19 Zn30 2.831743 1_555
Zn19 Zn33 2.966656 1_555
Zn19 Zn38 2.967756 1_565
Zn20 Zn6 2.647495 1_555
Zn20 Zn25 2.664636 1_555
Zn20 Zn42 2.664878 1_555
Zn20 Zn39 2.813807 1_545
Zn20 Zn32 2.814476 1_555
Zn20 Zn34 2.831070 1_545
Zn20 Zn22 2.831743 1_555
Zn20 Zn37 2.966656 1_555
Zn21 Zn3 2.642103 1_555
Zn21 Zn41 2.664315 1_555
Zn21 Zn31 2.664702 1_455
Zn21 Zn35 2.665163 1_555
Zn21 Zn24 2.811395 1_555
Zn21 Zn23 2.811400 1_455
Zn21 Zn28 2.827580 1_555
Zn21 Zn4 2.827896 1_455
Zn22 Zn25 2.560091 1_555
Zn22 Zn37 2.684780 1_555
Zn22 Zn26 2.739516 1_555
Zn22 Zn32 2.763887 1_555
Zn22 Zn6 2.830801 1_555
Zn23 Zn30 2.560249 1_555
Zn23 Zn25 2.607607 1_554
Zn23 Zn41 2.643593 1_655
Zn23 Zn27 2.663072 1_555
Zn23 Zn7 2.715877 1_554
Zn23 Zn31 2.742017 1_555
Zn23 Zn4 2.758026 1_555
Zn24 Zn30 2.560091 1_555
Zn24 Zn41 2.644028 1_555
Zn24 Zn43 2.716259 1_554
Zn24 Zn35 2.740071 1_555
Zn24 Zn28 2.757284 1_555
Zn25 Zn41 2.644028 1_656
Zn25 Zn32 2.740071 1_555
Zn25 Zn7 2.773532 1_555
Zn26 Zn9 2.558983 1_555
Zn26 Zn43 2.680173 1_555
Zn26 Zn34 2.740720 1_555
Zn26 Zn40 2.758637 1_555
Zn27 Zn29 2.663481 1_565
Zn27 Zn5 2.665067 1_665
Zn27 Zn31 2.812780 1_555
Zn27 Zn30 2.830801 1_555
Zn27 Zn33 2.966599 1_555
Zn27 Zn38 2.967481 1_565
Zn28 Zn35 2.559822 1_555
Zn28 Zn30 2.740848 1_555
Zn28 Zn8 2.759113 1_555
Zn28 Zn3 2.827654 1_555
Zn29 Zn36 2.643810 1_655
Zn29 Zn7 2.716971 1_544
Zn29 Zn4 2.758637 1_555
Zn29 Zn3 2.812741 1_655
Zn30 Zn33 2.684780 1_555
Zn30 Zn4 2.739516 1_555
Zn30 Zn31 2.763722 1_555
Zn30 Zn35 2.763887 1_555
Zn31 Zn4 2.559845 1_555
Zn31 Zn9 2.605332 1_655
Zn31 Zn5 2.646332 1_665
Zn31 Zn33 2.772196 1_555
Zn32 Zn42 2.646355 1_555
Zn32 Zn38 2.720367 1_555
Zn32 Zn37 2.772456 1_555
Zn33 Zn42 2.616108 1_565
Zn33 Zn5 2.618248 1_665
Zn33 Zn9 2.719997 1_655
Zn33 Zn39 2.720097 1_555
Zn33 Zn38 2.739011 1_565
Zn33 Zn35 2.772456 1_555
Zn34 Zn40 2.560236 1_555
Zn34 Zn39 2.763556 1_555
Zn34 Zn9 2.764382 1_555
Zn34 Zn6 2.831749 1_565
Zn35 Zn39 2.605151 1_555
Zn35 Zn42 2.646355 1_565
Zn36 Zn43 2.613684 1_544
Zn36 Zn7 2.614969 1_444
Zn36 Zn8 2.643749 1_555
Zn36 Zn40 2.643810 1_544
Zn37 Zn42 2.616108 1_555
Zn37 Zn5 2.618248 1_555
Zn37 Zn6 2.966599 1_555
Zn38 Zn5 2.616346 1_655
Zn38 Zn42 2.618009 1_555
Zn39 Zn42 2.645333 1_565
Zn40 Zn8 2.607371 1_566
Zn40 Zn6 2.663481 1_565
Zn40 Zn9 2.741093 1_555
Zn40 Zn43 2.773083 1_555
Zn41 Zn7 2.613214 1_454
Zn41 Zn43 2.614751 1_554
Zn43 Zn8 2.716892 1_566
Zn43 Zn7 2.734291 1_455
