# generated using pymatgen
data_NaZn(PO3)3
_symmetry_space_group_name_H-M   'P 1'
_cell_length_a   12.76595404
_cell_length_b   12.76595404
_cell_length_c   12.76595404
_cell_angle_alpha   109.47122063
_cell_angle_beta   109.47122063
_cell_angle_gamma   109.47122063
_symmetry_Int_Tables_number   1
_chemical_formula_structural   NaZn(PO3)3
_chemical_formula_sum   'Na8 Zn8 P24 O72'
_cell_volume   1601.54054792
_cell_formula_units_Z   8
loop_
 _symmetry_equiv_pos_site_id
 _symmetry_equiv_pos_as_xyz
  1  'x, y, z'
loop_
 _atom_site_type_symbol
 _atom_site_label
 _atom_site_symmetry_multiplicity
 _atom_site_fract_x
 _atom_site_fract_y
 _atom_site_fract_z
 _atom_site_occupancy
  Na  Na0  1  0.00000000  0.78016400  0.50000000  1
  Na  Na1  1  0.50000000  0.00000000  0.28016400  1
  Na  Na2  1  0.00000000  0.28016400  0.50000000  1
  Na  Na3  1  0.50000000  0.00000000  0.78016400  1
  Na  Na4  1  0.71983600  0.71983600  0.71983600  1
  Na  Na5  1  0.28016400  0.50000000  0.00000000  1
  Na  Na6  1  0.78016400  0.50000000  0.00000000  1
  Na  Na7  1  0.21983600  0.21983600  0.21983600  1
  Zn  Zn0  1  0.00000000  0.03009800  0.50000000  1
  Zn  Zn1  1  0.50000000  0.00000000  0.53009800  1
  Zn  Zn2  1  0.46990200  0.46990200  0.46990200  1
  Zn  Zn3  1  0.53009800  0.50000000  0.00000000  1
  Zn  Zn4  1  0.96990200  0.96990200  0.96990200  1
  Zn  Zn5  1  0.03009800  0.50000000  0.00000000  1
  Zn  Zn6  1  0.00000000  0.53009800  0.50000000  1
  Zn  Zn7  1  0.50000000  0.00000000  0.03009800  1
  P  P0  1  0.71964700  0.50553900  0.44219700  1
  P  P1  1  0.05780300  0.56334200  0.27745000  1
  P  P2  1  0.71410800  0.93665800  0.99446100  1
  P  P3  1  0.44219700  0.71964700  0.50553900  1
  P  P4  1  0.00553900  0.21964700  0.94219700  1
  P  P5  1  0.27745000  0.05780300  0.56334200  1
  P  P6  1  0.72255000  0.28035300  0.28589200  1
  P  P7  1  0.21410800  0.49446100  0.43665800  1
  P  P8  1  0.28035300  0.28589200  0.72255000  1
  P  P9  1  0.78035300  0.22255000  0.78589200  1
  P  P10  1  0.56334200  0.27745000  0.05780300  1
  P  P11  1  0.77745000  0.06334200  0.55780300  1
  P  P12  1  0.22255000  0.78589200  0.78035300  1
  P  P13  1  0.94219700  0.00553900  0.21964700  1
  P  P14  1  0.21964700  0.94219700  0.00553900  1
  P  P15  1  0.55780300  0.77745000  0.06334200  1
  P  P16  1  0.28589200  0.72255000  0.28035300  1
  P  P17  1  0.50553900  0.44219700  0.71964700  1
  P  P18  1  0.99446100  0.71410800  0.93665800  1
  P  P19  1  0.49446100  0.43665800  0.21410800  1
  P  P20  1  0.06334200  0.55780300  0.77745000  1
  P  P21  1  0.93665800  0.99446100  0.71410800  1
  P  P22  1  0.78589200  0.78035300  0.22255000  1
  P  P23  1  0.43665800  0.21410800  0.49446100  1
  O  O0  1  0.49794500  0.13545700  0.96932100  1
  O  O1  1  0.52057400  0.32169700  0.64527500  1
  O  O2  1  0.86248800  0.83386400  0.36454300  1
  O  O3  1  0.13961700  0.22678600  0.63354800  1
  O  O4  1  0.30112300  0.12470000  0.47942600  1
  O  O5  1  0.36038300  0.99393100  0.08717000  1
  O  O6  1  0.36645200  0.00606900  0.59323900  1
  O  O7  1  0.85472500  0.17642200  0.87530000  1
  O  O8  1  0.59323900  0.36645200  0.00606900  1
  O  O9  1  0.82169700  0.02057400  0.14527500  1
  O  O10  1  0.47137600  0.50205500  0.13751200  1
  O  O11  1  0.27321400  0.41283000  0.40676100  1
  O  O12  1  0.09323900  0.50606900  0.86645200  1
  O  O13  1  0.00205500  0.97137600  0.63751200  1
  O  O14  1  0.90676100  0.91283000  0.77321400  1
  O  O15  1  0.72678600  0.63961700  0.13354800  1
  O  O16  1  0.50205500  0.13751200  0.47137600  1
  O  O17  1  0.37530000  0.67642200  0.35472500  1
  O  O18  1  0.13751200  0.47137600  0.50205500  1
  O  O19  1  0.83386400  0.36454300  0.86248800  1
  O  O20  1  0.97137600  0.63751200  0.00205500  1
  O  O21  1  0.36454300  0.86248800  0.83386400  1
  O  O22  1  0.14527500  0.82169700  0.02057400  1
  O  O23  1  0.87530000  0.85472500  0.17642200  1
  O  O24  1  0.33386400  0.36248800  0.86454300  1
  O  O25  1  0.36248800  0.86454300  0.33386400  1
  O  O26  1  0.64527500  0.52057400  0.32169700  1
  O  O27  1  0.77321400  0.90676100  0.91283000  1
  O  O28  1  0.03067900  0.02862400  0.16613600  1
  O  O29  1  0.50606900  0.86645200  0.09323900  1
  O  O30  1  0.22678600  0.63354800  0.13961700  1
  O  O31  1  0.63751200  0.00205500  0.97137600  1
  O  O32  1  0.32169700  0.64527500  0.52057400  1
  O  O33  1  0.66613600  0.52862400  0.53067900  1
  O  O34  1  0.99794500  0.46932100  0.63545700  1
  O  O35  1  0.82357800  0.19887700  0.67830300  1
  O  O36  1  0.96932100  0.49794500  0.13545700  1
  O  O37  1  0.67830300  0.82357800  0.19887700  1
  O  O38  1  0.91283000  0.77321400  0.90676100  1
  O  O39  1  0.17830300  0.69887700  0.32357800  1
  O  O40  1  0.08717000  0.36038300  0.99393100  1
  O  O41  1  0.35472500  0.37530000  0.67642200  1
  O  O42  1  0.12470000  0.47942600  0.30112300  1
  O  O43  1  0.46932100  0.63545700  0.99794500  1
  O  O44  1  0.97942600  0.62470000  0.80112300  1
  O  O45  1  0.00606900  0.59323900  0.36645200  1
  O  O46  1  0.49393100  0.86038300  0.58717000  1
  O  O47  1  0.53067900  0.66613600  0.52862400  1
  O  O48  1  0.80112300  0.97942600  0.62470000  1
  O  O49  1  0.99393100  0.08717000  0.36038300  1
  O  O50  1  0.86645200  0.09323900  0.50606900  1
  O  O51  1  0.13354800  0.72678600  0.63961700  1
  O  O52  1  0.47942600  0.30112300  0.12470000  1
  O  O53  1  0.62470000  0.80112300  0.97942600  1
  O  O54  1  0.69887700  0.32357800  0.17830300  1
  O  O55  1  0.52862400  0.53067900  0.66613600  1
  O  O56  1  0.86454300  0.33386400  0.36248800  1
  O  O57  1  0.17642200  0.87530000  0.85472500  1
  O  O58  1  0.02862400  0.16613600  0.03067900  1
  O  O59  1  0.63354800  0.13961700  0.22678600  1
  O  O60  1  0.41283000  0.40676100  0.27321400  1
  O  O61  1  0.32357800  0.17830300  0.69887700  1
  O  O62  1  0.19887700  0.67830300  0.82357800  1
  O  O63  1  0.86038300  0.58717000  0.49393100  1
  O  O64  1  0.63545700  0.99794500  0.46932100  1
  O  O65  1  0.40676100  0.27321400  0.41283000  1
  O  O66  1  0.67642200  0.35472500  0.37530000  1
  O  O67  1  0.16613600  0.03067900  0.02862400  1
  O  O68  1  0.02057400  0.14527500  0.82169700  1
  O  O69  1  0.63961700  0.13354800  0.72678600  1
  O  O70  1  0.58717000  0.49393100  0.86038300  1
  O  O71  1  0.13545700  0.96932100  0.49794500  1
loop_
_geom_bond_atom_site_label_1
_geom_bond_atom_site_label_2
_geom_bond_distance
_geom_bond_site_symmetry_2
Na0 O63 2.471034 1_455
Na0 O45 2.471034 1_555
Na0 O51 2.471044 1_555
Na0 O13 2.471990 1_555
Na0 O2 2.471990 1_455
Na0 O71 2.471990 1_555
Na1 O5 2.471034 1_545
Na1 O29 2.471034 1_545
Na1 O59 2.471044 1_555
Na1 O16 2.471990 1_555
Na1 O64 2.471990 1_545
Na1 O25 2.471990 1_545
Na2 O49 2.471034 1_455
Na2 O50 2.471034 1_455
Na2 O3 2.471044 1_555
Na2 O18 2.471990 1_555
Na2 O34 2.471990 1_455
Na2 O56 2.471990 1_455
Na3 O46 2.471034 1_545
Na3 O6 2.471034 1_555
Na3 O69 2.471044 1_555
Na3 O31 2.471990 1_555
Na3 O21 2.471990 1_545
Na3 O0 2.471990 1_555
Na4 O38 2.471030 1_555
Na4 O14 2.471030 1_555
Na4 O27 2.471030 1_555
Na4 O47 2.471990 1_555
Na4 O55 2.471990 1_555
Na4 O33 2.471990 1_555
Na5 O12 2.471034 1_554
Na5 O40 2.471034 1_554
Na5 O30 2.471044 1_555
Na5 O10 2.471990 1_555
Na5 O43 2.471990 1_554
Na5 O24 2.471990 1_554
Na6 O70 2.471034 1_554
Na6 O8 2.471034 1_555
Na6 O15 2.471044 1_555
Na6 O20 2.471990 1_555
Na6 O19 2.471990 1_554
Na6 O36 2.471990 1_555
Na7 O11 2.471030 1_555
Na7 O65 2.471030 1_555
Na7 O60 2.471030 1_555
Na7 O28 2.471990 1_555
Na7 O58 2.471990 1_555
Na7 O67 2.471990 1_555
O0 P10 1.502033 1_556
O0 Zn7 2.122277 1_556
O1 P23 1.619253 1_555
O1 P17 1.627657 1_555
O2 P22 1.502033 1_555
O2 Zn0 2.122277 1_665
O3 P8 1.500658 1_555
O3 Zn0 2.127166 1_555
O4 P5 1.619244 1_555
O4 P23 1.627661 1_555
O5 P14 1.500660 1_555
O5 Zn7 2.127174 1_565
O6 P5 1.500660 1_555
O6 Zn1 2.127174 1_555
O7 P4 1.619253 1_655
O7 P9 1.627665 1_555
O8 P10 1.500660 1_555
O8 Zn3 2.127174 1_555
O9 P2 1.619253 1_544
O9 P13 1.627657 1_555
O10 P19 1.502033 1_555
O10 Zn3 2.122277 1_555
O11 P7 1.500671 1_555
O11 Zn2 2.127162 1_555
O12 P20 1.500660 1_555
O12 Zn5 2.127174 1_556
O13 P21 1.502033 1_455
O13 Zn0 2.122277 1_565
O14 P21 1.500671 1_555
O14 Zn4 2.127162 1_555
O15 P22 1.500658 1_555
O15 Zn3 2.127166 1_555
O16 P23 1.502033 1_555
O16 Zn1 2.122277 1_555
O17 P3 1.619253 1_555
O17 P16 1.627665 1_555
O18 P7 1.502033 1_555
O18 Zn6 2.122277 1_555
O19 P9 1.502033 1_555
O19 Zn5 2.122277 1_656
O20 P18 1.502033 1_554
O20 Zn5 2.122277 1_655
O21 P12 1.502033 1_555
O21 Zn7 2.122277 1_566
O22 P18 1.619253 1_454
O22 P14 1.627657 1_555
O23 P13 1.619253 1_565
O23 P22 1.627665 1_555
O24 P8 1.502033 1_555
O24 Zn3 2.122277 1_556
O25 P16 1.502033 1_555
O25 Zn1 2.122277 1_565
O26 P19 1.619253 1_555
O26 P0 1.627657 1_555
O27 P2 1.500671 1_555
O27 Zn4 2.127162 1_555
O28 P13 1.502033 1_455
O28 Zn4 2.122277 1_444
O29 P15 1.500660 1_555
O29 Zn7 2.127174 1_565
O30 P16 1.500658 1_555
O30 Zn5 2.127166 1_555
O31 P2 1.502033 1_545
O31 Zn7 2.122277 1_556
O32 P7 1.619253 1_555
O32 P3 1.627657 1_555
O33 P0 1.502033 1_555
O33 Zn2 2.122277 1_555
O34 P20 1.502033 1_655
O34 Zn6 2.122277 1_655
O35 P9 1.619253 1_555
O35 P11 1.627657 1_555
O36 P1 1.502033 1_655
O36 Zn5 2.122277 1_655
O37 P22 1.619253 1_555
O37 P15 1.627657 1_555
O38 P18 1.500671 1_555
O38 Zn4 2.127162 1_555
O39 P16 1.619253 1_555
O39 P1 1.627657 1_555
O40 P4 1.500660 1_555
O40 Zn5 2.127174 1_556
O41 P17 1.619253 1_555
O41 P8 1.627665 1_555
O42 P1 1.619244 1_555
O42 P7 1.627661 1_555
O43 P15 1.502033 1_556
O43 Zn3 2.122277 1_556
O44 P20 1.619244 1_655
O44 P18 1.627661 1_555
O45 P1 1.500660 1_555
O45 Zn6 2.127174 1_555
O46 P3 1.500660 1_555
O46 Zn1 2.127174 1_565
O47 P3 1.502033 1_555
O47 Zn2 2.122277 1_555
O48 P11 1.619244 1_565
O48 P21 1.627661 1_555
O49 P13 1.500660 1_555
O49 Zn0 2.127174 1_655
O50 P11 1.500660 1_555
O50 Zn0 2.127174 1_655
O51 P12 1.500658 1_555
O51 Zn6 2.127166 1_555
O52 P10 1.619244 1_555
O52 P19 1.627661 1_555
O53 P15 1.619244 1_556
O53 P2 1.627661 1_555
O54 P6 1.619253 1_555
O54 P10 1.627657 1_555
O55 P17 1.502033 1_555
O55 Zn2 2.122277 1_555
O56 P6 1.502033 1_555
O56 Zn6 2.122277 1_655
O57 P14 1.619253 1_556
O57 P12 1.627665 1_555
O58 P4 1.502033 1_554
O58 Zn4 2.122277 1_444
O59 P6 1.500658 1_555
O59 Zn7 2.127166 1_555
O60 P19 1.500671 1_555
O60 Zn2 2.127162 1_555
O61 P8 1.619253 1_555
O61 P5 1.627657 1_555
O62 P12 1.619253 1_555
O62 P20 1.627657 1_555
O63 P0 1.500660 1_555
O63 Zn6 2.127174 1_655
O64 P11 1.502033 1_565
O64 Zn1 2.122277 1_565
O65 P23 1.500671 1_555
O65 Zn2 2.127162 1_555
O66 P0 1.619253 1_555
O66 P6 1.627665 1_555
O67 P14 1.502033 1_545
O67 Zn4 2.122277 1_444
O68 P21 1.619253 1_445
O68 P4 1.627657 1_555
O69 P9 1.500658 1_555
O69 Zn1 2.127166 1_555
O70 P17 1.500660 1_555
O70 Zn3 2.127174 1_556
O71 P5 1.502033 1_565
O71 Zn0 2.122277 1_565
