# generated using pymatgen
data_MoP(Cl3O)2
_symmetry_space_group_name_H-M   'P 1'
_cell_length_a   13.85753100
_cell_length_b   6.72719300
_cell_length_c   12.83458164
_cell_angle_alpha   77.73955992
_cell_angle_beta   90.00000000
_cell_angle_gamma   90.00000000
_symmetry_Int_Tables_number   1
_chemical_formula_structural   MoP(Cl3O)2
_chemical_formula_sum   'Mo4 P4 Cl24 O8'
_cell_volume   1169.18048124
_cell_formula_units_Z   4
loop_
 _symmetry_equiv_pos_site_id
 _symmetry_equiv_pos_as_xyz
  1  'x, y, z'
loop_
 _atom_site_type_symbol
 _atom_site_label
 _atom_site_symmetry_multiplicity
 _atom_site_fract_x
 _atom_site_fract_y
 _atom_site_fract_z
 _atom_site_occupancy
  Mo  Mo0  1  0.13144500  0.92401800  0.02266100  1
  Mo  Mo1  1  0.63144500  0.07598200  0.47733900  1
  Mo  Mo2  1  0.36855500  0.92401800  0.52266100  1
  Mo  Mo3  1  0.86855500  0.07598200  0.97733900  1
  P  P0  1  0.96740900  0.39358800  0.72422600  1
  P  P1  1  0.53259100  0.39358800  0.22422600  1
  P  P2  1  0.46740900  0.60641200  0.77577400  1
  P  P3  1  0.03259100  0.60641200  0.27577400  1
  Cl  Cl0  1  0.09359000  0.53548200  0.70261500  1
  Cl  Cl1  1  0.59359000  0.46451800  0.79738500  1
  Cl  Cl2  1  0.96382400  0.21543900  0.61803000  1
  Cl  Cl3  1  0.01436900  0.17786900  0.07138100  1
  Cl  Cl4  1  0.53617600  0.21543900  0.11803000  1
  Cl  Cl5  1  0.70571900  0.38086100  0.49168200  1
  Cl  Cl6  1  0.79428100  0.38086100  0.99168200  1
  Cl  Cl7  1  0.73769300  0.01943700  0.34422600  1
  Cl  Cl8  1  0.48563100  0.17786900  0.57138100  1
  Cl  Cl9  1  0.76230700  0.01943700  0.84422600  1
  Cl  Cl10  1  0.51436900  0.82213100  0.42861900  1
  Cl  Cl11  1  0.98563100  0.82213100  0.92861900  1
  Cl  Cl12  1  0.46382400  0.78456100  0.88197000  1
  Cl  Cl13  1  0.03617600  0.78456100  0.38197000  1
  Cl  Cl14  1  0.86815300  0.60694800  0.67625900  1
  Cl  Cl15  1  0.90641000  0.46451800  0.29738500  1
  Cl  Cl16  1  0.13184700  0.39305200  0.32374100  1
  Cl  Cl17  1  0.26230700  0.98056300  0.65577400  1
  Cl  Cl18  1  0.23769300  0.98056300  0.15577400  1
  Cl  Cl19  1  0.20571900  0.61913900  0.00831800  1
  Cl  Cl20  1  0.36815300  0.39305200  0.82374100  1
  Cl  Cl21  1  0.63184700  0.60694800  0.17625900  1
  Cl  Cl22  1  0.29428100  0.61913900  0.50831800  1
  Cl  Cl23  1  0.40641000  0.53548200  0.20261500  1
  O  O0  1  0.54671300  0.27952500  0.33528800  1
  O  O1  1  0.04671300  0.72047500  0.16471200  1
  O  O2  1  0.95328700  0.27952500  0.83528800  1
  O  O3  1  0.32284000  0.08673200  0.41477200  1
  O  O4  1  0.45328700  0.72047500  0.66471200  1
  O  O5  1  0.82284000  0.91326800  0.08522800  1
  O  O6  1  0.17716000  0.08673200  0.91477200  1
  O  O7  1  0.67716000  0.91326800  0.58522800  1
loop_
_geom_bond_atom_site_label_1
_geom_bond_atom_site_label_2
_geom_bond_distance
_geom_bond_site_symmetry_2
Mo0 O6 1.695042 1_564
Mo0 O1 2.348888 1_555
Mo1 O7 1.695042 1_545
Mo1 O0 2.348888 1_555
Mo2 O3 1.695042 1_565
Mo2 O4 2.348888 1_555
Mo3 O5 1.695042 1_546
Mo3 O2 2.348888 1_555
Cl0 P0 1.983205 1_455
Cl1 P2 1.983205 1_555
Cl2 P0 1.997548 1_555
Cl3 Mo3 2.522080 1_454
Cl3 Mo0 2.528420 1_545
Cl4 P1 1.997548 1_555
Cl5 Mo1 2.336691 1_555
Cl6 Mo3 2.336691 1_555
Cl7 Mo1 2.346759 1_555
Cl8 Mo1 2.522080 1_555
Cl8 Mo2 2.528420 1_545
Cl9 Mo3 2.346759 1_555
Cl10 Mo2 2.522080 1_555
Cl10 Mo1 2.528420 1_565
Cl11 Mo0 2.522080 1_656
Cl11 Mo3 2.528420 1_565
Cl12 P2 1.997548 1_555
Cl13 P3 1.997548 1_555
Cl14 P0 1.988892 1_555
Cl15 P3 1.983205 1_655
Cl16 P3 1.988892 1_555
Cl17 Mo2 2.346759 1_555
Cl18 Mo0 2.346759 1_555
Cl19 Mo0 2.336691 1_555
Cl20 P2 1.988892 1_555
Cl21 P1 1.988892 1_555
Cl22 Mo2 2.336691 1_555
Cl23 P1 1.983205 1_555
O0 P1 1.481354 1_555
O1 P3 1.481354 1_555
O2 P0 1.481354 1_555
O4 P2 1.481354 1_555
