# generated using pymatgen
data_BiP3Pb4O13
_symmetry_space_group_name_H-M   'P 1'
_cell_length_a   9.52866178
_cell_length_b   10.05492835
_cell_length_c   13.23163821
_cell_angle_alpha   90.00000000
_cell_angle_beta   90.00000000
_cell_angle_gamma   90.00000000
_symmetry_Int_Tables_number   1
_chemical_formula_structural   BiP3Pb4O13
_chemical_formula_sum   'Bi4 P12 Pb16 O52'
_cell_volume   1267.72340866
_cell_formula_units_Z   4
loop_
 _symmetry_equiv_pos_site_id
 _symmetry_equiv_pos_as_xyz
  1  'x, y, z'
loop_
 _atom_site_type_symbol
 _atom_site_label
 _atom_site_symmetry_multiplicity
 _atom_site_fract_x
 _atom_site_fract_y
 _atom_site_fract_z
 _atom_site_occupancy
  Bi  Bi0  1  0.71097850  0.25000000  0.22855401  1
  Bi  Bi1  1  0.28902150  0.75000000  0.77144599  1
  Bi  Bi2  1  0.21097850  0.75000000  0.27144599  1
  Bi  Bi3  1  0.78902150  0.25000000  0.72855401  1
  P  P0  1  0.42995421  0.46211433  0.32804486  1
  P  P1  1  0.92995421  0.53788567  0.17195514  1
  P  P2  1  0.07004579  0.46211433  0.82804486  1
  P  P3  1  0.58956229  0.25000000  0.01692640  1
  P  P4  1  0.08956229  0.75000000  0.48307360  1
  P  P5  1  0.92995421  0.96211433  0.17195514  1
  P  P6  1  0.91043771  0.25000000  0.51692640  1
  P  P7  1  0.42995421  0.03788567  0.32804486  1
  P  P8  1  0.41043771  0.75000000  0.98307360  1
  P  P9  1  0.57004579  0.53788567  0.67195514  1
  P  P10  1  0.07004579  0.03788567  0.82804486  1
  P  P11  1  0.57004579  0.96211433  0.67195514  1
  Pb  Pb0  1  0.13734231  0.25000000  0.27462266  1
  Pb  Pb1  1  0.20007173  0.05856873  0.56800623  1
  Pb  Pb2  1  0.29992827  0.44143127  0.06800623  1
  Pb  Pb3  1  0.52909696  0.25000000  0.51412178  1
  Pb  Pb4  1  0.97090304  0.25000000  0.01412178  1
  Pb  Pb5  1  0.79992827  0.94143127  0.43199377  1
  Pb  Pb6  1  0.79992827  0.55856873  0.43199377  1
  Pb  Pb7  1  0.36265769  0.25000000  0.77462266  1
  Pb  Pb8  1  0.70007173  0.55856873  0.93199377  1
  Pb  Pb9  1  0.47090304  0.75000000  0.48587822  1
  Pb  Pb10  1  0.86265769  0.75000000  0.72537734  1
  Pb  Pb11  1  0.63734231  0.75000000  0.22537734  1
  Pb  Pb12  1  0.70007173  0.94143127  0.93199377  1
  Pb  Pb13  1  0.02909696  0.75000000  0.98587822  1
  Pb  Pb14  1  0.29992827  0.05856873  0.06800623  1
  Pb  Pb15  1  0.20007173  0.44143127  0.56800623  1
  O  O0  1  0.88330982  0.58000007  0.06500986  1
  O  O1  1  0.83864007  0.89242003  0.25079980  1
  O  O2  1  0.12804939  0.62924557  0.41443466  1
  O  O3  1  0.57109054  0.75000000  0.00114260  1
  O  O4  1  0.08641225  0.57519913  0.18376728  1
  O  O5  1  0.41358775  0.57519913  0.68376728  1
  O  O6  1  0.41554558  0.61483766  0.31456700  1
  O  O7  1  0.91554558  0.38516234  0.18543300  1
  O  O8  1  0.37195061  0.62924557  0.91443466  1
  O  O9  1  0.87195061  0.12924557  0.58556534  1
  O  O10  1  0.83392233  0.25000000  0.41609382  1
  O  O11  1  0.88330982  0.91999993  0.06500986  1
  O  O12  1  0.33392233  0.75000000  0.08390618  1
  O  O13  1  0.07109054  0.25000000  0.49885740  1
  O  O14  1  0.11669018  0.08000007  0.93499014  1
  O  O15  1  0.16135993  0.39242003  0.74920020  1
  O  O16  1  0.91358775  0.07519913  0.81623272  1
  O  O17  1  0.58641225  0.07519913  0.31623272  1
  O  O18  1  0.32938889  0.25000000  0.60568563  1
  O  O19  1  0.91358775  0.42480087  0.81623272  1
  O  O20  1  0.11669018  0.41999993  0.93499014  1
  O  O21  1  0.17061111  0.25000000  0.10568563  1
  O  O22  1  0.33864007  0.39242003  0.24920020  1
  O  O23  1  0.16135993  0.10757997  0.74920020  1
  O  O24  1  0.37195061  0.87075443  0.91443466  1
  O  O25  1  0.82938889  0.75000000  0.89431437  1
  O  O26  1  0.58445442  0.38516234  0.68543300  1
  O  O27  1  0.08641225  0.92480087  0.18376728  1
  O  O28  1  0.61669018  0.91999993  0.56500986  1
  O  O29  1  0.42890946  0.25000000  0.99885740  1
  O  O30  1  0.38330982  0.41999993  0.43499014  1
  O  O31  1  0.62804939  0.12924557  0.08556534  1
  O  O32  1  0.38330982  0.08000007  0.43499014  1
  O  O33  1  0.92890946  0.75000000  0.50114260  1
  O  O34  1  0.66135993  0.60757997  0.75079980  1
  O  O35  1  0.58445442  0.11483766  0.68543300  1
  O  O36  1  0.66607767  0.25000000  0.91609382  1
  O  O37  1  0.91554558  0.11483766  0.18543300  1
  O  O38  1  0.62804939  0.37075443  0.08556534  1
  O  O39  1  0.08445442  0.61483766  0.81456700  1
  O  O40  1  0.08445442  0.88516234  0.81456700  1
  O  O41  1  0.33864007  0.10757997  0.24920020  1
  O  O42  1  0.61669018  0.58000007  0.56500986  1
  O  O43  1  0.66135993  0.89242003  0.75079980  1
  O  O44  1  0.87195061  0.37075443  0.58556534  1
  O  O45  1  0.67061111  0.75000000  0.39431437  1
  O  O46  1  0.58641225  0.42480087  0.31623272  1
  O  O47  1  0.83864007  0.60757997  0.25079980  1
  O  O48  1  0.16607767  0.75000000  0.58390618  1
  O  O49  1  0.41554558  0.88516234  0.31456700  1
  O  O50  1  0.41358775  0.92480087  0.68376728  1
  O  O51  1  0.12804939  0.87075443  0.41443466  1
loop_
_geom_bond_atom_site_label_1
_geom_bond_atom_site_label_2
_geom_bond_distance
_geom_bond_site_symmetry_2
Bi0 O31 2.382900 1_555
Bi0 O38 2.382900 1_555
Bi0 O17 2.417427 1_555
Bi0 O46 2.417427 1_555
Bi0 O7 2.443794 1_555
Bi0 O37 2.443794 1_555
Bi0 O10 2.744090 1_555
Bi1 O8 2.382900 1_555
Bi1 O24 2.382900 1_555
Bi1 O50 2.417427 1_555
Bi1 O5 2.417427 1_555
Bi1 O39 2.443794 1_555
Bi1 O40 2.443794 1_555
Bi1 O48 2.744090 1_555
Bi2 O2 2.382900 1_555
Bi2 O51 2.382900 1_555
Bi2 O4 2.417427 1_555
Bi2 O27 2.417427 1_555
Bi2 O6 2.443794 1_555
Bi2 O49 2.443794 1_555
Bi2 O12 2.744090 1_555
Bi3 O9 2.382900 1_555
Bi3 O44 2.382900 1_555
Bi3 O16 2.417427 1_555
Bi3 O19 2.417427 1_555
Bi3 O35 2.443794 1_555
Bi3 O26 2.443794 1_555
Bi3 O36 2.744090 1_555
O0 P1 1.542484 1_555
O0 Pb13 2.438828 1_654
O0 Pb8 2.488508 1_554
O1 P5 1.528566 1_555
O1 Pb11 2.417218 1_555
O1 Pb5 2.475257 1_555
O2 P4 1.559986 1_555
O3 P8 1.549364 1_554
O3 Pb12 2.460200 1_554
O3 Pb8 2.460200 1_554
O4 P1 1.545245 1_455
O5 P9 1.545245 1_555
O6 P0 1.552027 1_555
O6 Pb9 2.695052 1_555
O6 Pb11 2.776018 1_555
O7 P1 1.552027 1_555
O7 Pb4 2.695052 1_555
O7 Pb0 2.776018 1_655
O8 P8 1.559986 1_555
O9 P6 1.559986 1_555
O10 P6 1.520397 1_555
O11 P5 1.542484 1_555
O11 Pb13 2.438828 1_654
O11 Pb12 2.488508 1_554
O12 P8 1.520397 1_554
O13 P6 1.549364 1_455
O13 Pb15 2.460200 1_555
O13 Pb1 2.460200 1_555
O14 P10 1.542484 1_555
O14 Pb4 2.438828 1_456
O14 Pb14 2.488508 1_556
O15 P2 1.528566 1_555
O15 Pb7 2.417218 1_555
O15 Pb15 2.475257 1_555
O16 P10 1.545245 1_655
O17 P7 1.545245 1_555
O18 Pb3 2.255892 1_555
O18 Pb7 2.257680 1_555
O18 Pb15 2.339207 1_555
O18 Pb1 2.339207 1_555
O19 P2 1.545245 1_655
O20 P2 1.542484 1_555
O20 Pb4 2.438828 1_456
O20 Pb2 2.488508 1_556
O21 Pb4 2.255892 1_455
O21 Pb0 2.257680 1_555
O21 Pb2 2.339207 1_555
O21 Pb14 2.339207 1_555
O22 P0 1.528566 1_555
O22 Pb0 2.417218 1_555
O22 Pb2 2.475257 1_555
O23 P10 1.528566 1_555
O23 Pb7 2.417218 1_555
O23 Pb1 2.475257 1_555
O24 P8 1.559986 1_555
O25 Pb13 2.255892 1_655
O25 Pb10 2.257680 1_555
O25 Pb8 2.339207 1_555
O25 Pb12 2.339207 1_555
O26 P9 1.552027 1_555
O26 Pb3 2.695052 1_555
O26 Pb7 2.776018 1_555
O27 P5 1.545245 1_455
O28 P11 1.542484 1_555
O28 Pb9 2.438828 1_555
O28 Pb5 2.488508 1_555
O29 P3 1.549364 1_556
O29 Pb14 2.460200 1_556
O29 Pb2 2.460200 1_556
O30 P0 1.542484 1_555
O30 Pb3 2.438828 1_555
O30 Pb15 2.488508 1_555
O31 P3 1.559986 1_555
O32 P7 1.542484 1_555
O32 Pb3 2.438828 1_555
O32 Pb1 2.488508 1_555
O33 P4 1.549364 1_655
O33 Pb5 2.460200 1_555
O33 Pb6 2.460200 1_555
O34 P9 1.528566 1_555
O34 Pb10 2.417218 1_555
O34 Pb8 2.475257 1_555
O35 P11 1.552027 1_545
O35 Pb3 2.695052 1_555
O35 Pb7 2.776018 1_555
O36 P3 1.520397 1_556
O37 P5 1.552027 1_545
O37 Pb4 2.695052 1_555
O37 Pb0 2.776018 1_655
O38 P3 1.559986 1_555
O39 P2 1.552027 1_555
O39 Pb13 2.695052 1_555
O39 Pb10 2.776018 1_455
O40 P10 1.552027 1_565
O40 Pb13 2.695052 1_555
O40 Pb10 2.776018 1_455
O41 P7 1.528566 1_555
O41 Pb0 2.417218 1_555
O41 Pb14 2.475257 1_555
O42 P9 1.542484 1_555
O42 Pb9 2.438828 1_555
O42 Pb6 2.488508 1_555
O43 P11 1.528566 1_555
O43 Pb10 2.417218 1_555
O43 Pb12 2.475257 1_555
O44 P6 1.559986 1_555
O45 Pb9 2.255892 1_555
O45 Pb11 2.257680 1_555
O45 Pb5 2.339207 1_555
O45 Pb6 2.339207 1_555
O46 P0 1.545245 1_555
O47 P1 1.528566 1_555
O47 Pb11 2.417218 1_555
O47 Pb6 2.475257 1_555
O48 P4 1.520397 1_555
O49 P7 1.552027 1_565
O49 Pb9 2.695052 1_555
O49 Pb11 2.776018 1_555
O50 P11 1.545245 1_555
O51 P4 1.559986 1_555
