# generated using pymatgen
data_Cu4Te5(ClO3)4
_symmetry_space_group_name_H-M   'P 1'
_cell_length_a   11.56670700
_cell_length_b   11.56670700
_cell_length_c   6.39636800
_cell_angle_alpha   90.00000000
_cell_angle_beta   90.00000000
_cell_angle_gamma   90.00000000
_symmetry_Int_Tables_number   1
_chemical_formula_structural   Cu4Te5(ClO3)4
_chemical_formula_sum   'Cu8 Te10 Cl8 O24'
_cell_volume   855.76182867
_cell_formula_units_Z   2
loop_
 _symmetry_equiv_pos_site_id
 _symmetry_equiv_pos_as_xyz
  1  'x, y, z'
loop_
 _atom_site_type_symbol
 _atom_site_label
 _atom_site_symmetry_multiplicity
 _atom_site_fract_x
 _atom_site_fract_y
 _atom_site_fract_z
 _atom_site_occupancy
  Cu  Cu0  1  0.15691400  0.00527200  0.35004600  1
  Cu  Cu1  1  0.00527200  0.84308600  0.64995400  1
  Cu  Cu2  1  0.99472800  0.15691400  0.64995400  1
  Cu  Cu3  1  0.50527200  0.34308600  0.35004600  1
  Cu  Cu4  1  0.84308600  0.99472800  0.35004600  1
  Cu  Cu5  1  0.34308600  0.49472800  0.64995400  1
  Cu  Cu6  1  0.65691400  0.50527200  0.64995400  1
  Cu  Cu7  1  0.49472800  0.65691400  0.35004600  1
  Te  Te0  1  0.22924600  0.07316700  0.87103600  1
  Te  Te1  1  0.00000000  0.50000000  0.36705900  1
  Te  Te2  1  0.50000000  0.00000000  0.63294100  1
  Te  Te3  1  0.77075400  0.92683300  0.87103600  1
  Te  Te4  1  0.27075400  0.42683300  0.12896400  1
  Te  Te5  1  0.72924600  0.57316700  0.12896400  1
  Te  Te6  1  0.57316700  0.27075400  0.87103600  1
  Te  Te7  1  0.42683300  0.72924600  0.87103600  1
  Te  Te8  1  0.92683300  0.22924600  0.12896400  1
  Te  Te9  1  0.07316700  0.77075400  0.12896400  1
  Cl  Cl0  1  0.36741900  0.80369400  0.32730100  1
  Cl  Cl1  1  0.63258100  0.19630600  0.32730100  1
  Cl  Cl2  1  0.69630600  0.86741900  0.32730100  1
  Cl  Cl3  1  0.19630600  0.36741900  0.67269900  1
  Cl  Cl4  1  0.80369400  0.63258100  0.67269900  1
  Cl  Cl5  1  0.13258100  0.69630600  0.67269900  1
  Cl  Cl6  1  0.30369400  0.13258100  0.32730100  1
  Cl  Cl7  1  0.86741900  0.30369400  0.67269900  1
  O  O0  1  0.95848100  0.82700000  0.94104400  1
  O  O1  1  0.53766000  0.84608500  0.76877100  1
  O  O2  1  0.12206400  0.03601900  0.64460500  1
  O  O3  1  0.37793600  0.46398100  0.35539500  1
  O  O4  1  0.96234000  0.65391500  0.23122900  1
  O  O5  1  0.32700000  0.54151900  0.94104400  1
  O  O6  1  0.67300000  0.45848100  0.94104400  1
  O  O7  1  0.04151900  0.17300000  0.94104400  1
  O  O8  1  0.03601900  0.87793600  0.35539500  1
  O  O9  1  0.15391500  0.53766000  0.23122900  1
  O  O10  1  0.87793600  0.96398100  0.64460500  1
  O  O11  1  0.34608500  0.96234000  0.76877100  1
  O  O12  1  0.84608500  0.46234000  0.23122900  1
  O  O13  1  0.45848100  0.32700000  0.05895600  1
  O  O14  1  0.54151900  0.67300000  0.05895600  1
  O  O15  1  0.03766000  0.34608500  0.23122900  1
  O  O16  1  0.46234000  0.15391500  0.76877100  1
  O  O17  1  0.65391500  0.03766000  0.76877100  1
  O  O18  1  0.53601900  0.37793600  0.64460500  1
  O  O19  1  0.62206400  0.53601900  0.35539500  1
  O  O20  1  0.82700000  0.04151900  0.05895600  1
  O  O21  1  0.96398100  0.12206400  0.35539500  1
  O  O22  1  0.46398100  0.62206400  0.64460500  1
  O  O23  1  0.17300000  0.95848100  0.05895600  1
loop_
_geom_bond_atom_site_label_1
_geom_bond_atom_site_label_2
_geom_bond_distance
_geom_bond_site_symmetry_2
Cu0 O23 1.947890 1_545
Cu0 O2 1.959294 1_555
Cu0 O8 2.031227 1_545
Cu0 O21 2.608857 1_455
Cu1 O0 1.947890 1_455
Cu1 O8 1.959294 1_555
Cu1 O10 2.031227 1_455
Cu1 O2 2.608857 1_565
Cu2 O7 1.947890 1_655
Cu2 O21 1.959294 1_555
Cu2 O2 2.031227 1_655
Cu2 O10 2.608857 1_545
Cu3 O13 1.947890 1_555
Cu3 O18 1.959294 1_555
Cu3 O3 2.031227 1_555
Cu3 O19 2.608857 1_555
Cu4 O20 1.947890 1_565
Cu4 O10 1.959294 1_555
Cu4 O21 2.031227 1_565
Cu4 O8 2.608857 1_655
Cu5 O5 1.947890 1_555
Cu5 O3 1.959294 1_555
Cu5 O22 2.031227 1_555
Cu5 O18 2.608857 1_555
Cu6 O6 1.947890 1_555
Cu6 O19 1.959294 1_555
Cu6 O18 2.031227 1_555
Cu6 O22 2.608857 1_555
Cu7 O14 1.947890 1_555
Cu7 O22 1.959294 1_555
Cu7 O19 2.031227 1_555
Cu7 O3 2.608857 1_555
Cl0 Cu7 2.252099 1_555
Cl1 Cu3 2.252099 1_555
Cl2 Cu4 2.252099 1_555
Cl3 Cu5 2.252099 1_555
Cl4 Cu6 2.252099 1_555
Cl5 Cu1 2.252099 1_555
Cl6 Cu0 2.252099 1_555
Cl7 Cu2 2.252099 1_555
O0 Te9 1.904673 1_656
O0 Te3 2.499770 1_555
O1 Te7 1.974222 1_555
O1 Te2 2.028306 1_565
O2 Te0 1.954294 1_555
O3 Te4 1.954294 1_555
O4 Te9 1.974222 1_655
O4 Te1 2.028306 1_655
O5 Te4 1.904673 1_556
O5 Te7 2.499770 1_555
O6 Te5 1.904673 1_556
O6 Te6 2.499770 1_555
O7 Te8 1.904673 1_456
O7 Te0 2.499770 1_555
O8 Te9 1.954294 1_555
O9 Te4 1.974222 1_555
O9 Te1 2.028306 1_555
O10 Te3 1.954294 1_555
O11 Te0 1.974222 1_565
O11 Te2 2.028306 1_565
O12 Te5 1.974222 1_555
O12 Te1 2.028306 1_655
O13 Te6 1.904673 1_554
O13 Te4 2.499770 1_555
O14 Te7 1.904673 1_554
O14 Te5 2.499770 1_555
O15 Te8 1.974222 1_455
O15 Te1 2.028306 1_555
O16 Te6 1.974222 1_555
O16 Te2 2.028306 1_555
O17 Te3 1.974222 1_545
O17 Te2 2.028306 1_555
O18 Te6 1.954294 1_555
O19 Te5 1.954294 1_555
O20 Te3 1.904673 1_544
O20 Te8 2.499770 1_555
O21 Te8 1.954294 1_555
O22 Te7 1.954294 1_555
O23 Te0 1.904673 1_564
O23 Te9 2.499770 1_555
