# generated using pymatgen
data_LaTmS3
_symmetry_space_group_name_H-M   'P 1'
_cell_length_a   3.98277579
_cell_length_b   16.39311766
_cell_length_c   21.37012333
_cell_angle_alpha   90.00000000
_cell_angle_beta   90.00000000
_cell_angle_gamma   90.00000000
_symmetry_Int_Tables_number   1
_chemical_formula_structural   LaTmS3
_chemical_formula_sum   'La12 Tm12 S36'
_cell_volume   1395.25774864
_cell_formula_units_Z   12
loop_
 _symmetry_equiv_pos_site_id
 _symmetry_equiv_pos_as_xyz
  1  'x, y, z'
loop_
 _atom_site_type_symbol
 _atom_site_label
 _atom_site_symmetry_multiplicity
 _atom_site_fract_x
 _atom_site_fract_y
 _atom_site_fract_z
 _atom_site_occupancy
  La  La0  1  0.25000000  0.19316915  0.92032705  1
  La  La1  1  0.75000000  0.84213375  0.75417342  1
  La  La2  1  0.75000000  0.34213375  0.74582658  1
  La  La3  1  0.25000000  0.82978336  0.41297879  1
  La  La4  1  0.25000000  0.65786625  0.25417342  1
  La  La5  1  0.75000000  0.30682985  0.42032705  1
  La  La6  1  0.25000000  0.15786625  0.24582658  1
  La  La7  1  0.75000000  0.80682985  0.07967295  1
  La  La8  1  0.75000000  0.67021664  0.91297879  1
  La  La9  1  0.25000000  0.69317015  0.57967295  1
  La  La10  1  0.75000000  0.17021664  0.58702121  1
  La  La11  1  0.25000000  0.32978336  0.08702121  1
  Tm  Tm0  1  0.75000000  0.90532147  0.25072923  1
  Tm  Tm1  1  0.75000000  0.43441289  0.92063427  1
  Tm  Tm2  1  0.25000000  0.94291670  0.93112422  1
  Tm  Tm3  1  0.75000000  0.40532147  0.24927077  1
  Tm  Tm4  1  0.25000000  0.44291670  0.56887578  1
  Tm  Tm5  1  0.25000000  0.06558711  0.42063427  1
  Tm  Tm6  1  0.25000000  0.09467853  0.74927077  1
  Tm  Tm7  1  0.25000000  0.56558711  0.07936573  1
  Tm  Tm8  1  0.75000000  0.93441289  0.57936573  1
  Tm  Tm9  1  0.75000000  0.05708330  0.06887578  1
  Tm  Tm10  1  0.75000000  0.55708330  0.43112422  1
  Tm  Tm11  1  0.25000000  0.59467853  0.75072923  1
  S  S0  1  0.25000000  0.23005986  0.67877150  1
  S  S1  1  0.25000000  0.45011081  0.69214212  1
  S  S2  1  0.25000000  0.20802396  0.48208648  1
  S  S3  1  0.75000000  0.54988919  0.30785788  1
  S  S4  1  0.25000000  0.32458070  0.31460100  1
  S  S5  1  0.75000000  0.84199027  0.93702626  1
  S  S6  1  0.25000000  0.04171591  0.55223290  1
  S  S7  1  0.25000000  0.35479057  0.85195897  1
  S  S8  1  0.75000000  0.95828409  0.44776710  1
  S  S9  1  0.75000000  0.04988919  0.19214212  1
  S  S10  1  0.75000000  0.79197604  0.51791352  1
  S  S11  1  0.75000000  0.14520943  0.35195897  1
  S  S12  1  0.75000000  0.55836350  0.55743705  1
  S  S13  1  0.75000000  0.05836350  0.94256295  1
  S  S14  1  0.25000000  0.65800973  0.43702626  1
  S  S15  1  0.25000000  0.96406305  0.31734269  1
  S  S16  1  0.25000000  0.94163650  0.05743705  1
  S  S17  1  0.25000000  0.46406305  0.18265731  1
  S  S18  1  0.25000000  0.15800973  0.06297374  1
  S  S19  1  0.75000000  0.03593695  0.68265731  1
  S  S20  1  0.25000000  0.73005986  0.82122850  1
  S  S21  1  0.25000000  0.95011081  0.80785788  1
  S  S22  1  0.75000000  0.76994014  0.32122850  1
  S  S23  1  0.75000000  0.53593695  0.81734269  1
  S  S24  1  0.75000000  0.45828409  0.05223290  1
  S  S25  1  0.75000000  0.64520943  0.14804103  1
  S  S26  1  0.75000000  0.17541930  0.81460100  1
  S  S27  1  0.75000000  0.67541930  0.68539900  1
  S  S28  1  0.75000000  0.29197604  0.98208648  1
  S  S29  1  0.25000000  0.85479057  0.64804103  1
  S  S30  1  0.75000000  0.34199027  0.56297374  1
  S  S31  1  0.75000000  0.26994014  0.17877150  1
  S  S32  1  0.25000000  0.70802396  0.01791352  1
  S  S33  1  0.25000000  0.44163650  0.44256295  1
  S  S34  1  0.25000000  0.82458070  0.18539900  1
  S  S35  1  0.25000000  0.54171591  0.94776710  1
loop_
_geom_bond_atom_site_label_1
_geom_bond_atom_site_label_2
_geom_bond_distance
_geom_bond_site_symmetry_2
La0 S28 2.886367 1_455
La0 S28 2.886367 1_555
La0 S13 3.012477 1_555
La0 S13 3.012477 1_455
La0 S7 3.025617 1_555
La0 S26 3.025737 1_455
La0 S26 3.025737 1_555
La0 S18 3.102388 1_556
La1 S21 2.900858 1_555
La1 S21 2.900858 1_655
La1 S29 3.025357 1_555
La1 S29 3.025357 1_655
La1 S20 3.065044 1_555
La1 S20 3.065044 1_655
La1 S27 3.103094 1_555
La1 S19 3.525521 1_565
La2 S1 2.900858 1_555
La2 S1 2.900858 1_655
La2 S7 3.025357 1_655
La2 S7 3.025357 1_555
La2 S0 3.065044 1_555
La2 S0 3.065044 1_655
La2 S26 3.103094 1_555
La2 S23 3.525521 1_555
La3 S14 2.862414 1_555
La3 S22 2.961828 1_455
La3 S22 2.961828 1_555
La3 S8 2.992620 1_455
La3 S8 2.992620 1_555
La3 S15 3.003747 1_555
La3 S10 3.062420 1_555
La3 S10 3.062420 1_455
La4 S3 2.900858 1_555
La4 S3 2.900858 1_455
La4 S25 3.025357 1_555
La4 S25 3.025357 1_455
La4 S22 3.065044 1_555
La4 S22 3.065044 1_455
La4 S34 3.103094 1_555
La4 S17 3.525521 1_555
La5 S2 2.886358 1_555
La5 S2 2.886358 1_655
La5 S33 3.012489 1_655
La5 S33 3.012489 1_555
La5 S11 3.025603 1_555
La5 S4 3.025739 1_555
La5 S4 3.025739 1_655
La5 S30 3.102391 1_555
La6 S9 2.900858 1_455
La6 S9 2.900858 1_555
La6 S11 3.025357 1_555
La6 S11 3.025357 1_455
La6 S31 3.065044 1_455
La6 S31 3.065044 1_555
La6 S4 3.103094 1_555
La6 S15 3.525521 1_545
La7 S32 2.886358 1_655
La7 S32 2.886358 1_555
La7 S16 3.012489 1_555
La7 S16 3.012489 1_655
La7 S25 3.025603 1_555
La7 S34 3.025739 1_655
La7 S34 3.025739 1_555
La7 S5 3.102391 1_554
La8 S5 2.862414 1_555
La8 S20 2.961828 1_655
La8 S20 2.961828 1_555
La8 S35 2.992620 1_555
La8 S35 2.992620 1_655
La8 S23 3.003747 1_555
La8 S32 3.062420 1_656
La8 S32 3.062420 1_556
La9 S10 2.886358 1_455
La9 S10 2.886358 1_555
La9 S12 3.012489 1_455
La9 S12 3.012489 1_555
La9 S29 3.025603 1_555
La9 S27 3.025739 1_455
La9 S27 3.025739 1_555
La9 S14 3.102391 1_555
La10 S30 2.862414 1_555
La10 S0 2.961828 1_655
La10 S0 2.961828 1_555
La10 S6 2.992620 1_655
La10 S6 2.992620 1_555
La10 S19 3.003747 1_555
La10 S2 3.062420 1_555
La10 S2 3.062420 1_655
La11 S18 2.862414 1_555
La11 S31 2.961828 1_555
La11 S31 2.961828 1_455
La11 S24 2.992620 1_555
La11 S24 2.992620 1_455
La11 S17 3.003747 1_555
La11 S28 3.062420 1_454
La11 S28 3.062420 1_554
S0 Tm6 2.682381 1_555
S1 Tm4 2.636856 1_555
S1 Tm11 2.680306 1_555
S2 Tm5 2.678946 1_555
S3 Tm10 2.636856 1_555
S3 Tm3 2.680306 1_555
S4 Tm3 2.768874 1_555
S4 Tm3 2.768874 1_455
S5 Tm2 2.592084 1_655
S5 Tm2 2.592084 1_555
S6 Tm8 2.719563 1_545
S6 Tm8 2.719563 1_445
S6 Tm5 2.839374 1_555
S7 Tm1 2.796994 1_455
S7 Tm1 2.796994 1_555
S8 Tm5 2.719563 1_565
S8 Tm5 2.719563 1_665
S8 Tm8 2.839374 1_555
S9 Tm9 2.636856 1_555
S9 Tm0 2.680306 1_545
S10 Tm8 2.678946 1_555
S11 Tm5 2.796994 1_655
S11 Tm5 2.796994 1_555
S12 Tm10 2.699402 1_555
S12 Tm4 2.758090 1_655
S12 Tm4 2.758090 1_555
S13 Tm9 2.699402 1_556
S13 Tm2 2.758090 1_645
S13 Tm2 2.758090 1_545
S14 Tm10 2.592084 1_455
S14 Tm10 2.592084 1_555
S15 Tm0 2.630470 1_455
S15 Tm0 2.630470 1_555
S15 Tm5 2.764469 1_565
S16 Tm2 2.699402 1_554
S16 Tm9 2.758090 1_565
S16 Tm9 2.758090 1_465
S17 Tm3 2.630470 1_455
S17 Tm3 2.630470 1_555
S17 Tm7 2.764469 1_555
S18 Tm9 2.592084 1_555
S18 Tm9 2.592084 1_455
S19 Tm6 2.630470 1_555
S19 Tm6 2.630470 1_655
S19 Tm8 2.764469 1_545
S20 Tm11 2.682381 1_555
S21 Tm2 2.636856 1_555
S21 Tm6 2.680306 1_565
S22 Tm0 2.682381 1_555
S23 Tm11 2.630470 1_555
S23 Tm11 2.630470 1_655
S23 Tm1 2.764469 1_555
S24 Tm7 2.719563 1_555
S24 Tm7 2.719563 1_655
S24 Tm1 2.839374 1_554
S25 Tm7 2.796994 1_555
S25 Tm7 2.796994 1_655
S26 Tm6 2.768874 1_555
S26 Tm6 2.768874 1_655
S27 Tm11 2.768874 1_655
S27 Tm11 2.768874 1_555
S28 Tm1 2.678946 1_555
S29 Tm8 2.796994 1_555
S29 Tm8 2.796994 1_455
S30 Tm4 2.592084 1_655
S30 Tm4 2.592084 1_555
S31 Tm3 2.682381 1_555
S32 Tm7 2.678946 1_555
S33 Tm4 2.699402 1_555
S33 Tm10 2.758090 1_555
S33 Tm10 2.758090 1_455
S34 Tm0 2.768874 1_555
S34 Tm0 2.768874 1_455
S35 Tm1 2.719563 1_455
S35 Tm1 2.719563 1_555
S35 Tm7 2.839374 1_556
