# generated using pymatgen
data_LuP5O14
_symmetry_space_group_name_H-M   'P 1'
_cell_length_a   9.11242563
_cell_length_b   9.11242563
_cell_length_c   12.46922950
_cell_angle_alpha   88.95751043
_cell_angle_beta   88.95751043
_cell_angle_gamma   89.44360224
_symmetry_Int_Tables_number   1
_chemical_formula_structural   LuP5O14
_chemical_formula_sum   'Lu4 P20 O56'
_cell_volume   1035.01039367
_cell_formula_units_Z   4
loop_
 _symmetry_equiv_pos_site_id
 _symmetry_equiv_pos_as_xyz
  1  'x, y, z'
loop_
 _atom_site_type_symbol
 _atom_site_label
 _atom_site_symmetry_multiplicity
 _atom_site_fract_x
 _atom_site_fract_y
 _atom_site_fract_z
 _atom_site_occupancy
  Lu  Lu0  1  0.01939400  0.98060600  0.25000000  1
  Lu  Lu1  1  0.98060600  0.01939400  0.75000000  1
  Lu  Lu2  1  0.46823200  0.53176800  0.25000000  1
  Lu  Lu3  1  0.53176800  0.46823200  0.75000000  1
  P  P0  1  0.18152000  0.45254700  0.89018000  1
  P  P1  1  0.31741600  0.98079000  0.89560700  1
  P  P2  1  0.01921000  0.68258400  0.60439300  1
  P  P3  1  0.42217200  0.92624800  0.24055300  1
  P  P4  1  0.17739500  0.11063000  0.50063100  1
  P  P5  1  0.07375200  0.57782800  0.25944700  1
  P  P6  1  0.57782800  0.07375200  0.75944700  1
  P  P7  1  0.62480600  0.32748500  0.03418700  1
  P  P8  1  0.68258400  0.01921000  0.10439300  1
  P  P9  1  0.37519400  0.67251500  0.96581300  1
  P  P10  1  0.32748500  0.62480600  0.53418700  1
  P  P11  1  0.92624800  0.42217200  0.74055300  1
  P  P12  1  0.54745300  0.81848000  0.60982000  1
  P  P13  1  0.81848000  0.54745300  0.10982000  1
  P  P14  1  0.11063000  0.17739500  0.00063100  1
  P  P15  1  0.45254700  0.18152000  0.39018000  1
  P  P16  1  0.98079000  0.31741600  0.39560700  1
  P  P17  1  0.82260500  0.88937000  0.49936900  1
  P  P18  1  0.67251500  0.37519400  0.46581300  1
  P  P19  1  0.88937000  0.82260500  0.99936900  1
  O  O0  1  0.57559500  0.37518800  0.92652200  1
  O  O1  1  0.67192800  0.15538400  0.02430200  1
  O  O2  1  0.53446000  0.34820800  0.13412000  1
  O  O3  1  0.85264500  0.64801300  0.00740000  1
  O  O4  1  0.51740500  0.97072900  0.66422400  1
  O  O5  1  0.77526500  0.47303500  0.76864400  1
  O  O6  1  0.98887400  0.85989100  0.08845300  1
  O  O7  1  0.52696500  0.22473500  0.73135600  1
  O  O8  1  0.78369300  0.03686500  0.19401200  1
  O  O9  1  0.48264600  0.00929100  0.86266900  1
  O  O10  1  0.01112600  0.14010900  0.91154700  1
  O  O11  1  0.26646000  0.95948000  0.21623100  1
  O  O12  1  0.32807200  0.84461600  0.97569800  1
  O  O13  1  0.47303500  0.77526500  0.26864400  1
  O  O14  1  0.00929100  0.48264600  0.36266900  1
  O  O15  1  0.95948000  0.26646000  0.71623100  1
  O  O16  1  0.85199700  0.92722400  0.38524100  1
  O  O17  1  0.69942200  0.60492800  0.17943300  1
  O  O18  1  0.73354000  0.04052000  0.78376900  1
  O  O19  1  0.14800300  0.07277600  0.61475900  1
  O  O20  1  0.85989100  0.98887400  0.58845300  1
  O  O21  1  0.14010900  0.01112600  0.41154700  1
  O  O22  1  0.60492800  0.69942200  0.67943300  1
  O  O23  1  0.07277600  0.14800300  0.11475900  1
  O  O24  1  0.35198700  0.14735500  0.49260000  1
  O  O25  1  0.97072900  0.51740500  0.16422400  1
  O  O26  1  0.39507200  0.30057800  0.32056700  1
  O  O27  1  0.78971100  0.39461700  0.05622300  1
  O  O28  1  0.99070900  0.51735400  0.63733100  1
  O  O29  1  0.65179200  0.46554000  0.36588000  1
  O  O30  1  0.42440500  0.62481200  0.07347800  1
  O  O31  1  0.37518800  0.57559500  0.42652200  1
  O  O32  1  0.27643200  0.10976300  0.97416800  1
  O  O33  1  0.46554000  0.65179200  0.86588000  1
  O  O34  1  0.21028900  0.60538300  0.94377700  1
  O  O35  1  0.84461600  0.32807200  0.47569800  1
  O  O36  1  0.48259500  0.02927100  0.33577600  1
  O  O37  1  0.34820800  0.53446000  0.63412000  1
  O  O38  1  0.15538400  0.67192800  0.52430200  1
  O  O39  1  0.60538300  0.21028900  0.44377700  1
  O  O40  1  0.14735500  0.35198700  0.99260000  1
  O  O41  1  0.04052000  0.73354000  0.28376900  1
  O  O42  1  0.39461700  0.78971100  0.55622300  1
  O  O43  1  0.22473500  0.52696500  0.23135600  1
  O  O44  1  0.30057800  0.39507200  0.82056700  1
  O  O45  1  0.64801300  0.85264500  0.50740000  1
  O  O46  1  0.02927100  0.48259500  0.83577600  1
  O  O47  1  0.89023700  0.72356800  0.52583200  1
  O  O48  1  0.10976300  0.27643200  0.47416800  1
  O  O49  1  0.21630700  0.96313500  0.80598800  1
  O  O50  1  0.03686500  0.78369300  0.69401200  1
  O  O51  1  0.62481200  0.42440500  0.57347800  1
  O  O52  1  0.72356800  0.89023700  0.02583200  1
  O  O53  1  0.92722400  0.85199700  0.88524100  1
  O  O54  1  0.51735400  0.99070900  0.13733100  1
  O  O55  1  0.96313500  0.21630700  0.30598800  1
loop_
_geom_bond_atom_site_label_1
_geom_bond_atom_site_label_2
_geom_bond_distance
_geom_bond_site_symmetry_2
Lu0 O41 2.289775 1_555
Lu0 O11 2.289775 1_555
Lu0 O16 2.301779 1_455
Lu0 O23 2.301779 1_565
Lu0 O8 2.320222 1_465
Lu0 O55 2.320222 1_465
Lu0 O21 2.334949 1_565
Lu0 O6 2.334949 1_455
Lu1 O18 2.289775 1_555
Lu1 O15 2.289775 1_555
Lu1 O53 2.301779 1_545
Lu1 O19 2.301779 1_655
Lu1 O50 2.320222 1_645
Lu1 O49 2.320222 1_645
Lu1 O10 2.334949 1_655
Lu1 O20 2.334949 1_545
Lu2 O13 2.236129 1_555
Lu2 O43 2.236129 1_555
Lu2 O29 2.299240 1_555
Lu2 O2 2.299240 1_555
Lu2 O26 2.365453 1_555
Lu2 O17 2.365453 1_555
Lu2 O31 2.383416 1_555
Lu2 O30 2.383416 1_555
Lu3 O5 2.236129 1_555
Lu3 O7 2.236129 1_555
Lu3 O33 2.299240 1_555
Lu3 O37 2.299240 1_555
Lu3 O44 2.365453 1_555
Lu3 O22 2.365453 1_555
Lu3 O0 2.383416 1_555
Lu3 O51 2.383416 1_555
O0 P7 1.479607 1_556
O1 P8 1.581975 1_555
O1 P7 1.628200 1_555
O2 P7 1.494785 1_555
O3 P13 1.586217 1_555
O3 P19 1.629874 1_554
O4 P12 1.574813 1_555
O4 P6 1.633613 1_565
O5 P11 1.485389 1_555
O6 P19 1.492598 1_554
O7 P6 1.485389 1_555
O8 P8 1.473232 1_555
O9 P1 1.576171 1_545
O9 P6 1.641858 1_555
O10 P14 1.492598 1_556
O11 P3 1.483566 1_555
O12 P1 1.581975 1_555
O12 P9 1.628200 1_555
O13 P3 1.485389 1_555
O14 P16 1.576171 1_455
O14 P5 1.641858 1_555
O15 P11 1.483566 1_555
O16 P17 1.478500 1_555
O17 P13 1.475135 1_555
O18 P6 1.483566 1_555
O19 P4 1.478500 1_555
O20 P17 1.492598 1_555
O21 P4 1.492598 1_555
O22 P12 1.475135 1_555
O23 P14 1.478500 1_555
O24 P15 1.586217 1_555
O24 P4 1.629874 1_555
O25 P13 1.574813 1_555
O25 P5 1.633613 1_655
O26 P15 1.475135 1_555
O27 P13 1.581877 1_555
O27 P7 1.657340 1_555
O28 P2 1.576171 1_655
O28 P11 1.641858 1_555
O29 P18 1.494785 1_555
O30 P9 1.479607 1_554
O31 P10 1.479607 1_555
O32 P1 1.581255 1_545
O32 P14 1.656069 1_556
O33 P9 1.494785 1_555
O34 P0 1.581877 1_555
O34 P9 1.657340 1_555
O35 P16 1.581975 1_555
O35 P18 1.628200 1_555
O36 P15 1.574813 1_555
O36 P3 1.633613 1_545
O37 P10 1.494785 1_555
O38 P2 1.581975 1_555
O38 P10 1.628200 1_555
O39 P15 1.581877 1_555
O39 P18 1.657340 1_555
O40 P0 1.586217 1_555
O40 P14 1.629874 1_556
O41 P5 1.483566 1_555
O42 P12 1.581877 1_555
O42 P10 1.657340 1_555
O43 P5 1.485389 1_555
O44 P0 1.475135 1_555
O45 P12 1.586217 1_555
O45 P17 1.629874 1_555
O46 P0 1.574813 1_555
O46 P11 1.633613 1_455
O47 P2 1.581255 1_655
O47 P17 1.656069 1_555
O48 P16 1.581255 1_455
O48 P4 1.656069 1_555
O49 P1 1.473232 1_555
O50 P2 1.473232 1_555
O51 P18 1.479607 1_555
O52 P8 1.581255 1_565
O52 P19 1.656069 1_554
O53 P19 1.478500 1_555
O54 P8 1.576171 1_565
O54 P3 1.641858 1_555
O55 P16 1.473232 1_555
