# generated using pymatgen
data_Nd4Al2O9
_symmetry_space_group_name_H-M   'P 1'
_cell_length_a   10.88724722
_cell_length_b   7.75286430
_cell_length_c   11.34838197
_cell_angle_alpha   70.55034510
_cell_angle_beta   90.00000000
_cell_angle_gamma   90.00000000
_symmetry_Int_Tables_number   1
_chemical_formula_structural   Nd4Al2O9
_chemical_formula_sum   'Nd16 Al8 O36'
_cell_volume   903.22450260
_cell_formula_units_Z   4
loop_
 _symmetry_equiv_pos_site_id
 _symmetry_equiv_pos_as_xyz
  1  'x, y, z'
loop_
 _atom_site_type_symbol
 _atom_site_label
 _atom_site_symmetry_multiplicity
 _atom_site_fract_x
 _atom_site_fract_y
 _atom_site_fract_z
 _atom_site_occupancy
  Nd  Nd0  1  0.37506418  0.33393988  0.07108420  1
  Nd  Nd1  1  0.39946723  0.52440457  0.71115527  1
  Nd  Nd2  1  0.89946723  0.47559543  0.78884473  1
  Nd  Nd3  1  0.62268838  0.16474873  0.91292948  1
  Nd  Nd4  1  0.91516885  0.97319982  0.81172180  1
  Nd  Nd5  1  0.10053277  0.52440457  0.21115527  1
  Nd  Nd6  1  0.87506418  0.66606012  0.42891580  1
  Nd  Nd7  1  0.08483115  0.02680018  0.18827820  1
  Nd  Nd8  1  0.60053277  0.47559543  0.28884473  1
  Nd  Nd9  1  0.12268838  0.83525127  0.58707052  1
  Nd  Nd10  1  0.58483115  0.97319982  0.31172180  1
  Nd  Nd11  1  0.12493582  0.33393988  0.57108420  1
  Nd  Nd12  1  0.87731162  0.16474873  0.41292948  1
  Nd  Nd13  1  0.62493582  0.66606012  0.92891580  1
  Nd  Nd14  1  0.37731162  0.83525127  0.08707052  1
  Nd  Nd15  1  0.41516885  0.02680018  0.68827820  1
  Al  Al0  1  0.19015175  0.65173795  0.88030310  1
  Al  Al1  1  0.80783904  0.77607249  0.12918003  1
  Al  Al2  1  0.80984825  0.34826205  0.11969690  1
  Al  Al3  1  0.19216096  0.22392751  0.87081997  1
  Al  Al4  1  0.69216096  0.77607249  0.62918003  1
  Al  Al5  1  0.30984825  0.65173795  0.38030310  1
  Al  Al6  1  0.69015175  0.34826205  0.61969690  1
  Al  Al7  1  0.30783904  0.22392751  0.37081997  1
  O  O0  1  0.00856956  0.56758211  0.60339646  1
  O  O1  1  0.99664677  0.07624922  0.60668962  1
  O  O2  1  0.27116460  0.64015069  0.53181929  1
  O  O3  1  0.22045124  0.78212873  0.25288802  1
  O  O4  1  0.74085177  0.56519968  0.61829738  1
  O  O5  1  0.00335323  0.92375078  0.39331038  1
  O  O6  1  0.72045124  0.21787127  0.24711198  1
  O  O7  1  0.77116460  0.35984931  0.96818071  1
  O  O8  1  0.53861318  0.29832141  0.67368393  1
  O  O9  1  0.26533367  0.08091381  0.51883152  1
  O  O10  1  0.25914823  0.43480032  0.38170262  1
  O  O11  1  0.03701566  0.21802219  0.83406548  1
  O  O12  1  0.24085177  0.43480032  0.88170262  1
  O  O13  1  0.49143044  0.56758211  0.10339646  1
  O  O14  1  0.53701566  0.78197781  0.66593452  1
  O  O15  1  0.72883540  0.35984931  0.46818071  1
  O  O16  1  0.75914823  0.56519968  0.11829738  1
  O  O17  1  0.72266747  0.76822805  0.26323861  1
  O  O18  1  0.22266747  0.23177195  0.23676139  1
  O  O19  1  0.76533367  0.91908619  0.98116848  1
  O  O20  1  0.77954876  0.21787127  0.74711198  1
  O  O21  1  0.22883540  0.64015069  0.03181929  1
  O  O22  1  0.49664677  0.92375078  0.89331038  1
  O  O23  1  0.99143044  0.43241789  0.39660354  1
  O  O24  1  0.03861318  0.70167859  0.82631607  1
  O  O25  1  0.73466633  0.91908619  0.48116848  1
  O  O26  1  0.50856956  0.43241789  0.89660354  1
  O  O27  1  0.46138682  0.70167859  0.32631607  1
  O  O28  1  0.27954876  0.78212873  0.75288802  1
  O  O29  1  0.96298434  0.78197781  0.16593452  1
  O  O30  1  0.50335323  0.07624922  0.10668962  1
  O  O31  1  0.23466633  0.08091381  0.01883152  1
  O  O32  1  0.46298434  0.21802219  0.33406548  1
  O  O33  1  0.77733253  0.76822805  0.76323861  1
  O  O34  1  0.96138682  0.29832141  0.17368393  1
  O  O35  1  0.27733253  0.23177195  0.73676139  1
loop_
_geom_bond_atom_site_label_1
_geom_bond_atom_site_label_2
_geom_bond_distance
_geom_bond_site_symmetry_2
Nd0 O13 2.337311 1_555
Nd0 O30 2.359629 1_555
Nd0 O26 2.368441 1_554
Nd0 O18 2.433831 1_555
Nd0 O12 2.499268 1_554
Nd0 O31 2.703873 1_555
Nd0 O21 2.768494 1_555
Nd0 O32 2.973965 1_555
Nd1 O26 2.312809 1_555
Nd1 O2 2.383734 1_555
Nd1 O14 2.410643 1_555
Nd1 O8 2.458547 1_555
Nd1 O12 2.513015 1_555
Nd1 O28 2.559578 1_555
Nd1 O35 2.561389 1_555
Nd2 O0 2.312809 1_655
Nd2 O7 2.383734 1_555
Nd2 O11 2.410643 1_655
Nd2 O24 2.458547 1_655
Nd2 O4 2.513015 1_555
Nd2 O20 2.559578 1_555
Nd2 O33 2.561389 1_555
Nd3 O26 2.372425 1_555
Nd3 O19 2.378398 1_545
Nd3 O22 2.387609 1_545
Nd3 O7 2.434283 1_555
Nd3 O30 2.447253 1_556
Nd3 O20 2.472049 1_555
Nd3 O8 2.722011 1_555
Nd4 O20 2.321584 1_565
Nd4 O1 2.366671 1_565
Nd4 O33 2.379553 1_555
Nd4 O11 2.397353 1_665
Nd4 O19 2.448998 1_555
Nd4 O24 2.456178 1_655
Nd5 O23 2.312809 1_455
Nd5 O21 2.383734 1_555
Nd5 O29 2.410643 1_455
Nd5 O34 2.458547 1_455
Nd5 O10 2.513015 1_555
Nd5 O3 2.559578 1_555
Nd5 O18 2.561389 1_555
Nd6 O23 2.337311 1_555
Nd6 O5 2.359629 1_655
Nd6 O0 2.368441 1_655
Nd6 O17 2.433831 1_555
Nd6 O4 2.499268 1_555
Nd6 O25 2.703873 1_555
Nd6 O15 2.768494 1_555
Nd6 O29 2.973965 1_555
Nd7 O3 2.321584 1_545
Nd7 O5 2.366671 1_545
Nd7 O18 2.379553 1_555
Nd7 O29 2.397353 1_445
Nd7 O31 2.448998 1_555
Nd7 O34 2.456178 1_455
Nd8 O13 2.312809 1_555
Nd8 O15 2.383734 1_555
Nd8 O32 2.410643 1_555
Nd8 O27 2.458547 1_555
Nd8 O16 2.513015 1_555
Nd8 O6 2.559578 1_555
Nd8 O17 2.561389 1_555
Nd9 O0 2.372425 1_555
Nd9 O9 2.378398 1_565
Nd9 O1 2.387609 1_465
Nd9 O2 2.434283 1_555
Nd9 O5 2.447253 1_555
Nd9 O28 2.472049 1_555
Nd9 O24 2.722011 1_555
Nd10 O6 2.321584 1_565
Nd10 O30 2.366671 1_565
Nd10 O17 2.379553 1_555
Nd10 O32 2.397353 1_565
Nd10 O25 2.448998 1_555
Nd10 O27 2.456178 1_555
Nd11 O0 2.337311 1_555
Nd11 O1 2.359629 1_455
Nd11 O23 2.368441 1_455
Nd11 O35 2.433831 1_555
Nd11 O10 2.499268 1_555
Nd11 O9 2.703873 1_555
Nd11 O2 2.768494 1_555
Nd11 O11 2.973965 1_555
Nd12 O23 2.372425 1_555
Nd12 O25 2.378398 1_545
Nd12 O5 2.387609 1_645
Nd12 O15 2.434283 1_555
Nd12 O1 2.447253 1_555
Nd12 O6 2.472049 1_555
Nd12 O34 2.722011 1_555
Nd13 O26 2.337311 1_555
Nd13 O22 2.359629 1_555
Nd13 O13 2.368441 1_556
Nd13 O33 2.433831 1_555
Nd13 O16 2.499268 1_556
Nd13 O19 2.703873 1_555
Nd13 O7 2.768494 1_555
Nd13 O14 2.973965 1_555
Nd14 O13 2.372425 1_555
Nd14 O31 2.378398 1_565
Nd14 O30 2.387609 1_565
Nd14 O21 2.434283 1_555
Nd14 O22 2.447253 1_554
Nd14 O3 2.472049 1_555
Nd14 O27 2.722011 1_555
Nd15 O28 2.321584 1_545
Nd15 O22 2.366671 1_545
Nd15 O35 2.379553 1_555
Nd15 O14 2.397353 1_545
Nd15 O9 2.448998 1_555
Nd15 O8 2.456178 1_555
Al0 O21 1.743310 1_556
Al0 O28 1.756859 1_555
Al0 O24 1.757629 1_555
Al0 O12 1.765190 1_555
Al1 O19 1.739141 1_554
Al1 O29 1.744095 1_555
Al1 O16 1.761682 1_555
Al1 O17 1.765343 1_555
Al2 O7 1.743310 1_554
Al2 O6 1.756859 1_555
Al2 O34 1.757629 1_555
Al2 O16 1.765190 1_555
Al3 O31 1.739141 1_556
Al3 O11 1.744095 1_555
Al3 O12 1.761682 1_555
Al3 O35 1.765343 1_555
Al4 O25 1.739141 1_555
Al4 O14 1.744095 1_555
Al4 O4 1.761682 1_555
Al4 O33 1.765343 1_555
Al5 O2 1.743310 1_555
Al5 O3 1.756859 1_555
Al5 O27 1.757629 1_555
Al5 O10 1.765190 1_555
Al6 O15 1.743310 1_555
Al6 O20 1.756859 1_555
Al6 O8 1.757629 1_555
Al6 O4 1.765190 1_555
Al7 O9 1.739141 1_555
Al7 O32 1.744095 1_555
Al7 O10 1.761682 1_555
Al7 O18 1.765343 1_555
