# generated using pymatgen
data_Na3MnF6
_symmetry_space_group_name_H-M   'P 1'
_cell_length_a   5.75684200
_cell_length_b   5.56275600
_cell_length_c   9.82907164
_cell_angle_alpha   57.28746671
_cell_angle_beta   90.00000000
_cell_angle_gamma   90.00000000
_symmetry_Int_Tables_number   1
_chemical_formula_structural   Na3MnF6
_chemical_formula_sum   'Na6 Mn2 F12'
_cell_volume   264.84117259
_cell_formula_units_Z   2
loop_
 _symmetry_equiv_pos_site_id
 _symmetry_equiv_pos_as_xyz
  1  'x, y, z'
loop_
 _atom_site_type_symbol
 _atom_site_label
 _atom_site_symmetry_multiplicity
 _atom_site_fract_x
 _atom_site_fract_y
 _atom_site_fract_z
 _atom_site_occupancy
  Na  Na0  1  0.44510200  0.24195600  0.75160200  1
  Na  Na1  1  0.94510200  0.75804400  0.74839800  1
  Na  Na2  1  0.55489800  0.75804400  0.24839800  1
  Na  Na3  1  0.05489800  0.24195600  0.25160200  1
  Na  Na4  1  0.50000000  0.50000000  0.00000000  1
  Na  Na5  1  0.00000000  0.50000000  0.50000000  1
  Mn  Mn0  1  0.50000000  0.00000000  0.50000000  1
  Mn  Mn1  1  0.00000000  0.00000000  0.00000000  1
  F  F0  1  0.77934900  0.90631100  0.43272000  1
  F  F1  1  0.27934900  0.09368900  0.06728000  1
  F  F2  1  0.22065100  0.09368900  0.56728000  1
  F  F3  1  0.72065100  0.90631100  0.93272000  1
  F  F4  1  0.67195900  0.22297500  0.55863400  1
  F  F5  1  0.17195900  0.77702500  0.94136600  1
  F  F6  1  0.32804100  0.77702500  0.44136600  1
  F  F7  1  0.82804100  0.22297500  0.05863400  1
  F  F8  1  0.93814700  0.64565000  0.23635900  1
  F  F9  1  0.43814700  0.35435000  0.26364100  1
  F  F10  1  0.06185300  0.35435000  0.76364100  1
  F  F11  1  0.56185300  0.64565000  0.73635900  1
loop_
_geom_bond_atom_site_label_1
_geom_bond_atom_site_label_2
_geom_bond_distance
_geom_bond_site_symmetry_2
F0 Mn0 1.915112 1_565
F0 Na5 2.354546 1_655
F0 Na3 2.361994 1_665
F1 Mn1 1.915112 1_555
F1 Na4 2.354546 1_555
F1 Na2 2.361994 1_545
F2 Mn0 1.915112 1_555
F2 Na5 2.354546 1_555
F2 Na1 2.361994 1_445
F3 Mn1 1.915112 1_666
F3 Na4 2.354546 1_556
F3 Na0 2.361994 1_565
F4 Mn0 1.903481 1_555
F4 Na5 2.305066 1_655
F4 Na0 2.351733 1_555
F5 Mn1 1.903481 1_566
F5 Na4 2.305066 1_556
F5 Na1 2.351733 1_455
F6 Mn0 1.903481 1_565
F6 Na5 2.305066 1_555
F6 Na2 2.351733 1_555
F7 Mn1 1.903481 1_655
F7 Na4 2.305066 1_555
F7 Na3 2.351733 1_655
F8 Mn1 2.111838 1_665
F8 Na3 2.270128 1_655
F8 Na5 2.286705 1_655
F8 Na2 2.313578 1_555
F9 Mn0 2.111838 1_555
F9 Na2 2.270128 1_555
F9 Na4 2.286705 1_555
F9 Na3 2.313578 1_555
F10 Mn1 2.111838 1_556
F10 Na1 2.270128 1_455
F10 Na5 2.286705 1_555
F10 Na0 2.313578 1_555
F11 Mn0 2.111838 1_565
F11 Na0 2.270128 1_555
F11 Na4 2.286705 1_556
F11 Na1 2.313578 1_555
