# generated using pymatgen
data_Ce(PRh)2
_symmetry_space_group_name_H-M   'P 1'
_cell_length_a   4.15322228
_cell_length_b   4.15322228
_cell_length_c   9.44978176
_cell_angle_alpha   90.00000000
_cell_angle_beta   90.00000000
_cell_angle_gamma   90.00000000
_symmetry_Int_Tables_number   1
_chemical_formula_structural   Ce(PRh)2
_chemical_formula_sum   'Ce2 P4 Rh4'
_cell_volume   163.00169817
_cell_formula_units_Z   2
loop_
 _symmetry_equiv_pos_site_id
 _symmetry_equiv_pos_as_xyz
  1  'x, y, z'
loop_
 _atom_site_type_symbol
 _atom_site_label
 _atom_site_symmetry_multiplicity
 _atom_site_fract_x
 _atom_site_fract_y
 _atom_site_fract_z
 _atom_site_occupancy
  Ce  Ce0  1  0.25000000  0.25000000  0.74363408  1
  Ce  Ce1  1  0.75000000  0.75000000  0.25636592  1
  P  P0  1  0.25000000  0.25000000  0.13862080  1
  P  P1  1  0.75000000  0.75000000  0.86137920  1
  P  P2  1  0.75000000  0.25000000  0.50000000  1
  P  P3  1  0.25000000  0.75000000  0.50000000  1
  Rh  Rh0  1  0.25000000  0.25000000  0.38812051  1
  Rh  Rh1  1  0.75000000  0.75000000  0.61187949  1
  Rh  Rh2  1  0.75000000  0.25000000  -0.00000000  1
  Rh  Rh3  1  0.25000000  0.75000000  -0.00000000  1
loop_
_geom_bond_atom_site_label_1
_geom_bond_atom_site_label_2
_geom_bond_distance
_geom_bond_site_symmetry_2
Ce0 P3 3.100459 1_555
Ce0 P2 3.100459 1_555
Ce0 P3 3.100459 1_545
Ce0 P2 3.100459 1_455
Ce0 P1 3.140486 1_555
Ce0 P1 3.140486 1_445
Ce0 P1 3.140486 1_455
Ce0 P1 3.140486 1_545
Ce0 Rh1 3.189793 1_455
Ce0 Rh1 3.189793 1_555
Ce0 Rh1 3.189793 1_545
Ce0 Rh1 3.189793 1_445
Ce0 Rh2 3.190817 1_556
Ce0 Rh3 3.190817 1_556
Ce0 Rh2 3.190817 1_456
Ce0 Rh3 3.190817 1_546
Ce1 P3 3.100459 1_555
Ce1 P3 3.100459 1_655
Ce1 P2 3.100459 1_555
Ce1 P2 3.100459 1_565
Ce1 P0 3.140486 1_655
Ce1 P0 3.140486 1_665
Ce1 P0 3.140486 1_565
Ce1 P0 3.140486 1_555
Ce1 Rh0 3.189793 1_565
Ce1 Rh0 3.189793 1_655
Ce1 Rh0 3.189793 1_665
Ce1 Rh0 3.189793 1_555
Ce1 Rh3 3.190817 1_555
Ce1 Rh2 3.190817 1_555
Ce1 Rh2 3.190817 1_565
Ce1 Rh3 3.190817 1_655
P0 Rh0 2.357718 1_555
P0 Rh2 2.455249 1_455
P0 Rh3 2.455249 1_545
P0 Rh3 2.455249 1_555
P0 Rh2 2.455249 1_555
P1 Rh1 2.357718 1_555
P1 Rh3 2.455249 1_556
P1 Rh3 2.455249 1_656
P1 Rh2 2.455249 1_556
P1 Rh2 2.455249 1_566
P2 Rh1 2.330250 1_555
P2 Rh1 2.330250 1_545
P2 Rh0 2.330250 1_655
P2 Rh0 2.330250 1_555
P3 Rh1 2.330250 1_555
P3 Rh1 2.330250 1_455
P3 Rh0 2.330250 1_565
P3 Rh0 2.330250 1_555
