# generated using pymatgen
data_Li2CdSiO4
_symmetry_space_group_name_H-M   'P 1'
_cell_length_a   5.09766382
_cell_length_b   6.50772083
_cell_length_c   10.62069487
_cell_angle_alpha   90.00000000
_cell_angle_beta   90.00000000
_cell_angle_gamma   90.00000000
_symmetry_Int_Tables_number   1
_chemical_formula_structural   Li2CdSiO4
_chemical_formula_sum   'Li8 Cd4 Si4 O16'
_cell_volume   352.33276927
_cell_formula_units_Z   4
loop_
 _symmetry_equiv_pos_site_id
 _symmetry_equiv_pos_as_xyz
  1  'x, y, z'
loop_
 _atom_site_type_symbol
 _atom_site_label
 _atom_site_symmetry_multiplicity
 _atom_site_fract_x
 _atom_site_fract_y
 _atom_site_fract_z
 _atom_site_occupancy
  Li  Li0  1  0.82943547  0.00119596  0.58807830  1
  Li  Li1  1  0.32943547  0.99880404  0.91192170  1
  Li  Li2  1  0.17056453  0.50119596  0.41192170  1
  Li  Li3  1  0.32943547  0.50119596  0.91192170  1
  Li  Li4  1  0.17056453  0.99880404  0.41192170  1
  Li  Li5  1  0.82943547  0.49880404  0.58807830  1
  Li  Li6  1  0.67056453  0.00119596  0.08807830  1
  Li  Li7  1  0.67056453  0.49880404  0.08807830  1
  Cd  Cd0  1  0.67173405  0.75000000  0.33927696  1
  Cd  Cd1  1  0.17173405  0.25000000  0.16072304  1
  Cd  Cd2  1  0.82826595  0.75000000  0.83927696  1
  Cd  Cd3  1  0.32826595  0.25000000  0.66072304  1
  Si  Si0  1  0.66549830  0.25000000  0.34288502  1
  Si  Si1  1  0.16549830  0.75000000  0.15711498  1
  Si  Si2  1  0.83450170  0.25000000  0.84288502  1
  Si  Si3  1  0.33450170  0.75000000  0.65711498  1
  O  O0  1  0.79186898  0.04757905  0.41089732  1
  O  O1  1  0.70813102  0.45242095  0.91089732  1
  O  O2  1  0.15450599  0.25000000  0.85678557  1
  O  O3  1  0.73820050  0.25000000  0.19126553  1
  O  O4  1  0.20813102  0.54757905  0.58910268  1
  O  O5  1  0.29186898  0.95242095  0.08910268  1
  O  O6  1  0.23820050  0.75000000  0.30873447  1
  O  O7  1  0.84549401  0.75000000  0.14321443  1
  O  O8  1  0.79186898  0.45242095  0.41089732  1
  O  O9  1  0.26179950  0.75000000  0.80873447  1
  O  O10  1  0.34549401  0.25000000  0.35678557  1
  O  O11  1  0.20813102  0.95242095  0.58910268  1
  O  O12  1  0.76179950  0.25000000  0.69126553  1
  O  O13  1  0.29186898  0.54757905  0.08910268  1
  O  O14  1  0.70813102  0.04757905  0.91089732  1
  O  O15  1  0.65450599  0.75000000  0.64321443  1
loop_
_geom_bond_atom_site_label_1
_geom_bond_atom_site_label_2
_geom_bond_distance
_geom_bond_site_symmetry_2
Li0 O0 1.915437 1_555
Li0 O15 1.952020 1_545
Li0 O11 1.956414 1_645
Li0 O12 1.985335 1_555
Li1 O5 1.915437 1_556
Li1 O2 1.952020 1_565
Li1 O14 1.956414 1_565
Li1 O9 1.985335 1_555
Li2 O4 1.915437 1_555
Li2 O10 1.952020 1_555
Li2 O8 1.956414 1_455
Li2 O6 1.985335 1_555
Li3 O13 1.915437 1_556
Li3 O2 1.952020 1_555
Li3 O1 1.956414 1_555
Li3 O9 1.985335 1_555
Li4 O11 1.915437 1_555
Li4 O10 1.952020 1_565
Li4 O0 1.956414 1_465
Li4 O6 1.985335 1_555
Li5 O8 1.915437 1_555
Li5 O15 1.952020 1_555
Li5 O4 1.956414 1_655
Li5 O12 1.985335 1_555
Li6 O14 1.915437 1_554
Li6 O7 1.952020 1_545
Li6 O5 1.956414 1_545
Li6 O3 1.985335 1_555
Li7 O1 1.915437 1_554
Li7 O7 1.952020 1_555
Li7 O13 1.956414 1_555
Li7 O3 1.985335 1_555
Cd0 O0 2.168851 1_565
Cd0 O8 2.168851 1_555
Cd0 O6 2.233688 1_555
Cd0 O7 2.262884 1_555
Cd1 O5 2.168851 1_545
Cd1 O13 2.168851 1_555
Cd1 O3 2.233688 1_455
Cd1 O10 2.262884 1_555
Cd2 O14 2.168851 1_565
Cd2 O1 2.168851 1_555
Cd2 O9 2.233688 1_655
Cd2 O15 2.262884 1_555
Cd3 O4 2.168851 1_555
Cd3 O11 2.168851 1_545
Cd3 O12 2.233688 1_555
Cd3 O2 2.262884 1_555
O0 Si0 1.634636 1_555
O1 Si2 1.634636 1_555
O2 Si2 1.637941 1_455
O3 Si0 1.652402 1_555
O4 Si3 1.634636 1_555
O5 Si1 1.634636 1_555
O6 Si1 1.652402 1_555
O7 Si1 1.637941 1_655
O8 Si0 1.634636 1_555
O9 Si3 1.652402 1_555
O10 Si0 1.637941 1_555
O11 Si3 1.634636 1_555
O12 Si2 1.652402 1_555
O13 Si1 1.634636 1_555
O14 Si2 1.634636 1_555
O15 Si3 1.637941 1_555
