# generated using pymatgen
data_K2CO3
_symmetry_space_group_name_H-M   'P 1'
_cell_length_a   5.59586248
_cell_length_b   5.74233989
_cell_length_c   6.70599350
_cell_angle_alpha   84.65593184
_cell_angle_beta   78.98018179
_cell_angle_gamma   60.84028582
_symmetry_Int_Tables_number   1
_chemical_formula_structural   K2CO3
_chemical_formula_sum   'K4 C2 O6'
_cell_volume   184.70659539
_cell_formula_units_Z   2
loop_
 _symmetry_equiv_pos_site_id
 _symmetry_equiv_pos_as_xyz
  1  'x, y, z'
loop_
 _atom_site_type_symbol
 _atom_site_label
 _atom_site_symmetry_multiplicity
 _atom_site_fract_x
 _atom_site_fract_y
 _atom_site_fract_z
 _atom_site_occupancy
  K  K0  1  0.66549170  0.66901561  0.75000000  1
  K  K1  1  0.33450830  0.33098439  0.25000000  1
  K  K2  1  -0.00000000  -0.00000000  0.50000000  1
  K  K3  1  -0.00000000  -0.00000000  0.00000000  1
  C  C0  1  0.66762084  0.66475632  0.25000000  1
  C  C1  1  0.33237916  0.33524368  0.75000000  1
  O  O0  1  0.22422125  0.20676694  0.68695257  1
  O  O1  1  0.20313847  0.59372606  0.75000000  1
  O  O2  1  0.79686153  0.40627394  0.25000000  1
  O  O3  1  0.77577875  0.79323306  0.31304743  1
  O  O4  1  0.56901181  0.20676694  0.81304743  1
  O  O5  1  0.43098819  0.79323306  0.18695257  1
loop_
_geom_bond_atom_site_label_1
_geom_bond_atom_site_label_2
_geom_bond_distance
_geom_bond_site_symmetry_2
K0 O1 2.823278 1_555
K0 O1 2.823300 1_655
K0 O0 2.921810 1_565
K0 O4 2.921812 1_565
K0 O4 2.935340 1_555
K0 O0 2.935344 1_655
K0 O5 2.970532 1_556
K0 O3 2.970533 1_555
K1 O2 2.823278 1_555
K1 O2 2.823300 1_455
K1 O3 2.921810 1_545
K1 O5 2.921812 1_545
K1 O5 2.935340 1_555
K1 O3 2.935344 1_455
K1 O4 2.970532 1_554
K1 O0 2.970533 1_555
K2 O3 2.624159 1_445
K2 O0 2.624159 1_555
K2 O1 2.638413 1_545
K2 O2 2.638413 1_455
K2 O5 2.715062 1_545
K2 O4 2.715062 1_455
K3 O4 2.624159 1_454
K3 O5 2.624159 1_545
K3 O1 2.638411 1_544
K3 O2 2.638411 1_455
K3 O3 2.715062 1_445
K3 O0 2.715062 1_554
C0 O2 1.296182 1_555
C0 O5 1.296297 1_555
C0 O3 1.296306 1_555
C1 O1 1.296182 1_555
C1 O4 1.296297 1_555
C1 O0 1.296306 1_555
