# generated using pymatgen
data_Co5Te4(ClO6)2
_symmetry_space_group_name_H-M   'P 1'
_cell_length_a   10.43641419
_cell_length_b   10.43641419
_cell_length_c   16.55861689
_cell_angle_alpha   56.35015507
_cell_angle_beta   56.35015507
_cell_angle_gamma   29.58212787
_symmetry_Int_Tables_number   1
_chemical_formula_structural   Co5Te4(ClO6)2
_chemical_formula_sum   'Co10 Te8 Cl4 O24'
_cell_volume   729.62995378
_cell_formula_units_Z   2
loop_
 _symmetry_equiv_pos_site_id
 _symmetry_equiv_pos_as_xyz
  1  'x, y, z'
loop_
 _atom_site_type_symbol
 _atom_site_label
 _atom_site_symmetry_multiplicity
 _atom_site_fract_x
 _atom_site_fract_y
 _atom_site_fract_z
 _atom_site_occupancy
  Co  Co0  1  0.30751400  0.87454100  0.52445500  1
  Co  Co1  1  0.87454100  0.30751400  0.02445500  1
  Co  Co2  1  0.12545900  0.69248600  0.97554500  1
  Co  Co3  1  0.78976700  0.22690800  0.88171300  1
  Co  Co4  1  0.22690800  0.78976700  0.38171300  1
  Co  Co5  1  0.23384200  0.76615800  0.75000000  1
  Co  Co6  1  0.21023300  0.77309200  0.11828700  1
  Co  Co7  1  0.77309200  0.21023300  0.61828700  1
  Co  Co8  1  0.69248600  0.12545900  0.47554500  1
  Co  Co9  1  0.76615800  0.23384200  0.25000000  1
  Te  Te0  1  0.14645500  0.56164300  0.37782100  1
  Te  Te1  1  0.80948600  0.44244000  0.36033400  1
  Te  Te2  1  0.43835700  0.85354500  0.12217900  1
  Te  Te3  1  0.55756000  0.19051400  0.13966600  1
  Te  Te4  1  0.44244000  0.80948600  0.86033400  1
  Te  Te5  1  0.56164300  0.14645500  0.87782100  1
  Te  Te6  1  0.19051400  0.55756000  0.63966600  1
  Te  Te7  1  0.85354500  0.43835700  0.62217900  1
  Cl  Cl0  1  0.43139300  0.09872100  0.59319600  1
  Cl  Cl1  1  0.09872100  0.43139300  0.09319600  1
  Cl  Cl2  1  0.56860700  0.90127900  0.40680400  1
  Cl  Cl3  1  0.90127900  0.56860700  0.90680400  1
  O  O0  1  0.22579500  0.54442100  0.24894500  1
  O  O1  1  0.45597800  0.68513000  0.43070500  1
  O  O2  1  0.57219600  0.55478800  0.13276100  1
  O  O3  1  0.75749200  0.04670700  0.02211500  1
  O  O4  1  0.12086300  0.79730500  0.64241100  1
  O  O5  1  0.55478800  0.57219600  0.63276100  1
  O  O6  1  0.91053300  0.93326700  0.85622800  1
  O  O7  1  0.20269500  0.87913700  0.85758900  1
  O  O8  1  0.68513000  0.45597800  0.93070500  1
  O  O9  1  0.54442100  0.22579500  0.74894500  1
  O  O10  1  0.95329300  0.24250800  0.47788500  1
  O  O11  1  0.31487000  0.54402200  0.06929500  1
  O  O12  1  0.79730500  0.12086300  0.14241100  1
  O  O13  1  0.77420500  0.45557900  0.75105500  1
  O  O14  1  0.45557900  0.77420500  0.25105500  1
  O  O15  1  0.08946700  0.06673300  0.14377200  1
  O  O16  1  0.44521200  0.42780400  0.36723900  1
  O  O17  1  0.04670700  0.75749200  0.52211500  1
  O  O18  1  0.87913700  0.20269500  0.35758900  1
  O  O19  1  0.54402200  0.31487000  0.56929500  1
  O  O20  1  0.42780400  0.44521200  0.86723900  1
  O  O21  1  0.24250800  0.95329300  0.97788500  1
  O  O22  1  0.93326700  0.91053300  0.35622800  1
  O  O23  1  0.06673300  0.08946700  0.64377200  1
loop_
_geom_bond_atom_site_label_1
_geom_bond_atom_site_label_2
_geom_bond_distance
_geom_bond_site_symmetry_2
Co0 O1 2.031295 1_555
Co0 O10 2.047859 1_465
Co0 O5 2.127721 1_555
Co0 O23 2.203393 1_565
Co0 O4 2.242533 1_555
Co1 O8 2.031295 1_554
Co1 O21 2.047859 1_644
Co1 O2 2.127721 1_555
Co1 O15 2.203393 1_655
Co1 O12 2.242533 1_555
Co2 O11 2.031295 1_556
Co2 O3 2.047859 1_466
Co2 O20 2.127721 1_555
Co2 O6 2.203393 1_455
Co2 O7 2.242533 1_555
Co3 O8 2.047609 1_555
Co3 O13 2.096612 1_555
Co3 O7 2.097293 1_645
Co3 O3 2.108024 1_556
Co3 O20 2.224244 1_555
Co3 O6 2.298678 1_545
Co4 O1 2.047609 1_555
Co4 O14 2.096612 1_555
Co4 O18 2.097293 1_465
Co4 O17 2.108024 1_555
Co4 O16 2.224244 1_555
Co4 O22 2.298678 1_455
Co5 O6 2.026779 1_455
Co5 O23 2.026779 1_565
Co5 O5 2.107479 1_555
Co5 O20 2.107479 1_555
Co5 O7 2.385221 1_555
Co5 O4 2.385221 1_555
Co6 O11 2.047609 1_555
Co6 O0 2.096612 1_555
Co6 O12 2.097293 1_465
Co6 O21 2.108024 1_554
Co6 O2 2.224244 1_555
Co6 O15 2.298678 1_565
Co7 O19 2.047609 1_555
Co7 O9 2.096612 1_555
Co7 O4 2.097293 1_645
Co7 O10 2.108024 1_555
Co7 O5 2.224244 1_555
Co7 O23 2.298678 1_655
Co8 O19 2.031295 1_555
Co8 O17 2.047859 1_645
Co8 O16 2.127721 1_555
Co8 O22 2.203393 1_545
Co8 O18 2.242533 1_555
Co9 O15 2.026779 1_655
Co9 O22 2.026779 1_545
Co9 O2 2.107479 1_555
Co9 O16 2.107479 1_555
Co9 O12 2.385221 1_555
Co9 O18 2.385221 1_555
Cl0 Co8 2.476920 1_555
Cl1 Co2 2.476920 1_554
Cl2 Co0 2.476920 1_555
Cl3 Co1 2.476920 1_556
O0 Te0 1.865444 1_555
O1 Te1 1.907352 1_555
O2 Te2 1.947881 1_555
O3 Te3 1.919573 1_555
O4 Te6 1.927921 1_555
O5 Te7 1.947881 1_555
O6 Te5 1.919485 1_565
O7 Te4 1.927921 1_555
O8 Te4 1.907352 1_555
O9 Te5 1.865444 1_555
O10 Te1 1.919573 1_555
O11 Te3 1.907352 1_555
O12 Te3 1.927921 1_555
O13 Te7 1.865444 1_555
O14 Te2 1.865444 1_555
O15 Te2 1.919485 1_545
O16 Te0 1.947881 1_555
O17 Te6 1.919573 1_555
O18 Te1 1.927921 1_555
O19 Te6 1.907352 1_555
O20 Te5 1.947881 1_555
O21 Te4 1.919573 1_555
O22 Te0 1.919485 1_655
O23 Te7 1.919485 1_455
