# generated using pymatgen
data_LiCo3P3O11
_symmetry_space_group_name_H-M   'P 1'
_cell_length_a   9.66646900
_cell_length_b   9.84734100
_cell_length_c   10.31672731
_cell_angle_alpha   60.11901924
_cell_angle_beta   90.00000000
_cell_angle_gamma   90.00000000
_symmetry_Int_Tables_number   1
_chemical_formula_structural   LiCo3P3O11
_chemical_formula_sum   'Li4 Co12 P12 O44'
_cell_volume   851.48897879
_cell_formula_units_Z   4
loop_
 _symmetry_equiv_pos_site_id
 _symmetry_equiv_pos_as_xyz
  1  'x, y, z'
loop_
 _atom_site_type_symbol
 _atom_site_label
 _atom_site_symmetry_multiplicity
 _atom_site_fract_x
 _atom_site_fract_y
 _atom_site_fract_z
 _atom_site_occupancy
  Li  Li0  1  0.17132800  0.69648600  0.79625100  1
  Li  Li1  1  0.67132800  0.30351400  0.70374900  1
  Li  Li2  1  0.82867200  0.30351400  0.20374900  1
  Li  Li3  1  0.32867200  0.69648600  0.29625100  1
  Co  Co0  1  0.63163900  0.72725900  0.12865700  1
  Co  Co1  1  0.36873800  0.08512900  0.23211600  1
  Co  Co2  1  0.62515800  0.10018700  0.39667200  1
  Co  Co3  1  0.36836100  0.27274100  0.87134300  1
  Co  Co4  1  0.63126200  0.91487100  0.76788400  1
  Co  Co5  1  0.86873800  0.91487100  0.26788400  1
  Co  Co6  1  0.37484200  0.89981300  0.60332800  1
  Co  Co7  1  0.12515800  0.89981300  0.10332800  1
  Co  Co8  1  0.86836100  0.72725900  0.62865700  1
  Co  Co9  1  0.87484200  0.10018700  0.89667200  1
  Co  Co10  1  0.13163900  0.27274100  0.37134300  1
  Co  Co11  1  0.13126200  0.08512900  0.73211600  1
  P  P0  1  0.43369000  0.40569100  0.24499700  1
  P  P1  1  0.66205600  0.10751500  0.06550700  1
  P  P2  1  0.92159800  0.76320700  0.92932700  1
  P  P3  1  0.56631000  0.59430900  0.75500300  1
  P  P4  1  0.07840200  0.23679300  0.07067300  1
  P  P5  1  0.42159800  0.23679300  0.57067300  1
  P  P6  1  0.83794400  0.10751500  0.56550700  1
  P  P7  1  0.57840200  0.76320700  0.42932700  1
  P  P8  1  0.33794400  0.89248500  0.93449300  1
  P  P9  1  0.93369000  0.59430900  0.25500300  1
  P  P10  1  0.16205600  0.89248500  0.43449300  1
  P  P11  1  0.06631000  0.40569100  0.74499700  1
  O  O0  1  0.72041600  0.22789800  0.91033100  1
  O  O1  1  0.50716400  0.91470900  0.41632000  1
  O  O2  1  0.77958400  0.22789800  0.41033100  1
  O  O3  1  0.52304000  0.73159700  0.30933200  1
  O  O4  1  0.47696000  0.26840300  0.69066800  1
  O  O5  1  0.98116300  0.54558100  0.64065800  1
  O  O6  1  0.98404500  0.75013700  0.24548800  1
  O  O7  1  0.26351900  0.22380700  0.56437000  1
  O  O8  1  0.02304000  0.26840300  0.19066800  1
  O  O9  1  0.48404500  0.24986300  0.25451200  1
  O  O10  1  0.50301200  0.11143100  0.06530400  1
  O  O11  1  0.27958400  0.77210200  0.08966900  1
  O  O12  1  0.27341500  0.05433300  0.90522700  1
  O  O13  1  0.23648100  0.22380700  0.06437000  1
  O  O14  1  0.52945100  0.62048500  0.58578300  1
  O  O15  1  0.22208400  0.41990200  0.72866500  1
  O  O16  1  0.72867700  0.12611100  0.19514500  1
  O  O17  1  0.22041600  0.77210200  0.58966900  1
  O  O18  1  0.48116300  0.45441900  0.85934200  1
  O  O19  1  0.51883700  0.54558100  0.14065800  1
  O  O20  1  0.47054900  0.37951500  0.41421700  1
  O  O21  1  0.27132300  0.87388900  0.80485500  1
  O  O22  1  0.22867700  0.87388900  0.30485500  1
  O  O23  1  0.77341500  0.94566700  0.59477300  1
  O  O24  1  0.77791600  0.58009800  0.27133500  1
  O  O25  1  0.01883700  0.45441900  0.35934200  1
  O  O26  1  0.00716400  0.08529100  0.08368000  1
  O  O27  1  0.97696000  0.73159700  0.80933200  1
  O  O28  1  0.99283600  0.91470900  0.91632000  1
  O  O29  1  0.72208400  0.58009800  0.77133500  1
  O  O30  1  0.22658500  0.05433300  0.40522700  1
  O  O31  1  0.27791600  0.41990200  0.22866500  1
  O  O32  1  0.73648100  0.77619300  0.43563000  1
  O  O33  1  0.76351900  0.77619300  0.93563000  1
  O  O34  1  0.49283600  0.08529100  0.58368000  1
  O  O35  1  0.00301200  0.88856900  0.43469600  1
  O  O36  1  0.02945100  0.37951500  0.91421700  1
  O  O37  1  0.77132300  0.12611100  0.69514500  1
  O  O38  1  0.49698800  0.88856900  0.93469600  1
  O  O39  1  0.72658500  0.94566700  0.09477300  1
  O  O40  1  0.97054900  0.62048500  0.08578300  1
  O  O41  1  0.01595500  0.24986300  0.75451200  1
  O  O42  1  0.99698800  0.11143100  0.56530400  1
  O  O43  1  0.51595500  0.75013700  0.74548800  1
loop_
_geom_bond_atom_site_label_1
_geom_bond_atom_site_label_2
_geom_bond_distance
_geom_bond_site_symmetry_2
Li0 O27 1.927261 1_455
Li0 O17 1.934060 1_555
Li0 O21 2.036794 1_555
Li1 O4 1.927261 1_555
Li1 O0 1.934060 1_555
Li1 O37 2.036794 1_555
Li2 O8 1.927261 1_655
Li2 O2 1.934060 1_555
Li2 O16 2.036794 1_555
Li3 O3 1.927261 1_555
Li3 O11 1.934060 1_555
Li3 O22 2.036794 1_555
Co0 O24 2.034857 1_555
Co0 O19 2.045549 1_555
Co0 O3 2.158143 1_555
Co0 O39 2.200247 1_555
Co0 O33 2.206107 1_554
Co0 O38 2.248204 1_554
Co1 O13 2.034572 1_555
Co1 O10 2.066234 1_555
Co1 O9 2.073816 1_555
Co1 O30 2.151765 1_555
Co1 O1 2.245113 1_545
Co1 O22 2.273285 1_545
Co2 O2 2.001586 1_555
Co2 O9 2.007531 1_555
Co2 O1 2.075837 1_545
Co2 O16 2.204609 1_555
Co2 O34 2.257838 1_555
Co2 O23 2.333981 1_545
Co3 O15 2.034857 1_555
Co3 O18 2.045549 1_555
Co3 O4 2.158143 1_555
Co3 O12 2.200247 1_555
Co3 O13 2.206107 1_556
Co3 O10 2.248204 1_556
Co4 O33 2.034572 1_555
Co4 O38 2.066234 1_555
Co4 O43 2.073816 1_555
Co4 O23 2.151765 1_555
Co4 O34 2.245113 1_565
Co4 O37 2.273285 1_565
Co5 O32 2.034572 1_555
Co5 O35 2.066234 1_655
Co5 O6 2.073816 1_555
Co5 O39 2.151765 1_555
Co5 O26 2.245113 1_665
Co5 O16 2.273285 1_565
Co6 O17 2.001586 1_555
Co6 O43 2.007531 1_555
Co6 O34 2.075837 1_565
Co6 O21 2.204609 1_555
Co6 O1 2.257838 1_555
Co6 O30 2.333981 1_565
Co7 O11 2.001586 1_555
Co7 O6 2.007531 1_455
Co7 O26 2.075837 1_565
Co7 O22 2.204609 1_555
Co7 O28 2.257838 1_454
Co7 O12 2.333981 1_564
Co8 O29 2.034857 1_555
Co8 O5 2.045549 1_555
Co8 O27 2.158143 1_555
Co8 O23 2.200247 1_555
Co8 O32 2.206107 1_555
Co8 O35 2.248204 1_655
Co9 O0 2.001586 1_555
Co9 O41 2.007531 1_655
Co9 O28 2.075837 1_545
Co9 O37 2.204609 1_555
Co9 O26 2.257838 1_656
Co9 O39 2.333981 1_546
Co10 O31 2.034857 1_555
Co10 O25 2.045549 1_555
Co10 O8 2.158143 1_555
Co10 O30 2.200247 1_555
Co10 O7 2.206107 1_555
Co10 O42 2.248204 1_455
Co11 O7 2.034572 1_555
Co11 O42 2.066234 1_455
Co11 O41 2.073816 1_555
Co11 O12 2.151765 1_555
Co11 O28 2.245113 1_445
Co11 O21 2.273285 1_545
O0 P1 1.547736 1_556
O1 P7 1.586969 1_555
O2 P6 1.547736 1_555
O3 P7 1.516500 1_555
O4 P5 1.516500 1_555
O5 P11 1.502095 1_655
O6 P9 1.565612 1_555
O7 P5 1.537482 1_555
O8 P4 1.516500 1_555
O9 P0 1.565612 1_555
O10 P1 1.537853 1_555
O11 P8 1.547736 1_554
O12 P8 1.594015 1_545
O13 P4 1.537482 1_555
O14 P7 1.595038 1_555
O14 P3 1.671171 1_555
O15 P11 1.513891 1_555
O16 P1 1.575130 1_555
O17 P10 1.547736 1_555
O18 P3 1.502095 1_555
O19 P0 1.502095 1_555
O20 P5 1.595038 1_555
O20 P0 1.671171 1_555
O21 P8 1.575130 1_555
O22 P10 1.575130 1_555
O23 P6 1.594015 1_565
O24 P9 1.513891 1_555
O25 P9 1.502095 1_455
O26 P4 1.586969 1_555
O27 P2 1.516500 1_555
O28 P2 1.586969 1_555
O29 P3 1.513891 1_555
O30 P10 1.594015 1_545
O31 P0 1.513891 1_555
O32 P7 1.537482 1_555
O33 P2 1.537482 1_555
O34 P5 1.586969 1_555
O35 P10 1.537853 1_555
O36 P4 1.595038 1_556
O36 P11 1.671171 1_555
O37 P6 1.575130 1_555
O38 P8 1.537853 1_555
O39 P1 1.594015 1_565
O40 P2 1.595038 1_554
O40 P9 1.671171 1_555
O41 P11 1.565612 1_555
O42 P6 1.537853 1_555
O43 P3 1.565612 1_555
