# generated using pymatgen
data_MnTl2As2S5
_symmetry_space_group_name_H-M   'P 1'
_cell_length_a   8.74238516
_cell_length_b   8.74238516
_cell_length_c   17.07858800
_cell_angle_alpha   90.00000000
_cell_angle_beta   90.00000000
_cell_angle_gamma   127.60797922
_symmetry_Int_Tables_number   1
_chemical_formula_structural   MnTl2As2S5
_chemical_formula_sum   'Mn4 Tl8 As8 S20'
_cell_volume   1034.06831013
_cell_formula_units_Z   4
loop_
 _symmetry_equiv_pos_site_id
 _symmetry_equiv_pos_as_xyz
  1  'x, y, z'
loop_
 _atom_site_type_symbol
 _atom_site_label
 _atom_site_symmetry_multiplicity
 _atom_site_fract_x
 _atom_site_fract_y
 _atom_site_fract_z
 _atom_site_occupancy
  Mn  Mn0  1  0.10297400  0.60297400  0.25000000  1
  Mn  Mn1  1  0.89702600  0.39702600  0.75000000  1
  Mn  Mn2  1  0.60297400  0.10297400  0.25000000  1
  Mn  Mn3  1  0.39702600  0.89702600  0.75000000  1
  Tl  Tl0  1  0.64944300  0.35055700  0.00000000  1
  Tl  Tl1  1  0.14944300  0.85055700  0.50000000  1
  Tl  Tl2  1  0.91195000  0.91195000  0.31908600  1
  Tl  Tl3  1  0.35055700  0.64944300  0.00000000  1
  Tl  Tl4  1  0.08805000  0.08805000  0.68091400  1
  Tl  Tl5  1  0.85055700  0.14944300  0.50000000  1
  Tl  Tl6  1  0.58805000  0.58805000  0.81908600  1
  Tl  Tl7  1  0.41195000  0.41195000  0.18091400  1
  As  As0  1  0.41507200  0.64856700  0.39283200  1
  As  As1  1  0.35143300  0.58492800  0.60716800  1
  As  As2  1  0.08492800  0.85143300  0.89283200  1
  As  As3  1  0.85143300  0.08492800  0.89283200  1
  As  As4  1  0.58492800  0.35143300  0.60716800  1
  As  As5  1  0.91507200  0.14856700  0.10716800  1
  As  As6  1  0.14856700  0.91507200  0.10716800  1
  As  As7  1  0.64856700  0.41507200  0.39283200  1
  S  S0  1  0.04857400  0.60958000  0.10372500  1
  S  S1  1  0.46958600  0.74463200  0.26474300  1
  S  S2  1  0.25536800  0.53041400  0.73525700  1
  S  S3  1  0.84468300  0.84468300  0.11954900  1
  S  S4  1  0.10958000  0.54857400  0.39627500  1
  S  S5  1  0.75536800  0.03041400  0.76474300  1
  S  S6  1  0.34468300  0.34468300  0.38045100  1
  S  S7  1  0.39042000  0.95142600  0.89627500  1
  S  S8  1  0.60958000  0.04857400  0.10372500  1
  S  S9  1  0.15531700  0.15531700  0.88045100  1
  S  S10  1  0.89042000  0.45142600  0.60372500  1
  S  S11  1  0.96958600  0.24463200  0.23525700  1
  S  S12  1  0.65531700  0.65531700  0.61954900  1
  S  S13  1  0.03041400  0.75536800  0.76474300  1
  S  S14  1  0.74463200  0.46958600  0.26474300  1
  S  S15  1  0.45142600  0.89042000  0.60372500  1
  S  S16  1  0.95142600  0.39042000  0.89627500  1
  S  S17  1  0.54857400  0.10958000  0.39627500  1
  S  S18  1  0.53041400  0.25536800  0.73525700  1
  S  S19  1  0.24463200  0.96958600  0.23525700  1
loop_
_geom_bond_atom_site_label_1
_geom_bond_atom_site_label_2
_geom_bond_distance
_geom_bond_site_symmetry_2
Mn0 S0 2.550274 1_555
Mn0 S4 2.550274 1_555
Mn0 S14 2.603591 1_455
Mn0 S11 2.603591 1_455
Mn0 S19 2.650477 1_555
Mn0 S1 2.650477 1_555
Mn1 S16 2.550274 1_555
Mn1 S10 2.550274 1_555
Mn1 S2 2.603591 1_655
Mn1 S13 2.603591 1_655
Mn1 S18 2.650477 1_555
Mn1 S5 2.650477 1_555
Mn2 S8 2.550274 1_555
Mn2 S17 2.550274 1_555
Mn2 S1 2.603591 1_545
Mn2 S19 2.603591 1_545
Mn2 S11 2.650477 1_555
Mn2 S14 2.650477 1_555
Mn3 S15 2.550274 1_555
Mn3 S7 2.550274 1_555
Mn3 S18 2.603591 1_565
Mn3 S5 2.603591 1_565
Mn3 S2 2.650477 1_555
Mn3 S13 2.650477 1_555
As0 S4 2.247425 1_555
As0 S1 2.286799 1_555
As0 S6 2.342213 1_555
As1 S15 2.247425 1_555
As1 S2 2.286799 1_555
As1 S12 2.342213 1_555
As2 S7 2.247425 1_555
As2 S13 2.286799 1_555
As2 S9 2.342213 1_565
As3 S16 2.247425 1_555
As3 S5 2.286799 1_555
As3 S9 2.342213 1_655
As4 S10 2.247425 1_555
As4 S18 2.286799 1_555
As4 S12 2.342213 1_555
As5 S8 2.247425 1_555
As5 S11 2.286799 1_555
As5 S3 2.342213 1_545
As6 S0 2.247425 1_555
As6 S19 2.286799 1_555
As6 S3 2.342213 1_455
As7 S17 2.247425 1_555
As7 S14 2.286799 1_555
As7 S6 2.342213 1_555
S0 Tl3 3.017701 1_555
S1 Tl7 2.995654 1_555
S2 Tl6 2.995654 1_555
S4 Tl1 3.017701 1_555
S5 Tl4 2.995654 1_655
S7 Tl3 3.017701 1_556
S8 Tl0 3.017701 1_555
S10 Tl5 3.017701 1_555
S11 Tl2 2.995654 1_545
S13 Tl4 2.995654 1_565
S14 Tl7 2.995654 1_555
S15 Tl1 3.017701 1_555
S16 Tl0 3.017701 1_556
S17 Tl5 3.017701 1_555
S18 Tl6 2.995654 1_555
S19 Tl2 2.995654 1_455
