# generated using pymatgen
data_Ba7Al4Ge9
_symmetry_space_group_name_H-M   'P 1'
_cell_length_a   13.92156294
_cell_length_b   13.62622650
_cell_length_c   6.79189796
_cell_angle_alpha   78.15489085
_cell_angle_beta   73.32414468
_cell_angle_gamma   28.52096448
_symmetry_Int_Tables_number   1
_chemical_formula_structural   Ba7Al4Ge9
_chemical_formula_sum   'Ba7 Al4 Ge9'
_cell_volume   586.21692192
_cell_formula_units_Z   1
loop_
 _symmetry_equiv_pos_site_id
 _symmetry_equiv_pos_as_xyz
  1  'x, y, z'
loop_
 _atom_site_type_symbol
 _atom_site_label
 _atom_site_symmetry_multiplicity
 _atom_site_fract_x
 _atom_site_fract_y
 _atom_site_fract_z
 _atom_site_occupancy
  Ba  Ba0  1  0.37491818  0.62508182  0.62508182  1
  Ba  Ba1  1  0.38260485  0.41180668  0.17061848  1
  Ba  Ba2  1  0.45537468  0.04462532  0.04462532  1
  Ba  Ba3  1  0.82938152  0.96503000  0.61739515  1
  Ba  Ba4  1  0.58819332  0.61739515  0.96503000  1
  Ba  Ba5  1  0.95537468  0.54462532  0.54462532  1
  Ba  Ba6  1  0.03497000  0.17061848  0.41180668  1
  Al  Al0  1  0.41149258  0.98923781  0.58850742  1
  Al  Al1  1  0.01076219  0.58850742  0.98923781  1
  Al  Al2  1  0.94115790  0.93723090  0.05884210  1
  Al  Al3  1  0.06276910  0.05884210  0.93723090  1
  Ge  Ge0  1  0.29802963  0.41134262  0.70197037  1
  Ge  Ge1  1  0.89924134  0.50702911  0.10075866  1
  Ge  Ge2  1  0.79099140  0.20900860  0.83081857  1
  Ge  Ge3  1  0.80552563  0.88285119  0.19447437  1
  Ge  Ge4  1  0.11714881  0.19447437  0.88285119  1
  Ge  Ge5  1  0.16918143  0.83081857  0.20900860  1
  Ge  Ge6  1  0.76543448  0.23456552  0.23456552  1
  Ge  Ge7  1  0.58865738  0.70197037  0.41134262  1
  Ge  Ge8  1  0.49297089  0.10075866  0.50702911  1
loop_
_geom_bond_atom_site_label_1
_geom_bond_atom_site_label_2
_geom_bond_distance
_geom_bond_site_symmetry_2
Ba0 Ge5 3.366202 1_555
Ba0 Ge2 3.366202 1_555
Ba0 Ge6 3.404174 1_555
Ba0 Ge0 3.799220 1_555
Ba0 Ge7 3.799220 1_555
Ba0 Ge2 3.965689 1_465
Ba0 Ge5 3.965689 1_556
Ba1 Ge5 3.442474 1_555
Ba1 Ge0 3.460561 1_555
Ba1 Ge3 3.483764 1_545
Ba1 Ge8 3.484368 1_555
Ba1 Ge6 3.564364 1_555
Ba1 Ge2 3.572880 1_554
Ba1 Ge0 3.700018 1_554
Ba1 Ge3 3.851111 1_455
Ba2 Ge8 3.556845 1_554
Ba2 Ge1 3.556845 1_545
Ba2 Ge3 3.563789 1_545
Ba2 Ge4 3.563789 1_554
Ba2 Ge8 3.654510 1_555
Ba2 Ge1 3.654510 1_455
Ba2 Ge0 3.755103 1_554
Ba2 Ge7 3.755103 1_545
Ba3 Ge2 3.442474 1_565
Ba3 Ge0 3.460561 1_565
Ba3 Ge3 3.483764 1_555
Ba3 Ge8 3.484368 1_565
Ba3 Ge6 3.564364 1_565
Ba3 Ge5 3.572880 1_655
Ba3 Ge0 3.700018 1_655
Ba3 Ge3 3.851111 1_556
Ba4 Ge5 3.442474 1_556
Ba4 Ge7 3.460561 1_556
Ba4 Ge4 3.483764 1_655
Ba4 Ge1 3.484368 1_556
Ba4 Ge6 3.564364 1_556
Ba4 Ge2 3.572880 1_555
Ba4 Ge7 3.700018 1_555
Ba4 Ge4 3.851111 1_565
Ba5 Ge1 3.556845 1_555
Ba5 Ge8 3.556845 1_655
Ba5 Ge3 3.563789 1_555
Ba5 Ge4 3.563789 1_655
Ba5 Ge1 3.654510 1_556
Ba5 Ge8 3.654510 1_565
Ba5 Ge7 3.755103 1_555
Ba5 Ge0 3.755103 1_655
Ba6 Ge2 3.442474 1_455
Ba6 Ge7 3.460561 1_455
Ba6 Ge4 3.483764 1_554
Ba6 Ge1 3.484368 1_455
Ba6 Ge6 3.564364 1_455
Ba6 Ge5 3.572880 1_545
Ba6 Ge7 3.700018 1_545
Ba6 Ge4 3.851111 1_555
Al0 Ge4 2.462664 1_565
Al0 Ge7 2.473492 1_555
Al0 Ge8 2.495124 1_565
Al0 Ba5 3.599851 1_555
Al0 Ba2 3.599851 1_565
Al0 Ba2 3.660063 1_566
Al0 Ba5 3.660063 1_465
Al0 Ba6 3.827756 1_565
Al0 Ba4 3.827756 1_555
Al1 Ge3 2.462664 1_456
Al1 Ge0 2.473492 1_555
Al1 Ge1 2.495124 1_456
Al1 Ba5 3.599851 1_455
Al1 Ba2 3.599851 1_556
Al1 Ba2 3.660063 1_466
Al1 Ba5 3.660063 1_456
Al1 Ba3 3.827756 1_455
Al1 Ba1 3.827756 1_556
Al2 Ge3 2.478552 1_555
Al2 Ge2 2.526293 1_564
Al2 Ge5 2.526293 1_655
Al2 Ge6 2.591574 1_565
Al2 Ba1 3.567925 1_655
Al2 Ba3 3.567925 1_554
Al2 Ba0 3.610347 1_654
Al2 Ba1 3.622534 1_565
Al2 Ba3 3.622534 1_555
Al3 Ge4 2.478552 1_555
Al3 Ge5 2.526293 1_546
Al3 Ge2 2.526293 1_455
Al3 Ge6 2.591574 1_456
Al3 Ba4 3.567925 1_545
Al3 Ba6 3.567925 1_555
Al3 Ba0 3.610347 1_545
Al3 Ba4 3.622534 1_455
Al3 Ba6 3.622534 1_556
Ge0 Ge8 2.661542 1_555
Ge1 Ge7 2.661542 1_555
Ge2 Ge6 2.716972 1_556
Ge5 Ge6 2.716972 1_465
