# generated using pymatgen
data_CsYb3Se4
_symmetry_space_group_name_H-M   'P 1'
_cell_length_a   4.07171157
_cell_length_b   4.07171157
_cell_length_c   29.50279542
_cell_angle_alpha   90.00000000
_cell_angle_beta   90.00000000
_cell_angle_gamma   119.99998628
_symmetry_Int_Tables_number   1
_chemical_formula_structural   CsYb3Se4
_chemical_formula_sum   'Cs2 Yb6 Se8'
_cell_volume   423.59211952
_cell_formula_units_Z   2
loop_
 _symmetry_equiv_pos_site_id
 _symmetry_equiv_pos_as_xyz
  1  'x, y, z'
loop_
 _atom_site_type_symbol
 _atom_site_label
 _atom_site_symmetry_multiplicity
 _atom_site_fract_x
 _atom_site_fract_y
 _atom_site_fract_z
 _atom_site_occupancy
  Cs  Cs0  1  0.66666700  0.33333300  0.25000000  1
  Cs  Cs1  1  0.33333300  0.66666700  0.75000000  1
  Yb  Yb0  1  0.66666700  0.33333300  0.60827645  1
  Yb  Yb1  1  0.66666700  0.33333300  0.89172355  1
  Yb  Yb2  1  0.33333300  0.66666700  0.39172355  1
  Yb  Yb3  1  0.33333300  0.66666700  0.10827645  1
  Yb  Yb4  1  0.00000000  0.00000000  0.50000000  1
  Yb  Yb5  1  0.00000000  0.00000000  0.00000000  1
  Se  Se0  1  0.00000000  0.00000000  0.15986603  1
  Se  Se1  1  0.66666700  0.33333300  0.44630813  1
  Se  Se2  1  0.00000000  0.00000000  0.65986603  1
  Se  Se3  1  0.33333300  0.66666700  0.94630813  1
  Se  Se4  1  0.33333300  0.66666700  0.55369187  1
  Se  Se5  1  0.00000000  0.00000000  0.34013397  1
  Se  Se6  1  0.66666700  0.33333300  0.05369187  1
  Se  Se7  1  0.00000000  0.00000000  0.84013397  1
loop_
_geom_bond_atom_site_label_1
_geom_bond_atom_site_label_2
_geom_bond_distance
_geom_bond_site_symmetry_2
Cs0 Se5 3.549314 1_655
Cs0 Se0 3.549314 1_655
Cs0 Se5 3.549317 1_555
Cs0 Se5 3.549317 1_665
Cs0 Se0 3.549317 1_555
Cs0 Se0 3.549317 1_665
Cs1 Se7 3.549314 1_565
Cs1 Se2 3.549314 1_565
Cs1 Se7 3.549317 1_555
Cs1 Se7 3.549317 1_665
Cs1 Se2 3.549317 1_555
Cs1 Se2 3.549317 1_665
Se0 Yb3 2.800511 1_545
Se0 Yb3 2.800515 1_555
Se0 Yb3 2.800515 1_445
Se1 Yb4 2.834698 1_655
Se1 Yb4 2.834701 1_555
Se1 Yb4 2.834701 1_665
Se1 Yb2 2.849500 1_655
Se1 Yb2 2.849500 1_545
Se1 Yb2 2.849505 1_555
Se2 Yb0 2.800511 1_455
Se2 Yb0 2.800515 1_555
Se2 Yb0 2.800515 1_445
Se3 Yb5 2.834698 1_566
Se3 Yb5 2.834701 1_556
Se3 Yb5 2.834701 1_666
Se3 Yb1 2.849500 1_565
Se3 Yb1 2.849500 1_455
Se3 Yb1 2.849505 1_555
Se4 Yb4 2.834698 1_565
Se4 Yb4 2.834701 1_555
Se4 Yb4 2.834701 1_665
Se4 Yb0 2.849500 1_565
Se4 Yb0 2.849500 1_455
Se4 Yb0 2.849505 1_555
Se5 Yb2 2.800511 1_545
Se5 Yb2 2.800515 1_555
Se5 Yb2 2.800515 1_445
Se6 Yb5 2.834698 1_655
Se6 Yb5 2.834701 1_555
Se6 Yb5 2.834701 1_665
Se6 Yb3 2.849500 1_655
Se6 Yb3 2.849500 1_545
Se6 Yb3 2.849505 1_555
Se7 Yb1 2.800511 1_455
Se7 Yb1 2.800515 1_555
Se7 Yb1 2.800515 1_445
