# generated using pymatgen
data_KScH4(C2O5)2
_symmetry_space_group_name_H-M   'P 1'
_cell_length_a   8.96324400
_cell_length_b   8.96324400
_cell_length_c   11.59719000
_cell_angle_alpha   90.00000000
_cell_angle_beta   90.00000000
_cell_angle_gamma   119.99999997
_symmetry_Int_Tables_number   1
_chemical_formula_structural   KScH4(C2O5)2
_chemical_formula_sum   'K3 Sc3 H12 C12 O30'
_cell_volume   806.88908741
_cell_formula_units_Z   3
loop_
 _symmetry_equiv_pos_site_id
 _symmetry_equiv_pos_as_xyz
  1  'x, y, z'
loop_
 _atom_site_type_symbol
 _atom_site_label
 _atom_site_symmetry_multiplicity
 _atom_site_fract_x
 _atom_site_fract_y
 _atom_site_fract_z
 _atom_site_occupancy
  K  K0  1  0.00000000  0.00000000  0.66666700  1
  K  K1  1  0.00000000  0.00000000  0.33333300  1
  K  K2  1  0.00000000  0.00000000  0.00000000  1
  Sc  Sc0  1  0.00000000  0.50000000  0.66666700  1
  Sc  Sc1  1  0.50000000  0.50000000  0.33333300  1
  Sc  Sc2  1  0.50000000  0.00000000  0.00000000  1
  H  H0  1  0.34679800  0.09862900  0.48414200  1
  H  H1  1  0.75183200  0.09862900  0.51585800  1
  H  H2  1  0.65320200  0.75183200  0.84919100  1
  H  H3  1  0.90137100  0.24816800  0.15080900  1
  H  H4  1  0.90137100  0.65320200  0.18252400  1
  H  H5  1  0.09862900  0.34679800  0.18252400  1
  H  H6  1  0.09862900  0.75183200  0.15080900  1
  H  H7  1  0.75183200  0.65320200  0.81747600  1
  H  H8  1  0.24816800  0.90137100  0.51585800  1
  H  H9  1  0.24816800  0.34679800  0.81747600  1
  H  H10  1  0.34679800  0.24816800  0.84919100  1
  H  H11  1  0.65320200  0.90137100  0.48414200  1
  C  C0  1  0.21054000  0.42108000  0.50000000  1
  C  C1  1  0.61848800  0.30924400  0.16666700  1
  C  C2  1  0.30924400  0.69075600  0.83333300  1
  C  C3  1  0.69075600  0.38151200  0.50000000  1
  C  C4  1  0.69075600  0.30924400  0.83333300  1
  C  C5  1  0.78946000  0.21054000  0.83333300  1
  C  C6  1  0.78946000  0.57892000  0.50000000  1
  C  C7  1  0.38151200  0.69075600  0.16666700  1
  C  C8  1  0.57892000  0.78946000  0.16666700  1
  C  C9  1  0.21054000  0.78946000  0.83333300  1
  C  C10  1  0.42108000  0.21054000  0.16666700  1
  C  C11  1  0.30924400  0.61848800  0.50000000  1
  O  O0  1  0.31062400  0.75941600  0.10996000  1
  O  O1  1  0.00000000  0.76811900  0.16666700  1
  O  O2  1  0.68937600  0.44879100  0.22337300  1
  O  O3  1  0.24058400  0.68937600  0.55670600  1
  O  O4  1  0.00000000  0.23188100  0.16666700  1
  O  O5  1  0.73342400  0.65307900  0.43492000  1
  O  O6  1  0.23188100  0.23188100  0.83333300  1
  O  O7  1  0.55120900  0.24058400  0.89004000  1
  O  O8  1  0.65307900  0.91965600  0.10158700  1
  O  O9  1  0.76811900  0.00000000  0.50000000  1
  O  O10  1  0.65307900  0.73342400  0.23174600  1
  O  O11  1  0.44879100  0.68937600  0.44329400  1
  O  O12  1  0.08034400  0.34692100  0.56508000  1
  O  O13  1  0.34692100  0.08034400  0.10158700  1
  O  O14  1  0.73342400  0.08034400  0.89841300  1
  O  O15  1  0.08034400  0.73342400  0.76825400  1
  O  O16  1  0.91965600  0.26657600  0.76825400  1
  O  O17  1  0.26657600  0.34692100  0.43492000  1
  O  O18  1  0.91965600  0.65307900  0.56508000  1
  O  O19  1  0.23188100  0.00000000  0.50000000  1
  O  O20  1  0.24058400  0.55120900  0.77662700  1
  O  O21  1  0.55120900  0.31062400  0.44329400  1
  O  O22  1  0.31062400  0.55120900  0.22337300  1
  O  O23  1  0.26657600  0.91965600  0.89841300  1
  O  O24  1  0.44879100  0.75941600  0.89004000  1
  O  O25  1  0.76811900  0.76811900  0.83333300  1
  O  O26  1  0.75941600  0.31062400  0.55670600  1
  O  O27  1  0.68937600  0.24058400  0.10996000  1
  O  O28  1  0.34692100  0.26657600  0.23174600  1
  O  O29  1  0.75941600  0.44879100  0.77662700  1
loop_
_geom_bond_atom_site_label_1
_geom_bond_atom_site_label_2
_geom_bond_distance
_geom_bond_site_symmetry_2
K0 O6 2.838258 1_555
K0 O25 2.838258 1_445
K0 O9 2.838266 1_455
K0 O19 2.838266 1_555
K0 O16 3.055560 1_455
K0 O15 3.055560 1_545
K0 O12 3.055568 1_555
K0 O18 3.055568 1_445
K1 O1 2.838258 1_545
K1 O4 2.838258 1_555
K1 O9 2.838266 1_455
K1 O19 2.838266 1_555
K1 O17 3.055565 1_555
K1 O28 3.055565 1_555
K1 O10 3.055565 1_445
K1 O5 3.055565 1_445
K2 O1 2.838266 1_545
K2 O4 2.838266 1_555
K2 O25 2.838266 1_444
K2 O6 2.838266 1_554
K2 O23 3.055560 1_544
K2 O14 3.055560 1_454
K2 O13 3.055568 1_555
K2 O8 3.055568 1_445
H0 O19 0.982710 1_555
H1 O9 0.982705 1_555
H2 O25 0.982713 1_555
H3 O4 0.982705 1_655
H4 O1 0.982708 1_655
H5 O4 0.982708 1_555
H6 O1 0.982705 1_555
H7 O25 0.982711 1_555
H8 O19 0.982705 1_565
H9 O6 0.982711 1_555
H10 O6 0.982713 1_555
H11 O9 0.982710 1_565
C0 O17 1.263962 1_555
C0 O12 1.263968 1_555
C1 O2 1.267257 1_555
C1 O27 1.267270 1_555
C2 O20 1.267257 1_555
C2 O24 1.267263 1_555
C3 O21 1.267257 1_555
C3 O26 1.267264 1_555
C4 O29 1.267257 1_555
C4 O7 1.267263 1_555
C5 O16 1.263962 1_555
C5 O14 1.263969 1_555
C6 O5 1.263962 1_555
C6 O18 1.263968 1_555
C7 O22 1.267257 1_555
C7 O0 1.267270 1_555
C8 O10 1.263955 1_555
C8 O8 1.263968 1_555
C9 O15 1.263962 1_555
C9 O23 1.263969 1_555
C10 O28 1.263955 1_555
C10 O13 1.263968 1_555
C11 O11 1.267257 1_555
C11 O3 1.267264 1_555
O0 Sc2 2.344615 1_565
O2 Sc1 2.344620 1_555
O3 Sc0 2.344622 1_555
O5 Sc1 2.185708 1_555
O7 Sc2 2.344613 1_556
O8 Sc2 2.185702 1_565
O10 Sc1 2.185708 1_555
O11 Sc1 2.344627 1_555
O12 Sc0 2.185702 1_555
O13 Sc2 2.185702 1_555
O14 Sc2 2.185709 1_556
O15 Sc0 2.185709 1_555
O16 Sc0 2.185709 1_655
O17 Sc1 2.185708 1_555
O18 Sc0 2.185702 1_655
O20 Sc0 2.344613 1_555
O21 Sc1 2.344627 1_555
O22 Sc1 2.344620 1_555
O23 Sc2 2.185709 1_566
O24 Sc2 2.344613 1_566
O26 Sc0 2.344622 1_655
O27 Sc2 2.344615 1_555
O28 Sc1 2.185708 1_555
O29 Sc0 2.344613 1_655
