# generated using pymatgen
data_DyPO4
_symmetry_space_group_name_H-M   'P 1'
_cell_length_a   5.71881821
_cell_length_b   5.71881918
_cell_length_c   5.71881802
_cell_angle_alpha   106.09053628
_cell_angle_beta   106.09053311
_cell_angle_gamma   116.46736471
_symmetry_Int_Tables_number   1
_chemical_formula_structural   DyPO4
_chemical_formula_sum   'Dy2 P2 O8'
_cell_volume   142.34941867
_cell_formula_units_Z   2
loop_
 _symmetry_equiv_pos_site_id
 _symmetry_equiv_pos_as_xyz
  1  'x, y, z'
loop_
 _atom_site_type_symbol
 _atom_site_label
 _atom_site_symmetry_multiplicity
 _atom_site_fract_x
 _atom_site_fract_y
 _atom_site_fract_z
 _atom_site_occupancy
  Dy  Dy0  1  0.12500000  0.87500000  0.25000000  1
  Dy  Dy1  1  0.87500000  0.12500000  0.75000000  1
  P  P0  1  0.37500000  0.62500000  0.75000000  1
  P  P1  1  0.62500000  0.37500000  0.25000000  1
  O  O0  1  0.78407177  0.35913022  0.07505945  1
  O  O1  1  0.70901232  0.78407177  0.92494055  1
  O  O2  1  0.35913022  0.78407177  0.57505945  1
  O  O3  1  0.78407177  0.70901232  0.42494055  1
  O  O4  1  0.29098768  0.21592823  0.07505945  1
  O  O5  1  0.21592823  0.64086978  0.92494055  1
  O  O6  1  0.21592823  0.29098768  0.57505945  1
  O  O7  1  0.64086978  0.21592823  0.42494055  1
loop_
_geom_bond_atom_site_label_1
_geom_bond_atom_site_label_2
_geom_bond_distance
_geom_bond_site_symmetry_2
Dy0 O5 2.301228 1_554
Dy0 O2 2.301228 1_555
Dy0 O1 2.301231 1_454
Dy0 O6 2.301231 1_565
Dy0 O3 2.379343 1_455
Dy0 O4 2.379343 1_565
Dy0 O7 2.379348 1_565
Dy0 O0 2.379348 1_455
Dy1 O0 2.301228 1_556
Dy1 O7 2.301228 1_555
Dy1 O4 2.301231 1_656
Dy1 O3 2.301231 1_545
Dy1 O6 2.379343 1_655
Dy1 O1 2.379343 1_545
Dy1 O2 2.379348 1_545
Dy1 O5 2.379348 1_655
O0 P1 1.537678 1_555
O1 P0 1.537677 1_555
O2 P0 1.537678 1_555
O3 P1 1.537677 1_555
O4 P1 1.537677 1_555
O5 P0 1.537678 1_555
O6 P0 1.537677 1_555
O7 P1 1.537678 1_555
