# generated using pymatgen
data_CsMo6Se7
_symmetry_space_group_name_H-M   'P 1'
_cell_length_a   10.03476822
_cell_length_b   10.03476822
_cell_length_c   10.03476752
_cell_angle_alpha   59.01620422
_cell_angle_beta   59.01620422
_cell_angle_gamma   59.01620056
_symmetry_Int_Tables_number   1
_chemical_formula_structural   CsMo6Se7
_chemical_formula_sum   'Cs2 Mo12 Se14'
_cell_volume   698.47519659
_cell_formula_units_Z   2
loop_
 _symmetry_equiv_pos_site_id
 _symmetry_equiv_pos_as_xyz
  1  'x, y, z'
loop_
 _atom_site_type_symbol
 _atom_site_label
 _atom_site_symmetry_multiplicity
 _atom_site_fract_x
 _atom_site_fract_y
 _atom_site_fract_z
 _atom_site_occupancy
  Cs  Cs0  1  0.37412600  0.37412600  0.37412600  1
  Cs  Cs1  1  0.62587400  0.62587400  0.62587400  1
  Mo  Mo0  1  0.30397600  0.11752400  0.99476500  1
  Mo  Mo1  1  0.19343500  0.88024200  0.06088800  1
  Mo  Mo2  1  0.88024200  0.06088800  0.19343500  1
  Mo  Mo3  1  0.93911200  0.80656500  0.11975800  1
  Mo  Mo4  1  0.80656500  0.11975800  0.93911200  1
  Mo  Mo5  1  0.11975800  0.93911200  0.80656500  1
  Mo  Mo6  1  0.99476500  0.30397600  0.11752400  1
  Mo  Mo7  1  0.88247600  0.00523500  0.69602400  1
  Mo  Mo8  1  0.11752400  0.99476500  0.30397600  1
  Mo  Mo9  1  0.00523500  0.69602400  0.88247600  1
  Mo  Mo10  1  0.69602400  0.88247600  0.00523500  1
  Mo  Mo11  1  0.06088800  0.19343500  0.88024200  1
  Se  Se0  1  0.98494000  0.23942300  0.63280500  1
  Se  Se1  1  0.23942300  0.63280500  0.98494000  1
  Se  Se2  1  0.63280500  0.98494000  0.23942300  1
  Se  Se3  1  0.01506000  0.76057700  0.36719500  1
  Se  Se4  1  0.76057700  0.36719500  0.01506000  1
  Se  Se5  1  0.36719500  0.01506000  0.76057700  1
  Se  Se6  1  0.16773100  0.41823000  0.80760300  1
  Se  Se7  1  0.41823000  0.80760300  0.16773100  1
  Se  Se8  1  0.80760300  0.16773100  0.41823000  1
  Se  Se9  1  0.83226900  0.58177000  0.19239700  1
  Se  Se10  1  0.58177000  0.19239700  0.83226900  1
  Se  Se11  1  0.19239700  0.83226900  0.58177000  1
  Se  Se12  1  0.77937200  0.77937200  0.77937200  1
  Se  Se13  1  0.22062800  0.22062800  0.22062800  1
loop_
_geom_bond_atom_site_label_1
_geom_bond_atom_site_label_2
_geom_bond_distance
_geom_bond_site_symmetry_2
Cs0 Se3 3.690528 1_555
Cs0 Se5 3.690528 1_555
Cs0 Se4 3.690528 1_555
Cs0 Se13 3.800800 1_555
Cs0 Se6 3.894770 1_555
Cs0 Se8 3.894770 1_555
Cs0 Se7 3.894770 1_555
Cs0 Se1 3.899021 1_554
Cs0 Se2 3.899021 1_545
Cs0 Se0 3.899021 1_455
Cs1 Se0 3.690528 1_555
Cs1 Se2 3.690528 1_555
Cs1 Se1 3.690528 1_555
Cs1 Se12 3.800800 1_555
Cs1 Se9 3.894770 1_555
Cs1 Se11 3.894770 1_555
Cs1 Se10 3.894770 1_555
Cs1 Se4 3.899021 1_556
Cs1 Se5 3.899021 1_565
Cs1 Se3 3.899021 1_655
Mo0 Se13 2.545309 1_556
Mo0 Se7 2.611344 1_546
Mo0 Se6 2.657654 1_555
Mo0 Se10 2.684979 1_555
Mo0 Se5 2.695094 1_555
Mo1 Se7 2.600350 1_555
Mo1 Se5 2.602523 1_564
Mo1 Se3 2.615689 1_555
Mo1 Se1 2.713929 1_554
Mo2 Se8 2.600349 1_555
Mo2 Se3 2.602523 1_645
Mo2 Se4 2.615689 1_555
Mo2 Se2 2.713929 1_545
Mo3 Se9 2.600350 1_555
Mo3 Se1 2.602523 1_654
Mo3 Se2 2.615689 1_555
Mo3 Se3 2.713929 1_655
Mo4 Se10 2.600350 1_555
Mo4 Se2 2.602523 1_546
Mo4 Se0 2.615689 1_555
Mo4 Se4 2.713929 1_556
Mo5 Se11 2.600349 1_555
Mo5 Se0 2.602523 1_465
Mo5 Se1 2.615689 1_555
Mo5 Se5 2.713929 1_565
Mo6 Se13 2.545309 1_655
Mo6 Se6 2.611345 1_654
Mo6 Se8 2.657655 1_555
Mo6 Se9 2.684978 1_555
Mo6 Se4 2.695094 1_555
Mo7 Se12 2.545309 1_545
Mo7 Se11 2.611344 1_645
Mo7 Se10 2.657654 1_555
Mo7 Se8 2.684978 1_555
Mo7 Se0 2.695094 1_555
Mo8 Se13 2.545309 1_565
Mo8 Se8 2.611344 1_465
Mo8 Se7 2.657654 1_555
Mo8 Se11 2.684978 1_555
Mo8 Se3 2.695094 1_555
Mo9 Se12 2.545309 1_455
Mo9 Se9 2.611345 1_456
Mo9 Se11 2.657655 1_555
Mo9 Se6 2.684978 1_555
Mo9 Se1 2.695094 1_555
Mo10 Se12 2.545309 1_554
Mo10 Se10 2.611344 1_564
Mo10 Se9 2.657654 1_555
Mo10 Se7 2.684979 1_555
Mo10 Se2 2.695094 1_555
Mo11 Se6 2.600350 1_555
Mo11 Se4 2.602523 1_456
Mo11 Se5 2.615689 1_555
Mo11 Se0 2.713929 1_455
