# generated using pymatgen
data_Cs2KCo(CN)6
_symmetry_space_group_name_H-M   'P 1'
_cell_length_a   8.16450700
_cell_length_b   7.74269500
_cell_length_c   13.60981446
_cell_angle_alpha   55.53848624
_cell_angle_beta   90.00000000
_cell_angle_gamma   90.00000000
_symmetry_Int_Tables_number   1
_chemical_formula_structural   Cs2KCo(CN)6
_chemical_formula_sum   'Cs4 K2 Co2 C12 N12'
_cell_volume   709.36276314
_cell_formula_units_Z   2
loop_
 _symmetry_equiv_pos_site_id
 _symmetry_equiv_pos_as_xyz
  1  'x, y, z'
loop_
 _atom_site_type_symbol
 _atom_site_label
 _atom_site_symmetry_multiplicity
 _atom_site_fract_x
 _atom_site_fract_y
 _atom_site_fract_z
 _atom_site_occupancy
  Cs  Cs0  1  0.93475500  0.73064600  0.75027200  1
  Cs  Cs1  1  0.56524500  0.73064600  0.25027200  1
  Cs  Cs2  1  0.43475500  0.26935400  0.74972800  1
  Cs  Cs3  1  0.06524500  0.26935400  0.24972800  1
  K  K0  1  0.50000000  0.50000000  0.00000000  1
  K  K1  1  0.00000000  0.50000000  0.50000000  1
  Co  Co0  1  0.00000000  0.00000000  0.00000000  1
  Co  Co1  1  0.50000000  0.00000000  0.50000000  1
  C  C0  1  0.37651000  0.22991500  0.46984200  1
  C  C1  1  0.47919200  0.09269500  0.33998100  1
  C  C2  1  0.02080800  0.09269500  0.83998100  1
  C  C3  1  0.80718500  0.15858500  0.96214100  1
  C  C4  1  0.87651000  0.77008500  0.03015800  1
  C  C5  1  0.19281500  0.84141500  0.03785900  1
  C  C6  1  0.69281500  0.15858500  0.46214100  1
  C  C7  1  0.52080800  0.90730500  0.66001900  1
  C  C8  1  0.30718500  0.84141500  0.53785900  1
  C  C9  1  0.12349000  0.22991500  0.96984200  1
  C  C10  1  0.62349000  0.77008500  0.53015800  1
  C  C11  1  0.97919200  0.90730500  0.16001900  1
  N  N0  1  0.19962000  0.37581500  0.94942300  1
  N  N1  1  0.68703000  0.25899600  0.93753600  1
  N  N2  1  0.81297000  0.25899600  0.43753600  1
  N  N3  1  0.53648600  0.85054500  0.75997000  1
  N  N4  1  0.18703000  0.74100400  0.56246400  1
  N  N5  1  0.31297000  0.74100400  0.06246400  1
  N  N6  1  0.69962000  0.62418500  0.55057700  1
  N  N7  1  0.46351400  0.14945500  0.24003000  1
  N  N8  1  0.30038000  0.37581500  0.44942300  1
  N  N9  1  0.80038000  0.62418500  0.05057700  1
  N  N10  1  0.96351400  0.85054500  0.25997000  1
  N  N11  1  0.03648600  0.14945500  0.74003000  1
loop_
_geom_bond_atom_site_label_1
_geom_bond_atom_site_label_2
_geom_bond_distance
_geom_bond_site_symmetry_2
Cs0 N4 3.248093 1_655
Cs0 N11 3.273061 1_665
Cs0 N0 3.338179 1_655
Cs0 N3 3.404595 1_555
Cs0 N1 3.659123 1_555
Cs1 N5 3.248093 1_555
Cs1 N7 3.273061 1_565
Cs1 N8 3.338179 1_555
Cs1 N10 3.404595 1_555
Cs1 N2 3.659123 1_555
Cs2 N1 3.248093 1_555
Cs2 N3 3.273061 1_545
Cs2 N6 3.338179 1_555
Cs2 N11 3.404595 1_555
Cs2 N4 3.659123 1_555
Cs3 N2 3.248093 1_455
Cs3 N10 3.273061 1_445
Cs3 N9 3.338179 1_455
Cs3 N7 3.404595 1_555
Cs3 N5 3.659123 1_555
K0 N3 2.844797 1_554
K0 N7 2.844797 1_555
K0 N9 2.856907 1_555
K0 N0 2.856907 1_554
K0 N5 2.886481 1_555
K0 N1 2.886481 1_554
K1 N11 2.844797 1_555
K1 N10 2.844797 1_455
K1 N8 2.856907 1_555
K1 N6 2.856907 1_455
K1 N4 2.886481 1_555
K1 N2 2.886481 1_455
C0 N8 1.176615 1_555
C0 Co1 1.878055 1_555
C1 N7 1.176188 1_555
C1 Co1 1.875633 1_555
C2 N11 1.176188 1_555
C2 Co0 1.875633 1_556
C3 N1 1.176566 1_555
C3 Co0 1.880266 1_656
C4 N9 1.176615 1_555
C4 Co0 1.878055 1_665
C5 N5 1.176566 1_555
C5 Co0 1.880266 1_565
C6 N2 1.176566 1_555
C6 Co1 1.880266 1_555
C7 N3 1.176188 1_555
C7 Co1 1.875633 1_565
C8 N4 1.176566 1_555
C8 Co1 1.880266 1_565
C9 N0 1.176615 1_555
C9 Co0 1.878055 1_556
C10 N6 1.176615 1_555
C10 Co1 1.878055 1_565
C11 N10 1.176188 1_555
C11 Co0 1.875633 1_665
