# generated using pymatgen
data_CsUP3O11
_symmetry_space_group_name_H-M   'P 1'
_cell_length_a   11.13989900
_cell_length_b   7.12839800
_cell_length_c   13.66072565
_cell_angle_alpha   73.85116858
_cell_angle_beta   90.00000000
_cell_angle_gamma   90.00000000
_symmetry_Int_Tables_number   1
_chemical_formula_structural   CsUP3O11
_chemical_formula_sum   'Cs4 U4 P12 O44'
_cell_volume   1041.98994707
_cell_formula_units_Z   4
loop_
 _symmetry_equiv_pos_site_id
 _symmetry_equiv_pos_as_xyz
  1  'x, y, z'
loop_
 _atom_site_type_symbol
 _atom_site_label
 _atom_site_symmetry_multiplicity
 _atom_site_fract_x
 _atom_site_fract_y
 _atom_site_fract_z
 _atom_site_occupancy
  Cs  Cs0  1  0.49474500  0.33563200  0.88916000  1
  Cs  Cs1  1  0.99474500  0.66436800  0.61084000  1
  Cs  Cs2  1  0.50525500  0.66436800  0.11084000  1
  Cs  Cs3  1  0.00525500  0.33563200  0.38916000  1
  U  U0  1  0.73106300  0.15589800  0.67327700  1
  U  U1  1  0.23106300  0.84410200  0.82672300  1
  U  U2  1  0.76893700  0.15589800  0.17327700  1
  U  U3  1  0.26893700  0.84410200  0.32672300  1
  P  P0  1  0.79959800  0.71606200  0.88629500  1
  P  P1  1  0.20040200  0.28393800  0.11370500  1
  P  P2  1  0.12812700  0.68032600  0.10844600  1
  P  P3  1  0.70040200  0.71606200  0.38629500  1
  P  P4  1  0.87187300  0.31967400  0.89155400  1
  P  P5  1  0.37187300  0.68032600  0.60844600  1
  P  P6  1  0.62812700  0.31967400  0.39155400  1
  P  P7  1  0.13886600  0.29063600  0.90456500  1
  P  P8  1  0.29959800  0.28393800  0.61370500  1
  P  P9  1  0.86113400  0.70936400  0.09543500  1
  P  P10  1  0.36113400  0.29063600  0.40456500  1
  P  P11  1  0.63886600  0.70936400  0.59543500  1
  O  O0  1  0.68051500  0.63593500  0.92587800  1
  O  O1  1  0.71826700  0.86324400  0.61753800  1
  O  O2  1  0.71366500  0.26101800  0.32045400  1
  O  O3  1  0.38305600  0.23934100  0.52499700  1
  O  O4  1  0.61694400  0.76065900  0.47500300  1
  O  O5  1  0.68825000  0.89377800  0.29670900  1
  O  O6  1  0.11694400  0.23934100  0.02499700  1
  O  O7  1  0.38421400  0.44594600  0.64451200  1
  O  O8  1  0.50525600  0.74082800  0.63459000  1
  O  O9  1  0.88305600  0.76065900  0.97500300  1
  O  O10  1  0.37834600  0.78427200  0.88359000  1
  O  O11  1  0.81948500  0.63593500  0.42587800  1
  O  O12  1  0.28173300  0.13675600  0.38246200  1
  O  O13  1  0.11578600  0.44594600  0.14451200  1
  O  O14  1  0.28633500  0.73898200  0.67954600  1
  O  O15  1  0.78173300  0.86324400  0.11753800  1
  O  O16  1  0.78633500  0.26101800  0.82045400  1
  O  O17  1  0.18051500  0.36406500  0.57412200  1
  O  O18  1  0.15190300  0.75179400  0.99621000  1
  O  O19  1  0.81175000  0.89377800  0.79670900  1
  O  O20  1  0.88421400  0.55405400  0.85548800  1
  O  O21  1  0.31948500  0.36406500  0.07412200  1
  O  O22  1  0.91487400  0.10243800  0.23075800  1
  O  O23  1  0.62165400  0.21572800  0.11641000  1
  O  O24  1  0.41487400  0.89756200  0.26924200  1
  O  O25  1  0.32229300  0.49918900  0.36082500  1
  O  O26  1  0.82229300  0.50081100  0.13917500  1
  O  O27  1  0.99474400  0.74082800  0.13459000  1
  O  O28  1  0.84809700  0.24820600  0.00379000  1
  O  O29  1  0.17770700  0.49918900  0.86082500  1
  O  O30  1  0.18825000  0.10622200  0.20329100  1
  O  O31  1  0.08512600  0.89756200  0.76924200  1
  O  O32  1  0.67770700  0.50081100  0.63917500  1
  O  O33  1  0.87834600  0.21572800  0.61641000  1
  O  O34  1  0.12165400  0.78427200  0.38359000  1
  O  O35  1  0.58512600  0.10243800  0.73075800  1
  O  O36  1  0.00525600  0.25917200  0.86541000  1
  O  O37  1  0.21366500  0.73898200  0.17954600  1
  O  O38  1  0.65190300  0.24820600  0.50379000  1
  O  O39  1  0.21826700  0.13675600  0.88246200  1
  O  O40  1  0.34809700  0.75179400  0.49621000  1
  O  O41  1  0.61578600  0.55405400  0.35548800  1
  O  O42  1  0.49474400  0.25917200  0.36541000  1
  O  O43  1  0.31175000  0.10622200  0.70329100  1
loop_
_geom_bond_atom_site_label_1
_geom_bond_atom_site_label_2
_geom_bond_distance
_geom_bond_site_symmetry_2
Cs0 O0 3.116738 1_555
Cs0 O35 3.234234 1_555
Cs0 O21 3.243767 1_556
Cs0 O23 3.300083 1_556
Cs0 O39 3.402399 1_555
Cs0 O10 3.432132 1_555
Cs0 O7 3.441219 1_555
Cs0 O16 3.463070 1_555
Cs1 O17 3.116738 1_655
Cs1 O31 3.234234 1_655
Cs1 O11 3.243767 1_555
Cs1 O34 3.300083 1_655
Cs1 O1 3.402399 1_555
Cs1 O33 3.432132 1_555
Cs1 O20 3.441219 1_555
Cs1 O14 3.463070 1_655
Cs2 O21 3.116738 1_555
Cs2 O24 3.234234 1_555
Cs2 O0 3.243767 1_554
Cs2 O10 3.300083 1_554
Cs2 O15 3.402399 1_555
Cs2 O23 3.432132 1_555
Cs2 O41 3.441219 1_555
Cs2 O37 3.463070 1_555
Cs3 O11 3.116738 1_455
Cs3 O22 3.234234 1_455
Cs3 O17 3.243767 1_555
Cs3 O33 3.300083 1_455
Cs3 O12 3.402399 1_555
Cs3 O34 3.432132 1_555
Cs3 O13 3.441219 1_555
Cs3 O2 3.463070 1_455
O0 P0 1.485471 1_555
O1 P11 1.503666 1_555
O1 U0 2.415731 1_565
O2 P6 1.500701 1_555
O2 U2 2.412669 1_555
O3 P10 1.601672 1_555
O3 P8 1.627337 1_555
O4 P11 1.601672 1_555
O4 P3 1.627337 1_555
O5 P3 1.502825 1_555
O5 U2 2.321593 1_565
O6 P7 1.601672 1_554
O6 P1 1.627337 1_555
O7 P5 1.610951 1_555
O7 P8 1.633916 1_555
O8 P5 1.614639 1_555
O8 P11 1.618173 1_555
O9 P9 1.601672 1_556
O9 P0 1.627337 1_555
O10 U1 1.814673 1_555
O11 P3 1.485471 1_555
O12 P10 1.503666 1_555
O12 U3 2.415731 1_545
O13 P2 1.610951 1_555
O13 P1 1.633916 1_555
O14 P5 1.500701 1_555
O14 U1 2.412669 1_555
O15 P9 1.503666 1_555
O15 U2 2.415731 1_565
O16 P4 1.500701 1_555
O16 U0 2.412669 1_555
O17 P8 1.485471 1_555
O18 P2 1.498656 1_556
O18 U1 2.392451 1_555
O19 P0 1.502825 1_555
O19 U0 2.321593 1_565
O20 P4 1.610951 1_555
O20 P0 1.633916 1_555
O21 P1 1.485471 1_555
O22 U2 1.799537 1_555
O23 U2 1.814673 1_555
O24 U3 1.799537 1_555
O25 P10 1.503409 1_555
O25 U3 2.445048 1_555
O26 P9 1.503409 1_555
O26 U2 2.445048 1_555
O27 P2 1.614639 1_655
O27 P9 1.618173 1_555
O28 P4 1.498656 1_554
O28 U2 2.392451 1_555
O29 P7 1.503409 1_555
O29 U1 2.445048 1_555
O30 P1 1.502825 1_555
O30 U3 2.321593 1_545
O31 U1 1.799537 1_555
O32 P11 1.503409 1_555
O32 U0 2.445048 1_555
O33 U0 1.814673 1_555
O34 U3 1.814673 1_555
O35 U0 1.799537 1_555
O36 P4 1.614639 1_455
O36 P7 1.618173 1_555
O37 P2 1.500701 1_555
O37 U3 2.412669 1_555
O38 P6 1.498656 1_555
O38 U0 2.392451 1_555
O39 P7 1.503666 1_555
O39 U1 2.415731 1_545
O40 P5 1.498656 1_555
O40 U3 2.392451 1_555
O41 P6 1.610951 1_555
O41 P3 1.633916 1_555
O42 P6 1.614639 1_555
O42 P10 1.618173 1_555
O43 P8 1.502825 1_555
O43 U1 2.321593 1_545
