# generated using pymatgen
data_LuOs2
_symmetry_space_group_name_H-M   'P 1'
_cell_length_a   5.23506658
_cell_length_b   5.23506814
_cell_length_c   8.76128030
_cell_angle_alpha   90.00000000
_cell_angle_beta   90.00000000
_cell_angle_gamma   119.99999647
_symmetry_Int_Tables_number   1
_chemical_formula_structural   LuOs2
_chemical_formula_sum   'Lu4 Os8'
_cell_volume   207.94226505
_cell_formula_units_Z   4
loop_
 _symmetry_equiv_pos_site_id
 _symmetry_equiv_pos_as_xyz
  1  'x, y, z'
loop_
 _atom_site_type_symbol
 _atom_site_label
 _atom_site_symmetry_multiplicity
 _atom_site_fract_x
 _atom_site_fract_y
 _atom_site_fract_z
 _atom_site_occupancy
  Lu  Lu0  1  0.33333300  0.66666700  0.43372420  1
  Lu  Lu1  1  0.66666700  0.33333300  0.56627580  1
  Lu  Lu2  1  0.66666700  0.33333300  0.93372420  1
  Lu  Lu3  1  0.33333300  0.66666700  0.06627580  1
  Os  Os0  1  0.17221497  0.34442995  0.75000000  1
  Os  Os1  1  0.17221497  0.82778503  0.75000000  1
  Os  Os2  1  0.34442995  0.17221497  0.25000000  1
  Os  Os3  1  0.82778503  0.65557005  0.25000000  1
  Os  Os4  1  0.65557005  0.82778503  0.75000000  1
  Os  Os5  1  0.00000000  0.00000000  0.00000000  1
  Os  Os6  1  0.82778503  0.17221497  0.25000000  1
  Os  Os7  1  0.00000000  0.00000000  0.50000000  1
loop_
_geom_bond_atom_site_label_1
_geom_bond_atom_site_label_2
_geom_bond_distance
_geom_bond_site_symmetry_2
Lu0 Os3 3.073272 1_455
Lu0 Os2 3.073273 1_565
Lu0 Os6 3.073275 1_455
Lu0 Os6 3.073275 1_565
Lu0 Os3 3.073276 1_555
Lu0 Os2 3.073277 1_555
Lu0 Os7 3.077736 1_565
Lu0 Os7 3.077740 1_665
Lu0 Os7 3.077741 1_555
Lu0 Os1 3.132512 1_555
Lu0 Os4 3.132514 1_555
Lu0 Os0 3.132514 1_555
Lu0 Lu3 3.219318 1_555
Lu0 Lu1 3.237894 1_455
Lu0 Lu1 3.237895 1_565
Lu0 Lu1 3.237903 1_555
Lu1 Os0 3.073272 1_655
Lu1 Os4 3.073273 1_545
Lu1 Os1 3.073275 1_655
Lu1 Os1 3.073275 1_545
Lu1 Os0 3.073276 1_555
Lu1 Os4 3.073277 1_555
Lu1 Os7 3.077736 1_655
Lu1 Os7 3.077740 1_555
Lu1 Os7 3.077741 1_665
Lu1 Os6 3.132512 1_555
Lu1 Os2 3.132514 1_555
Lu1 Os3 3.132514 1_555
Lu1 Lu2 3.219318 1_555
Lu2 Os0 3.073272 1_655
Lu2 Os4 3.073273 1_545
Lu2 Os1 3.073275 1_655
Lu2 Os1 3.073275 1_545
Lu2 Os0 3.073276 1_555
Lu2 Os4 3.073277 1_555
Lu2 Os5 3.077736 1_656
Lu2 Os5 3.077740 1_556
Lu2 Os5 3.077741 1_666
Lu2 Os6 3.132512 1_556
Lu2 Os2 3.132514 1_556
Lu2 Os3 3.132514 1_556
Lu2 Lu3 3.237894 1_656
Lu2 Lu3 3.237895 1_546
Lu2 Lu3 3.237903 1_556
Lu3 Os3 3.073272 1_455
Lu3 Os2 3.073273 1_565
Lu3 Os6 3.073275 1_455
Lu3 Os6 3.073275 1_565
Lu3 Os3 3.073276 1_555
Lu3 Os2 3.073277 1_555
Lu3 Os5 3.077736 1_565
Lu3 Os5 3.077740 1_665
Lu3 Os5 3.077741 1_555
Lu3 Os1 3.132512 1_554
Lu3 Os4 3.132514 1_554
Lu3 Os0 3.132514 1_554
Os0 Os4 2.530397 1_555
Os0 Os1 2.530397 1_555
Os0 Os7 2.689966 1_555
Os0 Os5 2.689966 1_556
Os0 Os4 2.704671 1_445
Os0 Os1 2.704671 1_545
Os1 Os4 2.530396 1_555
Os1 Os5 2.689966 1_566
Os1 Os7 2.689966 1_565
Os1 Os4 2.704671 1_455
Os2 Os6 2.530396 1_555
Os2 Os3 2.530397 1_555
Os2 Os5 2.689966 1_555
Os2 Os7 2.689966 1_555
Os2 Os6 2.704671 1_455
Os2 Os3 2.704671 1_445
Os3 Os6 2.530397 1_555
Os3 Os7 2.689966 1_665
Os3 Os5 2.689966 1_665
Os3 Os6 2.704671 1_565
Os4 Os7 2.689966 1_665
Os4 Os5 2.689966 1_666
Os5 Os6 2.689966 1_455
Os6 Os7 2.689966 1_655
