# generated using pymatgen
data_Y2Cu2O5
_symmetry_space_group_name_H-M   'P 1'
_cell_length_a   6.26558900
_cell_length_b   7.19304300
_cell_length_c   11.24612500
_cell_angle_alpha   90.00000000
_cell_angle_beta   90.00000000
_cell_angle_gamma   90.00000000
_symmetry_Int_Tables_number   1
_chemical_formula_structural   Y2Cu2O5
_chemical_formula_sum   'Y8 Cu8 O20'
_cell_volume   506.84768382
_cell_formula_units_Z   4
loop_
 _symmetry_equiv_pos_site_id
 _symmetry_equiv_pos_as_xyz
  1  'x, y, z'
loop_
 _atom_site_type_symbol
 _atom_site_label
 _atom_site_symmetry_multiplicity
 _atom_site_fract_x
 _atom_site_fract_y
 _atom_site_fract_z
 _atom_site_occupancy
  Y  Y0  1  0.24999800  0.88016500  0.02135400  1
  Y  Y1  1  0.74999800  0.61983500  0.47864600  1
  Y  Y2  1  0.25000200  0.38016500  0.97864600  1
  Y  Y3  1  0.75000200  0.11983500  0.52135400  1
  Y  Y4  1  0.75000200  0.11983500  0.97864600  1
  Y  Y5  1  0.25000200  0.38016500  0.52135400  1
  Y  Y6  1  0.74999800  0.61983500  0.02135400  1
  Y  Y7  1  0.24999800  0.88016500  0.47864600  1
  Cu  Cu0  1  0.92858000  0.84882200  0.25000000  1
  Cu  Cu1  1  0.42858000  0.65117800  0.25000000  1
  Cu  Cu2  1  0.57142000  0.34882200  0.75000000  1
  Cu  Cu3  1  0.07142000  0.15117800  0.75000000  1
  Cu  Cu4  1  0.41166000  0.12739700  0.25000000  1
  Cu  Cu5  1  0.91166000  0.37260300  0.25000000  1
  Cu  Cu6  1  0.08834000  0.62739700  0.75000000  1
  Cu  Cu7  1  0.58834000  0.87260300  0.75000000  1
  O  O0  1  0.24549100  0.88063300  0.25000000  1
  O  O1  1  0.74549100  0.61936700  0.25000000  1
  O  O2  1  0.25450900  0.38063300  0.75000000  1
  O  O3  1  0.75450900  0.11936700  0.75000000  1
  O  O4  1  0.90385100  0.88609900  0.08833100  1
  O  O5  1  0.40385100  0.61390100  0.41166900  1
  O  O6  1  0.59614900  0.38609900  0.91166900  1
  O  O7  1  0.09614900  0.11390100  0.58833100  1
  O  O8  1  0.09614900  0.11390100  0.91166900  1
  O  O9  1  0.59614900  0.38609900  0.58833100  1
  O  O10  1  0.40385100  0.61390100  0.08833100  1
  O  O11  1  0.90385100  0.88609900  0.41166900  1
  O  O12  1  0.42979500  0.14327300  0.08594800  1
  O  O13  1  0.92979500  0.35672700  0.41405200  1
  O  O14  1  0.07020500  0.64327300  0.91405200  1
  O  O15  1  0.57020500  0.85672700  0.58594800  1
  O  O16  1  0.57020500  0.85672700  0.91405200  1
  O  O17  1  0.07020500  0.64327300  0.58594800  1
  O  O18  1  0.92979500  0.35672700  0.08594800  1
  O  O19  1  0.42979500  0.14327300  0.41405200  1
loop_
_geom_bond_atom_site_label_1
_geom_bond_atom_site_label_2
_geom_bond_distance
_geom_bond_site_symmetry_2
Cu0 O11 1.844335 1_555
Cu0 O4 1.844335 1_555
Cu0 O0 1.998775 1_655
Cu0 O1 2.009990 1_555
Cu1 O5 1.844335 1_555
Cu1 O10 1.844335 1_555
Cu1 O1 1.998775 1_555
Cu1 O0 2.009990 1_555
Cu2 O6 1.844335 1_555
Cu2 O9 1.844335 1_555
Cu2 O2 1.998775 1_555
Cu2 O3 2.009990 1_555
Cu3 O8 1.844335 1_555
Cu3 O7 1.844335 1_555
Cu3 O3 1.998775 1_455
Cu3 O2 2.009990 1_555
Cu4 O19 1.851969 1_555
Cu4 O12 1.851969 1_555
Cu4 O0 2.057803 1_545
Cu5 O13 1.851969 1_555
Cu5 O18 1.851969 1_555
Cu5 O1 2.057803 1_555
Cu6 O17 1.851969 1_555
Cu6 O14 1.851969 1_555
Cu6 O2 2.057803 1_555
Cu7 O16 1.851969 1_555
Cu7 O15 1.851969 1_555
Cu7 O3 2.057803 1_565
O0 Y7 2.571539 1_555
O0 Y0 2.571539 1_555
O1 Y1 2.571539 1_555
O1 Y6 2.571539 1_555
O2 Y2 2.571539 1_555
O2 Y5 2.571539 1_555
O3 Y4 2.571539 1_555
O3 Y3 2.571539 1_555
O4 Y6 2.272618 1_555
O4 Y0 2.296288 1_655
O4 Y4 2.297278 1_564
O5 Y7 2.272618 1_555
O5 Y1 2.296288 1_555
O5 Y5 2.297278 1_555
O6 Y4 2.272618 1_555
O6 Y2 2.296288 1_555
O6 Y6 2.297278 1_556
O7 Y5 2.272618 1_555
O7 Y3 2.296288 1_455
O7 Y7 2.297278 1_545
O8 Y2 2.272618 1_555
O8 Y4 2.296288 1_455
O8 Y0 2.297278 1_546
O9 Y3 2.272618 1_555
O9 Y5 2.296288 1_555
O9 Y1 2.297278 1_555
O10 Y0 2.272618 1_555
O10 Y6 2.296288 1_555
O10 Y2 2.297278 1_554
O11 Y1 2.272618 1_555
O11 Y7 2.296288 1_655
O11 Y3 2.297278 1_565
O12 Y0 2.319163 1_545
O12 Y4 2.347297 1_554
O12 Y2 2.372499 1_554
O13 Y1 2.319163 1_555
O13 Y5 2.347297 1_655
O13 Y3 2.372499 1_555
O14 Y2 2.319163 1_555
O14 Y6 2.347297 1_456
O14 Y0 2.372499 1_556
O15 Y3 2.319163 1_565
O15 Y7 2.347297 1_555
O15 Y1 2.372499 1_555
O16 Y4 2.319163 1_565
O16 Y0 2.347297 1_556
O16 Y6 2.372499 1_556
O17 Y5 2.319163 1_555
O17 Y1 2.347297 1_455
O17 Y7 2.372499 1_555
O18 Y6 2.319163 1_555
O18 Y2 2.347297 1_654
O18 Y4 2.372499 1_554
O19 Y7 2.319163 1_545
O19 Y3 2.347297 1_555
O19 Y5 2.372499 1_555
