# generated using pymatgen
data_Cs2MgCl4
_symmetry_space_group_name_H-M   'P 1'
_cell_length_a   7.47363582
_cell_length_b   9.83401175
_cell_length_c   13.32105775
_cell_angle_alpha   90.00000000
_cell_angle_beta   90.00000000
_cell_angle_gamma   90.00000000
_symmetry_Int_Tables_number   1
_chemical_formula_structural   Cs2MgCl4
_chemical_formula_sum   'Cs8 Mg4 Cl16'
_cell_volume   979.04209549
_cell_formula_units_Z   4
loop_
 _symmetry_equiv_pos_site_id
 _symmetry_equiv_pos_as_xyz
  1  'x, y, z'
loop_
 _atom_site_type_symbol
 _atom_site_label
 _atom_site_symmetry_multiplicity
 _atom_site_fract_x
 _atom_site_fract_y
 _atom_site_fract_z
 _atom_site_occupancy
  Cs  Cs0  1  0.75000000  0.36615671  0.41416607  1
  Cs  Cs1  1  0.25000000  0.63384329  0.58583393  1
  Cs  Cs2  1  0.75000000  0.86615671  0.08583393  1
  Cs  Cs3  1  0.75000000  0.01875831  0.67923349  1
  Cs  Cs4  1  0.75000000  0.51875831  0.82076651  1
  Cs  Cs5  1  0.25000000  0.48124169  0.17923349  1
  Cs  Cs6  1  0.25000000  0.13384329  0.91416607  1
  Cs  Cs7  1  0.25000000  0.98124169  0.32076651  1
  Mg  Mg0  1  0.25000000  0.22897289  0.57713101  1
  Mg  Mg1  1  0.75000000  0.27102711  0.07713101  1
  Mg  Mg2  1  0.75000000  0.77102711  0.42286899  1
  Mg  Mg3  1  0.25000000  0.72897289  0.92286899  1
  Cl  Cl0  1  0.50180884  0.82242267  0.84788544  1
  Cl  Cl1  1  0.25000000  0.49338292  0.91006963  1
  Cl  Cl2  1  0.50180884  0.32242267  0.65211456  1
  Cl  Cl3  1  0.75000000  0.00661708  0.41006963  1
  Cl  Cl4  1  0.25000000  0.81420021  0.08649729  1
  Cl  Cl5  1  0.49819116  0.67757733  0.34788544  1
  Cl  Cl6  1  0.25000000  0.31420021  0.41350271  1
  Cl  Cl7  1  0.75000000  0.50661708  0.08993037  1
  Cl  Cl8  1  0.49819116  0.17757733  0.15211456  1
  Cl  Cl9  1  0.99819116  0.82242267  0.84788544  1
  Cl  Cl10  1  0.99819116  0.32242267  0.65211456  1
  Cl  Cl11  1  0.00180884  0.67757733  0.34788544  1
  Cl  Cl12  1  0.75000000  0.68579979  0.58649729  1
  Cl  Cl13  1  0.00180884  0.17757733  0.15211456  1
  Cl  Cl14  1  0.25000000  0.99338292  0.58993037  1
  Cl  Cl15  1  0.75000000  0.18579979  0.91350271  1
loop_
_geom_bond_atom_site_label_1
_geom_bond_atom_site_label_2
_geom_bond_distance
_geom_bond_site_symmetry_2
Cl0 Mg3 2.320325 1_555
Cl0 Cs3 3.495110 1_565
Cl0 Cs4 3.533942 1_555
Cl0 Cs2 3.697668 1_556
Cl0 Cs6 3.701379 1_565
Cl1 Mg3 2.323060 1_555
Cl1 Cs6 3.536138 1_555
Cl1 Cs5 3.587535 1_556
Cl1 Cs4 3.929536 1_455
Cl1 Cs4 3.929536 1_555
Cl2 Mg0 2.320325 1_555
Cl2 Cs4 3.495110 1_555
Cl2 Cs3 3.533942 1_555
Cl2 Cs0 3.697668 1_555
Cl2 Cs1 3.701379 1_555
Cl3 Mg2 2.323060 1_545
Cl3 Cs0 3.536138 1_555
Cl3 Cs3 3.587535 1_555
Cl3 Cs7 3.929536 1_545
Cl3 Cs7 3.929536 1_645
Cl4 Mg3 2.335285 1_554
Cl4 Cs5 3.499605 1_555
Cl4 Cs7 3.526653 1_555
Cl4 Cs2 3.771597 1_555
Cl4 Cs2 3.771597 1_455
Cl4 Cs6 3.892395 1_564
Cl5 Mg2 2.320325 1_555
Cl5 Cs5 3.495110 1_555
Cl5 Cs7 3.533942 1_555
Cl5 Cs1 3.697668 1_555
Cl5 Cs0 3.701379 1_555
Cl6 Mg0 2.335285 1_555
Cl6 Cs7 3.499605 1_545
Cl6 Cs5 3.526653 1_555
Cl6 Cs0 3.771597 1_555
Cl6 Cs0 3.771597 1_455
Cl6 Cs1 3.892395 1_555
Cl7 Mg1 2.323060 1_555
Cl7 Cs2 3.536138 1_555
Cl7 Cs4 3.587535 1_554
Cl7 Cs5 3.929536 1_655
Cl7 Cs5 3.929536 1_555
Cl8 Mg1 2.320325 1_555
Cl8 Cs7 3.495110 1_545
Cl8 Cs5 3.533942 1_555
Cl8 Cs6 3.697668 1_554
Cl8 Cs2 3.701379 1_545
Cl9 Mg3 2.320325 1_655
Cl9 Cs3 3.495110 1_565
Cl9 Cs4 3.533942 1_555
Cl9 Cs2 3.697668 1_556
Cl9 Cs6 3.701379 1_665
Cl10 Mg0 2.320325 1_655
Cl10 Cs4 3.495110 1_555
Cl10 Cs3 3.533942 1_555
Cl10 Cs0 3.697668 1_555
Cl10 Cs1 3.701379 1_655
Cl11 Mg2 2.320325 1_455
Cl11 Cs5 3.495110 1_555
Cl11 Cs7 3.533942 1_555
Cl11 Cs1 3.697668 1_555
Cl11 Cs0 3.701379 1_455
Cl12 Mg2 2.335285 1_555
Cl12 Cs3 3.499605 1_565
Cl12 Cs4 3.526653 1_555
Cl12 Cs1 3.771597 1_555
Cl12 Cs1 3.771597 1_655
Cl12 Cs0 3.892395 1_555
Cl13 Mg1 2.320325 1_455
Cl13 Cs7 3.495110 1_545
Cl13 Cs5 3.533942 1_555
Cl13 Cs6 3.697668 1_554
Cl13 Cs2 3.701379 1_445
Cl14 Mg0 2.323060 1_565
Cl14 Cs1 3.536138 1_555
Cl14 Cs7 3.587535 1_555
Cl14 Cs3 3.929536 1_465
Cl14 Cs3 3.929536 1_565
Cl15 Mg1 2.335285 1_556
Cl15 Cs4 3.499605 1_555
Cl15 Cs3 3.526653 1_555
Cl15 Cs6 3.771597 1_555
Cl15 Cs6 3.771597 1_655
Cl15 Cs2 3.892395 1_546
