# generated using pymatgen
data_Sc6Si11Ni18
_symmetry_space_group_name_H-M   'P 1'
_cell_length_a   11.56579970
_cell_length_b   11.56579970
_cell_length_c   11.56579970
_cell_angle_alpha   139.40057314
_cell_angle_beta   116.17759078
_cell_angle_gamma   78.43773641
_symmetry_Int_Tables_number   1
_chemical_formula_structural   Sc6Si11Ni18
_chemical_formula_sum   'Sc12 Si22 Ni36'
_cell_volume   879.25468758
_cell_formula_units_Z   2
loop_
 _symmetry_equiv_pos_site_id
 _symmetry_equiv_pos_as_xyz
  1  'x, y, z'
loop_
 _atom_site_type_symbol
 _atom_site_label
 _atom_site_symmetry_multiplicity
 _atom_site_fract_x
 _atom_site_fract_y
 _atom_site_fract_z
 _atom_site_occupancy
  Sc  Sc0  1  0.81017600  0.31017600  0.50000000  1
  Sc  Sc1  1  0.18982400  0.68982400  0.50000000  1
  Sc  Sc2  1  0.46854200  0.28495100  0.18359100  1
  Sc  Sc3  1  0.37025500  0.87025500  0.50000000  1
  Sc  Sc4  1  0.53145800  0.71504900  0.81640900  1
  Sc  Sc5  1  0.62974500  0.12974500  0.50000000  1
  Sc  Sc6  1  0.18245300  0.79597600  0.97843000  1
  Sc  Sc7  1  0.89864000  0.71504900  0.18359100  1
  Sc  Sc8  1  0.81754700  0.20402400  0.02157000  1
  Sc  Sc9  1  0.10136000  0.28495100  0.81640900  1
  Sc  Sc10  1  0.18245300  0.20402400  0.38647700  1
  Sc  Sc11  1  0.81754700  0.79597600  0.61352300  1
  Si  Si0  1  0.33165800  0.50963800  0.17798000  1
  Si  Si1  1  0.50000000  0.76735200  0.26735200  1
  Si  Si2  1  0.67504600  0.10087400  0.08973700  1
  Si  Si3  1  0.67449200  0.50000000  0.17449200  1
  Si  Si4  1  0.16665100  0.88342400  0.28322700  1
  Si  Si5  1  0.33165800  0.15367800  0.82202000  1
  Si  Si6  1  0.01113600  0.10087400  0.42582700  1
  Si  Si7  1  0.60019700  0.88342400  0.71677300  1
  Si  Si8  1  0.32495400  0.41469100  0.42582700  1
  Si  Si9  1  0.39980300  0.11657600  0.28322700  1
  Si  Si10  1  0.66834200  0.84632200  0.17798000  1
  Si  Si11  1  0.50000000  0.23264800  0.73264800  1
  Si  Si12  1  0.67504600  0.58530900  0.57417300  1
  Si  Si13  1  0.00000000  0.00000000  0.00000000  1
  Si  Si14  1  0.32495400  0.89912600  0.91026300  1
  Si  Si15  1  0.98886400  0.41469100  0.08973700  1
  Si  Si16  1  0.66834200  0.49036200  0.82202000  1
  Si  Si17  1  0.83334900  0.11657600  0.71677300  1
  Si  Si18  1  0.00000000  0.50000000  0.50000000  1
  Si  Si19  1  0.98886400  0.89912600  0.57417300  1
  Si  Si20  1  0.01113600  0.58530900  0.91026300  1
  Si  Si21  1  0.32550800  0.50000000  0.82550800  1
  Ni  Ni0  1  0.26801200  0.63832200  0.07495800  1
  Ni  Ni1  1  0.43663600  0.80694600  0.07495800  1
  Ni  Ni2  1  0.98721000  0.88685100  0.10035900  1
  Ni  Ni3  1  0.21350800  0.11314900  0.10035900  1
  Ni  Ni4  1  0.73198800  0.80694600  0.37031000  1
  Ni  Ni5  1  0.43663600  0.36167800  0.62969000  1
  Ni  Ni6  1  0.20980200  0.37684300  0.16704100  1
  Ni  Ni7  1  0.56336400  0.63832200  0.37031000  1
  Ni  Ni8  1  0.20980200  0.04276000  0.83295900  1
  Ni  Ni9  1  0.61821600  0.00000000  0.61821600  1
  Ni  Ni10  1  0.01279000  0.11314900  0.89964100  1
  Ni  Ni11  1  0.09307200  0.42060200  0.67246900  1
  Ni  Ni12  1  0.07561000  0.80607600  0.73046600  1
  Ni  Ni13  1  0.56884900  0.56884900  0.00000000  1
  Ni  Ni14  1  0.12654000  0.61272300  0.17486000  1
  Ni  Ni15  1  0.26801200  0.19305400  0.62969000  1
  Ni  Ni16  1  0.38178400  0.00000000  0.38178400  1
  Ni  Ni17  1  0.90692800  0.57939800  0.32753100  1
  Ni  Ni18  1  0.79019800  0.62315700  0.83295900  1
  Ni  Ni19  1  0.78649200  0.88685100  0.89964100  1
  Ni  Ni20  1  0.43786200  0.61272300  0.48618300  1
  Ni  Ni21  1  0.25186700  0.57939800  0.67246900  1
  Ni  Ni22  1  0.43786200  0.95167900  0.82514000  1
  Ni  Ni23  1  0.79019800  0.95724000  0.16704100  1
  Ni  Ni24  1  0.43115100  0.43115100  0.00000000  1
  Ni  Ni25  1  0.87346000  0.04832100  0.48618300  1
  Ni  Ni26  1  0.92439000  0.19392400  0.26953400  1
  Ni  Ni27  1  0.56336400  0.19305400  0.92504200  1
  Ni  Ni28  1  0.56213800  0.04832100  0.17486000  1
  Ni  Ni29  1  0.56213800  0.38727700  0.51381700  1
  Ni  Ni30  1  0.73198800  0.36167800  0.92504200  1
  Ni  Ni31  1  0.12654000  0.95167900  0.51381700  1
  Ni  Ni32  1  0.07561000  0.34514400  0.26953400  1
  Ni  Ni33  1  0.87346000  0.38727700  0.82514000  1
  Ni  Ni34  1  0.74813300  0.42060200  0.32753100  1
  Ni  Ni35  1  0.92439000  0.65485600  0.73046600  1
loop_
_geom_bond_atom_site_label_1
_geom_bond_atom_site_label_2
_geom_bond_distance
_geom_bond_site_symmetry_2
Sc0 Si6 2.889358 1_655
Sc0 Si20 2.889363 1_655
Sc0 Si12 2.889363 1_555
Sc0 Si2 2.889366 1_555
Sc1 Si19 2.889358 1_455
Sc1 Si8 2.889363 1_555
Sc1 Si15 2.889363 1_455
Sc1 Si14 2.889366 1_555
Sc2 Si0 2.789270 1_555
Sc2 Si5 2.789270 1_554
Sc2 Si2 2.855699 1_555
Sc2 Si12 2.855702 1_555
Sc2 Si8 3.095325 1_555
Sc2 Si14 3.095334 1_544
Sc2 Si9 3.254094 1_555
Sc3 Si7 2.661070 1_555
Sc3 Si4 2.661070 1_555
Sc3 Si5 2.675200 1_565
Sc3 Si0 2.675200 1_555
Sc3 Si1 2.981954 1_555
Sc3 Si11 2.981954 1_565
Sc4 Si16 2.789270 1_555
Sc4 Si10 2.789270 1_556
Sc4 Si14 2.855699 1_555
Sc4 Si8 2.855702 1_555
Sc4 Si12 3.095325 1_555
Sc4 Si2 3.095334 1_566
Sc4 Si7 3.254094 1_555
Sc5 Si17 2.661070 1_555
Sc5 Si9 2.661070 1_555
Sc5 Si16 2.675200 1_555
Sc5 Si10 2.675200 1_545
Sc5 Si11 2.981954 1_555
Sc5 Si1 2.981954 1_545
Sc6 Si13 2.767285 1_566
Sc6 Si20 2.850292 1_555
Sc6 Si14 2.850301 1_555
Sc6 Si4 2.926359 1_556
Sc6 Si9 2.926372 1_566
Sc6 Si21 2.949814 1_555
Sc7 Si16 2.789270 1_554
Sc7 Si10 2.789270 1_555
Sc7 Si15 2.855702 1_555
Sc7 Si19 2.855706 1_555
Sc7 Si20 3.095325 1_654
Sc7 Si6 3.095335 1_665
Sc7 Si4 3.254094 1_655
Sc8 Si13 2.767285 1_655
Sc8 Si15 2.850292 1_555
Sc8 Si2 2.850301 1_555
Sc8 Si17 2.926359 1_554
Sc8 Si7 2.926372 1_544
Sc8 Si3 2.949814 1_555
Sc9 Si0 2.789270 1_556
Sc9 Si5 2.789270 1_555
Sc9 Si20 2.855702 1_555
Sc9 Si6 2.855706 1_555
Sc9 Si15 3.095325 1_456
Sc9 Si19 3.095335 1_445
Sc9 Si17 3.254094 1_455
Sc10 Si13 2.767283 1_555
Sc10 Si6 2.850292 1_555
Sc10 Si8 2.850300 1_555
Sc10 Si9 2.926371 1_555
Sc10 Si4 2.926371 1_545
Sc10 Si21 2.949815 1_555
Sc11 Si13 2.767283 1_666
Sc11 Si19 2.850292 1_555
Sc11 Si12 2.850300 1_555
Sc11 Si7 2.926371 1_555
Sc11 Si17 2.926371 1_565
Sc11 Si3 2.949815 1_555
Si2 Si7 2.604913 1_544
Si4 Si6 2.604919 1_565
Si8 Si9 2.604915 1_555
Si12 Si7 2.604915 1_555
Si14 Si9 2.604913 1_566
Si15 Si17 2.604915 1_554
Si17 Si19 2.604919 1_545
Si20 Si4 2.604915 1_556
Ni0 Si21 2.362753 1_554
Ni0 Si0 2.378380 1_555
Ni0 Si1 2.381660 1_555
Ni0 Si4 2.450038 1_555
Ni0 Ni14 2.545930 1_555
Ni0 Ni24 2.555285 1_555
Ni0 Si20 2.606628 1_554
Ni0 Sc6 2.635079 1_554
Ni0 Ni16 2.714270 1_565
Ni0 Ni11 2.834823 1_554
Ni0 Sc9 2.978971 1_554
Ni0 Sc3 2.979602 1_555
Ni1 Si21 2.362753 1_554
Ni1 Si10 2.378380 1_555
Ni1 Si1 2.381660 1_555
Ni1 Si9 2.450038 1_565
Ni1 Ni28 2.545946 1_565
Ni1 Ni13 2.555285 1_555
Ni1 Si14 2.606618 1_554
Ni1 Sc6 2.635089 1_554
Ni1 Ni16 2.714270 1_565
Ni1 Ni21 2.834825 1_554
Ni1 Sc4 2.978971 1_554
Ni1 Sc5 2.979602 1_565
Ni2 Si4 2.236855 1_655
Ni2 Si6 2.362108 1_665
Ni2 Si20 2.362109 1_654
Ni2 Si13 2.370138 1_665
Ni2 Ni23 2.510585 1_555
Ni2 Ni26 2.576262 1_565
Ni2 Ni35 2.576262 1_554
Ni2 Sc6 2.792856 1_654
Ni2 Sc10 2.792863 1_665
Ni2 Sc7 3.242689 1_555
Ni3 Si9 2.236855 1_555
Ni3 Si8 2.362109 1_555
Ni3 Si14 2.362112 1_544
Ni3 Si13 2.370138 1_555
Ni3 Ni8 2.510579 1_554
Ni3 Ni6 2.510586 1_555
Ni3 Ni32 2.576262 1_555
Ni3 Sc10 2.792863 1_555
Ni3 Sc6 2.792869 1_544
Ni3 Sc2 3.242689 1_555
Ni4 Si3 2.362753 1_555
Ni4 Si10 2.378380 1_555
Ni4 Si1 2.381660 1_555
Ni4 Si17 2.450038 1_565
Ni4 Si19 2.606629 1_555
Ni4 Sc11 2.635088 1_555
Ni4 Ni9 2.714270 1_565
Ni4 Sc7 2.978971 1_555
Ni4 Sc5 2.979602 1_565
Ni5 Si21 2.362753 1_555
Ni5 Si16 2.378380 1_555
Ni5 Si11 2.381660 1_555
Ni5 Si9 2.450038 1_555
Ni5 Si8 2.606628 1_555
Ni5 Sc10 2.635088 1_555
Ni5 Sc4 2.978971 1_555
Ni5 Sc5 2.979602 1_555
Ni6 Si0 2.185532 1_555
Ni6 Si8 2.377147 1_555
Ni6 Si15 2.377147 1_455
Ni6 Ni8 2.681035 1_554
Ni6 Sc1 2.695898 1_555
Ni6 Sc2 2.941096 1_555
Ni6 Sc9 2.941096 1_554
Ni7 Si3 2.362753 1_555
Ni7 Si0 2.378380 1_555
Ni7 Si1 2.381660 1_555
Ni7 Si7 2.450038 1_555
Ni7 Si12 2.606628 1_555
Ni7 Sc11 2.635088 1_555
Ni7 Ni9 2.714270 1_565
Ni7 Sc2 2.978971 1_555
Ni7 Sc3 2.979602 1_555
Ni8 Si5 2.185541 1_555
Ni8 Si14 2.377147 1_545
Ni8 Si19 2.377147 1_445
Ni8 Sc1 2.695893 1_545
Ni8 Sc2 2.941097 1_556
Ni8 Sc9 2.941106 1_555
Ni9 Si1 2.361179 1_545
Ni9 Si11 2.361179 1_555
Ni9 Si17 2.411804 1_555
Ni9 Si7 2.411804 1_545
Ni9 Sc5 2.737831 1_555
Ni9 Sc3 2.737831 1_545
Ni9 Sc8 2.936192 1_556
Ni9 Sc11 2.936199 1_545
Ni10 Si17 2.236855 1_455
Ni10 Si19 2.362108 1_445
Ni10 Si15 2.362109 1_456
Ni10 Si13 2.370138 1_556
Ni10 Ni3 2.454272 1_556
Ni10 Ni8 2.510585 1_555
Ni10 Ni6 2.510586 1_556
Ni10 Ni12 2.576262 1_545
Ni10 Ni32 2.576262 1_556
Ni10 Sc8 2.792856 1_456
Ni10 Sc11 2.792863 1_445
Ni10 Sc9 3.242689 1_555
Ni11 Si21 2.350794 1_555
Ni11 Si6 2.389732 1_555
Ni11 Si20 2.389747 1_555
Ni11 Si18 2.543989 1_555
Ni11 Sc10 2.771490 1_555
Ni11 Sc6 2.771496 1_555
Ni11 Ni26 2.805810 1_455
Ni11 Ni35 2.805816 1_455
Ni11 Ni15 2.834818 1_555
Ni11 Ni21 2.845757 1_555
Ni11 Sc0 2.891975 1_455
Ni11 Sc9 3.001232 1_555
Ni12 Si18 2.292747 1_555
Ni12 Si19 2.520635 1_455
Ni12 Si14 2.520645 1_555
Ni12 Ni8 2.541601 1_565
Ni12 Si13 2.552394 1_566
Ni12 Ni3 2.576262 1_566
Ni12 Sc11 2.662609 1_455
Ni12 Sc6 2.662620 1_555
Ni12 Ni35 2.709997 1_455
Ni12 Sc1 2.758646 1_555
Ni12 Ni21 2.805809 1_555
Ni12 Ni17 2.805810 1_455
Ni13 Si10 2.284545 1_555
Ni13 Si16 2.284545 1_554
Ni13 Si3 2.464665 1_555
Ni13 Si21 2.464665 1_554
Ni13 Ni24 2.467671 1_555
Ni13 Si11 2.474994 1_554
Ni13 Si1 2.474994 1_555
Ni13 Ni30 2.555285 1_554
Ni13 Ni5 2.555285 1_554
Ni13 Ni4 2.555285 1_555
Ni14 Si15 2.324928 1_455
Ni14 Si4 2.387208 1_555
Ni14 Si0 2.430394 1_555
Ni14 Si20 2.517853 1_554
Ni14 Ni6 2.650911 1_555
Ni14 Sc9 2.674806 1_554
Ni14 Sc7 2.676076 1_455
Ni14 Ni31 2.720149 1_555
Ni14 Sc3 2.821809 1_555
Ni14 Sc1 2.865863 1_555
Ni14 Ni33 2.885268 1_454
Ni15 Si21 2.362753 1_555
Ni15 Si5 2.378380 1_555
Ni15 Si11 2.381660 1_555
Ni15 Si4 2.450038 1_545
Ni15 Ni31 2.545939 1_545
Ni15 Ni24 2.555285 1_556
Ni15 Si6 2.606629 1_555
Ni15 Sc10 2.635088 1_555
Ni15 Ni16 2.714270 1_555
Ni15 Sc9 2.978971 1_555
Ni15 Sc3 2.979602 1_545
Ni16 Si11 2.361179 1_555
Ni16 Si1 2.361179 1_545
Ni16 Si9 2.411804 1_555
Ni16 Si4 2.411804 1_545
Ni16 Ni5 2.714270 1_555
Ni16 Sc5 2.737831 1_555
Ni16 Sc3 2.737831 1_545
Ni16 Sc6 2.936192 1_544
Ni16 Sc10 2.936199 1_555
Ni17 Si3 2.350794 1_555
Ni17 Si19 2.389732 1_555
Ni17 Si15 2.389747 1_555
Ni17 Si18 2.543989 1_655
Ni17 Sc11 2.771490 1_555
Ni17 Sc8 2.771496 1_555
Ni17 Ni32 2.805816 1_655
Ni17 Ni4 2.834818 1_555
Ni17 Ni30 2.834823 1_554
Ni17 Ni34 2.845757 1_555
Ni17 Sc1 2.891975 1_655
Ni17 Sc7 3.001232 1_555
Ni18 Si16 2.185532 1_555
Ni18 Si20 2.377147 1_655
Ni18 Si12 2.377147 1_555
Ni18 Ni2 2.510586 1_556
Ni18 Ni19 2.510586 1_555
Ni18 Ni35 2.541610 1_555
Ni18 Ni29 2.650904 1_555
Ni18 Ni33 2.650911 1_555
Ni18 Ni23 2.681035 1_556
Ni18 Sc0 2.695898 1_555
Ni18 Sc4 2.941096 1_555
Ni18 Sc7 2.941096 1_556
Ni19 Si7 2.236855 1_555
Ni19 Si12 2.362109 1_555
Ni19 Si2 2.362112 1_566
Ni19 Si13 2.370138 1_666
Ni19 Ni2 2.454272 1_556
Ni19 Ni23 2.510579 1_556
Ni19 Ni35 2.576262 1_555
Ni19 Ni26 2.576262 1_566
Ni19 Sc11 2.792863 1_555
Ni19 Sc8 2.792869 1_566
Ni19 Sc4 3.242689 1_555
Ni20 Si8 2.324921 1_555
Ni20 Si7 2.387214 1_555
Ni20 Si0 2.430395 1_555
Ni20 Si12 2.517864 1_555
Ni20 Ni7 2.545939 1_555
Ni20 Ni6 2.650904 1_555
Ni20 Sc2 2.674811 1_555
Ni20 Sc4 2.676074 1_555
Ni20 Ni22 2.720149 1_555
Ni20 Sc3 2.821808 1_555
Ni20 Sc1 2.865852 1_555
Ni20 Ni29 2.885274 1_555
Ni21 Si21 2.350804 1_555
Ni21 Si14 2.389730 1_555
Ni21 Si8 2.389739 1_555
Ni21 Si18 2.543989 1_555
Ni21 Sc10 2.771499 1_555
Ni21 Sc6 2.771507 1_555
Ni21 Ni32 2.805809 1_555
Ni21 Ni5 2.834825 1_555
Ni21 Sc1 2.891964 1_555
Ni21 Sc4 3.001228 1_555
Ni22 Si14 2.324919 1_555
Ni22 Si7 2.387221 1_555
Ni22 Si5 2.430401 1_565
Ni22 Si2 2.517861 1_566
Ni22 Ni27 2.545946 1_565
Ni22 Ni8 2.650900 1_565
Ni22 Sc2 2.674806 1_566
Ni22 Sc4 2.676068 1_555
Ni22 Sc3 2.821819 1_555
Ni22 Sc1 2.865852 1_555
Ni22 Ni28 2.885254 1_566
Ni23 Si10 2.185541 1_555
Ni23 Si2 2.377147 1_565
Ni23 Si6 2.377147 1_665
Ni23 Ni26 2.541601 1_565
Ni23 Ni28 2.650900 1_565
Ni23 Ni25 2.650911 1_565
Ni23 Sc0 2.695893 1_565
Ni23 Sc4 2.941097 1_554
Ni23 Sc7 2.941106 1_555
Ni24 Si0 2.284545 1_555
Ni24 Si5 2.284545 1_554
Ni24 Si3 2.464665 1_555
Ni24 Si21 2.464665 1_554
Ni24 Si1 2.474994 1_555
Ni24 Si11 2.474994 1_554
Ni24 Ni27 2.555285 1_554
Ni24 Ni7 2.555285 1_555
Ni25 Si6 2.324928 1_655
Ni25 Si17 2.387214 1_555
Ni25 Si10 2.430395 1_545
Ni25 Si19 2.517874 1_545
Ni25 Ni4 2.545939 1_545
Ni25 Sc7 2.674811 1_545
Ni25 Sc9 2.676074 1_655
Ni25 Ni33 2.720149 1_555
Ni25 Sc5 2.821808 1_555
Ni25 Sc0 2.865852 1_555
Ni25 Ni31 2.885274 1_645
Ni26 Si18 2.292747 1_655
Ni26 Si6 2.520635 1_655
Ni26 Si2 2.520645 1_555
Ni26 Si13 2.552394 1_655
Ni26 Sc10 2.662609 1_655
Ni26 Sc8 2.662620 1_555
Ni26 Ni32 2.709997 1_655
Ni26 Sc0 2.758646 1_555
Ni26 Ni34 2.805809 1_555
Ni27 Si3 2.362753 1_556
Ni27 Si5 2.378380 1_555
Ni27 Si11 2.381660 1_555
Ni27 Si7 2.450038 1_545
Ni27 Si2 2.606618 1_556
Ni27 Sc8 2.635089 1_556
Ni27 Ni9 2.714270 1_555
Ni27 Ni34 2.834825 1_556
Ni27 Sc2 2.978971 1_556
Ni27 Sc3 2.979602 1_545
Ni28 Si2 2.324919 1_555
Ni28 Si9 2.387221 1_555
Ni28 Si10 2.430401 1_545
Ni28 Si14 2.517861 1_544
Ni28 Sc4 2.674806 1_544
Ni28 Sc2 2.676068 1_555
Ni28 Ni29 2.720149 1_555
Ni28 Sc5 2.821819 1_555
Ni28 Sc0 2.865852 1_555
Ni29 Si12 2.324921 1_555
Ni29 Si9 2.387214 1_555
Ni29 Si16 2.430395 1_555
Ni29 Si8 2.517864 1_555
Ni29 Ni5 2.545939 1_555
Ni29 Sc4 2.674811 1_555
Ni29 Sc2 2.676074 1_555
Ni29 Sc5 2.821808 1_555
Ni29 Sc0 2.865852 1_555
Ni30 Si3 2.362753 1_556
Ni30 Si16 2.378380 1_555
Ni30 Si11 2.381660 1_555
Ni30 Si17 2.450038 1_555
Ni30 Ni33 2.545930 1_555
Ni30 Si15 2.606628 1_556
Ni30 Sc8 2.635079 1_556
Ni30 Ni9 2.714270 1_555
Ni30 Sc7 2.978971 1_556
Ni30 Sc5 2.979602 1_555
Ni31 Si19 2.324928 1_455
Ni31 Si4 2.387214 1_555
Ni31 Si5 2.430395 1_565
Ni31 Si6 2.517874 1_565
Ni31 Ni8 2.650911 1_565
Ni31 Sc9 2.674811 1_565
Ni31 Sc7 2.676074 1_455
Ni31 Sc3 2.821808 1_555
Ni31 Sc1 2.865852 1_555
Ni32 Si18 2.292747 1_555
Ni32 Si8 2.520646 1_555
Ni32 Si15 2.520646 1_455
Ni32 Ni6 2.541610 1_555
Ni32 Si13 2.552394 1_555
Ni32 Sc10 2.662609 1_555
Ni32 Sc8 2.662610 1_455
Ni32 Sc1 2.758646 1_555
Ni33 Si20 2.324928 1_655
Ni33 Si17 2.387208 1_555
Ni33 Si16 2.430394 1_555
Ni33 Si15 2.517853 1_556
Ni33 Sc7 2.674806 1_556
Ni33 Sc9 2.676076 1_655
Ni33 Sc5 2.821809 1_555
Ni33 Sc0 2.865863 1_555
Ni34 Si3 2.350804 1_555
Ni34 Si2 2.389730 1_555
Ni34 Si12 2.389739 1_555
Ni34 Si18 2.543989 1_655
Ni34 Sc11 2.771499 1_555
Ni34 Sc8 2.771507 1_555
Ni34 Ni35 2.805809 1_555
Ni34 Ni7 2.834825 1_555
Ni34 Sc0 2.891964 1_555
Ni34 Sc2 3.001228 1_555
Ni35 Si18 2.292747 1_655
Ni35 Si20 2.520646 1_655
Ni35 Si12 2.520646 1_555
Ni35 Si13 2.552394 1_666
Ni35 Sc11 2.662609 1_555
Ni35 Sc6 2.662610 1_655
Ni35 Sc0 2.758646 1_555
