# generated using pymatgen
data_RbAl3(P3O10)2
_symmetry_space_group_name_H-M   'P 1'
_cell_length_a   8.24588640
_cell_length_b   8.24588640
_cell_length_c   12.08941300
_cell_angle_alpha   90.00000000
_cell_angle_beta   90.00000000
_cell_angle_gamma   105.10720819
_symmetry_Int_Tables_number   1
_chemical_formula_structural   RbAl3(P3O10)2
_chemical_formula_sum   'Rb2 Al6 P12 O40'
_cell_volume   793.60634303
_cell_formula_units_Z   2
loop_
 _symmetry_equiv_pos_site_id
 _symmetry_equiv_pos_as_xyz
  1  'x, y, z'
loop_
 _atom_site_type_symbol
 _atom_site_label
 _atom_site_symmetry_multiplicity
 _atom_site_fract_x
 _atom_site_fract_y
 _atom_site_fract_z
 _atom_site_occupancy
  Rb  Rb0  1  0.52200200  0.52200200  0.50000000  1
  Rb  Rb1  1  0.47799800  0.47799800  0.00000000  1
  Al  Al0  1  0.75357200  0.24642800  0.75000000  1
  Al  Al1  1  0.24642800  0.75357200  0.25000000  1
  Al  Al2  1  0.29217600  0.70782400  0.75000000  1
  Al  Al3  1  0.86795400  0.86795400  0.00000000  1
  Al  Al4  1  0.70782400  0.29217600  0.25000000  1
  Al  Al5  1  0.13204600  0.13204600  0.50000000  1
  P  P0  1  0.25736300  0.84705900  0.98852700  1
  P  P1  1  0.15294100  0.74263700  0.51147300  1
  P  P2  1  0.74263700  0.15294100  0.48852700  1
  P  P3  1  0.09388600  0.36622700  0.18253000  1
  P  P4  1  0.90611400  0.63377300  0.68253000  1
  P  P5  1  0.30480100  0.16831600  0.27709500  1
  P  P6  1  0.36622700  0.09388600  0.81747000  1
  P  P7  1  0.69519900  0.83168400  0.77709500  1
  P  P8  1  0.83168400  0.69519900  0.22290500  1
  P  P9  1  0.84705900  0.25736300  0.01147300  1
  P  P10  1  0.63377300  0.90611400  0.31747000  1
  P  P11  1  0.16831600  0.30480100  0.72290500  1
  O  O0  1  0.23613000  0.25469200  0.61173800  1
  O  O1  1  0.03547300  0.36372200  0.05504300  1
  O  O2  1  0.36372200  0.03547300  0.94495700  1
  O  O3  1  0.63627800  0.96452700  0.44495700  1
  O  O4  1  0.01899600  0.72749300  0.21576000  1
  O  O5  1  0.96452700  0.63627800  0.55504300  1
  O  O6  1  0.47475900  0.76930500  0.29773100  1
  O  O7  1  0.14403000  0.92587800  0.51645300  1
  O  O8  1  0.76387000  0.74530800  0.11173800  1
  O  O9  1  0.20950400  0.17675500  0.81576400  1
  O  O10  1  0.23069500  0.52524100  0.20226900  1
  O  O11  1  0.68093900  0.17423300  0.60334800  1
  O  O12  1  0.25469200  0.23613000  0.38826200  1
  O  O13  1  0.85597000  0.07412200  0.01645300  1
  O  O14  1  0.98100400  0.27250700  0.71576100  1
  O  O15  1  0.29810400  0.72223800  0.90748000  1
  O  O16  1  0.70189600  0.27776200  0.40748000  1
  O  O17  1  0.94441900  0.32742400  0.25766900  1
  O  O18  1  0.26853500  0.47571400  0.76020100  1
  O  O19  1  0.17675500  0.20950400  0.18423600  1
  O  O20  1  0.79049600  0.82324500  0.31576400  1
  O  O21  1  0.52524100  0.23069500  0.79773100  1
  O  O22  1  0.47571400  0.26853500  0.23979900  1
  O  O23  1  0.07412200  0.85597000  0.98354700  1
  O  O24  1  0.72749300  0.01899600  0.78423900  1
  O  O25  1  0.72223800  0.29810400  0.09252000  1
  O  O26  1  0.67257600  0.05558100  0.24233100  1
  O  O27  1  0.73146500  0.52428600  0.26020100  1
  O  O28  1  0.82576700  0.31906100  0.89665200  1
  O  O29  1  0.27250700  0.98100400  0.28424000  1
  O  O30  1  0.31906100  0.82576700  0.10334800  1
  O  O31  1  0.82324500  0.79049600  0.68423600  1
  O  O32  1  0.27776200  0.70189600  0.59252000  1
  O  O33  1  0.92587800  0.14403000  0.48354700  1
  O  O34  1  0.52428600  0.73146500  0.73979900  1
  O  O35  1  0.74530800  0.76387000  0.88826200  1
  O  O36  1  0.76930500  0.47475900  0.70226900  1
  O  O37  1  0.17423300  0.68093900  0.39665200  1
  O  O38  1  0.05558100  0.67257600  0.75766900  1
  O  O39  1  0.32742400  0.94441900  0.74233100  1
loop_
_geom_bond_atom_site_label_1
_geom_bond_atom_site_label_2
_geom_bond_distance
_geom_bond_site_symmetry_2
Al0 O24 1.877341 1_555
Al0 O14 1.877341 1_555
Al0 O11 1.915870 1_555
Al0 O28 1.915870 1_555
Al0 O21 1.940976 1_555
Al0 O36 1.940976 1_555
Al1 O4 1.877344 1_555
Al1 O29 1.877344 1_555
Al1 O37 1.915870 1_555
Al1 O30 1.915870 1_555
Al1 O10 1.940976 1_555
Al1 O6 1.940976 1_555
Al2 O34 1.876684 1_555
Al2 O18 1.876684 1_555
Al2 O38 1.898329 1_555
Al2 O39 1.898329 1_555
Al2 O32 1.907380 1_555
Al2 O15 1.907380 1_555
Al3 O13 1.739835 1_565
Al3 O23 1.739835 1_654
Al3 O8 1.769674 1_555
Al3 O35 1.769674 1_554
Al4 O27 1.876684 1_555
Al4 O22 1.876684 1_555
Al4 O17 1.898329 1_555
Al4 O26 1.898329 1_555
Al4 O25 1.907380 1_555
Al4 O16 1.907380 1_555
Al5 O7 1.739835 1_545
Al5 O33 1.739835 1_455
Al5 O12 1.769674 1_555
Al5 O0 1.769674 1_555
O0 P11 1.552430 1_555
O0 Rb0 3.087338 1_555
O1 P3 1.613280 1_555
O1 P9 1.658365 1_455
O2 P6 1.613280 1_555
O2 P0 1.658365 1_545
O3 P10 1.613280 1_555
O3 P2 1.658365 1_565
O4 P8 1.499875 1_455
O5 P4 1.613280 1_555
O5 P1 1.658365 1_655
O6 P10 1.509246 1_555
O6 Rb0 3.271677 1_555
O7 P1 1.532961 1_555
O8 P8 1.552430 1_555
O8 Rb1 3.087338 1_555
O9 P6 1.611757 1_555
O9 P11 1.636261 1_555
O10 P3 1.509246 1_555
O10 Rb1 3.271677 1_555
O11 P2 1.504357 1_555
O12 P5 1.552430 1_555
O12 Rb0 3.087338 1_555
O13 P9 1.532961 1_555
O14 P11 1.499875 1_655
O15 P0 1.520691 1_555
O15 Rb1 3.010787 1_556
O16 P2 1.520691 1_555
O16 Rb0 3.010787 1_555
O17 P3 1.497001 1_655
O18 P11 1.505109 1_555
O18 Rb1 3.372094 1_556
O19 P3 1.611757 1_555
O19 P5 1.636261 1_555
O20 P10 1.611757 1_555
O20 P8 1.636261 1_555
O21 P6 1.509246 1_555
O21 Rb1 3.271677 1_556
O22 P5 1.505109 1_555
O22 Rb1 3.372094 1_555
O23 P0 1.532961 1_555
O24 P7 1.499875 1_545
O25 P9 1.520691 1_555
O25 Rb1 3.010787 1_555
O26 P10 1.497001 1_545
O27 P8 1.505109 1_555
O27 Rb0 3.372094 1_555
O28 P9 1.504357 1_556
O29 P5 1.499875 1_565
O30 P0 1.504357 1_554
O31 P4 1.611757 1_555
O31 P7 1.636261 1_555
O32 P1 1.520691 1_555
O32 Rb0 3.010787 1_555
O33 P2 1.532961 1_555
O34 P7 1.505109 1_555
O34 Rb0 3.372094 1_555
O35 P7 1.552430 1_555
O35 Rb1 3.087338 1_556
O36 P4 1.509246 1_555
O36 Rb0 3.271677 1_555
O37 P1 1.504357 1_555
O38 P4 1.497001 1_455
O39 P6 1.497001 1_565
