# generated using pymatgen
data_Fe2Mo3O8
_symmetry_space_group_name_H-M   'P 1'
_cell_length_a   6.31316675
_cell_length_b   6.31316675
_cell_length_c   9.42398800
_cell_angle_alpha   90.00000000
_cell_angle_beta   90.00000000
_cell_angle_gamma   120.00000786
_symmetry_Int_Tables_number   1
_chemical_formula_structural   Fe2Mo3O8
_chemical_formula_sum   'Fe4 Mo6 O16'
_cell_volume   325.28185858
_cell_formula_units_Z   2
loop_
 _symmetry_equiv_pos_site_id
 _symmetry_equiv_pos_as_xyz
  1  'x, y, z'
loop_
 _atom_site_type_symbol
 _atom_site_label
 _atom_site_symmetry_multiplicity
 _atom_site_fract_x
 _atom_site_fract_y
 _atom_site_fract_z
 _atom_site_occupancy
  Fe  Fe0  1  0.33333300  0.66666700  0.91732700  1
  Fe  Fe1  1  0.66666700  0.33333300  0.41732700  1
  Fe  Fe2  1  0.33333300  0.66666700  0.54088100  1
  Fe  Fe3  1  0.66666700  0.33333300  0.04088100  1
  Mo  Mo0  1  0.16471100  0.32942200  0.24591400  1
  Mo  Mo1  1  0.83528900  0.16471100  0.74591400  1
  Mo  Mo2  1  0.32942200  0.16471100  0.74591400  1
  Mo  Mo3  1  0.67057800  0.83528900  0.24591400  1
  Mo  Mo4  1  0.16471100  0.83528900  0.24591400  1
  Mo  Mo5  1  0.83528900  0.67057800  0.74591400  1
  O  O0  1  0.82484800  0.64969600  0.14277500  1
  O  O1  1  0.17515200  0.82484800  0.64277500  1
  O  O2  1  0.64969600  0.82484800  0.64277500  1
  O  O3  1  0.35030400  0.17515200  0.14277500  1
  O  O4  1  0.82484800  0.17515200  0.14277500  1
  O  O5  1  0.17515200  0.35030400  0.64277500  1
  O  O6  1  0.51192800  0.02385700  0.88438900  1
  O  O7  1  0.48807200  0.51192800  0.38438900  1
  O  O8  1  0.02385700  0.51192800  0.38438900  1
  O  O9  1  0.97614300  0.48807200  0.88438900  1
  O  O10  1  0.00000000  0.00000000  0.35292300  1
  O  O11  1  0.00000000  0.00000000  0.85292300  1
  O  O12  1  0.33333300  0.66666700  0.12203400  1
  O  O13  1  0.51192800  0.48807200  0.88438900  1
  O  O14  1  0.48807200  0.97614300  0.38438900  1
  O  O15  1  0.66666700  0.33333300  0.62203400  1
loop_
_geom_bond_atom_site_label_1
_geom_bond_atom_site_label_2
_geom_bond_distance
_geom_bond_site_symmetry_2
Fe0 O12 1.929156 1_556
Fe0 O6 1.977403 1_565
Fe0 O9 1.977403 1_455
Fe0 O13 1.977403 1_555
Fe1 O15 1.929156 1_555
Fe1 O8 1.977403 1_655
Fe1 O14 1.977403 1_545
Fe1 O7 1.977403 1_555
Fe2 O1 1.978338 1_555
Fe2 O2 1.978342 1_555
Fe2 O5 1.978342 1_555
Fe2 O8 2.244526 1_555
Fe2 O14 2.244526 1_555
Fe2 O7 2.244534 1_555
Fe3 O4 1.978338 1_555
Fe3 O0 1.978342 1_555
Fe3 O3 1.978342 1_555
Fe3 O9 2.244526 1_554
Fe3 O6 2.244526 1_554
Fe3 O13 2.244534 1_554
Mo0 O10 2.064177 1_555
Mo0 O4 2.099347 1_455
Mo0 O3 2.099348 1_555
Mo0 O12 2.182355 1_555
Mo0 O8 2.201327 1_555
Mo0 O7 2.201331 1_555
Mo1 O11 2.064177 1_655
Mo1 O5 2.099347 1_655
Mo1 O2 2.099347 1_545
Mo1 O15 2.182350 1_555
Mo1 O9 2.201332 1_555
Mo1 O6 2.201332 1_555
Mo2 O11 2.064177 1_555
Mo2 O1 2.099347 1_545
Mo2 O5 2.099348 1_555
Mo2 O15 2.182355 1_555
Mo2 O6 2.201327 1_555
Mo2 O13 2.201331 1_555
Mo3 O10 2.064177 1_665
Mo3 O4 2.099347 1_565
Mo3 O0 2.099348 1_555
Mo3 O12 2.182355 1_555
Mo3 O14 2.201327 1_555
Mo3 O7 2.201331 1_555
Mo4 O10 2.064177 1_565
Mo4 O3 2.099347 1_565
Mo4 O0 2.099347 1_455
Mo4 O12 2.182350 1_555
Mo4 O14 2.201332 1_555
Mo4 O8 2.201332 1_555
Mo5 O11 2.064177 1_665
Mo5 O1 2.099347 1_655
Mo5 O2 2.099348 1_555
Mo5 O15 2.182355 1_555
Mo5 O9 2.201327 1_555
Mo5 O13 2.201331 1_555
