# generated using pymatgen
data_Rb2Pd(IBr2)2
_symmetry_space_group_name_H-M   'P 1'
_cell_length_a   7.53158835
_cell_length_b   7.53158835
_cell_length_c   7.53158835
_cell_angle_alpha   111.00826353
_cell_angle_beta   111.00826353
_cell_angle_gamma   106.43902628
_symmetry_Int_Tables_number   1
_chemical_formula_structural   Rb2Pd(IBr2)2
_chemical_formula_sum   'Rb2 Pd1 I2 Br4'
_cell_volume   328.19410519
_cell_formula_units_Z   1
loop_
 _symmetry_equiv_pos_site_id
 _symmetry_equiv_pos_as_xyz
  1  'x, y, z'
loop_
 _atom_site_type_symbol
 _atom_site_label
 _atom_site_symmetry_multiplicity
 _atom_site_fract_x
 _atom_site_fract_y
 _atom_site_fract_z
 _atom_site_occupancy
  Rb  Rb0  1  0.25000000  0.75000000  0.50000000  1
  Rb  Rb1  1  0.75000000  0.25000000  0.50000000  1
  Pd  Pd0  1  0.00000000  0.00000000  0.00000000  1
  I  I0  1  0.33979600  0.33979600  0.00000000  1
  I  I1  1  0.66020400  0.66020400  0.00000000  1
  Br  Br0  1  0.79428700  0.20571300  0.00000000  1
  Br  Br1  1  0.79428700  0.79428700  0.58857300  1
  Br  Br2  1  0.20571300  0.79428700  0.00000000  1
  Br  Br3  1  0.20571300  0.20571300  0.41142700  1
loop_
_geom_bond_atom_site_label_1
_geom_bond_atom_site_label_2
_geom_bond_distance
_geom_bond_site_symmetry_2
I0 I1 2.889789 1_555
I0 Pd0 3.064651 1_555
I1 Pd0 3.064651 1_665
Br0 Pd0 2.481851 1_655
Br0 Rb1 3.803510 1_554
Br0 Rb1 3.803510 1_555
Br0 Rb0 3.803510 1_544
Br0 Rb0 3.803510 1_655
Br1 Pd0 2.481857 1_666
Br1 Rb0 3.803507 1_655
Br1 Rb1 3.803507 1_565
Br1 Rb0 3.803512 1_555
Br1 Rb1 3.803512 1_555
Br2 Pd0 2.481851 1_565
Br2 Rb0 3.803510 1_554
Br2 Rb0 3.803510 1_555
Br2 Rb1 3.803510 1_565
Br2 Rb1 3.803510 1_454
Br3 Pd0 2.481857 1_555
Br3 Rb1 3.803507 1_455
Br3 Rb0 3.803507 1_545
Br3 Rb0 3.803512 1_555
Br3 Rb1 3.803512 1_555
