# generated using pymatgen
data_K2CuS(ClO2)2
_symmetry_space_group_name_H-M   'P 1'
_cell_length_a   6.21931600
_cell_length_b   7.85065400
_cell_length_c   16.53370900
_cell_angle_alpha   90.00000000
_cell_angle_beta   90.00000000
_cell_angle_gamma   90.00000000
_symmetry_Int_Tables_number   1
_chemical_formula_structural   K2CuS(ClO2)2
_chemical_formula_sum   'K8 Cu4 S4 Cl8 O16'
_cell_volume   807.26988299
_cell_formula_units_Z   4
loop_
 _symmetry_equiv_pos_site_id
 _symmetry_equiv_pos_as_xyz
  1  'x, y, z'
loop_
 _atom_site_type_symbol
 _atom_site_label
 _atom_site_symmetry_multiplicity
 _atom_site_fract_x
 _atom_site_fract_y
 _atom_site_fract_z
 _atom_site_occupancy
  K  K0  1  0.25000000  0.88008200  0.40623800  1
  K  K1  1  0.25000000  0.38273600  0.71694200  1
  K  K2  1  0.75000000  0.11726400  0.21694200  1
  K  K3  1  0.75000000  0.11991800  0.59376200  1
  K  K4  1  0.75000000  0.61991800  0.90623800  1
  K  K5  1  0.25000000  0.88273600  0.78305800  1
  K  K6  1  0.75000000  0.61726400  0.28305800  1
  K  K7  1  0.25000000  0.38008200  0.09376200  1
  Cu  Cu0  1  0.25000000  0.87897900  0.03766000  1
  Cu  Cu1  1  0.75000000  0.12102100  0.96234000  1
  Cu  Cu2  1  0.25000000  0.37897900  0.46234000  1
  Cu  Cu3  1  0.75000000  0.62102100  0.53766000  1
  S  S0  1  0.25000000  0.87003700  0.19733600  1
  S  S1  1  0.75000000  0.12996300  0.80266400  1
  S  S2  1  0.75000000  0.62996300  0.69733600  1
  S  S3  1  0.25000000  0.37003700  0.30266400  1
  Cl  Cl0  1  0.25000000  0.66201200  0.94768600  1
  Cl  Cl1  1  0.25000000  0.09884800  0.95170500  1
  Cl  Cl2  1  0.75000000  0.90115200  0.04829500  1
  Cl  Cl3  1  0.25000000  0.59884800  0.54829500  1
  Cl  Cl4  1  0.75000000  0.33798800  0.05231400  1
  Cl  Cl5  1  0.75000000  0.40115200  0.45170500  1
  Cl  Cl6  1  0.75000000  0.83798800  0.44768600  1
  Cl  Cl7  1  0.25000000  0.16201200  0.55231400  1
  O  O0  1  0.75000000  0.27599100  0.86313600  1
  O  O1  1  0.25000000  0.22400900  0.36313600  1
  O  O2  1  0.55471900  0.63288000  0.74787800  1
  O  O3  1  0.75000000  0.77599100  0.63686400  1
  O  O4  1  0.94528100  0.63288000  0.74787800  1
  O  O5  1  0.25000000  0.52469400  0.35835600  1
  O  O6  1  0.44528100  0.36712000  0.25212200  1
  O  O7  1  0.75000000  0.97530600  0.85835600  1
  O  O8  1  0.75000000  0.47530600  0.64164400  1
  O  O9  1  0.05471900  0.36712000  0.25212200  1
  O  O10  1  0.94528100  0.13288000  0.75212200  1
  O  O11  1  0.25000000  0.72400900  0.13686400  1
  O  O12  1  0.44528100  0.86712000  0.24787800  1
  O  O13  1  0.05471900  0.86712000  0.24787800  1
  O  O14  1  0.55471900  0.13288000  0.75212200  1
  O  O15  1  0.25000000  0.02469400  0.14164400  1
loop_
_geom_bond_atom_site_label_1
_geom_bond_atom_site_label_2
_geom_bond_distance
_geom_bond_site_symmetry_2
K0 O1 2.792513 1_565
K0 O12 2.888041 1_555
K0 O13 2.888041 1_555
K0 O5 2.900171 1_555
K1 O2 2.776630 1_555
K1 O4 2.776630 1_455
K1 O14 2.788818 1_555
K1 O10 2.788818 1_455
K2 O13 2.776630 1_645
K2 O12 2.776630 1_545
K2 O9 2.788818 1_655
K2 O6 2.788818 1_555
K3 O3 2.792513 1_545
K3 O10 2.888041 1_555
K3 O14 2.888041 1_555
K3 O8 2.900171 1_555
K4 O0 2.792513 1_555
K4 O4 2.888041 1_555
K4 O2 2.888041 1_555
K4 O7 2.900171 1_555
K5 O14 2.776630 1_565
K5 O10 2.776630 1_465
K5 O2 2.788818 1_555
K5 O4 2.788818 1_455
K6 O9 2.776630 1_655
K6 O6 2.776630 1_555
K6 O13 2.788818 1_655
K6 O12 2.788818 1_555
K7 O11 2.792513 1_555
K7 O6 2.888041 1_555
K7 O9 2.888041 1_555
K7 O15 2.900171 1_555
Cu0 O11 2.042166 1_555
Cu0 O15 2.065050 1_565
Cu1 O0 2.042166 1_555
Cu1 O7 2.065050 1_545
Cu2 O1 2.042166 1_555
Cu2 O5 2.065050 1_555
Cu3 O3 2.042166 1_555
Cu3 O8 2.065050 1_555
Cl0 Cu0 2.261484 1_556
Cl0 K4 3.201375 1_555
Cl0 K4 3.201375 1_455
Cl0 K5 3.226685 1_555
Cl0 K7 3.275963 1_556
Cl1 Cu0 2.235879 1_546
Cl1 K7 3.223542 1_556
Cl1 K5 3.263966 1_545
Cl2 Cu1 2.235879 1_564
Cl2 K4 3.223542 1_554
Cl2 K2 3.263966 1_565
Cl3 Cu2 2.235879 1_555
Cl3 K0 3.223542 1_555
Cl3 K1 3.263966 1_555
Cl4 Cu1 2.261484 1_554
Cl4 K7 3.201375 1_555
Cl4 K7 3.201375 1_655
Cl4 K2 3.226685 1_555
Cl4 K4 3.275963 1_554
Cl5 Cu3 2.235879 1_555
Cl5 K3 3.223542 1_555
Cl5 K6 3.263966 1_555
Cl6 Cu3 2.261484 1_555
Cl6 K0 3.201375 1_555
Cl6 K0 3.201375 1_655
Cl6 K6 3.226685 1_555
Cl6 K3 3.275963 1_565
Cl7 Cu2 2.261484 1_555
Cl7 K3 3.201375 1_455
Cl7 K3 3.201375 1_555
Cl7 K1 3.226685 1_555
Cl7 K0 3.275963 1_545
O0 S1 1.521158 1_555
O1 S3 1.521158 1_555
O2 S2 1.474407 1_555
O3 S2 1.521158 1_555
O4 S2 1.474407 1_555
O5 S3 1.523826 1_555
O6 S3 1.474407 1_555
O7 S1 1.523826 1_565
O8 S2 1.523826 1_555
O9 S3 1.474407 1_555
O10 S1 1.474407 1_555
O11 S0 1.521158 1_555
O12 S0 1.474407 1_555
O13 S0 1.474407 1_555
O14 S1 1.474407 1_555
O15 S0 1.523826 1_545
