# generated using pymatgen
data_CaV2CuO7
_symmetry_space_group_name_H-M   'P 1'
_cell_length_a   8.93043200
_cell_length_b   10.32397700
_cell_length_c   10.33693881
_cell_angle_alpha   88.11077587
_cell_angle_beta   90.00000000
_cell_angle_gamma   90.00000000
_symmetry_Int_Tables_number   1
_chemical_formula_structural   CaV2CuO7
_chemical_formula_sum   'Ca6 V12 Cu6 O42'
_cell_volume   952.52264609
_cell_formula_units_Z   6
loop_
 _symmetry_equiv_pos_site_id
 _symmetry_equiv_pos_as_xyz
  1  'x, y, z'
loop_
 _atom_site_type_symbol
 _atom_site_label
 _atom_site_symmetry_multiplicity
 _atom_site_fract_x
 _atom_site_fract_y
 _atom_site_fract_z
 _atom_site_occupancy
  Ca  Ca0  1  0.44450700  0.82270700  0.56848100  1
  Ca  Ca1  1  0.93557800  0.50000000  0.75000000  1
  Ca  Ca2  1  0.44450700  0.17729300  0.93151900  1
  Ca  Ca3  1  0.06442200  0.50000000  0.25000000  1
  Ca  Ca4  1  0.55549300  0.17729300  0.43151900  1
  Ca  Ca5  1  0.55549300  0.82270700  0.06848100  1
  V  V0  1  0.20287200  0.83526500  0.28812200  1
  V  V1  1  0.74703400  0.83732100  0.38236000  1
  V  V2  1  0.25296600  0.83732100  0.88236000  1
  V  V3  1  0.79712800  0.83526500  0.78812200  1
  V  V4  1  0.29651300  0.52544000  0.95879500  1
  V  V5  1  0.74703400  0.16267900  0.11764000  1
  V  V6  1  0.70348700  0.52544000  0.45879500  1
  V  V7  1  0.25296600  0.16267900  0.61764000  1
  V  V8  1  0.29651300  0.47456000  0.54120500  1
  V  V9  1  0.70348700  0.47456000  0.04120500  1
  V  V10  1  0.79712800  0.16473500  0.71187800  1
  V  V11  1  0.20287200  0.16473500  0.21187800  1
  Cu  Cu0  1  0.93498300  0.19347400  0.40996700  1
  Cu  Cu1  1  0.06501700  0.80652600  0.59003300  1
  Cu  Cu2  1  0.44272300  0.50000000  0.25000000  1
  Cu  Cu3  1  0.93498300  0.80652600  0.09003300  1
  Cu  Cu4  1  0.55727700  0.50000000  0.75000000  1
  Cu  Cu5  1  0.06501700  0.19347400  0.90996700  1
  O  O0  1  0.78328200  0.80720000  0.95606900  1
  O  O1  1  0.77315900  0.17133500  0.28544200  1
  O  O2  1  0.85238900  0.00000000  0.75000000  1
  O  O3  1  0.87643000  0.49044100  0.09949300  1
  O  O4  1  0.38059400  0.04806300  0.57628900  1
  O  O5  1  0.92708800  0.73127900  0.71705200  1
  O  O6  1  0.35634200  0.69339400  0.94010000  1
  O  O7  1  0.12357000  0.49044100  0.59949300  1
  O  O8  1  0.71535400  0.51648700  0.87605900  1
  O  O9  1  0.38059400  0.95193700  0.92371100  1
  O  O10  1  0.71535400  0.48351300  0.62394100  1
  O  O11  1  0.42000800  0.42358400  0.87793800  1
  O  O12  1  0.91015800  0.14962800  0.03316800  1
  O  O13  1  0.07291200  0.73127900  0.21705200  1
  O  O14  1  0.64365800  0.30660600  0.05990000  1
  O  O15  1  0.35634200  0.30660600  0.55990000  1
  O  O16  1  0.92708800  0.26872100  0.78294800  1
  O  O17  1  0.61940600  0.95193700  0.42371100  1
  O  O18  1  0.21671800  0.80720000  0.45606900  1
  O  O19  1  0.57999200  0.57641600  0.12206200  1
  O  O20  1  0.37533800  0.19066600  0.27009200  1
  O  O21  1  0.28464600  0.48351300  0.12394100  1
  O  O22  1  0.08984200  0.14962800  0.53316800  1
  O  O23  1  0.28464600  0.51648700  0.37605900  1
  O  O24  1  0.87643000  0.50955900  0.40050700  1
  O  O25  1  0.57999200  0.42358400  0.37793800  1
  O  O26  1  0.12357000  0.50955900  0.90050700  1
  O  O27  1  0.62466200  0.19066600  0.77009200  1
  O  O28  1  0.62466200  0.80933400  0.72990800  1
  O  O29  1  0.08984200  0.85037200  0.96683200  1
  O  O30  1  0.07291200  0.26872100  0.28294800  1
  O  O31  1  0.78328200  0.19280000  0.54393100  1
  O  O32  1  0.14761100  0.00000000  0.25000000  1
  O  O33  1  0.22684100  0.17133500  0.78544200  1
  O  O34  1  0.61940600  0.04806300  0.07628900  1
  O  O35  1  0.91015800  0.85037200  0.46683200  1
  O  O36  1  0.21671800  0.19280000  0.04393100  1
  O  O37  1  0.77315900  0.82866500  0.21455800  1
  O  O38  1  0.42000800  0.57641600  0.62206200  1
  O  O39  1  0.64365800  0.69339400  0.44010000  1
  O  O40  1  0.22684100  0.82866500  0.71455800  1
  O  O41  1  0.37533800  0.80933400  0.22990800  1
loop_
_geom_bond_atom_site_label_1
_geom_bond_atom_site_label_2
_geom_bond_distance
_geom_bond_site_symmetry_2
Ca0 O28 2.318779 1_555
Ca0 O18 2.350813 1_555
Ca0 O4 2.399501 1_565
Ca0 O40 2.463439 1_555
Ca0 O17 2.515435 1_555
Ca0 O38 2.593668 1_555
Ca0 O39 2.612142 1_555
Ca1 O26 2.293219 1_655
Ca1 O7 2.293219 1_655
Ca1 O8 2.368431 1_555
Ca1 O10 2.368431 1_555
Ca1 O5 2.401943 1_555
Ca1 O16 2.401943 1_555
Ca2 O27 2.318779 1_555
Ca2 O36 2.350813 1_556
Ca2 O9 2.399501 1_545
Ca2 O33 2.463439 1_555
Ca2 O34 2.515435 1_556
Ca2 O11 2.593668 1_555
Ca2 O14 2.612142 1_556
Ca3 O24 2.293219 1_455
Ca3 O3 2.293219 1_455
Ca3 O23 2.368431 1_555
Ca3 O21 2.368431 1_555
Ca3 O30 2.401943 1_555
Ca3 O13 2.401943 1_555
Ca4 O20 2.318779 1_555
Ca4 O31 2.350813 1_555
Ca4 O17 2.399501 1_545
Ca4 O1 2.463439 1_555
Ca4 O4 2.515435 1_555
Ca4 O25 2.593668 1_555
Ca4 O15 2.612142 1_555
Ca5 O41 2.318779 1_555
Ca5 O0 2.350813 1_554
Ca5 O34 2.399501 1_565
Ca5 O37 2.463439 1_555
Ca5 O9 2.515435 1_554
Ca5 O19 2.593668 1_555
Ca5 O6 2.612142 1_554
Cu0 O22 1.923883 1_655
Cu0 O31 1.937107 1_555
Cu0 O30 1.943560 1_655
Cu0 O1 1.953721 1_555
Cu1 O35 1.923883 1_455
Cu1 O18 1.937107 1_555
Cu1 O5 1.943560 1_455
Cu1 O40 1.953721 1_555
Cu2 O23 1.932474 1_555
Cu2 O21 1.932474 1_555
Cu2 O19 1.950726 1_555
Cu2 O25 1.950726 1_555
Cu3 O29 1.923883 1_654
Cu3 O0 1.937107 1_554
Cu3 O13 1.943560 1_655
Cu3 O37 1.953721 1_555
Cu4 O8 1.932474 1_555
Cu4 O10 1.932474 1_555
Cu4 O38 1.950726 1_555
Cu4 O11 1.950726 1_555
Cu5 O12 1.923883 1_456
Cu5 O36 1.937107 1_556
Cu5 O16 1.943560 1_455
Cu5 O33 1.953721 1_555
O0 V3 1.754985 1_555
O1 V5 1.755373 1_555
O2 V10 1.801970 1_555
O2 V3 1.801970 1_545
O3 V9 1.667863 1_555
O4 V7 1.707431 1_555
O5 V3 1.758182 1_555
O6 V4 1.818604 1_555
O6 V2 1.832468 1_555
O7 V8 1.667863 1_555
O8 V9 1.750451 1_556
O9 V2 1.707431 1_555
O10 V6 1.750451 1_555
O11 V4 1.754600 1_555
O12 V5 1.706028 1_555
O13 V0 1.758182 1_555
O14 V9 1.818604 1_555
O14 V5 1.832468 1_555
O15 V8 1.818604 1_555
O15 V7 1.832468 1_555
O16 V10 1.758182 1_555
O17 V1 1.707431 1_555
O18 V0 1.754985 1_555
O19 V9 1.754600 1_555
O20 V11 1.678274 1_555
O21 V4 1.750451 1_554
O22 V7 1.706028 1_555
O23 V8 1.750451 1_555
O24 V6 1.667863 1_555
O25 V6 1.754600 1_555
O26 V4 1.667863 1_555
O27 V10 1.678274 1_555
O28 V3 1.678274 1_555
O29 V2 1.706028 1_555
O30 V11 1.758182 1_555
O31 V10 1.754985 1_555
O32 V11 1.801970 1_555
O32 V0 1.801970 1_545
O33 V7 1.755373 1_555
O34 V5 1.707431 1_555
O35 V1 1.706028 1_555
O36 V11 1.754985 1_555
O37 V1 1.755373 1_555
O38 V8 1.754600 1_555
O39 V6 1.818604 1_555
O39 V1 1.832468 1_555
O40 V2 1.755373 1_555
O41 V0 1.678274 1_555
