# generated using pymatgen
data_Cs2ReCl6
_symmetry_space_group_name_H-M   'P 1'
_cell_length_a   7.31531155
_cell_length_b   7.31509485
_cell_length_c   7.31516747
_cell_angle_alpha   60.00163795
_cell_angle_beta   59.99867560
_cell_angle_gamma   59.99969346
_symmetry_Int_Tables_number   1
_chemical_formula_structural   Cs2ReCl6
_chemical_formula_sum   'Cs2 Re1 Cl6'
_cell_volume   276.79745130
_cell_formula_units_Z   1
loop_
 _symmetry_equiv_pos_site_id
 _symmetry_equiv_pos_as_xyz
  1  'x, y, z'
loop_
 _atom_site_type_symbol
 _atom_site_label
 _atom_site_symmetry_multiplicity
 _atom_site_fract_x
 _atom_site_fract_y
 _atom_site_fract_z
 _atom_site_occupancy
  Cs  Cs0  1  0.25000000  0.25000000  0.25000000  1
  Cs  Cs1  1  0.75000000  0.75000000  0.75000000  1
  Re  Re0  1  0.00000000  -0.00000000  -0.00000000  1
  Cl  Cl0  1  0.22969626  0.22969626  0.77030374  1
  Cl  Cl1  1  0.77031505  0.22968495  0.77031505  1
  Cl  Cl2  1  0.77030374  0.77030374  0.22969626  1
  Cl  Cl3  1  0.22970315  0.77029685  0.77029685  1
  Cl  Cl4  1  0.77029685  0.22970315  0.22970315  1
  Cl  Cl5  1  0.22968495  0.77031505  0.22968495  1
loop_
_geom_bond_atom_site_label_1
_geom_bond_atom_site_label_2
_geom_bond_distance
_geom_bond_site_symmetry_2
Cl0 Re0 2.376279 1_556
Cl0 Cs0 3.663610 1_555
Cl0 Cs0 3.663610 1_556
Cl0 Cs1 3.663611 1_545
Cl0 Cs1 3.663611 1_455
Cl1 Re0 2.376210 1_656
Cl1 Cs0 3.663580 1_655
Cl1 Cs0 3.663580 1_556
Cl1 Cs1 3.663581 1_545
Cl1 Cs1 3.663581 1_555
Cl2 Re0 2.376279 1_665
Cl2 Cs1 3.663610 1_555
Cl2 Cs1 3.663610 1_554
Cl2 Cs0 3.663611 1_565
Cl2 Cs0 3.663611 1_655
Cl3 Re0 2.376257 1_566
Cl3 Cs1 3.663677 1_455
Cl3 Cs1 3.663677 1_555
Cl3 Cs0 3.663678 1_565
Cl3 Cs0 3.663678 1_556
Cl4 Re0 2.376257 1_655
Cl4 Cs0 3.663677 1_655
Cl4 Cs0 3.663677 1_555
Cl4 Cs1 3.663678 1_545
Cl4 Cs1 3.663678 1_554
Cl5 Re0 2.376210 1_565
Cl5 Cs1 3.663580 1_455
Cl5 Cs1 3.663580 1_554
Cl5 Cs0 3.663581 1_565
Cl5 Cs0 3.663581 1_555
