# generated using pymatgen
data_BaSn(GeO3)3
_symmetry_space_group_name_H-M   'P 1'
_cell_length_a   7.02224923
_cell_length_b   7.02224923
_cell_length_c   10.39429400
_cell_angle_alpha   90.00000000
_cell_angle_beta   90.00000000
_cell_angle_gamma   119.99999272
_symmetry_Int_Tables_number   1
_chemical_formula_structural   BaSn(GeO3)3
_chemical_formula_sum   'Ba2 Sn2 Ge6 O18'
_cell_volume   443.89283820
_cell_formula_units_Z   2
loop_
 _symmetry_equiv_pos_site_id
 _symmetry_equiv_pos_as_xyz
  1  'x, y, z'
loop_
 _atom_site_type_symbol
 _atom_site_label
 _atom_site_symmetry_multiplicity
 _atom_site_fract_x
 _atom_site_fract_y
 _atom_site_fract_z
 _atom_site_occupancy
  Ba  Ba0  1  0.66666700  0.33333300  0.00000000  1
  Ba  Ba1  1  0.66666700  0.33333300  0.50000000  1
  Sn  Sn0  1  0.33333300  0.66666700  0.00000000  1
  Sn  Sn1  1  0.33333300  0.66666700  0.50000000  1
  Ge  Ge0  1  0.07459800  0.29381600  0.25000000  1
  Ge  Ge1  1  0.21921800  0.92540200  0.25000000  1
  Ge  Ge2  1  0.70618400  0.78078200  0.25000000  1
  Ge  Ge3  1  0.70618400  0.92540200  0.75000000  1
  Ge  Ge4  1  0.21921800  0.29381600  0.75000000  1
  Ge  Ge5  1  0.07459800  0.78078200  0.75000000  1
  O  O0  1  0.26975000  0.20288500  0.25000000  1
  O  O1  1  0.93313500  0.73025000  0.25000000  1
  O  O2  1  0.79711500  0.06686500  0.25000000  1
  O  O3  1  0.79711500  0.73025000  0.75000000  1
  O  O4  1  0.93313500  0.20288500  0.75000000  1
  O  O5  1  0.26975000  0.06686500  0.75000000  1
  O  O6  1  0.07503800  0.43075300  0.10892400  1
  O  O7  1  0.35571500  0.92496200  0.39107600  1
  O  O8  1  0.56924700  0.64428500  0.39107600  1
  O  O9  1  0.56924700  0.64428500  0.10892400  1
  O  O10  1  0.35571500  0.92496200  0.10892400  1
  O  O11  1  0.56924700  0.92496200  0.89107600  1
  O  O12  1  0.35571500  0.43075300  0.89107600  1
  O  O13  1  0.07503800  0.64428500  0.89107600  1
  O  O14  1  0.35571500  0.43075300  0.60892400  1
  O  O15  1  0.07503800  0.64428500  0.60892400  1
  O  O16  1  0.07503800  0.43075300  0.39107600  1
  O  O17  1  0.56924700  0.92496200  0.60892400  1
loop_
_geom_bond_atom_site_label_1
_geom_bond_atom_site_label_2
_geom_bond_distance
_geom_bond_site_symmetry_2
Ba0 O6 2.830487 1_655
Ba0 O11 2.830487 1_544
Ba0 O13 2.830489 1_654
Ba0 O10 2.830489 1_545
Ba0 O12 2.830493 1_554
Ba0 O9 2.830493 1_555
Ba1 O16 2.830487 1_655
Ba1 O17 2.830487 1_545
Ba1 O15 2.830489 1_655
Ba1 O7 2.830489 1_545
Ba1 O14 2.830493 1_555
Ba1 O8 2.830493 1_555
Ge0 O16 1.752715 1_555
Ge0 O6 1.752715 1_555
Ge0 O0 1.777865 1_555
Ge0 O2 1.797593 1_455
Ge1 O10 1.752715 1_555
Ge1 O7 1.752715 1_555
Ge1 O1 1.777866 1_455
Ge1 O0 1.797593 1_565
Ge2 O8 1.752715 1_555
Ge2 O9 1.752715 1_555
Ge2 O2 1.777865 1_565
Ge2 O1 1.797593 1_555
Ge3 O11 1.752715 1_555
Ge3 O17 1.752715 1_555
Ge3 O3 1.777865 1_555
Ge3 O4 1.797593 1_565
Ge4 O12 1.752715 1_555
Ge4 O14 1.752715 1_555
Ge4 O4 1.777865 1_455
Ge4 O5 1.797593 1_555
Ge5 O15 1.752715 1_555
Ge5 O13 1.752715 1_555
Ge5 O5 1.777866 1_565
Ge5 O3 1.797593 1_455
O6 Sn0 2.076390 1_555
O7 Sn1 2.076388 1_555
O8 Sn1 2.076394 1_555
O9 Sn0 2.076394 1_555
O10 Sn0 2.076388 1_555
O11 Sn0 2.076390 1_556
O12 Sn0 2.076394 1_556
O13 Sn0 2.076388 1_556
O14 Sn1 2.076394 1_555
O15 Sn1 2.076388 1_555
O16 Sn1 2.076390 1_555
O17 Sn1 2.076390 1_555
