# generated using pymatgen
data_MnBiO3
_symmetry_space_group_name_H-M   'P 1'
_cell_length_a   5.48692300
_cell_length_b   10.50010000
_cell_length_c   11.04739496
_cell_angle_alpha   60.65049686
_cell_angle_beta   90.00000000
_cell_angle_gamma   90.00000000
_symmetry_Int_Tables_number   1
_chemical_formula_structural   MnBiO3
_chemical_formula_sum   'Mn8 Bi8 O24'
_cell_volume   554.78202976
_cell_formula_units_Z   8
loop_
 _symmetry_equiv_pos_site_id
 _symmetry_equiv_pos_as_xyz
  1  'x, y, z'
loop_
 _atom_site_type_symbol
 _atom_site_label
 _atom_site_symmetry_multiplicity
 _atom_site_fract_x
 _atom_site_fract_y
 _atom_site_fract_z
 _atom_site_occupancy
  Mn  Mn0  1  0.53140100  0.69777500  0.72037100  1
  Mn  Mn1  1  0.03140100  0.30222500  0.77962900  1
  Mn  Mn2  1  0.00000000  0.50000000  0.00000000  1
  Mn  Mn3  1  0.00000000  0.00000000  0.00000000  1
  Mn  Mn4  1  0.46859900  0.30222500  0.27962900  1
  Mn  Mn5  1  0.50000000  0.00000000  0.50000000  1
  Mn  Mn6  1  0.96859900  0.69777500  0.22037100  1
  Mn  Mn7  1  0.50000000  0.50000000  0.50000000  1
  Bi  Bi0  1  0.47856100  0.30041000  0.97550900  1
  Bi  Bi1  1  0.97856100  0.69959000  0.52449100  1
  Bi  Bi2  1  0.02143900  0.30041000  0.47550900  1
  Bi  Bi3  1  0.50062900  0.14983200  0.73522300  1
  Bi  Bi4  1  0.52143900  0.69959000  0.02449100  1
  Bi  Bi5  1  0.00062900  0.85016800  0.76477700  1
  Bi  Bi6  1  0.49937100  0.85016800  0.26477700  1
  Bi  Bi7  1  0.99937100  0.14983200  0.23522300  1
  O  O0  1  0.83399100  0.37787500  0.61509400  1
  O  O1  1  0.59540900  0.89173000  0.82597900  1
  O  O2  1  0.92150700  0.65246000  0.04677800  1
  O  O3  1  0.16563100  0.38040700  0.18329300  1
  O  O4  1  0.28254000  0.83822700  0.60481100  1
  O  O5  1  0.40459100  0.10827000  0.17402100  1
  O  O6  1  0.90459100  0.89173000  0.32597900  1
  O  O7  1  0.66600900  0.37787500  0.11509400  1
  O  O8  1  0.26376400  0.12990000  0.90710100  1
  O  O9  1  0.33436900  0.38040700  0.68329300  1
  O  O10  1  0.57849300  0.65246000  0.54677800  1
  O  O11  1  0.33399100  0.62212500  0.88490600  1
  O  O12  1  0.07849300  0.34754000  0.95322200  1
  O  O13  1  0.73623600  0.87010000  0.09289900  1
  O  O14  1  0.66563100  0.61959300  0.31670700  1
  O  O15  1  0.42150700  0.34754000  0.45322200  1
  O  O16  1  0.16600900  0.62212500  0.38490600  1
  O  O17  1  0.78254000  0.16177300  0.89518900  1
  O  O18  1  0.83436900  0.61959300  0.81670700  1
  O  O19  1  0.71746000  0.16177300  0.39518900  1
  O  O20  1  0.23623600  0.12990000  0.40710100  1
  O  O21  1  0.21746000  0.83822700  0.10481100  1
  O  O22  1  0.09540900  0.10827000  0.67402100  1
  O  O23  1  0.76376400  0.87010000  0.59289900  1
loop_
_geom_bond_atom_site_label_1
_geom_bond_atom_site_label_2
_geom_bond_distance
_geom_bond_site_symmetry_2
Mn0 O11 1.921677 1_555
Mn0 O18 1.927063 1_555
Mn0 O4 1.955420 1_555
Mn0 O23 2.094002 1_555
Mn0 O10 2.205769 1_555
Mn1 O0 1.921677 1_455
Mn1 O9 1.927063 1_555
Mn1 O17 1.955420 1_455
Mn1 O8 2.094002 1_555
Mn1 O12 2.205769 1_555
Mn2 O2 1.956069 1_455
Mn2 O12 1.956069 1_554
Mn2 O3 2.002617 1_555
Mn2 O18 2.002617 1_454
Mn2 O11 2.240782 1_554
Mn2 O7 2.240782 1_455
Mn3 O13 1.906831 1_445
Mn3 O8 1.906831 1_554
Mn3 O17 1.929178 1_454
Mn3 O21 1.929178 1_545
Mn4 O7 1.921677 1_555
Mn4 O3 1.927063 1_555
Mn4 O19 1.955420 1_555
Mn4 O20 2.094002 1_555
Mn4 O15 2.205769 1_555
Mn5 O23 1.906831 1_545
Mn5 O20 1.906831 1_555
Mn5 O19 1.929178 1_555
Mn5 O4 1.929178 1_545
Mn6 O16 1.921677 1_655
Mn6 O14 1.927063 1_555
Mn6 O21 1.955420 1_655
Mn6 O13 2.094002 1_555
Mn6 O2 2.205769 1_555
Mn7 O10 1.956069 1_555
Mn7 O15 1.956069 1_555
Mn7 O9 2.002617 1_555
Mn7 O14 2.002617 1_555
Mn7 O0 2.240782 1_555
Mn7 O16 2.240782 1_555
Bi0 O5 2.169624 1_556
Bi0 O12 2.237125 1_555
Bi0 O7 2.308009 1_556
Bi0 O8 2.547929 1_555
Bi0 O17 2.637146 1_555
Bi1 O6 2.169624 1_555
Bi1 O10 2.237125 1_555
Bi1 O16 2.308009 1_655
Bi1 O23 2.547929 1_555
Bi1 O4 2.637146 1_655
Bi2 O22 2.169624 1_555
Bi2 O15 2.237125 1_555
Bi2 O0 2.308009 1_455
Bi2 O20 2.547929 1_555
Bi2 O19 2.637146 1_455
Bi3 O8 2.224594 1_555
Bi3 O9 2.379354 1_555
Bi3 O17 2.397626 1_555
Bi3 O22 2.424951 1_555
Bi3 O1 2.440642 1_545
Bi4 O1 2.169624 1_554
Bi4 O2 2.237125 1_555
Bi4 O11 2.308009 1_554
Bi4 O13 2.547929 1_555
Bi4 O21 2.637146 1_555
Bi5 O23 2.224594 1_455
Bi5 O18 2.379354 1_455
Bi5 O4 2.397626 1_555
Bi5 O1 2.424951 1_455
Bi5 O22 2.440642 1_565
Bi6 O13 2.224594 1_555
Bi6 O14 2.379354 1_555
Bi6 O21 2.397626 1_555
Bi6 O6 2.424951 1_555
Bi6 O5 2.440642 1_565
Bi7 O20 2.224594 1_655
Bi7 O3 2.379354 1_655
Bi7 O19 2.397626 1_555
Bi7 O5 2.424951 1_655
Bi7 O6 2.440642 1_545
