# generated using pymatgen
data_BiF3
_symmetry_space_group_name_H-M   'P 1'
_cell_length_a   5.76369000
_cell_length_b   5.76369000
_cell_length_c   5.76369000
_cell_angle_alpha   90.00000000
_cell_angle_beta   90.00000000
_cell_angle_gamma   90.00000000
_symmetry_Int_Tables_number   1
_chemical_formula_structural   BiF3
_chemical_formula_sum   'Bi4 F12'
_cell_volume   191.47048737
_cell_formula_units_Z   4
loop_
 _symmetry_equiv_pos_site_id
 _symmetry_equiv_pos_as_xyz
  1  'x, y, z'
loop_
 _atom_site_type_symbol
 _atom_site_label
 _atom_site_symmetry_multiplicity
 _atom_site_fract_x
 _atom_site_fract_y
 _atom_site_fract_z
 _atom_site_occupancy
  Bi  Bi0  1  0.25236800  0.74763200  0.25236800  1
  Bi  Bi1  1  0.25236800  0.25236800  0.74763200  1
  Bi  Bi2  1  0.74763200  0.74763200  0.74763200  1
  Bi  Bi3  1  0.74763200  0.25236800  0.25236800  1
  F  F0  1  0.74507500  0.25492500  0.74507500  1
  F  F1  1  0.00000000  0.00000000  0.50000000  1
  F  F2  1  0.25492500  0.25492500  0.25492500  1
  F  F3  1  0.25492500  0.74507500  0.74507500  1
  F  F4  1  0.00000000  0.50000000  0.00000000  1
  F  F5  1  0.50000000  0.00000000  0.50000000  1
  F  F6  1  0.50000000  0.50000000  0.00000000  1
  F  F7  1  0.50000000  0.00000000  0.00000000  1
  F  F8  1  0.74507500  0.74507500  0.25492500  1
  F  F9  1  0.00000000  0.50000000  0.50000000  1
  F  F10  1  0.00000000  0.00000000  0.00000000  1
  F  F11  1  0.50000000  0.50000000  0.50000000  1
loop_
_geom_bond_atom_site_label_1
_geom_bond_atom_site_label_2
_geom_bond_distance
_geom_bond_site_symmetry_2
Bi0 F11 2.472111 1_555
Bi0 F6 2.487971 1_555
Bi0 F9 2.487971 1_555
Bi0 F5 2.487971 1_565
Bi0 F4 2.503730 1_555
Bi0 F1 2.503730 1_565
Bi0 F7 2.503730 1_565
Bi0 F10 2.519391 1_565
Bi1 F11 2.472111 1_555
Bi1 F5 2.487971 1_555
Bi1 F9 2.487971 1_555
Bi1 F6 2.487971 1_556
Bi1 F1 2.503730 1_555
Bi1 F4 2.503730 1_556
Bi1 F7 2.503730 1_556
Bi1 F10 2.519391 1_556
Bi2 F11 2.472111 1_555
Bi2 F5 2.487971 1_565
Bi2 F9 2.487971 1_655
Bi2 F6 2.487971 1_556
Bi2 F4 2.503730 1_656
Bi2 F7 2.503730 1_566
Bi2 F1 2.503730 1_665
Bi2 F10 2.519391 1_666
Bi3 F11 2.472111 1_555
Bi3 F6 2.487971 1_555
Bi3 F5 2.487971 1_555
Bi3 F9 2.487971 1_655
Bi3 F7 2.503730 1_555
Bi3 F4 2.503730 1_655
Bi3 F1 2.503730 1_655
Bi3 F10 2.519391 1_655
