# generated using pymatgen
data_Ba3CaRu2O9
_symmetry_space_group_name_H-M   'P 1'
_cell_length_a   5.98194136
_cell_length_b   5.98194136
_cell_length_c   14.88618800
_cell_angle_alpha   90.00000000
_cell_angle_beta   90.00000000
_cell_angle_gamma   119.99999295
_symmetry_Int_Tables_number   1
_chemical_formula_structural   Ba3CaRu2O9
_chemical_formula_sum   'Ba6 Ca2 Ru4 O18'
_cell_volume   461.31594425
_cell_formula_units_Z   2
loop_
 _symmetry_equiv_pos_site_id
 _symmetry_equiv_pos_as_xyz
  1  'x, y, z'
loop_
 _atom_site_type_symbol
 _atom_site_label
 _atom_site_symmetry_multiplicity
 _atom_site_fract_x
 _atom_site_fract_y
 _atom_site_fract_z
 _atom_site_occupancy
  Ba  Ba0  1  0.00000000  0.00000000  0.25000000  1
  Ba  Ba1  1  0.00000000  0.00000000  0.75000000  1
  Ba  Ba2  1  0.33333300  0.66666700  0.09745200  1
  Ba  Ba3  1  0.33333300  0.66666700  0.40254800  1
  Ba  Ba4  1  0.66666700  0.33333300  0.90254800  1
  Ba  Ba5  1  0.66666700  0.33333300  0.59745200  1
  Ca  Ca0  1  0.00000000  0.00000000  0.00000000  1
  Ca  Ca1  1  0.00000000  0.00000000  0.50000000  1
  Ru  Ru0  1  0.33333300  0.66666700  0.84285100  1
  Ru  Ru1  1  0.33333300  0.66666700  0.65714900  1
  Ru  Ru2  1  0.66666700  0.33333300  0.15714900  1
  Ru  Ru3  1  0.66666700  0.33333300  0.34285100  1
  O  O0  1  0.52767000  0.03293300  0.25000000  1
  O  O1  1  0.50526300  0.47233000  0.25000000  1
  O  O2  1  0.96706700  0.49473700  0.25000000  1
  O  O3  1  0.49473700  0.96706700  0.75000000  1
  O  O4  1  0.47233000  0.50526300  0.75000000  1
  O  O5  1  0.03293300  0.52767000  0.75000000  1
  O  O6  1  0.16469000  0.35309700  0.91000000  1
  O  O7  1  0.18840600  0.83531000  0.59000000  1
  O  O8  1  0.64690300  0.81159400  0.59000000  1
  O  O9  1  0.64690300  0.81159400  0.91000000  1
  O  O10  1  0.18840600  0.83531000  0.91000000  1
  O  O11  1  0.81159400  0.64690300  0.09000000  1
  O  O12  1  0.83531000  0.18840600  0.09000000  1
  O  O13  1  0.35309700  0.16469000  0.09000000  1
  O  O14  1  0.16469000  0.35309700  0.59000000  1
  O  O15  1  0.35309700  0.16469000  0.41000000  1
  O  O16  1  0.81159400  0.64690300  0.41000000  1
  O  O17  1  0.83531000  0.18840600  0.41000000  1
loop_
_geom_bond_atom_site_label_1
_geom_bond_atom_site_label_2
_geom_bond_distance
_geom_bond_site_symmetry_2
Ba0 O0 2.928925 1_455
Ba0 O2 2.928925 1_445
Ba0 O1 2.928926 1_555
Ba0 O12 3.003997 1_455
Ba0 O17 3.003997 1_455
Ba0 O16 3.004000 1_445
Ba0 O11 3.004000 1_445
Ba0 O15 3.004000 1_555
Ba0 O13 3.004000 1_555
Ba0 O2 3.062745 1_455
Ba0 O0 3.062745 1_555
Ba0 O1 3.062745 1_445
Ba1 O5 2.928925 1_545
Ba1 O3 2.928925 1_445
Ba1 O4 2.928926 1_555
Ba1 O10 3.003997 1_545
Ba1 O7 3.003997 1_545
Ba1 O9 3.004000 1_445
Ba1 O8 3.004000 1_445
Ba1 O14 3.004000 1_555
Ba1 O6 3.004000 1_555
Ba1 O3 3.062745 1_545
Ba1 O5 3.062745 1_555
Ba1 O4 3.062745 1_445
Ba2 O13 2.923930 1_565
Ba2 O12 2.923936 1_455
Ba2 O11 2.923942 1_555
Ba2 O2 2.959998 1_455
Ba2 O0 2.959998 1_565
Ba2 O1 2.960001 1_555
Ba2 O11 3.065618 1_455
Ba2 O12 3.065624 1_565
Ba2 O13 3.065630 1_555
Ba2 O10 3.229623 1_554
Ba2 O9 3.229624 1_554
Ba2 O6 3.229624 1_554
Ba3 O15 2.923930 1_565
Ba3 O17 2.923936 1_455
Ba3 O16 2.923942 1_555
Ba3 O2 2.959998 1_455
Ba3 O0 2.959998 1_565
Ba3 O1 2.960001 1_555
Ba3 O16 3.065618 1_455
Ba3 O17 3.065624 1_565
Ba3 O15 3.065630 1_555
Ba3 O7 3.229623 1_555
Ba3 O8 3.229624 1_555
Ba3 O14 3.229624 1_555
Ba4 O6 2.923930 1_655
Ba4 O10 2.923936 1_545
Ba4 O9 2.923942 1_555
Ba4 O3 2.959998 1_545
Ba4 O5 2.959998 1_655
Ba4 O4 2.960001 1_555
Ba4 O9 3.065618 1_545
Ba4 O10 3.065624 1_655
Ba4 O6 3.065630 1_555
Ba4 O12 3.229623 1_556
Ba4 O11 3.229624 1_556
Ba4 O13 3.229624 1_556
Ba5 O14 2.923930 1_655
Ba5 O7 2.923936 1_545
Ba5 O8 2.923942 1_555
Ba5 O3 2.959998 1_545
Ba5 O5 2.959998 1_655
Ba5 O4 2.960001 1_555
Ba5 O8 3.065618 1_545
Ba5 O7 3.065624 1_655
Ba5 O14 3.065630 1_555
Ba5 O17 3.229623 1_555
Ba5 O16 3.229624 1_555
Ba5 O15 3.229624 1_555
Ca0 O10 2.268484 1_544
Ca0 O12 2.268484 1_455
Ca0 O11 2.268488 1_445
Ca0 O9 2.268488 1_444
Ca0 O6 2.268489 1_554
Ca0 O13 2.268489 1_555
Ca1 O7 2.268484 1_545
Ca1 O17 2.268484 1_455
Ca1 O16 2.268488 1_445
Ca1 O8 2.268488 1_445
Ca1 O14 2.268489 1_555
Ca1 O15 2.268489 1_555
O0 Ru2 2.082499 1_555
O0 Ru3 2.082499 1_555
O1 Ru2 2.082503 1_555
O1 Ru3 2.082503 1_555
O2 Ru2 2.082499 1_555
O2 Ru3 2.082499 1_555
O3 Ru0 2.082499 1_555
O3 Ru1 2.082499 1_555
O4 Ru0 2.082503 1_555
O4 Ru1 2.082503 1_555
O5 Ru1 2.082499 1_555
O5 Ru0 2.082499 1_555
O6 Ru0 1.908682 1_555
O7 Ru1 1.908682 1_555
O8 Ru1 1.908682 1_555
O9 Ru0 1.908682 1_555
O10 Ru0 1.908682 1_555
O11 Ru2 1.908682 1_555
O12 Ru2 1.908682 1_555
O13 Ru2 1.908682 1_555
O14 Ru1 1.908682 1_555
O15 Ru3 1.908682 1_555
O16 Ru3 1.908682 1_555
O17 Ru3 1.908682 1_555
