# generated using pymatgen
data_Ba2SnS4
_symmetry_space_group_name_H-M   'P 1'
_cell_length_a   7.48594211
_cell_length_b   12.70289879
_cell_length_c   17.96561413
_cell_angle_alpha   90.00000000
_cell_angle_beta   90.00000000
_cell_angle_gamma   90.00000000
_symmetry_Int_Tables_number   1
_chemical_formula_structural   Ba2SnS4
_chemical_formula_sum   'Ba16 Sn8 S32'
_cell_volume   1708.40710827
_cell_formula_units_Z   8
loop_
 _symmetry_equiv_pos_site_id
 _symmetry_equiv_pos_as_xyz
  1  'x, y, z'
loop_
 _atom_site_type_symbol
 _atom_site_label
 _atom_site_symmetry_multiplicity
 _atom_site_fract_x
 _atom_site_fract_y
 _atom_site_fract_z
 _atom_site_occupancy
  Ba  Ba0  1  0.71854694  0.00033245  0.62664519  1
  Ba  Ba1  1  0.28145306  0.50033345  0.37335481  1
  Ba  Ba2  1  0.78145306  0.00033245  0.12664519  1
  Ba  Ba3  1  0.21854694  0.50033345  0.87335481  1
  Ba  Ba4  1  0.69617200  0.87985749  0.87494678  1
  Ba  Ba5  1  0.30382800  0.37985749  0.12505322  1
  Ba  Ba6  1  0.80382800  0.87985749  0.37494678  1
  Ba  Ba7  1  0.19617200  0.37985749  0.62505322  1
  Ba  Ba8  1  0.69775601  0.61495319  0.68931789  1
  Ba  Ba9  1  0.30224399  0.11495319  0.31068211  1
  Ba  Ba10  1  0.80224399  0.61495319  0.18931789  1
  Ba  Ba11  1  0.19775601  0.11495319  0.81068211  1
  Ba  Ba12  1  0.72650094  0.26126763  0.94563227  1
  Ba  Ba13  1  0.27349906  0.76126763  0.05436773  1
  Ba  Ba14  1  0.77349906  0.26126763  0.44563227  1
  Ba  Ba15  1  0.22650094  0.76126763  0.55436773  1
  Sn  Sn0  1  0.77333857  0.60869121  0.97585512  1
  Sn  Sn1  1  0.22666143  0.10869121  0.02414488  1
  Sn  Sn2  1  0.72666143  0.60869121  0.47585512  1
  Sn  Sn3  1  0.27333857  0.10869121  0.52414488  1
  Sn  Sn4  1  0.71314604  0.27223882  0.73374083  1
  Sn  Sn5  1  0.28685396  0.77223882  0.26625917  1
  Sn  Sn6  1  0.78685396  0.27223882  0.23374083  1
  Sn  Sn7  1  0.21314604  0.77223882  0.76625917  1
  S  S0  1  0.99706656  0.90760233  0.75037052  1
  S  S1  1  0.00293344  0.40760233  0.24962948  1
  S  S2  1  0.50293344  0.90760233  0.25037052  1
  S  S3  1  0.49706656  0.40760233  0.74962948  1
  S  S4  1  0.95961606  0.48576813  0.49326687  1
  S  S5  1  0.04038394  0.98576813  0.50673313  1
  S  S6  1  0.54038394  0.48576813  0.99326687  1
  S  S7  1  0.45961606  0.98576813  0.00673313  1
  S  S8  1  0.97721469  0.32692039  0.80088838  1
  S  S9  1  0.02278531  0.82692039  0.19911162  1
  S  S10  1  0.52278531  0.32692039  0.30088738  1
  S  S11  1  0.47721469  0.82692039  0.69911162  1
  S  S12  1  0.96216823  0.04231636  0.96324028  1
  S  S13  1  0.03783177  0.54231636  0.03675972  1
  S  S14  1  0.53783177  0.04231636  0.46324028  1
  S  S15  1  0.46216823  0.54231636  0.53675972  1
  S  S16  1  0.85594165  0.64804653  0.85200959  1
  S  S17  1  0.14405835  0.14804653  0.14799041  1
  S  S18  1  0.64405835  0.64804653  0.35200959  1
  S  S19  1  0.35594165  0.14804653  0.64799041  1
  S  S20  1  0.84123237  0.23637179  0.61582367  1
  S  S21  1  0.15876763  0.73637179  0.38417633  1
  S  S22  1  0.65876763  0.23637179  0.11582367  1
  S  S23  1  0.34123237  0.73637179  0.88417633  1
  S  S24  1  0.79365275  0.76717761  0.54314770  1
  S  S25  1  0.20634725  0.26717761  0.45685230  1
  S  S26  1  0.70634725  0.76717761  0.04314770  1
  S  S27  1  0.29365275  0.26717761  0.95685230  1
  S  S28  1  0.63521741  0.11425505  0.80140361  1
  S  S29  1  0.36478259  0.61425505  0.19859639  1
  S  S30  1  0.86478259  0.11425505  0.30140361  1
  S  S31  1  0.13521741  0.61425505  0.69859639  1
loop_
_geom_bond_atom_site_label_1
_geom_bond_atom_site_label_2
_geom_bond_distance
_geom_bond_site_symmetry_2
Ba0 S11 3.132290 1_545
Ba0 S20 3.141909 1_555
Ba0 S5 3.237238 1_645
Ba0 S0 3.267345 1_545
Ba0 S14 3.276082 1_555
Ba0 S19 3.322065 1_555
Ba0 S24 3.367236 1_545
Ba0 S28 3.512935 1_555
Ba1 S10 3.132306 1_555
Ba1 S21 3.141897 1_555
Ba1 S4 3.237239 1_455
Ba1 S1 3.267349 1_555
Ba1 S15 3.276080 1_555
Ba1 S18 3.322058 1_555
Ba1 S25 3.367247 1_555
Ba1 S29 3.512930 1_555
Ba2 S9 3.132290 1_645
Ba2 S22 3.141909 1_555
Ba2 S7 3.237238 1_545
Ba2 S2 3.267345 1_545
Ba2 S12 3.276082 1_554
Ba2 S17 3.322065 1_655
Ba2 S26 3.367236 1_545
Ba2 S30 3.512935 1_555
Ba3 S8 3.132299 1_455
Ba3 S23 3.141897 1_555
Ba3 S6 3.237239 1_555
Ba3 S3 3.267349 1_555
Ba3 S13 3.276080 1_556
Ba3 S16 3.322058 1_455
Ba3 S27 3.367247 1_555
Ba3 S31 3.512930 1_555
Ba4 S0 3.194827 1_555
Ba4 S16 3.204899 1_555
Ba4 S23 3.226395 1_555
Ba4 S7 3.248315 1_556
Ba4 S12 3.277200 1_565
Ba4 S28 3.289314 1_565
Ba4 S26 3.344558 1_556
Ba4 S11 3.621884 1_555
Ba5 S1 3.194827 1_555
Ba5 S17 3.204899 1_555
Ba5 S22 3.226395 1_555
Ba5 S6 3.248315 1_554
Ba5 S13 3.277200 1_555
Ba5 S29 3.289314 1_555
Ba5 S27 3.344558 1_554
Ba5 S10 3.621869 1_555
Ba6 S2 3.194827 1_555
Ba6 S18 3.204899 1_555
Ba6 S21 3.226395 1_655
Ba6 S5 3.248315 1_655
Ba6 S14 3.277200 1_565
Ba6 S30 3.289314 1_565
Ba6 S24 3.344558 1_555
Ba6 S9 3.621884 1_655
Ba7 S3 3.194827 1_555
Ba7 S19 3.204899 1_555
Ba7 S20 3.226395 1_455
Ba7 S4 3.248315 1_455
Ba7 S15 3.277200 1_555
Ba7 S31 3.289314 1_555
Ba7 S25 3.344558 1_555
Ba7 S8 3.621884 1_455
Ba8 S11 3.163338 1_555
Ba8 S16 3.181519 1_555
Ba8 S3 3.220067 1_555
Ba8 S31 3.279062 1_655
Ba8 S24 3.339249 1_555
Ba8 S15 3.387276 1_555
Ba9 S10 3.163339 1_555
Ba9 S17 3.181519 1_555
Ba9 S2 3.220067 1_545
Ba9 S30 3.279062 1_455
Ba9 S25 3.339249 1_555
Ba9 S14 3.387276 1_555
Ba10 S9 3.163338 1_655
Ba10 S18 3.181519 1_555
Ba10 S1 3.220067 1_655
Ba10 S29 3.279062 1_555
Ba10 S26 3.339249 1_555
Ba10 S13 3.387276 1_655
Ba11 S8 3.163338 1_455
Ba11 S19 3.181519 1_555
Ba11 S0 3.220067 1_445
Ba11 S28 3.279062 1_555
Ba11 S27 3.339249 1_555
Ba11 S12 3.387276 1_455
Ba12 S22 3.115443 1_556
Ba12 S27 3.247408 1_555
Ba12 S28 3.266275 1_555
Ba12 S6 3.287301 1_555
Ba12 S12 3.308800 1_555
Ba12 S8 3.313632 1_555
Ba13 S23 3.115443 1_554
Ba13 S26 3.247408 1_555
Ba13 S29 3.266275 1_555
Ba13 S7 3.287301 1_555
Ba13 S13 3.308800 1_555
Ba13 S9 3.313632 1_555
Ba14 S20 3.115443 1_555
Ba14 S25 3.247408 1_655
Ba14 S30 3.266275 1_555
Ba14 S4 3.287301 1_555
Ba14 S14 3.308800 1_555
Ba14 S10 3.313646 1_555
Ba15 S21 3.115443 1_555
Ba15 S24 3.247408 1_455
Ba15 S31 3.266275 1_555
Ba15 S5 3.287301 1_555
Ba15 S15 3.308800 1_555
Ba15 S11 3.313632 1_555
S0 Sn7 2.377959 1_655
S1 Sn6 2.377959 1_455
S2 Sn5 2.377959 1_555
S3 Sn4 2.377959 1_555
S4 Sn2 2.361611 1_555
S5 Sn3 2.361611 1_565
S6 Sn0 2.361611 1_555
S7 Sn1 2.361611 1_565
S8 Sn4 2.417749 1_555
S9 Sn5 2.417749 1_555
S10 Sn6 2.417740 1_555
S11 Sn7 2.417749 1_555
S12 Sn1 2.414224 1_656
S13 Sn0 2.414224 1_454
S14 Sn3 2.414224 1_555
S15 Sn2 2.414224 1_555
S16 Sn0 2.362784 1_555
S17 Sn1 2.362784 1_555
S18 Sn2 2.362784 1_555
S19 Sn3 2.362784 1_555
S20 Sn4 2.369561 1_555
S21 Sn5 2.369561 1_555
S22 Sn6 2.369561 1_555
S23 Sn7 2.369561 1_555
S24 Sn2 2.401288 1_555
S25 Sn3 2.401288 1_555
S26 Sn0 2.401288 1_554
S27 Sn1 2.401288 1_556
S28 Sn4 2.417740 1_555
S29 Sn5 2.417740 1_555
S30 Sn6 2.417740 1_555
S31 Sn7 2.417740 1_555
