# generated using pymatgen
data_ZnAs2C6S12N12(OF2)6
_symmetry_space_group_name_H-M   'P 1'
_cell_length_a   12.13840467
_cell_length_b   12.13840467
_cell_length_c   6.86264600
_cell_angle_alpha   90.00000000
_cell_angle_beta   90.00000000
_cell_angle_gamma   120.00000366
_symmetry_Int_Tables_number   1
_chemical_formula_structural   ZnAs2C6S12N12(OF2)6
_chemical_formula_sum   'Zn1 As2 C6 S12 N12 O6 F12'
_cell_volume   875.68001160
_cell_formula_units_Z   1
loop_
 _symmetry_equiv_pos_site_id
 _symmetry_equiv_pos_as_xyz
  1  'x, y, z'
loop_
 _atom_site_type_symbol
 _atom_site_label
 _atom_site_symmetry_multiplicity
 _atom_site_fract_x
 _atom_site_fract_y
 _atom_site_fract_z
 _atom_site_occupancy
  Zn  Zn0  1  0.00000000  0.00000000  0.50000000  1
  As  As0  1  0.66666700  0.33333300  0.54278800  1
  As  As1  1  0.33333300  0.66666700  0.45721200  1
  C  C0  1  0.24293000  0.08317800  0.75677700  1
  C  C1  1  0.75707000  0.91682200  0.24322300  1
  C  C2  1  0.15975200  0.24293000  0.24322300  1
  C  C3  1  0.08317800  0.84024800  0.24322300  1
  C  C4  1  0.91682200  0.15975200  0.75677700  1
  C  C5  1  0.84024800  0.75707000  0.75677700  1
  S  S0  1  0.30843300  0.39983900  0.00406200  1
  S  S1  1  0.39983900  0.09140600  0.99593800  1
  S  S2  1  0.29951100  0.98125500  0.65618200  1
  S  S3  1  0.31825500  0.29951100  0.34381800  1
  S  S4  1  0.09140600  0.69156700  0.00406200  1
  S  S5  1  0.98125500  0.68174500  0.34381800  1
  S  S6  1  0.01874500  0.31825500  0.65618200  1
  S  S7  1  0.90859400  0.30843300  0.99593800  1
  S  S8  1  0.70048900  0.01874500  0.34381800  1
  S  S9  1  0.68174500  0.70048900  0.65618200  1
  S  S10  1  0.60016100  0.90859400  0.00406200  1
  S  S11  1  0.69156700  0.60016100  0.99593800  1
  N  N0  1  0.60141700  0.60232200  0.82944200  1
  N  N1  1  0.16774000  0.30130300  0.07141600  1
  N  N2  1  0.83226000  0.69869700  0.92858400  1
  N  N3  1  0.39858300  0.39767800  0.17055800  1
  N  N4  1  0.86643700  0.16774000  0.92858400  1
  N  N5  1  0.13356300  0.83226000  0.07141600  1
  N  N6  1  0.60232200  0.00090500  0.17055800  1
  N  N7  1  0.30130300  0.13356300  0.92858400  1
  N  N8  1  0.69869700  0.86643700  0.07141600  1
  N  N9  1  0.99909500  0.60141700  0.17055800  1
  N  N10  1  0.00090500  0.39858300  0.82944200  1
  N  N11  1  0.39767800  0.99909500  0.82944200  1
  O  O0  1  0.89473300  0.05865500  0.67440400  1
  O  O1  1  0.10526700  0.94134500  0.32559600  1
  O  O2  1  0.05865500  0.16392300  0.32559600  1
  O  O3  1  0.83607700  0.89473300  0.32559600  1
  O  O4  1  0.94134500  0.83607700  0.67440400  1
  O  O5  1  0.16392300  0.10526700  0.67440400  1
  F  F0  1  0.44684300  0.79171700  0.60587500  1
  F  F1  1  0.65512500  0.44684300  0.39412500  1
  F  F2  1  0.54118500  0.32035200  0.69295900  1
  F  F3  1  0.20828300  0.65512500  0.60587500  1
  F  F4  1  0.67964800  0.22083200  0.69295900  1
  F  F5  1  0.45881500  0.67964800  0.30704100  1
  F  F6  1  0.22083200  0.54118500  0.30704100  1
  F  F7  1  0.55315700  0.20828300  0.39412500  1
  F  F8  1  0.77916800  0.45881500  0.69295900  1
  F  F9  1  0.32035200  0.77916800  0.30704100  1
  F  F10  1  0.79171700  0.34487500  0.39412500  1
  F  F11  1  0.34487500  0.55315700  0.60587500  1
loop_
_geom_bond_atom_site_label_1
_geom_bond_atom_site_label_2
_geom_bond_distance
_geom_bond_site_symmetry_2
As0 F10 1.775349 1_555
As0 F7 1.775357 1_555
As0 F1 1.775368 1_555
As0 F8 1.779576 1_555
As0 F2 1.779576 1_555
As0 F4 1.779576 1_555
As1 F3 1.775349 1_555
As1 F0 1.775357 1_555
As1 F11 1.775368 1_555
As1 F6 1.779576 1_555
As1 F5 1.779576 1_555
As1 F9 1.779576 1_555
C0 O5 1.252320 1_555
C0 N7 1.353850 1_555
C0 S2 1.824445 1_545
C1 O3 1.252320 1_555
C1 N8 1.353850 1_555
C1 S8 1.824445 1_565
C2 O2 1.252327 1_555
C2 N1 1.353850 1_555
C2 S3 1.824435 1_555
C3 O1 1.252331 1_555
C3 N5 1.353850 1_555
C3 S5 1.824436 1_455
C4 O0 1.252331 1_555
C4 N4 1.353850 1_555
C4 S6 1.824436 1_655
C5 O4 1.252327 1_555
C5 N2 1.353850 1_555
C5 S9 1.824435 1_555
N0 S11 1.591344 1_555
N0 S9 1.619422 1_555
N1 S0 1.586866 1_555
N2 S11 1.586866 1_555
N3 S0 1.591344 1_555
N3 S3 1.619422 1_555
N4 S7 1.586866 1_555
N5 S4 1.586866 1_555
N6 S10 1.591344 1_545
N6 S8 1.619419 1_555
N7 S1 1.586866 1_555
N8 S10 1.586866 1_555
N9 S4 1.591344 1_655
N9 S5 1.619427 1_555
N10 S7 1.591344 1_455
N10 S6 1.619427 1_555
N11 S1 1.591344 1_565
N11 S2 1.619419 1_555
O0 Zn0 2.117043 1_655
O1 Zn0 2.117043 1_565
O2 Zn0 2.117052 1_555
O3 Zn0 2.117050 1_665
O4 Zn0 2.117052 1_665
O5 Zn0 2.117050 1_555
