# generated using pymatgen
data_Dy2In16Pt7
_symmetry_space_group_name_H-M   'P 1'
_cell_length_a   11.94626850
_cell_length_b   11.94626850
_cell_length_c   4.43649400
_cell_angle_alpha   90.00000000
_cell_angle_beta   90.00000000
_cell_angle_gamma   117.62381464
_symmetry_Int_Tables_number   1
_chemical_formula_structural   Dy2In16Pt7
_chemical_formula_sum   'Dy2 In16 Pt7'
_cell_volume   560.97502196
_cell_formula_units_Z   1
loop_
 _symmetry_equiv_pos_site_id
 _symmetry_equiv_pos_as_xyz
  1  'x, y, z'
loop_
 _atom_site_type_symbol
 _atom_site_label
 _atom_site_symmetry_multiplicity
 _atom_site_fract_x
 _atom_site_fract_y
 _atom_site_fract_z
 _atom_site_occupancy
  Dy  Dy0  1  0.17133500  0.17133500  0.50000000  1
  Dy  Dy1  1  0.82866500  0.82866500  0.50000000  1
  In  In0  1  0.36793600  0.36793600  0.00000000  1
  In  In1  1  0.63206400  0.63206400  0.00000000  1
  In  In2  1  0.48290800  0.25723900  0.50000000  1
  In  In3  1  0.51709200  0.74276100  0.50000000  1
  In  In4  1  0.25723900  0.48290800  0.50000000  1
  In  In5  1  0.74276100  0.51709200  0.50000000  1
  In  In6  1  0.58656700  0.14106900  0.00000000  1
  In  In7  1  0.41343300  0.85893100  0.00000000  1
  In  In8  1  0.14106900  0.58656700  0.00000000  1
  In  In9  1  0.85893100  0.41343300  0.00000000  1
  In  In10  1  0.71273000  0.03873700  0.50000000  1
  In  In11  1  0.28727000  0.96126300  0.50000000  1
  In  In12  1  0.03873700  0.71273000  0.50000000  1
  In  In13  1  0.96126300  0.28727000  0.50000000  1
  In  In14  1  0.07302500  0.92697500  0.00000000  1
  In  In15  1  0.92697500  0.07302500  0.00000000  1
  Pt  Pt0  1  0.50000000  0.50000000  0.50000000  1
  Pt  Pt1  1  0.72402800  0.27597200  0.50000000  1
  Pt  Pt2  1  0.27597200  0.72402800  0.50000000  1
  Pt  Pt3  1  0.33065800  0.11629900  0.00000000  1
  Pt  Pt4  1  0.66934200  0.88370100  0.00000000  1
  Pt  Pt5  1  0.11629900  0.33065800  0.00000000  1
  Pt  Pt6  1  0.88370100  0.66934200  0.00000000  1
loop_
_geom_bond_atom_site_label_1
_geom_bond_atom_site_label_2
_geom_bond_distance
_geom_bond_site_symmetry_2
Dy0 Pt3 3.183700 1_556
Dy0 Pt3 3.183700 1_555
Dy0 Pt5 3.183700 1_555
Dy0 Pt5 3.183700 1_556
Dy0 In0 3.292056 1_556
Dy0 In0 3.292056 1_555
Dy0 In2 3.371239 1_555
Dy0 In4 3.371239 1_555
Dy0 In11 3.382207 1_545
Dy0 In13 3.382207 1_455
Dy0 In14 3.412087 1_545
Dy0 In15 3.412087 1_455
Dy0 In14 3.412087 1_546
Dy0 In15 3.412087 1_456
Dy1 Pt6 3.183700 1_556
Dy1 Pt6 3.183700 1_555
Dy1 Pt4 3.183700 1_555
Dy1 Pt4 3.183700 1_556
Dy1 In1 3.292056 1_555
Dy1 In1 3.292056 1_556
Dy1 In3 3.371239 1_555
Dy1 In5 3.371239 1_555
Dy1 In10 3.382207 1_565
Dy1 In12 3.382207 1_655
Dy1 In14 3.412087 1_655
Dy1 In15 3.412087 1_566
Dy1 In15 3.412087 1_565
Dy1 In14 3.412087 1_656
In0 Pt0 2.755095 1_555
In0 Pt0 2.755095 1_554
In0 Pt3 2.827306 1_555
In0 Pt5 2.827306 1_555
In1 Pt0 2.755095 1_554
In1 Pt0 2.755095 1_555
In1 Pt4 2.827306 1_555
In1 Pt6 2.827306 1_555
In2 Pt1 2.783791 1_555
In2 Pt0 2.811242 1_555
In2 Pt3 2.867713 1_556
In2 Pt3 2.867713 1_555
In3 Pt2 2.783791 1_555
In3 Pt0 2.811242 1_555
In3 Pt4 2.867713 1_555
In3 Pt4 2.867713 1_556
In4 Pt2 2.783791 1_555
In4 Pt0 2.811242 1_555
In4 Pt5 2.867713 1_555
In4 Pt5 2.867713 1_556
In5 Pt1 2.783791 1_555
In5 Pt0 2.811242 1_555
In5 Pt6 2.867713 1_556
In5 Pt6 2.867713 1_555
In6 Pt1 2.785738 1_555
In6 Pt1 2.785738 1_554
In6 Pt3 2.931702 1_555
In7 Pt2 2.785738 1_555
In7 Pt2 2.785738 1_554
In7 Pt4 2.931702 1_555
In8 Pt2 2.785738 1_555
In8 Pt2 2.785738 1_554
In8 Pt5 2.931702 1_555
In9 Pt1 2.785738 1_555
In9 Pt1 2.785738 1_554
In9 Pt6 2.931702 1_555
In10 Pt1 2.774071 1_555
In10 Pt4 2.780168 1_546
In10 Pt4 2.780168 1_545
In11 Pt2 2.774071 1_555
In11 Pt3 2.780168 1_565
In11 Pt3 2.780168 1_566
In12 Pt2 2.774071 1_555
In12 Pt6 2.780168 1_456
In12 Pt6 2.780168 1_455
In13 Pt1 2.774071 1_555
In13 Pt5 2.780168 1_656
In13 Pt5 2.780168 1_655
In14 Pt3 2.851804 1_565
In14 Pt6 2.851804 1_455
In15 Pt5 2.851804 1_655
In15 Pt4 2.851804 1_545
