# generated using pymatgen
data_CdInBr3
_symmetry_space_group_name_H-M   'P 1'
_cell_length_a   4.14038678
_cell_length_b   9.58047134
_cell_length_c   15.51440356
_cell_angle_alpha   90.00000000
_cell_angle_beta   90.00000000
_cell_angle_gamma   90.00000000
_symmetry_Int_Tables_number   1
_chemical_formula_structural   CdInBr3
_chemical_formula_sum   'Cd4 In4 Br12'
_cell_volume   615.40762563
_cell_formula_units_Z   4
loop_
 _symmetry_equiv_pos_site_id
 _symmetry_equiv_pos_as_xyz
  1  'x, y, z'
loop_
 _atom_site_type_symbol
 _atom_site_label
 _atom_site_symmetry_multiplicity
 _atom_site_fract_x
 _atom_site_fract_y
 _atom_site_fract_z
 _atom_site_occupancy
  Cd  Cd0  1  0.75000000  0.33135247  0.05284252  1
  Cd  Cd1  1  0.25000000  0.66864753  0.94715748  1
  Cd  Cd2  1  0.75000000  0.83135247  0.44715748  1
  Cd  Cd3  1  0.25000000  0.16864753  0.55284252  1
  In  In0  1  0.75000000  0.03604779  0.82347225  1
  In  In1  1  0.25000000  0.96395221  0.17652775  1
  In  In2  1  0.75000000  0.53604779  0.67652775  1
  In  In3  1  0.25000000  0.46395221  0.32347225  1
  Br  Br0  1  0.75000000  0.83527649  0.00765622  1
  Br  Br1  1  0.25000000  0.16472351  0.99234378  1
  Br  Br2  1  0.75000000  0.33527649  0.49234378  1
  Br  Br3  1  0.25000000  0.66472351  0.50765622  1
  Br  Br4  1  0.75000000  0.20830602  0.21042726  1
  Br  Br5  1  0.25000000  0.79169398  0.78957274  1
  Br  Br6  1  0.75000000  0.70830602  0.28957274  1
  Br  Br7  1  0.25000000  0.29169398  0.71042726  1
  Br  Br8  1  0.75000000  0.48108808  0.89607691  1
  Br  Br9  1  0.25000000  0.51891192  0.10392309  1
  Br  Br10  1  0.75000000  0.98108808  0.60392309  1
  Br  Br11  1  0.25000000  0.01891192  0.39607691  1
loop_
_geom_bond_atom_site_label_1
_geom_bond_atom_site_label_2
_geom_bond_distance
_geom_bond_site_symmetry_2
Br0 Cd1 2.777610 1_654
Br0 Cd1 2.777610 1_554
Br1 Cd0 2.777610 1_556
Br1 Cd0 2.777610 1_456
Br2 Cd3 2.777610 1_655
Br2 Cd3 2.777610 1_555
Br3 Cd2 2.777610 1_555
Br3 Cd2 2.777610 1_455
Br4 Cd0 2.714200 1_555
Br4 In1 3.169022 1_545
Br4 In1 3.169022 1_645
Br5 Cd1 2.714200 1_555
Br5 In0 3.169022 1_565
Br5 In0 3.169022 1_465
Br6 Cd2 2.714200 1_555
Br6 In3 3.169022 1_555
Br6 In3 3.169022 1_655
Br7 Cd3 2.714200 1_555
Br7 In2 3.169022 1_555
Br7 In2 3.169022 1_455
Br8 Cd0 2.823673 1_556
Br8 Cd1 2.853526 1_655
Br8 Cd1 2.853526 1_555
Br9 Cd1 2.823673 1_554
Br9 Cd0 2.853526 1_555
Br9 Cd0 2.853526 1_455
Br10 Cd2 2.823673 1_555
Br10 Cd3 2.853526 1_565
Br10 Cd3 2.853526 1_665
Br11 Cd3 2.823673 1_555
Br11 Cd2 2.853526 1_445
Br11 Cd2 2.853526 1_545
