# generated using pymatgen
data_SmGePt
_symmetry_space_group_name_H-M   'P 1'
_cell_length_a   4.42012701
_cell_length_b   7.60475625
_cell_length_c   14.40750056
_cell_angle_alpha   90.00000000
_cell_angle_beta   90.00000000
_cell_angle_gamma   90.00000000
_symmetry_Int_Tables_number   1
_chemical_formula_structural   SmGePt
_chemical_formula_sum   'Sm8 Ge8 Pt8'
_cell_volume   484.29355821
_cell_formula_units_Z   8
loop_
 _symmetry_equiv_pos_site_id
 _symmetry_equiv_pos_as_xyz
  1  'x, y, z'
loop_
 _atom_site_type_symbol
 _atom_site_label
 _atom_site_symmetry_multiplicity
 _atom_site_fract_x
 _atom_site_fract_y
 _atom_site_fract_z
 _atom_site_occupancy
  Sm  Sm0  1  0.50000000  0.79006981  0.74762122  1
  Sm  Sm1  1  0.00000000  0.20993019  0.75237878  1
  Sm  Sm2  1  0.50000000  0.79006981  0.25237878  1
  Sm  Sm3  1  0.00000000  0.20993019  0.24762122  1
  Sm  Sm4  1  0.50000000  0.70794607  -0.00000000  1
  Sm  Sm5  1  0.00000000  0.29205393  0.50000000  1
  Sm  Sm6  1  0.50000000  0.70391208  0.50000000  1
  Sm  Sm7  1  -0.00000000  0.29608792  -0.00000000  1
  Ge  Ge0  1  0.50000000  0.40970552  0.64947143  1
  Ge  Ge1  1  0.00000000  0.59029448  0.85052857  1
  Ge  Ge2  1  0.50000000  0.40970552  0.35052857  1
  Ge  Ge3  1  -0.00000000  0.59029448  0.14947143  1
  Ge  Ge4  1  0.50000000  0.08901192  0.09468137  1
  Ge  Ge5  1  0.00000000  0.91098808  0.40531863  1
  Ge  Ge6  1  0.50000000  0.08901192  0.90531863  1
  Ge  Ge7  1  -0.00000000  0.91098808  0.59468137  1
  Pt  Pt0  1  0.50000000  0.07865341  0.60926649  1
  Pt  Pt1  1  0.00000000  0.92134659  0.89073351  1
  Pt  Pt2  1  0.50000000  0.07865341  0.39073351  1
  Pt  Pt3  1  -0.00000000  0.92134659  0.10926649  1
  Pt  Pt4  1  0.50000000  0.41701445  0.15154450  1
  Pt  Pt5  1  0.00000000  0.58298555  0.34845550  1
  Pt  Pt6  1  0.50000000  0.41701445  0.84845550  1
  Pt  Pt7  1  0.00000000  0.58298555  0.65154450  1
loop_
_geom_bond_atom_site_label_1
_geom_bond_atom_site_label_2
_geom_bond_distance
_geom_bond_site_symmetry_2
Ge0 Pt7 2.573275 1_555
Ge0 Pt7 2.573275 1_655
Ge0 Pt0 2.583350 1_555
Ge0 Pt6 2.867402 1_555
Ge0 Sm1 3.064424 1_555
Ge0 Sm1 3.064424 1_655
Ge0 Sm6 3.105386 1_555
Ge0 Sm5 3.212864 1_555
Ge0 Sm5 3.212864 1_655
Ge0 Sm0 3.219731 1_555
Ge1 Pt6 2.573275 1_455
Ge1 Pt6 2.573275 1_555
Ge1 Pt1 2.583350 1_555
Ge1 Pt7 2.867402 1_555
Ge1 Sm0 3.064424 1_455
Ge1 Sm0 3.064424 1_555
Ge1 Sm7 3.105386 1_556
Ge1 Sm4 3.212864 1_456
Ge1 Sm4 3.212864 1_556
Ge1 Sm1 3.219731 1_555
Ge2 Pt5 2.573275 1_555
Ge2 Pt5 2.573275 1_655
Ge2 Pt2 2.583350 1_555
Ge2 Pt4 2.867402 1_555
Ge2 Sm3 3.064424 1_555
Ge2 Sm3 3.064424 1_655
Ge2 Sm6 3.105386 1_555
Ge2 Sm5 3.212864 1_555
Ge2 Sm5 3.212864 1_655
Ge2 Sm2 3.219731 1_555
Ge3 Pt4 2.573275 1_455
Ge3 Pt4 2.573275 1_555
Ge3 Pt3 2.583350 1_555
Ge3 Pt5 2.867402 1_555
Ge3 Sm2 3.064424 1_455
Ge3 Sm2 3.064424 1_555
Ge3 Sm7 3.105386 1_555
Ge3 Sm4 3.212864 1_455
Ge3 Sm4 3.212864 1_555
Ge3 Sm3 3.219731 1_555
Ge4 Pt3 2.560137 1_545
Ge4 Pt3 2.560137 1_645
Ge4 Pt4 2.625473 1_555
Ge4 Ge6 2.728244 1_554
Ge4 Sm7 3.037283 1_555
Ge4 Sm7 3.037283 1_655
Ge4 Sm4 3.202925 1_545
Ge4 Sm2 3.214089 1_545
Ge4 Sm3 3.253504 1_655
Ge4 Sm3 3.253504 1_555
Ge5 Pt2 2.560137 1_465
Ge5 Pt2 2.560137 1_565
Ge5 Pt5 2.625473 1_555
Ge5 Ge7 2.728244 1_555
Ge5 Sm6 3.037283 1_455
Ge5 Sm6 3.037283 1_555
Ge5 Sm5 3.202925 1_565
Ge5 Sm3 3.214089 1_565
Ge5 Sm2 3.253504 1_455
Ge5 Sm2 3.253504 1_555
Ge6 Pt1 2.560137 1_545
Ge6 Pt1 2.560137 1_645
Ge6 Pt6 2.625473 1_555
Ge6 Sm7 3.037283 1_656
Ge6 Sm7 3.037283 1_556
Ge6 Sm4 3.202925 1_546
Ge6 Sm0 3.214089 1_545
Ge6 Sm1 3.253504 1_655
Ge6 Sm1 3.253504 1_555
Ge7 Pt0 2.560137 1_565
Ge7 Pt0 2.560137 1_465
Ge7 Pt7 2.625473 1_555
Ge7 Sm6 3.037283 1_555
Ge7 Sm6 3.037283 1_455
Ge7 Sm5 3.202925 1_565
Ge7 Sm1 3.214089 1_565
Ge7 Sm0 3.253504 1_455
Ge7 Sm0 3.253504 1_555
Pt0 Sm0 2.964748 1_545
Pt0 Pt2 3.148514 1_555
Pt0 Sm5 3.161698 1_555
Pt0 Sm5 3.161698 1_655
Pt0 Sm1 3.183148 1_555
Pt0 Sm1 3.183148 1_655
Pt0 Sm6 3.255724 1_545
Pt1 Sm1 2.964748 1_565
Pt1 Pt3 3.148514 1_556
Pt1 Sm4 3.161698 1_456
Pt1 Sm4 3.161698 1_556
Pt1 Sm0 3.183148 1_455
Pt1 Sm0 3.183148 1_555
Pt1 Sm7 3.255724 1_566
Pt2 Sm2 2.964748 1_545
Pt2 Sm5 3.161698 1_555
Pt2 Sm5 3.161698 1_655
Pt2 Sm3 3.183148 1_655
Pt2 Sm3 3.183148 1_555
Pt2 Sm6 3.255724 1_545
Pt3 Sm3 2.964748 1_565
Pt3 Sm4 3.161698 1_455
Pt3 Sm4 3.161698 1_555
Pt3 Sm2 3.183148 1_555
Pt3 Sm2 3.183148 1_455
Pt3 Sm7 3.255724 1_565
Pt4 Sm3 3.046397 1_555
Pt4 Sm3 3.046397 1_655
Pt4 Sm4 3.108397 1_555
Pt4 Sm2 3.187331 1_555
Pt4 Sm7 3.239940 1_655
Pt4 Sm7 3.239940 1_555
Pt5 Sm2 3.046397 1_455
Pt5 Sm2 3.046397 1_555
Pt5 Sm5 3.108397 1_555
Pt5 Sm3 3.187331 1_555
Pt5 Sm6 3.239940 1_455
Pt5 Sm6 3.239940 1_555
Pt6 Sm1 3.046397 1_655
Pt6 Sm1 3.046397 1_555
Pt6 Sm4 3.108397 1_556
Pt6 Sm0 3.187331 1_555
Pt6 Sm7 3.239940 1_556
Pt6 Sm7 3.239940 1_656
Pt7 Sm0 3.046397 1_455
Pt7 Sm0 3.046397 1_555
Pt7 Sm5 3.108397 1_555
Pt7 Sm1 3.187331 1_555
Pt7 Sm6 3.239940 1_455
Pt7 Sm6 3.239940 1_555
