# generated using pymatgen
data_K3MnO3
_symmetry_space_group_name_H-M   'P 1'
_cell_length_a   6.59468673
_cell_length_b   6.71156598
_cell_length_c   11.47597277
_cell_angle_alpha   89.99972045
_cell_angle_beta   90.00002406
_cell_angle_gamma   95.79079295
_symmetry_Int_Tables_number   1
_chemical_formula_structural   K3MnO3
_chemical_formula_sum   'K12 Mn4 O12'
_cell_volume   505.34227995
_cell_formula_units_Z   4
loop_
 _symmetry_equiv_pos_site_id
 _symmetry_equiv_pos_as_xyz
  1  'x, y, z'
loop_
 _atom_site_type_symbol
 _atom_site_label
 _atom_site_symmetry_multiplicity
 _atom_site_fract_x
 _atom_site_fract_y
 _atom_site_fract_z
 _atom_site_occupancy
  K  K0  1  0.65353578  0.85641730  0.98912382  1
  K  K1  1  0.34648709  0.64360272  0.48912742  1
  K  K2  1  0.34649587  0.14361314  0.01089550  1
  K  K3  1  0.65350724  0.35638888  0.51088579  1
  K  K4  1  0.52619971  0.50484579  0.21026901  1
  K  K5  1  0.47382765  0.99518391  0.71027634  1
  K  K6  1  0.47379702  0.49519408  0.78972887  1
  K  K7  1  0.52620546  0.00481446  0.28974384  1
  K  K8  1  0.02213004  0.57786540  0.72436946  1
  K  K9  1  0.97786657  0.92213458  0.22436967  1
  K  K10  1  0.97785497  0.42212169  0.27562047  1
  K  K11  1  0.02214031  0.07785492  0.77562698  1
  Mn  Mn0  1  0.15929859  0.16084001  0.49622241  1
  Mn  Mn1  1  0.15930617  0.66085176  0.00376593  1
  Mn  Mn2  1  0.84069218  0.33915952  0.99622183  1
  Mn  Mn3  1  0.84069972  0.83914287  0.50376474  1
  O  O0  1  0.10579455  0.40521798  0.92403609  1
  O  O1  1  0.89419915  0.09476886  0.42403532  1
  O  O2  1  0.89419955  0.59478936  0.07595681  1
  O  O3  1  0.10578666  0.90521003  0.57596379  1
  O  O4  1  0.69970259  0.21457050  0.87266016  1
  O  O5  1  0.30029256  0.28542710  0.37265898  1
  O  O6  1  0.30029120  0.78543561  0.12734019  1
  O  O7  1  0.69969678  0.71455681  0.62734167  1
  O  O8  1  0.27783428  0.80636397  0.88099025  1
  O  O9  1  0.72216953  0.69363506  0.38098952  1
  O  O10  1  0.72216453  0.19364185  0.11900828  1
  O  O11  1  0.27782722  0.30635585  0.61900685  1
loop_
_geom_bond_atom_site_label_1
_geom_bond_atom_site_label_2
_geom_bond_distance
_geom_bond_site_symmetry_2
K0 O2 2.675358 1_556
K0 O10 2.709696 1_566
K0 O4 2.740330 1_565
K0 O8 2.761067 1_555
K0 O6 2.818807 1_556
K1 O3 2.675440 1_555
K1 O11 2.709792 1_555
K1 O5 2.740503 1_555
K1 O9 2.760973 1_555
K1 O7 2.818593 1_555
K2 O0 2.675523 1_554
K2 O8 2.709980 1_544
K2 O6 2.740371 1_545
K2 O10 2.760763 1_555
K2 O4 2.818714 1_554
K3 O1 2.675524 1_555
K3 O9 2.709895 1_555
K3 O7 2.740387 1_555
K3 O11 2.760873 1_555
K3 O5 2.818705 1_555
K4 O9 2.604544 1_555
K4 O6 2.690309 1_555
K4 O5 2.723663 1_555
K4 O10 2.770233 1_555
K4 O2 2.886892 1_555
K5 O8 2.604638 1_555
K5 O7 2.690367 1_555
K5 O4 2.723415 1_565
K5 O11 2.770218 1_565
K5 O3 2.887144 1_555
K6 O11 2.604700 1_555
K6 O4 2.690478 1_555
K6 O7 2.723435 1_555
K6 O8 2.770045 1_555
K6 O0 2.886903 1_555
K7 O10 2.604745 1_555
K7 O5 2.690394 1_555
K7 O6 2.723673 1_545
K7 O9 2.770025 1_545
K7 O1 2.886743 1_555
K8 O7 2.645087 1_455
K8 O0 2.650743 1_555
K8 O3 2.790533 1_555
K8 O8 2.811438 1_555
K8 O11 2.871607 1_555
K9 O6 2.645074 1_655
K9 O1 2.650708 1_565
K9 O2 2.790608 1_555
K9 O9 2.811400 1_555
K9 O10 2.871603 1_565
K10 O5 2.645172 1_655
K10 O2 2.650761 1_555
K10 O1 2.790639 1_555
K10 O10 2.811265 1_555
K10 O9 2.871605 1_555
K11 O4 2.645212 1_455
K11 O3 2.650681 1_545
K11 O0 2.790663 1_555
K11 O11 2.811370 1_555
K11 O8 2.871502 1_545
Mn0 O11 1.842894 1_555
Mn0 O5 1.848672 1_555
Mn0 O1 1.944955 1_455
Mn0 O3 1.945075 1_545
Mn1 O8 1.842798 1_554
Mn1 O6 1.848738 1_555
Mn1 O2 1.945005 1_455
Mn1 O0 1.945043 1_554
Mn2 O10 1.842909 1_556
Mn2 O4 1.848654 1_555
Mn2 O0 1.944952 1_655
Mn2 O2 1.945045 1_556
Mn3 O9 1.842791 1_555
Mn3 O7 1.848815 1_555
Mn3 O3 1.944937 1_655
Mn3 O1 1.944980 1_565
