# generated using pymatgen
data_Sn(Mo3S4)2
_symmetry_space_group_name_H-M   'P 1'
_cell_length_a   6.58066409
_cell_length_b   6.58066409
_cell_length_c   6.58066353
_cell_angle_alpha   89.52661891
_cell_angle_beta   89.52661891
_cell_angle_gamma   89.52662098
_symmetry_Int_Tables_number   1
_chemical_formula_structural   Sn(Mo3S4)2
_chemical_formula_sum   'Sn1 Mo6 S8'
_cell_volume   284.94753534
_cell_formula_units_Z   1
loop_
 _symmetry_equiv_pos_site_id
 _symmetry_equiv_pos_as_xyz
  1  'x, y, z'
loop_
 _atom_site_type_symbol
 _atom_site_label
 _atom_site_symmetry_multiplicity
 _atom_site_fract_x
 _atom_site_fract_y
 _atom_site_fract_z
 _atom_site_occupancy
  Sn  Sn0  1  0.00000000  0.00000000  0.00000000  1
  Mo  Mo0  1  0.77422100  0.58509500  0.43850200  1
  Mo  Mo1  1  0.43850200  0.77422100  0.58509500  1
  Mo  Mo2  1  0.58509500  0.43850200  0.77422100  1
  Mo  Mo3  1  0.22577900  0.41490500  0.56149800  1
  Mo  Mo4  1  0.56149800  0.22577900  0.41490500  1
  Mo  Mo5  1  0.41490500  0.56149800  0.22577900  1
  S  S0  1  0.75845400  0.75845400  0.75845400  1
  S  S1  1  0.24154600  0.24154600  0.24154600  1
  S  S2  1  0.25945300  0.61960900  0.87299800  1
  S  S3  1  0.87299800  0.25945300  0.61960900  1
  S  S4  1  0.61960900  0.87299800  0.25945300  1
  S  S5  1  0.74054700  0.38039100  0.12700200  1
  S  S6  1  0.12700200  0.74054700  0.38039100  1
  S  S7  1  0.38039100  0.12700200  0.74054700  1
loop_
_geom_bond_atom_site_label_1
_geom_bond_atom_site_label_2
_geom_bond_distance
_geom_bond_site_symmetry_2
Mo0 S0 2.404053 1_555
Mo0 S4 2.442142 1_555
Mo0 S5 2.474634 1_555
Mo0 S3 2.526400 1_555
Mo0 S6 2.569114 1_655
Mo1 S0 2.404053 1_555
Mo1 S2 2.442142 1_555
Mo1 S6 2.474634 1_555
Mo1 S4 2.526400 1_555
Mo1 S7 2.569114 1_565
Mo2 S0 2.404053 1_555
Mo2 S3 2.442142 1_555
Mo2 S7 2.474634 1_555
Mo2 S2 2.526400 1_555
Mo2 S5 2.569113 1_556
Mo3 S1 2.404053 1_555
Mo3 S7 2.442142 1_555
Mo3 S2 2.474634 1_555
Mo3 S6 2.526400 1_555
Mo3 S3 2.569114 1_455
Mo4 S1 2.404053 1_555
Mo4 S5 2.442142 1_555
Mo4 S3 2.474634 1_555
Mo4 S7 2.526400 1_555
Mo4 S4 2.569114 1_545
Mo5 S1 2.404053 1_555
Mo5 S6 2.442142 1_555
Mo5 S4 2.474634 1_555
Mo5 S5 2.526400 1_555
Mo5 S2 2.569113 1_554
S0 Sn0 2.775805 1_666
S1 Sn0 2.775805 1_555
S2 Sn0 3.133707 1_566
S3 Sn0 3.133707 1_656
S4 Sn0 3.133707 1_665
S5 Sn0 3.133707 1_655
S6 Sn0 3.133707 1_565
S7 Sn0 3.133707 1_556
