# generated using pymatgen
data_V2CoH4C4(NO3)2
_symmetry_space_group_name_H-M   'P 1'
_cell_length_a   7.63864400
_cell_length_b   10.50623300
_cell_length_c   11.69994000
_cell_angle_alpha   90.00000000
_cell_angle_beta   90.00000000
_cell_angle_gamma   90.00000000
_symmetry_Int_Tables_number   1
_chemical_formula_structural   V2CoH4C4(NO3)2
_chemical_formula_sum   'V8 Co4 H16 C16 N8 O24'
_cell_volume   938.95965671
_cell_formula_units_Z   4
loop_
 _symmetry_equiv_pos_site_id
 _symmetry_equiv_pos_as_xyz
  1  'x, y, z'
loop_
 _atom_site_type_symbol
 _atom_site_label
 _atom_site_symmetry_multiplicity
 _atom_site_fract_x
 _atom_site_fract_y
 _atom_site_fract_z
 _atom_site_occupancy
  V  V0  1  0.40423200  0.77207100  0.35215900  1
  V  V1  1  0.09576800  0.72792900  0.85215900  1
  V  V2  1  0.09576800  0.77207100  0.14784100  1
  V  V3  1  0.90423200  0.22792900  0.85215900  1
  V  V4  1  0.40423200  0.72792900  0.64784100  1
  V  V5  1  0.90423200  0.27207100  0.14784100  1
  V  V6  1  0.59576800  0.22792900  0.64784100  1
  V  V7  1  0.59576800  0.27207100  0.35215900  1
  Co  Co0  1  0.75000000  0.56711700  0.25000000  1
  Co  Co1  1  0.75000000  0.93288300  0.75000000  1
  Co  Co2  1  0.25000000  0.06711700  0.25000000  1
  Co  Co3  1  0.25000000  0.43288300  0.75000000  1
  H  H0  1  0.28161200  0.10676600  0.50928700  1
  H  H1  1  0.37380400  0.46626300  0.18784400  1
  H  H2  1  0.78161200  0.60676600  0.99071300  1
  H  H3  1  0.12619600  0.46626300  0.31215600  1
  H  H4  1  0.62619600  0.53373700  0.81215600  1
  H  H5  1  0.37380400  0.03373700  0.81215600  1
  H  H6  1  0.87380400  0.96626300  0.31215600  1
  H  H7  1  0.28161200  0.39323400  0.49071300  1
  H  H8  1  0.62619600  0.96626300  0.18784400  1
  H  H9  1  0.21838800  0.10676600  0.99071300  1
  H  H10  1  0.87380400  0.53373700  0.68784400  1
  H  H11  1  0.71838800  0.89323400  0.49071300  1
  H  H12  1  0.21838800  0.39323400  0.00928700  1
  H  H13  1  0.12619600  0.03373700  0.68784400  1
  H  H14  1  0.78161200  0.89323400  0.00928700  1
  H  H15  1  0.71838800  0.60676600  0.50928700  1
  C  C0  1  0.65527300  0.94085100  0.00512400  1
  C  C1  1  0.42982400  0.48202800  0.10367800  1
  C  C2  1  0.34472700  0.05914900  0.99487600  1
  C  C3  1  0.57017600  0.51797200  0.89632200  1
  C  C4  1  0.42982400  0.01797200  0.89632200  1
  C  C5  1  0.34472700  0.44085100  0.00512400  1
  C  C6  1  0.15527300  0.44085100  0.49487600  1
  C  C7  1  0.65527300  0.55914900  0.99487600  1
  C  C8  1  0.07017600  0.48202800  0.39632200  1
  C  C9  1  0.92982400  0.51797200  0.60367800  1
  C  C10  1  0.57017600  0.98202800  0.10367800  1
  C  C11  1  0.92982400  0.98202800  0.39632200  1
  C  C12  1  0.07017600  0.01797200  0.60367800  1
  C  C13  1  0.84472700  0.55914900  0.50512400  1
  C  C14  1  0.15527300  0.05914900  0.50512400  1
  C  C15  1  0.84472700  0.94085100  0.49487600  1
  N  N0  1  0.41427800  0.45878600  0.90102900  1
  N  N1  1  0.08572200  0.04121400  0.40102900  1
  N  N2  1  0.91427800  0.54121400  0.40102900  1
  N  N3  1  0.58572200  0.95878600  0.90102900  1
  N  N4  1  0.58572200  0.54121400  0.09897100  1
  N  N5  1  0.41427800  0.04121400  0.09897100  1
  N  N6  1  0.91427800  0.95878600  0.59897100  1
  N  N7  1  0.08572200  0.45878600  0.59897100  1
  O  O0  1  0.91090100  0.42972900  0.17416300  1
  O  O1  1  0.25000000  0.70499900  0.25000000  1
  O  O2  1  0.75000000  0.29500100  0.75000000  1
  O  O3  1  0.60311100  0.79264500  0.67069200  1
  O  O4  1  0.66426000  0.25000000  0.50000000  1
  O  O5  1  0.16426000  0.75000000  0.00000000  1
  O  O6  1  0.41090100  0.92972900  0.32583700  1
  O  O7  1  0.83574000  0.25000000  0.00000000  1
  O  O8  1  0.60311100  0.70735500  0.32930800  1
  O  O9  1  0.25000000  0.79500100  0.75000000  1
  O  O10  1  0.39688900  0.29264500  0.67069200  1
  O  O11  1  0.58909900  0.42972900  0.32583700  1
  O  O12  1  0.41090100  0.57027100  0.67416300  1
  O  O13  1  0.89688900  0.70735500  0.17069200  1
  O  O14  1  0.08909900  0.92972900  0.17416300  1
  O  O15  1  0.39688900  0.20735500  0.32930800  1
  O  O16  1  0.91090100  0.07027100  0.82583700  1
  O  O17  1  0.10311100  0.29264500  0.82930800  1
  O  O18  1  0.75000000  0.20499900  0.25000000  1
  O  O19  1  0.89688900  0.79264500  0.82930800  1
  O  O20  1  0.08909900  0.57027100  0.82583700  1
  O  O21  1  0.58909900  0.07027100  0.67416300  1
  O  O22  1  0.10311100  0.20735500  0.17069200  1
  O  O23  1  0.33574000  0.75000000  0.50000000  1
loop_
_geom_bond_atom_site_label_1
_geom_bond_atom_site_label_2
_geom_bond_distance
_geom_bond_site_symmetry_2
Co0 O8 2.071420 1_555
Co0 O13 2.071420 1_555
Co0 O11 2.093173 1_555
Co0 O0 2.093173 1_555
Co0 N2 2.184293 1_555
Co0 N4 2.184293 1_555
Co1 O19 2.071420 1_555
Co1 O3 2.071420 1_555
Co1 O16 2.093173 1_565
Co1 O21 2.093173 1_565
Co1 N3 2.184293 1_555
Co1 N6 2.184293 1_555
Co2 O15 2.071420 1_555
Co2 O22 2.071420 1_555
Co2 O6 2.093173 1_545
Co2 O14 2.093173 1_545
Co2 N1 2.184293 1_555
Co2 N5 2.184293 1_555
Co3 O17 2.071420 1_555
Co3 O10 2.071420 1_555
Co3 O20 2.093173 1_555
Co3 O12 2.093173 1_555
Co3 N0 2.184293 1_555
Co3 N7 2.184293 1_555
C0 H14 1.088111 1_555
C0 N3 1.342033 1_554
C1 H1 1.086395 1_555
C1 N4 1.344551 1_555
C2 H9 1.088111 1_555
C2 N5 1.342033 1_556
C3 H4 1.086395 1_555
C3 N0 1.344551 1_555
C4 H5 1.086395 1_555
C4 N3 1.344551 1_545
C5 H12 1.088111 1_555
C5 N0 1.342033 1_554
C6 H7 1.088111 1_555
C6 N7 1.342033 1_555
C7 H2 1.088111 1_555
C7 N4 1.342033 1_556
C8 H3 1.086395 1_555
C8 N2 1.344551 1_455
C9 H10 1.086395 1_555
C9 N7 1.344551 1_655
C10 H8 1.086395 1_555
C10 N5 1.344551 1_565
C11 H6 1.086395 1_555
C11 N1 1.344551 1_665
C12 H13 1.086395 1_555
C12 N6 1.344551 1_445
C13 H15 1.088111 1_555
C13 N2 1.342033 1_555
C14 H0 1.088111 1_555
C14 N1 1.342033 1_555
C15 H11 1.088111 1_555
C15 N6 1.342033 1_555
O0 V5 1.685548 1_555
O1 V0 1.820212 1_555
O1 V2 1.820212 1_555
O2 V3 1.820212 1_555
O2 V6 1.820212 1_555
O3 V4 1.685716 1_555
O4 V7 1.821939 1_555
O4 V6 1.821939 1_555
O5 V2 1.821939 1_555
O5 V1 1.821939 1_554
O6 V0 1.685548 1_555
O7 V3 1.821939 1_554
O7 V5 1.821939 1_555
O8 V0 1.685716 1_555
O9 V4 1.820212 1_555
O9 V1 1.820212 1_555
O10 V6 1.685716 1_555
O11 V7 1.685548 1_555
O12 V4 1.685548 1_555
O13 V2 1.685716 1_655
O14 V2 1.685548 1_555
O15 V7 1.685716 1_555
O16 V3 1.685548 1_555
O17 V3 1.685716 1_455
O18 V5 1.820212 1_555
O18 V7 1.820212 1_555
O19 V1 1.685716 1_655
O20 V1 1.685548 1_555
O21 V6 1.685548 1_555
O22 V5 1.685716 1_455
O23 V0 1.821939 1_555
O23 V4 1.821939 1_555
