# generated using pymatgen
data_SiI2
_symmetry_space_group_name_H-M   'P 1'
_cell_length_a   17.01716300
_cell_length_b   11.59220700
_cell_length_c   17.28583902
_cell_angle_alpha   60.17006770
_cell_angle_beta   90.00000000
_cell_angle_gamma   90.00000000
_symmetry_Int_Tables_number   1
_chemical_formula_structural   SiI2
_chemical_formula_sum   'Si20 I40'
_cell_volume   2958.12206664
_cell_formula_units_Z   20
loop_
 _symmetry_equiv_pos_site_id
 _symmetry_equiv_pos_as_xyz
  1  'x, y, z'
loop_
 _atom_site_type_symbol
 _atom_site_label
 _atom_site_symmetry_multiplicity
 _atom_site_fract_x
 _atom_site_fract_y
 _atom_site_fract_z
 _atom_site_occupancy
  Si  Si0  1  0.82635200  0.43823500  0.46071500  1
  Si  Si1  1  0.32635200  0.56176500  0.03928500  1
  Si  Si2  1  0.17364800  0.56176500  0.53928500  1
  Si  Si3  1  0.67364800  0.43823500  0.96071500  1
  Si  Si4  1  0.68454100  0.43879300  0.46532500  1
  Si  Si5  1  0.18454100  0.56120700  0.03467500  1
  Si  Si6  1  0.31545900  0.56120700  0.53467500  1
  Si  Si7  1  0.81545900  0.43879300  0.96532500  1
  Si  Si8  1  0.64559000  0.23108600  0.48066800  1
  Si  Si9  1  0.14559000  0.76891400  0.01933200  1
  Si  Si10  1  0.35441000  0.76891400  0.51933200  1
  Si  Si11  1  0.85441000  0.23108600  0.98066800  1
  Si  Si12  1  0.74588700  0.08010700  0.56865500  1
  Si  Si13  1  0.24588700  0.91989300  0.93134500  1
  Si  Si14  1  0.25411300  0.91989300  0.43134500  1
  Si  Si15  1  0.75411300  0.08010700  0.06865500  1
  Si  Si16  1  0.86515500  0.20759800  0.52077600  1
  Si  Si17  1  0.36515500  0.79240200  0.97922400  1
  Si  Si18  1  0.13484500  0.79240200  0.47922400  1
  Si  Si19  1  0.63484500  0.20759800  0.02077600  1
  I  I0  1  0.87132100  0.57404200  0.30551600  1
  I  I1  1  0.37132100  0.42595800  0.19448400  1
  I  I2  1  0.12867900  0.42595800  0.69448400  1
  I  I3  1  0.62867900  0.57404200  0.80551600  1
  I  I4  1  0.88020000  0.52911100  0.55158300  1
  I  I5  1  0.38020000  0.47088900  0.94841700  1
  I  I6  1  0.11980000  0.47088900  0.44841700  1
  I  I7  1  0.61980000  0.52911100  0.05158300  1
  I  I8  1  0.64139100  0.44412800  0.59944300  1
  I  I9  1  0.14139100  0.55587200  0.90055700  1
  I  I10  1  0.35860900  0.55587200  0.40055700  1
  I  I11  1  0.85860900  0.44412800  0.09944300  1
  I  I12  1  0.62763100  0.62645800  0.33074000  1
  I  I13  1  0.12763100  0.37354200  0.16926000  1
  I  I14  1  0.37236900  0.37354200  0.66926000  1
  I  I15  1  0.87236900  0.62645800  0.83074000  1
  I  I16  1  0.65493400  0.25469100  0.33126000  1
  I  I17  1  0.15493400  0.74530900  0.16874000  1
  I  I18  1  0.34506600  0.74530900  0.66874000  1
  I  I19  1  0.84506600  0.25469100  0.83126000  1
  I  I20  1  0.51342300  0.16084900  0.54415100  1
  I  I21  1  0.01342300  0.83915100  0.95584900  1
  I  I22  1  0.48657700  0.83915100  0.45584900  1
  I  I23  1  0.98657700  0.16084900  0.04415100  1
  I  I24  1  0.72048900  0.01794700  0.72496900  1
  I  I25  1  0.22048900  0.98205300  0.77503100  1
  I  I26  1  0.27951100  0.98205300  0.27503100  1
  I  I27  1  0.77951100  0.01794700  0.22496900  1
  I  I28  1  0.75108500  0.88123400  0.55196300  1
  I  I29  1  0.25108500  0.11876600  0.94803700  1
  I  I30  1  0.24891500  0.11876600  0.44803700  1
  I  I31  1  0.74891500  0.88123400  0.05196300  1
  I  I32  1  0.92519600  0.17639700  0.40281600  1
  I  I33  1  0.42519600  0.82360300  0.09718400  1
  I  I34  1  0.07480400  0.82360300  0.59718400  1
  I  I35  1  0.57480400  0.17639700  0.90281600  1
  I  I36  1  0.95735000  0.13263200  0.64671600  1
  I  I37  1  0.45735000  0.86736800  0.85328400  1
  I  I38  1  0.04265000  0.86736800  0.35328400  1
  I  I39  1  0.54265000  0.13263200  0.14671600  1
loop_
_geom_bond_atom_site_label_1
_geom_bond_atom_site_label_2
_geom_bond_distance
_geom_bond_site_symmetry_2
Si0 Si4 2.414651 1_555
Si0 Si16 2.429100 1_555
Si1 Si5 2.414651 1_555
Si1 Si17 2.429100 1_554
Si2 Si6 2.414651 1_555
Si3 Si7 2.414651 1_555
Si4 Si8 2.381556 1_555
Si5 Si9 2.381556 1_555
Si10 Si14 2.375125 1_555
Si10 Si6 2.381556 1_555
Si11 Si15 2.375125 1_556
Si11 Si7 2.381556 1_555
Si12 Si8 2.375125 1_555
Si12 Si16 2.402414 1_555
Si13 Si9 2.375125 1_556
Si13 Si17 2.402414 1_555
Si14 Si18 2.402414 1_555
Si15 Si19 2.402414 1_555
Si18 Si2 2.429100 1_555
Si19 Si3 2.429100 1_554
I0 Si0 2.461591 1_555
I1 Si1 2.461591 1_555
I2 Si2 2.461591 1_555
I3 Si3 2.461591 1_555
I4 Si0 2.462278 1_555
I5 Si1 2.462278 1_556
I6 Si2 2.462278 1_555
I7 Si3 2.462278 1_554
I8 Si4 2.461779 1_555
I9 Si5 2.461779 1_556
I10 Si6 2.461779 1_555
I11 Si7 2.461779 1_554
I12 Si4 2.459212 1_555
I13 Si5 2.459212 1_555
I14 Si6 2.459212 1_555
I15 Si7 2.459212 1_555
I16 Si8 2.463156 1_555
I17 Si9 2.463156 1_555
I18 Si10 2.463156 1_555
I19 Si11 2.463156 1_555
I20 Si8 2.456975 1_555
I21 Si9 2.456975 1_556
I22 Si10 2.456975 1_555
I23 Si11 2.456975 1_554
I24 Si12 2.463726 1_555
I25 Si13 2.463726 1_555
I26 Si14 2.463726 1_555
I27 Si15 2.463726 1_555
I28 Si12 2.463250 1_565
I29 Si13 2.463250 1_545
I30 Si14 2.463250 1_545
I31 Si15 2.463250 1_565
I32 Si16 2.462950 1_555
I33 Si17 2.462950 1_554
I34 Si18 2.462950 1_555
I35 Si19 2.462950 1_556
I36 Si16 2.464501 1_555
I37 Si17 2.464501 1_555
I38 Si18 2.464501 1_555
I39 Si19 2.464501 1_555
