# generated using pymatgen
data_Sm3CuSiSe7
_symmetry_space_group_name_H-M   'P 1'
_cell_length_a   10.54698840
_cell_length_b   10.54698840
_cell_length_c   6.03637800
_cell_angle_alpha   90.00000000
_cell_angle_beta   90.00000000
_cell_angle_gamma   120.00000249
_symmetry_Int_Tables_number   1
_chemical_formula_structural   Sm3CuSiSe7
_chemical_formula_sum   'Sm6 Cu2 Si2 Se14'
_cell_volume   581.51910159
_cell_formula_units_Z   2
loop_
 _symmetry_equiv_pos_site_id
 _symmetry_equiv_pos_as_xyz
  1  'x, y, z'
loop_
 _atom_site_type_symbol
 _atom_site_label
 _atom_site_symmetry_multiplicity
 _atom_site_fract_x
 _atom_site_fract_y
 _atom_site_fract_z
 _atom_site_occupancy
  Sm  Sm0  1  0.64503900  0.77212500  0.74153300  1
  Sm  Sm1  1  0.22787500  0.87291400  0.74153300  1
  Sm  Sm2  1  0.35496100  0.22787500  0.24153300  1
  Sm  Sm3  1  0.87291400  0.64503900  0.24153300  1
  Sm  Sm4  1  0.12708600  0.35496100  0.74153300  1
  Sm  Sm5  1  0.77212500  0.12708600  0.24153300  1
  Cu  Cu0  1  0.00000000  0.00000000  0.72281900  1
  Cu  Cu1  1  0.00000000  0.00000000  0.22281900  1
  Si  Si0  1  0.66666700  0.33333300  0.82950300  1
  Si  Si1  1  0.33333300  0.66666700  0.32950300  1
  Se  Se0  1  0.89560600  0.41644900  0.98161100  1
  Se  Se1  1  0.66666700  0.33333300  0.45376300  1
  Se  Se2  1  0.90789400  0.74262000  0.72662400  1
  Se  Se3  1  0.83472600  0.09210600  0.72662400  1
  Se  Se4  1  0.33333300  0.66666700  0.95376300  1
  Se  Se5  1  0.25738000  0.16527400  0.72662400  1
  Se  Se6  1  0.41644900  0.52084300  0.48161100  1
  Se  Se7  1  0.74262000  0.83472600  0.22662400  1
  Se  Se8  1  0.09210600  0.25738000  0.22662400  1
  Se  Se9  1  0.47915700  0.89560600  0.48161100  1
  Se  Se10  1  0.58355100  0.47915700  0.98161100  1
  Se  Se11  1  0.16527400  0.90789400  0.22662400  1
  Se  Se12  1  0.52084300  0.10439400  0.98161100  1
  Se  Se13  1  0.10439400  0.58355100  0.48161100  1
loop_
_geom_bond_atom_site_label_1
_geom_bond_atom_site_label_2
_geom_bond_distance
_geom_bond_site_symmetry_2
Cu0 Se5 2.382464 1_555
Cu0 Se2 2.382464 1_445
Cu0 Se3 2.382464 1_455
Cu1 Se7 2.382464 1_445
Cu1 Se8 2.382464 1_555
Cu1 Se11 2.382464 1_545
Se0 Si0 2.307637 1_555
Se0 Sm3 2.984733 1_556
Se0 Sm5 3.081773 1_556
Se0 Sm4 3.172469 1_655
Se1 Si0 2.268109 1_555
Se1 Sm5 3.166971 1_555
Se1 Sm3 3.166978 1_555
Se1 Sm2 3.166980 1_555
Se2 Sm1 2.940805 1_655
Se2 Sm0 2.941677 1_555
Se2 Sm3 3.064302 1_555
Se2 Sm3 3.236734 1_556
Se3 Sm0 2.940805 1_545
Se3 Sm4 2.941677 1_655
Se3 Sm5 3.064302 1_555
Se3 Sm5 3.236734 1_556
Se4 Si1 2.268109 1_556
Se4 Sm1 3.166971 1_555
Se4 Sm4 3.166978 1_555
Se4 Sm0 3.166980 1_555
Se5 Sm4 2.940806 1_555
Se5 Sm1 2.941677 1_545
Se5 Sm2 3.064302 1_555
Se5 Sm2 3.236734 1_556
Se6 Si1 2.307647 1_555
Se6 Sm0 2.984733 1_555
Se6 Sm4 3.081773 1_555
Se6 Sm2 3.172469 1_555
Se7 Sm3 2.940806 1_555
Se7 Sm5 2.941677 1_565
Se7 Sm0 3.064302 1_554
Se7 Sm0 3.236734 1_555
Se8 Sm5 2.940805 1_455
Se8 Sm2 2.941677 1_555
Se8 Sm4 3.064302 1_554
Se8 Sm4 3.236734 1_555
Se9 Si1 2.307639 1_555
Se9 Sm1 2.984733 1_555
Se9 Sm0 3.081773 1_555
Se9 Sm5 3.172469 1_565
Se10 Si0 2.307647 1_555
Se10 Sm2 2.984733 1_556
Se10 Sm3 3.081773 1_556
Se10 Sm0 3.172469 1_555
Se11 Sm2 2.940805 1_565
Se11 Sm3 2.941677 1_455
Se11 Sm1 3.064302 1_554
Se11 Sm1 3.236734 1_555
Se12 Si0 2.307639 1_555
Se12 Sm5 2.984733 1_556
Se12 Sm2 3.081773 1_556
Se12 Sm1 3.172469 1_545
Se13 Si1 2.307637 1_555
Se13 Sm4 2.984733 1_555
Se13 Sm1 3.081773 1_555
Se13 Sm3 3.172469 1_455
