# generated using pymatgen
data_La23Mg4Ni7
_symmetry_space_group_name_H-M   'P 1'
_cell_length_a   10.11457703
_cell_length_b   10.11457744
_cell_length_c   22.88769203
_cell_angle_alpha   90.00000000
_cell_angle_beta   90.00000000
_cell_angle_gamma   119.99999863
_symmetry_Int_Tables_number   1
_chemical_formula_structural   La23Mg4Ni7
_chemical_formula_sum   'La46 Mg8 Ni14'
_cell_volume   2027.81396085
_cell_formula_units_Z   2
loop_
 _symmetry_equiv_pos_site_id
 _symmetry_equiv_pos_as_xyz
  1  'x, y, z'
loop_
 _atom_site_type_symbol
 _atom_site_label
 _atom_site_symmetry_multiplicity
 _atom_site_fract_x
 _atom_site_fract_y
 _atom_site_fract_z
 _atom_site_occupancy
  La  La0  1  0.45799925  0.91599849  0.85547838  1
  La  La1  1  0.92105218  0.46052609  0.08671924  1
  La  La2  1  0.87191617  0.74383234  0.63153085  1
  La  La3  1  0.74383234  0.87191617  0.13153085  1
  La  La4  1  0.20637409  0.79362591  0.71923590  1
  La  La5  1  0.00000000  0.00000000  0.99828337  1
  La  La6  1  0.91599849  0.45799925  0.35547838  1
  La  La7  1  0.54200075  0.45799925  0.35547838  1
  La  La8  1  0.78728141  0.57456281  0.49341323  1
  La  La9  1  0.41159478  0.20579739  0.78177192  1
  La  La10  1  0.41340112  0.20670056  0.94823953  1
  La  La11  1  0.79329944  0.20670056  0.94823953  1
  La  La12  1  0.79362591  0.20637409  0.21923590  1
  La  La13  1  0.42543719  0.21271859  0.49341323  1
  La  La14  1  0.46052609  0.92105218  0.58671924  1
  La  La15  1  0.53947391  0.07894782  0.08671924  1
  La  La16  1  0.57456281  0.78728141  0.99341323  1
  La  La17  1  0.66666700  0.33333300  0.64593090  1
  La  La18  1  0.20670056  0.79329944  0.44823953  1
  La  La19  1  0.07894782  0.53947391  0.58671924  1
  La  La20  1  0.46052609  0.53947391  0.58671924  1
  La  La21  1  0.79420261  0.20579739  0.78177192  1
  La  La22  1  0.00000000  0.00000000  0.49828337  1
  La  La23  1  0.79420261  0.58840522  0.78177192  1
  La  La24  1  0.33333300  0.66666700  0.14593090  1
  La  La25  1  0.21271859  0.78728141  0.99341323  1
  La  La26  1  0.58840522  0.79420261  0.28177192  1
  La  La27  1  0.58725182  0.79362591  0.71923590  1
  La  La28  1  0.41274818  0.20637409  0.21923590  1
  La  La29  1  0.20637409  0.41274818  0.71923590  1
  La  La30  1  0.20579739  0.41159478  0.28177192  1
  La  La31  1  0.20579739  0.79420261  0.28177192  1
  La  La32  1  0.25616766  0.12808383  0.63153085  1
  La  La33  1  0.79329944  0.58659888  0.94823953  1
  La  La34  1  0.20670056  0.41340112  0.44823953  1
  La  La35  1  0.21271859  0.42543719  0.99341323  1
  La  La36  1  0.12808383  0.25616766  0.13153085  1
  La  La37  1  0.54200075  0.08400151  0.35547838  1
  La  La38  1  0.53947391  0.46052609  0.08671924  1
  La  La39  1  0.12808383  0.87191617  0.13153085  1
  La  La40  1  0.45799925  0.54200075  0.85547838  1
  La  La41  1  0.08400151  0.54200075  0.85547838  1
  La  La42  1  0.87191617  0.12808383  0.63153085  1
  La  La43  1  0.58659888  0.79329944  0.44823953  1
  La  La44  1  0.78728141  0.21271859  0.49341323  1
  La  La45  1  0.79362591  0.58725182  0.21923590  1
  Mg  Mg0  1  0.10503791  0.89496209  0.86299414  1
  Mg  Mg1  1  0.10503791  0.21007582  0.86299414  1
  Mg  Mg2  1  0.89496209  0.78992418  0.36299414  1
  Mg  Mg3  1  0.00000000  0.00000000  0.74942598  1
  Mg  Mg4  1  0.21007582  0.10503791  0.36299414  1
  Mg  Mg5  1  0.89496209  0.10503791  0.36299414  1
  Mg  Mg6  1  0.00000000  0.00000000  0.24942598  1
  Mg  Mg7  1  0.78992418  0.89496209  0.86299414  1
  Ni  Ni0  1  0.33333300  0.66666700  0.36371265  1
  Ni  Ni1  1  0.14325575  0.85674425  0.56281002  1
  Ni  Ni2  1  0.48018689  0.96037378  0.21224250  1
  Ni  Ni3  1  0.51981311  0.03962622  0.71224250  1
  Ni  Ni4  1  0.28651150  0.14325575  0.06281002  1
  Ni  Ni5  1  0.14325575  0.28651150  0.56281002  1
  Ni  Ni6  1  0.03962622  0.51981311  0.21224250  1
  Ni  Ni7  1  0.66666700  0.33333300  0.86371265  1
  Ni  Ni8  1  0.85674425  0.14325575  0.06281002  1
  Ni  Ni9  1  0.51981311  0.48018689  0.71224250  1
  Ni  Ni10  1  0.96037378  0.48018689  0.71224250  1
  Ni  Ni11  1  0.71348850  0.85674425  0.56281002  1
  Ni  Ni12  1  0.85674425  0.71348850  0.06281002  1
  Ni  Ni13  1  0.48018689  0.51981311  0.21224250  1
loop_
_geom_bond_atom_site_label_1
_geom_bond_atom_site_label_2
_geom_bond_distance
_geom_bond_site_symmetry_2
La0 Ni3 3.452566 1_565
La0 Mg7 3.472828 1_555
La0 Mg0 3.472828 1_555
La0 La21 3.610243 1_565
La0 La9 3.610243 1_565
La0 Ni7 3.660489 1_565
La0 La40 3.782829 1_555
La0 La41 3.782829 1_555
La0 La27 3.818761 1_555
La0 La4 3.818761 1_555
La0 La16 3.819251 1_555
La0 La25 3.819251 1_555
La0 La11 3.831824 1_565
La0 La10 3.831824 1_565
La1 Ni12 2.988855 1_555
La1 Ni8 2.988855 1_555
La1 Ni6 3.054924 1_655
La1 La35 3.799549 1_654
La1 La25 3.799549 1_654
La2 Ni11 2.859375 1_555
La2 Ni1 2.859375 1_655
La2 La8 3.491645 1_555
La2 Mg3 3.509437 1_665
La2 Ni10 3.702704 1_555
La2 Ni9 3.702704 1_555
La3 Ni12 2.859375 1_555
La3 Ni8 2.859375 1_565
La3 Mg6 3.509437 1_665
La3 Ni2 3.702704 1_555
La3 Ni13 3.702704 1_555
La4 Ni3 2.894687 1_565
La4 Ni10 2.894687 1_455
La4 Mg3 3.680897 1_565
La4 Mg0 3.738682 1_555
La4 La41 3.818761 1_555
La5 Ni8 2.911990 1_456
La5 Ni4 2.911990 1_556
La5 Ni12 2.911990 1_446
La5 Mg0 3.601975 1_545
La5 Mg7 3.601975 1_445
La5 Mg1 3.601975 1_555
La6 Ni6 3.452566 1_655
La6 Mg2 3.472829 1_555
La6 Mg5 3.472829 1_555
La6 Ni0 3.660488 1_655
La6 La7 3.782829 1_555
La6 La8 3.819251 1_555
La7 Ni13 3.452566 1_555
La7 Mg2 3.472829 1_555
La7 Mg4 3.472829 1_555
La7 Ni0 3.660497 1_555
La7 La8 3.819251 1_555
La8 Mg2 3.531131 1_555
La8 Ni1 3.654631 1_655
La8 Ni11 3.654631 1_555
La9 Ni3 2.897449 1_555
La9 Ni9 2.897449 1_555
La9 Ni7 2.917079 1_555
La9 Mg1 3.634032 1_555
La9 Mg0 3.634033 1_545
La9 Mg3 3.680581 1_555
La10 Ni4 2.848091 1_556
La10 Ni7 2.943538 1_555
La10 Mg1 3.693542 1_555
La10 Mg0 3.693542 1_545
La10 La35 3.817699 1_555
La10 La25 3.817699 1_545
La10 La40 3.831824 1_555
La11 Ni8 2.848091 1_556
La11 Ni7 2.943532 1_555
La11 Mg1 3.693542 1_655
La11 Mg7 3.693542 1_545
La11 La35 3.817699 1_655
La11 La16 3.817699 1_545
La11 La41 3.831824 1_655
La12 Ni2 2.894687 1_545
La12 Ni6 2.894687 1_655
La12 Mg6 3.680897 1_655
La12 Mg5 3.738682 1_555
La12 La37 3.818761 1_555
La12 La6 3.818761 1_555
La13 La32 3.491645 1_555
La13 Mg4 3.531131 1_555
La13 Ni5 3.654631 1_555
La13 Ni1 3.654631 1_545
La13 La44 3.659901 1_555
La13 La8 3.659901 1_555
La13 La22 3.728276 1_555
La13 La14 3.799549 1_545
La13 La20 3.799549 1_555
La13 La34 3.817699 1_555
La13 La18 3.817699 1_545
La13 La37 3.819251 1_555
La13 La7 3.819251 1_555
La13 La17 4.080502 1_555
La14 Ni11 2.988855 1_555
La14 Ni1 2.988855 1_555
La14 Ni3 3.054924 1_565
La14 La44 3.799549 1_565
La15 Ni4 2.988855 1_555
La15 Ni8 2.988855 1_555
La15 Ni2 3.054924 1_545
La15 La16 3.799549 1_544
La15 La25 3.799549 1_544
La16 La3 3.491645 1_556
La16 Mg7 3.531131 1_555
La16 Ni12 3.654631 1_556
La16 Ni8 3.654631 1_566
La16 La25 3.659901 1_555
La16 La35 3.659901 1_555
La16 La5 3.728276 1_665
La16 La38 3.799549 1_556
La16 La33 3.817699 1_555
La16 La40 3.819251 1_555
La16 La24 4.080502 1_556
La17 Ni10 2.987031 1_555
La17 Ni3 2.987031 1_555
La17 Ni9 2.987039 1_555
La17 La44 4.080498 1_555
La17 La8 4.080502 1_555
La18 Ni1 2.848091 1_555
La18 Ni0 2.943532 1_555
La18 Mg2 3.693542 1_455
La18 Mg4 3.693542 1_565
La18 La8 3.817699 1_455
La18 La37 3.831824 1_565
La18 La6 3.831824 1_455
La19 Ni5 2.988855 1_555
La19 Ni1 2.988855 1_555
La19 Ni10 3.054924 1_455
La19 La8 3.799549 1_455
La19 La44 3.799549 1_455
La20 Ni5 2.988855 1_555
La20 Ni11 2.988855 1_555
La20 Ni9 3.054924 1_555
La20 La8 3.799549 1_555
La21 Ni3 2.897449 1_555
La21 Ni10 2.897449 1_555
La21 Ni7 2.917072 1_555
La21 La41 3.610243 1_655
La21 Mg1 3.634032 1_655
La21 Mg7 3.634033 1_545
La21 Mg3 3.680581 1_655
La22 Ni1 2.911990 1_545
La22 Ni11 2.911990 1_445
La22 Ni5 2.911990 1_555
La22 Mg5 3.601975 1_455
La22 Mg4 3.601975 1_555
La22 Mg2 3.601975 1_445
La22 La44 3.728275 1_455
La22 La8 3.728276 1_445
La23 Ni10 2.897449 1_555
La23 Ni9 2.897449 1_555
La23 Ni7 2.917079 1_555
La23 La40 3.610243 1_555
La23 La41 3.610243 1_655
La23 Mg7 3.634033 1_555
La23 Mg0 3.634033 1_655
La23 Mg3 3.680581 1_665
La24 Ni6 2.987031 1_555
La24 Ni2 2.987031 1_555
La24 Ni13 2.987039 1_555
La24 La25 4.080498 1_554
La24 La35 4.080502 1_554
La25 La39 3.491645 1_556
La25 Mg0 3.531131 1_555
La25 Ni12 3.654631 1_456
La25 Ni4 3.654631 1_566
La25 La35 3.659901 1_555
La25 La5 3.728275 1_565
La25 La33 3.817699 1_455
La25 La41 3.819251 1_555
La26 Ni2 2.897449 1_555
La26 Ni13 2.897449 1_555
La26 Ni0 2.917079 1_555
La26 La7 3.610243 1_555
La26 La37 3.610243 1_565
La26 Mg2 3.634032 1_555
La26 Mg5 3.634033 1_565
La26 Mg6 3.680581 1_665
La27 Ni3 2.894687 1_565
La27 Ni9 2.894687 1_555
La27 Mg3 3.680897 1_665
La27 Mg7 3.738682 1_555
La27 La40 3.818761 1_555
La28 Ni2 2.894687 1_545
La28 Ni13 2.894687 1_555
La28 Mg6 3.680897 1_555
La28 Mg4 3.738682 1_555
La28 La37 3.818761 1_555
La28 La7 3.818761 1_555
La29 Ni10 2.894687 1_455
La29 Ni9 2.894687 1_555
La29 Mg3 3.680897 1_555
La29 Mg1 3.738682 1_555
La29 La41 3.818761 1_555
La29 La40 3.818761 1_555
La30 Ni6 2.897449 1_555
La30 Ni13 2.897449 1_555
La30 Ni0 2.917079 1_555
La30 La7 3.610243 1_555
La30 La6 3.610243 1_455
La30 Mg4 3.634033 1_555
La30 Mg5 3.634033 1_455
La30 Mg6 3.680581 1_555
La31 Ni2 2.897449 1_555
La31 Ni6 2.897449 1_555
La31 Ni0 2.917072 1_555
La31 La37 3.610243 1_565
La31 La6 3.610243 1_455
La31 Mg2 3.634032 1_455
La31 Mg4 3.634033 1_565
La31 Mg6 3.680581 1_565
La32 Ni5 2.859375 1_555
La32 Ni1 2.859375 1_545
La32 Mg3 3.509437 1_555
La32 Ni3 3.702704 1_555
La32 Ni9 3.702704 1_555
La33 Ni12 2.848091 1_556
La33 Ni7 2.943538 1_555
La33 Mg7 3.693542 1_555
La33 Mg0 3.693542 1_655
La33 La40 3.831824 1_555
La33 La41 3.831824 1_655
La34 Ni5 2.848091 1_555
La34 Ni0 2.943538 1_555
La34 Mg4 3.693542 1_555
La34 Mg5 3.693542 1_455
La34 La44 3.817699 1_455
La34 La7 3.831824 1_555
La34 La6 3.831824 1_455
La35 La36 3.491645 1_556
La35 Mg1 3.531131 1_555
La35 Ni8 3.654631 1_456
La35 Ni4 3.654631 1_556
La35 La5 3.728276 1_555
La35 La38 3.799549 1_556
La35 La41 3.819251 1_555
La35 La40 3.819251 1_555
La36 Ni4 2.859375 1_555
La36 Ni8 2.859375 1_455
La36 Mg6 3.509437 1_555
La36 Ni6 3.702704 1_555
La36 Ni13 3.702704 1_555
La37 Ni2 3.452566 1_545
La37 Mg4 3.472828 1_555
La37 Mg5 3.472828 1_555
La37 Ni0 3.660489 1_545
La37 La7 3.782829 1_555
La37 La6 3.782829 1_555
La37 La44 3.819251 1_555
La37 La43 3.831824 1_545
La38 Ni12 2.988855 1_555
La38 Ni4 2.988855 1_555
La38 Ni13 3.054924 1_555
La39 Ni12 2.859375 1_455
La39 Ni4 2.859375 1_565
La39 Mg6 3.509437 1_565
La39 Ni2 3.702704 1_555
La39 Ni6 3.702704 1_555
La40 Ni9 3.452566 1_555
La40 Mg1 3.472829 1_555
La40 Mg7 3.472829 1_555
La40 La9 3.610243 1_555
La40 Ni7 3.660497 1_555
La40 La41 3.782829 1_555
La41 Ni10 3.452566 1_455
La41 Mg1 3.472829 1_555
La41 Mg0 3.472829 1_555
La41 Ni7 3.660488 1_455
La42 Ni5 2.859375 1_655
La42 Ni11 2.859375 1_545
La42 La44 3.491645 1_555
La42 Mg3 3.509437 1_655
La42 Ni3 3.702704 1_555
La42 Ni10 3.702704 1_555
La43 Ni11 2.848091 1_555
La43 Ni0 2.943538 1_555
La43 Mg2 3.693542 1_555
La43 Mg5 3.693542 1_565
La43 La8 3.817699 1_555
La43 La44 3.817699 1_565
La43 La7 3.831824 1_555
La44 Mg5 3.531131 1_555
La44 Ni5 3.654631 1_655
La44 Ni11 3.654631 1_545
La44 La8 3.659901 1_555
La44 La6 3.819251 1_555
La45 Ni6 2.894687 1_655
La45 Ni13 2.894687 1_555
La45 Mg6 3.680897 1_665
La45 Mg2 3.738682 1_555
La45 La6 3.818761 1_555
La45 La7 3.818761 1_555
Mg0 Mg3 3.184745 1_565
Mg0 Mg7 3.187242 1_455
Mg0 Mg1 3.187242 1_565
Mg1 Mg3 3.184745 1_555
Mg1 Mg7 3.187242 1_445
Mg2 Mg6 3.184745 1_665
Mg2 Mg5 3.187242 1_565
Mg2 Mg4 3.187242 1_665
Mg3 Mg7 3.184745 1_445
Mg4 Mg6 3.184745 1_555
Mg4 Mg5 3.187242 1_455
Mg5 Mg6 3.184745 1_655
