# generated using pymatgen
data_SrZrO3
_symmetry_space_group_name_H-M   'P 1'
_cell_length_a   8.39667300
_cell_length_b   8.39667300
_cell_length_c   8.39667300
_cell_angle_alpha   90.00000000
_cell_angle_beta   90.00000000
_cell_angle_gamma   90.00000000
_symmetry_Int_Tables_number   1
_chemical_formula_structural   SrZrO3
_chemical_formula_sum   'Sr8 Zr8 O24'
_cell_volume   592.00001954
_cell_formula_units_Z   8
loop_
 _symmetry_equiv_pos_site_id
 _symmetry_equiv_pos_as_xyz
  1  'x, y, z'
loop_
 _atom_site_type_symbol
 _atom_site_label
 _atom_site_symmetry_multiplicity
 _atom_site_fract_x
 _atom_site_fract_y
 _atom_site_fract_z
 _atom_site_occupancy
  Sr  Sr0  1  0.75470400  0.74529600  0.25470400  1
  Sr  Sr1  1  0.23099500  0.76900500  0.26900500  1
  Sr  Sr2  1  0.26900500  0.23099500  0.76900500  1
  Sr  Sr3  1  0.74529600  0.25470400  0.75470400  1
  Sr  Sr4  1  0.76900500  0.26900500  0.23099500  1
  Sr  Sr5  1  0.73099500  0.73099500  0.73099500  1
  Sr  Sr6  1  0.24529600  0.24529600  0.24529600  1
  Sr  Sr7  1  0.25470400  0.75470400  0.74529600  1
  Zr  Zr0  1  0.49655300  0.99655300  0.50344700  1
  Zr  Zr1  1  0.99655300  0.50344700  0.49655300  1
  Zr  Zr2  1  0.00344700  0.00344700  0.00344700  1
  Zr  Zr3  1  0.00632400  0.50632400  0.99367600  1
  Zr  Zr4  1  0.50344700  0.49655300  0.99655300  1
  Zr  Zr5  1  0.99367600  0.00632400  0.50632400  1
  Zr  Zr6  1  0.49367600  0.49367600  0.49367600  1
  Zr  Zr7  1  0.50632400  0.99367600  0.00632400  1
  O  O0  1  0.48933700  0.74379900  0.51249400  1
  O  O1  1  0.51249400  0.48933700  0.74379900  1
  O  O2  1  0.97924500  0.25593800  0.49055800  1
  O  O3  1  0.24406200  0.50944200  0.47924500  1
  O  O4  1  0.75593800  0.00944200  0.02075500  1
  O  O5  1  0.74406200  0.99055800  0.52075500  1
  O  O6  1  0.74379900  0.51249400  0.48933700  1
  O  O7  1  0.25620100  0.01249400  0.01066300  1
  O  O8  1  0.50944200  0.47924500  0.24406200  1
  O  O9  1  0.98933700  0.75620100  0.48750600  1
  O  O10  1  0.99055800  0.52075500  0.74406200  1
  O  O11  1  0.47924500  0.24406200  0.50944200  1
  O  O12  1  0.01066300  0.25620100  0.01249400  1
  O  O13  1  0.48750600  0.98933700  0.75620100  1
  O  O14  1  0.49055800  0.97924500  0.25593800  1
  O  O15  1  0.02075500  0.75593800  0.00944200  1
  O  O16  1  0.52075500  0.74406200  0.99055800  1
  O  O17  1  0.00944200  0.02075500  0.75593800  1
  O  O18  1  0.24379900  0.98750600  0.51066300  1
  O  O19  1  0.01249400  0.01066300  0.25620100  1
  O  O20  1  0.25593800  0.49055800  0.97924500  1
  O  O21  1  0.98750600  0.51066300  0.24379900  1
  O  O22  1  0.51066300  0.24379900  0.98750600  1
  O  O23  1  0.75620100  0.48750600  0.98933700  1
loop_
_geom_bond_atom_site_label_1
_geom_bond_atom_site_label_2
_geom_bond_distance
_geom_bond_site_symmetry_2
O0 Zr6 2.106452 1_555
O0 Zr0 2.124516 1_555
O0 Sr5 2.737692 1_555
O0 Sr7 2.776854 1_555
O0 Sr1 2.988352 1_555
O0 Sr0 3.106514 1_555
O1 Zr6 2.106452 1_555
O1 Zr4 2.124516 1_555
O1 Sr5 2.737692 1_555
O1 Sr3 2.776854 1_555
O1 Sr2 2.988352 1_555
O1 Sr7 3.106514 1_555
O2 Zr1 2.083935 1_555
O2 Zr5 2.103597 1_555
O2 Sr4 2.806858 1_555
O2 Sr3 2.962809 1_555
O2 Sr6 3.039663 1_655
O3 Zr1 2.083935 1_455
O3 Zr6 2.103597 1_555
O3 Sr1 2.806858 1_555
O3 Sr6 2.962809 1_555
O3 Sr7 3.039663 1_555
O4 Zr2 2.083935 1_655
O4 Zr7 2.103597 1_545
O4 Sr4 2.806858 1_555
O4 Sr0 2.962809 1_545
O4 Sr3 3.039663 1_554
O5 Zr0 2.083935 1_555
O5 Zr5 2.103597 1_565
O5 Sr5 2.806858 1_555
O5 Sr3 2.962809 1_565
O5 Sr0 3.039663 1_555
O6 Zr6 2.106452 1_555
O6 Zr1 2.124516 1_555
O6 Sr5 2.737692 1_555
O6 Sr0 2.776854 1_555
O6 Sr4 2.988352 1_555
O6 Sr3 3.106514 1_555
O7 Zr7 2.106452 1_545
O7 Zr2 2.124516 1_555
O7 Sr2 2.737692 1_554
O7 Sr6 2.776854 1_555
O7 Sr1 2.988352 1_545
O7 Sr7 3.106514 1_544
O8 Zr4 2.083935 1_554
O8 Zr6 2.103597 1_555
O8 Sr4 2.806858 1_555
O8 Sr6 2.962809 1_555
O8 Sr0 3.039663 1_555
O9 Zr5 2.106452 1_565
O9 Zr1 2.124516 1_555
O9 Sr1 2.737692 1_655
O9 Sr0 2.776854 1_555
O9 Sr5 2.988352 1_555
O9 Sr7 3.106514 1_655
O10 Zr1 2.083935 1_555
O10 Zr3 2.103597 1_655
O10 Sr5 2.806858 1_555
O10 Sr7 2.962809 1_655
O10 Sr3 3.039663 1_555
O11 Zr0 2.083935 1_545
O11 Zr6 2.103597 1_555
O11 Sr2 2.806858 1_555
O11 Sr6 2.962809 1_555
O11 Sr3 3.039663 1_555
O12 Zr3 2.106452 1_554
O12 Zr2 2.124516 1_555
O12 Sr4 2.737692 1_455
O12 Sr6 2.776854 1_555
O12 Sr2 2.988352 1_554
O12 Sr3 3.106514 1_454
O13 Zr7 2.106452 1_556
O13 Zr0 2.124516 1_555
O13 Sr2 2.737692 1_565
O13 Sr7 2.776854 1_555
O13 Sr5 2.988352 1_555
O13 Sr3 3.106514 1_565
O14 Zr0 2.083935 1_555
O14 Zr7 2.103597 1_555
O14 Sr1 2.806858 1_555
O14 Sr0 2.962809 1_555
O14 Sr6 3.039663 1_565
O15 Zr2 2.083935 1_565
O15 Zr3 2.103597 1_554
O15 Sr1 2.806858 1_555
O15 Sr7 2.962809 1_554
O15 Sr0 3.039663 1_455
O16 Zr4 2.083935 1_555
O16 Zr7 2.103597 1_556
O16 Sr5 2.806858 1_555
O16 Sr0 2.962809 1_556
O16 Sr7 3.039663 1_555
O17 Zr2 2.083935 1_556
O17 Zr5 2.103597 1_455
O17 Sr2 2.806858 1_555
O17 Sr3 2.962809 1_455
O17 Sr7 3.039663 1_545
O18 Zr5 2.106452 1_465
O18 Zr0 2.124516 1_555
O18 Sr1 2.737692 1_555
O18 Sr7 2.776854 1_555
O18 Sr2 2.988352 1_565
O18 Sr6 3.106514 1_565
O19 Zr5 2.106452 1_455
O19 Zr2 2.124516 1_555
O19 Sr1 2.737692 1_545
O19 Sr6 2.776854 1_555
O19 Sr4 2.988352 1_455
O19 Sr0 3.106514 1_445
O20 Zr4 2.083935 1_555
O20 Zr3 2.103597 1_555
O20 Sr2 2.806858 1_555
O20 Sr7 2.962809 1_555
O20 Sr6 3.039663 1_556
O21 Zr3 2.106452 1_654
O21 Zr1 2.124516 1_555
O21 Sr4 2.737692 1_555
O21 Sr0 2.776854 1_555
O21 Sr1 2.988352 1_655
O21 Sr6 3.106514 1_655
O22 Zr7 2.106452 1_546
O22 Zr4 2.124516 1_555
O22 Sr2 2.737692 1_555
O22 Sr3 2.776854 1_555
O22 Sr4 2.988352 1_556
O22 Sr6 3.106514 1_556
O23 Zr3 2.106452 1_655
O23 Zr4 2.124516 1_555
O23 Sr4 2.737692 1_556
O23 Sr3 2.776854 1_555
O23 Sr5 2.988352 1_555
O23 Sr0 3.106514 1_556
