# generated using pymatgen
data_NdGe2Ir
_symmetry_space_group_name_H-M   'P 1'
_cell_length_a   9.51969973
_cell_length_b   9.51969973
_cell_length_c   9.51969973
_cell_angle_alpha   153.44175950
_cell_angle_beta   123.91268100
_cell_angle_gamma   63.10164260
_symmetry_Int_Tables_number   1
_chemical_formula_structural   NdGe2Ir
_chemical_formula_sum   'Nd4 Ge8 Ir4'
_cell_volume   317.57187253
_cell_formula_units_Z   4
loop_
 _symmetry_equiv_pos_site_id
 _symmetry_equiv_pos_as_xyz
  1  'x, y, z'
loop_
 _atom_site_type_symbol
 _atom_site_label
 _atom_site_symmetry_multiplicity
 _atom_site_fract_x
 _atom_site_fract_y
 _atom_site_fract_z
 _atom_site_occupancy
  Nd  Nd0  1  0.70671293  0.20671293  0.50000000  1
  Nd  Nd1  1  0.29328707  0.79328707  0.50000000  1
  Nd  Nd2  1  0.74008703  0.00000000  0.74008703  1
  Nd  Nd3  1  0.25991297  -0.00000000  0.25991297  1
  Ge  Ge0  1  0.42267335  0.42267335  0.00000000  1
  Ge  Ge1  1  0.57732665  0.57732665  -0.00000000  1
  Ge  Ge2  1  0.92185694  0.42185694  0.50000000  1
  Ge  Ge3  1  0.07814306  0.57814306  0.50000000  1
  Ge  Ge4  1  0.04421892  0.19929504  0.84492488  1
  Ge  Ge5  1  0.95578108  0.80070496  0.15507512  1
  Ge  Ge6  1  0.64562985  0.80070496  0.84492488  1
  Ge  Ge7  1  0.35437015  0.19929504  0.15507512  1
  Ir  Ir0  1  0.10046024  0.35360026  0.74685898  1
  Ir  Ir1  1  0.89953976  0.64639974  0.25314102  1
  Ir  Ir2  1  0.39325772  0.64639974  0.74685898  1
  Ir  Ir3  1  0.60674228  0.35360026  0.25314102  1
loop_
_geom_bond_atom_site_label_1
_geom_bond_atom_site_label_2
_geom_bond_distance
_geom_bond_site_symmetry_2
Ge0 Ge1 2.509238 1_555
Ge0 Ir0 2.527922 1_554
Ge0 Ir3 2.527930 1_555
Ge0 Nd1 3.031226 1_555
Ge0 Nd1 3.031226 1_544
Ge0 Nd2 3.312698 1_565
Ge0 Nd2 3.312698 1_554
Ge0 Nd3 3.312698 1_554
Ge0 Nd3 3.312698 1_565
Ge1 Ir1 2.527922 1_555
Ge1 Ir2 2.527930 1_554
Ge1 Nd0 3.031226 1_554
Ge1 Nd0 3.031226 1_565
Ge1 Nd3 3.312698 1_565
Ge1 Nd2 3.312698 1_554
Ge1 Nd3 3.312698 1_554
Ge1 Nd2 3.312698 1_565
Ge2 Ir3 2.471680 1_555
Ge2 Ir0 2.471688 1_655
Ge2 Nd3 3.435354 1_655
Ge2 Nd3 3.435354 1_666
Ge2 Nd2 3.435354 1_565
Ge2 Nd2 3.435354 1_554
Ge2 Nd0 3.490696 1_555
Ge3 Ir2 2.471680 1_555
Ge3 Ir1 2.471688 1_455
Ge3 Nd2 3.435354 1_465
Ge3 Nd3 3.435354 1_566
Ge3 Nd2 3.435354 1_454
Ge3 Nd3 3.435354 1_555
Ge3 Nd1 3.490696 1_555
Ge4 Ir1 2.488551 1_445
Ge4 Ir1 2.488551 1_456
Ge4 Ir0 2.653034 1_555
Ge4 Ge7 2.776241 1_556
Ge4 Nd1 3.005646 1_556
Ge4 Nd1 3.005649 1_545
Ge4 Nd0 3.089854 1_455
Ge4 Nd2 3.366960 1_455
Ge5 Ir0 2.488551 1_665
Ge5 Ir0 2.488551 1_654
Ge5 Ir1 2.653034 1_555
Ge5 Ge6 2.776241 1_554
Ge5 Nd0 3.005646 1_554
Ge5 Nd0 3.005649 1_565
Ge5 Nd1 3.089854 1_655
Ge5 Nd3 3.366960 1_665
Ge6 Ir3 2.488550 1_566
Ge6 Ir3 2.488554 1_555
Ge6 Ir2 2.653031 1_555
Ge6 Nd0 3.005642 1_555
Ge6 Nd0 3.005642 1_566
Ge6 Nd1 3.089859 1_555
Ge6 Nd2 3.366969 1_565
Ge7 Ir2 2.488550 1_544
Ge7 Ir2 2.488554 1_555
Ge7 Ir3 2.653031 1_555
Ge7 Nd1 3.005642 1_555
Ge7 Nd1 3.005642 1_544
Ge7 Nd0 3.089859 1_555
Ge7 Nd3 3.366969 1_555
Ir0 Nd3 3.230653 1_555
Ir0 Nd3 3.230656 1_566
Ir0 Nd0 3.250023 1_455
Ir0 Nd1 3.297482 1_545
Ir0 Nd1 3.297485 1_556
Ir1 Nd2 3.230653 1_565
Ir1 Nd2 3.230656 1_554
Ir1 Nd1 3.250023 1_655
Ir1 Nd0 3.297482 1_565
Ir1 Nd0 3.297485 1_554
Ir2 Nd3 3.230653 1_566
Ir2 Nd3 3.230656 1_555
Ir2 Nd1 3.250016 1_555
Ir2 Nd0 3.297489 1_566
Ir2 Nd0 3.297491 1_555
Ir3 Nd2 3.230653 1_554
Ir3 Nd2 3.230656 1_565
Ir3 Nd0 3.250016 1_555
Ir3 Nd1 3.297489 1_544
Ir3 Nd1 3.297491 1_555
