# generated using pymatgen
data_GdMnO3
_symmetry_space_group_name_H-M   'P 1'
_cell_length_a   5.33266967
_cell_length_b   5.63531689
_cell_length_c   7.62006186
_cell_angle_alpha   90.00000000
_cell_angle_beta   90.00000000
_cell_angle_gamma   90.00000000
_symmetry_Int_Tables_number   1
_chemical_formula_structural   GdMnO3
_chemical_formula_sum   'Gd4 Mn4 O12'
_cell_volume   228.99263894
_cell_formula_units_Z   4
loop_
 _symmetry_equiv_pos_site_id
 _symmetry_equiv_pos_as_xyz
  1  'x, y, z'
loop_
 _atom_site_type_symbol
 _atom_site_label
 _atom_site_symmetry_multiplicity
 _atom_site_fract_x
 _atom_site_fract_y
 _atom_site_fract_z
 _atom_site_occupancy
  Gd  Gd0  1  0.51612645  0.56587180  0.25000000  1
  Gd  Gd1  1  0.98387355  0.06587180  0.25000000  1
  Gd  Gd2  1  0.48387355  0.43412820  0.75000000  1
  Gd  Gd3  1  0.01612645  0.93412820  0.75000000  1
  Mn  Mn0  1  0.50000000  -0.00000000  -0.00000000  1
  Mn  Mn1  1  -0.00000000  0.50000000  0.50000000  1
  Mn  Mn2  1  0.50000000  -0.00000000  0.50000000  1
  Mn  Mn3  1  -0.00000000  0.50000000  -0.00000000  1
  O  O0  1  0.40115895  0.97056821  0.25000000  1
  O  O1  1  0.09884105  0.47056821  0.25000000  1
  O  O2  1  0.59884105  0.02943179  0.75000000  1
  O  O3  1  0.90115895  0.52943179  0.75000000  1
  O  O4  1  0.79643680  0.80559997  0.05072275  1
  O  O5  1  0.70356320  0.30559997  0.44927725  1
  O  O6  1  0.20356320  0.19440003  0.55072275  1
  O  O7  1  0.29643680  0.69440003  0.94927725  1
  O  O8  1  0.20356320  0.19440003  0.94927725  1
  O  O9  1  0.29643680  0.69440003  0.55072275  1
  O  O10  1  0.79643680  0.80559997  0.44927725  1
  O  O11  1  0.70356320  0.30559997  0.05072275  1
loop_
_geom_bond_atom_site_label_1
_geom_bond_atom_site_label_2
_geom_bond_distance
_geom_bond_site_symmetry_2
Gd0 O1 2.289139 1_555
Gd0 O5 2.335848 1_555
Gd0 O11 2.335848 1_555
Gd0 O0 2.361562 1_555
Gd0 O10 2.522963 1_555
Gd0 O4 2.522963 1_555
Gd0 O7 2.673609 1_554
Gd0 O9 2.673609 1_555
Gd1 O0 2.289139 1_645
Gd1 O10 2.335848 1_545
Gd1 O4 2.335848 1_545
Gd1 O1 2.361562 1_655
Gd1 O11 2.522963 1_555
Gd1 O5 2.522963 1_555
Gd1 O8 2.673609 1_654
Gd1 O6 2.673609 1_655
Gd2 O3 2.289139 1_555
Gd2 O9 2.335848 1_555
Gd2 O7 2.335848 1_555
Gd2 O2 2.361562 1_555
Gd2 O6 2.522963 1_555
Gd2 O8 2.522963 1_555
Gd2 O5 2.673609 1_555
Gd2 O11 2.673609 1_556
Gd3 O2 2.289139 1_465
Gd3 O6 2.335848 1_565
Gd3 O8 2.335848 1_565
Gd3 O3 2.361562 1_455
Gd3 O9 2.522963 1_555
Gd3 O7 2.522963 1_555
Gd3 O10 2.673609 1_455
Gd3 O4 2.673609 1_456
Mn0 O4 1.961747 1_545
Mn0 O8 1.961747 1_554
Mn0 O2 1.983535 1_554
Mn0 O0 1.983535 1_545
Mn0 O11 2.072097 1_555
Mn0 O7 2.072097 1_544
Mn1 O9 1.961747 1_555
Mn1 O5 1.961747 1_455
Mn1 O1 1.983535 1_555
Mn1 O3 1.983535 1_455
Mn1 O6 2.072097 1_555
Mn1 O10 2.072097 1_455
Mn2 O10 1.961747 1_545
Mn2 O6 1.961747 1_555
Mn2 O2 1.983535 1_555
Mn2 O0 1.983535 1_545
Mn2 O5 2.072097 1_555
Mn2 O9 2.072097 1_545
Mn3 O7 1.961747 1_554
Mn3 O11 1.961747 1_455
Mn3 O3 1.983535 1_454
Mn3 O1 1.983535 1_555
Mn3 O8 2.072097 1_554
Mn3 O4 2.072097 1_455
