# generated using pymatgen
data_CaB2(H6O5)2
_symmetry_space_group_name_H-M   'P 1'
_cell_length_a   6.58790700
_cell_length_b   8.01053700
_cell_length_c   8.02557565
_cell_angle_alpha   75.70170379
_cell_angle_beta   90.00000000
_cell_angle_gamma   90.00000000
_symmetry_Int_Tables_number   1
_chemical_formula_structural   CaB2(H6O5)2
_chemical_formula_sum   'Ca2 B4 H24 O20'
_cell_volume   410.41138745
_cell_formula_units_Z   2
loop_
 _symmetry_equiv_pos_site_id
 _symmetry_equiv_pos_as_xyz
  1  'x, y, z'
loop_
 _atom_site_type_symbol
 _atom_site_label
 _atom_site_symmetry_multiplicity
 _atom_site_fract_x
 _atom_site_fract_y
 _atom_site_fract_z
 _atom_site_occupancy
  Ca  Ca0  1  0.96991100  0.00000000  0.25000000  1
  Ca  Ca1  1  0.03008900  0.00000000  0.75000000  1
  B  B0  1  0.27491000  0.81623400  0.06798000  1
  B  B1  1  0.72509000  0.18376600  0.93202000  1
  B  B2  1  0.27491000  0.18376600  0.43202000  1
  B  B3  1  0.72509000  0.81623400  0.56798000  1
  H  H0  1  0.66650800  0.36719800  0.42612200  1
  H  H1  1  0.90424000  0.37811100  0.40415800  1
  H  H2  1  0.90424000  0.62188900  0.09584200  1
  H  H3  1  0.09576000  0.62188900  0.59584200  1
  H  H4  1  0.33349200  0.63280200  0.57387800  1
  H  H5  1  0.23279100  0.35344100  0.58452500  1
  H  H6  1  0.16572100  0.33776700  0.19712400  1
  H  H7  1  0.66650800  0.63280200  0.07387800  1
  H  H8  1  0.09576000  0.37811100  0.90415800  1
  H  H9  1  0.47655800  0.78424700  0.74373000  1
  H  H10  1  0.23279100  0.64655900  0.91547500  1
  H  H11  1  0.83427900  0.66223300  0.80287600  1
  H  H12  1  0.83427900  0.33776700  0.69712400  1
  H  H13  1  0.34053800  0.08250900  0.98663200  1
  H  H14  1  0.76720900  0.64655900  0.41547500  1
  H  H15  1  0.47655800  0.21575300  0.75627000  1
  H  H16  1  0.16572100  0.66223300  0.30287600  1
  H  H17  1  0.52344200  0.21575300  0.25627000  1
  H  H18  1  0.65946200  0.91749100  0.01336800  1
  H  H19  1  0.76720900  0.35344100  0.08452500  1
  H  H20  1  0.65946200  0.08250900  0.48663200  1
  H  H21  1  0.52344200  0.78424700  0.24373000  1
  H  H22  1  0.33349200  0.36719800  0.92612200  1
  H  H23  1  0.34053800  0.91749100  0.51336800  1
  O  O0  1  0.74639400  0.77271400  0.40015200  1
  O  O1  1  0.77450800  0.99545200  0.96579000  1
  O  O2  1  0.21057200  0.42257700  0.96107200  1
  O  O3  1  0.25360600  0.77271400  0.90015200  1
  O  O4  1  0.77450800  0.00454800  0.53421000  1
  O  O5  1  0.74639400  0.22728600  0.09984800  1
  O  O6  1  0.48481700  0.77419000  0.12794700  1
  O  O7  1  0.22549200  0.99545200  0.46579000  1
  O  O8  1  0.11577500  0.73040400  0.19038300  1
  O  O9  1  0.51518300  0.22581000  0.87205300  1
  O  O10  1  0.21057200  0.57742300  0.53892800  1
  O  O11  1  0.78942800  0.57742300  0.03892800  1
  O  O12  1  0.11577500  0.26959600  0.30961700  1
  O  O13  1  0.88422500  0.73040400  0.69038300  1
  O  O14  1  0.48481700  0.22581000  0.37205300  1
  O  O15  1  0.51518300  0.77419000  0.62794700  1
  O  O16  1  0.78942800  0.42257700  0.46107200  1
  O  O17  1  0.25360600  0.22728600  0.59984800  1
  O  O18  1  0.88422500  0.26959600  0.80961700  1
  O  O19  1  0.22549200  0.00454800  0.03421000  1
loop_
_geom_bond_atom_site_label_1
_geom_bond_atom_site_label_2
_geom_bond_distance
_geom_bond_site_symmetry_2
Ca0 O19 2.409237 1_655
Ca0 O7 2.409237 1_645
Ca0 O0 2.419011 1_545
Ca0 O5 2.419011 1_555
Ca0 O8 2.515277 1_645
Ca0 O12 2.515277 1_655
Ca0 O4 2.627210 1_555
Ca0 O1 2.627210 1_544
Ca1 O4 2.409237 1_455
Ca1 O1 2.409237 1_445
Ca1 O17 2.419011 1_555
Ca1 O3 2.419011 1_545
Ca1 O13 2.515277 1_445
Ca1 O18 2.515277 1_455
Ca1 O7 2.627210 1_545
Ca1 O19 2.627210 1_556
B0 O6 1.475553 1_555
B0 O3 1.478970 1_554
B0 O8 1.484317 1_555
B0 O19 1.501021 1_565
B1 O9 1.475553 1_555
B1 O5 1.478970 1_556
B1 O18 1.484317 1_555
B1 O1 1.501021 1_545
B2 O14 1.475553 1_555
B2 O17 1.478970 1_555
B2 O12 1.484317 1_555
B2 O7 1.501021 1_545
B3 O15 1.475553 1_555
B3 O0 1.478970 1_555
B3 O13 1.484317 1_555
B3 O4 1.501021 1_565
H0 O16 0.996336 1_555
H1 O16 0.993968 1_555
H2 O11 0.993968 1_555
H3 O10 0.993968 1_555
H4 O10 0.996336 1_555
H5 O17 0.996891 1_555
H6 O12 0.988960 1_555
H7 O11 0.996336 1_555
H8 O2 0.993968 1_555
H9 O15 0.985736 1_555
H10 O3 0.996891 1_555
H11 O13 0.988960 1_555
H12 O18 0.988960 1_555
H13 O19 0.996222 1_556
H14 O0 0.996891 1_555
H15 O9 0.985736 1_555
H16 O8 0.988960 1_555
H17 O14 0.985736 1_555
H18 O1 0.996222 1_554
H19 O5 0.996891 1_555
H20 O4 0.996222 1_555
H21 O6 0.985736 1_555
H22 O2 0.996336 1_555
H23 O7 0.996222 1_555
