# generated using pymatgen
data_RbSi2H18C6N
_symmetry_space_group_name_H-M   'P 1'
_cell_length_a   9.12419700
_cell_length_b   10.70640100
_cell_length_c   13.13187567
_cell_angle_alpha   79.84666365
_cell_angle_beta   90.00000000
_cell_angle_gamma   90.00000000
_symmetry_Int_Tables_number   1
_chemical_formula_structural   RbSi2H18C6N
_chemical_formula_sum   'Rb4 Si8 H72 C24 N4'
_cell_volume   1262.72807538
_cell_formula_units_Z   4
loop_
 _symmetry_equiv_pos_site_id
 _symmetry_equiv_pos_as_xyz
  1  'x, y, z'
loop_
 _atom_site_type_symbol
 _atom_site_label
 _atom_site_symmetry_multiplicity
 _atom_site_fract_x
 _atom_site_fract_y
 _atom_site_fract_z
 _atom_site_occupancy
  Rb  Rb0  1  0.05559600  0.43007300  0.87026900  1
  Rb  Rb1  1  0.55559600  0.56992700  0.62973100  1
  Rb  Rb2  1  0.44440400  0.43007300  0.37026900  1
  Rb  Rb3  1  0.94440400  0.56992700  0.12973100  1
  Si  Si0  1  0.74555400  0.29149600  0.05173600  1
  Si  Si1  1  0.94505900  0.78638700  0.86777500  1
  Si  Si2  1  0.44505900  0.21361300  0.63222500  1
  Si  Si3  1  0.55494100  0.78638700  0.36777500  1
  Si  Si4  1  0.25444600  0.70850400  0.94826400  1
  Si  Si5  1  0.24555400  0.70850400  0.44826400  1
  Si  Si6  1  0.05494100  0.21361300  0.13222500  1
  Si  Si7  1  0.75444600  0.29149600  0.55173600  1
  H  H0  1  0.72402200  0.78621100  0.21616700  1
  H  H1  1  0.31740500  0.37190800  0.72328300  1
  H  H2  1  0.81740500  0.62809200  0.77671700  1
  H  H3  1  0.74154900  0.10981500  0.95433800  1
  H  H4  1  0.22109900  0.28802700  0.52250300  1
  H  H5  1  0.27597800  0.21378900  0.78383300  1
  H  H6  1  0.09948400  0.95880600  0.76261700  1
  H  H7  1  0.69354500  0.84304900  0.52075300  1
  H  H8  1  0.93536300  0.13513700  0.50351500  1
  H  H9  1  0.70083400  0.05484500  0.08653400  1
  H  H10  1  0.79916600  0.05484500  0.58653400  1
  H  H11  1  0.40051600  0.95880600  0.26261700  1
  H  H12  1  0.41487300  0.99150100  0.73008000  1
  H  H13  1  0.70703300  0.51143100  0.94330600  1
  H  H14  1  0.68259500  0.62809200  0.27671700  1
  H  H15  1  0.20703300  0.48856900  0.55669400  1
  H  H16  1  0.24154900  0.89018500  0.54566200  1
  H  H17  1  0.27890100  0.28802700  0.02250300  1
  H  H18  1  0.78673100  0.39247600  0.36403300  1
  H  H19  1  0.44722100  0.28164600  0.80826500  1
  H  H20  1  0.19354500  0.15695100  0.97924700  1
  H  H21  1  0.90051600  0.04119400  0.23738300  1
  H  H22  1  0.56463700  0.13513700  0.00351500  1
  H  H23  1  0.51346500  0.29736600  0.15702800  1
  H  H24  1  0.19630600  0.13283100  0.59140500  1
  H  H25  1  0.58512700  0.00849900  0.26992000  1
  H  H26  1  0.44639000  0.58772500  0.06410400  1
  H  H27  1  0.25845100  0.89018500  0.04566200  1
  H  H28  1  0.80369400  0.86716900  0.40859500  1
  H  H29  1  0.80645500  0.84304900  0.02075300  1
  H  H30  1  0.13604200  0.57978600  0.32319400  1
  H  H31  1  0.16912300  0.73970900  0.26079900  1
  H  H32  1  0.30369400  0.13283100  0.09140500  1
  H  H33  1  0.66912300  0.26029100  0.23920100  1
  H  H34  1  0.72109900  0.71197300  0.97749700  1
  H  H35  1  0.01346500  0.70263400  0.34297200  1
  H  H36  1  0.55361000  0.41227500  0.93589600  1
  H  H37  1  0.22402200  0.21378900  0.28383300  1
  H  H38  1  0.28673100  0.60752400  0.13596700  1
  H  H39  1  0.79296700  0.51143100  0.44330600  1
  H  H40  1  0.96618800  0.99362300  0.12254900  1
  H  H41  1  0.94639000  0.41227500  0.43589600  1
  H  H42  1  0.08512700  0.99150100  0.23008000  1
  H  H43  1  0.29296700  0.48856900  0.05669400  1
  H  H44  1  0.05277900  0.28164600  0.30826500  1
  H  H45  1  0.48653500  0.70263400  0.84297200  1
  H  H46  1  0.91487300  0.00849900  0.76992000  1
  H  H47  1  0.63604200  0.42021400  0.17680600  1
  H  H48  1  0.77890100  0.71197300  0.47749700  1
  H  H49  1  0.43536300  0.86486300  0.99648500  1
  H  H50  1  0.30645500  0.15695100  0.47924700  1
  H  H51  1  0.18259500  0.37190800  0.22328300  1
  H  H52  1  0.06463700  0.86486300  0.49648500  1
  H  H53  1  0.77597800  0.78621100  0.71616700  1
  H  H54  1  0.94722100  0.71835400  0.69173500  1
  H  H55  1  0.71326900  0.39247600  0.86403300  1
  H  H56  1  0.33087700  0.73970900  0.76079900  1
  H  H57  1  0.86395800  0.42021400  0.67680600  1
  H  H58  1  0.03381200  0.00637700  0.87745100  1
  H  H59  1  0.29916600  0.94515500  0.91346600  1
  H  H60  1  0.83087700  0.26029100  0.73920100  1
  H  H61  1  0.36395800  0.57978600  0.82319400  1
  H  H62  1  0.59948400  0.04119400  0.73738300  1
  H  H63  1  0.98653500  0.29736600  0.65702800  1
  H  H64  1  0.53381200  0.99362300  0.62254900  1
  H  H65  1  0.21326900  0.60752400  0.63596700  1
  H  H66  1  0.46618800  0.00637700  0.37745100  1
  H  H67  1  0.20083400  0.94515500  0.41346600  1
  H  H68  1  0.05361000  0.58772500  0.56410400  1
  H  H69  1  0.69630600  0.86716900  0.90859500  1
  H  H70  1  0.55277900  0.71835400  0.19173500  1
  H  H71  1  0.75845100  0.10981500  0.45433800  1
  C  C0  1  0.50427600  0.04446100  0.68552000  1
  C  C1  1  0.77801800  0.80290000  0.95166500  1
  C  C2  1  0.87029400  0.31991400  0.66745200  1
  C  C3  1  0.37029400  0.68008600  0.83254800  1
  C  C4  1  0.68256500  0.13330200  0.02161600  1
  C  C5  1  0.86464000  0.72348500  0.75191300  1
  C  C6  1  0.17416000  0.58635700  0.56137000  1
  C  C7  1  0.12970600  0.68008600  0.33254800  1
  C  C8  1  0.49572400  0.95553900  0.31448000  1
  C  C9  1  0.82584000  0.41364300  0.43863000  1
  C  C10  1  0.81743500  0.13330200  0.52161600  1
  C  C11  1  0.62970600  0.31991400  0.16745200  1
  C  C12  1  0.31743500  0.86669800  0.97838400  1
  C  C13  1  0.63536000  0.72348500  0.25191300  1
  C  C14  1  0.72198200  0.80290000  0.45166500  1
  C  C15  1  0.67416000  0.41364300  0.93863000  1
  C  C16  1  0.32584000  0.58635700  0.06137000  1
  C  C17  1  0.00427600  0.95553900  0.81448000  1
  C  C18  1  0.18256500  0.86669800  0.47838400  1
  C  C19  1  0.36464000  0.27651500  0.74808700  1
  C  C20  1  0.22198200  0.19710000  0.04833500  1
  C  C21  1  0.27801800  0.19710000  0.54833500  1
  C  C22  1  0.99572400  0.04446100  0.18552000  1
  C  C23  1  0.13536000  0.27651500  0.24808700  1
  N  N0  1  0.92725200  0.31246800  0.06791700  1
  N  N1  1  0.07274800  0.68753200  0.93208300  1
  N  N2  1  0.57274800  0.31246800  0.56791700  1
  N  N3  1  0.42725200  0.68753200  0.43208300  1
loop_
_geom_bond_atom_site_label_1
_geom_bond_atom_site_label_2
_geom_bond_distance
_geom_bond_site_symmetry_2
C0 H62 1.100590 1_555
C0 H64 1.100625 1_545
C0 H12 1.101067 1_545
C0 Si2 1.901219 1_555
C1 H69 1.100910 1_555
C1 H29 1.101227 1_556
C1 H34 1.102752 1_555
C1 Si1 1.906947 1_555
C2 H60 1.101146 1_555
C2 H63 1.101613 1_555
C2 H57 1.103673 1_555
C2 Si7 1.918842 1_555
C3 H56 1.101146 1_555
C3 H45 1.101613 1_555
C3 H61 1.103673 1_555
C3 Si4 1.918842 1_555
C4 H9 1.098932 1_555
C4 H3 1.100794 1_554
C4 H22 1.101369 1_555
C4 Si0 1.895131 1_555
C5 H54 1.100254 1_555
C5 H53 1.102108 1_555
C5 H2 1.103467 1_555
C5 Si1 1.915233 1_555
C6 H68 1.100689 1_555
C6 H15 1.101145 1_555
C6 H65 1.102984 1_555
C6 Si5 1.912024 1_555
C7 H31 1.101146 1_555
C7 H35 1.101613 1_555
C7 H30 1.103673 1_555
C7 Si5 1.918842 1_555
C8 H11 1.100590 1_555
C8 H66 1.100625 1_565
C8 H25 1.101067 1_565
C8 Si3 1.901219 1_555
C9 H41 1.100689 1_555
C9 H39 1.101145 1_555
C9 H18 1.102984 1_555
C9 Si7 1.912024 1_555
C10 H10 1.098932 1_555
C10 H71 1.100794 1_555
C10 H8 1.101369 1_555
C10 Si7 1.895131 1_555
C11 H33 1.101146 1_555
C11 H23 1.101613 1_555
C11 H47 1.103673 1_555
C11 Si0 1.918842 1_555
C12 H59 1.098932 1_555
C12 H27 1.100794 1_556
C12 H49 1.101369 1_555
C12 Si4 1.895131 1_555
C13 H70 1.100254 1_555
C13 H0 1.102108 1_555
C13 H14 1.103467 1_555
C13 Si3 1.915233 1_555
C14 H28 1.100910 1_555
C14 H7 1.101227 1_555
C14 H48 1.102752 1_555
C14 Si3 1.906947 1_555
C15 H36 1.100689 1_555
C15 H13 1.101145 1_555
C15 H55 1.102984 1_555
C15 Si0 1.912024 1_556
C16 H26 1.100689 1_555
C16 H43 1.101145 1_555
C16 H38 1.102984 1_555
C16 Si4 1.912024 1_554
C17 H6 1.100590 1_555
C17 H58 1.100625 1_565
C17 H46 1.101067 1_465
C17 Si1 1.901219 1_455
C18 H67 1.098932 1_555
C18 H16 1.100794 1_555
C18 H52 1.101369 1_555
C18 Si5 1.895131 1_555
C19 H19 1.100254 1_555
C19 H5 1.102108 1_555
C19 H1 1.103467 1_555
C19 Si2 1.915233 1_555
C20 H32 1.100910 1_555
C20 H20 1.101227 1_554
C20 H17 1.102752 1_555
C20 Si6 1.906947 1_555
C21 H24 1.100910 1_555
C21 H50 1.101227 1_555
C21 H4 1.102752 1_555
C21 Si2 1.906947 1_555
C22 H21 1.100590 1_555
C22 H40 1.100625 1_545
C22 H42 1.101067 1_645
C22 Si6 1.901219 1_655
C23 H44 1.100254 1_555
C23 H37 1.102108 1_555
C23 H51 1.103467 1_555
C23 Si6 1.915233 1_555
N0 Si0 1.691404 1_555
N0 Si6 1.695751 1_655
N0 Rb0 2.922513 1_654
N0 Rb3 3.011701 1_555
N1 Si4 1.691404 1_555
N1 Si1 1.695751 1_455
N1 Rb3 2.922513 1_456
N1 Rb0 3.011701 1_555
N2 Si7 1.691404 1_555
N2 Si2 1.695751 1_555
N2 Rb2 2.922513 1_555
N2 Rb1 3.011701 1_555
N3 Si5 1.691404 1_555
N3 Si3 1.695751 1_555
N3 Rb1 2.922513 1_555
N3 Rb2 3.011701 1_555
