# generated using pymatgen
data_Sm3OsO7
_symmetry_space_group_name_H-M   'P 1'
_cell_length_a   6.53058685
_cell_length_b   6.53058685
_cell_length_c   7.48906221
_cell_angle_alpha   90.00000000
_cell_angle_beta   90.00000000
_cell_angle_gamma   111.01416622
_symmetry_Int_Tables_number   1
_chemical_formula_structural   Sm3OsO7
_chemical_formula_sum   'Sm6 Os2 O14'
_cell_volume   298.15518162
_cell_formula_units_Z   2
loop_
 _symmetry_equiv_pos_site_id
 _symmetry_equiv_pos_as_xyz
  1  'x, y, z'
loop_
 _atom_site_type_symbol
 _atom_site_label
 _atom_site_symmetry_multiplicity
 _atom_site_fract_x
 _atom_site_fract_y
 _atom_site_fract_z
 _atom_site_occupancy
  Sm  Sm0  1  -0.00000000  -0.00000000  0.00000000  1
  Sm  Sm1  1  -0.00000000  -0.00000000  0.50000000  1
  Sm  Sm2  1  0.47517796  0.92357422  0.75000000  1
  Sm  Sm3  1  0.52482204  0.07642578  0.25000000  1
  Sm  Sm4  1  0.92357422  0.47517796  0.75000000  1
  Sm  Sm5  1  0.07642578  0.52482204  0.25000000  1
  Os  Os0  1  0.50000000  0.50000000  0.00000000  1
  Os  Os1  1  0.50000000  0.50000000  0.50000000  1
  O  O0  1  0.58706622  0.58706622  0.75000000  1
  O  O1  1  0.41293378  0.41293378  0.25000000  1
  O  O2  1  0.84274574  0.10704315  0.75000000  1
  O  O3  1  0.15725426  0.89295685  0.25000000  1
  O  O4  1  0.10704315  0.84274574  0.75000000  1
  O  O5  1  0.89295685  0.15725426  0.25000000  1
  O  O6  1  0.43876656  0.18550036  0.96104618  1
  O  O7  1  0.56123344  0.81449964  0.46104618  1
  O  O8  1  0.18550036  0.43876656  0.96104618  1
  O  O9  1  0.81449964  0.56123344  0.46104618  1
  O  O10  1  0.43876656  0.18550036  0.53895382  1
  O  O11  1  0.56123344  0.81449964  0.03895382  1
  O  O12  1  0.81449964  0.56123344  0.03895382  1
  O  O13  1  0.18550036  0.43876656  0.53895382  1
loop_
_geom_bond_atom_site_label_1
_geom_bond_atom_site_label_2
_geom_bond_distance
_geom_bond_site_symmetry_2
O0 Os0 1.979926 1_556
O0 Os1 1.979926 1_555
O0 Sm2 2.552449 1_555
O0 Sm4 2.552449 1_555
O1 Os0 1.979926 1_555
O1 Os1 1.979926 1_555
O1 Sm5 2.552449 1_555
O1 Sm3 2.552449 1_555
O2 Sm2 2.266039 1_545
O2 Sm4 2.268998 1_555
O2 Sm1 2.358726 1_655
O2 Sm0 2.358726 1_656
O3 Sm3 2.266039 1_565
O3 Sm5 2.268998 1_555
O3 Sm0 2.358726 1_565
O3 Sm1 2.358726 1_565
O4 Sm4 2.266039 1_455
O4 Sm2 2.268998 1_555
O4 Sm1 2.358726 1_565
O4 Sm0 2.358726 1_566
O5 Sm5 2.266039 1_655
O5 Sm3 2.268998 1_555
O5 Sm0 2.358726 1_655
O5 Sm1 2.358726 1_655
O6 Os0 1.968334 1_556
O6 Sm2 2.402556 1_545
O6 Sm3 2.406909 1_556
O6 Sm0 2.696969 1_556
O7 Os1 1.968334 1_555
O7 Sm3 2.402556 1_565
O7 Sm2 2.406909 1_555
O7 Sm1 2.696969 1_665
O8 Os0 1.968334 1_556
O8 Sm4 2.402556 1_455
O8 Sm5 2.406909 1_556
O8 Sm0 2.696969 1_556
O9 Os1 1.968334 1_555
O9 Sm5 2.402556 1_655
O9 Sm4 2.406909 1_555
O9 Sm1 2.696969 1_665
O10 Os1 1.968334 1_555
O10 Sm2 2.402556 1_545
O10 Sm3 2.406909 1_555
O10 Sm1 2.696969 1_555
O11 Os0 1.968334 1_555
O11 Sm3 2.402556 1_565
O11 Sm2 2.406909 1_554
O11 Sm0 2.696969 1_665
O12 Os0 1.968334 1_555
O12 Sm5 2.402556 1_655
O12 Sm4 2.406909 1_554
O12 Sm0 2.696969 1_665
O13 Os1 1.968334 1_555
O13 Sm4 2.402556 1_455
O13 Sm5 2.406909 1_555
O13 Sm1 2.696969 1_555
