# generated using pymatgen
data_K2MnF4
_symmetry_space_group_name_H-M   'P 1'
_cell_length_a   4.15452500
_cell_length_b   4.15452496
_cell_length_c   7.22665541
_cell_angle_alpha   106.70501170
_cell_angle_beta   106.70502717
_cell_angle_gamma   90.00000927
_symmetry_Int_Tables_number   1
_chemical_formula_structural   K2MnF4
_chemical_formula_sum   'K2 Mn1 F4'
_cell_volume   113.96163390
_cell_formula_units_Z   1
loop_
 _symmetry_equiv_pos_site_id
 _symmetry_equiv_pos_as_xyz
  1  'x, y, z'
loop_
 _atom_site_type_symbol
 _atom_site_label
 _atom_site_symmetry_multiplicity
 _atom_site_fract_x
 _atom_site_fract_y
 _atom_site_fract_z
 _atom_site_occupancy
  K  K0  1  0.35459906  0.35459906  0.70919912  1
  K  K1  1  0.64540094  0.64540094  0.29080088  1
  Mn  Mn0  1  0.00000000  0.00000000  -0.00000000  1
  F  F0  1  0.15976296  0.15976296  0.31952692  1
  F  F1  1  0.84023704  0.84023704  0.68047308  1
  F  F2  1  0.00000000  0.50000000  -0.00000000  1
  F  F3  1  0.50000000  0.00000000  -0.00000000  1
loop_
_geom_bond_atom_site_label_1
_geom_bond_atom_site_label_2
_geom_bond_distance
_geom_bond_site_symmetry_2
F0 Mn0 2.109713 1_555
F0 K0 2.572855 1_555
F0 K1 2.943803 1_445
F0 K1 2.943809 1_455
F0 K1 2.943809 1_545
F0 K1 2.943815 1_555
F1 Mn0 2.109713 1_666
F1 K1 2.572855 1_555
F1 K0 2.943803 1_665
F1 K0 2.943809 1_655
F1 K0 2.943809 1_565
F1 K0 2.943815 1_555
F2 Mn0 2.077262 1_555
F2 Mn0 2.077262 1_565
F2 K1 2.828708 1_455
F2 K0 2.828708 1_554
F2 K0 2.828711 1_454
F2 K1 2.828711 1_555
F3 Mn0 2.077263 1_555
F3 Mn0 2.077263 1_655
F3 K1 2.828707 1_545
F3 K0 2.828707 1_554
F3 K0 2.828711 1_544
F3 K1 2.828711 1_555
