# generated using pymatgen
data_ZnS
_symmetry_space_group_name_H-M   'P 1'
_cell_length_a   3.81024234
_cell_length_b   3.81024222
_cell_length_c   68.46594218
_cell_angle_alpha   90.00000000
_cell_angle_beta   90.00000000
_cell_angle_gamma   119.99999216
_symmetry_Int_Tables_number   1
_chemical_formula_structural   ZnS
_chemical_formula_sum   'Zn22 S22'
_cell_volume   860.81621466
_cell_formula_units_Z   22
loop_
 _symmetry_equiv_pos_site_id
 _symmetry_equiv_pos_as_xyz
  1  'x, y, z'
loop_
 _atom_site_type_symbol
 _atom_site_label
 _atom_site_symmetry_multiplicity
 _atom_site_fract_x
 _atom_site_fract_y
 _atom_site_fract_z
 _atom_site_occupancy
  Zn  Zn0  1  0.66666700  0.33333300  0.36345312  1
  Zn  Zn1  1  0.66666700  0.33333300  0.63644828  1
  Zn  Zn2  1  -0.00000000  -0.00000000  0.81808873  1
  Zn  Zn3  1  0.33333300  0.66666700  0.31808773  1
  Zn  Zn4  1  0.33333300  0.66666700  0.95449599  1
  Zn  Zn5  1  0.33333300  0.66666700  0.04566200  1
  Zn  Zn6  1  -0.00000000  0.00000000  0.54536763  1
  Zn  Zn7  1  0.00000000  0.00000000  0.27277821  1
  Zn  Zn8  1  0.00000000  -0.00000000  0.13653696  1
  Zn  Zn9  1  0.66666700  0.33333300  0.90901447  1
  Zn  Zn10  1  0.33333300  0.66666700  0.72736563  1
  Zn  Zn11  1  0.33333300  0.66666700  0.59093723  1
  Zn  Zn12  1  0.33333300  0.66666700  0.18204581  1
  Zn  Zn13  1  0.00000000  -0.00000000  0.68192113  1
  Zn  Zn14  1  0.66666700  0.33333300  0.09111888  1
  Zn  Zn15  1  0.00000000  0.00000000  0.40887122  1
  Zn  Zn16  1  0.66666700  0.33333300  0.77273289  1
  Zn  Zn17  1  0.33333300  0.66666700  0.45425459  1
  Zn  Zn18  1  0.00000000  0.00000000  0.00004793  1
  Zn  Zn19  1  0.66666700  0.33333300  0.22746158  1
  Zn  Zn20  1  0.33333300  0.66666700  0.86354377  1
  Zn  Zn21  1  0.66666700  0.33333300  0.49976878  1
  S  S0  1  0.33333300  0.66666700  0.76142291  1
  S  S1  1  0.33333300  0.66666700  0.07975107  1
  S  S2  1  0.66666700  0.33333300  0.53392003  1
  S  S3  1  -0.00000000  0.00000000  0.30680102  1
  S  S4  1  0.33333300  0.66666700  0.98857872  1
  S  S5  1  0.33333300  0.66666700  0.48835474  1
  S  S6  1  0.66666700  0.33333300  0.94313186  1
  S  S7  1  0.66666700  0.33333300  0.26150050  1
  S  S8  1  0.66666700  0.33333300  0.12518514  1
  S  S9  1  -0.00000000  0.00000000  0.17064199  1
  S  S10  1  0.66666700  0.33333300  0.67054242  1
  S  S11  1  0.66666700  0.33333300  0.39752797  1
  S  S12  1  0.33333300  0.66666700  0.89760794  1
  S  S13  1  0.33333300  0.66666700  0.35213064  1
  S  S14  1  -0.00000000  0.00000000  0.57951177  1
  S  S15  1  0.33333300  0.66666700  0.21612862  1
  S  S16  1  -0.00000000  -0.00000000  0.44292466  1
  S  S17  1  0.00000000  0.00000000  0.71600652  1
  S  S18  1  -0.00000000  0.00000000  0.85216496  1
  S  S19  1  -0.00000000  0.00000000  0.03422343  1
  S  S20  1  0.66666700  0.33333300  0.80677899  1
  S  S21  1  0.33333300  0.66666700  0.62505553  1
loop_
_geom_bond_atom_site_label_1
_geom_bond_atom_site_label_2
_geom_bond_distance
_geom_bond_site_symmetry_2
S0 Zn10 2.331764 1_555
S0 Zn16 2.332150 1_565
S0 Zn16 2.332150 1_455
S0 Zn16 2.332156 1_555
S1 Zn14 2.333467 1_565
S1 Zn14 2.333467 1_455
S1 Zn14 2.333473 1_555
S1 Zn5 2.333940 1_555
S2 Zn6 2.335295 1_655
S2 Zn6 2.335298 1_665
S2 Zn6 2.335298 1_555
S2 Zn21 2.338198 1_555
S3 Zn7 2.329404 1_555
S3 Zn3 2.331621 1_545
S3 Zn3 2.331624 1_555
S3 Zn3 2.331624 1_445
S4 Zn4 2.333506 1_555
S4 Zn18 2.335792 1_566
S4 Zn18 2.335795 1_556
S4 Zn18 2.335795 1_666
S5 Zn21 2.334525 1_565
S5 Zn21 2.334525 1_455
S5 Zn21 2.334531 1_555
S5 Zn17 2.334699 1_555
S6 Zn4 2.333383 1_545
S6 Zn4 2.333383 1_655
S6 Zn4 2.333389 1_555
S6 Zn9 2.335879 1_555
S7 Zn19 2.330507 1_555
S7 Zn7 2.331417 1_655
S7 Zn7 2.331420 1_665
S7 Zn7 2.331420 1_555
S8 Zn14 2.332379 1_555
S8 Zn8 2.333102 1_655
S8 Zn8 2.333105 1_665
S8 Zn8 2.333106 1_555
S9 Zn12 2.334291 1_545
S9 Zn12 2.334294 1_555
S9 Zn12 2.334294 1_445
S9 Zn8 2.335033 1_555
S10 Zn13 2.333716 1_655
S10 Zn13 2.333719 1_665
S10 Zn13 2.333719 1_555
S10 Zn1 2.334287 1_555
S11 Zn15 2.332907 1_655
S11 Zn15 2.332910 1_665
S11 Zn15 2.332910 1_555
S11 Zn0 2.332967 1_555
S12 Zn20 2.332235 1_555
S12 Zn9 2.334353 1_565
S12 Zn9 2.334353 1_455
S12 Zn9 2.334359 1_555
S13 Zn3 2.330780 1_555
S13 Zn0 2.332434 1_565
S13 Zn0 2.332434 1_455
S13 Zn0 2.332440 1_555
S14 Zn11 2.334787 1_545
S14 Zn11 2.334790 1_555
S14 Zn11 2.334790 1_445
S14 Zn6 2.337711 1_555
S15 Zn19 2.332672 1_565
S15 Zn19 2.332673 1_455
S15 Zn19 2.332679 1_555
S15 Zn12 2.333512 1_555
S16 Zn15 2.331501 1_555
S16 Zn17 2.332603 1_545
S16 Zn17 2.332607 1_555
S16 Zn17 2.332607 1_445
S17 Zn10 2.333268 1_545
S17 Zn10 2.333272 1_555
S17 Zn10 2.333272 1_445
S17 Zn13 2.333688 1_555
S18 Zn2 2.333061 1_555
S18 Zn20 2.333718 1_545
S18 Zn20 2.333722 1_555
S18 Zn20 2.333722 1_445
S19 Zn5 2.335087 1_545
S19 Zn5 2.335091 1_555
S19 Zn5 2.335091 1_445
S19 Zn18 2.339858 1_555
S20 Zn16 2.330998 1_555
S20 Zn2 2.332144 1_655
S20 Zn2 2.332147 1_665
S20 Zn2 2.332147 1_555
S21 Zn1 2.334037 1_565
S21 Zn1 2.334037 1_455
S21 Zn1 2.334043 1_555
S21 Zn11 2.335942 1_555
