# generated using pymatgen
data_Cd2AsO4F
_symmetry_space_group_name_H-M   'P 1'
_cell_length_a   8.06821495
_cell_length_b   8.06821495
_cell_length_c   10.96584273
_cell_angle_alpha   62.68382030
_cell_angle_beta   62.68382030
_cell_angle_gamma   51.33560947
_symmetry_Int_Tables_number   1
_chemical_formula_structural   Cd2AsO4F
_chemical_formula_sum   'Cd8 As4 O16 F4'
_cell_volume   479.72251718
_cell_formula_units_Z   4
loop_
 _symmetry_equiv_pos_site_id
 _symmetry_equiv_pos_as_xyz
  1  'x, y, z'
loop_
 _atom_site_type_symbol
 _atom_site_label
 _atom_site_symmetry_multiplicity
 _atom_site_fract_x
 _atom_site_fract_y
 _atom_site_fract_z
 _atom_site_occupancy
  Cd  Cd0  1  0.79226900  0.31282400  0.00950400  1
  Cd  Cd1  1  0.68717600  0.20773100  0.49049600  1
  Cd  Cd2  1  0.20773100  0.68717600  0.99049600  1
  Cd  Cd3  1  0.31282400  0.79226900  0.50950400  1
  Cd  Cd4  1  0.95130600  0.74150900  0.34852600  1
  Cd  Cd5  1  0.25849100  0.04869400  0.15147400  1
  Cd  Cd6  1  0.04869400  0.25849100  0.65147400  1
  Cd  Cd7  1  0.74150900  0.95130600  0.84852600  1
  As  As0  1  0.77095900  0.58330700  0.19311500  1
  As  As1  1  0.41669300  0.22904100  0.30688500  1
  As  As2  1  0.22904100  0.41669300  0.80688500  1
  As  As3  1  0.58330700  0.77095900  0.69311500  1
  O  O0  1  0.21819300  0.39467800  0.42205400  1
  O  O1  1  0.60532200  0.78180700  0.07794600  1
  O  O2  1  0.78180700  0.60532200  0.57794600  1
  O  O3  1  0.39467800  0.21819300  0.92205400  1
  O  O4  1  0.05403600  0.35532600  0.81478100  1
  O  O5  1  0.64467400  0.94596400  0.68521900  1
  O  O6  1  0.94596400  0.64467400  0.18521900  1
  O  O7  1  0.35532600  0.05403600  0.31478100  1
  O  O8  1  0.38157400  0.45394200  0.63558500  1
  O  O9  1  0.54605800  0.61842600  0.86441500  1
  O  O10  1  0.61842600  0.54605800  0.36441500  1
  O  O11  1  0.45394200  0.38157400  0.13558500  1
  O  O12  1  0.08171500  0.65719000  0.85744800  1
  O  O13  1  0.34281000  0.91828500  0.64255200  1
  O  O14  1  0.91828500  0.34281000  0.14255200  1
  O  O15  1  0.65719000  0.08171500  0.35744800  1
  F  F0  1  0.92371100  0.09973300  0.61060600  1
  F  F1  1  0.90026700  0.07628900  0.88939400  1
  F  F2  1  0.07628900  0.90026700  0.38939400  1
  F  F3  1  0.09973300  0.92371100  0.11060600  1
loop_
_geom_bond_atom_site_label_1
_geom_bond_atom_site_label_2
_geom_bond_distance
_geom_bond_site_symmetry_2
Cd0 O11 2.240218 1_555
Cd0 O14 2.283344 1_555
Cd0 O4 2.287242 1_654
Cd0 F1 2.304756 1_554
Cd0 O9 2.395229 1_554
Cd0 F3 2.614873 1_645
Cd1 O10 2.240218 1_555
Cd1 O15 2.283344 1_555
Cd1 O5 2.287242 1_545
Cd1 F0 2.304756 1_555
Cd1 O8 2.395229 1_555
Cd1 F2 2.614873 1_645
Cd2 O9 2.240218 1_555
Cd2 O12 2.283344 1_555
Cd2 O6 2.287242 1_456
Cd2 F3 2.304756 1_556
Cd2 O11 2.395229 1_556
Cd2 F1 2.614873 1_465
Cd3 O8 2.240218 1_555
Cd3 O13 2.283344 1_555
Cd3 O7 2.287242 1_565
Cd3 F2 2.304756 1_555
Cd3 O10 2.395229 1_555
Cd3 F0 2.614873 1_465
Cd4 O15 2.251565 1_565
Cd4 O0 2.260741 1_655
Cd4 O6 2.283913 1_555
Cd4 F2 2.326783 1_655
Cd4 O2 2.364220 1_555
Cd4 F3 2.492799 1_655
Cd5 O14 2.251565 1_455
Cd5 O1 2.260741 1_545
Cd5 O7 2.283913 1_555
Cd5 F3 2.326783 1_545
Cd5 O3 2.364220 1_554
Cd5 F2 2.492799 1_545
Cd6 O13 2.251565 1_545
Cd6 O2 2.260741 1_455
Cd6 O4 2.283913 1_555
Cd6 F0 2.326783 1_455
Cd6 O0 2.364220 1_555
Cd6 F1 2.492799 1_455
Cd7 O12 2.251565 1_655
Cd7 O3 2.260741 1_565
Cd7 O5 2.283913 1_555
Cd7 F1 2.326783 1_565
Cd7 O1 2.364220 1_556
Cd7 F0 2.492799 1_565
As0 O10 1.719221 1_555
As0 O1 1.721686 1_555
As0 O6 1.722878 1_555
As0 O14 1.728011 1_555
As1 O11 1.719221 1_555
As1 O0 1.721686 1_555
As1 O7 1.722878 1_555
As1 O15 1.728011 1_555
As2 O8 1.719221 1_555
As2 O3 1.721686 1_555
As2 O4 1.722878 1_555
As2 O12 1.728011 1_555
As3 O9 1.719221 1_555
As3 O2 1.721686 1_555
As3 O5 1.722878 1_555
As3 O13 1.728011 1_555
