# generated using pymatgen
data_Cs3ZnCl5
_symmetry_space_group_name_H-M   'P 1'
_cell_length_a   9.26343953
_cell_length_b   9.26343889
_cell_length_c   9.77216702
_cell_angle_alpha   118.29235135
_cell_angle_beta   118.29234670
_cell_angle_gamma   89.99999710
_symmetry_Int_Tables_number   1
_chemical_formula_structural   Cs3ZnCl5
_chemical_formula_sum   'Cs6 Zn2 Cl10'
_cell_volume   622.29224989
_cell_formula_units_Z   2
loop_
 _symmetry_equiv_pos_site_id
 _symmetry_equiv_pos_as_xyz
  1  'x, y, z'
loop_
 _atom_site_type_symbol
 _atom_site_label
 _atom_site_symmetry_multiplicity
 _atom_site_fract_x
 _atom_site_fract_y
 _atom_site_fract_z
 _atom_site_occupancy
  Cs  Cs0  1  0.16348636  0.66348636  -0.00000000  1
  Cs  Cs1  1  0.66348636  0.83651364  0.00000000  1
  Cs  Cs2  1  0.75000000  0.75000000  0.50000000  1
  Cs  Cs3  1  0.83651364  0.33651364  0.00000000  1
  Cs  Cs4  1  0.25000000  0.25000000  0.50000000  1
  Cs  Cs5  1  0.33651364  0.16348636  -0.00000000  1
  Zn  Zn0  1  0.75000000  0.25000000  0.50000000  1
  Zn  Zn1  1  0.25000000  0.75000000  0.50000000  1
  Cl  Cl0  1  0.70239006  0.48165815  0.68404821  1
  Cl  Cl1  1  0.98165815  0.20239006  0.68404821  1
  Cl  Cl2  1  0.29760994  0.51834185  0.31595179  1
  Cl  Cl3  1  0.50000000  0.50000000  0.00000000  1
  Cl  Cl4  1  0.20239006  0.70239006  0.68404821  1
  Cl  Cl5  1  0.79760994  0.29760994  0.31595179  1
  Cl  Cl6  1  0.48165815  0.98165815  0.68404821  1
  Cl  Cl7  1  0.01834185  0.79760994  0.31595179  1
  Cl  Cl8  1  0.51834185  0.01834185  0.31595179  1
  Cl  Cl9  1  -0.00000000  0.00000000  0.00000000  1
loop_
_geom_bond_atom_site_label_1
_geom_bond_atom_site_label_2
_geom_bond_distance
_geom_bond_site_symmetry_2
Cl0 Zn0 2.264431 1_555
Cl0 Cs1 3.449949 1_556
Cl0 Cs0 3.630856 1_656
Cl0 Cs3 3.630856 1_556
Cl0 Cs2 3.820771 1_555
Cl0 Cs4 3.820771 1_555
Cl1 Zn0 2.264431 1_555
Cl1 Cs5 3.449949 1_656
Cl1 Cs0 3.630856 1_656
Cl1 Cs3 3.630856 1_556
Cl1 Cs2 3.820771 1_545
Cl1 Cs4 3.820771 1_655
Cl2 Zn1 2.264431 1_555
Cl2 Cs5 3.449949 1_555
Cl2 Cs3 3.630856 1_455
Cl2 Cs0 3.630856 1_555
Cl2 Cs4 3.820771 1_555
Cl2 Cs2 3.820771 1_555
Cl3 Cs1 3.465681 1_555
Cl3 Cs5 3.465681 1_555
Cl3 Cs3 3.465681 1_555
Cl3 Cs0 3.465681 1_555
Cl3 Cs4 3.625934 1_554
Cl3 Cs2 3.625934 1_555
Cl4 Zn1 2.264431 1_555
Cl4 Cs0 3.449949 1_556
Cl4 Cs5 3.630856 1_566
Cl4 Cs1 3.630856 1_556
Cl4 Cs4 3.820771 1_555
Cl4 Cs2 3.820771 1_455
Cl5 Zn0 2.264431 1_555
Cl5 Cs3 3.449949 1_555
Cl5 Cs1 3.630856 1_545
Cl5 Cs5 3.630856 1_555
Cl5 Cs2 3.820771 1_555
Cl5 Cs4 3.820771 1_655
Cl6 Zn1 2.264431 1_555
Cl6 Cs3 3.449949 1_566
Cl6 Cs5 3.630856 1_566
Cl6 Cs1 3.630856 1_556
Cl6 Cs2 3.820771 1_555
Cl6 Cs4 3.820771 1_565
Cl7 Zn1 2.264431 1_555
Cl7 Cs1 3.449949 1_455
Cl7 Cs3 3.630856 1_455
Cl7 Cs0 3.630856 1_555
Cl7 Cs4 3.820771 1_565
Cl7 Cs2 3.820771 1_455
Cl8 Zn0 2.264431 1_555
Cl8 Cs0 3.449949 1_545
Cl8 Cs1 3.630856 1_545
Cl8 Cs5 3.630856 1_555
Cl8 Cs4 3.820771 1_555
Cl8 Cs2 3.820771 1_545
Cl9 Cs0 3.465680 1_545
Cl9 Cs3 3.465680 1_455
Cl9 Cs1 3.465681 1_445
Cl9 Cs5 3.465681 1_555
Cl9 Cs2 3.625934 1_444
Cl9 Cs4 3.625934 1_555
