# generated using pymatgen
data_NdSnAu
_symmetry_space_group_name_H-M   'P 1'
_cell_length_a   4.74426267
_cell_length_b   4.74426271
_cell_length_c   7.70749257
_cell_angle_alpha   90.00000000
_cell_angle_beta   90.00000000
_cell_angle_gamma   120.00000676
_symmetry_Int_Tables_number   1
_chemical_formula_structural   NdSnAu
_chemical_formula_sum   'Nd2 Sn2 Au2'
_cell_volume   150.23847713
_cell_formula_units_Z   2
loop_
 _symmetry_equiv_pos_site_id
 _symmetry_equiv_pos_as_xyz
  1  'x, y, z'
loop_
 _atom_site_type_symbol
 _atom_site_label
 _atom_site_symmetry_multiplicity
 _atom_site_fract_x
 _atom_site_fract_y
 _atom_site_fract_z
 _atom_site_occupancy
  Nd  Nd0  1  0.00000000  0.00000000  0.24398706  1
  Nd  Nd1  1  -0.00000000  -0.00000000  0.74398706  1
  Sn  Sn0  1  0.66666700  0.33333300  0.96877027  1
  Sn  Sn1  1  0.33333300  0.66666700  0.46877027  1
  Au  Au0  1  0.33333300  0.66666700  0.06124367  1
  Au  Au1  1  0.66666700  0.33333300  0.56124367  1
loop_
_geom_bond_atom_site_label_1
_geom_bond_atom_site_label_2
_geom_bond_distance
_geom_bond_site_symmetry_2
Nd0 Sn1 3.241029 1_545
Nd0 Sn1 3.241032 1_445
Nd0 Sn1 3.241032 1_555
Nd0 Sn0 3.464431 1_454
Nd0 Sn0 3.464434 1_554
Nd0 Sn0 3.464434 1_444
Nd1 Sn0 3.241029 1_455
Nd1 Sn0 3.241032 1_555
Nd1 Sn0 3.241032 1_445
Nd1 Sn1 3.464431 1_545
Nd1 Sn1 3.464434 1_445
Nd1 Sn1 3.464434 1_555
Au0 Sn0 2.830310 1_454
Au0 Sn0 2.830310 1_564
Au0 Sn0 2.830318 1_554
Au0 Nd0 3.080019 1_565
Au0 Nd0 3.080022 1_665
Au0 Nd0 3.080022 1_555
Au0 Sn1 3.141008 1_555
Au0 Nd1 3.671774 1_564
Au0 Nd1 3.671777 1_664
Au0 Nd1 3.671777 1_554
Au1 Sn1 2.830310 1_655
Au1 Sn1 2.830310 1_545
Au1 Sn1 2.830318 1_555
Au1 Nd1 3.080019 1_655
Au1 Nd1 3.080022 1_555
Au1 Nd1 3.080022 1_665
Au1 Sn0 3.141008 1_555
Au1 Nd0 3.671774 1_655
Au1 Nd0 3.671777 1_555
Au1 Nd0 3.671777 1_665
