# generated using pymatgen
data_Bi8SbAuBr9
_symmetry_space_group_name_H-M   'P 1'
_cell_length_a   15.58662400
_cell_length_b   10.93721000
_cell_length_c   15.24017691
_cell_angle_alpha   88.05637924
_cell_angle_beta   90.00000000
_cell_angle_gamma   90.00000000
_symmetry_Int_Tables_number   1
_chemical_formula_structural   Bi8SbAuBr9
_chemical_formula_sum   'Bi32 Sb4 Au4 Br36'
_cell_volume   2596.56195768
_cell_formula_units_Z   4
loop_
 _symmetry_equiv_pos_site_id
 _symmetry_equiv_pos_as_xyz
  1  'x, y, z'
loop_
 _atom_site_type_symbol
 _atom_site_label
 _atom_site_symmetry_multiplicity
 _atom_site_fract_x
 _atom_site_fract_y
 _atom_site_fract_z
 _atom_site_occupancy
  Bi  Bi0  1  0.14098900  0.04796600  0.80027400  1
  Bi  Bi1  1  0.35780500  0.93886500  0.69481900  1
  Bi  Bi2  1  0.64489400  0.30725400  0.02214600  1
  Bi  Bi3  1  0.86383400  0.54998600  0.64306400  1
  Bi  Bi4  1  0.64098900  0.95203400  0.69972600  1
  Bi  Bi5  1  0.36383400  0.45001400  0.85693600  1
  Bi  Bi6  1  0.85901100  0.95203400  0.19972600  1
  Bi  Bi7  1  0.68333100  0.57866600  0.93519500  1
  Bi  Bi8  1  0.63616600  0.54998600  0.14306400  1
  Bi  Bi9  1  0.85780500  0.06113500  0.80518100  1
  Bi  Bi10  1  0.05174700  0.23068300  0.47321200  1
  Bi  Bi11  1  0.94825300  0.76931700  0.52678800  1
  Bi  Bi12  1  0.64219500  0.06113500  0.30518100  1
  Bi  Bi13  1  0.55174700  0.76931700  0.02678800  1
  Bi  Bi14  1  0.35901100  0.04796600  0.30027400  1
  Bi  Bi15  1  0.14489400  0.69274600  0.47785400  1
  Bi  Bi16  1  0.44825300  0.23068300  0.97321200  1
  Bi  Bi17  1  0.81666900  0.57866600  0.43519500  1
  Bi  Bi18  1  0.93140500  0.37985700  0.33014800  1
  Bi  Bi19  1  0.06859500  0.62014300  0.66985200  1
  Bi  Bi20  1  0.00898100  0.33796000  0.94483200  1
  Bi  Bi21  1  0.13616600  0.45001400  0.35693600  1
  Bi  Bi22  1  0.99101900  0.66204000  0.05516800  1
  Bi  Bi23  1  0.56859500  0.37985700  0.83014800  1
  Bi  Bi24  1  0.35510600  0.69274600  0.97785400  1
  Bi  Bi25  1  0.43140500  0.62014300  0.16985200  1
  Bi  Bi26  1  0.18333100  0.42133400  0.56480500  1
  Bi  Bi27  1  0.85510600  0.30725400  0.52214600  1
  Bi  Bi28  1  0.31666900  0.42133400  0.06480500  1
  Bi  Bi29  1  0.49101900  0.33796000  0.44483200  1
  Bi  Bi30  1  0.14219500  0.93886500  0.19481900  1
  Bi  Bi31  1  0.50898100  0.66204000  0.55516800  1
  Sb  Sb0  1  0.49664500  0.22851300  0.27111100  1
  Sb  Sb1  1  0.00335500  0.22851300  0.77111100  1
  Sb  Sb2  1  0.99664500  0.77148700  0.22888900  1
  Sb  Sb3  1  0.50335500  0.77148700  0.72888900  1
  Au  Au0  1  0.00640700  0.37693800  0.62398700  1
  Au  Au1  1  0.99359300  0.62306200  0.37601300  1
  Au  Au2  1  0.50640700  0.62306200  0.87601300  1
  Au  Au3  1  0.49359300  0.37693800  0.12398700  1
  Br  Br0  1  0.64519700  0.17414100  0.47883500  1
  Br  Br1  1  0.37081300  0.50885300  0.37265300  1
  Br  Br2  1  0.38740200  0.48485500  0.62948400  1
  Br  Br3  1  0.87081300  0.49114700  0.12734700  1
  Br  Br4  1  0.61259800  0.51514500  0.37051600  1
  Br  Br5  1  0.50278800  0.87114600  0.32248100  1
  Br  Br6  1  0.63658200  0.02062700  0.11919300  1
  Br  Br7  1  0.13012300  0.99830200  0.61933100  1
  Br  Br8  1  0.36341800  0.97937300  0.88080700  1
  Br  Br9  1  0.84368600  0.82521400  0.02396900  1
  Br  Br10  1  0.49721200  0.12885400  0.67751900  1
  Br  Br11  1  0.85480300  0.17414100  0.97883500  1
  Br  Br12  1  0.24909400  0.74149700  0.25718200  1
  Br  Br13  1  0.36987700  0.99830200  0.11933100  1
  Br  Br14  1  0.62918700  0.49114700  0.62734700  1
  Br  Br15  1  0.34368600  0.17478600  0.47603100  1
  Br  Br16  1  0.15631400  0.17478600  0.97603100  1
  Br  Br17  1  0.74435000  0.76246200  0.26402900  1
  Br  Br18  1  0.11259800  0.48485500  0.12948400  1
  Br  Br19  1  0.99721200  0.87114600  0.82248100  1
  Br  Br20  1  0.25565000  0.23753800  0.73597100  1
  Br  Br21  1  0.24435000  0.23753800  0.23597100  1
  Br  Br22  1  0.13658200  0.97937300  0.38080700  1
  Br  Br23  1  0.75565000  0.76246200  0.76402900  1
  Br  Br24  1  0.65631400  0.82521400  0.52396900  1
  Br  Br25  1  0.86987700  0.00169800  0.38066900  1
  Br  Br26  1  0.86341800  0.02062700  0.61919300  1
  Br  Br27  1  0.75090600  0.25850300  0.74281800  1
  Br  Br28  1  0.63012300  0.00169800  0.88066900  1
  Br  Br29  1  0.00278800  0.12885400  0.17751900  1
  Br  Br30  1  0.74909400  0.25850300  0.24281800  1
  Br  Br31  1  0.12918700  0.50885300  0.87265300  1
  Br  Br32  1  0.35480300  0.82585900  0.52116500  1
  Br  Br33  1  0.14519700  0.82585900  0.02116500  1
  Br  Br34  1  0.88740200  0.51514500  0.87051600  1
  Br  Br35  1  0.25090600  0.74149700  0.75718200  1
loop_
_geom_bond_atom_site_label_1
_geom_bond_atom_site_label_2
_geom_bond_distance
_geom_bond_site_symmetry_2
Bi0 Br7 2.833675 1_545
Bi0 Br20 2.883660 1_555
Bi0 Sb1 2.939296 1_555
Bi0 Br19 2.971911 1_445
Bi0 Br16 3.067202 1_555
Bi1 Br35 2.863588 1_555
Bi1 Br8 2.885041 1_555
Bi1 Sb3 2.950101 1_555
Bi1 Br32 2.959011 1_555
Bi1 Br10 3.011918 1_565
Bi2 Bi7 3.264973 1_554
Bi4 Br28 2.833675 1_565
Bi4 Br23 2.883660 1_555
Bi4 Sb3 2.939296 1_555
Bi4 Br10 2.971911 1_565
Bi4 Br24 3.067202 1_555
Bi6 Br25 2.833675 1_565
Bi6 Br17 2.883660 1_555
Bi6 Sb2 2.939296 1_555
Bi6 Br29 2.971911 1_665
Bi6 Br9 3.067202 1_555
Bi7 Bi8 3.256900 1_556
Bi7 Br34 3.408535 1_555
Bi7 Br23 3.429382 1_555
Bi9 Br27 2.863588 1_555
Bi9 Br26 2.885041 1_555
Bi9 Sb1 2.950101 1_655
Bi9 Br11 2.959011 1_555
Bi9 Br19 3.011918 1_545
Bi10 Bi26 3.271142 1_555
Bi11 Bi17 3.271142 1_555
Bi12 Br30 2.863588 1_555
Bi12 Br6 2.885041 1_555
Bi12 Sb0 2.950101 1_555
Bi12 Br0 2.959011 1_555
Bi12 Br5 3.011918 1_545
Bi13 Bi7 3.271142 1_554
Bi14 Br13 2.833675 1_545
Bi14 Br21 2.883660 1_555
Bi14 Sb0 2.939296 1_555
Bi14 Br5 2.971911 1_545
Bi14 Br15 3.067202 1_555
Bi15 Bi26 3.264973 1_555
Bi16 Bi28 3.271142 1_556
Bi17 Bi3 3.256900 1_555
Bi17 Bi27 3.264973 1_555
Bi17 Bi18 3.274964 1_555
Bi17 Br4 3.408535 1_555
Bi17 Br17 3.429382 1_555
Bi19 Bi26 3.274964 1_555
Bi20 Br31 2.841564 1_555
Bi20 Br34 2.912116 1_455
Bi20 Br16 2.937197 1_555
Bi20 Sb1 2.943644 1_555
Bi20 Br11 3.031632 1_455
Bi21 Bi26 3.256900 1_555
Bi22 Br3 2.841564 1_555
Bi22 Br18 2.912116 1_655
Bi22 Br9 2.937197 1_555
Bi22 Sb2 2.943644 1_555
Bi22 Br33 3.031632 1_655
Bi23 Bi7 3.274964 1_555
Bi24 Bi28 3.264973 1_556
Bi25 Bi28 3.274964 1_555
Bi26 Br2 3.408535 1_555
Bi26 Br20 3.429382 1_555
Bi28 Bi5 3.256900 1_554
Bi28 Br18 3.408535 1_555
Bi28 Br21 3.429382 1_555
Bi29 Br1 2.841564 1_555
Bi29 Br4 2.912116 1_555
Bi29 Br15 2.937197 1_555
Bi29 Sb0 2.943644 1_555
Bi29 Br0 3.031632 1_555
Bi30 Br12 2.863588 1_555
Bi30 Br22 2.885041 1_555
Bi30 Sb2 2.950101 1_455
Bi30 Br33 2.959011 1_555
Bi30 Br29 3.011918 1_565
Bi31 Br14 2.841564 1_555
Bi31 Br2 2.912116 1_555
Bi31 Br24 2.937197 1_555
Bi31 Sb3 2.943644 1_555
Bi31 Br32 3.031632 1_555
Au0 Sb1 2.723616 1_555
Au0 Bi10 2.930460 1_555
Au0 Bi26 2.936698 1_555
Au0 Bi19 2.937647 1_555
Au0 Bi27 2.937940 1_455
Au0 Bi3 2.939785 1_455
Au1 Sb2 2.723616 1_555
Au1 Bi11 2.930460 1_555
Au1 Bi17 2.936698 1_555
Au1 Bi18 2.937647 1_555
Au1 Bi15 2.937940 1_655
Au1 Bi21 2.939785 1_655
Au2 Sb3 2.723616 1_555
Au2 Bi13 2.930460 1_556
Au2 Bi7 2.936698 1_555
Au2 Bi23 2.937647 1_555
Au2 Bi24 2.937940 1_555
Au2 Bi5 2.939785 1_555
Au3 Sb0 2.723616 1_555
Au3 Bi16 2.930460 1_554
Au3 Bi28 2.936698 1_555
Au3 Bi25 2.937647 1_555
Au3 Bi2 2.937940 1_555
Au3 Bi8 2.939785 1_555
