# generated using pymatgen
data_SiO2
_symmetry_space_group_name_H-M   'P 1'
_cell_length_a   7.52578722
_cell_length_b   7.52578722
_cell_length_c   8.68358089
_cell_angle_alpha   90.00000000
_cell_angle_beta   90.00000000
_cell_angle_gamma   90.00000000
_symmetry_Int_Tables_number   1
_chemical_formula_structural   SiO2
_chemical_formula_sum   'Si12 O24'
_cell_volume   491.81608064
_cell_formula_units_Z   12
loop_
 _symmetry_equiv_pos_site_id
 _symmetry_equiv_pos_as_xyz
  1  'x, y, z'
loop_
 _atom_site_type_symbol
 _atom_site_label
 _atom_site_symmetry_multiplicity
 _atom_site_fract_x
 _atom_site_fract_y
 _atom_site_fract_z
 _atom_site_occupancy
  Si  Si0  1  0.91597476  0.08402524  0.25000000  1
  Si  Si1  1  0.37979734  0.82611476  0.99700326  1
  Si  Si2  1  0.82611476  0.37979734  0.00299674  1
  Si  Si3  1  0.12020266  0.32611476  0.75299674  1
  Si  Si4  1  0.87979734  0.67388524  0.25299674  1
  Si  Si5  1  0.58402524  0.58402524  0.50000000  1
  Si  Si6  1  0.67388524  0.87979734  0.74700326  1
  Si  Si7  1  0.41597476  0.41597476  0.00000000  1
  Si  Si8  1  0.17388524  0.62020266  0.50299674  1
  Si  Si9  1  0.32611476  0.12020266  0.24700326  1
  Si  Si10  1  0.62020266  0.17388524  0.49700326  1
  Si  Si11  1  0.08402524  0.91597476  0.75000000  1
  O  O0  1  0.37609082  0.94462553  0.15050774  1
  O  O1  1  0.37959727  0.61590410  0.45371827  1
  O  O2  1  0.79647862  0.13624617  0.39673274  1
  O  O3  1  0.87959727  0.88409590  0.79628173  1
  O  O4  1  0.62390918  0.05537447  0.65050774  1
  O  O5  1  0.88409590  0.87959727  0.20371827  1
  O  O6  1  0.20352138  0.86375383  0.89673274  1
  O  O7  1  0.94462553  0.37609082  0.84949226  1
  O  O8  1  0.87609082  0.55537447  0.09949226  1
  O  O9  1  0.05537447  0.62390918  0.34949226  1
  O  O10  1  0.12040273  0.11590410  0.29628173  1
  O  O11  1  0.29647862  0.36375383  0.85326726  1
  O  O12  1  0.12390918  0.44462553  0.59949226  1
  O  O13  1  0.61590410  0.37959727  0.54628173  1
  O  O14  1  0.44462553  0.12390918  0.40050774  1
  O  O15  1  0.13624617  0.79647862  0.60326726  1
  O  O16  1  0.63624617  0.70352138  0.64673274  1
  O  O17  1  0.55537447  0.87609082  0.90050774  1
  O  O18  1  0.11590410  0.12040273  0.70371827  1
  O  O19  1  0.62040273  0.38409590  0.95371827  1
  O  O20  1  0.70352138  0.63624617  0.35326726  1
  O  O21  1  0.38409590  0.62040273  0.04628173  1
  O  O22  1  0.36375383  0.29647862  0.14673274  1
  O  O23  1  0.86375383  0.20352138  0.10326726  1
loop_
_geom_bond_atom_site_label_1
_geom_bond_atom_site_label_2
_geom_bond_distance
_geom_bond_site_symmetry_2
O0 Si1 1.604072 1_554
O0 Si9 1.609211 1_565
O1 Si8 1.606521 1_555
O1 Si5 1.608104 1_555
O2 Si0 1.608321 1_555
O2 Si10 1.611917 1_555
O3 Si6 1.606521 1_555
O3 Si11 1.608104 1_655
O4 Si10 1.604072 1_555
O4 Si6 1.609211 1_545
O5 Si4 1.606521 1_555
O5 Si0 1.608104 1_565
O6 Si11 1.608321 1_555
O6 Si1 1.611917 1_555
O7 Si2 1.604072 1_556
O7 Si3 1.609211 1_655
O8 Si4 1.604072 1_555
O8 Si2 1.609211 1_555
O9 Si8 1.604072 1_555
O9 Si4 1.609211 1_455
O10 Si9 1.606521 1_555
O10 Si0 1.608104 1_455
O11 Si7 1.608321 1_556
O11 Si3 1.611917 1_555
O12 Si3 1.604072 1_555
O12 Si8 1.609211 1_555
O13 Si10 1.606521 1_555
O13 Si5 1.608104 1_555
O14 Si9 1.604072 1_555
O14 Si10 1.609211 1_555
O15 Si11 1.608321 1_555
O15 Si8 1.611917 1_555
O16 Si5 1.608321 1_555
O16 Si6 1.611917 1_555
O17 Si6 1.604072 1_555
O17 Si1 1.609211 1_555
O18 Si3 1.606521 1_555
O18 Si11 1.608104 1_545
O19 Si2 1.606521 1_556
O19 Si7 1.608104 1_556
O20 Si5 1.608321 1_555
O20 Si4 1.611917 1_555
O21 Si1 1.606521 1_554
O21 Si7 1.608104 1_555
O22 Si7 1.608321 1_555
O22 Si9 1.611917 1_555
O23 Si0 1.608321 1_555
O23 Si2 1.611917 1_555
