# generated using pymatgen
data_Ba
_symmetry_space_group_name_H-M   'P 1'
_cell_length_a   9.25230030
_cell_length_b   9.26061486
_cell_length_c   14.58935698
_cell_angle_alpha   90.00000000
_cell_angle_beta   90.00000000
_cell_angle_gamma   119.97031255
_symmetry_Int_Tables_number   1
_chemical_formula_structural   Ba
_chemical_formula_sum   Ba16
_cell_volume   1082.89454767
_cell_formula_units_Z   16
loop_
 _symmetry_equiv_pos_site_id
 _symmetry_equiv_pos_as_xyz
  1  'x, y, z'
loop_
 _atom_site_type_symbol
 _atom_site_label
 _atom_site_symmetry_multiplicity
 _atom_site_fract_x
 _atom_site_fract_y
 _atom_site_fract_z
 _atom_site_occupancy
  Ba  Ba0_0  1  0.41645282  0.08290614  0.37500000  1
  Ba  Ba0_1  1  0.41645282  0.08290614  0.87500000  1
  Ba  Ba0_2  1  0.41645282  0.58290614  0.37500000  1
  Ba  Ba0_3  1  0.41645282  0.58290614  0.87500000  1
  Ba  Ba0_4  1  0.91645282  0.08290614  0.37500000  1
  Ba  Ba0_5  1  0.91645282  0.08290614  0.87500000  1
  Ba  Ba0_6  1  0.91645282  0.58290614  0.37500000  1
  Ba  Ba0_7  1  0.91645282  0.58290614  0.87500000  1
  Ba  Ba1_0  1  0.08354718  0.41709386  0.12500000  1
  Ba  Ba1_1  1  0.08354718  0.41709386  0.62500000  1
  Ba  Ba1_2  1  0.08354718  0.91709386  0.12500000  1
  Ba  Ba1_3  1  0.08354718  0.91709386  0.62500000  1
  Ba  Ba1_4  1  0.58354718  0.41709386  0.12500000  1
  Ba  Ba1_5  1  0.58354718  0.41709386  0.62500000  1
  Ba  Ba1_6  1  0.58354718  0.91709386  0.12500000  1
  Ba  Ba1_7  1  0.58354718  0.91709386  0.62500000  1
loop_
_geom_bond_atom_site_label_1
_geom_bond_atom_site_label_2
_geom_bond_distance
_geom_bond_site_symmetry_2
Ba0_0 Ba1_2 4.519160 1_545
Ba0_0 Ba1_3 4.519160 1_545
Ba0_0 Ba1_7 4.519165 1_545
Ba0_0 Ba1_6 4.519165 1_545
Ba0_0 Ba1_4 4.526659 1_555
Ba0_0 Ba1_5 4.526659 1_555
Ba0_0 Ba0_4 4.626150 1_455
Ba0_0 Ba0_4 4.626150 1_555
Ba0_0 Ba0_6 4.630307 1_445
Ba0_0 Ba0_6 4.630307 1_555
Ba0_0 Ba0_2 4.630307 1_555
Ba0_0 Ba0_2 4.630307 1_545
Ba0_1 Ba1_3 4.519160 1_545
Ba0_1 Ba1_2 4.519160 1_546
Ba0_1 Ba1_7 4.519165 1_545
Ba0_1 Ba1_6 4.519165 1_546
Ba0_1 Ba1_5 4.526659 1_555
Ba0_1 Ba1_4 4.526659 1_556
Ba0_1 Ba0_5 4.626150 1_455
Ba0_1 Ba0_5 4.626150 1_555
Ba0_1 Ba0_7 4.630307 1_445
Ba0_1 Ba0_7 4.630307 1_555
Ba0_1 Ba0_3 4.630307 1_545
Ba0_1 Ba0_3 4.630307 1_555
Ba0_2 Ba1_1 4.519160 1_555
Ba0_2 Ba1_0 4.519160 1_555
Ba0_2 Ba1_5 4.519165 1_555
Ba0_2 Ba1_4 4.519165 1_555
Ba0_2 Ba1_7 4.526659 1_555
Ba0_2 Ba1_6 4.526659 1_555
Ba0_2 Ba0_6 4.626150 1_555
Ba0_2 Ba0_6 4.626150 1_455
Ba0_2 Ba0_4 4.630307 1_455
Ba0_2 Ba0_4 4.630307 1_565
Ba0_3 Ba1_1 4.519160 1_555
Ba0_3 Ba1_0 4.519160 1_556
Ba0_3 Ba1_5 4.519165 1_555
Ba0_3 Ba1_4 4.519165 1_556
Ba0_3 Ba1_7 4.526659 1_555
Ba0_3 Ba1_6 4.526659 1_556
Ba0_3 Ba0_7 4.626150 1_555
Ba0_3 Ba0_7 4.626150 1_455
Ba0_3 Ba0_5 4.630307 1_455
Ba0_3 Ba0_5 4.630307 1_565
Ba0_4 Ba1_7 4.519160 1_545
Ba0_4 Ba1_6 4.519160 1_545
Ba0_4 Ba1_3 4.519165 1_645
Ba0_4 Ba1_2 4.519165 1_645
Ba0_4 Ba1_0 4.526659 1_655
Ba0_4 Ba1_1 4.526659 1_655
Ba0_4 Ba0_6 4.630307 1_545
Ba0_4 Ba0_6 4.630307 1_555
Ba0_5 Ba1_7 4.519160 1_545
Ba0_5 Ba1_6 4.519160 1_546
Ba0_5 Ba1_3 4.519165 1_645
Ba0_5 Ba1_2 4.519165 1_646
Ba0_5 Ba1_1 4.526659 1_655
Ba0_5 Ba1_0 4.526659 1_656
Ba0_5 Ba0_7 4.630307 1_545
Ba0_5 Ba0_7 4.630307 1_555
Ba0_6 Ba1_5 4.519160 1_555
Ba0_6 Ba1_4 4.519160 1_555
Ba0_6 Ba1_0 4.519165 1_655
Ba0_6 Ba1_1 4.519165 1_655
Ba0_6 Ba1_3 4.526659 1_655
Ba0_6 Ba1_2 4.526659 1_655
Ba0_7 Ba1_5 4.519160 1_555
Ba0_7 Ba1_4 4.519160 1_556
Ba0_7 Ba1_1 4.519165 1_655
Ba0_7 Ba1_0 4.519165 1_656
Ba0_7 Ba1_3 4.526659 1_655
Ba0_7 Ba1_2 4.526659 1_656
Ba1_0 Ba1_4 4.626150 1_455
Ba1_0 Ba1_4 4.626150 1_555
Ba1_0 Ba1_6 4.630307 1_445
Ba1_0 Ba1_6 4.630307 1_555
Ba1_0 Ba1_2 4.630307 1_545
Ba1_0 Ba1_2 4.630307 1_555
Ba1_1 Ba1_5 4.626150 1_455
Ba1_1 Ba1_5 4.626150 1_555
Ba1_1 Ba1_7 4.630307 1_445
Ba1_1 Ba1_7 4.630307 1_555
Ba1_1 Ba1_3 4.630307 1_555
Ba1_1 Ba1_3 4.630307 1_545
Ba1_2 Ba1_6 4.626150 1_455
Ba1_2 Ba1_6 4.626150 1_555
Ba1_2 Ba1_4 4.630307 1_455
Ba1_2 Ba1_4 4.630307 1_565
Ba1_3 Ba1_7 4.626150 1_455
Ba1_3 Ba1_7 4.626150 1_555
Ba1_3 Ba1_5 4.630307 1_455
Ba1_3 Ba1_5 4.630307 1_565
Ba1_4 Ba1_6 4.630307 1_545
Ba1_4 Ba1_6 4.630307 1_555
Ba1_5 Ba1_7 4.630307 1_555
Ba1_5 Ba1_7 4.630307 1_545
