# generated using pymatgen
data_ZnBi6P2(O7F)2
_symmetry_space_group_name_H-M   'P 1'
_cell_length_a   8.96778646
_cell_length_b   8.96778646
_cell_length_c   16.90520070
_cell_angle_alpha   72.09123690
_cell_angle_beta   72.09123690
_cell_angle_gamma   37.07583714
_symmetry_Int_Tables_number   1
_chemical_formula_structural   ZnBi6P2(O7F)2
_chemical_formula_sum   'Zn2 Bi12 P4 O28 F4'
_cell_volume   775.32001795
_cell_formula_units_Z   2
loop_
 _symmetry_equiv_pos_site_id
 _symmetry_equiv_pos_as_xyz
  1  'x, y, z'
loop_
 _atom_site_type_symbol
 _atom_site_label
 _atom_site_symmetry_multiplicity
 _atom_site_fract_x
 _atom_site_fract_y
 _atom_site_fract_z
 _atom_site_occupancy
  Zn  Zn0  1  0.00000000  0.00000000  0.00000000  1
  Zn  Zn1  1  0.00000000  0.00000000  0.50000000  1
  Bi  Bi0  1  0.26974400  0.13953500  0.82853200  1
  Bi  Bi1  1  0.86046500  0.73025600  0.67146800  1
  Bi  Bi2  1  0.45516000  0.67221500  0.33032200  1
  Bi  Bi3  1  0.73025600  0.86046500  0.17146800  1
  Bi  Bi4  1  0.13953500  0.26974400  0.32853200  1
  Bi  Bi5  1  0.97335700  0.82140100  0.82504100  1
  Bi  Bi6  1  0.67221500  0.45516000  0.83032200  1
  Bi  Bi7  1  0.32778500  0.54484000  0.16967800  1
  Bi  Bi8  1  0.54484000  0.32778500  0.66967800  1
  Bi  Bi9  1  0.17859900  0.02664300  0.67495900  1
  Bi  Bi10  1  0.02664300  0.17859900  0.17495900  1
  Bi  Bi11  1  0.82140100  0.97335700  0.32504100  1
  P  P0  1  0.38873800  0.35656900  0.99071000  1
  P  P1  1  0.61126200  0.64343100  0.00929000  1
  P  P2  1  0.64343100  0.61126200  0.50929000  1
  P  P3  1  0.35656900  0.38873800  0.49071000  1
  O  O0  1  0.34342800  0.83299200  0.05117100  1
  O  O1  1  0.86893900  0.47282300  0.24271000  1
  O  O2  1  0.62421100  0.22804000  0.45463100  1
  O  O3  1  0.63556300  0.68820400  0.91341600  1
  O  O4  1  0.96792000  0.89357500  0.11190100  1
  O  O5  1  0.13106100  0.52717700  0.75729000  1
  O  O6  1  0.81578200  0.18421800  0.75000000  1
  O  O7  1  0.22804000  0.62421100  0.95463100  1
  O  O8  1  0.36443700  0.31179600  0.08658400  1
  O  O9  1  0.64161000  0.02174800  0.75936600  1
  O  O10  1  0.03208000  0.10642500  0.88809900  1
  O  O11  1  0.37578900  0.77196000  0.54536900  1
  O  O12  1  0.47282300  0.86893900  0.74271000  1
  O  O13  1  0.68820400  0.63556300  0.41341600  1
  O  O14  1  0.52717700  0.13106100  0.25729000  1
  O  O15  1  0.16700800  0.65657200  0.44882900  1
  O  O16  1  0.97825200  0.35839000  0.74063400  1
  O  O17  1  0.77196000  0.37578900  0.04536900  1
  O  O18  1  0.89357500  0.96792000  0.61190100  1
  O  O19  1  0.83299200  0.34342800  0.55117100  1
  O  O20  1  0.65657200  0.16700800  0.94882900  1
  O  O21  1  0.02174800  0.64161000  0.25936600  1
  O  O22  1  0.10642500  0.03208000  0.38809900  1
  O  O23  1  0.35839000  0.97825200  0.24063400  1
  O  O24  1  0.18421800  0.81578200  0.25000000  1
  O  O25  1  0.29876200  0.70123800  0.75000000  1
  O  O26  1  0.31179600  0.36443700  0.58658400  1
  O  O27  1  0.70123800  0.29876200  0.25000000  1
  F  F0  1  0.69127500  0.72721800  0.53736700  1
  F  F1  1  0.72721800  0.69127500  0.03736700  1
  F  F2  1  0.27278200  0.30872500  0.96263300  1
  F  F3  1  0.30872500  0.27278200  0.46263300  1
loop_
_geom_bond_atom_site_label_1
_geom_bond_atom_site_label_2
_geom_bond_distance
_geom_bond_site_symmetry_2
Bi0 O12 2.190577 1_545
Bi0 O10 2.269517 1_555
Bi0 O16 2.302595 1_455
Bi0 O9 2.518851 1_555
Bi0 O5 2.555273 1_555
Bi0 O3 2.709072 1_545
Bi1 O5 2.190577 1_655
Bi1 O18 2.269517 1_555
Bi1 O9 2.302595 1_565
Bi1 O16 2.518851 1_555
Bi1 O12 2.555273 1_555
Bi1 O26 2.709072 1_655
Bi2 O23 2.243603 1_555
Bi2 O22 2.259341 1_565
Bi2 O24 2.316742 1_555
Bi2 O1 2.611788 1_555
Bi2 O13 2.621894 1_555
Bi2 O27 2.662829 1_555
Bi2 O15 2.816469 1_555
Bi3 O14 2.190577 1_565
Bi3 O4 2.269517 1_555
Bi3 O21 2.302595 1_655
Bi3 O23 2.518851 1_555
Bi3 O1 2.555273 1_555
Bi3 O8 2.709072 1_565
Bi4 O1 2.190577 1_455
Bi4 O22 2.269517 1_555
Bi4 O23 2.302595 1_545
Bi4 O21 2.518851 1_555
Bi4 O14 2.555273 1_555
Bi4 O13 2.709072 1_455
Bi5 O25 2.198282 1_655
Bi5 O5 2.276360 1_655
Bi5 O6 2.328086 1_565
Bi5 O9 2.363678 1_565
Bi5 O7 2.718978 1_655
Bi6 O16 2.243603 1_555
Bi6 O10 2.259341 1_655
Bi6 O6 2.316742 1_555
Bi6 O12 2.611788 1_555
Bi6 O3 2.621894 1_555
Bi6 O25 2.662829 1_555
Bi6 O20 2.816469 1_555
Bi7 O21 2.243603 1_555
Bi7 O4 2.259341 1_455
Bi7 O24 2.316742 1_555
Bi7 O14 2.611788 1_555
Bi7 O8 2.621894 1_555
Bi7 O27 2.662829 1_555
Bi7 O0 2.816469 1_555
Bi8 O9 2.243603 1_555
Bi8 O18 2.259341 1_545
Bi8 O6 2.316742 1_555
Bi8 O5 2.611788 1_555
Bi8 O26 2.621894 1_555
Bi8 O25 2.662829 1_555
Bi8 O19 2.816469 1_555
Bi9 O25 2.198282 1_545
Bi9 O12 2.276360 1_545
Bi9 O6 2.328086 1_455
Bi9 O16 2.363678 1_455
Bi9 O11 2.718978 1_545
Bi10 O27 2.198282 1_455
Bi10 O1 2.276360 1_455
Bi10 O24 2.328086 1_545
Bi10 O23 2.363678 1_545
Bi10 O17 2.718978 1_455
Bi11 O27 2.198282 1_565
Bi11 O14 2.276360 1_565
Bi11 O24 2.328086 1_655
Bi11 O21 2.363678 1_655
Bi11 O2 2.718978 1_565
O0 P1 1.529451 1_555
O0 Zn0 2.440906 1_565
O2 P3 1.526612 1_555
O2 Zn1 2.399016 1_655
O3 P1 1.535505 1_556
O4 Zn0 1.888192 1_665
O7 P0 1.526612 1_555
O7 Zn0 2.399016 1_566
O8 P0 1.535505 1_554
O10 Zn0 1.888192 1_556
O11 P2 1.526612 1_555
O11 Zn1 2.399016 1_565
O13 P2 1.535505 1_555
O15 P3 1.529451 1_555
O15 Zn1 2.440906 1_565
O17 P1 1.526612 1_555
O17 Zn0 2.399016 1_655
O18 Zn1 1.888192 1_665
O19 P2 1.529451 1_555
O19 Zn1 2.440906 1_655
O20 P0 1.529451 1_555
O20 Zn0 2.440906 1_656
O22 Zn1 1.888192 1_555
O26 P3 1.535505 1_555
F0 P2 1.622167 1_555
F1 P1 1.622167 1_555
F2 P0 1.622167 1_555
F3 P3 1.622167 1_555
