# generated using pymatgen
data_Rb2Na2SiO4
_symmetry_space_group_name_H-M   'P 1'
_cell_length_a   9.93228300
_cell_length_b   11.04930000
_cell_length_c   11.27316200
_cell_angle_alpha   90.00000000
_cell_angle_beta   90.00000000
_cell_angle_gamma   90.00000000
_symmetry_Int_Tables_number   1
_chemical_formula_structural   Rb2Na2SiO4
_chemical_formula_sum   'Rb16 Na16 Si8 O32'
_cell_volume   1237.17062218
_cell_formula_units_Z   8
loop_
 _symmetry_equiv_pos_site_id
 _symmetry_equiv_pos_as_xyz
  1  'x, y, z'
loop_
 _atom_site_type_symbol
 _atom_site_label
 _atom_site_symmetry_multiplicity
 _atom_site_fract_x
 _atom_site_fract_y
 _atom_site_fract_z
 _atom_site_occupancy
  Rb  Rb0  1  0.64018200  0.15049000  0.63649600  1
  Rb  Rb1  1  0.14018200  0.34951000  0.36350400  1
  Rb  Rb2  1  0.29838100  0.93718600  0.03553900  1
  Rb  Rb3  1  0.70161900  0.43718600  0.46446100  1
  Rb  Rb4  1  0.79838100  0.56281400  0.96446100  1
  Rb  Rb5  1  0.35981800  0.65049000  0.86350400  1
  Rb  Rb6  1  0.64018200  0.34951000  0.13649600  1
  Rb  Rb7  1  0.14018200  0.15049000  0.86350400  1
  Rb  Rb8  1  0.85981800  0.84951000  0.13649600  1
  Rb  Rb9  1  0.29838100  0.56281400  0.53553900  1
  Rb  Rb10  1  0.70161900  0.06281400  0.96446100  1
  Rb  Rb11  1  0.35981800  0.84951000  0.36350400  1
  Rb  Rb12  1  0.20161900  0.06281400  0.53553900  1
  Rb  Rb13  1  0.20161900  0.43718600  0.03553900  1
  Rb  Rb14  1  0.79838100  0.93718600  0.46446100  1
  Rb  Rb15  1  0.85981800  0.65049000  0.63649600  1
  Na  Na0  1  0.03313700  0.74928000  0.90641000  1
  Na  Na1  1  0.96686300  0.25072000  0.09359000  1
  Na  Na2  1  0.90815600  0.95130000  0.74650800  1
  Na  Na3  1  0.03313700  0.75072000  0.40641000  1
  Na  Na4  1  0.90815600  0.54870000  0.24650800  1
  Na  Na5  1  0.59184400  0.04870000  0.24650800  1
  Na  Na6  1  0.40815600  0.54870000  0.25349200  1
  Na  Na7  1  0.09184400  0.04870000  0.25349200  1
  Na  Na8  1  0.53313700  0.74928000  0.59359000  1
  Na  Na9  1  0.09184400  0.45130000  0.75349200  1
  Na  Na10  1  0.46686300  0.24928000  0.90641000  1
  Na  Na11  1  0.46686300  0.25072000  0.40641000  1
  Na  Na12  1  0.53313700  0.75072000  0.09359000  1
  Na  Na13  1  0.59184400  0.45130000  0.74650800  1
  Na  Na14  1  0.96686300  0.24928000  0.59359000  1
  Na  Na15  1  0.40815600  0.95130000  0.75349200  1
  Si  Si0  1  0.15764600  0.80443200  0.68217000  1
  Si  Si1  1  0.34235400  0.30443200  0.68217000  1
  Si  Si2  1  0.15764600  0.69556800  0.18217000  1
  Si  Si3  1  0.65764600  0.69556800  0.31783000  1
  Si  Si4  1  0.65764600  0.80443200  0.81783000  1
  Si  Si5  1  0.34235400  0.19556800  0.18217000  1
  Si  Si6  1  0.84235400  0.30443200  0.81783000  1
  Si  Si7  1  0.84235400  0.19556800  0.31783000  1
  O  O0  1  0.84186700  0.10596800  0.19784000  1
  O  O1  1  0.87813800  0.16320500  0.77391400  1
  O  O2  1  0.46079000  0.14804600  0.08835900  1
  O  O3  1  0.15813300  0.60596800  0.30216000  1
  O  O4  1  0.19065000  0.31043700  0.61929400  1
  O  O5  1  0.03921000  0.85195400  0.58835900  1
  O  O6  1  0.30935000  0.68956300  0.11929400  1
  O  O7  1  0.69065000  0.31043700  0.88070600  1
  O  O8  1  0.96079000  0.35195400  0.91164100  1
  O  O9  1  0.37813800  0.33679500  0.22608600  1
  O  O10  1  0.69065000  0.18956300  0.38070600  1
  O  O11  1  0.80935000  0.81043700  0.88070600  1
  O  O12  1  0.46079000  0.35195400  0.58835900  1
  O  O13  1  0.96079000  0.14804600  0.41164100  1
  O  O14  1  0.84186700  0.39403200  0.69784000  1
  O  O15  1  0.53921000  0.85195400  0.91164100  1
  O  O16  1  0.65813300  0.60596800  0.19784000  1
  O  O17  1  0.37813800  0.16320500  0.72608600  1
  O  O18  1  0.15813300  0.89403200  0.80216000  1
  O  O19  1  0.65813300  0.89403200  0.69784000  1
  O  O20  1  0.87813800  0.33679500  0.27391400  1
  O  O21  1  0.30935000  0.81043700  0.61929400  1
  O  O22  1  0.34186700  0.39403200  0.80216000  1
  O  O23  1  0.62186200  0.66320500  0.77391400  1
  O  O24  1  0.12186200  0.83679500  0.22608600  1
  O  O25  1  0.19065000  0.18956300  0.11929400  1
  O  O26  1  0.34186700  0.10596800  0.30216000  1
  O  O27  1  0.53921000  0.64804600  0.41164100  1
  O  O28  1  0.03921000  0.64804600  0.08835900  1
  O  O29  1  0.80935000  0.68956300  0.38070600  1
  O  O30  1  0.62186200  0.83679500  0.27391400  1
  O  O31  1  0.12186200  0.66320500  0.72608600  1
loop_
_geom_bond_atom_site_label_1
_geom_bond_atom_site_label_2
_geom_bond_distance
_geom_bond_site_symmetry_2
Na0 O28 2.337093 1_556
Na0 O18 2.341063 1_555
Na0 O11 2.341166 1_455
Na0 O31 2.411116 1_555
Na1 O8 2.337093 1_554
Na1 O0 2.341063 1_555
Na1 O25 2.341166 1_655
Na1 O20 2.411116 1_555
Na2 O1 2.380442 1_565
Na2 O11 2.382070 1_555
Na2 O5 2.465320 1_655
Na2 O19 2.620722 1_555
Na2 O18 2.637898 1_655
Na3 O5 2.337093 1_555
Na3 O3 2.341063 1_555
Na3 O29 2.341166 1_455
Na3 O24 2.411116 1_555
Na4 O20 2.380442 1_555
Na4 O29 2.382070 1_555
Na4 O28 2.465320 1_655
Na4 O16 2.620722 1_555
Na4 O3 2.637898 1_655
Na5 O30 2.380442 1_545
Na5 O10 2.382070 1_555
Na5 O2 2.465320 1_555
Na5 O0 2.620722 1_555
Na5 O26 2.637898 1_555
Na6 O9 2.380442 1_555
Na6 O6 2.382070 1_555
Na6 O27 2.465320 1_555
Na6 O3 2.620722 1_555
Na6 O16 2.637898 1_555
Na7 O24 2.380442 1_545
Na7 O25 2.382070 1_555
Na7 O13 2.465320 1_455
Na7 O26 2.620722 1_555
Na7 O0 2.637898 1_455
Na8 O27 2.337093 1_555
Na8 O19 2.341063 1_555
Na8 O21 2.341166 1_555
Na8 O23 2.411116 1_555
Na9 O31 2.380442 1_555
Na9 O4 2.382070 1_555
Na9 O8 2.465320 1_455
Na9 O22 2.620722 1_555
Na9 O14 2.637898 1_455
Na10 O2 2.337093 1_556
Na10 O22 2.341063 1_555
Na10 O7 2.341166 1_555
Na10 O17 2.411116 1_555
Na11 O12 2.337093 1_555
Na11 O26 2.341063 1_555
Na11 O10 2.341166 1_555
Na11 O9 2.411116 1_555
Na12 O15 2.337093 1_554
Na12 O16 2.341063 1_555
Na12 O6 2.341166 1_555
Na12 O30 2.411116 1_555
Na13 O23 2.380442 1_555
Na13 O7 2.382070 1_555
Na13 O12 2.465320 1_555
Na13 O14 2.620722 1_555
Na13 O22 2.637898 1_555
Na14 O13 2.337093 1_555
Na14 O14 2.341063 1_555
Na14 O4 2.341166 1_655
Na14 O1 2.411116 1_555
Na15 O17 2.380442 1_565
Na15 O21 2.382070 1_555
Na15 O15 2.465320 1_555
Na15 O18 2.620722 1_555
Na15 O19 2.637898 1_555
O0 Si7 1.676265 1_555
O0 Rb8 2.922288 1_545
O0 Rb10 3.014879 1_554
O1 Si6 1.675247 1_555
O1 Rb7 2.795315 1_655
O1 Rb0 2.829388 1_555
O1 Rb10 2.986380 1_555
O2 Si5 1.666702 1_555
O2 Rb2 2.895661 1_545
O2 Rb6 2.902486 1_555
O2 Rb10 2.925630 1_554
O3 Si2 1.676265 1_555
O3 Rb1 2.922288 1_555
O3 Rb9 3.014879 1_555
O4 Si1 1.666482 1_555
O4 Rb12 2.896443 1_555
O4 Rb1 2.958477 1_555
O4 Rb9 3.132514 1_555
O5 Si0 1.666702 1_555
O5 Rb12 2.895661 1_565
O5 Rb15 2.902486 1_455
O5 Rb14 2.925630 1_455
O6 Si2 1.666482 1_555
O6 Rb2 2.896443 1_555
O6 Rb5 2.958477 1_554
O6 Rb13 3.132514 1_555
O7 Si6 1.666482 1_555
O7 Rb10 2.896443 1_555
O7 Rb6 2.958477 1_556
O7 Rb4 3.132514 1_555
O8 Si6 1.666702 1_555
O8 Rb4 2.895661 1_555
O8 Rb7 2.902486 1_655
O8 Rb13 2.925630 1_656
O9 Si5 1.675247 1_555
O9 Rb6 2.795315 1_555
O9 Rb1 2.829388 1_555
O9 Rb13 2.986380 1_555
O10 Si7 1.666482 1_555
O10 Rb3 2.896443 1_555
O10 Rb0 2.958477 1_555
O10 Rb14 3.132514 1_545
O11 Si4 1.666482 1_555
O11 Rb4 2.896443 1_555
O11 Rb8 2.958477 1_556
O11 Rb10 3.132514 1_565
O12 Si1 1.666702 1_555
O12 Rb9 2.895661 1_555
O12 Rb0 2.902486 1_555
O12 Rb3 2.925630 1_555
O13 Si7 1.666702 1_555
O13 Rb14 2.895661 1_545
O13 Rb1 2.902486 1_655
O13 Rb12 2.925630 1_655
O14 Si6 1.676265 1_555
O14 Rb15 2.922288 1_555
O14 Rb3 3.014879 1_555
O15 Si4 1.666702 1_555
O15 Rb10 2.895661 1_565
O15 Rb5 2.902486 1_555
O15 Rb2 2.925630 1_556
O16 Si3 1.676265 1_555
O16 Rb6 2.922288 1_555
O16 Rb4 3.014879 1_554
O17 Si1 1.675247 1_555
O17 Rb0 2.795315 1_555
O17 Rb7 2.829388 1_555
O17 Rb12 2.986380 1_555
O18 Si0 1.676265 1_555
O18 Rb7 2.922288 1_565
O18 Rb2 3.014879 1_556
O19 Si4 1.676265 1_555
O19 Rb0 2.922288 1_565
O19 Rb14 3.014879 1_555
O20 Si7 1.675247 1_555
O20 Rb1 2.795315 1_655
O20 Rb6 2.829388 1_555
O20 Rb3 2.986380 1_555
O21 Si0 1.666482 1_555
O21 Rb9 2.896443 1_555
O21 Rb11 2.958477 1_555
O21 Rb12 3.132514 1_565
O22 Si1 1.676265 1_555
O22 Rb5 2.922288 1_555
O22 Rb13 3.014879 1_556
O23 Si4 1.675247 1_555
O23 Rb5 2.795315 1_555
O23 Rb15 2.829388 1_555
O23 Rb4 2.986380 1_555
O24 Si2 1.675247 1_555
O24 Rb8 2.795315 1_455
O24 Rb11 2.829388 1_555
O24 Rb2 2.986380 1_555
O25 Si5 1.666482 1_555
O25 Rb13 2.896443 1_555
O25 Rb7 2.958477 1_554
O25 Rb2 3.132514 1_545
O26 Si5 1.676265 1_555
O26 Rb11 2.922288 1_545
O26 Rb12 3.014879 1_555
O27 Si3 1.666702 1_555
O27 Rb3 2.895661 1_555
O27 Rb11 2.902486 1_555
O27 Rb9 2.925630 1_555
O28 Si2 1.666702 1_555
O28 Rb13 2.895661 1_555
O28 Rb8 2.902486 1_455
O28 Rb4 2.925630 1_454
O29 Si3 1.666482 1_555
O29 Rb14 2.896443 1_555
O29 Rb15 2.958477 1_555
O29 Rb3 3.132514 1_555
O30 Si3 1.675247 1_555
O30 Rb11 2.795315 1_555
O30 Rb8 2.829388 1_555
O30 Rb14 2.986380 1_555
O31 Si0 1.675247 1_555
O31 Rb15 2.795315 1_455
O31 Rb5 2.829388 1_555
O31 Rb9 2.986380 1_555
