# generated using pymatgen
data_Dy(CrS2)3
_symmetry_space_group_name_H-M   'P 1'
_cell_length_a   10.69725300
_cell_length_b   12.65619400
_cell_length_c   21.69141100
_cell_angle_alpha   90.00000000
_cell_angle_beta   90.00000000
_cell_angle_gamma   90.00000000
_symmetry_Int_Tables_number   1
_chemical_formula_structural   Dy(CrS2)3
_chemical_formula_sum   'Dy16 Cr48 S96'
_cell_volume   2936.72441567
_cell_formula_units_Z   16
loop_
 _symmetry_equiv_pos_site_id
 _symmetry_equiv_pos_as_xyz
  1  'x, y, z'
loop_
 _atom_site_type_symbol
 _atom_site_label
 _atom_site_symmetry_multiplicity
 _atom_site_fract_x
 _atom_site_fract_y
 _atom_site_fract_z
 _atom_site_occupancy
  Dy  Dy0  1  0.08309900  0.16442300  0.49285600  1
  Dy  Dy1  1  0.08377400  0.00033700  0.74323100  1
  Dy  Dy2  1  0.08340700  0.16238700  0.99331600  1
  Dy  Dy3  1  0.24981000  0.66309000  0.50824100  1
  Dy  Dy4  1  0.25019000  0.66309000  0.00824100  1
  Dy  Dy5  1  0.41622600  0.00033700  0.24323100  1
  Dy  Dy6  1  0.41659300  0.16238700  0.49331600  1
  Dy  Dy7  1  0.41690100  0.16442300  0.99285600  1
  Dy  Dy8  1  0.58340700  0.66238700  0.50668400  1
  Dy  Dy9  1  0.58377400  0.50033700  0.75676900  1
  Dy  Dy10  1  0.58309900  0.66442300  0.00714400  1
  Dy  Dy11  1  0.75019000  0.16309000  0.49175900  1
  Dy  Dy12  1  0.74981000  0.16309000  0.99175900  1
  Dy  Dy13  1  0.91622600  0.50033700  0.25676900  1
  Dy  Dy14  1  0.91690100  0.66442300  0.50714400  1
  Dy  Dy15  1  0.91659300  0.66238700  0.00668400  1
  Cr  Cr0  1  0.08385400  0.42696900  0.41816600  1
  Cr  Cr1  1  0.08337700  0.22390300  0.65282100  1
  Cr  Cr2  1  0.08124200  0.94732600  0.39609900  1
  Cr  Cr3  1  0.08345700  0.42727900  0.91536000  1
  Cr  Cr4  1  0.08058600  0.21296400  0.15509200  1
  Cr  Cr5  1  0.08314700  0.94395100  0.90052100  1
  Cr  Cr6  1  0.08101600  0.73865700  0.17235000  1
  Cr  Cr7  1  0.25080600  0.92794600  0.58232600  1
  Cr  Cr8  1  0.24919400  0.92794600  0.08232600  1
  Cr  Cr9  1  0.25221900  0.71246300  0.34480700  1
  Cr  Cr10  1  0.24778100  0.71246300  0.84480700  1
  Cr  Cr11  1  0.24850400  0.44793200  0.60385100  1
  Cr  Cr12  1  0.25149600  0.44793200  0.10385100  1
  Cr  Cr13  1  0.25169800  0.23874900  0.32725500  1
  Cr  Cr14  1  0.24830200  0.23874900  0.82725500  1
  Cr  Cr15  1  0.41898400  0.73865700  0.67235000  1
  Cr  Cr16  1  0.41664500  0.73628300  0.17203000  1
  Cr  Cr17  1  0.41685300  0.94395100  0.40052100  1
  Cr  Cr18  1  0.41875800  0.94732600  0.89609900  1
  Cr  Cr19  1  0.41941400  0.21296400  0.65509200  1
  Cr  Cr20  1  0.41662300  0.22390300  0.15282100  1
  Cr  Cr21  1  0.41654300  0.42727900  0.41536000  1
  Cr  Cr22  1  0.41614600  0.42696900  0.91816600  1
  Cr  Cr23  1  0.58101600  0.23865700  0.32765000  1
  Cr  Cr24  1  0.58058600  0.71296400  0.34490800  1
  Cr  Cr25  1  0.58335500  0.23628300  0.82797000  1
  Cr  Cr26  1  0.58345700  0.92727900  0.58464000  1
  Cr  Cr27  1  0.58314700  0.44395100  0.59947900  1
  Cr  Cr28  1  0.58337700  0.72390300  0.84717900  1
  Cr  Cr29  1  0.58124200  0.44732600  0.10390100  1
  Cr  Cr30  1  0.58385400  0.92696900  0.08183400  1
  Cr  Cr31  1  0.74919400  0.42794600  0.41767400  1
  Cr  Cr32  1  0.75080600  0.42794600  0.91767400  1
  Cr  Cr33  1  0.74778100  0.21246300  0.65519300  1
  Cr  Cr34  1  0.75221900  0.21246300  0.15519300  1
  Cr  Cr35  1  0.75149600  0.94793200  0.39614900  1
  Cr  Cr36  1  0.74850400  0.94793200  0.89614900  1
  Cr  Cr37  1  0.75169800  0.73874900  0.17274500  1
  Cr  Cr38  1  0.74830200  0.73874900  0.67274500  1
  Cr  Cr39  1  0.91664500  0.23628300  0.32797000  1
  Cr  Cr40  1  0.91898400  0.23865700  0.82765000  1
  Cr  Cr41  1  0.91875800  0.44732600  0.60390100  1
  Cr  Cr42  1  0.91685300  0.44395100  0.09947900  1
  Cr  Cr43  1  0.91662300  0.72390300  0.34717900  1
  Cr  Cr44  1  0.91941400  0.71296400  0.84490800  1
  Cr  Cr45  1  0.91614600  0.92696900  0.58183400  1
  Cr  Cr46  1  0.91654300  0.92727900  0.08464000  1
  Cr  Cr47  1  0.08335500  0.73628300  0.67203000  1
  S  S0  1  0.08350800  0.12440400  0.36322400  1
  S  S1  1  0.08221500  0.36375600  0.31501000  1
  S  S2  1  0.07988300  0.67254400  0.27675800  1
  S  S3  1  0.08318100  0.04462900  0.60628500  1
  S  S4  1  0.08254900  0.49490400  0.52634500  1
  S  S5  1  0.08384600  0.75973900  0.42162400  1
  S  S6  1  0.08352400  0.40515300  0.67052900  1
  S  S7  1  0.08359900  0.11892000  0.85520500  1
  S  S8  1  0.08345200  0.80022500  0.56677300  1
  S  S9  1  0.08349800  0.67089200  0.77629200  1
  S  S10  1  0.08280600  0.04624200  0.10201200  1
  S  S11  1  0.08262300  0.49540200  0.02528400  1
  S  S12  1  0.07989800  0.40078600  0.16907100  1
  S  S13  1  0.08199400  0.79894500  0.06697100  1
  S  S14  1  0.24926200  0.86386200  0.68513600  1
  S  S15  1  0.25073800  0.86386200  0.18513600  1
  S  S16  1  0.24984900  0.54603000  0.39869800  1
  S  S17  1  0.25015100  0.54603000  0.89869800  1
  S  S18  1  0.25317600  0.90056700  0.33076500  1
  S  S19  1  0.24682400  0.90056700  0.83076500  1
  S  S20  1  0.25047600  0.62439900  0.63746600  1
  S  S21  1  0.24952400  0.62439900  0.13746600  1
  S  S22  1  0.24703800  0.17321600  0.72292000  1
  S  S23  1  0.25296200  0.17321600  0.22292000  1
  S  S24  1  0.25098600  0.29852200  0.43246900  1
  S  S25  1  0.24901400  0.29852200  0.93246900  1
  S  S26  1  0.25065500  0.26043500  0.57805300  1
  S  S27  1  0.24934500  0.26043500  0.07805300  1
  S  S28  1  0.24976800  0.99606900  0.47486800  1
  S  S29  1  0.25023200  0.99606900  0.97486800  1
  S  S30  1  0.41737700  0.49540200  0.52528400  1
  S  S31  1  0.41745100  0.49490400  0.02634500  1
  S  S32  1  0.41650700  0.75733100  0.42090800  1
  S  S33  1  0.41615400  0.75973900  0.92162400  1
  S  S34  1  0.41800600  0.79894500  0.56697100  1
  S  S35  1  0.41654800  0.80022500  0.06677300  1
  S  S36  1  0.41650200  0.67089200  0.27629200  1
  S  S37  1  0.42011700  0.67254400  0.77675800  1
  S  S38  1  0.41640100  0.11892000  0.35520500  1
  S  S39  1  0.41649200  0.12440400  0.86322400  1
  S  S40  1  0.42010200  0.40078600  0.66907100  1
  S  S41  1  0.41647600  0.40515300  0.17052900  1
  S  S42  1  0.41719400  0.04624200  0.60201200  1
  S  S43  1  0.41681900  0.04462900  0.10628500  1
  S  S44  1  0.41636800  0.36155600  0.31375300  1
  S  S45  1  0.41778500  0.36375600  0.81501000  1
  S  S46  1  0.58280600  0.54624200  0.39798800  1
  S  S47  1  0.58318100  0.54462900  0.89371500  1
  S  S48  1  0.58350800  0.62440400  0.13677600  1
  S  S49  1  0.58359900  0.61892000  0.64479500  1
  S  S50  1  0.57989800  0.90078600  0.33092900  1
  S  S51  1  0.58349300  0.25733100  0.57909200  1
  S  S52  1  0.58199400  0.29894500  0.43302900  1
  S  S53  1  0.58352400  0.90515300  0.82947100  1
  S  S54  1  0.58262300  0.99540200  0.47471600  1
  S  S55  1  0.58349800  0.17089200  0.72370800  1
  S  S56  1  0.58345200  0.30022500  0.93322700  1
  S  S57  1  0.58384600  0.25973900  0.07837600  1
  S  S58  1  0.57988300  0.17254400  0.22324200  1
  S  S59  1  0.58254900  0.99490400  0.97365500  1
  S  S60  1  0.58221500  0.86375600  0.18499000  1
  S  S61  1  0.58363200  0.86155600  0.68624700  1
  S  S62  1  0.75073800  0.36386200  0.31486400  1
  S  S63  1  0.74926200  0.36386200  0.81486400  1
  S  S64  1  0.75015100  0.04603000  0.60130200  1
  S  S65  1  0.74984900  0.04603000  0.10130200  1
  S  S66  1  0.74682400  0.40056700  0.66923500  1
  S  S67  1  0.75317600  0.40056700  0.16923500  1
  S  S68  1  0.74952400  0.12439900  0.36253400  1
  S  S69  1  0.75047600  0.12439900  0.86253400  1
  S  S70  1  0.75296200  0.67321600  0.27708000  1
  S  S71  1  0.74703800  0.67321600  0.77708000  1
  S  S72  1  0.74901400  0.79852200  0.56753100  1
  S  S73  1  0.75098600  0.79852200  0.06753100  1
  S  S74  1  0.74934500  0.76043500  0.42194700  1
  S  S75  1  0.75065500  0.76043500  0.92194700  1
  S  S76  1  0.75023200  0.49606900  0.52513200  1
  S  S77  1  0.74976800  0.49606900  0.02513200  1
  S  S78  1  0.91745100  0.99490400  0.47365500  1
  S  S79  1  0.91737700  0.99540200  0.97471600  1
  S  S80  1  0.91615400  0.25973900  0.57837600  1
  S  S81  1  0.91650700  0.25733100  0.07909200  1
  S  S82  1  0.91654800  0.30022500  0.43322700  1
  S  S83  1  0.91800600  0.29894500  0.93302900  1
  S  S84  1  0.92011700  0.17254400  0.72324200  1
  S  S85  1  0.91650200  0.17089200  0.22370800  1
  S  S86  1  0.91649200  0.62440400  0.63677600  1
  S  S87  1  0.91640100  0.61892000  0.14479500  1
  S  S88  1  0.91647600  0.90515300  0.32947100  1
  S  S89  1  0.92010200  0.90078600  0.83092900  1
  S  S90  1  0.91681900  0.54462900  0.39371500  1
  S  S91  1  0.91719400  0.54624200  0.89798800  1
  S  S92  1  0.91778500  0.86375600  0.68499000  1
  S  S93  1  0.91636800  0.86155600  0.18624700  1
  S  S94  1  0.08363200  0.36155600  0.81375300  1
  S  S95  1  0.08349300  0.75733100  0.92090800  1
loop_
_geom_bond_atom_site_label_1
_geom_bond_atom_site_label_2
_geom_bond_distance
_geom_bond_site_symmetry_2
Dy0 S82 2.793075 1_455
Dy0 S24 2.796708 1_555
Dy0 S28 2.805521 1_545
Dy0 S78 2.813610 1_445
Dy0 S80 2.843542 1_455
Dy0 S26 2.846841 1_555
Dy0 S0 2.857155 1_555
Dy0 S3 2.890054 1_555
Dy1 S14 2.775835 1_545
Dy1 S92 2.781527 1_445
Dy1 S84 2.828964 1_455
Dy1 S22 2.834005 1_555
Dy1 S7 2.855147 1_555
Dy1 S19 2.870857 1_545
Dy1 S89 2.876040 1_445
Dy1 S3 3.022988 1_555
Dy2 S10 2.778468 1_556
Dy2 S29 2.788484 1_545
Dy2 S79 2.789915 1_445
Dy2 S83 2.797802 1_455
Dy2 S25 2.801595 1_555
Dy2 S27 2.840645 1_556
Dy2 S81 2.844874 1_456
Dy2 S7 3.045915 1_555
Dy3 S8 2.791273 1_555
Dy3 S34 2.795805 1_555
Dy3 S16 2.800178 1_555
Dy3 S30 2.802476 1_555
Dy3 S4 2.808289 1_555
Dy3 S20 2.845532 1_555
Dy3 S5 2.859755 1_555
Dy3 S32 2.862005 1_555
Dy4 S35 2.791273 1_555
Dy4 S13 2.795805 1_555
Dy4 S17 2.800178 1_554
Dy4 S11 2.802476 1_555
Dy4 S31 2.808289 1_555
Dy4 S21 2.845532 1_555
Dy4 S33 2.859755 1_554
Dy4 S95 2.862005 1_554
Dy5 S15 2.775835 1_545
Dy5 S60 2.781527 1_545
Dy5 S58 2.828964 1_555
Dy5 S23 2.834005 1_555
Dy5 S38 2.855147 1_555
Dy5 S18 2.870857 1_545
Dy5 S50 2.876040 1_545
Dy5 S43 3.022988 1_555
Dy6 S42 2.778468 1_555
Dy6 S28 2.788484 1_545
Dy6 S54 2.789915 1_545
Dy6 S52 2.797802 1_555
Dy6 S24 2.801595 1_555
Dy6 S26 2.840645 1_555
Dy6 S51 2.844874 1_555
Dy6 S38 3.045915 1_555
Dy7 S56 2.793075 1_555
Dy7 S25 2.796708 1_555
Dy7 S29 2.805521 1_545
Dy7 S59 2.813610 1_545
Dy7 S57 2.843542 1_556
Dy7 S27 2.846841 1_556
Dy7 S39 2.857155 1_555
Dy7 S43 2.890054 1_556
Dy8 S46 2.778468 1_555
Dy8 S76 2.788484 1_555
Dy8 S30 2.789915 1_555
Dy8 S34 2.797802 1_555
Dy8 S72 2.801595 1_555
Dy8 S74 2.840645 1_555
Dy8 S32 2.844874 1_555
Dy8 S49 3.045915 1_555
Dy9 S63 2.775835 1_555
Dy9 S45 2.781527 1_555
Dy9 S37 2.828964 1_555
Dy9 S71 2.834005 1_555
Dy9 S49 2.855147 1_555
Dy9 S66 2.870857 1_555
Dy9 S40 2.876040 1_555
Dy9 S47 3.022988 1_555
Dy10 S35 2.793075 1_555
Dy10 S73 2.796708 1_555
Dy10 S77 2.805521 1_555
Dy10 S31 2.813610 1_555
Dy10 S33 2.843542 1_554
Dy10 S75 2.846841 1_554
Dy10 S48 2.857155 1_555
Dy10 S47 2.890054 1_554
Dy11 S82 2.791273 1_555
Dy11 S52 2.795805 1_555
Dy11 S64 2.800178 1_555
Dy11 S54 2.802476 1_545
Dy11 S78 2.808289 1_545
Dy11 S68 2.845532 1_555
Dy11 S80 2.859755 1_555
Dy11 S51 2.862005 1_555
Dy12 S56 2.791273 1_555
Dy12 S83 2.795805 1_555
Dy12 S65 2.800178 1_556
Dy12 S79 2.802476 1_545
Dy12 S59 2.808289 1_545
Dy12 S69 2.845532 1_555
Dy12 S57 2.859755 1_556
Dy12 S81 2.862005 1_556
Dy13 S62 2.775835 1_555
Dy13 S1 2.781527 1_655
Dy13 S2 2.828964 1_655
Dy13 S70 2.834005 1_555
Dy13 S87 2.855147 1_555
Dy13 S67 2.870857 1_555
Dy13 S12 2.876040 1_655
Dy13 S90 3.022988 1_555
Dy14 S8 2.793075 1_655
Dy14 S72 2.796708 1_555
Dy14 S76 2.805521 1_555
Dy14 S4 2.813610 1_655
Dy14 S5 2.843542 1_655
Dy14 S74 2.846841 1_555
Dy14 S86 2.857155 1_555
Dy14 S90 2.890054 1_555
Dy15 S91 2.778468 1_554
Dy15 S77 2.788484 1_555
Dy15 S11 2.789915 1_655
Dy15 S13 2.797802 1_655
Dy15 S73 2.801595 1_555
Dy15 S75 2.840645 1_554
Dy15 S95 2.844874 1_654
Dy15 S87 3.045915 1_555
Cr0 S16 2.366861 1_555
Cr0 S1 2.376387 1_555
Cr0 S90 2.385689 1_455
Cr0 S82 2.425476 1_455
Cr0 S24 2.436271 1_555
Cr0 S4 2.499154 1_555
Cr1 S6 2.325872 1_555
Cr1 S22 2.405955 1_555
Cr1 S84 2.409542 1_455
Cr1 S80 2.452191 1_455
Cr1 S26 2.458880 1_555
Cr1 S3 2.483341 1_555
Cr2 S88 2.340985 1_455
Cr2 S0 2.351975 1_565
Cr2 S18 2.396116 1_555
Cr2 S5 2.438003 1_555
Cr2 S78 2.502524 1_455
Cr2 S28 2.559273 1_555
Cr3 S94 2.355740 1_555
Cr3 S17 2.359900 1_555
Cr3 S91 2.360540 1_455
Cr3 S83 2.432576 1_455
Cr3 S25 2.435097 1_555
Cr3 S11 2.535513 1_556
Cr4 S85 2.362137 1_455
Cr4 S12 2.396385 1_555
Cr4 S10 2.403876 1_555
Cr4 S23 2.412032 1_555
Cr4 S81 2.472593 1_455
Cr4 S27 2.532280 1_555
Cr5 S89 2.370483 1_455
Cr5 S19 2.378362 1_555
Cr5 S95 2.402944 1_555
Cr5 S7 2.422809 1_565
Cr5 S79 2.481675 1_455
Cr5 S29 2.496095 1_555
Cr6 S93 2.369041 1_455
Cr6 S87 2.398875 1_455
Cr6 S13 2.409828 1_555
Cr6 S2 2.414416 1_555
Cr6 S15 2.425736 1_555
Cr6 S21 2.431658 1_555
Cr7 S42 2.364721 1_565
Cr7 S14 2.373059 1_555
Cr7 S3 2.380383 1_565
Cr7 S8 2.435504 1_555
Cr7 S34 2.444492 1_555
Cr7 S28 2.485285 1_555
Cr8 S10 2.364721 1_565
Cr8 S15 2.373059 1_555
Cr8 S43 2.380383 1_565
Cr8 S35 2.435504 1_555
Cr8 S13 2.444492 1_555
Cr8 S29 2.485285 1_554
Cr9 S36 2.360919 1_555
Cr9 S18 2.400109 1_555
Cr9 S16 2.409169 1_555
Cr9 S2 2.415084 1_555
Cr9 S32 2.477087 1_555
Cr9 S5 2.525573 1_555
Cr10 S9 2.360919 1_555
Cr10 S19 2.400109 1_555
Cr10 S17 2.409169 1_555
Cr10 S37 2.415084 1_555
Cr10 S95 2.477087 1_555
Cr10 S33 2.525573 1_555
Cr11 S6 2.345137 1_555
Cr11 S20 2.349509 1_555
Cr11 S40 2.393111 1_555
Cr11 S26 2.438196 1_555
Cr11 S4 2.516238 1_555
Cr11 S30 2.555133 1_555
Cr12 S41 2.345137 1_555
Cr12 S21 2.349509 1_555
Cr12 S12 2.393111 1_555
Cr12 S27 2.438196 1_555
Cr12 S31 2.516238 1_555
Cr12 S11 2.555133 1_555
Cr13 S44 2.367376 1_555
Cr13 S38 2.402450 1_555
Cr13 S24 2.404364 1_555
Cr13 S23 2.410402 1_555
Cr13 S1 2.420869 1_555
Cr13 S0 2.437225 1_555
Cr14 S94 2.367376 1_555
Cr14 S7 2.402450 1_555
Cr14 S25 2.404364 1_555
Cr14 S22 2.410402 1_555
Cr14 S45 2.420869 1_555
Cr14 S39 2.437225 1_555
Cr15 S61 2.369041 1_555
Cr15 S49 2.398875 1_555
Cr15 S34 2.409828 1_555
Cr15 S37 2.414416 1_555
Cr15 S14 2.425736 1_555
Cr15 S20 2.431658 1_555
Cr16 S21 2.400675 1_555
Cr16 S48 2.403303 1_555
Cr16 S36 2.408260 1_555
Cr16 S60 2.412217 1_555
Cr16 S15 2.416132 1_555
Cr16 S35 2.422351 1_555
Cr17 S50 2.370483 1_555
Cr17 S18 2.378362 1_555
Cr17 S32 2.402944 1_555
Cr17 S38 2.422809 1_565
Cr17 S54 2.481675 1_555
Cr17 S28 2.496095 1_555
Cr18 S53 2.340985 1_555
Cr18 S39 2.351975 1_565
Cr18 S19 2.396116 1_555
Cr18 S33 2.438003 1_555
Cr18 S59 2.502524 1_555
Cr18 S29 2.559273 1_555
Cr19 S55 2.362137 1_555
Cr19 S40 2.396385 1_555
Cr19 S42 2.403876 1_555
Cr19 S22 2.412032 1_555
Cr19 S51 2.472593 1_555
Cr19 S26 2.532280 1_555
Cr20 S41 2.325872 1_555
Cr20 S23 2.405955 1_555
Cr20 S58 2.409542 1_555
Cr20 S57 2.452191 1_555
Cr20 S27 2.458880 1_555
Cr20 S43 2.483341 1_555
Cr21 S44 2.355740 1_555
Cr21 S16 2.359900 1_555
Cr21 S46 2.360540 1_555
Cr21 S52 2.432576 1_555
Cr21 S24 2.435097 1_555
Cr21 S30 2.535513 1_555
Cr22 S17 2.366861 1_555
Cr22 S45 2.376387 1_555
Cr22 S47 2.385689 1_555
Cr22 S56 2.425476 1_555
Cr22 S25 2.436271 1_555
Cr22 S31 2.499154 1_556
Cr23 S44 2.369041 1_555
Cr23 S38 2.398875 1_555
Cr23 S52 2.409828 1_555
Cr23 S58 2.414416 1_555
Cr23 S62 2.425736 1_555
Cr23 S68 2.431658 1_555
Cr24 S36 2.362137 1_555
Cr24 S50 2.396385 1_555
Cr24 S46 2.403876 1_555
Cr24 S70 2.412032 1_555
Cr24 S32 2.472593 1_555
Cr24 S74 2.532280 1_555
Cr25 S69 2.400675 1_555
Cr25 S39 2.403303 1_555
Cr25 S55 2.408260 1_555
Cr25 S45 2.412217 1_555
Cr25 S63 2.416132 1_555
Cr25 S56 2.422351 1_555
Cr26 S61 2.355740 1_555
Cr26 S64 2.359900 1_565
Cr26 S42 2.360540 1_565
Cr26 S34 2.432576 1_555
Cr26 S72 2.435097 1_555
Cr26 S54 2.535513 1_555
Cr27 S40 2.370483 1_555
Cr27 S66 2.378362 1_555
Cr27 S51 2.402944 1_555
Cr27 S49 2.422809 1_555
Cr27 S30 2.481675 1_555
Cr27 S76 2.496095 1_555
Cr28 S53 2.325872 1_555
Cr28 S71 2.405955 1_555
Cr28 S37 2.409542 1_555
Cr28 S33 2.452191 1_555
Cr28 S75 2.458880 1_555
Cr28 S47 2.483341 1_555
Cr29 S41 2.340985 1_555
Cr29 S48 2.351975 1_555
Cr29 S67 2.396116 1_555
Cr29 S57 2.438003 1_555
Cr29 S31 2.502524 1_555
Cr29 S77 2.559273 1_555
Cr30 S65 2.366861 1_565
Cr30 S60 2.376387 1_555
Cr30 S43 2.385689 1_565
Cr30 S35 2.425476 1_555
Cr30 S73 2.436271 1_555
Cr30 S59 2.499154 1_554
Cr31 S46 2.364721 1_555
Cr31 S62 2.373059 1_555
Cr31 S90 2.380383 1_555
Cr31 S82 2.435504 1_555
Cr31 S52 2.444492 1_555
Cr31 S76 2.485285 1_555
Cr32 S91 2.364721 1_555
Cr32 S63 2.373059 1_555
Cr32 S47 2.380383 1_555
Cr32 S56 2.435504 1_555
Cr32 S83 2.444492 1_555
Cr32 S77 2.485285 1_556
Cr33 S55 2.360919 1_555
Cr33 S66 2.400109 1_555
Cr33 S64 2.409169 1_555
Cr33 S84 2.415084 1_555
Cr33 S51 2.477087 1_555
Cr33 S80 2.525573 1_555
Cr34 S85 2.360919 1_555
Cr34 S67 2.400109 1_555
Cr34 S65 2.409169 1_555
Cr34 S58 2.415084 1_555
Cr34 S81 2.477087 1_555
Cr34 S57 2.525573 1_555
Cr35 S88 2.345137 1_555
Cr35 S68 2.349509 1_565
Cr35 S50 2.393111 1_555
Cr35 S74 2.438196 1_555
Cr35 S78 2.516238 1_555
Cr35 S54 2.555133 1_555
Cr36 S53 2.345137 1_555
Cr36 S69 2.349509 1_565
Cr36 S89 2.393111 1_555
Cr36 S75 2.438196 1_555
Cr36 S59 2.516238 1_555
Cr36 S79 2.555133 1_555
Cr37 S93 2.367376 1_555
Cr37 S87 2.402450 1_555
Cr37 S73 2.404364 1_555
Cr37 S70 2.410402 1_555
Cr37 S60 2.420869 1_555
Cr37 S48 2.437225 1_555
Cr38 S61 2.367376 1_555
Cr38 S49 2.402450 1_555
Cr38 S72 2.404364 1_555
Cr38 S71 2.410402 1_555
Cr38 S92 2.420869 1_555
Cr38 S86 2.437225 1_555
Cr39 S68 2.400675 1_555
Cr39 S0 2.403303 1_655
Cr39 S85 2.408260 1_555
Cr39 S1 2.412217 1_655
Cr39 S62 2.416132 1_555
Cr39 S82 2.422351 1_555
Cr40 S94 2.369041 1_655
Cr40 S7 2.398875 1_655
Cr40 S83 2.409828 1_555
Cr40 S84 2.414416 1_555
Cr40 S63 2.425736 1_555
Cr40 S69 2.431658 1_555
Cr41 S6 2.340985 1_655
Cr41 S86 2.351975 1_555
Cr41 S66 2.396116 1_555
Cr41 S80 2.438003 1_555
Cr41 S4 2.502524 1_655
Cr41 S76 2.559273 1_555
Cr42 S12 2.370483 1_655
Cr42 S67 2.378362 1_555
Cr42 S81 2.402944 1_555
Cr42 S87 2.422809 1_555
Cr42 S11 2.481675 1_655
Cr42 S77 2.496095 1_555
Cr43 S88 2.325872 1_555
Cr43 S70 2.405955 1_555
Cr43 S2 2.409542 1_655
Cr43 S5 2.452191 1_655
Cr43 S74 2.458880 1_555
Cr43 S90 2.483341 1_555
Cr44 S9 2.362137 1_655
Cr44 S89 2.396385 1_555
Cr44 S91 2.403876 1_555
Cr44 S71 2.412032 1_555
Cr44 S95 2.472593 1_655
Cr44 S75 2.532280 1_555
Cr45 S64 2.366861 1_565
Cr45 S92 2.376387 1_555
Cr45 S3 2.385689 1_665
Cr45 S8 2.425476 1_655
Cr45 S72 2.436271 1_555
Cr45 S78 2.499154 1_555
Cr46 S93 2.355740 1_555
Cr46 S65 2.359900 1_565
Cr46 S10 2.360540 1_665
Cr46 S13 2.432576 1_655
Cr46 S73 2.435097 1_555
Cr46 S79 2.535513 1_554
Cr47 S20 2.400675 1_555
Cr47 S86 2.403303 1_455
Cr47 S9 2.408260 1_555
Cr47 S92 2.412217 1_455
Cr47 S14 2.416132 1_555
Cr47 S8 2.422351 1_555
