# generated using pymatgen
data_La7Ni16
_symmetry_space_group_name_H-M   'P 1'
_cell_length_a   7.26642357
_cell_length_b   7.26642222
_cell_length_c   8.82826744
_cell_angle_alpha   114.30621943
_cell_angle_beta   114.30621453
_cell_angle_gamma   89.99954835
_symmetry_Int_Tables_number   1
_chemical_formula_structural   La7Ni16
_chemical_formula_sum   'La7 Ni16'
_cell_volume   379.02459432
_cell_formula_units_Z   1
loop_
 _symmetry_equiv_pos_site_id
 _symmetry_equiv_pos_as_xyz
  1  'x, y, z'
loop_
 _atom_site_type_symbol
 _atom_site_label
 _atom_site_symmetry_multiplicity
 _atom_site_fract_x
 _atom_site_fract_y
 _atom_site_fract_z
 _atom_site_occupancy
  La  La0  1  0.59331086  0.20131084  0.79443783  1
  La  La1  1  0.20131084  0.59331086  0.79443783  1
  La  La2  1  0.40698047  0.40698047  0.20571618  1
  La  La3  1  0.24996106  0.75014486  0.50000381  1
  La  La4  1  0.00003346  0.00003346  -0.00003499  1
  La  La5  1  0.79887027  0.79887027  0.20552230  1
  La  La6  1  0.75014486  0.24996106  0.50000381  1
  Ni  Ni0  1  0.93340174  0.93340174  0.63048054  1
  Ni  Ni1  1  0.18243635  0.69696362  0.13113859  1
  Ni  Ni2  1  0.43366374  0.94794988  0.13112784  1
  Ni  Ni3  1  0.69653475  0.69653475  0.62969352  1
  Ni  Ni4  1  0.81691477  0.56590175  0.86854991  1
  Ni  Ni5  1  0.43934621  0.43934621  0.60220602  1
  Ni  Ni6  1  0.30322865  0.06678774  0.36999303  1
  Ni  Ni7  1  0.56590175  0.81691477  0.86854991  1
  Ni  Ni8  1  0.56065987  0.83693165  0.39745085  1
  Ni  Ni9  1  0.16317832  0.16317832  0.60273579  1
  Ni  Ni10  1  0.06678774  0.30322865  0.36999303  1
  Ni  Ni11  1  0.30329585  0.05219330  0.86913896  1
  Ni  Ni12  1  0.05219330  0.30329585  0.86913896  1
  Ni  Ni13  1  0.69696362  0.18243635  0.13113859  1
  Ni  Ni14  1  0.83693165  0.56065987  0.39745085  1
  Ni  Ni15  1  0.94794988  0.43366374  0.13112784  1
loop_
_geom_bond_atom_site_label_1
_geom_bond_atom_site_label_2
_geom_bond_distance
_geom_bond_site_symmetry_2
La0 Ni11 2.789697 1_555
La0 Ni4 2.790100 1_555
La0 Ni15 2.808813 1_556
La0 Ni13 2.813237 1_556
La0 Ni9 2.822995 1_555
La0 Ni5 2.824339 1_555
La0 Ni7 3.143467 1_545
La0 Ni12 3.144835 1_655
La0 Ni8 3.320555 1_545
La0 La3 3.372694 1_545
La0 La6 3.372741 1_555
La0 La4 3.454834 1_656
La1 Ni12 2.789697 1_555
La1 Ni7 2.790101 1_555
La1 Ni2 2.808813 1_556
La1 Ni1 2.813237 1_556
La1 Ni9 2.822994 1_555
La1 Ni5 2.824339 1_555
La1 Ni4 3.143467 1_455
La1 Ni11 3.144834 1_565
La1 Ni14 3.320555 1_455
La1 La6 3.372694 1_455
La1 La3 3.372740 1_555
La1 La4 3.454834 1_566
La2 Ni1 2.791669 1_555
La2 Ni13 2.791669 1_555
La2 Ni11 2.809616 1_554
La2 Ni12 2.809617 1_554
La2 Ni8 2.821946 1_555
La2 Ni14 2.821946 1_555
La2 Ni2 3.145441 1_545
La2 Ni15 3.145441 1_455
La2 Ni5 3.317750 1_555
La2 La3 3.372925 1_555
La2 La6 3.372925 1_555
La2 La4 3.456051 1_555
La3 Ni9 2.908236 1_565
La3 Ni14 2.908594 1_455
La3 Ni5 2.909207 1_555
La3 Ni8 2.909842 1_555
La3 Ni1 2.939927 1_555
La3 Ni7 2.939955 1_555
La3 Ni11 2.942703 1_565
La3 Ni15 2.943000 1_455
La3 Ni6 3.049741 1_565
La3 Ni3 3.049791 1_555
La3 Ni10 3.051078 1_555
La3 Ni0 3.051178 1_455
La3 La5 3.372059 1_455
La4 Ni0 2.916950 1_444
La4 Ni10 2.920836 1_555
La4 Ni6 2.920836 1_555
La4 Ni3 2.922909 1_444
La4 Ni15 2.961353 1_455
La4 Ni2 2.961353 1_545
La4 Ni1 2.963689 1_545
La4 Ni13 2.963689 1_455
La4 Ni4 2.963827 1_444
La4 Ni7 2.963828 1_444
La4 Ni12 2.964657 1_554
La4 Ni11 2.964658 1_554
La4 La5 3.454564 1_445
La5 Ni15 2.792498 1_555
La5 Ni2 2.792498 1_555
La5 Ni4 2.812147 1_554
La5 Ni7 2.812147 1_554
La5 Ni14 2.823520 1_555
La5 Ni8 2.823520 1_555
La5 Ni13 3.139135 1_565
La5 Ni1 3.139135 1_655
La5 Ni9 3.320929 1_665
La5 La6 3.372058 1_565
La6 Ni9 2.908236 1_655
La6 Ni8 2.908594 1_545
La6 Ni5 2.909207 1_555
La6 Ni14 2.909842 1_555
La6 Ni13 2.939927 1_555
La6 Ni4 2.939955 1_555
La6 Ni12 2.942703 1_655
La6 Ni2 2.943000 1_545
La6 Ni10 3.049742 1_655
La6 Ni3 3.049790 1_555
La6 Ni6 3.051079 1_555
La6 Ni0 3.051178 1_545
Ni0 Ni3 2.430082 1_555
Ni0 Ni12 2.499894 1_665
Ni0 Ni11 2.499895 1_665
Ni0 Ni14 2.507072 1_555
Ni0 Ni8 2.507072 1_555
Ni0 Ni9 2.511745 1_665
Ni1 Ni6 2.499986 1_565
Ni1 Ni4 2.539554 1_454
Ni1 Ni15 2.561930 1_455
Ni1 Ni2 2.580508 1_555
Ni1 Ni8 2.612958 1_555
Ni1 Ni12 2.679470 1_554
Ni2 Ni6 2.497432 1_565
Ni2 Ni8 2.608758 1_555
Ni2 Ni7 2.687046 1_554
Ni3 Ni4 2.498417 1_555
Ni3 Ni7 2.498417 1_555
Ni3 Ni8 2.504947 1_555
Ni3 Ni5 2.509462 1_555
Ni4 Ni7 2.579468 1_555
Ni4 Ni5 2.609784 1_555
Ni5 Ni6 2.504352 1_555
Ni5 Ni7 2.609783 1_555
Ni5 Ni9 2.840713 1_555
Ni6 Ni9 2.506929 1_555
Ni6 Ni8 2.511485 1_545
Ni10 Ni6 2.429722 1_555
Ni10 Ni15 2.497432 1_455
Ni10 Ni13 2.499986 1_455
Ni10 Ni5 2.504352 1_555
Ni10 Ni9 2.506929 1_555
Ni10 Ni14 2.511485 1_455
Ni11 Ni2 2.541505 1_546
Ni11 Ni7 2.562210 1_545
Ni11 Ni12 2.580388 1_555
Ni11 Ni9 2.609307 1_555
Ni11 Ni13 2.679470 1_556
Ni12 Ni15 2.541505 1_456
Ni12 Ni4 2.562210 1_455
Ni12 Ni9 2.609307 1_555
Ni13 Ni7 2.539553 1_544
Ni13 Ni2 2.561930 1_545
Ni13 Ni15 2.580508 1_555
Ni13 Ni14 2.612957 1_555
Ni14 Ni3 2.504947 1_555
Ni14 Ni15 2.608758 1_555
Ni14 Ni8 2.839033 1_555
Ni15 Ni4 2.687046 1_554
