# generated using pymatgen
data_Cs4Ti3S14
_symmetry_space_group_name_H-M   'P 1'
_cell_length_a   11.60701398
_cell_length_b   11.60701398
_cell_length_c   14.00862175
_cell_angle_alpha   67.52997696
_cell_angle_beta   67.52997696
_cell_angle_gamma   43.16106926
_symmetry_Int_Tables_number   1
_chemical_formula_structural   Cs4Ti3S14
_chemical_formula_sum   'Cs8 Ti6 S28'
_cell_volume   1176.91213395
_cell_formula_units_Z   2
loop_
 _symmetry_equiv_pos_site_id
 _symmetry_equiv_pos_as_xyz
  1  'x, y, z'
loop_
 _atom_site_type_symbol
 _atom_site_label
 _atom_site_symmetry_multiplicity
 _atom_site_fract_x
 _atom_site_fract_y
 _atom_site_fract_z
 _atom_site_occupancy
  Cs  Cs0  1  0.02389043  0.38468073  0.88691398  1
  Cs  Cs1  1  0.61531927  0.97610957  0.61308602  1
  Cs  Cs2  1  0.97610957  0.61531927  0.11308602  1
  Cs  Cs3  1  0.38468073  0.02389043  0.38691398  1
  Cs  Cs4  1  0.20033464  0.67411453  0.64769802  1
  Cs  Cs5  1  0.32588547  0.79966536  0.85230198  1
  Cs  Cs6  1  0.79966536  0.32588547  0.35230198  1
  Cs  Cs7  1  0.67411453  0.20033464  0.14769802  1
  Ti  Ti0  1  0.92235135  0.41235208  0.58304714  1
  Ti  Ti1  1  0.58764792  0.07764865  0.91695286  1
  Ti  Ti2  1  0.07764865  0.58764792  0.41695286  1
  Ti  Ti3  1  0.41235208  0.92235135  0.08304714  1
  Ti  Ti4  1  0.76411103  0.23588897  0.75000000  1
  Ti  Ti5  1  0.23588897  0.76411103  0.25000000  1
  S  S0  1  0.88381005  0.19688542  0.88310174  1
  S  S1  1  0.80311458  0.11618995  0.61689826  1
  S  S2  1  0.11618995  0.80311458  0.11689826  1
  S  S3  1  0.19688542  0.88381005  0.38310174  1
  S  S4  1  0.66585702  0.47269531  0.58621318  1
  S  S5  1  0.52730469  0.33414298  0.91378682  1
  S  S6  1  0.33414298  0.52730469  0.41378682  1
  S  S7  1  0.47269531  0.66585702  0.08621318  1
  S  S8  1  0.05845662  0.11190502  0.63108283  1
  S  S9  1  0.88809498  0.94154338  0.86891717  1
  S  S10  1  0.94154338  0.88809498  0.36891717  1
  S  S11  1  0.11190502  0.05845662  0.13108283  1
  S  S12  1  0.76571588  0.42597285  0.78259949  1
  S  S13  1  0.57402715  0.23428412  0.71740051  1
  S  S14  1  0.23428412  0.57402715  0.21740051  1
  S  S15  1  0.42597285  0.76571588  0.28259949  1
  S  S16  1  0.99448502  0.56269333  0.59463881  1
  S  S17  1  0.43730667  0.00551498  0.90536119  1
  S  S18  1  0.00551498  0.43730667  0.40536119  1
  S  S19  1  0.56269333  0.99448502  0.09463881  1
  S  S20  1  0.83519030  0.82136302  0.84375300  1
  S  S21  1  0.17863698  0.16480970  0.65624700  1
  S  S22  1  0.16480970  0.17863698  0.15624700  1
  S  S23  1  0.82136302  0.83519030  0.34375300  1
  S  S24  1  0.32305030  0.38399584  0.90010985  1
  S  S25  1  0.61600416  0.67694970  0.59989015  1
  S  S26  1  0.67694970  0.61600416  0.09989015  1
  S  S27  1  0.38399584  0.32305030  0.40010985  1
loop_
_geom_bond_atom_site_label_1
_geom_bond_atom_site_label_2
_geom_bond_distance
_geom_bond_site_symmetry_2
Cs0 S17 3.425073 1_555
Cs0 S12 3.472984 1_455
Cs0 S24 3.541290 1_555
Cs0 S0 3.566991 1_455
Cs0 S20 3.650674 1_455
Cs0 S26 3.673221 1_456
Cs0 S11 3.769401 1_556
Cs0 S16 3.836963 1_455
Cs0 S22 3.839727 1_556
Cs0 S21 3.919237 1_555
Cs1 S16 3.425073 1_555
Cs1 S13 3.472984 1_565
Cs1 S25 3.541290 1_555
Cs1 S1 3.566991 1_565
Cs1 S21 3.650674 1_565
Cs1 S27 3.673221 1_565
Cs1 S10 3.769401 1_555
Cs1 S17 3.836963 1_565
Cs1 S23 3.839727 1_555
Cs1 S20 3.919237 1_555
Cs2 S19 3.425073 1_555
Cs2 S14 3.472984 1_655
Cs2 S26 3.541290 1_555
Cs2 S2 3.566991 1_655
Cs2 S22 3.650674 1_655
Cs2 S24 3.673221 1_654
Cs2 S9 3.769401 1_554
Cs2 S18 3.836963 1_655
Cs2 S20 3.839727 1_554
Cs2 S23 3.919237 1_555
Cs3 S18 3.425073 1_555
Cs3 S15 3.472984 1_545
Cs3 S27 3.541290 1_555
Cs3 S3 3.566991 1_545
Cs3 S23 3.650674 1_545
Cs3 S25 3.673221 1_545
Cs3 S8 3.769401 1_555
Cs3 S19 3.836963 1_545
Cs3 S21 3.839727 1_555
Cs3 S22 3.919237 1_555
Cs4 S20 3.542547 1_455
Cs4 S6 3.545440 1_555
Cs4 S3 3.569292 1_555
Cs4 S13 3.598914 1_555
Cs4 S1 3.617645 1_465
Cs4 S24 3.690800 1_555
Cs4 S16 3.812347 1_455
Cs4 S9 3.837918 1_455
Cs4 S4 3.867342 1_555
Cs4 S8 3.970917 1_565
Cs5 S21 3.542547 1_565
Cs5 S7 3.545440 1_556
Cs5 S2 3.569292 1_556
Cs5 S12 3.598914 1_555
Cs5 S0 3.617645 1_465
Cs5 S25 3.690800 1_555
Cs5 S17 3.812347 1_565
Cs5 S8 3.837918 1_565
Cs5 S5 3.867342 1_555
Cs5 S9 3.970917 1_455
Cs6 S22 3.542547 1_655
Cs6 S4 3.545440 1_555
Cs6 S1 3.569292 1_555
Cs6 S15 3.598914 1_555
Cs6 S3 3.617645 1_645
Cs6 S26 3.690800 1_555
Cs6 S18 3.812347 1_655
Cs6 S11 3.837918 1_655
Cs6 S6 3.867342 1_555
Cs6 S10 3.970917 1_545
Cs7 S23 3.542547 1_545
Cs7 S5 3.545440 1_554
Cs7 S0 3.569292 1_554
Cs7 S14 3.598914 1_555
Cs7 S2 3.617645 1_645
Cs7 S27 3.690800 1_555
Cs7 S19 3.812347 1_545
Cs7 S10 3.837918 1_545
Cs7 S7 3.867342 1_555
Cs7 S11 3.970917 1_655
S0 S12 2.056146 1_555
S0 Ti4 2.455450 1_555
S1 S13 2.056146 1_555
S1 Ti4 2.455450 1_555
S2 Ti5 2.455450 1_555
S3 Ti5 2.455450 1_555
S4 Ti0 2.497327 1_555
S4 Ti4 2.593523 1_555
S5 Ti1 2.497327 1_555
S5 Ti4 2.593523 1_555
S6 Ti2 2.497327 1_555
S6 Ti5 2.593523 1_555
S7 Ti3 2.497327 1_555
S7 Ti5 2.593523 1_555
S8 Ti0 2.468083 1_455
S8 Ti4 2.612991 1_455
S9 Ti1 2.468083 1_565
S9 Ti4 2.612991 1_565
S10 S23 2.058683 1_555
S10 Ti2 2.468083 1_655
S10 Ti5 2.612991 1_655
S11 S22 2.058683 1_555
S11 Ti3 2.468083 1_545
S11 Ti5 2.612991 1_545
S12 Ti4 2.431733 1_555
S12 Ti0 2.679273 1_555
S13 Ti4 2.431733 1_555
S13 Ti1 2.679273 1_555
S14 S2 2.056146 1_555
S14 Ti5 2.431733 1_555
S14 Ti2 2.679273 1_555
S15 S3 2.056146 1_555
S15 Ti5 2.431733 1_555
S15 Ti3 2.679273 1_555
S16 Ti2 2.287269 1_655
S16 Ti0 2.494875 1_555
S17 Ti3 2.287269 1_546
S17 Ti1 2.494875 1_555
S18 Ti0 2.287269 1_455
S18 Ti2 2.494875 1_555
S19 Ti1 2.287269 1_564
S19 Ti3 2.494875 1_555
S20 S9 2.058683 1_555
S20 Ti1 2.401338 1_565
S21 S8 2.058683 1_555
S21 Ti0 2.401338 1_455
S22 Ti3 2.401338 1_545
S23 Ti2 2.401338 1_655
S24 S5 2.062351 1_555
S24 Ti1 2.472350 1_555
S25 S4 2.062351 1_555
S25 Ti0 2.472350 1_555
S26 S7 2.062351 1_555
S26 Ti3 2.472350 1_555
S27 S6 2.062351 1_555
S27 Ti2 2.472350 1_555
