# generated using pymatgen
data_Te2SO7
_symmetry_space_group_name_H-M   'P 1'
_cell_length_a   4.87730731
_cell_length_b   6.93474670
_cell_length_c   8.64223429
_cell_angle_alpha   90.00000000
_cell_angle_beta   90.00000000
_cell_angle_gamma   90.00000000
_symmetry_Int_Tables_number   1
_chemical_formula_structural   Te2SO7
_chemical_formula_sum   'Te4 S2 O14'
_cell_volume   292.30534642
_cell_formula_units_Z   2
loop_
 _symmetry_equiv_pos_site_id
 _symmetry_equiv_pos_as_xyz
  1  'x, y, z'
loop_
 _atom_site_type_symbol
 _atom_site_label
 _atom_site_symmetry_multiplicity
 _atom_site_fract_x
 _atom_site_fract_y
 _atom_site_fract_z
 _atom_site_occupancy
  Te  Te0  1  0.17014901  0.82223960  0.80231007  1
  Te  Te1  1  0.67014901  0.17776040  0.69768993  1
  Te  Te2  1  0.17014901  0.82223960  0.19768993  1
  Te  Te3  1  0.67014901  0.17776040  0.30231007  1
  S  S0  1  0.69919935  0.51330575  0.00000000  1
  S  S1  1  0.19919935  0.48669425  0.50000000  1
  O  O0  1  0.31680745  0.05900381  0.70908175  1
  O  O1  1  0.27146949  0.93368096  0.00000000  1
  O  O2  1  0.31680745  0.05900381  0.29091825  1
  O  O3  1  0.54849317  0.56008599  0.14118734  1
  O  O4  1  0.81680745  0.94099619  0.79091825  1
  O  O5  1  0.54849317  0.56008599  0.85881266  1
  O  O6  1  0.81680745  0.94099619  0.20908175  1
  O  O7  1  0.04849317  0.43991401  0.64118734  1
  O  O8  1  0.04849317  0.43991401  0.35881266  1
  O  O9  1  0.77146949  0.06631904  0.50000000  1
  O  O10  1  0.28481612  0.68914383  0.50000000  1
  O  O11  1  0.95861679  0.63996562  0.00000000  1
  O  O12  1  0.78481612  0.31085617  0.00000000  1
  O  O13  1  0.45861679  0.36003438  0.50000000  1
loop_
_geom_bond_atom_site_label_1
_geom_bond_atom_site_label_2
_geom_bond_distance
_geom_bond_site_symmetry_2
O0 Te1 1.912557 1_555
O0 Te0 1.963833 1_545
O1 Te2 1.939166 1_555
O1 Te0 1.939166 1_554
O2 Te3 1.912557 1_555
O2 Te2 1.963833 1_545
O3 S0 1.460942 1_555
O3 Te2 2.636018 1_555
O4 Te0 1.912557 1_655
O4 Te1 1.963833 1_565
O5 S0 1.460942 1_556
O5 Te0 2.636018 1_555
O6 Te2 1.912557 1_655
O6 Te3 1.963833 1_565
O7 S1 1.460942 1_555
O7 Te1 2.636018 1_455
O8 S1 1.460942 1_555
O8 Te3 2.636018 1_455
O9 Te1 1.939166 1_555
O9 Te3 1.939166 1_555
O10 S1 1.464722 1_555
O11 S0 1.540255 1_555
O11 Te0 2.362433 1_654
O11 Te2 2.362433 1_655
O12 S0 1.464722 1_555
O13 S1 1.540255 1_555
O13 Te3 2.362433 1_555
O13 Te1 2.362433 1_555
