# generated using pymatgen
data_TlPd3O4
_symmetry_space_group_name_H-M   'P 1'
_cell_length_a   6.80739218
_cell_length_b   6.80739232
_cell_length_c   6.80739321
_cell_angle_alpha   59.99999564
_cell_angle_beta   59.99999494
_cell_angle_gamma   60.00000013
_symmetry_Int_Tables_number   1
_chemical_formula_structural   TlPd3O4
_chemical_formula_sum   'Tl2 Pd6 O8'
_cell_volume   223.06290855
_cell_formula_units_Z   2
loop_
 _symmetry_equiv_pos_site_id
 _symmetry_equiv_pos_as_xyz
  1  'x, y, z'
loop_
 _atom_site_type_symbol
 _atom_site_label
 _atom_site_symmetry_multiplicity
 _atom_site_fract_x
 _atom_site_fract_y
 _atom_site_fract_z
 _atom_site_occupancy
  Tl  Tl0  1  0.50000000  0.50000000  0.50000000  1
  Tl  Tl1  1  -0.00000000  0.00000000  0.00000000  1
  Pd  Pd0  1  -0.00000000  0.00000000  0.50000000  1
  Pd  Pd1  1  -0.00000000  0.50000000  0.00000000  1
  Pd  Pd2  1  -0.00000000  0.50000000  0.50000000  1
  Pd  Pd3  1  0.50000000  0.50000000  0.00000000  1
  Pd  Pd4  1  0.50000000  0.00000000  0.00000000  1
  Pd  Pd5  1  0.50000000  0.00000000  0.50000000  1
  O  O0  1  0.85808675  0.85808675  0.85808675  1
  O  O1  1  0.14191325  0.14191325  0.57426324  1
  O  O2  1  0.14191325  0.57426324  0.14191325  1
  O  O3  1  0.57426324  0.14191325  0.14191325  1
  O  O4  1  0.85808675  0.42573676  0.85808675  1
  O  O5  1  0.42573676  0.85808675  0.85808675  1
  O  O6  1  0.14191325  0.14191325  0.14191325  1
  O  O7  1  0.85808675  0.85808675  0.42573676  1
loop_
_geom_bond_atom_site_label_1
_geom_bond_atom_site_label_2
_geom_bond_distance
_geom_bond_site_symmetry_2
Pd0 Tl0 3.403696 1_545
Pd0 Tl0 3.403696 1_455
Pd1 Tl0 3.403696 1_554
Pd1 Tl0 3.403696 1_455
Pd2 Tl0 3.403696 1_455
Pd2 Tl0 3.403696 1_555
Pd3 Tl0 3.403697 1_554
Pd3 Tl0 3.403697 1_555
Pd4 Tl0 3.403696 1_545
Pd4 Tl0 3.403696 1_554
Pd5 Tl0 3.403696 1_555
Pd5 Tl0 3.403696 1_545
O0 Pd4 2.008004 1_566
O0 Pd1 2.008004 1_656
O0 Pd0 2.008005 1_665
O0 Tl1 2.366352 1_666
O1 Pd5 2.008002 1_555
O1 Pd2 2.008002 1_555
O1 Pd0 2.008019 1_555
O1 Tl1 2.366336 1_556
O2 Pd3 2.008002 1_555
O2 Pd2 2.008002 1_555
O2 Pd1 2.008020 1_555
O2 Tl1 2.366335 1_565
O3 Pd3 2.008002 1_555
O3 Pd5 2.008002 1_555
O3 Pd4 2.008020 1_555
O3 Tl1 2.366335 1_655
O4 Pd3 2.008002 1_556
O4 Pd2 2.008002 1_655
O4 Pd1 2.008020 1_656
O4 Tl1 2.366335 1_656
O5 Pd3 2.008002 1_556
O5 Pd5 2.008002 1_565
O5 Pd4 2.008020 1_566
O5 Tl1 2.366335 1_566
O6 Pd4 2.008004 1_555
O6 Pd1 2.008004 1_555
O6 Pd0 2.008005 1_555
O6 Tl1 2.366352 1_555
O7 Pd5 2.008002 1_565
O7 Pd2 2.008002 1_655
O7 Pd0 2.008019 1_665
O7 Tl1 2.366336 1_665
