# generated using pymatgen
data_Th(Re2Si)2
_symmetry_space_group_name_H-M   'P 1'
_cell_length_a   4.17040475
_cell_length_b   7.21059769
_cell_length_c   15.65358358
_cell_angle_alpha   90.00000000
_cell_angle_beta   90.00000000
_cell_angle_gamma   90.00000000
_symmetry_Int_Tables_number   1
_chemical_formula_structural   Th(Re2Si)2
_chemical_formula_sum   'Th4 Re16 Si8'
_cell_volume   470.72064714
_cell_formula_units_Z   4
loop_
 _symmetry_equiv_pos_site_id
 _symmetry_equiv_pos_as_xyz
  1  'x, y, z'
loop_
 _atom_site_type_symbol
 _atom_site_label
 _atom_site_symmetry_multiplicity
 _atom_site_fract_x
 _atom_site_fract_y
 _atom_site_fract_z
 _atom_site_occupancy
  Th  Th0  1  0.00000000  0.58851924  0.11722388  1
  Th  Th1  1  0.00000000  0.41141712  0.88273983  1
  Th  Th2  1  0.50000000  0.08851924  0.38277612  1
  Th  Th3  1  0.50000000  0.91141712  0.61726017  1
  Re  Re0  1  -0.00000000  0.14181071  0.05142561  1
  Re  Re1  1  0.00000000  0.85824015  0.94848388  1
  Re  Re2  1  0.50000000  0.64181071  0.44857439  1
  Re  Re3  1  0.50000000  0.35824015  0.55151612  1
  Re  Re4  1  -0.00000000  0.73934809  0.32065583  1
  Re  Re5  1  -0.00000000  0.26067176  0.67940557  1
  Re  Re6  1  0.50000000  0.23934809  0.17934417  1
  Re  Re7  1  0.50000000  0.76067176  0.82059443  1
  Re  Re8  1  -0.00000000  0.43070244  0.41970297  1
  Re  Re9  1  -0.00000000  0.56933441  0.58036666  1
  Re  Re10  1  0.50000000  0.93070244  0.08029703  1
  Re  Re11  1  0.50000000  0.06933441  0.91963334  1
  Re  Re12  1  0.00000000  0.99956214  0.20643759  1
  Re  Re13  1  0.00000000  0.00042238  0.79353785  1
  Re  Re14  1  0.50000000  0.49956214  0.29356241  1
  Re  Re15  1  0.50000000  0.50042238  0.70646215  1
  Si  Si0  1  0.00000000  0.82571464  0.47409788  1
  Si  Si1  1  0.00000000  0.17425570  0.52593582  1
  Si  Si2  1  0.50000000  0.32571464  0.02590212  1
  Si  Si3  1  0.50000000  0.67425570  0.97406418  1
  Si  Si4  1  0.00000000  0.30657466  0.27314350  1
  Si  Si5  1  0.00000000  0.69342655  0.72686146  1
  Si  Si6  1  0.50000000  0.80657466  0.22685650  1
  Si  Si7  1  0.50000000  0.19342655  0.77313854  1
loop_
_geom_bond_atom_site_label_1
_geom_bond_atom_site_label_2
_geom_bond_distance
_geom_bond_site_symmetry_2
Re0 Si2 2.503223 1_455
Re0 Si2 2.503223 1_555
Re0 Re1 2.603360 1_544
Re0 Re10 2.620966 1_545
Re0 Re10 2.620966 1_445
Re0 Re12 2.634373 1_545
Re0 Re6 2.975272 1_455
Re0 Re6 2.975272 1_555
Re0 Re11 2.979469 1_454
Re0 Re11 2.979469 1_554
Re0 Th1 3.278973 1_554
Re0 Th0 3.381705 1_555
Re1 Si3 2.503672 1_455
Re1 Si3 2.503672 1_555
Re1 Re11 2.620851 1_565
Re1 Re11 2.620851 1_465
Re1 Re13 2.633236 1_565
Re1 Re7 2.975018 1_455
Re1 Re7 2.975018 1_555
Re1 Re10 2.979677 1_456
Re1 Re10 2.979677 1_556
Re1 Th0 3.280146 1_556
Re1 Th1 3.382233 1_555
Re2 Si0 2.503223 1_555
Re2 Si0 2.503223 1_655
Re2 Re3 2.603360 1_555
Re2 Re8 2.620966 1_655
Re2 Re8 2.620966 1_555
Re2 Re4 2.975272 1_555
Re2 Re4 2.975272 1_655
Re2 Re9 2.979469 1_655
Re2 Re9 2.979469 1_555
Re2 Th3 3.278973 1_555
Re2 Th2 3.381705 1_565
Re3 Si1 2.503672 1_555
Re3 Si1 2.503672 1_655
Re3 Re9 2.620851 1_555
Re3 Re9 2.620851 1_655
Re3 Re5 2.975018 1_555
Re3 Re5 2.975018 1_655
Re3 Re8 2.979677 1_655
Re3 Re8 2.979677 1_555
Re3 Th2 3.280146 1_555
Re3 Th3 3.382233 1_545
Re4 Si0 2.481337 1_555
Re4 Si6 2.595946 1_555
Re4 Si6 2.595946 1_455
Re4 Re8 2.712344 1_555
Re4 Si4 3.207961 1_555
Re4 Th0 3.365034 1_555
Re4 Th2 3.410662 1_465
Re4 Th2 3.410662 1_565
Re5 Si1 2.481846 1_555
Re5 Si7 2.595384 1_455
Re5 Si7 2.595384 1_555
Re5 Re9 2.712371 1_555
Re5 Si5 3.207625 1_555
Re5 Th1 3.363392 1_555
Re5 Th3 3.411219 1_445
Re5 Th3 3.411219 1_545
Re6 Si2 2.481337 1_555
Re6 Si4 2.595946 1_655
Re6 Si4 2.595946 1_555
Re6 Si6 3.207961 1_545
Re6 Th2 3.365034 1_555
Re6 Th0 3.410662 1_655
Re6 Th0 3.410662 1_555
Re7 Si3 2.481846 1_555
Re7 Si5 2.595384 1_655
Re7 Si5 2.595384 1_555
Re7 Si7 3.207625 1_565
Re7 Th3 3.363392 1_555
Re7 Th1 3.411219 1_555
Re7 Th1 3.411219 1_655
Re8 Si4 2.462591 1_555
Re8 Si1 2.486889 1_555
Re8 Re9 2.706340 1_555
Re8 Si0 2.972823 1_555
Re8 Th2 3.281766 1_555
Re8 Th2 3.281766 1_455
Re9 Si5 2.461555 1_555
Re9 Si0 2.486909 1_555
Re9 Si1 2.973443 1_555
Re9 Th3 3.281130 1_455
Re9 Th3 3.281130 1_555
Re10 Si6 2.462591 1_555
Re10 Si3 2.486889 1_554
Re10 Re11 2.706340 1_564
Re10 Re6 2.712344 1_565
Re10 Re12 2.914353 1_655
Re10 Re12 2.914353 1_555
Re10 Si2 2.972823 1_565
Re10 Th0 3.281766 1_555
Re10 Th0 3.281766 1_655
Re11 Si7 2.461555 1_555
Re11 Si2 2.486909 1_556
Re11 Re7 2.712371 1_545
Re11 Re13 2.913940 1_555
Re11 Re13 2.913940 1_655
Re11 Si3 2.973443 1_545
Re11 Th1 3.281130 1_555
Re11 Th1 3.281130 1_655
Re12 Si4 2.447649 1_565
Re12 Si6 2.527184 1_555
Re12 Si6 2.527184 1_455
Re12 Re4 2.591751 1_555
Re12 Re6 2.741784 1_565
Re12 Re6 2.741784 1_465
Re12 Th0 3.276392 1_555
Re12 Th2 3.518370 1_465
Re12 Th2 3.518370 1_565
Re13 Si5 2.447343 1_545
Re13 Si7 2.527211 1_455
Re13 Si7 2.527211 1_555
Re13 Re5 2.591007 1_555
Re13 Re7 2.741534 1_445
Re13 Re7 2.741534 1_545
Re13 Th1 3.276000 1_555
Re13 Th3 3.517686 1_545
Re13 Th3 3.517686 1_445
Re14 Si6 2.447649 1_555
Re14 Si4 2.527184 1_655
Re14 Si4 2.527184 1_555
Re14 Re6 2.591751 1_555
Re14 Re2 2.634373 1_555
Re14 Re4 2.741784 1_655
Re14 Re4 2.741784 1_555
Re14 Re8 2.914353 1_555
Re14 Re8 2.914353 1_655
Re14 Th2 3.276392 1_555
Re14 Th0 3.518370 1_655
Re14 Th0 3.518370 1_555
Re15 Si7 2.447343 1_555
Re15 Si5 2.527211 1_555
Re15 Si5 2.527211 1_655
Re15 Re7 2.591007 1_555
Re15 Re3 2.633236 1_555
Re15 Re5 2.741534 1_655
Re15 Re5 2.741534 1_555
Re15 Re9 2.913940 1_555
Re15 Re9 2.913940 1_655
Re15 Th3 3.276000 1_555
Re15 Th1 3.517686 1_555
Re15 Th1 3.517686 1_655
Si0 Si1 2.640941 1_565
Si0 Th3 3.122826 1_555
Si0 Th3 3.122826 1_455
Si0 Th2 3.159512 1_565
Si0 Th2 3.159512 1_465
Si1 Th2 3.122846 1_555
Si1 Th2 3.122846 1_455
Si1 Th3 3.159678 1_445
Si1 Th3 3.159678 1_545
Si2 Si3 2.640941 1_554
Si2 Th1 3.122826 1_654
Si2 Th1 3.122826 1_554
Si2 Th0 3.159512 1_555
Si2 Th0 3.159512 1_655
Si3 Th0 3.122846 1_656
Si3 Th0 3.122846 1_556
Si3 Th1 3.159678 1_655
Si3 Th1 3.159678 1_555
Si4 Th2 3.124960 1_455
Si4 Th2 3.124960 1_555
Si4 Th0 3.176486 1_555
Si5 Th3 3.124456 1_455
Si5 Th3 3.124456 1_555
Si5 Th1 3.176289 1_555
Si6 Th0 3.124960 1_555
Si6 Th0 3.124960 1_655
Si6 Th2 3.176486 1_565
Si7 Th1 3.124456 1_555
Si7 Th1 3.124456 1_655
Si7 Th3 3.176289 1_545
