# generated using pymatgen
data_GdAlO3
_symmetry_space_group_name_H-M   'P 1'
_cell_length_a   5.24264768
_cell_length_b   5.30533641
_cell_length_c   7.44562991
_cell_angle_alpha   89.99999293
_cell_angle_beta   90.00005176
_cell_angle_gamma   89.99998479
_symmetry_Int_Tables_number   1
_chemical_formula_structural   GdAlO3
_chemical_formula_sum   'Gd4 Al4 O12'
_cell_volume   207.09282195
_cell_formula_units_Z   4
loop_
 _symmetry_equiv_pos_site_id
 _symmetry_equiv_pos_as_xyz
  1  'x, y, z'
loop_
 _atom_site_type_symbol
 _atom_site_label
 _atom_site_symmetry_multiplicity
 _atom_site_fract_x
 _atom_site_fract_y
 _atom_site_fract_z
 _atom_site_occupancy
  Gd  Gd0  1  0.00867011  0.96021829  0.74999994  1
  Gd  Gd1  1  0.50866757  0.53978202  0.24999951  1
  Gd  Gd2  1  0.49132794  0.46021587  0.75000070  1
  Gd  Gd3  1  0.99133158  0.03978027  0.24999959  1
  Al  Al0  1  0.50000104  0.00000104  0.50000012  1
  Al  Al1  1  -0.00000012  0.49999985  0.50000003  1
  Al  Al2  1  -0.00000013  0.50000013  0.00000017  1
  Al  Al3  1  0.50000087  0.00000049  -0.00000018  1
  O  O0  1  0.71500203  0.28568551  0.46131723  1
  O  O1  1  0.21500356  0.21431639  0.53868230  1
  O  O2  1  0.78499710  0.78568440  0.03868248  1
  O  O3  1  0.28499682  0.71431552  0.96131744  1
  O  O4  1  0.28499789  0.71431581  0.53868344  1
  O  O5  1  0.78499741  0.78568445  0.46131702  1
  O  O6  1  0.21500231  0.21431531  0.96131770  1
  O  O7  1  0.71500190  0.28568578  0.03868268  1
  O  O8  1  0.07255749  0.48524578  0.25000001  1
  O  O9  1  0.57255601  0.01475447  0.75000007  1
  O  O10  1  0.42744497  0.98524461  0.24999986  1
  O  O11  1  0.92744366  0.51475401  0.74999990  1
loop_
_geom_bond_atom_site_label_1
_geom_bond_atom_site_label_2
_geom_bond_distance
_geom_bond_site_symmetry_2
Gd0 O9 2.304627 1_465
Gd0 O6 2.337305 1_565
Gd0 O1 2.337311 1_565
Gd0 O11 2.401397 1_455
Gd0 O4 2.505237 1_555
Gd0 O3 2.505237 1_555
Gd0 O5 2.617730 1_455
Gd0 O2 2.617730 1_456
Gd1 O8 2.304606 1_555
Gd1 O7 2.337304 1_555
Gd1 O0 2.337308 1_555
Gd1 O10 2.401384 1_555
Gd1 O2 2.505245 1_555
Gd1 O5 2.505246 1_555
Gd1 O3 2.617719 1_554
Gd1 O4 2.617731 1_555
Gd2 O11 2.304637 1_555
Gd2 O4 2.337305 1_555
Gd2 O3 2.337306 1_555
Gd2 O9 2.401383 1_555
Gd2 O1 2.505226 1_555
Gd2 O6 2.505228 1_555
Gd2 O7 2.617720 1_556
Gd2 O0 2.617732 1_555
Gd3 O10 2.304623 1_645
Gd3 O2 2.337303 1_545
Gd3 O5 2.337305 1_545
Gd3 O8 2.401403 1_655
Gd3 O7 2.505251 1_555
Gd3 O0 2.505255 1_555
Gd3 O6 2.617723 1_654
Gd3 O1 2.617731 1_655
Al0 O1 1.899530 1_555
Al0 O5 1.899530 1_545
Al0 O9 1.901486 1_555
Al0 O10 1.901491 1_545
Al0 O0 1.910675 1_555
Al0 O4 1.910686 1_545
Al1 O0 1.899529 1_455
Al1 O4 1.899535 1_555
Al1 O11 1.901488 1_455
Al1 O8 1.901491 1_555
Al1 O1 1.910678 1_555
Al1 O5 1.910680 1_455
Al2 O3 1.899529 1_554
Al2 O7 1.899529 1_455
Al2 O8 1.901489 1_555
Al2 O11 1.901490 1_454
Al2 O2 1.910679 1_455
Al2 O6 1.910680 1_554
Al3 O2 1.899527 1_545
Al3 O6 1.899532 1_554
Al3 O9 1.901486 1_554
Al3 O10 1.901489 1_545
Al3 O7 1.910679 1_555
Al3 O3 1.910686 1_544
