# generated using pymatgen
data_SiC
_symmetry_space_group_name_H-M   'P 1'
_cell_length_a   20.28236370
_cell_length_b   20.28236370
_cell_length_c   20.28236391
_cell_angle_alpha   8.76380734
_cell_angle_beta   8.76380734
_cell_angle_gamma   8.76380711
_symmetry_Int_Tables_number   1
_chemical_formula_structural   SiC
_chemical_formula_sum   'Si8 C8'
_cell_volume   168.06723154
_cell_formula_units_Z   8
loop_
 _symmetry_equiv_pos_site_id
 _symmetry_equiv_pos_as_xyz
  1  'x, y, z'
loop_
 _atom_site_type_symbol
 _atom_site_label
 _atom_site_symmetry_multiplicity
 _atom_site_fract_x
 _atom_site_fract_y
 _atom_site_fract_z
 _atom_site_occupancy
  Si  Si0  1  0.87503200  0.87503200  0.87503200  1
  Si  Si1  1  0.37519100  0.37519100  0.37519100  1
  Si  Si2  1  0.58337400  0.58337400  0.58337400  1
  Si  Si3  1  0.00011300  0.00011300  0.00011300  1
  Si  Si4  1  0.50007200  0.50007200  0.50007200  1
  Si  Si5  1  0.29169900  0.29169900  0.29169900  1
  Si  Si6  1  0.75017700  0.75017700  0.75017700  1
  Si  Si7  1  0.12514000  0.12514000  0.12514000  1
  C  C0  1  0.96869600  0.96869600  0.96869600  1
  C  C1  1  0.46878900  0.46878900  0.46878900  1
  C  C2  1  0.09382600  0.09382600  0.09382600  1
  C  C3  1  0.71884900  0.71884900  0.71884900  1
  C  C4  1  0.84367400  0.84367400  0.84367400  1
  C  C5  1  0.34387300  0.34387300  0.34387300  1
  C  C6  1  0.26039400  0.26039400  0.26039400  1
  C  C7  1  0.55210000  0.55210000  0.55210000  1
loop_
_geom_bond_atom_site_label_1
_geom_bond_atom_site_label_2
_geom_bond_distance
_geom_bond_site_symmetry_2
C0 Si5 1.895768 1_656
C0 Si5 1.895768 1_566
C0 Si5 1.895768 1_665
C0 Si3 1.904179 1_666
C1 Si7 1.895475 1_556
C1 Si7 1.895475 1_655
C1 Si7 1.895475 1_565
C1 Si4 1.896057 1_555
C2 Si6 1.895475 1_445
C2 Si6 1.895475 1_454
C2 Si6 1.895475 1_544
C2 Si7 1.897936 1_555
C3 Si1 1.895655 1_556
C3 Si1 1.895655 1_565
C3 Si1 1.895655 1_655
C3 Si6 1.898785 1_555
C4 Si4 1.894537 1_556
C4 Si4 1.894537 1_565
C4 Si4 1.894537 1_655
C4 Si0 1.900603 1_555
C5 Si3 1.897705 1_556
C5 Si3 1.897705 1_655
C5 Si3 1.897705 1_565
C5 Si1 1.898179 1_555
C6 Si2 1.896229 1_545
C6 Si2 1.896229 1_455
C6 Si2 1.896229 1_554
C6 Si5 1.897391 1_555
C7 Si2 1.895512 1_555
C7 Si0 1.897194 1_545
C7 Si0 1.897194 1_455
C7 Si0 1.897194 1_554
