# generated using pymatgen
data_Nd5Sn4
_symmetry_space_group_name_H-M   'P 1'
_cell_length_a   8.34756647
_cell_length_b   8.44658950
_cell_length_c   15.98040553
_cell_angle_alpha   90.00000000
_cell_angle_beta   90.00000000
_cell_angle_gamma   90.00000000
_symmetry_Int_Tables_number   1
_chemical_formula_structural   Nd5Sn4
_chemical_formula_sum   'Nd20 Sn16'
_cell_volume   1126.75390069
_cell_formula_units_Z   4
loop_
 _symmetry_equiv_pos_site_id
 _symmetry_equiv_pos_as_xyz
  1  'x, y, z'
loop_
 _atom_site_type_symbol
 _atom_site_label
 _atom_site_symmetry_multiplicity
 _atom_site_fract_x
 _atom_site_fract_y
 _atom_site_fract_z
 _atom_site_occupancy
  Nd  Nd0  1  0.02808443  0.17849185  0.39899054  1
  Nd  Nd1  1  0.37916686  0.83838719  0.11821432  1
  Nd  Nd2  1  0.12083314  0.33838719  0.61821432  1
  Nd  Nd3  1  0.47191557  0.67849185  0.89899054  1
  Nd  Nd4  1  0.87916686  0.66161281  0.11821432  1
  Nd  Nd5  1  0.12083314  0.33838719  0.88178568  1
  Nd  Nd6  1  0.20807491  0.50322042  0.25000000  1
  Nd  Nd7  1  0.70807491  0.99677958  0.25000000  1
  Nd  Nd8  1  0.47191557  0.67849185  0.60100946  1
  Nd  Nd9  1  0.29192509  0.00322042  0.75000000  1
  Nd  Nd10  1  0.62083314  0.16161281  0.61821432  1
  Nd  Nd11  1  0.79192509  0.49677958  0.75000000  1
  Nd  Nd12  1  0.87916686  0.66161281  0.38178568  1
  Nd  Nd13  1  0.02808443  0.17849185  0.10100946  1
  Nd  Nd14  1  0.97191557  0.82150815  0.89899054  1
  Nd  Nd15  1  0.62083314  0.16161281  0.88178568  1
  Nd  Nd16  1  0.52808443  0.32150815  0.10100946  1
  Nd  Nd17  1  0.37916686  0.83838719  0.38178568  1
  Nd  Nd18  1  0.97191557  0.82150815  0.60100946  1
  Nd  Nd19  1  0.52808443  0.32150815  0.39899054  1
  Sn  Sn0  1  0.78080093  0.46810848  0.54339175  1
  Sn  Sn1  1  0.71919907  0.96810848  0.45660825  1
  Sn  Sn2  1  0.66859639  0.86006780  0.75000000  1
  Sn  Sn3  1  0.21919907  0.53189152  0.45660825  1
  Sn  Sn4  1  0.28080093  0.03189152  0.95660825  1
  Sn  Sn5  1  0.83140361  0.36006780  0.25000000  1
  Sn  Sn6  1  0.78080093  0.46810848  0.95660825  1
  Sn  Sn7  1  0.57989583  0.61443347  0.25000000  1
  Sn  Sn8  1  0.21919907  0.53189152  0.04339175  1
  Sn  Sn9  1  0.42010417  0.38556653  0.75000000  1
  Sn  Sn10  1  0.16859639  0.63993220  0.75000000  1
  Sn  Sn11  1  0.92010417  0.11443347  0.75000000  1
  Sn  Sn12  1  0.28080093  0.03189152  0.54339175  1
  Sn  Sn13  1  0.71919907  0.96810848  0.04339175  1
  Sn  Sn14  1  0.33140361  0.13993220  0.25000000  1
  Sn  Sn15  1  0.07989583  0.88556653  0.25000000  1
loop_
_geom_bond_atom_site_label_1
_geom_bond_atom_site_label_2
_geom_bond_distance
_geom_bond_site_symmetry_2
Nd0 Sn1 3.264040 1_445
Nd0 Sn5 3.273619 1_455
Nd0 Sn12 3.362821 1_555
Nd0 Sn15 3.460873 1_545
Nd0 Sn14 3.490818 1_555
Nd0 Sn3 3.507600 1_555
Nd0 Sn0 3.945910 1_455
Nd1 Sn8 3.148799 1_555
Nd1 Sn4 3.164669 1_564
Nd1 Sn13 3.269098 1_555
Nd1 Sn7 3.289550 1_555
Nd1 Sn15 3.291644 1_555
Nd1 Sn14 3.328889 1_565
Nd2 Sn12 3.148799 1_555
Nd2 Sn3 3.164669 1_555
Nd2 Sn0 3.269098 1_455
Nd2 Sn11 3.289550 1_455
Nd2 Sn9 3.291644 1_555
Nd2 Sn10 3.328889 1_555
Nd3 Sn6 3.264040 1_555
Nd3 Sn2 3.273619 1_555
Nd3 Sn8 3.362821 1_556
Nd3 Sn9 3.460873 1_555
Nd3 Sn10 3.490818 1_555
Nd3 Sn4 3.507600 1_565
Nd3 Sn13 3.945910 1_556
Nd4 Sn13 3.148799 1_555
Nd4 Sn6 3.164669 1_554
Nd4 Sn8 3.269098 1_655
Nd4 Sn15 3.289550 1_655
Nd4 Sn7 3.291644 1_555
Nd4 Sn5 3.328889 1_555
Nd5 Sn4 3.148799 1_555
Nd5 Sn8 3.164669 1_556
Nd5 Sn6 3.269098 1_455
Nd5 Sn11 3.289550 1_455
Nd5 Sn9 3.291644 1_555
Nd5 Sn10 3.328889 1_555
Nd6 Sn14 3.236640 1_555
Nd6 Sn7 3.242837 1_555
Nd6 Sn8 3.311855 1_555
Nd6 Sn3 3.311855 1_555
Nd6 Sn5 3.368768 1_455
Nd6 Sn15 3.402156 1_555
Nd7 Sn5 3.236640 1_565
Nd7 Sn15 3.242837 1_655
Nd7 Sn1 3.311855 1_555
Nd7 Sn13 3.311855 1_555
Nd7 Sn14 3.368768 1_565
Nd7 Sn7 3.402156 1_555
Nd8 Sn0 3.264040 1_555
Nd8 Sn2 3.273619 1_555
Nd8 Sn3 3.362821 1_555
Nd8 Sn9 3.460873 1_555
Nd8 Sn10 3.490818 1_555
Nd8 Sn12 3.507600 1_565
Nd8 Sn1 3.945910 1_555
Nd9 Sn10 3.236640 1_545
Nd9 Sn11 3.242837 1_455
Nd9 Sn12 3.311855 1_555
Nd9 Sn4 3.311855 1_555
Nd9 Sn2 3.368768 1_545
Nd9 Sn9 3.402156 1_555
Nd10 Sn0 3.148799 1_555
Nd10 Sn1 3.164669 1_545
Nd10 Sn12 3.269098 1_555
Nd10 Sn9 3.289550 1_555
Nd10 Sn11 3.291644 1_555
Nd10 Sn2 3.328889 1_545
Nd11 Sn2 3.236640 1_555
Nd11 Sn9 3.242837 1_555
Nd11 Sn0 3.311855 1_555
Nd11 Sn6 3.311855 1_555
Nd11 Sn10 3.368768 1_655
Nd11 Sn11 3.402156 1_555
Nd12 Sn1 3.148799 1_555
Nd12 Sn0 3.164669 1_555
Nd12 Sn3 3.269098 1_655
Nd12 Sn15 3.289550 1_655
Nd12 Sn7 3.291644 1_555
Nd12 Sn5 3.328889 1_555
Nd13 Sn13 3.264040 1_445
Nd13 Sn5 3.273619 1_455
Nd13 Sn4 3.362821 1_554
Nd13 Sn15 3.460873 1_545
Nd13 Sn14 3.490818 1_555
Nd13 Sn8 3.507600 1_555
Nd13 Sn6 3.945910 1_454
Nd14 Sn4 3.264040 1_665
Nd14 Sn10 3.273619 1_655
Nd14 Sn13 3.362821 1_556
Nd14 Sn11 3.460873 1_565
Nd14 Sn2 3.490818 1_555
Nd14 Sn6 3.507600 1_555
Nd14 Sn8 3.945910 1_656
Nd15 Sn6 3.148799 1_555
Nd15 Sn13 3.164669 1_546
Nd15 Sn4 3.269098 1_555
Nd15 Sn9 3.289550 1_555
Nd15 Sn11 3.291644 1_555
Nd15 Sn2 3.328889 1_545
Nd16 Sn8 3.264040 1_555
Nd16 Sn14 3.273619 1_555
Nd16 Sn6 3.362821 1_554
Nd16 Sn7 3.460873 1_555
Nd16 Sn5 3.490818 1_555
Nd16 Sn13 3.507600 1_545
Nd16 Sn4 3.945910 1_554
Nd17 Sn3 3.148799 1_555
Nd17 Sn12 3.164669 1_565
Nd17 Sn1 3.269098 1_555
Nd17 Sn7 3.289550 1_555
Nd17 Sn15 3.291644 1_555
Nd17 Sn14 3.328889 1_565
Nd18 Sn12 3.264040 1_665
Nd18 Sn10 3.273619 1_655
Nd18 Sn1 3.362821 1_555
Nd18 Sn11 3.460873 1_565
Nd18 Sn2 3.490818 1_555
Nd18 Sn0 3.507600 1_555
Nd18 Sn3 3.945910 1_655
Nd19 Sn3 3.264040 1_555
Nd19 Sn14 3.273619 1_555
Nd19 Sn0 3.362821 1_555
Nd19 Sn7 3.460873 1_555
Nd19 Sn5 3.490818 1_555
Nd19 Sn1 3.507600 1_545
Nd19 Sn12 3.945910 1_555
Sn5 Sn7 3.003990 1_555
Sn10 Sn9 3.003990 1_555
Sn11 Sn2 3.003990 1_545
Sn14 Sn15 3.003990 1_545
