# generated using pymatgen
data_Na2CoP2O7
_symmetry_space_group_name_H-M   'P 1'
_cell_length_a   7.80324300
_cell_length_b   10.43801000
_cell_length_c   15.63692900
_cell_angle_alpha   90.00000000
_cell_angle_beta   90.00000000
_cell_angle_gamma   90.00000000
_symmetry_Int_Tables_number   1
_chemical_formula_structural   Na2CoP2O7
_chemical_formula_sum   'Na16 Co8 P16 O56'
_cell_volume   1273.63300326
_cell_formula_units_Z   8
loop_
 _symmetry_equiv_pos_site_id
 _symmetry_equiv_pos_as_xyz
  1  'x, y, z'
loop_
 _atom_site_type_symbol
 _atom_site_label
 _atom_site_symmetry_multiplicity
 _atom_site_fract_x
 _atom_site_fract_y
 _atom_site_fract_z
 _atom_site_occupancy
  Na  Na0  1  0.66666700  0.23707400  0.19610200  1
  Na  Na1  1  0.16666700  0.76292600  0.80389800  1
  Na  Na2  1  0.16666700  0.73707400  0.30389800  1
  Na  Na3  1  0.66666700  0.26292600  0.69610200  1
  Na  Na4  1  0.38405900  0.25022800  0.55158700  1
  Na  Na5  1  0.88405900  0.74977200  0.44841300  1
  Na  Na6  1  0.88405900  0.75022800  0.94841300  1
  Na  Na7  1  0.38405900  0.24977200  0.05158700  1
  Na  Na8  1  0.21776400  0.23404900  0.27366500  1
  Na  Na9  1  0.71776400  0.76595100  0.72633500  1
  Na  Na10  1  0.71776400  0.73404900  0.22633500  1
  Na  Na11  1  0.21776400  0.26595100  0.77366500  1
  Na  Na12  1  0.82766700  0.25340400  0.47497800  1
  Na  Na13  1  0.32766700  0.74659600  0.52502200  1
  Na  Na14  1  0.32766700  0.75340400  0.02502200  1
  Na  Na15  1  0.82766700  0.24659600  0.97497800  1
  Co  Co0  1  0.51095400  0.99548800  0.37083800  1
  Co  Co1  1  0.01095400  0.00451200  0.62916200  1
  Co  Co2  1  0.01095400  0.49548800  0.12916200  1
  Co  Co3  1  0.51095400  0.50451200  0.87083800  1
  Co  Co4  1  0.53679400  0.49714800  0.38056700  1
  Co  Co5  1  0.03679400  0.50285200  0.61943300  1
  Co  Co6  1  0.03679400  0.99714800  0.11943300  1
  Co  Co7  1  0.53679400  0.00285200  0.88056700  1
  P  P0  1  0.88714200  0.45022800  0.30939300  1
  P  P1  1  0.38714200  0.54977200  0.69060700  1
  P  P2  1  0.38714200  0.95022800  0.19060700  1
  P  P3  1  0.88714200  0.04977200  0.80939300  1
  P  P4  1  0.17254900  0.45452100  0.43839400  1
  P  P5  1  0.67254900  0.54547900  0.56160600  1
  P  P6  1  0.67254900  0.95452100  0.06160600  1
  P  P7  1  0.17254900  0.04547900  0.93839400  1
  P  P8  1  0.14753400  0.03373800  0.44724300  1
  P  P9  1  0.64753400  0.96626200  0.55275700  1
  P  P10  1  0.64753400  0.53373800  0.05275700  1
  P  P11  1  0.14753400  0.46626200  0.94724300  1
  P  P12  1  0.88621300  0.02345700  0.30434500  1
  P  P13  1  0.38621300  0.97654300  0.69565500  1
  P  P14  1  0.38621300  0.52345700  0.19565500  1
  P  P15  1  0.88621300  0.47654300  0.80434500  1
  O  O0  1  0.06078300  0.39843200  0.35748300  1
  O  O1  1  0.56078300  0.60156800  0.64251700  1
  O  O2  1  0.56078300  0.89843200  0.14251700  1
  O  O3  1  0.06078300  0.10156800  0.85748300  1
  O  O4  1  0.73757500  0.38488900  0.35729000  1
  O  O5  1  0.23757500  0.61511100  0.64271000  1
  O  O6  1  0.23757500  0.88488900  0.14271000  1
  O  O7  1  0.73757500  0.11511100  0.85729000  1
  O  O8  1  0.90645000  0.38866800  0.22024500  1
  O  O9  1  0.40645000  0.61133200  0.77975500  1
  O  O10  1  0.40645000  0.88866800  0.27975500  1
  O  O11  1  0.90645000  0.11133200  0.72024500  1
  O  O12  1  0.88191200  0.59529100  0.31200500  1
  O  O13  1  0.38191200  0.40470900  0.68799500  1
  O  O14  1  0.38191200  0.09529100  0.18799500  1
  O  O15  1  0.88191200  0.90470900  0.81200500  1
  O  O16  1  0.17478700  0.59961400  0.43501700  1
  O  O17  1  0.67478700  0.40038600  0.56498300  1
  O  O18  1  0.67478700  0.09961400  0.06498300  1
  O  O19  1  0.17478700  0.90038600  0.93501700  1
  O  O20  1  0.34713800  0.38911300  0.42298700  1
  O  O21  1  0.84713800  0.61088700  0.57701300  1
  O  O22  1  0.84713800  0.88911300  0.07701300  1
  O  O23  1  0.34713800  0.11088700  0.92298700  1
  O  O24  1  0.08777700  0.39487300  0.51820000  1
  O  O25  1  0.58777700  0.60512700  0.48180000  1
  O  O26  1  0.58777700  0.89487300  0.98180000  1
  O  O27  1  0.08777700  0.10512700  0.01820000  1
  O  O28  1  0.98510100  0.08188600  0.38868400  1
  O  O29  1  0.48510100  0.91811400  0.61131600  1
  O  O30  1  0.48510100  0.58188600  0.11131600  1
  O  O31  1  0.98510100  0.41811400  0.88868400  1
  O  O32  1  0.11024300  0.10214000  0.53282000  1
  O  O33  1  0.61024300  0.89786000  0.46718000  1
  O  O34  1  0.61024300  0.60214000  0.96718000  1
  O  O35  1  0.11024300  0.39786000  0.03282000  1
  O  O36  1  0.14818900  0.88865000  0.45203100  1
  O  O37  1  0.64818900  0.11135000  0.54796900  1
  O  O38  1  0.64818900  0.38865000  0.04796900  1
  O  O39  1  0.14818900  0.61135000  0.95203100  1
  O  O40  1  0.30637100  0.09560100  0.40536300  1
  O  O41  1  0.80637100  0.90439900  0.59463700  1
  O  O42  1  0.80637100  0.59560100  0.09463700  1
  O  O43  1  0.30637100  0.40439900  0.90536300  1
  O  O44  1  0.70617100  0.08233300  0.31396900  1
  O  O45  1  0.20617100  0.91766700  0.68603100  1
  O  O46  1  0.20617100  0.58233300  0.18603100  1
  O  O47  1  0.70617100  0.41766700  0.81396900  1
  O  O48  1  0.97799700  0.08688000  0.22771400  1
  O  O49  1  0.47799700  0.91312000  0.77228600  1
  O  O50  1  0.47799700  0.58688000  0.27228600  1
  O  O51  1  0.97799700  0.41312000  0.72771400  1
  O  O52  1  0.89426200  0.87829200  0.30599900  1
  O  O53  1  0.39426200  0.12170800  0.69400100  1
  O  O54  1  0.39426200  0.37829200  0.19400100  1
  O  O55  1  0.89426200  0.62170800  0.80599900  1
loop_
_geom_bond_atom_site_label_1
_geom_bond_atom_site_label_2
_geom_bond_distance
_geom_bond_site_symmetry_2
Na0 O44 2.469978 1_555
Na0 O8 2.479371 1_555
Na0 O18 2.503281 1_555
Na0 O54 2.586931 1_555
Na0 O14 2.672753 1_555
Na0 O38 2.808816 1_555
Na0 O48 2.933261 1_555
Na0 O4 3.006580 1_555
Na1 O45 2.469978 1_555
Na1 O9 2.479371 1_555
Na1 O19 2.503281 1_555
Na1 O55 2.586931 1_455
Na1 O15 2.672753 1_455
Na1 O39 2.808816 1_555
Na1 O49 2.933261 1_555
Na1 O5 3.006580 1_555
Na2 O46 2.469978 1_555
Na2 O10 2.479371 1_555
Na2 O16 2.503281 1_555
Na2 O52 2.586931 1_455
Na2 O12 2.672753 1_455
Na2 O36 2.808816 1_555
Na2 O50 2.933261 1_555
Na2 O6 3.006580 1_555
Na3 O47 2.469978 1_555
Na3 O11 2.479371 1_555
Na3 O17 2.503281 1_555
Na3 O53 2.586931 1_555
Na3 O13 2.672753 1_555
Na3 O37 2.808816 1_555
Na3 O51 2.933261 1_555
Na3 O7 3.006580 1_555
Na4 O20 2.495664 1_555
Na4 O37 2.520433 1_555
Na4 O53 2.600981 1_555
Na4 O32 2.653437 1_555
Na4 O13 2.673958 1_555
Na4 O17 2.765341 1_555
Na4 O24 2.810201 1_555
Na4 O40 2.863660 1_555
Na5 O21 2.495664 1_555
Na5 O36 2.520433 1_655
Na5 O52 2.600981 1_555
Na5 O33 2.653437 1_555
Na5 O12 2.673958 1_555
Na5 O16 2.765341 1_655
Na5 O25 2.810201 1_555
Na5 O41 2.863660 1_555
Na6 O22 2.495664 1_556
Na6 O39 2.520433 1_655
Na6 O55 2.600981 1_555
Na6 O34 2.653437 1_555
Na6 O15 2.673958 1_555
Na6 O19 2.765341 1_655
Na6 O26 2.810201 1_555
Na6 O42 2.863660 1_556
Na7 O23 2.495664 1_554
Na7 O38 2.520433 1_555
Na7 O54 2.600981 1_555
Na7 O35 2.653437 1_555
Na7 O14 2.673958 1_555
Na7 O18 2.765341 1_555
Na7 O27 2.810201 1_555
Na7 O43 2.863660 1_554
Na8 O14 2.352229 1_555
Na8 O54 2.390704 1_555
Na8 O0 2.482423 1_555
Na8 O48 2.525182 1_455
Na8 O40 2.609094 1_555
Na9 O15 2.352229 1_555
Na9 O55 2.390704 1_555
Na9 O1 2.482423 1_555
Na9 O49 2.525182 1_555
Na9 O41 2.609094 1_555
Na10 O12 2.352229 1_555
Na10 O52 2.390704 1_555
Na10 O2 2.482423 1_555
Na10 O50 2.525182 1_555
Na10 O42 2.609094 1_555
Na11 O13 2.352229 1_555
Na11 O53 2.390704 1_555
Na11 O3 2.482423 1_555
Na11 O51 2.525182 1_455
Na11 O43 2.609094 1_555
Na12 O37 2.337242 1_555
Na12 O17 2.399521 1_555
Na12 O4 2.400926 1_555
Na12 O28 2.556405 1_555
Na12 O24 2.599420 1_655
Na12 O32 2.858854 1_655
Na13 O36 2.337242 1_555
Na13 O16 2.399521 1_555
Na13 O5 2.400926 1_555
Na13 O29 2.556405 1_555
Na13 O25 2.599420 1_555
Na13 O33 2.858854 1_555
Na14 O39 2.337242 1_554
Na14 O19 2.399521 1_554
Na14 O6 2.400926 1_555
Na14 O30 2.556405 1_555
Na14 O26 2.599420 1_554
Na14 O34 2.858854 1_554
Na15 O38 2.337242 1_556
Na15 O18 2.399521 1_556
Na15 O7 2.400926 1_555
Na15 O31 2.556405 1_555
Na15 O27 2.599420 1_656
Na15 O35 2.858854 1_656
Co0 O33 1.976928 1_555
Co0 O40 1.982919 1_565
Co0 O44 1.983184 1_565
Co0 O10 1.984112 1_555
Co1 O32 1.976928 1_555
Co1 O41 1.982919 1_445
Co1 O45 1.983184 1_545
Co1 O11 1.984112 1_455
Co2 O35 1.976928 1_555
Co2 O42 1.982919 1_455
Co2 O46 1.983184 1_555
Co2 O8 1.984112 1_455
Co3 O34 1.976928 1_555
Co3 O43 1.982919 1_555
Co3 O47 1.983184 1_555
Co3 O9 1.984112 1_555
Co4 O20 1.975305 1_555
Co4 O25 1.983532 1_555
Co4 O50 1.988626 1_555
Co4 O4 1.990022 1_555
Co5 O21 1.975305 1_455
Co5 O24 1.983532 1_555
Co5 O51 1.988626 1_455
Co5 O5 1.990022 1_555
Co6 O22 1.975305 1_455
Co6 O27 1.983532 1_565
Co6 O48 1.988626 1_465
Co6 O6 1.990022 1_555
Co7 O23 1.975305 1_555
Co7 O26 1.983532 1_545
Co7 O49 1.988626 1_545
Co7 O7 1.990022 1_555
O0 P0 1.641249 1_455
O0 P4 1.644419 1_555
O1 P1 1.641249 1_555
O1 P5 1.644419 1_555
O2 P2 1.641249 1_555
O2 P6 1.644419 1_555
O3 P3 1.641249 1_455
O3 P7 1.644419 1_555
O4 P0 1.545387 1_555
O5 P1 1.545387 1_555
O6 P2 1.545387 1_555
O7 P3 1.545387 1_555
O8 P0 1.542345 1_555
O9 P1 1.542345 1_555
O10 P2 1.542345 1_555
O11 P3 1.542345 1_555
O12 P0 1.515269 1_555
O13 P1 1.515269 1_555
O14 P2 1.515269 1_545
O15 P3 1.515269 1_565
O16 P4 1.515503 1_555
O17 P5 1.515503 1_555
O18 P6 1.515503 1_545
O19 P7 1.515503 1_565
O20 P4 1.542785 1_555
O21 P5 1.542785 1_555
O22 P6 1.542785 1_555
O23 P7 1.542785 1_555
O24 P4 1.543542 1_555
O25 P5 1.543542 1_555
O26 P6 1.543542 1_556
O27 P7 1.543542 1_554
O28 P8 1.642443 1_655
O28 P12 1.645186 1_555
O29 P9 1.642443 1_555
O29 P13 1.645186 1_555
O30 P10 1.642443 1_555
O30 P14 1.645186 1_555
O31 P11 1.642443 1_655
O31 P15 1.645186 1_555
O32 P8 1.544383 1_555
O33 P9 1.544383 1_555
O34 P10 1.544383 1_556
O35 P11 1.544383 1_554
O36 P8 1.516288 1_565
O37 P9 1.516288 1_545
O38 P10 1.516288 1_555
O39 P11 1.516288 1_555
O40 P8 1.543387 1_555
O41 P9 1.543387 1_555
O42 P10 1.543387 1_555
O43 P11 1.543387 1_555
O44 P12 1.540809 1_555
O45 P13 1.540809 1_555
O46 P14 1.540809 1_555
O47 P15 1.540809 1_555
O48 P12 1.545017 1_555
O49 P13 1.545017 1_555
O50 P14 1.545017 1_555
O51 P15 1.545017 1_555
O52 P12 1.516755 1_565
O53 P13 1.516755 1_545
O54 P14 1.516755 1_555
O55 P15 1.516755 1_555
