# generated using pymatgen
data_SiO2
_symmetry_space_group_name_H-M   'P 1'
_cell_length_a   7.37883175
_cell_length_b   11.39858636
_cell_length_c   11.56562522
_cell_angle_alpha   104.67317171
_cell_angle_beta   94.34907045
_cell_angle_gamma   96.21593319
_symmetry_Int_Tables_number   1
_chemical_formula_structural   SiO2
_chemical_formula_sum   'Si16 O32'
_cell_volume   930.09850844
_cell_formula_units_Z   16
loop_
 _symmetry_equiv_pos_site_id
 _symmetry_equiv_pos_as_xyz
  1  'x, y, z'
loop_
 _atom_site_type_symbol
 _atom_site_label
 _atom_site_symmetry_multiplicity
 _atom_site_fract_x
 _atom_site_fract_y
 _atom_site_fract_z
 _atom_site_occupancy
  Si  Si0  1  0.70217015  0.44177118  0.12156477  1
  Si  Si1  1  0.59271566  0.85678939  0.35558531  1
  Si  Si2  1  0.43469169  0.63938174  0.14213291  1
  Si  Si3  1  0.95909837  0.76340276  0.42944880  1
  Si  Si4  1  0.40728434  0.14321061  0.64441469  1
  Si  Si5  1  0.66635000  0.13454230  0.44250660  1
  Si  Si6  1  0.21996008  0.41005534  0.42928448  1
  Si  Si7  1  0.56530831  0.36061826  0.85786709  1
  Si  Si8  1  0.38466698  0.63849850  0.64503425  1
  Si  Si9  1  0.29782985  0.55822882  0.87843523  1
  Si  Si10  1  0.04090163  0.23659724  0.57055120  1
  Si  Si11  1  0.92009990  0.46198378  0.75758795  1
  Si  Si12  1  0.61533302  0.36150150  0.35496575  1
  Si  Si13  1  0.07990010  0.53801622  0.24241205  1
  Si  Si14  1  0.33365000  0.86545770  0.55749340  1
  Si  Si15  1  0.78003992  0.58994466  0.57071552  1
  O  O0  1  0.49309189  0.77575149  0.22716728  1
  O  O1  1  0.40219845  0.00100687  0.64232156  1
  O  O2  1  0.13276286  0.86505682  0.49043472  1
  O  O3  1  0.86723714  0.13494318  0.50956528  1
  O  O4  1  0.36698141  0.64892626  0.00934805  1
  O  O5  1  0.20154097  0.17356181  0.62241522  1
  O  O6  1  0.09663960  0.44372561  0.32456155  1
  O  O7  1  0.61080328  0.56674604  0.13835627  1
  O  O8  1  0.90336040  0.55627439  0.67543845  1
  O  O9  1  0.89040331  0.69957703  0.53055355  1
  O  O10  1  0.10959669  0.30042297  0.46944645  1
  O  O11  1  0.35496820  0.62455047  0.77702722  1
  O  O12  1  0.73669127  0.47160869  0.45645366  1
  O  O13  1  0.59780155  0.99899313  0.35767844  1
  O  O14  1  0.63301859  0.35107374  0.99065195  1
  O  O15  1  0.32507384  0.76825755  0.63707607  1
  O  O16  1  0.26330873  0.52839131  0.54354634  1
  O  O17  1  0.40384761  0.36571826  0.37754465  1
  O  O18  1  0.50690811  0.22424851  0.77283272  1
  O  O19  1  0.27320812  0.56537387  0.19251369  1
  O  O20  1  0.02304474  0.66420176  0.31997962  1
  O  O21  1  0.59615239  0.63428174  0.62245535  1
  O  O22  1  0.79845903  0.82643819  0.37758478  1
  O  O23  1  0.47669715  0.82637829  0.45987736  1
  O  O24  1  0.92226954  0.47591718  0.13296083  1
  O  O25  1  0.38919672  0.43325396  0.86164373  1
  O  O26  1  0.97695526  0.33579824  0.68002038  1
  O  O27  1  0.64503180  0.37544953  0.22297278  1
  O  O28  1  0.07773046  0.52408282  0.86703917  1
  O  O29  1  0.67492616  0.23174245  0.36292393  1
  O  O30  1  0.72679188  0.43462613  0.80748631  1
  O  O31  1  0.52330285  0.17362171  0.54012264  1
loop_
_geom_bond_atom_site_label_1
_geom_bond_atom_site_label_2
_geom_bond_distance
_geom_bond_site_symmetry_2
O0 Si2 1.607901 1_555
O0 Si1 1.609934 1_555
O1 Si14 1.610333 1_545
O1 Si4 1.611270 1_555
O2 Si3 1.615408 1_455
O2 Si14 1.619001 1_555
O3 Si10 1.615408 1_655
O3 Si5 1.619001 1_555
O4 Si9 1.611587 1_554
O4 Si2 1.612451 1_555
O5 Si10 1.604999 1_555
O5 Si4 1.609019 1_555
O6 Si6 1.608187 1_555
O6 Si13 1.612885 1_555
O7 Si2 1.612257 1_555
O7 Si0 1.615307 1_555
O8 Si15 1.608187 1_555
O8 Si11 1.612885 1_555
O9 Si15 1.603629 1_555
O9 Si3 1.610777 1_555
O10 Si6 1.603629 1_555
O10 Si10 1.610777 1_555
O11 Si8 1.603091 1_555
O11 Si9 1.606232 1_555
O12 Si12 1.614220 1_555
O12 Si15 1.614788 1_555
O13 Si5 1.610333 1_565
O13 Si1 1.611270 1_555
O14 Si0 1.611587 1_556
O14 Si7 1.612451 1_555
O15 Si14 1.609038 1_555
O15 Si8 1.610326 1_555
O16 Si8 1.614220 1_555
O16 Si6 1.614788 1_555
O17 Si6 1.604070 1_555
O17 Si12 1.605429 1_555
O18 Si7 1.607901 1_555
O18 Si4 1.609934 1_555
O19 Si13 1.607660 1_555
O19 Si2 1.614814 1_555
O20 Si13 1.607383 1_555
O20 Si3 1.607815 1_455
O21 Si15 1.604070 1_555
O21 Si8 1.605429 1_555
O22 Si3 1.604999 1_555
O22 Si1 1.609019 1_555
O23 Si1 1.616210 1_555
O23 Si14 1.617079 1_555
O24 Si13 1.612700 1_655
O24 Si0 1.615904 1_555
O25 Si7 1.612257 1_555
O25 Si9 1.615307 1_555
O26 Si11 1.607383 1_555
O26 Si10 1.607815 1_655
O27 Si12 1.603091 1_555
O27 Si0 1.606232 1_555
O28 Si11 1.612700 1_455
O28 Si9 1.615904 1_555
O29 Si5 1.609038 1_555
O29 Si12 1.610326 1_555
O30 Si11 1.607660 1_555
O30 Si7 1.614814 1_555
O31 Si4 1.616210 1_555
O31 Si5 1.617079 1_555
