# generated using pymatgen
data_Cs2Sn2O3
_symmetry_space_group_name_H-M   'P 1'
_cell_length_a   6.13044384
_cell_length_b   8.98808637
_cell_length_c   13.93983580
_cell_angle_alpha   90.00000000
_cell_angle_beta   90.00000000
_cell_angle_gamma   90.00000000
_symmetry_Int_Tables_number   1
_chemical_formula_structural   Cs2Sn2O3
_chemical_formula_sum   'Cs8 Sn8 O12'
_cell_volume   768.09831698
_cell_formula_units_Z   4
loop_
 _symmetry_equiv_pos_site_id
 _symmetry_equiv_pos_as_xyz
  1  'x, y, z'
loop_
 _atom_site_type_symbol
 _atom_site_label
 _atom_site_symmetry_multiplicity
 _atom_site_fract_x
 _atom_site_fract_y
 _atom_site_fract_z
 _atom_site_occupancy
  Cs  Cs0  1  0.25000000  0.53536073  0.36764627  1
  Cs  Cs1  1  0.75000000  0.46463927  0.63235373  1
  Cs  Cs2  1  0.75000000  0.03536073  0.13235373  1
  Cs  Cs3  1  0.25000000  0.96463927  0.86764627  1
  Cs  Cs4  1  0.25000000  0.33631009  0.09569502  1
  Cs  Cs5  1  0.75000000  0.66368991  0.90430498  1
  Cs  Cs6  1  0.75000000  0.83631009  0.40430498  1
  Cs  Cs7  1  0.25000000  0.16368991  0.59569502  1
  Sn  Sn0  1  0.25000000  0.78462607  0.13539982  1
  Sn  Sn1  1  0.75000000  0.21537393  0.86460018  1
  Sn  Sn2  1  0.75000000  0.28462607  0.36460018  1
  Sn  Sn3  1  0.25000000  0.71537393  0.63539982  1
  Sn  Sn4  1  0.25000000  0.08536202  0.30358199  1
  Sn  Sn5  1  0.75000000  0.91463798  0.69641801  1
  Sn  Sn6  1  0.75000000  0.58536202  0.19641801  1
  Sn  Sn7  1  0.25000000  0.41463798  0.80358199  1
  O  O0  1  0.00229538  0.23490608  0.27267406  1
  O  O1  1  0.50229538  0.76509392  0.72732594  1
  O  O2  1  0.99770462  0.73490608  0.22732594  1
  O  O3  1  0.49770462  0.26509392  0.77267406  1
  O  O4  1  0.99770462  0.76509392  0.72732594  1
  O  O5  1  0.49770462  0.23490608  0.27267406  1
  O  O6  1  0.00229538  0.26509392  0.77267406  1
  O  O7  1  0.50229538  0.73490608  0.22732594  1
  O  O8  1  0.25000000  0.00874275  0.16356472  1
  O  O9  1  0.75000000  0.99125725  0.83643528  1
  O  O10  1  0.75000000  0.50874275  0.33643528  1
  O  O11  1  0.25000000  0.49125725  0.66356472  1
loop_
_geom_bond_atom_site_label_1
_geom_bond_atom_site_label_2
_geom_bond_distance
_geom_bond_site_symmetry_2
Cs0 O7 3.071658 1_555
Cs0 O2 3.071658 1_455
Cs0 O10 3.105175 1_455
Cs0 O10 3.105175 1_555
Cs0 O0 3.369189 1_555
Cs0 O5 3.369189 1_555
Cs1 O3 3.071658 1_555
Cs1 O6 3.071658 1_655
Cs1 O11 3.105175 1_655
Cs1 O11 3.105175 1_555
Cs1 O4 3.369189 1_555
Cs1 O1 3.369189 1_555
Cs2 O0 3.071658 1_655
Cs2 O5 3.071658 1_555
Cs2 O8 3.105175 1_555
Cs2 O8 3.105175 1_655
Cs2 O7 3.369189 1_545
Cs2 O2 3.369189 1_545
Cs3 O1 3.071658 1_555
Cs3 O4 3.071658 1_455
Cs3 O9 3.105175 1_555
Cs3 O9 3.105175 1_455
Cs3 O6 3.369189 1_565
Cs3 O3 3.369189 1_565
Cs4 O5 3.036946 1_555
Cs4 O0 3.036946 1_555
Cs4 O8 3.092479 1_555
Cs5 O4 3.036946 1_555
Cs5 O1 3.036946 1_555
Cs5 O9 3.092479 1_555
Cs6 O7 3.036946 1_555
Cs6 O2 3.036946 1_555
Cs6 O10 3.092479 1_555
Cs7 O6 3.036946 1_555
Cs7 O3 3.036946 1_555
Cs7 O11 3.092479 1_555
O0 Sn2 2.057671 1_455
O0 Sn4 2.073220 1_555
O1 Sn3 2.057671 1_555
O1 Sn5 2.073220 1_555
O2 Sn0 2.057671 1_655
O2 Sn6 2.073220 1_555
O3 Sn1 2.057671 1_555
O3 Sn7 2.073220 1_555
O4 Sn3 2.057671 1_655
O4 Sn5 2.073220 1_555
O5 Sn2 2.057671 1_555
O5 Sn4 2.073220 1_555
O6 Sn1 2.057671 1_455
O6 Sn7 2.073220 1_555
O7 Sn0 2.057671 1_555
O7 Sn6 2.073220 1_555
O8 Sn0 2.052285 1_545
O8 Sn4 2.069745 1_555
O9 Sn1 2.052285 1_565
O9 Sn5 2.069745 1_555
O10 Sn2 2.052285 1_555
O10 Sn6 2.069745 1_555
O11 Sn3 2.052285 1_555
O11 Sn7 2.069745 1_555
