# generated using pymatgen
data_Cs3Mo15Se17
_symmetry_space_group_name_H-M   'P 1'
_cell_length_a   9.84690399
_cell_length_b   9.84690399
_cell_length_c   21.11587800
_cell_angle_alpha   90.00000000
_cell_angle_beta   90.00000000
_cell_angle_gamma   119.99999993
_symmetry_Int_Tables_number   1
_chemical_formula_structural   Cs3Mo15Se17
_chemical_formula_sum   'Cs6 Mo30 Se34'
_cell_volume   1773.12430525
_cell_formula_units_Z   2
loop_
 _symmetry_equiv_pos_site_id
 _symmetry_equiv_pos_as_xyz
  1  'x, y, z'
loop_
 _atom_site_type_symbol
 _atom_site_label
 _atom_site_symmetry_multiplicity
 _atom_site_fract_x
 _atom_site_fract_y
 _atom_site_fract_z
 _atom_site_occupancy
  Cs  Cs0  1  0.00000000  0.00000000  0.13759100  1
  Cs  Cs1  1  0.00000000  0.00000000  0.63759100  1
  Cs  Cs2  1  0.00000000  0.00000000  0.36240900  1
  Cs  Cs3  1  0.00000000  0.00000000  0.86240900  1
  Cs  Cs4  1  0.66666700  0.33333300  0.75000000  1
  Cs  Cs5  1  0.33333300  0.66666700  0.25000000  1
  Mo  Mo0  1  0.64469800  0.16664400  0.03415900  1
  Mo  Mo1  1  0.35530200  0.83335600  0.53415900  1
  Mo  Mo2  1  0.64704200  0.16804500  0.25000000  1
  Mo  Mo3  1  0.50095200  0.18545800  0.35733600  1
  Mo  Mo4  1  0.47805400  0.64469800  0.53415900  1
  Mo  Mo5  1  0.35295800  0.83195500  0.75000000  1
  Mo  Mo6  1  0.47899700  0.64704200  0.75000000  1
  Mo  Mo7  1  0.16664400  0.52194600  0.53415900  1
  Mo  Mo8  1  0.50095200  0.18545800  0.14266400  1
  Mo  Mo9  1  0.68450600  0.49904800  0.35733600  1
  Mo  Mo10  1  0.52194600  0.35530200  0.03415900  1
  Mo  Mo11  1  0.31549400  0.50095200  0.64266400  1
  Mo  Mo12  1  0.18545800  0.68450600  0.85733600  1
  Mo  Mo13  1  0.49904800  0.81454200  0.64266400  1
  Mo  Mo14  1  0.68450600  0.49904800  0.14266400  1
  Mo  Mo15  1  0.16804500  0.52100300  0.75000000  1
  Mo  Mo16  1  0.49904800  0.81454200  0.85733600  1
  Mo  Mo17  1  0.18545800  0.68450600  0.64266400  1
  Mo  Mo18  1  0.31549400  0.50095200  0.85733600  1
  Mo  Mo19  1  0.81454200  0.31549400  0.35733600  1
  Mo  Mo20  1  0.16664400  0.52194600  0.96584100  1
  Mo  Mo21  1  0.83335600  0.47805400  0.03415900  1
  Mo  Mo22  1  0.52194600  0.35530200  0.46584100  1
  Mo  Mo23  1  0.52100300  0.35295800  0.25000000  1
  Mo  Mo24  1  0.64469800  0.16664400  0.46584100  1
  Mo  Mo25  1  0.83335600  0.47805400  0.46584100  1
  Mo  Mo26  1  0.47805400  0.64469800  0.96584100  1
  Mo  Mo27  1  0.35530200  0.83335600  0.96584100  1
  Mo  Mo28  1  0.81454200  0.31549400  0.14266400  1
  Mo  Mo29  1  0.83195500  0.47899700  0.25000000  1
  Se  Se0  1  0.98965400  0.61907300  0.14176400  1
  Se  Se1  1  0.38092700  0.37058100  0.14176400  1
  Se  Se2  1  0.65820200  0.95341900  0.54179600  1
  Se  Se3  1  0.29270800  0.33906900  0.75000000  1
  Se  Se4  1  0.95341900  0.29521700  0.45820400  1
  Se  Se5  1  0.37058100  0.98965400  0.64176400  1
  Se  Se6  1  0.38092700  0.37058100  0.35823600  1
  Se  Se7  1  0.04658100  0.70478300  0.95820400  1
  Se  Se8  1  0.04658100  0.70478300  0.54179600  1
  Se  Se9  1  0.01034600  0.38092700  0.85823600  1
  Se  Se10  1  0.70729200  0.66093100  0.25000000  1
  Se  Se11  1  0.34179800  0.04658100  0.04179600  1
  Se  Se12  1  0.33333300  0.66666700  0.06183100  1
  Se  Se13  1  0.95363900  0.29270800  0.25000000  1
  Se  Se14  1  0.33333300  0.66666700  0.43816900  1
  Se  Se15  1  0.61907300  0.62941900  0.85823600  1
  Se  Se16  1  0.29521700  0.34179800  0.54179600  1
  Se  Se17  1  0.62941900  0.01034600  0.35823600  1
  Se  Se18  1  0.70478300  0.65820200  0.45820400  1
  Se  Se19  1  0.04636100  0.70729200  0.75000000  1
  Se  Se20  1  0.01034600  0.38092700  0.64176400  1
  Se  Se21  1  0.33906900  0.04636100  0.25000000  1
  Se  Se22  1  0.62941900  0.01034600  0.14176400  1
  Se  Se23  1  0.70478300  0.65820200  0.04179600  1
  Se  Se24  1  0.37058100  0.98965400  0.85823600  1
  Se  Se25  1  0.66093100  0.95363900  0.75000000  1
  Se  Se26  1  0.34179800  0.04658100  0.45820400  1
  Se  Se27  1  0.98965400  0.61907300  0.35823600  1
  Se  Se28  1  0.65820200  0.95341900  0.95820400  1
  Se  Se29  1  0.66666700  0.33333300  0.56183100  1
  Se  Se30  1  0.66666700  0.33333300  0.93816900  1
  Se  Se31  1  0.29521700  0.34179800  0.95820400  1
  Se  Se32  1  0.95341900  0.29521700  0.04179600  1
  Se  Se33  1  0.61907300  0.62941900  0.64176400  1
loop_
_geom_bond_atom_site_label_1
_geom_bond_atom_site_label_2
_geom_bond_distance
_geom_bond_site_symmetry_2
Cs0 Se22 3.702114 1_455
Cs0 Se0 3.702114 1_445
Cs0 Se1 3.702114 1_555
Cs0 Se32 3.753125 1_455
Cs0 Se11 3.753125 1_555
Cs0 Se23 3.753125 1_445
Cs0 Se13 3.932646 1_455
Cs0 Se21 3.932646 1_555
Cs0 Se10 3.932646 1_445
Cs1 Se5 3.702114 1_545
Cs1 Se20 3.702114 1_555
Cs1 Se33 3.702114 1_445
Cs1 Se8 3.753125 1_545
Cs1 Se2 3.753125 1_445
Cs1 Se16 3.753125 1_555
Cs1 Se19 3.932646 1_545
Cs1 Se25 3.932646 1_445
Cs1 Se3 3.932646 1_555
Cs2 Se17 3.702114 1_455
Cs2 Se27 3.702114 1_445
Cs2 Se6 3.702114 1_555
Cs2 Se4 3.753125 1_455
Cs2 Se26 3.753125 1_555
Cs2 Se18 3.753125 1_445
Cs2 Se13 3.932646 1_455
Cs2 Se21 3.932646 1_555
Cs2 Se10 3.932646 1_445
Cs3 Se24 3.702114 1_545
Cs3 Se9 3.702114 1_555
Cs3 Se15 3.702114 1_445
Cs3 Se7 3.753125 1_545
Cs3 Se28 3.753125 1_445
Cs3 Se31 3.753125 1_555
Cs3 Se19 3.932646 1_545
Cs3 Se25 3.932646 1_445
Cs3 Se3 3.932646 1_555
Cs4 Se25 3.710892 1_545
Cs4 Se19 3.710897 1_655
Cs4 Se3 3.710902 1_555
Cs4 Se9 3.912770 1_655
Cs4 Se20 3.912770 1_655
Cs4 Se5 3.912773 1_545
Cs4 Se24 3.912773 1_545
Cs4 Se33 3.912778 1_555
Cs4 Se15 3.912778 1_555
Cs4 Se30 3.973354 1_555
Cs4 Se29 3.973354 1_555
Cs5 Se21 3.710892 1_565
Cs5 Se13 3.710897 1_455
Cs5 Se10 3.710902 1_555
Cs5 Se0 3.912770 1_455
Cs5 Se27 3.912770 1_455
Cs5 Se22 3.912773 1_565
Cs5 Se17 3.912773 1_565
Cs5 Se1 3.912778 1_555
Cs5 Se6 3.912778 1_555
Cs5 Se14 3.973354 1_555
Cs5 Se12 3.973354 1_555
Mo0 Se30 2.548372 1_554
Mo0 Se11 2.606449 1_555
Mo0 Se32 2.649800 1_555
Mo0 Se28 2.697698 1_544
Mo0 Se22 2.706019 1_555
Mo1 Se14 2.548372 1_555
Mo1 Se2 2.606449 1_555
Mo1 Se8 2.649800 1_555
Mo1 Se26 2.697698 1_565
Mo1 Se5 2.706019 1_555
Mo2 Se13 2.629719 1_555
Mo2 Se21 2.645484 1_555
Mo2 Se22 2.719463 1_555
Mo2 Se17 2.719463 1_555
Mo3 Se26 2.592206 1_555
Mo3 Se17 2.599057 1_555
Mo3 Se6 2.621934 1_555
Mo3 Se21 2.714896 1_555
Mo4 Se14 2.548378 1_555
Mo4 Se16 2.606449 1_555
Mo4 Se2 2.649800 1_555
Mo4 Se18 2.697698 1_555
Mo4 Se33 2.706019 1_555
Mo5 Se19 2.629719 1_555
Mo5 Se25 2.645484 1_555
Mo5 Se5 2.719463 1_555
Mo5 Se24 2.719463 1_555
Mo6 Se25 2.629719 1_555
Mo6 Se3 2.645484 1_555
Mo6 Se33 2.719463 1_555
Mo6 Se15 2.719463 1_555
Mo7 Se14 2.548374 1_555
Mo7 Se8 2.606449 1_555
Mo7 Se16 2.649800 1_555
Mo7 Se4 2.697698 1_455
Mo7 Se20 2.706019 1_555
Mo8 Se11 2.592206 1_555
Mo8 Se22 2.599057 1_555
Mo8 Se1 2.621934 1_555
Mo8 Se21 2.714896 1_555
Mo9 Se18 2.592206 1_555
Mo9 Se6 2.599057 1_555
Mo9 Se27 2.621934 1_555
Mo9 Se10 2.714896 1_555
Mo10 Se30 2.548378 1_554
Mo10 Se23 2.606449 1_555
Mo10 Se11 2.649800 1_555
Mo10 Se31 2.697698 1_554
Mo10 Se1 2.706019 1_555
Mo11 Se16 2.592206 1_555
Mo11 Se33 2.599057 1_555
Mo11 Se20 2.621934 1_555
Mo11 Se3 2.714896 1_555
Mo12 Se7 2.592206 1_555
Mo12 Se9 2.599057 1_555
Mo12 Se24 2.621934 1_555
Mo12 Se19 2.714896 1_555
Mo13 Se2 2.592206 1_555
Mo13 Se5 2.599057 1_555
Mo13 Se33 2.621934 1_555
Mo13 Se25 2.714896 1_555
Mo14 Se23 2.592206 1_555
Mo14 Se1 2.599057 1_555
Mo14 Se0 2.621934 1_555
Mo14 Se10 2.714896 1_555
Mo15 Se3 2.629719 1_555
Mo15 Se19 2.645484 1_555
Mo15 Se20 2.719463 1_555
Mo15 Se9 2.719463 1_555
Mo16 Se28 2.592206 1_555
Mo16 Se24 2.599057 1_555
Mo16 Se15 2.621934 1_555
Mo16 Se25 2.714896 1_555
Mo17 Se8 2.592206 1_555
Mo17 Se20 2.599057 1_555
Mo17 Se5 2.621934 1_555
Mo17 Se19 2.714896 1_555
Mo18 Se31 2.592206 1_555
Mo18 Se15 2.599057 1_555
Mo18 Se9 2.621934 1_555
Mo18 Se3 2.714896 1_555
Mo19 Se4 2.592206 1_555
Mo19 Se27 2.599057 1_555
Mo19 Se17 2.621934 1_555
Mo19 Se13 2.714896 1_555
Mo20 Se12 2.548374 1_556
Mo20 Se7 2.606449 1_555
Mo20 Se31 2.649800 1_555
Mo20 Se32 2.697698 1_456
Mo20 Se9 2.706019 1_555
Mo21 Se30 2.548374 1_554
Mo21 Se32 2.606449 1_555
Mo21 Se23 2.649800 1_555
Mo21 Se7 2.697698 1_654
Mo21 Se0 2.706019 1_555
Mo22 Se29 2.548378 1_555
Mo22 Se18 2.606449 1_555
Mo22 Se26 2.649800 1_555
Mo22 Se16 2.697698 1_555
Mo22 Se6 2.706019 1_555
Mo23 Se21 2.629719 1_555
Mo23 Se10 2.645484 1_555
Mo23 Se1 2.719463 1_555
Mo23 Se6 2.719463 1_555
Mo24 Se29 2.548372 1_555
Mo24 Se26 2.606449 1_555
Mo24 Se4 2.649800 1_555
Mo24 Se2 2.697698 1_545
Mo24 Se17 2.706019 1_555
Mo25 Se29 2.548374 1_555
Mo25 Se4 2.606449 1_555
Mo25 Se18 2.649800 1_555
Mo25 Se8 2.697698 1_655
Mo25 Se27 2.706019 1_555
Mo26 Se12 2.548378 1_556
Mo26 Se31 2.606449 1_555
Mo26 Se28 2.649800 1_555
Mo26 Se23 2.697698 1_556
Mo26 Se15 2.706019 1_555
Mo27 Se12 2.548372 1_556
Mo27 Se28 2.606449 1_555
Mo27 Se7 2.649800 1_555
Mo27 Se11 2.697698 1_566
Mo27 Se24 2.706019 1_555
Mo28 Se32 2.592206 1_555
Mo28 Se0 2.599057 1_555
Mo28 Se22 2.621934 1_555
Mo28 Se13 2.714896 1_555
Mo29 Se10 2.629719 1_555
Mo29 Se13 2.645484 1_555
Mo29 Se0 2.719463 1_555
Mo29 Se27 2.719463 1_555
