# generated using pymatgen
data_Ba3Li2V2Cl4O7
_symmetry_space_group_name_H-M   'P 1'
_cell_length_a   8.68413069
_cell_length_b   8.68413069
_cell_length_c   14.60865299
_cell_angle_alpha   89.50977416
_cell_angle_beta   89.50977416
_cell_angle_gamma   39.59141187
_symmetry_Int_Tables_number   1
_chemical_formula_structural   Ba3Li2V2Cl4O7
_chemical_formula_sum   'Ba6 Li4 V4 Cl8 O14'
_cell_volume   702.09296557
_cell_formula_units_Z   2
loop_
 _symmetry_equiv_pos_site_id
 _symmetry_equiv_pos_as_xyz
  1  'x, y, z'
loop_
 _atom_site_type_symbol
 _atom_site_label
 _atom_site_symmetry_multiplicity
 _atom_site_fract_x
 _atom_site_fract_y
 _atom_site_fract_z
 _atom_site_occupancy
  Ba  Ba0  1  0.13584900  0.13584900  0.27400400  1
  Ba  Ba1  1  0.86587400  0.86587400  0.28023300  1
  Ba  Ba2  1  0.86415100  0.86415100  0.72599600  1
  Ba  Ba3  1  0.50000000  0.50000000  0.50000000  1
  Ba  Ba4  1  0.13412600  0.13412600  0.71976700  1
  Ba  Ba5  1  0.50000000  0.50000000  0.00000000  1
  Li  Li0  1  0.00000000  0.50000000  0.50000000  1
  Li  Li1  1  0.30200000  0.30200000  0.88332100  1
  Li  Li2  1  0.69800000  0.69800000  0.11667900  1
  Li  Li3  1  0.50000000  0.00000000  0.50000000  1
  V  V0  1  0.50381900  0.50381900  0.25167600  1
  V  V1  1  0.68873800  0.68873800  0.87278200  1
  V  V2  1  0.49618100  0.49618100  0.74832400  1
  V  V3  1  0.31126200  0.31126200  0.12721800  1
  Cl  Cl0  1  0.99821800  0.99821800  0.11577600  1
  Cl  Cl1  1  0.31472000  0.31472000  0.38018900  1
  Cl  Cl2  1  0.11718400  0.11718400  0.49870400  1
  Cl  Cl3  1  0.00178200  0.00178200  0.88422400  1
  Cl  Cl4  1  0.88281600  0.88281600  0.50129600  1
  Cl  Cl5  1  0.31071500  0.31071500  0.62039000  1
  Cl  Cl6  1  0.68928500  0.68928500  0.37961000  1
  Cl  Cl7  1  0.68528000  0.68528000  0.61981100  1
  O  O0  1  0.73576200  0.26958200  0.32278800  1
  O  O1  1  0.26958200  0.73576200  0.32278800  1
  O  O2  1  0.41286800  0.41286800  0.17879300  1
  O  O3  1  0.58840800  0.58840800  0.18190000  1
  O  O4  1  0.26423800  0.73041800  0.67721200  1
  O  O5  1  0.50576900  0.97734400  0.83432400  1
  O  O6  1  0.02265600  0.49423100  0.16567600  1
  O  O7  1  0.58713200  0.58713200  0.82120700  1
  O  O8  1  0.41159200  0.41159200  0.81810000  1
  O  O9  1  0.49423100  0.02265600  0.16567600  1
  O  O10  1  0.66946400  0.66946400  0.98750200  1
  O  O11  1  0.73041800  0.26423800  0.67721200  1
  O  O12  1  0.33053600  0.33053600  0.01249800  1
  O  O13  1  0.97734400  0.50576900  0.83432400  1
loop_
_geom_bond_atom_site_label_1
_geom_bond_atom_site_label_2
_geom_bond_distance
_geom_bond_site_symmetry_2
Ba0 O1 2.771480 1_545
Ba0 O0 2.771480 1_455
Ba0 O9 2.895512 1_555
Ba0 O6 2.895512 1_555
Ba0 Cl0 3.239793 1_445
Ba0 Cl2 3.293943 1_555
Ba0 Cl1 3.321629 1_555
Ba0 O3 3.328679 1_455
Ba0 O3 3.328679 1_545
Ba0 Cl6 3.437563 1_545
Ba0 Cl6 3.437563 1_455
Ba1 O1 2.806106 1_655
Ba1 O0 2.806106 1_565
Ba1 O6 2.889911 1_655
Ba1 O9 2.889911 1_565
Ba1 Cl0 3.217916 1_555
Ba1 Cl6 3.218582 1_555
Ba1 Cl4 3.243786 1_555
Ba1 O2 3.378577 1_655
Ba1 O2 3.378577 1_565
Ba1 Cl1 3.385046 1_565
Ba1 Cl1 3.385046 1_655
Ba2 O11 2.771480 1_565
Ba2 O4 2.771480 1_655
Ba2 O13 2.895512 1_555
Ba2 O5 2.895512 1_555
Ba2 Cl3 3.239793 1_665
Ba2 Cl4 3.293943 1_555
Ba2 Cl7 3.321629 1_555
Ba2 O8 3.328679 1_655
Ba2 O8 3.328679 1_565
Ba2 Cl5 3.437563 1_655
Ba2 Cl5 3.437563 1_565
Ba3 O4 2.929448 1_555
Ba3 O11 2.929448 1_555
Ba3 O0 2.929448 1_555
Ba3 O1 2.929448 1_555
Ba3 Cl2 3.509506 1_655
Ba3 Cl2 3.509506 1_565
Ba3 Cl4 3.509506 1_545
Ba3 Cl4 3.509506 1_455
Ba3 Cl1 3.511067 1_555
Ba3 Cl7 3.511067 1_555
Ba3 Cl6 3.544372 1_555
Ba3 Cl5 3.544372 1_555
Ba4 O4 2.806106 1_545
Ba4 O11 2.806106 1_455
Ba4 O5 2.889911 1_545
Ba4 O13 2.889911 1_455
Ba4 Cl3 3.217916 1_555
Ba4 Cl5 3.218582 1_555
Ba4 Cl2 3.243786 1_555
Ba4 O7 3.378577 1_455
Ba4 O7 3.378577 1_545
Ba4 Cl7 3.385046 1_545
Ba4 Cl7 3.385046 1_455
Ba5 O12 2.773719 1_555
Ba5 O10 2.773719 1_554
Ba5 O2 2.963446 1_555
Ba5 O7 2.963446 1_554
Ba5 O3 3.036191 1_555
Ba5 O8 3.036191 1_554
Ba5 Cl0 3.392672 1_545
Ba5 Cl0 3.392672 1_455
Ba5 Cl3 3.392672 1_564
Ba5 Cl3 3.392672 1_654
Li1 O12 1.947980 1_556
Li1 O13 1.978925 1_455
Li1 O5 1.978925 1_545
Li1 O8 2.020953 1_555
Li2 O10 1.947980 1_554
Li2 O6 1.978925 1_655
Li2 O9 1.978925 1_565
Li2 O3 2.020953 1_555
Cl1 Li3 2.512139 1_555
Cl1 Li0 2.512139 1_555
Cl2 Li3 2.621917 1_555
Cl2 Li0 2.621917 1_555
Cl4 Li3 2.621917 1_565
Cl4 Li0 2.621917 1_655
Cl5 Li3 2.504349 1_555
Cl5 Li0 2.504349 1_555
Cl6 Li0 2.504349 1_655
Cl6 Li3 2.504349 1_565
Cl7 Li0 2.512139 1_655
Cl7 Li3 2.512139 1_565
O0 V0 1.720171 1_555
O1 V0 1.720171 1_555
O2 V3 1.829610 1_555
O2 V0 1.836175 1_555
O3 V0 1.710056 1_555
O4 V2 1.720171 1_555
O5 V1 1.724934 1_555
O6 V3 1.724934 1_555
O7 V1 1.829610 1_555
O7 V2 1.836175 1_555
O8 V2 1.710056 1_555
O9 V3 1.724934 1_555
O10 V1 1.702429 1_555
O11 V2 1.720171 1_555
O12 V3 1.702429 1_555
O13 V1 1.724934 1_555
