# generated using pymatgen
data_Dy3BWO9
_symmetry_space_group_name_H-M   'P 1'
_cell_length_a   8.57578107
_cell_length_b   8.57578107
_cell_length_c   5.39747900
_cell_angle_alpha   90.00000000
_cell_angle_beta   90.00000000
_cell_angle_gamma   119.99999286
_symmetry_Int_Tables_number   1
_chemical_formula_structural   Dy3BWO9
_chemical_formula_sum   'Dy6 B2 W2 O18'
_cell_volume   343.77080850
_cell_formula_units_Z   2
loop_
 _symmetry_equiv_pos_site_id
 _symmetry_equiv_pos_as_xyz
  1  'x, y, z'
loop_
 _atom_site_type_symbol
 _atom_site_label
 _atom_site_symmetry_multiplicity
 _atom_site_fract_x
 _atom_site_fract_y
 _atom_site_fract_z
 _atom_site_occupancy
  Dy  Dy0  1  0.27751100  0.35590500  0.69900900  1
  Dy  Dy1  1  0.72248900  0.64409500  0.19900900  1
  Dy  Dy2  1  0.35590500  0.07839400  0.19900900  1
  Dy  Dy3  1  0.64409500  0.92160600  0.69900900  1
  Dy  Dy4  1  0.92160600  0.27751100  0.19900900  1
  Dy  Dy5  1  0.07839400  0.72248900  0.69900900  1
  B  B0  1  0.00000000  0.00000000  0.87336900  1
  B  B1  1  0.00000000  0.00000000  0.37336900  1
  W  W0  1  0.66666700  0.33333300  0.74170900  1
  W  W1  1  0.33333300  0.66666700  0.24170900  1
  O  O0  1  0.53875300  0.74102500  0.03256300  1
  O  O1  1  0.46124700  0.25897500  0.53256300  1
  O  O2  1  0.25897500  0.79772800  0.03256300  1
  O  O3  1  0.05948300  0.87751300  0.36447600  1
  O  O4  1  0.94051700  0.12248700  0.86447600  1
  O  O5  1  0.20227200  0.46124700  0.03256300  1
  O  O6  1  0.51798000  0.38807100  0.97279200  1
  O  O7  1  0.79772800  0.53875300  0.53256300  1
  O  O8  1  0.81802900  0.94051700  0.36447600  1
  O  O9  1  0.74102500  0.20227200  0.53256300  1
  O  O10  1  0.12248700  0.18197100  0.36447600  1
  O  O11  1  0.87009200  0.48202000  0.97279200  1
  O  O12  1  0.61192900  0.12990800  0.97279200  1
  O  O13  1  0.48202000  0.61192900  0.47279200  1
  O  O14  1  0.12990800  0.51798000  0.47279200  1
  O  O15  1  0.18197100  0.05948300  0.86447600  1
  O  O16  1  0.87751300  0.81802900  0.86447600  1
  O  O17  1  0.38807100  0.87009200  0.47279200  1
loop_
_geom_bond_atom_site_label_1
_geom_bond_atom_site_label_2
_geom_bond_distance
_geom_bond_site_symmetry_2
Dy0 O5 2.248688 1_556
Dy0 O10 2.295572 1_555
Dy0 O1 2.300137 1_555
Dy0 O13 2.353024 1_555
Dy0 O15 2.418301 1_555
Dy0 O6 2.437961 1_555
Dy0 O14 2.604683 1_555
Dy0 O4 2.715073 1_455
Dy1 O7 2.248688 1_555
Dy1 O16 2.295572 1_554
Dy1 O0 2.300137 1_555
Dy1 O6 2.353024 1_554
Dy1 O8 2.418301 1_555
Dy1 O13 2.437961 1_555
Dy1 O11 2.604683 1_554
Dy1 O3 2.715073 1_655
Dy2 O1 2.248688 1_555
Dy2 O15 2.295570 1_554
Dy2 O2 2.300137 1_545
Dy2 O12 2.353027 1_554
Dy2 O3 2.418299 1_545
Dy2 O17 2.437954 1_545
Dy2 O6 2.604677 1_554
Dy2 O10 2.715079 1_555
Dy3 O0 2.248688 1_556
Dy3 O8 2.295570 1_555
Dy3 O9 2.300137 1_565
Dy3 O17 2.353027 1_555
Dy3 O4 2.418299 1_565
Dy3 O12 2.437954 1_565
Dy3 O13 2.604677 1_555
Dy3 O16 2.715079 1_555
Dy4 O9 2.248688 1_555
Dy4 O4 2.295575 1_554
Dy4 O5 2.300137 1_655
Dy4 O11 2.353019 1_554
Dy4 O10 2.418293 1_655
Dy4 O14 2.437958 1_655
Dy4 O12 2.604677 1_554
Dy4 O8 2.715071 1_545
Dy5 O2 2.248688 1_556
Dy5 O3 2.295575 1_555
Dy5 O7 2.300137 1_455
Dy5 O14 2.353019 1_555
Dy5 O16 2.418293 1_455
Dy5 O11 2.437958 1_455
Dy5 O17 2.604677 1_555
Dy5 O15 2.715071 1_565
B0 O4 1.379036 1_455
B0 O16 1.379042 1_445
B0 O15 1.379044 1_555
B1 O3 1.379036 1_545
B1 O10 1.379042 1_555
B1 O8 1.379044 1_445
O0 W1 1.913366 1_555
O1 W0 1.913366 1_555
O2 W1 1.913359 1_555
O5 W1 1.913365 1_555
O6 W0 2.000122 1_555
O7 W0 1.913365 1_555
O9 W0 1.913359 1_555
O11 W0 2.000122 1_555
O12 W0 2.000122 1_555
O13 W1 2.000122 1_555
O14 W1 2.000122 1_555
O17 W1 2.000122 1_555
