# generated using pymatgen
data_Nd4Se3O4
_symmetry_space_group_name_H-M   'P 1'
_cell_length_a   4.01690519
_cell_length_b   6.78274544
_cell_length_c   8.46630651
_cell_angle_alpha   89.99987881
_cell_angle_beta   90.00000000
_cell_angle_gamma   107.22423673
_symmetry_Int_Tables_number   1
_chemical_formula_structural   Nd4Se3O4
_chemical_formula_sum   'Nd4 Se3 O4'
_cell_volume   220.32517157
_cell_formula_units_Z   1
loop_
 _symmetry_equiv_pos_site_id
 _symmetry_equiv_pos_as_xyz
  1  'x, y, z'
loop_
 _atom_site_type_symbol
 _atom_site_label
 _atom_site_symmetry_multiplicity
 _atom_site_fract_x
 _atom_site_fract_y
 _atom_site_fract_z
 _atom_site_occupancy
  Nd  Nd0  1  0.68340067  0.36679934  0.23758298  1
  Nd  Nd1  1  0.68340067  0.36679934  0.76241602  1
  Nd  Nd2  1  0.00139028  0.00278057  0.99999900  1
  Nd  Nd3  1  0.01686072  0.03372145  0.50000000  1
  Se  Se0  1  0.35511674  0.71023349  0.35181351  1
  Se  Se1  1  0.31456781  0.62913562  0.00000000  1
  Se  Se2  1  0.35511674  0.71023449  0.64818949  1
  O  O0  1  0.08811129  0.17622259  0.75570023  1
  O  O1  1  0.58892158  0.17784116  -0.00000000  1
  O  O2  1  0.61482318  0.22964636  0.50000000  1
  O  O3  1  0.08811129  0.17622259  0.24429977  1
loop_
_geom_bond_atom_site_label_1
_geom_bond_atom_site_label_2
_geom_bond_distance
_geom_bond_site_symmetry_2
Nd0 O1 2.354687 1_555
Nd0 O3 2.358282 1_655
Nd0 O3 2.358288 1_555
Nd0 O2 2.392798 1_555
Nd0 Se0 3.149543 1_655
Nd0 Se0 3.149548 1_555
Nd0 Se1 3.311841 1_655
Nd0 Se1 3.311846 1_555
Nd1 O1 2.354690 1_556
Nd1 O0 2.358282 1_655
Nd1 O0 2.358288 1_555
Nd1 O2 2.392794 1_555
Nd1 Se2 3.149533 1_655
Nd1 Se2 3.149541 1_555
Nd1 Se1 3.311851 1_656
Nd1 Se1 3.311856 1_556
Nd2 O1 2.306543 1_456
Nd2 O1 2.306550 1_556
Nd2 O0 2.353824 1_555
Nd2 O3 2.353844 1_556
Nd2 Se1 3.145406 1_446
Nd2 Se1 3.145406 1_546
Nd3 O3 2.353468 1_555
Nd3 O0 2.353472 1_555
Nd3 O2 2.375928 1_555
Nd3 O2 2.375928 1_455
Nd3 Se0 3.162279 1_445
Nd3 Se0 3.162279 1_545
Nd3 Se2 3.162280 1_545
Nd3 Se2 3.162282 1_445
Se0 Se2 2.509210 1_555
Se0 Se1 3.024545 1_555
Se1 Se2 3.024519 1_554
