# generated using pymatgen
data_Mg2SiO4
_symmetry_space_group_name_H-M   'P 1'
_cell_length_a   24.01213359
_cell_length_b   24.01213359
_cell_length_c   24.01213314
_cell_angle_alpha   13.80726348
_cell_angle_beta   13.80726348
_cell_angle_gamma   13.80726433
_symmetry_Int_Tables_number   1
_chemical_formula_structural   Mg2SiO4
_chemical_formula_sum   'Mg20 Si10 O40'
_cell_volume   686.22445059
_cell_formula_units_Z   10
loop_
 _symmetry_equiv_pos_site_id
 _symmetry_equiv_pos_as_xyz
  1  'x, y, z'
loop_
 _atom_site_type_symbol
 _atom_site_label
 _atom_site_symmetry_multiplicity
 _atom_site_fract_x
 _atom_site_fract_y
 _atom_site_fract_z
 _atom_site_occupancy
  Mg  Mg0  1  0.65309300  0.65309300  0.65309300  1
  Mg  Mg1  1  0.12815600  0.61797300  0.12815600  1
  Mg  Mg2  1  0.12815600  0.12815600  0.61797300  1
  Mg  Mg3  1  0.25065700  0.25065700  0.25065700  1
  Mg  Mg4  1  0.61797300  0.12815600  0.12815600  1
  Mg  Mg5  1  0.72624000  0.21942600  0.72624000  1
  Mg  Mg6  1  0.72624000  0.72624000  0.21942600  1
  Mg  Mg7  1  0.21942600  0.72624000  0.72624000  1
  Mg  Mg8  1  0.32492500  0.82392500  0.32492500  1
  Mg  Mg9  1  0.32492500  0.32492500  0.82392500  1
  Mg  Mg10  1  0.52455900  0.52455900  0.52455900  1
  Mg  Mg11  1  0.82392500  0.32492500  0.32492500  1
  Mg  Mg12  1  0.92504900  0.42525500  0.92504900  1
  Mg  Mg13  1  0.92504900  0.92504900  0.42525500  1
  Mg  Mg14  1  0.12484300  0.12484300  0.12484300  1
  Mg  Mg15  1  0.42525500  0.92504900  0.92504900  1
  Mg  Mg16  1  0.52644600  0.02537900  0.52644600  1
  Mg  Mg17  1  0.72511500  0.72511500  0.72511500  1
  Mg  Mg18  1  0.52644600  0.52644600  0.02537900  1
  Mg  Mg19  1  0.02537900  0.52644600  0.52644600  1
  Si  Si0  1  0.99884100  0.99884100  0.99884100  1
  Si  Si1  1  0.59822300  0.59822300  0.59822300  1
  Si  Si2  1  0.32200500  0.32200500  0.32200500  1
  Si  Si3  1  0.19963800  0.19963800  0.19963800  1
  Si  Si4  1  0.92130400  0.92130400  0.92130400  1
  Si  Si5  1  0.84920900  0.84920900  0.84920900  1
  Si  Si6  1  0.45002900  0.45002900  0.45002900  1
  Si  Si7  1  0.40036200  0.40036200  0.40036200  1
  Si  Si8  1  0.05120300  0.05120300  0.05120300  1
  Si  Si9  1  0.79989500  0.79989500  0.79989500  1
  O  O0  1  0.01419400  0.45809000  0.45809000  1
  O  O1  1  0.45809000  0.45809000  0.01419400  1
  O  O2  1  0.27685300  0.27685300  0.27685300  1
  O  O3  1  0.76992500  0.27887700  0.76992500  1
  O  O4  1  0.61865800  0.05403300  0.05403300  1
  O  O5  1  0.45809000  0.01419400  0.45809000  1
  O  O6  1  0.97542500  0.97542500  0.97542500  1
  O  O7  1  0.76992500  0.76992500  0.27887700  1
  O  O8  1  0.87249600  0.87249600  0.87249600  1
  O  O9  1  0.05403300  0.05403300  0.61865800  1
  O  O10  1  0.36535500  0.89328900  0.36535500  1
  O  O11  1  0.16088500  0.68210100  0.68210100  1
  O  O12  1  0.05403300  0.61865800  0.05403300  1
  O  O13  1  0.27887700  0.76992500  0.76992500  1
  O  O14  1  0.57502600  0.57502600  0.57502600  1
  O  O15  1  0.36535500  0.36535500  0.89328900  1
  O  O16  1  0.68210100  0.68210100  0.16088500  1
  O  O17  1  0.47370400  0.47370400  0.47370400  1
  O  O18  1  0.96649400  0.49083000  0.96649400  1
  O  O19  1  0.75956900  0.28366900  0.28366900  1
  O  O20  1  0.68210100  0.16088500  0.68210100  1
  O  O21  1  0.89328900  0.36535500  0.36535500  1
  O  O22  1  0.96649400  0.96649400  0.49083000  1
  O  O23  1  0.17618600  0.17618600  0.17618600  1
  O  O24  1  0.28366900  0.28366900  0.75956900  1
  O  O25  1  0.07485600  0.07485600  0.07485600  1
  O  O26  1  0.56676200  0.09138800  0.56676200  1
  O  O27  1  0.35507500  0.88720400  0.88720400  1
  O  O28  1  0.28366900  0.75956900  0.28366900  1
  O  O29  1  0.49083000  0.96649400  0.96649400  1
  O  O30  1  0.56676200  0.56676200  0.09138800  1
  O  O31  1  0.77640100  0.77640100  0.77640100  1
  O  O32  1  0.88720400  0.88720400  0.35507500  1
  O  O33  1  0.67957600  0.67957600  0.67957600  1
  O  O34  1  0.17110700  0.67802100  0.17110700  1
  O  O35  1  0.88720400  0.35507500  0.88720400  1
  O  O36  1  0.09138800  0.56676200  0.56676200  1
  O  O37  1  0.37669000  0.37669000  0.37669000  1
  O  O38  1  0.17110700  0.17110700  0.67802100  1
  O  O39  1  0.67802100  0.17110700  0.17110700  1
loop_
_geom_bond_atom_site_label_1
_geom_bond_atom_site_label_2
_geom_bond_distance
_geom_bond_site_symmetry_2
Mg0 O33 1.889275 1_555
Mg0 O1 1.976714 1_556
Mg0 O0 1.976714 1_655
Mg0 O5 1.976714 1_565
Mg1 O2 1.935467 1_555
Mg1 O0 2.053637 1_555
Mg1 O1 2.053637 1_555
Mg1 O6 2.102269 1_454
Mg1 O13 2.151642 1_554
Mg1 O7 2.151642 1_455
Mg2 O2 1.935467 1_555
Mg2 O5 2.053637 1_555
Mg2 O0 2.053637 1_555
Mg2 O6 2.102268 1_445
Mg2 O13 2.151642 1_545
Mg2 O3 2.151642 1_455
Mg3 O2 1.868801 1_555
Mg3 O9 1.975210 1_555
Mg3 O12 1.975210 1_555
Mg3 O4 1.975210 1_555
Mg4 O2 1.935467 1_555
Mg4 O5 2.053637 1_555
Mg4 O1 2.053637 1_555
Mg4 O6 2.102269 1_544
Mg4 O3 2.151642 1_554
Mg4 O7 2.151642 1_545
Mg5 O4 2.030110 1_556
Mg5 O9 2.030110 1_655
Mg5 O21 2.067529 1_555
Mg5 O15 2.067529 1_555
Mg5 O8 2.091937 1_545
Mg5 O14 2.109921 1_555
Mg6 O4 2.030110 1_565
Mg6 O12 2.030110 1_655
Mg6 O10 2.067529 1_555
Mg6 O21 2.067529 1_555
Mg6 O8 2.091937 1_554
Mg6 O14 2.109921 1_555
Mg7 O12 2.030110 1_556
Mg7 O9 2.030110 1_565
Mg7 O10 2.067529 1_555
Mg7 O15 2.067529 1_555
Mg7 O8 2.091937 1_455
Mg7 O14 2.109921 1_555
Mg8 O17 2.081828 1_555
Mg8 O29 2.082091 1_554
Mg8 O22 2.082091 1_455
Mg8 O11 2.093607 1_555
Mg8 O16 2.093607 1_555
Mg8 O23 2.117789 1_565
Mg9 O17 2.081828 1_555
Mg9 O29 2.082091 1_545
Mg9 O18 2.082091 1_455
Mg9 O20 2.093607 1_555
Mg9 O11 2.093607 1_555
Mg9 O23 2.117788 1_556
Mg10 O16 2.086277 1_555
Mg10 O20 2.086277 1_555
Mg10 O11 2.086277 1_555
Mg10 O15 2.127842 1_555
Mg10 O10 2.127842 1_555
Mg10 O21 2.127842 1_555
Mg11 O17 2.081828 1_555
Mg11 O18 2.082091 1_554
Mg11 O22 2.082091 1_545
Mg11 O20 2.093607 1_555
Mg11 O16 2.093607 1_555
Mg11 O23 2.117789 1_655
Mg12 O25 2.058527 1_656
Mg12 O36 2.087574 1_655
Mg12 O30 2.087574 1_556
Mg12 O31 2.101026 1_555
Mg12 O19 2.102648 1_556
Mg12 O24 2.102649 1_655
Mg13 O25 2.058527 1_665
Mg13 O26 2.087574 1_565
Mg13 O36 2.087574 1_655
Mg13 O31 2.101026 1_555
Mg13 O19 2.102649 1_565
Mg13 O28 2.102649 1_655
Mg14 O24 2.081675 1_554
Mg14 O19 2.081675 1_455
Mg14 O28 2.081675 1_545
Mg14 O22 2.104156 1_445
Mg14 O18 2.104156 1_454
Mg14 O29 2.104156 1_544
Mg15 O25 2.058527 1_566
Mg15 O26 2.087574 1_565
Mg15 O30 2.087574 1_556
Mg15 O31 2.101026 1_555
Mg15 O28 2.102648 1_556
Mg15 O24 2.102649 1_565
Mg16 O33 1.910284 1_545
Mg16 O37 2.075074 1_555
Mg16 O27 2.108136 1_545
Mg16 O32 2.108137 1_545
Mg16 O39 2.173988 1_555
Mg16 O38 2.173988 1_555
Mg17 O32 2.081953 1_555
Mg17 O35 2.081953 1_555
Mg17 O27 2.081953 1_555
Mg17 O30 2.108647 1_556
Mg17 O26 2.108647 1_565
Mg17 O36 2.108647 1_655
Mg18 O33 1.910284 1_554
Mg18 O37 2.075073 1_555
Mg18 O35 2.108137 1_554
Mg18 O27 2.108137 1_554
Mg18 O34 2.173988 1_555
Mg18 O39 2.173988 1_555
Mg19 O33 1.910284 1_455
Mg19 O37 2.075074 1_555
Mg19 O35 2.108136 1_455
Mg19 O32 2.108137 1_455
Mg19 O34 2.173988 1_555
Mg19 O38 2.173988 1_555
O0 Si2 1.704972 1_555
O1 Si2 1.704972 1_555
O3 Si1 1.733657 1_555
O3 Si4 2.139209 1_545
O4 Si4 1.699242 1_544
O5 Si2 1.704972 1_555
O6 Si0 1.670478 1_555
O7 Si1 1.733657 1_555
O7 Si4 2.139209 1_554
O8 Si5 1.661275 1_555
O9 Si4 1.699241 1_445
O10 Si3 1.682571 1_565
O11 Si5 1.683288 1_455
O12 Si4 1.699242 1_454
O13 Si1 1.733657 1_555
O13 Si4 2.139209 1_455
O14 Si1 1.654855 1_555
O15 Si3 1.682571 1_556
O16 Si5 1.683287 1_554
O17 Si6 1.688955 1_555
O18 Si9 1.685949 1_555
O19 Si6 1.679113 1_555
O20 Si5 1.683288 1_545
O21 Si3 1.682571 1_655
O22 Si9 1.685949 1_555
O23 Si3 1.673046 1_555
O24 Si6 1.679113 1_555
O25 Si8 1.687385 1_555
O26 Si7 1.682568 1_555
O27 Si8 1.661494 1_566
O28 Si6 1.679113 1_555
O29 Si9 1.685949 1_555
O30 Si7 1.682568 1_555
O31 Si9 1.676043 1_555
O32 Si8 1.661494 1_665
O34 Si0 1.737382 1_454
O34 Si2 2.125214 1_555
O35 Si8 1.661494 1_656
O36 Si7 1.682568 1_555
O37 Si7 1.688741 1_555
O38 Si0 1.737382 1_445
O38 Si2 2.125214 1_555
O39 Si0 1.737382 1_544
O39 Si2 2.125214 1_555
