# generated using pymatgen
data_OsOF4
_symmetry_space_group_name_H-M   'P 1'
_cell_length_a   5.78612300
_cell_length_b   9.82281700
_cell_length_c   13.15651600
_cell_angle_alpha   90.00000000
_cell_angle_beta   90.00000000
_cell_angle_gamma   90.00000000
_symmetry_Int_Tables_number   1
_chemical_formula_structural   OsOF4
_chemical_formula_sum   'Os8 O8 F32'
_cell_volume   747.76410345
_cell_formula_units_Z   8
loop_
 _symmetry_equiv_pos_site_id
 _symmetry_equiv_pos_as_xyz
  1  'x, y, z'
loop_
 _atom_site_type_symbol
 _atom_site_label
 _atom_site_symmetry_multiplicity
 _atom_site_fract_x
 _atom_site_fract_y
 _atom_site_fract_z
 _atom_site_occupancy
  Os  Os0  1  0.64553100  0.99008200  0.48584500  1
  Os  Os1  1  0.85446900  0.00991800  0.98584500  1
  Os  Os2  1  0.89501500  0.26813400  0.29997400  1
  Os  Os3  1  0.39501500  0.23186600  0.70002600  1
  Os  Os4  1  0.60498500  0.73186600  0.79997400  1
  Os  Os5  1  0.10498500  0.76813400  0.20002600  1
  Os  Os6  1  0.14553100  0.50991800  0.51415500  1
  Os  Os7  1  0.35446900  0.49008200  0.01415500  1
  O  O0  1  0.10374000  0.42770200  0.97040500  1
  O  O1  1  0.86231500  0.68057900  0.22503200  1
  O  O2  1  0.63768500  0.31942100  0.72503200  1
  O  O3  1  0.89626000  0.92770200  0.52959500  1
  O  O4  1  0.39626000  0.57229800  0.47040500  1
  O  O5  1  0.60374000  0.07229800  0.02959500  1
  O  O6  1  0.13768500  0.18057900  0.27496800  1
  O  O7  1  0.36231500  0.81942100  0.77496800  1
  F  F0  1  0.58918900  0.61189800  0.05268800  1
  F  F1  1  0.41081100  0.11189800  0.44731200  1
  F  F2  1  0.60198300  0.08918600  0.62561400  1
  F  F3  1  0.37199000  0.40605900  0.14271400  1
  F  F4  1  0.17485500  0.33852100  0.76891800  1
  F  F5  1  0.91081100  0.38810200  0.55268800  1
  F  F6  1  0.10854600  0.89138700  0.31018600  1
  F  F7  1  0.89145400  0.39138700  0.18981400  1
  F  F8  1  0.10198300  0.41081400  0.37438600  1
  F  F9  1  0.65097000  0.84819600  0.92924100  1
  F  F10  1  0.82514500  0.83852100  0.73108200  1
  F  F11  1  0.15931600  0.13000000  0.63761000  1
  F  F12  1  0.67485500  0.16147900  0.23108200  1
  F  F13  1  0.06992900  0.13842500  0.03436100  1
  F  F14  1  0.65931600  0.37000000  0.36239000  1
  F  F15  1  0.34068400  0.87000000  0.13761000  1
  F  F16  1  0.89801700  0.91081400  0.12561400  1
  F  F17  1  0.87199000  0.09394100  0.85728600  1
  F  F18  1  0.60854600  0.60861300  0.68981400  1
  F  F19  1  0.12801000  0.59394100  0.64271400  1
  F  F20  1  0.32514500  0.66147900  0.26891800  1
  F  F21  1  0.08918900  0.88810200  0.94731200  1
  F  F22  1  0.43007100  0.86157500  0.53436100  1
  F  F23  1  0.15097000  0.65180400  0.07075900  1
  F  F24  1  0.93007100  0.63842500  0.46563900  1
  F  F25  1  0.39801700  0.58918600  0.87438600  1
  F  F26  1  0.34903000  0.34819600  0.57075900  1
  F  F27  1  0.84068400  0.63000000  0.86239000  1
  F  F28  1  0.62801000  0.90605900  0.35728600  1
  F  F29  1  0.56992900  0.36157500  0.96563900  1
  F  F30  1  0.39145400  0.10861300  0.81018600  1
  F  F31  1  0.84903000  0.15180400  0.42924100  1
loop_
_geom_bond_atom_site_label_1
_geom_bond_atom_site_label_2
_geom_bond_distance
_geom_bond_site_symmetry_2
O0 Os7 1.676736 1_556
O1 Os5 1.679121 1_655
O2 Os3 1.679121 1_555
O3 Os0 1.676736 1_555
O4 Os6 1.676736 1_555
O5 Os1 1.676736 1_554
O6 Os2 1.679121 1_455
O7 Os4 1.679121 1_555
F0 Os7 1.879705 1_555
F1 Os0 1.879705 1_545
F2 Os3 2.087297 1_555
F2 Os0 2.095855 1_545
F3 Os7 1.884745 1_555
F4 Os3 1.881980 1_555
F5 Os6 1.879705 1_655
F6 Os5 1.888580 1_555
F7 Os2 1.888580 1_555
F8 Os2 2.087297 1_455
F8 Os6 2.095855 1_555
F9 Os4 2.066138 1_555
F9 Os1 2.112953 1_565
F10 Os4 1.881980 1_555
F11 Os3 1.880282 1_555
F12 Os2 1.881980 1_555
F13 Os1 1.885481 1_454
F14 Os2 1.880282 1_555
F15 Os5 1.880282 1_555
F16 Os5 2.087297 1_655
F16 Os1 2.095855 1_564
F17 Os1 1.884745 1_555
F18 Os4 1.888580 1_555
F19 Os6 1.884745 1_555
F20 Os5 1.881980 1_555
F21 Os1 1.879705 1_465
F22 Os0 1.885481 1_555
F23 Os5 2.066138 1_555
F23 Os7 2.112953 1_555
F24 Os6 1.885481 1_655
F25 Os4 2.087297 1_555
F25 Os7 2.095855 1_556
F26 Os3 2.066138 1_555
F26 Os6 2.112953 1_555
F27 Os4 1.880282 1_555
F28 Os0 1.884745 1_555
F29 Os7 1.885481 1_556
F30 Os3 1.888580 1_555
F31 Os2 2.066138 1_555
F31 Os0 2.112953 1_545
