# generated using pymatgen
data_Rb4Te8O23
_symmetry_space_group_name_H-M   'P 1'
_cell_length_a   7.42777500
_cell_length_b   14.92283600
_cell_length_c   20.29770300
_cell_angle_alpha   90.00000000
_cell_angle_beta   90.00000000
_cell_angle_gamma   90.00000000
_symmetry_Int_Tables_number   1
_chemical_formula_structural   Rb4Te8O23
_chemical_formula_sum   'Rb16 Te32 O92'
_cell_volume   2249.86779640
_cell_formula_units_Z   4
loop_
 _symmetry_equiv_pos_site_id
 _symmetry_equiv_pos_as_xyz
  1  'x, y, z'
loop_
 _atom_site_type_symbol
 _atom_site_label
 _atom_site_symmetry_multiplicity
 _atom_site_fract_x
 _atom_site_fract_y
 _atom_site_fract_z
 _atom_site_occupancy
  Rb  Rb0  1  0.12183700  0.25083200  0.07155500  1
  Rb  Rb1  1  0.62137600  0.50577200  0.31343500  1
  Rb  Rb2  1  0.62183700  0.75083200  0.42844500  1
  Rb  Rb3  1  0.12070300  0.50281100  0.17477100  1
  Rb  Rb4  1  0.12137600  0.49422800  0.68656500  1
  Rb  Rb5  1  0.12070300  0.99718900  0.67477100  1
  Rb  Rb6  1  0.12145900  0.75713400  0.06285000  1
  Rb  Rb7  1  0.62145900  0.24286600  0.93715000  1
  Rb  Rb8  1  0.62070300  0.00281100  0.32522900  1
  Rb  Rb9  1  0.12137600  0.00577200  0.18656500  1
  Rb  Rb10  1  0.12145900  0.74286600  0.56285000  1
  Rb  Rb11  1  0.62183700  0.74916800  0.92844500  1
  Rb  Rb12  1  0.62070300  0.49718900  0.82522900  1
  Rb  Rb13  1  0.12183700  0.24916800  0.57155500  1
  Rb  Rb14  1  0.62145900  0.25713400  0.43715000  1
  Rb  Rb15  1  0.62137600  0.99422800  0.81343500  1
  Te  Te0  1  0.86967600  0.00002300  0.49992100  1
  Te  Te1  1  0.62039900  0.38187900  0.12842100  1
  Te  Te2  1  0.62097400  0.12325600  0.13547300  1
  Te  Te3  1  0.62014500  0.62830500  0.12256600  1
  Te  Te4  1  0.12014500  0.12830500  0.37743400  1
  Te  Te5  1  0.62097400  0.37674400  0.63547300  1
  Te  Te6  1  0.12097400  0.62325600  0.36452700  1
  Te  Te7  1  0.62093100  0.87262000  0.10787900  1
  Te  Te8  1  0.87117400  0.00001700  0.00006400  1
  Te  Te9  1  0.12093100  0.37262000  0.39212100  1
  Te  Te10  1  0.36967600  0.50002300  0.00007900  1
  Te  Te11  1  0.37080500  0.76129600  0.24389800  1
  Te  Te12  1  0.12039900  0.61812100  0.87157900  1
  Te  Te13  1  0.37117400  0.50001700  0.49993600  1
  Te  Te14  1  0.87117400  0.49998300  0.50006400  1
  Te  Te15  1  0.87080500  0.23870400  0.75610200  1
  Te  Te16  1  0.12093100  0.12738000  0.89212100  1
  Te  Te17  1  0.12014500  0.37169500  0.87743400  1
  Te  Te18  1  0.37039800  0.26094000  0.25619300  1
  Te  Te19  1  0.12097400  0.87674400  0.86452700  1
  Te  Te20  1  0.37039800  0.23906000  0.75619300  1
  Te  Te21  1  0.37117400  0.99998300  0.99993600  1
  Te  Te22  1  0.12039900  0.88187900  0.37157900  1
  Te  Te23  1  0.87080500  0.26129600  0.25610200  1
  Te  Te24  1  0.87039800  0.76094000  0.24380700  1
  Te  Te25  1  0.87039800  0.73906000  0.74380700  1
  Te  Te26  1  0.62093100  0.62738000  0.60787900  1
  Te  Te27  1  0.86967600  0.49997700  0.99992100  1
  Te  Te28  1  0.36967600  0.99997700  0.50007900  1
  Te  Te29  1  0.62014500  0.87169500  0.62256600  1
  Te  Te30  1  0.62039900  0.11812100  0.62842100  1
  Te  Te31  1  0.37080500  0.73870400  0.74389800  1
  O  O0  1  0.12072700  0.72913700  0.21768000  1
  O  O1  1  0.93227600  0.15477100  0.31307500  1
  O  O2  1  0.62015200  0.74758700  0.08105800  1
  O  O3  1  0.36312100  0.67972400  0.31613500  1
  O  O4  1  0.80881400  0.84547200  0.68670600  1
  O  O5  1  0.80543000  0.13532600  0.70133000  1
  O  O6  1  0.12072700  0.77086300  0.71768000  1
  O  O7  1  0.30543000  0.86467400  0.29867000  1
  O  O8  1  0.42064100  0.04850700  0.08704500  1
  O  O9  1  0.36312100  0.82027600  0.81613500  1
  O  O10  1  0.12015200  0.25241300  0.91894200  1
  O  O11  1  0.92064100  0.54850700  0.41295500  1
  O  O12  1  0.93558300  0.63581700  0.79868800  1
  O  O13  1  0.31002600  0.39578000  0.94132700  1
  O  O14  1  0.61971400  0.50827500  0.16096200  1
  O  O15  1  0.30881400  0.15452800  0.31329400  1
  O  O16  1  0.88809000  0.42268900  0.07363700  1
  O  O17  1  0.11971400  0.49172500  0.83903800  1
  O  O18  1  0.35479500  0.16059400  0.83064400  1
  O  O19  1  0.12123900  0.52605300  0.53153600  1
  O  O20  1  0.81002600  0.89578000  0.55867300  1
  O  O21  1  0.81002600  0.60422000  0.05867300  1
  O  O22  1  0.82187300  0.45132100  0.58713800  1
  O  O23  1  0.62072700  0.22913700  0.28232000  1
  O  O24  1  0.12024200  0.77737300  0.91953400  1
  O  O25  1  0.35177800  0.42259500  0.07371900  1
  O  O26  1  0.93227600  0.34522900  0.81307500  1
  O  O27  1  0.62015200  0.75241300  0.58105800  1
  O  O28  1  0.62024200  0.27737300  0.58046600  1
  O  O29  1  0.32187300  0.54867900  0.41286200  1
  O  O30  1  0.37824500  0.17903400  0.18416600  1
  O  O31  1  0.30805100  0.38048100  0.46775300  1
  O  O32  1  0.80805100  0.88048100  0.03224700  1
  O  O33  1  0.43558300  0.13581700  0.70131200  1
  O  O34  1  0.38671100  0.83980800  0.16949200  1
  O  O35  1  0.80881400  0.65452800  0.18670600  1
  O  O36  1  0.88671100  0.16019200  0.83050800  1
  O  O37  1  0.43227600  0.65477100  0.18692500  1
  O  O38  1  0.62070600  0.70896600  0.76908300  1
  O  O39  1  0.30881400  0.34547200  0.81329400  1
  O  O40  1  0.30805100  0.11951900  0.96775300  1
  O  O41  1  0.88671100  0.33980800  0.33050800  1
  O  O42  1  0.92064100  0.95149300  0.91295500  1
  O  O43  1  0.92933900  0.10421100  0.44105200  1
  O  O44  1  0.82187300  0.04867900  0.08713800  1
  O  O45  1  0.61971400  0.99172500  0.66096200  1
  O  O46  1  0.62123900  0.47394700  0.46846400  1
  O  O47  1  0.42933900  0.60421100  0.05894800  1
  O  O48  1  0.42064100  0.45149300  0.58704500  1
  O  O49  1  0.37824500  0.32096600  0.68416600  1
  O  O50  1  0.62072700  0.27086300  0.78232000  1
  O  O51  1  0.11974100  0.95673600  0.51125500  1
  O  O52  1  0.62123900  0.02605300  0.96846400  1
  O  O53  1  0.85479500  0.66059400  0.66935600  1
  O  O54  1  0.80805100  0.61951900  0.53224700  1
  O  O55  1  0.61974100  0.45673600  0.98874500  1
  O  O56  1  0.38671100  0.66019200  0.66949200  1
  O  O57  1  0.11974100  0.54326400  0.01125500  1
  O  O58  1  0.43442200  0.88047900  0.03207100  1
  O  O59  1  0.80543000  0.36467400  0.20133000  1
  O  O60  1  0.85177800  0.57740500  0.92628100  1
  O  O61  1  0.87824500  0.82096600  0.81583400  1
  O  O62  1  0.93442200  0.11952100  0.96792900  1
  O  O63  1  0.11971400  0.00827500  0.33903800  1
  O  O64  1  0.35177800  0.07740500  0.57371900  1
  O  O65  1  0.93442200  0.38047900  0.46792900  1
  O  O66  1  0.88809000  0.07731100  0.57363700  1
  O  O67  1  0.42933900  0.89578900  0.55894800  1
  O  O68  1  0.86312100  0.17972400  0.18386500  1
  O  O69  1  0.31002600  0.10422000  0.44132700  1
  O  O70  1  0.38809000  0.92268900  0.42636300  1
  O  O71  1  0.43558300  0.36418300  0.20131200  1
  O  O72  1  0.35479500  0.33940600  0.33064400  1
  O  O73  1  0.12015200  0.24758700  0.41894200  1
  O  O74  1  0.86312100  0.32027600  0.68386500  1
  O  O75  1  0.61974100  0.04326400  0.48874500  1
  O  O76  1  0.85479500  0.83940600  0.16935600  1
  O  O77  1  0.62070600  0.79103400  0.26908300  1
  O  O78  1  0.12070600  0.29103400  0.23091700  1
  O  O79  1  0.62024200  0.22262700  0.08046600  1
  O  O80  1  0.85177800  0.92259500  0.42628100  1
  O  O81  1  0.12070600  0.20896600  0.73091700  1
  O  O82  1  0.38809000  0.57731100  0.92636300  1
  O  O83  1  0.92933900  0.39578900  0.94105200  1
  O  O84  1  0.12024200  0.72262700  0.41953400  1
  O  O85  1  0.32187300  0.95132100  0.91286200  1
  O  O86  1  0.43442200  0.61952100  0.53207100  1
  O  O87  1  0.12123900  0.97394700  0.03153600  1
  O  O88  1  0.30543000  0.63532600  0.79867000  1
  O  O89  1  0.87824500  0.67903400  0.31583400  1
  O  O90  1  0.93558300  0.86418300  0.29868800  1
  O  O91  1  0.43227600  0.84522900  0.68692500  1
loop_
_geom_bond_atom_site_label_1
_geom_bond_atom_site_label_2
_geom_bond_distance
_geom_bond_site_symmetry_2
O0 Te24 1.990928 1_455
O0 Te11 1.990954 1_555
O0 Rb6 3.170348 1_555
O0 Rb3 3.487917 1_555
O1 Te4 1.951867 1_655
O1 Te23 2.018115 1_555
O1 Rb8 3.249487 1_555
O2 Te7 1.943655 1_555
O2 Te3 1.969347 1_555
O2 Rb11 3.097808 1_554
O3 Te11 1.906546 1_555
O3 Te6 2.215829 1_555
O3 Rb2 3.164745 1_555
O3 Rb1 3.228188 1_555
O4 Te29 1.952424 1_555
O4 Te25 2.018468 1_555
O4 Rb5 3.248296 1_655
O5 Te15 1.962569 1_555
O5 Te30 2.035895 1_555
O5 Rb5 3.166052 1_645
O5 Rb15 3.388252 1_545
O6 Te25 1.990928 1_455
O6 Te31 1.990954 1_555
O6 Rb10 3.170348 1_555
O6 Rb5 3.487917 1_555
O7 Te11 1.962569 1_555
O7 Te22 2.035895 1_555
O7 Rb8 3.166052 1_565
O7 Rb9 3.388252 1_565
O8 Te21 1.945654 1_544
O8 Te2 2.103506 1_555
O8 Rb9 3.070565 1_555
O9 Te31 1.906546 1_555
O9 Te19 2.215829 1_555
O9 Rb11 3.164745 1_555
O9 Rb15 3.228188 1_555
O10 Te16 1.943655 1_555
O10 Te17 1.969347 1_555
O10 Rb0 3.097808 1_556
O11 Te14 1.945654 1_555
O11 Te6 2.103506 1_655
O11 Rb1 3.070565 1_555
O12 Te25 1.961893 1_555
O12 Te12 2.035489 1_655
O12 Rb12 3.168610 1_555
O12 Rb4 3.398280 1_655
O13 Te17 1.949433 1_555
O13 Te10 2.009560 1_556
O13 Rb7 3.250454 1_555
O14 Te3 1.953395 1_555
O14 Te1 1.998499 1_555
O14 Rb1 3.095102 1_555
O15 Te4 1.952424 1_555
O15 Te18 2.018468 1_555
O15 Rb8 3.248296 1_555
O16 Te27 1.894135 1_554
O16 Te1 2.358163 1_555
O16 Rb3 2.937481 1_655
O16 Rb0 3.097319 1_655
O17 Te17 1.953395 1_555
O17 Te12 1.998499 1_555
O17 Rb4 3.095102 1_555
O18 Te20 1.915254 1_555
O18 Te16 2.195508 1_555
O18 Rb7 3.178691 1_555
O18 Rb15 3.194744 1_545
O19 Te13 2.002201 1_555
O19 Te14 2.002364 1_455
O19 Rb4 3.182369 1_555
O19 Rb10 3.297306 1_555
O20 Te29 1.949433 1_555
O20 Te0 2.009560 1_565
O20 Rb10 3.250454 1_655
O21 Te3 1.949433 1_555
O21 Te27 2.009560 1_554
O21 Rb6 3.250454 1_655
O22 Te14 1.945544 1_555
O22 Te5 2.104244 1_555
O22 Rb4 3.071138 1_655
O23 Te18 1.990928 1_555
O23 Te23 1.990954 1_555
O23 Rb14 3.170348 1_555
O23 Rb8 3.487917 1_555
O24 Te19 1.856238 1_555
O24 Te12 2.568107 1_555
O24 Rb6 2.924636 1_556
O25 Te10 1.893918 1_555
O25 Te1 2.362847 1_555
O25 Rb3 2.930183 1_555
O25 Rb0 3.080417 1_555
O26 Te17 1.951867 1_655
O26 Te15 2.018115 1_555
O26 Rb12 3.249487 1_555
O27 Te26 1.943655 1_555
O27 Te29 1.969347 1_555
O27 Rb2 3.097808 1_555
O28 Te5 1.856238 1_555
O28 Te30 2.568107 1_555
O28 Rb14 2.924636 1_555
O29 Te13 1.945544 1_555
O29 Te6 2.104244 1_555
O29 Rb1 3.071138 1_555
O30 Te18 1.906498 1_555
O30 Te2 2.218166 1_555
O30 Rb0 3.162257 1_555
O30 Rb9 3.213693 1_555
O31 Te13 1.956670 1_555
O31 Te9 2.074186 1_555
O31 Rb14 3.032031 1_555
O31 Rb13 3.192524 1_555
O32 Te8 1.956670 1_565
O32 Te7 2.074186 1_555
O32 Rb6 3.032031 1_655
O32 Rb11 3.192524 1_554
O33 Te20 1.961893 1_555
O33 Te30 2.035489 1_555
O33 Rb5 3.168610 1_545
O33 Rb15 3.398280 1_545
O34 Te11 1.915091 1_555
O34 Te7 2.197825 1_555
O34 Rb6 3.176373 1_555
O34 Rb9 3.184046 1_565
O35 Te3 1.952424 1_555
O35 Te24 2.018468 1_555
O35 Rb3 3.248296 1_655
O36 Te15 1.915091 1_555
O36 Te16 2.197825 1_655
O36 Rb7 3.176373 1_555
O36 Rb15 3.184046 1_545
O37 Te3 1.951867 1_555
O37 Te11 2.018115 1_555
O37 Rb3 3.249487 1_555
O38 Te31 1.975796 1_555
O38 Te25 1.976017 1_555
O38 Rb11 3.289856 1_555
O38 Rb12 3.359516 1_555
O39 Te17 1.952424 1_555
O39 Te20 2.018468 1_555
O39 Rb12 3.248296 1_555
O40 Te21 1.956670 1_545
O40 Te16 2.074186 1_555
O40 Rb7 3.032031 1_555
O40 Rb0 3.192524 1_556
O41 Te23 1.915091 1_555
O41 Te9 2.197825 1_655
O41 Rb14 3.176373 1_555
O41 Rb1 3.184046 1_555
O42 Te8 1.945654 1_566
O42 Te19 2.103506 1_655
O42 Rb15 3.070565 1_555
O43 Te4 1.950735 1_655
O43 Te0 2.010357 1_555
O43 Rb14 3.231678 1_555
O44 Te8 1.945544 1_555
O44 Te2 2.104244 1_555
O44 Rb9 3.071138 1_655
O45 Te29 1.953395 1_555
O45 Te30 1.998499 1_565
O45 Rb15 3.095102 1_555
O46 Te14 2.002201 1_555
O46 Te13 2.002364 1_555
O46 Rb1 3.182369 1_555
O46 Rb14 3.297306 1_555
O47 Te3 1.950735 1_555
O47 Te10 2.010357 1_555
O47 Rb6 3.231678 1_555
O48 Te13 1.945654 1_555
O48 Te5 2.103506 1_555
O48 Rb4 3.070565 1_555
O49 Te20 1.906498 1_555
O49 Te5 2.218166 1_555
O49 Rb13 3.162257 1_555
O49 Rb4 3.213693 1_555
O50 Te20 1.990928 1_555
O50 Te15 1.990954 1_555
O50 Rb7 3.170348 1_555
O50 Rb12 3.487917 1_555
O51 Te28 1.978457 1_555
O51 Te0 1.979957 1_465
O51 Rb10 3.359001 1_555
O51 Rb5 3.373459 1_555
O52 Te8 2.002201 1_556
O52 Te21 2.002364 1_545
O52 Rb15 3.182369 1_545
O52 Rb7 3.297306 1_555
O53 Te25 1.915254 1_555
O53 Te26 2.195508 1_555
O53 Rb10 3.178691 1_655
O53 Rb4 3.194744 1_655
O54 Te14 1.956670 1_555
O54 Te26 2.074186 1_555
O54 Rb10 3.032031 1_655
O54 Rb2 3.192524 1_555
O55 Te27 1.978457 1_555
O55 Te10 1.979957 1_556
O55 Rb7 3.359001 1_555
O55 Rb12 3.373459 1_555
O56 Te31 1.915091 1_555
O56 Te26 2.197825 1_555
O56 Rb10 3.176373 1_555
O56 Rb4 3.184046 1_555
O57 Te10 1.978457 1_555
O57 Te27 1.979957 1_454
O57 Rb6 3.359001 1_555
O57 Rb3 3.373459 1_555
O58 Te21 1.956132 1_554
O58 Te7 2.073795 1_555
O58 Rb6 3.030210 1_555
O58 Rb11 3.194027 1_554
O59 Te23 1.962569 1_555
O59 Te1 2.035895 1_555
O59 Rb3 3.166052 1_655
O59 Rb1 3.388252 1_555
O60 Te27 1.893918 1_555
O60 Te12 2.362847 1_655
O60 Rb12 2.930183 1_555
O60 Rb11 3.080417 1_555
O61 Te25 1.906498 1_555
O61 Te19 2.218166 1_655
O61 Rb11 3.162257 1_555
O61 Rb15 3.213693 1_555
O62 Te8 1.956132 1_556
O62 Te16 2.073795 1_655
O62 Rb7 3.030210 1_555
O62 Rb0 3.194027 1_656
O63 Te4 1.953395 1_555
O63 Te22 1.998499 1_545
O63 Rb9 3.095102 1_555
O64 Te28 1.893918 1_545
O64 Te30 2.362847 1_555
O64 Rb5 2.930183 1_545
O64 Rb13 3.080417 1_555
O65 Te14 1.956132 1_555
O65 Te9 2.073795 1_655
O65 Rb14 3.030210 1_555
O65 Rb13 3.194027 1_655
O66 Te0 1.894135 1_555
O66 Te30 2.358163 1_555
O66 Rb5 2.937481 1_645
O66 Rb13 3.097319 1_655
O67 Te29 1.950735 1_555
O67 Te28 2.010357 1_555
O67 Rb10 3.231678 1_555
O68 Te23 1.906546 1_555
O68 Te2 2.215829 1_555
O68 Rb0 3.164745 1_655
O68 Rb9 3.228188 1_655
O69 Te4 1.949433 1_555
O69 Te28 2.009560 1_545
O69 Rb14 3.250454 1_555
O70 Te28 1.894135 1_555
O70 Te22 2.358163 1_555
O70 Rb8 2.937481 1_565
O70 Rb2 3.097319 1_555
O71 Te18 1.961893 1_555
O71 Te1 2.035489 1_555
O71 Rb3 3.168610 1_555
O71 Rb1 3.398280 1_555
O72 Te18 1.915254 1_555
O72 Te9 2.195508 1_555
O72 Rb14 3.178691 1_555
O72 Rb1 3.194744 1_555
O73 Te9 1.943655 1_555
O73 Te4 1.969347 1_555
O73 Rb13 3.097808 1_555
O74 Te15 1.906546 1_555
O74 Te5 2.215829 1_555
O74 Rb13 3.164745 1_655
O74 Rb4 3.228188 1_655
O75 Te0 1.978457 1_555
O75 Te28 1.979957 1_545
O75 Rb14 3.359001 1_555
O75 Rb8 3.373459 1_555
O76 Te24 1.915254 1_555
O76 Te7 2.195508 1_555
O76 Rb6 3.178691 1_655
O76 Rb9 3.194744 1_665
O77 Te11 1.975796 1_555
O77 Te24 1.976017 1_555
O77 Rb2 3.289856 1_555
O77 Rb8 3.359516 1_565
O78 Te23 1.975796 1_455
O78 Te18 1.976017 1_555
O78 Rb0 3.289856 1_555
O78 Rb3 3.359516 1_555
O79 Te2 1.856238 1_555
O79 Te1 2.568107 1_555
O79 Rb7 2.924636 1_554
O80 Te0 1.893918 1_565
O80 Te22 2.362847 1_655
O80 Rb8 2.930183 1_565
O80 Rb2 3.080417 1_555
O81 Te15 1.975796 1_455
O81 Te20 1.976017 1_555
O81 Rb13 3.289856 1_555
O81 Rb5 3.359516 1_545
O82 Te10 1.894135 1_556
O82 Te12 2.358163 1_555
O82 Rb12 2.937481 1_555
O82 Rb11 3.097319 1_555
O83 Te17 1.950735 1_655
O83 Te27 2.010357 1_555
O83 Rb7 3.231678 1_555
O84 Te6 1.856238 1_555
O84 Te22 2.568107 1_555
O84 Rb10 2.924636 1_555
O85 Te21 1.945544 1_555
O85 Te19 2.104244 1_555
O85 Rb15 3.071138 1_555
O86 Te13 1.956132 1_555
O86 Te26 2.073795 1_555
O86 Rb10 3.030210 1_555
O86 Rb2 3.194027 1_555
O87 Te21 2.002201 1_554
O87 Te8 2.002364 1_465
O87 Rb9 3.182369 1_565
O87 Rb6 3.297306 1_555
O88 Te31 1.962569 1_555
O88 Te12 2.035895 1_555
O88 Rb12 3.166052 1_555
O88 Rb4 3.388252 1_555
O89 Te24 1.906498 1_555
O89 Te6 2.218166 1_655
O89 Rb2 3.162257 1_555
O89 Rb1 3.213693 1_555
O90 Te24 1.961893 1_555
O90 Te22 2.035489 1_655
O90 Rb8 3.168610 1_565
O90 Rb9 3.398280 1_665
O91 Te29 1.951867 1_555
O91 Te31 2.018115 1_555
O91 Rb5 3.249487 1_555
