# generated using pymatgen
data_H9C3N3O2
_symmetry_space_group_name_H-M   'P 1'
_cell_length_a   7.00514200
_cell_length_b   7.38468600
_cell_length_c   12.07735900
_cell_angle_alpha   90.00000000
_cell_angle_beta   90.00000000
_cell_angle_gamma   90.00000000
_symmetry_Int_Tables_number   1
_chemical_formula_structural   H9C3N3O2
_chemical_formula_sum   'H36 C12 N12 O8'
_cell_volume   624.77112962
_cell_formula_units_Z   4
loop_
 _symmetry_equiv_pos_site_id
 _symmetry_equiv_pos_as_xyz
  1  'x, y, z'
loop_
 _atom_site_type_symbol
 _atom_site_label
 _atom_site_symmetry_multiplicity
 _atom_site_fract_x
 _atom_site_fract_y
 _atom_site_fract_z
 _atom_site_occupancy
  H  H0  1  0.87508300  0.55686800  0.55416000  1
  H  H1  1  0.16967900  0.22990900  0.57021200  1
  H  H2  1  0.37508300  0.94313200  0.44584000  1
  H  H3  1  0.19188600  0.89203900  0.22512900  1
  H  H4  1  0.83032100  0.72990900  0.92978800  1
  H  H5  1  0.73344400  0.87894900  0.63454100  1
  H  H6  1  0.23344400  0.62105100  0.36545900  1
  H  H7  1  0.59600300  0.38791800  0.55100400  1
  H  H8  1  0.30811400  0.10796100  0.72512900  1
  H  H9  1  0.93571300  0.50981400  0.91918900  1
  H  H10  1  0.61813800  0.78775700  0.19882200  1
  H  H11  1  0.38186200  0.28775700  0.30117800  1
  H  H12  1  0.05386000  0.41846300  0.24373800  1
  H  H13  1  0.56428700  0.49018600  0.41918900  1
  H  H14  1  0.44614000  0.58153700  0.74373800  1
  H  H15  1  0.76655600  0.12105100  0.13454100  1
  H  H16  1  0.40399700  0.88791800  0.94899600  1
  H  H17  1  0.26655600  0.37894900  0.86545900  1
  H  H18  1  0.12491700  0.05686800  0.94584000  1
  H  H19  1  0.90399700  0.61208200  0.05100400  1
  H  H20  1  0.06428700  0.00981400  0.58081100  1
  H  H21  1  0.17987900  0.59563000  0.50723700  1
  H  H22  1  0.09600300  0.11208200  0.44899600  1
  H  H23  1  0.82012100  0.09563000  0.99276300  1
  H  H24  1  0.88186200  0.21224300  0.69882200  1
  H  H25  1  0.66967900  0.27009100  0.42978800  1
  H  H26  1  0.32012100  0.40437000  0.00723700  1
  H  H27  1  0.43571300  0.99018600  0.08081100  1
  H  H28  1  0.67987900  0.90437000  0.49276300  1
  H  H29  1  0.33032100  0.77009100  0.07021200  1
  H  H30  1  0.11813800  0.71224300  0.80117800  1
  H  H31  1  0.94614000  0.91846300  0.25626200  1
  H  H32  1  0.69188600  0.60796100  0.77487100  1
  H  H33  1  0.62491700  0.44313200  0.05416000  1
  H  H34  1  0.55386000  0.08153700  0.75626200  1
  H  H35  1  0.80811400  0.39203900  0.27487100  1
  C  C0  1  0.52317500  0.50387100  0.90074700  1
  C  C1  1  0.41190100  0.33332100  0.21490300  1
  C  C2  1  0.91190100  0.16667900  0.78509700  1
  C  C3  1  0.47682500  0.00387100  0.59925300  1
  C  C4  1  0.65995400  0.40424600  0.46881100  1
  C  C5  1  0.15995400  0.09575400  0.53118900  1
  C  C6  1  0.84004600  0.59575400  0.96881100  1
  C  C7  1  0.97682500  0.49612900  0.40074700  1
  C  C8  1  0.58809900  0.83332100  0.28509700  1
  C  C9  1  0.08809900  0.66667900  0.71490300  1
  C  C10  1  0.34004600  0.90424600  0.03118900  1
  C  C11  1  0.02317500  0.99612900  0.09925300  1
  N  N0  1  0.35118500  0.43315100  0.92550500  1
  N  N1  1  0.05844100  0.93379900  0.20130400  1
  N  N2  1  0.94155900  0.43379900  0.29869600  1
  N  N3  1  0.64881500  0.93315100  0.57449500  1
  N  N4  1  0.14881500  0.56684900  0.42550500  1
  N  N5  1  0.65293000  0.51488500  0.98199100  1
  N  N6  1  0.85118500  0.06684900  0.07449500  1
  N  N7  1  0.44155900  0.06620100  0.70130400  1
  N  N8  1  0.84707000  0.48511500  0.48199100  1
  N  N9  1  0.15293000  0.98511500  0.01800900  1
  N  N10  1  0.55844100  0.56620100  0.79869600  1
  N  N11  1  0.34707000  0.01488500  0.51800900  1
  O  O0  1  0.72876000  0.88820900  0.34163500  1
  O  O1  1  0.08524000  0.17448100  0.81695800  1
  O  O2  1  0.58524000  0.32551900  0.18304200  1
  O  O3  1  0.41476000  0.82551900  0.31695800  1
  O  O4  1  0.91476000  0.67448100  0.68304200  1
  O  O5  1  0.77124000  0.11179100  0.84163500  1
  O  O6  1  0.27124000  0.38820900  0.15836500  1
  O  O7  1  0.22876000  0.61179100  0.65836500  1
loop_
_geom_bond_atom_site_label_1
_geom_bond_atom_site_label_2
_geom_bond_distance
_geom_bond_site_symmetry_2
H0 N8 1.038739 1_555
H2 N11 1.038739 1_565
H3 N1 1.025549 1_555
H5 N3 1.018617 1_555
H6 N4 1.018617 1_555
H8 N7 1.025549 1_555
H12 N2 1.035499 1_455
H14 N10 1.035499 1_555
H15 N6 1.018617 1_555
H17 N0 1.018617 1_555
H18 N9 1.038739 1_546
H21 N4 1.032911 1_555
H23 N6 1.032911 1_556
H26 N0 1.032911 1_554
H28 N3 1.032911 1_555
H31 N1 1.035499 1_655
H32 N10 1.025549 1_555
H33 N5 1.038739 1_554
H34 N7 1.035499 1_555
H35 N2 1.025549 1_555
C0 N10 1.338644 1_555
C0 N5 1.339996 1_555
C0 N0 1.346746 1_555
C1 H11 1.114991 1_555
C1 O6 1.265490 1_555
C1 O2 1.275079 1_555
C2 H24 1.114991 1_555
C2 O5 1.265490 1_555
C2 O1 1.275079 1_655
C3 N7 1.338644 1_555
C3 N11 1.339996 1_555
C3 N3 1.346746 1_545
C4 H7 1.095734 1_555
C4 H25 1.099196 1_555
C4 H13 1.100476 1_555
C4 N8 1.449174 1_555
C5 H22 1.095734 1_555
C5 H1 1.099196 1_555
C5 H20 1.100476 1_555
C5 N11 1.449174 1_555
C6 H19 1.095734 1_556
C6 H4 1.099196 1_555
C6 H9 1.100476 1_555
C6 N5 1.449174 1_555
C7 N2 1.338644 1_555
C7 N8 1.339996 1_555
C7 N4 1.346746 1_655
C8 H10 1.114991 1_555
C8 O0 1.265490 1_555
C8 O3 1.275079 1_555
C9 H30 1.114991 1_555
C9 O7 1.265490 1_555
C9 O4 1.275079 1_455
C10 H16 1.095734 1_554
C10 H29 1.099196 1_555
C10 H27 1.100476 1_555
C10 N9 1.449174 1_555
C11 N1 1.338644 1_555
C11 N9 1.339996 1_555
C11 N6 1.346746 1_465
