# generated using pymatgen
data_TmFe2
_symmetry_space_group_name_H-M   'P 1'
_cell_length_a   5.11731412
_cell_length_b   5.11654628
_cell_length_c   5.11725101
_cell_angle_alpha   60.00642671
_cell_angle_beta   60.01167458
_cell_angle_gamma   60.01093172
_symmetry_Int_Tables_number   1
_chemical_formula_structural   TmFe2
_chemical_formula_sum   'Tm2 Fe4'
_cell_volume   94.76238407
_cell_formula_units_Z   2
loop_
 _symmetry_equiv_pos_site_id
 _symmetry_equiv_pos_as_xyz
  1  'x, y, z'
loop_
 _atom_site_type_symbol
 _atom_site_label
 _atom_site_symmetry_multiplicity
 _atom_site_fract_x
 _atom_site_fract_y
 _atom_site_fract_z
 _atom_site_occupancy
  Tm  Tm0  1  0.87496523  0.87501824  0.87497815  1
  Tm  Tm1  1  0.12503477  0.12498176  0.12502185  1
  Fe  Fe0  1  0.50000000  0.00000000  0.50000000  1
  Fe  Fe1  1  0.00000000  0.50000000  0.50000000  1
  Fe  Fe2  1  0.50000000  0.50000000  0.50000000  1
  Fe  Fe3  1  0.50000000  0.50000000  -0.00000000  1
loop_
_geom_bond_atom_site_label_1
_geom_bond_atom_site_label_2
_geom_bond_distance
_geom_bond_site_symmetry_2
Tm0 Tm1 3.133624 1_666
Tm0 Tm1 3.133703 1_656
Tm0 Tm1 3.133823 1_665
Tm0 Tm1 3.133896 1_566
Fe0 Fe2 2.558273 1_555
Fe0 Fe2 2.558273 1_545
Fe0 Fe3 2.558698 1_555
Fe0 Fe3 2.558698 1_546
Fe0 Fe1 2.558888 1_645
Fe0 Fe1 2.558888 1_555
Fe0 Tm0 2.999996 1_545
Fe0 Tm1 2.999996 1_555
Fe0 Tm0 3.000635 1_544
Fe0 Tm1 3.000635 1_556
Fe0 Tm0 3.000650 1_445
Fe0 Tm1 3.000650 1_655
Fe1 Fe2 2.558657 1_555
Fe1 Fe2 2.558657 1_455
Fe1 Fe3 2.559093 1_555
Fe1 Fe3 2.559093 1_456
Fe1 Tm1 2.999955 1_555
Fe1 Tm0 2.999955 1_455
Fe1 Tm0 3.000037 1_445
Fe1 Tm1 3.000037 1_565
Fe1 Tm0 3.000575 1_454
Fe1 Tm1 3.000575 1_556
Fe2 Fe3 2.558626 1_555
Fe2 Fe3 2.558626 1_556
Fe2 Tm0 3.000233 1_545
Fe2 Tm1 3.000233 1_565
Fe2 Tm0 3.000520 1_554
Fe2 Tm1 3.000520 1_556
Fe2 Tm1 3.000806 1_655
Fe2 Tm0 3.000806 1_455
Fe3 Tm0 2.999838 1_554
Fe3 Tm1 2.999838 1_555
Fe3 Tm0 3.000191 1_544
Fe3 Tm1 3.000191 1_565
Fe3 Tm0 3.000745 1_454
Fe3 Tm1 3.000745 1_655
