# generated using pymatgen
data_Cu3(AsO4)2
_symmetry_space_group_name_H-M   'P 1'
_cell_length_a   6.30723407
_cell_length_b   8.64152587
_cell_length_c   11.32661518
_cell_angle_alpha   90.00000000
_cell_angle_beta   92.59813063
_cell_angle_gamma   90.00000000
_symmetry_Int_Tables_number   1
_chemical_formula_structural   Cu3(AsO4)2
_chemical_formula_sum   'Cu12 As8 O32'
_cell_volume   616.71266272
_cell_formula_units_Z   4
loop_
 _symmetry_equiv_pos_site_id
 _symmetry_equiv_pos_as_xyz
  1  'x, y, z'
loop_
 _atom_site_type_symbol
 _atom_site_label
 _atom_site_symmetry_multiplicity
 _atom_site_fract_x
 _atom_site_fract_y
 _atom_site_fract_z
 _atom_site_occupancy
  Cu  Cu0  1  0.23912331  0.16003429  0.63327960  1
  Cu  Cu1  1  0.76087669  0.66003429  0.86672040  1
  Cu  Cu2  1  0.76087669  0.83996571  0.36672040  1
  Cu  Cu3  1  0.23912331  0.33996571  0.13327960  1
  Cu  Cu4  1  0.61653980  0.02886472  0.87850657  1
  Cu  Cu5  1  0.38346020  0.52886472  0.62149343  1
  Cu  Cu6  1  0.38346020  0.97113528  0.12149343  1
  Cu  Cu7  1  0.61653980  0.47113528  0.37850657  1
  Cu  Cu8  1  0.90894244  0.19088716  0.43163603  1
  Cu  Cu9  1  0.09105756  0.69088716  0.06836397  1
  Cu  Cu10  1  0.09105756  0.80911284  0.56836397  1
  Cu  Cu11  1  0.90894244  0.30911284  0.93163603  1
  As  As0  1  0.41582132  0.11543824  0.36800324  1
  As  As1  1  0.58417868  0.61543924  0.13199676  1
  As  As2  1  0.58417868  0.88456076  0.63199676  1
  As  As3  1  0.41582132  0.38456176  0.86800324  1
  As  As4  1  0.89616860  0.06195562  0.15095693  1
  As  As5  1  0.10383140  0.56195562  0.34904307  1
  As  As6  1  0.10383140  0.93804438  0.84904307  1
  As  As7  1  0.89616860  0.43804438  0.65095693  1
  O  O0  1  0.60669650  0.24294100  0.41855445  1
  O  O1  1  0.39330350  0.74294100  0.08144455  1
  O  O2  1  0.39330350  0.75705900  0.58144455  1
  O  O3  1  0.60669650  0.25705900  0.91855445  1
  O  O4  1  0.95671379  0.24585738  0.10553428  1
  O  O5  1  0.04328621  0.74585738  0.39446572  1
  O  O6  1  0.04328621  0.75414262  0.89446572  1
  O  O7  1  0.95671379  0.25414262  0.60553428  1
  O  O8  1  0.20304161  0.13306173  0.45528028  1
  O  O9  1  0.79695839  0.63306273  0.04471972  1
  O  O10  1  0.79695839  0.86693727  0.54471972  1
  O  O11  1  0.20304161  0.36693827  0.95528028  1
  O  O12  1  0.08609726  0.93093965  0.11887104  1
  O  O13  1  0.91390274  0.43093965  0.38112896  1
  O  O14  1  0.91390274  0.06906035  0.88112896  1
  O  O15  1  0.08609726  0.56906035  0.61887104  1
  O  O16  1  0.34202720  0.15614029  0.22339981  1
  O  O17  1  0.65797380  0.65614029  0.27660019  1
  O  O18  1  0.65797380  0.84385971  0.77660019  1
  O  O19  1  0.34202720  0.34385971  0.72339981  1
  O  O20  1  0.67065036  0.99577830  0.08185577  1
  O  O21  1  0.32934964  0.49577930  0.41814423  1
  O  O22  1  0.32934964  0.00422070  0.91814423  1
  O  O23  1  0.67065036  0.50422170  0.58185577  1
  O  O24  1  0.48451295  0.92729624  0.36673608  1
  O  O25  1  0.51548705  0.42729624  0.13326392  1
  O  O26  1  0.51548705  0.07270376  0.63326392  1
  O  O27  1  0.48451295  0.57270376  0.86673608  1
  O  O28  1  0.86861925  0.05131383  0.29974303  1
  O  O29  1  0.13138075  0.55131383  0.20025697  1
  O  O30  1  0.13138075  0.94868617  0.70025697  1
  O  O31  1  0.86861925  0.44868617  0.79974303  1
loop_
_geom_bond_atom_site_label_1
_geom_bond_atom_site_label_2
_geom_bond_distance
_geom_bond_site_symmetry_2
Cu0 O26 1.899452 1_555
Cu0 O7 1.970311 1_455
Cu0 O19 1.981557 1_555
Cu0 O8 2.032068 1_555
Cu0 O30 2.102303 1_545
Cu1 O27 1.899452 1_555
Cu1 O6 1.970311 1_655
Cu1 O18 1.981555 1_555
Cu1 O9 2.032067 1_556
Cu1 O31 2.102303 1_555
Cu2 O24 1.899452 1_555
Cu2 O5 1.970311 1_655
Cu2 O17 1.981555 1_555
Cu2 O10 2.032067 1_555
Cu2 O28 2.102303 1_565
Cu3 O25 1.899452 1_555
Cu3 O4 1.970311 1_455
Cu3 O16 1.981557 1_555
Cu3 O11 2.032068 1_554
Cu3 O29 2.102303 1_555
Cu4 O22 1.897822 1_555
Cu4 O14 1.906338 1_555
Cu4 O18 1.995963 1_545
Cu4 O3 2.025029 1_555
Cu4 O20 2.330656 1_546
Cu5 O23 1.897821 1_555
Cu5 O15 1.906338 1_555
Cu5 O19 1.995962 1_555
Cu5 O2 2.025031 1_555
Cu5 O21 2.330655 1_555
Cu6 O20 1.897821 1_555
Cu6 O12 1.906338 1_555
Cu6 O16 1.995962 1_565
Cu6 O1 2.025031 1_555
Cu6 O22 2.330655 1_564
Cu7 O21 1.897822 1_555
Cu7 O13 1.906338 1_555
Cu7 O17 1.995963 1_555
Cu7 O0 2.025029 1_555
Cu7 O23 2.330656 1_555
Cu8 O28 1.927879 1_555
Cu8 O8 1.928012 1_655
Cu8 O0 1.957755 1_555
Cu8 O7 2.053147 1_555
Cu8 O13 2.152461 1_555
Cu9 O29 1.927879 1_555
Cu9 O9 1.928010 1_455
Cu9 O1 1.957755 1_555
Cu9 O6 2.053147 1_554
Cu9 O12 2.152461 1_555
Cu10 O30 1.927879 1_555
Cu10 O10 1.928010 1_455
Cu10 O2 1.957755 1_555
Cu10 O5 2.053147 1_555
Cu10 O15 2.152461 1_555
Cu11 O31 1.927879 1_555
Cu11 O11 1.928012 1_655
Cu11 O3 1.957755 1_555
Cu11 O4 2.053147 1_556
Cu11 O14 2.152461 1_555
As0 O24 1.682800 1_545
As0 O8 1.709331 1_555
As0 O0 1.711348 1_555
As0 O16 1.718674 1_555
As1 O25 1.682808 1_555
As1 O9 1.709331 1_555
As1 O1 1.711346 1_555
As1 O17 1.718674 1_555
As2 O26 1.682808 1_565
As2 O10 1.709331 1_555
As2 O2 1.711346 1_555
As2 O18 1.718674 1_555
As3 O27 1.682800 1_555
As3 O11 1.709331 1_555
As3 O3 1.711348 1_555
As3 O19 1.718674 1_555
As4 O20 1.691718 1_545
As4 O12 1.699528 1_645
As4 O28 1.704477 1_555
As4 O4 1.718681 1_555
As5 O21 1.691715 1_555
As5 O13 1.699528 1_455
As5 O29 1.704477 1_555
As5 O5 1.718681 1_555
As6 O22 1.691715 1_565
As6 O14 1.699528 1_465
As6 O30 1.704477 1_555
As6 O6 1.718681 1_555
As7 O23 1.691718 1_555
As7 O15 1.699528 1_655
As7 O31 1.704477 1_555
As7 O7 1.718681 1_555
