# generated using pymatgen
data_Ba2TiOF6
_symmetry_space_group_name_H-M   'P 1'
_cell_length_a   7.47990073
_cell_length_b   7.47990073
_cell_length_c   7.32897958
_cell_angle_alpha   62.51077590
_cell_angle_beta   62.51077590
_cell_angle_gamma   78.24439598
_symmetry_Int_Tables_number   1
_chemical_formula_structural   Ba2TiOF6
_chemical_formula_sum   'Ba4 Ti2 O2 F12'
_cell_volume   322.66182527
_cell_formula_units_Z   2
loop_
 _symmetry_equiv_pos_site_id
 _symmetry_equiv_pos_as_xyz
  1  'x, y, z'
loop_
 _atom_site_type_symbol
 _atom_site_label
 _atom_site_symmetry_multiplicity
 _atom_site_fract_x
 _atom_site_fract_y
 _atom_site_fract_z
 _atom_site_occupancy
  Ba  Ba0  1  0.17719800  0.41924800  0.15622100  1
  Ba  Ba1  1  0.17328200  0.82743000  0.50068100  1
  Ba  Ba2  1  0.82743000  0.17328200  0.00068100  1
  Ba  Ba3  1  0.41924800  0.17719800  0.65622100  1
  Ti  Ti0  1  0.68009600  0.66723600  0.08620300  1
  Ti  Ti1  1  0.66723600  0.68009600  0.58620300  1
  O  O0  1  0.60641200  0.73121100  0.36429700  1
  O  O1  1  0.73121100  0.60641200  0.86429700  1
  F  F0  1  0.15555600  0.07302900  0.10812700  1
  F  F1  1  0.57338900  0.39916300  0.76400900  1
  F  F2  1  0.60502200  0.94160400  0.94935200  1
  F  F3  1  0.39742100  0.76150300  0.76450600  1
  F  F4  1  0.94798700  0.76099100  0.97986700  1
  F  F5  1  0.44565300  0.15476900  0.28363700  1
  F  F6  1  0.15476900  0.44565300  0.78363700  1
  F  F7  1  0.94160400  0.60502200  0.44935200  1
  F  F8  1  0.76150300  0.39742100  0.26450600  1
  F  F9  1  0.39916300  0.57338900  0.26400900  1
  F  F10  1  0.07302900  0.15555600  0.60812700  1
  F  F11  1  0.76099100  0.94798700  0.47986700  1
loop_
_geom_bond_atom_site_label_1
_geom_bond_atom_site_label_2
_geom_bond_distance
_geom_bond_site_symmetry_2
Ba0 F5 2.687885 1_555
Ba0 F6 2.726754 1_554
Ba0 F9 2.746184 1_555
Ba0 F10 2.771297 1_555
Ba0 F7 2.813339 1_455
Ba0 F0 2.814797 1_555
Ba0 F3 2.841994 1_554
Ba0 F8 2.851980 1_455
Ba0 F4 2.890334 1_454
Ba0 F1 3.069333 1_554
Ba1 F6 2.627461 1_555
Ba1 F0 2.653932 1_565
Ba1 F10 2.774059 1_565
Ba1 F5 2.849783 1_565
Ba1 F7 2.875126 1_455
Ba1 F9 2.916024 1_555
Ba1 F3 2.927140 1_555
Ba1 F4 2.947387 1_455
Ba1 O0 2.955960 1_555
Ba1 F11 3.085610 1_455
Ba1 O1 3.285462 1_455
Ba2 F5 2.627461 1_555
Ba2 F10 2.653932 1_654
Ba2 F0 2.774059 1_655
Ba2 F6 2.849783 1_654
Ba2 F2 2.875126 1_544
Ba2 F1 2.916024 1_554
Ba2 F8 2.927140 1_555
Ba2 F11 2.947387 1_545
Ba2 O1 2.955960 1_554
Ba2 F4 3.085610 1_544
Ba2 O0 3.285462 1_545
Ba3 F6 2.687885 1_555
Ba3 F5 2.726754 1_555
Ba3 F1 2.746184 1_555
Ba3 F0 2.771297 1_556
Ba3 F2 2.813339 1_545
Ba3 F10 2.814797 1_555
Ba3 F8 2.841994 1_555
Ba3 F3 2.851980 1_545
Ba3 F11 2.890334 1_545
Ba3 F9 3.069333 1_555
O0 Ti1 1.742503 1_555
O0 Ti0 2.107767 1_555
O1 Ti0 1.742503 1_556
O1 Ti1 2.107767 1_555
F1 Ti1 1.958377 1_555
F2 Ti0 1.919158 1_556
F3 Ti1 1.987633 1_555
F4 Ti0 1.934109 1_556
F7 Ti1 1.919158 1_555
F8 Ti0 1.987633 1_555
F9 Ti0 1.958377 1_555
F11 Ti1 1.934109 1_555
