# generated using pymatgen
data_MgAl2O4
_symmetry_space_group_name_H-M   'P 1'
_cell_length_a   19.21121130
_cell_length_b   19.21121130
_cell_length_c   19.21121096
_cell_angle_alpha   17.24484730
_cell_angle_beta   17.24484730
_cell_angle_gamma   17.24484761
_symmetry_Int_Tables_number   1
_chemical_formula_structural   MgAl2O4
_chemical_formula_sum   'Mg8 Al16 O32'
_cell_volume   543.72606343
_cell_formula_units_Z   8
loop_
 _symmetry_equiv_pos_site_id
 _symmetry_equiv_pos_as_xyz
  1  'x, y, z'
loop_
 _atom_site_type_symbol
 _atom_site_label
 _atom_site_symmetry_multiplicity
 _atom_site_fract_x
 _atom_site_fract_y
 _atom_site_fract_z
 _atom_site_occupancy
  Mg  Mg0  1  0.15540300  0.15540300  0.15540300  1
  Mg  Mg1  1  0.40529100  0.40529100  0.40529100  1
  Mg  Mg2  1  0.74965800  0.74965800  0.74965800  1
  Mg  Mg3  1  0.65537600  0.65537600  0.65537600  1
  Mg  Mg4  1  0.90599500  0.90599500  0.90599500  1
  Mg  Mg5  1  0.99936100  0.99936100  0.99936100  1
  Mg  Mg6  1  0.59448100  0.59448100  0.59448100  1
  Mg  Mg7  1  0.49961400  0.49961400  0.49961400  1
  Al  Al0  1  0.62020800  0.62020800  0.13522900  1
  Al  Al1  1  0.13522900  0.62020800  0.62020800  1
  Al  Al2  1  0.62020800  0.13522900  0.62020800  1
  Al  Al3  1  0.87067600  0.87067600  0.38438200  1
  Al  Al4  1  0.38438200  0.87067600  0.87067600  1
  Al  Al5  1  0.12215200  0.12215200  0.63048000  1
  Al  Al6  1  0.87067600  0.38438200  0.87067600  1
  Al  Al7  1  0.63048000  0.12215200  0.12215200  1
  Al  Al8  1  0.09507900  0.09507900  0.09507900  1
  Al  Al9  1  0.12215200  0.63048000  0.12215200  1
  Al  Al10  1  0.37275000  0.37275000  0.88055100  1
  Al  Al11  1  0.88055100  0.37275000  0.37275000  1
  Al  Al12  1  0.34530800  0.34530800  0.34530800  1
  Al  Al13  1  0.25053700  0.25053700  0.25053700  1
  Al  Al14  1  0.37275000  0.88055100  0.37275000  1
  Al  Al15  1  0.84417500  0.84417500  0.84417500  1
  O  O0  1  0.32359800  0.78261200  0.32359800  1
  O  O1  1  0.78261200  0.32359800  0.32359800  1
  O  O2  1  0.44002100  0.44002100  0.44002100  1
  O  O3  1  0.32359800  0.32359800  0.78261200  1
  O  O4  1  0.57358000  0.03221600  0.57358000  1
  O  O5  1  0.93310000  0.93310000  0.45220000  1
  O  O6  1  0.45220000  0.93310000  0.93310000  1
  O  O7  1  0.03221600  0.57358000  0.57358000  1
  O  O8  1  0.68997200  0.68997200  0.68997200  1
  O  O9  1  0.81121300  0.81121300  0.81121300  1
  O  O10  1  0.57358000  0.57358000  0.03221600  1
  O  O11  1  0.93310000  0.45220000  0.93310000  1
  O  O12  1  0.82197800  0.28374400  0.82197800  1
  O  O13  1  0.18248700  0.18248700  0.70353100  1
  O  O14  1  0.70353100  0.18248700  0.18248700  1
  O  O15  1  0.06165500  0.06165500  0.06165500  1
  O  O16  1  0.28374400  0.82197800  0.82197800  1
  O  O17  1  0.93997200  0.93997200  0.93997200  1
  O  O18  1  0.82197800  0.82197800  0.28374400  1
  O  O19  1  0.18248700  0.70353100  0.18248700  1
  O  O20  1  0.08075900  0.52325900  0.08075900  1
  O  O21  1  0.41832200  0.41832200  0.97970100  1
  O  O22  1  0.97970100  0.41832200  0.41832200  1
  O  O23  1  0.31246700  0.31246700  0.31246700  1
  O  O24  1  0.19070700  0.19070700  0.19070700  1
  O  O25  1  0.52325900  0.08075900  0.08075900  1
  O  O26  1  0.41832200  0.97970100  0.41832200  1
  O  O27  1  0.08075900  0.08075900  0.52325900  1
  O  O28  1  0.68638800  0.68638800  0.19555800  1
  O  O29  1  0.19555800  0.68638800  0.68638800  1
  O  O30  1  0.55825400  0.55825400  0.55825400  1
  O  O31  1  0.68638800  0.19555800  0.68638800  1
loop_
_geom_bond_atom_site_label_1
_geom_bond_atom_site_label_2
_geom_bond_distance
_geom_bond_site_symmetry_2
Mg0 O3 1.926512 1_554
Mg0 O1 1.926512 1_455
Mg0 O0 1.926512 1_545
Mg0 O24 2.003977 1_555
Mg1 O10 1.928336 1_555
Mg1 O7 1.928336 1_555
Mg1 O4 1.928336 1_555
Mg1 O2 1.971395 1_555
Mg2 O4 2.015126 1_565
Mg2 O7 2.015126 1_655
Mg2 O10 2.015126 1_556
Mg2 O6 2.069671 1_555
Mg2 O11 2.069671 1_555
Mg2 O5 2.069671 1_555
Mg3 O18 1.932072 1_555
Mg3 O12 1.932072 1_555
Mg3 O16 1.932072 1_555
Mg3 O8 1.963788 1_555
Mg4 O17 1.928652 1_555
Mg4 O27 1.957683 1_665
Mg4 O25 1.957683 1_566
Mg4 O20 1.957683 1_656
Mg5 O12 2.032717 1_565
Mg5 O16 2.032717 1_655
Mg5 O18 2.032717 1_556
Mg5 O19 2.076720 1_656
Mg5 O14 2.076720 1_566
Mg5 O13 2.076720 1_665
Mg6 O21 1.968066 1_555
Mg6 O22 1.968066 1_555
Mg6 O26 1.968066 1_555
Mg6 O30 2.056370 1_555
Mg7 O0 2.009123 1_555
Mg7 O1 2.009123 1_555
Mg7 O3 2.009123 1_555
Mg7 O31 2.096079 1_555
Mg7 O29 2.096079 1_555
Mg7 O28 2.096079 1_555
Al0 O1 1.876156 1_555
Al0 O0 1.876156 1_555
Al0 O2 1.925497 1_555
Al0 O6 1.981288 1_554
Al0 O11 1.981288 1_554
Al0 O9 2.034182 1_554
Al1 O3 1.876156 1_555
Al1 O0 1.876156 1_555
Al1 O2 1.925497 1_555
Al1 O5 1.981288 1_455
Al1 O11 1.981288 1_455
Al1 O9 2.034182 1_455
Al2 O3 1.876156 1_555
Al2 O1 1.876156 1_555
Al2 O2 1.925497 1_555
Al2 O5 1.981288 1_545
Al2 O6 1.981288 1_545
Al2 O9 2.034182 1_545
Al3 O7 1.872298 1_655
Al3 O4 1.872298 1_565
Al3 O8 1.931600 1_555
Al3 O14 1.976686 1_565
Al3 O19 1.976686 1_655
Al3 O15 2.043245 1_665
Al4 O10 1.872298 1_556
Al4 O4 1.872298 1_565
Al4 O8 1.931600 1_555
Al4 O13 1.976686 1_565
Al4 O19 1.976686 1_556
Al4 O15 2.043245 1_566
Al5 O16 1.877109 1_545
Al5 O12 1.877109 1_455
Al5 O22 1.934557 1_455
Al5 O26 1.934557 1_545
Al5 O17 1.936906 1_445
Al5 O23 2.064403 1_555
Al6 O10 1.872298 1_556
Al6 O7 1.872298 1_655
Al6 O8 1.931600 1_555
Al6 O13 1.976686 1_655
Al6 O14 1.976686 1_556
Al6 O15 2.043245 1_656
Al7 O18 1.877109 1_545
Al7 O12 1.877109 1_554
Al7 O21 1.934557 1_554
Al7 O26 1.934557 1_545
Al7 O17 1.936906 1_544
Al7 O23 2.064403 1_555
Al8 O5 1.836897 1_445
Al8 O6 1.836897 1_544
Al8 O11 1.836897 1_454
Al8 O15 1.897262 1_555
Al9 O18 1.877109 1_455
Al9 O16 1.877109 1_554
Al9 O21 1.934557 1_554
Al9 O22 1.934557 1_455
Al9 O17 1.936906 1_454
Al9 O23 2.064403 1_555
Al10 O25 1.915983 1_556
Al10 O20 1.915983 1_556
Al10 O30 1.923952 1_555
Al10 O24 1.928939 1_556
Al10 O29 1.988117 1_555
Al10 O31 1.988117 1_555
Al11 O27 1.915983 1_655
Al11 O20 1.915983 1_655
Al11 O30 1.923952 1_555
Al11 O24 1.928939 1_655
Al11 O28 1.988117 1_555
Al11 O31 1.988117 1_555
Al12 O13 1.839254 1_555
Al12 O14 1.839254 1_555
Al12 O19 1.839254 1_555
Al12 O23 1.864169 1_555
Al13 O26 1.904778 1_545
Al13 O22 1.904778 1_455
Al13 O21 1.904778 1_554
Al13 O25 1.940334 1_555
Al13 O20 1.940334 1_555
Al13 O27 1.940334 1_555
Al14 O27 1.915983 1_565
Al14 O25 1.915983 1_565
Al14 O30 1.923952 1_555
Al14 O24 1.928939 1_565
Al14 O28 1.988117 1_555
Al14 O29 1.988117 1_555
Al15 O28 1.823894 1_556
Al15 O29 1.823894 1_655
Al15 O31 1.823894 1_565
Al15 O9 1.871037 1_555
