# generated using pymatgen
data_Cs2MnV2(ClO3)2
_symmetry_space_group_name_H-M   'P 1'
_cell_length_a   5.67211426
_cell_length_b   9.43422931
_cell_length_c   11.63278100
_cell_angle_alpha   90.00000000
_cell_angle_beta   90.00000000
_cell_angle_gamma   107.49445372
_symmetry_Int_Tables_number   1
_chemical_formula_structural   Cs2MnV2(ClO3)2
_chemical_formula_sum   'Cs4 Mn2 V4 Cl4 O12'
_cell_volume   593.70089761
_cell_formula_units_Z   2
loop_
 _symmetry_equiv_pos_site_id
 _symmetry_equiv_pos_as_xyz
  1  'x, y, z'
loop_
 _atom_site_type_symbol
 _atom_site_label
 _atom_site_symmetry_multiplicity
 _atom_site_fract_x
 _atom_site_fract_y
 _atom_site_fract_z
 _atom_site_occupancy
  Cs  Cs0  1  0.62748400  0.25496800  0.07374700  1
  Cs  Cs1  1  0.62748400  0.25496800  0.57374700  1
  Cs  Cs2  1  0.37251600  0.74503200  0.07374700  1
  Cs  Cs3  1  0.37251600  0.74503200  0.57374700  1
  Mn  Mn0  1  0.00000000  0.00000000  0.82028500  1
  Mn  Mn1  1  0.00000000  0.00000000  0.32028500  1
  V  V0  1  0.80151100  0.60302200  0.31939400  1
  V  V1  1  0.19848900  0.39697800  0.31939400  1
  V  V2  1  0.80151100  0.60302200  0.81939400  1
  V  V3  1  0.19848900  0.39697800  0.81939400  1
  Cl  Cl0  1  0.00000000  0.00000000  0.02878000  1
  Cl  Cl1  1  0.00000000  0.00000000  0.52878000  1
  Cl  Cl2  1  0.50000000  0.00000000  0.31066700  1
  Cl  Cl3  1  0.50000000  0.00000000  0.81066700  1
  O  O0  1  0.79948900  0.59897800  0.46131700  1
  O  O1  1  0.79948900  0.59897800  0.96131700  1
  O  O2  1  0.20051100  0.40102200  0.46131700  1
  O  O3  1  0.20051100  0.40102200  0.96131700  1
  O  O4  1  0.00000000  0.50000000  0.26285900  1
  O  O5  1  0.00000000  0.50000000  0.76285900  1
  O  O6  1  0.50000000  0.50000000  0.26285900  1
  O  O7  1  0.50000000  0.50000000  0.76285900  1
  O  O8  1  0.10924200  0.21848400  0.26959200  1
  O  O9  1  0.10924200  0.21848400  0.76959200  1
  O  O10  1  0.89075800  0.78151600  0.26959200  1
  O  O11  1  0.89075800  0.78151600  0.76959200  1
loop_
_geom_bond_atom_site_label_1
_geom_bond_atom_site_label_2
_geom_bond_distance
_geom_bond_site_symmetry_2
Cs0 O1 3.360319 1_554
Cs0 O3 3.388334 1_554
Cs0 O3 3.388334 1_654
Cs0 O6 3.422183 1_555
Cs0 O4 3.422184 1_655
Cs0 O8 3.652572 1_655
Cs0 O8 3.652572 1_555
Cs1 O0 3.360319 1_555
Cs1 O2 3.388334 1_555
Cs1 O2 3.388334 1_655
Cs1 O7 3.422183 1_555
Cs1 O5 3.422184 1_655
Cs1 O9 3.652572 1_655
Cs1 O9 3.652572 1_555
Cs2 O3 3.360319 1_554
Cs2 O1 3.388334 1_554
Cs2 O1 3.388334 1_454
Cs2 O6 3.422183 1_555
Cs2 O4 3.422184 1_555
Cs2 O10 3.652572 1_455
Cs2 O10 3.652572 1_555
Cs3 O2 3.360319 1_555
Cs3 O0 3.388334 1_555
Cs3 O0 3.388334 1_455
Cs3 O7 3.422183 1_555
Cs3 O5 3.422184 1_555
Cs3 O11 3.652572 1_455
Cs3 O11 3.652572 1_555
Mn0 O9 2.052429 1_555
Mn0 O11 2.052429 1_445
Mn1 O8 2.052429 1_555
Mn1 O10 2.052429 1_445
Cl0 Mn0 2.425377 1_554
Cl0 Cs0 3.685111 1_455
Cl0 Cs2 3.685111 1_545
Cl0 Cs2 3.685111 1_445
Cl0 Cs0 3.685111 1_555
Cl1 Mn1 2.425377 1_555
Cl1 Cs1 3.685111 1_455
Cl1 Cs3 3.685111 1_545
Cl1 Cs3 3.685111 1_445
Cl1 Cs1 3.685111 1_555
Cl2 Mn1 2.838263 1_555
Cl2 Mn1 2.838263 1_655
Cl2 Cs2 3.585937 1_545
Cl2 Cs0 3.585937 1_555
Cl2 Cs1 3.824781 1_555
Cl2 Cs3 3.824781 1_545
Cl3 Mn0 2.838263 1_655
Cl3 Mn0 2.838263 1_555
Cl3 Cs3 3.585937 1_545
Cl3 Cs1 3.585937 1_555
Cl3 Cs0 3.824781 1_556
Cl3 Cs2 3.824781 1_546
O0 V0 1.651360 1_555
O1 V2 1.651360 1_555
O2 V1 1.651360 1_555
O3 V3 1.651360 1_555
O4 V0 1.817308 1_455
O4 V1 1.817308 1_555
O5 V2 1.817308 1_455
O5 V3 1.817308 1_555
O6 V0 1.817308 1_555
O6 V1 1.817308 1_555
O7 V2 1.817308 1_555
O7 V3 1.817308 1_555
O8 V1 1.707358 1_555
O9 V3 1.707358 1_555
O10 V0 1.707358 1_555
O11 V2 1.707358 1_555
