# generated using pymatgen
data_CuSb2H12(O3F4)2
_symmetry_space_group_name_H-M   'P 1'
_cell_length_a   18.12664500
_cell_length_b   5.08999600
_cell_length_c   7.89685064
_cell_angle_alpha   62.53858392
_cell_angle_beta   90.00000000
_cell_angle_gamma   90.00000000
_symmetry_Int_Tables_number   1
_chemical_formula_structural   CuSb2H12(O3F4)2
_chemical_formula_sum   'Cu2 Sb4 H24 O12 F16'
_cell_volume   646.50194983
_cell_formula_units_Z   2
loop_
 _symmetry_equiv_pos_site_id
 _symmetry_equiv_pos_as_xyz
  1  'x, y, z'
loop_
 _atom_site_type_symbol
 _atom_site_label
 _atom_site_symmetry_multiplicity
 _atom_site_fract_x
 _atom_site_fract_y
 _atom_site_fract_z
 _atom_site_occupancy
  Cu  Cu0  1  0.00000000  0.50000000  0.50000000  1
  Cu  Cu1  1  0.50000000  0.50000000  0.00000000  1
  Sb  Sb0  1  0.21787100  0.87664300  0.00889300  1
  Sb  Sb1  1  0.78212900  0.12335700  0.99110700  1
  Sb  Sb2  1  0.71787100  0.12335700  0.49110700  1
  Sb  Sb3  1  0.28212900  0.87664300  0.50889300  1
  H  H0  1  0.38298300  0.22949700  0.97096400  1
  H  H1  1  0.43991400  0.99162100  0.65692400  1
  H  H2  1  0.44467000  0.24104100  0.82422900  1
  H  H3  1  0.52175200  0.07854400  0.67081700  1
  H  H4  1  0.41131900  0.33532600  0.28413900  1
  H  H5  1  0.11214200  0.67038500  0.64254200  1
  H  H6  1  0.08868100  0.33532600  0.78413900  1
  H  H7  1  0.97824800  0.07854400  0.17081700  1
  H  H8  1  0.47824800  0.92145600  0.32918300  1
  H  H9  1  0.94467000  0.75895900  0.67577100  1
  H  H10  1  0.55533000  0.75895900  0.17577100  1
  H  H11  1  0.06008600  0.99162100  0.15692400  1
  H  H12  1  0.88298300  0.77050300  0.52903600  1
  H  H13  1  0.91131900  0.66467400  0.21586100  1
  H  H14  1  0.05533000  0.24104100  0.32422900  1
  H  H15  1  0.02175200  0.92145600  0.82918300  1
  H  H16  1  0.56008600  0.00837900  0.34307600  1
  H  H17  1  0.61214200  0.32961500  0.85745800  1
  H  H18  1  0.93991400  0.00837900  0.84307600  1
  H  H19  1  0.11701700  0.22949700  0.47096400  1
  H  H20  1  0.61701700  0.77050300  0.02903600  1
  H  H21  1  0.88785800  0.32961500  0.35745800  1
  H  H22  1  0.58868100  0.66467400  0.71586100  1
  H  H23  1  0.38785800  0.67038500  0.14254200  1
  O  O0  1  0.43019400  0.53037300  0.18684400  1
  O  O1  1  0.02486300  0.01891800  0.24292100  1
  O  O2  1  0.56980600  0.46962700  0.81315600  1
  O  O3  1  0.47513700  0.01891800  0.74292100  1
  O  O4  1  0.92228100  0.64171100  0.61412400  1
  O  O5  1  0.97513700  0.98108200  0.75707900  1
  O  O6  1  0.93019400  0.46962700  0.31315600  1
  O  O7  1  0.52486300  0.98108200  0.25707900  1
  O  O8  1  0.57771900  0.64171100  0.11412400  1
  O  O9  1  0.06980600  0.53037300  0.68684400  1
  O  O10  1  0.07771900  0.35828900  0.38587600  1
  O  O11  1  0.42228100  0.35828900  0.88587600  1
  F  F0  1  0.60130500  0.01856100  0.55101100  1
  F  F1  1  0.39869500  0.98143900  0.44898900  1
  F  F2  1  0.18956900  0.93285600  0.23376500  1
  F  F3  1  0.32432400  0.93287100  0.09877400  1
  F  F4  1  0.72449100  0.69380100  0.65077800  1
  F  F5  1  0.77550900  0.69380100  0.15077800  1
  F  F6  1  0.27550900  0.30619900  0.34922200  1
  F  F7  1  0.22449100  0.30619900  0.84922200  1
  F  F8  1  0.68956900  0.06714400  0.26623500  1
  F  F9  1  0.89869500  0.01856100  0.05101100  1
  F  F10  1  0.81043100  0.06714400  0.76623500  1
  F  F11  1  0.67567600  0.06712900  0.90122600  1
  F  F12  1  0.82432400  0.06712900  0.40122600  1
  F  F13  1  0.17567600  0.93287100  0.59877400  1
  F  F14  1  0.31043100  0.93285600  0.73376500  1
  F  F15  1  0.10130500  0.98143900  0.94898900  1
loop_
_geom_bond_atom_site_label_1
_geom_bond_atom_site_label_2
_geom_bond_distance
_geom_bond_site_symmetry_2
Cu0 O10 1.979067 1_555
Cu0 O4 1.979067 1_455
Cu0 O9 2.003105 1_555
Cu0 O6 2.003105 1_455
Cu0 O5 2.520991 1_445
Cu0 O1 2.520991 1_565
Cu1 O11 1.979067 1_554
Cu1 O8 1.979067 1_555
Cu1 O0 2.003105 1_555
Cu1 O2 2.003105 1_554
Cu1 O3 2.520991 1_564
Cu1 O7 2.520991 1_545
H0 O11 0.991163 1_555
H1 O3 0.987504 1_565
H2 O11 1.012823 1_555
H2 O3 1.632501 1_555
H3 O3 0.985352 1_555
H4 O0 0.994733 1_555
H5 O9 0.994608 1_555
H6 O9 0.994733 1_555
H7 O1 0.985352 1_655
H8 O7 0.985352 1_555
H9 O4 1.012823 1_555
H9 O5 1.632501 1_555
H10 O8 1.012823 1_555
H10 O7 1.632501 1_555
H11 O1 0.987504 1_565
H12 O4 0.991163 1_555
H13 O6 0.994733 1_555
H14 O10 1.012823 1_555
H14 O1 1.632501 1_555
H15 O5 0.985352 1_455
H16 O7 0.987504 1_545
H17 O2 0.994608 1_555
H18 O5 0.987504 1_545
H19 O10 0.991163 1_555
H20 O8 0.991163 1_555
H21 O6 0.994608 1_555
H22 O2 0.994733 1_555
H23 O0 0.994608 1_555
F0 H22 1.681948 1_545
F0 Sb2 2.177186 1_555
F1 H4 1.681948 1_565
F1 Sb3 2.177186 1_555
F2 Sb0 1.991750 1_555
F3 Sb0 2.120505 1_555
F4 Sb2 1.960128 1_565
F5 Sb1 1.960128 1_564
F6 Sb3 1.960128 1_545
F7 Sb0 1.960128 1_546
F8 Sb2 1.991750 1_555
F9 H13 1.681948 1_545
F9 Sb1 2.177186 1_554
F10 Sb1 1.991750 1_555
F11 Sb1 2.120505 1_555
F12 Sb2 2.120505 1_555
F13 Sb3 2.120505 1_555
F14 Sb3 1.991750 1_555
F15 H6 1.681948 1_565
F15 Sb0 2.177186 1_556
