# generated using pymatgen
data_BaTm2CoO5
_symmetry_space_group_name_H-M   'P 1'
_cell_length_a   5.69863900
_cell_length_b   7.04738200
_cell_length_c   12.22877900
_cell_angle_alpha   90.00000000
_cell_angle_beta   90.00000000
_cell_angle_gamma   90.00000000
_symmetry_Int_Tables_number   1
_chemical_formula_structural   BaTm2CoO5
_chemical_formula_sum   'Ba4 Tm8 Co4 O20'
_cell_volume   491.11370676
_cell_formula_units_Z   4
loop_
 _symmetry_equiv_pos_site_id
 _symmetry_equiv_pos_as_xyz
  1  'x, y, z'
loop_
 _atom_site_type_symbol
 _atom_site_label
 _atom_site_symmetry_multiplicity
 _atom_site_fract_x
 _atom_site_fract_y
 _atom_site_fract_z
 _atom_site_occupancy
  Ba  Ba0  1  0.25000000  0.92079900  0.89938500  1
  Ba  Ba1  1  0.75000000  0.07920100  0.10061500  1
  Ba  Ba2  1  0.75000000  0.42079900  0.60061500  1
  Ba  Ba3  1  0.25000000  0.57920100  0.39938500  1
  Tm  Tm0  1  0.25000000  0.11953200  0.29153300  1
  Tm  Tm1  1  0.75000000  0.88046800  0.70846700  1
  Tm  Tm2  1  0.75000000  0.61953200  0.20846700  1
  Tm  Tm3  1  0.25000000  0.38046800  0.79153300  1
  Tm  Tm4  1  0.25000000  0.40183000  0.07445800  1
  Tm  Tm5  1  0.75000000  0.59817000  0.92554200  1
  Tm  Tm6  1  0.75000000  0.90183000  0.42554200  1
  Tm  Tm7  1  0.25000000  0.09817000  0.57445800  1
  Co  Co0  1  0.25000000  0.69230100  0.65235800  1
  Co  Co1  1  0.75000000  0.30769900  0.34764200  1
  Co  Co2  1  0.75000000  0.19230100  0.84764200  1
  Co  Co3  1  0.25000000  0.80769900  0.15235800  1
  O  O0  1  0.99821800  0.16429800  0.43420200  1
  O  O1  1  0.49821800  0.83570200  0.56579800  1
  O  O2  1  0.00178200  0.66429800  0.06579800  1
  O  O3  1  0.50178200  0.33570200  0.93420200  1
  O  O4  1  0.00178200  0.83570200  0.56579800  1
  O  O5  1  0.50178200  0.16429800  0.43420200  1
  O  O6  1  0.99821800  0.33570200  0.93420200  1
  O  O7  1  0.49821800  0.66429800  0.06579800  1
  O  O8  1  0.49962600  0.36260500  0.22460600  1
  O  O9  1  0.99962600  0.63739500  0.77539400  1
  O  O10  1  0.50037400  0.86260500  0.27539400  1
  O  O11  1  0.00037400  0.13739500  0.72460600  1
  O  O12  1  0.50037400  0.63739500  0.77539400  1
  O  O13  1  0.00037400  0.36260500  0.22460600  1
  O  O14  1  0.49962600  0.13739500  0.72460600  1
  O  O15  1  0.99962600  0.86260500  0.27539400  1
  O  O16  1  0.25000000  0.07912300  0.10331700  1
  O  O17  1  0.75000000  0.92087700  0.89668300  1
  O  O18  1  0.75000000  0.57912300  0.39668300  1
  O  O19  1  0.25000000  0.42087700  0.60331700  1
loop_
_geom_bond_atom_site_label_1
_geom_bond_atom_site_label_2
_geom_bond_distance
_geom_bond_site_symmetry_2
Ba0 O16 2.732065 1_566
Ba0 O17 2.849511 1_555
Ba0 O17 2.849511 1_455
Ba0 O9 2.885101 1_455
Ba0 O12 2.885101 1_555
Ba0 O11 2.986936 1_565
Ba0 O14 2.986936 1_565
Ba0 O2 3.067539 1_556
Ba0 O7 3.067539 1_556
Ba0 O6 3.284757 1_465
Ba0 O3 3.284757 1_565
Ba1 O17 2.732065 1_544
Ba1 O16 2.849511 1_655
Ba1 O16 2.849511 1_555
Ba1 O8 2.885101 1_555
Ba1 O13 2.885101 1_655
Ba1 O10 2.986936 1_545
Ba1 O15 2.986936 1_545
Ba1 O3 3.067539 1_554
Ba1 O6 3.067539 1_554
Ba1 O2 3.284757 1_645
Ba1 O7 3.284757 1_545
Ba2 O18 2.732065 1_555
Ba2 O19 2.849511 1_655
Ba2 O19 2.849511 1_555
Ba2 O14 2.885101 1_555
Ba2 O11 2.885101 1_655
Ba2 O12 2.986936 1_555
Ba2 O9 2.986936 1_555
Ba2 O5 3.067539 1_555
Ba2 O0 3.067539 1_555
Ba2 O4 3.284757 1_655
Ba2 O1 3.284757 1_555
Ba3 O19 2.732065 1_555
Ba3 O18 2.849511 1_455
Ba3 O18 2.849511 1_555
Ba3 O10 2.885101 1_555
Ba3 O15 2.885101 1_455
Ba3 O8 2.986936 1_555
Ba3 O13 2.986936 1_555
Ba3 O1 3.067539 1_555
Ba3 O4 3.067539 1_555
Ba3 O0 3.284757 1_455
Ba3 O5 3.284757 1_555
Co0 O19 2.004636 1_555
Co0 O4 2.035340 1_555
Co0 O1 2.035340 1_555
Co0 O9 2.109317 1_455
Co0 O12 2.109317 1_555
Co1 O18 2.004636 1_555
Co1 O5 2.035340 1_555
Co1 O0 2.035340 1_555
Co1 O8 2.109317 1_555
Co1 O13 2.109317 1_655
Co2 O17 2.004636 1_545
Co2 O3 2.035340 1_555
Co2 O6 2.035340 1_555
Co2 O14 2.109317 1_555
Co2 O11 2.109317 1_655
Co3 O16 2.004636 1_565
Co3 O7 2.035340 1_555
Co3 O2 2.035340 1_555
Co3 O10 2.109317 1_555
Co3 O15 2.109317 1_455
O0 Tm0 2.280809 1_655
O0 Tm7 2.284217 1_655
O0 Tm6 2.330981 1_545
O1 Tm1 2.280809 1_555
O1 Tm6 2.284217 1_555
O1 Tm7 2.330981 1_565
O2 Tm2 2.280809 1_455
O2 Tm5 2.284217 1_454
O2 Tm4 2.330981 1_555
O3 Tm3 2.280809 1_555
O3 Tm4 2.284217 1_556
O3 Tm5 2.330981 1_555
O4 Tm1 2.280809 1_455
O4 Tm6 2.284217 1_455
O4 Tm7 2.330981 1_565
O5 Tm0 2.280809 1_555
O5 Tm7 2.284217 1_555
O5 Tm6 2.330981 1_545
O6 Tm3 2.280809 1_655
O6 Tm4 2.284217 1_656
O6 Tm5 2.330981 1_555
O7 Tm2 2.280809 1_555
O7 Tm5 2.284217 1_554
O7 Tm4 2.330981 1_555
O8 Tm2 2.313695 1_555
O8 Tm4 2.339095 1_555
O8 Tm0 2.372317 1_555
O9 Tm3 2.313695 1_655
O9 Tm5 2.339095 1_555
O9 Tm1 2.372317 1_555
O10 Tm0 2.313695 1_565
O10 Tm6 2.339095 1_555
O10 Tm2 2.372317 1_555
O11 Tm1 2.313695 1_445
O11 Tm7 2.339095 1_555
O11 Tm3 2.372317 1_555
O12 Tm3 2.313695 1_555
O12 Tm5 2.339095 1_555
O12 Tm1 2.372317 1_555
O13 Tm2 2.313695 1_455
O13 Tm4 2.339095 1_555
O13 Tm0 2.372317 1_555
O14 Tm1 2.313695 1_545
O14 Tm7 2.339095 1_555
O14 Tm3 2.372317 1_555
O15 Tm0 2.313695 1_665
O15 Tm6 2.339095 1_555
O15 Tm2 2.372317 1_555
O16 Tm4 2.301458 1_555
O16 Tm0 2.319202 1_555
O17 Tm5 2.301458 1_555
O17 Tm1 2.319202 1_555
O18 Tm6 2.301458 1_555
O18 Tm2 2.319202 1_555
O19 Tm7 2.301458 1_555
O19 Tm3 2.319202 1_555
