# generated using pymatgen
data_Ba2La2Mn(WO6)2
_symmetry_space_group_name_H-M   'P 1'
_cell_length_a   5.79976097
_cell_length_b   10.04548219
_cell_length_c   9.83887753
_cell_angle_alpha   99.79748790
_cell_angle_beta   72.85823662
_cell_angle_gamma   89.99999537
_symmetry_Int_Tables_number   1
_chemical_formula_structural   Ba2La2Mn(WO6)2
_chemical_formula_sum   'Ba4 La4 Mn2 W4 O24'
_cell_volume   539.00798738
_cell_formula_units_Z   2
loop_
 _symmetry_equiv_pos_site_id
 _symmetry_equiv_pos_as_xyz
  1  'x, y, z'
loop_
 _atom_site_type_symbol
 _atom_site_label
 _atom_site_symmetry_multiplicity
 _atom_site_fract_x
 _atom_site_fract_y
 _atom_site_fract_z
 _atom_site_occupancy
  Ba  Ba0  1  0.29786000  0.56738000  0.40428000  1
  Ba  Ba1  1  0.79786000  0.06738000  0.40428000  1
  Ba  Ba2  1  0.20214000  0.93262000  0.59572000  1
  Ba  Ba3  1  0.70214000  0.43262000  0.59572000  1
  La  La0  1  0.06030400  0.64656500  0.87939200  1
  La  La1  1  0.56030400  0.14656500  0.87939200  1
  La  La2  1  0.43969600  0.85343500  0.12060800  1
  La  La3  1  0.93969600  0.35343500  0.12060800  1
  Mn  Mn0  1  0.50000000  0.50000000  0.00000000  1
  Mn  Mn1  1  0.00000000  0.00000000  0.00000000  1
  W  W0  1  0.37227100  0.20924300  0.25545800  1
  W  W1  1  0.62772900  0.79075700  0.74454200  1
  W  W2  1  0.87227100  0.70924300  0.25545800  1
  W  W3  1  0.12772900  0.29075700  0.74454200  1
  O  O0  1  0.42636000  0.69140000  0.64784100  1
  O  O1  1  0.92636000  0.19140000  0.64784100  1
  O  O2  1  0.07364000  0.80860000  0.35215900  1
  O  O3  1  0.57364000  0.30860000  0.35215900  1
  O  O4  1  0.67607900  0.94112000  0.64784100  1
  O  O5  1  0.17607900  0.44112000  0.64784100  1
  O  O6  1  0.92579900  0.69140000  0.64784100  1
  O  O7  1  0.42579900  0.19140000  0.64784100  1
  O  O8  1  0.82392100  0.55888000  0.35215900  1
  O  O9  1  0.32392100  0.05888000  0.35215900  1
  O  O10  1  0.57420100  0.80860000  0.35215900  1
  O  O11  1  0.07420100  0.30860000  0.35215900  1
  O  O12  1  0.32975900  0.89008000  0.88547700  1
  O  O13  1  0.82975900  0.39008000  0.88547700  1
  O  O14  1  0.78476400  0.89008000  0.88547700  1
  O  O15  1  0.28476400  0.39008000  0.88547700  1
  O  O16  1  0.94273900  0.83742200  0.11452300  1
  O  O17  1  0.44273900  0.33742200  0.11452300  1
  O  O18  1  0.71523600  0.60992000  0.11452300  1
  O  O19  1  0.21523600  0.10992000  0.11452300  1
  O  O20  1  0.17024100  0.60992000  0.11452300  1
  O  O21  1  0.67024100  0.10992000  0.11452300  1
  O  O22  1  0.55726100  0.66257800  0.88547700  1
  O  O23  1  0.05726100  0.16257800  0.88547700  1
loop_
_geom_bond_atom_site_label_1
_geom_bond_atom_site_label_2
_geom_bond_distance
_geom_bond_site_symmetry_2
Ba0 O5 2.808349 1_555
Ba0 O6 2.808349 1_455
Ba0 O0 2.808349 1_555
Ba0 O8 2.939696 1_455
Ba0 O3 2.939696 1_555
Ba0 O11 2.939696 1_555
Ba0 O8 2.939701 1_555
Ba0 O2 2.939701 1_555
Ba0 O10 2.939702 1_555
Ba0 O20 3.242910 1_555
Ba0 O18 3.242910 1_555
Ba0 O17 3.242910 1_555
Ba1 O4 2.808349 1_545
Ba1 O7 2.808349 1_555
Ba1 O1 2.808349 1_555
Ba1 O9 2.939696 1_555
Ba1 O2 2.939696 1_645
Ba1 O10 2.939696 1_545
Ba1 O9 2.939701 1_655
Ba1 O3 2.939701 1_555
Ba1 O11 2.939702 1_655
Ba1 O21 3.242910 1_555
Ba1 O19 3.242910 1_655
Ba1 O16 3.242910 1_545
Ba2 O9 2.808349 1_565
Ba2 O10 2.808349 1_555
Ba2 O2 2.808349 1_555
Ba2 O4 2.939696 1_555
Ba2 O1 2.939696 1_465
Ba2 O7 2.939696 1_565
Ba2 O4 2.939701 1_455
Ba2 O0 2.939701 1_555
Ba2 O6 2.939702 1_455
Ba2 O12 3.242910 1_555
Ba2 O14 3.242910 1_455
Ba2 O23 3.242910 1_565
Ba3 O8 2.808349 1_555
Ba3 O11 2.808349 1_655
Ba3 O3 2.808349 1_555
Ba3 O5 2.939696 1_655
Ba3 O0 2.939696 1_555
Ba3 O6 2.939696 1_555
Ba3 O5 2.939701 1_555
Ba3 O1 2.939701 1_555
Ba3 O7 2.939702 1_555
Ba3 O13 3.242910 1_555
Ba3 O15 3.242910 1_555
Ba3 O22 3.242910 1_555
La0 O20 2.655811 1_556
La0 O18 2.655811 1_456
La0 O16 2.655814 1_456
La0 O5 2.720004 1_555
La0 O6 2.720007 1_455
La0 O0 2.720007 1_555
La0 O22 2.904335 1_555
La0 O14 2.904338 1_455
La0 O15 2.904338 1_555
La0 O12 2.904338 1_555
La0 O13 2.904338 1_455
La0 O22 2.904341 1_455
La1 O21 2.655811 1_556
La1 O19 2.655811 1_556
La1 O17 2.655814 1_556
La1 O4 2.720004 1_545
La1 O7 2.720007 1_555
La1 O1 2.720007 1_555
La1 O23 2.904335 1_655
La1 O15 2.904338 1_555
La1 O14 2.904338 1_545
La1 O13 2.904338 1_555
La1 O12 2.904338 1_545
La1 O23 2.904341 1_555
La2 O12 2.655811 1_554
La2 O14 2.655811 1_554
La2 O22 2.655814 1_554
La2 O9 2.720004 1_565
La2 O10 2.720007 1_555
La2 O2 2.720007 1_555
La2 O16 2.904335 1_455
La2 O18 2.904338 1_555
La2 O19 2.904338 1_565
La2 O20 2.904338 1_555
La2 O21 2.904338 1_565
La2 O16 2.904341 1_555
La3 O13 2.655811 1_554
La3 O15 2.655811 1_654
La3 O23 2.655814 1_654
La3 O8 2.720004 1_555
La3 O11 2.720007 1_655
La3 O3 2.720007 1_555
La3 O17 2.904335 1_555
La3 O19 2.904338 1_655
La3 O18 2.904338 1_555
La3 O21 2.904338 1_555
La3 O20 2.904338 1_655
La3 O17 2.904341 1_655
Mn0 O13 2.110185 1_554
Mn0 O20 2.110185 1_555
Mn0 O17 2.110186 1_555
Mn0 O22 2.110186 1_554
Mn0 O18 2.110186 1_555
Mn0 O15 2.110186 1_554
Mn1 O12 2.110185 1_544
Mn1 O21 2.110185 1_455
Mn1 O16 2.110186 1_445
Mn1 O23 2.110186 1_554
Mn1 O19 2.110186 1_555
Mn1 O14 2.110186 1_444
O0 W1 1.896626 1_555
O1 W3 1.896626 1_655
O2 W2 1.896626 1_455
O3 W0 1.896626 1_555
O4 W1 1.896626 1_555
O5 W3 1.896626 1_555
O6 W1 1.896626 1_555
O7 W3 1.896626 1_555
O8 W2 1.896626 1_555
O9 W0 1.896626 1_555
O10 W2 1.896626 1_555
O11 W0 1.896626 1_555
O12 W1 2.005334 1_555
O13 W3 2.005334 1_655
O14 W1 2.005334 1_555
O15 W3 2.005334 1_555
O16 W2 2.005334 1_555
O17 W0 2.005334 1_555
O18 W2 2.005334 1_555
O19 W0 2.005334 1_555
O20 W2 2.005334 1_455
O21 W0 2.005334 1_555
O22 W1 2.005334 1_555
O23 W3 2.005334 1_555
