# generated using pymatgen
data_Ba3In2Cl2O5
_symmetry_space_group_name_H-M   'P 1'
_cell_length_a   4.30120800
_cell_length_b   4.30120800
_cell_length_c   13.10970489
_cell_angle_alpha   99.44186060
_cell_angle_beta   99.44186060
_cell_angle_gamma   90.00000000
_symmetry_Int_Tables_number   1
_chemical_formula_structural   Ba3In2Cl2O5
_chemical_formula_sum   'Ba3 In2 Cl2 O5'
_cell_volume   235.91745760
_cell_formula_units_Z   1
loop_
 _symmetry_equiv_pos_site_id
 _symmetry_equiv_pos_as_xyz
  1  'x, y, z'
loop_
 _atom_site_type_symbol
 _atom_site_label
 _atom_site_symmetry_multiplicity
 _atom_site_fract_x
 _atom_site_fract_y
 _atom_site_fract_z
 _atom_site_occupancy
  Ba  Ba0  1  0.66124600  0.66124600  0.32249200  1
  Ba  Ba1  1  0.50000000  0.50000000  0.00000000  1
  Ba  Ba2  1  0.33875400  0.33875400  0.67750800  1
  In  In0  1  0.91757200  0.91757200  0.83514400  1
  In  In1  1  0.08242800  0.08242800  0.16485600  1
  Cl  Cl0  1  0.20518900  0.20518900  0.41037800  1
  Cl  Cl1  1  0.79481100  0.79481100  0.58962200  1
  O  O0  1  0.09405900  0.59405900  0.18811800  1
  O  O1  1  0.40594100  0.90594100  0.81188200  1
  O  O2  1  0.90594100  0.40594100  0.81188200  1
  O  O3  1  0.00000000  0.00000000  0.00000000  1
  O  O4  1  0.59405900  0.09405900  0.18811800  1
loop_
_geom_bond_atom_site_label_1
_geom_bond_atom_site_label_2
_geom_bond_distance
_geom_bond_site_symmetry_2
Ba0 O0 2.749785 1_655
Ba0 O4 2.749785 1_565
Ba0 O0 2.749785 1_555
Ba0 O4 2.749785 1_555
Ba0 Cl0 3.241330 1_665
Ba0 Cl0 3.241330 1_565
Ba0 Cl0 3.241330 1_655
Ba0 Cl0 3.241330 1_555
Ba0 Cl1 3.406449 1_555
Ba1 O3 3.041413 1_555
Ba1 O3 3.041413 1_565
Ba1 O3 3.041413 1_655
Ba1 O3 3.041413 1_665
Ba1 O0 3.221762 1_655
Ba1 O4 3.221762 1_565
Ba1 O0 3.221762 1_555
Ba1 O4 3.221762 1_555
Ba1 O2 3.221762 1_554
Ba1 O1 3.221762 1_544
Ba1 O2 3.221762 1_454
Ba1 O1 3.221762 1_554
Ba2 O1 2.749785 1_555
Ba2 O2 2.749785 1_455
Ba2 O1 2.749785 1_545
Ba2 O2 2.749785 1_555
Ba2 Cl1 3.241330 1_555
Ba2 Cl1 3.241330 1_455
Ba2 Cl1 3.241330 1_545
Ba2 Cl1 3.241330 1_445
Ba2 Cl0 3.406449 1_555
In0 O3 2.102248 1_666
In0 O1 2.170966 1_555
In0 O2 2.170966 1_555
In0 O2 2.170966 1_565
In0 O1 2.170966 1_655
In1 O3 2.102248 1_555
In1 O4 2.170966 1_455
In1 O0 2.170966 1_545
In1 O0 2.170966 1_555
In1 O4 2.170966 1_555
Cl0 In1 3.130903 1_555
Cl1 In0 3.130903 1_555
