# generated using pymatgen
data_Sr3(B3Rh4)2
_symmetry_space_group_name_H-M   'P 1'
_cell_length_a   5.57842294
_cell_length_b   5.71801087
_cell_length_c   8.99565793
_cell_angle_alpha   81.30083180
_cell_angle_beta   71.93703405
_cell_angle_gamma   60.80430121
_symmetry_Int_Tables_number   1
_chemical_formula_structural   Sr3(B3Rh4)2
_chemical_formula_sum   'Sr3 B6 Rh8'
_cell_volume   238.14090714
_cell_formula_units_Z   1
loop_
 _symmetry_equiv_pos_site_id
 _symmetry_equiv_pos_as_xyz
  1  'x, y, z'
loop_
 _atom_site_type_symbol
 _atom_site_label
 _atom_site_symmetry_multiplicity
 _atom_site_fract_x
 _atom_site_fract_y
 _atom_site_fract_z
 _atom_site_occupancy
  Sr  Sr0  1  0.31686336  -0.00000000  0.36627329  1
  Sr  Sr1  1  0.50000000  -0.00000000  0.00000000  1
  Sr  Sr2  1  0.68313664  0.00000000  0.63372671  1
  B  B0  1  0.99600248  0.66982620  0.33816685  1
  B  B1  1  0.00399752  0.33017380  0.66183315  1
  B  B2  1  0.16426384  0.67147131  -0.00000000  1
  B  B3  1  0.66582967  0.33017380  0.33816685  1
  B  B4  1  0.33417033  0.66982620  0.66183315  1
  B  B5  1  0.83573616  0.32852869  0.00000000  1
  Rh  Rh0  1  0.41574433  0.50000000  0.16851335  1
  Rh  Rh1  1  0.91330445  0.00000000  0.17339110  1
  Rh  Rh2  1  0.91574433  0.50000000  0.16851335  1
  Rh  Rh3  1  0.75000000  0.50000000  0.50000000  1
  Rh  Rh4  1  0.08425567  0.50000000  0.83148665  1
  Rh  Rh5  1  0.58425567  0.50000000  0.83148665  1
  Rh  Rh6  1  0.25000000  0.50000000  0.50000000  1
  Rh  Rh7  1  0.08669555  -0.00000000  0.82660890  1
loop_
_geom_bond_atom_site_label_1
_geom_bond_atom_site_label_2
_geom_bond_distance
_geom_bond_site_symmetry_2
Sr0 Sr1 3.132486 1_555
Sr1 Sr2 3.132486 1_554
B0 Rh3 2.139883 1_555
B0 Rh6 2.139890 1_655
B0 Rh1 2.168431 1_565
B0 Rh2 2.183734 1_555
B0 Rh0 2.183748 1_655
B0 Sr2 3.017546 1_565
B0 Sr0 3.248639 1_565
B0 Sr0 3.248649 1_665
B1 Rh6 2.139883 1_555
B1 Rh3 2.139890 1_455
B1 Rh7 2.168431 1_555
B1 Rh4 2.183734 1_555
B1 Rh5 2.183748 1_455
B1 Sr0 3.017546 1_555
B1 Sr2 3.248639 1_555
B1 Sr2 3.248649 1_455
B2 Rh2 2.180479 1_455
B2 Rh5 2.180483 1_554
B2 Rh4 2.180487 1_554
B2 Rh0 2.180490 1_555
B2 Rh7 2.210924 1_564
B2 Rh1 2.210924 1_465
B2 Sr1 3.235566 1_465
B2 Sr1 3.235571 1_565
B2 Sr1 3.351708 1_555
B3 Rh6 2.139887 1_555
B3 Rh3 2.139887 1_555
B3 Rh1 2.168431 1_555
B3 Rh0 2.183737 1_555
B3 Rh2 2.183745 1_555
B3 Sr2 3.017546 1_555
B3 Sr0 3.248644 1_655
B3 Sr0 3.248644 1_555
B4 Rh3 2.139887 1_555
B4 Rh6 2.139887 1_555
B4 Rh7 2.168431 1_565
B4 Rh5 2.183737 1_555
B4 Rh4 2.183745 1_555
B4 Sr0 3.017546 1_565
B4 Sr2 3.248644 1_465
B4 Sr2 3.248644 1_565
B5 Rh4 2.180479 1_654
B5 Rh0 2.180483 1_555
B5 Rh2 2.180487 1_555
B5 Rh5 2.180490 1_554
B5 Rh1 2.210924 1_555
B5 Rh7 2.210924 1_654
B5 Sr1 3.235566 1_655
B5 Sr1 3.235571 1_555
B5 Sr1 3.351708 1_565
Rh0 Sr1 3.201702 1_565
Rh0 Sr1 3.201707 1_555
Rh0 Sr0 3.321809 1_565
Rh0 Sr0 3.321813 1_555
Rh1 Sr1 3.158905 1_655
Rh1 Sr1 3.158905 1_555
Rh1 Sr0 3.240501 1_555
Rh1 Sr0 3.240501 1_655
Rh2 Sr1 3.201702 1_655
Rh2 Sr1 3.201707 1_565
Rh2 Sr0 3.321808 1_655
Rh2 Sr0 3.321813 1_565
Rh3 Sr0 3.079269 1_565
Rh3 Sr0 3.079269 1_655
Rh3 Sr2 3.079270 1_555
Rh3 Sr2 3.079270 1_565
Rh4 Sr1 3.201702 1_466
Rh4 Sr1 3.201707 1_556
Rh4 Sr2 3.321808 1_465
Rh4 Sr2 3.321813 1_555
Rh5 Sr1 3.201702 1_556
Rh5 Sr1 3.201707 1_566
Rh5 Sr2 3.321809 1_555
Rh5 Sr2 3.321813 1_565
Rh6 Sr2 3.079269 1_555
Rh6 Sr2 3.079269 1_465
Rh6 Sr0 3.079270 1_565
Rh6 Sr0 3.079270 1_555
Rh7 Sr1 3.158905 1_456
Rh7 Sr1 3.158905 1_556
Rh7 Sr2 3.240501 1_555
Rh7 Sr2 3.240501 1_455
