# generated using pymatgen
data_Cs2LaTa6(Br5O)3
_symmetry_space_group_name_H-M   'P 1'
_cell_length_a   9.66052606
_cell_length_b   9.66052606
_cell_length_c   18.71689300
_cell_angle_alpha   90.00000000
_cell_angle_beta   90.00000000
_cell_angle_gamma   120.00000042
_symmetry_Int_Tables_number   1
_chemical_formula_structural   Cs2LaTa6(Br5O)3
_chemical_formula_sum   'Cs4 La2 Ta12 Br30 O6'
_cell_volume   1512.74574597
_cell_formula_units_Z   2
loop_
 _symmetry_equiv_pos_site_id
 _symmetry_equiv_pos_as_xyz
  1  'x, y, z'
loop_
 _atom_site_type_symbol
 _atom_site_label
 _atom_site_symmetry_multiplicity
 _atom_site_fract_x
 _atom_site_fract_y
 _atom_site_fract_z
 _atom_site_occupancy
  Cs  Cs0  1  0.66666700  0.33333300  0.04483200  1
  Cs  Cs1  1  0.33333300  0.66666700  0.95516800  1
  Cs  Cs2  1  0.66666700  0.33333300  0.45516800  1
  Cs  Cs3  1  0.33333300  0.66666700  0.54483200  1
  La  La0  1  0.66666700  0.33333300  0.75000000  1
  La  La1  1  0.33333300  0.66666700  0.25000000  1
  Ta  Ta0  1  0.18829700  0.01655000  0.81194100  1
  Ta  Ta1  1  0.98345000  0.17174700  0.81194100  1
  Ta  Ta2  1  0.81170300  0.82825300  0.31194100  1
  Ta  Ta3  1  0.98345000  0.81170300  0.68805900  1
  Ta  Ta4  1  0.01655000  0.18829700  0.31194100  1
  Ta  Ta5  1  0.17174700  0.98345000  0.31194100  1
  Ta  Ta6  1  0.18829700  0.17174700  0.68805900  1
  Ta  Ta7  1  0.82825300  0.81170300  0.81194100  1
  Ta  Ta8  1  0.01655000  0.82825300  0.18805900  1
  Ta  Ta9  1  0.82825300  0.01655000  0.68805900  1
  Ta  Ta10  1  0.81170300  0.98345000  0.18805900  1
  Ta  Ta11  1  0.17174700  0.18829700  0.18805900  1
  Br  Br0  1  0.53107500  0.92487200  0.12051600  1
  Br  Br1  1  0.39379700  0.92487200  0.37948400  1
  Br  Br2  1  0.20233300  0.22085200  0.90947600  1
  Br  Br3  1  0.46892500  0.39379700  0.62051600  1
  Br  Br4  1  0.78717200  0.21282800  0.25000000  1
  Br  Br5  1  0.07512800  0.46892500  0.37948400  1
  Br  Br6  1  0.53107500  0.60620300  0.37948400  1
  Br  Br7  1  0.20233300  0.98148100  0.59052400  1
  Br  Br8  1  0.01851900  0.22085200  0.59052400  1
  Br  Br9  1  0.98148100  0.20233300  0.09052400  1
  Br  Br10  1  0.22085200  0.20233300  0.40947600  1
  Br  Br11  1  0.46892500  0.07512800  0.87948400  1
  Br  Br12  1  0.79766700  0.77914800  0.09052400  1
  Br  Br13  1  0.42565600  0.21282800  0.25000000  1
  Br  Br14  1  0.57434400  0.78717200  0.75000000  1
  Br  Br15  1  0.60620300  0.07512800  0.62051600  1
  Br  Br16  1  0.78717200  0.57434400  0.25000000  1
  Br  Br17  1  0.77914800  0.79766700  0.59052400  1
  Br  Br18  1  0.07512800  0.60620300  0.12051600  1
  Br  Br19  1  0.21282800  0.42565600  0.75000000  1
  Br  Br20  1  0.92487200  0.53107500  0.62051600  1
  Br  Br21  1  0.01851900  0.79766700  0.90947600  1
  Br  Br22  1  0.22085200  0.01851900  0.09052400  1
  Br  Br23  1  0.60620300  0.53107500  0.87948400  1
  Br  Br24  1  0.39379700  0.46892500  0.12051600  1
  Br  Br25  1  0.98148100  0.77914800  0.40947600  1
  Br  Br26  1  0.79766700  0.01851900  0.40947600  1
  Br  Br27  1  0.21282800  0.78717200  0.75000000  1
  Br  Br28  1  0.92487200  0.39379700  0.87948400  1
  Br  Br29  1  0.77914800  0.98148100  0.90947600  1
  O  O0  1  0.17988800  0.35977500  0.25000000  1
  O  O1  1  0.64022500  0.82011200  0.25000000  1
  O  O2  1  0.17988800  0.82011200  0.25000000  1
  O  O3  1  0.82011200  0.17988800  0.75000000  1
  O  O4  1  0.82011200  0.64022500  0.75000000  1
  O  O5  1  0.35977500  0.17988800  0.75000000  1
loop_
_geom_bond_atom_site_label_1
_geom_bond_atom_site_label_2
_geom_bond_distance
_geom_bond_site_symmetry_2
La0 O3 2.567522 1_555
La0 O5 2.567539 1_555
La0 O4 2.567539 1_555
La1 O2 2.567522 1_555
La1 O0 2.567539 1_555
La1 O1 2.567539 1_555
Br0 Ta10 2.780985 1_555
Br0 La1 3.313569 1_555
Br0 Cs0 3.758222 1_565
Br0 Cs1 3.831970 1_554
Br1 Ta5 2.780985 1_555
Br1 La1 3.313567 1_555
Br1 Cs2 3.758223 1_565
Br1 Cs3 3.831968 1_555
Br2 Ta0 2.641734 1_555
Br2 Ta1 2.650623 1_455
Br2 Cs1 3.928251 1_555
Br3 Ta6 2.780985 1_555
Br3 La0 3.313573 1_555
Br3 Cs3 3.758230 1_555
Br3 Cs2 3.831974 1_555
Br4 Ta10 2.614505 1_545
Br4 Ta4 2.614505 1_655
Br5 Ta4 2.780985 1_555
Br5 La1 3.313569 1_555
Br5 Cs2 3.758222 1_455
Br5 Cs3 3.831970 1_555
Br6 Ta2 2.780985 1_555
Br6 La1 3.313573 1_555
Br6 Cs2 3.758230 1_555
Br6 Cs3 3.831974 1_555
Br7 Ta6 2.641734 1_565
Br7 Ta3 2.650623 1_455
Br7 Cs3 3.928242 1_555
Br8 Ta9 2.641734 1_455
Br8 Ta6 2.650623 1_555
Br8 Cs3 3.928248 1_555
Br9 Ta11 2.641734 1_655
Br9 Ta10 2.650623 1_545
Br9 Cs0 3.928242 1_555
Br10 Ta4 2.641734 1_555
Br10 Ta5 2.650623 1_545
Br10 Cs2 3.928251 1_555
Br11 Ta0 2.780985 1_555
Br11 La0 3.313569 1_555
Br11 Cs1 3.758222 1_545
Br11 Cs0 3.831970 1_556
Br12 Ta10 2.641734 1_555
Br12 Ta8 2.650623 1_655
Br12 Cs0 3.928251 1_555
Br13 Ta5 2.614505 1_545
Br13 Ta11 2.614505 1_555
Br14 Ta9 2.614505 1_565
Br14 Ta7 2.614505 1_555
Br15 Ta9 2.780985 1_555
Br15 La0 3.313567 1_555
Br15 Cs3 3.758223 1_545
Br15 Cs2 3.831968 1_555
Br16 Ta8 2.614505 1_655
Br16 Ta2 2.614505 1_555
Br17 Ta3 2.641734 1_555
Br17 Ta9 2.650623 1_565
Br17 Cs3 3.928251 1_555
Br18 Ta8 2.780985 1_555
Br18 La1 3.313567 1_555
Br18 Cs0 3.758223 1_455
Br18 Cs1 3.831968 1_554
Br19 Ta1 2.614505 1_455
Br19 Ta6 2.614505 1_555
Br20 Ta3 2.780985 1_555
Br20 La0 3.313569 1_555
Br20 Cs3 3.758222 1_655
Br20 Cs2 3.831970 1_555
Br21 Ta7 2.641734 1_455
Br21 Ta0 2.650623 1_565
Br21 Cs1 3.928242 1_555
Br22 Ta8 2.641734 1_545
Br22 Ta11 2.650623 1_555
Br22 Cs0 3.928248 1_555
Br23 Ta7 2.780985 1_555
Br23 La0 3.313573 1_555
Br23 Cs1 3.758230 1_555
Br23 Cs0 3.831974 1_556
Br24 Ta11 2.780985 1_555
Br24 La1 3.313573 1_555
Br24 Cs0 3.758230 1_555
Br24 Cs1 3.831974 1_554
Br25 Ta5 2.641734 1_655
Br25 Ta2 2.650623 1_555
Br25 Cs2 3.928248 1_555
Br26 Ta2 2.641734 1_545
Br26 Ta4 2.650623 1_655
Br26 Cs2 3.928242 1_555
Br27 Ta3 2.614505 1_455
Br27 Ta0 2.614505 1_565
Br28 Ta1 2.780985 1_555
Br28 La0 3.313567 1_555
Br28 Cs1 3.758223 1_655
Br28 Cs0 3.831968 1_556
Br29 Ta1 2.641734 1_565
Br29 Ta7 2.650623 1_555
Br29 Cs1 3.928248 1_555
O0 Ta11 1.991029 1_555
O0 Ta4 1.991032 1_555
O1 Ta2 1.991029 1_555
O1 Ta10 1.991032 1_555
O2 Ta8 1.991037 1_555
O2 Ta5 1.991037 1_555
O3 Ta9 1.991037 1_555
O3 Ta1 1.991037 1_555
O4 Ta7 1.991029 1_555
O4 Ta3 1.991032 1_555
O5 Ta6 1.991029 1_555
O5 Ta0 1.991032 1_555
