# generated using pymatgen
data_CdI2
_symmetry_space_group_name_H-M   'P 1'
_cell_length_a   4.28622767
_cell_length_b   4.28622834
_cell_length_c   29.10699078
_cell_angle_alpha   90.00000000
_cell_angle_beta   90.00000000
_cell_angle_gamma   120.00000288
_symmetry_Int_Tables_number   1
_chemical_formula_structural   CdI2
_chemical_formula_sum   'Cd4 I8'
_cell_volume   463.10393041
_cell_formula_units_Z   4
loop_
 _symmetry_equiv_pos_site_id
 _symmetry_equiv_pos_as_xyz
  1  'x, y, z'
loop_
 _atom_site_type_symbol
 _atom_site_label
 _atom_site_symmetry_multiplicity
 _atom_site_fract_x
 _atom_site_fract_y
 _atom_site_fract_z
 _atom_site_occupancy
  Cd  Cd0  1  0.33333300  0.66666700  0.06250000  1
  Cd  Cd1  1  -0.00000000  -0.00000000  0.81244659  1
  Cd  Cd2  1  0.66666700  0.33333300  0.31255341  1
  Cd  Cd3  1  0.33333300  0.66666700  0.56250000  1
  I  I0  1  0.33333300  0.66666700  0.37166941  1
  I  I1  1  0.00000000  0.00000000  0.50359754  1
  I  I2  1  0.33333300  0.66666700  0.75333059  1
  I  I3  1  0.66666700  0.33333300  0.62140246  1
  I  I4  1  0.66666700  0.33333300  0.87163364  1
  I  I5  1  0.00000000  0.00000000  0.00360254  1
  I  I6  1  0.00000000  0.00000000  0.25336636  1
  I  I7  1  0.66666700  0.33333300  0.12139746  1
loop_
_geom_bond_atom_site_label_1
_geom_bond_atom_site_label_2
_geom_bond_distance
_geom_bond_site_symmetry_2
Cd0 I7 3.010452 1_455
Cd0 I5 3.010453 1_565
Cd0 I7 3.010453 1_565
Cd0 I5 3.010455 1_665
Cd0 I5 3.010456 1_555
Cd0 I7 3.010459 1_555
Cd1 I2 3.014079 1_545
Cd1 I2 3.014082 1_445
Cd1 I2 3.014083 1_555
Cd1 I4 3.015261 1_455
Cd1 I4 3.015263 1_555
Cd1 I4 3.015264 1_445
Cd2 I0 3.014079 1_655
Cd2 I0 3.014080 1_545
Cd2 I0 3.014086 1_555
Cd2 I6 3.015261 1_655
Cd2 I6 3.015263 1_555
Cd2 I6 3.015264 1_665
Cd3 I3 3.010535 1_455
Cd3 I1 3.010535 1_565
Cd3 I3 3.010536 1_565
Cd3 I1 3.010538 1_665
Cd3 I1 3.010539 1_555
Cd3 I3 3.010542 1_555
