# generated using pymatgen
data_CoSb2Br2O3
_symmetry_space_group_name_H-M   'P 1'
_cell_length_a   8.56272469
_cell_length_b   9.15080897
_cell_length_c   10.28920931
_cell_angle_alpha   65.73677557
_cell_angle_beta   84.06562684
_cell_angle_gamma   91.97970460
_symmetry_Int_Tables_number   1
_chemical_formula_structural   CoSb2Br2O3
_chemical_formula_sum   'Co4 Sb8 Br8 O12'
_cell_volume   728.42262828
_cell_formula_units_Z   4
loop_
 _symmetry_equiv_pos_site_id
 _symmetry_equiv_pos_as_xyz
  1  'x, y, z'
loop_
 _atom_site_type_symbol
 _atom_site_label
 _atom_site_symmetry_multiplicity
 _atom_site_fract_x
 _atom_site_fract_y
 _atom_site_fract_z
 _atom_site_occupancy
  Co  Co0  1  0.50882600  0.61715400  0.09501600  1
  Co  Co1  1  0.49117500  0.88284900  0.40498200  1
  Co  Co2  1  0.50882200  0.11715100  0.59502300  1
  Co  Co3  1  0.49117900  0.38285200  0.90497400  1
  Sb  Sb0  1  0.68418900  0.02965700  0.93502100  1
  Sb  Sb1  1  0.68417500  0.52965300  0.43501400  1
  Sb  Sb2  1  0.31583000  0.97034900  0.06498500  1
  Sb  Sb3  1  0.31581400  0.47034500  0.56497800  1
  Sb  Sb4  1  0.69359500  0.79117000  0.73170000  1
  Sb  Sb5  1  0.69358900  0.29113300  0.23172300  1
  Sb  Sb6  1  0.30641000  0.20886800  0.26827400  1
  Sb  Sb7  1  0.30640500  0.70883100  0.76829500  1
  Br  Br0  1  0.77392600  0.93015600  0.28752000  1
  Br  Br1  1  0.77389700  0.43021600  0.78748500  1
  Br  Br2  1  0.22610300  0.06978100  0.71251700  1
  Br  Br3  1  0.22607700  0.56983300  0.21248800  1
  Br  Br4  1  0.85804200  0.23202000  0.46819800  1
  Br  Br5  1  0.85803400  0.73201500  0.96820300  1
  Br  Br6  1  0.14195200  0.76797800  0.53179700  1
  Br  Br7  1  0.14194700  0.26797700  0.03180400  1
  O  O0  1  0.48361200  0.65117100  0.43523100  1
  O  O1  1  0.48362700  0.15117300  0.93524000  1
  O  O2  1  0.51637700  0.34882900  0.56476400  1
  O  O3  1  0.51639200  0.84883100  0.06477400  1
  O  O4  1  0.36844500  0.00862300  0.23824700  1
  O  O5  1  0.36839000  0.50856000  0.73827300  1
  O  O6  1  0.63161000  0.99144000  0.76172600  1
  O  O7  1  0.63155700  0.49137800  0.26175100  1
  O  O8  1  0.51388900  0.14763200  0.38408800  1
  O  O9  1  0.51389000  0.64768700  0.88407300  1
  O  O10  1  0.48610900  0.85231500  0.61592300  1
  O  O11  1  0.48611100  0.35236900  0.11590900  1
loop_
_geom_bond_atom_site_label_1
_geom_bond_atom_site_label_2
_geom_bond_distance
_geom_bond_site_symmetry_2
Co0 O3 2.009909 1_555
Co0 O7 2.050822 1_555
Co0 O9 2.066893 1_554
Co0 O11 2.342149 1_555
Co1 O0 2.009898 1_555
Co1 O4 2.050812 1_565
Co1 O10 2.066869 1_555
Co1 O8 2.342127 1_565
Co2 O2 2.009870 1_555
Co2 O6 2.050767 1_545
Co2 O8 2.066951 1_555
Co2 O10 2.342588 1_545
Co3 O1 2.009860 1_555
Co3 O5 2.050752 1_555
Co3 O11 2.066945 1_556
Co3 O9 2.342575 1_555
Br0 Co1 2.530304 1_555
Br1 Co3 2.530105 1_555
Br2 Co2 2.530125 1_555
Br3 Co0 2.530313 1_555
Br4 Sb5 2.806264 1_555
Br4 Sb1 3.061359 1_555
Br4 Co2 3.098085 1_555
Br5 Sb4 2.806378 1_555
Br5 Sb0 3.061335 1_565
Br5 Co0 3.097960 1_556
Br6 Sb7 2.806417 1_555
Br6 Sb3 3.061343 1_555
Br6 Co1 3.098092 1_555
Br7 Sb6 2.806277 1_555
Br7 Sb2 3.061399 1_545
Br7 Co3 3.098195 1_554
O0 Sb3 2.051409 1_555
O0 Sb1 2.078234 1_555
O1 Sb2 2.051389 1_546
O1 Sb0 2.078219 1_555
O2 Sb1 2.051407 1_555
O2 Sb3 2.078220 1_555
O3 Sb0 2.051419 1_564
O3 Sb2 2.078219 1_555
O4 Sb2 2.042570 1_545
O4 Sb6 2.057647 1_555
O5 Sb3 2.042514 1_555
O5 Sb7 2.057733 1_555
O6 Sb0 2.042532 1_565
O6 Sb4 2.057745 1_555
O7 Sb1 2.042593 1_555
O7 Sb5 2.057645 1_555
O8 Sb5 2.054126 1_555
O8 Sb6 2.201818 1_555
O9 Sb4 2.054139 1_555
O9 Sb7 2.201619 1_555
O10 Sb7 2.054132 1_555
O10 Sb4 2.201622 1_555
O11 Sb6 2.054131 1_555
O11 Sb5 2.201810 1_555
