# generated using pymatgen
data_ErB4
_symmetry_space_group_name_H-M   'P 1'
_cell_length_a   8.40141300
_cell_length_b   8.40141300
_cell_length_c   4.18280900
_cell_angle_alpha   90.00000000
_cell_angle_beta   90.00000000
_cell_angle_gamma   90.00000000
_symmetry_Int_Tables_number   1
_chemical_formula_structural   ErB4
_chemical_formula_sum   'Er4 B16'
_cell_volume   295.23830458
_cell_formula_units_Z   4
loop_
 _symmetry_equiv_pos_site_id
 _symmetry_equiv_pos_as_xyz
  1  'x, y, z'
loop_
 _atom_site_type_symbol
 _atom_site_label
 _atom_site_symmetry_multiplicity
 _atom_site_fract_x
 _atom_site_fract_y
 _atom_site_fract_z
 _atom_site_occupancy
  Er  Er0  1  0.13745700  0.63745700  0.00000000  1
  Er  Er1  1  0.86254300  0.36254300  0.00000000  1
  Er  Er2  1  0.36254300  0.13745700  0.00000000  1
  Er  Er3  1  0.63745700  0.86254300  0.00000000  1
  B  B0  1  0.94354700  0.86991500  0.00000000  1
  B  B1  1  0.05645300  0.13008500  0.00000000  1
  B  B2  1  0.43470800  0.93470800  0.50000000  1
  B  B3  1  0.00000000  0.00000000  0.69214400  1
  B  B4  1  0.93470800  0.56529200  0.50000000  1
  B  B5  1  0.63008500  0.55645300  0.00000000  1
  B  B6  1  0.06529200  0.43470800  0.50000000  1
  B  B7  1  0.50000000  0.50000000  0.30785600  1
  B  B8  1  0.86991500  0.05645300  0.00000000  1
  B  B9  1  0.00000000  0.00000000  0.30785600  1
  B  B10  1  0.36991500  0.44354700  0.00000000  1
  B  B11  1  0.13008500  0.94354700  0.00000000  1
  B  B12  1  0.50000000  0.50000000  0.69214400  1
  B  B13  1  0.56529200  0.06529200  0.50000000  1
  B  B14  1  0.55645300  0.36991500  0.00000000  1
  B  B15  1  0.44354700  0.63008500  0.00000000  1
loop_
_geom_bond_atom_site_label_1
_geom_bond_atom_site_label_2
_geom_bond_distance
_geom_bond_site_symmetry_2
B0 B11 1.684857 1_655
B0 B8 1.684857 1_565
B0 B9 1.754295 1_665
B0 B3 1.754295 1_664
B0 Er0 2.543254 1_655
B0 Er3 2.572334 1_555
B1 B11 1.684857 1_545
B1 B8 1.684857 1_455
B1 B9 1.754295 1_555
B1 B3 1.754295 1_554
B1 Er1 2.543254 1_455
B1 Er2 2.572334 1_555
B2 Er2 2.764608 1_566
B2 Er2 2.764608 1_565
B2 Er3 2.764608 1_555
B2 Er3 2.764608 1_556
B3 B9 1.607403 1_555
B3 B8 1.754295 1_456
B4 B6 1.551520 1_655
B4 Er0 2.764608 1_655
B4 Er0 2.764608 1_656
B4 Er1 2.764608 1_556
B4 Er1 2.764608 1_555
B5 B7 1.754295 1_555
B5 Er1 2.543254 1_555
B5 Er3 2.572334 1_555
B6 Er1 2.764608 1_455
B6 Er1 2.764608 1_456
B6 Er0 2.764608 1_556
B6 Er0 2.764608 1_555
B8 B9 1.754295 1_655
B8 Er3 2.543254 1_545
B8 Er1 2.572334 1_555
B10 B14 1.684857 1_555
B10 B15 1.684857 1_555
B10 B7 1.754295 1_555
B10 B12 1.754295 1_554
B10 Er0 2.543254 1_555
B10 Er2 2.572334 1_555
B11 B9 1.754295 1_565
B11 B3 1.754295 1_564
B11 Er2 2.543254 1_565
B11 Er0 2.572334 1_555
B12 B7 1.607403 1_555
B12 B14 1.754295 1_556
B12 B15 1.754295 1_556
B12 B5 1.754295 1_556
B13 B2 1.551520 1_545
B13 Er3 2.764608 1_546
B13 Er2 2.764608 1_556
B13 Er2 2.764608 1_555
B13 Er3 2.764608 1_545
B14 B5 1.684857 1_555
B14 B7 1.754295 1_555
B14 Er2 2.543254 1_555
B14 Er1 2.572334 1_555
B15 B5 1.684857 1_555
B15 B7 1.754295 1_555
B15 Er3 2.543254 1_555
B15 Er0 2.572334 1_555
