# generated using pymatgen
data_SiO2
_symmetry_space_group_name_H-M   'P 1'
_cell_length_a   10.01794969
_cell_length_b   10.01795044
_cell_length_c   10.21391857
_cell_angle_alpha   90.00000000
_cell_angle_beta   90.00000000
_cell_angle_gamma   119.99999747
_symmetry_Int_Tables_number   1
_chemical_formula_structural   SiO2
_chemical_formula_sum   'Si12 O24'
_cell_volume   887.72971913
_cell_formula_units_Z   12
loop_
 _symmetry_equiv_pos_site_id
 _symmetry_equiv_pos_as_xyz
  1  'x, y, z'
loop_
 _atom_site_type_symbol
 _atom_site_label
 _atom_site_symmetry_multiplicity
 _atom_site_fract_x
 _atom_site_fract_y
 _atom_site_fract_z
 _atom_site_occupancy
  Si  Si0  1  0.56854245  0.13708290  0.60346683  1
  Si  Si1  1  0.43145755  0.56854245  0.10346683  1
  Si  Si2  1  0.56854245  0.43145755  0.60346683  1
  Si  Si3  1  0.86291710  0.43145755  0.60346683  1
  Si  Si4  1  0.43145755  0.56854245  0.39653317  1
  Si  Si5  1  0.13708290  0.56854245  0.39653317  1
  Si  Si6  1  0.86291710  0.43145755  0.89653317  1
  Si  Si7  1  0.43145755  0.86291710  0.39653317  1
  Si  Si8  1  0.43145755  0.86291710  0.10346683  1
  Si  Si9  1  0.56854245  0.13708290  0.89653317  1
  Si  Si10  1  0.56854245  0.43145755  0.89653317  1
  Si  Si11  1  0.13708290  0.56854245  0.10346683  1
  O  O0  1  0.24621419  0.49242937  0.08382710  1
  O  O1  1  0.53286844  0.46713156  0.75000000  1
  O  O2  1  0.75378581  0.50757063  0.91617290  1
  O  O3  1  0.50757063  0.75378581  0.08382710  1
  O  O4  1  0.75378581  0.24621419  0.58382710  1
  O  O5  1  0.50000000  0.50000000  0.50000000  1
  O  O6  1  0.53286844  0.06573687  0.75000000  1
  O  O7  1  0.24621419  0.49242937  0.41617290  1
  O  O8  1  0.24621419  0.75378581  0.08382710  1
  O  O9  1  0.49242937  0.24621419  0.58382710  1
  O  O10  1  0.46713156  0.93426313  0.25000000  1
  O  O11  1  0.50757063  0.75378581  0.41617290  1
  O  O12  1  0.06573687  0.53286844  0.25000000  1
  O  O13  1  -0.00000000  0.50000000  -0.00000000  1
  O  O14  1  0.93426313  0.46713156  0.75000000  1
  O  O15  1  0.50000000  -0.00000000  -0.00000000  1
  O  O16  1  0.49242937  0.24621419  0.91617290  1
  O  O17  1  0.75378581  0.24621419  0.91617290  1
  O  O18  1  0.46713156  0.53286844  0.25000000  1
  O  O19  1  0.24621419  0.75378581  0.41617290  1
  O  O20  1  0.75378581  0.50757063  0.58382710  1
  O  O21  1  0.50000000  -0.00000000  0.50000000  1
  O  O22  1  0.50000000  0.50000000  -0.00000000  1
  O  O23  1  -0.00000000  0.50000000  0.50000000  1
loop_
_geom_bond_atom_site_label_1
_geom_bond_atom_site_label_2
_geom_bond_distance
_geom_bond_site_symmetry_2
O0 Si1 1.628027 1_555
O0 Si11 1.628036 1_555
O1 Si10 1.619632 1_555
O1 Si2 1.619632 1_555
O2 Si10 1.628027 1_555
O2 Si6 1.628036 1_555
O3 Si1 1.628027 1_555
O3 Si8 1.628036 1_555
O4 Si0 1.628028 1_555
O4 Si3 1.628028 1_555
O5 Si4 1.591011 1_555
O5 Si2 1.591011 1_555
O6 Si9 1.619625 1_555
O6 Si0 1.619625 1_555
O7 Si4 1.628027 1_555
O7 Si5 1.628036 1_555
O8 Si8 1.628028 1_555
O8 Si11 1.628028 1_555
O9 Si2 1.628027 1_555
O9 Si0 1.628036 1_555
O10 Si7 1.619625 1_555
O10 Si8 1.619625 1_555
O11 Si4 1.628027 1_555
O11 Si7 1.628036 1_555
O12 Si11 1.619625 1_555
O12 Si5 1.619625 1_555
O13 Si11 1.590998 1_555
O13 Si6 1.590998 1_454
O14 Si6 1.619625 1_555
O14 Si3 1.619625 1_555
O15 Si9 1.590998 1_554
O15 Si8 1.590998 1_545
O16 Si10 1.628027 1_555
O16 Si9 1.628036 1_555
O17 Si9 1.628028 1_555
O17 Si6 1.628028 1_555
O18 Si4 1.619632 1_555
O18 Si1 1.619632 1_555
O19 Si7 1.628028 1_555
O19 Si5 1.628028 1_555
O20 Si2 1.628027 1_555
O20 Si3 1.628036 1_555
O21 Si0 1.590998 1_555
O21 Si7 1.590998 1_545
O22 Si10 1.591011 1_554
O22 Si1 1.591011 1_555
O23 Si3 1.590998 1_455
O23 Si5 1.590998 1_555
