# generated using pymatgen
data_CsBC3NOF9
_symmetry_space_group_name_H-M   'P 1'
_cell_length_a   15.46279100
_cell_length_b   7.45725200
_cell_length_c   9.47173816
_cell_angle_alpha   65.54981989
_cell_angle_beta   90.00000000
_cell_angle_gamma   90.00000000
_symmetry_Int_Tables_number   1
_chemical_formula_structural   CsBC3NOF9
_chemical_formula_sum   'Cs4 B4 C12 N4 O4 F36'
_cell_volume   994.23991514
_cell_formula_units_Z   4
loop_
 _symmetry_equiv_pos_site_id
 _symmetry_equiv_pos_as_xyz
  1  'x, y, z'
loop_
 _atom_site_type_symbol
 _atom_site_label
 _atom_site_symmetry_multiplicity
 _atom_site_fract_x
 _atom_site_fract_y
 _atom_site_fract_z
 _atom_site_occupancy
  Cs  Cs0  1  0.38847600  0.90048900  0.69256600  1
  Cs  Cs1  1  0.88847600  0.09951100  0.80743400  1
  Cs  Cs2  1  0.61152400  0.09951100  0.30743400  1
  Cs  Cs3  1  0.11152400  0.90048900  0.19256600  1
  B  B0  1  0.09174000  0.59958100  0.83333200  1
  B  B1  1  0.59174000  0.40041900  0.66666800  1
  B  B2  1  0.90826000  0.40041900  0.16666800  1
  B  B3  1  0.40826000  0.59958100  0.33333200  1
  C  C0  1  0.67622500  0.54335900  0.58260900  1
  C  C1  1  0.37594900  0.83245100  0.25796200  1
  C  C2  1  0.45286800  0.55410000  0.19179000  1
  C  C3  1  0.54713200  0.44590000  0.80821000  1
  C  C4  1  0.04713200  0.55410000  0.69179000  1
  C  C5  1  0.87594900  0.16754900  0.24203800  1
  C  C6  1  0.32377500  0.45664100  0.41739100  1
  C  C7  1  0.17622500  0.45664100  0.91739100  1
  C  C8  1  0.62405100  0.16754900  0.74203800  1
  C  C9  1  0.82377500  0.54335900  0.08260900  1
  C  C10  1  0.12405100  0.83245100  0.75796200  1
  C  C11  1  0.95286800  0.44590000  0.30821000  1
  N  N0  1  0.47960300  0.58345900  0.46142900  1
  N  N1  1  0.97960300  0.41654100  0.03857100  1
  N  N2  1  0.52039700  0.41654100  0.53857100  1
  N  N3  1  0.02039700  0.58345900  0.96142900  1
  O  O0  1  0.99888700  0.26857900  0.00728100  1
  O  O1  1  0.49888700  0.73142100  0.49271900  1
  O  O2  1  0.50111300  0.26857900  0.50728100  1
  O  O3  1  0.00111300  0.73142100  0.99271900  1
  F  F0  1  0.81933800  0.72113400  0.09352400  1
  F  F1  1  0.75473500  0.45433600  0.64162600  1
  F  F2  1  0.92217900  0.32102100  0.45364700  1
  F  F3  1  0.81440900  0.12614000  0.35726500  1
  F  F4  1  0.18066200  0.27886600  0.90647600  1
  F  F5  1  0.24526500  0.54566400  0.35837400  1
  F  F6  1  0.16252900  0.89085100  0.86416400  1
  F  F7  1  0.83747100  0.10914900  0.13583600  1
  F  F8  1  0.55859600  0.03494500  0.81094800  1
  F  F9  1  0.55878000  0.63054800  0.80316500  1
  F  F10  1  0.25473500  0.54566400  0.85837400  1
  F  F11  1  0.05859600  0.96505500  0.68905200  1
  F  F12  1  0.31992600  0.41157500  0.57420600  1
  F  F13  1  0.05878000  0.36945200  0.69683500  1
  F  F14  1  0.57782100  0.32102100  0.95364700  1
  F  F15  1  0.95879900  0.58439800  0.68390000  1
  F  F16  1  0.18007400  0.41157500  0.07420600  1
  F  F17  1  0.18559100  0.87386000  0.64273500  1
  F  F18  1  0.66252900  0.10914900  0.63583600  1
  F  F19  1  0.42217900  0.67897900  0.04635300  1
  F  F20  1  0.68066200  0.72113400  0.59352400  1
  F  F21  1  0.74526500  0.45433600  0.14162600  1
  F  F22  1  0.81992600  0.58842500  0.92579400  1
  F  F23  1  0.31933800  0.27886600  0.40647600  1
  F  F24  1  0.07782100  0.67897900  0.54635300  1
  F  F25  1  0.33747100  0.89085100  0.36416400  1
  F  F26  1  0.54120100  0.58439800  0.18390000  1
  F  F27  1  0.68007400  0.58842500  0.42579400  1
  F  F28  1  0.44122000  0.36945200  0.19683500  1
  F  F29  1  0.94122000  0.63054800  0.30316500  1
  F  F30  1  0.68559100  0.12614000  0.85726500  1
  F  F31  1  0.04120100  0.41560200  0.31610000  1
  F  F32  1  0.94140400  0.03494500  0.31094800  1
  F  F33  1  0.44140400  0.96505500  0.18905200  1
  F  F34  1  0.45879900  0.41560200  0.81610000  1
  F  F35  1  0.31440900  0.87386000  0.14273500  1
loop_
_geom_bond_atom_site_label_1
_geom_bond_atom_site_label_2
_geom_bond_distance
_geom_bond_site_symmetry_2
Cs0 F19 3.105978 1_556
Cs0 O2 3.108103 1_565
Cs0 O1 3.172217 1_555
Cs0 F8 3.180094 1_565
Cs0 F23 3.180891 1_565
Cs0 F17 3.190865 1_555
Cs0 F10 3.210069 1_555
Cs0 F9 3.215378 1_555
Cs0 F25 3.238471 1_555
Cs0 F34 3.481959 1_555
Cs0 F12 3.656411 1_565
Cs1 F2 3.105978 1_555
Cs1 O3 3.108103 1_645
Cs1 O0 3.172217 1_556
Cs1 F11 3.180094 1_645
Cs1 F0 3.180891 1_546
Cs1 F30 3.190865 1_555
Cs1 F1 3.210069 1_555
Cs1 F13 3.215378 1_655
Cs1 F7 3.238471 1_556
Cs1 F15 3.481959 1_555
Cs1 F22 3.656411 1_545
Cs2 F14 3.105978 1_554
Cs2 O1 3.108103 1_545
Cs2 O2 3.172217 1_555
Cs2 F33 3.180094 1_545
Cs2 F20 3.180891 1_545
Cs2 F3 3.190865 1_555
Cs2 F21 3.210069 1_555
Cs2 F28 3.215378 1_555
Cs2 F18 3.238471 1_555
Cs2 F26 3.481959 1_555
Cs2 F27 3.656411 1_545
Cs3 F24 3.105978 1_555
Cs3 O0 3.108103 1_465
Cs3 O3 3.172217 1_554
Cs3 F32 3.180094 1_465
Cs3 F4 3.180891 1_564
Cs3 F35 3.190865 1_555
Cs3 F5 3.210069 1_555
Cs3 F29 3.215378 1_455
Cs3 F6 3.238471 1_554
Cs3 F31 3.481959 1_555
Cs3 F16 3.656411 1_565
B0 N3 1.607099 1_555
B0 C10 1.657917 1_555
B0 C4 1.662693 1_555
B0 C7 1.665595 1_555
B1 N2 1.607099 1_555
B1 C8 1.657917 1_555
B1 C3 1.662693 1_555
B1 C0 1.665595 1_555
B2 N1 1.607099 1_555
B2 C5 1.657917 1_555
B2 C11 1.662693 1_555
B2 C9 1.665595 1_555
B3 N0 1.607099 1_555
B3 C1 1.657917 1_555
B3 C2 1.662693 1_555
B3 C6 1.665595 1_555
C0 F20 1.373451 1_555
C0 F27 1.381818 1_555
C0 F1 1.385552 1_555
C1 F33 1.376210 1_555
C1 F35 1.383122 1_555
C1 F25 1.384982 1_555
C2 F28 1.369778 1_555
C2 F26 1.381401 1_555
C2 F19 1.388560 1_555
C3 F9 1.369778 1_555
C3 F34 1.381401 1_555
C3 F14 1.388560 1_555
C4 F13 1.369778 1_555
C4 F15 1.381401 1_455
C4 F24 1.388560 1_555
C5 F32 1.376210 1_555
C5 F3 1.383122 1_555
C5 F7 1.384982 1_555
C6 F23 1.373451 1_555
C6 F12 1.381818 1_555
C6 F5 1.385552 1_555
C7 F4 1.373451 1_555
C7 F16 1.381818 1_556
C7 F10 1.385552 1_555
C8 F8 1.376210 1_555
C8 F30 1.383122 1_555
C8 F18 1.384982 1_555
C9 F0 1.373451 1_555
C9 F22 1.381818 1_554
C9 F21 1.385552 1_555
C10 F11 1.376210 1_555
C10 F17 1.383122 1_555
C10 F6 1.384982 1_555
C11 F29 1.369778 1_555
C11 F31 1.381401 1_655
C11 F2 1.388560 1_555
N0 O1 1.290318 1_555
N0 N2 1.314643 1_555
N1 O0 1.290318 1_555
N1 N3 1.314643 1_654
N2 O2 1.290318 1_555
N3 O3 1.290318 1_555
