# generated using pymatgen
data_Ba5Yb8Ni4O21
_symmetry_space_group_name_H-M   'P 1'
_cell_length_a   9.97015491
_cell_length_b   9.97015491
_cell_length_c   9.97015491
_cell_angle_alpha   94.61920278
_cell_angle_beta   94.61920278
_cell_angle_gamma   147.02772493
_symmetry_Int_Tables_number   1
_chemical_formula_structural   Ba5Yb8Ni4O21
_chemical_formula_sum   'Ba5 Yb8 Ni4 O21'
_cell_volume   517.20031604
_cell_formula_units_Z   1
loop_
 _symmetry_equiv_pos_site_id
 _symmetry_equiv_pos_as_xyz
  1  'x, y, z'
loop_
 _atom_site_type_symbol
 _atom_site_label
 _atom_site_symmetry_multiplicity
 _atom_site_fract_x
 _atom_site_fract_y
 _atom_site_fract_z
 _atom_site_occupancy
  Ba  Ba0  1  0.53209400  0.85262400  0.38471800  1
  Ba  Ba1  1  0.85262400  0.46790600  0.32052900  1
  Ba  Ba2  1  0.14737600  0.53209400  0.67947100  1
  Ba  Ba3  1  0.46790600  0.14737600  0.61528200  1
  Ba  Ba4  1  0.00000000  0.00000000  0.00000000  1
  Yb  Yb0  1  0.83014200  0.74950600  0.57964800  1
  Yb  Yb1  1  0.74950600  0.16985800  0.91936400  1
  Yb  Yb2  1  0.25049400  0.83014200  0.08063600  1
  Yb  Yb3  1  0.16985800  0.25049400  0.42035200  1
  Yb  Yb4  1  0.63910400  0.59266200  0.23176600  1
  Yb  Yb5  1  0.59266200  0.36089600  0.95355900  1
  Yb  Yb6  1  0.40733800  0.63910400  0.04644100  1
  Yb  Yb7  1  0.36089600  0.40733800  0.76823400  1
  Ni  Ni0  1  0.75668100  0.95861600  0.71529700  1
  Ni  Ni1  1  0.95861600  0.24331900  0.20193400  1
  Ni  Ni2  1  0.04138400  0.75668100  0.79806600  1
  Ni  Ni3  1  0.24331900  0.04138400  0.28470300  1
  O  O0  1  0.50000000  0.50000000  0.00000000  1
  O  O1  1  0.97478600  0.63871000  0.61349600  1
  O  O2  1  0.63871000  0.02521400  0.66392400  1
  O  O3  1  0.36129000  0.97478600  0.33607600  1
  O  O4  1  0.02521400  0.36129000  0.38650400  1
  O  O5  1  0.50297200  0.63329500  0.59507800  1
  O  O6  1  0.63329500  0.03821700  0.13032200  1
  O  O7  1  0.90789500  0.50297200  0.86967800  1
  O  O8  1  0.03821700  0.90789500  0.40492200  1
  O  O9  1  0.49702800  0.36670500  0.40492200  1
  O  O10  1  0.36670500  0.96178300  0.86967800  1
  O  O11  1  0.09210500  0.49702800  0.13032200  1
  O  O12  1  0.96178300  0.09210500  0.59507800  1
  O  O13  1  0.72680100  0.58166900  0.77447600  1
  O  O14  1  0.58166900  0.80719300  0.85486800  1
  O  O15  1  0.95232400  0.72680100  0.14513200  1
  O  O16  1  0.80719300  0.95232400  0.22552400  1
  O  O17  1  0.27319900  0.41833100  0.22552400  1
  O  O18  1  0.41833100  0.19280700  0.14513200  1
  O  O19  1  0.04767600  0.27319900  0.85486800  1
  O  O20  1  0.19280700  0.04767600  0.77447600  1
loop_
_geom_bond_atom_site_label_1
_geom_bond_atom_site_label_2
_geom_bond_distance
_geom_bond_site_symmetry_2
Ba0 O17 2.722284 1_555
Ba0 O16 2.722289 1_555
Ba0 O2 2.742790 1_565
Ba0 O4 2.833316 1_665
Ba0 O4 2.833316 1_555
Ba0 O3 2.839176 1_555
Ba0 O6 2.985074 1_565
Ba0 O11 2.985075 1_555
Ba0 O5 3.006056 1_555
Ba0 O12 3.006061 1_565
Ba1 O18 2.722280 1_555
Ba1 O15 2.722281 1_555
Ba1 O4 2.742792 1_655
Ba1 O3 2.833314 1_655
Ba1 O3 2.833320 1_545
Ba1 O1 2.839185 1_555
Ba1 O9 2.985069 1_555
Ba1 O8 2.985075 1_655
Ba1 O11 3.006049 1_655
Ba1 O6 3.006056 1_555
Ba2 O14 2.722280 1_555
Ba2 O19 2.722281 1_555
Ba2 O1 2.742792 1_455
Ba2 O2 2.833314 1_455
Ba2 O2 2.833320 1_565
Ba2 O4 2.839185 1_555
Ba2 O5 2.985069 1_555
Ba2 O12 2.985075 1_455
Ba2 O7 3.006049 1_455
Ba2 O10 3.006056 1_555
Ba3 O13 2.722284 1_555
Ba3 O20 2.722289 1_555
Ba3 O3 2.742790 1_545
Ba3 O1 2.833316 1_445
Ba3 O1 2.833316 1_555
Ba3 O2 2.839176 1_555
Ba3 O10 2.985074 1_545
Ba3 O7 2.985075 1_555
Ba3 O9 3.006056 1_555
Ba3 O8 3.006061 1_545
Ba4 O0 2.829364 1_555
Ba4 O0 2.829364 1_445
Ba4 O15 2.883089 1_445
Ba4 O19 2.883089 1_554
Ba4 O16 2.883092 1_445
Ba4 O20 2.883092 1_554
Ba4 O13 2.883095 1_444
Ba4 O17 2.883095 1_555
Ba4 O18 2.883095 1_555
Ba4 O14 2.883095 1_444
Ni0 O2 1.831606 1_565
Ni0 O5 1.864093 1_555
Ni0 O12 1.864095 1_565
Ni0 O14 1.889379 1_555
Ni0 O19 1.889380 1_665
Ni1 O4 1.831615 1_655
Ni1 O6 1.864093 1_555
Ni1 O11 1.864097 1_655
Ni1 O17 1.889378 1_655
Ni1 O16 1.889391 1_545
Ni2 O1 1.831615 1_455
Ni2 O10 1.864093 1_555
Ni2 O7 1.864097 1_455
Ni2 O13 1.889378 1_455
Ni2 O20 1.889391 1_565
Ni3 O3 1.831606 1_545
Ni3 O9 1.864093 1_555
Ni3 O8 1.864095 1_545
Ni3 O18 1.889379 1_555
Ni3 O15 1.889380 1_445
O0 Yb5 2.259790 1_554
O0 Yb6 2.259790 1_555
O0 Yb4 2.259792 1_555
O0 Yb7 2.259792 1_554
O1 Yb0 2.463421 1_555
O2 Yb1 2.463421 1_555
O3 Yb2 2.463421 1_555
O4 Yb3 2.463421 1_555
O5 Yb3 2.315299 1_555
O5 Yb7 2.393351 1_555
O5 Yb0 2.403022 1_555
O6 Yb2 2.315299 1_545
O6 Yb6 2.393351 1_545
O6 Yb1 2.403013 1_554
O7 Yb1 2.315290 1_555
O7 Yb5 2.393359 1_555
O7 Yb2 2.403014 1_656
O8 Yb0 2.315299 1_455
O8 Yb4 2.393349 1_455
O8 Yb3 2.403013 1_565
O9 Yb0 2.315299 1_555
O9 Yb4 2.393351 1_555
O9 Yb3 2.403022 1_555
O10 Yb1 2.315299 1_565
O10 Yb5 2.393351 1_565
O10 Yb2 2.403013 1_556
O11 Yb2 2.315290 1_555
O11 Yb6 2.393359 1_555
O11 Yb1 2.403014 1_454
O12 Yb3 2.315299 1_655
O12 Yb7 2.393349 1_655
O12 Yb0 2.403013 1_545
O13 Yb0 2.363883 1_555
O13 Yb7 2.375006 1_555
O13 Yb5 2.428977 1_555
O14 Yb1 2.363883 1_565
O14 Yb6 2.374997 1_556
O14 Yb7 2.428968 1_555
O15 Yb2 2.363893 1_655
O15 Yb5 2.374999 1_554
O15 Yb4 2.428960 1_555
O16 Yb3 2.363883 1_665
O16 Yb4 2.374997 1_555
O16 Yb6 2.428974 1_555
O17 Yb3 2.363883 1_555
O17 Yb4 2.375006 1_555
O17 Yb6 2.428977 1_555
O18 Yb2 2.363883 1_545
O18 Yb5 2.374997 1_554
O18 Yb4 2.428968 1_555
O19 Yb1 2.363893 1_455
O19 Yb6 2.374999 1_556
O19 Yb7 2.428960 1_555
O20 Yb0 2.363883 1_445
O20 Yb7 2.374997 1_555
O20 Yb5 2.428974 1_555
