# generated using pymatgen
data_K2CdP2O7
_symmetry_space_group_name_H-M   'P 1'
_cell_length_a   5.70067588
_cell_length_b   5.70067588
_cell_length_c   13.00227339
_cell_angle_alpha   75.60587154
_cell_angle_beta   75.60587154
_cell_angle_gamma   59.33800708
_symmetry_Int_Tables_number   1
_chemical_formula_structural   K2CdP2O7
_chemical_formula_sum   'K4 Cd2 P4 O14'
_cell_volume   348.27560387
_cell_formula_units_Z   2
loop_
 _symmetry_equiv_pos_site_id
 _symmetry_equiv_pos_as_xyz
  1  'x, y, z'
loop_
 _atom_site_type_symbol
 _atom_site_label
 _atom_site_symmetry_multiplicity
 _atom_site_fract_x
 _atom_site_fract_y
 _atom_site_fract_z
 _atom_site_occupancy
  K  K0  1  0.94048200  0.35768100  0.83158500  1
  K  K1  1  0.05951800  0.64231900  0.16841500  1
  K  K2  1  0.64231900  0.05951800  0.66841500  1
  K  K3  1  0.35768100  0.94048200  0.33158500  1
  Cd  Cd0  1  0.50000000  0.00000000  0.00000000  1
  Cd  Cd1  1  0.00000000  0.50000000  0.50000000  1
  P  P0  1  0.68932200  0.25508000  0.36975100  1
  P  P1  1  0.25508000  0.68932200  0.86975100  1
  P  P2  1  0.74492000  0.31067800  0.13024900  1
  P  P3  1  0.31067800  0.74492000  0.63024900  1
  O  O0  1  0.15738500  0.84261500  0.75000000  1
  O  O1  1  0.55600500  0.19958800  0.12089000  1
  O  O2  1  0.84261500  0.15738500  0.25000000  1
  O  O3  1  0.44399500  0.80041200  0.87911000  1
  O  O4  1  0.58811200  0.62233500  0.13474300  1
  O  O5  1  0.01637600  0.20901300  0.05491400  1
  O  O6  1  0.80041200  0.44399500  0.37911000  1
  O  O7  1  0.20901300  0.01637600  0.55491400  1
  O  O8  1  0.19958800  0.55600500  0.62089000  1
  O  O9  1  0.37766500  0.41188800  0.36525700  1
  O  O10  1  0.79098700  0.98362400  0.44508600  1
  O  O11  1  0.41188800  0.37766500  0.86525700  1
  O  O12  1  0.98362400  0.79098700  0.94508600  1
  O  O13  1  0.62233500  0.58811200  0.63474300  1
loop_
_geom_bond_atom_site_label_1
_geom_bond_atom_site_label_2
_geom_bond_distance
_geom_bond_site_symmetry_2
K0 O3 2.717068 1_555
K0 O11 2.881603 1_555
K0 O11 2.889364 1_655
K0 O5 2.892144 1_656
K0 O0 2.910158 1_645
K0 O8 3.019347 1_655
K0 O3 3.052595 1_645
K0 O12 3.110390 1_545
K0 O13 3.125980 1_555
K1 O1 2.717068 1_555
K1 O4 2.881603 1_555
K1 O4 2.889364 1_455
K1 O12 2.892144 1_454
K1 O2 2.910158 1_465
K1 O6 3.019347 1_455
K1 O1 3.052595 1_465
K1 O5 3.110390 1_565
K1 O9 3.125980 1_555
K2 O8 2.717068 1_555
K2 O13 2.881603 1_555
K2 O13 2.889364 1_545
K2 O10 2.892144 1_545
K2 O0 2.910158 1_645
K2 O3 3.019347 1_545
K2 O8 3.052595 1_645
K2 O7 3.110390 1_655
K2 O11 3.125980 1_555
K3 O6 2.717068 1_555
K3 O9 2.881603 1_555
K3 O9 2.889364 1_565
K3 O7 2.892144 1_565
K3 O2 2.910158 1_465
K3 O1 3.019347 1_565
K3 O6 3.052595 1_465
K3 O10 3.110390 1_455
K3 O4 3.125980 1_555
Cd0 O3 2.318698 1_544
Cd0 O1 2.318698 1_555
Cd0 O4 2.327248 1_545
Cd0 O11 2.327248 1_554
Cd0 O12 2.371548 1_544
Cd0 O5 2.371548 1_555
Cd1 O6 2.318698 1_455
Cd1 O8 2.318698 1_555
Cd1 O13 2.327248 1_455
Cd1 O9 2.327248 1_555
Cd1 O10 2.371548 1_455
Cd1 O7 2.371548 1_555
O0 P1 1.660251 1_555
O0 P3 1.660251 1_555
O1 P2 1.541025 1_555
O2 P0 1.660251 1_555
O2 P2 1.660251 1_555
O3 P1 1.541025 1_555
O4 P2 1.537788 1_555
O5 P2 1.517872 1_455
O6 P0 1.541025 1_555
O7 P3 1.517872 1_545
O8 P3 1.541025 1_555
O9 P0 1.537788 1_555
O10 P0 1.517872 1_565
O11 P1 1.537788 1_555
O12 P1 1.517872 1_655
O13 P3 1.537788 1_555
