# generated using pymatgen
data_Na2TiSi4O11
_symmetry_space_group_name_H-M   'P 1'
_cell_length_a   8.65231573
_cell_length_b   8.65231573
_cell_length_c   8.65231573
_cell_angle_alpha   102.03368303
_cell_angle_beta   102.03368303
_cell_angle_gamma   125.66370204
_symmetry_Int_Tables_number   1
_chemical_formula_structural   Na2TiSi4O11
_chemical_formula_sum   'Na4 Ti2 Si8 O22'
_cell_volume   468.19250913
_cell_formula_units_Z   2
loop_
 _symmetry_equiv_pos_site_id
 _symmetry_equiv_pos_as_xyz
  1  'x, y, z'
loop_
 _atom_site_type_symbol
 _atom_site_label
 _atom_site_symmetry_multiplicity
 _atom_site_fract_x
 _atom_site_fract_y
 _atom_site_fract_z
 _atom_site_occupancy
  Na  Na0  1  0.36614000  0.31741600  0.68355600  1
  Na  Na1  1  0.31741600  0.63386000  0.95127600  1
  Na  Na2  1  0.63386000  0.68258400  0.31644400  1
  Na  Na3  1  0.68258400  0.36614000  0.04872400  1
  Ti  Ti0  1  0.75622300  0.75622300  0.00000000  1
  Ti  Ti1  1  0.24377700  0.24377700  0.00000000  1
  Si  Si0  1  0.49896300  0.79537200  0.67932600  1
  Si  Si1  1  0.50103700  0.20462800  0.32067400  1
  Si  Si2  1  0.20462800  0.88395300  0.70359100  1
  Si  Si3  1  0.88395300  0.18036300  0.67932600  1
  Si  Si4  1  0.18036300  0.50103700  0.29640900  1
  Si  Si5  1  0.81963700  0.49896300  0.70359100  1
  Si  Si6  1  0.11604700  0.81963700  0.32067400  1
  Si  Si7  1  0.79537200  0.11604700  0.29640900  1
  O  O0  1  0.55394900  0.68192100  0.77302100  1
  O  O1  1  0.40828100  0.67759100  0.46639400  1
  O  O2  1  0.44605100  0.31807900  0.22697900  1
  O  O3  1  0.05811200  0.59171900  0.26931000  1
  O  O4  1  0.21907200  0.44605100  0.12797200  1
  O  O5  1  0.30393100  0.95786300  0.26179400  1
  O  O6  1  0.78092800  0.55394900  0.87202800  1
  O  O7  1  0.31807900  0.09110000  0.87202800  1
  O  O8  1  0.67759100  0.21119800  0.26931000  1
  O  O9  1  0.32240900  0.78880200  0.73069000  1
  O  O10  1  0.69606900  0.04213700  0.73820600  1
  O  O11  1  0.04213700  0.30393100  0.34606800  1
  O  O12  1  0.50000000  0.50000000  0.00000000  1
  O  O13  1  0.78880200  0.05811200  0.46639400  1
  O  O14  1  0.21119800  0.94188800  0.53360600  1
  O  O15  1  0.90890000  0.78092800  0.22697900  1
  O  O16  1  0.09110000  0.21907200  0.77302100  1
  O  O17  1  0.95786300  0.69606900  0.65393200  1
  O  O18  1  0.68192100  0.90890000  0.12797200  1
  O  O19  1  0.59171900  0.32240900  0.53360600  1
  O  O20  1  0.00000000  0.00000000  0.00000000  1
  O  O21  1  0.94188800  0.40828100  0.73069000  1
loop_
_geom_bond_atom_site_label_1
_geom_bond_atom_site_label_2
_geom_bond_distance
_geom_bond_site_symmetry_2
Na0 O0 2.380746 1_555
Na0 O16 2.380746 1_555
Na0 O12 2.464599 1_556
Na0 O14 2.544703 1_545
Na0 O19 2.544708 1_555
Na0 O7 2.707636 1_555
Na0 O6 2.707636 1_555
Na1 O18 2.380746 1_556
Na1 O4 2.380746 1_556
Na1 O12 2.464599 1_556
Na1 O9 2.544702 1_555
Na1 O21 2.544702 1_455
Na1 O0 2.707636 1_555
Na1 O16 2.707636 1_555
Na2 O2 2.380746 1_555
Na2 O15 2.380746 1_555
Na2 O12 2.464599 1_555
Na2 O13 2.544703 1_565
Na2 O1 2.544708 1_555
Na2 O18 2.707636 1_555
Na2 O4 2.707636 1_555
Na3 O7 2.380746 1_554
Na3 O6 2.380746 1_554
Na3 O12 2.464599 1_555
Na3 O3 2.544702 1_655
Na3 O8 2.544702 1_555
Na3 O15 2.707636 1_555
Na3 O2 2.707636 1_555
O0 Si0 1.600832 1_555
O0 Ti0 2.015334 1_556
O1 Si4 1.651264 1_555
O1 Si0 1.652403 1_555
O2 Si1 1.600832 1_555
O2 Ti1 2.015334 1_555
O3 Si6 1.651256 1_555
O3 Si4 1.652411 1_555
O4 Si4 1.600832 1_555
O4 Ti1 2.015334 1_555
O5 Si6 1.632452 1_555
O5 Si1 1.632457 1_565
O6 Si5 1.600832 1_555
O6 Ti0 2.015334 1_556
O7 Si2 1.600837 1_545
O7 Ti1 2.015334 1_556
O8 Si1 1.651260 1_555
O8 Si7 1.652403 1_555
O9 Si0 1.651260 1_555
O9 Si2 1.652403 1_555
O10 Si3 1.632452 1_555
O10 Si0 1.632457 1_545
O11 Si7 1.632455 1_455
O11 Si4 1.632457 1_555
O12 Ti1 2.024509 1_555
O12 Ti0 2.024509 1_555
O13 Si7 1.651273 1_555
O13 Si3 1.652404 1_555
O14 Si2 1.651273 1_555
O14 Si6 1.652404 1_555
O15 Si6 1.600840 1_655
O15 Ti0 2.015334 1_555
O16 Si3 1.600840 1_455
O16 Ti1 2.015334 1_556
O17 Si2 1.632455 1_655
O17 Si5 1.632457 1_555
O18 Si7 1.600837 1_565
O18 Ti0 2.015334 1_555
O19 Si5 1.651264 1_555
O19 Si1 1.652403 1_555
O20 Ti1 1.926168 1_555
O20 Ti0 1.926168 1_445
O21 Si3 1.651256 1_555
O21 Si5 1.652411 1_555
