# generated using pymatgen
data_La5C2I9
_symmetry_space_group_name_H-M   'P 1'
_cell_length_a   8.10768400
_cell_length_b   17.33485500
_cell_length_c   36.82546200
_cell_angle_alpha   90.00000000
_cell_angle_beta   90.00000000
_cell_angle_gamma   90.00000000
_symmetry_Int_Tables_number   1
_chemical_formula_structural   La5C2I9
_chemical_formula_sum   'La40 C16 I72'
_cell_volume   5175.65394635
_cell_formula_units_Z   8
loop_
 _symmetry_equiv_pos_site_id
 _symmetry_equiv_pos_as_xyz
  1  'x, y, z'
loop_
 _atom_site_type_symbol
 _atom_site_label
 _atom_site_symmetry_multiplicity
 _atom_site_fract_x
 _atom_site_fract_y
 _atom_site_fract_z
 _atom_site_occupancy
  La  La0  1  0.98428400  0.80351400  0.60431400  1
  La  La1  1  0.87434200  0.56800900  0.36182400  1
  La  La2  1  0.51571600  0.19648600  0.10431400  1
  La  La3  1  0.98428400  0.69648600  0.10431400  1
  La  La4  1  0.87434200  0.93199100  0.86182400  1
  La  La5  1  0.12565800  0.06800900  0.13817600  1
  La  La6  1  0.59502200  0.67221500  0.29173500  1
  La  La7  1  0.89590100  0.80571600  0.34902600  1
  La  La8  1  0.10409900  0.19428400  0.65097400  1
  La  La9  1  0.89783300  0.80085600  0.94445700  1
  La  La10  1  0.10409900  0.30571600  0.15097400  1
  La  La11  1  0.12565800  0.43199100  0.63817600  1
  La  La12  1  0.10216700  0.19914400  0.05554300  1
  La  La13  1  0.60216700  0.19914400  0.44445700  1
  La  La14  1  0.59502200  0.82778500  0.79173500  1
  La  La15  1  0.37434200  0.56800900  0.13817600  1
  La  La16  1  0.39783300  0.80085600  0.55554300  1
  La  La17  1  0.40497800  0.32778500  0.70826500  1
  La  La18  1  0.39590100  0.80571600  0.15097400  1
  La  La19  1  0.90497800  0.32778500  0.79173500  1
  La  La20  1  0.62565800  0.43199100  0.86182400  1
  La  La21  1  0.89590100  0.69428400  0.84902600  1
  La  La22  1  0.39590100  0.69428400  0.65097400  1
  La  La23  1  0.60216700  0.30085600  0.94445700  1
  La  La24  1  0.01571600  0.19648600  0.39568600  1
  La  La25  1  0.48428400  0.80351400  0.89568600  1
  La  La26  1  0.89783300  0.69914400  0.44445700  1
  La  La27  1  0.01571600  0.30351400  0.89568600  1
  La  La28  1  0.09502200  0.82778500  0.70826500  1
  La  La29  1  0.62565800  0.06800900  0.36182400  1
  La  La30  1  0.40497800  0.17221500  0.20826500  1
  La  La31  1  0.39783300  0.69914400  0.05554300  1
  La  La32  1  0.37434200  0.93199100  0.63817600  1
  La  La33  1  0.10216700  0.30085600  0.55554300  1
  La  La34  1  0.09502200  0.67221500  0.20826500  1
  La  La35  1  0.60409900  0.19428400  0.84902600  1
  La  La36  1  0.90497800  0.17221500  0.29173500  1
  La  La37  1  0.51571600  0.30351400  0.60431400  1
  La  La38  1  0.60409900  0.30571600  0.34902600  1
  La  La39  1  0.48428400  0.69648600  0.39568600  1
  C  C0  1  0.78877800  0.80164100  0.88541500  1
  C  C1  1  0.21460800  0.68823800  0.15063700  1
  C  C2  1  0.28877800  0.80164100  0.61458500  1
  C  C3  1  0.28877800  0.69835900  0.11458500  1
  C  C4  1  0.21122200  0.30164100  0.61458500  1
  C  C5  1  0.21122200  0.19835900  0.11458500  1
  C  C6  1  0.28539200  0.18823800  0.15063700  1
  C  C7  1  0.21460800  0.81176200  0.65063700  1
  C  C8  1  0.78539200  0.31176200  0.84936300  1
  C  C9  1  0.71460800  0.81176200  0.84936300  1
  C  C10  1  0.71460800  0.68823800  0.34936300  1
  C  C11  1  0.78877800  0.69835900  0.38541500  1
  C  C12  1  0.78539200  0.18823800  0.34936300  1
  C  C13  1  0.71122200  0.19835900  0.38541500  1
  C  C14  1  0.71122200  0.30164100  0.88541500  1
  C  C15  1  0.28539200  0.31176200  0.65063700  1
  I  I0  1  0.35576200  0.33002100  0.41914600  1
  I  I1  1  0.32536100  0.42774400  0.92511800  1
  I  I2  1  0.33549100  0.04710900  0.05691100  1
  I  I3  1  0.14423800  0.83002100  0.41914600  1
  I  I4  1  0.02717000  0.87763200  0.14491600  1
  I  I5  1  0.91909600  0.29712100  0.46989300  1
  I  I6  1  0.61429100  0.44641100  0.77051500  1
  I  I7  1  0.08090400  0.79712100  0.03010700  1
  I  I8  1  0.78988600  0.18359300  0.17191700  1
  I  I9  1  0.85576200  0.33002100  0.08085400  1
  I  I10  1  0.71011400  0.68359300  0.17191700  1
  I  I11  1  0.58090400  0.70287900  0.96989300  1
  I  I12  1  0.28988600  0.31640700  0.82808300  1
  I  I13  1  0.35540400  0.80064900  0.23879600  1
  I  I14  1  0.17463900  0.92774400  0.92511800  1
  I  I15  1  0.66450900  0.95289100  0.94308900  1
  I  I16  1  0.16450900  0.95289100  0.55691100  1
  I  I17  1  0.61429100  0.05358900  0.27051500  1
  I  I18  1  0.38570900  0.94641100  0.72948500  1
  I  I19  1  0.11429100  0.44641100  0.72948500  1
  I  I20  1  0.64423800  0.66997900  0.58085400  1
  I  I21  1  0.33549100  0.45289100  0.55691100  1
  I  I22  1  0.88570900  0.94641100  0.77051500  1
  I  I23  1  0.82536100  0.07225600  0.07488200  1
  I  I24  1  0.21011400  0.81640700  0.82808300  1
  I  I25  1  0.52717000  0.62236800  0.85508400  1
  I  I26  1  0.35576200  0.16997900  0.91914600  1
  I  I27  1  0.49017600  0.99784200  0.16166100  1
  I  I28  1  0.64459600  0.30064900  0.26120400  1
  I  I29  1  0.21011400  0.68359300  0.32808300  1
  I  I30  1  0.83549100  0.04710900  0.44308900  1
  I  I31  1  0.28988600  0.18359300  0.32808300  1
  I  I32  1  0.64459600  0.19935100  0.76120400  1
  I  I33  1  0.85576200  0.16997900  0.58085400  1
  I  I34  1  0.14423800  0.66997900  0.91914600  1
  I  I35  1  0.17463900  0.57225600  0.42511800  1
  I  I36  1  0.91909600  0.20287900  0.96989300  1
  I  I37  1  0.83549100  0.45289100  0.94308900  1
  I  I38  1  0.35540400  0.69935100  0.73879600  1
  I  I39  1  0.41909600  0.29712100  0.03010700  1
  I  I40  1  0.49017600  0.50215800  0.66166100  1
  I  I41  1  0.02717000  0.62236800  0.64491600  1
  I  I42  1  0.16450900  0.54710900  0.05691100  1
  I  I43  1  0.99017600  0.99784200  0.33833900  1
  I  I44  1  0.47283000  0.37763200  0.14491600  1
  I  I45  1  0.00982400  0.00215800  0.66166100  1
  I  I46  1  0.82536100  0.42774400  0.57488200  1
  I  I47  1  0.85540400  0.69935100  0.76120400  1
  I  I48  1  0.50982400  0.49784200  0.33833900  1
  I  I49  1  0.71011400  0.81640700  0.67191700  1
  I  I50  1  0.52717000  0.87763200  0.35508400  1
  I  I51  1  0.67463900  0.92774400  0.57488200  1
  I  I52  1  0.58090400  0.79712100  0.46989300  1
  I  I53  1  0.41909600  0.20287900  0.53010700  1
  I  I54  1  0.50982400  0.00215800  0.83833900  1
  I  I55  1  0.47283000  0.12236800  0.64491600  1
  I  I56  1  0.85540400  0.80064900  0.26120400  1
  I  I57  1  0.32536100  0.07225600  0.42511800  1
  I  I58  1  0.97283000  0.12236800  0.85508400  1
  I  I59  1  0.99017600  0.50215800  0.83833900  1
  I  I60  1  0.08090400  0.70287900  0.53010700  1
  I  I61  1  0.97283000  0.37763200  0.35508400  1
  I  I62  1  0.78988600  0.31640700  0.67191700  1
  I  I63  1  0.00982400  0.49784200  0.16166100  1
  I  I64  1  0.14459600  0.19935100  0.73879600  1
  I  I65  1  0.38570900  0.55358900  0.22948500  1
  I  I66  1  0.64423800  0.83002100  0.08085400  1
  I  I67  1  0.88570900  0.55358900  0.27051500  1
  I  I68  1  0.14459600  0.30064900  0.23879600  1
  I  I69  1  0.11429100  0.05358900  0.22948500  1
  I  I70  1  0.67463900  0.57225600  0.07488200  1
  I  I71  1  0.66450900  0.54710900  0.44308900  1
loop_
_geom_bond_atom_site_label_1
_geom_bond_atom_site_label_2
_geom_bond_distance
_geom_bond_site_symmetry_2
C0 C9 1.467994 1_555
C0 La9 2.347195 1_555
C0 La21 2.452229 1_555
C0 La25 2.497759 1_555
C0 La4 2.518286 1_555
C1 C3 1.467994 1_555
C1 La34 2.349648 1_555
C1 La15 2.496293 1_555
C1 La18 2.511543 1_555
C1 La3 2.533295 1_455
C2 C7 1.467994 1_555
C2 La16 2.347195 1_555
C2 La22 2.452229 1_555
C2 La0 2.497759 1_455
C2 La32 2.518286 1_555
C3 La31 2.347195 1_555
C3 La18 2.452229 1_555
C3 La3 2.497759 1_455
C3 La15 2.518286 1_555
C4 La33 2.347195 1_555
C4 La8 2.452229 1_555
C4 La37 2.497759 1_555
C4 La11 2.518286 1_555
C5 C6 1.467994 1_555
C5 La12 2.347195 1_555
C5 La10 2.452229 1_555
C5 La2 2.497759 1_555
C5 La5 2.518286 1_555
C6 La30 2.349648 1_555
C6 La5 2.496293 1_555
C6 La10 2.511543 1_555
C6 La2 2.533295 1_555
C7 La28 2.349648 1_555
C7 La32 2.496293 1_555
C7 La22 2.511543 1_555
C7 La0 2.533295 1_455
C8 La19 2.349648 1_555
C8 La20 2.496293 1_555
C8 La35 2.511543 1_555
C8 La27 2.533295 1_655
C9 La14 2.349648 1_555
C9 La4 2.496293 1_555
C9 La21 2.511543 1_555
C9 La25 2.533295 1_555
C10 C11 1.467994 1_555
C10 La6 2.349648 1_555
C10 La1 2.496293 1_555
C10 La7 2.511543 1_555
C10 La39 2.533295 1_555
C11 La26 2.347195 1_555
C11 La7 2.452229 1_555
C11 La39 2.497759 1_555
C11 La1 2.518286 1_555
C12 C13 1.467994 1_555
C12 La36 2.349648 1_555
C12 La29 2.496293 1_555
C12 La38 2.511543 1_555
C12 La24 2.533295 1_655
C13 La13 2.347195 1_555
C13 La38 2.452229 1_555
C13 La24 2.497759 1_655
C13 La29 2.518286 1_555
C14 C8 1.467994 1_555
C14 La23 2.347195 1_555
C14 La35 2.452229 1_555
C14 La27 2.497759 1_655
C14 La20 2.518286 1_555
C15 C4 1.467994 1_555
C15 La17 2.349648 1_555
C15 La11 2.496293 1_555
C15 La8 2.511543 1_555
C15 La37 2.533295 1_555
I0 La13 3.163391 1_555
I0 La38 3.301395 1_555
I0 La24 3.702118 1_555
I1 La23 3.222117 1_555
I1 La20 3.371353 1_555
I1 La27 3.480654 1_555
I2 La12 3.244536 1_555
I2 La2 3.447828 1_555
I2 La5 3.461405 1_555
I3 La26 3.163391 1_455
I3 La7 3.301395 1_455
I3 La39 3.702118 1_555
I4 La18 3.246744 1_555
I4 La5 3.404448 1_565
I4 La3 3.495277 1_455
I5 La13 3.219418 1_555
I5 La24 3.335357 1_655
I5 La33 3.486493 1_655
I6 La19 3.223938 1_555
I6 La20 3.373034 1_555
I6 La17 3.516194 1_555
I7 La31 3.219418 1_555
I7 La3 3.335357 1_455
I7 La9 3.486493 1_454
I8 La2 3.344971 1_555
I8 La10 3.400939 1_655
I8 La30 3.401384 1_555
I8 La5 3.601321 1_655
I9 La12 3.163391 1_655
I9 La10 3.301395 1_655
I9 La2 3.702118 1_555
I10 La3 3.344971 1_555
I10 La18 3.400939 1_555
I10 La34 3.401384 1_655
I10 La15 3.601321 1_555
I11 La9 3.219418 1_555
I11 La25 3.335357 1_555
I11 La31 3.486493 1_556
I12 La27 3.344971 1_555
I12 La35 3.400939 1_555
I12 La19 3.401384 1_455
I12 La20 3.601321 1_555
I13 La18 3.251896 1_555
I13 La34 3.267660 1_555
I13 La6 3.540002 1_555
I14 La9 3.222117 1_455
I14 La4 3.371353 1_455
I14 La25 3.480654 1_555
I15 La9 3.244536 1_555
I15 La25 3.447828 1_555
I15 La4 3.461405 1_555
I16 La16 3.244536 1_555
I16 La0 3.447828 1_455
I16 La32 3.461405 1_555
I17 La36 3.223938 1_555
I17 La29 3.373034 1_555
I17 La30 3.516194 1_555
I18 La28 3.223938 1_555
I18 La32 3.373034 1_555
I18 La14 3.516194 1_555
I19 La17 3.223938 1_555
I19 La11 3.373034 1_555
I19 La19 3.516194 1_455
I20 La16 3.163391 1_555
I20 La22 3.301395 1_555
I20 La0 3.702118 1_555
I21 La33 3.244536 1_555
I21 La37 3.447828 1_555
I21 La11 3.461405 1_555
I22 La14 3.223938 1_555
I22 La4 3.373034 1_555
I22 La28 3.516194 1_655
I23 La12 3.222117 1_655
I23 La5 3.371353 1_655
I23 La2 3.480654 1_555
I24 La25 3.344971 1_555
I24 La21 3.400939 1_455
I24 La14 3.401384 1_555
I24 La4 3.601321 1_455
I25 La21 3.246744 1_555
I25 La20 3.404448 1_555
I25 La25 3.495277 1_555
I26 La23 3.163391 1_555
I26 La35 3.301395 1_555
I26 La27 3.702118 1_555
I27 La5 3.310861 1_565
I27 La18 3.439650 1_555
I27 La30 3.543930 1_565
I28 La38 3.251896 1_555
I28 La36 3.267660 1_555
I28 La30 3.540002 1_555
I29 La39 3.344971 1_555
I29 La7 3.400939 1_455
I29 La6 3.401384 1_555
I29 La1 3.601321 1_455
I30 La13 3.244536 1_555
I30 La24 3.447828 1_655
I30 La29 3.461405 1_555
I31 La24 3.344971 1_555
I31 La38 3.400939 1_555
I31 La36 3.401384 1_455
I31 La29 3.601321 1_555
I32 La35 3.251896 1_555
I32 La19 3.267660 1_555
I32 La17 3.540002 1_555
I33 La33 3.163391 1_655
I33 La8 3.301395 1_655
I33 La37 3.702118 1_555
I34 La9 3.163391 1_455
I34 La21 3.301395 1_455
I34 La25 3.702118 1_555
I35 La26 3.222117 1_455
I35 La1 3.371353 1_455
I35 La39 3.480654 1_555
I36 La23 3.219418 1_555
I36 La27 3.335357 1_655
I36 La12 3.486493 1_656
I37 La23 3.244536 1_555
I37 La27 3.447828 1_655
I37 La20 3.461405 1_555
I38 La22 3.251896 1_555
I38 La28 3.267660 1_555
I38 La14 3.540002 1_555
I39 La12 3.219418 1_555
I39 La2 3.335357 1_555
I39 La23 3.486493 1_554
I40 La11 3.310861 1_555
I40 La22 3.439650 1_555
I40 La17 3.543930 1_555
I41 La22 3.246744 1_555
I41 La11 3.404448 1_555
I41 La0 3.495277 1_455
I42 La31 3.244536 1_555
I42 La3 3.447828 1_455
I42 La15 3.461405 1_555
I43 La29 3.310861 1_565
I43 La7 3.439650 1_555
I43 La36 3.543930 1_565
I44 La10 3.246744 1_555
I44 La15 3.404448 1_555
I44 La2 3.495277 1_555
I45 La32 3.310861 1_545
I45 La8 3.439650 1_555
I45 La28 3.543930 1_545
I46 La33 3.222117 1_655
I46 La11 3.371353 1_655
I46 La37 3.480654 1_555
I47 La21 3.251896 1_555
I47 La14 3.267660 1_555
I47 La28 3.540002 1_655
I48 La1 3.310861 1_555
I48 La38 3.439650 1_555
I48 La6 3.543930 1_555
I49 La0 3.344971 1_555
I49 La22 3.400939 1_555
I49 La28 3.401384 1_655
I49 La32 3.601321 1_555
I50 La7 3.246744 1_555
I50 La29 3.404448 1_565
I50 La39 3.495277 1_555
I51 La16 3.222117 1_555
I51 La32 3.371353 1_555
I51 La0 3.480654 1_555
I52 La26 3.219418 1_555
I52 La39 3.335357 1_555
I52 La16 3.486493 1_555
I53 La33 3.219418 1_555
I53 La37 3.335357 1_555
I53 La13 3.486493 1_555
I54 La4 3.310861 1_545
I54 La35 3.439650 1_555
I54 La14 3.543930 1_545
I55 La8 3.246744 1_555
I55 La32 3.404448 1_545
I55 La37 3.495277 1_555
I56 La7 3.251896 1_555
I56 La6 3.267660 1_555
I56 La34 3.540002 1_655
I57 La13 3.222117 1_555
I57 La29 3.371353 1_555
I57 La24 3.480654 1_555
I58 La35 3.246744 1_555
I58 La4 3.404448 1_545
I58 La27 3.495277 1_655
I59 La20 3.310861 1_555
I59 La21 3.439650 1_555
I59 La19 3.543930 1_555
I60 La16 3.219418 1_555
I60 La0 3.335357 1_455
I60 La26 3.486493 1_455
I61 La38 3.246744 1_555
I61 La1 3.404448 1_555
I61 La24 3.495277 1_655
I62 La37 3.344971 1_555
I62 La8 3.400939 1_655
I62 La17 3.401384 1_555
I62 La11 3.601321 1_655
I63 La15 3.310861 1_555
I63 La10 3.439650 1_555
I63 La34 3.543930 1_555
I64 La8 3.251896 1_555
I64 La17 3.267660 1_555
I64 La19 3.540002 1_455
I65 La34 3.223938 1_555
I65 La15 3.373034 1_555
I65 La6 3.516194 1_555
I66 La31 3.163391 1_555
I66 La18 3.301395 1_555
I66 La3 3.702118 1_555
I67 La6 3.223938 1_555
I67 La1 3.373034 1_555
I67 La34 3.516194 1_655
I68 La10 3.251896 1_555
I68 La30 3.267660 1_555
I68 La36 3.540002 1_455
I69 La30 3.223938 1_555
I69 La5 3.373034 1_555
I69 La36 3.516194 1_455
I70 La31 3.222117 1_555
I70 La15 3.371353 1_555
I70 La3 3.480654 1_555
I71 La26 3.244536 1_555
I71 La39 3.447828 1_555
I71 La1 3.461405 1_555
