# generated using pymatgen
data_B4COF6
_symmetry_space_group_name_H-M   'P 1'
_cell_length_a   11.65851100
_cell_length_b   11.07003900
_cell_length_c   15.73461364
_cell_angle_alpha   45.78038838
_cell_angle_beta   90.00000000
_cell_angle_gamma   90.00000000
_symmetry_Int_Tables_number   1
_chemical_formula_structural   B4COF6
_chemical_formula_sum   'B32 C8 O8 F48'
_cell_volume   1455.35425075
_cell_formula_units_Z   8
loop_
 _symmetry_equiv_pos_site_id
 _symmetry_equiv_pos_as_xyz
  1  'x, y, z'
loop_
 _atom_site_type_symbol
 _atom_site_label
 _atom_site_symmetry_multiplicity
 _atom_site_fract_x
 _atom_site_fract_y
 _atom_site_fract_z
 _atom_site_occupancy
  B  B0  1  0.10477300  0.50491700  0.24366800  1
  B  B1  1  0.70600900  0.48138500  0.18480900  1
  B  B2  1  0.79399100  0.48138500  0.68480900  1
  B  B3  1  0.26061900  0.94892700  0.34694400  1
  B  B4  1  0.58535200  0.81400900  0.83200300  1
  B  B5  1  0.65283800  0.00026000  0.76170600  1
  B  B6  1  0.82971100  0.54276300  0.82671000  1
  B  B7  1  0.84716200  0.00026000  0.26170600  1
  B  B8  1  0.91464800  0.81400900  0.33200300  1
  B  B9  1  0.89522700  0.49508300  0.75633200  1
  B  B10  1  0.60477300  0.49508300  0.25633200  1
  B  B11  1  0.73938100  0.05107300  0.65305600  1
  B  B12  1  0.48577800  0.34518700  0.85005400  1
  B  B13  1  0.95055200  0.15137800  0.19690500  1
  B  B14  1  0.34716200  0.99974000  0.23829400  1
  B  B15  1  0.76061900  0.05107300  0.15305600  1
  B  B16  1  0.98577800  0.65481300  0.64994600  1
  B  B17  1  0.01422200  0.34518700  0.35005400  1
  B  B18  1  0.17028900  0.45723700  0.17329000  1
  B  B19  1  0.15283800  0.99974000  0.73829400  1
  B  B20  1  0.54944800  0.15137800  0.69690500  1
  B  B21  1  0.04944800  0.84862200  0.80309500  1
  B  B22  1  0.23938100  0.94892700  0.84694400  1
  B  B23  1  0.45055200  0.84862200  0.30309500  1
  B  B24  1  0.08535200  0.18599100  0.66799700  1
  B  B25  1  0.29399100  0.51861500  0.81519100  1
  B  B26  1  0.20600900  0.51861500  0.31519100  1
  B  B27  1  0.39522700  0.50491700  0.74366800  1
  B  B28  1  0.67028900  0.54276300  0.32671000  1
  B  B29  1  0.41464800  0.18599100  0.16799700  1
  B  B30  1  0.51422200  0.65481300  0.14994600  1
  B  B31  1  0.32971100  0.45723700  0.67329000  1
  C  C0  1  0.27870600  0.01066900  0.15282900  1
  C  C1  1  0.53999500  0.33298100  0.34284400  1
  C  C2  1  0.72129400  0.98933100  0.84717100  1
  C  C3  1  0.46000500  0.66701900  0.65715600  1
  C  C4  1  0.77870600  0.98933100  0.34717100  1
  C  C5  1  0.96000500  0.33298100  0.84284400  1
  C  C6  1  0.03999500  0.66701900  0.15715600  1
  C  C7  1  0.22129400  0.01066900  0.65282900  1
  O  O0  1  0.72594400  0.98193800  0.41210100  1
  O  O1  1  0.27405600  0.01806200  0.58789900  1
  O  O2  1  0.50977800  0.79097300  0.59069800  1
  O  O3  1  0.22594400  0.01806200  0.08789900  1
  O  O4  1  0.49022200  0.20902700  0.40930200  1
  O  O5  1  0.99022200  0.79097300  0.09069800  1
  O  O6  1  0.00977800  0.20902700  0.90930200  1
  O  O7  1  0.77405600  0.98193800  0.91210100  1
  F  F0  1  0.16717200  0.55618500  0.05553800  1
  F  F1  1  0.05176200  0.18697800  0.43617500  1
  F  F2  1  0.14673200  0.92541000  0.35104300  1
  F  F3  1  0.09811300  0.63148200  0.64543100  1
  F  F4  1  0.35326800  0.92541000  0.85104300  1
  F  F5  1  0.64673200  0.07459000  0.14895700  1
  F  F6  1  0.19699600  0.92886700  0.93490400  1
  F  F7  1  0.44823800  0.18697800  0.93617500  1
  F  F8  1  0.02230500  0.18566800  0.11614100  1
  F  F9  1  0.30300400  0.92886700  0.43490400  1
  F  F10  1  0.90827600  0.67724000  0.44936000  1
  F  F11  1  0.02035500  0.20366400  0.72861600  1
  F  F12  1  0.80300400  0.07113300  0.06509600  1
  F  F13  1  0.33282800  0.55618500  0.55553800  1
  F  F14  1  0.52230500  0.81433200  0.38385900  1
  F  F15  1  0.83282800  0.44381500  0.94446200  1
  F  F16  1  0.28440000  0.65094300  0.80272000  1
  F  F17  1  0.23116700  0.31473200  0.23419400  1
  F  F18  1  0.71560000  0.34905700  0.19728000  1
  F  F19  1  0.47769500  0.18566800  0.61614100  1
  F  F20  1  0.53321800  0.24352400  0.72250800  1
  F  F21  1  0.73116700  0.68526800  0.26580600  1
  F  F22  1  0.46678200  0.75647600  0.27749200  1
  F  F23  1  0.47964500  0.20366400  0.22861600  1
  F  F24  1  0.78155600  0.60573100  0.11111200  1
  F  F25  1  0.76883300  0.68526800  0.76580600  1
  F  F26  1  0.21560000  0.65094300  0.30272000  1
  F  F27  1  0.78440000  0.34905700  0.69728000  1
  F  F28  1  0.21844400  0.39426900  0.88888800  1
  F  F29  1  0.40188700  0.63148200  0.14543100  1
  F  F30  1  0.55176200  0.81302200  0.06382500  1
  F  F31  1  0.97964500  0.79633600  0.27138400  1
  F  F32  1  0.28155600  0.39426900  0.38888800  1
  F  F33  1  0.40827600  0.32276000  0.05064000  1
  F  F34  1  0.71844400  0.60573100  0.61111200  1
  F  F35  1  0.03321800  0.75647600  0.77749200  1
  F  F36  1  0.96678200  0.24352400  0.22250800  1
  F  F37  1  0.52035500  0.79633600  0.77138400  1
  F  F38  1  0.66717200  0.44381500  0.44446200  1
  F  F39  1  0.97769500  0.81433200  0.88385900  1
  F  F40  1  0.26883300  0.31473200  0.73419400  1
  F  F41  1  0.69699600  0.07113300  0.56509600  1
  F  F42  1  0.09172400  0.32276000  0.55064000  1
  F  F43  1  0.59172400  0.67724000  0.94936000  1
  F  F44  1  0.94823800  0.81302200  0.56382500  1
  F  F45  1  0.59811300  0.36851800  0.85456900  1
  F  F46  1  0.90188700  0.36851800  0.35456900  1
  F  F47  1  0.85326800  0.07459000  0.64895700  1
loop_
_geom_bond_atom_site_label_1
_geom_bond_atom_site_label_2
_geom_bond_distance
_geom_bond_site_symmetry_2
B0 C6 1.495433 1_555
B1 F24 1.337456 1_555
B1 F18 1.340124 1_555
B2 F34 1.337456 1_555
B2 F27 1.340124 1_555
B3 F9 1.334282 1_555
B3 F2 1.345898 1_555
B4 F37 1.335116 1_555
B4 F43 1.344633 1_555
B5 C2 1.494336 1_545
B6 F25 1.342414 1_555
B6 F15 1.342832 1_555
B7 C4 1.494336 1_545
B8 F31 1.335116 1_555
B8 F10 1.344633 1_555
B9 C5 1.495433 1_555
B10 C1 1.495433 1_555
B11 F41 1.334282 1_555
B11 F47 1.345898 1_555
B12 F7 1.335982 1_555
B12 F45 1.346310 1_555
B13 F8 1.336394 1_655
B13 F36 1.346030 1_555
B14 C0 1.494336 1_565
B15 F12 1.334282 1_555
B15 F5 1.345898 1_555
B16 F44 1.335982 1_555
B16 F3 1.346310 1_655
B17 F1 1.335982 1_555
B17 F46 1.346310 1_455
B18 F17 1.342414 1_555
B18 F0 1.342832 1_555
B19 C7 1.494336 1_565
B20 F19 1.336394 1_555
B20 F20 1.346030 1_555
B21 F39 1.336394 1_455
B21 F35 1.346030 1_555
B22 F6 1.334282 1_555
B22 F4 1.345898 1_555
B23 F14 1.336394 1_555
B23 F22 1.346030 1_555
B24 F11 1.335116 1_555
B24 F42 1.344633 1_555
B25 F28 1.337456 1_555
B25 F16 1.340124 1_555
B26 F32 1.337456 1_555
B26 F26 1.340124 1_555
B27 C3 1.495433 1_555
B28 F21 1.342414 1_555
B28 F38 1.342832 1_555
B29 F23 1.335116 1_555
B29 F33 1.344633 1_555
B30 F30 1.335982 1_555
B30 F29 1.346310 1_555
B31 F40 1.342414 1_555
B31 F13 1.342832 1_555
C0 O3 1.145521 1_555
C1 O4 1.145282 1_555
C2 O7 1.145521 1_555
C3 O2 1.145282 1_555
C4 O0 1.145521 1_555
C5 O6 1.145282 1_655
C6 O5 1.145282 1_455
C7 O1 1.145521 1_555
