# generated using pymatgen
data_CsMo2P3O13
_symmetry_space_group_name_H-M   'P 1'
_cell_length_a   8.63192500
_cell_length_b   7.84030000
_cell_length_c   9.16652122
_cell_angle_alpha   79.21646000
_cell_angle_beta   90.00000000
_cell_angle_gamma   90.00000000
_symmetry_Int_Tables_number   1
_chemical_formula_structural   CsMo2P3O13
_chemical_formula_sum   'Cs2 Mo4 P6 O26'
_cell_volume   609.40663170
_cell_formula_units_Z   2
loop_
 _symmetry_equiv_pos_site_id
 _symmetry_equiv_pos_as_xyz
  1  'x, y, z'
loop_
 _atom_site_type_symbol
 _atom_site_label
 _atom_site_symmetry_multiplicity
 _atom_site_fract_x
 _atom_site_fract_y
 _atom_site_fract_z
 _atom_site_occupancy
  Cs  Cs0  1  0.77148100  0.50000000  0.75000000  1
  Cs  Cs1  1  0.22851900  0.50000000  0.25000000  1
  Mo  Mo0  1  0.76522300  0.79064200  0.06765200  1
  Mo  Mo1  1  0.76522300  0.20935800  0.43234800  1
  Mo  Mo2  1  0.23477700  0.79064200  0.56765200  1
  Mo  Mo3  1  0.23477700  0.20935800  0.93234800  1
  P  P0  1  0.43984000  0.85203500  0.86220000  1
  P  P1  1  0.56016000  0.85203500  0.36220000  1
  P  P2  1  0.04462800  0.00000000  0.25000000  1
  P  P3  1  0.95537200  0.00000000  0.75000000  1
  P  P4  1  0.43984000  0.14796500  0.63780000  1
  P  P5  1  0.56016000  0.14796500  0.13780000  1
  O  O0  1  0.53486000  0.00000000  0.75000000  1
  O  O1  1  0.16567200  0.41663500  0.91898500  1
  O  O2  1  0.32818400  0.05443600  0.55066600  1
  O  O3  1  0.67181600  0.94556400  0.44933400  1
  O  O4  1  0.35878900  0.73954300  0.76503900  1
  O  O5  1  0.64121100  0.73954300  0.26503900  1
  O  O6  1  0.56117500  0.25842100  0.54142700  1
  O  O7  1  0.94739400  0.11722200  0.33114100  1
  O  O8  1  0.16567200  0.58336500  0.58101500  1
  O  O9  1  0.83432800  0.58336500  0.08101500  1
  O  O10  1  0.85113500  0.12153400  0.63966200  1
  O  O11  1  0.94739400  0.88277800  0.16885900  1
  O  O12  1  0.85113500  0.87846600  0.86033800  1
  O  O13  1  0.14886500  0.87846600  0.36033800  1
  O  O14  1  0.05260600  0.88277800  0.66885900  1
  O  O15  1  0.67181600  0.05443600  0.05066600  1
  O  O16  1  0.56117500  0.74157900  0.95857300  1
  O  O17  1  0.14886500  0.12153400  0.13966200  1
  O  O18  1  0.83432800  0.41663500  0.41898500  1
  O  O19  1  0.46514000  0.00000000  0.25000000  1
  O  O20  1  0.32818400  0.94556400  0.94933400  1
  O  O21  1  0.43882500  0.74157900  0.45857300  1
  O  O22  1  0.35878900  0.26045700  0.73496100  1
  O  O23  1  0.43882500  0.25842100  0.04142700  1
  O  O24  1  0.64121100  0.26045700  0.23496100  1
  O  O25  1  0.05260600  0.11722200  0.83114100  1
loop_
_geom_bond_atom_site_label_1
_geom_bond_atom_site_label_2
_geom_bond_distance
_geom_bond_site_symmetry_2
Cs0 O9 3.266546 1_556
Cs0 O18 3.266546 1_555
Cs0 O12 3.379871 1_555
Cs0 O10 3.379871 1_555
Cs0 O16 3.448664 1_555
Cs0 O6 3.448664 1_555
Cs1 O8 3.266546 1_555
Cs1 O1 3.266546 1_554
Cs1 O13 3.379871 1_555
Cs1 O17 3.379871 1_555
Cs1 O21 3.448664 1_555
Cs1 O23 3.448664 1_555
Mo0 O9 1.713865 1_555
Mo0 O11 2.026318 1_555
Mo0 O12 2.036112 1_554
Mo0 O5 2.075789 1_555
Mo0 O16 2.096167 1_554
Mo0 O15 2.198041 1_565
Mo1 O18 1.713865 1_555
Mo1 O7 2.026318 1_555
Mo1 O10 2.036112 1_555
Mo1 O24 2.075789 1_555
Mo1 O6 2.096167 1_555
Mo1 O3 2.198041 1_545
Mo2 O8 1.713865 1_555
Mo2 O14 2.026318 1_555
Mo2 O13 2.036112 1_555
Mo2 O4 2.075789 1_555
Mo2 O21 2.096167 1_555
Mo2 O2 2.198041 1_565
Mo3 O1 1.713865 1_555
Mo3 O25 2.026318 1_555
Mo3 O17 2.036112 1_556
Mo3 O22 2.075789 1_555
Mo3 O23 2.096167 1_556
Mo3 O20 2.198041 1_545
O0 P4 1.621683 1_555
O0 P0 1.621683 1_545
O2 P4 1.524387 1_555
O3 P1 1.524387 1_555
O4 P0 1.534439 1_555
O5 P1 1.534439 1_555
O6 P4 1.530049 1_555
O7 P2 1.535617 1_655
O10 P3 1.542679 1_555
O11 P2 1.535617 1_665
O12 P3 1.542679 1_565
O13 P2 1.542679 1_565
O14 P3 1.535617 1_465
O15 P5 1.524387 1_555
O16 P0 1.530049 1_555
O17 P2 1.542679 1_555
O19 P5 1.621683 1_555
O19 P1 1.621683 1_545
O20 P0 1.524387 1_555
O21 P1 1.530049 1_555
O22 P4 1.534439 1_555
O23 P5 1.530049 1_555
O24 P5 1.534439 1_555
O25 P3 1.535617 1_455
