# generated using pymatgen
data_K3(FeS2)2
_symmetry_space_group_name_H-M   'P 1'
_cell_length_a   7.21526300
_cell_length_b   10.79759500
_cell_length_c   11.72171800
_cell_angle_alpha   90.00000000
_cell_angle_beta   90.00000000
_cell_angle_gamma   90.00000000
_symmetry_Int_Tables_number   1
_chemical_formula_structural   K3(FeS2)2
_chemical_formula_sum   'K12 Fe8 S16'
_cell_volume   913.20960082
_cell_formula_units_Z   4
loop_
 _symmetry_equiv_pos_site_id
 _symmetry_equiv_pos_as_xyz
  1  'x, y, z'
loop_
 _atom_site_type_symbol
 _atom_site_label
 _atom_site_symmetry_multiplicity
 _atom_site_fract_x
 _atom_site_fract_y
 _atom_site_fract_z
 _atom_site_occupancy
  K  K0  1  0.06353600  0.42453100  0.13930900  1
  K  K1  1  0.56353600  0.07546900  0.36069100  1
  K  K2  1  0.93646400  0.92453100  0.86069100  1
  K  K3  1  0.43646400  0.57546900  0.63930900  1
  K  K4  1  0.93646400  0.57546900  0.86069100  1
  K  K5  1  0.43646400  0.92453100  0.63930900  1
  K  K6  1  0.06353600  0.07546900  0.13930900  1
  K  K7  1  0.56353600  0.42453100  0.36069100  1
  K  K8  1  0.08803400  0.25000000  0.76844300  1
  K  K9  1  0.58803400  0.25000000  0.73155700  1
  K  K10  1  0.91196600  0.75000000  0.23155700  1
  K  K11  1  0.41196600  0.75000000  0.26844300  1
  Fe  Fe0  1  0.04936300  0.37091700  0.47177600  1
  Fe  Fe1  1  0.54936300  0.12908300  0.02822400  1
  Fe  Fe2  1  0.95063700  0.87091700  0.52822400  1
  Fe  Fe3  1  0.45063700  0.62908300  0.97177600  1
  Fe  Fe4  1  0.95063700  0.62908300  0.52822400  1
  Fe  Fe5  1  0.45063700  0.87091700  0.97177600  1
  Fe  Fe6  1  0.04936300  0.12908300  0.47177600  1
  Fe  Fe7  1  0.54936300  0.37091700  0.02822400  1
  S  S0  1  0.14827300  0.55073300  0.39108200  1
  S  S1  1  0.64827300  0.94926700  0.10891800  1
  S  S2  1  0.85172700  0.05073300  0.60891800  1
  S  S3  1  0.35172700  0.44926700  0.89108200  1
  S  S4  1  0.85172700  0.44926700  0.60891800  1
  S  S5  1  0.35172700  0.05073300  0.89108200  1
  S  S6  1  0.14827300  0.94926700  0.39108200  1
  S  S7  1  0.64827300  0.55073300  0.10891800  1
  S  S8  1  0.29182700  0.25000000  0.53321700  1
  S  S9  1  0.79182700  0.25000000  0.96678300  1
  S  S10  1  0.70817300  0.75000000  0.46678300  1
  S  S11  1  0.20817300  0.75000000  0.03321700  1
  S  S12  1  0.40892400  0.25000000  0.15947100  1
  S  S13  1  0.90892400  0.25000000  0.34052900  1
  S  S14  1  0.59107600  0.75000000  0.84052900  1
  S  S15  1  0.09107600  0.75000000  0.65947100  1
loop_
_geom_bond_atom_site_label_1
_geom_bond_atom_site_label_2
_geom_bond_distance
_geom_bond_site_symmetry_2
K0 S12 3.133311 1_555
K0 S13 3.218554 1_455
K0 S0 3.307621 1_555
K0 S7 3.310770 1_455
K0 S9 3.388875 1_454
K0 S3 3.586248 1_554
K1 S13 3.133311 1_555
K1 S12 3.218554 1_555
K1 S1 3.307621 1_545
K1 S6 3.310770 1_545
K1 S8 3.388875 1_555
K1 S2 3.586248 1_555
K2 S14 3.133311 1_555
K2 S15 3.218554 1_655
K2 S2 3.307621 1_565
K2 S5 3.310770 1_665
K2 S11 3.388875 1_656
K2 S1 3.586248 1_556
K3 S15 3.133311 1_555
K3 S14 3.218554 1_555
K3 S3 3.307621 1_555
K3 S4 3.310770 1_555
K3 S10 3.388875 1_555
K3 S0 3.586248 1_555
K4 S14 3.133311 1_555
K4 S15 3.218554 1_655
K4 S4 3.307621 1_555
K4 S3 3.310770 1_655
K4 S11 3.388875 1_656
K4 S7 3.586248 1_556
K5 S15 3.133311 1_555
K5 S14 3.218554 1_555
K5 S5 3.307621 1_565
K5 S2 3.310770 1_565
K5 S10 3.388875 1_555
K5 S6 3.586248 1_555
K6 S12 3.133311 1_555
K6 S13 3.218554 1_455
K6 S6 3.307621 1_545
K6 S1 3.310770 1_445
K6 S9 3.388875 1_454
K6 S5 3.586248 1_554
K7 S13 3.133311 1_555
K7 S12 3.218554 1_555
K7 S7 3.307621 1_555
K7 S0 3.310770 1_555
K7 S8 3.388875 1_555
K7 S4 3.586248 1_555
K8 S8 3.124833 1_555
K8 S9 3.157969 1_455
K8 S3 3.211832 1_555
K8 S5 3.211832 1_555
K8 S4 3.321602 1_455
K8 S2 3.321602 1_455
K9 S9 3.124833 1_555
K9 S8 3.157969 1_555
K9 S4 3.211832 1_555
K9 S2 3.211832 1_555
K9 S3 3.321602 1_555
K9 S5 3.321602 1_555
K10 S10 3.124833 1_555
K10 S11 3.157969 1_655
K10 S1 3.211832 1_555
K10 S7 3.211832 1_555
K10 S6 3.321602 1_655
K10 S0 3.321602 1_655
K11 S11 3.124833 1_555
K11 S10 3.157969 1_555
K11 S0 3.211832 1_555
K11 S6 3.211832 1_555
K11 S7 3.321602 1_555
K11 S1 3.321602 1_555
Fe0 S13 2.257921 1_455
Fe0 S0 2.274582 1_555
Fe0 S8 2.298663 1_555
Fe0 S4 2.309405 1_455
Fe1 S12 2.257921 1_555
Fe1 S1 2.274582 1_545
Fe1 S9 2.298663 1_554
Fe1 S5 2.309405 1_554
Fe2 S15 2.257921 1_655
Fe2 S2 2.274582 1_565
Fe2 S10 2.298663 1_555
Fe2 S6 2.309405 1_655
Fe3 S14 2.257921 1_555
Fe3 S3 2.274582 1_555
Fe3 S11 2.298663 1_556
Fe3 S7 2.309405 1_556
Fe4 S15 2.257921 1_655
Fe4 S4 2.274582 1_555
Fe4 S10 2.298663 1_555
Fe4 S0 2.309405 1_655
Fe5 S14 2.257921 1_555
Fe5 S5 2.274582 1_565
Fe5 S11 2.298663 1_556
Fe5 S1 2.309405 1_556
Fe6 S13 2.257921 1_455
Fe6 S6 2.274582 1_545
Fe6 S8 2.298663 1_555
Fe6 S2 2.309405 1_455
Fe7 S12 2.257921 1_555
Fe7 S7 2.274582 1_555
Fe7 S9 2.298663 1_554
Fe7 S3 2.309405 1_554
