# generated using pymatgen
data_Bi4RuBr2
_symmetry_space_group_name_H-M   'P 1'
_cell_length_a   8.89784742
_cell_length_b   8.89784742
_cell_length_c   11.10005221
_cell_angle_alpha   52.72010228
_cell_angle_beta   52.72010228
_cell_angle_gamma   45.22165488
_symmetry_Int_Tables_number   1
_chemical_formula_structural   Bi4RuBr2
_chemical_formula_sum   'Bi8 Ru2 Br4'
_cell_volume   470.75175946
_cell_formula_units_Z   2
loop_
 _symmetry_equiv_pos_site_id
 _symmetry_equiv_pos_as_xyz
  1  'x, y, z'
loop_
 _atom_site_type_symbol
 _atom_site_label
 _atom_site_symmetry_multiplicity
 _atom_site_fract_x
 _atom_site_fract_y
 _atom_site_fract_z
 _atom_site_occupancy
  Bi  Bi0  1  0.44504397  0.44504397  0.37137940  1
  Bi  Bi1  1  0.55495603  0.55495603  0.62862060  1
  Bi  Bi2  1  0.33736844  0.33736844  0.71946955  1
  Bi  Bi3  1  0.66263156  0.66263156  0.28053045  1
  Bi  Bi4  1  0.82722761  0.82722761  0.57523043  1
  Bi  Bi5  1  0.17277239  0.17277239  0.42476957  1
  Bi  Bi6  1  0.08240808  0.08240808  0.22628246  1
  Bi  Bi7  1  0.91759192  0.91759192  0.77371754  1
  Ru  Ru0  1  0.20879070  0.79120930  0.50000000  1
  Ru  Ru1  1  0.79120930  0.20879070  0.50000000  1
  Br  Br0  1  0.88866710  0.88866710  0.25390925  1
  Br  Br1  1  0.11133290  0.11133290  0.74609075  1
  Br  Br2  1  0.68201795  0.68201795  0.93296273  1
  Br  Br3  1  0.31798205  0.31798205  0.06703727  1
loop_
_geom_bond_atom_site_label_1
_geom_bond_atom_site_label_2
_geom_bond_distance
_geom_bond_site_symmetry_2
Bi0 Ru0 2.917979 1_555
Bi0 Ru1 2.917979 1_555
Bi0 Bi3 3.010597 1_555
Bi0 Bi2 3.014806 1_555
Bi1 Ru0 2.917979 1_555
Bi1 Ru1 2.917979 1_555
Bi1 Bi2 3.010597 1_555
Bi1 Bi3 3.014806 1_555
Bi2 Ru1 2.915700 1_555
Bi2 Ru0 2.915700 1_555
Bi3 Ru1 2.915700 1_555
Bi3 Ru0 2.915700 1_555
Bi4 Ru0 2.771925 1_655
Bi4 Ru1 2.771925 1_565
Bi4 Br0 3.002636 1_555
Bi4 Br2 3.004612 1_555
Bi5 Ru0 2.771925 1_545
Bi5 Ru1 2.771925 1_455
Bi5 Br1 3.002636 1_555
Bi5 Br3 3.004612 1_555
Bi6 Ru0 2.776130 1_545
Bi6 Ru1 2.776130 1_455
Bi6 Br0 2.990508 1_445
Bi6 Br3 3.020650 1_555
Bi7 Ru1 2.776130 1_565
Bi7 Ru0 2.776130 1_655
Bi7 Br1 2.990508 1_665
Bi7 Br2 3.020650 1_555
Ru0 Ru1 2.857053 1_465
