# generated using pymatgen
data_KB(CO2)4
_symmetry_space_group_name_H-M   'P 1'
_cell_length_a   7.00813932
_cell_length_b   7.00813932
_cell_length_c   8.42215600
_cell_angle_alpha   90.00000000
_cell_angle_beta   90.00000000
_cell_angle_gamma   105.08855468
_symmetry_Int_Tables_number   1
_chemical_formula_structural   KB(CO2)4
_chemical_formula_sum   'K2 B2 C8 O16'
_cell_volume   399.38532286
_cell_formula_units_Z   2
loop_
 _symmetry_equiv_pos_site_id
 _symmetry_equiv_pos_as_xyz
  1  'x, y, z'
loop_
 _atom_site_type_symbol
 _atom_site_label
 _atom_site_symmetry_multiplicity
 _atom_site_fract_x
 _atom_site_fract_y
 _atom_site_fract_z
 _atom_site_occupancy
  K  K0  1  0.92847000  0.07153000  0.75000000  1
  K  K1  1  0.07153000  0.92847000  0.25000000  1
  B  B0  1  0.57176200  0.42823800  0.25000000  1
  B  B1  1  0.42823800  0.57176200  0.75000000  1
  C  C0  1  0.76652500  0.23347500  0.15834600  1
  C  C1  1  0.71402400  0.46695400  0.75000000  1
  C  C2  1  0.28597600  0.53304600  0.25000000  1
  C  C3  1  0.53304600  0.28597600  0.75000000  1
  C  C4  1  0.23347500  0.76652500  0.65834600  1
  C  C5  1  0.46695400  0.71402400  0.25000000  1
  C  C6  1  0.76652500  0.23347500  0.34165400  1
  C  C7  1  0.23347500  0.76652500  0.84165400  1
  O  O0  1  0.65241700  0.34758300  0.10978500  1
  O  O1  1  0.85514900  0.14485100  0.07330000  1
  O  O2  1  0.14485100  0.85514900  0.92670000  1
  O  O3  1  0.34758300  0.65241700  0.89021500  1
  O  O4  1  0.88589200  0.46045500  0.75000000  1
  O  O5  1  0.62969500  0.64840600  0.25000000  1
  O  O6  1  0.34758300  0.65241700  0.60978500  1
  O  O7  1  0.46045500  0.88589200  0.25000000  1
  O  O8  1  0.14485100  0.85514900  0.57330000  1
  O  O9  1  0.37030500  0.35159400  0.75000000  1
  O  O10  1  0.11410800  0.53954500  0.25000000  1
  O  O11  1  0.53954500  0.11410800  0.75000000  1
  O  O12  1  0.64840600  0.62969500  0.75000000  1
  O  O13  1  0.35159400  0.37030500  0.25000000  1
  O  O14  1  0.85514900  0.14485100  0.42670000  1
  O  O15  1  0.65241700  0.34758300  0.39021500  1
loop_
_geom_bond_atom_site_label_1
_geom_bond_atom_site_label_2
_geom_bond_distance
_geom_bond_site_symmetry_2
K0 O4 2.818081 1_555
K0 O11 2.818081 1_555
K0 O8 2.830377 1_645
K0 O2 2.830377 1_645
K0 O1 2.842468 1_556
K0 O14 2.842468 1_555
K0 O9 3.205647 1_655
K0 O12 3.205647 1_545
K1 O7 2.818081 1_555
K1 O10 2.818081 1_555
K1 O1 2.830377 1_465
K1 O14 2.830377 1_465
K1 O2 2.842468 1_554
K1 O8 2.842468 1_555
K1 O13 3.205647 1_565
K1 O5 3.205647 1_455
B0 O15 1.483202 1_555
B0 O0 1.483202 1_555
B0 O5 1.489780 1_555
B0 O13 1.489780 1_555
B1 O6 1.483202 1_555
B1 O3 1.483202 1_555
B1 O12 1.489780 1_555
B1 O9 1.489780 1_555
C0 O1 1.218761 1_555
C0 O0 1.333866 1_555
C1 O4 1.217126 1_555
C1 O12 1.336148 1_555
C2 O10 1.217126 1_555
C2 O13 1.336148 1_555
C3 O11 1.217126 1_555
C3 O9 1.336148 1_555
C4 O8 1.218761 1_555
C4 O6 1.333866 1_555
C5 O7 1.217126 1_555
C5 O5 1.336148 1_555
C6 O14 1.218761 1_555
C6 O15 1.333866 1_555
C7 O2 1.218761 1_555
C7 O3 1.333866 1_555
