# generated using pymatgen
data_Ti7Cl16
_symmetry_space_group_name_H-M   'P 1'
_cell_length_a   6.79394353
_cell_length_b   10.11719220
_cell_length_c   14.51898029
_cell_angle_alpha   90.00000000
_cell_angle_beta   90.00000000
_cell_angle_gamma   90.00000000
_symmetry_Int_Tables_number   1
_chemical_formula_structural   Ti7Cl16
_chemical_formula_sum   'Ti14 Cl32'
_cell_volume   997.97129333
_cell_formula_units_Z   2
loop_
 _symmetry_equiv_pos_site_id
 _symmetry_equiv_pos_as_xyz
  1  'x, y, z'
loop_
 _atom_site_type_symbol
 _atom_site_label
 _atom_site_symmetry_multiplicity
 _atom_site_fract_x
 _atom_site_fract_y
 _atom_site_fract_z
 _atom_site_occupancy
  Ti  Ti0  1  -0.00000000  0.00000000  0.00000000  1
  Ti  Ti1  1  0.50000000  0.50000000  0.50000000  1
  Ti  Ti2  1  0.50000000  0.53328245  0.76040771  1
  Ti  Ti3  1  0.50000000  0.46671755  0.23959229  1
  Ti  Ti4  1  -0.00000000  0.03328245  0.73959229  1
  Ti  Ti5  1  -0.00000000  0.96671755  0.26040771  1
  Ti  Ti6  1  0.70058573  0.74534318  0.86187177  1
  Ti  Ti7  1  0.70058573  0.25465682  0.13812823  1
  Ti  Ti8  1  0.79941527  0.24534318  0.63812823  1
  Ti  Ti9  1  0.79941527  0.75465682  0.36187177  1
  Ti  Ti10  1  0.29941527  0.25465682  0.13812823  1
  Ti  Ti11  1  0.29941527  0.74534318  0.86187177  1
  Ti  Ti12  1  0.20058573  0.75465682  0.36187177  1
  Ti  Ti13  1  0.20058573  0.24534318  0.63812823  1
  Cl  Cl0  1  0.50000000  0.75767104  0.99320757  1
  Cl  Cl1  1  0.50000000  0.24232896  0.00679243  1
  Cl  Cl2  1  -0.00000000  0.25767104  0.50679243  1
  Cl  Cl3  1  -0.00000000  0.74232896  0.49320757  1
  Cl  Cl4  1  -0.00000000  0.75595650  0.97957272  1
  Cl  Cl5  1  -0.00000000  0.24404350  0.02042728  1
  Cl  Cl6  1  0.50000000  0.25595650  0.52042728  1
  Cl  Cl7  1  0.50000000  0.74404350  0.47957272  1
  Cl  Cl8  1  -0.00000000  0.77367980  0.75106302  1
  Cl  Cl9  1  -0.00000000  0.22632020  0.24893698  1
  Cl  Cl10  1  0.50000000  0.27367980  0.74893698  1
  Cl  Cl11  1  0.50000000  0.72632020  0.25106302  1
  Cl  Cl12  1  0.50000000  0.76575044  0.72564294  1
  Cl  Cl13  1  0.50000000  0.23424956  0.27435706  1
  Cl  Cl14  1  -0.00000000  0.26575044  0.77435706  1
  Cl  Cl15  1  -0.00000000  0.73424956  0.22564294  1
  Cl  Cl16  1  0.74893649  -0.00064338  0.86832469  1
  Cl  Cl17  1  0.74893649  0.00064338  0.13167531  1
  Cl  Cl18  1  0.75106351  0.49935662  0.63167531  1
  Cl  Cl19  1  0.75106351  0.50064338  0.36832469  1
  Cl  Cl20  1  0.25106351  0.00064338  0.13167531  1
  Cl  Cl21  1  0.25106351  -0.00064338  0.86832469  1
  Cl  Cl22  1  0.24893649  0.50064338  0.36832469  1
  Cl  Cl23  1  0.24893649  0.49935662  0.63167531  1
  Cl  Cl24  1  0.75148598  0.51555683  0.87237143  1
  Cl  Cl25  1  0.75148598  0.48444317  0.12762857  1
  Cl  Cl26  1  0.74851402  0.01555683  0.62762857  1
  Cl  Cl27  1  0.74851402  0.98444317  0.37237143  1
  Cl  Cl28  1  0.24851402  0.48444317  0.12762857  1
  Cl  Cl29  1  0.24851402  0.51555683  0.87237143  1
  Cl  Cl30  1  0.25148598  0.98444317  0.37237143  1
  Cl  Cl31  1  0.25148598  0.01555683  0.62762857  1
loop_
_geom_bond_atom_site_label_1
_geom_bond_atom_site_label_2
_geom_bond_distance
_geom_bond_site_symmetry_2
Cl0 Ti11 2.347083 1_555
Cl0 Ti6 2.347087 1_555
Cl1 Ti10 2.347083 1_555
Cl1 Ti7 2.347087 1_555
Cl2 Ti8 2.347083 1_455
Cl2 Ti13 2.347087 1_555
Cl3 Ti9 2.347083 1_455
Cl3 Ti12 2.347087 1_555
Cl4 Ti0 2.486784 1_566
Cl4 Ti6 2.658918 1_455
Cl4 Ti11 2.658923 1_555
Cl5 Ti0 2.486784 1_555
Cl5 Ti7 2.658918 1_455
Cl5 Ti10 2.658923 1_555
Cl6 Ti1 2.486784 1_555
Cl6 Ti13 2.658918 1_555
Cl6 Ti8 2.658923 1_555
Cl7 Ti1 2.486784 1_555
Cl7 Ti12 2.658918 1_555
Cl7 Ti9 2.658923 1_555
Cl8 Ti6 2.609312 1_455
Cl8 Ti11 2.609317 1_555
Cl8 Ti4 2.631725 1_565
Cl9 Ti7 2.609312 1_455
Cl9 Ti10 2.609317 1_555
Cl9 Ti5 2.631725 1_545
Cl10 Ti13 2.609312 1_555
Cl10 Ti8 2.609317 1_555
Cl10 Ti2 2.631725 1_555
Cl11 Ti12 2.609312 1_555
Cl11 Ti9 2.609317 1_555
Cl11 Ti3 2.631725 1_555
Cl12 Ti2 2.405476 1_555
Cl12 Ti11 2.410778 1_555
Cl12 Ti6 2.410782 1_555
Cl13 Ti3 2.405476 1_555
Cl13 Ti10 2.410778 1_555
Cl13 Ti7 2.410782 1_555
Cl14 Ti4 2.405476 1_555
Cl14 Ti8 2.410778 1_455
Cl14 Ti13 2.410782 1_555
Cl15 Ti5 2.405476 1_555
Cl15 Ti9 2.410778 1_455
Cl15 Ti12 2.410782 1_555
Cl16 Ti4 2.553558 1_655
Cl16 Ti0 2.562116 1_656
Cl16 Ti6 2.592506 1_545
Cl17 Ti5 2.553558 1_645
Cl17 Ti0 2.562116 1_655
Cl17 Ti7 2.592506 1_555
Cl18 Ti2 2.553558 1_555
Cl18 Ti1 2.562116 1_555
Cl18 Ti8 2.592506 1_555
Cl19 Ti3 2.553558 1_555
Cl19 Ti1 2.562116 1_555
Cl19 Ti9 2.592506 1_555
Cl20 Ti5 2.553558 1_545
Cl20 Ti0 2.562116 1_555
Cl20 Ti10 2.592506 1_555
Cl21 Ti4 2.553558 1_555
Cl21 Ti0 2.562116 1_556
Cl21 Ti11 2.592506 1_545
Cl22 Ti3 2.553558 1_555
Cl22 Ti1 2.562116 1_555
Cl22 Ti12 2.592506 1_555
Cl23 Ti2 2.553558 1_555
Cl23 Ti1 2.562116 1_555
Cl23 Ti13 2.592506 1_555
Cl24 Ti6 2.355310 1_555
Cl24 Ti2 2.365160 1_555
Cl25 Ti7 2.355310 1_555
Cl25 Ti3 2.365160 1_555
Cl26 Ti8 2.355311 1_555
Cl26 Ti4 2.365160 1_655
Cl27 Ti9 2.355311 1_555
Cl27 Ti5 2.365160 1_655
Cl28 Ti10 2.355311 1_555
Cl28 Ti3 2.365160 1_555
Cl29 Ti11 2.355311 1_555
Cl29 Ti2 2.365160 1_555
Cl30 Ti12 2.355310 1_555
Cl30 Ti5 2.365160 1_555
Cl31 Ti13 2.355310 1_555
Cl31 Ti4 2.365160 1_555
