# generated using pymatgen
data_Ce5Ge3
_symmetry_space_group_name_H-M   'P 1'
_cell_length_a   8.90321443
_cell_length_b   8.90321443
_cell_length_c   6.21710400
_cell_angle_alpha   90.00000000
_cell_angle_beta   90.00000000
_cell_angle_gamma   120.00000322
_symmetry_Int_Tables_number   1
_chemical_formula_structural   Ce5Ge3
_chemical_formula_sum   'Ce10 Ge6'
_cell_volume   426.78821325
_cell_formula_units_Z   2
loop_
 _symmetry_equiv_pos_site_id
 _symmetry_equiv_pos_as_xyz
  1  'x, y, z'
loop_
 _atom_site_type_symbol
 _atom_site_label
 _atom_site_symmetry_multiplicity
 _atom_site_fract_x
 _atom_site_fract_y
 _atom_site_fract_z
 _atom_site_occupancy
  Ce  Ce0  1  0.33333300  0.66666700  0.00000000  1
  Ce  Ce1  1  0.66666700  0.33333300  0.50000000  1
  Ce  Ce2  1  0.66666700  0.33333300  0.00000000  1
  Ce  Ce3  1  0.33333300  0.66666700  0.50000000  1
  Ce  Ce4  1  0.26610800  0.00000000  0.25000000  1
  Ce  Ce5  1  0.26610800  0.26610800  0.75000000  1
  Ce  Ce6  1  0.00000000  0.73389200  0.75000000  1
  Ce  Ce7  1  0.00000000  0.26610800  0.25000000  1
  Ce  Ce8  1  0.73389200  0.73389200  0.25000000  1
  Ce  Ce9  1  0.73389200  0.00000000  0.75000000  1
  Ge  Ge0  1  0.62049800  0.00000000  0.25000000  1
  Ge  Ge1  1  0.62049800  0.62049800  0.75000000  1
  Ge  Ge2  1  0.00000000  0.37950200  0.75000000  1
  Ge  Ge3  1  0.00000000  0.62049800  0.25000000  1
  Ge  Ge4  1  0.37950200  0.37950200  0.25000000  1
  Ge  Ge5  1  0.37950200  0.00000000  0.75000000  1
loop_
_geom_bond_atom_site_label_1
_geom_bond_atom_site_label_2
_geom_bond_distance
_geom_bond_site_symmetry_2
Ce0 Ge3 3.189404 1_555
Ce0 Ge5 3.189404 1_564
Ce0 Ge0 3.189406 1_565
Ce0 Ge2 3.189406 1_554
Ce0 Ge4 3.189411 1_555
Ce0 Ge1 3.189411 1_554
Ce1 Ge2 3.189404 1_655
Ce1 Ge0 3.189404 1_555
Ce1 Ge5 3.189406 1_555
Ce1 Ge3 3.189406 1_655
Ce1 Ge4 3.189411 1_555
Ce1 Ge1 3.189411 1_555
Ce2 Ge2 3.189404 1_654
Ce2 Ge0 3.189404 1_555
Ce2 Ge3 3.189406 1_655
Ce2 Ge5 3.189406 1_554
Ce2 Ge4 3.189411 1_555
Ce2 Ge1 3.189411 1_554
Ce3 Ge3 3.189404 1_555
Ce3 Ge5 3.189404 1_565
Ce3 Ge0 3.189406 1_565
Ce3 Ge2 3.189406 1_555
Ce3 Ge4 3.189411 1_555
Ce3 Ge1 3.189411 1_555
Ce4 Ge3 3.004049 1_545
Ce4 Ge4 3.004049 1_555
Ce4 Ge0 3.155210 1_555
Ce4 Ge5 3.268383 1_554
Ce4 Ge5 3.268383 1_555
Ce5 Ge2 3.004050 1_555
Ce5 Ge5 3.004050 1_555
Ce5 Ge1 3.155210 1_555
Ce5 Ge4 3.268383 1_555
Ce5 Ge4 3.268383 1_556
Ce6 Ge5 3.004049 1_565
Ce6 Ge1 3.004049 1_455
Ce6 Ge2 3.155210 1_555
Ce6 Ge3 3.268383 1_556
Ce6 Ge3 3.268383 1_555
Ce7 Ge0 3.004049 1_455
Ce7 Ge4 3.004049 1_555
Ce7 Ge3 3.155210 1_555
Ce7 Ge2 3.268383 1_555
Ce7 Ge2 3.268383 1_554
Ce8 Ge0 3.004050 1_565
Ce8 Ge3 3.004050 1_655
Ce8 Ge4 3.155210 1_555
Ce8 Ge1 3.268383 1_555
Ce8 Ge1 3.268383 1_554
Ce9 Ge2 3.004049 1_655
Ce9 Ge1 3.004049 1_545
Ce9 Ge5 3.155210 1_555
Ce9 Ge0 3.268383 1_555
Ce9 Ge0 3.268383 1_556
