# generated using pymatgen
data_SbSe6IF6
_symmetry_space_group_name_H-M   'P 1'
_cell_length_a   7.25856500
_cell_length_b   9.49630200
_cell_length_c   12.01905125
_cell_angle_alpha   60.25362157
_cell_angle_beta   90.00000000
_cell_angle_gamma   90.00000000
_symmetry_Int_Tables_number   1
_chemical_formula_structural   SbSe6IF6
_chemical_formula_sum   'Sb2 Se12 I2 F12'
_cell_volume   719.30048243
_cell_formula_units_Z   2
loop_
 _symmetry_equiv_pos_site_id
 _symmetry_equiv_pos_as_xyz
  1  'x, y, z'
loop_
 _atom_site_type_symbol
 _atom_site_label
 _atom_site_symmetry_multiplicity
 _atom_site_fract_x
 _atom_site_fract_y
 _atom_site_fract_z
 _atom_site_occupancy
  Sb  Sb0  1  0.00000000  0.00000000  0.00000000  1
  Sb  Sb1  1  0.00000000  0.00000000  0.50000000  1
  Se  Se0  1  0.74295400  0.33860400  0.61158700  1
  Se  Se1  1  0.25704600  0.66139600  0.38841300  1
  Se  Se2  1  0.24540100  0.55693400  0.89015000  1
  Se  Se3  1  0.75459900  0.44306600  0.10985000  1
  Se  Se4  1  0.43229600  0.24168400  0.61619800  1
  Se  Se5  1  0.74295400  0.66139600  0.88841300  1
  Se  Se6  1  0.56770400  0.75831600  0.38380200  1
  Se  Se7  1  0.75459900  0.55693400  0.39015000  1
  Se  Se8  1  0.24540100  0.44306600  0.60985000  1
  Se  Se9  1  0.25704600  0.33860400  0.11158700  1
  Se  Se10  1  0.56770400  0.24168400  0.11619800  1
  Se  Se11  1  0.43229600  0.75831600  0.88380200  1
  I  I0  1  0.72327900  0.50000000  0.75000000  1
  I  I1  1  0.27672100  0.50000000  0.25000000  1
  F  F0  1  0.10273800  0.21097600  0.88636300  1
  F  F1  1  0.77936600  0.94366300  0.60212200  1
  F  F2  1  0.22063400  0.94366300  0.10212200  1
  F  F3  1  0.89516300  0.08302300  0.10271100  1
  F  F4  1  0.89726200  0.78902400  0.11363700  1
  F  F5  1  0.22063400  0.05633700  0.39787800  1
  F  F6  1  0.89726200  0.21097600  0.38636300  1
  F  F7  1  0.10483700  0.91697700  0.89728900  1
  F  F8  1  0.10483700  0.08302300  0.60271100  1
  F  F9  1  0.10273800  0.78902400  0.61363700  1
  F  F10  1  0.89516300  0.91697700  0.39728900  1
  F  F11  1  0.77936600  0.05633700  0.89787800  1
loop_
_geom_bond_atom_site_label_1
_geom_bond_atom_site_label_2
_geom_bond_distance
_geom_bond_site_symmetry_2
Se0 Se4 2.425752 1_555
Se0 Se7 2.431767 1_555
Se1 Se6 2.425752 1_555
Se1 Se8 2.431767 1_555
Se2 Se9 2.431767 1_556
Se3 Se5 2.431767 1_554
Se4 Se8 2.314861 1_555
Se6 Se7 2.314861 1_555
Se10 Se3 2.314861 1_555
Se10 Se9 2.425752 1_555
Se11 Se2 2.314861 1_555
Se11 Se5 2.425752 1_555
I0 Se5 2.768963 1_555
I0 Se0 2.768963 1_555
I1 Se1 2.768963 1_555
I1 Se9 2.768963 1_555
F0 Sb0 1.928768 1_556
F1 Sb1 1.925070 1_665
F2 Sb0 1.925070 1_565
F3 Sb0 1.921051 1_655
F4 Sb0 1.928768 1_665
F5 Sb1 1.925070 1_555
F6 Sb1 1.928768 1_655
F7 Sb0 1.921051 1_566
F8 Sb1 1.921051 1_555
F9 Sb1 1.928768 1_565
F10 Sb1 1.921051 1_665
F11 Sb0 1.925070 1_656
