# generated using pymatgen
data_Gd3Si2Cl5O6
_symmetry_space_group_name_H-M   'P 1'
_cell_length_a   7.52214995
_cell_length_b   7.52214995
_cell_length_c   11.87453369
_cell_angle_alpha   80.72784852
_cell_angle_beta   80.72784852
_cell_angle_gamma   89.08994103
_symmetry_Int_Tables_number   1
_chemical_formula_structural   Gd3Si2Cl5O6
_chemical_formula_sum   'Gd6 Si4 Cl10 O12'
_cell_volume   654.41559456
_cell_formula_units_Z   2
loop_
 _symmetry_equiv_pos_site_id
 _symmetry_equiv_pos_as_xyz
  1  'x, y, z'
loop_
 _atom_site_type_symbol
 _atom_site_label
 _atom_site_symmetry_multiplicity
 _atom_site_fract_x
 _atom_site_fract_y
 _atom_site_fract_z
 _atom_site_occupancy
  Gd  Gd0  1  0.58352600  0.08103200  0.66898300  1
  Gd  Gd1  1  0.00000000  0.50000000  0.00000000  1
  Gd  Gd2  1  0.41647400  0.91896800  0.33101700  1
  Gd  Gd3  1  0.91896800  0.41647400  0.33101700  1
  Gd  Gd4  1  0.50000000  0.00000000  0.00000000  1
  Gd  Gd5  1  0.08103200  0.58352600  0.66898300  1
  Si  Si0  1  0.10951100  0.81920700  0.14302600  1
  Si  Si1  1  0.18079300  0.89048900  0.85697400  1
  Si  Si2  1  0.81920700  0.10951100  0.14302600  1
  Si  Si3  1  0.89048900  0.18079300  0.85697400  1
  Cl  Cl0  1  0.11538600  0.67426900  0.42056200  1
  Cl  Cl1  1  0.62088400  0.62088400  0.35610100  1
  Cl  Cl2  1  0.32573100  0.88461400  0.57943800  1
  Cl  Cl3  1  0.31567000  0.31567000  0.99598500  1
  Cl  Cl4  1  0.37911600  0.37911600  0.64389900  1
  Cl  Cl5  1  0.88461400  0.32573100  0.57943800  1
  Cl  Cl6  1  0.67426900  0.11538600  0.42056200  1
  Cl  Cl7  1  0.22292300  0.22292300  0.33694200  1
  Cl  Cl8  1  0.68433000  0.68433000  0.00401500  1
  Cl  Cl9  1  0.77707700  0.77707700  0.66305800  1
  O  O0  1  0.95343100  0.95343100  0.19056500  1
  O  O1  1  0.95748200  0.38999500  0.82798300  1
  O  O2  1  0.85492900  0.14507100  0.00000000  1
  O  O3  1  0.38999500  0.95748200  0.82798300  1
  O  O4  1  0.12958600  0.69539800  0.82785000  1
  O  O5  1  0.30460200  0.87041400  0.17215000  1
  O  O6  1  0.87041400  0.30460200  0.17215000  1
  O  O7  1  0.14507100  0.85492900  0.00000000  1
  O  O8  1  0.69539800  0.12958600  0.82785000  1
  O  O9  1  0.04656900  0.04656900  0.80943500  1
  O  O10  1  0.04251800  0.61000500  0.17201700  1
  O  O11  1  0.61000500  0.04251800  0.17201700  1
loop_
_geom_bond_atom_site_label_1
_geom_bond_atom_site_label_2
_geom_bond_distance
_geom_bond_site_symmetry_2
Gd0 O3 2.267052 1_545
Gd0 O8 2.267968 1_555
Gd1 O10 2.392259 1_555
Gd1 O1 2.392259 1_454
Gd1 O4 2.392581 1_554
Gd1 O6 2.392581 1_455
Gd1 O7 2.900233 1_555
Gd1 O2 2.900233 1_455
Gd2 O11 2.267052 1_565
Gd2 O5 2.267968 1_555
Gd3 O10 2.267052 1_655
Gd3 O6 2.267968 1_555
Gd4 O11 2.392259 1_555
Gd4 O3 2.392259 1_544
Gd4 O8 2.392581 1_554
Gd4 O5 2.392581 1_545
Gd4 O2 2.900233 1_555
Gd4 O7 2.900233 1_545
Gd5 O1 2.267052 1_455
Gd5 O4 2.267968 1_555
Cl0 Gd3 2.887161 1_455
Cl0 Gd5 2.888876 1_555
Cl0 Gd2 2.893751 1_555
Cl1 Gd2 2.702480 1_555
Cl1 Gd3 2.702480 1_555
Cl2 Gd0 2.887161 1_565
Cl2 Gd2 2.888876 1_555
Cl2 Gd5 2.893751 1_555
Cl3 Gd1 2.728256 1_556
Cl3 Gd4 2.728256 1_556
Cl4 Gd5 2.702480 1_555
Cl4 Gd0 2.702480 1_555
Cl5 Gd5 2.887161 1_655
Cl5 Gd3 2.888876 1_555
Cl5 Gd0 2.893751 1_555
Cl6 Gd2 2.887161 1_545
Cl6 Gd0 2.888876 1_555
Cl6 Gd3 2.893751 1_555
Cl7 Gd2 2.695430 1_545
Cl7 Gd3 2.695430 1_455
Cl8 Gd4 2.728256 1_565
Cl8 Gd1 2.728256 1_655
Cl9 Gd5 2.695430 1_655
Cl9 Gd0 2.695430 1_565
O0 Si0 1.627548 1_655
O0 Si2 1.627548 1_565
O1 Si3 1.625897 1_555
O2 Si2 1.654397 1_555
O2 Si3 1.654397 1_554
O3 Si1 1.625897 1_555
O4 Si1 1.626642 1_555
O5 Si0 1.626642 1_555
O6 Si2 1.626642 1_555
O7 Si0 1.654397 1_555
O7 Si1 1.654397 1_554
O8 Si3 1.626642 1_555
O9 Si1 1.627548 1_545
O9 Si3 1.627548 1_455
O10 Si0 1.625897 1_555
O11 Si2 1.625897 1_555
