# generated using pymatgen
data_Ba2Zr6BCl17
_symmetry_space_group_name_H-M   'P 1'
_cell_length_a   9.73951684
_cell_length_b   9.73951684
_cell_length_c   9.73951684
_cell_angle_alpha   105.29661026
_cell_angle_beta   105.29661026
_cell_angle_gamma   118.18812071
_symmetry_Int_Tables_number   1
_chemical_formula_structural   Ba2Zr6BCl17
_chemical_formula_sum   'Ba2 Zr6 B1 Cl17'
_cell_volume   698.68138200
_cell_formula_units_Z   1
loop_
 _symmetry_equiv_pos_site_id
 _symmetry_equiv_pos_as_xyz
  1  'x, y, z'
loop_
 _atom_site_type_symbol
 _atom_site_label
 _atom_site_symmetry_multiplicity
 _atom_site_fract_x
 _atom_site_fract_y
 _atom_site_fract_z
 _atom_site_occupancy
  Ba  Ba0  1  0.25000000  0.75000000  0.50000000  1
  Ba  Ba1  1  0.75000000  0.25000000  0.50000000  1
  Zr  Zr0  1  0.23340600  0.23340600  0.00000000  1
  Zr  Zr1  1  0.76659400  0.76659400  0.00000000  1
  Zr  Zr2  1  0.18356500  0.06729600  0.25086200  1
  Zr  Zr3  1  0.93270400  0.18356500  0.11626900  1
  Zr  Zr4  1  0.81643500  0.93270400  0.74913800  1
  Zr  Zr5  1  0.06729600  0.81643500  0.88373100  1
  B  B0  1  0.00000000  0.00000000  0.00000000  1
  Cl  Cl0  1  0.87122500  0.72183400  0.59305900  1
  Cl  Cl1  1  0.27816600  0.87122500  0.14939100  1
  Cl  Cl2  1  0.13068100  0.59506000  0.72574100  1
  Cl  Cl3  1  0.54058100  0.67042200  0.71986800  1
  Cl  Cl4  1  0.86931900  0.40494000  0.27425900  1
  Cl  Cl5  1  0.45941900  0.32957800  0.28013200  1
  Cl  Cl6  1  0.82071300  0.54058100  0.87016000  1
  Cl  Cl7  1  0.40494000  0.13068100  0.53562100  1
  Cl  Cl8  1  0.59506000  0.86931900  0.46437900  1
  Cl  Cl9  1  0.12877500  0.27816600  0.40694100  1
  Cl  Cl10  1  0.32957800  0.04944700  0.87016000  1
  Cl  Cl11  1  0.95055300  0.82071300  0.28013200  1
  Cl  Cl12  1  0.72183400  0.12877500  0.85060900  1
  Cl  Cl13  1  0.50000000  0.50000000  0.00000000  1
  Cl  Cl14  1  0.17928700  0.45941900  0.12984000  1
  Cl  Cl15  1  0.04944700  0.17928700  0.71986800  1
  Cl  Cl16  1  0.67042200  0.95055300  0.12984000  1
loop_
_geom_bond_atom_site_label_1
_geom_bond_atom_site_label_2
_geom_bond_distance
_geom_bond_site_symmetry_2
Ba0 Cl2 3.146984 1_555
Ba0 Cl4 3.146984 1_455
Ba0 Cl8 3.146984 1_555
Ba0 Cl7 3.146984 1_565
Ba0 Cl3 3.598083 1_555
Ba0 Cl14 3.598090 1_555
Ba0 Cl11 3.598090 1_455
Ba0 Cl10 3.598094 1_565
Ba1 Cl7 3.146984 1_555
Ba1 Cl2 3.146984 1_655
Ba1 Cl4 3.146984 1_555
Ba1 Cl8 3.146984 1_545
Ba1 Cl5 3.598083 1_555
Ba1 Cl6 3.598090 1_555
Ba1 Cl15 3.598090 1_655
Ba1 Cl16 3.598094 1_545
B0 Zr3 2.310567 1_455
B0 Zr5 2.310567 1_544
B0 Zr2 2.310575 1_555
B0 Zr4 2.310575 1_444
B0 Zr1 2.335232 1_445
B0 Zr0 2.335232 1_555
Cl0 Zr5 2.572785 1_655
Cl0 Zr4 2.574814 1_555
Cl1 Zr2 2.572788 1_565
Cl1 Zr5 2.574818 1_554
Cl2 Zr5 2.721348 1_555
Cl3 Zr4 2.559845 1_555
Cl3 Zr1 2.588750 1_556
Cl4 Zr3 2.721348 1_555
Cl5 Zr2 2.559845 1_555
Cl5 Zr0 2.588750 1_555
Cl6 Zr5 2.559846 1_655
Cl6 Zr1 2.588747 1_556
Cl7 Zr2 2.721341 1_555
Cl8 Zr4 2.721341 1_555
Cl9 Zr3 2.572785 1_455
Cl9 Zr2 2.574814 1_555
Cl10 Zr5 2.559840 1_545
Cl10 Zr0 2.588739 1_556
Cl11 Zr2 2.559840 1_665
Cl11 Zr1 2.588747 1_555
Cl12 Zr4 2.572788 1_545
Cl12 Zr3 2.574818 1_556
Cl13 Zr1 2.667278 1_555
Cl13 Zr0 2.667278 1_555
Cl14 Zr3 2.559846 1_455
Cl14 Zr0 2.588747 1_555
Cl15 Zr4 2.559840 1_445
Cl15 Zr0 2.588747 1_556
Cl16 Zr3 2.559840 1_565
Cl16 Zr1 2.588739 1_555
