# generated using pymatgen
data_SiBr4
_symmetry_space_group_name_H-M   'P 1'
_cell_length_a   11.24254051
_cell_length_b   11.24254051
_cell_length_c   11.24254051
_cell_angle_alpha   90.00000000
_cell_angle_beta   90.00000000
_cell_angle_gamma   90.00000000
_symmetry_Int_Tables_number   1
_chemical_formula_structural   SiBr4
_chemical_formula_sum   'Si8 Br32'
_cell_volume   1420.99772746
_cell_formula_units_Z   8
loop_
 _symmetry_equiv_pos_site_id
 _symmetry_equiv_pos_as_xyz
  1  'x, y, z'
loop_
 _atom_site_type_symbol
 _atom_site_label
 _atom_site_symmetry_multiplicity
 _atom_site_fract_x
 _atom_site_fract_y
 _atom_site_fract_z
 _atom_site_occupancy
  Si  Si0  1  0.36746370  0.63253630  0.13253630  1
  Si  Si1  1  0.13253630  0.13253630  0.13253630  1
  Si  Si2  1  0.86746370  0.86746370  0.86746370  1
  Si  Si3  1  0.13253630  0.36746370  0.63253630  1
  Si  Si4  1  0.63253630  0.13253630  0.36746370  1
  Si  Si5  1  0.86746370  0.63253630  0.36746370  1
  Si  Si6  1  0.36746370  0.86746370  0.63253630  1
  Si  Si7  1  0.63253630  0.36746370  0.86746370  1
  Br  Br0  1  0.25482463  0.75482463  0.74517537  1
  Br  Br1  1  0.74510273  0.47274215  0.98773234  1
  Br  Br2  1  0.51226766  0.24510273  0.47274215  1
  Br  Br3  1  0.75489727  0.97274215  0.98773234  1
  Br  Br4  1  0.02725785  0.01226766  0.24510273  1
  Br  Br5  1  0.74517537  0.24517537  0.25482463  1
  Br  Br6  1  0.74517537  0.25482463  0.75482463  1
  Br  Br7  1  0.51226766  0.25489727  0.97274215  1
  Br  Br8  1  0.02725785  0.48773234  0.74510273  1
  Br  Br9  1  0.47274215  0.51226766  0.24510273  1
  Br  Br10  1  0.52725785  0.48773234  0.75489727  1
  Br  Br11  1  0.97274215  0.51226766  0.25489727  1
  Br  Br12  1  0.98773234  0.74510273  0.47274215  1
  Br  Br13  1  0.25489727  0.97274215  0.51226766  1
  Br  Br14  1  0.52725785  0.01226766  0.25489727  1
  Br  Br15  1  0.24510273  0.47274215  0.51226766  1
  Br  Br16  1  0.24517537  0.24517537  0.24517537  1
  Br  Br17  1  0.24517537  0.25482463  0.74517537  1
  Br  Br18  1  0.01226766  0.25489727  0.52725785  1
  Br  Br19  1  0.75489727  0.52725785  0.48773234  1
  Br  Br20  1  0.97274215  0.98773234  0.75489727  1
  Br  Br21  1  0.01226766  0.24510273  0.02725785  1
  Br  Br22  1  0.74510273  0.02725785  0.48773234  1
  Br  Br23  1  0.24510273  0.02725785  0.01226766  1
  Br  Br24  1  0.47274215  0.98773234  0.74510273  1
  Br  Br25  1  0.75482463  0.74517537  0.25482463  1
  Br  Br26  1  0.48773234  0.75489727  0.52725785  1
  Br  Br27  1  0.25482463  0.74517537  0.24517537  1
  Br  Br28  1  0.75482463  0.75482463  0.75482463  1
  Br  Br29  1  0.98773234  0.75489727  0.97274215  1
  Br  Br30  1  0.25489727  0.52725785  0.01226766  1
  Br  Br31  1  0.48773234  0.74510273  0.02725785  1
loop_
_geom_bond_atom_site_label_1
_geom_bond_atom_site_label_2
_geom_bond_distance
_geom_bond_site_symmetry_2
Br0 Si6 2.193381 1_555
Br1 Si7 2.197889 1_555
Br2 Si4 2.197889 1_555
Br3 Si2 2.197889 1_555
Br4 Si1 2.197889 1_555
Br5 Si4 2.193381 1_555
Br6 Si7 2.193381 1_555
Br7 Si7 2.197889 1_555
Br8 Si3 2.197889 1_555
Br9 Si0 2.197889 1_555
Br10 Si7 2.197889 1_555
Br11 Si5 2.197889 1_555
Br12 Si5 2.197889 1_555
Br13 Si6 2.197889 1_555
Br14 Si4 2.197889 1_555
Br15 Si3 2.197889 1_555
Br16 Si1 2.193381 1_555
Br17 Si3 2.193381 1_555
Br18 Si3 2.197889 1_555
Br19 Si5 2.197889 1_555
Br20 Si2 2.197889 1_555
Br21 Si1 2.197889 1_555
Br22 Si4 2.197889 1_555
Br23 Si1 2.197889 1_555
Br24 Si6 2.197889 1_555
Br25 Si5 2.193381 1_555
Br26 Si6 2.197889 1_555
Br27 Si0 2.193381 1_555
Br28 Si2 2.193381 1_555
Br29 Si2 2.197889 1_555
Br30 Si0 2.197889 1_555
Br31 Si0 2.197889 1_555
