# generated using pymatgen
data_MnCoSb
_symmetry_space_group_name_H-M   'P 1'
_cell_length_a   8.25247490
_cell_length_b   8.25247490
_cell_length_c   8.25247490
_cell_angle_alpha   60.00000000
_cell_angle_beta   60.00000000
_cell_angle_gamma   60.00000000
_symmetry_Int_Tables_number   1
_chemical_formula_structural   MnCoSb
_chemical_formula_sum   'Mn8 Co8 Sb8'
_cell_volume   397.40894462
_cell_formula_units_Z   8
loop_
 _symmetry_equiv_pos_site_id
 _symmetry_equiv_pos_as_xyz
  1  'x, y, z'
loop_
 _atom_site_type_symbol
 _atom_site_label
 _atom_site_symmetry_multiplicity
 _atom_site_fract_x
 _atom_site_fract_y
 _atom_site_fract_z
 _atom_site_occupancy
  Mn  Mn0  1  0.50000000  0.50000000  0.00000000  1
  Mn  Mn1  1  0.00000000  -0.00000000  0.00000000  1
  Mn  Mn2  1  0.50000000  -0.00000000  0.50000000  1
  Mn  Mn3  1  0.50000000  0.50000000  0.50000000  1
  Mn  Mn4  1  0.00000000  0.50000000  0.00000000  1
  Mn  Mn5  1  0.00000000  -0.00000000  0.50000000  1
  Mn  Mn6  1  0.00000000  0.50000000  0.50000000  1
  Mn  Mn7  1  0.50000000  -0.00000000  0.00000000  1
  Co  Co0  1  0.12230375  0.12230375  0.12230375  1
  Co  Co1  1  0.63308875  0.12230375  0.12230375  1
  Co  Co2  1  0.12230375  0.12230375  0.63308875  1
  Co  Co3  1  0.87769625  0.36691125  0.87769625  1
  Co  Co4  1  0.12230375  0.63308875  0.12230375  1
  Co  Co5  1  0.36691125  0.87769625  0.87769625  1
  Co  Co6  1  0.87769625  0.87769625  0.36691125  1
  Co  Co7  1  0.87769625  0.87769625  0.87769625  1
  Sb  Sb0  1  0.25000000  0.25000000  0.25000000  1
  Sb  Sb1  1  0.25807196  0.74192804  0.25807196  1
  Sb  Sb2  1  0.25807196  0.25807196  0.74192804  1
  Sb  Sb3  1  0.74192804  0.25807196  0.25807196  1
  Sb  Sb4  1  0.25807196  0.74192804  0.74192804  1
  Sb  Sb5  1  0.74192804  0.74192804  0.25807196  1
  Sb  Sb6  1  0.74192804  0.25807196  0.74192804  1
  Sb  Sb7  1  0.75000000  0.75000000  0.75000000  1
loop_
_geom_bond_atom_site_label_1
_geom_bond_atom_site_label_2
_geom_bond_distance
_geom_bond_site_symmetry_2
Mn0 Sb0 2.917690 1_555
Mn0 Sb7 2.917690 1_554
Mn0 Sb3 2.919211 1_555
Mn0 Sb1 2.919211 1_555
Mn0 Sb6 2.919211 1_554
Mn0 Sb4 2.919211 1_554
Mn2 Sb0 2.917690 1_555
Mn2 Sb7 2.917690 1_545
Mn2 Sb3 2.919211 1_555
Mn2 Sb5 2.919211 1_545
Mn2 Sb2 2.919211 1_555
Mn2 Sb4 2.919211 1_545
Mn3 Sb5 2.823485 1_555
Mn3 Sb2 2.823485 1_555
Mn3 Sb6 2.823485 1_555
Mn3 Sb3 2.823485 1_555
Mn3 Sb4 2.823485 1_555
Mn3 Sb1 2.823485 1_555
Mn4 Sb7 2.917690 1_454
Mn4 Sb0 2.917690 1_555
Mn4 Sb5 2.919211 1_455
Mn4 Sb4 2.919211 1_554
Mn4 Sb2 2.919211 1_554
Mn4 Sb3 2.919211 1_455
Mn5 Sb7 2.917690 1_445
Mn5 Sb0 2.917690 1_555
Mn5 Sb6 2.919211 1_455
Mn5 Sb1 2.919211 1_545
Mn5 Sb4 2.919211 1_545
Mn5 Sb3 2.919211 1_455
Mn6 Sb0 2.917690 1_555
Mn6 Sb7 2.917690 1_455
Mn6 Sb6 2.919211 1_455
Mn6 Sb1 2.919211 1_555
Mn6 Sb5 2.919211 1_455
Mn6 Sb2 2.919211 1_555
Mn7 Sb0 2.917690 1_555
Mn7 Sb7 2.917690 1_544
Mn7 Sb5 2.919211 1_545
Mn7 Sb6 2.919211 1_554
Mn7 Sb1 2.919211 1_545
Mn7 Sb2 2.919211 1_554
Co0 Mn1 2.472291 1_555
Co0 Mn4 2.545480 1_555
Co0 Mn7 2.545480 1_555
Co0 Mn5 2.545480 1_555
Co0 Sb3 2.566226 1_455
Co0 Sb1 2.566226 1_545
Co0 Sb2 2.566226 1_554
Co0 Sb0 2.581297 1_555
Co1 Mn1 2.472291 1_655
Co1 Mn7 2.545480 1_555
Co1 Mn2 2.545480 1_555
Co1 Mn0 2.545480 1_555
Co1 Sb5 2.566226 1_545
Co1 Sb6 2.566226 1_554
Co1 Sb3 2.566226 1_555
Co1 Sb0 2.581297 1_555
Co2 Mn1 2.472291 1_556
Co2 Mn5 2.545480 1_555
Co2 Mn2 2.545480 1_555
Co2 Mn6 2.545480 1_555
Co2 Sb6 2.566226 1_455
Co2 Sb4 2.566226 1_545
Co2 Sb2 2.566226 1_555
Co2 Sb0 2.581297 1_555
Co3 Mn1 2.472291 1_656
Co3 Mn0 2.545480 1_556
Co3 Mn6 2.545480 1_655
Co3 Mn4 2.545480 1_656
Co3 Sb6 2.566226 1_555
Co3 Sb3 2.566226 1_556
Co3 Sb2 2.566226 1_655
Co3 Sb7 2.581297 1_555
Co4 Mn1 2.472291 1_565
Co4 Mn0 2.545480 1_555
Co4 Mn6 2.545480 1_555
Co4 Mn4 2.545480 1_555
Co4 Sb5 2.566226 1_455
Co4 Sb4 2.566226 1_554
Co4 Sb1 2.566226 1_555
Co4 Sb0 2.581297 1_555
Co5 Mn1 2.472291 1_566
Co5 Mn0 2.545480 1_556
Co5 Mn2 2.545480 1_565
Co5 Mn7 2.545480 1_566
Co5 Sb4 2.566226 1_555
Co5 Sb2 2.566226 1_565
Co5 Sb1 2.566226 1_556
Co5 Sb7 2.581297 1_555
Co6 Mn1 2.472291 1_665
Co6 Mn2 2.545480 1_565
Co6 Mn6 2.545480 1_655
Co6 Mn5 2.545480 1_665
Co6 Sb5 2.566226 1_555
Co6 Sb3 2.566226 1_565
Co6 Sb1 2.566226 1_655
Co6 Sb7 2.581297 1_555
Co7 Mn1 2.472291 1_666
Co7 Mn7 2.545480 1_566
Co7 Mn4 2.545480 1_656
Co7 Mn5 2.545480 1_665
Co7 Sb5 2.566226 1_556
Co7 Sb6 2.566226 1_565
Co7 Sb4 2.566226 1_655
Co7 Sb7 2.581297 1_555
