# generated using pymatgen
data_TmPt2
_symmetry_space_group_name_H-M   'P 1'
_cell_length_a   5.36859724
_cell_length_b   5.36859742
_cell_length_c   5.36859825
_cell_angle_alpha   60.00001368
_cell_angle_beta   60.00001258
_cell_angle_gamma   60.00000583
_symmetry_Int_Tables_number   1
_chemical_formula_structural   TmPt2
_chemical_formula_sum   'Tm2 Pt4'
_cell_volume   109.41268485
_cell_formula_units_Z   2
loop_
 _symmetry_equiv_pos_site_id
 _symmetry_equiv_pos_as_xyz
  1  'x, y, z'
loop_
 _atom_site_type_symbol
 _atom_site_label
 _atom_site_symmetry_multiplicity
 _atom_site_fract_x
 _atom_site_fract_y
 _atom_site_fract_z
 _atom_site_occupancy
  Tm  Tm0  1  0.87500000  0.87500000  0.87500000  1
  Tm  Tm1  1  0.12500000  0.12500000  0.12500000  1
  Pt  Pt0  1  0.50000000  -0.00000000  0.50000000  1
  Pt  Pt1  1  0.00000000  0.50000000  0.50000000  1
  Pt  Pt2  1  0.50000000  0.50000000  0.50000000  1
  Pt  Pt3  1  0.50000000  0.50000000  0.00000000  1
loop_
_geom_bond_atom_site_label_1
_geom_bond_atom_site_label_2
_geom_bond_distance
_geom_bond_site_symmetry_2
Pt0 Pt2 2.684299 1_555
Pt0 Pt2 2.684299 1_545
Pt0 Pt1 2.684299 1_555
Pt0 Pt1 2.684299 1_645
Pt0 Pt3 2.684299 1_546
Pt0 Pt3 2.684299 1_555
Pt0 Tm0 3.147619 1_545
Pt0 Tm1 3.147619 1_555
Pt0 Tm1 3.147620 1_655
Pt0 Tm0 3.147620 1_445
Pt0 Tm1 3.147620 1_556
Pt0 Tm0 3.147620 1_544
Pt1 Pt2 2.684299 1_455
Pt1 Pt2 2.684299 1_555
Pt1 Pt3 2.684299 1_555
Pt1 Pt3 2.684299 1_456
Pt1 Tm0 3.147619 1_455
Pt1 Tm1 3.147619 1_555
Pt1 Tm1 3.147620 1_565
Pt1 Tm0 3.147620 1_445
Pt1 Tm1 3.147620 1_556
Pt1 Tm0 3.147620 1_454
Pt2 Pt3 2.684299 1_555
Pt2 Pt3 2.684299 1_556
Pt2 Tm1 3.147620 1_655
Pt2 Tm0 3.147620 1_455
Pt2 Tm1 3.147620 1_565
Pt2 Tm0 3.147620 1_545
Pt2 Tm1 3.147620 1_556
Pt2 Tm0 3.147620 1_554
Pt3 Tm1 3.147619 1_555
Pt3 Tm0 3.147619 1_554
Pt3 Tm0 3.147619 1_454
Pt3 Tm1 3.147619 1_655
Pt3 Tm0 3.147619 1_544
Pt3 Tm1 3.147619 1_565
