# generated using pymatgen
data_RbZnB(PO4)2
_symmetry_space_group_name_H-M   'P 1'
_cell_length_a   7.54680909
_cell_length_b   7.75712855
_cell_length_c   7.95980774
_cell_angle_alpha   118.62841426
_cell_angle_beta   101.66163337
_cell_angle_gamma   103.70876962
_symmetry_Int_Tables_number   1
_chemical_formula_structural   RbZnB(PO4)2
_chemical_formula_sum   'Rb2 Zn2 B2 P4 O16'
_cell_volume   369.12951866
_cell_formula_units_Z   2
loop_
 _symmetry_equiv_pos_site_id
 _symmetry_equiv_pos_as_xyz
  1  'x, y, z'
loop_
 _atom_site_type_symbol
 _atom_site_label
 _atom_site_symmetry_multiplicity
 _atom_site_fract_x
 _atom_site_fract_y
 _atom_site_fract_z
 _atom_site_occupancy
  Rb  Rb0  1  0.27500300  0.66161700  0.41692000  1
  Rb  Rb1  1  0.72499700  0.33838300  0.58308000  1
  Zn  Zn0  1  0.19842900  0.29431300  0.74108300  1
  Zn  Zn1  1  0.80157100  0.70568700  0.25891700  1
  B  B0  1  0.29773300  0.07358200  0.06931400  1
  B  B1  1  0.70226700  0.92641800  0.93068600  1
  P  P0  1  0.03475300  0.10991500  0.27539600  1
  P  P1  1  0.44968800  0.77860900  0.08142100  1
  P  P2  1  0.55031200  0.22139100  0.91857900  1
  P  P3  1  0.96524700  0.89008500  0.72460400  1
  O  O0  1  0.19980600  0.18572500  0.20338900  1
  O  O1  1  0.26190700  0.58055400  0.97568300  1
  O  O2  1  0.08440500  0.29625900  0.49571500  1
  O  O3  1  0.98143200  0.10126100  0.74963400  1
  O  O4  1  0.80019400  0.81427500  0.79661100  1
  O  O5  1  0.44713500  0.24546100  0.07777000  1
  O  O6  1  0.59578800  0.01511600  0.83727700  1
  O  O7  1  0.16202500  0.90493500  0.85649500  1
  O  O8  1  0.83797500  0.09506500  0.14350500  1
  O  O9  1  0.40929200  0.18490000  0.72440500  1
  O  O10  1  0.91559500  0.70374100  0.50428500  1
  O  O11  1  0.01856800  0.89873900  0.25036600  1
  O  O12  1  0.55286500  0.75453900  0.92223000  1
  O  O13  1  0.59070800  0.81510000  0.27559500  1
  O  O14  1  0.40421200  0.98488400  0.16272300  1
  O  O15  1  0.73809300  0.41944600  0.02431700  1
loop_
_geom_bond_atom_site_label_1
_geom_bond_atom_site_label_2
_geom_bond_distance
_geom_bond_site_symmetry_2
B0 O7 1.473077 1_544
B0 O0 1.475057 1_555
B0 O14 1.477394 1_545
B0 O5 1.491397 1_555
B1 O8 1.473077 1_566
B1 O4 1.475057 1_555
B1 O6 1.477394 1_565
B1 O12 1.491397 1_555
O0 P0 1.578079 1_555
O0 Rb0 3.072968 1_555
O1 P1 1.524405 1_556
O1 Zn0 1.951342 1_555
O1 Rb0 3.233321 1_556
O2 P0 1.534210 1_555
O2 Zn0 1.977429 1_555
O2 Rb1 2.985340 1_455
O2 Rb0 3.260446 1_555
O3 P3 1.523361 1_545
O3 Zn0 1.977229 1_655
O3 Rb1 3.445711 1_555
O4 P3 1.578079 1_555
O4 Rb1 3.072968 1_555
O5 P2 1.577293 1_554
O6 P2 1.566751 1_555
O6 Rb0 3.059803 1_545
O7 P3 1.579094 1_455
O7 Rb0 3.488893 1_555
O8 P0 1.579094 1_655
O8 Rb1 3.488893 1_555
O9 P2 1.540975 1_555
O9 Zn0 1.971784 1_555
O9 Rb1 3.063000 1_555
O9 Rb0 3.319877 1_545
O10 P3 1.534210 1_555
O10 Zn1 1.977429 1_555
O10 Rb0 2.985340 1_655
O10 Rb1 3.260446 1_555
O11 P0 1.523361 1_565
O11 Zn1 1.977229 1_455
O11 Rb0 3.445711 1_555
O12 P1 1.577293 1_556
O13 P1 1.540975 1_555
O13 Zn1 1.971784 1_555
O13 Rb0 3.063000 1_555
O13 Rb1 3.319877 1_565
O14 P1 1.566751 1_555
O14 Rb1 3.059803 1_565
O15 P2 1.524405 1_554
O15 Zn1 1.951342 1_555
O15 Rb1 3.233321 1_554
