# generated using pymatgen
data_CsNaSi2O5
_symmetry_space_group_name_H-M   'P 1'
_cell_length_a   4.98584400
_cell_length_b   13.56740100
_cell_length_c   17.39845700
_cell_angle_alpha   90.00000000
_cell_angle_beta   90.00000000
_cell_angle_gamma   90.00000000
_symmetry_Int_Tables_number   1
_chemical_formula_structural   CsNaSi2O5
_chemical_formula_sum   'Cs8 Na8 Si16 O40'
_cell_volume   1176.91766461
_cell_formula_units_Z   8
loop_
 _symmetry_equiv_pos_site_id
 _symmetry_equiv_pos_as_xyz
  1  'x, y, z'
loop_
 _atom_site_type_symbol
 _atom_site_label
 _atom_site_symmetry_multiplicity
 _atom_site_fract_x
 _atom_site_fract_y
 _atom_site_fract_z
 _atom_site_occupancy
  Cs  Cs0  1  0.73667800  0.50637800  0.26620200  1
  Cs  Cs1  1  0.75263500  0.64135200  0.51665600  1
  Cs  Cs2  1  0.24736500  0.14135200  0.48334400  1
  Cs  Cs3  1  0.74736500  0.64135200  0.01665600  1
  Cs  Cs4  1  0.23667800  0.00637800  0.23379800  1
  Cs  Cs5  1  0.26332200  0.00637800  0.73379800  1
  Cs  Cs6  1  0.76332200  0.50637800  0.76620200  1
  Cs  Cs7  1  0.25263500  0.14135200  0.98334400  1
  Na  Na0  1  0.26128900  0.73451100  0.65437600  1
  Na  Na1  1  0.74432400  0.91236100  0.09614400  1
  Na  Na2  1  0.25567600  0.41236100  0.90385600  1
  Na  Na3  1  0.75567600  0.91236100  0.59614400  1
  Na  Na4  1  0.23871100  0.73451100  0.15437600  1
  Na  Na5  1  0.73871100  0.23451100  0.34562400  1
  Na  Na6  1  0.24432400  0.41236100  0.40385600  1
  Na  Na7  1  0.76128900  0.23451100  0.84562400  1
  Si  Si0  1  0.27716700  0.68841500  0.85541100  1
  Si  Si1  1  0.72283300  0.18841500  0.14458900  1
  Si  Si2  1  0.27543400  0.86290300  0.47477000  1
  Si  Si3  1  0.22283300  0.68841500  0.35541100  1
  Si  Si4  1  0.77543400  0.36290300  0.02523000  1
  Si  Si5  1  0.27042800  0.45857600  0.10451300  1
  Si  Si6  1  0.22456600  0.86290300  0.97477000  1
  Si  Si7  1  0.21843400  0.28420400  0.22389800  1
  Si  Si8  1  0.28156600  0.28420400  0.72389800  1
  Si  Si9  1  0.72456600  0.36290300  0.52523000  1
  Si  Si10  1  0.71843400  0.78420400  0.27610200  1
  Si  Si11  1  0.77716700  0.18841500  0.64458900  1
  Si  Si12  1  0.72957200  0.95857600  0.89548700  1
  Si  Si13  1  0.22957200  0.45857600  0.60451300  1
  Si  Si14  1  0.77042800  0.95857600  0.39548700  1
  Si  Si15  1  0.78156600  0.78420400  0.77610200  1
  O  O0  1  0.69683600  0.35988300  0.93660200  1
  O  O1  1  0.09196300  0.73936700  0.78574300  1
  O  O2  1  0.91386600  0.90719600  0.96501500  1
  O  O3  1  0.78402600  0.89572900  0.81502500  1
  O  O4  1  0.80316400  0.35988300  0.43660200  1
  O  O5  1  0.28402600  0.39572900  0.68497500  1
  O  O6  1  0.21597400  0.39572900  0.18497500  1
  O  O7  1  0.77751500  0.25146600  0.06425700  1
  O  O8  1  0.91383400  0.43522800  0.57949200  1
  O  O9  1  0.77669900  0.07303500  0.88351500  1
  O  O10  1  0.30316400  0.85988300  0.06339800  1
  O  O11  1  0.72248500  0.25146600  0.56425700  1
  O  O12  1  0.22248500  0.75146600  0.93574300  1
  O  O13  1  0.90731800  0.71194400  0.33047800  1
  O  O14  1  0.08613400  0.40719600  0.03498500  1
  O  O15  1  0.22330100  0.57303500  0.11648500  1
  O  O16  1  0.40803700  0.73936700  0.28574300  1
  O  O17  1  0.70191000  0.78718500  0.68757200  1
  O  O18  1  0.20191000  0.28718500  0.81242800  1
  O  O19  1  0.72330100  0.07303500  0.38351500  1
  O  O20  1  0.59196300  0.23936700  0.71425700  1
  O  O21  1  0.41383400  0.93522800  0.92050800  1
  O  O22  1  0.27751500  0.75146600  0.43574300  1
  O  O23  1  0.79809000  0.78718500  0.18757200  1
  O  O24  1  0.90803700  0.23936700  0.21425700  1
  O  O25  1  0.71597400  0.89572900  0.31502500  1
  O  O26  1  0.27669900  0.57303500  0.61648500  1
  O  O27  1  0.59268200  0.71194400  0.83047800  1
  O  O28  1  0.26958200  0.57399900  0.36752000  1
  O  O29  1  0.76958200  0.07399900  0.13248000  1
  O  O30  1  0.19683600  0.85988300  0.56339800  1
  O  O31  1  0.58613400  0.90719600  0.46501500  1
  O  O32  1  0.40731800  0.21194400  0.16952200  1
  O  O33  1  0.23041800  0.57399900  0.86752000  1
  O  O34  1  0.09268200  0.21194400  0.66952200  1
  O  O35  1  0.73041800  0.07399900  0.63248000  1
  O  O36  1  0.08616600  0.93522800  0.42050800  1
  O  O37  1  0.41386600  0.40719600  0.53498500  1
  O  O38  1  0.58616600  0.43522800  0.07949200  1
  O  O39  1  0.29809000  0.28718500  0.31242800  1
loop_
_geom_bond_atom_site_label_1
_geom_bond_atom_site_label_2
_geom_bond_distance
_geom_bond_site_symmetry_2
Cs0 O28 3.061488 1_555
Cs0 O13 3.122969 1_555
Cs0 O6 3.156185 1_655
Cs1 O26 3.083292 1_555
Cs1 O8 3.108365 1_555
Cs1 O22 3.134530 1_555
Cs1 O26 3.271557 1_655
Cs1 O22 3.325995 1_655
Cs1 O13 3.464759 1_555
Cs1 O17 3.580707 1_555
Cs1 O28 3.656257 1_555
Cs2 O19 3.083292 1_555
Cs2 O36 3.108365 1_545
Cs2 O11 3.134530 1_555
Cs2 O19 3.271557 1_455
Cs2 O11 3.325995 1_455
Cs2 O34 3.464759 1_555
Cs2 O39 3.580707 1_555
Cs2 O35 3.656257 1_555
Cs3 O15 3.083292 1_655
Cs3 O38 3.108365 1_555
Cs3 O12 3.134530 1_654
Cs3 O15 3.271557 1_555
Cs3 O12 3.325995 1_554
Cs3 O27 3.464759 1_554
Cs3 O23 3.580707 1_555
Cs3 O33 3.656257 1_654
Cs4 O29 3.061488 1_455
Cs4 O32 3.122969 1_555
Cs4 O25 3.156185 1_545
Cs5 O35 3.061488 1_555
Cs5 O34 3.122969 1_555
Cs5 O3 3.156185 1_445
Cs6 O33 3.061488 1_655
Cs6 O27 3.122969 1_555
Cs6 O5 3.156185 1_555
Cs7 O9 3.083292 1_455
Cs7 O21 3.108365 1_545
Cs7 O7 3.134530 1_456
Cs7 O9 3.271557 1_555
Cs7 O7 3.325995 1_556
Cs7 O32 3.464759 1_556
Cs7 O18 3.580707 1_555
Cs7 O29 3.656257 1_456
Na0 O26 2.289138 1_555
Na0 O30 2.345650 1_555
Na0 O17 2.381286 1_555
Na0 O1 2.437408 1_555
Na1 O29 2.285783 1_565
Na1 O23 2.342322 1_555
Na1 O10 2.381085 1_555
Na1 O2 2.434017 1_554
Na2 O33 2.285783 1_555
Na2 O18 2.342322 1_555
Na2 O0 2.381085 1_555
Na2 O14 2.434017 1_556
Na3 O35 2.285783 1_565
Na3 O17 2.342322 1_555
Na3 O30 2.381085 1_655
Na3 O31 2.434017 1_555
Na4 O15 2.289138 1_555
Na4 O10 2.345650 1_555
Na4 O23 2.381286 1_455
Na4 O16 2.437408 1_555
Na5 O19 2.289138 1_555
Na5 O4 2.345650 1_555
Na5 O39 2.381286 1_555
Na5 O24 2.437408 1_555
Na6 O28 2.285783 1_555
Na6 O39 2.342322 1_555
Na6 O4 2.381085 1_455
Na6 O37 2.434017 1_555
Na7 O9 2.289138 1_555
Na7 O0 2.345650 1_555
Na7 O18 2.381286 1_655
Na7 O20 2.437408 1_555
O0 Si4 1.591534 1_556
O1 Si15 1.671296 1_455
O1 Si0 1.673250 1_555
O2 Si6 1.670225 1_655
O2 Si12 1.671398 1_555
O3 Si15 1.657780 1_555
O3 Si12 1.661481 1_555
O4 Si9 1.591534 1_555
O5 Si8 1.657780 1_555
O5 Si13 1.661481 1_555
O6 Si7 1.657780 1_555
O6 Si5 1.661481 1_555
O7 Si4 1.657418 1_555
O7 Si1 1.661186 1_555
O8 Si9 1.656698 1_555
O8 Si13 1.663738 1_655
O9 Si12 1.584339 1_545
O10 Si6 1.591534 1_554
O11 Si9 1.657418 1_555
O11 Si11 1.661186 1_555
O12 Si6 1.657418 1_555
O12 Si0 1.661186 1_555
O13 Si10 1.656218 1_555
O13 Si3 1.662755 1_655
O14 Si4 1.670225 1_455
O14 Si5 1.671398 1_555
O15 Si5 1.584339 1_555
O16 Si10 1.671296 1_555
O16 Si3 1.673250 1_555
O17 Si15 1.591177 1_555
O18 Si8 1.591177 1_555
O19 Si14 1.584339 1_545
O20 Si8 1.671296 1_555
O20 Si11 1.673250 1_555
O21 Si6 1.656698 1_555
O21 Si12 1.663738 1_555
O22 Si2 1.657418 1_555
O22 Si3 1.661186 1_555
O23 Si10 1.591177 1_555
O24 Si7 1.671296 1_655
O24 Si1 1.673250 1_555
O25 Si10 1.657780 1_555
O25 Si14 1.661481 1_555
O26 Si13 1.584339 1_555
O27 Si15 1.656218 1_555
O27 Si0 1.662755 1_555
O28 Si3 1.583804 1_555
O29 Si1 1.583804 1_555
O30 Si2 1.591534 1_555
O31 Si2 1.670225 1_555
O31 Si14 1.671398 1_555
O32 Si7 1.656218 1_555
O32 Si1 1.662755 1_555
O33 Si0 1.583804 1_555
O34 Si8 1.656218 1_555
O34 Si11 1.662755 1_455
O35 Si11 1.583804 1_555
O36 Si2 1.656698 1_555
O36 Si14 1.663738 1_455
O37 Si9 1.670225 1_555
O37 Si13 1.671398 1_555
O38 Si4 1.656698 1_555
O38 Si5 1.663738 1_555
O39 Si7 1.591177 1_555
