# generated using pymatgen
data_LiTaGeO5
_symmetry_space_group_name_H-M   'P 1'
_cell_length_a   7.53518080
_cell_length_b   7.58133869
_cell_length_c   8.03614041
_cell_angle_alpha   90.00010776
_cell_angle_beta   90.00002422
_cell_angle_gamma   119.64471365
_symmetry_Int_Tables_number   1
_chemical_formula_structural   LiTaGeO5
_chemical_formula_sum   'Li4 Ta4 Ge4 O20'
_cell_volume   398.98947146
_cell_formula_units_Z   4
loop_
 _symmetry_equiv_pos_site_id
 _symmetry_equiv_pos_as_xyz
  1  'x, y, z'
loop_
 _atom_site_type_symbol
 _atom_site_label
 _atom_site_symmetry_multiplicity
 _atom_site_fract_x
 _atom_site_fract_y
 _atom_site_fract_z
 _atom_site_occupancy
  Li  Li0  1  0.54761154  0.25048455  0.55857512  1
  Li  Li1  1  0.45238362  0.74952230  0.44143888  1
  Li  Li2  1  0.95238304  0.74951985  0.05856396  1
  Li  Li3  1  0.04761985  0.25049698  0.94142323  1
  Ta  Ta0  1  0.73907287  0.74972549  0.73977747  1
  Ta  Ta1  1  0.76085755  0.25027152  0.23982580  1
  Ta  Ta2  1  0.23907301  0.74972566  0.76022244  1
  Ta  Ta3  1  0.26085816  0.25027224  0.26017419  1
  Ge  Ge0  1  0.49131182  0.25020709  0.88675074  1
  Ge  Ge1  1  0.99131086  0.25020563  0.61324913  1
  Ge  Ge2  1  0.50872303  0.74979343  0.11324703  1
  Ge  Ge3  1  0.00872317  0.74979433  0.38675288  1
  O  O0  1  0.80404402  0.25557734  0.48918003  1
  O  O1  1  0.69595200  0.74444140  0.98916561  1
  O  O2  1  0.32138648  0.75306862  0.98724695  1
  O  O3  1  0.60029230  0.94885313  0.25698724  1
  O  O4  1  0.49945456  0.75146933  0.68017125  1
  O  O5  1  0.67859258  0.24691871  0.01276561  1
  O  O6  1  -0.00054609  0.75146848  0.81982847  1
  O  O7  1  0.50054607  0.24852266  0.31982494  1
  O  O8  1  0.10180941  0.44873554  0.75697608  1
  O  O9  1  0.82138680  0.75306981  0.51275323  1
  O  O10  1  0.17859215  0.24691772  0.48723410  1
  O  O11  1  0.10029260  0.94885324  0.24301196  1
  O  O12  1  0.30404502  0.25557929  0.01082026  1
  O  O13  1  0.00054674  0.24852359  0.18017525  1
  O  O14  1  0.39822165  0.55126651  0.25698500  1
  O  O15  1  0.89973622  0.05113659  0.75697749  1
  O  O16  1  0.19595256  0.74444329  0.51083409  1
  O  O17  1  0.39973589  0.05113627  0.74302348  1
  O  O18  1  0.89822158  0.55126633  0.24301575  1
  O  O19  1  0.60180897  0.44873511  0.74302233  1
loop_
_geom_bond_atom_site_label_1
_geom_bond_atom_site_label_2
_geom_bond_distance
_geom_bond_site_symmetry_2
Li0 O7 1.949851 1_555
Li0 O0 1.993071 1_555
Li0 O19 2.003905 1_555
Li0 O17 2.014171 1_555
Li1 O4 1.949726 1_555
Li1 O16 1.993109 1_555
Li1 O14 2.004015 1_555
Li1 O3 2.014172 1_555
Li2 O6 1.949750 1_654
Li2 O1 1.993117 1_554
Li2 O18 2.003997 1_555
Li2 O11 2.014156 1_655
Li3 O13 1.949869 1_556
Li3 O12 1.993059 1_556
Li3 O8 2.003860 1_555
Li3 O15 2.014205 1_455
Ge0 O12 1.744642 1_556
Ge0 O5 1.747112 1_556
Ge0 O19 1.747280 1_555
Ge0 O17 1.748639 1_555
Ge1 O0 1.744638 1_555
Ge1 O10 1.747115 1_655
Ge1 O8 1.747278 1_655
Ge1 O15 1.748640 1_555
Ge2 O1 1.744398 1_554
Ge2 O14 1.747328 1_555
Ge2 O2 1.747344 1_554
Ge2 O3 1.748653 1_555
Ge3 O16 1.744396 1_555
Ge3 O18 1.747324 1_455
Ge3 O9 1.747346 1_455
Ge3 O11 1.748657 1_555
O0 Ta1 2.027304 1_555
O1 Ta0 2.027509 1_555
O2 Ta2 1.923080 1_555
O3 Ta1 1.992423 1_565
O4 Ta0 1.874382 1_555
O4 Ta2 2.058613 1_555
O5 Ta1 1.923225 1_555
O6 Ta2 1.874384 1_555
O6 Ta0 2.058611 1_455
O7 Ta3 1.875001 1_555
O7 Ta1 2.057962 1_555
O8 Ta2 1.985643 1_555
O9 Ta0 1.923078 1_555
O10 Ta3 1.923224 1_555
O11 Ta3 1.992427 1_565
O12 Ta3 2.027302 1_555
O13 Ta1 1.875004 1_455
O13 Ta3 2.057962 1_555
O14 Ta3 1.985629 1_555
O15 Ta0 1.992427 1_545
O16 Ta2 2.027511 1_555
O17 Ta2 1.992423 1_545
O18 Ta1 1.985633 1_555
O19 Ta0 1.985644 1_555
