# generated using pymatgen
data_LuSb
_symmetry_space_group_name_H-M   'P 1'
_cell_length_a   4.29826268
_cell_length_b   4.29826256
_cell_length_c   4.29826182
_cell_angle_alpha   60.00001371
_cell_angle_beta   60.00001463
_cell_angle_gamma   60.00002269
_symmetry_Int_Tables_number   1
_chemical_formula_structural   LuSb
_chemical_formula_sum   'Lu1 Sb1'
_cell_volume   56.15183200
_cell_formula_units_Z   1
loop_
 _symmetry_equiv_pos_site_id
 _symmetry_equiv_pos_as_xyz
  1  'x, y, z'
loop_
 _atom_site_type_symbol
 _atom_site_label
 _atom_site_symmetry_multiplicity
 _atom_site_fract_x
 _atom_site_fract_y
 _atom_site_fract_z
 _atom_site_occupancy
  Lu  Lu0  1  0.00000000  -0.00000000  -0.00000000  1
  Sb  Sb0  1  0.50000000  0.50000000  0.50000000  1
loop_
_geom_bond_atom_site_label_1
_geom_bond_atom_site_label_2
_geom_bond_distance
_geom_bond_site_symmetry_2
Lu0 Sb0 3.039331 1_554
Lu0 Sb0 3.039331 1_445
Lu0 Sb0 3.039331 1_455
Lu0 Sb0 3.039331 1_544
Lu0 Sb0 3.039331 1_545
Lu0 Sb0 3.039331 1_454
