# generated using pymatgen
data_La3NbO7
_symmetry_space_group_name_H-M   'P 1'
_cell_length_a   7.69748668
_cell_length_b   7.78183188
_cell_length_c   11.16611521
_cell_angle_alpha   90.00003002
_cell_angle_beta   90.00106506
_cell_angle_gamma   89.99974216
_symmetry_Int_Tables_number   1
_chemical_formula_structural   La3NbO7
_chemical_formula_sum   'La12 Nb4 O28'
_cell_volume   668.85641159
_cell_formula_units_Z   4
loop_
 _symmetry_equiv_pos_site_id
 _symmetry_equiv_pos_as_xyz
  1  'x, y, z'
loop_
 _atom_site_type_symbol
 _atom_site_label
 _atom_site_symmetry_multiplicity
 _atom_site_fract_x
 _atom_site_fract_y
 _atom_site_fract_z
 _atom_site_occupancy
  La  La0  1  0.04696569  0.75106133  0.47650037  1
  La  La1  1  0.27974336  0.49156544  0.75000754  1
  La  La2  1  0.72028374  0.50843842  0.25000054  1
  La  La3  1  0.45304264  0.25103795  0.02350252  1
  La  La4  1  0.77971363  0.00843229  0.25000325  1
  La  La5  1  0.54696371  0.74895380  0.52348649  1
  La  La6  1  0.54695264  0.74893199  0.97650157  1
  La  La7  1  0.04695648  0.75105605  0.02349421  1
  La  La8  1  0.95304034  0.24893639  0.97650189  1
  La  La9  1  0.95302791  0.24894256  0.52349065  1
  La  La10  1  0.45304914  0.25111114  0.47654311  1
  La  La11  1  0.22029266  0.99156323  0.75000185  1
  Nb  Nb0  1  0.74939009  0.99395069  0.75000448  1
  Nb  Nb1  1  0.25061456  0.00604617  0.25001420  1
  Nb  Nb2  1  0.75062933  0.49394986  0.75000868  1
  Nb  Nb3  1  0.24938054  0.50604735  0.24999844  1
  O  O0  1  0.22657243  0.24550101  0.61860050  1
  O  O1  1  0.54980807  0.46627224  0.62846494  1
  O  O2  1  0.58972295  0.04028148  0.61697468  1
  O  O3  1  0.41027328  0.95972616  0.38302438  1
  O  O4  1  0.04981021  0.03372370  0.37152762  1
  O  O5  1  0.91027007  0.54027884  0.88301874  1
  O  O6  1  0.32279911  0.24655809  0.25000216  1
  O  O7  1  0.77342464  0.75449705  0.38139839  1
  O  O8  1  0.95018703  0.96626911  0.62846763  1
  O  O9  1  0.27341894  0.74550233  0.88139439  1
  O  O10  1  0.72657548  0.25449809  0.11859986  1
  O  O11  1  0.22657461  0.24549798  0.88139912  1
  O  O12  1  0.82279639  0.25344240  0.74999599  1
  O  O13  1  0.08972403  0.45972048  0.11697532  1
  O  O14  1  0.72657082  0.25449933  0.38140003  1
  O  O15  1  0.04980901  0.03372645  0.12846610  1
  O  O16  1  0.95018789  0.96626994  0.87152642  1
  O  O17  1  0.67719688  0.75343958  0.74999424  1
  O  O18  1  0.27342857  0.74550175  0.61859626  1
  O  O19  1  0.17719943  0.74655397  0.24999872  1
  O  O20  1  0.45018699  0.53372950  0.37153147  1
  O  O21  1  0.91027090  0.54028138  0.61697428  1
  O  O22  1  0.08972683  0.45971844  0.38302403  1
  O  O23  1  0.58972590  0.04027646  0.88302040  1
  O  O24  1  0.45018637  0.53372422  0.12846983  1
  O  O25  1  0.41027242  0.95971798  0.11697410  1
  O  O26  1  0.54981101  0.46627311  0.87152481  1
  O  O27  1  0.77342127  0.75449724  0.11859579  1
loop_
_geom_bond_atom_site_label_1
_geom_bond_atom_site_label_2
_geom_bond_distance
_geom_bond_site_symmetry_2
La0 O18 2.357538 1_555
La0 O7 2.358340 1_455
La0 O4 2.492542 1_565
La0 O8 2.497811 1_455
La0 O21 2.501598 1_455
La0 O22 2.517520 1_555
La0 O19 2.720816 1_555
La1 O11 2.446770 1_555
La1 O0 2.446848 1_555
La1 O9 2.461634 1_555
La1 O18 2.461792 1_555
La1 O26 2.490246 1_555
La1 O1 2.490424 1_555
La2 O7 2.446712 1_555
La2 O27 2.446765 1_555
La2 O14 2.461727 1_555
La2 O10 2.461743 1_555
La2 O24 2.490515 1_555
La2 O20 2.490558 1_555
La3 O11 2.357621 1_554
La3 O10 2.358262 1_555
La3 O24 2.492677 1_555
La3 O26 2.498015 1_554
La3 O23 2.501517 1_554
La3 O25 2.517350 1_545
La3 O6 2.720821 1_555
La4 O14 2.446765 1_555
La4 O10 2.446788 1_555
La4 O7 2.461675 1_545
La4 O27 2.461754 1_545
La4 O4 2.490476 1_655
La4 O15 2.490590 1_655
La5 O7 2.357510 1_555
La5 O18 2.358375 1_555
La5 O1 2.492703 1_555
La5 O20 2.497785 1_555
La5 O3 2.501432 1_555
La5 O2 2.517464 1_565
La5 O17 2.720841 1_555
La6 O27 2.357559 1_556
La6 O9 2.358315 1_555
La6 O26 2.492539 1_555
La6 O24 2.497795 1_556
La6 O25 2.501565 1_556
La6 O23 2.517569 1_565
La6 O17 2.720905 1_555
La7 O9 2.357608 1_554
La7 O27 2.358333 1_455
La7 O15 2.492592 1_565
La7 O16 2.497806 1_454
La7 O5 2.501542 1_454
La7 O13 2.517493 1_555
La7 O19 2.720837 1_555
La8 O10 2.357609 1_556
La8 O11 2.358332 1_655
La8 O16 2.492584 1_545
La8 O15 2.497758 1_656
La8 O13 2.501554 1_656
La8 O5 2.517554 1_555
La8 O12 2.720855 1_555
La9 O14 2.357465 1_555
La9 O0 2.358404 1_655
La9 O8 2.492640 1_545
La9 O4 2.497845 1_655
La9 O22 2.501540 1_655
La9 O21 2.517521 1_555
La9 O12 2.720848 1_555
La10 O0 2.357378 1_555
La10 O14 2.358445 1_555
La10 O20 2.492445 1_555
La10 O1 2.497163 1_555
La10 O2 2.501457 1_555
La10 O3 2.518024 1_545
La10 O6 2.721241 1_555
La11 O9 2.446670 1_555
La11 O18 2.446781 1_555
La11 O11 2.461683 1_565
La11 O0 2.461731 1_565
La11 O16 2.490573 1_455
La11 O8 2.490596 1_455
Nb0 O17 1.952375 1_555
Nb0 O23 1.961256 1_565
Nb0 O2 1.961361 1_565
Nb0 O16 2.067987 1_555
Nb0 O8 2.068130 1_555
Nb0 O12 2.096889 1_565
Nb1 O6 1.952362 1_555
Nb1 O3 1.961139 1_545
Nb1 O25 1.961434 1_545
Nb1 O4 2.067997 1_555
Nb1 O15 2.068223 1_555
Nb1 O19 2.096911 1_545
Nb2 O12 1.952286 1_555
Nb2 O5 1.961066 1_555
Nb2 O21 1.961314 1_555
Nb2 O26 2.068099 1_555
Nb2 O1 2.068281 1_555
Nb2 O17 2.096923 1_555
Nb3 O19 1.952310 1_555
Nb3 O13 1.961249 1_555
Nb3 O22 1.961294 1_555
Nb3 O24 2.068118 1_555
Nb3 O20 2.068121 1_555
Nb3 O6 2.096891 1_555
