# generated using pymatgen
data_Rb2Hg2PdCl8
_symmetry_space_group_name_H-M   'P 1'
_cell_length_a   6.85821787
_cell_length_b   6.85821787
_cell_length_c   10.28368456
_cell_angle_alpha   73.76418123
_cell_angle_beta   73.76418123
_cell_angle_gamma   61.88704633
_symmetry_Int_Tables_number   1
_chemical_formula_structural   Rb2Hg2PdCl8
_chemical_formula_sum   'Rb2 Hg2 Pd1 Cl8'
_cell_volume   403.32353365
_cell_formula_units_Z   1
loop_
 _symmetry_equiv_pos_site_id
 _symmetry_equiv_pos_as_xyz
  1  'x, y, z'
loop_
 _atom_site_type_symbol
 _atom_site_label
 _atom_site_symmetry_multiplicity
 _atom_site_fract_x
 _atom_site_fract_y
 _atom_site_fract_z
 _atom_site_occupancy
  Rb  Rb0  1  0.60902500  0.60902500  0.16308100  1
  Rb  Rb1  1  0.39097500  0.39097500  0.83691900  1
  Hg  Hg0  1  0.13241400  0.13241400  0.60548300  1
  Hg  Hg1  1  0.86758600  0.86758600  0.39451700  1
  Pd  Pd0  1  0.00000000  0.00000000  0.00000000  1
  Cl  Cl0  1  0.92081900  0.92081900  0.68778100  1
  Cl  Cl1  1  0.89409200  0.35914300  0.86723400  1
  Cl  Cl2  1  0.34268600  0.34268600  0.50413900  1
  Cl  Cl3  1  0.64085700  0.10590800  0.13276600  1
  Cl  Cl4  1  0.65731400  0.65731400  0.49586100  1
  Cl  Cl5  1  0.35914300  0.89409200  0.86723400  1
  Cl  Cl6  1  0.10590800  0.64085700  0.13276600  1
  Cl  Cl7  1  0.07918100  0.07918100  0.31221900  1
loop_
_geom_bond_atom_site_label_1
_geom_bond_atom_site_label_2
_geom_bond_distance
_geom_bond_site_symmetry_2
Cl0 Hg0 2.353534 1_665
Cl0 Rb1 3.815787 1_565
Cl0 Rb1 3.815787 1_655
Cl1 Pd0 2.333769 1_656
Cl1 Rb1 3.438966 1_655
Cl1 Rb1 3.450253 1_555
Cl1 Rb0 3.528067 1_556
Cl2 Hg0 2.350420 1_555
Cl2 Rb1 3.647150 1_555
Cl2 Rb0 3.867034 1_555
Cl3 Pd0 2.333769 1_655
Cl3 Rb0 3.438966 1_545
Cl3 Rb0 3.450253 1_555
Cl3 Rb1 3.528067 1_554
Cl4 Hg1 2.350420 1_555
Cl4 Rb0 3.647150 1_555
Cl4 Rb1 3.867034 1_555
Cl5 Pd0 2.333769 1_566
Cl5 Rb1 3.438966 1_565
Cl5 Rb1 3.450253 1_555
Cl5 Rb0 3.528067 1_556
Cl6 Pd0 2.333769 1_565
Cl6 Rb0 3.438966 1_455
Cl6 Rb0 3.450253 1_555
Cl6 Rb1 3.528067 1_554
Cl7 Hg1 2.353534 1_445
Cl7 Rb0 3.815787 1_455
Cl7 Rb0 3.815787 1_545
