# generated using pymatgen
data_LiCuO
_symmetry_space_group_name_H-M   'P 1'
_cell_length_a   3.81378293
_cell_length_b   6.22507887
_cell_length_c   6.22507822
_cell_angle_alpha   84.61575661
_cell_angle_beta   72.16217267
_cell_angle_gamma   72.16216113
_symmetry_Int_Tables_number   1
_chemical_formula_structural   LiCuO
_chemical_formula_sum   'Li4 Cu4 O4'
_cell_volume   133.92240304
_cell_formula_units_Z   4
loop_
 _symmetry_equiv_pos_site_id
 _symmetry_equiv_pos_as_xyz
  1  'x, y, z'
loop_
 _atom_site_type_symbol
 _atom_site_label
 _atom_site_symmetry_multiplicity
 _atom_site_fract_x
 _atom_site_fract_y
 _atom_site_fract_z
 _atom_site_occupancy
  Li  Li0  1  0.24999186  0.14676152  0.85323848  1
  Li  Li1  1  0.24999186  0.85323848  0.14676152  1
  Li  Li2  1  0.89676966  0.85323848  0.85323848  1
  Li  Li3  1  0.60324561  0.14676152  0.14676152  1
  Cu  Cu0  1  0.90906125  0.50000000  0.18187551  1
  Cu  Cu1  1  0.90906125  0.18187551  0.50000000  1
  Cu  Cu2  1  0.59093875  0.81812449  0.50000000  1
  Cu  Cu3  1  0.59093875  0.50000000  0.81812449  1
  O  O0  1  0.74999786  0.18946038  0.81053962  1
  O  O1  1  0.74999786  0.81053962  0.18946038  1
  O  O2  1  0.43946152  0.81053962  0.81053962  1
  O  O3  1  0.06054176  0.18946038  0.18946038  1
loop_
_geom_bond_atom_site_label_1
_geom_bond_atom_site_label_2
_geom_bond_distance
_geom_bond_site_symmetry_2
Li0 O0 1.940152 1_455
Li0 O0 1.940198 1_555
Li0 O3 2.008394 1_556
Li0 O2 2.008394 1_545
Li1 O1 1.940153 1_455
Li1 O1 1.940197 1_555
Li1 O2 2.008394 1_554
Li1 O3 2.008394 1_565
Li2 O2 1.940149 1_655
Li2 O2 1.940201 1_555
Li2 O1 2.008394 1_556
Li2 O0 2.008394 1_565
Li3 O3 1.940156 1_655
Li3 O3 1.940194 1_555
Li3 O0 2.008394 1_554
Li3 O1 2.008394 1_545
Cu0 O3 1.840751 1_655
Cu0 O1 1.840752 1_555
Cu1 O3 1.840751 1_655
Cu1 O0 1.840751 1_555
Cu2 O2 1.840751 1_555
Cu2 O1 1.840751 1_555
Cu3 O2 1.840751 1_555
Cu3 O0 1.840752 1_555
