# generated using pymatgen
data_Tm(MnGe)6
_symmetry_space_group_name_H-M   'P 1'
_cell_length_a   5.14187618
_cell_length_b   5.14188899
_cell_length_c   8.14581353
_cell_angle_alpha   90.00000000
_cell_angle_beta   90.00000000
_cell_angle_gamma   119.99978140
_symmetry_Int_Tables_number   1
_chemical_formula_structural   Tm(MnGe)6
_chemical_formula_sum   'Tm1 Mn6 Ge6'
_cell_volume   186.51353929
_cell_formula_units_Z   1
loop_
 _symmetry_equiv_pos_site_id
 _symmetry_equiv_pos_as_xyz
  1  'x, y, z'
loop_
 _atom_site_type_symbol
 _atom_site_label
 _atom_site_symmetry_multiplicity
 _atom_site_fract_x
 _atom_site_fract_y
 _atom_site_fract_z
 _atom_site_occupancy
  Tm  Tm0  1  0.00000000  0.00000000  0.00000000  1
  Mn  Mn0  1  0.00000000  0.50000000  0.74877397  1
  Mn  Mn1  1  0.50000000  0.00000000  0.25122640  1
  Mn  Mn2  1  0.50000000  0.50000000  0.25122543  1
  Mn  Mn3  1  0.00000000  0.50000000  0.25122603  1
  Mn  Mn4  1  0.50000000  0.00000000  0.74877360  1
  Mn  Mn5  1  0.50000000  0.50000000  0.74877457  1
  Ge  Ge0  1  0.00000000  0.00000000  0.65731747  1
  Ge  Ge1  1  0.33333435  0.66666761  0.50000000  1
  Ge  Ge2  1  0.66666565  0.33333239  0.50000000  1
  Ge  Ge3  1  0.33333302  0.66666681  0.00000000  1
  Ge  Ge4  1  0.66666698  0.33333319  0.00000000  1
  Ge  Ge5  1  0.00000000  0.00000000  0.34268253  1
loop_
_geom_bond_atom_site_label_1
_geom_bond_atom_site_label_2
_geom_bond_distance
_geom_bond_site_symmetry_2
Ge0 Ge5 2.562958 1_555
Ge0 Mn4 2.676700 1_455
Ge0 Mn4 2.676700 1_555
Ge0 Mn0 2.676707 1_545
Ge0 Mn0 2.676707 1_555
Ge0 Mn5 2.676714 1_555
Ge0 Mn5 2.676714 1_445
Ge0 Tm0 2.791428 1_556
Ge1 Mn4 2.511932 1_565
Ge1 Mn1 2.511932 1_565
Ge1 Mn2 2.511937 1_555
Ge1 Mn5 2.511937 1_555
Ge1 Mn0 2.511937 1_555
Ge1 Mn3 2.511937 1_555
Ge2 Mn4 2.511932 1_555
Ge2 Mn1 2.511932 1_555
Ge2 Mn2 2.511937 1_555
Ge2 Mn5 2.511937 1_555
Ge2 Mn3 2.511937 1_655
Ge2 Mn0 2.511937 1_655
Ge3 Mn5 2.528072 1_554
Ge3 Mn2 2.528072 1_555
Ge3 Mn0 2.528075 1_554
Ge3 Mn3 2.528075 1_555
Ge3 Mn1 2.528080 1_565
Ge3 Mn4 2.528080 1_564
Ge3 Tm0 2.968662 1_565
Ge3 Tm0 2.968672 1_665
Ge3 Tm0 2.968678 1_555
Ge4 Mn5 2.528072 1_554
Ge4 Mn2 2.528072 1_555
Ge4 Mn0 2.528075 1_654
Ge4 Mn3 2.528075 1_655
Ge4 Mn1 2.528080 1_555
Ge4 Mn4 2.528080 1_554
Ge4 Tm0 2.968662 1_655
Ge4 Tm0 2.968672 1_555
Ge4 Tm0 2.968678 1_665
Ge5 Mn1 2.676700 1_455
Ge5 Mn1 2.676700 1_555
Ge5 Mn3 2.676707 1_545
Ge5 Mn3 2.676707 1_555
Ge5 Mn2 2.676714 1_555
Ge5 Mn2 2.676714 1_445
Ge5 Tm0 2.791428 1_555
