# generated using pymatgen
data_CsNaTe
_symmetry_space_group_name_H-M   'P 1'
_cell_length_a   5.31929495
_cell_length_b   5.31929495
_cell_length_c   8.60440342
_cell_angle_alpha   90.00000000
_cell_angle_beta   90.00000000
_cell_angle_gamma   90.00000000
_symmetry_Int_Tables_number   1
_chemical_formula_structural   CsNaTe
_chemical_formula_sum   'Cs2 Na2 Te2'
_cell_volume   243.46072370
_cell_formula_units_Z   2
loop_
 _symmetry_equiv_pos_site_id
 _symmetry_equiv_pos_as_xyz
  1  'x, y, z'
loop_
 _atom_site_type_symbol
 _atom_site_label
 _atom_site_symmetry_multiplicity
 _atom_site_fract_x
 _atom_site_fract_y
 _atom_site_fract_z
 _atom_site_occupancy
  Cs  Cs0  1  0.25000000  0.25000000  0.65568028  1
  Cs  Cs1  1  0.75000000  0.75000000  0.34431972  1
  Na  Na0  1  0.25000000  0.75000000  0.00000000  1
  Na  Na1  1  0.75000000  0.25000000  0.00000000  1
  Te  Te0  1  0.25000000  0.25000000  0.19912125  1
  Te  Te1  1  0.75000000  0.75000000  0.80087875  1
loop_
_geom_bond_atom_site_label_1
_geom_bond_atom_site_label_2
_geom_bond_distance
_geom_bond_site_symmetry_2
Cs0 Te0 3.928418 1_555
Cs0 Te1 3.963372 1_455
Cs0 Te1 3.963372 1_545
Cs0 Te1 3.963372 1_555
Cs0 Te1 3.963372 1_445
Cs1 Te1 3.928418 1_555
Cs1 Te0 3.963372 1_655
Cs1 Te0 3.963372 1_565
Cs1 Te0 3.963372 1_665
Cs1 Te0 3.963372 1_555
Na0 Te1 3.163730 1_554
Na0 Te1 3.163730 1_454
Na0 Te0 3.163730 1_555
Na0 Te0 3.163730 1_565
Na1 Te1 3.163730 1_544
Na1 Te0 3.163730 1_555
Na1 Te0 3.163730 1_655
Na1 Te1 3.163730 1_554
