# generated using pymatgen
data_Ba5P3ClO12
_symmetry_space_group_name_H-M   'P 1'
_cell_length_a   10.43919606
_cell_length_b   10.43919606
_cell_length_c   7.74703800
_cell_angle_alpha   90.00000000
_cell_angle_beta   90.00000000
_cell_angle_gamma   120.00000038
_symmetry_Int_Tables_number   1
_chemical_formula_structural   Ba5P3ClO12
_chemical_formula_sum   'Ba10 P6 Cl2 O24'
_cell_volume   731.13979840
_cell_formula_units_Z   2
loop_
 _symmetry_equiv_pos_site_id
 _symmetry_equiv_pos_as_xyz
  1  'x, y, z'
loop_
 _atom_site_type_symbol
 _atom_site_label
 _atom_site_symmetry_multiplicity
 _atom_site_fract_x
 _atom_site_fract_y
 _atom_site_fract_z
 _atom_site_occupancy
  Ba  Ba0  1  0.66666700  0.33333300  0.00012500  1
  Ba  Ba1  1  0.75327200  0.74033100  0.75000000  1
  Ba  Ba2  1  0.24672800  0.25966900  0.25000000  1
  Ba  Ba3  1  0.25966900  0.01294100  0.75000000  1
  Ba  Ba4  1  0.01294100  0.75327200  0.25000000  1
  Ba  Ba5  1  0.33333300  0.66666700  0.50012500  1
  Ba  Ba6  1  0.66666700  0.33333300  0.49987500  1
  Ba  Ba7  1  0.98705900  0.24672800  0.75000000  1
  Ba  Ba8  1  0.74033100  0.98705900  0.25000000  1
  Ba  Ba9  1  0.33333300  0.66666700  0.99987500  1
  P  P0  1  0.59353200  0.96504200  0.75000000  1
  P  P1  1  0.37151000  0.40646800  0.75000000  1
  P  P2  1  0.62849000  0.59353200  0.25000000  1
  P  P3  1  0.40646800  0.03495800  0.25000000  1
  P  P4  1  0.96504200  0.37151000  0.25000000  1
  P  P5  1  0.03495800  0.62849000  0.75000000  1
  Cl  Cl0  1  0.00000000  0.00000000  0.00000000  1
  Cl  Cl1  1  0.00000000  0.00000000  0.50000000  1
  O  O0  1  0.08533500  0.72921000  0.58668600  1
  O  O1  1  0.35612500  0.08533500  0.08668600  1
  O  O2  1  0.52240200  0.65856600  0.25000000  1
  O  O3  1  0.47759800  0.34143400  0.75000000  1
  O  O4  1  0.91466500  0.27079000  0.41331400  1
  O  O5  1  0.34143400  0.86383600  0.25000000  1
  O  O6  1  0.46308700  0.57968000  0.75000000  1
  O  O7  1  0.27079000  0.35612500  0.58668600  1
  O  O8  1  0.86383600  0.52240200  0.75000000  1
  O  O9  1  0.72921000  0.64387500  0.08668600  1
  O  O10  1  0.42032000  0.88340600  0.75000000  1
  O  O11  1  0.91466500  0.27079000  0.08668600  1
  O  O12  1  0.64387500  0.91466500  0.91331400  1
  O  O13  1  0.57968000  0.11659400  0.25000000  1
  O  O14  1  0.53691300  0.42032000  0.25000000  1
  O  O15  1  0.88340600  0.46308700  0.25000000  1
  O  O16  1  0.64387500  0.91466500  0.58668600  1
  O  O17  1  0.35612500  0.08533500  0.41331400  1
  O  O18  1  0.65856600  0.13616400  0.75000000  1
  O  O19  1  0.11659400  0.53691300  0.75000000  1
  O  O20  1  0.27079000  0.35612500  0.91331400  1
  O  O21  1  0.72921000  0.64387500  0.41331400  1
  O  O22  1  0.08533500  0.72921000  0.91331400  1
  O  O23  1  0.13616400  0.47759800  0.25000000  1
loop_
_geom_bond_atom_site_label_1
_geom_bond_atom_site_label_2
_geom_bond_distance
_geom_bond_site_symmetry_2
Ba0 O13 2.763434 1_555
Ba0 O15 2.763436 1_555
Ba0 O14 2.763448 1_555
Ba0 O18 2.797216 1_554
Ba0 O8 2.797219 1_554
Ba0 O3 2.797223 1_554
Ba0 O11 3.044447 1_555
Ba0 O1 3.044454 1_555
Ba0 O9 3.044457 1_555
Ba1 O6 2.628472 1_555
Ba1 O21 2.761773 1_555
Ba1 O9 2.761773 1_556
Ba1 O12 2.880166 1_555
Ba1 O16 2.880166 1_555
Ba1 O8 3.022189 1_555
Ba1 Cl1 3.278898 1_665
Ba1 Cl0 3.278898 1_666
Ba2 O14 2.628472 1_555
Ba2 O20 2.761773 1_554
Ba2 O7 2.761773 1_555
Ba2 O17 2.880166 1_555
Ba2 O1 2.880166 1_555
Ba2 O23 3.022189 1_555
Ba2 Cl1 3.278898 1_555
Ba2 Cl0 3.278898 1_555
Ba3 O10 2.628481 1_545
Ba3 O17 2.761773 1_555
Ba3 O1 2.761773 1_556
Ba3 O0 2.880166 1_545
Ba3 O22 2.880166 1_545
Ba3 O3 3.022189 1_555
Ba3 Cl1 3.278898 1_555
Ba3 Cl0 3.278898 1_556
Ba4 O15 2.628471 1_455
Ba4 O0 2.761773 1_555
Ba4 O22 2.761773 1_554
Ba4 O21 2.880166 1_455
Ba4 O9 2.880166 1_455
Ba4 O5 3.022189 1_555
Ba4 Cl0 3.278898 1_565
Ba4 Cl1 3.278898 1_565
Ba5 O10 2.763434 1_555
Ba5 O19 2.763436 1_555
Ba5 O6 2.763448 1_555
Ba5 O5 2.797216 1_555
Ba5 O23 2.797219 1_555
Ba5 O2 2.797223 1_555
Ba5 O0 3.044447 1_555
Ba5 O16 3.044454 1_555
Ba5 O7 3.044457 1_555
Ba6 O13 2.763434 1_555
Ba6 O15 2.763436 1_555
Ba6 O14 2.763448 1_555
Ba6 O18 2.797216 1_555
Ba6 O8 2.797219 1_555
Ba6 O3 2.797223 1_555
Ba6 O4 3.044447 1_555
Ba6 O17 3.044454 1_555
Ba6 O21 3.044457 1_555
Ba7 O19 2.628471 1_655
Ba7 O4 2.761773 1_555
Ba7 O11 2.761773 1_556
Ba7 O7 2.880166 1_655
Ba7 O20 2.880166 1_655
Ba7 O18 3.022189 1_555
Ba7 Cl1 3.278898 1_655
Ba7 Cl0 3.278898 1_656
Ba8 O13 2.628481 1_565
Ba8 O12 2.761773 1_554
Ba8 O16 2.761773 1_555
Ba8 O4 2.880166 1_565
Ba8 O11 2.880166 1_565
Ba8 O2 3.022189 1_555
Ba8 Cl0 3.278898 1_665
Ba8 Cl1 3.278898 1_665
Ba9 O10 2.763434 1_555
Ba9 O19 2.763436 1_555
Ba9 O6 2.763448 1_555
Ba9 O5 2.797216 1_556
Ba9 O23 2.797219 1_556
Ba9 O2 2.797223 1_556
Ba9 O22 3.044447 1_555
Ba9 O12 3.044454 1_555
Ba9 O20 3.044457 1_555
O0 P5 1.558804 1_555
O1 P3 1.558804 1_555
O2 P2 1.561817 1_555
O3 P1 1.561817 1_555
O4 P4 1.558804 1_555
O5 P3 1.561817 1_565
O6 P1 1.566802 1_555
O7 P1 1.558804 1_555
O8 P5 1.561817 1_655
O9 P2 1.558804 1_555
O10 P0 1.566801 1_555
O11 P4 1.558804 1_555
O12 P0 1.558804 1_555
O13 P3 1.566801 1_555
O14 P2 1.566802 1_555
O15 P4 1.566810 1_555
O16 P0 1.558804 1_555
O17 P3 1.558804 1_555
O18 P0 1.561817 1_545
O19 P5 1.566810 1_555
O20 P1 1.558804 1_555
O21 P2 1.558804 1_555
O22 P5 1.558804 1_555
O23 P4 1.561817 1_455
