# generated using pymatgen
data_YbCuAs2
_symmetry_space_group_name_H-M   'P 1'
_cell_length_a   3.83496737
_cell_length_b   3.83496737
_cell_length_c   9.78051233
_cell_angle_alpha   90.00000000
_cell_angle_beta   90.00000000
_cell_angle_gamma   90.00000000
_symmetry_Int_Tables_number   1
_chemical_formula_structural   YbCuAs2
_chemical_formula_sum   'Yb2 Cu2 As4'
_cell_volume   143.84174775
_cell_formula_units_Z   2
loop_
 _symmetry_equiv_pos_site_id
 _symmetry_equiv_pos_as_xyz
  1  'x, y, z'
loop_
 _atom_site_type_symbol
 _atom_site_label
 _atom_site_symmetry_multiplicity
 _atom_site_fract_x
 _atom_site_fract_y
 _atom_site_fract_z
 _atom_site_occupancy
  Yb  Yb0  1  0.50000000  0.00000000  0.23528614  1
  Yb  Yb1  1  0.00000000  0.50000000  0.76471386  1
  Cu  Cu0  1  0.00000000  0.00000000  0.50000000  1
  Cu  Cu1  1  0.50000000  0.50000000  0.50000000  1
  As  As0  1  0.00000000  0.00000000  0.00000000  1
  As  As1  1  0.50000000  0.50000000  0.00000000  1
  As  As2  1  0.00000000  0.50000000  0.33744204  1
  As  As3  1  0.50000000  0.00000000  0.66255796  1
loop_
_geom_bond_atom_site_label_1
_geom_bond_atom_site_label_2
_geom_bond_distance
_geom_bond_site_symmetry_2
As0 As1 2.711731 1_455
As0 As1 2.711731 1_545
As0 As1 2.711731 1_555
As0 As1 2.711731 1_445
As0 Yb0 2.995389 1_455
As0 Yb0 2.995389 1_555
As0 Yb1 2.995389 1_544
As0 Yb1 2.995389 1_554
As1 Yb0 2.995389 1_565
As1 Yb0 2.995389 1_555
As1 Yb1 2.995389 1_654
As1 Yb1 2.995389 1_554
As2 Cu0 2.490889 1_555
As2 Cu0 2.490889 1_565
As2 Cu1 2.490889 1_455
As2 Cu1 2.490889 1_555
As2 Yb0 2.889942 1_465
As2 Yb0 2.889942 1_555
As2 Yb0 2.889942 1_565
As2 Yb0 2.889942 1_455
As3 Cu0 2.490889 1_655
As3 Cu0 2.490889 1_555
As3 Cu1 2.490889 1_555
As3 Cu1 2.490889 1_545
As3 Yb1 2.889942 1_545
As3 Yb1 2.889942 1_645
As3 Yb1 2.889942 1_555
As3 Yb1 2.889942 1_655
