# generated using pymatgen
data_Li2MnSn3O8
_symmetry_space_group_name_H-M   'P 1'
_cell_length_a   10.78613105
_cell_length_b   10.78613105
_cell_length_c   10.07608700
_cell_angle_alpha   90.00000000
_cell_angle_beta   90.00000000
_cell_angle_gamma   119.99686596
_symmetry_Int_Tables_number   1
_chemical_formula_structural   Li2MnSn3O8
_chemical_formula_sum   'Li12 Mn6 Sn18 O48'
_cell_volume   1015.23747519
_cell_formula_units_Z   6
loop_
 _symmetry_equiv_pos_site_id
 _symmetry_equiv_pos_as_xyz
  1  'x, y, z'
loop_
 _atom_site_type_symbol
 _atom_site_label
 _atom_site_symmetry_multiplicity
 _atom_site_fract_x
 _atom_site_fract_y
 _atom_site_fract_z
 _atom_site_occupancy
  Li  Li0  1  0.98269800  0.98269800  0.71998400  1
  Li  Li1  1  0.01730200  0.01730200  0.21998400  1
  Li  Li2  1  0.66531800  0.16474900  0.99368200  1
  Li  Li3  1  0.33468200  0.83525100  0.49368200  1
  Li  Li4  1  0.30399800  0.66478000  0.22336800  1
  Li  Li5  1  0.83357800  0.83357800  0.49520100  1
  Li  Li6  1  0.83525100  0.33468200  0.49368200  1
  Li  Li7  1  0.33522000  0.69600200  0.72336800  1
  Li  Li8  1  0.16474900  0.66531800  0.99368200  1
  Li  Li9  1  0.69600200  0.33522000  0.72336800  1
  Li  Li10  1  0.66478000  0.30399800  0.22336800  1
  Li  Li11  1  0.16642200  0.16642200  0.99520100  1
  Mn  Mn0  1  0.00078600  0.66671900  0.31309600  1
  Mn  Mn1  1  0.66671900  0.00078600  0.31309600  1
  Mn  Mn2  1  0.66674700  0.66674700  0.81402300  1
  Mn  Mn3  1  0.33325300  0.33325300  0.31402300  1
  Mn  Mn4  1  0.99921400  0.33328100  0.81309600  1
  Mn  Mn5  1  0.33328100  0.99921400  0.81309600  1
  Sn  Sn0  1  0.32120600  0.49258800  0.99967500  1
  Sn  Sn1  1  0.49258800  0.32120600  0.99967500  1
  Sn  Sn2  1  0.32992000  0.32992000  0.72057300  1
  Sn  Sn3  1  0.67008000  0.67008000  0.22057300  1
  Sn  Sn4  1  0.50741200  0.67879400  0.49967500  1
  Sn  Sn5  1  0.16066300  0.98657600  0.50015700  1
  Sn  Sn6  1  0.50444600  0.16182400  0.50213800  1
  Sn  Sn7  1  0.67879400  0.50741200  0.49967500  1
  Sn  Sn8  1  0.33299300  0.99724200  0.22117100  1
  Sn  Sn9  1  0.99724200  0.33299300  0.22117100  1
  Sn  Sn10  1  0.98657600  0.16066300  0.50015700  1
  Sn  Sn11  1  0.83933700  0.01342400  0.00015700  1
  Sn  Sn12  1  0.16182400  0.50444600  0.50213800  1
  Sn  Sn13  1  0.49555400  0.83817600  0.00213800  1
  Sn  Sn14  1  0.83817600  0.49555400  0.00213800  1
  Sn  Sn15  1  0.66700700  0.00275800  0.72117100  1
  Sn  Sn16  1  0.00275800  0.66700700  0.72117100  1
  Sn  Sn17  1  0.01342400  0.83933700  0.00015700  1
  O  O0  1  0.85135700  0.67000200  0.87514500  1
  O  O1  1  0.33314500  0.00457400  0.60591800  1
  O  O2  1  0.18360600  0.85417400  0.36486500  1
  O  O3  1  0.66128900  0.66128900  0.60879400  1
  O  O4  1  0.48783200  0.01290100  0.36311200  1
  O  O5  1  0.65924700  0.81049700  0.36100200  1
  O  O6  1  0.66444200  0.49679000  0.11272900  1
  O  O7  1  0.99662200  0.16534000  0.11948600  1
  O  O8  1  0.66337300  0.33376600  0.40428900  1
  O  O9  1  0.00302500  0.00302500  0.40333500  1
  O  O10  1  0.66685500  0.99542600  0.10591800  1
  O  O11  1  0.33376600  0.66337300  0.40428900  1
  O  O12  1  0.34075300  0.18950300  0.86100200  1
  O  O13  1  0.83090000  0.50498100  0.61983000  1
  O  O14  1  0.67000200  0.85135700  0.87514500  1
  O  O15  1  0.83466000  0.00337800  0.61948600  1
  O  O16  1  0.81639400  0.14582600  0.86486500  1
  O  O17  1  0.33555800  0.50321000  0.61272900  1
  O  O18  1  0.66623400  0.33662700  0.90428900  1
  O  O19  1  0.00457400  0.33314500  0.60591800  1
  O  O20  1  0.98709900  0.51216800  0.86311200  1
  O  O21  1  0.32999800  0.14864300  0.37514500  1
  O  O22  1  0.85417400  0.18360600  0.36486500  1
  O  O23  1  0.18950300  0.34075300  0.86100200  1
  O  O24  1  0.01290100  0.48783200  0.36311200  1
  O  O25  1  0.50321000  0.33555800  0.61272900  1
  O  O26  1  0.99697500  0.99697500  0.90333500  1
  O  O27  1  0.00337800  0.83466000  0.61948600  1
  O  O28  1  0.81049700  0.65924700  0.36100200  1
  O  O29  1  0.51216800  0.98709900  0.86311200  1
  O  O30  1  0.66124300  0.16666100  0.62213000  1
  O  O31  1  0.33662700  0.66623400  0.90428900  1
  O  O32  1  0.50498100  0.83090000  0.61983000  1
  O  O33  1  0.84097600  0.84097600  0.11694800  1
  O  O34  1  0.51896400  0.51896400  0.37055300  1
  O  O35  1  0.49679000  0.66444200  0.11272900  1
  O  O36  1  0.16534000  0.99662200  0.11948600  1
  O  O37  1  0.33875700  0.83333900  0.12213000  1
  O  O38  1  0.14864300  0.32999800  0.37514500  1
  O  O39  1  0.99542600  0.66685500  0.10591800  1
  O  O40  1  0.83333900  0.33875700  0.12213000  1
  O  O41  1  0.48103600  0.48103600  0.87055300  1
  O  O42  1  0.33871100  0.33871100  0.10879400  1
  O  O43  1  0.16666100  0.66124300  0.62213000  1
  O  O44  1  0.14582600  0.81639400  0.86486500  1
  O  O45  1  0.49501900  0.16910000  0.11983000  1
  O  O46  1  0.16910000  0.49501900  0.11983000  1
  O  O47  1  0.15902400  0.15902400  0.61694800  1
loop_
_geom_bond_atom_site_label_1
_geom_bond_atom_site_label_2
_geom_bond_distance
_geom_bond_site_symmetry_2
Li0 O26 1.853868 1_555
Li0 O15 1.995228 1_565
Li0 O27 1.995228 1_655
Li0 O47 2.166871 1_665
Li1 O9 1.853868 1_555
Li1 O7 1.995228 1_455
Li1 O36 1.995228 1_545
Li1 O33 2.166871 1_445
Li2 O18 2.056706 1_555
Li2 O10 2.155227 1_546
Li2 O16 2.171245 1_555
Li2 O29 2.228524 1_545
Li2 O45 2.253469 1_556
Li2 O40 2.254115 1_556
Li3 O11 2.056706 1_555
Li3 O1 2.155227 1_565
Li3 O2 2.171245 1_555
Li3 O4 2.228524 1_565
Li3 O32 2.253469 1_555
Li3 O43 2.254115 1_555
Li4 O11 1.852414 1_555
Li4 O37 1.950653 1_555
Li4 O46 1.973396 1_555
Li4 O35 2.361065 1_555
Li5 O9 2.048792 1_665
Li5 O3 2.182607 1_555
Li5 O27 2.213904 1_655
Li5 O15 2.213904 1_565
Li5 O5 2.226677 1_555
Li5 O28 2.226677 1_555
Li6 O8 2.056706 1_555
Li6 O19 2.155227 1_655
Li6 O22 2.171245 1_555
Li6 O24 2.228524 1_655
Li6 O13 2.253469 1_555
Li6 O30 2.254115 1_555
Li7 O31 1.852414 1_555
Li7 O43 1.950653 1_555
Li7 O32 1.973396 1_555
Li7 O17 2.361065 1_555
Li8 O31 2.056706 1_555
Li8 O39 2.155227 1_456
Li8 O44 2.171245 1_555
Li8 O20 2.228524 1_455
Li8 O46 2.253469 1_556
Li8 O37 2.254115 1_556
Li9 O18 1.852414 1_555
Li9 O30 1.950653 1_555
Li9 O13 1.973396 1_555
Li9 O25 2.361065 1_555
Li10 O8 1.852414 1_555
Li10 O40 1.950653 1_555
Li10 O45 1.973396 1_555
Li10 O6 2.361065 1_555
Li11 O26 2.048792 1_445
Li11 O42 2.182607 1_556
Li11 O36 2.213904 1_546
Li11 O7 2.213904 1_456
Li11 O23 2.226677 1_555
Li11 O12 2.226677 1_555
Mn0 O24 2.060615 1_555
Mn0 O2 2.064468 1_555
Mn0 O28 2.070454 1_455
Mn0 O39 2.088365 1_455
Mn1 O4 2.060615 1_555
Mn1 O22 2.064468 1_555
Mn1 O5 2.070454 1_545
Mn1 O10 2.088365 1_545
Mn2 O0 2.067756 1_555
Mn2 O14 2.067756 1_555
Mn2 O3 2.068743 1_555
Mn2 O41 2.082606 1_555
Mn3 O21 2.067756 1_555
Mn3 O38 2.067756 1_555
Mn3 O42 2.068743 1_555
Mn3 O34 2.082606 1_555
Mn4 O20 2.060615 1_555
Mn4 O16 2.064468 1_555
Mn4 O23 2.070454 1_655
Mn4 O19 2.088365 1_655
Mn5 O29 2.060615 1_555
Mn5 O44 2.064468 1_555
Mn5 O12 2.070454 1_565
Mn5 O1 2.088365 1_565
O0 Sn17 2.187676 1_656
O0 Sn14 2.220489 1_556
O0 Sn16 2.264420 1_655
O1 Sn6 2.061704 1_555
O1 Sn5 2.067202 1_545
O2 Sn5 2.076644 1_555
O2 Sn8 2.141894 1_555
O3 Sn4 2.076682 1_555
O3 Sn7 2.076682 1_555
O4 Sn6 2.070470 1_555
O4 Sn8 2.140386 1_545
O5 Sn4 2.079963 1_555
O5 Sn3 2.118169 1_555
O6 Sn3 2.136465 1_555
O6 Sn14 2.185965 1_555
O6 Sn1 2.193206 1_554
O7 Sn11 2.056493 1_555
O7 Sn9 2.075519 1_555
O8 Sn7 2.036644 1_555
O8 Sn6 2.042358 1_555
O9 Sn10 2.043508 1_455
O9 Sn5 2.043508 1_545
O10 Sn13 2.061704 1_555
O10 Sn11 2.067202 1_565
O11 Sn4 2.036644 1_555
O11 Sn12 2.042358 1_555
O12 Sn1 2.079963 1_555
O12 Sn2 2.118169 1_555
O13 Sn7 2.049674 1_555
O13 Sn16 2.072149 1_655
O14 Sn11 2.187676 1_566
O14 Sn13 2.220489 1_556
O14 Sn15 2.264420 1_565
O15 Sn10 2.056493 1_555
O15 Sn15 2.075519 1_555
O16 Sn11 2.076644 1_556
O16 Sn15 2.141894 1_555
O17 Sn2 2.136465 1_555
O17 Sn12 2.185965 1_555
O17 Sn4 2.193206 1_555
O18 Sn1 2.036644 1_555
O18 Sn14 2.042358 1_556
O19 Sn12 2.061704 1_555
O19 Sn10 2.067202 1_455
O20 Sn14 2.070470 1_556
O20 Sn16 2.140386 1_655
O21 Sn5 2.187676 1_545
O21 Sn6 2.220489 1_555
O21 Sn8 2.264420 1_545
O22 Sn10 2.076644 1_555
O22 Sn9 2.141894 1_555
O23 Sn0 2.079963 1_555
O23 Sn2 2.118169 1_555
O24 Sn12 2.070470 1_555
O24 Sn9 2.140386 1_455
O25 Sn2 2.136465 1_555
O25 Sn6 2.185965 1_555
O25 Sn7 2.193206 1_555
O26 Sn17 2.043508 1_656
O26 Sn11 2.043508 1_566
O27 Sn5 2.056493 1_555
O27 Sn16 2.075519 1_555
O28 Sn7 2.079963 1_555
O28 Sn3 2.118169 1_555
O29 Sn13 2.070470 1_556
O29 Sn15 2.140386 1_565
O30 Sn15 2.057926 1_555
O30 Sn6 2.058292 1_555
O31 Sn0 2.036644 1_555
O31 Sn13 2.042358 1_556
O32 Sn4 2.049674 1_555
O32 Sn15 2.072149 1_565
O33 Sn3 2.118565 1_555
O33 Sn17 2.208578 1_655
O33 Sn11 2.208578 1_565
O34 Sn7 2.212470 1_555
O34 Sn4 2.212470 1_555
O34 Sn3 2.222785 1_555
O35 Sn3 2.136465 1_555
O35 Sn13 2.185965 1_555
O35 Sn0 2.193206 1_554
O36 Sn17 2.056493 1_555
O36 Sn8 2.075519 1_555
O37 Sn8 2.057926 1_555
O37 Sn13 2.058292 1_555
O38 Sn10 2.187676 1_455
O38 Sn12 2.220489 1_555
O38 Sn9 2.264420 1_455
O39 Sn14 2.061704 1_555
O39 Sn17 2.067202 1_655
O40 Sn9 2.057926 1_555
O40 Sn14 2.058292 1_555
O41 Sn1 2.212470 1_555
O41 Sn0 2.212470 1_555
O41 Sn2 2.222785 1_555
O42 Sn1 2.076682 1_554
O42 Sn0 2.076682 1_554
O43 Sn16 2.057926 1_555
O43 Sn12 2.058292 1_555
O44 Sn17 2.076644 1_556
O44 Sn16 2.141894 1_555
O45 Sn1 2.049674 1_554
O45 Sn8 2.072149 1_545
O46 Sn0 2.049674 1_554
O46 Sn9 2.072149 1_455
O47 Sn2 2.118565 1_555
O47 Sn10 2.208578 1_455
O47 Sn5 2.208578 1_545
