# generated using pymatgen
data_Fe2(SO4)3
_symmetry_space_group_name_H-M   'P 1'
_cell_length_a   8.66209100
_cell_length_b   8.44665100
_cell_length_c   14.49231209
_cell_angle_alpha   54.95902220
_cell_angle_beta   90.00000000
_cell_angle_gamma   90.00000000
_symmetry_Int_Tables_number   1
_chemical_formula_structural   Fe2(SO4)3
_chemical_formula_sum   'Fe8 S12 O48'
_cell_volume   868.14413428
_cell_formula_units_Z   4
loop_
 _symmetry_equiv_pos_site_id
 _symmetry_equiv_pos_as_xyz
  1  'x, y, z'
loop_
 _atom_site_type_symbol
 _atom_site_label
 _atom_site_symmetry_multiplicity
 _atom_site_fract_x
 _atom_site_fract_y
 _atom_site_fract_z
 _atom_site_occupancy
  Fe  Fe0  1  0.46707200  0.86605100  0.38463400  1
  Fe  Fe1  1  0.96707200  0.13394900  0.11536600  1
  Fe  Fe2  1  0.53292800  0.13394900  0.61536600  1
  Fe  Fe3  1  0.03292800  0.86605100  0.88463400  1
  Fe  Fe4  1  0.03443100  0.63243400  0.61467900  1
  Fe  Fe5  1  0.53443100  0.36756600  0.88532100  1
  Fe  Fe6  1  0.96556900  0.36756600  0.38532100  1
  Fe  Fe7  1  0.46556900  0.63243400  0.11467900  1
  S  S0  1  0.25210400  0.45889200  0.50391300  1
  S  S1  1  0.75210400  0.54110800  0.99608700  1
  S  S2  1  0.74789600  0.54110800  0.49608700  1
  S  S3  1  0.24789600  0.45889200  0.00391300  1
  S  S4  1  0.38151000  0.74533800  0.65032400  1
  S  S5  1  0.88151000  0.25466200  0.84967600  1
  S  S6  1  0.61849000  0.25466200  0.34967600  1
  S  S7  1  0.11849000  0.74533800  0.15032400  1
  S  S8  1  0.11529500  0.03773900  0.35398700  1
  S  S9  1  0.61529500  0.96226100  0.14601300  1
  S  S10  1  0.88470500  0.96226100  0.64601300  1
  S  S11  1  0.38470500  0.03773900  0.85398700  1
  O  O0  1  0.12784900  0.48351700  0.42644900  1
  O  O1  1  0.62784900  0.51648300  0.07355100  1
  O  O2  1  0.87215100  0.51648300  0.57355100  1
  O  O3  1  0.37215100  0.48351700  0.92644900  1
  O  O4  1  0.18914600  0.46359400  0.59760800  1
  O  O5  1  0.68914600  0.53640600  0.90239200  1
  O  O6  1  0.81085400  0.53640600  0.40239200  1
  O  O7  1  0.31085400  0.46359400  0.09760800  1
  O  O8  1  0.32824100  0.27021000  0.55123000  1
  O  O9  1  0.82824100  0.72979000  0.94877000  1
  O  O10  1  0.67175900  0.72979000  0.44877000  1
  O  O11  1  0.17175900  0.27021000  0.05123000  1
  O  O12  1  0.36432600  0.61730400  0.43625700  1
  O  O13  1  0.86432600  0.38269600  0.06374300  1
  O  O14  1  0.63567400  0.38269600  0.56374300  1
  O  O15  1  0.13567400  0.61730400  0.93625700  1
  O  O16  1  0.47846100  0.56999700  0.72093100  1
  O  O17  1  0.97846100  0.43000300  0.77906900  1
  O  O18  1  0.52153900  0.43000300  0.27906900  1
  O  O19  1  0.02153900  0.56999700  0.22093100  1
  O  O20  1  0.41640800  0.88698300  0.67660100  1
  O  O21  1  0.91640800  0.11301700  0.82339900  1
  O  O22  1  0.58359200  0.11301700  0.32339900  1
  O  O23  1  0.08359200  0.88698300  0.17660100  1
  O  O24  1  0.41361100  0.83126800  0.53034000  1
  O  O25  1  0.91361100  0.16873200  0.96966000  1
  O  O26  1  0.58638900  0.16873200  0.46966000  1
  O  O27  1  0.08638900  0.83126800  0.03034000  1
  O  O28  1  0.21459200  0.69734600  0.67426900  1
  O  O29  1  0.71459200  0.30265400  0.82573100  1
  O  O30  1  0.78540800  0.30265400  0.32573100  1
  O  O31  1  0.28540800  0.69734600  0.17426900  1
  O  O32  1  0.00502100  0.10461600  0.26052200  1
  O  O33  1  0.50502100  0.89538400  0.23947800  1
  O  O34  1  0.99497900  0.89538400  0.73947800  1
  O  O35  1  0.49497900  0.10461600  0.76052200  1
  O  O36  1  0.06889700  0.84156800  0.45038200  1
  O  O37  1  0.56889700  0.15843200  0.04961800  1
  O  O38  1  0.93110300  0.15843200  0.54961800  1
  O  O39  1  0.43110300  0.84156800  0.95038200  1
  O  O40  1  0.11253300  0.17617800  0.38613200  1
  O  O41  1  0.61253300  0.82382200  0.11386800  1
  O  O42  1  0.88746700  0.82382200  0.61386800  1
  O  O43  1  0.38746700  0.17617800  0.88613200  1
  O  O44  1  0.27305400  0.02965900  0.31727100  1
  O  O45  1  0.77305400  0.97034100  0.18272900  1
  O  O46  1  0.72694600  0.97034100  0.68272900  1
  O  O47  1  0.22694600  0.02965900  0.81727100  1
loop_
_geom_bond_atom_site_label_1
_geom_bond_atom_site_label_2
_geom_bond_distance
_geom_bond_site_symmetry_2
Fe0 O12 1.990299 1_555
Fe0 O33 1.999062 1_555
Fe0 O22 2.007980 1_565
Fe0 O24 2.011785 1_555
Fe0 O10 2.025771 1_555
Fe0 O44 2.034211 1_565
Fe1 O13 1.990299 1_555
Fe1 O32 1.999062 1_655
Fe1 O23 2.007980 1_645
Fe1 O25 2.011785 1_554
Fe1 O11 2.025771 1_655
Fe1 O45 2.034211 1_545
Fe2 O14 1.990299 1_555
Fe2 O35 1.999062 1_555
Fe2 O20 2.007980 1_545
Fe2 O26 2.011785 1_555
Fe2 O8 2.025771 1_555
Fe2 O46 2.034211 1_545
Fe3 O15 1.990299 1_555
Fe3 O34 1.999062 1_455
Fe3 O21 2.007980 1_465
Fe3 O27 2.011785 1_556
Fe3 O9 2.025771 1_455
Fe3 O47 2.034211 1_565
Fe4 O2 1.990170 1_455
Fe4 O28 2.006373 1_555
Fe4 O36 2.012219 1_555
Fe4 O17 2.038798 1_455
Fe4 O42 2.052375 1_455
Fe4 O4 2.072735 1_555
Fe5 O3 1.990170 1_555
Fe5 O29 2.006373 1_555
Fe5 O37 2.012219 1_556
Fe5 O16 2.038798 1_555
Fe5 O43 2.052375 1_555
Fe5 O5 2.072735 1_555
Fe6 O0 1.990170 1_655
Fe6 O30 2.006373 1_555
Fe6 O38 2.012219 1_555
Fe6 O19 2.038798 1_655
Fe6 O40 2.052375 1_655
Fe6 O6 2.072735 1_555
Fe7 O1 1.990170 1_555
Fe7 O31 2.006373 1_555
Fe7 O39 2.012219 1_554
Fe7 O18 2.038798 1_555
Fe7 O41 2.052375 1_555
Fe7 O7 2.072735 1_555
O0 S0 1.481170 1_555
O1 S1 1.481170 1_554
O2 S2 1.481170 1_555
O3 S3 1.481170 1_556
O4 S0 1.484818 1_555
O5 S1 1.484818 1_555
O6 S2 1.484818 1_555
O7 S3 1.484818 1_555
O8 S0 1.479926 1_555
O9 S1 1.479926 1_555
O10 S2 1.479926 1_555
O11 S3 1.479926 1_555
O12 S0 1.479911 1_555
O13 S1 1.479911 1_554
O14 S2 1.479911 1_555
O15 S3 1.479911 1_556
O16 S4 1.485105 1_555
O17 S5 1.485105 1_555
O18 S6 1.485105 1_555
O19 S7 1.485105 1_555
O20 S4 1.480212 1_555
O21 S5 1.480212 1_555
O22 S6 1.480212 1_555
O23 S7 1.480212 1_555
O24 S4 1.475950 1_555
O25 S5 1.475950 1_555
O26 S6 1.475950 1_555
O27 S7 1.475950 1_555
O28 S4 1.487857 1_555
O29 S5 1.487857 1_555
O30 S6 1.487857 1_555
O31 S7 1.487857 1_555
O32 S8 1.479055 1_555
O33 S9 1.479055 1_555
O34 S10 1.479055 1_555
O35 S11 1.479055 1_555
O36 S8 1.483434 1_565
O37 S9 1.483434 1_545
O38 S10 1.483434 1_545
O39 S11 1.483434 1_565
O40 S8 1.486778 1_555
O41 S9 1.486778 1_555
O42 S10 1.486778 1_555
O43 S11 1.486778 1_555
O44 S8 1.482186 1_555
O45 S9 1.482186 1_555
O46 S10 1.482186 1_555
O47 S11 1.482186 1_555
