# generated using pymatgen
data_Ba3DyRu2O9
_symmetry_space_group_name_H-M   'P 1'
_cell_length_a   5.95863451
_cell_length_b   5.95863451
_cell_length_c   14.59855900
_cell_angle_alpha   90.00000000
_cell_angle_beta   90.00000000
_cell_angle_gamma   120.00000562
_symmetry_Int_Tables_number   1
_chemical_formula_structural   Ba3DyRu2O9
_chemical_formula_sum   'Ba6 Dy2 Ru4 O18'
_cell_volume   448.88396412
_cell_formula_units_Z   2
loop_
 _symmetry_equiv_pos_site_id
 _symmetry_equiv_pos_as_xyz
  1  'x, y, z'
loop_
 _atom_site_type_symbol
 _atom_site_label
 _atom_site_symmetry_multiplicity
 _atom_site_fract_x
 _atom_site_fract_y
 _atom_site_fract_z
 _atom_site_occupancy
  Ba  Ba0  1  0.00000000  0.00000000  0.25000000  1
  Ba  Ba1  1  0.00000000  0.00000000  0.75000000  1
  Ba  Ba2  1  0.33333300  0.66666700  0.90534900  1
  Ba  Ba3  1  0.66666700  0.33333300  0.40534900  1
  Ba  Ba4  1  0.66666700  0.33333300  0.09465100  1
  Ba  Ba5  1  0.33333300  0.66666700  0.59465100  1
  Dy  Dy0  1  0.00000000  0.00000000  0.00000000  1
  Dy  Dy1  1  0.00000000  0.00000000  0.50000000  1
  Ru  Ru0  1  0.33333300  0.66666700  0.16442300  1
  Ru  Ru1  1  0.66666700  0.33333300  0.66442300  1
  Ru  Ru2  1  0.66666700  0.33333300  0.83557700  1
  Ru  Ru3  1  0.33333300  0.66666700  0.33557700  1
  O  O0  1  0.49037100  0.98074300  0.25000000  1
  O  O1  1  0.50962900  0.49037100  0.75000000  1
  O  O2  1  0.98074300  0.49037100  0.75000000  1
  O  O3  1  0.01925700  0.50962900  0.25000000  1
  O  O4  1  0.49037100  0.50962900  0.25000000  1
  O  O5  1  0.50962900  0.01925700  0.75000000  1
  O  O6  1  0.17613100  0.35226200  0.41182600  1
  O  O7  1  0.82386900  0.17613100  0.91182600  1
  O  O8  1  0.35226200  0.17613100  0.91182600  1
  O  O9  1  0.64773800  0.82386900  0.41182600  1
  O  O10  1  0.17613100  0.82386900  0.41182600  1
  O  O11  1  0.82386900  0.64773800  0.58817400  1
  O  O12  1  0.82386900  0.17613100  0.58817400  1
  O  O13  1  0.82386900  0.64773800  0.91182600  1
  O  O14  1  0.35226200  0.17613100  0.58817400  1
  O  O15  1  0.64773800  0.82386900  0.08817400  1
  O  O16  1  0.17613100  0.35226200  0.08817400  1
  O  O17  1  0.17613100  0.82386900  0.08817400  1
loop_
_geom_bond_atom_site_label_1
_geom_bond_atom_site_label_2
_geom_bond_distance
_geom_bond_site_symmetry_2
Ba0 O6 2.980841 1_555
Ba0 O9 2.980841 1_445
Ba0 O16 2.980841 1_555
Ba0 O15 2.980841 1_445
Ba0 O10 2.980841 1_545
Ba0 O17 2.980841 1_545
Ba0 O3 2.980971 1_545
Ba0 O0 2.980971 1_545
Ba0 O4 2.980974 1_445
Ba0 O4 2.980974 1_555
Ba0 O0 2.980977 1_445
Ba0 O3 2.980977 1_555
Ba1 O8 2.980841 1_555
Ba1 O13 2.980841 1_445
Ba1 O14 2.980841 1_555
Ba1 O11 2.980841 1_445
Ba1 O7 2.980841 1_455
Ba1 O12 2.980841 1_455
Ba1 O5 2.980971 1_455
Ba1 O2 2.980971 1_455
Ba1 O1 2.980974 1_555
Ba1 O1 2.980974 1_445
Ba1 O2 2.980977 1_445
Ba1 O5 2.980977 1_555
Ba2 O5 2.907533 1_565
Ba2 O2 2.907533 1_455
Ba2 O1 2.907540 1_555
Ba2 O8 2.982414 1_565
Ba2 O13 2.982414 1_455
Ba2 O7 2.982417 1_565
Ba2 O7 2.982417 1_455
Ba2 O8 2.982420 1_555
Ba2 O13 2.982420 1_555
Ba2 O17 3.123417 1_556
Ba2 O15 3.123420 1_556
Ba2 O16 3.123420 1_556
Ba3 O3 2.907533 1_655
Ba3 O0 2.907533 1_545
Ba3 O4 2.907540 1_555
Ba3 O6 2.982414 1_655
Ba3 O9 2.982414 1_545
Ba3 O10 2.982417 1_655
Ba3 O10 2.982417 1_545
Ba3 O6 2.982420 1_555
Ba3 O9 2.982420 1_555
Ba3 O12 3.123417 1_555
Ba3 O11 3.123420 1_555
Ba3 O14 3.123420 1_555
Ba4 O3 2.907533 1_655
Ba4 O0 2.907533 1_545
Ba4 O4 2.907540 1_555
Ba4 O16 2.982414 1_655
Ba4 O15 2.982414 1_545
Ba4 O17 2.982417 1_655
Ba4 O17 2.982417 1_545
Ba4 O16 2.982420 1_555
Ba4 O15 2.982420 1_555
Ba4 O7 3.123417 1_554
Ba4 O13 3.123420 1_554
Ba4 O8 3.123420 1_554
Ba5 O5 2.907533 1_565
Ba5 O2 2.907533 1_455
Ba5 O1 2.907540 1_555
Ba5 O14 2.982414 1_565
Ba5 O11 2.982414 1_455
Ba5 O12 2.982417 1_565
Ba5 O12 2.982417 1_455
Ba5 O11 2.982420 1_555
Ba5 O14 2.982420 1_555
Ba5 O10 3.123417 1_555
Ba5 O9 3.123420 1_555
Ba5 O6 3.123420 1_555
Dy0 O16 2.227391 1_555
Dy0 O15 2.227391 1_445
Dy0 O8 2.227391 1_554
Dy0 O13 2.227391 1_444
Dy0 O17 2.227391 1_545
Dy0 O7 2.227391 1_454
Dy1 O14 2.227391 1_555
Dy1 O6 2.227391 1_555
Dy1 O11 2.227391 1_445
Dy1 O9 2.227391 1_445
Dy1 O12 2.227391 1_455
Dy1 O10 2.227391 1_545
O0 Ru3 2.046347 1_555
O0 Ru0 2.046347 1_555
O1 Ru1 2.046347 1_555
O1 Ru2 2.046347 1_555
O2 Ru2 2.046347 1_555
O2 Ru1 2.046347 1_555
O3 Ru3 2.046347 1_555
O3 Ru0 2.046347 1_555
O4 Ru3 2.046347 1_555
O4 Ru0 2.046347 1_555
O5 Ru2 2.046347 1_555
O5 Ru1 2.046347 1_555
O6 Ru3 1.967571 1_555
O7 Ru2 1.967567 1_555
O8 Ru2 1.967571 1_555
O9 Ru3 1.967571 1_555
O10 Ru3 1.967567 1_555
O11 Ru1 1.967571 1_555
O12 Ru1 1.967567 1_555
O13 Ru2 1.967571 1_555
O14 Ru1 1.967571 1_555
O15 Ru0 1.967571 1_555
O16 Ru0 1.967571 1_555
O17 Ru0 1.967567 1_555
