# generated using pymatgen
data_BaNa2(SiO3)2
_symmetry_space_group_name_H-M   'P 1'
_cell_length_a   4.82902000
_cell_length_b   5.77667200
_cell_length_c   11.55995683
_cell_angle_alpha   88.55860591
_cell_angle_beta   90.00000000
_cell_angle_gamma   90.00000000
_symmetry_Int_Tables_number   1
_chemical_formula_structural   BaNa2(SiO3)2
_chemical_formula_sum   'Ba2 Na4 Si4 O12'
_cell_volume   322.37064117
_cell_formula_units_Z   2
loop_
 _symmetry_equiv_pos_site_id
 _symmetry_equiv_pos_as_xyz
  1  'x, y, z'
loop_
 _atom_site_type_symbol
 _atom_site_label
 _atom_site_symmetry_multiplicity
 _atom_site_fract_x
 _atom_site_fract_y
 _atom_site_fract_z
 _atom_site_occupancy
  Ba  Ba0  1  0.74492600  0.25260300  0.90310500  1
  Ba  Ba1  1  0.24492600  0.74739700  0.09689500  1
  Na  Na0  1  0.75716800  0.18531200  0.51235600  1
  Na  Na1  1  0.75428300  0.70768300  0.32325500  1
  Na  Na2  1  0.25716800  0.81468800  0.48764400  1
  Na  Na3  1  0.25428300  0.29231700  0.67674500  1
  Si  Si0  1  0.80213500  0.22389600  0.19330600  1
  Si  Si1  1  0.29591900  0.32271600  0.34556600  1
  Si  Si2  1  0.30213500  0.77610400  0.80669400  1
  Si  Si3  1  0.79591900  0.67728400  0.65443400  1
  O  O0  1  0.75546600  0.40031500  0.67740700  1
  O  O1  1  0.12806000  0.75035600  0.68188400  1
  O  O2  1  0.73454500  0.77703400  0.52521100  1
  O  O3  1  0.77112800  0.46067100  0.11623000  1
  O  O4  1  0.72916700  0.99078200  0.12432800  1
  O  O5  1  0.62620300  0.81924800  0.75788600  1
  O  O6  1  0.22916700  0.00921800  0.87567200  1
  O  O7  1  0.25546600  0.59968500  0.32259300  1
  O  O8  1  0.23454500  0.22296600  0.47478900  1
  O  O9  1  0.12620300  0.18075200  0.24211400  1
  O  O10  1  0.62806000  0.24964400  0.31811600  1
  O  O11  1  0.27112800  0.53932900  0.88377000  1
loop_
_geom_bond_atom_site_label_1
_geom_bond_atom_site_label_2
_geom_bond_distance
_geom_bond_site_symmetry_2
Ba0 O0 2.725045 1_555
Ba0 O6 2.750976 1_655
Ba0 O3 2.771199 1_556
Ba0 O11 2.830122 1_555
Ba0 O6 2.881467 1_555
Ba0 O4 2.939158 1_546
Ba0 O11 3.038358 1_655
Ba0 O5 3.102417 1_545
Ba1 O7 2.725045 1_555
Ba1 O4 2.750976 1_555
Ba1 O11 2.771199 1_554
Ba1 O3 2.830122 1_455
Ba1 O4 2.881467 1_455
Ba1 O6 2.939158 1_564
Ba1 O3 3.038358 1_555
Ba1 O9 3.102417 1_565
Na0 O0 2.302662 1_555
Na0 O10 2.350890 1_555
Na0 O8 2.354865 1_655
Na0 O2 2.361959 1_545
Na0 O8 2.569144 1_555
Na1 O2 2.380547 1_555
Na1 O7 2.488336 1_555
Na1 O7 2.499398 1_655
Na1 O10 2.717347 1_555
Na1 O4 2.790708 1_555
Na1 O3 2.818135 1_555
Na2 O7 2.302662 1_555
Na2 O1 2.350890 1_555
Na2 O2 2.354865 1_555
Na2 O8 2.361959 1_565
Na2 O2 2.569144 1_455
Na3 O8 2.380547 1_555
Na3 O0 2.488336 1_455
Na3 O0 2.499398 1_555
Na3 O1 2.717347 1_555
Na3 O6 2.790708 1_555
Na3 O11 2.818135 1_555
O0 Si3 1.627016 1_555
O1 Si2 1.679647 1_555
O1 Si3 1.690608 1_455
O2 Si3 1.614944 1_555
O3 Si0 1.620426 1_555
O4 Si0 1.620924 1_565
O5 Si2 1.679997 1_555
O5 Si3 1.680396 1_555
O6 Si2 1.620924 1_545
O7 Si1 1.627016 1_555
O8 Si1 1.614944 1_555
O9 Si0 1.679997 1_455
O9 Si1 1.680396 1_555
O10 Si0 1.679647 1_555
O10 Si1 1.690608 1_555
O11 Si2 1.620426 1_555
