# generated using pymatgen
data_KZrCuF7
_symmetry_space_group_name_H-M   'P 1'
_cell_length_a   7.76076657
_cell_length_b   7.76076657
_cell_length_c   10.21719600
_cell_angle_alpha   90.00000000
_cell_angle_beta   90.00000000
_cell_angle_gamma   113.34405877
_symmetry_Int_Tables_number   1
_chemical_formula_structural   KZrCuF7
_chemical_formula_sum   'K4 Zr4 Cu4 F28'
_cell_volume   565.00305394
_cell_formula_units_Z   4
loop_
 _symmetry_equiv_pos_site_id
 _symmetry_equiv_pos_as_xyz
  1  'x, y, z'
loop_
 _atom_site_type_symbol
 _atom_site_label
 _atom_site_symmetry_multiplicity
 _atom_site_fract_x
 _atom_site_fract_y
 _atom_site_fract_z
 _atom_site_occupancy
  K  K0  1  0.63718100  0.84704200  0.25000000  1
  K  K1  1  0.15295800  0.36281900  0.25000000  1
  K  K2  1  0.84704200  0.63718100  0.75000000  1
  K  K3  1  0.36281900  0.15295800  0.75000000  1
  Zr  Zr0  1  0.13379200  0.86620800  0.43110800  1
  Zr  Zr1  1  0.13379200  0.86620800  0.06889200  1
  Zr  Zr2  1  0.86620800  0.13379200  0.93110800  1
  Zr  Zr3  1  0.86620800  0.13379200  0.56889200  1
  Cu  Cu0  1  0.63393100  0.36606900  0.06993100  1
  Cu  Cu1  1  0.36606900  0.63393100  0.56993100  1
  Cu  Cu2  1  0.36606900  0.63393100  0.93006900  1
  Cu  Cu3  1  0.63393100  0.36606900  0.43006900  1
  F  F0  1  0.64429000  0.89722000  0.51343500  1
  F  F1  1  0.35571000  0.10278000  0.48656500  1
  F  F2  1  0.77764400  0.22235600  0.38586800  1
  F  F3  1  0.22235600  0.77764400  0.61413200  1
  F  F4  1  0.02547700  0.97452300  0.61348500  1
  F  F5  1  0.35571000  0.10278000  0.01343500  1
  F  F6  1  0.89722000  0.64429000  0.01343500  1
  F  F7  1  0.99769600  0.72510100  0.25000000  1
  F  F8  1  0.10278000  0.35571000  0.51343500  1
  F  F9  1  0.29545500  0.70454500  0.38989500  1
  F  F10  1  0.58405200  0.41594800  0.25000000  1
  F  F11  1  0.70454500  0.29545500  0.61010500  1
  F  F12  1  0.70454500  0.29545500  0.88989500  1
  F  F13  1  0.97452300  0.02547700  0.38651500  1
  F  F14  1  0.10278000  0.35571000  0.98656500  1
  F  F15  1  0.22235600  0.77764400  0.88586800  1
  F  F16  1  0.41594800  0.58405200  0.75000000  1
  F  F17  1  0.89722000  0.64429000  0.48656500  1
  F  F18  1  0.72510100  0.99769600  0.75000000  1
  F  F19  1  0.02547700  0.97452300  0.88651500  1
  F  F20  1  0.97452300  0.02547700  0.11348500  1
  F  F21  1  0.29545500  0.70454500  0.11010500  1
  F  F22  1  0.64429000  0.89722000  0.98656500  1
  F  F23  1  0.77764400  0.22235600  0.11413200  1
  F  F24  1  0.50000000  0.50000000  0.50000000  1
  F  F25  1  0.00230400  0.27489900  0.75000000  1
  F  F26  1  0.27489900  0.00230400  0.25000000  1
  F  F27  1  0.50000000  0.50000000  0.00000000  1
loop_
_geom_bond_atom_site_label_1
_geom_bond_atom_site_label_2
_geom_bond_distance
_geom_bond_site_symmetry_2
Cu0 F27 1.878147 1_555
Cu0 F23 1.917726 1_555
Cu0 F10 1.950208 1_555
Cu0 F12 2.054819 1_554
Cu0 F5 2.382028 1_555
Cu0 F6 2.382028 1_555
Cu1 F24 1.878147 1_555
Cu1 F3 1.917726 1_555
Cu1 F16 1.950208 1_555
Cu1 F9 2.054819 1_555
Cu1 F8 2.382028 1_555
Cu1 F0 2.382028 1_555
Cu2 F27 1.878147 1_556
Cu2 F15 1.917726 1_555
Cu2 F16 1.950208 1_555
Cu2 F21 2.054819 1_556
Cu2 F14 2.382028 1_555
Cu2 F22 2.382028 1_555
Cu3 F24 1.878147 1_555
Cu3 F2 1.917726 1_555
Cu3 F10 1.950208 1_555
Cu3 F11 2.054819 1_555
Cu3 F1 2.382028 1_555
Cu3 F17 2.382028 1_555
F0 Zr3 2.037675 1_565
F0 K0 2.717020 1_555
F1 Zr0 2.037675 1_545
F1 K3 2.717020 1_555
F2 Zr3 2.194559 1_555
F2 K1 3.013806 1_655
F2 K0 3.013806 1_545
F3 Zr0 2.194559 1_555
F3 K3 3.013806 1_565
F3 K2 3.013806 1_455
F4 Zr3 2.115189 1_465
F4 Zr0 2.333545 1_555
F4 K2 2.800722 1_455
F4 K3 2.800722 1_565
F5 Zr1 2.037675 1_545
F5 K3 2.717020 1_554
F6 Zr1 2.037675 1_655
F6 K2 2.717020 1_554
F7 Zr0 2.195952 1_655
F7 Zr1 2.195952 1_655
F8 Zr3 2.037675 1_455
F8 K1 2.717020 1_555
F9 Zr0 2.138451 1_555
F9 K0 2.824017 1_555
F9 K1 2.824017 1_555
F10 K0 3.204676 1_555
F10 K1 3.204676 1_555
F11 Zr3 2.138451 1_555
F11 K2 2.824017 1_555
F11 K3 2.824017 1_555
F12 Zr2 2.138451 1_555
F12 K2 2.824017 1_555
F12 K3 2.824017 1_555
F13 Zr0 2.115189 1_645
F13 Zr3 2.333545 1_555
F13 K1 2.800722 1_655
F13 K0 2.800722 1_545
F14 Zr2 2.037675 1_455
F14 K1 2.717020 1_556
F15 Zr1 2.194559 1_556
F15 K3 3.013806 1_565
F15 K2 3.013806 1_455
F16 K2 3.204676 1_555
F16 K3 3.204676 1_555
F17 Zr0 2.037675 1_655
F17 K2 2.717020 1_555
F18 Zr2 2.195952 1_565
F18 Zr3 2.195952 1_565
F19 Zr2 2.115189 1_465
F19 Zr1 2.333545 1_556
F19 K2 2.800722 1_455
F19 K3 2.800722 1_565
F20 Zr1 2.115189 1_645
F20 Zr2 2.333545 1_554
F20 K1 2.800722 1_655
F20 K0 2.800722 1_545
F21 Zr1 2.138451 1_555
F21 K0 2.824017 1_555
F21 K1 2.824017 1_555
F22 Zr2 2.037675 1_565
F22 K0 2.717020 1_556
F23 Zr2 2.194559 1_554
F23 K1 3.013806 1_655
F23 K0 3.013806 1_545
F25 Zr2 2.195952 1_455
F25 Zr3 2.195952 1_455
F26 Zr0 2.195952 1_545
F26 Zr1 2.195952 1_545
