# generated using pymatgen
data_KGd(PO3)4
_symmetry_space_group_name_H-M   'P 1'
_cell_length_a   7.45039871
_cell_length_b   7.45039871
_cell_length_c   10.63716490
_cell_angle_alpha   79.06933213
_cell_angle_beta   79.06933213
_cell_angle_gamma   115.36800915
_symmetry_Int_Tables_number   1
_chemical_formula_structural   KGd(PO3)4
_chemical_formula_sum   'K2 Gd2 P8 O24'
_cell_volume   498.82764848
_cell_formula_units_Z   2
loop_
 _symmetry_equiv_pos_site_id
 _symmetry_equiv_pos_as_xyz
  1  'x, y, z'
loop_
 _atom_site_type_symbol
 _atom_site_label
 _atom_site_symmetry_multiplicity
 _atom_site_fract_x
 _atom_site_fract_y
 _atom_site_fract_z
 _atom_site_occupancy
  K  K0  1  0.81562400  0.18437600  0.75000000  1
  K  K1  1  0.18437600  0.81562400  0.25000000  1
  Gd  Gd0  1  0.87973900  0.12026100  0.25000000  1
  Gd  Gd1  1  0.12026100  0.87973900  0.75000000  1
  P  P0  1  0.74350300  0.69621900  0.55666500  1
  P  P1  1  0.25649700  0.30378100  0.44333500  1
  P  P2  1  0.37370100  0.71332500  0.50231700  1
  P  P3  1  0.71332500  0.37370100  0.00231700  1
  P  P4  1  0.30378100  0.25649700  0.94333500  1
  P  P5  1  0.62629900  0.28667500  0.49768300  1
  P  P6  1  0.69621900  0.74350300  0.05666500  1
  P  P7  1  0.28667500  0.62629900  0.99768300  1
  O  O0  1  0.13714900  0.16143000  0.58498700  1
  O  O1  1  0.16143000  0.13714900  0.08498700  1
  O  O2  1  0.80889000  0.29983700  0.39947000  1
  O  O3  1  0.50114200  0.64311500  0.58778400  1
  O  O4  1  0.75420100  0.81375300  0.17212000  1
  O  O5  1  0.19111000  0.70016300  0.60053000  1
  O  O6  1  0.35688500  0.49885800  0.91221600  1
  O  O7  1  0.18624700  0.24579900  0.32788000  1
  O  O8  1  0.27595300  0.53047400  0.43386700  1
  O  O9  1  0.24579900  0.18624700  0.82788000  1
  O  O10  1  0.29983700  0.80889000  0.89947000  1
  O  O11  1  0.46952600  0.72404700  0.06613300  1
  O  O12  1  0.53047400  0.27595300  0.93386700  1
  O  O13  1  0.81375300  0.75420100  0.67212000  1
  O  O14  1  0.86285100  0.83857000  0.41501300  1
  O  O15  1  0.70016300  0.19111000  0.10053000  1
  O  O16  1  0.48886300  0.09134700  0.61393900  1
  O  O17  1  0.51113700  0.90865300  0.38606100  1
  O  O18  1  0.72404700  0.46952600  0.56613300  1
  O  O19  1  0.09134700  0.48886300  0.11393900  1
  O  O20  1  0.83857000  0.86285100  0.91501300  1
  O  O21  1  0.64311500  0.50114200  0.08778400  1
  O  O22  1  0.49885800  0.35688500  0.41221600  1
  O  O23  1  0.90865300  0.51113700  0.88606100  1
loop_
_geom_bond_atom_site_label_1
_geom_bond_atom_site_label_2
_geom_bond_distance
_geom_bond_site_symmetry_2
K0 O20 2.778249 1_545
K0 O0 2.778249 1_655
K0 O23 2.961876 1_555
K0 O16 2.961876 1_555
K0 O18 2.996078 1_555
K0 O12 2.996078 1_555
K1 O14 2.778249 1_455
K1 O1 2.778249 1_565
K1 O17 2.961876 1_555
K1 O19 2.961876 1_555
K1 O8 2.996078 1_555
K1 O11 2.996078 1_555
Gd0 O2 2.385396 1_555
Gd0 O15 2.385396 1_555
Gd0 O14 2.407138 1_545
Gd0 O1 2.407138 1_655
Gd0 O4 2.440715 1_545
Gd0 O7 2.440715 1_655
Gd0 O19 2.457532 1_655
Gd0 O17 2.457532 1_545
Gd1 O10 2.385396 1_555
Gd1 O5 2.385396 1_555
Gd1 O20 2.407138 1_455
Gd1 O0 2.407138 1_565
Gd1 O9 2.440715 1_565
Gd1 O13 2.440715 1_455
Gd1 O16 2.457532 1_565
Gd1 O23 2.457532 1_455
O0 P1 1.504534 1_555
O1 P4 1.504534 1_554
O2 P5 1.503169 1_555
O3 P2 1.604447 1_555
O3 P0 1.624227 1_555
O4 P6 1.489983 1_555
O5 P2 1.503169 1_555
O6 P7 1.604447 1_555
O6 P4 1.624227 1_555
O7 P1 1.489983 1_555
O8 P1 1.613659 1_555
O8 P2 1.625907 1_555
O9 P4 1.489983 1_555
O10 P7 1.503169 1_555
O11 P6 1.613659 1_555
O11 P7 1.625907 1_554
O12 P4 1.613659 1_555
O12 P3 1.625907 1_556
O13 P0 1.489983 1_555
O14 P0 1.504534 1_555
O15 P3 1.503169 1_555
O16 P5 1.502002 1_555
O17 P2 1.502002 1_555
O18 P0 1.613659 1_555
O18 P5 1.625907 1_555
O19 P7 1.502002 1_554
O20 P6 1.504534 1_556
O21 P3 1.604447 1_555
O21 P6 1.624227 1_555
O22 P5 1.604447 1_555
O22 P1 1.624227 1_555
O23 P3 1.502002 1_556
