# generated using pymatgen
data_Ca3Mn2(Si2O7)2
_symmetry_space_group_name_H-M   'P 1'
_cell_length_a   9.41907053
_cell_length_b   9.41907053
_cell_length_c   10.17611826
_cell_angle_alpha   60.00865677
_cell_angle_beta   60.00865677
_cell_angle_gamma   48.51824308
_symmetry_Int_Tables_number   1
_chemical_formula_structural   Ca3Mn2(Si2O7)2
_chemical_formula_sum   'Ca6 Mn4 Si8 O28'
_cell_volume   565.63277003
_cell_formula_units_Z   2
loop_
 _symmetry_equiv_pos_site_id
 _symmetry_equiv_pos_as_xyz
  1  'x, y, z'
loop_
 _atom_site_type_symbol
 _atom_site_label
 _atom_site_symmetry_multiplicity
 _atom_site_fract_x
 _atom_site_fract_y
 _atom_site_fract_z
 _atom_site_occupancy
  Ca  Ca0  1  0.23085900  0.16139800  0.54185900  1
  Ca  Ca1  1  0.83860200  0.76914100  0.95814100  1
  Ca  Ca2  1  0.16139800  0.23085900  0.04185900  1
  Ca  Ca3  1  0.65441500  0.34558500  0.25000000  1
  Ca  Ca4  1  0.76914100  0.83860200  0.45814100  1
  Ca  Ca5  1  0.34558500  0.65441500  0.75000000  1
  Mn  Mn0  1  0.21417700  0.78582300  0.25000000  1
  Mn  Mn1  1  0.78582300  0.21417700  0.75000000  1
  Mn  Mn2  1  0.00000000  0.00000000  0.00000000  1
  Mn  Mn3  1  0.00000000  0.00000000  0.50000000  1
  Si  Si0  1  0.11086600  0.53410000  0.65882400  1
  Si  Si1  1  0.53410000  0.11086600  0.15882400  1
  Si  Si2  1  0.21415900  0.53289800  0.14586900  1
  Si  Si3  1  0.53289800  0.21415900  0.64586900  1
  Si  Si4  1  0.46590000  0.88913400  0.84117600  1
  Si  Si5  1  0.78584100  0.46710200  0.85413100  1
  Si  Si6  1  0.46710200  0.78584100  0.35413100  1
  Si  Si7  1  0.88913400  0.46590000  0.34117600  1
  O  O0  1  0.29635800  0.87570400  0.50370500  1
  O  O1  1  0.89518300  0.97203900  0.71869100  1
  O  O2  1  0.64894200  0.45740700  0.81028600  1
  O  O3  1  0.97203900  0.89518300  0.21869100  1
  O  O4  1  0.94279800  0.26444400  0.48176800  1
  O  O5  1  0.50847100  0.05014000  0.81454600  1
  O  O6  1  0.45740700  0.64894200  0.31028600  1
  O  O7  1  0.73555600  0.05720200  0.01823200  1
  O  O8  1  0.49152900  0.94986000  0.18545400  1
  O  O9  1  0.67528500  0.65667900  0.40619600  1
  O  O10  1  0.10481700  0.02796100  0.28130900  1
  O  O11  1  0.05720200  0.73555600  0.51823200  1
  O  O12  1  0.94986000  0.49152900  0.68545400  1
  O  O13  1  0.87570400  0.29635800  0.00370500  1
  O  O14  1  0.65667900  0.67528500  0.90619600  1
  O  O15  1  0.26444400  0.94279800  0.98176800  1
  O  O16  1  0.47110500  0.89424500  0.67793500  1
  O  O17  1  0.32471500  0.34332100  0.59380400  1
  O  O18  1  0.10575500  0.52889500  0.82206500  1
  O  O19  1  0.34332100  0.32471500  0.09380400  1
  O  O20  1  0.05014000  0.50847100  0.31454600  1
  O  O21  1  0.02796100  0.10481700  0.78130900  1
  O  O22  1  0.89424500  0.47110500  0.17793500  1
  O  O23  1  0.35105800  0.54259300  0.18971400  1
  O  O24  1  0.52889500  0.10575500  0.32206500  1
  O  O25  1  0.54259300  0.35105800  0.68971400  1
  O  O26  1  0.12429600  0.70364200  0.99629500  1
  O  O27  1  0.70364200  0.12429600  0.49629500  1
loop_
_geom_bond_atom_site_label_1
_geom_bond_atom_site_label_2
_geom_bond_distance
_geom_bond_site_symmetry_2
Ca0 O21 2.295480 1_555
Ca0 O16 2.340037 1_545
Ca0 O24 2.470524 1_555
Ca0 O4 2.500880 1_455
Ca0 O0 2.525552 1_545
Ca0 O17 2.716007 1_555
Ca0 O20 2.817772 1_555
Ca0 O12 2.929630 1_455
Ca1 O1 2.295480 1_555
Ca1 O18 2.340037 1_655
Ca1 O22 2.470524 1_556
Ca1 O7 2.500880 1_566
Ca1 O26 2.525552 1_655
Ca1 O14 2.716007 1_555
Ca1 O8 2.817772 1_556
Ca1 O5 2.929630 1_565
Ca2 O10 2.295480 1_555
Ca2 O22 2.340037 1_455
Ca2 O18 2.470524 1_554
Ca2 O15 2.500880 1_544
Ca2 O13 2.525552 1_455
Ca2 O19 2.716007 1_555
Ca2 O5 2.817772 1_554
Ca2 O8 2.929630 1_545
Ca3 O13 2.345199 1_555
Ca3 O27 2.345199 1_555
Ca3 O6 2.361009 1_555
Ca3 O23 2.361009 1_555
Ca3 O22 2.837904 1_555
Ca3 O24 2.837904 1_555
Ca4 O3 2.295480 1_555
Ca4 O24 2.340037 1_565
Ca4 O16 2.470524 1_555
Ca4 O11 2.500880 1_655
Ca4 O27 2.525552 1_565
Ca4 O9 2.716007 1_555
Ca4 O12 2.817772 1_555
Ca4 O20 2.929630 1_655
Ca5 O26 2.345199 1_555
Ca5 O0 2.345199 1_555
Ca5 O2 2.361009 1_555
Ca5 O25 2.361009 1_555
Ca5 O16 2.837904 1_555
Ca5 O18 2.837904 1_555
Mn0 O3 1.910578 1_455
Mn0 O10 1.910578 1_565
Mn0 O23 1.997156 1_555
Mn0 O6 1.997156 1_555
Mn0 O11 2.336970 1_555
Mn0 O15 2.336970 1_554
Mn1 O1 1.910578 1_545
Mn1 O21 1.910578 1_655
Mn1 O25 1.997156 1_555
Mn1 O2 1.997156 1_555
Mn1 O7 2.336970 1_556
Mn1 O4 2.336970 1_555
Mn2 O3 1.886417 1_445
Mn2 O21 1.886417 1_554
Mn2 O15 2.094982 1_544
Mn2 O7 2.094982 1_455
Mn2 O13 2.212640 1_455
Mn2 O26 2.212640 1_544
Mn3 O1 1.886417 1_445
Mn3 O10 1.886417 1_555
Mn3 O4 2.094982 1_455
Mn3 O11 2.094982 1_545
Mn3 O0 2.212640 1_545
Mn3 O27 2.212640 1_455
O0 Si6 1.630040 1_555
O2 Si5 1.625428 1_555
O4 Si7 1.625193 1_555
O5 Si3 1.676583 1_555
O5 Si4 1.679335 1_545
O6 Si6 1.625428 1_555
O7 Si1 1.625193 1_555
O8 Si6 1.676583 1_555
O8 Si1 1.679335 1_565
O9 Si7 1.668926 1_555
O9 Si6 1.685165 1_555
O11 Si0 1.625193 1_555
O12 Si5 1.676583 1_555
O12 Si0 1.679335 1_655
O13 Si5 1.630040 1_554
O14 Si4 1.668926 1_555
O14 Si5 1.685165 1_555
O15 Si4 1.625193 1_555
O16 Si4 1.614290 1_555
O17 Si0 1.668926 1_555
O17 Si3 1.685165 1_555
O18 Si0 1.614290 1_555
O19 Si1 1.668926 1_555
O19 Si2 1.685165 1_555
O20 Si2 1.676583 1_555
O20 Si7 1.679335 1_455
O22 Si7 1.614290 1_555
O23 Si2 1.625428 1_555
O24 Si1 1.614290 1_555
O25 Si3 1.625428 1_555
O26 Si2 1.630040 1_556
O27 Si3 1.630040 1_555
