# generated using pymatgen
data_CoH6(CO3)2
_symmetry_space_group_name_H-M   'P 1'
_cell_length_a   7.24396600
_cell_length_b   8.76229700
_cell_length_c   9.31466714
_cell_angle_alpha   82.75331979
_cell_angle_beta   90.00000000
_cell_angle_gamma   90.00000000
_symmetry_Int_Tables_number   1
_chemical_formula_structural   CoH6(CO3)2
_chemical_formula_sum   'Co4 H24 C8 O24'
_cell_volume   586.51449860
_cell_formula_units_Z   4
loop_
 _symmetry_equiv_pos_site_id
 _symmetry_equiv_pos_as_xyz
  1  'x, y, z'
loop_
 _atom_site_type_symbol
 _atom_site_label
 _atom_site_symmetry_multiplicity
 _atom_site_fract_x
 _atom_site_fract_y
 _atom_site_fract_z
 _atom_site_occupancy
  Co  Co0  1  0.50000000  0.00000000  0.50000000  1
  Co  Co1  1  0.00000000  0.00000000  0.00000000  1
  Co  Co2  1  0.00000000  0.50000000  0.50000000  1
  Co  Co3  1  0.50000000  0.50000000  0.00000000  1
  H  H0  1  0.47879800  0.32783300  0.60863500  1
  H  H1  1  0.97879800  0.67216700  0.89136500  1
  H  H2  1  0.52120200  0.67216700  0.39136500  1
  H  H3  1  0.02120200  0.32783300  0.10863500  1
  H  H4  1  0.71181500  0.06833000  0.22670900  1
  H  H5  1  0.21181500  0.93167000  0.27329100  1
  H  H6  1  0.28818500  0.93167000  0.77329100  1
  H  H7  1  0.78818500  0.06833000  0.72670900  1
  H  H8  1  0.11333700  0.21369500  0.48741300  1
  H  H9  1  0.61333700  0.78630500  0.01258700  1
  H  H10  1  0.88666300  0.78630500  0.51258700  1
  H  H11  1  0.38666300  0.21369500  0.98741300  1
  H  H12  1  0.89757800  0.23474400  0.45071300  1
  H  H13  1  0.39757800  0.76525600  0.04928700  1
  H  H14  1  0.10242200  0.76525600  0.54928700  1
  H  H15  1  0.60242200  0.23474400  0.95071300  1
  H  H16  1  0.90589100  0.69888900  0.26410900  1
  H  H17  1  0.40589100  0.30111100  0.23589100  1
  H  H18  1  0.09410900  0.30111100  0.73589100  1
  H  H19  1  0.59410900  0.69888900  0.76410900  1
  H  H20  1  0.84546200  0.53289300  0.22295600  1
  H  H21  1  0.34546200  0.46710700  0.27704400  1
  H  H22  1  0.15453800  0.46710700  0.77704400  1
  H  H23  1  0.65453800  0.53289300  0.72295600  1
  C  C0  1  0.38020800  0.67528600  0.43631300  1
  C  C1  1  0.88020800  0.32471400  0.06368700  1
  C  C2  1  0.61979200  0.32471400  0.56368700  1
  C  C3  1  0.11979200  0.67528600  0.93631300  1
  C  C4  1  0.77812000  0.96134600  0.27684300  1
  C  C5  1  0.27812000  0.03865400  0.22315700  1
  C  C6  1  0.22188000  0.03865400  0.72315700  1
  C  C7  1  0.72188000  0.96134600  0.77684300  1
  O  O0  1  0.72561800  0.43686000  0.58054000  1
  O  O1  1  0.22561800  0.56314000  0.91946000  1
  O  O2  1  0.27438200  0.56314000  0.41946000  1
  O  O3  1  0.77438200  0.43686000  0.08054000  1
  O  O4  1  0.33567800  0.79086000  0.49969200  1
  O  O5  1  0.83567800  0.20914000  0.00030800  1
  O  O6  1  0.66432200  0.20914000  0.50030800  1
  O  O7  1  0.16432200  0.79086000  0.99969200  1
  O  O8  1  0.72690700  0.90637900  0.40383600  1
  O  O9  1  0.22690700  0.09362100  0.09616400  1
  O  O10  1  0.27309300  0.09362100  0.59616400  1
  O  O11  1  0.77309300  0.90637900  0.90383600  1
  O  O12  1  0.90004800  0.89925700  0.20537000  1
  O  O13  1  0.40004800  0.10074300  0.29463000  1
  O  O14  1  0.09995200  0.10074300  0.79463000  1
  O  O15  1  0.59995200  0.89925700  0.70537000  1
  O  O16  1  0.02248300  0.27968200  0.42858900  1
  O  O17  1  0.52248300  0.72031800  0.07141100  1
  O  O18  1  0.97751700  0.72031800  0.57141100  1
  O  O19  1  0.47751700  0.27968200  0.92858900  1
  O  O20  1  0.89066100  0.58891900  0.30273000  1
  O  O21  1  0.39066100  0.41108100  0.19727000  1
  O  O22  1  0.10933900  0.41108100  0.69727000  1
  O  O23  1  0.60933900  0.58891900  0.80273000  1
loop_
_geom_bond_atom_site_label_1
_geom_bond_atom_site_label_2
_geom_bond_distance
_geom_bond_site_symmetry_2
Co0 O8 2.088646 1_545
Co0 O10 2.088646 1_555
Co0 O13 2.129989 1_555
Co0 O15 2.129989 1_545
Co0 O6 2.185516 1_555
Co0 O4 2.185516 1_545
Co1 O11 2.088646 1_444
Co1 O9 2.088646 1_555
Co1 O12 2.129989 1_445
Co1 O14 2.129989 1_554
Co1 O5 2.185516 1_455
Co1 O7 2.185516 1_544
Co2 O20 2.061463 1_455
Co2 O22 2.061463 1_555
Co2 O18 2.125966 1_455
Co2 O16 2.125966 1_555
Co2 O2 2.171357 1_555
Co2 O0 2.171357 1_455
Co3 O23 2.061463 1_554
Co3 O21 2.061463 1_555
Co3 O17 2.125966 1_555
Co3 O19 2.125966 1_554
Co3 O3 2.171357 1_555
Co3 O1 2.171357 1_554
H8 O16 0.993862 1_555
H9 O17 0.993862 1_555
H10 O18 0.993862 1_555
H11 O19 0.993862 1_555
H12 O16 0.997858 1_655
H13 O17 0.997858 1_555
H14 O18 0.997858 1_455
H15 O19 0.997858 1_555
H16 O20 0.991281 1_555
H17 O21 0.991281 1_555
H18 O22 0.991281 1_555
H19 O23 0.991281 1_555
H20 O20 0.996184 1_555
H20 O3 1.736250 1_555
H21 O21 0.996184 1_555
H21 O2 1.736250 1_555
H22 O22 0.996184 1_555
H22 O1 1.736250 1_555
H23 O23 0.996184 1_555
H23 O0 1.736250 1_555
C0 H2 1.105482 1_555
C0 O2 1.271554 1_555
C0 O4 1.276302 1_555
C1 H3 1.105482 1_655
C1 O3 1.271554 1_555
C1 O5 1.276302 1_555
C2 H0 1.105482 1_555
C2 O0 1.271554 1_555
C2 O6 1.276302 1_555
C3 H1 1.105482 1_455
C3 O1 1.271554 1_555
C3 O7 1.276302 1_555
C4 H4 1.103222 1_565
C4 O12 1.269131 1_555
C4 O8 1.274801 1_555
C5 H5 1.103222 1_545
C5 O13 1.269131 1_555
C5 O9 1.274801 1_555
C6 H6 1.103222 1_545
C6 O14 1.269131 1_555
C6 O10 1.274801 1_555
C7 H7 1.103222 1_565
C7 O15 1.269131 1_555
C7 O11 1.274801 1_555
