# generated using pymatgen
data_CrTe3
_symmetry_space_group_name_H-M   'P 1'
_cell_length_a   8.20690326
_cell_length_b   10.69224715
_cell_length_c   11.55750347
_cell_angle_alpha   90.00000000
_cell_angle_beta   90.00000000
_cell_angle_gamma   104.87694440
_symmetry_Int_Tables_number   1
_chemical_formula_structural   CrTe3
_chemical_formula_sum   'Cr8 Te24'
_cell_volume   980.17804187
_cell_formula_units_Z   8
loop_
 _symmetry_equiv_pos_site_id
 _symmetry_equiv_pos_as_xyz
  1  'x, y, z'
loop_
 _atom_site_type_symbol
 _atom_site_label
 _atom_site_symmetry_multiplicity
 _atom_site_fract_x
 _atom_site_fract_y
 _atom_site_fract_z
 _atom_site_occupancy
  Cr  Cr0  1  0.67219393  0.67404721  0.00024586  1
  Cr  Cr1  1  0.82782393  0.82600071  0.50024420  1
  Cr  Cr2  1  0.32782393  0.32600071  0.99975580  1
  Cr  Cr3  1  0.17219393  0.17404721  0.49975414  1
  Cr  Cr4  1  0.48763449  0.50615502  0.28418882  1
  Cr  Cr5  1  0.01239289  0.99385473  0.78416533  1
  Cr  Cr6  1  0.51239289  0.49385473  0.71583467  1
  Cr  Cr7  1  0.98763449  0.00615502  0.21581118  1
  Te  Te0  1  0.35950689  0.56740261  0.90614034  1
  Te  Te1  1  0.14044876  0.93254076  0.40610509  1
  Te  Te2  1  0.64044876  0.43254076  0.09389491  1
  Te  Te3  1  0.85950689  0.06740161  0.59385966  1
  Te  Te4  1  0.98612448  0.23654238  0.32278668  1
  Te  Te5  1  0.51386025  0.26341573  0.82279414  1
  Te  Te6  1  0.01386025  0.76341573  0.67720586  1
  Te  Te7  1  0.48612448  0.73654238  0.17721332  1
  Te  Te8  1  0.17913515  0.42888408  0.17468927  1
  Te  Te9  1  0.32086974  0.07113180  0.67466650  1
  Te  Te10  1  0.82086974  0.57113180  0.82533350  1
  Te  Te11  1  0.67913515  0.92888408  0.32531073  1
  Te  Te12  1  0.19792010  0.40235671  0.61600013  1
  Te  Te13  1  0.30203866  0.09767592  0.11598630  1
  Te  Te14  1  0.80203866  0.59767592  0.38401370  1
  Te  Te15  1  0.69792010  0.90235671  0.88399987  1
  Te  Te16  1  0.30235923  0.59766181  0.44840003  1
  Te  Te17  1  0.19765558  0.90233757  0.94838918  1
  Te  Te18  1  0.69765558  0.40233757  0.55161082  1
  Te  Te19  1  0.80235923  0.09766181  0.05159997  1
  Te  Te20  1  0.52931333  0.73159978  0.61615725  1
  Te  Te21  1  0.97072259  0.76839219  0.11612032  1
  Te  Te22  1  0.47072259  0.26839219  0.38387968  1
  Te  Te23  1  0.02931333  0.23159978  0.88384275  1
loop_
_geom_bond_atom_site_label_1
_geom_bond_atom_site_label_2
_geom_bond_distance
_geom_bond_site_symmetry_2
Cr0 Te10 2.734190 1_554
Cr0 Te7 2.735987 1_555
Cr0 Te15 2.746657 1_554
Cr0 Te21 2.746729 1_555
Cr0 Te2 2.749892 1_555
Cr0 Te0 2.750626 1_554
Cr1 Te11 2.734251 1_555
Cr1 Te6 2.736141 1_655
Cr1 Te14 2.746638 1_555
Cr1 Te20 2.746911 1_555
Cr1 Te3 2.748781 1_565
Cr1 Te1 2.750162 1_655
Cr2 Te8 2.734251 1_556
Cr2 Te5 2.736141 1_555
Cr2 Te13 2.746638 1_556
Cr2 Te23 2.746911 1_555
Cr2 Te0 2.748791 1_555
Cr2 Te2 2.750162 1_556
Cr3 Te9 2.734190 1_555
Cr3 Te4 2.735987 1_455
Cr3 Te12 2.746657 1_555
Cr3 Te22 2.746729 1_555
Cr3 Te1 2.749892 1_545
Cr3 Te3 2.750628 1_455
Cr4 Te2 2.745228 1_555
Cr4 Te7 2.759089 1_555
Cr4 Te8 2.760476 1_555
Cr4 Te22 2.761969 1_555
Cr4 Te16 2.763180 1_555
Cr4 Te14 2.765863 1_555
Cr5 Te3 2.745358 1_465
Cr5 Te6 2.759418 1_555
Cr5 Te9 2.760321 1_565
Cr5 Te23 2.761718 1_565
Cr5 Te17 2.763269 1_555
Cr5 Te15 2.766356 1_455
Cr6 Te0 2.745362 1_555
Cr6 Te5 2.759418 1_555
Cr6 Te10 2.760321 1_555
Cr6 Te20 2.761718 1_555
Cr6 Te18 2.763269 1_555
Cr6 Te12 2.766356 1_555
Cr7 Te1 2.745228 1_645
Cr7 Te4 2.759089 1_555
Cr7 Te11 2.760476 1_545
Cr7 Te21 2.761969 1_545
Cr7 Te19 2.763180 1_555
Cr7 Te13 2.765863 1_655
Te4 Te8 2.827635 1_655
Te5 Te9 2.827424 1_555
Te10 Te6 2.827424 1_655
Te11 Te7 2.827635 1_555
Te12 Te16 2.815756 1_555
Te13 Te17 2.815916 1_544
Te14 Te18 2.815916 1_555
Te15 Te19 2.815756 1_566
Te16 Te20 2.812405 1_555
Te17 Te21 2.812132 1_456
Te18 Te22 2.812132 1_555
Te19 Te23 2.812405 1_654
