# generated using pymatgen
data_DyMnO3
_symmetry_space_group_name_H-M   'P 1'
_cell_length_a   6.13604437
_cell_length_b   6.13604441
_cell_length_c   11.42852703
_cell_angle_alpha   89.99999992
_cell_angle_beta   90.00000010
_cell_angle_gamma   119.99952033
_symmetry_Int_Tables_number   1
_chemical_formula_structural   DyMnO3
_chemical_formula_sum   'Dy6 Mn6 O18'
_cell_volume   372.64901403
_cell_formula_units_Z   6
loop_
 _symmetry_equiv_pos_site_id
 _symmetry_equiv_pos_as_xyz
  1  'x, y, z'
loop_
 _atom_site_type_symbol
 _atom_site_label
 _atom_site_symmetry_multiplicity
 _atom_site_fract_x
 _atom_site_fract_y
 _atom_site_fract_z
 _atom_site_occupancy
  Dy  Dy0  1  0.00000005  0.00000002  0.28375272  1
  Dy  Dy1  1  0.00000005  0.00000006  0.78375340  1
  Dy  Dy2  1  0.33333336  0.66666672  0.23879309  1
  Dy  Dy3  1  0.66666673  0.33333352  0.73879658  1
  Dy  Dy4  1  0.33333351  0.66666676  0.73879664  1
  Dy  Dy5  1  0.66666667  0.33333335  0.23879311  1
  Mn  Mn0  1  0.33359039  0.00000606  0.00789849  1
  Mn  Mn1  1  0.33357846  0.33357841  0.50789729  1
  Mn  Mn2  1  -0.00000600  0.66640904  0.50789751  1
  Mn  Mn3  1  0.00000603  0.33359021  0.00789848  1
  Mn  Mn4  1  0.66642205  0.66642203  0.00789829  1
  Mn  Mn5  1  0.66640898  -0.00000607  0.50789749  1
  O  O0  1  0.30636286  0.00000091  0.17129199  1
  O  O1  1  0.30636591  0.30636593  0.67129404  1
  O  O2  1  -0.00000070  0.69363292  0.67129386  1
  O  O3  1  0.00000088  0.30636284  0.17129200  1
  O  O4  1  0.69363839  0.69363838  0.17129217  1
  O  O5  1  0.69363288  -0.00000069  0.67129387  1
  O  O6  1  0.64043178  -0.00000044  0.34471606  1
  O  O7  1  0.64043444  0.64043447  0.84471843  1
  O  O8  1  0.00000052  0.35956622  0.84471823  1
  O  O9  1  -0.00000042  0.64043181  0.34471605  1
  O  O10  1  0.35956773  0.35956774  0.34471629  1
  O  O11  1  0.35956622  0.00000052  0.84471824  1
  O  O12  1  0.00000065  0.00000069  0.48562013  1
  O  O13  1  -0.00000060  -0.00000061  0.98562192  1
  O  O14  1  0.33333310  0.66666653  0.02665775  1
  O  O15  1  0.66666694  0.33333361  0.52665907  1
  O  O16  1  0.33333358  0.66666698  0.52665907  1
  O  O17  1  0.66666653  0.33333308  0.02665775  1
loop_
_geom_bond_atom_site_label_1
_geom_bond_atom_site_label_2
_geom_bond_distance
_geom_bond_site_symmetry_2
Dy0 O0 2.277222 1_555
Dy0 O3 2.277223 1_555
Dy0 O4 2.277229 1_445
Dy0 O12 2.307047 1_555
Dy0 O9 2.313718 1_545
Dy0 O6 2.313718 1_455
Dy0 O10 2.313732 1_555
Dy1 O2 2.277237 1_545
Dy1 O5 2.277237 1_455
Dy1 O1 2.277243 1_555
Dy1 O13 2.307060 1_555
Dy1 O8 2.313711 1_555
Dy1 O11 2.313711 1_555
Dy1 O7 2.313725 1_445
Dy2 O0 2.268140 1_565
Dy2 O4 2.268141 1_555
Dy2 O3 2.268149 1_555
Dy2 O10 2.312040 1_555
Dy2 O9 2.312042 1_555
Dy2 O6 2.312049 1_565
Dy2 O14 2.424394 1_555
Dy3 O5 2.268133 1_555
Dy3 O1 2.268133 1_555
Dy3 O2 2.268141 1_655
Dy3 O7 2.312036 1_555
Dy3 O8 2.312039 1_655
Dy3 O11 2.312046 1_555
Dy3 O15 2.424419 1_555
Dy4 O2 2.268133 1_555
Dy4 O1 2.268133 1_555
Dy4 O5 2.268141 1_565
Dy4 O7 2.312036 1_555
Dy4 O11 2.312038 1_565
Dy4 O8 2.312046 1_555
Dy4 O16 2.424420 1_555
Dy5 O3 2.268140 1_655
Dy5 O4 2.268141 1_555
Dy5 O0 2.268149 1_555
Dy5 O10 2.312040 1_555
Dy5 O6 2.312042 1_555
Dy5 O9 2.312049 1_655
Dy5 O17 2.424395 1_555
Mn0 O11 1.871710 1_554
Mn0 O0 1.874804 1_555
Mn0 O17 2.055765 1_555
Mn0 O14 2.055807 1_545
Mn0 O13 2.062680 1_554
Mn1 O10 1.871724 1_555
Mn1 O1 1.874835 1_555
Mn1 O15 2.055810 1_555
Mn1 O16 2.055810 1_555
Mn1 O12 2.062636 1_555
Mn2 O9 1.871725 1_555
Mn2 O2 1.874835 1_555
Mn2 O15 2.055765 1_455
Mn2 O16 2.055808 1_555
Mn2 O12 2.062686 1_565
Mn3 O8 1.871710 1_554
Mn3 O3 1.874805 1_555
Mn3 O14 2.055765 1_555
Mn3 O17 2.055807 1_455
Mn3 O13 2.062679 1_554
Mn4 O7 1.871711 1_554
Mn4 O4 1.874804 1_555
Mn4 O17 2.055809 1_555
Mn4 O14 2.055809 1_555
Mn4 O13 2.062632 1_664
Mn5 O6 1.871724 1_555
Mn5 O5 1.874835 1_555
Mn5 O16 2.055765 1_545
Mn5 O15 2.055808 1_555
Mn5 O12 2.062685 1_655
