# generated using pymatgen
data_TiSCl6O
_symmetry_space_group_name_H-M   'P 1'
_cell_length_a   6.63209610
_cell_length_b   8.18878012
_cell_length_c   11.22515084
_cell_angle_alpha   108.50382913
_cell_angle_beta   91.38155732
_cell_angle_gamma   113.71642498
_symmetry_Int_Tables_number   1
_chemical_formula_structural   TiSCl6O
_chemical_formula_sum   'Ti2 S2 Cl12 O2'
_cell_volume   521.13700420
_cell_formula_units_Z   2
loop_
 _symmetry_equiv_pos_site_id
 _symmetry_equiv_pos_as_xyz
  1  'x, y, z'
loop_
 _atom_site_type_symbol
 _atom_site_label
 _atom_site_symmetry_multiplicity
 _atom_site_fract_x
 _atom_site_fract_y
 _atom_site_fract_z
 _atom_site_occupancy
  Ti  Ti0  1  0.93041900  0.76716500  0.85758700  1
  Ti  Ti1  1  0.06958100  0.23283500  0.14241300  1
  S  S0  1  0.35453000  0.02355800  0.29993300  1
  S  S1  1  0.64547000  0.97644200  0.70006700  1
  Cl  Cl0  1  0.61226100  0.50131400  0.80763100  1
  Cl  Cl1  1  0.06075900  0.82617500  0.32686600  1
  Cl  Cl2  1  0.45321900  0.22903400  0.48341500  1
  Cl  Cl3  1  0.80527000  0.89094000  0.06008300  1
  Cl  Cl4  1  0.54678100  0.77096600  0.51658500  1
  Cl  Cl5  1  0.96582300  0.26544900  0.33315300  1
  Cl  Cl6  1  0.38773900  0.49868600  0.19236900  1
  Cl  Cl7  1  0.03417700  0.73455100  0.66684700  1
  Cl  Cl8  1  0.19473000  0.10906000  0.93991700  1
  Cl  Cl9  1  0.84223400  0.31934500  0.06109600  1
  Cl  Cl10  1  0.93924100  0.17382500  0.67313400  1
  Cl  Cl11  1  0.15776600  0.68065500  0.93890400  1
  O  O0  1  0.70360300  0.89479400  0.78677100  1
  O  O1  1  0.29639700  0.10520600  0.21322900  1
loop_
_geom_bond_atom_site_label_1
_geom_bond_atom_site_label_2
_geom_bond_distance
_geom_bond_site_symmetry_2
Cl0 Ti0 2.231366 1_555
Cl1 S0 2.074900 1_565
Cl2 S0 2.085894 1_555
Cl3 Ti1 2.469195 1_665
Cl3 Ti0 2.487631 1_554
Cl4 S1 2.085894 1_555
Cl5 Ti1 2.232718 1_655
Cl6 Ti1 2.231366 1_555
Cl7 Ti0 2.232718 1_455
Cl8 Ti0 2.469195 1_445
Cl8 Ti1 2.487631 1_556
Cl9 Ti1 2.193575 1_655
Cl10 S1 2.074900 1_545
Cl11 Ti0 2.193575 1_455
O0 S1 1.464655 1_555
O0 Ti0 2.391932 1_555
O1 S0 1.464655 1_555
O1 Ti1 2.391932 1_555
