# generated using pymatgen
data_TbMg4Cu
_symmetry_space_group_name_H-M   'P 1'
_cell_length_a   12.09620264
_cell_length_b   12.09620264
_cell_length_c   3.89222804
_cell_angle_alpha   90.00000000
_cell_angle_beta   90.00000000
_cell_angle_gamma   112.47132597
_symmetry_Int_Tables_number   1
_chemical_formula_structural   TbMg4Cu
_chemical_formula_sum   'Tb4 Mg16 Cu4'
_cell_volume   526.26161489
_cell_formula_units_Z   4
loop_
 _symmetry_equiv_pos_site_id
 _symmetry_equiv_pos_as_xyz
  1  'x, y, z'
loop_
 _atom_site_type_symbol
 _atom_site_label
 _atom_site_symmetry_multiplicity
 _atom_site_fract_x
 _atom_site_fract_y
 _atom_site_fract_z
 _atom_site_occupancy
  Tb  Tb0  1  0.30148211  0.30148211  -0.00000000  1
  Tb  Tb1  1  0.69851789  0.69851789  -0.00000000  1
  Tb  Tb2  1  0.36770469  0.63229531  -0.00000000  1
  Tb  Tb3  1  0.63229531  0.36770469  -0.00000000  1
  Mg  Mg0  1  0.37506401  0.86333418  0.50000000  1
  Mg  Mg1  1  0.13666582  0.62493599  0.50000000  1
  Mg  Mg2  1  0.16519878  0.83480122  -0.00000000  1
  Mg  Mg3  1  0.83480122  0.16519878  -0.00000000  1
  Mg  Mg4  1  0.94882673  0.78895495  0.50000000  1
  Mg  Mg5  1  0.86333418  0.37506401  0.50000000  1
  Mg  Mg6  1  0.92366494  0.58593908  -0.00000000  1
  Mg  Mg7  1  0.21104505  0.05117327  0.50000000  1
  Mg  Mg8  1  0.62493599  0.13666582  0.50000000  1
  Mg  Mg9  1  0.50000000  0.50000000  0.50000000  1
  Mg  Mg10  1  0.78895495  0.94882673  0.50000000  1
  Mg  Mg11  1  0.05117327  0.21104505  0.50000000  1
  Mg  Mg12  1  0.58593908  0.92366494  0.00000000  1
  Mg  Mg13  1  0.41406092  0.07633506  -0.00000000  1
  Mg  Mg14  1  0.07633506  0.41406092  0.00000000  1
  Mg  Mg15  1  -0.00000000  -0.00000000  -0.00000000  1
  Cu  Cu0  1  0.44587068  0.23594526  0.50000000  1
  Cu  Cu1  1  0.23594526  0.44587068  0.50000000  1
  Cu  Cu2  1  0.55412932  0.76405474  0.50000000  1
  Cu  Cu3  1  0.76405474  0.55412932  0.50000000  1
loop_
_geom_bond_atom_site_label_1
_geom_bond_atom_site_label_2
_geom_bond_distance
_geom_bond_site_symmetry_2
Mg0 Mg2 3.111439 1_555
Mg0 Mg2 3.111439 1_556
Mg1 Mg2 3.111439 1_555
Mg1 Mg2 3.111439 1_556
Mg2 Mg4 3.136161 1_455
Mg2 Mg4 3.136161 1_454
Mg2 Mg7 3.136161 1_565
Mg2 Mg7 3.136161 1_564
Mg2 Mg6 3.297661 1_455
Mg3 Mg5 3.111439 1_554
Mg3 Mg8 3.111439 1_555
Mg3 Mg5 3.111439 1_555
Mg3 Mg8 3.111439 1_554
Mg9 Tb3 3.296472 1_556
Mg9 Tb3 3.296472 1_555
Mg9 Tb2 3.296472 1_555
Mg9 Tb2 3.296472 1_556
Mg9 Tb1 3.303326 1_556
Mg9 Tb0 3.303326 1_555
Mg9 Tb0 3.303326 1_556
Mg9 Tb1 3.303326 1_555
Mg10 Mg15 3.078888 1_665
Mg10 Mg15 3.078888 1_666
Mg10 Mg3 3.136161 1_566
Mg10 Mg3 3.136161 1_565
Mg11 Mg15 3.078888 1_556
Mg11 Mg15 3.078888 1_555
Mg11 Mg3 3.136161 1_456
Mg11 Mg3 3.136161 1_455
Mg12 Mg3 3.297661 1_565
Mg13 Mg2 3.297661 1_545
Mg14 Mg3 3.297661 1_455
Mg15 Mg4 3.078888 1_444
Mg15 Mg4 3.078888 1_445
Mg15 Mg7 3.078888 1_554
Mg15 Mg7 3.078888 1_555
Mg15 Mg3 3.322459 1_455
Mg15 Mg2 3.322459 1_545
Cu0 Mg13 2.663651 1_555
Cu0 Mg13 2.663651 1_556
Cu0 Mg8 2.849950 1_555
Cu0 Mg7 2.865428 1_555
Cu0 Tb0 2.919706 1_555
Cu0 Tb0 2.919706 1_556
Cu0 Tb3 2.943679 1_556
Cu0 Tb3 2.943679 1_555
Cu0 Mg9 3.005332 1_555
Cu1 Mg14 2.663651 1_555
Cu1 Mg14 2.663651 1_556
Cu1 Mg1 2.849950 1_555
Cu1 Mg11 2.865428 1_555
Cu1 Tb0 2.919706 1_555
Cu1 Tb0 2.919706 1_556
Cu1 Tb2 2.943679 1_555
Cu1 Tb2 2.943679 1_556
Cu1 Mg9 3.005332 1_555
Cu2 Mg12 2.663651 1_555
Cu2 Mg12 2.663651 1_556
Cu2 Mg0 2.849950 1_555
Cu2 Mg10 2.865428 1_555
Cu2 Tb1 2.919706 1_555
Cu2 Tb1 2.919706 1_556
Cu2 Tb2 2.943679 1_555
Cu2 Tb2 2.943679 1_556
Cu2 Mg9 3.005332 1_555
Cu3 Mg6 2.663651 1_556
Cu3 Mg6 2.663651 1_555
Cu3 Mg5 2.849950 1_555
Cu3 Mg4 2.865428 1_555
Cu3 Tb1 2.919706 1_555
Cu3 Tb1 2.919706 1_556
Cu3 Tb3 2.943679 1_556
Cu3 Tb3 2.943679 1_555
Cu3 Mg9 3.005332 1_555
