# generated using pymatgen
data_KNaMnO2
_symmetry_space_group_name_H-M   'P 1'
_cell_length_a   6.81212949
_cell_length_b   7.05591200
_cell_length_c   6.81213809
_cell_angle_alpha   90.00006612
_cell_angle_beta   92.14320696
_cell_angle_gamma   90.00006489
_symmetry_Int_Tables_number   1
_chemical_formula_structural   KNaMnO2
_chemical_formula_sum   'K4 Na4 Mn4 O8'
_cell_volume   327.20172762
_cell_formula_units_Z   4
loop_
 _symmetry_equiv_pos_site_id
 _symmetry_equiv_pos_as_xyz
  1  'x, y, z'
loop_
 _atom_site_type_symbol
 _atom_site_label
 _atom_site_symmetry_multiplicity
 _atom_site_fract_x
 _atom_site_fract_y
 _atom_site_fract_z
 _atom_site_occupancy
  K  K0  1  0.50000600  0.99999900  0.00000400  1
  K  K1  1  0.00000500  0.50000000  0.50001100  1
  K  K2  1  0.00000900  0.25000200  0.00000700  1
  K  K3  1  0.00000900  0.74999900  0.00000700  1
  Na  Na0  1  0.64966200  0.24999800  0.64966200  1
  Na  Na1  1  0.35035500  0.25000000  0.35035800  1
  Na  Na2  1  0.64966300  0.75000200  0.64966200  1
  Na  Na3  1  0.35035500  0.75000000  0.35035800  1
  Mn  Mn0  1  0.62459300  0.49999900  0.16071700  1
  Mn  Mn1  1  0.16071400  0.00000000  0.62459200  1
  Mn  Mn2  1  0.37535200  0.50000000  0.83925200  1
  Mn  Mn3  1  0.83924600  0.00000000  0.37534000  1
  O  O0  1  0.69705300  0.74998800  0.30294900  1
  O  O1  1  0.69705400  0.25001300  0.30294900  1
  O  O2  1  0.30295300  0.24999700  0.69706100  1
  O  O3  1  0.30295300  0.75000500  0.69705900  1
  O  O4  1  0.69274400  0.50000000  0.86435000  1
  O  O5  1  0.30724800  0.50000000  0.13567900  1
  O  O6  1  0.86435000  0.00000000  0.69273600  1
  O  O7  1  0.13567300  0.99999900  0.30724800  1
loop_
_geom_bond_atom_site_label_1
_geom_bond_atom_site_label_2
_geom_bond_distance
_geom_bond_site_symmetry_2
K0 O3 2.994167 1_554
K0 O2 2.994179 1_564
K0 O0 2.994225 1_555
K0 O1 2.994235 1_565
K1 O1 2.994190 1_455
K1 O0 2.994203 1_455
K1 O3 2.994211 1_555
K1 O2 2.994213 1_555
K2 O5 2.863826 1_555
K2 O7 2.863848 1_545
K2 O4 2.863928 1_454
K2 O6 2.863976 1_454
K2 O2 2.972587 1_554
K2 O1 2.972621 1_455
K3 O7 2.863830 1_555
K3 O5 2.863835 1_555
K3 O4 2.863928 1_454
K3 O6 2.863976 1_464
K3 O3 2.972596 1_554
K3 O0 2.972626 1_455
Na0 O6 2.303135 1_555
Na0 O4 2.303161 1_555
Na0 O2 2.395730 1_555
Na0 O1 2.395751 1_555
Na1 O5 2.303132 1_555
Na1 O7 2.303148 1_545
Na1 O1 2.395674 1_555
Na1 O2 2.395696 1_555
Na2 O6 2.303128 1_565
Na2 O4 2.303163 1_555
Na2 O3 2.395734 1_555
Na2 O0 2.395749 1_555
Na3 O5 2.303129 1_555
Na3 O7 2.303141 1_555
Na3 O0 2.395667 1_555
Na3 O3 2.395682 1_555
Mn0 O1 2.063476 1_555
Mn0 O0 2.063490 1_555
Mn0 O4 2.088436 1_554
Mn0 O5 2.162145 1_555
Mn1 O3 2.063561 1_545
Mn1 O2 2.063573 1_555
Mn1 O6 2.088401 1_455
Mn1 O7 2.162142 1_545
Mn2 O2 2.063354 1_555
Mn2 O3 2.063375 1_555
Mn2 O5 2.088751 1_556
Mn2 O4 2.162481 1_555
Mn3 O0 2.063402 1_545
Mn3 O1 2.063407 1_555
Mn3 O7 2.088728 1_645
Mn3 O6 2.162513 1_555
