# generated using pymatgen
data_Sr2HoGaCu2O7
_symmetry_space_group_name_H-M   'P 1'
_cell_length_a   12.21073949
_cell_length_b   12.21073949
_cell_length_c   12.21073949
_cell_angle_alpha   154.40246354
_cell_angle_beta   153.92416399
_cell_angle_gamma   36.86377227
_symmetry_Int_Tables_number   1
_chemical_formula_structural   Sr2HoGaCu2O7
_chemical_formula_sum   'Sr4 Ho2 Ga2 Cu4 O14'
_cell_volume   345.28179041
_cell_formula_units_Z   2
loop_
 _symmetry_equiv_pos_site_id
 _symmetry_equiv_pos_as_xyz
  1  'x, y, z'
loop_
 _atom_site_type_symbol
 _atom_site_label
 _atom_site_symmetry_multiplicity
 _atom_site_fract_x
 _atom_site_fract_y
 _atom_site_fract_z
 _atom_site_occupancy
  Sr  Sr0  1  0.13481200  0.65183200  0.48446800  1
  Sr  Sr1  1  0.86518800  0.34965600  0.51702000  1
  Sr  Sr2  1  0.66736400  0.15183200  0.51702000  1
  Sr  Sr3  1  0.33263600  0.84965600  0.48446800  1
  Ho  Ho0  1  0.00000000  0.49942500  0.49942500  1
  Ho  Ho1  1  0.50000000  0.99942500  0.49942500  1
  Ga  Ga0  1  0.31910700  0.28723000  0.10633700  1
  Ga  Ga1  1  0.68089300  0.78723000  0.96812300  1
  Cu  Cu0  1  0.07181600  0.07004700  0.99970000  1
  Cu  Cu1  1  0.92818400  0.92788400  0.99823100  1
  Cu  Cu2  1  0.57034700  0.57004700  0.99823100  1
  Cu  Cu3  1  0.42965300  0.42788400  0.99970000  1
  O  O0  1  0.63515200  0.13999100  0.27514300  1
  O  O1  1  0.36484800  0.63999100  0.50483800  1
  O  O2  1  0.31358600  0.81253900  0.99929700  1
  O  O3  1  0.68641400  0.68571100  0.49895300  1
  O  O4  1  0.31324200  0.31253900  0.49895300  1
  O  O5  1  0.68675800  0.18571100  0.99929700  1
  O  O6  1  0.81203000  0.31086700  0.00142100  1
  O  O7  1  0.18797000  0.18939100  0.49883700  1
  O  O8  1  0.80944600  0.81086700  0.49883700  1
  O  O9  1  0.19055400  0.68939100  0.00142100  1
  O  O10  1  0.72026900  0.64790200  0.01540200  1
  O  O11  1  0.27973100  0.29513300  0.92763400  1
  O  O12  1  0.13250100  0.14790200  0.92763400  1
  O  O13  1  0.86749900  0.79513300  0.01540200  1
loop_
_geom_bond_atom_site_label_1
_geom_bond_atom_site_label_2
_geom_bond_distance
_geom_bond_site_symmetry_2
Ho0 O7 2.382599 1_555
Ho0 O6 2.382599 1_455
Ho0 O9 2.395120 1_556
Ho0 O8 2.395120 1_455
Ho0 O2 2.425527 1_555
Ho0 O3 2.425527 1_455
Ho0 O4 2.426261 1_555
Ho0 O5 2.426261 1_454
Ho1 O8 2.382599 1_555
Ho1 O9 2.382599 1_555
Ho1 O6 2.395120 1_566
Ho1 O7 2.395120 1_565
Ho1 O4 2.425527 1_565
Ho1 O5 2.425527 1_565
Ho1 O2 2.426261 1_554
Ho1 O3 2.426261 1_555
Ga0 O11 1.850092 1_554
Ga0 O12 1.850102 1_554
Ga0 O0 1.914770 1_555
Ga0 O1 1.925011 1_555
Ga1 O13 1.850092 1_556
Ga1 O10 1.850104 1_556
Ga1 O1 1.914773 1_555
Ga1 O0 1.925014 1_566
Cu0 O4 1.935593 1_556
Cu0 O2 1.935731 1_545
Cu0 O6 1.947409 1_456
Cu0 O8 1.948764 1_445
Cu0 O12 2.456574 1_555
Cu1 O5 1.935593 1_565
Cu1 O3 1.935731 1_555
Cu1 O7 1.947409 1_666
Cu1 O9 1.948764 1_656
Cu1 O13 2.456586 1_556
Cu2 O2 1.935593 1_555
Cu2 O4 1.935731 1_555
Cu2 O8 1.947409 1_556
Cu2 O6 1.948764 1_556
Cu2 O10 2.456575 1_556
Cu3 O3 1.935593 1_556
Cu3 O5 1.935731 1_555
Cu3 O9 1.947409 1_556
Cu3 O7 1.948764 1_555
Cu3 O11 2.456586 1_555
O0 Sr1 2.476407 1_555
O0 Sr2 2.476407 1_555
O1 Sr3 2.476396 1_555
O1 Sr0 2.476418 1_555
O2 Sr0 2.843715 1_555
O2 Sr2 2.851060 1_566
O3 Sr1 2.843715 1_555
O3 Sr3 2.851060 1_555
O4 Sr2 2.843715 1_555
O4 Sr0 2.851060 1_555
O5 Sr3 2.843715 1_545
O5 Sr1 2.851060 1_556
O6 Sr0 2.803564 1_655
O6 Sr2 2.806891 1_554
O7 Sr1 2.803564 1_455
O7 Sr3 2.806891 1_545
O8 Sr2 2.803564 1_565
O8 Sr0 2.806891 1_655
O9 Sr3 2.803564 1_555
O9 Sr1 2.806891 1_454
O10 Sr0 2.498122 1_655
O10 Sr2 2.617886 1_554
O10 Sr2 2.926458 1_565
O10 Sr0 3.145275 1_554
O11 Sr1 2.498127 1_455
O11 Sr3 2.617891 1_545
O11 Sr3 2.926457 1_556
O11 Sr1 3.145274 1_556
O12 Sr2 2.498127 1_455
O12 Sr0 2.617886 1_545
O12 Sr0 2.926457 1_556
O12 Sr2 3.145269 1_556
O13 Sr3 2.498127 1_655
O13 Sr1 2.617891 1_554
O13 Sr1 2.926457 1_565
O13 Sr3 3.145274 1_554
