# generated using pymatgen
data_Ba2Ge(TeSe)2
_symmetry_space_group_name_H-M   'P 1'
_cell_length_a   7.28759700
_cell_length_b   7.56382500
_cell_length_c   9.49393005
_cell_angle_alpha   71.54456798
_cell_angle_beta   90.00000000
_cell_angle_gamma   90.00000000
_symmetry_Int_Tables_number   1
_chemical_formula_structural   Ba2Ge(TeSe)2
_chemical_formula_sum   'Ba4 Ge2 Te4 Se4'
_cell_volume   496.41091142
_cell_formula_units_Z   2
loop_
 _symmetry_equiv_pos_site_id
 _symmetry_equiv_pos_as_xyz
  1  'x, y, z'
loop_
 _atom_site_type_symbol
 _atom_site_label
 _atom_site_symmetry_multiplicity
 _atom_site_fract_x
 _atom_site_fract_y
 _atom_site_fract_z
 _atom_site_occupancy
  Ba  Ba0  1  0.25000000  0.76206200  0.05973900  1
  Ba  Ba1  1  0.25000000  0.78627500  0.55115100  1
  Ba  Ba2  1  0.75000000  0.21372500  0.44884900  1
  Ba  Ba3  1  0.75000000  0.23793800  0.94026100  1
  Ge  Ge0  1  0.25000000  0.21133800  0.70298400  1
  Ge  Ge1  1  0.75000000  0.78866200  0.29701600  1
  Te  Te0  1  0.25000000  0.40172300  0.88865700  1
  Te  Te1  1  0.25000000  0.37910400  0.41774000  1
  Te  Te2  1  0.75000000  0.62089600  0.58226000  1
  Te  Te3  1  0.75000000  0.59827700  0.11134300  1
  Se  Se0  1  0.50480300  0.00249900  0.75985000  1
  Se  Se1  1  0.00480300  0.99750100  0.24015000  1
  Se  Se2  1  0.49519700  0.99750100  0.24015000  1
  Se  Se3  1  0.99519700  0.00249900  0.75985000  1
loop_
_geom_bond_atom_site_label_1
_geom_bond_atom_site_label_2
_geom_bond_distance
_geom_bond_site_symmetry_2
Ba0 Se1 3.351003 1_555
Ba0 Se2 3.351003 1_555
Ba0 Se3 3.403428 1_464
Ba0 Se0 3.403428 1_564
Ba0 Te0 3.587419 1_554
Ba0 Te1 3.702598 1_555
Ba0 Te3 3.829850 1_455
Ba0 Te3 3.829850 1_555
Ba1 Se2 3.387749 1_555
Ba1 Se1 3.387749 1_555
Ba1 Se3 3.478562 1_465
Ba1 Se0 3.478562 1_565
Ba1 Te0 3.581452 1_555
Ba1 Te1 3.682253 1_555
Ba1 Te2 3.833449 1_455
Ba1 Te2 3.833449 1_555
Ba2 Se3 3.387749 1_555
Ba2 Se0 3.387749 1_555
Ba2 Se1 3.478562 1_645
Ba2 Se2 3.478562 1_545
Ba2 Te3 3.581452 1_555
Ba2 Te2 3.682253 1_555
Ba2 Te1 3.833449 1_655
Ba2 Te1 3.833449 1_555
Ba3 Se3 3.351003 1_555
Ba3 Se0 3.351003 1_555
Ba3 Se1 3.403428 1_646
Ba3 Se2 3.403428 1_546
Ba3 Te3 3.587419 1_556
Ba3 Te2 3.702598 1_555
Ba3 Te0 3.829850 1_555
Ba3 Te0 3.829850 1_655
Ge0 Se3 2.386382 1_455
Ge0 Se0 2.386382 1_555
Ge0 Te1 2.601586 1_555
Ge0 Te0 2.605425 1_555
Ge1 Se1 2.386382 1_655
Ge1 Se2 2.386382 1_555
Ge1 Te2 2.601586 1_555
Ge1 Te3 2.605425 1_555
