# generated using pymatgen
data_K4CoMo4O15
_symmetry_space_group_name_H-M   'P 1'
_cell_length_a   10.47964047
_cell_length_b   10.47964047
_cell_length_c   8.31032600
_cell_angle_alpha   90.00000000
_cell_angle_beta   90.00000000
_cell_angle_gamma   120.00000294
_symmetry_Int_Tables_number   1
_chemical_formula_structural   K4CoMo4O15
_chemical_formula_sum   'K8 Co2 Mo8 O30'
_cell_volume   790.39001638
_cell_formula_units_Z   2
loop_
 _symmetry_equiv_pos_site_id
 _symmetry_equiv_pos_as_xyz
  1  'x, y, z'
loop_
 _atom_site_type_symbol
 _atom_site_label
 _atom_site_symmetry_multiplicity
 _atom_site_fract_x
 _atom_site_fract_y
 _atom_site_fract_z
 _atom_site_occupancy
  K  K0  1  0.09248900  0.69504500  0.14018600  1
  K  K1  1  0.60255600  0.90751100  0.14018600  1
  K  K2  1  0.39744400  0.09248900  0.85981400  1
  K  K3  1  0.00000000  0.00000000  0.00000000  1
  K  K4  1  0.90751100  0.30495500  0.85981400  1
  K  K5  1  0.69504500  0.60255600  0.85981400  1
  K  K6  1  0.30495500  0.39744400  0.14018600  1
  K  K7  1  0.00000000  0.00000000  0.50000000  1
  Co  Co0  1  0.33333300  0.66666700  0.47397800  1
  Co  Co1  1  0.66666700  0.33333300  0.52602200  1
  Mo  Mo0  1  0.98743800  0.32911800  0.36549200  1
  Mo  Mo1  1  0.01256200  0.67088200  0.63450800  1
  Mo  Mo2  1  0.34168000  0.01256200  0.36549200  1
  Mo  Mo3  1  0.66666700  0.33333300  0.14878100  1
  Mo  Mo4  1  0.65832000  0.98743800  0.63450800  1
  Mo  Mo5  1  0.33333300  0.66666700  0.85121900  1
  Mo  Mo6  1  0.67088200  0.65832000  0.36549200  1
  Mo  Mo7  1  0.32911800  0.34168000  0.63450800  1
  O  O0  1  0.47727800  0.81539900  0.65353800  1
  O  O1  1  0.66187900  0.47727800  0.34646200  1
  O  O2  1  0.72955200  0.99011100  0.44191700  1
  O  O3  1  0.48898700  0.63938800  0.34608700  1
  O  O4  1  0.17637100  0.51929000  0.94500600  1
  O  O5  1  0.15040100  0.51101300  0.34608700  1
  O  O6  1  0.27044800  0.00988900  0.55808300  1
  O  O7  1  0.36061200  0.84959900  0.34608700  1
  O  O8  1  0.51929000  0.34291800  0.05499400  1
  O  O9  1  0.84959900  0.48898700  0.65391300  1
  O  O10  1  0.33812100  0.52272200  0.65353800  1
  O  O11  1  0.81539900  0.33812100  0.34646200  1
  O  O12  1  0.99011100  0.26055900  0.55808300  1
  O  O13  1  0.73944100  0.72955200  0.55808300  1
  O  O14  1  0.34291800  0.82362900  0.94500600  1
  O  O15  1  0.82362900  0.48071000  0.05499400  1
  O  O16  1  0.22010400  0.00389500  0.21012000  1
  O  O17  1  0.00988900  0.73944100  0.44191700  1
  O  O18  1  0.65708200  0.17637100  0.05499400  1
  O  O19  1  0.77989600  0.99610500  0.78988000  1
  O  O20  1  0.99610500  0.21620900  0.21012000  1
  O  O21  1  0.52272200  0.18460100  0.34646200  1
  O  O22  1  0.51101300  0.36061200  0.65391300  1
  O  O23  1  0.18460100  0.66187900  0.65353800  1
  O  O24  1  0.26055900  0.27044800  0.44191700  1
  O  O25  1  0.63938800  0.15040100  0.65391300  1
  O  O26  1  0.78379100  0.77989600  0.21012000  1
  O  O27  1  0.00389500  0.78379100  0.78988000  1
  O  O28  1  0.48071000  0.65708200  0.94500600  1
  O  O29  1  0.21620900  0.22010400  0.78988000  1
loop_
_geom_bond_atom_site_label_1
_geom_bond_atom_site_label_2
_geom_bond_distance
_geom_bond_site_symmetry_2
K0 O15 2.675143 1_455
K0 O17 2.766941 1_555
K0 O14 2.792452 1_554
K0 O5 2.861139 1_555
K0 O16 2.876381 1_565
K0 O4 2.900886 1_554
K0 O7 2.982510 1_555
K0 O27 3.326446 1_554
K1 O18 2.675140 1_565
K1 O2 2.766940 1_555
K1 O28 2.792452 1_554
K1 O7 2.861138 1_555
K1 O26 2.876381 1_555
K1 O14 2.900894 1_554
K1 O3 2.982510 1_555
K1 O19 3.326445 1_554
K2 O14 2.675140 1_545
K2 O6 2.766940 1_555
K2 O8 2.792452 1_556
K2 O25 2.861138 1_555
K2 O29 2.876381 1_555
K2 O18 2.900894 1_556
K2 O22 2.982510 1_555
K2 O16 3.326445 1_556
K3 O26 2.876988 1_445
K3 O29 2.876988 1_554
K3 O19 2.876988 1_444
K3 O16 2.876988 1_555
K3 O20 2.876988 1_455
K3 O27 2.876988 1_544
K4 O4 2.675143 1_655
K4 O12 2.766941 1_555
K4 O18 2.792452 1_556
K4 O9 2.861139 1_555
K4 O19 2.876381 1_545
K4 O15 2.900886 1_556
K4 O25 2.982510 1_555
K4 O20 3.326446 1_556
K5 O28 2.675150 1_555
K5 O13 2.766941 1_555
K5 O15 2.792460 1_556
K5 O22 2.861138 1_555
K5 O27 2.876381 1_655
K5 O8 2.900893 1_556
K5 O9 2.982510 1_555
K5 O26 3.326445 1_556
K6 O8 2.675150 1_555
K6 O24 2.766941 1_555
K6 O4 2.792460 1_554
K6 O3 2.861138 1_555
K6 O20 2.876381 1_455
K6 O28 2.900893 1_554
K6 O5 2.982510 1_555
K6 O29 3.326445 1_554
K7 O13 2.825365 1_445
K7 O24 2.825365 1_555
K7 O2 2.825365 1_445
K7 O6 2.825365 1_555
K7 O17 2.825365 1_545
K7 O12 2.825365 1_455
K7 O29 3.321330 1_555
K7 O26 3.321330 1_445
K7 O19 3.321330 1_445
K7 O16 3.321330 1_555
K7 O20 3.321330 1_455
K7 O27 3.321330 1_545
Co0 O7 2.082880 1_555
Co0 O5 2.082883 1_555
Co0 O3 2.082889 1_555
Co0 O23 2.140185 1_555
Co0 O0 2.140188 1_555
Co0 O10 2.140192 1_555
Co1 O25 2.082880 1_555
Co1 O9 2.082883 1_555
Co1 O22 2.082889 1_555
Co1 O11 2.140185 1_555
Co1 O21 2.140188 1_555
Co1 O1 2.140192 1_555
Mo0 O12 1.760311 1_555
Mo0 O20 1.784087 1_555
Mo0 O5 1.822294 1_655
Mo0 O11 1.858625 1_555
Mo1 O17 1.760311 1_555
Mo1 O27 1.784087 1_555
Mo1 O9 1.822294 1_455
Mo1 O23 1.858625 1_555
Mo2 O6 1.760311 1_555
Mo2 O16 1.784087 1_555
Mo2 O7 1.822294 1_545
Mo2 O21 1.858625 1_555
Mo3 O15 1.777088 1_555
Mo3 O18 1.777088 1_555
Mo3 O8 1.777088 1_555
Mo3 O11 2.247776 1_555
Mo3 O21 2.247779 1_555
Mo3 O1 2.247783 1_555
Mo4 O2 1.760311 1_555
Mo4 O19 1.784087 1_555
Mo4 O25 1.822294 1_565
Mo4 O0 1.858625 1_555
Mo5 O4 1.777088 1_555
Mo5 O14 1.777088 1_555
Mo5 O28 1.777088 1_555
Mo5 O23 2.247776 1_555
Mo5 O0 2.247779 1_555
Mo5 O10 2.247783 1_555
Mo6 O13 1.760311 1_555
Mo6 O26 1.784087 1_555
Mo6 O3 1.822294 1_555
Mo6 O1 1.858625 1_555
Mo7 O24 1.760311 1_555
Mo7 O29 1.784087 1_555
Mo7 O22 1.822294 1_555
Mo7 O10 1.858625 1_555
