# generated using pymatgen
data_Tb3Si2Cl5O6
_symmetry_space_group_name_H-M   'P 1'
_cell_length_a   7.48273390
_cell_length_b   7.48273390
_cell_length_c   11.77357766
_cell_angle_alpha   80.62261886
_cell_angle_beta   80.62261886
_cell_angle_gamma   88.81400602
_symmetry_Int_Tables_number   1
_chemical_formula_structural   Tb3Si2Cl5O6
_chemical_formula_sum   'Tb6 Si4 Cl10 O12'
_cell_volume   641.70529317
_cell_formula_units_Z   2
loop_
 _symmetry_equiv_pos_site_id
 _symmetry_equiv_pos_as_xyz
  1  'x, y, z'
loop_
 _atom_site_type_symbol
 _atom_site_label
 _atom_site_symmetry_multiplicity
 _atom_site_fract_x
 _atom_site_fract_y
 _atom_site_fract_z
 _atom_site_occupancy
  Tb  Tb0  1  0.41604600  0.91816800  0.33040000  1
  Tb  Tb1  1  0.58395400  0.08183200  0.66960000  1
  Tb  Tb2  1  0.00000000  0.50000000  0.00000000  1
  Tb  Tb3  1  0.91816800  0.41604600  0.33040000  1
  Tb  Tb4  1  0.50000000  0.00000000  0.00000000  1
  Tb  Tb5  1  0.08183200  0.58395400  0.66960000  1
  Si  Si0  1  0.18207000  0.89020100  0.85592800  1
  Si  Si1  1  0.81793000  0.10979900  0.14407200  1
  Si  Si2  1  0.89020100  0.18207000  0.85592800  1
  Si  Si3  1  0.10979900  0.81793000  0.14407200  1
  Cl  Cl0  1  0.21934600  0.21934600  0.33872900  1
  Cl  Cl1  1  0.31414100  0.31414100  0.99823500  1
  Cl  Cl2  1  0.78065400  0.78065400  0.66127100  1
  Cl  Cl3  1  0.67257100  0.11630900  0.42085400  1
  Cl  Cl4  1  0.38083800  0.38083800  0.64596600  1
  Cl  Cl5  1  0.32742900  0.88369100  0.57914600  1
  Cl  Cl6  1  0.11630900  0.67257100  0.42085400  1
  Cl  Cl7  1  0.68585900  0.68585900  0.00176500  1
  Cl  Cl8  1  0.61916200  0.61916200  0.35403400  1
  Cl  Cl9  1  0.88369100  0.32742900  0.57914600  1
  O  O0  1  0.30685600  0.86876500  0.17192900  1
  O  O1  1  0.69314400  0.13123500  0.82807100  1
  O  O2  1  0.13123500  0.69314400  0.82807100  1
  O  O3  1  0.95237800  0.95237800  0.19340000  1
  O  O4  1  0.95643300  0.39256900  0.82798100  1
  O  O5  1  0.86876500  0.30685600  0.17192900  1
  O  O6  1  0.39256900  0.95643300  0.82798100  1
  O  O7  1  0.14389200  0.85610800  0.00000000  1
  O  O8  1  0.04356700  0.60743100  0.17201900  1
  O  O9  1  0.60743100  0.04356700  0.17201900  1
  O  O10  1  0.04762200  0.04762200  0.80660000  1
  O  O11  1  0.85610800  0.14389200  0.00000000  1
loop_
_geom_bond_atom_site_label_1
_geom_bond_atom_site_label_2
_geom_bond_distance
_geom_bond_site_symmetry_2
Cl0 Tb0 2.672548 1_545
Cl0 Tb3 2.672548 1_455
Cl1 Tb2 2.705221 1_556
Cl1 Tb4 2.705221 1_556
Cl2 Tb5 2.672548 1_655
Cl2 Tb1 2.672548 1_565
Cl3 Tb1 2.865513 1_555
Cl3 Tb3 2.880330 1_555
Cl3 Tb0 2.883640 1_545
Cl4 Tb1 2.680944 1_555
Cl4 Tb5 2.680944 1_555
Cl5 Tb0 2.865513 1_555
Cl5 Tb5 2.880330 1_555
Cl5 Tb1 2.883640 1_565
Cl6 Tb5 2.865513 1_555
Cl6 Tb0 2.880330 1_555
Cl6 Tb3 2.883640 1_455
Cl7 Tb4 2.705221 1_565
Cl7 Tb2 2.705221 1_655
Cl8 Tb0 2.680944 1_555
Cl8 Tb3 2.680944 1_555
Cl9 Tb3 2.865513 1_555
Cl9 Tb1 2.880330 1_555
Cl9 Tb5 2.883640 1_655
O0 Si3 1.627254 1_555
O0 Tb0 2.240388 1_555
O0 Tb4 2.368156 1_565
O1 Si2 1.627254 1_555
O1 Tb1 2.240388 1_555
O1 Tb4 2.368156 1_556
O2 Si0 1.627254 1_555
O2 Tb5 2.240388 1_555
O2 Tb2 2.368156 1_556
O3 Si3 1.629526 1_655
O3 Si1 1.629526 1_565
O4 Si2 1.626386 1_555
O4 Tb5 2.241360 1_655
O4 Tb2 2.368713 1_656
O5 Si1 1.627254 1_555
O5 Tb3 2.240388 1_555
O5 Tb2 2.368156 1_655
O6 Si0 1.626386 1_555
O6 Tb1 2.241360 1_565
O6 Tb4 2.368713 1_566
O7 Si3 1.651673 1_555
O7 Si0 1.651673 1_554
O7 Tb4 2.894561 1_565
O7 Tb2 2.894561 1_555
O8 Si3 1.626386 1_555
O8 Tb3 2.241360 1_455
O8 Tb2 2.368713 1_555
O9 Si1 1.626386 1_555
O9 Tb0 2.241360 1_545
O9 Tb4 2.368713 1_555
O10 Si2 1.629526 1_455
O10 Si0 1.629526 1_545
O11 Si1 1.651673 1_555
O11 Si2 1.651673 1_554
O11 Tb4 2.894561 1_555
O11 Tb2 2.894561 1_655
