# generated using pymatgen
data_Ti2NiP5
_symmetry_space_group_name_H-M   'P 1'
_cell_length_a   3.32164533
_cell_length_b   11.12746732
_cell_length_c   12.40654873
_cell_angle_alpha   89.99947037
_cell_angle_beta   89.99999755
_cell_angle_gamma   90.00001060
_symmetry_Int_Tables_number   1
_chemical_formula_structural   Ti2NiP5
_chemical_formula_sum   'Ti8 Ni4 P20'
_cell_volume   458.56464911
_cell_formula_units_Z   4
loop_
 _symmetry_equiv_pos_site_id
 _symmetry_equiv_pos_as_xyz
  1  'x, y, z'
loop_
 _atom_site_type_symbol
 _atom_site_label
 _atom_site_symmetry_multiplicity
 _atom_site_fract_x
 _atom_site_fract_y
 _atom_site_fract_z
 _atom_site_occupancy
  Ti  Ti0  1  0.74999990  0.40372746  0.26593026  1
  Ti  Ti1  1  0.25000047  0.59628129  0.73407382  1
  Ti  Ti2  1  0.75000012  0.90371767  0.23408348  1
  Ti  Ti3  1  0.25000045  0.09627579  0.76591347  1
  Ti  Ti4  1  0.74999974  0.15616461  0.09896890  1
  Ti  Ti5  1  0.25000012  0.84383466  0.90104212  1
  Ti  Ti6  1  0.74999997  0.65617038  0.40103853  1
  Ti  Ti7  1  0.24999996  0.34383272  0.59895445  1
  Ni  Ni0  1  0.74999976  0.15517656  0.32929588  1
  Ni  Ni1  1  0.24999970  0.84481732  0.67069872  1
  Ni  Ni2  1  0.74999971  0.65518545  0.17072914  1
  Ni  Ni3  1  0.24999983  0.34480970  0.82928655  1
  P  P0  1  0.75000012  0.43357201  0.46467113  1
  P  P1  1  0.25000008  0.56643465  0.53532819  1
  P  P2  1  0.75000016  0.93356797  0.03533121  1
  P  P3  1  0.24999996  0.06642783  0.96466977  1
  P  P4  1  0.75000000  0.42614717  0.73127411  1
  P  P5  1  0.24999993  0.57386394  0.26872617  1
  P  P6  1  0.74999974  0.92614849  0.76870806  1
  P  P7  1  0.25000006  0.07384823  0.23129030  1
  P  P8  1  0.75000006  0.21727809  0.88687247  1
  P  P9  1  0.24999990  0.78271682  0.11311665  1
  P  P10  1  0.74999980  0.71730376  0.61309311  1
  P  P11  1  0.24999991  0.28270530  0.38690400  1
  P  P12  1  0.75000032  0.17565008  0.62549848  1
  P  P13  1  0.25000000  0.82435300  0.37451023  1
  P  P14  1  0.75000031  0.67563731  0.87449148  1
  P  P15  1  0.24999993  0.32436170  0.12551402  1
  P  P16  1  0.74999994  0.06230866  0.48223148  1
  P  P17  1  0.24999998  0.93768529  0.51776814  1
  P  P18  1  0.75000012  0.56232398  0.01775658  1
  P  P19  1  0.24999994  0.43767411  0.98223109  1
loop_
_geom_bond_atom_site_label_1
_geom_bond_atom_site_label_2
_geom_bond_distance
_geom_bond_site_symmetry_2
Ni0 P16 2.160552 1_555
Ni0 P7 2.248505 1_555
Ni0 P7 2.248506 1_655
Ni0 P11 2.298464 1_555
Ni0 P11 2.298464 1_655
Ni0 Ti4 2.857584 1_555
Ni1 P17 2.160498 1_555
Ni1 P6 2.248544 1_455
Ni1 P6 2.248544 1_555
Ni1 P10 2.298350 1_455
Ni1 P10 2.298351 1_555
Ni1 Ti5 2.857787 1_555
Ni2 P18 2.160937 1_555
Ni2 P5 2.248408 1_555
Ni2 P5 2.248409 1_655
Ni2 P9 2.298491 1_555
Ni2 P9 2.298491 1_655
Ni2 Ti6 2.857366 1_555
Ni3 P19 2.160648 1_555
Ni3 P4 2.248583 1_455
Ni3 P4 2.248584 1_555
Ni3 P8 2.298389 1_455
Ni3 P8 2.298391 1_555
Ni3 Ti7 2.857647 1_555
P0 P1 2.390092 1_655
P0 P1 2.390093 1_555
P0 Ti0 2.487955 1_555
P0 P11 2.550978 1_655
P0 P11 2.550979 1_555
P0 Ti7 2.555577 1_655
P0 Ti7 2.555578 1_555
P0 Ti6 2.599716 1_555
P1 Ti1 2.488017 1_555
P1 P10 2.550985 1_555
P1 P10 2.550987 1_455
P1 Ti6 2.555613 1_555
P1 Ti6 2.555614 1_455
P1 Ti7 2.599730 1_555
P2 P3 2.390082 1_664
P2 P3 2.390084 1_564
P2 Ti2 2.488098 1_555
P2 P9 2.550939 1_655
P2 P9 2.550939 1_555
P2 Ti5 2.555610 1_654
P2 Ti5 2.555610 1_554
P2 Ti4 2.599731 1_565
P3 Ti3 2.488144 1_555
P3 P8 2.550988 1_555
P3 P8 2.550988 1_455
P3 Ti4 2.555706 1_556
P3 Ti4 2.555707 1_456
P3 Ti5 2.599656 1_545
P4 Ti7 2.508441 1_655
P4 Ti7 2.508441 1_555
P4 Ti1 2.518650 1_555
P4 Ti1 2.518652 1_655
P5 Ti6 2.508349 1_455
P5 Ti6 2.508349 1_555
P5 Ti0 2.518670 1_455
P5 Ti0 2.518670 1_555
P6 Ti5 2.508543 1_555
P6 Ti5 2.508545 1_655
P6 Ti3 2.518591 1_565
P6 Ti3 2.518594 1_665
P7 Ti4 2.508451 1_555
P7 Ti4 2.508453 1_455
P7 Ti2 2.518619 1_445
P7 Ti2 2.518620 1_545
P8 Ti3 2.612153 1_555
P8 Ti3 2.612155 1_655
P8 Ti4 2.717831 1_556
P9 Ti2 2.612201 1_455
P9 Ti2 2.612201 1_555
P9 Ti5 2.717580 1_554
P10 Ti1 2.612408 1_555
P10 Ti1 2.612411 1_655
P10 Ti6 2.717396 1_555
P11 Ti0 2.612358 1_555
P11 Ti0 2.612358 1_455
P11 Ti7 2.717330 1_555
P12 P16 2.179449 1_555
P12 Ti7 2.523704 1_655
P12 Ti7 2.523706 1_555
P12 Ti3 2.563825 1_555
P12 Ti3 2.563826 1_655
P13 P17 2.179299 1_555
P13 Ti6 2.523679 1_455
P13 Ti6 2.523679 1_555
P13 Ti2 2.563887 1_455
P13 Ti2 2.563887 1_555
P14 P18 2.179230 1_556
P14 Ti5 2.523841 1_655
P14 Ti5 2.523842 1_555
P14 Ti1 2.563788 1_555
P14 Ti1 2.563789 1_655
P15 P19 2.179405 1_554
P15 Ti4 2.523830 1_555
P15 Ti4 2.523830 1_455
P15 Ti0 2.563814 1_555
P15 Ti0 2.563814 1_455
P16 P17 2.208111 1_545
P16 P17 2.208112 1_645
P18 P19 2.208274 1_654
P18 P19 2.208275 1_554
