# generated using pymatgen
data_RbMoIO6
_symmetry_space_group_name_H-M   'P 1'
_cell_length_a   7.49920700
_cell_length_b   7.84686300
_cell_length_c   10.46506200
_cell_angle_alpha   90.00000000
_cell_angle_beta   90.00000000
_cell_angle_gamma   90.00000000
_symmetry_Int_Tables_number   1
_chemical_formula_structural   RbMoIO6
_chemical_formula_sum   'Rb4 Mo4 I4 O24'
_cell_volume   615.81918900
_cell_formula_units_Z   4
loop_
 _symmetry_equiv_pos_site_id
 _symmetry_equiv_pos_as_xyz
  1  'x, y, z'
loop_
 _atom_site_type_symbol
 _atom_site_label
 _atom_site_symmetry_multiplicity
 _atom_site_fract_x
 _atom_site_fract_y
 _atom_site_fract_z
 _atom_site_occupancy
  Rb  Rb0  1  0.86298500  0.01847900  0.61844200  1
  Rb  Rb1  1  0.36298500  0.98152100  0.38155800  1
  Rb  Rb2  1  0.86298500  0.51847900  0.88155800  1
  Rb  Rb3  1  0.36298500  0.48152100  0.11844200  1
  Mo  Mo0  1  0.09454500  0.50784800  0.52870600  1
  Mo  Mo1  1  0.59454500  0.49215200  0.47129400  1
  Mo  Mo2  1  0.09454500  0.00784800  0.97129400  1
  Mo  Mo3  1  0.59454500  0.99215200  0.02870600  1
  I  I0  1  0.43088700  0.27855500  0.74091200  1
  I  I1  1  0.93088700  0.22144500  0.24091200  1
  I  I2  1  0.93088700  0.72144500  0.25908800  1
  I  I3  1  0.43088700  0.77855500  0.75908800  1
  O  O0  1  0.04761100  0.27882400  0.38980800  1
  O  O1  1  0.63363900  0.36291900  0.65949000  1
  O  O2  1  0.04761100  0.77882400  0.11019200  1
  O  O3  1  0.53190900  0.13163300  0.15133400  1
  O  O4  1  0.13363900  0.13708100  0.15949000  1
  O  O5  1  0.03190900  0.86836700  0.84866600  1
  O  O6  1  0.13020300  0.70151900  0.60906000  1
  O  O7  1  0.33853900  0.43774600  0.51936500  1
  O  O8  1  0.54761100  0.72117600  0.61019200  1
  O  O9  1  0.63363900  0.86291900  0.84051000  1
  O  O10  1  0.63020300  0.79848100  0.10906000  1
  O  O11  1  0.03190900  0.36836700  0.65133400  1
  O  O12  1  0.53190900  0.63163300  0.34866600  1
  O  O13  1  0.42227200  0.57187400  0.84287500  1
  O  O14  1  0.42227200  0.07187400  0.65712500  1
  O  O15  1  0.83853900  0.56225400  0.48063500  1
  O  O16  1  0.92227200  0.42812600  0.15712500  1
  O  O17  1  0.33853900  0.93774600  0.98063500  1
  O  O18  1  0.54761100  0.22117600  0.88980800  1
  O  O19  1  0.92227200  0.92812600  0.34287500  1
  O  O20  1  0.13363900  0.63708100  0.34051000  1
  O  O21  1  0.13020300  0.20151900  0.89094000  1
  O  O22  1  0.83853900  0.06225400  0.01936500  1
  O  O23  1  0.63020300  0.29848100  0.39094000  1
loop_
_geom_bond_atom_site_label_1
_geom_bond_atom_site_label_2
_geom_bond_distance
_geom_bond_site_symmetry_2
Mo0 O11 1.750836 1_555
Mo0 O6 1.757314 1_555
Mo0 O7 1.913158 1_555
Mo0 O15 2.030056 1_455
Mo0 O20 2.234538 1_555
Mo0 O0 2.338034 1_555
Mo1 O12 1.750836 1_555
Mo1 O23 1.757314 1_555
Mo1 O15 1.913158 1_555
Mo1 O7 2.030056 1_555
Mo1 O1 2.234538 1_555
Mo1 O8 2.338034 1_555
Mo2 O5 1.750836 1_545
Mo2 O21 1.757314 1_555
Mo2 O17 1.913158 1_545
Mo2 O22 2.030056 1_456
Mo2 O4 2.234538 1_556
Mo2 O2 2.338034 1_546
Mo3 O3 1.750836 1_565
Mo3 O10 1.757314 1_555
Mo3 O22 1.913158 1_565
Mo3 O17 2.030056 1_554
Mo3 O9 2.234538 1_554
Mo3 O18 2.338034 1_564
I0 O18 1.843079 1_555
I0 O14 1.844788 1_555
I0 O1 1.864442 1_555
I1 O0 1.843079 1_655
I1 O16 1.844788 1_555
I1 O4 1.864442 1_655
I2 O2 1.843079 1_655
I2 O19 1.844788 1_555
I2 O20 1.864442 1_655
I3 O8 1.843079 1_555
I3 O13 1.844788 1_555
I3 O9 1.864442 1_555
O0 Rb1 3.323152 1_545
O0 Rb0 3.437331 1_455
O1 Rb2 3.138292 1_555
O1 Rb0 3.232277 1_555
O2 Rb3 3.323152 1_555
O2 Rb2 3.437331 1_454
O3 Rb1 2.965975 1_545
O3 Rb3 3.043215 1_555
O4 Rb1 3.138292 1_545
O4 Rb3 3.232277 1_555
O5 Rb0 2.965975 1_465
O5 Rb2 3.043215 1_455
O6 Rb0 3.195500 1_465
O8 Rb0 3.323152 1_565
O8 Rb1 3.437331 1_555
O9 Rb0 3.138292 1_565
O9 Rb2 3.232277 1_555
O10 Rb3 3.195500 1_555
O11 Rb2 2.965975 1_455
O11 Rb0 3.043215 1_455
O12 Rb3 2.965975 1_555
O12 Rb1 3.043215 1_555
O13 Rb3 3.002797 1_556
O13 Rb2 3.355956 1_555
O14 Rb1 3.002797 1_545
O14 Rb0 3.355956 1_555
O16 Rb2 3.002797 1_554
O16 Rb3 3.355956 1_655
O18 Rb2 3.323152 1_555
O18 Rb3 3.437331 1_556
O19 Rb0 3.002797 1_565
O19 Rb1 3.355956 1_655
O20 Rb3 3.138292 1_555
O20 Rb1 3.232277 1_555
O21 Rb2 3.195500 1_455
O23 Rb1 3.195500 1_545
