# generated using pymatgen
data_MgGa2
_symmetry_space_group_name_H-M   'P 1'
_cell_length_a   4.11491062
_cell_length_b   6.65192882
_cell_length_c   16.18702824
_cell_angle_alpha   89.99955172
_cell_angle_beta   89.99985460
_cell_angle_gamma   90.00000000
_symmetry_Int_Tables_number   1
_chemical_formula_structural   MgGa2
_chemical_formula_sum   'Mg8 Ga16'
_cell_volume   443.07283500
_cell_formula_units_Z   8
loop_
 _symmetry_equiv_pos_site_id
 _symmetry_equiv_pos_as_xyz
  1  'x, y, z'
loop_
 _atom_site_type_symbol
 _atom_site_label
 _atom_site_symmetry_multiplicity
 _atom_site_fract_x
 _atom_site_fract_y
 _atom_site_fract_z
 _atom_site_occupancy
  Mg  Mg0  1  0.99999900  0.32686125  0.07809963  1
  Mg  Mg1  1  0.00000100  0.30047530  0.77855762  1
  Mg  Mg2  1  0.00000100  0.67316010  0.92186857  1
  Mg  Mg3  1  -0.00000000  0.69945457  0.22139678  1
  Mg  Mg4  1  0.99999700  0.80046099  0.72144651  1
  Mg  Mg5  1  0.00000100  0.82683366  0.42191235  1
  Mg  Mg6  1  0.99999900  0.17321300  0.57813865  1
  Mg  Mg7  1  0.00000100  0.19939858  0.27862767  1
  Ga  Ga0  1  0.50000000  0.35650875  0.93741933  1
  Ga  Ga1  1  0.50000000  0.14348961  0.43750873  1
  Ga  Ga2  1  0.49999900  0.47670069  0.65842737  1
  Ga  Ga3  1  0.50000000  0.85658708  0.56264282  1
  Ga  Ga4  1  0.00000000  0.89795216  0.06633810  1
  Ga  Ga5  1  -0.00000000  0.10217663  0.93344466  1
  Ga  Ga6  1  0.50000100  0.52312930  0.34164863  1
  Ga  Ga7  1  0.50000000  0.40543373  0.18997812  1
  Ga  Ga8  1  0.50000000  0.64351403  0.06242086  1
  Ga  Ga9  1  -0.00000000  0.60218273  0.56654011  1
  Ga  Ga10  1  0.50000000  0.90546967  0.30999659  1
  Ga  Ga11  1  0.50000000  0.97673805  0.84157405  1
  Ga  Ga12  1  0.49999900  0.09462487  0.68998393  1
  Ga  Ga13  1  0.50000000  0.02305741  0.15833969  1
  Ga  Ga14  1  0.50000000  0.59462225  0.81005520  1
  Ga  Ga15  1  -0.00000000  0.39795459  0.43363604  1
loop_
_geom_bond_atom_site_label_1
_geom_bond_atom_site_label_2
_geom_bond_distance
_geom_bond_site_symmetry_2
Ga0 Ga14 2.599831 1_555
Ga0 Ga5 2.664479 1_655
Ga0 Ga5 2.664479 1_555
Ga0 Ga8 2.781912 1_556
Ga0 Mg2 2.955189 1_555
Ga0 Mg2 2.955194 1_655
Ga0 Ga11 2.964588 1_545
Ga0 Mg0 3.075325 1_456
Ga0 Mg0 3.075327 1_556
Ga0 Mg1 3.314312 1_655
Ga0 Mg1 3.314315 1_555
Ga1 Ga10 2.601372 1_545
Ga1 Ga15 2.665000 1_655
Ga1 Ga15 2.665000 1_555
Ga1 Ga3 2.782982 1_545
Ga1 Mg5 2.955276 1_545
Ga1 Mg5 2.955281 1_645
Ga1 Ga6 2.963951 1_555
Ga1 Mg6 3.074756 1_455
Ga1 Mg6 3.074758 1_555
Ga1 Mg7 3.314457 1_655
Ga1 Mg7 3.314460 1_555
Ga2 Ga9 2.672476 1_555
Ga2 Ga9 2.672476 1_655
Ga2 Ga3 2.964709 1_555
Ga2 Mg1 3.064059 1_555
Ga2 Mg1 3.064077 1_655
Ga2 Mg4 3.148309 1_555
Ga2 Mg4 3.148316 1_455
Ga2 Mg6 3.161909 1_555
Ga2 Mg6 3.161913 1_455
Ga3 Ga9 2.664753 1_555
Ga3 Ga9 2.664754 1_655
Ga3 Mg6 2.954995 1_565
Ga3 Mg6 2.955000 1_465
Ga3 Mg5 3.075974 1_655
Ga3 Mg5 3.075976 1_555
Ga3 Mg4 3.313646 1_555
Ga3 Mg4 3.313653 1_455
Ga4 Ga5 2.544187 1_564
Ga4 Ga8 2.664904 1_555
Ga4 Ga8 2.664905 1_455
Ga4 Mg2 2.775736 1_554
Ga4 Mg3 2.836050 1_555
Ga4 Mg0 2.859419 1_465
Ga5 Mg0 2.777881 1_456
Ga5 Mg1 2.832975 1_555
Ga5 Mg2 2.859934 1_545
Ga6 Ga7 2.576908 1_555
Ga6 Mg3 3.065565 1_655
Ga6 Mg3 3.065578 1_555
Ga6 Mg7 3.148185 1_655
Ga6 Mg7 3.148189 1_555
Ga6 Mg5 3.162663 1_555
Ga6 Mg5 3.162668 1_655
Ga7 Ga8 2.602176 1_555
Ga7 Mg0 2.790327 1_555
Ga7 Mg0 2.790339 1_455
Ga7 Mg7 2.858420 1_555
Ga7 Mg7 2.858431 1_655
Ga7 Mg3 2.883913 1_555
Ga7 Mg3 2.883915 1_655
Ga8 Mg0 2.955373 1_555
Ga8 Mg0 2.955378 1_455
Ga8 Mg2 3.073790 1_654
Ga8 Mg2 3.073792 1_554
Ga8 Mg3 3.315674 1_555
Ga8 Mg3 3.315682 1_655
Ga9 Mg5 2.777370 1_555
Ga9 Mg4 2.833207 1_455
Ga9 Mg6 2.859644 1_455
Ga10 Ga13 2.576469 1_565
Ga10 Ga6 2.594391 1_555
Ga10 Mg5 2.790792 1_555
Ga10 Mg5 2.790805 1_655
Ga10 Mg3 2.857965 1_655
Ga10 Mg3 2.857970 1_555
Ga10 Mg7 2.883350 1_565
Ga10 Mg7 2.883354 1_665
Ga11 Ga12 2.576044 1_565
Ga11 Ga14 2.592509 1_555
Ga11 Ga5 2.672240 1_565
Ga11 Ga5 2.672246 1_665
Ga11 Mg4 3.064172 1_555
Ga11 Mg4 3.064195 1_455
Ga11 Mg1 3.148181 1_565
Ga11 Mg1 3.148183 1_665
Ga11 Mg2 3.162315 1_555
Ga11 Mg2 3.162325 1_655
Ga12 Ga2 2.592361 1_555
Ga12 Ga3 2.599248 1_545
Ga12 Mg6 2.789995 1_555
Ga12 Mg6 2.790002 1_455
Ga12 Mg1 2.857222 1_555
Ga12 Mg1 2.857239 1_655
Ga12 Mg4 2.884675 1_545
Ga12 Mg4 2.884685 1_445
Ga13 Ga7 2.594590 1_555
Ga13 Ga4 2.672729 1_645
Ga13 Ga4 2.672735 1_545
Ga13 Ga8 2.963923 1_545
Ga13 Mg7 3.065989 1_555
Ga13 Mg7 3.066001 1_655
Ga13 Mg3 3.147782 1_545
Ga13 Mg3 3.147786 1_645
Ga13 Mg0 3.162913 1_555
Ga13 Mg0 3.162923 1_455
Ga14 Ga2 2.576707 1_555
Ga14 Mg2 2.789599 1_555
Ga14 Mg2 2.789612 1_655
Ga14 Mg4 2.857455 1_555
Ga14 Mg4 2.857478 1_455
Ga14 Mg1 2.884707 1_555
Ga14 Mg1 2.884711 1_655
Ga15 Ga9 2.544363 1_555
Ga15 Ga6 2.672741 1_455
Ga15 Ga6 2.672741 1_555
Ga15 Mg6 2.775987 1_455
Ga15 Mg7 2.835528 1_555
Ga15 Mg5 2.859176 1_555
