# generated using pymatgen
data_CdI2
_symmetry_space_group_name_H-M   'P 1'
_cell_length_a   4.33444657
_cell_length_b   4.33444657
_cell_length_c   127.15438700
_cell_angle_alpha   90.00000000
_cell_angle_beta   90.00000000
_cell_angle_gamma   120.00000863
_symmetry_Int_Tables_number   1
_chemical_formula_structural   CdI2
_chemical_formula_sum   'Cd17 I34'
_cell_volume   2068.85116948
_cell_formula_units_Z   17
loop_
 _symmetry_equiv_pos_site_id
 _symmetry_equiv_pos_as_xyz
  1  'x, y, z'
loop_
 _atom_site_type_symbol
 _atom_site_label
 _atom_site_symmetry_multiplicity
 _atom_site_fract_x
 _atom_site_fract_y
 _atom_site_fract_z
 _atom_site_occupancy
  Cd  Cd0  1  0.00000000  0.00000000  0.60296500  1
  Cd  Cd1  1  0.00000000  0.00000000  0.72057000  1
  Cd  Cd2  1  0.66666700  0.33333300  0.36767400  1
  Cd  Cd3  1  0.00000000  0.00000000  0.48528200  1
  Cd  Cd4  1  0.00000000  0.00000000  0.95585800  1
  Cd  Cd5  1  0.00000000  0.00000000  0.54414600  1
  Cd  Cd6  1  0.00000000  0.00000000  0.89703500  1
  Cd  Cd7  1  0.00000000  0.00000000  0.30881100  1
  Cd  Cd8  1  0.66666700  0.33333300  0.25000800  1
  Cd  Cd9  1  0.00000000  0.00000000  0.83822700  1
  Cd  Cd10  1  0.00000000  0.00000000  0.42646700  1
  Cd  Cd11  1  0.00000000  0.00000000  0.66176800  1
  Cd  Cd12  1  0.66666700  0.33333300  0.01472200  1
  Cd  Cd13  1  0.66666700  0.33333300  0.13236100  1
  Cd  Cd14  1  0.00000000  0.00000000  0.07352200  1
  Cd  Cd15  1  0.00000000  0.00000000  0.77940300  1
  Cd  Cd16  1  0.00000000  0.00000000  0.19117500  1
  I  I0  1  0.33333300  0.66666700  0.32237600  1
  I  I1  1  0.33333300  0.66666700  0.44003300  1
  I  I2  1  0.33333300  0.66666700  0.55770700  1
  I  I3  1  0.66666700  0.33333300  0.47171200  1
  I  I4  1  0.66666700  0.33333300  0.58939300  1
  I  I5  1  0.66666700  0.33333300  0.88347100  1
  I  I6  1  0.33333300  0.66666700  0.14592700  1
  I  I7  1  0.66666700  0.33333300  0.17761000  1
  I  I8  1  0.66666700  0.33333300  0.64821200  1
  I  I9  1  0.00000000  0.00000000  0.23645100  1
  I  I10  1  0.33333300  0.66666700  0.20474200  1
  I  I11  1  0.33333300  0.66666700  0.67532900  1
  I  I12  1  0.00000000  0.00000000  0.11879700  1
  I  I13  1  0.33333300  0.66666700  0.38123500  1
  I  I14  1  0.66666700  0.33333300  0.41289600  1
  I  I15  1  0.66666700  0.33333300  0.05995900  1
  I  I16  1  0.66666700  0.33333300  0.94229700  1
  I  I17  1  0.33333300  0.66666700  0.02829000  1
  I  I18  1  0.00000000  0.00000000  0.00115600  1
  I  I19  1  0.66666700  0.33333300  0.53058200  1
  I  I20  1  0.00000000  0.00000000  0.35411400  1
  I  I21  1  0.33333300  0.66666700  0.61652600  1
  I  I22  1  0.66666700  0.33333300  0.70700900  1
  I  I23  1  0.33333300  0.66666700  0.91060900  1
  I  I24  1  0.33333300  0.66666700  0.08709000  1
  I  I25  1  0.33333300  0.66666700  0.79296700  1
  I  I26  1  0.66666700  0.33333300  0.29524700  1
  I  I27  1  0.66666700  0.33333300  0.82466700  1
  I  I28  1  0.33333300  0.66666700  0.96942700  1
  I  I29  1  0.66666700  0.33333300  0.76585500  1
  I  I30  1  0.33333300  0.66666700  0.73412100  1
  I  I31  1  0.33333300  0.66666700  0.26356900  1
  I  I32  1  0.33333300  0.66666700  0.85178400  1
  I  I33  1  0.33333300  0.66666700  0.49884300  1
loop_
_geom_bond_atom_site_label_1
_geom_bond_atom_site_label_2
_geom_bond_distance
_geom_bond_site_symmetry_2
Cd0 I21 3.039048 1_545
Cd0 I21 3.039051 1_445
Cd0 I21 3.039051 1_555
Cd0 I4 3.039842 1_455
Cd0 I4 3.039845 1_445
Cd0 I4 3.039845 1_555
Cd1 I30 3.038327 1_545
Cd1 I30 3.038330 1_555
Cd1 I30 3.038330 1_445
Cd1 I22 3.039048 1_455
Cd1 I22 3.039051 1_555
Cd1 I22 3.039051 1_445
Cd2 I20 3.038976 1_655
Cd2 I20 3.038979 1_555
Cd2 I20 3.038979 1_665
Cd2 I13 3.039048 1_545
Cd2 I13 3.039048 1_655
Cd2 I13 3.039054 1_555
Cd3 I33 3.039048 1_545
Cd3 I33 3.039051 1_555
Cd3 I33 3.039051 1_445
Cd3 I3 3.039698 1_455
Cd3 I3 3.039701 1_445
Cd3 I3 3.039701 1_555
Cd4 I16 3.039048 1_455
Cd4 I16 3.039051 1_445
Cd4 I16 3.039051 1_555
Cd4 I28 3.039626 1_545
Cd4 I28 3.039628 1_445
Cd4 I28 3.039628 1_555
Cd5 I2 3.039048 1_545
Cd5 I2 3.039051 1_445
Cd5 I2 3.039051 1_555
Cd5 I19 3.039265 1_455
Cd5 I19 3.039268 1_445
Cd5 I19 3.039268 1_555
Cd6 I5 3.039265 1_455
Cd6 I5 3.039268 1_445
Cd6 I5 3.039268 1_555
Cd6 I23 3.039986 1_545
Cd6 I23 3.039989 1_445
Cd6 I23 3.039989 1_555
Cd7 I26 3.039265 1_455
Cd7 I26 3.039268 1_445
Cd7 I26 3.039268 1_555
Cd7 I0 3.039337 1_545
Cd7 I0 3.039340 1_445
Cd7 I0 3.039340 1_555
Cd8 I9 3.038760 1_655
Cd8 I9 3.038763 1_555
Cd8 I9 3.038763 1_665
Cd8 I31 3.039048 1_545
Cd8 I31 3.039048 1_655
Cd8 I31 3.039054 1_555
Cd9 I32 3.038760 1_545
Cd9 I32 3.038763 1_445
Cd9 I32 3.038763 1_555
Cd9 I27 3.038976 1_455
Cd9 I27 3.038979 1_555
Cd9 I27 3.038979 1_445
Cd10 I1 3.039409 1_545
Cd10 I1 3.039412 1_445
Cd10 I1 3.039412 1_555
Cd10 I14 3.039770 1_455
Cd10 I14 3.039773 1_445
Cd10 I14 3.039773 1_555
Cd11 I8 3.038688 1_455
Cd11 I8 3.038690 1_555
Cd11 I8 3.038690 1_445
Cd11 I11 3.039048 1_545
Cd11 I11 3.039051 1_445
Cd11 I11 3.039051 1_555
Cd12 I18 3.039409 1_655
Cd12 I18 3.039412 1_555
Cd12 I18 3.039412 1_665
Cd12 I17 3.039553 1_545
Cd12 I17 3.039553 1_655
Cd12 I17 3.039560 1_555
Cd13 I12 3.039265 1_655
Cd13 I12 3.039268 1_555
Cd13 I12 3.039268 1_665
Cd13 I6 3.039409 1_545
Cd13 I6 3.039409 1_655
Cd13 I6 3.039415 1_555
Cd14 I15 3.039193 1_455
Cd14 I15 3.039195 1_445
Cd14 I15 3.039195 1_555
Cd14 I24 3.039553 1_545
Cd14 I24 3.039556 1_445
Cd14 I24 3.039556 1_555
Cd15 I29 3.038111 1_455
Cd15 I29 3.038113 1_445
Cd15 I29 3.038113 1_555
Cd15 I25 3.039265 1_545
Cd15 I25 3.039268 1_445
Cd15 I25 3.039268 1_555
Cd16 I7 3.039337 1_455
Cd16 I7 3.039340 1_555
Cd16 I7 3.039340 1_445
Cd16 I10 3.039481 1_545
Cd16 I10 3.039484 1_445
Cd16 I10 3.039484 1_555
