# generated using pymatgen
data_LiMgIn(MoO4)3
_symmetry_space_group_name_H-M   'P 1'
_cell_length_a   7.10047000
_cell_length_b   8.61707793
_cell_length_c   9.93130928
_cell_angle_alpha   96.51202388
_cell_angle_beta   106.47013259
_cell_angle_gamma   101.75330173
_symmetry_Int_Tables_number   1
_chemical_formula_structural   LiMgIn(MoO4)3
_chemical_formula_sum   'Li2 Mg2 In2 Mo6 O24'
_cell_volume   560.93858711
_cell_formula_units_Z   2
loop_
 _symmetry_equiv_pos_site_id
 _symmetry_equiv_pos_as_xyz
  1  'x, y, z'
loop_
 _atom_site_type_symbol
 _atom_site_label
 _atom_site_symmetry_multiplicity
 _atom_site_fract_x
 _atom_site_fract_y
 _atom_site_fract_z
 _atom_site_occupancy
  Li  Li0  1  0.46216200  0.89469800  0.20271200  1
  Li  Li1  1  0.53783800  0.10530200  0.79728800  1
  Mg  Mg0  1  0.04078700  0.69692500  0.99235000  1
  Mg  Mg1  1  0.95921300  0.30307500  0.00765000  1
  In  In0  1  0.74683700  0.69811600  0.40468300  1
  In  In1  1  0.25316300  0.30188400  0.59531700  1
  Mo  Mo0  1  0.51741100  0.29837800  0.11976900  1
  Mo  Mo1  1  0.99458200  0.00714400  0.74857900  1
  Mo  Mo2  1  0.19847900  0.60229200  0.33446900  1
  Mo  Mo3  1  0.00541800  0.99285600  0.25142100  1
  Mo  Mo4  1  0.48258900  0.70162200  0.88023100  1
  Mo  Mo5  1  0.80152100  0.39770800  0.66553100  1
  O  O0  1  0.16261800  0.09659900  0.42572100  1
  O  O1  1  0.83738200  0.90340100  0.57427900  1
  O  O2  1  0.94223800  0.47543100  0.85170800  1
  O  O3  1  0.55677100  0.26688700  0.64519600  1
  O  O4  1  0.26158400  0.30419700  0.03458700  1
  O  O5  1  0.13914100  0.86218000  0.18165700  1
  O  O6  1  0.51084800  0.12861900  0.20346600  1
  O  O7  1  0.23238800  0.12554800  0.73706800  1
  O  O8  1  0.35221900  0.72397700  0.01207200  1
  O  O9  1  0.95259600  0.13486900  0.14088300  1
  O  O10  1  0.64967700  0.47971500  0.25481100  1
  O  O11  1  0.86085900  0.13782000  0.81834300  1
  O  O12  1  0.04740400  0.86513100  0.85911700  1
  O  O13  1  0.05776200  0.52456900  0.14829200  1
  O  O14  1  0.06032500  0.70448500  0.42528700  1
  O  O15  1  0.75265500  0.56223400  0.58001200  1
  O  O16  1  0.48915200  0.87138100  0.79653400  1
  O  O17  1  0.44322900  0.73311300  0.35480400  1
  O  O18  1  0.73841600  0.69580300  0.96541300  1
  O  O19  1  0.64778100  0.27602300  0.98792800  1
  O  O20  1  0.76761200  0.87445200  0.26293200  1
  O  O21  1  0.35032300  0.52028500  0.74518900  1
  O  O22  1  0.93967500  0.29551500  0.57471300  1
  O  O23  1  0.24734500  0.43776600  0.41998800  1
loop_
_geom_bond_atom_site_label_1
_geom_bond_atom_site_label_2
_geom_bond_distance
_geom_bond_site_symmetry_2
Li0 O6 1.973296 1_565
Li0 O8 2.102497 1_555
Li0 O20 2.129389 1_555
Li0 O17 2.180431 1_555
Li0 O5 2.199040 1_555
Li1 O16 1.973296 1_545
Li1 O19 2.102497 1_555
Li1 O7 2.129389 1_555
Li1 O3 2.180431 1_555
Li1 O11 2.199040 1_555
Mg0 O5 2.072023 1_556
Mg0 O12 2.072781 1_555
Mg0 O18 2.084813 1_455
Mg0 O2 2.092955 1_455
Mg0 O8 2.125243 1_556
Mg0 O13 2.260015 1_556
Mg1 O11 2.072023 1_554
Mg1 O9 2.072781 1_555
Mg1 O4 2.084813 1_655
Mg1 O13 2.092955 1_655
Mg1 O19 2.125243 1_554
Mg1 O2 2.260015 1_554
In0 O10 2.118166 1_555
In0 O1 2.150881 1_555
In0 O17 2.162602 1_555
In0 O14 2.165406 1_655
In0 O20 2.196385 1_555
In0 O15 2.201372 1_555
In1 O21 2.118166 1_555
In1 O0 2.150881 1_555
In1 O3 2.162602 1_555
In1 O22 2.165406 1_455
In1 O7 2.196385 1_555
In1 O23 2.201372 1_555
Mo0 O6 1.761521 1_555
Mo0 O4 1.786951 1_555
Mo0 O19 1.819649 1_554
Mo0 O10 1.826191 1_555
Mo1 O12 1.761128 1_645
Mo1 O1 1.785609 1_545
Mo1 O11 1.811408 1_555
Mo1 O7 1.827367 1_655
Mo2 O23 1.777110 1_555
Mo2 O14 1.795746 1_555
Mo2 O13 1.806807 1_555
Mo2 O17 1.811880 1_555
Mo3 O9 1.761128 1_465
Mo3 O0 1.785609 1_565
Mo3 O5 1.811408 1_555
Mo3 O20 1.827367 1_455
Mo4 O16 1.761521 1_555
Mo4 O18 1.786951 1_555
Mo4 O8 1.819649 1_556
Mo4 O21 1.826191 1_555
Mo5 O15 1.777110 1_555
Mo5 O22 1.795746 1_555
Mo5 O2 1.806807 1_555
Mo5 O3 1.811880 1_555
