# generated using pymatgen
data_Cs2NaAu3(CN)6
_symmetry_space_group_name_H-M   'P 1'
_cell_length_a   7.30770820
_cell_length_b   7.30770820
_cell_length_c   18.41846100
_cell_angle_alpha   90.00000000
_cell_angle_beta   90.00000000
_cell_angle_gamma   120.00000179
_symmetry_Int_Tables_number   1
_chemical_formula_structural   Cs2NaAu3(CN)6
_chemical_formula_sum   'Cs4 Na2 Au6 C12 N12'
_cell_volume   851.81710624
_cell_formula_units_Z   2
loop_
 _symmetry_equiv_pos_site_id
 _symmetry_equiv_pos_as_xyz
  1  'x, y, z'
loop_
 _atom_site_type_symbol
 _atom_site_label
 _atom_site_symmetry_multiplicity
 _atom_site_fract_x
 _atom_site_fract_y
 _atom_site_fract_z
 _atom_site_occupancy
  Cs  Cs0  1  0.66666700  0.33333300  0.44546000  1
  Cs  Cs1  1  0.33333300  0.66666700  0.55454000  1
  Cs  Cs2  1  0.66666700  0.33333300  0.05454000  1
  Cs  Cs3  1  0.33333300  0.66666700  0.94546000  1
  Na  Na0  1  0.00000000  0.00000000  0.50000000  1
  Na  Na1  1  0.00000000  0.00000000  0.00000000  1
  Au  Au0  1  0.65169400  0.82584700  0.25000000  1
  Au  Au1  1  0.82584700  0.17415300  0.75000000  1
  Au  Au2  1  0.17415300  0.82584700  0.25000000  1
  Au  Au3  1  0.82584700  0.65169400  0.75000000  1
  Au  Au4  1  0.17415300  0.34830600  0.25000000  1
  Au  Au5  1  0.34830600  0.17415300  0.75000000  1
  C  C0  1  0.83025800  0.66051600  0.64194500  1
  C  C1  1  0.33948400  0.16974200  0.85805500  1
  C  C2  1  0.83025800  0.16974200  0.64194500  1
  C  C3  1  0.16974200  0.83025800  0.14194500  1
  C  C4  1  0.16974200  0.33948400  0.35805500  1
  C  C5  1  0.66051600  0.83025800  0.35805500  1
  C  C6  1  0.16974200  0.33948400  0.14194500  1
  C  C7  1  0.16974200  0.83025800  0.35805500  1
  C  C8  1  0.83025800  0.16974200  0.85805500  1
  C  C9  1  0.33948400  0.16974200  0.64194500  1
  C  C10  1  0.83025800  0.66051600  0.85805500  1
  C  C11  1  0.66051600  0.83025800  0.14194500  1
  N  N0  1  0.83653000  0.67306100  0.57835900  1
  N  N1  1  0.16347000  0.32693900  0.07835900  1
  N  N2  1  0.32693900  0.16347000  0.57835900  1
  N  N3  1  0.83653000  0.16347000  0.92164100  1
  N  N4  1  0.67306100  0.83653000  0.42164100  1
  N  N5  1  0.83653000  0.16347000  0.57835900  1
  N  N6  1  0.32693900  0.16347000  0.92164100  1
  N  N7  1  0.16347000  0.83653000  0.42164100  1
  N  N8  1  0.67306100  0.83653000  0.07835900  1
  N  N9  1  0.16347000  0.32693900  0.42164100  1
  N  N10  1  0.16347000  0.83653000  0.07835900  1
  N  N11  1  0.83653000  0.67306100  0.92164100  1
loop_
_geom_bond_atom_site_label_1
_geom_bond_atom_site_label_2
_geom_bond_distance
_geom_bond_site_symmetry_2
Cs0 N5 3.257951 1_555
Cs0 N0 3.257960 1_555
Cs0 N2 3.257960 1_555
Cs0 N7 3.680320 1_545
Cs0 N7 3.680320 1_655
Cs0 N9 3.680320 1_555
Cs0 N4 3.680320 1_555
Cs0 N4 3.680320 1_545
Cs0 N9 3.680320 1_655
Cs1 N7 3.257951 1_555
Cs1 N4 3.257960 1_555
Cs1 N9 3.257960 1_555
Cs1 N5 3.680320 1_455
Cs1 N5 3.680320 1_565
Cs1 N2 3.680320 1_555
Cs1 N0 3.680320 1_555
Cs1 N0 3.680320 1_455
Cs1 N2 3.680320 1_565
Cs2 N3 3.257951 1_554
Cs2 N11 3.257960 1_554
Cs2 N6 3.257960 1_554
Cs2 N10 3.680320 1_545
Cs2 N10 3.680320 1_655
Cs2 N1 3.680320 1_555
Cs2 N8 3.680320 1_555
Cs2 N8 3.680320 1_545
Cs2 N1 3.680320 1_655
Cs3 N10 3.257951 1_556
Cs3 N1 3.257960 1_556
Cs3 N8 3.257960 1_556
Cs3 N3 3.680320 1_455
Cs3 N3 3.680320 1_565
Cs3 N6 3.680320 1_555
Cs3 N11 3.680320 1_555
Cs3 N11 3.680320 1_455
Cs3 N6 3.680320 1_565
Au0 C5 1.990990 1_555
Au0 C11 1.990990 1_555
Au1 C2 1.990990 1_555
Au1 C8 1.990990 1_555
Au2 C7 1.990990 1_555
Au2 C3 1.990990 1_555
Au3 C0 1.990990 1_555
Au3 C10 1.990990 1_555
Au4 C4 1.990990 1_555
Au4 C6 1.990990 1_555
Au5 C1 1.990990 1_555
Au5 C9 1.990990 1_555
C0 N0 1.173844 1_555
C1 N6 1.173844 1_555
C2 N5 1.173844 1_555
C3 N10 1.173844 1_555
C4 N9 1.173844 1_555
C5 N4 1.173844 1_555
C6 N1 1.173844 1_555
C7 N7 1.173844 1_555
C8 N3 1.173844 1_555
C9 N2 1.173844 1_555
C10 N11 1.173844 1_555
C11 N8 1.173844 1_555
N0 Na0 2.522716 1_665
N1 Na1 2.522716 1_555
N2 Na0 2.522716 1_555
N3 Na1 2.522721 1_656
N4 Na0 2.522716 1_665
N5 Na0 2.522721 1_655
N6 Na1 2.522716 1_556
N7 Na0 2.522721 1_565
N8 Na1 2.522716 1_665
N9 Na0 2.522716 1_555
N10 Na1 2.522721 1_565
N11 Na1 2.522716 1_666
