# generated using pymatgen
data_AgBi2S3Cl
_symmetry_space_group_name_H-M   'P 1'
_cell_length_a   4.02846300
_cell_length_b   7.85124200
_cell_length_c   10.91463812
_cell_angle_alpha   77.11916161
_cell_angle_beta   90.00000000
_cell_angle_gamma   90.00000000
_symmetry_Int_Tables_number   1
_chemical_formula_structural   AgBi2S3Cl
_chemical_formula_sum   'Ag2 Bi4 S6 Cl2'
_cell_volume   336.52594670
_cell_formula_units_Z   2
loop_
 _symmetry_equiv_pos_site_id
 _symmetry_equiv_pos_as_xyz
  1  'x, y, z'
loop_
 _atom_site_type_symbol
 _atom_site_label
 _atom_site_symmetry_multiplicity
 _atom_site_fract_x
 _atom_site_fract_y
 _atom_site_fract_z
 _atom_site_occupancy
  Ag  Ag0  1  0.25000000  0.94114400  0.40631000  1
  Ag  Ag1  1  0.75000000  0.05885600  0.59369000  1
  Bi  Bi0  1  0.25000000  0.45917600  0.34589400  1
  Bi  Bi1  1  0.75000000  0.54082400  0.65410600  1
  Bi  Bi2  1  0.75000000  0.18700400  0.07288700  1
  Bi  Bi3  1  0.25000000  0.81299600  0.92711300  1
  S  S0  1  0.25000000  0.95950800  0.14583500  1
  S  S1  1  0.75000000  0.68224700  0.41359000  1
  S  S2  1  0.25000000  0.31775300  0.58641000  1
  S  S3  1  0.75000000  0.04049200  0.85416500  1
  S  S4  1  0.75000000  0.19995300  0.33819000  1
  S  S5  1  0.25000000  0.80004700  0.66181000  1
  Cl  Cl0  1  0.25000000  0.40430300  0.89794400  1
  Cl  Cl1  1  0.75000000  0.59569700  0.10205600  1
loop_
_geom_bond_atom_site_label_1
_geom_bond_atom_site_label_2
_geom_bond_distance
_geom_bond_site_symmetry_2
Ag0 S5 2.761637 1_555
Ag0 S0 2.814361 1_555
Ag0 S4 2.839940 1_465
Ag0 S4 2.839940 1_565
Ag0 S1 2.850114 1_555
Ag0 S1 2.850114 1_455
Ag1 S4 2.761637 1_555
Ag1 S3 2.814361 1_555
Ag1 S5 2.839940 1_545
Ag1 S5 2.839940 1_645
Ag1 S2 2.850114 1_655
Ag1 S2 2.850114 1_555
Bi0 S2 2.612410 1_555
Bi0 S1 2.871823 1_555
Bi0 S1 2.871823 1_455
Bi0 S4 2.877956 1_555
Bi0 S4 2.877956 1_455
Bi1 S1 2.612410 1_555
Bi1 S2 2.871823 1_555
Bi1 S2 2.871823 1_655
Bi1 S5 2.877956 1_555
Bi1 S5 2.877956 1_655
Bi2 S0 2.692074 1_545
Bi2 S0 2.692074 1_645
Bi2 S3 2.871688 1_554
Bi2 S4 2.920032 1_555
Bi2 Cl0 3.026771 1_554
Bi2 Cl0 3.026771 1_654
Bi3 S3 2.692074 1_565
Bi3 S3 2.692074 1_465
Bi3 S0 2.871688 1_556
Bi3 S5 2.920032 1_555
Bi3 Cl1 3.026771 1_456
Bi3 Cl1 3.026771 1_556
