# generated using pymatgen
data_Na3WO4F
_symmetry_space_group_name_H-M   'P 1'
_cell_length_a   5.71498000
_cell_length_b   7.65141500
_cell_length_c   13.08383600
_cell_angle_alpha   90.00000000
_cell_angle_beta   90.00000000
_cell_angle_gamma   90.00000000
_symmetry_Int_Tables_number   1
_chemical_formula_structural   Na3WO4F
_chemical_formula_sum   'Na12 W4 O16 F4'
_cell_volume   572.12584215
_cell_formula_units_Z   4
loop_
 _symmetry_equiv_pos_site_id
 _symmetry_equiv_pos_as_xyz
  1  'x, y, z'
loop_
 _atom_site_type_symbol
 _atom_site_label
 _atom_site_symmetry_multiplicity
 _atom_site_fract_x
 _atom_site_fract_y
 _atom_site_fract_z
 _atom_site_occupancy
  Na  Na0  1  0.77472400  0.45834000  0.81978300  1
  Na  Na1  1  0.22527600  0.95834000  0.18021700  1
  Na  Na2  1  0.27640400  0.75000000  0.39230600  1
  Na  Na3  1  0.72527600  0.54166000  0.31978300  1
  Na  Na4  1  0.77472400  0.04166000  0.81978300  1
  Na  Na5  1  0.77640400  0.75000000  0.10769400  1
  Na  Na6  1  0.72359600  0.25000000  0.60769400  1
  Na  Na7  1  0.27472400  0.45834000  0.68021700  1
  Na  Na8  1  0.22359600  0.25000000  0.89230600  1
  Na  Na9  1  0.72527600  0.95834000  0.31978300  1
  Na  Na10  1  0.27472400  0.04166000  0.68021700  1
  Na  Na11  1  0.22527600  0.54166000  0.18021700  1
  W  W0  1  0.28839900  0.75000000  0.91570800  1
  W  W1  1  0.78839900  0.75000000  0.58429200  1
  W  W2  1  0.21160100  0.25000000  0.41570800  1
  W  W3  1  0.71160100  0.25000000  0.08429200  1
  O  O0  1  0.31367700  0.44354700  0.34876600  1
  O  O1  1  0.67358600  0.75000000  0.45496500  1
  O  O2  1  0.18632300  0.55645300  0.84876600  1
  O  O3  1  0.18632300  0.94354700  0.84876600  1
  O  O4  1  0.89245700  0.25000000  0.42062700  1
  O  O5  1  0.81367700  0.05645300  0.15123400  1
  O  O6  1  0.10754300  0.75000000  0.57937300  1
  O  O7  1  0.39245700  0.25000000  0.07937300  1
  O  O8  1  0.81367700  0.44354700  0.15123400  1
  O  O9  1  0.68632300  0.94354700  0.65123400  1
  O  O10  1  0.82641400  0.25000000  0.95496500  1
  O  O11  1  0.60754300  0.75000000  0.92062700  1
  O  O12  1  0.32641400  0.25000000  0.54503500  1
  O  O13  1  0.68632300  0.55645300  0.65123400  1
  O  O14  1  0.17358600  0.75000000  0.04503500  1
  O  O15  1  0.31367700  0.05645300  0.34876600  1
  F  F0  1  0.00254000  0.25000000  0.73041000  1
  F  F1  1  0.99746000  0.75000000  0.26959000  1
  F  F2  1  0.49746000  0.75000000  0.23041000  1
  F  F3  1  0.50254000  0.25000000  0.76959000  1
loop_
_geom_bond_atom_site_label_1
_geom_bond_atom_site_label_2
_geom_bond_distance
_geom_bond_site_symmetry_2
Na0 O13 2.383694 1_555
Na0 O10 2.399313 1_555
Na0 O2 2.498115 1_655
Na0 O11 2.762940 1_555
Na1 O15 2.383694 1_565
Na1 O14 2.399313 1_555
Na1 O5 2.498115 1_465
Na1 O7 2.762940 1_565
Na2 O1 2.413399 1_555
Na2 O15 2.422392 1_565
Na2 O0 2.422392 1_555
Na2 O6 2.630935 1_555
Na3 O8 2.383694 1_555
Na3 O1 2.399313 1_555
Na3 O0 2.498115 1_555
Na3 O4 2.762940 1_555
Na4 O9 2.383694 1_545
Na4 O10 2.399313 1_555
Na4 O3 2.498115 1_645
Na4 O11 2.762940 1_545
Na5 O14 2.413399 1_655
Na5 O5 2.422392 1_565
Na5 O8 2.422392 1_555
Na5 O11 2.630935 1_554
Na6 O12 2.413399 1_555
Na6 O13 2.422392 1_555
Na6 O9 2.422392 1_545
Na6 O4 2.630935 1_555
Na7 O2 2.383694 1_555
Na7 O12 2.399313 1_555
Na7 O13 2.498115 1_555
Na7 O6 2.762940 1_555
Na8 O10 2.413399 1_455
Na8 O2 2.422392 1_555
Na8 O3 2.422392 1_545
Na8 O7 2.630935 1_556
Na9 O5 2.383694 1_565
Na9 O1 2.399313 1_555
Na9 O15 2.498115 1_565
Na9 O4 2.762940 1_565
Na10 O3 2.383694 1_545
Na10 O12 2.399313 1_555
Na10 O9 2.498115 1_545
Na10 O6 2.762940 1_545
Na11 O0 2.383694 1_555
Na11 O14 2.399313 1_555
Na11 O8 2.498115 1_455
Na11 O7 2.762940 1_555
O0 W2 1.816736 1_555
O1 W1 1.814860 1_555
O2 W0 1.816736 1_555
O3 W0 1.816736 1_555
O4 W2 1.825037 1_655
O5 W3 1.816736 1_555
O6 W1 1.825037 1_455
O7 W3 1.825037 1_555
O8 W3 1.816736 1_555
O9 W1 1.816736 1_555
O10 W3 1.814860 1_556
O11 W0 1.825037 1_555
O12 W2 1.814860 1_555
O13 W1 1.816736 1_555
O14 W0 1.814860 1_554
O15 W2 1.816736 1_555
F0 Na6 2.262583 1_455
F0 Na10 2.322085 1_555
F0 Na7 2.322085 1_555
F0 Na4 2.367195 1_455
F0 Na0 2.367195 1_455
F0 Na8 2.466346 1_555
F1 Na2 2.262583 1_655
F1 Na3 2.322085 1_555
F1 Na9 2.322085 1_555
F1 Na11 2.367195 1_655
F1 Na1 2.367195 1_655
F1 Na5 2.466346 1_555
F2 Na5 2.262583 1_555
F2 Na11 2.322085 1_555
F2 Na1 2.322085 1_555
F2 Na3 2.367195 1_555
F2 Na9 2.367195 1_555
F2 Na2 2.466346 1_555
F3 Na8 2.262583 1_555
F3 Na0 2.322085 1_555
F3 Na4 2.322085 1_555
F3 Na10 2.367195 1_555
F3 Na7 2.367195 1_555
F3 Na6 2.466346 1_555
