# generated using pymatgen
data_Ba2V4Cd3O15
_symmetry_space_group_name_H-M   'P 1'
_cell_length_a   7.33627600
_cell_length_b   10.12253000
_cell_length_c   19.96722300
_cell_angle_alpha   90.00000000
_cell_angle_beta   90.00000000
_cell_angle_gamma   90.00000000
_symmetry_Int_Tables_number   1
_chemical_formula_structural   Ba2V4Cd3O15
_chemical_formula_sum   'Ba8 V16 Cd12 O60'
_cell_volume   1482.79940308
_cell_formula_units_Z   4
loop_
 _symmetry_equiv_pos_site_id
 _symmetry_equiv_pos_as_xyz
  1  'x, y, z'
loop_
 _atom_site_type_symbol
 _atom_site_label
 _atom_site_symmetry_multiplicity
 _atom_site_fract_x
 _atom_site_fract_y
 _atom_site_fract_z
 _atom_site_occupancy
  Ba  Ba0  1  0.04911300  0.75405000  0.20180800  1
  Ba  Ba1  1  0.45088700  0.24595000  0.70180800  1
  Ba  Ba2  1  0.26635800  0.37116300  0.50189200  1
  Ba  Ba3  1  0.23364200  0.62883700  0.00189200  1
  Ba  Ba4  1  0.73364200  0.87116300  0.99810800  1
  Ba  Ba5  1  0.95088700  0.25405000  0.29819200  1
  Ba  Ba6  1  0.54911300  0.74595000  0.79819200  1
  Ba  Ba7  1  0.76635800  0.12883700  0.49810800  1
  V  V0  1  0.17124600  0.56444800  0.34767900  1
  V  V1  1  0.76982600  0.47570200  0.49322700  1
  V  V2  1  0.55767200  0.78140400  0.16686100  1
  V  V3  1  0.82875400  0.06444800  0.15232100  1
  V  V4  1  0.14713700  0.40201400  0.13543100  1
  V  V5  1  0.73017400  0.52429800  0.99322700  1
  V  V6  1  0.23017400  0.97570200  0.00677300  1
  V  V7  1  0.67124600  0.93555200  0.65232100  1
  V  V8  1  0.26982600  0.02429800  0.50677300  1
  V  V9  1  0.32875400  0.43555200  0.84767900  1
  V  V10  1  0.85286300  0.90201400  0.36456900  1
  V  V11  1  0.64713700  0.09798600  0.86456900  1
  V  V12  1  0.94232800  0.21859600  0.66686100  1
  V  V13  1  0.05767200  0.71859600  0.83313900  1
  V  V14  1  0.35286300  0.59798600  0.63543100  1
  V  V15  1  0.44232800  0.28140400  0.33313900  1
  Cd  Cd0  1  0.62832900  0.40779500  0.16737100  1
  Cd  Cd1  1  0.93198700  0.24239300  0.98749300  1
  Cd  Cd2  1  0.12832900  0.09220500  0.83262900  1
  Cd  Cd3  1  0.35069100  0.09716900  0.17940200  1
  Cd  Cd4  1  0.43198700  0.25760700  0.01250700  1
  Cd  Cd5  1  0.06801300  0.74239300  0.51250700  1
  Cd  Cd6  1  0.85069100  0.40283100  0.82059800  1
  Cd  Cd7  1  0.87167100  0.59220500  0.66737100  1
  Cd  Cd8  1  0.64930900  0.59716900  0.32059800  1
  Cd  Cd9  1  0.56801300  0.75760700  0.48749300  1
  Cd  Cd10  1  0.37167100  0.90779500  0.33262900  1
  Cd  Cd11  1  0.14930900  0.90283100  0.67940200  1
  O  O0  1  0.58952600  0.62730900  0.94902100  1
  O  O1  1  0.20004000  0.56643000  0.13416700  1
  O  O2  1  0.89016600  0.62600900  0.78999100  1
  O  O3  1  0.64573400  0.15048900  0.94837900  1
  O  O4  1  0.66171800  0.88779800  0.57103500  1
  O  O5  1  0.13838700  0.86636400  0.79815300  1
  O  O6  1  0.24455900  0.38940700  0.34629500  1
  O  O7  1  0.98295300  0.74814300  0.91044500  1
  O  O8  1  0.83124900  0.17792400  0.82341400  1
  O  O9  1  0.29996000  0.43357000  0.63416700  1
  O  O10  1  0.96506700  0.57024900  0.30577600  1
  O  O11  1  0.60868200  0.42008200  0.05227900  1
  O  O12  1  0.01704700  0.24814300  0.58955500  1
  O  O13  1  0.66923600  0.15738400  0.19385100  1
  O  O14  1  0.36161300  0.13363600  0.29815300  1
  O  O15  1  0.93933800  0.37680100  0.17608000  1
  O  O16  1  0.70004000  0.93357000  0.86583300  1
  O  O17  1  0.86928000  0.62330500  0.03883200  1
  O  O18  1  0.08952600  0.87269100  0.05097900  1
  O  O19  1  0.16875100  0.67792400  0.67658600  1
  O  O20  1  0.10868200  0.07991800  0.94772100  1
  O  O21  1  0.43933800  0.12319900  0.82392000  1
  O  O22  1  0.25544100  0.61059300  0.84629500  1
  O  O23  1  0.39016600  0.87399100  0.21000900  1
  O  O24  1  0.56066200  0.62319900  0.67608000  1
  O  O25  1  0.10983400  0.12600900  0.71000900  1
  O  O26  1  0.33076400  0.65738400  0.30614900  1
  O  O27  1  0.41047400  0.12730900  0.55097900  1
  O  O28  1  0.36928000  0.87669500  0.96116800  1
  O  O29  1  0.48295300  0.75185700  0.08955500  1
  O  O30  1  0.03493300  0.07024900  0.19422400  1
  O  O31  1  0.63072000  0.37669500  0.53883200  1
  O  O32  1  0.63677900  0.57163800  0.43500700  1
  O  O33  1  0.66875100  0.82207600  0.32341400  1
  O  O34  1  0.33828200  0.38779800  0.92896500  1
  O  O35  1  0.85426600  0.84951100  0.44837900  1
  O  O36  1  0.33124900  0.32207600  0.17658600  1
  O  O37  1  0.89131800  0.57991800  0.55227900  1
  O  O38  1  0.86322100  0.42836200  0.93500700  1
  O  O39  1  0.83828200  0.11220200  0.07103500  1
  O  O40  1  0.13677900  0.92836200  0.56499300  1
  O  O41  1  0.53493300  0.42975100  0.80577600  1
  O  O42  1  0.63838700  0.63363600  0.20184700  1
  O  O43  1  0.14573400  0.34951100  0.05162100  1
  O  O44  1  0.13072000  0.12330500  0.46116800  1
  O  O45  1  0.79996000  0.06643000  0.36583300  1
  O  O46  1  0.16923600  0.34261600  0.80614900  1
  O  O47  1  0.35426600  0.65048900  0.55162100  1
  O  O48  1  0.06066200  0.87680100  0.32392000  1
  O  O49  1  0.83076400  0.84261600  0.69385100  1
  O  O50  1  0.86161300  0.36636400  0.70184700  1
  O  O51  1  0.36322100  0.07163800  0.06499300  1
  O  O52  1  0.60983400  0.37399100  0.28999100  1
  O  O53  1  0.46506700  0.92975100  0.69422400  1
  O  O54  1  0.51704700  0.25185700  0.41044500  1
  O  O55  1  0.91047400  0.37269100  0.44902100  1
  O  O56  1  0.39131800  0.92008200  0.44772100  1
  O  O57  1  0.16171800  0.61220200  0.42896500  1
  O  O58  1  0.75544100  0.88940700  0.15370500  1
  O  O59  1  0.74455900  0.11059300  0.65370500  1
loop_
_geom_bond_atom_site_label_1
_geom_bond_atom_site_label_2
_geom_bond_distance
_geom_bond_site_symmetry_2
Ba0 O1 2.580123 1_555
Ba0 O58 2.727920 1_455
Ba0 O48 2.737903 1_555
Ba0 O23 2.785887 1_555
Ba0 O10 2.855053 1_455
Ba0 O26 3.093137 1_555
Ba0 O30 3.206002 1_565
Ba0 O42 3.250396 1_455
Ba0 O18 3.255784 1_555
Ba1 O9 2.580123 1_555
Ba1 O59 2.727920 1_555
Ba1 O21 2.737903 1_555
Ba1 O25 2.785887 1_555
Ba1 O41 2.855053 1_555
Ba1 O46 3.093137 1_555
Ba1 O53 3.206002 1_545
Ba1 O50 3.250396 1_555
Ba1 O27 3.255784 1_555
Ba2 O9 2.726827 1_555
Ba2 O31 2.773522 1_555
Ba2 O55 2.816260 1_455
Ba2 O44 2.818903 1_555
Ba2 O12 2.821321 1_555
Ba2 O27 2.858598 1_555
Ba2 O54 2.859183 1_555
Ba2 O57 2.943283 1_555
Ba2 O47 3.065378 1_555
Ba2 O6 3.116430 1_555
Ba3 O1 2.726827 1_555
Ba3 O17 2.773522 1_455
Ba3 O0 2.816260 1_554
Ba3 O28 2.818903 1_554
Ba3 O29 2.821321 1_555
Ba3 O18 2.858598 1_555
Ba3 O7 2.859183 1_454
Ba3 O34 2.943283 1_554
Ba3 O43 3.065378 1_555
Ba3 O22 3.116430 1_554
Ba4 O16 2.726827 1_555
Ba4 O28 2.773522 1_555
Ba4 O18 2.816260 1_656
Ba4 O17 2.818903 1_556
Ba4 O7 2.821321 1_555
Ba4 O0 2.858598 1_555
Ba4 O29 2.859183 1_556
Ba4 O39 2.943283 1_566
Ba4 O3 3.065378 1_565
Ba4 O58 3.116430 1_556
Ba5 O45 2.580123 1_555
Ba5 O6 2.727920 1_655
Ba5 O15 2.737903 1_555
Ba5 O52 2.785887 1_555
Ba5 O30 2.855053 1_655
Ba5 O13 3.093137 1_555
Ba5 O10 3.206002 1_555
Ba5 O14 3.250396 1_655
Ba5 O55 3.255784 1_555
Ba6 O16 2.580123 1_555
Ba6 O22 2.727920 1_555
Ba6 O24 2.737903 1_555
Ba6 O2 2.785887 1_555
Ba6 O53 2.855053 1_555
Ba6 O49 3.093137 1_555
Ba6 O41 3.206002 1_555
Ba6 O5 3.250396 1_555
Ba6 O0 3.255784 1_555
Ba7 O45 2.726827 1_555
Ba7 O44 2.773522 1_655
Ba7 O27 2.816260 1_555
Ba7 O31 2.818903 1_555
Ba7 O54 2.821321 1_555
Ba7 O55 2.858598 1_555
Ba7 O12 2.859183 1_655
Ba7 O4 2.943283 1_545
Ba7 O35 3.065378 1_545
Ba7 O59 3.116430 1_555
Cd0 O11 2.305940 1_555
Cd0 O15 2.309673 1_555
Cd0 O36 2.353040 1_555
Cd0 O42 2.388618 1_555
Cd0 O52 2.475897 1_555
Cd0 O13 2.606683 1_555
Cd1 O38 2.212810 1_555
Cd1 O39 2.234257 1_556
Cd1 O20 2.239621 1_655
Cd1 O43 2.296574 1_656
Cd1 O3 2.426015 1_555
Cd2 O20 2.305940 1_555
Cd2 O21 2.309673 1_555
Cd2 O8 2.353040 1_455
Cd2 O5 2.388618 1_545
Cd2 O25 2.475897 1_555
Cd2 O46 2.606683 1_555
Cd3 O36 2.281784 1_555
Cd3 O51 2.300839 1_555
Cd3 O30 2.351161 1_555
Cd3 O23 2.358179 1_545
Cd3 O14 2.401027 1_555
Cd3 O13 2.432287 1_555
Cd4 O51 2.212810 1_555
Cd4 O34 2.234257 1_554
Cd4 O11 2.239621 1_555
Cd4 O3 2.296574 1_554
Cd4 O43 2.426015 1_555
Cd5 O40 2.212810 1_555
Cd5 O57 2.234257 1_555
Cd5 O37 2.239621 1_455
Cd5 O35 2.296574 1_455
Cd5 O47 2.426015 1_555
Cd6 O8 2.281784 1_555
Cd6 O38 2.300839 1_555
Cd6 O41 2.351161 1_555
Cd6 O2 2.358179 1_555
Cd6 O50 2.401027 1_555
Cd6 O46 2.432287 1_655
Cd7 O37 2.305940 1_555
Cd7 O24 2.309673 1_555
Cd7 O19 2.353040 1_655
Cd7 O50 2.388618 1_555
Cd7 O2 2.475897 1_555
Cd7 O49 2.606683 1_555
Cd8 O33 2.281784 1_555
Cd8 O32 2.300839 1_555
Cd8 O10 2.351161 1_555
Cd8 O52 2.358179 1_555
Cd8 O42 2.401027 1_555
Cd8 O26 2.432287 1_555
Cd9 O32 2.212810 1_555
Cd9 O4 2.234257 1_555
Cd9 O56 2.239621 1_555
Cd9 O47 2.296574 1_555
Cd9 O35 2.426015 1_555
Cd10 O56 2.305940 1_555
Cd10 O48 2.309673 1_555
Cd10 O33 2.353040 1_555
Cd10 O14 2.388618 1_565
Cd10 O23 2.475897 1_555
Cd10 O26 2.606683 1_555
Cd11 O19 2.281784 1_555
Cd11 O40 2.300839 1_555
Cd11 O53 2.351161 1_555
Cd11 O25 2.358179 1_565
Cd11 O5 2.401027 1_555
Cd11 O49 2.432287 1_455
O0 V5 1.712039 1_555
O1 V4 1.709146 1_555
O2 V13 1.769394 1_655
O3 V11 1.755848 1_555
O4 V7 1.694952 1_555
O5 V13 1.753858 1_555
O6 V15 1.835567 1_555
O6 V0 1.851896 1_555
O7 V13 1.665110 1_655
O8 V11 1.776069 1_555
O9 V14 1.709146 1_555
O10 V0 1.729569 1_655
O11 V5 1.815923 1_554
O12 V12 1.665110 1_455
O13 V3 1.715276 1_555
O14 V15 1.753858 1_555
O15 V4 1.745829 1_655
O16 V11 1.709146 1_565
O17 V5 1.695603 1_554
O18 V6 1.712039 1_555
O19 V14 1.776069 1_555
O20 V6 1.815923 1_546
O21 V11 1.745829 1_555
O22 V13 1.835567 1_555
O22 V9 1.851896 1_555
O23 V2 1.769394 1_555
O24 V14 1.745829 1_555
O25 V12 1.769394 1_455
O26 V0 1.715276 1_555
O27 V8 1.712039 1_555
O28 V6 1.695603 1_556
O29 V2 1.665110 1_555
O30 V3 1.729569 1_455
O31 V1 1.695603 1_555
O32 V1 1.801989 1_555
O33 V10 1.776069 1_555
O34 V9 1.694952 1_555
O35 V10 1.755848 1_555
O36 V4 1.776069 1_555
O37 V1 1.815923 1_555
O38 V5 1.801989 1_555
O39 V3 1.694952 1_555
O40 V8 1.801989 1_565
O41 V9 1.729569 1_555
O42 V2 1.753858 1_555
O43 V4 1.755848 1_555
O44 V8 1.695603 1_555
O45 V10 1.709146 1_545
O46 V9 1.715276 1_555
O47 V14 1.755848 1_555
O48 V10 1.745829 1_455
O49 V7 1.715276 1_555
O50 V12 1.753858 1_555
O51 V6 1.801989 1_545
O52 V15 1.769394 1_555
O53 V7 1.729569 1_555
O54 V15 1.665110 1_555
O55 V1 1.712039 1_555
O56 V8 1.815923 1_565
O57 V0 1.694952 1_555
O58 V2 1.835567 1_555
O58 V3 1.851896 1_565
O59 V12 1.835567 1_555
O59 V7 1.851896 1_545
