# generated using pymatgen
data_Hg6MoAs4Cl7
_symmetry_space_group_name_H-M   'P 1'
_cell_length_a   12.45795400
_cell_length_b   12.45795400
_cell_length_c   12.45795400
_cell_angle_alpha   90.00000000
_cell_angle_beta   90.00000000
_cell_angle_gamma   90.00000000
_symmetry_Int_Tables_number   1
_chemical_formula_structural   Hg6MoAs4Cl7
_chemical_formula_sum   'Hg24 Mo4 As16 Cl28'
_cell_volume   1933.48215815
_cell_formula_units_Z   4
loop_
 _symmetry_equiv_pos_site_id
 _symmetry_equiv_pos_as_xyz
  1  'x, y, z'
loop_
 _atom_site_type_symbol
 _atom_site_label
 _atom_site_symmetry_multiplicity
 _atom_site_fract_x
 _atom_site_fract_y
 _atom_site_fract_z
 _atom_site_occupancy
  Hg  Hg0  1  0.45438700  0.18735500  0.30095300  1
  Hg  Hg1  1  0.19904700  0.95438700  0.18735500  1
  Hg  Hg2  1  0.81264500  0.80095300  0.04561300  1
  Hg  Hg3  1  0.80095300  0.45438700  0.31264500  1
  Hg  Hg4  1  0.31264500  0.69904700  0.95438700  1
  Hg  Hg5  1  0.95438700  0.18735500  0.19904700  1
  Hg  Hg6  1  0.18735500  0.30095300  0.45438700  1
  Hg  Hg7  1  0.54561300  0.81264500  0.69904700  1
  Hg  Hg8  1  0.54561300  0.68735500  0.19904700  1
  Hg  Hg9  1  0.68735500  0.30095300  0.04561300  1
  Hg  Hg10  1  0.31264500  0.80095300  0.45438700  1
  Hg  Hg11  1  0.04561300  0.81264500  0.80095300  1
  Hg  Hg12  1  0.19904700  0.54561300  0.68735500  1
  Hg  Hg13  1  0.95438700  0.31264500  0.69904700  1
  Hg  Hg14  1  0.18735500  0.19904700  0.95438700  1
  Hg  Hg15  1  0.30095300  0.04561300  0.68735500  1
  Hg  Hg16  1  0.30095300  0.45438700  0.18735500  1
  Hg  Hg17  1  0.69904700  0.95438700  0.31264500  1
  Hg  Hg18  1  0.45438700  0.31264500  0.80095300  1
  Hg  Hg19  1  0.68735500  0.19904700  0.54561300  1
  Hg  Hg20  1  0.81264500  0.69904700  0.54561300  1
  Hg  Hg21  1  0.04561300  0.68735500  0.30095300  1
  Hg  Hg22  1  0.69904700  0.54561300  0.81264500  1
  Hg  Hg23  1  0.80095300  0.04561300  0.81264500  1
  Mo  Mo0  1  0.50000000  0.50000000  0.50000000  1
  Mo  Mo1  1  0.00000000  0.50000000  0.00000000  1
  Mo  Mo2  1  0.50000000  0.00000000  0.00000000  1
  Mo  Mo3  1  0.00000000  0.00000000  0.50000000  1
  As  As0  1  0.34841700  0.65158300  0.15158300  1
  As  As1  1  0.15158300  0.15158300  0.15158300  1
  As  As2  1  0.34841700  0.84841700  0.65158300  1
  As  As3  1  0.76688700  0.26688700  0.23311300  1
  As  As4  1  0.65158300  0.34841700  0.84841700  1
  As  As5  1  0.23311300  0.76688700  0.26688700  1
  As  As6  1  0.23311300  0.73311300  0.76688700  1
  As  As7  1  0.84841700  0.84841700  0.84841700  1
  As  As8  1  0.65158300  0.15158300  0.34841700  1
  As  As9  1  0.76688700  0.23311300  0.73311300  1
  As  As10  1  0.26688700  0.23311300  0.76688700  1
  As  As11  1  0.84841700  0.65158300  0.34841700  1
  As  As12  1  0.26688700  0.26688700  0.26688700  1
  As  As13  1  0.73311300  0.73311300  0.73311300  1
  As  As14  1  0.73311300  0.76688700  0.23311300  1
  As  As15  1  0.15158300  0.34841700  0.65158300  1
  Cl  Cl0  1  0.54419400  0.68739500  0.46186100  1
  Cl  Cl1  1  0.53813900  0.04419400  0.81260500  1
  Cl  Cl2  1  0.03813900  0.04419400  0.68739500  1
  Cl  Cl3  1  0.95580600  0.31260500  0.96186100  1
  Cl  Cl4  1  0.31260500  0.53813900  0.45580600  1
  Cl  Cl5  1  0.31260500  0.96186100  0.95580600  1
  Cl  Cl6  1  0.46186100  0.54419400  0.68739500  1
  Cl  Cl7  1  0.00000000  0.00000000  0.00000000  1
  Cl  Cl8  1  0.03813900  0.45580600  0.18739500  1
  Cl  Cl9  1  0.18739500  0.03813900  0.45580600  1
  Cl  Cl10  1  0.95580600  0.18739500  0.46186100  1
  Cl  Cl11  1  0.81260500  0.53813900  0.04419400  1
  Cl  Cl12  1  0.68739500  0.03813900  0.04419400  1
  Cl  Cl13  1  0.45580600  0.18739500  0.03813900  1
  Cl  Cl14  1  0.81260500  0.96186100  0.54419400  1
  Cl  Cl15  1  0.68739500  0.46186100  0.54419400  1
  Cl  Cl16  1  0.50000000  0.00000000  0.50000000  1
  Cl  Cl17  1  0.00000000  0.50000000  0.50000000  1
  Cl  Cl18  1  0.50000000  0.50000000  0.00000000  1
  Cl  Cl19  1  0.04419400  0.68739500  0.03813900  1
  Cl  Cl20  1  0.04419400  0.81260500  0.53813900  1
  Cl  Cl21  1  0.46186100  0.95580600  0.18739500  1
  Cl  Cl22  1  0.96186100  0.54419400  0.81260500  1
  Cl  Cl23  1  0.54419400  0.81260500  0.96186100  1
  Cl  Cl24  1  0.45580600  0.31260500  0.53813900  1
  Cl  Cl25  1  0.53813900  0.45580600  0.31260500  1
  Cl  Cl26  1  0.18739500  0.46186100  0.95580600  1
  Cl  Cl27  1  0.96186100  0.95580600  0.31260500  1
loop_
_geom_bond_atom_site_label_1
_geom_bond_atom_site_label_2
_geom_bond_distance
_geom_bond_site_symmetry_2
As0 As5 2.488008 1_555
As0 Hg8 2.565816 1_555
As0 Hg4 2.565816 1_554
As0 Hg16 2.565816 1_555
As1 As12 2.488008 1_555
As1 Hg1 2.565816 1_545
As1 Hg14 2.565816 1_554
As1 Hg5 2.565816 1_455
As2 As6 2.488008 1_555
As2 Hg15 2.565816 1_565
As2 Hg7 2.565816 1_555
As2 Hg10 2.565816 1_555
As3 As8 2.488008 1_555
As3 Hg3 2.572562 1_555
As3 Hg5 2.572562 1_555
As3 Hg9 2.572562 1_555
As4 As9 2.488008 1_555
As4 Hg9 2.565816 1_556
As4 Hg22 2.565816 1_555
As4 Hg18 2.565816 1_555
As5 Hg10 2.572562 1_555
As5 Hg1 2.572562 1_555
As5 Hg21 2.572562 1_555
As6 Hg11 2.572562 1_555
As6 Hg4 2.572562 1_555
As6 Hg12 2.572562 1_555
As7 Hg2 2.565816 1_556
As7 Hg23 2.565816 1_565
As7 Hg11 2.565816 1_655
As8 Hg19 2.565816 1_555
As8 Hg17 2.565816 1_545
As8 Hg0 2.565816 1_555
As9 Hg23 2.572562 1_555
As9 Hg13 2.572562 1_555
As9 Hg19 2.572562 1_555
As10 As15 2.488008 1_555
As10 Hg18 2.572562 1_555
As10 Hg14 2.572562 1_555
As10 Hg15 2.572562 1_555
As11 As14 2.488008 1_555
As11 Hg21 2.565816 1_655
As11 Hg20 2.565816 1_555
As11 Hg3 2.565816 1_555
As12 Hg16 2.572562 1_555
As12 Hg6 2.572562 1_555
As12 Hg0 2.572562 1_555
As13 As7 2.488008 1_555
As13 Hg20 2.572562 1_555
As13 Hg22 2.572562 1_555
As13 Hg7 2.572562 1_555
As14 Hg2 2.572562 1_555
As14 Hg17 2.572562 1_555
As14 Hg8 2.572562 1_555
As15 Hg12 2.565816 1_555
As15 Hg13 2.565816 1_455
As15 Hg6 2.565816 1_555
Cl0 Mo0 2.445207 1_555
Cl1 Mo2 2.445207 1_556
Cl2 Mo3 2.445207 1_555
Cl3 Mo1 2.445207 1_656
Cl4 Mo0 2.445207 1_555
Cl5 Mo2 2.445207 1_566
Cl6 Mo0 2.445207 1_555
Cl8 Mo1 2.445207 1_555
Cl9 Mo3 2.445207 1_555
Cl10 Mo3 2.445207 1_655
Cl11 Mo1 2.445207 1_655
Cl12 Mo2 2.445207 1_555
Cl13 Mo2 2.445207 1_555
Cl14 Mo3 2.445207 1_665
Cl15 Mo0 2.445207 1_555
Cl19 Mo1 2.445207 1_555
Cl20 Mo3 2.445207 1_565
Cl21 Mo2 2.445207 1_565
Cl22 Mo1 2.445207 1_656
Cl23 Mo2 2.445207 1_566
Cl24 Mo0 2.445207 1_555
Cl25 Mo0 2.445207 1_555
Cl26 Mo1 2.445207 1_556
Cl27 Mo3 2.445207 1_665
