# generated using pymatgen
data_Ba9(NbN6)2
_symmetry_space_group_name_H-M   'P 1'
_cell_length_a   8.16340600
_cell_length_b   9.83447690
_cell_length_c   12.88653206
_cell_angle_alpha   76.61447703
_cell_angle_beta   85.78826774
_cell_angle_gamma   88.06481936
_symmetry_Int_Tables_number   1
_chemical_formula_structural   Ba9(NbN6)2
_chemical_formula_sum   'Ba18 Nb4 N24'
_cell_volume   1003.59470627
_cell_formula_units_Z   2
loop_
 _symmetry_equiv_pos_site_id
 _symmetry_equiv_pos_as_xyz
  1  'x, y, z'
loop_
 _atom_site_type_symbol
 _atom_site_label
 _atom_site_symmetry_multiplicity
 _atom_site_fract_x
 _atom_site_fract_y
 _atom_site_fract_z
 _atom_site_occupancy
  Ba  Ba0  1  0.49422600  0.33733800  0.41556200  1
  Ba  Ba1  1  0.50577400  0.66266200  0.58443800  1
  Ba  Ba2  1  0.46691300  0.62096500  0.12631600  1
  Ba  Ba3  1  0.53308700  0.37903500  0.87368400  1
  Ba  Ba4  1  0.03282700  0.25203000  0.37316600  1
  Ba  Ba5  1  0.96717300  0.74797000  0.62683400  1
  Ba  Ba6  1  0.25851800  0.01886600  0.00267400  1
  Ba  Ba7  1  0.74148200  0.98113400  0.99732600  1
  Ba  Ba8  1  0.17013100  0.58776600  0.38025300  1
  Ba  Ba9  1  0.82986900  0.41223400  0.61974700  1
  Ba  Ba10  1  0.45876800  0.92183900  0.26539800  1
  Ba  Ba11  1  0.54123200  0.07816100  0.73460200  1
  Ba  Ba12  1  0.01348600  0.06576800  0.73433600  1
  Ba  Ba13  1  0.98651400  0.93423200  0.26566400  1
  Ba  Ba14  1  0.01188700  0.38049200  0.89141100  1
  Ba  Ba15  1  0.98811300  0.61950800  0.10858900  1
  Ba  Ba16  1  0.26656000  0.70107800  0.84947500  1
  Ba  Ba17  1  0.73344000  0.29892200  0.15052500  1
  Nb  Nb0  1  0.26730000  0.30128100  0.12163000  1
  Nb  Nb1  1  0.73270000  0.69871900  0.87837000  1
  Nb  Nb2  1  0.26911100  0.36249400  0.66073600  1
  Nb  Nb3  1  0.73088900  0.63750600  0.33926400  1
  N  N0  1  0.19814600  0.54451600  0.69630900  1
  N  N1  1  0.80185400  0.45548400  0.30369100  1
  N  N2  1  0.28312100  0.37393100  0.25344700  1
  N  N3  1  0.71687900  0.62606900  0.74655300  1
  N  N4  1  0.05907200  0.19973300  0.12523600  1
  N  N5  1  0.94092800  0.80026700  0.87476400  1
  N  N6  1  0.21700800  0.80601400  0.17807300  1
  N  N7  1  0.78299200  0.19398600  0.82192700  1
  N  N8  1  0.14422200  0.32279800  0.54439700  1
  N  N9  1  0.85577800  0.67720200  0.45560300  1
  N  N10  1  0.24695200  0.20702100  0.79056100  1
  N  N11  1  0.75304800  0.79297900  0.20943900  1
  N  N12  1  0.49578100  0.63173500  0.38217800  1
  N  N13  1  0.50421900  0.36826500  0.61782200  1
  N  N14  1  0.26391200  0.46944400  0.00324200  1
  N  N15  1  0.73608800  0.53055600  0.99675800  1
  N  N16  1  0.45571600  0.17439800  0.08944700  1
  N  N17  1  0.54428400  0.82560200  0.91055300  1
  N  N18  1  0.21275400  0.95841600  0.44338300  1
  N  N19  1  0.78724600  0.04158400  0.55661700  1
  N  N20  1  0.31432300  0.92238800  0.61644500  1
  N  N21  1  0.68567700  0.07761200  0.38355500  1
  N  N22  1  0.26577800  0.94217000  0.52922800  1
  N  N23  1  0.73422200  0.05783000  0.47077200  1
loop_
_geom_bond_atom_site_label_1
_geom_bond_atom_site_label_2
_geom_bond_distance
_geom_bond_site_symmetry_2
Ba0 N13 2.700480 1_555
Ba0 N2 2.757277 1_555
Ba0 N12 2.827126 1_555
Ba0 N1 2.936775 1_555
Ba0 N21 3.043113 1_555
Ba0 N8 3.187706 1_555
Ba0 N23 3.291824 1_555
Ba1 N12 2.700480 1_555
Ba1 N3 2.757277 1_555
Ba1 N13 2.827126 1_555
Ba1 N0 2.936775 1_555
Ba1 N20 3.043113 1_555
Ba1 N9 3.187706 1_555
Ba1 N22 3.291824 1_555
Ba2 N6 2.833731 1_555
Ba2 N15 2.902229 1_554
Ba2 N2 2.979868 1_555
Ba2 N14 3.021455 1_555
Ba2 N17 3.068714 1_554
Ba2 N11 3.307363 1_555
Ba2 N12 3.348973 1_555
Ba3 N7 2.833731 1_555
Ba3 N14 2.902229 1_556
Ba3 N3 2.979868 1_555
Ba3 N15 3.021455 1_555
Ba3 N16 3.068714 1_556
Ba3 N10 3.307363 1_555
Ba3 N13 3.348973 1_555
Ba4 N2 2.615010 1_555
Ba4 N8 2.688641 1_555
Ba4 N1 2.742985 1_455
Ba4 N23 3.150159 1_455
Ba4 N18 3.164349 1_545
Ba4 N21 3.340300 1_455
Ba4 N4 3.342305 1_555
Ba4 N19 3.348126 1_455
Ba5 N3 2.615010 1_555
Ba5 N9 2.688641 1_555
Ba5 N0 2.742985 1_655
Ba5 N22 3.150159 1_655
Ba5 N19 3.164349 1_565
Ba5 N20 3.340300 1_655
Ba5 N5 3.342305 1_555
Ba5 N18 3.348126 1_655
Ba6 N6 2.711144 1_545
Ba6 N16 2.721043 1_555
Ba6 N10 2.930644 1_554
Ba6 N4 3.006113 1_555
Ba6 N17 3.286676 1_544
Ba7 N7 2.711144 1_565
Ba7 N17 2.721043 1_555
Ba7 N11 2.930644 1_556
Ba7 N5 3.006113 1_555
Ba7 N16 3.286676 1_566
Ba8 N12 2.710543 1_555
Ba8 N9 2.859857 1_455
Ba8 N8 2.954448 1_555
Ba8 N6 2.976783 1_555
Ba8 N2 3.030204 1_555
Ba9 N13 2.710543 1_555
Ba9 N8 2.859857 1_655
Ba9 N9 2.954448 1_555
Ba9 N7 2.976783 1_555
Ba9 N3 3.030204 1_555
Ba10 N6 2.744159 1_555
Ba10 N11 2.803606 1_555
Ba10 N12 2.918285 1_555
Ba10 N16 2.950849 1_565
Ba10 N18 3.013299 1_555
Ba10 N21 3.127684 1_565
Ba11 N7 2.744159 1_555
Ba11 N10 2.803606 1_555
Ba11 N13 2.918285 1_555
Ba11 N17 2.950849 1_545
Ba11 N19 3.013299 1_555
Ba11 N20 3.127684 1_545
Ba12 N7 2.567361 1_455
Ba12 N10 2.633387 1_555
Ba12 N5 2.864008 1_445
Ba12 N19 3.100909 1_455
Ba12 N8 3.233179 1_555
Ba12 N20 3.246142 1_545
Ba13 N6 2.567361 1_655
Ba13 N11 2.633387 1_555
Ba13 N4 2.864008 1_665
Ba13 N18 3.100909 1_655
Ba13 N9 3.233179 1_555
Ba13 N21 3.246142 1_565
Ba14 N14 2.866297 1_556
Ba14 N10 2.953105 1_555
Ba14 N7 2.982478 1_455
Ba14 N0 2.993579 1_555
Ba14 N15 3.056842 1_455
Ba14 N4 3.167331 1_556
Ba15 N15 2.866297 1_554
Ba15 N11 2.953105 1_555
Ba15 N6 2.982478 1_655
Ba15 N1 2.993579 1_555
Ba15 N14 3.056842 1_655
Ba15 N5 3.167331 1_554
Ba16 N14 2.650143 1_556
Ba16 N5 2.822931 1_455
Ba16 N17 2.855731 1_555
Ba16 N0 2.864522 1_555
Ba16 N20 3.281152 1_555
Ba17 N15 2.650143 1_554
Ba17 N4 2.822931 1_655
Ba17 N16 2.855731 1_555
Ba17 N1 2.864522 1_555
Ba17 N21 3.281152 1_555
N0 Nb2 2.005261 1_555
N1 Nb3 2.005261 1_555
N2 Nb0 2.003247 1_555
N3 Nb1 2.003247 1_555
N4 Nb0 1.992625 1_555
N5 Nb1 1.992625 1_555
N8 Nb2 1.990432 1_555
N9 Nb3 1.990432 1_555
N10 Nb2 1.989804 1_555
N11 Nb3 1.989804 1_555
N12 Nb3 1.956939 1_555
N13 Nb2 1.956939 1_555
N14 Nb0 1.974391 1_555
N15 Nb1 1.974391 1_555
N16 Nb0 2.027600 1_555
N17 Nb1 2.027600 1_555
N18 N22 1.191847 1_555
N19 N23 1.191847 1_555
N20 N22 1.190412 1_555
N21 N23 1.190412 1_555
