# generated using pymatgen
data_Ho3CuGeS7
_symmetry_space_group_name_H-M   'P 1'
_cell_length_a   9.77150245
_cell_length_b   9.77150245
_cell_length_c   5.84474572
_cell_angle_alpha   90.00000000
_cell_angle_beta   90.00000000
_cell_angle_gamma   119.99999622
_symmetry_Int_Tables_number   1
_chemical_formula_structural   Ho3CuGeS7
_chemical_formula_sum   'Ho6 Cu2 Ge2 S14'
_cell_volume   483.30240970
_cell_formula_units_Z   2
loop_
 _symmetry_equiv_pos_site_id
 _symmetry_equiv_pos_as_xyz
  1  'x, y, z'
loop_
 _atom_site_type_symbol
 _atom_site_label
 _atom_site_symmetry_multiplicity
 _atom_site_fract_x
 _atom_site_fract_y
 _atom_site_fract_z
 _atom_site_occupancy
  Ho  Ho0  1  0.64163194  0.77854425  0.75133733  1
  Ho  Ho1  1  0.22145575  0.86308770  0.75133733  1
  Ho  Ho2  1  0.13691230  0.35836806  0.75133733  1
  Ho  Ho3  1  0.86308770  0.64163194  0.25133733  1
  Ho  Ho4  1  0.77854425  0.13691230  0.25133733  1
  Ho  Ho5  1  0.35836806  0.22145575  0.25133733  1
  Cu  Cu0  1  0.00000000  0.00000000  0.68399092  1
  Cu  Cu1  1  0.00000000  0.00000000  0.18399092  1
  Ge  Ge0  1  0.66666700  0.33333300  0.83278726  1
  Ge  Ge1  1  0.33333300  0.66666700  0.33278726  1
  S  S0  1  0.15651859  0.89698048  0.20191906  1
  S  S1  1  0.84348141  0.10301952  0.70191906  1
  S  S2  1  0.66666700  0.33333300  0.45756793  1
  S  S3  1  0.74046088  0.84348141  0.20191906  1
  S  S4  1  0.42405204  0.52152989  0.49336257  1
  S  S5  1  0.57594796  0.47847011  0.99336257  1
  S  S6  1  0.10301952  0.25953912  0.20191906  1
  S  S7  1  0.52152989  0.09747784  0.99336257  1
  S  S8  1  0.90252216  0.42405204  0.99336257  1
  S  S9  1  0.89698048  0.74046088  0.70191906  1
  S  S10  1  0.25953912  0.15651859  0.70191906  1
  S  S11  1  0.47847011  0.90252216  0.49336257  1
  S  S12  1  0.33333300  0.66666700  0.95756793  1
  S  S13  1  0.09747784  0.57594796  0.49336257  1
loop_
_geom_bond_atom_site_label_1
_geom_bond_atom_site_label_2
_geom_bond_distance
_geom_bond_site_symmetry_2
Ho0 S9 2.715906 1_555
Ho0 S3 2.767302 1_556
Ho0 S4 2.785931 1_555
Ho0 S1 2.787979 1_565
Ho0 S11 2.866083 1_555
Ho0 S12 2.903462 1_555
Ho0 S5 3.021368 1_555
Ho0 S3 3.321795 1_555
Ho1 S10 2.715897 1_565
Ho1 S0 2.767304 1_556
Ho1 S11 2.785931 1_555
Ho1 S9 2.787978 1_455
Ho1 S13 2.866083 1_555
Ho1 S12 2.903454 1_555
Ho1 S7 3.021368 1_565
Ho1 S0 3.321797 1_555
Ho2 S1 2.715901 1_455
Ho2 S6 2.767301 1_556
Ho2 S13 2.785931 1_555
Ho2 S10 2.787987 1_555
Ho2 S4 2.866083 1_555
Ho2 S12 2.903461 1_555
Ho2 S8 3.021367 1_455
Ho2 S6 3.321794 1_555
Ho3 S0 2.715901 1_655
Ho3 S9 2.767301 1_555
Ho3 S8 2.785931 1_554
Ho3 S3 2.787987 1_555
Ho3 S5 2.866083 1_554
Ho3 S2 2.903461 1_555
Ho3 S13 3.021367 1_655
Ho3 S9 3.321794 1_554
Ho4 S3 2.715897 1_545
Ho4 S1 2.767304 1_555
Ho4 S7 2.785931 1_554
Ho4 S6 2.787978 1_655
Ho4 S8 2.866083 1_554
Ho4 S2 2.903454 1_555
Ho4 S11 3.021368 1_545
Ho4 S1 3.321797 1_554
Ho5 S6 2.715906 1_555
Ho5 S10 2.767302 1_555
Ho5 S5 2.785931 1_554
Ho5 S0 2.787979 1_545
Ho5 S7 2.866083 1_554
Ho5 S2 2.903462 1_555
Ho5 S4 3.021368 1_555
Ho5 S10 3.321795 1_554
Cu0 S1 2.214287 1_455
Cu0 S10 2.214295 1_555
Cu0 S9 2.214296 1_445
Cu0 Ho1 3.085851 1_545
Cu0 Ho2 3.085851 1_555
Cu0 Ho0 3.085852 1_445
Cu1 S0 2.214287 1_545
Cu1 S3 2.214295 1_445
Cu1 S6 2.214296 1_555
Cu1 Ho4 3.085851 1_455
Cu1 Ho3 3.085851 1_445
Cu1 Ho5 3.085852 1_555
Ge0 S2 2.193062 1_555
Ge0 S8 2.221509 1_555
Ge0 S7 2.221510 1_555
Ge0 S5 2.221517 1_555
Ge1 S12 2.193062 1_554
Ge1 S13 2.221509 1_555
Ge1 S11 2.221510 1_555
Ge1 S4 2.221517 1_555
