# generated using pymatgen
data_La3Ru3O11
_symmetry_space_group_name_H-M   'P 1'
_cell_length_a   9.54353200
_cell_length_b   9.54353200
_cell_length_c   9.54353200
_cell_angle_alpha   90.00000000
_cell_angle_beta   90.00000000
_cell_angle_gamma   90.00000000
_symmetry_Int_Tables_number   1
_chemical_formula_structural   La3Ru3O11
_chemical_formula_sum   'La12 Ru12 O44'
_cell_volume   869.21537999
_cell_formula_units_Z   4
loop_
 _symmetry_equiv_pos_site_id
 _symmetry_equiv_pos_as_xyz
  1  'x, y, z'
loop_
 _atom_site_type_symbol
 _atom_site_label
 _atom_site_symmetry_multiplicity
 _atom_site_fract_x
 _atom_site_fract_y
 _atom_site_fract_z
 _atom_site_occupancy
  La  La0  1  0.63611800  0.36388200  0.63611800  1
  La  La1  1  0.36388200  0.63611800  0.63611800  1
  La  La2  1  0.63611800  0.63611800  0.36388200  1
  La  La3  1  0.36388200  0.36388200  0.36388200  1
  La  La4  1  0.86388200  0.13611800  0.86388200  1
  La  La5  1  0.13611800  0.86388200  0.86388200  1
  La  La6  1  0.86388200  0.86388200  0.13611800  1
  La  La7  1  0.13611800  0.13611800  0.13611800  1
  La  La8  1  0.25000000  0.75000000  0.25000000  1
  La  La9  1  0.75000000  0.25000000  0.25000000  1
  La  La10  1  0.25000000  0.25000000  0.75000000  1
  La  La11  1  0.75000000  0.75000000  0.75000000  1
  Ru  Ru0  1  0.66128600  0.00000000  0.50000000  1
  Ru  Ru1  1  0.00000000  0.50000000  0.66128600  1
  Ru  Ru2  1  0.50000000  0.66128600  0.00000000  1
  Ru  Ru3  1  0.00000000  0.50000000  0.33871400  1
  Ru  Ru4  1  0.50000000  0.33871400  0.00000000  1
  Ru  Ru5  1  0.33871400  0.00000000  0.50000000  1
  Ru  Ru6  1  0.83871400  0.50000000  0.00000000  1
  Ru  Ru7  1  0.50000000  0.00000000  0.83871400  1
  Ru  Ru8  1  0.00000000  0.83871400  0.50000000  1
  Ru  Ru9  1  0.50000000  0.00000000  0.16128600  1
  Ru  Ru10  1  0.00000000  0.16128600  0.50000000  1
  Ru  Ru11  1  0.16128600  0.50000000  0.00000000  1
  O  O0  1  0.83030200  0.50273500  0.21211000  1
  O  O1  1  0.83030200  0.49726500  0.78789000  1
  O  O2  1  0.16969800  0.50273500  0.78789000  1
  O  O3  1  0.49726500  0.78789000  0.83030200  1
  O  O4  1  0.78789000  0.16969800  0.50273500  1
  O  O5  1  0.78789000  0.83030200  0.49726500  1
  O  O6  1  0.50273500  0.21211000  0.83030200  1
  O  O7  1  0.21211000  0.83030200  0.50273500  1
  O  O8  1  0.50273500  0.78789000  0.16969800  1
  O  O9  1  0.49726500  0.21211000  0.16969800  1
  O  O10  1  0.21211000  0.16969800  0.49726500  1
  O  O11  1  0.16969800  0.49726500  0.21211000  1
  O  O12  1  0.66969800  0.99726500  0.28789000  1
  O  O13  1  0.66969800  0.00273500  0.71211000  1
  O  O14  1  0.33030200  0.99726500  0.71211000  1
  O  O15  1  0.00273500  0.71211000  0.66969800  1
  O  O16  1  0.39499100  0.60500900  0.39499100  1
  O  O17  1  0.71211000  0.33030200  0.99726500  1
  O  O18  1  0.99726500  0.28789000  0.66969800  1
  O  O19  1  0.28789000  0.66969800  0.99726500  1
  O  O20  1  0.99726500  0.71211000  0.33030200  1
  O  O21  1  0.00273500  0.28789000  0.33030200  1
  O  O22  1  0.28789000  0.33030200  0.00273500  1
  O  O23  1  0.33030200  0.00273500  0.28789000  1
  O  O24  1  0.37360700  0.00000000  0.00000000  1
  O  O25  1  0.00000000  0.37360700  0.00000000  1
  O  O26  1  0.00000000  0.00000000  0.37360700  1
  O  O27  1  0.00000000  0.62639300  0.00000000  1
  O  O28  1  0.00000000  0.00000000  0.62639300  1
  O  O29  1  0.62639300  0.00000000  0.00000000  1
  O  O30  1  0.12639300  0.50000000  0.50000000  1
  O  O31  1  0.50000000  0.12639300  0.50000000  1
  O  O32  1  0.50000000  0.50000000  0.12639300  1
  O  O33  1  0.50000000  0.87360700  0.50000000  1
  O  O34  1  0.50000000  0.50000000  0.87360700  1
  O  O35  1  0.87360700  0.50000000  0.50000000  1
  O  O36  1  0.89499100  0.89499100  0.89499100  1
  O  O37  1  0.10500900  0.10500900  0.89499100  1
  O  O38  1  0.89499100  0.10500900  0.10500900  1
  O  O39  1  0.10500900  0.89499100  0.10500900  1
  O  O40  1  0.60500900  0.60500900  0.60500900  1
  O  O41  1  0.39499100  0.39499100  0.60500900  1
  O  O42  1  0.60500900  0.39499100  0.39499100  1
  O  O43  1  0.71211000  0.66969800  0.00273500  1
loop_
_geom_bond_atom_site_label_1
_geom_bond_atom_site_label_2
_geom_bond_distance
_geom_bond_site_symmetry_2
La0 O42 2.339193 1_555
La0 O41 2.339193 1_555
La0 O40 2.339193 1_555
La0 O1 2.674458 1_555
La0 O6 2.674458 1_555
La0 O4 2.674458 1_555
La0 O34 2.917532 1_555
La0 O35 2.917532 1_555
La0 O31 2.917532 1_555
La1 O16 2.339193 1_555
La1 O41 2.339193 1_555
La1 O40 2.339193 1_555
La1 O3 2.674458 1_555
La1 O7 2.674458 1_555
La1 O2 2.674458 1_555
La1 O34 2.917532 1_555
La1 O33 2.917532 1_555
La1 O30 2.917532 1_555
La2 O42 2.339193 1_555
La2 O16 2.339193 1_555
La2 O40 2.339193 1_555
La2 O5 2.674458 1_555
La2 O0 2.674458 1_555
La2 O8 2.674458 1_555
La2 O33 2.917532 1_555
La2 O35 2.917532 1_555
La2 O32 2.917532 1_555
La3 O41 2.339193 1_555
La3 O42 2.339193 1_555
La3 O16 2.339193 1_555
La3 O9 2.674458 1_555
La3 O10 2.674458 1_555
La3 O11 2.674458 1_555
La3 O32 2.917532 1_555
La3 O30 2.917532 1_555
La3 O31 2.917532 1_555
La4 O37 2.339193 1_655
La4 O38 2.339193 1_556
La4 O36 2.339193 1_545
La4 O13 2.674458 1_555
La4 O18 2.674458 1_555
La4 O17 2.674458 1_555
La4 O29 2.917532 1_556
La4 O28 2.917532 1_655
La4 O25 2.917532 1_656
La5 O37 2.339193 1_565
La5 O39 2.339193 1_556
La5 O36 2.339193 1_455
La5 O15 2.674458 1_555
La5 O19 2.674458 1_555
La5 O14 2.674458 1_555
La5 O28 2.917532 1_565
La5 O27 2.917532 1_556
La5 O24 2.917532 1_566
La6 O39 2.339193 1_655
La6 O38 2.339193 1_565
La6 O36 2.339193 1_554
La6 O43 2.674458 1_555
La6 O12 2.674458 1_555
La6 O20 2.674458 1_555
La6 O29 2.917532 1_565
La6 O27 2.917532 1_655
La6 O26 2.917532 1_665
La7 O38 2.339193 1_455
La7 O37 2.339193 1_554
La7 O39 2.339193 1_545
La7 O22 2.674458 1_555
La7 O23 2.674458 1_555
La7 O21 2.674458 1_555
La7 O24 2.917532 1_555
La7 O25 2.917532 1_555
La7 O26 2.917532 1_555
La8 O16 2.396684 1_555
La8 O39 2.396684 1_555
La8 O8 2.556510 1_555
La8 O7 2.556510 1_555
La8 O23 2.556510 1_565
La8 O20 2.556510 1_455
La8 O19 2.556510 1_554
La8 O11 2.556510 1_555
La9 O42 2.396684 1_555
La9 O38 2.396684 1_555
La9 O4 2.556510 1_555
La9 O0 2.556510 1_555
La9 O21 2.556510 1_655
La9 O17 2.556510 1_554
La9 O12 2.556510 1_545
La9 O9 2.556510 1_555
La10 O41 2.396684 1_555
La10 O37 2.396684 1_555
La10 O2 2.556510 1_555
La10 O6 2.556510 1_555
La10 O22 2.556510 1_556
La10 O14 2.556510 1_545
La10 O18 2.556510 1_455
La10 O10 2.556510 1_555
La11 O40 2.396684 1_555
La11 O36 2.396684 1_555
La11 O43 2.556510 1_556
La11 O15 2.556510 1_655
La11 O13 2.556510 1_565
La11 O3 2.556510 1_555
La11 O1 2.556510 1_555
La11 O5 2.556510 1_555
O0 Ru3 2.020739 1_655
O0 Ru6 2.026038 1_555
O1 Ru1 2.020739 1_655
O1 Ru6 2.026038 1_556
O2 Ru1 2.020739 1_555
O2 Ru11 2.026038 1_556
O3 Ru2 2.020739 1_556
O3 Ru7 2.026038 1_565
O4 Ru0 2.020739 1_555
O4 Ru10 2.026038 1_655
O5 Ru0 2.020739 1_565
O5 Ru8 2.026038 1_655
O6 Ru4 2.020739 1_556
O6 Ru7 2.026038 1_555
O7 Ru5 2.020739 1_565
O7 Ru8 2.026038 1_555
O8 Ru2 2.020739 1_555
O8 Ru9 2.026038 1_565
O9 Ru4 2.020739 1_555
O9 Ru9 2.026038 1_555
O10 Ru5 2.020739 1_555
O10 Ru10 2.026038 1_555
O11 Ru3 2.020739 1_555
O11 Ru11 2.026038 1_555
O12 Ru9 2.020739 1_565
O12 Ru0 2.026038 1_565
O13 Ru7 2.020739 1_555
O13 Ru0 2.026038 1_555
O14 Ru7 2.020739 1_565
O14 Ru5 2.026038 1_565
O15 Ru8 2.020739 1_555
O15 Ru1 2.026038 1_555
O17 Ru6 2.020739 1_556
O17 Ru4 2.026038 1_556
O18 Ru10 2.020739 1_655
O18 Ru1 2.026038 1_655
O19 Ru11 2.020739 1_556
O19 Ru2 2.026038 1_556
O20 Ru8 2.020739 1_655
O20 Ru3 2.026038 1_655
O21 Ru10 2.020739 1_555
O21 Ru3 2.026038 1_555
O22 Ru11 2.020739 1_555
O22 Ru4 2.026038 1_555
O23 Ru9 2.020739 1_555
O23 Ru5 2.026038 1_555
O24 Ru9 1.955571 1_555
O24 Ru7 1.955571 1_554
O25 Ru11 1.955571 1_555
O25 Ru6 1.955571 1_455
O26 Ru10 1.955571 1_555
O26 Ru8 1.955571 1_545
O27 Ru11 1.955571 1_555
O27 Ru6 1.955571 1_455
O28 Ru10 1.955571 1_555
O28 Ru8 1.955571 1_545
O29 Ru9 1.955571 1_555
O29 Ru7 1.955571 1_554
O30 Ru1 1.955571 1_555
O30 Ru3 1.955571 1_555
O31 Ru0 1.955571 1_555
O31 Ru5 1.955571 1_555
O32 Ru2 1.955571 1_555
O32 Ru4 1.955571 1_555
O33 Ru0 1.955571 1_565
O33 Ru5 1.955571 1_565
O34 Ru2 1.955571 1_556
O34 Ru4 1.955571 1_556
O35 Ru1 1.955571 1_655
O35 Ru3 1.955571 1_655
O43 Ru6 2.020739 1_555
O43 Ru2 2.026038 1_555
