# generated using pymatgen
data_Ba(BrO3)2
_symmetry_space_group_name_H-M   'P 1'
_cell_length_a   7.36240002
_cell_length_b   7.36239976
_cell_length_c   7.75281463
_cell_angle_alpha   101.52798480
_cell_angle_beta   110.76014531
_cell_angle_gamma   114.60141004
_symmetry_Int_Tables_number   1
_chemical_formula_structural   Ba(BrO3)2
_chemical_formula_sum   'Ba2 Br4 O12'
_cell_volume   326.09555435
_cell_formula_units_Z   2
loop_
 _symmetry_equiv_pos_site_id
 _symmetry_equiv_pos_as_xyz
  1  'x, y, z'
loop_
 _atom_site_type_symbol
 _atom_site_label
 _atom_site_symmetry_multiplicity
 _atom_site_fract_x
 _atom_site_fract_y
 _atom_site_fract_z
 _atom_site_occupancy
  Ba  Ba0  1  0.89362145  0.14362145  0.75000000  1
  Ba  Ba1  1  0.10637855  0.85637855  0.25000000  1
  Br  Br0  1  0.51902137  0.32315082  0.81742286  1
  Br  Br1  1  0.48097863  0.67684918  0.18257714  1
  Br  Br2  1  0.99427304  0.29840150  0.31742286  1
  Br  Br3  1  0.00572696  0.70159850  0.68257714  1
  O  O0  1  0.54679822  0.91060563  0.34643795  1
  O  O1  1  0.06416668  0.20035826  0.15356205  1
  O  O2  1  0.45320178  0.08939437  0.65356205  1
  O  O3  1  0.90669989  0.78147060  0.50166018  1
  O  O4  1  0.17498108  0.56781455  0.41826903  1
  O  O5  1  0.93583332  0.79964174  0.84643795  1
  O  O6  1  0.09330011  0.21852940  0.49834082  1
  O  O7  1  0.77981142  0.40503872  0.99833982  1
  O  O8  1  0.22018858  0.59496128  0.00165918  1
  O  O9  1  0.35045548  0.24328695  0.91826903  1
  O  O10  1  0.82501892  0.43218545  0.58173097  1
  O  O11  1  0.64954452  0.75671305  0.08173097  1
loop_
_geom_bond_atom_site_label_1
_geom_bond_atom_site_label_2
_geom_bond_distance
_geom_bond_site_symmetry_2
Ba0 O0 2.792137 1_545
Ba0 O1 2.792141 1_656
Ba0 O10 2.829254 1_555
Ba0 O9 2.829263 1_655
Ba0 O6 2.839092 1_655
Ba0 O8 2.839102 1_656
Ba0 O5 2.883855 1_545
Ba0 O2 2.883867 1_555
Ba0 O7 3.019705 1_555
Ba0 O3 3.019716 1_545
Ba1 O2 2.792137 1_565
Ba1 O5 2.792141 1_454
Ba1 O4 2.829254 1_555
Ba1 O11 2.829263 1_455
Ba1 O3 2.839099 1_455
Ba1 O7 2.839104 1_454
Ba1 O1 2.883855 1_565
Ba1 O0 2.883867 1_555
Ba1 O8 3.019710 1_555
Ba1 O6 3.019719 1_565
Br0 O9 1.661700 1_555
Br0 O2 1.675084 1_555
Br0 O7 1.675234 1_555
Br1 O11 1.661700 1_555
Br1 O0 1.675084 1_555
Br1 O8 1.675237 1_555
Br2 O4 1.661703 1_655
Br2 O1 1.675079 1_655
Br2 O6 1.675231 1_655
Br3 O10 1.661703 1_455
Br3 O5 1.675079 1_455
Br3 O3 1.675225 1_455
