# generated using pymatgen
data_Cs2Na(C2N3)3
_symmetry_space_group_name_H-M   'P 1'
_cell_length_a   7.24003232
_cell_length_b   7.24003232
_cell_length_c   14.84982800
_cell_angle_alpha   90.00000000
_cell_angle_beta   90.00000000
_cell_angle_gamma   120.00000288
_symmetry_Int_Tables_number   1
_chemical_formula_structural   Cs2Na(C2N3)3
_chemical_formula_sum   'Cs4 Na2 C12 N18'
_cell_volume   674.11354225
_cell_formula_units_Z   2
loop_
 _symmetry_equiv_pos_site_id
 _symmetry_equiv_pos_as_xyz
  1  'x, y, z'
loop_
 _atom_site_type_symbol
 _atom_site_label
 _atom_site_symmetry_multiplicity
 _atom_site_fract_x
 _atom_site_fract_y
 _atom_site_fract_z
 _atom_site_occupancy
  Cs  Cs0  1  0.33333300  0.66666700  0.06954600  1
  Cs  Cs1  1  0.66666700  0.33333300  0.93045400  1
  Cs  Cs2  1  0.33333300  0.66666700  0.43045400  1
  Cs  Cs3  1  0.66666700  0.33333300  0.56954600  1
  Na  Na0  1  0.00000000  0.00000000  0.00000000  1
  Na  Na1  1  0.00000000  0.00000000  0.50000000  1
  C  C0  1  0.85772200  0.19770600  0.32756800  1
  C  C1  1  0.85772200  0.19770600  0.17243200  1
  C  C2  1  0.66001600  0.85772200  0.82756800  1
  C  C3  1  0.33998400  0.14227800  0.32756800  1
  C  C4  1  0.14227800  0.80229400  0.67243200  1
  C  C5  1  0.14227800  0.80229400  0.82756800  1
  C  C6  1  0.66001600  0.85772200  0.67243200  1
  C  C7  1  0.80229400  0.66001600  0.32756800  1
  C  C8  1  0.80229400  0.66001600  0.17243200  1
  C  C9  1  0.19770600  0.33998400  0.67243200  1
  C  C10  1  0.33998400  0.14227800  0.17243200  1
  C  C11  1  0.19770600  0.33998400  0.82756800  1
  N  N0  1  0.86574500  0.67260900  0.40208800  1
  N  N1  1  0.32739100  0.19313600  0.40208800  1
  N  N2  1  0.71281400  0.64401500  0.25000000  1
  N  N3  1  0.80686400  0.13425500  0.40208800  1
  N  N4  1  0.67260900  0.80686400  0.59791200  1
  N  N5  1  0.67260900  0.80686400  0.90208800  1
  N  N6  1  0.28718600  0.35598500  0.75000000  1
  N  N7  1  0.13425500  0.32739100  0.90208800  1
  N  N8  1  0.19313600  0.86574500  0.90208800  1
  N  N9  1  0.19313600  0.86574500  0.59791200  1
  N  N10  1  0.06879900  0.71281400  0.75000000  1
  N  N11  1  0.13425500  0.32739100  0.59791200  1
  N  N12  1  0.64401500  0.93120100  0.75000000  1
  N  N13  1  0.80686400  0.13425500  0.09791200  1
  N  N14  1  0.35598500  0.06879900  0.25000000  1
  N  N15  1  0.32739100  0.19313600  0.09791200  1
  N  N16  1  0.93120100  0.28718600  0.25000000  1
  N  N17  1  0.86574500  0.67260900  0.09791200  1
loop_
_geom_bond_atom_site_label_1
_geom_bond_atom_site_label_2
_geom_bond_distance
_geom_bond_site_symmetry_2
Cs0 N8 3.279407 1_554
Cs0 N7 3.279410 1_554
Cs0 N5 3.279411 1_554
Cs0 N17 3.433007 1_455
Cs0 N13 3.433010 1_565
Cs0 N15 3.433014 1_555
Cs1 N13 3.279407 1_556
Cs1 N17 3.279410 1_556
Cs1 N15 3.279411 1_556
Cs1 N7 3.433007 1_655
Cs1 N8 3.433010 1_545
Cs1 N5 3.433014 1_555
Cs2 N9 3.279407 1_555
Cs2 N11 3.279410 1_555
Cs2 N4 3.279411 1_555
Cs2 N0 3.433007 1_455
Cs2 N3 3.433010 1_565
Cs2 N1 3.433014 1_555
Cs3 N3 3.279407 1_555
Cs3 N0 3.279410 1_555
Cs3 N1 3.279411 1_555
Cs3 N11 3.433007 1_655
Cs3 N9 3.433010 1_545
Cs3 N4 3.433014 1_555
C0 N3 1.184082 1_555
C0 N16 1.298026 1_555
C1 N13 1.184082 1_555
C1 N16 1.298026 1_555
C2 N5 1.184082 1_555
C2 N12 1.298026 1_555
C3 N1 1.184082 1_555
C3 N14 1.298026 1_555
C4 N9 1.184082 1_555
C4 N10 1.298026 1_555
C5 N8 1.184082 1_555
C5 N10 1.298026 1_555
C6 N4 1.184082 1_555
C6 N12 1.298026 1_555
C7 N0 1.184082 1_555
C7 N2 1.298026 1_555
C8 N17 1.184082 1_555
C8 N2 1.298026 1_555
C9 N11 1.184082 1_555
C9 N6 1.298026 1_555
C10 N15 1.184082 1_555
C10 N14 1.298026 1_555
C11 N7 1.184082 1_555
C11 N6 1.298026 1_555
N0 Na1 2.524539 1_665
N1 Na1 2.524539 1_555
N3 Na1 2.524539 1_655
N4 Na1 2.524539 1_665
N5 Na0 2.524539 1_666
N7 Na0 2.524539 1_556
N8 Na0 2.524539 1_566
N9 Na1 2.524539 1_565
N11 Na1 2.524539 1_555
N13 Na0 2.524539 1_655
N15 Na0 2.524539 1_555
N17 Na0 2.524539 1_665
