# generated using pymatgen
data_K2Pd(NO3)4
_symmetry_space_group_name_H-M   'P 1'
_cell_length_a   7.91596544
_cell_length_b   9.36715800
_cell_length_c   15.34394410
_cell_angle_alpha   90.00000000
_cell_angle_beta   90.00000000
_cell_angle_gamma   91.06721184
_symmetry_Int_Tables_number   1
_chemical_formula_structural   K2Pd(NO3)4
_chemical_formula_sum   'K8 Pd4 N16 O48'
_cell_volume   1137.55761308
_cell_formula_units_Z   4
loop_
 _symmetry_equiv_pos_site_id
 _symmetry_equiv_pos_as_xyz
  1  'x, y, z'
loop_
 _atom_site_type_symbol
 _atom_site_label
 _atom_site_symmetry_multiplicity
 _atom_site_fract_x
 _atom_site_fract_y
 _atom_site_fract_z
 _atom_site_occupancy
  K  K0  1  0.77426860  0.01521978  0.83811706  1
  K  K1  1  0.77426860  0.51521978  0.66188294  1
  K  K2  1  0.74630699  0.54774859  0.09294422  1
  K  K3  1  0.25369301  0.45225141  0.90705578  1
  K  K4  1  0.22573140  0.98478022  0.16188294  1
  K  K5  1  0.74630699  0.04774859  0.40705578  1
  K  K6  1  0.25369301  0.95225141  0.59294422  1
  K  K7  1  0.22573140  0.48478022  0.33811706  1
  Pd  Pd0  1  0.26880428  0.82758708  0.87984656  1
  Pd  Pd1  1  0.26880428  0.32758708  0.62015344  1
  Pd  Pd2  1  0.73119572  0.17241292  0.12015344  1
  Pd  Pd3  1  0.73119572  0.67241292  0.37984656  1
  N  N0  1  0.42672756  0.28554844  0.19359184  1
  N  N1  1  0.56754649  0.23768661  0.96019187  1
  N  N2  1  0.57327244  0.71445156  0.80640816  1
  N  N3  1  0.05022567  0.23971446  0.04102925  1
  N  N4  1  0.05022567  0.73971446  0.45897075  1
  N  N5  1  0.10143949  0.20632640  0.76887765  1
  N  N6  1  0.10143949  0.70632640  0.73112235  1
  N  N7  1  0.43245351  0.26231339  0.46019187  1
  N  N8  1  0.42672756  0.78554844  0.30640816  1
  N  N9  1  0.94977433  0.26028554  0.54102925  1
  N  N10  1  0.57327244  0.21445156  0.69359184  1
  N  N11  1  0.94977433  0.76028554  0.95897075  1
  N  N12  1  0.89856051  0.79367360  0.23112235  1
  N  N13  1  0.56754649  0.73768661  0.53980813  1
  N  N14  1  0.89856051  0.29367360  0.26887765  1
  N  N15  1  0.43245351  0.76231339  0.03980813  1
  O  O0  1  0.54439272  0.35126668  0.99924799  1
  O  O1  1  0.48917206  0.78933804  0.11315844  1
  O  O2  1  0.05009101  0.20957865  0.84512517  1
  O  O3  1  0.51143871  0.39673585  0.20058333  1
  O  O4  1  0.79891903  0.28134340  0.52630756  1
  O  O5  1  0.20108097  0.71865660  0.47369244  1
  O  O6  1  0.48856129  0.60326415  0.79941667  1
  O  O7  1  0.02930584  0.35991534  0.58684156  1
  O  O8  1  0.97069416  0.14008466  0.08684156  1
  O  O9  1  0.94990899  0.79042135  0.15487483  1
  O  O10  1  0.54439272  0.85126668  0.50075201  1
  O  O11  1  0.94990899  0.29042135  0.34512517  1
  O  O12  1  0.34150635  0.36244593  0.49670644  1
  O  O13  1  0.02675411  0.15431655  0.51584528  1
  O  O14  1  0.27834284  0.27158234  0.21898026  1
  O  O15  1  0.50919443  0.82854786  0.84229392  1
  O  O16  1  0.05009101  0.70957865  0.65487483  1
  O  O17  1  0.19942391  0.81447700  0.75486821  1
  O  O18  1  0.80057609  0.18552300  0.24513179  1
  O  O19  1  0.06539541  0.11024870  0.71657333  1
  O  O20  1  0.34150635  0.86244593  0.00329356  1
  O  O21  1  0.06539541  0.61024870  0.78342667  1
  O  O22  1  0.93460359  0.88975130  0.28342667  1
  O  O23  1  0.02675411  0.65431655  0.98415472  1
  O  O24  1  0.65849365  0.63755407  0.50329356  1
  O  O25  1  0.49080557  0.67145214  0.34229392  1
  O  O26  1  0.02930584  0.85991534  0.91315844  1
  O  O27  1  0.72165716  0.22841766  0.71898026  1
  O  O28  1  0.49080557  0.17145214  0.15770608  1
  O  O29  1  0.50919443  0.32854786  0.65770608  1
  O  O30  1  0.79891903  0.78134340  0.97369244  1
  O  O31  1  0.51143871  0.89673585  0.29941667  1
  O  O32  1  0.45560728  0.14873332  0.49924799  1
  O  O33  1  0.19942391  0.31447700  0.74513179  1
  O  O34  1  0.48856129  0.10326415  0.70058333  1
  O  O35  1  0.97324589  0.34568345  0.01584528  1
  O  O36  1  0.97069416  0.64008466  0.41315844  1
  O  O37  1  0.51082794  0.21066196  0.88684156  1
  O  O38  1  0.27834284  0.77158234  0.28101974  1
  O  O39  1  0.20108097  0.21865660  0.02630756  1
  O  O40  1  0.93460359  0.38975130  0.21657333  1
  O  O41  1  0.48917206  0.28933804  0.38684156  1
  O  O42  1  0.97324589  0.84568345  0.48415472  1
  O  O43  1  0.45560728  0.64873332  0.00075201  1
  O  O44  1  0.80057609  0.68552300  0.25486821  1
  O  O45  1  0.65849365  0.13755407  -0.00329356  1
  O  O46  1  0.72165716  0.72841766  0.78101974  1
  O  O47  1  0.51082794  0.71066196  0.61315844  1
loop_
_geom_bond_atom_site_label_1
_geom_bond_atom_site_label_2
_geom_bond_distance
_geom_bond_site_symmetry_2
K0 O15 2.707013 1_545
K0 O27 2.744879 1_555
K0 O26 2.761765 1_645
K0 O2 2.818737 1_655
K0 O45 2.848430 1_556
K0 O46 2.848984 1_545
K0 O37 2.898551 1_555
K0 O30 3.030000 1_545
K0 O19 3.083015 1_655
K0 O34 3.212183 1_555
K1 O29 2.707013 1_555
K1 O46 2.744879 1_555
K1 O7 2.761765 1_655
K1 O16 2.818737 1_655
K1 O24 2.848430 1_555
K1 O27 2.848984 1_555
K1 O47 2.898551 1_555
K1 O4 3.030000 1_555
K1 O21 3.083015 1_655
K1 O6 3.212183 1_555
K2 O0 2.810584 1_554
K2 O44 2.828857 1_555
K2 O3 2.843850 1_555
K2 O40 2.844771 1_555
K2 O43 2.876167 1_555
K2 O30 2.876719 1_554
K2 O35 2.887205 1_555
K2 O9 2.920847 1_555
K2 O23 2.937482 1_654
K2 O1 3.087415 1_555
K3 O43 2.810584 1_556
K3 O33 2.828857 1_555
K3 O6 2.843850 1_555
K3 O21 2.844775 1_555
K3 O0 2.876167 1_555
K3 O39 2.876719 1_556
K3 O23 2.887205 1_555
K3 O2 2.920847 1_555
K3 O35 2.937482 1_456
K3 O37 3.087415 1_555
K4 O28 2.707013 1_565
K4 O38 2.744879 1_555
K4 O8 2.761765 1_465
K4 O9 2.818737 1_455
K4 O20 2.848430 1_555
K4 O14 2.848984 1_565
K4 O1 2.898551 1_555
K4 O39 3.030000 1_565
K4 O22 3.083020 1_455
K4 O31 3.212183 1_555
K5 O10 2.810584 1_545
K5 O18 2.828857 1_555
K5 O31 2.843850 1_545
K5 O22 2.844771 1_545
K5 O32 2.876167 1_555
K5 O4 2.876719 1_555
K5 O42 2.887205 1_545
K5 O11 2.920847 1_555
K5 O13 2.937482 1_655
K5 O41 3.087415 1_555
K6 O32 2.810584 1_565
K6 O17 2.828857 1_555
K6 O34 2.843850 1_565
K6 O19 2.844775 1_565
K6 O10 2.876167 1_555
K6 O5 2.876719 1_555
K6 O13 2.887205 1_565
K6 O16 2.920847 1_555
K6 O42 2.937482 1_455
K6 O47 3.087415 1_555
K7 O25 2.707013 1_555
K7 O14 2.744879 1_555
K7 O36 2.761765 1_455
K7 O11 2.818737 1_455
K7 O12 2.848430 1_555
K7 O38 2.848984 1_555
K7 O41 2.898551 1_555
K7 O5 3.030000 1_555
K7 O40 3.083020 1_455
K7 O3 3.212183 1_555
N0 O3 1.232842 1_555
N0 O14 1.242116 1_555
N0 O28 1.312601 1_555
N1 O37 1.236182 1_555
N1 O0 1.237707 1_555
N1 O45 1.318004 1_556
N2 O6 1.232842 1_555
N2 O46 1.242116 1_555
N2 O15 1.312601 1_555
N3 O39 1.234803 1_555
N3 O35 1.236323 1_455
N3 O8 1.318920 1_455
N4 O5 1.234803 1_555
N4 O42 1.236323 1_455
N4 O36 1.318920 1_455
N5 O19 1.235270 1_555
N5 O2 1.239098 1_555
N5 O33 1.315827 1_555
N6 O21 1.235270 1_555
N6 O16 1.239098 1_555
N6 O17 1.315827 1_555
N7 O41 1.236182 1_555
N7 O32 1.237707 1_555
N7 O12 1.318004 1_555
N8 O31 1.232842 1_555
N8 O38 1.242116 1_555
N8 O25 1.312601 1_555
N9 O4 1.234803 1_555
N9 O13 1.236323 1_655
N9 O7 1.318920 1_655
N10 O34 1.232842 1_555
N10 O27 1.242116 1_555
N10 O29 1.312601 1_555
N11 O30 1.234803 1_555
N11 O23 1.236323 1_655
N11 O26 1.318920 1_655
N12 O22 1.235269 1_555
N12 O9 1.239098 1_555
N12 O44 1.315827 1_555
N13 O47 1.236182 1_555
N13 O10 1.237707 1_555
N13 O24 1.318004 1_555
N14 O40 1.235269 1_555
N14 O11 1.239098 1_555
N14 O18 1.315827 1_555
N15 O1 1.236182 1_555
N15 O43 1.237707 1_555
N15 O20 1.318004 1_555
O7 Pd1 1.992144 1_555
O8 Pd2 1.992144 1_555
O12 Pd1 2.004666 1_555
O15 Pd0 1.988105 1_555
O17 Pd0 1.997905 1_555
O18 Pd2 1.997905 1_555
O20 Pd0 2.004666 1_554
O24 Pd3 2.004666 1_555
O25 Pd3 1.988105 1_555
O26 Pd0 1.992144 1_555
O28 Pd2 1.988105 1_555
O29 Pd1 1.988105 1_555
O33 Pd1 1.997905 1_555
O36 Pd3 1.992144 1_555
O44 Pd3 1.997905 1_555
O45 Pd2 2.004666 1_555
