# generated using pymatgen
data_V3CdO7
_symmetry_space_group_name_H-M   'P 1'
_cell_length_a   5.37713500
_cell_length_b   10.46294000
_cell_length_c   10.65375200
_cell_angle_alpha   90.00000000
_cell_angle_beta   90.00000000
_cell_angle_gamma   90.00000000
_symmetry_Int_Tables_number   1
_chemical_formula_structural   V3CdO7
_chemical_formula_sum   'V12 Cd4 O28'
_cell_volume   599.38691526
_cell_formula_units_Z   4
loop_
 _symmetry_equiv_pos_site_id
 _symmetry_equiv_pos_as_xyz
  1  'x, y, z'
loop_
 _atom_site_type_symbol
 _atom_site_label
 _atom_site_symmetry_multiplicity
 _atom_site_fract_x
 _atom_site_fract_y
 _atom_site_fract_z
 _atom_site_occupancy
  V  V0  1  0.78377200  0.97643200  0.81392700  1
  V  V1  1  0.28377200  0.02356800  0.68607300  1
  V  V2  1  0.71622800  0.52356800  0.31392700  1
  V  V3  1  0.21622800  0.47643200  0.18607300  1
  V  V4  1  0.21622800  0.02356800  0.18607300  1
  V  V5  1  0.71622800  0.97643200  0.31392700  1
  V  V6  1  0.28377200  0.47643200  0.68607300  1
  V  V7  1  0.78377200  0.52356800  0.81392700  1
  V  V8  1  0.29245100  0.75000000  0.78567100  1
  V  V9  1  0.79245100  0.25000000  0.71432900  1
  V  V10  1  0.20754900  0.75000000  0.28567100  1
  V  V11  1  0.70754900  0.25000000  0.21432900  1
  Cd  Cd0  1  0.81239400  0.75000000  0.57836600  1
  Cd  Cd1  1  0.31239400  0.25000000  0.92163400  1
  Cd  Cd2  1  0.68760600  0.75000000  0.07836600  1
  Cd  Cd3  1  0.18760600  0.25000000  0.42163400  1
  O  O0  1  0.52445800  0.88169400  0.71956100  1
  O  O1  1  0.02445800  0.11830600  0.78043900  1
  O  O2  1  0.97554200  0.61830600  0.21956100  1
  O  O3  1  0.47554200  0.38169400  0.28043900  1
  O  O4  1  0.47554200  0.11830600  0.28043900  1
  O  O5  1  0.97554200  0.88169400  0.21956100  1
  O  O6  1  0.02445800  0.38169400  0.78043900  1
  O  O7  1  0.52445800  0.61830600  0.71956100  1
  O  O8  1  0.04842900  0.88078400  0.72284600  1
  O  O9  1  0.54842900  0.11921600  0.77715400  1
  O  O10  1  0.45157100  0.61921600  0.22284600  1
  O  O11  1  0.95157100  0.38078400  0.27715400  1
  O  O12  1  0.95157100  0.11921600  0.27715400  1
  O  O13  1  0.45157100  0.88078400  0.22284600  1
  O  O14  1  0.54842900  0.38078400  0.77715400  1
  O  O15  1  0.04842900  0.61921600  0.72284600  1
  O  O16  1  0.76900800  0.92298300  0.96094200  1
  O  O17  1  0.26900800  0.07701700  0.53905800  1
  O  O18  1  0.73099200  0.57701700  0.46094200  1
  O  O19  1  0.23099200  0.42298300  0.03905800  1
  O  O20  1  0.23099200  0.07701700  0.03905800  1
  O  O21  1  0.73099200  0.92298300  0.46094200  1
  O  O22  1  0.26900800  0.42298300  0.53905800  1
  O  O23  1  0.76900800  0.57701700  0.96094200  1
  O  O24  1  0.31015400  0.75000000  0.94098800  1
  O  O25  1  0.81015400  0.25000000  0.55901200  1
  O  O26  1  0.18984600  0.75000000  0.44098800  1
  O  O27  1  0.68984600  0.25000000  0.05901200  1
loop_
_geom_bond_atom_site_label_1
_geom_bond_atom_site_label_2
_geom_bond_distance
_geom_bond_site_symmetry_2
Cd0 O18 2.243297 1_555
Cd0 O21 2.243297 1_555
Cd0 O8 2.419221 1_655
Cd0 O15 2.419221 1_655
Cd0 O26 2.502282 1_655
Cd0 O7 2.560968 1_555
Cd0 O0 2.560968 1_555
Cd1 O19 2.243297 1_556
Cd1 O20 2.243297 1_556
Cd1 O14 2.419221 1_555
Cd1 O9 2.419221 1_555
Cd1 O27 2.502282 1_556
Cd1 O1 2.560968 1_555
Cd1 O6 2.560968 1_555
Cd2 O16 2.243297 1_554
Cd2 O23 2.243297 1_554
Cd2 O13 2.419221 1_555
Cd2 O10 2.419221 1_555
Cd2 O24 2.502282 1_554
Cd2 O2 2.560968 1_555
Cd2 O5 2.560968 1_555
Cd3 O22 2.243297 1_555
Cd3 O17 2.243297 1_555
Cd3 O11 2.419221 1_455
Cd3 O12 2.419221 1_455
Cd3 O25 2.502282 1_455
Cd3 O3 2.560968 1_555
Cd3 O4 2.560968 1_555
O0 V0 1.984324 1_555
O0 V8 1.987720 1_555
O0 V1 2.001435 1_565
O1 V1 1.984324 1_555
O1 V9 1.987720 1_455
O1 V0 2.001435 1_445
O2 V2 1.984324 1_555
O2 V10 1.987720 1_655
O2 V3 2.001435 1_655
O3 V3 1.984324 1_555
O3 V11 1.987720 1_555
O3 V2 2.001435 1_555
O4 V4 1.984324 1_555
O4 V11 1.987720 1_555
O4 V5 2.001435 1_545
O5 V5 1.984324 1_555
O5 V10 1.987720 1_655
O5 V4 2.001435 1_665
O6 V6 1.984324 1_555
O6 V9 1.987720 1_455
O6 V7 2.001435 1_455
O7 V7 1.984324 1_555
O7 V8 1.987720 1_555
O7 V6 2.001435 1_555
O8 V0 1.992062 1_455
O8 V1 1.996687 1_565
O8 V8 2.010517 1_555
O9 V1 1.992062 1_555
O9 V0 1.996687 1_545
O9 V9 2.010517 1_555
O10 V2 1.992062 1_555
O10 V3 1.996687 1_555
O10 V10 2.010517 1_555
O11 V3 1.992062 1_655
O11 V2 1.996687 1_555
O11 V11 2.010517 1_555
O12 V4 1.992062 1_655
O12 V5 1.996687 1_545
O12 V11 2.010517 1_555
O13 V5 1.992062 1_555
O13 V4 1.996687 1_565
O13 V10 2.010517 1_555
O14 V6 1.992062 1_555
O14 V7 1.996687 1_555
O14 V9 2.010517 1_555
O15 V7 1.992062 1_455
O15 V6 1.996687 1_555
O15 V8 2.010517 1_555
O16 V0 1.664998 1_555
O17 V1 1.664998 1_555
O18 V2 1.664998 1_555
O19 V3 1.664998 1_555
O20 V4 1.664998 1_555
O21 V5 1.664998 1_555
O22 V6 1.664998 1_555
O23 V7 1.664998 1_555
O24 V8 1.657445 1_555
O25 V9 1.657445 1_555
O26 V10 1.657445 1_555
O27 V11 1.657445 1_555
