# generated using pymatgen
data_YSbMo2O9
_symmetry_space_group_name_H-M   'P 1'
_cell_length_a   9.72805067
_cell_length_b   9.72805067
_cell_length_c   10.87354475
_cell_angle_alpha   68.14994162
_cell_angle_beta   68.14994162
_cell_angle_gamma   95.45166718
_symmetry_Int_Tables_number   1
_chemical_formula_structural   YSbMo2O9
_chemical_formula_sum   'Y4 Sb4 Mo8 O36'
_cell_volume   853.29055435
_cell_formula_units_Z   4
loop_
 _symmetry_equiv_pos_site_id
 _symmetry_equiv_pos_as_xyz
  1  'x, y, z'
loop_
 _atom_site_type_symbol
 _atom_site_label
 _atom_site_symmetry_multiplicity
 _atom_site_fract_x
 _atom_site_fract_y
 _atom_site_fract_z
 _atom_site_occupancy
  Y  Y0  1  0.87417900  0.12582100  0.75000000  1
  Y  Y1  1  0.32807000  0.67193000  0.75000000  1
  Y  Y2  1  0.12582100  0.87417900  0.25000000  1
  Y  Y3  1  0.67193000  0.32807000  0.25000000  1
  Sb  Sb0  1  0.65050900  0.61996400  0.46424500  1
  Sb  Sb1  1  0.34949100  0.38003600  0.53575500  1
  Sb  Sb2  1  0.38003600  0.34949100  0.03575500  1
  Sb  Sb3  1  0.61996400  0.65050900  0.96424500  1
  Mo  Mo0  1  0.94188600  0.56597900  0.69313900  1
  Mo  Mo1  1  0.05811400  0.43402100  0.30686100  1
  Mo  Mo2  1  0.56597900  0.94188600  0.19313900  1
  Mo  Mo3  1  0.74086700  0.95362700  0.52507000  1
  Mo  Mo4  1  0.43402100  0.05811400  0.80686100  1
  Mo  Mo5  1  0.25913300  0.04637300  0.47493000  1
  Mo  Mo6  1  0.04637300  0.25913300  0.97493000  1
  Mo  Mo7  1  0.95362700  0.74086700  0.02507000  1
  O  O0  1  0.42309200  0.54194600  0.59956500  1
  O  O1  1  0.06714100  0.09554100  0.10198700  1
  O  O2  1  0.63586500  0.79128000  0.29734500  1
  O  O3  1  0.62095000  0.14467100  0.77279200  1
  O  O4  1  0.90445900  0.93285900  0.39801300  1
  O  O5  1  0.36413500  0.20872000  0.70265500  1
  O  O6  1  0.45805400  0.57690800  0.90043500  1
  O  O7  1  0.54194600  0.42309200  0.09956500  1
  O  O8  1  0.09554100  0.06714100  0.60198700  1
  O  O9  1  0.37905000  0.85532900  0.22720800  1
  O  O10  1  0.85532900  0.37905000  0.72720800  1
  O  O11  1  0.98012500  0.30660200  0.49791100  1
  O  O12  1  0.09346500  0.55730200  0.74804900  1
  O  O13  1  0.20872000  0.36413500  0.20265500  1
  O  O14  1  0.57690800  0.45805400  0.40043500  1
  O  O15  1  0.70185300  0.12901000  0.43173600  1
  O  O16  1  0.29814700  0.87099000  0.56826400  1
  O  O17  1  0.22140000  0.40556700  0.92067600  1
  O  O18  1  0.69339800  0.01987500  0.00208900  1
  O  O19  1  0.04251100  0.22118800  0.82637500  1
  O  O20  1  0.59443300  0.77860000  0.57932400  1
  O  O21  1  0.22118800  0.04251100  0.32637500  1
  O  O22  1  0.14467100  0.62095000  0.27279200  1
  O  O23  1  0.44269800  0.90653500  0.75195100  1
  O  O24  1  0.30660200  0.98012500  0.99791100  1
  O  O25  1  0.95748900  0.77881200  0.17362500  1
  O  O26  1  0.01987500  0.69339800  0.50208900  1
  O  O27  1  0.93285900  0.90445900  0.89801300  1
  O  O28  1  0.77860000  0.59443300  0.07932400  1
  O  O29  1  0.77881200  0.95748900  0.67362500  1
  O  O30  1  0.12901000  0.70185300  0.93173600  1
  O  O31  1  0.87099000  0.29814700  0.06826400  1
  O  O32  1  0.79128000  0.63586500  0.79734500  1
  O  O33  1  0.90653500  0.44269800  0.25195100  1
  O  O34  1  0.55730200  0.09346500  0.24804900  1
  O  O35  1  0.40556700  0.22140000  0.42067600  1
loop_
_geom_bond_atom_site_label_1
_geom_bond_atom_site_label_2
_geom_bond_distance
_geom_bond_site_symmetry_2
Mo0 O10 1.768745 1_555
Mo0 O26 1.777364 1_655
Mo0 O12 1.783100 1_655
Mo0 O32 1.849212 1_555
Mo1 O22 1.768745 1_555
Mo1 O11 1.777364 1_455
Mo1 O33 1.783100 1_455
Mo1 O13 1.849212 1_555
Mo2 O9 1.768745 1_555
Mo2 O18 1.777364 1_565
Mo2 O34 1.783100 1_565
Mo2 O2 1.849212 1_555
Mo3 O4 1.764780 1_555
Mo3 O15 1.790471 1_565
Mo3 O29 1.798137 1_555
Mo3 O20 1.855337 1_555
Mo4 O3 1.768745 1_555
Mo4 O24 1.777364 1_545
Mo4 O23 1.783100 1_545
Mo4 O5 1.849212 1_555
Mo5 O8 1.764780 1_555
Mo5 O16 1.790471 1_545
Mo5 O21 1.798137 1_555
Mo5 O35 1.855337 1_555
Mo6 O1 1.764780 1_556
Mo6 O31 1.790471 1_456
Mo6 O19 1.798137 1_555
Mo6 O17 1.855337 1_555
Mo7 O27 1.764780 1_554
Mo7 O30 1.790471 1_654
Mo7 O25 1.798137 1_555
Mo7 O28 1.855337 1_555
O0 Sb0 2.015462 1_555
O0 Sb1 2.108050 1_555
O0 Y1 2.401114 1_555
O1 Y2 2.427138 1_545
O2 Sb0 2.019278 1_555
O3 Y0 2.414276 1_555
O4 Y2 2.427138 1_655
O5 Sb1 2.019278 1_555
O6 Sb2 2.015462 1_556
O6 Sb3 2.108050 1_555
O6 Y1 2.401114 1_555
O7 Sb3 2.015462 1_554
O7 Sb2 2.108050 1_555
O7 Y3 2.401114 1_555
O8 Y0 2.427138 1_455
O9 Y2 2.414276 1_555
O10 Y0 2.414276 1_555
O11 Y0 2.373423 1_555
O12 Y1 2.454109 1_555
O13 Sb2 2.019278 1_555
O14 Sb1 2.015462 1_555
O14 Sb0 2.108050 1_555
O14 Y3 2.401114 1_555
O15 Y3 2.329492 1_555
O16 Y1 2.329492 1_555
O17 Sb2 2.309579 1_556
O17 Y1 2.389843 1_555
O18 Y0 2.373423 1_554
O19 Y0 2.351384 1_455
O20 Sb0 2.309579 1_555
O20 Y1 2.389843 1_555
O21 Y2 2.351384 1_545
O22 Y2 2.414276 1_555
O23 Y1 2.454109 1_555
O24 Y2 2.373423 1_556
O25 Y2 2.351384 1_655
O26 Y2 2.373423 1_555
O27 Y0 2.427138 1_565
O28 Sb3 2.309579 1_554
O28 Y3 2.389843 1_555
O29 Y0 2.351384 1_565
O30 Y1 2.329492 1_555
O31 Y3 2.329492 1_555
O32 Sb3 2.019278 1_555
O33 Y3 2.454109 1_555
O34 Y3 2.454109 1_555
O35 Sb1 2.309579 1_555
O35 Y3 2.389843 1_555
