# generated using pymatgen
data_SbCNCl4O
_symmetry_space_group_name_H-M   'P 1'
_cell_length_a   12.05733936
_cell_length_b   12.05733936
_cell_length_c   10.53633900
_cell_angle_alpha   90.00000000
_cell_angle_beta   90.00000000
_cell_angle_gamma   119.99999647
_symmetry_Int_Tables_number   1
_chemical_formula_structural   SbCNCl4O
_chemical_formula_sum   'Sb6 C6 N6 Cl24 O6'
_cell_volume   1326.54916724
_cell_formula_units_Z   6
loop_
 _symmetry_equiv_pos_site_id
 _symmetry_equiv_pos_as_xyz
  1  'x, y, z'
loop_
 _atom_site_type_symbol
 _atom_site_label
 _atom_site_symmetry_multiplicity
 _atom_site_fract_x
 _atom_site_fract_y
 _atom_site_fract_z
 _atom_site_occupancy
  Sb  Sb0  1  0.63411400  0.95270800  0.25000000  1
  Sb  Sb1  1  0.31859400  0.36588600  0.25000000  1
  Sb  Sb2  1  0.95270800  0.31859400  0.75000000  1
  Sb  Sb3  1  0.04729200  0.68140600  0.25000000  1
  Sb  Sb4  1  0.68140600  0.63411400  0.75000000  1
  Sb  Sb5  1  0.36588600  0.04729200  0.75000000  1
  C  C0  1  0.29672100  0.75591700  0.25000000  1
  C  C1  1  0.75591700  0.45919600  0.75000000  1
  C  C2  1  0.70327900  0.24408300  0.75000000  1
  C  C3  1  0.45919600  0.70327900  0.25000000  1
  C  C4  1  0.24408300  0.54080400  0.25000000  1
  C  C5  1  0.54080400  0.29672100  0.75000000  1
  N  N0  1  0.37167700  0.57778500  0.25000000  1
  N  N1  1  0.79389200  0.37167700  0.75000000  1
  N  N2  1  0.57778500  0.20610800  0.75000000  1
  N  N3  1  0.20610800  0.62832300  0.25000000  1
  N  N4  1  0.42221500  0.79389200  0.25000000  1
  N  N5  1  0.62832300  0.42221500  0.75000000  1
  Cl  Cl0  1  0.81488600  0.85591200  0.75000000  1
  Cl  Cl1  1  0.95897400  0.81488600  0.25000000  1
  Cl  Cl2  1  0.68724000  0.62001700  0.52706500  1
  Cl  Cl3  1  0.85591200  0.04102600  0.25000000  1
  Cl  Cl4  1  0.62001700  0.93277800  0.47293500  1
  Cl  Cl5  1  0.37998300  0.06722200  0.97293500  1
  Cl  Cl6  1  0.39515900  0.86939200  0.75000000  1
  Cl  Cl7  1  0.31276000  0.37998300  0.47293500  1
  Cl  Cl8  1  0.06722200  0.68724000  0.02706500  1
  Cl  Cl9  1  0.93277800  0.31276000  0.52706500  1
  Cl  Cl10  1  0.13060800  0.52576700  0.75000000  1
  Cl  Cl11  1  0.60484100  0.13060800  0.25000000  1
  Cl  Cl12  1  0.62001700  0.93277800  0.02706500  1
  Cl  Cl13  1  0.93277800  0.31276000  0.97293500  1
  Cl  Cl14  1  0.06722200  0.68724000  0.47293500  1
  Cl  Cl15  1  0.37998300  0.06722200  0.52706500  1
  Cl  Cl16  1  0.86939200  0.47423300  0.25000000  1
  Cl  Cl17  1  0.18511400  0.14408800  0.25000000  1
  Cl  Cl18  1  0.14408800  0.95897400  0.75000000  1
  Cl  Cl19  1  0.68724000  0.62001700  0.97293500  1
  Cl  Cl20  1  0.31276000  0.37998300  0.02706500  1
  Cl  Cl21  1  0.47423300  0.60484100  0.75000000  1
  Cl  Cl22  1  0.04102600  0.18511400  0.75000000  1
  Cl  Cl23  1  0.52576700  0.39515900  0.25000000  1
  O  O0  1  0.25096500  0.83160500  0.25000000  1
  O  O1  1  0.16839500  0.41935900  0.25000000  1
  O  O2  1  0.41935900  0.25096500  0.75000000  1
  O  O3  1  0.58064100  0.74903500  0.25000000  1
  O  O4  1  0.74903500  0.16839500  0.75000000  1
  O  O5  1  0.83160500  0.58064100  0.75000000  1
loop_
_geom_bond_atom_site_label_1
_geom_bond_atom_site_label_2
_geom_bond_distance
_geom_bond_site_symmetry_2
C0 O0 1.280888 1_555
C0 N4 1.344013 1_555
C0 N3 1.371003 1_555
C1 O5 1.280898 1_555
C1 N1 1.344013 1_555
C1 N5 1.371003 1_555
C2 O4 1.280888 1_555
C2 N2 1.344013 1_555
C2 N1 1.371003 1_555
C3 O3 1.280899 1_555
C3 N0 1.344013 1_555
C3 N4 1.371003 1_555
C4 O1 1.280898 1_555
C4 N3 1.344013 1_555
C4 N0 1.371003 1_555
C5 O2 1.280899 1_555
C5 N5 1.344013 1_555
C5 N2 1.371003 1_555
N0 Sb1 2.302629 1_555
N1 Sb2 2.302628 1_555
N2 Sb5 2.302629 1_555
N3 Sb3 2.302628 1_555
N4 Sb0 2.302629 1_555
N5 Sb4 2.302629 1_555
Cl0 Sb4 2.331955 1_555
Cl1 Sb3 2.331955 1_655
Cl2 Sb4 2.358647 1_555
Cl3 Sb0 2.331955 1_545
Cl4 Sb0 2.358646 1_555
Cl5 Sb5 2.358646 1_555
Cl6 Sb5 2.341515 1_565
Cl7 Sb1 2.358647 1_555
Cl8 Sb3 2.358646 1_555
Cl9 Sb2 2.358646 1_555
Cl10 Sb2 2.341515 1_455
Cl11 Sb0 2.341515 1_545
Cl12 Sb0 2.358646 1_555
Cl13 Sb2 2.358646 1_555
Cl14 Sb3 2.358646 1_555
Cl15 Sb5 2.358646 1_555
Cl16 Sb3 2.341515 1_655
Cl17 Sb1 2.331955 1_555
Cl18 Sb5 2.331955 1_565
Cl19 Sb4 2.358647 1_555
Cl20 Sb1 2.358647 1_555
Cl21 Sb4 2.341515 1_555
Cl22 Sb2 2.331955 1_455
Cl23 Sb1 2.341515 1_555
O0 Sb3 2.205239 1_555
O1 Sb1 2.205231 1_555
O2 Sb5 2.205242 1_555
O3 Sb0 2.205242 1_555
O4 Sb2 2.205239 1_555
O5 Sb4 2.205231 1_555
