# generated using pymatgen
data_Fe2BO4
_symmetry_space_group_name_H-M   'P 1'
_cell_length_a   6.34830194
_cell_length_b   9.47414200
_cell_length_c   9.37163498
_cell_angle_alpha   90.00000000
_cell_angle_beta   90.51438962
_cell_angle_gamma   90.00000000
_symmetry_Int_Tables_number   1
_chemical_formula_structural   Fe2BO4
_chemical_formula_sum   'Fe16 B8 O32'
_cell_volume   563.63159084
_cell_formula_units_Z   8
loop_
 _symmetry_equiv_pos_site_id
 _symmetry_equiv_pos_as_xyz
  1  'x, y, z'
loop_
 _atom_site_type_symbol
 _atom_site_label
 _atom_site_symmetry_multiplicity
 _atom_site_fract_x
 _atom_site_fract_y
 _atom_site_fract_z
 _atom_site_occupancy
  Fe  Fe0  1  0.66515900  0.44380200  0.49355500  1
  Fe  Fe1  1  0.66515900  0.55619800  0.99355500  1
  Fe  Fe2  1  0.41392200  0.68380500  0.27136800  1
  Fe  Fe3  1  0.41392200  0.31619500  0.77136800  1
  Fe  Fe4  1  0.16643200  0.81314100  0.50075000  1
  Fe  Fe5  1  0.16643200  0.18685900  0.00075000  1
  Fe  Fe6  1  0.91545200  0.94527300  0.78622900  1
  Fe  Fe7  1  0.91545200  0.05472700  0.28622900  1
  Fe  Fe8  1  0.16593500  0.55640800  0.99958600  1
  Fe  Fe9  1  0.16593500  0.44359200  0.49958600  1
  Fe  Fe10  1  0.91566600  0.68060100  0.27009600  1
  Fe  Fe11  1  0.91566600  0.31939900  0.77009600  1
  Fe  Fe12  1  0.66488000  0.81460300  0.50559200  1
  Fe  Fe13  1  0.66488000  0.18539700  0.00559200  1
  Fe  Fe14  1  0.41462700  0.94080000  0.78528400  1
  Fe  Fe15  1  0.41462700  0.05920000  0.28528400  1
  B  B0  1  0.15600400  0.12563800  0.55470100  1
  B  B1  1  0.15600400  0.87436200  0.05470100  1
  B  B2  1  0.67724500  0.12681900  0.55309800  1
  B  B3  1  0.67724500  0.87318100  0.05309800  1
  B  B4  1  0.90900100  0.37592500  0.22580300  1
  B  B5  1  0.90900100  0.62407500  0.72580300  1
  B  B6  1  0.42176200  0.37619000  0.22409000  1
  B  B7  1  0.42176200  0.62381000  0.72409000  1
  O  O0  1  0.90608400  0.49891700  0.14510300  1
  O  O1  1  0.90608400  0.50108300  0.64510300  1
  O  O2  1  0.42549300  0.37987900  0.37005700  1
  O  O3  1  0.42549300  0.62012100  0.87005700  1
  O  O4  1  0.66337800  0.63252800  0.41121600  1
  O  O5  1  0.66337800  0.36747200  0.91121600  1
  O  O6  1  0.16967000  0.74544500  0.12001100  1
  O  O7  1  0.16967000  0.25455500  0.62001100  1
  O  O8  1  0.41638500  0.75516300  0.65461500  1
  O  O9  1  0.41638500  0.24483700  0.15461500  1
  O  O10  1  0.91364500  0.86903800  0.38289800  1
  O  O11  1  0.91364500  0.13096200  0.88289800  1
  O  O12  1  0.14926900  0.88408300  0.90812700  1
  O  O13  1  0.14926900  0.11591700  0.40812700  1
  O  O14  1  0.68083100  0.00050200  0.63291100  1
  O  O15  1  0.68083100  0.99949800  0.13291100  1
  O  O16  1  0.42602700  0.50069800  0.14545800  1
  O  O17  1  0.42602700  0.49930200  0.64545800  1
  O  O18  1  0.90388800  0.38207800  0.37154400  1
  O  O19  1  0.90388800  0.61792200  0.87154400  1
  O  O20  1  0.16208600  0.63325100  0.40747700  1
  O  O21  1  0.16208600  0.36674900  0.90747700  1
  O  O22  1  0.66935200  0.74316200  0.11909100  1
  O  O23  1  0.66935200  0.25683800  0.61909100  1
  O  O24  1  0.91473400  0.75672800  0.65823500  1
  O  O25  1  0.91473400  0.24327200  0.15823500  1
  O  O26  1  0.41569900  0.86956000  0.38883000  1
  O  O27  1  0.41569900  0.13044000  0.88883000  1
  O  O28  1  0.68206300  0.88252600  0.90740700  1
  O  O29  1  0.68206300  0.11747400  0.40740700  1
  O  O30  1  0.14819100  0.99839300  0.63350000  1
  O  O31  1  0.14819100  0.00160700  0.13350000  1
loop_
_geom_bond_atom_site_label_1
_geom_bond_atom_site_label_2
_geom_bond_distance
_geom_bond_site_symmetry_2
Fe0 O4 1.947414 1_555
Fe0 O18 1.994332 1_555
Fe0 O2 1.997387 1_555
Fe0 O23 2.126460 1_555
Fe0 O1 2.147530 1_555
Fe0 O17 2.155559 1_555
Fe1 O5 1.947414 1_555
Fe1 O19 1.994332 1_555
Fe1 O3 1.997387 1_555
Fe1 O22 2.126460 1_556
Fe1 O0 2.147530 1_556
Fe1 O16 2.155559 1_556
Fe2 O26 2.075772 1_555
Fe2 O16 2.099848 1_555
Fe2 O4 2.103398 1_555
Fe2 O20 2.109270 1_555
Fe2 O6 2.172073 1_555
Fe2 O22 2.241379 1_555
Fe3 O27 2.075772 1_555
Fe3 O17 2.099848 1_555
Fe3 O5 2.103398 1_555
Fe3 O21 2.109270 1_555
Fe3 O7 2.172073 1_555
Fe3 O23 2.241379 1_555
Fe4 O20 1.915480 1_555
Fe4 O26 1.979826 1_555
Fe4 O10 2.010908 1_455
Fe4 O30 2.155025 1_555
Fe4 O8 2.204034 1_555
Fe4 O24 2.249310 1_455
Fe5 O21 1.915480 1_554
Fe5 O27 1.979826 1_554
Fe5 O11 2.010908 1_454
Fe5 O31 2.155025 1_555
Fe5 O9 2.204034 1_555
Fe5 O25 2.249310 1_455
Fe6 O12 1.952931 1_655
Fe6 O28 1.966847 1_555
Fe6 O11 1.978888 1_565
Fe6 O14 2.125634 1_565
Fe6 O30 2.126717 1_655
Fe6 O24 2.151657 1_555
Fe7 O13 1.952931 1_655
Fe7 O29 1.966847 1_555
Fe7 O10 1.978888 1_545
Fe7 O15 2.125634 1_545
Fe7 O31 2.126717 1_655
Fe7 O25 2.151657 1_555
Fe8 O21 1.993501 1_555
Fe8 O6 2.116913 1_556
Fe8 O19 2.123941 1_455
Fe8 O3 2.142176 1_555
Fe8 O16 2.198447 1_556
Fe8 O0 2.217669 1_456
Fe9 O20 1.993501 1_555
Fe9 O7 2.116913 1_555
Fe9 O18 2.123941 1_455
Fe9 O2 2.142176 1_555
Fe9 O17 2.198447 1_555
Fe9 O1 2.217669 1_455
Fe10 O20 2.066369 1_655
Fe10 O10 2.074891 1_555
Fe10 O0 2.082654 1_555
Fe10 O4 2.135337 1_555
Fe10 O22 2.181592 1_555
Fe10 O6 2.235316 1_655
Fe11 O21 2.066369 1_655
Fe11 O11 2.074891 1_555
Fe11 O1 2.082654 1_555
Fe11 O5 2.135337 1_555
Fe11 O23 2.181592 1_555
Fe11 O7 2.235316 1_655
Fe12 O4 1.938516 1_555
Fe12 O26 1.984877 1_555
Fe12 O10 2.028473 1_555
Fe12 O14 2.129254 1_565
Fe12 O8 2.189914 1_555
Fe12 O24 2.195939 1_555
Fe13 O5 1.938516 1_554
Fe13 O27 1.984877 1_554
Fe13 O11 2.028473 1_554
Fe13 O15 2.129254 1_545
Fe13 O9 2.189914 1_555
Fe13 O25 2.195939 1_555
Fe14 O27 2.041970 1_565
Fe14 O28 2.112389 1_555
Fe14 O12 2.118183 1_555
Fe14 O8 2.143170 1_555
Fe14 O30 2.266897 1_555
Fe14 O14 2.293100 1_565
Fe15 O26 2.041970 1_545
Fe15 O29 2.112389 1_555
Fe15 O13 2.118183 1_555
Fe15 O9 2.143170 1_555
Fe15 O31 2.266897 1_555
Fe15 O15 2.293100 1_545
B0 O7 1.368560 1_555
B0 O13 1.377003 1_555
B0 O30 1.414844 1_545
B1 O6 1.368560 1_555
B1 O12 1.377003 1_554
B1 O31 1.414844 1_565
B2 O29 1.368846 1_555
B2 O23 1.379471 1_555
B2 O14 1.411341 1_555
B3 O28 1.368846 1_554
B3 O22 1.379471 1_555
B3 O15 1.411341 1_555
B4 O18 1.367751 1_555
B4 O0 1.389194 1_555
B4 O25 1.407902 1_555
B5 O19 1.367751 1_555
B5 O1 1.389194 1_555
B5 O24 1.407902 1_555
B6 O2 1.368388 1_555
B6 O16 1.391258 1_555
B6 O9 1.404764 1_555
B7 O3 1.368388 1_555
B7 O17 1.391258 1_555
B7 O8 1.404764 1_555
