# generated using pymatgen
data_Bi3Pt3O11
_symmetry_space_group_name_H-M   'P 1'
_cell_length_a   9.40669483
_cell_length_b   9.40674912
_cell_length_c   9.40674177
_cell_angle_alpha   89.99984395
_cell_angle_beta   90.00009995
_cell_angle_gamma   89.99983213
_symmetry_Int_Tables_number   1
_chemical_formula_structural   Bi3Pt3O11
_chemical_formula_sum   'Bi12 Pt12 O44'
_cell_volume   832.36888723
_cell_formula_units_Z   4
loop_
 _symmetry_equiv_pos_site_id
 _symmetry_equiv_pos_as_xyz
  1  'x, y, z'
loop_
 _atom_site_type_symbol
 _atom_site_label
 _atom_site_symmetry_multiplicity
 _atom_site_fract_x
 _atom_site_fract_y
 _atom_site_fract_z
 _atom_site_occupancy
  Bi  Bi0  1  0.86728417  0.13271431  0.86728271  1
  Bi  Bi1  1  0.13271114  0.13271583  0.13271860  1
  Bi  Bi2  1  0.36728935  0.63271799  0.63271930  1
  Bi  Bi3  1  0.63271583  0.36728569  0.63271729  1
  Bi  Bi4  1  0.86728068  0.86728006  0.13272052  1
  Bi  Bi5  1  0.13271065  0.86728201  0.86728070  1
  Bi  Bi6  1  0.25000000  0.75000000  0.25000000  1
  Bi  Bi7  1  0.63271932  0.63271994  0.36727948  1
  Bi  Bi8  1  0.75000000  0.75000000  0.75000000  1
  Bi  Bi9  1  0.25000000  0.25000000  0.75000000  1
  Bi  Bi10  1  0.75000000  0.25000000  0.25000000  1
  Bi  Bi11  1  0.36728886  0.36728417  0.36728140  1
  Pt  Pt0  1  0.49999991  0.15795877  -0.00000140  1
  Pt  Pt1  1  0.00000248  0.49999994  0.84205293  1
  Pt  Pt2  1  0.49999752  0.00000006  0.65794707  1
  Pt  Pt3  1  0.50000694  0.00000096  0.34205597  1
  Pt  Pt4  1  0.15794706  0.00000639  0.50000488  1
  Pt  Pt5  1  0.65795033  0.50000180  0.00000268  1
  Pt  Pt6  1  0.99999306  0.49999904  0.15794403  1
  Pt  Pt7  1  0.84204967  -0.00000180  0.49999732  1
  Pt  Pt8  1  0.00000009  0.34204123  0.50000140  1
  Pt  Pt9  1  0.34205294  0.49999361  -0.00000488  1
  Pt  Pt10  1  0.99999364  0.65795606  0.50000282  1
  Pt  Pt11  1  0.50000636  0.84204394  -0.00000282  1
  O  O0  1  0.89724645  0.10275485  0.10275506  1
  O  O1  1  0.50000664  0.85455833  0.50000217  1
  O  O2  1  0.83140363  0.21152267  0.49440193  1
  O  O3  1  0.60275325  0.60275572  0.60275567  1
  O  O4  1  0.33141035  0.71152266  0.00559173  1
  O  O5  1  0.99999794  0.00000005  0.64544138  1
  O  O6  1  0.89724675  0.89724428  0.89724433  1
  O  O7  1  0.83140216  0.78847659  0.50559520  1
  O  O8  1  0.71153578  0.00559431  0.33141316  1
  O  O9  1  0.39724819  0.39724419  0.60275713  1
  O  O10  1  0.16858965  0.78847734  0.49440827  1
  O  O11  1  0.16859266  0.21152561  0.50559912  1
  O  O12  1  0.60275355  0.39724515  0.39724494  1
  O  O13  1  0.50559986  0.16859681  0.21153946  1
  O  O14  1  0.66859784  0.71152341  0.99440480  1
  O  O15  1  0.28846924  0.99440819  0.33141803  1
  O  O16  1  0.49440267  0.16859661  0.78845878  1
  O  O17  1  0.39725195  0.60275311  0.39724805  1
  O  O18  1  0.85454873  0.50000084  0.49999869  1
  O  O19  1  0.21153076  0.50559181  0.16858197  1
  O  O20  1  0.71153249  0.99440180  0.66858482  1
  O  O21  1  0.00558596  0.66859598  0.28845977  1
  O  O22  1  0.99440014  0.33140319  0.28846054  1
  O  O23  1  0.28846754  0.00559911  0.66858545  1
  O  O24  1  0.78846422  0.49440569  0.16858684  1
  O  O25  1  0.33140734  0.28847439  0.99440088  1
  O  O26  1  0.50559783  0.83140387  0.78845831  1
  O  O27  1  0.78846751  0.50559820  0.83141518  1
  O  O28  1  0.35455622  0.00000127  -0.00000311  1
  O  O29  1  0.50000189  0.14544394  0.50000050  1
  O  O30  1  0.10274805  0.89724689  0.10275195  1
  O  O31  1  0.99999336  0.64544167  -0.00000217  1
  O  O32  1  0.49441404  0.83140402  0.21154023  1
  O  O33  1  0.21153246  0.49440089  0.83141455  1
  O  O34  1  0.10275181  0.10275581  0.89724287  1
  O  O35  1  0.66859637  0.28847733  0.00559807  1
  O  O36  1  0.50000206  0.49999995  0.85455862  1
  O  O37  1  0.99999652  0.00000091  0.35456086  1
  O  O38  1  0.99440217  0.66859613  0.71154169  1
  O  O39  1  0.14544378  0.49999873  0.50000311  1
  O  O40  1  0.64545127  -0.00000084  0.00000131  1
  O  O41  1  0.00559733  0.33140339  0.71154122  1
  O  O42  1  0.50000348  0.49999909  0.14543914  1
  O  O43  1  0.99999811  0.35455606  -0.00000050  1
loop_
_geom_bond_atom_site_label_1
_geom_bond_atom_site_label_2
_geom_bond_distance
_geom_bond_site_symmetry_2
Bi0 O34 2.250542 1_655
Bi0 O6 2.250583 1_545
Bi0 O0 2.250600 1_556
Bi0 O41 2.707822 1_655
Bi0 O20 2.707929 1_545
Bi0 O35 2.707929 1_556
Bi0 O40 2.733417 1_556
Bi0 O5 2.733457 1_555
Bi0 O43 2.733475 1_556
Bi1 O0 2.250524 1_455
Bi1 O30 2.250583 1_545
Bi1 O34 2.250630 1_554
Bi1 O22 2.707804 1_455
Bi1 O15 2.707940 1_545
Bi1 O25 2.707974 1_554
Bi1 O43 2.733459 1_455
Bi1 O37 2.733469 1_455
Bi1 O28 2.733513 1_555
Bi2 O3 2.250517 1_555
Bi2 O17 2.250599 1_555
Bi2 O9 2.250616 1_555
Bi2 O26 2.707771 1_555
Bi2 O33 2.707957 1_555
Bi2 O10 2.707961 1_555
Bi2 O36 2.733446 1_555
Bi2 O1 2.733477 1_555
Bi2 O39 2.733515 1_555
Bi3 O9 2.250542 1_555
Bi3 O3 2.250583 1_555
Bi3 O12 2.250600 1_555
Bi3 O16 2.707822 1_555
Bi3 O27 2.707929 1_555
Bi3 O2 2.707929 1_555
Bi3 O18 2.733417 1_555
Bi3 O36 2.733457 1_555
Bi3 O29 2.733475 1_555
Bi4 O30 2.250562 1_655
Bi4 O0 2.250637 1_565
Bi4 O6 2.250647 1_554
Bi4 O21 2.707735 1_655
Bi4 O8 2.707867 1_565
Bi4 O14 2.707869 1_554
Bi4 O40 2.733402 1_565
Bi4 O31 2.733467 1_555
Bi4 O37 2.733488 1_565
Bi5 O6 2.250517 1_455
Bi5 O30 2.250599 1_556
Bi5 O34 2.250616 1_565
Bi5 O38 2.707771 1_455
Bi5 O23 2.707957 1_565
Bi5 O4 2.707961 1_556
Bi5 O5 2.733446 1_465
Bi5 O31 2.733477 1_456
Bi5 O28 2.733515 1_566
Bi6 O17 2.399111 1_555
Bi6 O30 2.399111 1_555
Bi6 O32 2.450154 1_555
Bi6 O21 2.450154 1_555
Bi6 O10 2.450155 1_555
Bi6 O4 2.450155 1_555
Bi6 O15 2.450170 1_555
Bi6 O19 2.450170 1_555
Bi7 O17 2.250562 1_555
Bi7 O12 2.250637 1_555
Bi7 O3 2.250647 1_555
Bi7 O32 2.707735 1_555
Bi7 O24 2.707867 1_555
Bi7 O7 2.707869 1_555
Bi7 O18 2.733402 1_555
Bi7 O1 2.733467 1_555
Bi7 O42 2.733488 1_555
Bi8 O6 2.399058 1_555
Bi8 O3 2.399058 1_555
Bi8 O26 2.450044 1_555
Bi8 O38 2.450044 1_555
Bi8 O27 2.450096 1_555
Bi8 O20 2.450096 1_555
Bi8 O7 2.450099 1_555
Bi8 O14 2.450099 1_555
Bi9 O34 2.399056 1_555
Bi9 O9 2.399056 1_555
Bi9 O16 2.450045 1_555
Bi9 O41 2.450045 1_555
Bi9 O11 2.450075 1_555
Bi9 O25 2.450075 1_555
Bi9 O23 2.450091 1_555
Bi9 O33 2.450091 1_555
Bi10 O0 2.399062 1_555
Bi10 O12 2.399062 1_555
Bi10 O13 2.450030 1_555
Bi10 O22 2.450030 1_555
Bi10 O35 2.450075 1_555
Bi10 O2 2.450075 1_555
Bi10 O24 2.450123 1_555
Bi10 O8 2.450123 1_555
Bi11 O12 2.250524 1_555
Bi11 O17 2.250583 1_555
Bi11 O9 2.250630 1_555
Bi11 O13 2.707804 1_555
Bi11 O19 2.707940 1_555
Bi11 O11 2.707974 1_555
Bi11 O29 2.733459 1_555
Bi11 O42 2.733469 1_555
Bi11 O39 2.733513 1_555
O1 Pt2 2.019714 1_565
O1 Pt3 2.019723 1_565
O2 Pt7 1.992971 1_555
O2 Pt8 2.006330 1_655
O4 Pt9 1.993013 1_555
O4 Pt11 2.006341 1_555
O5 Pt4 2.019703 1_655
O5 Pt7 2.019742 1_555
O7 Pt7 1.992946 1_565
O7 Pt10 2.006297 1_555
O8 Pt3 1.992999 1_555
O8 Pt7 2.006208 1_555
O10 Pt4 1.993013 1_565
O10 Pt10 2.006341 1_455
O11 Pt4 1.992922 1_555
O11 Pt8 2.006278 1_555
O13 Pt0 1.993121 1_555
O13 Pt3 2.006313 1_555
O14 Pt5 1.992946 1_556
O14 Pt11 2.006297 1_556
O15 Pt3 1.993080 1_565
O15 Pt4 2.006280 1_565
O16 Pt0 1.993110 1_556
O16 Pt2 2.006297 1_555
O18 Pt10 2.019802 1_555
O18 Pt8 2.019867 1_655
O19 Pt6 1.993080 1_455
O19 Pt9 2.006280 1_555
O20 Pt2 1.993055 1_565
O20 Pt7 2.006255 1_565
O21 Pt10 1.993140 1_455
O21 Pt6 2.006322 1_455
O22 Pt8 1.993121 1_655
O22 Pt6 2.006313 1_555
O23 Pt2 1.993009 1_555
O23 Pt4 2.006219 1_555
O24 Pt6 1.992999 1_555
O24 Pt5 2.006208 1_555
O25 Pt9 1.992922 1_556
O25 Pt0 2.006278 1_556
O26 Pt11 1.993102 1_556
O26 Pt2 2.006287 1_565
O27 Pt1 1.993055 1_655
O27 Pt5 2.006255 1_556
O28 Pt0 2.019810 1_555
O28 Pt11 2.019844 1_545
O29 Pt3 2.019720 1_555
O29 Pt2 2.019734 1_555
O31 Pt1 2.019714 1_654
O31 Pt6 2.019723 1_555
O32 Pt11 1.993140 1_555
O32 Pt3 2.006322 1_565
O33 Pt1 1.993009 1_555
O33 Pt9 2.006219 1_556
O35 Pt5 1.992971 1_555
O35 Pt0 2.006330 1_555
O36 Pt9 2.019703 1_556
O36 Pt5 2.019742 1_556
O37 Pt7 2.019687 1_555
O37 Pt4 2.019757 1_655
O38 Pt10 1.993102 1_555
O38 Pt1 2.006287 1_655
O39 Pt8 2.019810 1_555
O39 Pt10 2.019844 1_455
O40 Pt11 2.019802 1_545
O40 Pt0 2.019867 1_555
O41 Pt8 1.993110 1_555
O41 Pt1 2.006297 1_555
O42 Pt5 2.019687 1_555
O42 Pt9 2.019757 1_555
O43 Pt6 2.019720 1_555
O43 Pt1 2.019734 1_654
