# generated using pymatgen
data_Nb2Tl5S4Br9
_symmetry_space_group_name_H-M   'P 1'
_cell_length_a   10.34579596
_cell_length_b   10.34579596
_cell_length_c   10.34579596
_cell_angle_alpha   137.79151750
_cell_angle_beta   119.71034587
_cell_angle_gamma   76.33051662
_symmetry_Int_Tables_number   1
_chemical_formula_structural   Nb2Tl5S4Br9
_chemical_formula_sum   'Nb2 Tl5 S4 Br9'
_cell_volume   629.72379047
_cell_formula_units_Z   1
loop_
 _symmetry_equiv_pos_site_id
 _symmetry_equiv_pos_as_xyz
  1  'x, y, z'
loop_
 _atom_site_type_symbol
 _atom_site_label
 _atom_site_symmetry_multiplicity
 _atom_site_fract_x
 _atom_site_fract_y
 _atom_site_fract_z
 _atom_site_occupancy
  Nb  Nb0  1  0.91049700  0.91049700  0.00000000  1
  Nb  Nb1  1  0.08950300  0.08950300  0.00000000  1
  Tl  Tl0  1  0.88330600  0.66561300  0.21769300  1
  Tl  Tl1  1  0.50000000  0.00000000  0.50000000  1
  Tl  Tl2  1  0.55208100  0.33438700  0.21769300  1
  Tl  Tl3  1  0.11669400  0.33438700  0.78230700  1
  Tl  Tl4  1  0.44791900  0.66561300  0.78230700  1
  S  S0  1  0.09714300  0.23919200  0.33633500  1
  S  S1  1  0.90285700  0.76080800  0.66366500  1
  S  S2  1  0.09714300  0.76080800  0.85795100  1
  S  S3  1  0.90285700  0.23919200  0.14204900  1
  Br  Br0  1  0.78753600  0.03277500  0.24523900  1
  Br  Br1  1  0.21246400  0.96722500  0.75476100  1
  Br  Br2  1  0.12708400  0.86624800  0.26083600  1
  Br  Br3  1  0.39458800  0.13375200  0.26083600  1
  Br  Br4  1  0.78753600  0.54229700  0.75476100  1
  Br  Br5  1  0.21246400  0.45770300  0.24523900  1
  Br  Br6  1  0.60541200  0.86624800  0.73916400  1
  Br  Br7  1  0.50000000  0.50000000  0.00000000  1
  Br  Br8  1  0.87291600  0.13375200  0.73916400  1
loop_
_geom_bond_atom_site_label_1
_geom_bond_atom_site_label_2
_geom_bond_distance
_geom_bond_site_symmetry_2
Nb0 S1 2.512927 1_554
Nb0 S0 2.512927 1_665
Nb0 S2 2.512927 1_654
Nb0 S3 2.512927 1_565
Nb1 S0 2.512927 1_555
Nb1 S3 2.512927 1_455
Nb1 S2 2.512927 1_544
Nb1 S1 2.512927 1_444
S0 S3 2.018837 1_455
S1 S2 2.018837 1_655
Br0 Nb0 2.709216 1_545
Br1 Nb1 2.709216 1_566
Br2 Nb0 2.804329 1_455
Br2 Tl0 3.294650 1_455
Br2 Tl1 3.303138 1_565
Br3 Nb1 2.804329 1_555
Br3 Tl2 3.294658 1_555
Br3 Tl1 3.303138 1_555
Br4 Nb0 2.709216 1_556
Br5 Nb1 2.709216 1_555
Br6 Nb0 2.804329 1_556
Br6 Tl4 3.294658 1_555
Br6 Tl1 3.303138 1_565
Br8 Nb1 2.804329 1_656
Br8 Tl3 3.294650 1_655
Br8 Tl1 3.303138 1_555
