# generated using pymatgen
data_K2SbPO6
_symmetry_space_group_name_H-M   'P 1'
_cell_length_a   5.98601000
_cell_length_b   9.57660000
_cell_length_c   11.25444100
_cell_angle_alpha   90.00000000
_cell_angle_beta   90.00000000
_cell_angle_gamma   90.00000000
_symmetry_Int_Tables_number   1
_chemical_formula_structural   K2SbPO6
_chemical_formula_sum   'K8 Sb4 P4 O24'
_cell_volume   645.16784596
_cell_formula_units_Z   4
loop_
 _symmetry_equiv_pos_site_id
 _symmetry_equiv_pos_as_xyz
  1  'x, y, z'
loop_
 _atom_site_type_symbol
 _atom_site_label
 _atom_site_symmetry_multiplicity
 _atom_site_fract_x
 _atom_site_fract_y
 _atom_site_fract_z
 _atom_site_occupancy
  K  K0  1  0.25000000  0.61774400  0.16026600  1
  K  K1  1  0.25000000  0.67040200  0.80751200  1
  K  K2  1  0.25000000  0.17040200  0.69248800  1
  K  K3  1  0.25000000  0.11774400  0.33973400  1
  K  K4  1  0.75000000  0.32959800  0.19248800  1
  K  K5  1  0.75000000  0.82959800  0.30751200  1
  K  K6  1  0.75000000  0.88225600  0.66026600  1
  K  K7  1  0.75000000  0.38225600  0.83973400  1
  Sb  Sb0  1  0.00000000  0.50000000  0.50000000  1
  Sb  Sb1  1  0.50000000  0.00000000  0.00000000  1
  Sb  Sb2  1  0.50000000  0.50000000  0.50000000  1
  Sb  Sb3  1  0.00000000  0.00000000  0.00000000  1
  P  P0  1  0.75000000  0.69666800  0.99098400  1
  P  P1  1  0.25000000  0.80333200  0.49098400  1
  P  P2  1  0.75000000  0.19666800  0.50901600  1
  P  P3  1  0.25000000  0.30333200  0.00901600  1
  O  O0  1  0.46489600  0.71097900  0.52731800  1
  O  O1  1  0.75000000  0.03429700  0.11704900  1
  O  O2  1  0.25000000  0.96570300  0.88295100  1
  O  O3  1  0.75000000  0.16969300  0.64208300  1
  O  O4  1  0.75000000  0.57015000  0.07215100  1
  O  O5  1  0.96489600  0.78902100  0.02731800  1
  O  O6  1  0.25000000  0.33030700  0.14208300  1
  O  O7  1  0.25000000  0.42985000  0.92784900  1
  O  O8  1  0.75000000  0.66969300  0.85791700  1
  O  O9  1  0.25000000  0.83030700  0.35791700  1
  O  O10  1  0.75000000  0.49968800  0.61756900  1
  O  O11  1  0.75000000  0.07015000  0.42784900  1
  O  O12  1  0.96489600  0.28902100  0.47268200  1
  O  O13  1  0.75000000  0.99968800  0.88243100  1
  O  O14  1  0.25000000  0.00031200  0.11756900  1
  O  O15  1  0.46489600  0.21097900  0.97268200  1
  O  O16  1  0.25000000  0.46570300  0.61704900  1
  O  O17  1  0.25000000  0.50031200  0.38243100  1
  O  O18  1  0.03510400  0.71097900  0.52731800  1
  O  O19  1  0.25000000  0.92985000  0.57215100  1
  O  O20  1  0.53510400  0.28902100  0.47268200  1
  O  O21  1  0.03510400  0.21097900  0.97268200  1
  O  O22  1  0.53510400  0.78902100  0.02731800  1
  O  O23  1  0.75000000  0.53429700  0.38295100  1
loop_
_geom_bond_atom_site_label_1
_geom_bond_atom_site_label_2
_geom_bond_distance
_geom_bond_site_symmetry_2
K0 O17 2.741612 1_555
K0 O6 2.760265 1_555
K0 O22 2.800323 1_555
K0 O5 2.800323 1_455
K0 O9 3.015291 1_555
K0 O7 3.174870 1_554
K0 O4 3.185791 1_455
K0 O4 3.185791 1_555
K1 O7 2.672283 1_555
K1 O16 2.904769 1_555
K1 O2 2.952678 1_555
K1 O8 3.046298 1_555
K1 O8 3.046298 1_455
K1 O5 3.212893 1_456
K1 O22 3.212893 1_556
K2 O19 2.672283 1_545
K2 O2 2.904769 1_545
K2 O16 2.952678 1_555
K2 O3 3.046298 1_555
K2 O3 3.046298 1_455
K2 O20 3.212893 1_555
K2 O12 3.212893 1_455
K3 O14 2.741612 1_555
K3 O9 2.760265 1_545
K3 O20 2.800323 1_555
K3 O12 2.800323 1_455
K3 O6 3.015291 1_555
K3 O19 3.174870 1_545
K3 O11 3.185791 1_455
K3 O11 3.185791 1_555
K4 O4 2.672283 1_555
K4 O23 2.904769 1_555
K4 O1 2.952678 1_555
K4 O6 3.046298 1_555
K4 O6 3.046298 1_655
K4 O21 3.212893 1_654
K4 O15 3.212893 1_554
K5 O11 2.672283 1_565
K5 O1 2.904769 1_565
K5 O23 2.952678 1_555
K5 O9 3.046298 1_655
K5 O9 3.046298 1_555
K5 O18 3.212893 1_655
K5 O0 3.212893 1_555
K6 O13 2.741612 1_555
K6 O3 2.760265 1_565
K6 O18 2.800323 1_655
K6 O0 2.800323 1_555
K6 O8 3.015291 1_555
K6 O11 3.174870 1_565
K6 O19 3.185791 1_555
K6 O19 3.185791 1_655
K7 O10 2.741612 1_555
K7 O8 2.760265 1_555
K7 O21 2.800323 1_655
K7 O15 2.800323 1_555
K7 O3 3.015291 1_555
K7 O4 3.174870 1_556
K7 O7 3.185791 1_555
K7 O7 3.185791 1_655
O0 P1 1.613745 1_555
O0 Sb2 2.054494 1_555
O1 Sb1 2.020577 1_555
O1 Sb3 2.020577 1_655
O2 Sb3 2.020577 1_566
O2 Sb1 2.020577 1_566
O3 P2 1.519712 1_555
O4 P0 1.517388 1_554
O5 P0 1.613745 1_554
O5 Sb3 2.054494 1_665
O6 P3 1.519712 1_555
O7 P3 1.517388 1_556
O8 P0 1.519712 1_555
O9 P1 1.519712 1_555
O10 Sb0 1.997578 1_655
O10 Sb2 1.997578 1_555
O11 P2 1.517388 1_555
O12 P2 1.613745 1_555
O12 Sb0 2.054494 1_655
O13 Sb3 1.997578 1_666
O13 Sb1 1.997578 1_566
O14 Sb1 1.997578 1_555
O14 Sb3 1.997578 1_555
O15 P3 1.613745 1_556
O15 Sb1 2.054494 1_556
O16 Sb0 2.020577 1_555
O16 Sb2 2.020577 1_555
O17 Sb2 1.997578 1_555
O17 Sb0 1.997578 1_555
O18 P1 1.613745 1_555
O18 Sb0 2.054494 1_555
O19 P1 1.517388 1_555
O20 P2 1.613745 1_555
O20 Sb2 2.054494 1_555
O21 P3 1.613745 1_556
O21 Sb3 2.054494 1_556
O22 P0 1.613745 1_554
O22 Sb1 2.054494 1_565
O23 Sb0 2.020577 1_655
O23 Sb2 2.020577 1_555
