# generated using pymatgen
data_CdSiO3
_symmetry_space_group_name_H-M   'P 1'
_cell_length_a   7.28599731
_cell_length_b   6.99266080
_cell_length_c   15.10775788
_cell_angle_alpha   85.12390400
_cell_angle_beta   90.00000000
_cell_angle_gamma   90.00000000
_symmetry_Int_Tables_number   1
_chemical_formula_structural   CdSiO3
_chemical_formula_sum   'Cd12 Si12 O36'
_cell_volume   766.93199250
_cell_formula_units_Z   12
loop_
 _symmetry_equiv_pos_site_id
 _symmetry_equiv_pos_as_xyz
  1  'x, y, z'
loop_
 _atom_site_type_symbol
 _atom_site_label
 _atom_site_symmetry_multiplicity
 _atom_site_fract_x
 _atom_site_fract_y
 _atom_site_fract_z
 _atom_site_occupancy
  Cd  Cd0  1  0.62370526  0.98735340  0.24847894  1
  Cd  Cd1  1  0.37184681  0.74958469  0.09971895  1
  Cd  Cd2  1  0.37989350  0.25405721  0.39795332  1
  Cd  Cd3  1  0.12370526  0.01264660  0.25152106  1
  Cd  Cd4  1  0.62010650  0.74594279  0.60204668  1
  Cd  Cd5  1  0.87184681  0.25041531  0.40028105  1
  Cd  Cd6  1  0.87989350  0.74594279  0.10204668  1
  Cd  Cd7  1  0.12010650  0.25405721  0.89795332  1
  Cd  Cd8  1  0.37629474  0.01264660  0.75152106  1
  Cd  Cd9  1  0.12815319  0.74958469  0.59971895  1
  Cd  Cd10  1  0.62815319  0.25041531  0.90028105  1
  Cd  Cd11  1  0.87629474  0.98735340  0.74847894  1
  Si  Si0  1  0.41068942  0.76007848  0.41010342  1
  Si  Si1  1  0.83801377  0.76101933  0.40988047  1
  Si  Si2  1  0.87670794  0.45344857  0.69862144  1
  Si  Si3  1  0.58931058  0.23992152  0.58989658  1
  Si  Si4  1  0.33801377  0.23898067  0.09011953  1
  Si  Si5  1  0.62329206  0.45344857  0.19862144  1
  Si  Si6  1  0.91068942  0.23992152  0.08989658  1
  Si  Si7  1  0.66198623  0.76101933  0.90988047  1
  Si  Si8  1  0.08931058  0.76007848  0.91010342  1
  Si  Si9  1  0.37670794  0.54655143  0.80137856  1
  Si  Si10  1  0.12329206  0.54655143  0.30137856  1
  Si  Si11  1  0.16198623  0.23898067  0.59011953  1
  O  O0  1  0.37596408  0.29839591  0.60005577  1
  O  O1  1  0.87596408  0.70160409  0.89994423  1
  O  O2  1  0.55496986  0.58474644  0.86561916  1
  O  O3  1  0.44503014  0.41525356  0.13438084  1
  O  O4  1  0.05496986  0.41525356  0.63438084  1
  O  O5  1  0.62403592  0.70160409  0.39994423  1
  O  O6  1  0.62028386  0.77375896  0.01296843  1
  O  O7  1  0.12432412  0.04312392  0.65376480  1
  O  O8  1  0.87567588  0.95687608  0.34623520  1
  O  O9  1  0.12028386  0.22624104  0.48703157  1
  O  O10  1  0.87050452  0.04255553  0.15137235  1
  O  O11  1  0.87529787  0.68225462  0.70432908  1
  O  O12  1  0.19844850  0.58514477  0.86622245  1
  O  O13  1  0.87615977  0.30494231  0.78633536  1
  O  O14  1  0.30155150  0.58514477  0.36622245  1
  O  O15  1  0.12384023  0.69505769  0.21366464  1
  O  O16  1  0.12470213  0.31774538  0.29567092  1
  O  O17  1  0.37567588  0.04312392  0.15376480  1
  O  O18  1  0.69844850  0.41485523  0.63377755  1
  O  O19  1  0.12403592  0.29839591  0.10005577  1
  O  O20  1  0.62432412  0.95687608  0.84623520  1
  O  O21  1  0.37529787  0.31774538  0.79567092  1
  O  O22  1  0.37615977  0.69505769  0.71366464  1
  O  O23  1  0.37971614  0.22624104  0.98703157  1
  O  O24  1  0.62949548  0.04255553  0.65137235  1
  O  O25  1  0.62384023  0.30494231  0.28633536  1
  O  O26  1  0.62470213  0.68225462  0.20432908  1
  O  O27  1  0.80155150  0.41485523  0.13377755  1
  O  O28  1  0.12949548  0.95744447  0.84862765  1
  O  O29  1  0.87116151  0.23173752  0.98572882  1
  O  O30  1  0.94503014  0.58474644  0.36561916  1
  O  O31  1  0.87971614  0.77375896  0.51296843  1
  O  O32  1  0.62883849  0.23173752  0.48572882  1
  O  O33  1  0.12883849  0.76826248  0.01427118  1
  O  O34  1  0.37050452  0.95744447  0.34862765  1
  O  O35  1  0.37116151  0.76826248  0.51427118  1
loop_
_geom_bond_atom_site_label_1
_geom_bond_atom_site_label_2
_geom_bond_distance
_geom_bond_site_symmetry_2
Cd0 O26 2.288774 1_555
Cd0 O17 2.317436 1_565
Cd0 O10 2.332049 1_565
Cd0 O25 2.339859 1_565
Cd0 O8 2.354453 1_555
Cd0 O34 2.383809 1_555
Cd1 O33 2.188551 1_555
Cd1 O6 2.232735 1_555
Cd1 O17 2.272805 1_565
Cd1 O3 2.411643 1_555
Cd1 O26 2.446833 1_555
Cd1 O15 2.502477 1_555
Cd2 O32 2.244461 1_555
Cd2 O34 2.263781 1_545
Cd2 O9 2.319971 1_555
Cd2 O14 2.393118 1_555
Cd2 O16 2.434389 1_555
Cd2 O25 2.455063 1_555
Cd3 O16 2.288774 1_555
Cd3 O8 2.317436 1_445
Cd3 O34 2.332049 1_545
Cd3 O15 2.339859 1_545
Cd3 O17 2.354453 1_555
Cd3 O10 2.383809 1_455
Cd4 O35 2.244461 1_555
Cd4 O24 2.263781 1_565
Cd4 O31 2.319971 1_555
Cd4 O18 2.393118 1_555
Cd4 O11 2.434389 1_555
Cd4 O22 2.455063 1_555
Cd5 O32 2.188551 1_555
Cd5 O9 2.232735 1_655
Cd5 O8 2.272805 1_545
Cd5 O30 2.411643 1_555
Cd5 O16 2.446833 1_655
Cd5 O25 2.502477 1_555
Cd6 O33 2.244461 1_655
Cd6 O10 2.263781 1_565
Cd6 O6 2.319971 1_555
Cd6 O27 2.393118 1_555
Cd6 O26 2.434389 1_555
Cd6 O15 2.455063 1_655
Cd7 O29 2.244461 1_455
Cd7 O28 2.263781 1_545
Cd7 O23 2.319971 1_555
Cd7 O12 2.393118 1_555
Cd7 O21 2.434389 1_555
Cd7 O13 2.455063 1_455
Cd8 O21 2.288774 1_555
Cd8 O20 2.317436 1_545
Cd8 O28 2.332049 1_545
Cd8 O22 2.339859 1_545
Cd8 O7 2.354453 1_555
Cd8 O24 2.383809 1_555
Cd9 O35 2.188551 1_555
Cd9 O31 2.232735 1_455
Cd9 O7 2.272805 1_565
Cd9 O4 2.411643 1_555
Cd9 O11 2.446833 1_455
Cd9 O22 2.502477 1_555
Cd10 O29 2.188551 1_555
Cd10 O23 2.232735 1_555
Cd10 O20 2.272805 1_545
Cd10 O2 2.411643 1_555
Cd10 O21 2.446833 1_555
Cd10 O13 2.502477 1_555
Cd11 O11 2.288774 1_555
Cd11 O7 2.317436 1_665
Cd11 O24 2.332049 1_565
Cd11 O13 2.339859 1_565
Cd11 O20 2.354453 1_555
Cd11 O28 2.383809 1_655
O0 Si3 1.617933 1_555
O0 Si11 1.623689 1_555
O1 Si8 1.617933 1_655
O1 Si7 1.623689 1_555
O2 Si7 1.647597 1_555
O2 Si9 1.656579 1_555
O3 Si4 1.647597 1_555
O3 Si5 1.656579 1_555
O4 Si11 1.647597 1_555
O4 Si2 1.656579 1_455
O5 Si0 1.617933 1_555
O5 Si1 1.623689 1_555
O6 Si7 1.596692 1_554
O7 Si11 1.628396 1_555
O8 Si1 1.628396 1_555
O9 Si11 1.596692 1_555
O10 Si6 1.623307 1_555
O11 Si2 1.609620 1_555
O12 Si8 1.644996 1_555
O12 Si9 1.662635 1_555
O13 Si2 1.612610 1_555
O14 Si0 1.644996 1_555
O14 Si10 1.662635 1_555
O15 Si10 1.612610 1_555
O16 Si10 1.609620 1_555
O17 Si4 1.628396 1_555
O18 Si3 1.644996 1_555
O18 Si2 1.662635 1_555
O19 Si6 1.617933 1_455
O19 Si4 1.623689 1_555
O20 Si7 1.628396 1_555
O21 Si9 1.609620 1_555
O22 Si9 1.612610 1_555
O23 Si4 1.596692 1_556
O24 Si3 1.623307 1_555
O25 Si5 1.612610 1_555
O26 Si5 1.609620 1_555
O27 Si6 1.644996 1_555
O27 Si5 1.662635 1_555
O28 Si8 1.623307 1_555
O29 Si6 1.605675 1_556
O30 Si1 1.647597 1_555
O30 Si10 1.656579 1_655
O31 Si1 1.596692 1_555
O32 Si3 1.605675 1_555
O33 Si8 1.605675 1_554
O34 Si0 1.623307 1_555
O35 Si0 1.605675 1_555
