# generated using pymatgen
data_Li6CaCeO6
_symmetry_space_group_name_H-M   'P 1'
_cell_length_a   5.86726788
_cell_length_b   5.86726788
_cell_length_c   10.74252800
_cell_angle_alpha   90.00000000
_cell_angle_beta   90.00000000
_cell_angle_gamma   119.99999864
_symmetry_Int_Tables_number   1
_chemical_formula_structural   Li6CaCeO6
_chemical_formula_sum   'Li12 Ca2 Ce2 O12'
_cell_volume   320.26462137
_cell_formula_units_Z   2
loop_
 _symmetry_equiv_pos_site_id
 _symmetry_equiv_pos_as_xyz
  1  'x, y, z'
loop_
 _atom_site_type_symbol
 _atom_site_label
 _atom_site_symmetry_multiplicity
 _atom_site_fract_x
 _atom_site_fract_y
 _atom_site_fract_z
 _atom_site_occupancy
  Li  Li0  1  0.69012400  0.63139900  0.56483500  1
  Li  Li1  1  0.36860100  0.05872500  0.56483500  1
  Li  Li2  1  0.36860100  0.30987600  0.93516500  1
  Li  Li3  1  0.30987600  0.36860100  0.43516500  1
  Li  Li4  1  0.69012400  0.05872500  0.93516500  1
  Li  Li5  1  0.63139900  0.94127500  0.43516500  1
  Li  Li6  1  0.94127500  0.63139900  0.93516500  1
  Li  Li7  1  0.05872500  0.36860100  0.06483500  1
  Li  Li8  1  0.30987600  0.94127500  0.06483500  1
  Li  Li9  1  0.63139900  0.69012400  0.06483500  1
  Li  Li10  1  0.94127500  0.30987600  0.56483500  1
  Li  Li11  1  0.05872500  0.69012400  0.43516500  1
  Ca  Ca0  1  0.00000000  0.00000000  0.25000000  1
  Ca  Ca1  1  0.00000000  0.00000000  0.75000000  1
  Ce  Ce0  1  0.66666700  0.33333300  0.25000000  1
  Ce  Ce1  1  0.33333300  0.66666700  0.75000000  1
  O  O0  1  0.69689600  0.65299100  0.38057200  1
  O  O1  1  0.34700900  0.04390500  0.38057200  1
  O  O2  1  0.04390500  0.34700900  0.88057200  1
  O  O3  1  0.69689600  0.04390500  0.11942800  1
  O  O4  1  0.30310400  0.34700900  0.61942800  1
  O  O5  1  0.95609500  0.65299100  0.11942800  1
  O  O6  1  0.34700900  0.30310400  0.11942800  1
  O  O7  1  0.65299100  0.95609500  0.61942800  1
  O  O8  1  0.65299100  0.69689600  0.88057200  1
  O  O9  1  0.30310400  0.95609500  0.88057200  1
  O  O10  1  0.04390500  0.69689600  0.61942800  1
  O  O11  1  0.95609500  0.30310400  0.38057200  1
loop_
_geom_bond_atom_site_label_1
_geom_bond_atom_site_label_2
_geom_bond_distance
_geom_bond_site_symmetry_2
Li0 O0 1.982629 1_555
Li0 O10 2.000647 1_655
Li0 O7 2.106132 1_555
Li0 O4 2.120258 1_555
Li1 O1 1.982629 1_555
Li1 O4 2.000647 1_555
Li1 O10 2.106132 1_545
Li1 O7 2.120258 1_545
Li2 O6 1.982629 1_556
Li2 O9 2.000647 1_545
Li2 O2 2.106132 1_555
Li2 O8 2.120258 1_555
Li3 O4 1.982629 1_555
Li3 O11 2.000647 1_455
Li3 O1 2.106132 1_555
Li3 O0 2.120258 1_555
Li4 O3 1.982629 1_556
Li4 O2 2.000647 1_655
Li4 O8 2.106132 1_545
Li4 O9 2.120258 1_545
Li5 O7 1.982629 1_555
Li5 O0 2.000647 1_555
Li5 O11 2.106132 1_565
Li5 O1 2.120258 1_565
Li6 O5 1.982629 1_556
Li6 O8 2.000647 1_555
Li6 O9 2.106132 1_655
Li6 O2 2.120258 1_655
Li7 O2 1.982629 1_554
Li7 O6 2.000647 1_555
Li7 O3 2.106132 1_455
Li7 O5 2.120258 1_455
Li8 O9 1.982629 1_554
Li8 O5 2.000647 1_455
Li8 O6 2.106132 1_565
Li8 O3 2.120258 1_565
Li9 O8 1.982629 1_554
Li9 O3 2.000647 1_565
Li9 O5 2.106132 1_555
Li9 O6 2.120258 1_555
Li10 O11 1.982629 1_555
Li10 O7 2.000647 1_545
Li10 O4 2.106132 1_655
Li10 O10 2.120258 1_655
Li11 O10 1.982629 1_555
Li11 O1 2.000647 1_565
Li11 O0 2.106132 1_455
Li11 O11 2.120258 1_455
Ca0 O11 2.377951 1_455
Ca0 O3 2.377951 1_455
Ca0 O1 2.377951 1_555
Ca0 O5 2.377951 1_445
Ca0 O0 2.377951 1_445
Ca0 O6 2.377951 1_555
Ca1 O9 2.377951 1_545
Ca1 O10 2.377951 1_545
Ca1 O2 2.377951 1_555
Ca1 O7 2.377951 1_445
Ca1 O8 2.377951 1_445
Ca1 O4 2.377951 1_555
Ce0 O11 2.276808 1_555
Ce0 O3 2.276808 1_555
Ce0 O1 2.276811 1_555
Ce0 O5 2.276811 1_555
Ce0 O0 2.276813 1_555
Ce0 O6 2.276813 1_555
Ce1 O9 2.276808 1_555
Ce1 O10 2.276808 1_555
Ce1 O2 2.276811 1_555
Ce1 O7 2.276811 1_555
Ce1 O8 2.276813 1_555
Ce1 O4 2.276813 1_555
