# generated using pymatgen
data_Rb2Ge2Se5
_symmetry_space_group_name_H-M   'P 1'
_cell_length_a   11.56212012
_cell_length_b   11.56212012
_cell_length_c   9.46884889
_cell_angle_alpha   80.11582904
_cell_angle_beta   80.11582904
_cell_angle_gamma   90.00875373
_symmetry_Int_Tables_number   1
_chemical_formula_structural   Rb2Ge2Se5
_chemical_formula_sum   'Rb8 Ge8 Se20'
_cell_volume   1227.94951384
_cell_formula_units_Z   4
loop_
 _symmetry_equiv_pos_site_id
 _symmetry_equiv_pos_as_xyz
  1  'x, y, z'
loop_
 _atom_site_type_symbol
 _atom_site_label
 _atom_site_symmetry_multiplicity
 _atom_site_fract_x
 _atom_site_fract_y
 _atom_site_fract_z
 _atom_site_occupancy
  Rb  Rb0  1  0.78883883  0.52521162  0.11846235  1
  Rb  Rb1  1  0.47478838  0.21116117  0.38153765  1
  Rb  Rb2  1  0.21116117  0.47478838  0.88153765  1
  Rb  Rb3  1  0.52521162  0.78883883  0.61846235  1
  Rb  Rb4  1  0.05237562  0.21243087  0.38596653  1
  Rb  Rb5  1  0.78756913  0.94762438  0.11403347  1
  Rb  Rb6  1  0.94762438  0.78756913  0.61403347  1
  Rb  Rb7  1  0.21243087  0.05237562  0.88596653  1
  Ge  Ge0  1  0.73307677  0.47145971  0.59773015  1
  Ge  Ge1  1  0.52854029  0.26692323  0.90226985  1
  Ge  Ge2  1  0.26692323  0.52854029  0.40226985  1
  Ge  Ge3  1  0.47145971  0.73307677  0.09773015  1
  Ge  Ge4  1  0.13303020  0.73045475  0.11225810  1
  Ge  Ge5  1  0.26954525  0.86696980  0.38774190  1
  Ge  Ge6  1  0.86696980  0.26954525  0.88774190  1
  Ge  Ge7  1  0.73045475  0.13303020  0.61225810  1
  Se  Se0  1  0.88967565  0.45689438  0.73633551  1
  Se  Se1  1  0.54310562  0.11032435  0.76366449  1
  Se  Se2  1  0.11032435  0.54310562  0.26366449  1
  Se  Se3  1  0.45689438  0.88967565  0.23633551  1
  Se  Se4  1  0.24648971  0.68093146  0.54734518  1
  Se  Se5  1  0.31906854  0.75351029  0.95265482  1
  Se  Se6  1  0.75351029  0.31906854  0.45265482  1
  Se  Se7  1  0.68093146  0.24648971  0.04734518  1
  Se  Se8  1  0.75679583  0.64645820  0.44498211  1
  Se  Se9  1  0.35354180  0.24320417  0.05501789  1
  Se  Se10  1  0.24320417  0.35354180  0.55501789  1
  Se  Se11  1  0.64645820  0.75679583  0.94498211  1
  Se  Se12  1  0.00566208  0.24549823  0.03176042  1
  Se  Se13  1  0.75450177  0.99433792  0.46823958  1
  Se  Se14  1  0.99433792  0.75450177  0.96823958  1
  Se  Se15  1  0.24549823  0.00566208  0.53176042  1
  Se  Se16  1  0.88671655  0.11328345  0.75000000  1
  Se  Se17  1  0.11328345  0.88671655  0.25000000  1
  Se  Se18  1  0.54507737  0.45492263  0.75000000  1
  Se  Se19  1  0.45492263  0.54507737  0.25000000  1
loop_
_geom_bond_atom_site_label_1
_geom_bond_atom_site_label_2
_geom_bond_distance
_geom_bond_site_symmetry_2
Rb0 Se11 3.463761 1_554
Rb0 Se14 3.498584 1_554
Rb0 Se8 3.571614 1_555
Rb0 Se6 3.581594 1_555
Rb0 Se7 3.664363 1_555
Rb0 Se0 3.822112 1_554
Rb0 Se19 3.867465 1_555
Rb1 Se10 3.463761 1_555
Rb1 Se15 3.498584 1_555
Rb1 Se9 3.571614 1_555
Rb1 Se7 3.581594 1_555
Rb1 Se6 3.664363 1_555
Rb1 Se1 3.822112 1_555
Rb1 Se19 3.867465 1_555
Rb2 Se9 3.463761 1_556
Rb2 Se12 3.498584 1_556
Rb2 Se10 3.571614 1_555
Rb2 Se4 3.581594 1_555
Rb2 Se5 3.664363 1_555
Rb2 Se2 3.822112 1_556
Rb2 Se18 3.867465 1_555
Rb3 Se8 3.463761 1_555
Rb3 Se13 3.498584 1_555
Rb3 Se11 3.571614 1_555
Rb3 Se5 3.581594 1_555
Rb3 Se4 3.664363 1_555
Rb3 Se3 3.822112 1_555
Rb3 Se18 3.867465 1_555
Rb4 Se12 3.445060 1_555
Rb4 Se10 3.492906 1_555
Rb4 Se15 3.540323 1_555
Rb4 Se16 3.638753 1_455
Rb4 Se6 3.657731 1_455
Rb4 Se2 3.823666 1_555
Rb5 Se13 3.445060 1_555
Rb5 Se11 3.492906 1_554
Rb5 Se14 3.540323 1_554
Rb5 Se16 3.638753 1_564
Rb5 Se7 3.657731 1_565
Rb5 Se3 3.823666 1_555
Rb6 Se14 3.445060 1_555
Rb6 Se8 3.492906 1_555
Rb6 Se13 3.540323 1_555
Rb6 Se17 3.638753 1_655
Rb6 Se4 3.657731 1_655
Rb6 Se0 3.823666 1_555
Rb7 Se15 3.445060 1_555
Rb7 Se9 3.492906 1_556
Rb7 Se12 3.540323 1_556
Rb7 Se17 3.638753 1_546
Rb7 Se5 3.657731 1_545
Rb7 Se1 3.823666 1_555
Ge0 Se8 2.262752 1_555
Ge0 Se18 2.381075 1_555
Ge0 Se6 2.401467 1_555
Ge0 Se0 2.401916 1_555
Ge1 Se9 2.262752 1_556
Ge1 Se18 2.381075 1_555
Ge1 Se7 2.401467 1_556
Ge1 Se1 2.401916 1_555
Ge2 Se10 2.262752 1_555
Ge2 Se19 2.381075 1_555
Ge2 Se4 2.401467 1_555
Ge2 Se2 2.401916 1_555
Ge3 Se11 2.262752 1_554
Ge3 Se19 2.381075 1_555
Ge3 Se5 2.401467 1_554
Ge3 Se3 2.401916 1_555
Ge4 Se14 2.264759 1_454
Ge4 Se2 2.370850 1_555
Ge4 Se17 2.392557 1_555
Ge4 Se5 2.393169 1_554
Ge5 Se15 2.264759 1_565
Ge5 Se3 2.370850 1_555
Ge5 Se17 2.392557 1_555
Ge5 Se4 2.393169 1_555
Ge6 Se12 2.264759 1_656
Ge6 Se0 2.370850 1_555
Ge6 Se16 2.392557 1_555
Ge6 Se7 2.393169 1_556
Ge7 Se13 2.264759 1_545
Ge7 Se1 2.370850 1_555
Ge7 Se16 2.392557 1_555
Ge7 Se6 2.393169 1_555
