# generated using pymatgen
data_BaVSi2O7
_symmetry_space_group_name_H-M   'P 1'
_cell_length_a   7.71497632
_cell_length_b   7.71497521
_cell_length_c   10.13386271
_cell_angle_alpha   89.99997755
_cell_angle_beta   90.00000890
_cell_angle_gamma   82.10749011
_symmetry_Int_Tables_number   1
_chemical_formula_structural   BaVSi2O7
_chemical_formula_sum   'Ba4 V4 Si8 O28'
_cell_volume   597.46250092
_cell_formula_units_Z   4
loop_
 _symmetry_equiv_pos_site_id
 _symmetry_equiv_pos_as_xyz
  1  'x, y, z'
loop_
 _atom_site_type_symbol
 _atom_site_label
 _atom_site_symmetry_multiplicity
 _atom_site_fract_x
 _atom_site_fract_y
 _atom_site_fract_z
 _atom_site_occupancy
  Ba  Ba0  1  0.50000100  0.99999900  0.75000000  1
  Ba  Ba1  1  0.99999900  0.50000100  0.25000000  1
  Ba  Ba2  1  0.99999900  0.50000100  0.75000000  1
  Ba  Ba3  1  0.50000100  0.99999900  0.25000000  1
  V  V0  1  0.84217100  0.84217100  0.50000000  1
  V  V1  1  0.65782300  0.65782300  0.00000100  1
  V  V2  1  0.34213100  0.34213100  0.00000000  1
  V  V3  1  0.15786800  0.15786800  0.50000000  1
  Si  Si0  1  0.49241600  0.50758700  0.72397200  1
  Si  Si1  1  0.99241300  0.00758400  0.22397200  1
  Si  Si2  1  0.22397100  0.77603200  0.00758500  1
  Si  Si3  1  0.72396800  0.27602900  0.50758500  1
  Si  Si4  1  0.27602900  0.72396800  0.49241500  1
  Si  Si5  1  0.77603200  0.22397200  0.99241500  1
  Si  Si6  1  0.00758400  0.99241300  0.77602800  1
  Si  Si7  1  0.50758700  0.49241600  0.27602800  1
  O  O0  1  0.20071600  0.20071600  0.00000000  1
  O  O1  1  0.70069900  0.70069900  0.50000000  1
  O  O2  1  0.29928500  0.29928500  0.50000000  1
  O  O3  1  0.79930400  0.79930400  0.00000000  1
  O  O4  1  0.36934200  0.63065600  0.36006900  1
  O  O5  1  0.86934400  0.13065800  0.86006900  1
  O  O6  1  0.13065800  0.86934400  0.13993100  1
  O  O7  1  0.63065600  0.36934200  0.63993100  1
  O  O8  1  0.86006900  0.13993400  0.13065800  1
  O  O9  1  0.36006600  0.63993200  0.63065800  1
  O  O10  1  0.63993200  0.36006600  0.36934200  1
  O  O11  1  0.13993400  0.86006800  0.86934200  1
  O  O12  1  0.30831100  0.92809500  0.48791200  1
  O  O13  1  0.80831200  0.42809000  0.98791200  1
  O  O14  1  0.57190600  0.19168900  0.98791300  1
  O  O15  1  0.07191000  0.69168800  0.48791300  1
  O  O16  1  0.36971000  0.39388300  0.80989100  1
  O  O17  1  0.86971200  0.89388600  0.30989000  1
  O  O18  1  0.13029100  0.10611700  0.69010900  1
  O  O19  1  0.63028800  0.60611400  0.19011000  1
  O  O20  1  0.92809400  0.30831100  0.51208700  1
  O  O21  1  0.42809000  0.80831200  0.01208700  1
  O  O22  1  0.10611700  0.13029000  0.30989200  1
  O  O23  1  0.60611400  0.63028800  0.80989000  1
  O  O24  1  0.19168900  0.57190500  0.01208800  1
  O  O25  1  0.69168800  0.07191000  0.51208800  1
  O  O26  1  0.39388300  0.36971000  0.19010900  1
  O  O27  1  0.89388600  0.86971200  0.69011000  1
loop_
_geom_bond_atom_site_label_1
_geom_bond_atom_site_label_2
_geom_bond_distance
_geom_bond_site_symmetry_2
Ba0 O25 2.921115 1_565
Ba0 O23 2.921121 1_555
Ba0 O18 2.921122 1_565
Ba0 O14 2.921123 1_565
Ba0 O27 3.126376 1_555
Ba0 O16 3.126377 1_565
Ba0 O21 3.126377 1_556
Ba0 O12 3.126384 1_555
Ba0 O11 3.341926 1_555
Ba0 O7 3.341936 1_565
Ba0 O9 3.341939 1_555
Ba0 O5 3.341949 1_565
Ba1 O24 2.921113 1_655
Ba1 O19 2.921122 1_555
Ba1 O15 2.921123 1_655
Ba1 O22 2.921131 1_655
Ba1 O17 3.126376 1_555
Ba1 O26 3.126377 1_655
Ba1 O20 3.126377 1_555
Ba1 O13 3.126386 1_554
Ba1 O8 3.341922 1_555
Ba1 O4 3.341937 1_655
Ba1 O10 3.341939 1_555
Ba1 O6 3.341949 1_655
Ba2 O13 2.921115 1_555
Ba2 O27 2.921121 1_555
Ba2 O20 2.921123 1_555
Ba2 O16 2.921129 1_655
Ba2 O23 3.126376 1_555
Ba2 O15 3.126377 1_655
Ba2 O18 3.126378 1_655
Ba2 O24 3.126384 1_656
Ba2 O9 3.341926 1_655
Ba2 O5 3.341936 1_555
Ba2 O11 3.341939 1_655
Ba2 O7 3.341949 1_555
Ba3 O12 2.921113 1_555
Ba3 O17 2.921122 1_555
Ba3 O21 2.921123 1_555
Ba3 O26 2.921129 1_565
Ba3 O19 3.126376 1_555
Ba3 O14 3.126377 1_564
Ba3 O22 3.126379 1_565
Ba3 O25 3.126386 1_565
Ba3 O10 3.341926 1_565
Ba3 O6 3.341937 1_555
Ba3 O8 3.341946 1_565
Ba3 O4 3.341949 1_555
O0 V2 1.645453 1_555
O1 V0 1.646116 1_555
O2 V3 1.645476 1_555
O3 V1 1.646221 1_555
O4 Si7 1.639493 1_555
O4 Si4 1.641020 1_555
O5 Si6 1.639493 1_645
O5 Si5 1.641023 1_555
O6 Si1 1.639493 1_465
O6 Si2 1.641020 1_555
O7 Si0 1.639493 1_555
O7 Si3 1.641020 1_555
O8 Si5 1.639477 1_554
O8 Si1 1.641037 1_555
O9 Si4 1.639472 1_555
O9 Si0 1.641042 1_555
O10 Si3 1.639472 1_555
O10 Si7 1.641042 1_555
O11 Si2 1.639472 1_556
O11 Si6 1.641042 1_555
O12 Si4 1.628475 1_555
O12 V3 1.984826 1_565
O13 Si5 1.628402 1_555
O13 V1 1.984740 1_556
O14 Si5 1.628469 1_555
O14 V2 1.984835 1_556
O15 Si4 1.628409 1_555
O15 V0 1.984755 1_455
O16 Si0 1.628460 1_555
O16 V2 1.984834 1_556
O17 Si1 1.628400 1_565
O17 V0 1.984742 1_555
O18 Si6 1.628465 1_545
O18 V3 1.984830 1_555
O19 Si7 1.628400 1_555
O19 V1 1.984716 1_555
O20 Si3 1.628467 1_555
O20 V3 1.984832 1_655
O21 Si2 1.628409 1_555
O21 V1 1.984739 1_555
O22 Si1 1.628465 1_455
O22 V3 1.984821 1_555
O23 Si0 1.628401 1_555
O23 V1 1.984736 1_556
O24 Si2 1.628475 1_555
O24 V2 1.984829 1_555
O25 Si3 1.628410 1_555
O25 V0 1.984756 1_545
O26 Si7 1.628460 1_555
O26 V2 1.984834 1_555
O27 Si6 1.628401 1_655
O27 V0 1.984743 1_555
