# generated using pymatgen
data_ZnAg2C4(SN)4
_symmetry_space_group_name_H-M   'P 1'
_cell_length_a   10.67963369
_cell_length_b   10.67963369
_cell_length_c   8.29809411
_cell_angle_alpha   84.19614915
_cell_angle_beta   84.19614915
_cell_angle_gamma   43.61766505
_symmetry_Int_Tables_number   1
_chemical_formula_structural   ZnAg2C4(SN)4
_chemical_formula_sum   'Zn2 Ag4 C8 S8 N8'
_cell_volume   649.00750055
_cell_formula_units_Z   2
loop_
 _symmetry_equiv_pos_site_id
 _symmetry_equiv_pos_as_xyz
  1  'x, y, z'
loop_
 _atom_site_type_symbol
 _atom_site_label
 _atom_site_symmetry_multiplicity
 _atom_site_fract_x
 _atom_site_fract_y
 _atom_site_fract_z
 _atom_site_occupancy
  Zn  Zn0  1  0.33285600  0.66714400  0.25000000  1
  Zn  Zn1  1  0.66714400  0.33285600  0.75000000  1
  Ag  Ag0  1  0.70436300  0.89205100  0.26432500  1
  Ag  Ag1  1  0.29563700  0.10794900  0.73567500  1
  Ag  Ag2  1  0.10794900  0.29563700  0.23567500  1
  Ag  Ag3  1  0.89205100  0.70436300  0.76432500  1
  C  C0  1  0.40388000  0.34062700  0.16775300  1
  C  C1  1  0.84990400  0.98486700  0.95840500  1
  C  C2  1  0.15009600  0.01513300  0.04159500  1
  C  C3  1  0.01513300  0.15009600  0.54159500  1
  C  C4  1  0.34062700  0.40388000  0.66775300  1
  C  C5  1  0.65937300  0.59612000  0.33224700  1
  C  C6  1  0.98486700  0.84990400  0.45840500  1
  C  C7  1  0.59612000  0.65937300  0.83224700  1
  S  S0  1  0.41024900  0.18772400  0.13163500  1
  S  S1  1  0.05250700  0.21802500  0.97678100  1
  S  S2  1  0.18772400  0.41024900  0.63163500  1
  S  S3  1  0.81227600  0.58975100  0.36836500  1
  S  S4  1  0.58975100  0.81227600  0.86836500  1
  S  S5  1  0.78197500  0.94749300  0.52321900  1
  S  S6  1  0.21802500  0.05250700  0.47678100  1
  S  S7  1  0.94749300  0.78197500  0.02321900  1
  N  N0  1  0.22019800  0.86878800  0.08719300  1
  N  N1  1  0.39832800  0.45222700  0.18747700  1
  N  N2  1  0.13121200  0.77980200  0.41280700  1
  N  N3  1  0.86878800  0.22019800  0.58719300  1
  N  N4  1  0.45222700  0.39832800  0.68747700  1
  N  N5  1  0.77980200  0.13121200  0.91280700  1
  N  N6  1  0.60167200  0.54777300  0.81252300  1
  N  N7  1  0.54777300  0.60167200  0.31252300  1
loop_
_geom_bond_atom_site_label_1
_geom_bond_atom_site_label_2
_geom_bond_distance
_geom_bond_site_symmetry_2
Ag0 S0 2.585475 1_565
Ag0 S3 2.597440 1_555
Ag0 S5 2.642141 1_555
Ag0 S7 2.670625 1_555
Ag1 S4 2.585475 1_545
Ag1 S2 2.597440 1_555
Ag1 S6 2.642141 1_555
Ag1 S1 2.670625 1_555
Ag2 S3 2.585475 1_455
Ag2 S0 2.597440 1_555
Ag2 S1 2.642141 1_554
Ag2 S6 2.670625 1_555
Ag3 S2 2.585475 1_655
Ag3 S4 2.597440 1_555
Ag3 S7 2.642141 1_556
Ag3 S5 2.670625 1_555
C0 N1 1.177273 1_555
C0 S0 1.641648 1_555
C1 N5 1.178917 1_565
C1 S7 1.636586 1_556
C2 N0 1.178917 1_545
C2 S1 1.636586 1_554
C3 N3 1.178917 1_455
C3 S6 1.636586 1_555
C4 N4 1.177273 1_555
C4 S2 1.641648 1_555
C5 N7 1.177273 1_555
C5 S3 1.641648 1_555
C6 N2 1.178917 1_655
C6 S5 1.636586 1_555
C7 N6 1.177273 1_555
C7 S4 1.641648 1_555
N0 Zn0 1.974605 1_555
N1 Zn0 1.967215 1_555
N2 Zn0 1.974605 1_555
N3 Zn1 1.974605 1_555
N4 Zn1 1.967215 1_555
N5 Zn1 1.974605 1_555
N6 Zn1 1.967215 1_555
N7 Zn0 1.967215 1_555
