# generated using pymatgen
data_Yb5(AlSb3)2
_symmetry_space_group_name_H-M   'P 1'
_cell_length_a   4.44039400
_cell_length_b   7.37470200
_cell_length_c   23.10434700
_cell_angle_alpha   90.00000000
_cell_angle_beta   90.00000000
_cell_angle_gamma   90.00000000
_symmetry_Int_Tables_number   1
_chemical_formula_structural   Yb5(AlSb3)2
_chemical_formula_sum   'Yb10 Al4 Sb12'
_cell_volume   756.58840543
_cell_formula_units_Z   2
loop_
 _symmetry_equiv_pos_site_id
 _symmetry_equiv_pos_as_xyz
  1  'x, y, z'
loop_
 _atom_site_type_symbol
 _atom_site_label
 _atom_site_symmetry_multiplicity
 _atom_site_fract_x
 _atom_site_fract_y
 _atom_site_fract_z
 _atom_site_occupancy
  Yb  Yb0  1  0.00000000  0.45168700  0.90985800  1
  Yb  Yb1  1  0.00000000  0.26708500  0.74687200  1
  Yb  Yb2  1  0.00000000  0.76708500  0.75312800  1
  Yb  Yb3  1  0.00000000  0.54831300  0.09014200  1
  Yb  Yb4  1  0.00000000  0.95168700  0.59014200  1
  Yb  Yb5  1  0.00000000  0.00000000  0.00000000  1
  Yb  Yb6  1  0.00000000  0.73291500  0.25312800  1
  Yb  Yb7  1  0.00000000  0.04831300  0.40985800  1
  Yb  Yb8  1  0.00000000  0.50000000  0.50000000  1
  Yb  Yb9  1  0.00000000  0.23291500  0.24687200  1
  Al  Al0  1  0.50000000  0.81384500  0.87821400  1
  Al  Al1  1  0.50000000  0.18615500  0.12178600  1
  Al  Al2  1  0.50000000  0.68615500  0.37821400  1
  Al  Al3  1  0.50000000  0.31384500  0.62178600  1
  Sb  Sb0  1  0.50000000  0.80370700  0.49473800  1
  Sb  Sb1  1  0.00000000  0.47377200  0.36445500  1
  Sb  Sb2  1  0.00000000  0.97377200  0.13554500  1
  Sb  Sb3  1  0.50000000  0.51212800  0.81173900  1
  Sb  Sb4  1  0.50000000  0.48787200  0.18826100  1
  Sb  Sb5  1  0.00000000  0.02622800  0.86445500  1
  Sb  Sb6  1  0.00000000  0.52622800  0.63554500  1
  Sb  Sb7  1  0.50000000  0.98787200  0.31173900  1
  Sb  Sb8  1  0.50000000  0.19629300  0.50526200  1
  Sb  Sb9  1  0.50000000  0.01212800  0.68826100  1
  Sb  Sb10  1  0.50000000  0.30370700  0.00526200  1
  Sb  Sb11  1  0.50000000  0.69629300  0.99473800  1
loop_
_geom_bond_atom_site_label_1
_geom_bond_atom_site_label_2
_geom_bond_distance
_geom_bond_site_symmetry_2
Al0 Sb3 2.703668 1_555
Al0 Sb5 2.735600 1_565
Al0 Sb5 2.735600 1_665
Al0 Sb11 2.828345 1_555
Al0 Yb0 3.549227 1_655
Al0 Yb0 3.549227 1_555
Al1 Sb4 2.703668 1_555
Al1 Sb2 2.735600 1_645
Al1 Sb2 2.735600 1_545
Al1 Sb10 2.828345 1_555
Al1 Yb3 3.549227 1_555
Al1 Yb3 3.549227 1_655
Al2 Sb7 2.703668 1_555
Al2 Sb1 2.735600 1_655
Al2 Sb1 2.735600 1_555
Al2 Sb0 2.828345 1_555
Al2 Yb7 3.549227 1_565
Al2 Yb7 3.549227 1_665
Al3 Sb9 2.703668 1_555
Al3 Sb6 2.735600 1_655
Al3 Sb6 2.735600 1_555
Al3 Sb8 2.828345 1_555
Al3 Yb4 3.549227 1_545
Al3 Yb4 3.549227 1_645
Sb0 Sb8 2.905397 1_565
Sb0 Yb8 3.156031 1_555
Sb0 Yb8 3.156031 1_655
Sb0 Yb4 3.313447 1_555
Sb0 Yb4 3.313447 1_655
Sb0 Yb7 3.468316 1_565
Sb0 Yb7 3.468316 1_665
Sb1 Yb8 3.137646 1_555
Sb1 Yb6 3.204404 1_555
Sb1 Yb9 3.245828 1_555
Sb1 Yb7 3.308347 1_555
Sb2 Yb5 3.137646 1_565
Sb2 Yb9 3.204404 1_565
Sb2 Yb6 3.245828 1_555
Sb2 Yb3 3.308347 1_555
Sb3 Yb0 3.204236 1_655
Sb3 Yb0 3.204236 1_555
Sb3 Yb2 3.209100 1_655
Sb3 Yb2 3.209100 1_555
Sb3 Yb1 3.231267 1_555
Sb3 Yb1 3.231267 1_655
Sb4 Yb3 3.204236 1_555
Sb4 Yb3 3.204236 1_655
Sb4 Yb9 3.209100 1_555
Sb4 Yb9 3.209100 1_655
Sb4 Yb6 3.231267 1_555
Sb4 Yb6 3.231267 1_655
Sb5 Yb5 3.137646 1_556
Sb5 Yb2 3.204404 1_545
Sb5 Yb1 3.245828 1_555
Sb5 Yb0 3.308347 1_555
Sb6 Yb8 3.137646 1_555
Sb6 Yb1 3.204404 1_555
Sb6 Yb2 3.245828 1_555
Sb6 Yb4 3.308347 1_555
Sb7 Yb7 3.204236 1_665
Sb7 Yb7 3.204236 1_565
Sb7 Yb6 3.209100 1_555
Sb7 Yb6 3.209100 1_655
Sb7 Yb9 3.231267 1_665
Sb7 Yb9 3.231267 1_565
Sb8 Yb8 3.156031 1_555
Sb8 Yb8 3.156031 1_655
Sb8 Yb7 3.313447 1_655
Sb8 Yb7 3.313447 1_555
Sb8 Yb4 3.468316 1_645
Sb8 Yb4 3.468316 1_545
Sb9 Yb4 3.204236 1_545
Sb9 Yb4 3.204236 1_645
Sb9 Yb1 3.209100 1_655
Sb9 Yb1 3.209100 1_555
Sb9 Yb2 3.231267 1_645
Sb9 Yb2 3.231267 1_545
Sb10 Sb11 2.905397 1_554
Sb10 Yb5 3.156031 1_655
Sb10 Yb5 3.156031 1_555
Sb10 Yb0 3.313447 1_654
Sb10 Yb0 3.313447 1_554
Sb10 Yb3 3.468316 1_555
Sb10 Yb3 3.468316 1_655
Sb11 Yb5 3.156031 1_566
Sb11 Yb5 3.156031 1_666
Sb11 Yb3 3.313447 1_656
Sb11 Yb3 3.313447 1_556
Sb11 Yb0 3.468316 1_555
Sb11 Yb0 3.468316 1_655
