# generated using pymatgen
data_Li3In(BO3)2
_symmetry_space_group_name_H-M   'P 1'
_cell_length_a   9.04691400
_cell_length_b   5.25334100
_cell_length_c   11.46927123
_cell_angle_alpha   63.86965443
_cell_angle_beta   90.00000000
_cell_angle_gamma   90.00000000
_symmetry_Int_Tables_number   1
_chemical_formula_structural   Li3In(BO3)2
_chemical_formula_sum   'Li12 In4 B8 O24'
_cell_volume   489.38290137
_cell_formula_units_Z   4
loop_
 _symmetry_equiv_pos_site_id
 _symmetry_equiv_pos_as_xyz
  1  'x, y, z'
loop_
 _atom_site_type_symbol
 _atom_site_label
 _atom_site_symmetry_multiplicity
 _atom_site_fract_x
 _atom_site_fract_y
 _atom_site_fract_z
 _atom_site_occupancy
  Li  Li0  1  0.52519100  0.51485800  0.82679300  1
  Li  Li1  1  0.84298600  0.44865000  0.88234300  1
  Li  Li2  1  0.47480900  0.48514200  0.17320700  1
  Li  Li3  1  0.02519100  0.48514200  0.67320700  1
  Li  Li4  1  0.48613700  0.07792400  0.59616700  1
  Li  Li5  1  0.15701400  0.55135000  0.11765700  1
  Li  Li6  1  0.98613700  0.92207600  0.90383300  1
  Li  Li7  1  0.65701400  0.44865000  0.38234300  1
  Li  Li8  1  0.97480900  0.51485800  0.32679300  1
  Li  Li9  1  0.51386300  0.92207600  0.40383300  1
  Li  Li10  1  0.01386300  0.07792400  0.09616700  1
  Li  Li11  1  0.34298600  0.55135000  0.61765700  1
  In  In0  1  0.17214900  0.97325500  0.37682600  1
  In  In1  1  0.32785100  0.97325500  0.87682600  1
  In  In2  1  0.82785100  0.02674500  0.62317400  1
  In  In3  1  0.67214900  0.02674500  0.12317400  1
  B  B0  1  0.67295000  0.54420500  0.61948600  1
  B  B1  1  0.33093300  0.03526600  0.13084800  1
  B  B2  1  0.66906700  0.96473400  0.86915200  1
  B  B3  1  0.82705000  0.54420500  0.11948600  1
  B  B4  1  0.83093300  0.96473400  0.36915200  1
  B  B5  1  0.32705000  0.45579500  0.38051400  1
  B  B6  1  0.17295000  0.45579500  0.88051400  1
  B  B7  1  0.16906700  0.03526600  0.63084800  1
  O  O0  1  0.79954200  0.87047200  0.83600200  1
  O  O1  1  0.05235000  0.29614200  0.88069800  1
  O  O2  1  0.03882400  0.16123300  0.64060000  1
  O  O3  1  0.66966000  0.18094400  0.90922900  1
  O  O4  1  0.83034000  0.18094400  0.40922900  1
  O  O5  1  0.81497700  0.60118100  0.65149800  1
  O  O6  1  0.29954200  0.12952800  0.66399800  1
  O  O7  1  0.70045800  0.87047200  0.33600200  1
  O  O8  1  0.96117600  0.83876700  0.35940000  1
  O  O9  1  0.55235000  0.70385800  0.61930200  1
  O  O10  1  0.20045800  0.12952800  0.16399800  1
  O  O11  1  0.68502300  0.60118100  0.15149800  1
  O  O12  1  0.18502300  0.39881900  0.34850200  1
  O  O13  1  0.53882400  0.83876700  0.85940000  1
  O  O14  1  0.15454700  0.68204900  0.91222800  1
  O  O15  1  0.31497700  0.39881900  0.84850200  1
  O  O16  1  0.34545300  0.68204900  0.41222800  1
  O  O17  1  0.44765000  0.29614200  0.38069800  1
  O  O18  1  0.33034000  0.81905600  0.09077100  1
  O  O19  1  0.46117600  0.16123300  0.14060000  1
  O  O20  1  0.94765000  0.70385800  0.11930200  1
  O  O21  1  0.16966000  0.81905600  0.59077100  1
  O  O22  1  0.65454700  0.31795100  0.58777200  1
  O  O23  1  0.84545300  0.31795100  0.08777200  1
loop_
_geom_bond_atom_site_label_1
_geom_bond_atom_site_label_2
_geom_bond_distance
_geom_bond_site_symmetry_2
Li0 O13 1.900278 1_555
Li0 O15 1.979066 1_555
Li0 O3 2.053872 1_555
Li0 O9 2.151335 1_555
Li1 O3 2.037094 1_555
Li1 O1 2.059894 1_655
Li1 O0 2.076074 1_555
Li1 O23 2.144362 1_556
Li1 O5 2.418158 1_555
Li2 O19 1.900278 1_555
Li2 O11 1.979066 1_555
Li2 O18 2.053872 1_555
Li2 O17 2.151335 1_555
Li3 O2 1.900278 1_555
Li3 O5 1.979066 1_455
Li3 O21 2.053872 1_555
Li3 O1 2.151335 1_555
Li4 O6 1.927230 1_555
Li4 O22 1.952854 1_555
Li4 O9 1.957436 1_545
Li4 O17 2.246598 1_555
Li5 O18 2.037094 1_555
Li5 O20 2.059894 1_455
Li5 O10 2.076074 1_555
Li5 O14 2.144362 1_554
Li5 O12 2.418158 1_555
Li6 O0 1.927230 1_555
Li6 O14 1.952854 1_655
Li6 O1 1.957436 1_665
Li6 O20 2.246598 1_556
Li7 O4 2.037094 1_555
Li7 O17 2.059894 1_555
Li7 O7 2.076074 1_555
Li7 O22 2.144362 1_555
Li7 O11 2.418158 1_555
Li8 O8 1.900278 1_555
Li8 O12 1.979066 1_655
Li8 O4 2.053872 1_555
Li8 O20 2.151335 1_555
Li9 O7 1.927230 1_555
Li9 O16 1.952854 1_555
Li9 O17 1.957436 1_565
Li9 O9 2.246598 1_555
Li10 O10 1.927230 1_555
Li10 O23 1.952854 1_455
Li10 O20 1.957436 1_445
Li10 O1 2.246598 1_554
Li11 O21 2.037094 1_555
Li11 O9 2.059894 1_555
Li11 O6 2.076074 1_555
Li11 O16 2.144362 1_555
Li11 O15 2.418158 1_555
In0 O8 2.075197 1_455
In0 O16 2.101485 1_555
In0 O12 2.115996 1_565
In0 O21 2.219676 1_555
In0 O10 2.220997 1_565
In1 O13 2.075197 1_555
In1 O14 2.101485 1_555
In1 O15 2.115996 1_565
In1 O18 2.219676 1_556
In1 O6 2.220997 1_565
In2 O2 2.075197 1_655
In2 O22 2.101485 1_555
In2 O5 2.115996 1_545
In2 O4 2.219676 1_555
In2 O0 2.220997 1_545
In3 O19 2.075197 1_555
In3 O23 2.101485 1_555
In3 O11 2.115996 1_545
In3 O3 2.219676 1_554
In3 O7 2.220997 1_545
B0 O9 1.375605 1_555
B0 O22 1.397705 1_555
B0 O5 1.404341 1_555
B1 O19 1.379855 1_555
B1 O10 1.396046 1_555
B1 O18 1.400456 1_545
B2 O13 1.379855 1_555
B2 O0 1.396046 1_555
B2 O3 1.400456 1_565
B3 O20 1.375605 1_555
B3 O23 1.397705 1_555
B3 O11 1.404341 1_555
B4 O8 1.379855 1_555
B4 O7 1.396046 1_555
B4 O4 1.400456 1_565
B5 O17 1.375605 1_555
B5 O16 1.397705 1_555
B5 O12 1.404341 1_555
B6 O1 1.375605 1_555
B6 O14 1.397705 1_555
B6 O15 1.404341 1_555
B7 O2 1.379855 1_555
B7 O6 1.396046 1_555
B7 O21 1.400456 1_545
