# generated using pymatgen
data_Na2U(MoO5)2
_symmetry_space_group_name_H-M   'P 1'
_cell_length_a   7.32983400
_cell_length_b   11.65246100
_cell_length_c   12.15502700
_cell_angle_alpha   90.00000000
_cell_angle_beta   90.00000000
_cell_angle_gamma   90.00000000
_symmetry_Int_Tables_number   1
_chemical_formula_structural   Na2U(MoO5)2
_chemical_formula_sum   'Na8 U4 Mo8 O40'
_cell_volume   1038.16820769
_cell_formula_units_Z   4
loop_
 _symmetry_equiv_pos_site_id
 _symmetry_equiv_pos_as_xyz
  1  'x, y, z'
loop_
 _atom_site_type_symbol
 _atom_site_label
 _atom_site_symmetry_multiplicity
 _atom_site_fract_x
 _atom_site_fract_y
 _atom_site_fract_z
 _atom_site_occupancy
  Na  Na0  1  0.58594600  0.44224600  0.19157700  1
  Na  Na1  1  0.91405400  0.55775400  0.69157700  1
  Na  Na2  1  0.08202000  0.55070500  0.42872300  1
  Na  Na3  1  0.41405400  0.94224600  0.30842300  1
  Na  Na4  1  0.91798000  0.05070500  0.07127700  1
  Na  Na5  1  0.41798000  0.44929500  0.92872300  1
  Na  Na6  1  0.08594600  0.05775400  0.80842300  1
  Na  Na7  1  0.58202000  0.94929500  0.57127700  1
  U  U0  1  0.82108600  0.75829700  0.23100400  1
  U  U1  1  0.32108600  0.74170300  0.76899600  1
  U  U2  1  0.17891400  0.25829700  0.26899600  1
  U  U3  1  0.67891400  0.24170300  0.73100400  1
  Mo  Mo0  1  0.33424300  0.71271800  0.09947000  1
  Mo  Mo1  1  0.08027800  0.83127800  0.51324900  1
  Mo  Mo2  1  0.83424300  0.78728200  0.90053000  1
  Mo  Mo3  1  0.16575700  0.28728200  0.59947000  1
  Mo  Mo4  1  0.91972200  0.33127800  0.98675100  1
  Mo  Mo5  1  0.41972200  0.16872200  0.01324900  1
  Mo  Mo6  1  0.66575700  0.21271800  0.40053000  1
  Mo  Mo7  1  0.58027800  0.66872200  0.48675100  1
  O  O0  1  0.30790200  0.76582500  0.96092600  1
  O  O1  1  0.36642300  0.28274000  0.11330400  1
  O  O2  1  0.90206100  0.91636100  0.56511800  1
  O  O3  1  0.10209800  0.43283700  0.59325400  1
  O  O4  1  0.60209800  0.06716300  0.40674600  1
  O  O5  1  0.85552500  0.91240600  0.21274000  1
  O  O6  1  0.00572800  0.70666300  0.82524800  1
  O  O7  1  0.87960800  0.22804500  0.32916800  1
  O  O8  1  0.72388100  0.41603000  0.01485000  1
  O  O9  1  0.89790200  0.93283700  0.90674600  1
  O  O10  1  0.21834600  0.10359500  0.25126600  1
  O  O11  1  0.49427200  0.29333700  0.32524800  1
  O  O12  1  0.22388100  0.08397000  0.98515000  1
  O  O13  1  0.78165400  0.60359500  0.24873400  1
  O  O14  1  0.51248700  0.74069100  0.61433200  1
  O  O15  1  0.14447500  0.41240600  0.28726000  1
  O  O16  1  0.71834600  0.39640500  0.74873400  1
  O  O17  1  0.59793900  0.08363900  0.06511800  1
  O  O18  1  0.09793900  0.41636100  0.93488200  1
  O  O19  1  0.37960800  0.27195500  0.67083200  1
  O  O20  1  0.39790200  0.56716300  0.09325400  1
  O  O21  1  0.63357700  0.78274000  0.38669600  1
  O  O22  1  0.27611900  0.91603000  0.48515000  1
  O  O23  1  0.50572800  0.79333700  0.17475200  1
  O  O24  1  0.01248700  0.75930900  0.38566800  1
  O  O25  1  0.13357700  0.71726000  0.61330400  1
  O  O26  1  0.62039200  0.77195500  0.82916800  1
  O  O27  1  0.40206100  0.58363900  0.43488200  1
  O  O28  1  0.12039200  0.72804500  0.17083200  1
  O  O29  1  0.77611900  0.58397000  0.51485000  1
  O  O30  1  0.35552500  0.58759400  0.78726000  1
  O  O31  1  0.86642300  0.21726000  0.88669600  1
  O  O32  1  0.19209800  0.23417500  0.46092600  1
  O  O33  1  0.99427200  0.20666300  0.67475200  1
  O  O34  1  0.80790200  0.73417500  0.03907400  1
  O  O35  1  0.69209800  0.26582500  0.53907400  1
  O  O36  1  0.64447500  0.08759400  0.71274000  1
  O  O37  1  0.98751300  0.25930900  0.11433200  1
  O  O38  1  0.28165400  0.89640500  0.75126600  1
  O  O39  1  0.48751300  0.24069100  0.88566800  1
loop_
_geom_bond_atom_site_label_1
_geom_bond_atom_site_label_2
_geom_bond_distance
_geom_bond_site_symmetry_2
Na0 O20 2.333849 1_555
Na0 O8 2.393731 1_555
Na0 O13 2.464814 1_555
Na0 O11 2.470260 1_555
Na0 O1 2.636060 1_555
Na1 O3 2.333849 1_655
Na1 O29 2.393731 1_555
Na1 O16 2.464814 1_555
Na1 O6 2.470260 1_655
Na1 O25 2.636060 1_655
Na2 O27 2.378209 1_555
Na2 O15 2.400669 1_555
Na2 O3 2.430544 1_555
Na2 O29 2.504730 1_455
Na2 O24 2.538146 1_555
Na3 O4 2.333849 1_565
Na3 O22 2.393731 1_555
Na3 O10 2.464814 1_565
Na3 O23 2.470260 1_555
Na3 O21 2.636060 1_555
Na4 O17 2.378209 1_555
Na4 O5 2.400669 1_545
Na4 O9 2.430544 1_544
Na4 O12 2.504730 1_654
Na4 O37 2.538146 1_555
Na5 O18 2.378209 1_555
Na5 O30 2.400669 1_555
Na5 O20 2.430544 1_556
Na5 O8 2.504730 1_556
Na5 O39 2.538146 1_555
Na6 O9 2.333849 1_445
Na6 O12 2.393731 1_555
Na6 O38 2.464814 1_545
Na6 O33 2.470260 1_455
Na6 O31 2.636060 1_455
Na7 O2 2.378209 1_555
Na7 O36 2.400669 1_565
Na7 O4 2.430544 1_565
Na7 O22 2.504730 1_555
Na7 O14 2.538146 1_555
Mo0 O20 1.760710 1_555
Mo0 O28 1.800368 1_555
Mo0 O0 1.804467 1_554
Mo0 O23 1.816523 1_555
Mo1 O2 1.756940 1_455
Mo1 O22 1.775543 1_555
Mo1 O24 1.831669 1_555
Mo1 O25 1.843054 1_555
Mo2 O9 1.760710 1_555
Mo2 O26 1.800368 1_555
Mo2 O34 1.804467 1_556
Mo2 O6 1.816523 1_655
Mo3 O3 1.760710 1_555
Mo3 O19 1.800368 1_555
Mo3 O32 1.804467 1_555
Mo3 O33 1.816523 1_455
Mo4 O18 1.756940 1_655
Mo4 O8 1.775543 1_556
Mo4 O37 1.831669 1_556
Mo4 O31 1.843054 1_555
Mo5 O17 1.756940 1_555
Mo5 O12 1.775543 1_554
Mo5 O39 1.831669 1_554
Mo5 O1 1.843054 1_555
Mo6 O4 1.760710 1_555
Mo6 O7 1.800368 1_555
Mo6 O35 1.804467 1_555
Mo6 O11 1.816523 1_555
Mo7 O27 1.756940 1_555
Mo7 O29 1.775543 1_555
Mo7 O14 1.831669 1_555
Mo7 O21 1.843054 1_555
O0 U1 2.351773 1_555
O1 U2 2.356153 1_555
O5 U0 1.826943 1_555
O6 U1 2.444862 1_555
O7 U2 2.339281 1_655
O10 U2 1.838358 1_555
O11 U2 2.444862 1_555
O13 U0 1.838358 1_555
O14 U1 2.345755 1_555
O15 U2 1.826943 1_555
O16 U3 1.838358 1_555
O19 U3 2.339281 1_555
O21 U0 2.356153 1_555
O23 U0 2.444862 1_555
O24 U0 2.345755 1_455
O25 U1 2.356153 1_555
O26 U1 2.339281 1_555
O28 U0 2.339281 1_455
O30 U1 1.826943 1_555
O31 U3 2.356153 1_555
O32 U2 2.351773 1_555
O33 U3 2.444862 1_555
O34 U0 2.351773 1_555
O35 U3 2.351773 1_555
O36 U3 1.826943 1_555
O37 U2 2.345755 1_655
O38 U1 1.838358 1_555
O39 U3 2.345755 1_555
