# generated using pymatgen
data_LaCuTeO
_symmetry_space_group_name_H-M   'P 1'
_cell_length_a   4.18282500
_cell_length_b   4.18282500
_cell_length_c   9.38487000
_cell_angle_alpha   90.00000000
_cell_angle_beta   90.00000000
_cell_angle_gamma   90.00000000
_symmetry_Int_Tables_number   1
_chemical_formula_structural   LaCuTeO
_chemical_formula_sum   'La2 Cu2 Te2 O2'
_cell_volume   164.19791996
_cell_formula_units_Z   2
loop_
 _symmetry_equiv_pos_site_id
 _symmetry_equiv_pos_as_xyz
  1  'x, y, z'
loop_
 _atom_site_type_symbol
 _atom_site_label
 _atom_site_symmetry_multiplicity
 _atom_site_fract_x
 _atom_site_fract_y
 _atom_site_fract_z
 _atom_site_occupancy
  La  La0  1  0.50000000  0.00000000  0.12625100  1
  La  La1  1  0.00000000  0.50000000  0.87374900  1
  Cu  Cu0  1  0.00000000  0.00000000  0.50000000  1
  Cu  Cu1  1  0.50000000  0.50000000  0.50000000  1
  Te  Te0  1  0.50000000  0.00000000  0.67557800  1
  Te  Te1  1  0.00000000  0.50000000  0.32442200  1
  O  O0  1  0.00000000  0.00000000  0.00000000  1
  O  O1  1  0.50000000  0.50000000  0.00000000  1
loop_
_geom_bond_atom_site_label_1
_geom_bond_atom_site_label_2
_geom_bond_distance
_geom_bond_site_symmetry_2
La0 O0 2.403721 1_555
La0 O1 2.403721 1_545
La0 O1 2.403721 1_555
La0 O0 2.403721 1_655
La0 Te1 3.493838 1_555
La0 Te1 3.493838 1_645
La0 Te1 3.493838 1_545
La0 Te1 3.493838 1_655
La1 O1 2.403721 1_556
La1 O0 2.403721 1_556
La1 O0 2.403721 1_566
La1 O1 2.403721 1_456
La1 Te0 3.493838 1_565
La1 Te0 3.493838 1_455
La1 Te0 3.493838 1_465
La1 Te0 3.493838 1_555
Cu0 Te1 2.662550 1_545
Cu0 Te0 2.662550 1_455
Cu0 Te1 2.662550 1_555
Cu0 Te0 2.662550 1_555
Cu1 Te1 2.662550 1_555
Cu1 Te0 2.662550 1_555
Cu1 Te1 2.662550 1_655
Cu1 Te0 2.662550 1_565
