# generated using pymatgen
data_UFe5Si3
_symmetry_space_group_name_H-M   'P 1'
_cell_length_a   3.94367219
_cell_length_b   3.94354357
_cell_length_c   7.81494400
_cell_angle_alpha   90.00000000
_cell_angle_beta   90.00000000
_cell_angle_gamma   90.00000000
_symmetry_Int_Tables_number   1
_chemical_formula_structural   UFe5Si3
_chemical_formula_sum   'U1 Fe5 Si3'
_cell_volume   121.53834597
_cell_formula_units_Z   1
loop_
 _symmetry_equiv_pos_site_id
 _symmetry_equiv_pos_as_xyz
  1  'x, y, z'
loop_
 _atom_site_type_symbol
 _atom_site_label
 _atom_site_symmetry_multiplicity
 _atom_site_fract_x
 _atom_site_fract_y
 _atom_site_fract_z
 _atom_site_occupancy
  U  U0  1  0.00000000  0.00000000  -0.00000000  1
  Fe  Fe0  1  -0.00000000  0.50000000  0.31195149  1
  Fe  Fe1  1  0.50000000  -0.00000000  0.31194732  1
  Fe  Fe2  1  0.50000000  -0.00000000  0.68805268  1
  Fe  Fe3  1  0.50000000  0.50000000  0.50000000  1
  Fe  Fe4  1  -0.00000000  0.50000000  0.68804851  1
  Si  Si0  1  0.50000000  0.50000000  0.15128328  1
  Si  Si1  1  0.50000000  0.50000000  0.84871772  1
  Si  Si2  1  0.00000000  0.00000000  0.50000000  1
loop_
_geom_bond_atom_site_label_1
_geom_bond_atom_site_label_2
_geom_bond_distance
_geom_bond_site_symmetry_2
Fe0 Si0 2.337670 1_455
Fe0 Si0 2.337670 1_555
Fe0 Si2 2.459182 1_555
Fe0 Si2 2.459182 1_565
Fe0 Fe3 2.459233 1_555
Fe0 Fe3 2.459233 1_455
Fe0 U0 3.135468 1_565
Fe0 U0 3.135468 1_555
Fe1 Si0 2.337598 1_555
Fe1 Si0 2.337598 1_545
Fe1 Fe3 2.459201 1_555
Fe1 Fe3 2.459201 1_545
Fe1 Si2 2.459253 1_655
Fe1 Si2 2.459253 1_555
Fe1 U0 3.135483 1_555
Fe1 U0 3.135483 1_655
Fe2 Si1 2.337603 1_545
Fe2 Si1 2.337603 1_555
Fe2 Fe3 2.459201 1_555
Fe2 Fe3 2.459201 1_545
Fe2 Si2 2.459253 1_655
Fe2 Si2 2.459253 1_555
Fe2 U0 3.135483 1_556
Fe2 U0 3.135483 1_656
Fe3 Fe4 2.459233 1_555
Fe3 Fe4 2.459233 1_655
Fe3 Si0 2.725202 1_555
Fe3 Si1 2.725209 1_555
Fe3 Si2 2.788552 1_655
Fe3 Si2 2.788552 1_555
Fe3 Si2 2.788552 1_565
Fe3 Si2 2.788552 1_665
Fe4 Si1 2.337674 1_455
Fe4 Si1 2.337674 1_555
Fe4 Si2 2.459182 1_555
Fe4 Si2 2.459182 1_565
Fe4 U0 3.135468 1_556
Fe4 U0 3.135468 1_566
Si0 Si1 2.364533 1_554
Si0 U0 3.028826 1_655
Si0 U0 3.028826 1_565
Si0 U0 3.028826 1_555
Si0 U0 3.028826 1_665
Si1 U0 3.028823 1_556
Si1 U0 3.028823 1_566
Si1 U0 3.028823 1_656
Si1 U0 3.028823 1_666
