# generated using pymatgen
data_Tl2MoO4
_symmetry_space_group_name_H-M   'P 1'
_cell_length_a   6.18203659
_cell_length_b   6.18203605
_cell_length_c   8.30991270
_cell_angle_alpha   90.00006231
_cell_angle_beta   89.99995105
_cell_angle_gamma   120.00010950
_symmetry_Int_Tables_number   1
_chemical_formula_structural   Tl2MoO4
_chemical_formula_sum   'Tl4 Mo2 O8'
_cell_volume   275.03611104
_cell_formula_units_Z   2
loop_
 _symmetry_equiv_pos_site_id
 _symmetry_equiv_pos_as_xyz
  1  'x, y, z'
loop_
 _atom_site_type_symbol
 _atom_site_label
 _atom_site_symmetry_multiplicity
 _atom_site_fract_x
 _atom_site_fract_y
 _atom_site_fract_z
 _atom_site_occupancy
  Tl  Tl0  1  0.33333330  0.66666650  0.81976673  1
  Tl  Tl1  1  -0.00000004  -0.00000008  -0.00000001  1
  Tl  Tl2  1  0.66666667  0.33333339  0.18023320  1
  Tl  Tl3  1  -0.00000006  -0.00000008  0.49999998  1
  Mo  Mo0  1  0.66666645  0.33333338  0.68333231  1
  Mo  Mo1  1  0.33333340  0.66666656  0.31666768  1
  O  O0  1  0.17844493  0.35688954  0.24303528  1
  O  O1  1  0.66666670  0.33333284  0.46976803  1
  O  O2  1  0.82155511  0.17844439  0.75696549  1
  O  O3  1  0.82155523  0.64311086  0.75696493  1
  O  O4  1  0.64311055  0.82155484  0.24303509  1
  O  O5  1  0.35688867  0.17844466  0.75696496  1
  O  O6  1  0.17844487  0.82155521  0.24303473  1
  O  O7  1  0.33333321  0.66666700  0.53023160  1
loop_
_geom_bond_atom_site_label_1
_geom_bond_atom_site_label_2
_geom_bond_distance
_geom_bond_site_symmetry_2
Mo0 O3 1.767758 1_555
Mo0 O5 1.767760 1_555
Mo0 O2 1.767764 1_555
Mo0 O1 1.774701 1_555
Mo1 O0 1.767755 1_555
Mo1 O4 1.767757 1_555
Mo1 O6 1.767761 1_555
Mo1 O7 1.774698 1_555
O0 Tl1 2.780218 1_555
O0 Tl3 2.865409 1_555
O1 Tl2 2.406009 1_555
O2 Tl1 2.780217 1_656
O2 Tl3 2.865413 1_655
O3 Tl1 2.780215 1_666
O3 Tl3 2.865409 1_665
O4 Tl1 2.780217 1_665
O4 Tl3 2.865409 1_665
O5 Tl1 2.780214 1_556
O5 Tl3 2.865407 1_555
O6 Tl1 2.780220 1_565
O6 Tl3 2.865412 1_565
O7 Tl0 2.406012 1_555
