# generated using pymatgen
data_Pr
_symmetry_space_group_name_H-M   'P 1'
_cell_length_a   7.54379141
_cell_length_b   7.26311769
_cell_length_c   7.26311726
_cell_angle_alpha   74.35387883
_cell_angle_beta   58.71322965
_cell_angle_gamma   58.71322033
_symmetry_Int_Tables_number   1
_chemical_formula_structural   Pr
_chemical_formula_sum   Pr8
_cell_volume   290.62967713
_cell_formula_units_Z   8
loop_
 _symmetry_equiv_pos_site_id
 _symmetry_equiv_pos_as_xyz
  1  'x, y, z'
loop_
 _atom_site_type_symbol
 _atom_site_label
 _atom_site_symmetry_multiplicity
 _atom_site_fract_x
 _atom_site_fract_y
 _atom_site_fract_z
 _atom_site_occupancy
  Pr  Pr0_0  1  0.00000000  0.00000000  0.00000000  1
  Pr  Pr0_1  1  0.00000000  0.00000000  0.50000000  1
  Pr  Pr0_2  1  0.00000000  0.50000000  0.00000000  1
  Pr  Pr0_3  1  1.00000000  0.50000000  0.50000000  1
  Pr  Pr0_4  1  0.50000000  0.00000000  0.00000000  1
  Pr  Pr0_5  1  0.50000000  0.00000000  0.50000000  1
  Pr  Pr0_6  1  0.50000000  0.50000000  0.00000000  1
  Pr  Pr0_7  1  0.50000000  0.50000000  0.50000000  1
loop_
_geom_bond_atom_site_label_1
_geom_bond_atom_site_label_2
_geom_bond_distance
_geom_bond_site_symmetry_2
Pr0_0 Pr0_6 3.631558 1_455
Pr0_0 Pr0_6 3.631558 1_545
Pr0_0 Pr0_1 3.631559 1_555
Pr0_0 Pr0_1 3.631559 1_554
Pr0_0 Pr0_2 3.631559 1_555
Pr0_0 Pr0_2 3.631559 1_545
Pr0_0 Pr0_5 3.631559 1_554
Pr0_0 Pr0_5 3.631559 1_455
Pr0_0 Pr0_4 3.771896 1_555
Pr0_0 Pr0_4 3.771896 1_455
Pr0_1 Pr0_7 3.631558 1_455
Pr0_1 Pr0_7 3.631558 1_545
Pr0_1 Pr0_3 3.631559 1_455
Pr0_1 Pr0_3 3.631559 1_445
Pr0_1 Pr0_4 3.631559 1_555
Pr0_1 Pr0_4 3.631559 1_456
Pr0_1 Pr0_5 3.771896 1_455
Pr0_1 Pr0_5 3.771896 1_555
Pr0_2 Pr0_4 3.631558 1_555
Pr0_2 Pr0_4 3.631558 1_465
Pr0_2 Pr0_3 3.631559 1_455
Pr0_2 Pr0_3 3.631559 1_454
Pr0_2 Pr0_7 3.631559 1_455
Pr0_2 Pr0_7 3.631559 1_554
Pr0_2 Pr0_6 3.771896 1_455
Pr0_2 Pr0_6 3.771896 1_555
Pr0_3 Pr0_5 3.631558 1_565
Pr0_3 Pr0_5 3.631558 1_655
Pr0_3 Pr0_6 3.631559 1_556
Pr0_3 Pr0_6 3.631559 1_655
Pr0_3 Pr0_7 3.771896 1_555
Pr0_3 Pr0_7 3.771896 1_655
Pr0_4 Pr0_5 3.631559 1_555
Pr0_4 Pr0_5 3.631559 1_554
Pr0_4 Pr0_6 3.631559 1_545
Pr0_4 Pr0_6 3.631559 1_555
Pr0_5 Pr0_7 3.631559 1_555
Pr0_5 Pr0_7 3.631559 1_545
Pr0_6 Pr0_7 3.631559 1_555
Pr0_6 Pr0_7 3.631559 1_554
