# generated using pymatgen
data_CdI2
_symmetry_space_group_name_H-M   'P 1'
_cell_length_a   4.28643668
_cell_length_b   4.28643576
_cell_length_c   65.35929078
_cell_angle_alpha   90.00000000
_cell_angle_beta   90.00000000
_cell_angle_gamma   119.99999106
_symmetry_Int_Tables_number   1
_chemical_formula_structural   CdI2
_chemical_formula_sum   'Cd9 I18'
_cell_volume   1039.99376100
_cell_formula_units_Z   9
loop_
 _symmetry_equiv_pos_site_id
 _symmetry_equiv_pos_as_xyz
  1  'x, y, z'
loop_
 _atom_site_type_symbol
 _atom_site_label
 _atom_site_symmetry_multiplicity
 _atom_site_fract_x
 _atom_site_fract_y
 _atom_site_fract_z
 _atom_site_occupancy
  Cd  Cd0  1  0.00000000  0.00000000  0.80534622  1
  Cd  Cd1  1  0.66666700  0.33333300  0.58369407  1
  Cd  Cd2  1  -0.00000000  -0.00000000  0.47261089  1
  Cd  Cd3  1  -0.00000000  0.00000000  0.91666004  1
  Cd  Cd4  1  -0.00000000  -0.00000000  0.69463759  1
  Cd  Cd5  1  0.66666700  0.33333300  0.02766853  1
  Cd  Cd6  1  -0.00000000  -0.00000000  0.13865641  1
  Cd  Cd7  1  -0.00000000  -0.00000000  0.36132889  1
  Cd  Cd8  1  0.66666700  0.33333300  0.24942685  1
  I  I0  1  0.66666700  0.33333300  0.33503949  1
  I  I1  1  0.33333300  0.66666700  0.72097514  1
  I  I2  1  0.00000000  0.00000000  0.55728257  1
  I  I3  1  0.00000000  0.00000000  0.22308639  1
  I  I4  1  0.33333300  0.66666700  0.27567056  1
  I  I5  1  0.33333300  0.66666700  0.05402211  1
  I  I6  1  0.33333300  0.66666700  0.61005088  1
  I  I7  1  0.66666700  0.33333300  0.89040017  1
  I  I8  1  0.33333300  0.66666700  0.94297314  1
  I  I9  1  0.66666700  0.33333300  0.11236976  1
  I  I10  1  -0.00000000  -0.00000000  0.00131368  1
  I  I11  1  0.66666700  0.33333300  0.44629888  1
  I  I12  1  0.33333300  0.66666700  0.16495614  1
  I  I13  1  0.66666700  0.33333300  0.77902330  1
  I  I14  1  0.33333300  0.66666700  0.38763413  1
  I  I15  1  0.33333300  0.66666700  0.83167522  1
  I  I16  1  0.66666700  0.33333300  0.66831158  1
  I  I17  1  0.33333300  0.66666700  0.49888933  1
loop_
_geom_bond_atom_site_label_1
_geom_bond_atom_site_label_2
_geom_bond_distance
_geom_bond_site_symmetry_2
Cd0 I13 3.014040 1_455
Cd0 I13 3.014043 1_445
Cd0 I13 3.014044 1_555
Cd0 I15 3.014267 1_545
Cd0 I15 3.014270 1_555
Cd0 I15 3.014271 1_445
Cd1 I6 3.015305 1_545
Cd1 I6 3.015306 1_655
Cd1 I6 3.015311 1_555
Cd1 I2 3.017349 1_655
Cd1 I2 3.017352 1_665
Cd1 I2 3.017352 1_555
Cd2 I17 3.012382 1_545
Cd2 I17 3.012385 1_555
Cd2 I17 3.012385 1_445
Cd2 I11 3.013633 1_455
Cd2 I11 3.013636 1_445
Cd2 I11 3.013637 1_555
Cd3 I7 3.011690 1_455
Cd3 I7 3.011693 1_445
Cd3 I7 3.011693 1_555
Cd3 I8 3.013674 1_545
Cd3 I8 3.013677 1_555
Cd3 I8 3.013677 1_445
Cd4 I16 3.014155 1_455
Cd4 I16 3.014159 1_445
Cd4 I16 3.014159 1_555
Cd4 I1 3.014586 1_545
Cd4 I1 3.014589 1_555
Cd4 I1 3.014590 1_445
Cd5 I5 3.015185 1_545
Cd5 I5 3.015185 1_655
Cd5 I5 3.015191 1_555
Cd5 I10 3.015232 1_655
Cd5 I10 3.015235 1_665
Cd5 I10 3.015235 1_555
Cd6 I9 3.012688 1_455
Cd6 I9 3.012691 1_445
Cd6 I9 3.012691 1_555
Cd6 I12 3.013175 1_545
Cd6 I12 3.013178 1_555
Cd6 I12 3.013179 1_445
Cd7 I0 3.012790 1_455
Cd7 I0 3.012793 1_445
Cd7 I0 3.012794 1_555
Cd7 I14 3.013381 1_545
Cd7 I14 3.013384 1_555
Cd7 I14 3.013384 1_445
Cd8 I4 3.011088 1_545
Cd8 I4 3.011089 1_655
Cd8 I4 3.011094 1_555
Cd8 I3 3.014695 1_655
Cd8 I3 3.014698 1_665
Cd8 I3 3.014698 1_555
