# generated using pymatgen
data_B2Pb6SO12
_symmetry_space_group_name_H-M   'P 1'
_cell_length_a   6.59568500
_cell_length_b   11.93821400
_cell_length_c   18.30832200
_cell_angle_alpha   90.00000000
_cell_angle_beta   90.00000000
_cell_angle_gamma   90.00000000
_symmetry_Int_Tables_number   1
_chemical_formula_structural   B2Pb6SO12
_chemical_formula_sum   'B8 Pb24 S4 O48'
_cell_volume   1441.61007192
_cell_formula_units_Z   4
loop_
 _symmetry_equiv_pos_site_id
 _symmetry_equiv_pos_as_xyz
  1  'x, y, z'
loop_
 _atom_site_type_symbol
 _atom_site_label
 _atom_site_symmetry_multiplicity
 _atom_site_fract_x
 _atom_site_fract_y
 _atom_site_fract_z
 _atom_site_occupancy
  B  B0  1  0.92113100  0.50329100  0.24616600  1
  B  B1  1  0.07886900  0.00329100  0.75383400  1
  B  B2  1  0.57886900  0.00329100  0.74616600  1
  B  B3  1  0.07886900  0.49670900  0.75383400  1
  B  B4  1  0.42113100  0.99670900  0.25383400  1
  B  B5  1  0.42113100  0.50329100  0.25383400  1
  B  B6  1  0.92113100  0.99670900  0.24616600  1
  B  B7  1  0.57886900  0.49670900  0.74616600  1
  Pb  Pb0  1  0.35559600  0.40739700  0.89476000  1
  Pb  Pb1  1  0.59629500  0.75000000  0.29937400  1
  Pb  Pb2  1  0.16814700  0.40500100  0.10628000  1
  Pb  Pb3  1  0.64440400  0.59260300  0.10524000  1
  Pb  Pb4  1  0.14440400  0.59260300  0.39476000  1
  Pb  Pb5  1  0.77492900  0.75000000  0.70940500  1
  Pb  Pb6  1  0.09629500  0.75000000  0.20062600  1
  Pb  Pb7  1  0.27492900  0.75000000  0.79059500  1
  Pb  Pb8  1  0.33185300  0.90500100  0.60628000  1
  Pb  Pb9  1  0.72507100  0.25000000  0.20940500  1
  Pb  Pb10  1  0.16814700  0.09499900  0.10628000  1
  Pb  Pb11  1  0.66814700  0.09499900  0.39372000  1
  Pb  Pb12  1  0.83185300  0.59499900  0.89372000  1
  Pb  Pb13  1  0.85559600  0.40739700  0.60524000  1
  Pb  Pb14  1  0.40370500  0.25000000  0.70062600  1
  Pb  Pb15  1  0.35559600  0.09260300  0.89476000  1
  Pb  Pb16  1  0.90370500  0.25000000  0.79937400  1
  Pb  Pb17  1  0.85559600  0.09260300  0.60524000  1
  Pb  Pb18  1  0.22507100  0.25000000  0.29059500  1
  Pb  Pb19  1  0.14440400  0.90739700  0.39476000  1
  Pb  Pb20  1  0.64440400  0.90739700  0.10524000  1
  Pb  Pb21  1  0.33185300  0.59499900  0.60628000  1
  Pb  Pb22  1  0.83185300  0.90500100  0.89372000  1
  Pb  Pb23  1  0.66814700  0.40500100  0.39372000  1
  S  S0  1  0.78691600  0.75000000  0.50799000  1
  S  S1  1  0.21308400  0.25000000  0.49201000  1
  S  S2  1  0.28691600  0.75000000  0.99201000  1
  S  S3  1  0.71308400  0.25000000  0.00799000  1
  O  O0  1  0.66588800  0.64691800  0.52278200  1
  O  O1  1  0.52686500  0.09978300  0.78441300  1
  O  O2  1  0.57481300  0.49246400  0.66980300  1
  O  O3  1  0.63428800  0.90642300  0.78219400  1
  O  O4  1  0.42581500  0.75000000  0.66415000  1
  O  O5  1  0.34811200  0.75000000  0.07222500  1
  O  O6  1  0.33411200  0.14691800  0.47721800  1
  O  O7  1  0.42518700  0.99246400  0.33019700  1
  O  O8  1  0.78436500  0.75000000  0.14293500  1
  O  O9  1  0.02686500  0.40021700  0.71558700  1
  O  O10  1  0.02243900  0.25000000  0.44754000  1
  O  O11  1  0.15188800  0.25000000  0.57222500  1
  O  O12  1  0.92518700  0.99246400  0.16980300  1
  O  O13  1  0.52686500  0.40021700  0.78441300  1
  O  O14  1  0.21563500  0.25000000  0.85706500  1
  O  O15  1  0.33411200  0.35308200  0.47721800  1
  O  O16  1  0.36571200  0.40642300  0.21780600  1
  O  O17  1  0.47313500  0.90021700  0.21558700  1
  O  O18  1  0.57481300  0.00753600  0.66980300  1
  O  O19  1  0.83411200  0.35308200  0.02278200  1
  O  O20  1  0.47756100  0.75000000  0.94754000  1
  O  O21  1  0.86571200  0.40642300  0.28219400  1
  O  O22  1  0.57418500  0.25000000  0.33585000  1
  O  O23  1  0.84811200  0.75000000  0.42777500  1
  O  O24  1  0.16588800  0.64691800  0.97721800  1
  O  O25  1  0.36571200  0.09357700  0.21780600  1
  O  O26  1  0.07418500  0.25000000  0.16415000  1
  O  O27  1  0.97313500  0.90021700  0.28441300  1
  O  O28  1  0.02686500  0.09978300  0.71558700  1
  O  O29  1  0.92518700  0.50753600  0.16980300  1
  O  O30  1  0.52243900  0.25000000  0.05246000  1
  O  O31  1  0.97756100  0.75000000  0.55246000  1
  O  O32  1  0.92581500  0.75000000  0.83585000  1
  O  O33  1  0.83411200  0.14691800  0.02278200  1
  O  O34  1  0.13428800  0.59357700  0.71780600  1
  O  O35  1  0.13428800  0.90642300  0.71780600  1
  O  O36  1  0.97313500  0.59978300  0.28441300  1
  O  O37  1  0.28436500  0.75000000  0.35706500  1
  O  O38  1  0.42518700  0.50753600  0.33019700  1
  O  O39  1  0.07481300  0.00753600  0.83019700  1
  O  O40  1  0.07481300  0.49246400  0.83019700  1
  O  O41  1  0.63428800  0.59357700  0.78219400  1
  O  O42  1  0.65188800  0.25000000  0.92777500  1
  O  O43  1  0.16588800  0.85308200  0.97721800  1
  O  O44  1  0.71563500  0.25000000  0.64293500  1
  O  O45  1  0.47313500  0.59978300  0.21558700  1
  O  O46  1  0.66588800  0.85308200  0.52278200  1
  O  O47  1  0.86571200  0.09357700  0.28219400  1
loop_
_geom_bond_atom_site_label_1
_geom_bond_atom_site_label_2
_geom_bond_distance
_geom_bond_site_symmetry_2
B0 O21 1.380591 1_555
B0 O36 1.391027 1_555
B0 O29 1.399252 1_555
B1 O35 1.380591 1_545
B1 O28 1.391027 1_555
B1 O39 1.399252 1_555
B2 O3 1.380591 1_545
B2 O1 1.391027 1_555
B2 O18 1.399252 1_555
B3 O34 1.380591 1_555
B3 O9 1.391027 1_555
B3 O40 1.399252 1_555
B4 O25 1.380591 1_565
B4 O17 1.391027 1_555
B4 O7 1.399252 1_555
B5 O16 1.380591 1_555
B5 O45 1.391027 1_555
B5 O38 1.399252 1_555
B6 O47 1.380591 1_565
B6 O27 1.391027 1_555
B6 O12 1.399252 1_555
B7 O41 1.380591 1_555
B7 O13 1.391027 1_555
B7 O2 1.399252 1_555
O0 S0 1.491636 1_555
O0 Pb21 2.752303 1_555
O1 Pb15 2.316228 1_555
O1 Pb14 2.495803 1_555
O2 Pb21 2.327857 1_555
O2 Pb13 2.420392 1_555
O3 Pb22 2.422285 1_555
O3 Pb5 2.474601 1_555
O4 Pb8 2.220527 1_555
O4 Pb21 2.220527 1_555
O4 Pb5 2.447174 1_555
O4 Pb7 2.519846 1_555
O5 S2 1.523059 1_554
O5 Pb3 2.777631 1_555
O5 Pb20 2.777631 1_555
O6 S1 1.491636 1_555
O6 Pb11 2.752303 1_555
O7 Pb11 2.327857 1_565
O7 Pb19 2.420392 1_555
O8 Pb20 2.204372 1_555
O8 Pb3 2.204372 1_555
O8 Pb6 2.312677 1_655
O9 Pb13 2.316228 1_455
O9 Pb16 2.495803 1_455
O10 S1 1.498004 1_555
O11 S1 1.523059 1_555
O11 Pb17 2.777631 1_455
O11 Pb13 2.777631 1_455
O12 Pb10 2.327857 1_665
O12 Pb20 2.420392 1_555
O13 Pb0 2.316228 1_555
O13 Pb14 2.495803 1_555
O14 Pb0 2.204372 1_555
O14 Pb15 2.204372 1_555
O14 Pb16 2.312677 1_455
O15 S1 1.491636 1_555
O15 Pb23 2.752303 1_555
O16 Pb2 2.422285 1_555
O16 Pb18 2.474601 1_555
O17 Pb20 2.316228 1_555
O17 Pb1 2.495803 1_555
O18 Pb8 2.327857 1_545
O18 Pb17 2.420392 1_555
O19 S3 1.491636 1_555
O19 Pb2 2.752303 1_655
O20 S2 1.498004 1_555
O21 Pb23 2.422285 1_555
O21 Pb9 2.474601 1_555
O22 Pb11 2.220527 1_555
O22 Pb23 2.220527 1_555
O22 Pb18 2.447174 1_555
O22 Pb9 2.519846 1_555
O23 S0 1.523059 1_555
O23 Pb19 2.777631 1_655
O23 Pb4 2.777631 1_655
O24 S2 1.491636 1_555
O24 Pb12 2.752303 1_455
O25 Pb10 2.422285 1_555
O25 Pb18 2.474601 1_555
O26 Pb10 2.220527 1_555
O26 Pb2 2.220527 1_555
O26 Pb9 2.447174 1_455
O26 Pb18 2.519846 1_555
O27 Pb19 2.316228 1_655
O27 Pb6 2.495803 1_655
O28 Pb17 2.316228 1_455
O28 Pb16 2.495803 1_455
O29 Pb2 2.327857 1_655
O29 Pb3 2.420392 1_555
O30 S3 1.498004 1_555
O31 S0 1.498004 1_555
O32 Pb22 2.220527 1_555
O32 Pb12 2.220527 1_555
O32 Pb7 2.447174 1_655
O32 Pb5 2.519846 1_555
O33 S3 1.491636 1_555
O33 Pb10 2.752303 1_655
O34 Pb21 2.422285 1_555
O34 Pb7 2.474601 1_555
O35 Pb8 2.422285 1_555
O35 Pb7 2.474601 1_555
O36 Pb4 2.316228 1_655
O36 Pb6 2.495803 1_655
O37 Pb4 2.204372 1_555
O37 Pb19 2.204372 1_555
O37 Pb1 2.312677 1_555
O38 Pb23 2.327857 1_555
O38 Pb4 2.420392 1_555
O39 Pb22 2.327857 1_445
O39 Pb15 2.420392 1_555
O40 Pb12 2.327857 1_455
O40 Pb0 2.420392 1_555
O41 Pb12 2.422285 1_555
O41 Pb5 2.474601 1_555
O42 S3 1.523059 1_556
O42 Pb15 2.777631 1_555
O42 Pb0 2.777631 1_555
O43 S2 1.491636 1_555
O43 Pb22 2.752303 1_455
O44 Pb17 2.204372 1_555
O44 Pb13 2.204372 1_555
O44 Pb14 2.312677 1_555
O45 Pb3 2.316228 1_555
O45 Pb1 2.495803 1_555
O46 S0 1.491636 1_555
O46 Pb8 2.752303 1_555
O47 Pb11 2.422285 1_555
O47 Pb9 2.474601 1_555
