# generated using pymatgen
data_KLiMnO2
_symmetry_space_group_name_H-M   'P 1'
_cell_length_a   5.88613247
_cell_length_b   6.90850963
_cell_length_c   7.61491584
_cell_angle_alpha   76.88299082
_cell_angle_beta   76.63929856
_cell_angle_gamma   72.91843956
_symmetry_Int_Tables_number   1
_chemical_formula_structural   KLiMnO2
_chemical_formula_sum   'K4 Li4 Mn4 O8'
_cell_volume   283.74164649
_cell_formula_units_Z   4
loop_
 _symmetry_equiv_pos_site_id
 _symmetry_equiv_pos_as_xyz
  1  'x, y, z'
loop_
 _atom_site_type_symbol
 _atom_site_label
 _atom_site_symmetry_multiplicity
 _atom_site_fract_x
 _atom_site_fract_y
 _atom_site_fract_z
 _atom_site_occupancy
  K  K0  1  0.31210600  0.08002700  0.36721100  1
  K  K1  1  0.31210600  0.58003400  0.36721300  1
  K  K2  1  0.68788700  0.41996900  0.63280600  1
  K  K3  1  0.68789400  0.91998100  0.63278300  1
  Li  Li0  1  0.37770700  0.66894700  0.94659500  1
  Li  Li1  1  0.37769300  0.16896300  0.94659000  1
  Li  Li2  1  0.62227100  0.83103400  0.05342400  1
  Li  Li3  1  0.62227800  0.33105800  0.05342900  1
  Mn  Mn0  1  0.90503900  0.47780800  0.18354400  1
  Mn  Mn1  1  0.09503700  0.02217500  0.81645300  1
  Mn  Mn2  1  0.90498600  0.97781700  0.18350600  1
  Mn  Mn3  1  0.09502500  0.52216600  0.81647300  1
  O  O0  1  0.23963700  0.76696300  0.69260800  1
  O  O1  1  0.23961400  0.26696700  0.69262300  1
  O  O2  1  0.76036900  0.73305800  0.30739400  1
  O  O3  1  0.76038600  0.23301600  0.30738300  1
  O  O4  1  0.73388700  0.58110200  0.94162500  1
  O  O5  1  0.73387900  0.08111100  0.94157600  1
  O  O6  1  0.26610900  0.91889800  0.05837600  1
  O  O7  1  0.26608300  0.41890500  0.05838900  1
loop_
_geom_bond_atom_site_label_1
_geom_bond_atom_site_label_2
_geom_bond_distance
_geom_bond_site_symmetry_2
K0 O6 2.915938 1_545
K0 O7 2.916777 1_555
K0 O0 2.936086 1_545
K0 O1 2.937776 1_555
K0 O2 3.023200 1_545
K0 O3 3.025106 1_555
K0 O3 3.212431 1_455
K1 O7 2.915922 1_555
K1 O6 2.916787 1_555
K1 O1 2.936184 1_555
K1 O0 2.937638 1_555
K1 O3 3.023467 1_555
K1 O2 3.025159 1_555
K1 O2 3.212505 1_455
K2 O4 2.915850 1_555
K2 O5 2.916431 1_555
K2 O2 2.936274 1_555
K2 O3 2.937898 1_555
K2 O0 3.023238 1_555
K2 O1 3.025130 1_555
K2 O1 3.212445 1_655
K3 O5 2.915622 1_565
K3 O4 2.916871 1_555
K3 O3 2.936005 1_565
K3 O2 2.937566 1_555
K3 O1 3.023350 1_565
K3 O0 3.025097 1_555
K3 O0 3.212552 1_655
Li0 O6 1.969823 1_556
Li0 O7 1.970070 1_556
Li0 O4 1.997860 1_555
Li0 O0 2.160654 1_555
Li1 O7 1.969843 1_556
Li1 O6 1.970085 1_546
Li1 O5 1.997842 1_555
Li1 O1 2.160541 1_555
Li2 O4 1.969782 1_554
Li2 O5 1.970300 1_564
Li2 O6 1.997780 1_555
Li2 O2 2.160617 1_555
Li3 O4 1.970051 1_554
Li3 O5 1.970102 1_554
Li3 O7 1.997956 1_555
Li3 O3 2.160535 1_555
Mn0 O3 2.055532 1_555
Mn0 O2 2.055646 1_555
Mn0 O7 2.078968 1_655
Mn0 O4 2.180944 1_554
Mn1 O1 2.055273 1_555
Mn1 O0 2.055381 1_545
Mn1 O5 2.079479 1_455
Mn1 O6 2.180707 1_546
Mn2 O2 2.055289 1_555
Mn2 O3 2.055442 1_565
Mn2 O6 2.079316 1_655
Mn2 O5 2.180869 1_564
Mn3 O1 2.055323 1_555
Mn3 O0 2.055463 1_555
Mn3 O4 2.079437 1_455
Mn3 O7 2.180614 1_556
