# generated using pymatgen
data_La3Ti5Al15O37
_symmetry_space_group_name_H-M   'P 1'
_cell_length_a   12.80693691
_cell_length_b   12.80693691
_cell_length_c   9.92939078
_cell_angle_alpha   83.26996653
_cell_angle_beta   83.26996653
_cell_angle_gamma   52.84039376
_symmetry_Int_Tables_number   1
_chemical_formula_structural   La3Ti5Al15O37
_chemical_formula_sum   'La6 Ti10 Al30 O74'
_cell_volume   1286.75784237
_cell_formula_units_Z   2
loop_
 _symmetry_equiv_pos_site_id
 _symmetry_equiv_pos_as_xyz
  1  'x, y, z'
loop_
 _atom_site_type_symbol
 _atom_site_label
 _atom_site_symmetry_multiplicity
 _atom_site_fract_x
 _atom_site_fract_y
 _atom_site_fract_z
 _atom_site_occupancy
  La  La0  1  0.11217500  0.92125800  0.88895900  1
  La  La1  1  0.36340400  0.08767400  0.17729200  1
  La  La2  1  0.98580700  0.27547300  0.04409000  1
  La  La3  1  0.92125800  0.11217500  0.38895900  1
  La  La4  1  0.27547300  0.98580700  0.54409000  1
  La  La5  1  0.08767400  0.36340400  0.67729200  1
  Ti  Ti0  1  0.05031600  0.32020700  0.36144500  1
  Ti  Ti1  1  0.35043700  0.62310700  0.06401800  1
  Ti  Ti2  1  0.33101500  0.30638700  0.37789500  1
  Ti  Ti3  1  0.09634800  0.62469400  0.36785800  1
  Ti  Ti4  1  0.62310700  0.35043700  0.56401800  1
  Ti  Ti5  1  0.97888000  0.19610700  0.71826000  1
  Ti  Ti6  1  0.32020700  0.05031600  0.86144500  1
  Ti  Ti7  1  0.19610700  0.97888000  0.21826000  1
  Ti  Ti8  1  0.62469400  0.09634800  0.86785800  1
  Ti  Ti9  1  0.30638700  0.33101500  0.87789500  1
  Al  Al0  1  0.46278500  0.47931600  0.82434300  1
  Al  Al1  1  0.67033800  0.69881400  0.60365400  1
  Al  Al2  1  0.73661400  0.22323400  0.83487000  1
  Al  Al3  1  0.69881400  0.67033800  0.10365400  1
  Al  Al4  1  0.81499000  0.55151600  0.85917300  1
  Al  Al5  1  0.73937500  0.48850000  0.38013400  1
  Al  Al6  1  0.51746300  0.25942300  0.11131200  1
  Al  Al7  1  0.70517600  0.46571700  0.71437000  1
  Al  Al8  1  0.24820700  0.49627800  0.11655700  1
  Al  Al9  1  0.93091900  0.67933800  0.65272800  1
  Al  Al10  1  0.98607100  0.78830600  0.11780700  1
  Al  Al11  1  0.49627800  0.24820700  0.61655700  1
  Al  Al12  1  0.55151600  0.81499000  0.35917300  1
  Al  Al13  1  0.46571700  0.70517600  0.21437000  1
  Al  Al14  1  0.67321800  0.42966800  0.04559400  1
  Al  Al15  1  0.10770800  0.84768900  0.59378000  1
  Al  Al16  1  0.48850000  0.73937500  0.88013400  1
  Al  Al17  1  0.78830600  0.98607100  0.61780700  1
  Al  Al18  1  0.81389000  0.79163000  0.89748000  1
  Al  Al19  1  0.79163000  0.81389000  0.39748000  1
  Al  Al20  1  0.01222700  0.50498000  0.07762900  1
  Al  Al21  1  0.12553900  0.64623600  0.85531000  1
  Al  Al22  1  0.25942300  0.51746300  0.61131200  1
  Al  Al23  1  0.84768900  0.10770800  0.09378000  1
  Al  Al24  1  0.50498000  0.01222700  0.57762900  1
  Al  Al25  1  0.42966800  0.67321800  0.54559400  1
  Al  Al26  1  0.64623600  0.12553900  0.35531000  1
  Al  Al27  1  0.47931600  0.46278500  0.32434300  1
  Al  Al28  1  0.22323400  0.73661400  0.33487000  1
  Al  Al29  1  0.67933800  0.93091900  0.15272800  1
  O  O0  1  0.85778500  0.59183400  0.16330100  1
  O  O1  1  0.00929900  0.44975200  0.45088800  1
  O  O2  1  0.21541200  0.46131800  0.46975100  1
  O  O3  1  0.94718400  0.93883400  0.04112400  1
  O  O4  1  0.47847300  0.17626800  0.47713700  1
  O  O5  1  0.83375300  0.83394600  0.22343000  1
  O  O6  1  0.56848000  0.08722800  0.70921500  1
  O  O7  1  0.33944400  0.09403600  0.67020900  1
  O  O8  1  0.89210900  0.34348300  0.32847000  1
  O  O9  1  0.10703700  0.15711500  0.82530100  1
  O  O10  1  0.14827300  0.90061900  0.38861500  1
  O  O11  1  0.98246700  0.45950900  0.91952800  1
  O  O12  1  0.71496800  0.96759200  0.47151000  1
  O  O13  1  0.05903400  0.02629100  0.65770100  1
  O  O14  1  0.86905600  0.38766400  0.77908100  1
  O  O15  1  0.02629100  0.05903400  0.15770100  1
  O  O16  1  0.41681500  0.44103800  0.01559500  1
  O  O17  1  0.70592100  0.94216200  0.97561300  1
  O  O18  1  0.07274200  0.77002900  0.27002800  1
  O  O19  1  0.94216200  0.70592100  0.47561300  1
  O  O20  1  0.63635400  0.62882100  0.77749100  1
  O  O21  1  0.50253900  0.75529000  0.52075000  1
  O  O22  1  0.17626800  0.47847300  0.97713700  1
  O  O23  1  0.40637300  0.64136100  0.37835200  1
  O  O24  1  0.79745200  0.08650000  0.26947600  1
  O  O25  1  0.83394600  0.83375300  0.72343000  1
  O  O26  1  0.85367600  0.60282100  0.68597600  1
  O  O27  1  0.60282100  0.85367600  0.18597600  1
  O  O28  1  0.62882100  0.63635400  0.27749100  1
  O  O29  1  0.41295900  0.64552300  0.89745800  1
  O  O30  1  0.23131200  0.05401300  0.06211300  1
  O  O31  1  0.55319200  0.30731000  0.75340200  1
  O  O32  1  0.30126900  0.53913900  0.77383300  1
  O  O33  1  0.24820600  0.23665000  0.39329400  1
  O  O34  1  0.53913900  0.30126900  0.27383300  1
  O  O35  1  0.77396300  0.28806300  0.65902500  1
  O  O36  1  0.67618300  0.18279200  0.00101700  1
  O  O37  1  0.58109000  0.09166400  0.21188500  1
  O  O38  1  0.67136400  0.18203900  0.52259700  1
  O  O39  1  0.18203900  0.67136400  0.02259700  1
  O  O40  1  0.44975200  0.00929900  0.95088800  1
  O  O41  1  0.79355400  0.27535200  0.11502300  1
  O  O42  1  0.15711500  0.10703700  0.32530100  1
  O  O43  1  0.73008800  0.52604400  0.54773900  1
  O  O44  1  0.74315300  0.71018000  0.93049400  1
  O  O45  1  0.52289400  0.52678100  0.15604900  1
  O  O46  1  0.46131800  0.21541200  0.96975100  1
  O  O47  1  0.45950900  0.98246700  0.41952800  1
  O  O48  1  0.52678100  0.52289400  0.65604900  1
  O  O49  1  0.64552300  0.41295900  0.39745800  1
  O  O50  1  0.93883400  0.94718400  0.54112400  1
  O  O51  1  0.44103800  0.41681500  0.51559500  1
  O  O52  1  0.38766400  0.86905600  0.27908100  1
  O  O53  1  0.23665000  0.24820600  0.89329400  1
  O  O54  1  0.18279200  0.67618300  0.50101700  1
  O  O55  1  0.32630700  0.33970100  0.68746700  1
  O  O56  1  0.77002900  0.07274200  0.77002800  1
  O  O57  1  0.08722800  0.56848000  0.20921500  1
  O  O58  1  0.75529000  0.50253900  0.02075000  1
  O  O59  1  0.64136100  0.40637300  0.87835200  1
  O  O60  1  0.05401300  0.23131200  0.56211300  1
  O  O61  1  0.90061900  0.14827300  0.88861500  1
  O  O62  1  0.08650000  0.79745200  0.76947600  1
  O  O63  1  0.59183400  0.85778500  0.66330100  1
  O  O64  1  0.27535200  0.79355400  0.61502300  1
  O  O65  1  0.09166400  0.58109000  0.71188500  1
  O  O66  1  0.34348300  0.89210900  0.82847000  1
  O  O67  1  0.52604400  0.73008800  0.04773900  1
  O  O68  1  0.33970100  0.32630700  0.18746700  1
  O  O69  1  0.96759200  0.71496800  0.97151000  1
  O  O70  1  0.30731000  0.55319200  0.25340200  1
  O  O71  1  0.28806300  0.77396300  0.15902500  1
  O  O72  1  0.71018000  0.74315300  0.43049400  1
  O  O73  1  0.09403600  0.33944400  0.17020900  1
loop_
_geom_bond_atom_site_label_1
_geom_bond_atom_site_label_2
_geom_bond_distance
_geom_bond_site_symmetry_2
La0 O62 2.278571 1_555
La0 O3 2.356952 1_456
La0 O13 2.466119 1_565
La0 O61 2.505431 1_465
La0 O66 2.752300 1_555
La0 O15 3.084617 1_566
La1 O30 2.409495 1_555
La1 O40 2.426809 1_554
La1 O47 2.654512 1_545
La1 O33 2.689566 1_555
La1 O27 2.700088 1_545
La1 O52 2.704909 1_545
La1 O42 2.754096 1_555
La1 O37 2.879860 1_555
La1 O68 2.896009 1_555
La1 O73 2.977989 1_555
La1 O46 3.094815 1_554
La1 O53 3.239786 1_554
La2 O41 2.481181 1_555
La2 O73 2.485923 1_655
La2 O11 2.508799 1_554
La2 O9 2.562392 1_654
La2 O58 2.618554 1_555
La2 O15 2.625435 1_655
La2 O30 2.683619 1_655
La3 O24 2.278571 1_555
La3 O50 2.356952 1_545
La3 O15 2.466119 1_655
La3 O10 2.505431 1_645
La3 O8 2.752300 1_555
La3 O13 3.084617 1_655
La4 O64 2.481181 1_555
La4 O7 2.485923 1_565
La4 O47 2.508799 1_555
La4 O42 2.562392 1_565
La4 O21 2.618554 1_555
La4 O13 2.625435 1_565
La4 O60 2.683619 1_565
La5 O60 2.409495 1_555
La5 O1 2.426809 1_555
La5 O11 2.654512 1_455
La5 O53 2.689566 1_555
La5 O26 2.700088 1_455
La5 O14 2.704909 1_455
La5 O9 2.754096 1_555
La5 O65 2.879860 1_555
La5 O55 2.896009 1_555
La5 O7 2.977989 1_555
La5 O2 3.094815 1_555
La5 O33 3.239786 1_555
Al0 O32 1.831900 1_555
Al0 O31 1.944393 1_555
Al0 O48 1.946442 1_555
Al0 O59 1.994925 1_555
Al0 O16 2.015345 1_556
Al0 O29 2.019379 1_555
Al1 O63 1.782367 1_555
Al1 O72 1.858662 1_555
Al1 O20 1.976093 1_555
Al1 O43 1.983063 1_555
Al1 O21 2.053355 1_555
Al1 O26 2.102316 1_555
Al2 O61 1.823391 1_555
Al2 O56 1.882065 1_555
Al2 O36 1.890398 1_556
Al2 O59 1.957814 1_555
Al2 O35 1.977626 1_555
Al2 O31 2.125433 1_555
Al3 O0 1.782367 1_555
Al3 O44 1.858662 1_554
Al3 O28 1.976093 1_555
Al3 O67 1.983063 1_555
Al3 O58 2.053355 1_555
Al3 O27 2.102316 1_555
Al4 O44 1.844743 1_555
Al4 O11 1.852184 1_555
Al4 O26 1.887705 1_555
Al4 O58 1.899467 1_556
Al4 O14 2.005515 1_555
Al4 O20 2.093403 1_555
Al5 O43 1.756992 1_555
Al5 O8 1.771433 1_555
Al5 O28 1.809965 1_555
Al5 O49 1.930691 1_555
Al6 O34 1.858989 1_555
Al6 O36 1.901211 1_555
Al6 O46 1.929424 1_554
Al6 O37 1.962161 1_555
Al6 O68 1.969990 1_555
Al6 O16 2.030225 1_555
Al7 O43 1.819525 1_555
Al7 O14 1.856894 1_555
Al7 O20 1.867135 1_555
Al7 O35 2.003200 1_555
Al7 O59 2.011261 1_555
Al7 O48 2.069055 1_555
Al8 O68 1.833022 1_555
Al8 O57 1.844907 1_555
Al8 O22 1.855799 1_554
Al8 O16 1.995401 1_555
Al8 O39 2.003982 1_555
Al8 O70 2.022436 1_555
Al9 O26 1.751183 1_555
Al9 O19 1.757556 1_555
Al9 O25 1.760699 1_555
Al9 O65 1.774032 1_655
Al10 O3 1.768949 1_555
Al10 O5 1.879789 1_555
Al10 O18 1.888864 1_655
Al10 O69 1.928010 1_554
Al10 O39 2.161124 1_655
Al10 O57 2.387169 1_655
Al11 O55 1.833022 1_555
Al11 O6 1.844907 1_555
Al11 O4 1.855799 1_555
Al11 O51 1.995401 1_555
Al11 O38 2.003982 1_555
Al11 O31 2.022436 1_555
Al12 O72 1.844743 1_555
Al12 O47 1.852184 1_555
Al12 O27 1.887705 1_555
Al12 O21 1.899467 1_555
Al12 O52 2.005515 1_555
Al12 O28 2.093403 1_555
Al13 O67 1.819525 1_555
Al13 O52 1.856894 1_555
Al13 O28 1.867135 1_555
Al13 O71 2.003200 1_555
Al13 O23 2.011261 1_555
Al13 O45 2.069055 1_555
Al14 O41 1.733881 1_555
Al14 O58 1.762646 1_555
Al14 O45 1.840725 1_555
Al14 O59 1.853390 1_554
Al15 O50 1.831437 1_455
Al15 O62 1.835254 1_555
Al15 O64 1.846189 1_555
Al15 O54 2.076661 1_555
Al15 O13 2.132691 1_565
Al15 O10 2.175582 1_555
Al16 O67 1.756992 1_556
Al16 O66 1.771433 1_555
Al16 O20 1.809965 1_555
Al16 O29 1.930691 1_555
Al17 O50 1.768949 1_555
Al17 O25 1.879789 1_555
Al17 O56 1.888864 1_565
Al17 O12 1.928010 1_555
Al17 O38 2.161124 1_565
Al17 O6 2.387169 1_565
Al18 O44 1.734398 1_555
Al18 O17 1.763296 1_555
Al18 O25 1.785650 1_555
Al18 O69 1.792845 1_555
Al19 O72 1.734398 1_555
Al19 O19 1.763296 1_555
Al19 O5 1.785650 1_555
Al19 O12 1.792845 1_555
Al20 O0 1.744316 1_455
Al20 O73 1.876917 1_555
Al20 O11 1.889827 1_454
Al20 O22 2.061794 1_554
Al20 O57 2.185860 1_555
Al20 O69 2.507832 1_454
Al21 O62 1.808348 1_555
Al21 O32 1.924834 1_555
Al21 O69 1.933342 1_455
Al21 O65 1.942421 1_555
Al21 O39 2.018558 1_556
Al21 O22 2.095304 1_555
Al22 O32 1.858989 1_555
Al22 O54 1.901211 1_555
Al22 O2 1.929424 1_555
Al22 O65 1.962161 1_555
Al22 O55 1.969990 1_555
Al22 O51 2.030225 1_555
Al23 O3 1.831437 1_545
Al23 O24 1.835254 1_555
Al23 O41 1.846189 1_555
Al23 O36 2.076661 1_555
Al23 O15 2.132691 1_655
Al23 O61 2.175582 1_554
Al24 O63 1.744316 1_545
Al24 O7 1.876917 1_555
Al24 O47 1.889827 1_545
Al24 O4 2.061794 1_555
Al24 O6 2.185860 1_555
Al24 O12 2.507832 1_545
Al25 O64 1.733881 1_555
Al25 O21 1.762646 1_555
Al25 O48 1.840725 1_555
Al25 O23 1.853390 1_555
Al26 O24 1.808348 1_555
Al26 O34 1.924834 1_555
Al26 O12 1.933342 1_545
Al26 O37 1.942421 1_555
Al26 O38 2.018558 1_555
Al26 O4 2.095304 1_555
Al27 O34 1.831900 1_555
Al27 O70 1.944393 1_555
Al27 O45 1.946442 1_555
Al27 O23 1.994925 1_555
Al27 O51 2.015345 1_555
Al27 O49 2.019379 1_555
Al28 O10 1.823391 1_555
Al28 O18 1.882065 1_555
Al28 O54 1.890398 1_555
Al28 O23 1.957814 1_555
Al28 O71 1.977626 1_555
Al28 O70 2.125433 1_555
Al29 O27 1.751183 1_555
Al29 O17 1.757556 1_554
Al29 O5 1.760699 1_555
Al29 O37 1.774032 1_565
O1 Ti0 1.732157 1_555
O2 Ti2 1.876066 1_555
O2 Ti3 1.933322 1_555
O4 Ti2 1.887814 1_555
O6 Ti8 1.850350 1_555
O7 Ti6 1.946193 1_555
O8 Ti0 1.924654 1_655
O9 Ti5 1.834994 1_455
O9 Ti6 2.248629 1_555
O10 Ti7 2.083897 1_555
O13 Ti5 1.899996 1_455
O14 Ti5 2.083537 1_555
O15 Ti7 1.899996 1_545
O16 Ti1 2.040391 1_555
O17 Ti8 1.846692 1_565
O18 Ti3 1.861367 1_555
O19 Ti3 1.846692 1_655
O22 Ti9 1.887814 1_555
O29 Ti1 1.820654 1_556
O30 Ti7 1.882453 1_545
O30 Ti6 2.166512 1_554
O31 Ti4 2.145304 1_555
O31 Ti8 2.442357 1_555
O33 Ti2 1.737817 1_555
O33 Ti0 2.121397 1_555
O35 Ti4 1.909656 1_555
O35 Ti5 2.255178 1_555
O36 Ti8 2.199547 1_554
O38 Ti4 1.934016 1_555
O39 Ti1 1.934016 1_555
O40 Ti6 1.732157 1_555
O42 Ti7 1.834994 1_545
O42 Ti0 2.248629 1_555
O45 Ti1 2.037708 1_555
O46 Ti9 1.876066 1_555
O46 Ti8 1.933322 1_555
O48 Ti4 2.037708 1_555
O49 Ti4 1.820654 1_555
O51 Ti4 2.040391 1_555
O52 Ti7 2.083537 1_555
O53 Ti9 1.737817 1_555
O53 Ti6 2.121397 1_555
O54 Ti3 2.199547 1_555
O55 Ti9 1.877401 1_555
O56 Ti8 1.861367 1_555
O57 Ti3 1.850350 1_555
O60 Ti5 1.882453 1_455
O60 Ti0 2.166512 1_555
O61 Ti5 2.083897 1_555
O66 Ti6 1.924654 1_565
O68 Ti2 1.877401 1_555
O70 Ti1 2.145304 1_555
O70 Ti3 2.442357 1_555
O71 Ti1 1.909656 1_555
O71 Ti7 2.255178 1_555
O73 Ti0 1.946193 1_555
