# generated using pymatgen
data_Nb2O5
_symmetry_space_group_name_H-M   'P 1'
_cell_length_a   3.87190600
_cell_length_b   19.78875700
_cell_length_c   20.81448077
_cell_angle_alpha   64.29076373
_cell_angle_beta   90.00000000
_cell_angle_gamma   90.00000000
_symmetry_Int_Tables_number   1
_chemical_formula_structural   Nb2O5
_chemical_formula_sum   'Nb28 O70'
_cell_volume   1436.93497824
_cell_formula_units_Z   14
loop_
 _symmetry_equiv_pos_site_id
 _symmetry_equiv_pos_as_xyz
  1  'x, y, z'
loop_
 _atom_site_type_symbol
 _atom_site_label
 _atom_site_symmetry_multiplicity
 _atom_site_fract_x
 _atom_site_fract_y
 _atom_site_fract_z
 _atom_site_occupancy
  Nb  Nb0  1  0.01130500  0.15985100  0.83412700  1
  Nb  Nb1  1  0.49961700  0.42148700  0.70358200  1
  Nb  Nb2  1  0.99289800  0.00405600  0.76314900  1
  Nb  Nb3  1  0.02046300  0.15570700  0.56655500  1
  Nb  Nb4  1  0.99803800  0.69319900  0.62887900  1
  Nb  Nb5  1  0.99289800  0.99594400  0.23685100  1
  Nb  Nb6  1  0.00348300  0.15156000  0.30343500  1
  Nb  Nb7  1  0.50372100  0.73427900  0.84158100  1
  Nb  Nb8  1  0.99903300  0.31509800  0.63909100  1
  Nb  Nb9  1  0.99903300  0.68490200  0.36090900  1
  Nb  Nb10  1  0.00348300  0.84844000  0.69656500  1
  Nb  Nb11  1  0.99982500  0.53177800  0.56216200  1
  Nb  Nb12  1  0.48565700  0.11035800  0.09260300  1
  Nb  Nb13  1  0.50145800  0.58117800  0.77084000  1
  Nb  Nb14  1  0.50642800  0.26526800  0.89804400  1
  Nb  Nb15  1  0.47536500  0.42506100  0.96406100  1
  Nb  Nb16  1  0.49961700  0.57851300  0.29641800  1
  Nb  Nb17  1  0.97253300  0.00000000  0.50000000  1
  Nb  Nb18  1  0.76621000  0.00000000  0.00000000  1
  Nb  Nb19  1  0.48565700  0.88964200  0.90739700  1
  Nb  Nb20  1  0.99982500  0.46822200  0.43783800  1
  Nb  Nb21  1  0.02046300  0.84429300  0.43344500  1
  Nb  Nb22  1  0.50145800  0.41882200  0.22916000  1
  Nb  Nb23  1  0.50372100  0.26572100  0.15841900  1
  Nb  Nb24  1  0.01130500  0.84014900  0.16587300  1
  Nb  Nb25  1  0.99803800  0.30680100  0.37112100  1
  Nb  Nb26  1  0.47536500  0.57493900  0.03593900  1
  Nb  Nb27  1  0.50642800  0.73473200  0.10195600  1
  O  O0  1  0.49981300  0.18186300  0.13181300  1
  O  O1  1  0.50498700  0.33941000  0.06638200  1
  O  O2  1  0.00155100  0.75457000  0.81305500  1
  O  O3  1  0.99976600  0.57723100  0.46171200  1
  O  O4  1  0.00688700  0.08672200  0.93891300  1
  O  O5  1  0.49548000  0.01370000  0.20631500  1
  O  O6  1  0.00020800  0.40499700  0.25911500  1
  O  O7  1  0.00703100  0.07952700  0.53612100  1
  O  O8  1  0.99976600  0.42276900  0.53828800  1
  O  O9  1  0.49943800  0.16545900  0.57383700  1
  O  O10  1  0.49959900  0.34133800  0.20097400  1
  O  O11  1  0.50356700  0.50092800  0.86192900  1
  O  O12  1  0.99964700  0.42633300  0.67072100  1
  O  O13  1  0.49943800  0.83454100  0.42616300  1
  O  O14  1  0.00020800  0.59500300  0.74088500  1
  O  O15  1  0.49996200  0.34046900  0.79161300  1
  O  O16  1  0.49928100  0.66429600  0.65336100  1
  O  O17  1  0.49981700  0.50357400  0.58582200  1
  O  O18  1  0.00029500  0.41499600  0.96337600  1
  O  O19  1  0.49959900  0.65866200  0.79902600  1
  O  O20  1  0.99180800  0.91817700  0.32675500  1
  O  O21  1  0.00006600  0.24630100  0.73722200  1
  O  O22  1  0.49944500  0.34324600  0.64545900  1
  O  O23  1  0.99886800  0.07640300  0.26441800  1
  O  O24  1  0.50536100  0.82012000  0.15315400  1
  O  O25  1  0.99511800  0.23830900  0.46602500  1
  O  O26  1  0.49981700  0.49642600  0.41417800  1
  O  O27  1  0.99974000  0.76216300  0.66822100  1
  O  O28  1  0.00003200  0.60732100  0.58889600  1
  O  O29  1  0.50136800  0.82593200  0.72321600  1
  O  O30  1  0.49981300  0.81813700  0.86818700  1
  O  O31  1  0.49907500  0.00000000  0.50000000  1
  O  O32  1  0.49459400  0.02629900  0.05953400  1
  O  O33  1  0.99964700  0.57366700  0.32927900  1
  O  O34  1  0.00688700  0.91327800  0.06108700  1
  O  O35  1  0.49511100  0.18146300  0.99688100  1
  O  O36  1  0.99180800  0.08182300  0.67324500  1
  O  O37  1  0.50356700  0.49907200  0.13807100  1
  O  O38  1  0.00029500  0.58500400  0.03662400  1
  O  O39  1  0.00362500  0.91889000  0.60267700  1
  O  O40  1  0.49996200  0.65953100  0.20838700  1
  O  O41  1  0.00458600  0.91421400  0.19556900  1
  O  O42  1  0.00458600  0.08578600  0.80443100  1
  O  O43  1  0.49945200  0.50124000  0.27170000  1
  O  O44  1  0.99974000  0.23783700  0.33177900  1
  O  O45  1  0.00155100  0.24543000  0.18694500  1
  O  O46  1  0.99867100  0.25309200  0.59721000  1
  O  O47  1  0.49548000  0.98630000  0.79368500  1
  O  O48  1  0.50136800  0.17406800  0.27678400  1
  O  O49  1  0.50536100  0.17988000  0.84684600  1
  O  O50  1  0.00362500  0.08111000  0.39732300  1
  O  O51  1  0.49944500  0.65675400  0.35454100  1
  O  O52  1  0.99867100  0.74690800  0.40279000  1
  O  O53  1  0.99387900  0.91503600  0.88210800  1
  O  O54  1  0.50618100  0.33906900  0.92721200  1
  O  O55  1  0.49928100  0.33570400  0.34663900  1
  O  O56  1  0.49511100  0.81853700  0.00311900  1
  O  O57  1  0.49945200  0.49876000  0.72830000  1
  O  O58  1  0.49459400  0.97370100  0.94046600  1
  O  O59  1  0.00003200  0.39267900  0.41110400  1
  O  O60  1  0.00703100  0.92047300  0.46387900  1
  O  O61  1  0.99511800  0.76169100  0.53397500  1
  O  O62  1  0.50010400  0.50000000  0.00000000  1
  O  O63  1  0.99387900  0.08496400  0.11789200  1
  O  O64  1  0.99886800  0.92359700  0.73558200  1
  O  O65  1  0.50498700  0.66059000  0.93361800  1
  O  O66  1  0.00351400  0.24743700  0.88533500  1
  O  O67  1  0.50618100  0.66093100  0.07278800  1
  O  O68  1  0.00351400  0.75256300  0.11466500  1
  O  O69  1  0.00006600  0.75369900  0.26277800  1
loop_
_geom_bond_atom_site_label_1
_geom_bond_atom_site_label_2
_geom_bond_distance
_geom_bond_site_symmetry_2
Nb0 O42 1.821227 1_555
Nb0 O49 1.994380 1_555
Nb0 O21 2.000785 1_555
Nb0 O4 2.028080 1_555
Nb0 O49 2.038571 1_455
Nb0 O66 2.396630 1_555
Nb1 O57 1.812604 1_555
Nb1 O15 1.838221 1_555
Nb1 O12 2.041467 1_455
Nb1 O12 2.041687 1_555
Nb1 O17 2.278634 1_555
Nb1 O22 2.342213 1_555
Nb2 O36 1.836174 1_555
Nb2 O64 1.912447 1_545
Nb2 O47 2.010717 1_545
Nb2 O47 2.029876 1_645
Nb2 O42 2.135857 1_655
Nb2 O53 2.334479 1_545
Nb3 O7 1.872190 1_555
Nb3 O9 1.877481 1_555
Nb3 O25 2.022984 1_455
Nb3 O9 2.038463 1_455
Nb3 O36 2.065065 1_455
Nb3 O46 2.279236 1_455
Nb4 O61 1.848341 1_555
Nb4 O27 1.871534 1_555
Nb4 O16 2.015747 1_555
Nb4 O16 2.024970 1_655
Nb4 O28 2.192656 1_655
Nb4 O14 2.297983 1_655
Nb5 O20 1.836174 1_555
Nb5 O23 1.912447 1_565
Nb5 O5 2.010717 1_565
Nb5 O5 2.029876 1_665
Nb5 O41 2.135857 1_655
Nb5 O63 2.334479 1_565
Nb6 O50 1.843595 1_555
Nb6 O23 1.979832 1_455
Nb6 O48 2.002003 1_555
Nb6 O48 2.017778 1_455
Nb6 O44 2.033986 1_455
Nb6 O45 2.328513 1_555
Nb7 O65 1.836480 1_555
Nb7 O30 1.964177 1_555
Nb7 O2 2.005586 1_655
Nb7 O2 2.021742 1_555
Nb7 O19 2.043009 1_555
Nb7 O29 2.341494 1_555
Nb8 O46 1.787043 1_555
Nb8 O21 1.900749 1_655
Nb8 O22 2.033133 1_555
Nb8 O22 2.036168 1_655
Nb8 O8 2.250205 1_555
Nb8 O12 2.556573 1_555
Nb9 O52 1.787043 1_555
Nb9 O69 1.900749 1_655
Nb9 O51 2.033133 1_555
Nb9 O51 2.036168 1_655
Nb9 O3 2.250205 1_555
Nb9 O33 2.556573 1_555
Nb10 O39 1.843595 1_555
Nb10 O64 1.979832 1_455
Nb10 O29 2.002003 1_555
Nb10 O29 2.017778 1_455
Nb10 O27 2.033986 1_455
Nb10 O2 2.328513 1_555
Nb11 O28 1.807233 1_655
Nb11 O3 1.883854 1_555
Nb11 O17 2.015776 1_655
Nb11 O17 2.015835 1_555
Nb11 O12 2.317126 1_555
Nb11 O8 2.414595 1_555
Nb12 O35 1.875785 1_554
Nb12 O0 1.916568 1_555
Nb12 O63 1.981355 1_455
Nb12 O63 2.042619 1_555
Nb12 O32 2.057991 1_555
Nb12 O5 2.309591 1_555
Nb13 O19 1.864337 1_555
Nb13 O11 1.872002 1_555
Nb13 O14 2.011169 1_655
Nb13 O14 2.020465 1_555
Nb13 O57 2.167258 1_555
Nb13 O16 2.279312 1_555
Nb14 O54 1.808512 1_555
Nb14 O66 1.994949 1_655
Nb14 O35 2.006091 1_555
Nb14 O66 2.016728 1_555
Nb14 O15 2.064589 1_555
Nb14 O49 2.356499 1_555
Nb15 O18 1.850899 1_555
Nb15 O62 1.931413 1_556
Nb15 O11 2.003995 1_555
Nb15 O18 2.042868 1_655
Nb15 O1 2.071213 1_556
Nb15 O54 2.151881 1_555
Nb16 O43 1.812604 1_555
Nb16 O40 1.838221 1_555
Nb16 O33 2.041467 1_455
Nb16 O33 2.041687 1_555
Nb16 O26 2.278634 1_555
Nb16 O51 2.342213 1_555
Nb17 O31 1.833185 1_555
Nb17 O7 2.021465 1_655
Nb17 O60 2.021465 1_645
Nb17 O31 2.038721 1_655
Nb17 O50 2.045009 1_655
Nb17 O39 2.045009 1_645
Nb18 O58 1.863307 1_544
Nb18 O32 1.863307 1_555
Nb18 O34 1.880694 1_645
Nb18 O4 1.880694 1_654
Nb19 O56 1.875785 1_556
Nb19 O30 1.916568 1_555
Nb19 O53 1.981355 1_455
Nb19 O53 2.042619 1_555
Nb19 O58 2.057991 1_555
Nb19 O47 2.309591 1_555
Nb20 O59 1.807233 1_655
Nb20 O8 1.883854 1_555
Nb20 O26 2.015776 1_655
Nb20 O26 2.015835 1_555
Nb20 O33 2.317126 1_555
Nb20 O3 2.414595 1_555
Nb21 O60 1.872190 1_555
Nb21 O13 1.877481 1_555
Nb21 O61 2.022984 1_455
Nb21 O13 2.038463 1_455
Nb21 O20 2.065065 1_455
Nb21 O52 2.279236 1_455
Nb22 O10 1.864337 1_555
Nb22 O37 1.872002 1_555
Nb22 O6 2.011169 1_655
Nb22 O6 2.020465 1_555
Nb22 O43 2.167258 1_555
Nb22 O55 2.279312 1_555
Nb23 O1 1.836480 1_555
Nb23 O0 1.964177 1_555
Nb23 O45 2.005586 1_655
Nb23 O45 2.021742 1_555
Nb23 O10 2.043009 1_555
Nb23 O48 2.341494 1_555
Nb24 O41 1.821227 1_555
Nb24 O24 1.994380 1_555
Nb24 O69 2.000785 1_555
Nb24 O34 2.028080 1_555
Nb24 O24 2.038571 1_455
Nb24 O68 2.396630 1_555
Nb25 O25 1.848341 1_555
Nb25 O44 1.871534 1_555
Nb25 O55 2.015747 1_555
Nb25 O55 2.024970 1_655
Nb25 O59 2.192656 1_655
Nb25 O6 2.297983 1_655
Nb26 O38 1.850899 1_555
Nb26 O62 1.931413 1_555
Nb26 O37 2.003995 1_555
Nb26 O38 2.042868 1_655
Nb26 O65 2.071213 1_554
Nb26 O67 2.151881 1_555
Nb27 O67 1.808512 1_555
Nb27 O68 1.994949 1_655
Nb27 O56 2.006091 1_555
Nb27 O68 2.016728 1_555
Nb27 O40 2.064589 1_555
Nb27 O24 2.356499 1_555
