# generated using pymatgen
data_NbCo3
_symmetry_space_group_name_H-M   'P 1'
_cell_length_a   4.71961929
_cell_length_b   4.71961929
_cell_length_c   15.47174800
_cell_angle_alpha   90.00000000
_cell_angle_beta   90.00000000
_cell_angle_gamma   119.99999009
_symmetry_Int_Tables_number   1
_chemical_formula_structural   NbCo3
_chemical_formula_sum   'Nb6 Co18'
_cell_volume   298.45852872
_cell_formula_units_Z   6
loop_
 _symmetry_equiv_pos_site_id
 _symmetry_equiv_pos_as_xyz
  1  'x, y, z'
loop_
 _atom_site_type_symbol
 _atom_site_label
 _atom_site_symmetry_multiplicity
 _atom_site_fract_x
 _atom_site_fract_y
 _atom_site_fract_z
 _atom_site_occupancy
  Nb  Nb0  1  0.33333300  0.66666700  0.66910900  1
  Nb  Nb1  1  0.00000000  0.00000000  0.39983800  1
  Nb  Nb2  1  0.00000000  0.00000000  0.58981300  1
  Nb  Nb3  1  0.00000000  0.00000000  0.89983800  1
  Nb  Nb4  1  0.66666700  0.33333300  0.16910900  1
  Nb  Nb5  1  0.00000000  0.00000000  0.08981300  1
  Co  Co0  1  0.49973700  0.99947400  0.99863100  1
  Co  Co1  1  0.83524500  0.16475500  0.75036800  1
  Co  Co2  1  0.66666700  0.33333300  0.34824800  1
  Co  Co3  1  0.32950900  0.16475500  0.75036800  1
  Co  Co4  1  0.16475500  0.83524500  0.25036800  1
  Co  Co5  1  0.66666700  0.33333300  0.87229500  1
  Co  Co6  1  0.67049100  0.83524500  0.25036800  1
  Co  Co7  1  0.00052600  0.50026300  0.99863100  1
  Co  Co8  1  0.83524500  0.67049100  0.75036800  1
  Co  Co9  1  0.50026300  0.00052600  0.49863100  1
  Co  Co10  1  0.33333300  0.66666700  0.84824800  1
  Co  Co11  1  0.33333300  0.66666700  0.12370000  1
  Co  Co12  1  0.16475500  0.32950900  0.25036800  1
  Co  Co13  1  0.49973700  0.50026300  0.99863100  1
  Co  Co14  1  0.66666700  0.33333300  0.62370000  1
  Co  Co15  1  0.99947400  0.49973700  0.49863100  1
  Co  Co16  1  0.33333300  0.66666700  0.37229500  1
  Co  Co17  1  0.50026300  0.49973700  0.49863100  1
loop_
_geom_bond_atom_site_label_1
_geom_bond_atom_site_label_2
_geom_bond_distance
_geom_bond_site_symmetry_2
Nb0 Nb2 2.988323 1_565
Nb0 Nb2 2.988327 1_555
Nb0 Nb2 2.988327 1_665
Nb1 Nb2 2.939245 1_555
Nb3 Nb5 2.939245 1_556
Nb4 Nb5 2.988323 1_655
Nb4 Nb5 2.988327 1_555
Nb4 Nb5 2.988327 1_665
Co0 Co13 2.356086 1_555
Co0 Co7 2.356086 1_555
Co0 Co13 2.363533 1_565
Co0 Co7 2.363534 1_665
Co0 Co11 2.365321 1_556
Co0 Co5 2.383843 1_565
Co0 Co10 2.695154 1_555
Co0 Nb5 2.749347 1_566
Co0 Nb5 2.749347 1_666
Co0 Nb3 2.811587 1_565
Co0 Nb3 2.811587 1_665
Co0 Nb4 2.969678 1_566
Co1 Co8 2.332738 1_545
Co1 Co3 2.332738 1_655
Co1 Co5 2.336161 1_555
Co1 Co3 2.386881 1_555
Co1 Co8 2.386881 1_555
Co1 Co14 2.395782 1_555
Co1 Nb0 2.673864 1_545
Co1 Nb0 2.673864 1_655
Co1 Nb3 2.676161 1_655
Co1 Co10 2.803975 1_655
Co1 Co10 2.803975 1_545
Co1 Nb2 2.825683 1_655
Co2 Co9 2.695154 1_555
Co2 Nb4 2.771593 1_555
Co2 Co6 2.803975 1_545
Co2 Co6 2.803975 1_555
Co2 Co4 2.803975 1_655
Co2 Co4 2.803975 1_545
Co2 Nb1 2.839370 1_655
Co2 Nb1 2.839375 1_665
Co2 Nb1 2.839375 1_555
Co3 Co8 2.332738 1_445
Co3 Co5 2.336166 1_555
Co3 Co8 2.386882 1_555
Co3 Nb0 2.673863 1_545
Co3 Nb0 2.673863 1_555
Co3 Nb3 2.676159 1_555
Co3 Nb2 2.825681 1_555
Co4 Co6 2.332738 1_455
Co4 Co6 2.386881 1_555
Co4 Nb4 2.673864 1_455
Co4 Nb4 2.673864 1_565
Co4 Nb1 2.676161 1_565
Co4 Nb5 2.825683 1_565
Co5 Co8 2.336166 1_555
Co5 Co7 2.383843 1_655
Co5 Nb3 2.757991 1_655
Co5 Nb3 2.757995 1_665
Co5 Nb3 2.757995 1_555
Co6 Nb4 2.673863 1_565
Co6 Nb4 2.673863 1_555
Co6 Nb1 2.676159 1_665
Co6 Nb5 2.825681 1_665
Co7 Nb5 2.749347 1_566
Co7 Nb5 2.749347 1_556
Co7 Nb3 2.811587 1_565
Co7 Nb3 2.811587 1_555
Co7 Nb4 2.969678 1_456
Co8 Nb0 2.673863 1_655
Co8 Nb0 2.673863 1_555
Co8 Nb3 2.676159 1_665
Co8 Nb2 2.825681 1_665
Co9 Nb2 2.749347 1_655
Co9 Nb2 2.749347 1_555
Co9 Nb1 2.811587 1_655
Co9 Nb1 2.811587 1_555
Co9 Nb0 2.969678 1_545
Co10 Co7 2.695154 1_555
Co10 Co13 2.695156 1_555
Co10 Co5 2.750153 1_455
Co10 Co5 2.750153 1_565
Co10 Co5 2.750161 1_555
Co10 Nb0 2.771593 1_555
Co10 Co8 2.803975 1_455
Co10 Co3 2.803975 1_565
Co10 Co3 2.803975 1_555
Co10 Co8 2.803975 1_555
Co10 Nb3 2.839370 1_565
Co10 Nb3 2.839375 1_665
Co10 Nb3 2.839375 1_555
Co11 Co7 2.365321 1_554
Co11 Co13 2.365323 1_554
Co11 Co4 2.395782 1_555
Co11 Co12 2.395787 1_555
Co11 Co6 2.395787 1_555
Co11 Nb5 2.774852 1_565
Co11 Nb5 2.774856 1_555
Co11 Nb5 2.774856 1_665
Co11 Nb4 2.813984 1_455
Co11 Nb4 2.813984 1_565
Co11 Nb4 2.813992 1_555
Co12 Co4 2.332738 1_545
Co12 Co6 2.332738 1_445
Co12 Co16 2.336166 1_555
Co12 Co4 2.386881 1_555
Co12 Co6 2.386882 1_555
Co12 Nb4 2.673863 1_455
Co12 Nb4 2.673863 1_555
Co12 Nb1 2.676159 1_555
Co12 Co2 2.803975 1_455
Co12 Co2 2.803975 1_555
Co12 Nb5 2.825681 1_555
Co13 Co7 2.356086 1_555
Co13 Co7 2.363533 1_655
Co13 Co5 2.383845 1_555
Co13 Nb5 2.749347 1_556
Co13 Nb5 2.749347 1_666
Co13 Nb3 2.811587 1_665
Co13 Nb3 2.811587 1_555
Co13 Nb4 2.969680 1_556
Co14 Co9 2.365321 1_555
Co14 Co15 2.365321 1_555
Co14 Co17 2.365323 1_555
Co14 Co3 2.395787 1_555
Co14 Co8 2.395787 1_555
Co14 Nb2 2.774852 1_655
Co14 Nb2 2.774856 1_555
Co14 Nb2 2.774856 1_665
Co14 Nb0 2.813984 1_545
Co14 Nb0 2.813984 1_655
Co14 Nb0 2.813992 1_555
Co15 Co17 2.356086 1_555
Co15 Co9 2.356086 1_555
Co15 Co17 2.363533 1_655
Co15 Co9 2.363534 1_665
Co15 Co16 2.383843 1_655
Co15 Co2 2.695154 1_555
Co15 Nb2 2.749347 1_655
Co15 Nb2 2.749347 1_665
Co15 Nb1 2.811587 1_655
Co15 Nb1 2.811587 1_665
Co15 Nb0 2.969678 1_655
Co16 Co4 2.336161 1_555
Co16 Co6 2.336166 1_555
Co16 Co9 2.383843 1_565
Co16 Co17 2.383845 1_555
Co16 Co2 2.750153 1_455
Co16 Co2 2.750153 1_565
Co16 Co2 2.750161 1_555
Co16 Nb1 2.757991 1_565
Co16 Nb1 2.757995 1_555
Co16 Nb1 2.757995 1_665
Co17 Co9 2.356086 1_555
Co17 Co9 2.363533 1_565
Co17 Co2 2.695156 1_555
Co17 Nb2 2.749347 1_555
Co17 Nb2 2.749347 1_665
Co17 Nb1 2.811587 1_555
Co17 Nb1 2.811587 1_665
Co17 Nb0 2.969680 1_555
