# generated using pymatgen
data_K3Cr2(PS4)3
_symmetry_space_group_name_H-M   'P 1'
_cell_length_a   12.62221700
_cell_length_b   9.96996800
_cell_length_c   19.54456931
_cell_angle_alpha   66.31447401
_cell_angle_beta   90.00000000
_cell_angle_gamma   90.00000000
_symmetry_Int_Tables_number   1
_chemical_formula_structural   K3Cr2(PS4)3
_chemical_formula_sum   'K12 Cr8 P12 S48'
_cell_volume   2252.36685253
_cell_formula_units_Z   4
loop_
 _symmetry_equiv_pos_site_id
 _symmetry_equiv_pos_as_xyz
  1  'x, y, z'
loop_
 _atom_site_type_symbol
 _atom_site_label
 _atom_site_symmetry_multiplicity
 _atom_site_fract_x
 _atom_site_fract_y
 _atom_site_fract_z
 _atom_site_occupancy
  K  K0  1  0.13159700  0.80368600  0.20377200  1
  K  K1  1  0.57903600  0.30656300  0.62087600  1
  K  K2  1  0.43684100  0.72319000  0.04600000  1
  K  K3  1  0.92096400  0.30656300  0.12087600  1
  K  K4  1  0.42096400  0.69343700  0.37912400  1
  K  K5  1  0.56315900  0.27681000  0.95400000  1
  K  K6  1  0.36840300  0.80368600  0.70377200  1
  K  K7  1  0.63159700  0.19631400  0.29622800  1
  K  K8  1  0.07903600  0.69343700  0.87912400  1
  K  K9  1  0.93684100  0.27681000  0.45400000  1
  K  K10  1  0.86840300  0.19631400  0.79622800  1
  K  K11  1  0.06315900  0.72319000  0.54600000  1
  Cr  Cr0  1  0.77115700  0.76400100  0.28993600  1
  Cr  Cr1  1  0.22884300  0.23599900  0.71006400  1
  Cr  Cr2  1  0.27115700  0.23599900  0.21006400  1
  Cr  Cr3  1  0.78265400  0.77664200  0.10228500  1
  Cr  Cr4  1  0.72884300  0.76400100  0.78993600  1
  Cr  Cr5  1  0.71734600  0.77664200  0.60228500  1
  Cr  Cr6  1  0.28265400  0.22335800  0.39771500  1
  Cr  Cr7  1  0.21734600  0.22335800  0.89771500  1
  P  P0  1  0.62742900  0.52144000  0.74633500  1
  P  P1  1  0.87257100  0.52144000  0.24633500  1
  P  P2  1  0.81706800  0.02508300  0.64622400  1
  P  P3  1  0.18293200  0.97491700  0.35377600  1
  P  P4  1  0.12742900  0.47856000  0.75366500  1
  P  P5  1  0.26001400  0.24274400  0.55185400  1
  P  P6  1  0.73998600  0.75725600  0.44814600  1
  P  P7  1  0.23998600  0.24274400  0.05185400  1
  P  P8  1  0.37257100  0.47856000  0.25366500  1
  P  P9  1  0.68293200  0.02508300  0.14622400  1
  P  P10  1  0.76001400  0.75725600  0.94814600  1
  P  P11  1  0.31706800  0.97491700  0.85377600  1
  S  S0  1  0.07109400  0.38794600  0.68279600  1
  S  S1  1  0.36620400  0.05694300  0.92963600  1
  S  S2  1  0.34148200  0.11642600  0.13422800  1
  S  S3  1  0.92890600  0.61205400  0.31720400  1
  S  S4  1  0.57109400  0.61205400  0.81720400  1
  S  S5  1  0.06085300  0.37566600  0.85865000  1
  S  S6  1  0.67519500  0.62167600  0.40286900  1
  S  S7  1  0.78272100  0.61050900  0.72536700  1
  S  S8  1  0.17451700  0.75814400  0.38959400  1
  S  S9  1  0.15851800  0.11642600  0.63422800  1
  S  S10  1  0.43914700  0.37566600  0.35865000  1
  S  S11  1  0.32548300  0.75814400  0.88959400  1
  S  S12  1  0.13366500  0.12022500  0.02106700  1
  S  S13  1  0.86633500  0.87977500  0.97893300  1
  S  S14  1  0.65851800  0.88357400  0.86577200  1
  S  S15  1  0.28272100  0.38949100  0.77463300  1
  S  S16  1  0.38367700  0.08472800  0.75007500  1
  S  S17  1  0.17519500  0.37832400  0.09713100  1
  S  S18  1  0.67451700  0.24185600  0.11040600  1
  S  S19  1  0.32480500  0.37832400  0.59713100  1
  S  S20  1  0.33876000  0.06442200  0.33304900  1
  S  S21  1  0.16124000  0.06442200  0.83304900  1
  S  S22  1  0.82548300  0.24185600  0.61040600  1
  S  S23  1  0.83876000  0.93557800  0.16695100  1
  S  S24  1  0.63379600  0.94305700  0.07036400  1
  S  S25  1  0.93914700  0.62433400  0.14135000  1
  S  S26  1  0.61632300  0.91527200  0.24992500  1
  S  S27  1  0.19027000  0.36713500  0.45129700  1
  S  S28  1  0.11632300  0.08472800  0.25007500  1
  S  S29  1  0.12131200  0.69628900  0.71261200  1
  S  S30  1  0.56085300  0.62433400  0.64135000  1
  S  S31  1  0.36633500  0.12022500  0.52106700  1
  S  S32  1  0.82480500  0.62167600  0.90286900  1
  S  S33  1  0.80973000  0.63286500  0.54870300  1
  S  S34  1  0.87868800  0.30371100  0.28738800  1
  S  S35  1  0.37868800  0.69628900  0.21261200  1
  S  S36  1  0.42890600  0.38794600  0.18279600  1
  S  S37  1  0.30973000  0.36713500  0.95129700  1
  S  S38  1  0.86620400  0.94305700  0.57036400  1
  S  S39  1  0.66124000  0.93557800  0.66695100  1
  S  S40  1  0.62131200  0.30371100  0.78738800  1
  S  S41  1  0.69027000  0.63286500  0.04870300  1
  S  S42  1  0.71727900  0.61050900  0.22536700  1
  S  S43  1  0.84148200  0.88357400  0.36577200  1
  S  S44  1  0.63366500  0.87977500  0.47893300  1
  S  S45  1  0.21727900  0.38949100  0.27463300  1
  S  S46  1  0.88367700  0.91527200  0.74992500  1
  S  S47  1  0.13379600  0.05694300  0.42963600  1
loop_
_geom_bond_atom_site_label_1
_geom_bond_atom_site_label_2
_geom_bond_distance
_geom_bond_site_symmetry_2
K0 S28 3.277882 1_565
K0 S35 3.279459 1_555
K0 S3 3.421641 1_455
K0 S25 3.512737 1_455
K0 S8 3.516364 1_555
K0 S12 3.695592 1_565
K1 S22 3.200098 1_555
K1 S19 3.279924 1_555
K1 S40 3.286695 1_555
K1 S30 3.356879 1_555
K1 S16 3.586272 1_555
K1 S39 3.590536 1_545
K2 S35 3.242362 1_555
K2 S11 3.253580 1_554
K2 S1 3.310510 1_564
K2 S41 3.317844 1_555
K2 S36 3.339170 1_555
K2 S24 3.471425 1_555
K3 S18 3.200098 1_555
K3 S17 3.279924 1_655
K3 S34 3.286695 1_555
K3 S25 3.356879 1_555
K3 S28 3.586272 1_655
K3 S23 3.590536 1_545
K4 S8 3.200098 1_555
K4 S6 3.279924 1_555
K4 S35 3.286695 1_555
K4 S10 3.356879 1_555
K4 S26 3.586272 1_555
K4 S20 3.590536 1_565
K5 S40 3.242362 1_555
K5 S18 3.253580 1_556
K5 S24 3.310510 1_546
K5 S37 3.317844 1_555
K5 S4 3.339170 1_555
K5 S1 3.471425 1_555
K6 S16 3.277882 1_565
K6 S29 3.279459 1_555
K6 S4 3.421641 1_555
K6 S30 3.512737 1_555
K6 S11 3.516364 1_555
K6 S31 3.695592 1_565
K7 S26 3.277882 1_545
K7 S34 3.279459 1_555
K7 S36 3.421641 1_555
K7 S10 3.512737 1_555
K7 S18 3.516364 1_555
K7 S44 3.695592 1_545
K8 S11 3.200098 1_555
K8 S32 3.279924 1_455
K8 S29 3.286695 1_555
K8 S5 3.356879 1_555
K8 S46 3.586272 1_455
K8 S21 3.590536 1_565
K9 S34 3.242362 1_555
K9 S22 3.253580 1_555
K9 S38 3.310510 1_545
K9 S27 3.317844 1_655
K9 S3 3.339170 1_555
K9 S47 3.471425 1_655
K10 S46 3.277882 1_545
K10 S40 3.279459 1_555
K10 S0 3.421641 1_655
K10 S5 3.512737 1_655
K10 S22 3.516364 1_555
K10 S13 3.695592 1_545
K11 S29 3.242362 1_555
K11 S8 3.253580 1_555
K11 S47 3.310510 1_565
K11 S33 3.317844 1_455
K11 S0 3.339170 1_555
K11 S38 3.471425 1_455
Cr0 S26 2.399585 1_555
Cr0 S43 2.413635 1_555
Cr0 S6 2.415807 1_555
Cr0 S3 2.427954 1_555
Cr0 S42 2.438956 1_555
Cr0 S23 2.475581 1_555
Cr1 S16 2.399585 1_555
Cr1 S9 2.413635 1_555
Cr1 S19 2.415807 1_555
Cr1 S0 2.427954 1_555
Cr1 S15 2.438956 1_555
Cr1 S21 2.475581 1_555
Cr2 S28 2.399585 1_555
Cr2 S2 2.413635 1_555
Cr2 S17 2.415807 1_555
Cr2 S36 2.427954 1_555
Cr2 S45 2.438956 1_555
Cr2 S20 2.475581 1_555
Cr3 S41 2.391097 1_555
Cr3 S24 2.416754 1_555
Cr3 S25 2.420553 1_555
Cr3 S13 2.448164 1_554
Cr3 S42 2.451523 1_555
Cr3 S23 2.493761 1_555
Cr4 S46 2.399585 1_555
Cr4 S14 2.413635 1_555
Cr4 S32 2.415807 1_555
Cr4 S4 2.427954 1_555
Cr4 S7 2.438956 1_555
Cr4 S39 2.475581 1_555
Cr5 S33 2.391097 1_555
Cr5 S38 2.416754 1_555
Cr5 S30 2.420553 1_555
Cr5 S44 2.448164 1_555
Cr5 S7 2.451523 1_555
Cr5 S39 2.493761 1_555
Cr6 S27 2.391097 1_555
Cr6 S47 2.416754 1_555
Cr6 S10 2.420553 1_555
Cr6 S31 2.448164 1_555
Cr6 S45 2.451523 1_555
Cr6 S20 2.493761 1_555
Cr7 S37 2.391097 1_555
Cr7 S1 2.416754 1_555
Cr7 S5 2.420553 1_555
Cr7 S12 2.448164 1_556
Cr7 S15 2.451523 1_555
Cr7 S21 2.493761 1_555
P0 S40 1.990614 1_555
P0 S4 2.060500 1_555
P0 S30 2.068237 1_555
P0 S7 2.122790 1_555
P1 S34 1.990614 1_555
P1 S3 2.060500 1_555
P1 S25 2.068237 1_555
P1 S42 2.122790 1_555
P2 S22 1.989136 1_555
P2 S38 2.055692 1_545
P2 S46 2.056838 1_545
P2 S39 2.130412 1_545
P3 S8 1.989136 1_555
P3 S47 2.055692 1_565
P3 S28 2.056838 1_565
P3 S20 2.130412 1_565
P4 S29 1.990614 1_555
P4 S0 2.060500 1_555
P4 S5 2.068237 1_555
P4 S15 2.122790 1_555
P5 S9 2.047011 1_555
P5 S27 2.053610 1_555
P5 S19 2.059151 1_555
P5 S31 2.060501 1_555
P6 S43 2.047011 1_555
P6 S33 2.053610 1_555
P6 S6 2.059151 1_555
P6 S44 2.060501 1_555
P7 S2 2.047011 1_555
P7 S37 2.053610 1_554
P7 S17 2.059151 1_555
P7 S12 2.060501 1_555
P8 S35 1.990614 1_555
P8 S36 2.060500 1_555
P8 S10 2.068237 1_555
P8 S45 2.122790 1_555
P9 S18 1.989136 1_555
P9 S24 2.055692 1_545
P9 S26 2.056838 1_545
P9 S23 2.130412 1_545
P10 S14 2.047011 1_555
P10 S41 2.053610 1_556
P10 S32 2.059151 1_555
P10 S13 2.060501 1_555
P11 S11 1.989136 1_555
P11 S1 2.055692 1_565
P11 S16 2.056838 1_565
P11 S21 2.130412 1_565
