# generated using pymatgen
data_MnBiPO5
_symmetry_space_group_name_H-M   'P 1'
_cell_length_a   5.45850788
_cell_length_b   7.60095918
_cell_length_c   11.44234500
_cell_angle_alpha   89.99995466
_cell_angle_beta   90.00008207
_cell_angle_gamma   109.48783329
_symmetry_Int_Tables_number   1
_chemical_formula_structural   MnBiPO5
_chemical_formula_sum   'Mn4 Bi4 P4 O20'
_cell_volume   447.54486436
_cell_formula_units_Z   4
loop_
 _symmetry_equiv_pos_site_id
 _symmetry_equiv_pos_as_xyz
  1  'x, y, z'
loop_
 _atom_site_type_symbol
 _atom_site_label
 _atom_site_symmetry_multiplicity
 _atom_site_fract_x
 _atom_site_fract_y
 _atom_site_fract_z
 _atom_site_occupancy
  Mn  Mn0  1  0.63324900  0.18938200  0.91166700  1
  Mn  Mn1  1  0.86675300  0.31061900  0.41166700  1
  Mn  Mn2  1  0.13329200  0.68939000  0.58832500  1
  Mn  Mn3  1  0.36670700  0.81060800  0.08832600  1
  Bi  Bi0  1  0.62549900  0.68378500  0.40222100  1
  Bi  Bi1  1  0.37450100  0.31621500  0.59778000  1
  Bi  Bi2  1  0.12549900  0.18378500  0.09778000  1
  Bi  Bi3  1  0.87450100  0.81621500  0.90222100  1
  P  P0  1  0.29231800  0.47776000  0.84975800  1
  P  P1  1  0.79231800  0.97776100  0.65024300  1
  P  P2  1  0.70768200  0.52223900  0.15024200  1
  P  P3  1  0.20768200  0.02224000  0.34975800  1
  O  O0  1  0.90043400  0.16477400  0.58221200  1
  O  O1  1  0.40043200  0.66477900  0.91779100  1
  O  O2  1  0.59956600  0.33522700  0.08221300  1
  O  O3  1  0.09956800  0.83522000  0.41779100  1
  O  O4  1  0.19041300  0.50814900  0.72665900  1
  O  O5  1  0.69040700  0.00813100  0.77333800  1
  O  O6  1  0.80959300  0.49187000  0.27333800  1
  O  O7  1  0.30958800  0.99185100  0.22665900  1
  O  O8  1  0.74920400  0.98714400  0.02434500  1
  O  O9  1  0.24921500  0.48715300  0.47566000  1
  O  O10  1  0.75079600  0.51285600  0.52434500  1
  O  O11  1  0.25078600  0.01284700  0.97566000  1
  O  O12  1  0.56752400  0.83897700  0.57793100  1
  O  O13  1  0.43246500  0.16101700  0.42207300  1
  O  O14  1  0.93247400  0.66102300  0.07793200  1
  O  O15  1  0.06753500  0.33898400  0.92207200  1
  O  O16  1  0.51503900  0.39657000  0.82584800  1
  O  O17  1  0.98496000  0.10343100  0.32584800  1
  O  O18  1  0.01503900  0.89655500  0.67414800  1
  O  O19  1  0.48496200  0.60344400  0.17414800  1
loop_
_geom_bond_atom_site_label_1
_geom_bond_atom_site_label_2
_geom_bond_distance
_geom_bond_site_symmetry_2
Mn0 O16 2.130419 1_555
Mn0 O5 2.188019 1_555
Mn0 O11 2.196817 1_555
Mn0 O8 2.252791 1_546
Mn0 O15 2.264552 1_655
Mn0 O2 2.281853 1_556
Mn1 O17 2.130412 1_555
Mn1 O6 2.188020 1_555
Mn1 O9 2.196809 1_655
Mn1 O10 2.252793 1_555
Mn1 O13 2.264563 1_555
Mn1 O0 2.281838 1_555
Mn2 O18 2.130424 1_555
Mn2 O4 2.187935 1_555
Mn2 O10 2.196898 1_455
Mn2 O9 2.252614 1_555
Mn2 O12 2.264269 1_555
Mn2 O3 2.281729 1_555
Mn3 O19 2.130417 1_555
Mn3 O7 2.187935 1_555
Mn3 O8 2.196912 1_555
Mn3 O11 2.252624 1_564
Mn3 O14 2.264271 1_455
Mn3 O1 2.281738 1_554
Bi0 O10 2.168249 1_555
Bi0 O9 2.260624 1_555
Bi0 O12 2.404775 1_555
Bi0 O3 2.462833 1_655
Bi0 O6 2.508098 1_555
Bi0 O19 2.731174 1_555
Bi1 O9 2.168237 1_555
Bi1 O10 2.260673 1_555
Bi1 O13 2.404753 1_555
Bi1 O0 2.462827 1_455
Bi1 O4 2.508154 1_555
Bi1 O16 2.731134 1_555
Bi2 O11 2.168242 1_554
Bi2 O8 2.260672 1_445
Bi2 O15 2.404764 1_554
Bi2 O2 2.462827 1_555
Bi2 O7 2.508155 1_545
Bi2 O17 2.731135 1_455
Bi3 O8 2.168252 1_556
Bi3 O11 2.260626 1_665
Bi3 O14 2.404779 1_556
Bi3 O1 2.462834 1_555
Bi3 O5 2.508100 1_565
Bi3 O18 2.731175 1_655
O0 P1 1.554066 1_545
O1 P0 1.554113 1_555
O2 P2 1.554049 1_555
O3 P3 1.554119 1_565
O4 P0 1.559641 1_555
O5 P1 1.559576 1_545
O6 P2 1.559583 1_555
O7 P3 1.559645 1_565
O12 P1 1.561860 1_555
O13 P3 1.561822 1_555
O14 P2 1.561843 1_555
O15 P0 1.561814 1_555
O16 P0 1.560209 1_555
O17 P3 1.560218 1_655
O18 P1 1.560278 1_455
O19 P2 1.560271 1_555
