# generated using pymatgen
data_NdSnRh
_symmetry_space_group_name_H-M   'P 1'
_cell_length_a   7.44402229
_cell_length_b   7.44402172
_cell_length_c   4.17391333
_cell_angle_alpha   90.00000000
_cell_angle_beta   90.00000000
_cell_angle_gamma   120.00000257
_symmetry_Int_Tables_number   1
_chemical_formula_structural   NdSnRh
_chemical_formula_sum   'Nd3 Sn3 Rh3'
_cell_volume   200.30387169
_cell_formula_units_Z   3
loop_
 _symmetry_equiv_pos_site_id
 _symmetry_equiv_pos_as_xyz
  1  'x, y, z'
loop_
 _atom_site_type_symbol
 _atom_site_label
 _atom_site_symmetry_multiplicity
 _atom_site_fract_x
 _atom_site_fract_y
 _atom_site_fract_z
 _atom_site_occupancy
  Nd  Nd0  1  0.00000000  0.58658637  0.00000000  1
  Nd  Nd1  1  0.41341363  0.41341363  -0.00000000  1
  Nd  Nd2  1  0.58658637  0.00000000  -0.00000000  1
  Sn  Sn0  1  0.75101610  0.75101610  0.50000000  1
  Sn  Sn1  1  0.00000000  0.24898390  0.50000000  1
  Sn  Sn2  1  0.24898390  0.00000000  0.50000000  1
  Rh  Rh0  1  0.00000000  0.00000000  -0.00000000  1
  Rh  Rh1  1  0.66666700  0.33333300  0.50000000  1
  Rh  Rh2  1  0.33333300  0.66666700  0.50000000  1
loop_
_geom_bond_atom_site_label_1
_geom_bond_atom_site_label_2
_geom_bond_distance
_geom_bond_site_symmetry_2
Nd0 Rh2 3.064084 1_554
Nd0 Rh2 3.064084 1_555
Nd0 Rh1 3.064085 1_454
Nd0 Rh1 3.064085 1_455
Nd0 Rh0 3.077460 1_565
Nd0 Sn1 3.266674 1_554
Nd0 Sn1 3.266674 1_555
Nd0 Sn2 3.399633 1_564
Nd0 Sn2 3.399633 1_565
Nd0 Sn0 3.399633 1_454
Nd0 Sn0 3.399633 1_455
Nd1 Rh2 3.064089 1_554
Nd1 Rh2 3.064089 1_555
Nd1 Rh1 3.064089 1_555
Nd1 Rh1 3.064089 1_554
Nd1 Rh0 3.077460 1_555
Nd1 Sn0 3.266674 1_555
Nd1 Sn0 3.266674 1_554
Nd1 Sn2 3.399633 1_555
Nd1 Sn2 3.399633 1_554
Nd1 Sn1 3.399633 1_554
Nd1 Sn1 3.399633 1_555
Nd2 Rh1 3.064084 1_554
Nd2 Rh1 3.064084 1_555
Nd2 Rh2 3.064085 1_544
Nd2 Rh2 3.064085 1_545
Nd2 Rh0 3.077460 1_655
Nd2 Sn2 3.266674 1_555
Nd2 Sn2 3.266674 1_554
Nd2 Sn1 3.399633 1_654
Nd2 Sn1 3.399633 1_655
Nd2 Sn0 3.399633 1_544
Nd2 Sn0 3.399633 1_545
Rh0 Sn0 2.791171 1_445
Rh0 Sn0 2.791171 1_444
Rh0 Sn1 2.791171 1_555
Rh0 Sn1 2.791171 1_554
Rh0 Sn2 2.791171 1_554
Rh0 Sn2 2.791171 1_555
Rh1 Sn1 2.847686 1_655
Rh1 Sn2 2.847691 1_555
Rh1 Sn0 2.847693 1_555
Rh2 Sn2 2.847686 1_565
Rh2 Sn1 2.847691 1_555
Rh2 Sn0 2.847694 1_555
