# generated using pymatgen
data_Ca6Nd6Mn11CrO36
_symmetry_space_group_name_H-M   'P 1'
_cell_length_a   5.45999468
_cell_length_b   5.52294885
_cell_length_c   23.40551645
_cell_angle_alpha   90.33455473
_cell_angle_beta   89.89874621
_cell_angle_gamma   90.11027829
_symmetry_Int_Tables_number   1
_chemical_formula_structural   Ca6Nd6Mn11CrO36
_chemical_formula_sum   'Ca6 Nd6 Mn11 Cr1 O36'
_cell_volume   705.78527293
_cell_formula_units_Z   1
loop_
 _symmetry_equiv_pos_site_id
 _symmetry_equiv_pos_as_xyz
  1  'x, y, z'
loop_
 _atom_site_type_symbol
 _atom_site_label
 _atom_site_symmetry_multiplicity
 _atom_site_fract_x
 _atom_site_fract_y
 _atom_site_fract_z
 _atom_site_occupancy
  Ca  Ca0  1  0.00944900  0.96050800  0.41049800  1
  Ca  Ca1  1  0.49113300  0.45473200  0.08285600  1
  Ca  Ca2  1  0.49057100  0.45902200  0.41157200  1
  Ca  Ca3  1  0.50964900  0.53860100  0.92306000  1
  Ca  Ca4  1  0.99110600  0.04514300  0.25065900  1
  Ca  Ca5  1  0.99073300  0.04147300  0.92172500  1
  Nd  Nd0  1  0.00657000  0.95859600  0.08434400  1
  Nd  Nd1  1  0.00980700  0.96041200  0.75432100  1
  Nd  Nd2  1  0.49479800  0.46090300  0.75443000  1
  Nd  Nd3  1  0.50530800  0.53908800  0.57885700  1
  Nd  Nd4  1  0.50655200  0.54127800  0.24928500  1
  Nd  Nd5  1  0.99065800  0.03985100  0.57861500  1
  Mn  Mn0  1  0.00012800  0.49732400  0.16667600  1
  Mn  Mn1  1  0.99995600  0.49933300  0.49436900  1
  Mn  Mn2  1  0.00007800  0.50158000  0.83883000  1
  Mn  Mn3  1  0.49997800  0.00262400  0.16691700  1
  Mn  Mn4  1  0.50023600  0.99875600  0.49367900  1
  Mn  Mn5  1  0.49965400  0.00062600  0.83964100  1
  Mn  Mn6  1  0.49875800  0.99764200  0.00082400  1
  Mn  Mn7  1  0.50153800  0.00393400  0.33257300  1
  Mn  Mn8  1  0.00159500  0.49621200  0.00068300  1
  Mn  Mn9  1  0.99885000  0.50184500  0.33292000  1
  Mn  Mn10  1  0.00012200  0.50000500  0.66649400  1
  Cr  Cr0  1  0.50046500  0.00014000  0.66653900  1
  O  O0  1  0.06821300  0.48014100  0.24904400  1
  O  O1  1  0.08079200  0.47691600  0.91980400  1
  O  O2  1  0.06496000  0.48985000  0.58361600  1
  O  O3  1  0.21662200  0.21688800  0.15408200  1
  O  O4  1  0.21255500  0.21584600  0.34561500  1
  O  O5  1  0.21229300  0.21094900  0.01410200  1
  O  O6  1  0.20663600  0.20336200  0.48795900  1
  O  O7  1  0.22163300  0.21992300  0.82012100  1
  O  O8  1  0.22591700  0.19707400  0.67996300  1
  O  O9  1  0.28641000  0.71163800  0.01678900  1
  O  O10  1  0.29303400  0.71026700  0.34385900  1
  O  O11  1  0.30080200  0.71837300  0.68063400  1
  O  O12  1  0.28871100  0.71148900  0.15338800  1
  O  O13  1  0.29284100  0.70410100  0.48808000  1
  O  O14  1  0.28117700  0.72212000  0.81969100  1
  O  O15  1  0.42100700  0.98883600  0.24854100  1
  O  O16  1  0.42149300  0.97134000  0.92072800  1
  O  O17  1  0.42690900  0.98654800  0.58677000  1
  O  O18  1  0.56863500  0.02017800  0.08490900  1
  O  O19  1  0.58012500  0.02321600  0.41290100  1
  O  O20  1  0.57320100  0.01391000  0.74609900  1
  O  O21  1  0.71680800  0.28314200  0.17968200  1
  O  O22  1  0.71829500  0.27853800  0.51306400  1
  O  O23  1  0.70682400  0.29629900  0.84540900  1
  O  O24  1  0.71167000  0.28950900  0.31937900  1
  O  O25  1  0.69996500  0.28145000  0.65229700  1
  O  O26  1  0.71331800  0.28431000  0.98778800  1
  O  O27  1  0.78578800  0.78789500  0.31684600  1
  O  O28  1  0.78875400  0.78809300  0.18008700  1
  O  O29  1  0.77473900  0.80323800  0.65297700  1
  O  O30  1  0.79406000  0.78959400  0.98975800  1
  O  O31  1  0.77763100  0.77985500  0.51338900  1
  O  O32  1  0.79367700  0.79682600  0.84474900  1
  O  O33  1  0.92152700  0.51053300  0.08467500  1
  O  O34  1  0.92013900  0.52843600  0.41355700  1
  O  O35  1  0.93514600  0.50968900  0.74928100  1
loop_
_geom_bond_atom_site_label_1
_geom_bond_atom_site_label_2
_geom_bond_distance
_geom_bond_site_symmetry_2
Ca0 O4 2.353242 1_565
Ca0 O19 2.370734 1_465
Ca0 O34 2.436142 1_455
Ca0 O6 2.493617 1_565
Ca0 O10 2.591298 1_555
Ca0 O27 2.680572 1_455
Ca0 O13 2.783037 1_555
Ca0 O31 2.899909 1_455
Ca1 O33 2.369908 1_555
Ca1 O9 2.385717 1_555
Ca1 O12 2.435141 1_555
Ca1 O18 2.438605 1_555
Ca1 O5 2.587617 1_555
Ca1 O3 2.600068 1_555
Ca1 O26 2.697987 1_554
Ca1 O21 2.755317 1_555
Ca2 O10 2.374448 1_555
Ca2 O34 2.376327 1_555
Ca2 O19 2.457406 1_555
Ca2 O13 2.484913 1_555
Ca2 O4 2.543110 1_555
Ca2 O24 2.638481 1_555
Ca2 O6 2.757694 1_555
Ca2 O22 2.867983 1_555
Ca3 O26 2.353948 1_555
Ca3 O1 2.366858 1_555
Ca3 O16 2.439832 1_555
Ca3 O23 2.494643 1_555
Ca3 O30 2.597133 1_555
Ca3 O9 2.679961 1_556
Ca3 O32 2.794713 1_555
Ca3 O14 2.912242 1_555
Ca4 O15 2.368755 1_645
Ca4 O27 2.385073 1_545
Ca4 O28 2.436705 1_545
Ca4 O0 2.438781 1_655
Ca4 O24 2.590412 1_555
Ca4 O21 2.602390 1_555
Ca4 O4 2.696463 1_655
Ca4 O3 2.745202 1_655
Ca5 O30 2.374440 1_545
Ca5 O16 2.384416 1_645
Ca5 O1 2.454410 1_655
Ca5 O32 2.490401 1_545
Ca5 O26 2.541496 1_555
Ca5 O5 2.644917 1_656
Ca5 O23 2.760760 1_555
Ca5 O7 2.868461 1_655
Nd0 O18 2.415841 1_465
Nd0 O5 2.433368 1_565
Nd0 O3 2.446981 1_565
Nd0 O33 2.516991 1_455
Nd0 O9 2.582487 1_555
Nd0 O12 2.624845 1_555
Nd0 O30 2.664462 1_454
Nd0 O28 2.708088 1_455
Nd1 O7 2.395390 1_565
Nd1 O20 2.410840 1_465
Nd1 O8 2.478520 1_565
Nd1 O14 2.511457 1_555
Nd1 O35 2.523815 1_455
Nd1 O32 2.588023 1_455
Nd1 O11 2.693962 1_555
Nd1 O29 2.830138 1_455
Nd2 O14 2.397784 1_555
Nd2 O35 2.421700 1_555
Nd2 O11 2.483604 1_555
Nd2 O20 2.512768 1_555
Nd2 O7 2.523492 1_555
Nd2 O23 2.595458 1_555
Nd2 O8 2.699528 1_555
Nd2 O25 2.814016 1_555
Nd3 O22 2.401806 1_555
Nd3 O2 2.421548 1_555
Nd3 O25 2.479873 1_555
Nd3 O17 2.514617 1_555
Nd3 O31 2.516972 1_555
Nd3 O13 2.593454 1_555
Nd3 O29 2.696897 1_555
Nd3 O11 2.805205 1_555
Nd4 O0 2.416398 1_555
Nd4 O24 2.432784 1_555
Nd4 O21 2.444781 1_555
Nd4 O15 2.516631 1_555
Nd4 O27 2.579837 1_555
Nd4 O28 2.619986 1_555
Nd4 O10 2.664760 1_555
Nd4 O12 2.715634 1_555
Nd5 O31 2.391590 1_545
Nd5 O17 2.408660 1_645
Nd5 O29 2.477948 1_545
Nd5 O22 2.518419 1_555
Nd5 O2 2.519523 1_655
Nd5 O6 2.591874 1_655
Nd5 O25 2.691717 1_555
Nd5 O8 2.830772 1_655
Mn0 O0 1.966894 1_555
Mn0 O33 1.969210 1_455
Mn0 O21 1.969882 1_455
Mn0 O3 1.970664 1_555
Mn0 O12 1.993464 1_555
Mn0 O28 2.002340 1_455
Mn1 O34 1.949375 1_555
Mn1 O13 1.962673 1_655
Mn1 O6 1.992892 1_655
Mn1 O22 2.010017 1_555
Mn1 O31 2.017263 1_555
Mn1 O2 2.120394 1_655
Mn2 O1 1.952152 1_555
Mn2 O23 1.966475 1_455
Mn2 O32 1.987973 1_455
Mn2 O14 2.009134 1_555
Mn2 O7 2.018003 1_555
Mn2 O35 2.127075 1_455
Mn3 O18 1.957974 1_555
Mn3 O15 1.959644 1_545
Mn3 O21 1.969755 1_555
Mn3 O3 1.974092 1_555
Mn3 O28 1.999520 1_545
Mn3 O12 2.001123 1_545
Mn4 O19 1.944972 1_565
Mn4 O6 1.968291 1_565
Mn4 O13 1.984617 1_555
Mn4 O31 1.996101 1_555
Mn4 O22 1.999435 1_565
Mn4 O17 2.216015 1_555
Mn5 O16 1.952102 1_545
Mn5 O32 1.966626 1_545
Mn5 O23 1.988774 1_555
Mn5 O14 1.998375 1_545
Mn5 O7 1.998988 1_555
Mn5 O20 2.226827 1_555
Mn6 O16 1.926891 1_554
Mn6 O5 1.982918 1_565
Mn6 O26 1.992342 1_564
Mn6 O9 1.994313 1_555
Mn6 O30 1.997303 1_554
Mn6 O18 2.008457 1_565
Mn7 O19 1.931486 1_555
Mn7 O24 1.974028 1_555
Mn7 O4 1.988416 1_555
Mn7 O27 1.991947 1_545
Mn7 O10 1.998304 1_545
Mn7 O15 2.017335 1_545
Mn8 O1 1.943392 1_554
Mn8 O5 1.979469 1_555
Mn8 O26 1.982085 1_454
Mn8 O9 1.991409 1_555
Mn8 O30 1.996949 1_454
Mn8 O33 2.014280 1_455
Mn9 O34 1.939715 1_555
Mn9 O24 1.981082 1_555
Mn9 O4 1.989618 1_655
Mn9 O10 1.990353 1_655
Mn9 O27 2.001576 1_555
Mn9 O0 2.001649 1_655
Mn10 O35 1.969703 1_455
Mn10 O2 1.971721 1_555
Mn10 O25 2.059831 1_455
Mn10 O11 2.061287 1_555
Mn10 O8 2.105687 1_555
Mn10 O29 2.105872 1_455
Cr0 O29 1.877908 1_545
Cr0 O8 1.878677 1_555
Cr0 O20 1.905760 1_555
Cr0 O17 1.911451 1_545
Cr0 O25 1.926067 1_555
Cr0 O11 1.928000 1_545
