# generated using pymatgen
data_Ho4CdCo
_symmetry_space_group_name_H-M   'P 1'
_cell_length_a   9.39712350
_cell_length_b   9.39710934
_cell_length_c   9.39711177
_cell_angle_alpha   59.99990760
_cell_angle_beta   59.99998265
_cell_angle_gamma   59.99996488
_symmetry_Int_Tables_number   1
_chemical_formula_structural   Ho4CdCo
_chemical_formula_sum   'Ho16 Cd4 Co4'
_cell_volume   586.77031351
_cell_formula_units_Z   4
loop_
 _symmetry_equiv_pos_site_id
 _symmetry_equiv_pos_as_xyz
  1  'x, y, z'
loop_
 _atom_site_type_symbol
 _atom_site_label
 _atom_site_symmetry_multiplicity
 _atom_site_fract_x
 _atom_site_fract_y
 _atom_site_fract_z
 _atom_site_occupancy
  Ho  Ho0  1  0.93869651  0.93868730  0.56130690  1
  Ho  Ho1  1  0.81153690  0.18847578  0.18847520  1
  Ho  Ho2  1  0.93869553  0.56130926  0.56130716  1
  Ho  Ho3  1  0.93869570  0.56130698  0.93868993  1
  Ho  Ho4  1  0.81153611  0.81151405  0.18847458  1
  Ho  Ho5  1  0.34630827  0.34632812  0.34632302  1
  Ho  Ho6  1  0.56130830  0.93868846  0.93869119  1
  Ho  Ho7  1  0.56131051  0.93868919  0.56131179  1
  Ho  Ho8  1  0.18847305  0.81152157  0.81152831  1
  Ho  Ho9  1  0.18847344  0.18847688  0.81152919  1
  Ho  Ho10  1  0.34630488  0.34632489  0.96104376  1
  Ho  Ho11  1  0.34630764  0.96104205  0.34632207  1
  Ho  Ho12  1  0.81153328  0.18847453  0.81151706  1
  Ho  Ho13  1  0.56130854  0.56131152  0.93869175  1
  Ho  Ho14  1  0.18847367  0.81152651  0.18847698  1
  Ho  Ho15  1  0.96104800  0.34631857  0.34631348  1
  Cd  Cd0  1  0.57997863  0.57997850  0.26006638  1
  Cd  Cd1  1  0.26005998  0.57998009  0.57998041  1
  Cd  Cd2  1  0.57997781  0.57997731  0.57997639  1
  Cd  Cd3  1  0.57997812  0.26006726  0.57997787  1
  Co  Co0  1  0.57791879  0.14069485  0.14069421  1
  Co  Co1  1  0.14069223  0.14069497  0.14069502  1
  Co  Co2  1  0.14069284  0.57791755  0.14069490  1
  Co  Co3  1  0.14069328  0.14069482  0.57791746  1
loop_
_geom_bond_atom_site_label_1
_geom_bond_atom_site_label_2
_geom_bond_distance
_geom_bond_site_symmetry_2
Cd0 Cd2 3.006221 1_555
Cd0 Cd3 3.006238 1_555
Cd0 Cd1 3.006291 1_555
Cd0 Ho6 3.205029 1_554
Cd0 Ho13 3.205041 1_554
Cd0 Ho3 3.205078 1_554
Cd0 Ho11 3.400164 1_555
Cd0 Ho5 3.400175 1_555
Cd0 Ho15 3.400178 1_555
Cd0 Ho4 3.424641 1_555
Cd0 Ho1 3.424648 1_555
Cd0 Ho14 3.424662 1_555
Cd1 Cd2 3.006275 1_555
Cd1 Cd3 3.006281 1_555
Cd1 Ho0 3.204970 1_455
Cd1 Ho2 3.204985 1_455
Cd1 Ho3 3.204987 1_455
Cd1 Ho5 3.400115 1_555
Cd1 Ho11 3.400116 1_555
Cd1 Ho10 3.400116 1_555
Cd1 Ho8 3.424631 1_555
Cd1 Ho9 3.424631 1_555
Cd1 Ho14 3.424633 1_555
Cd2 Cd3 3.006221 1_555
Cd2 Ho7 3.205062 1_555
Cd2 Ho13 3.205083 1_555
Cd2 Ho2 3.205100 1_555
Cd2 Ho11 3.400188 1_555
Cd2 Ho15 3.400202 1_555
Cd2 Ho10 3.400203 1_555
Cd2 Ho4 3.424647 1_555
Cd2 Ho12 3.424654 1_555
Cd2 Ho8 3.424668 1_555
Cd3 Ho7 3.205055 1_545
Cd3 Ho6 3.205061 1_545
Cd3 Ho0 3.205098 1_545
Cd3 Ho5 3.400190 1_555
Cd3 Ho10 3.400192 1_555
Cd3 Ho15 3.400200 1_555
Cd3 Ho12 3.424648 1_555
Cd3 Ho1 3.424650 1_555
Cd3 Ho9 3.424664 1_555
Co0 Ho12 2.719481 1_554
Co0 Ho4 2.719511 1_545
Co0 Ho1 2.719513 1_555
Co0 Ho5 2.743622 1_555
Co0 Ho11 2.743634 1_545
Co0 Ho10 2.743639 1_554
Co0 Ho13 3.380377 1_554
Co0 Ho7 3.380390 1_545
Co0 Ho6 3.380408 1_544
Co1 Ho1 2.719290 1_455
Co1 Ho9 2.719375 1_554
Co1 Ho14 2.719398 1_545
Co1 Ho11 2.743482 1_545
Co1 Ho10 2.743485 1_554
Co1 Ho15 2.743487 1_455
Co1 Ho3 3.380339 1_454
Co1 Ho0 3.380343 1_445
Co1 Ho6 3.380389 1_544
Co2 Ho4 2.719303 1_455
Co2 Ho8 2.719381 1_554
Co2 Ho14 2.719433 1_555
Co2 Ho5 2.743488 1_555
Co2 Ho10 2.743494 1_554
Co2 Ho15 2.743498 1_455
Co2 Ho2 3.380349 1_455
Co2 Ho3 3.380350 1_454
Co2 Ho13 3.380387 1_554
Co3 Ho12 2.719333 1_455
Co3 Ho8 2.719442 1_545
Co3 Ho9 2.719454 1_555
Co3 Ho5 2.743522 1_555
Co3 Ho11 2.743523 1_545
Co3 Ho15 2.743536 1_455
Co3 Ho2 3.380360 1_455
Co3 Ho0 3.380368 1_445
Co3 Ho7 3.380400 1_545
