# generated using pymatgen
data_Ti4Fe(PO4)6
_symmetry_space_group_name_H-M   'P 1'
_cell_length_a   14.97658942
_cell_length_b   14.97658942
_cell_length_c   14.97658869
_cell_angle_alpha   33.54102363
_cell_angle_beta   33.54102363
_cell_angle_gamma   33.54102350
_symmetry_Int_Tables_number   1
_chemical_formula_structural   Ti4Fe(PO4)6
_chemical_formula_sum   'Ti8 Fe2 P12 O48'
_cell_volume   913.45659399
_cell_formula_units_Z   2
loop_
 _symmetry_equiv_pos_site_id
 _symmetry_equiv_pos_as_xyz
  1  'x, y, z'
loop_
 _atom_site_type_symbol
 _atom_site_label
 _atom_site_symmetry_multiplicity
 _atom_site_fract_x
 _atom_site_fract_y
 _atom_site_fract_z
 _atom_site_occupancy
  Ti  Ti0  1  0.30369200  0.30369200  0.30369200  1
  Ti  Ti1  1  0.44405800  0.44405800  0.44405800  1
  Ti  Ti2  1  0.55594200  0.55594200  0.55594200  1
  Ti  Ti3  1  0.94715900  0.94715900  0.94715900  1
  Ti  Ti4  1  0.19464900  0.19464900  0.19464900  1
  Ti  Ti5  1  0.69630800  0.69630800  0.69630800  1
  Ti  Ti6  1  0.80535100  0.80535100  0.80535100  1
  Ti  Ti7  1  0.05284100  0.05284100  0.05284100  1
  Fe  Fe0  1  0.12453400  0.12453400  0.12453400  1
  Fe  Fe1  1  0.87546600  0.87546600  0.87546600  1
  P  P0  1  0.53982000  0.96338300  0.24000600  1
  P  P1  1  0.24000600  0.53982000  0.96338200  1
  P  P2  1  0.46018000  0.75999400  0.03661800  1
  P  P3  1  0.21318700  0.78681300  0.50000000  1
  P  P4  1  0.78681300  0.50000000  0.21318700  1
  P  P5  1  0.03661800  0.46018000  0.75999400  1
  P  P6  1  0.71096300  0.28903700  0.00000000  1
  P  P7  1  0.75999400  0.03661800  0.46018000  1
  P  P8  1  0.50000000  0.21318700  0.78681300  1
  P  P9  1  0.96338300  0.24000600  0.53982000  1
  P  P10  1  0.00000000  0.71096300  0.28903700  1
  P  P11  1  0.28903700  0.00000000  0.71096300  1
  O  O0  1  0.18502400  0.97369200  0.32775100  1
  O  O1  1  0.69706700  0.47588300  0.83716100  1
  O  O2  1  0.22810000  0.42755400  0.60141900  1
  O  O3  1  0.16283900  0.52411700  0.30293300  1
  O  O4  1  0.06234400  0.72323200  0.95401900  1
  O  O5  1  0.20009200  0.05502200  0.83330900  1
  O  O6  1  0.95401900  0.06234400  0.72323200  1
  O  O7  1  0.79513000  0.96237300  0.59010800  1
  O  O8  1  0.72243800  0.90938000  0.53728100  1
  O  O9  1  0.03762700  0.20487000  0.40989200  1
  O  O10  1  0.52411700  0.30293300  0.16283900  1
  O  O11  1  0.83330900  0.20009200  0.05502200  1
  O  O12  1  0.32775100  0.18502400  0.97369200  1
  O  O13  1  0.94497800  0.79990800  0.16669100  1
  O  O14  1  0.65034200  0.48588000  0.27485700  1
  O  O15  1  0.96237300  0.59010800  0.79513000  1
  O  O16  1  0.40989200  0.03762700  0.20487000  1
  O  O17  1  0.16669100  0.94497800  0.79990800  1
  O  O18  1  0.97369200  0.32775100  0.18502400  1
  O  O19  1  0.77190000  0.39858100  0.57244600  1
  O  O20  1  0.60141900  0.22810000  0.42755400  1
  O  O21  1  0.04598100  0.27676800  0.93765600  1
  O  O22  1  0.72514300  0.51412000  0.34965800  1
  O  O23  1  0.79990800  0.16669100  0.94497800  1
  O  O24  1  0.34965800  0.72514300  0.51412000  1
  O  O25  1  0.30293300  0.16283900  0.52411700  1
  O  O26  1  0.27485700  0.65034200  0.48588000  1
  O  O27  1  0.93765600  0.04598100  0.27676800  1
  O  O28  1  0.39858100  0.57244600  0.77190000  1
  O  O29  1  0.05502200  0.83330900  0.20009200  1
  O  O30  1  0.09062000  0.27756200  0.46271900  1
  O  O31  1  0.90938000  0.53728100  0.72243800  1
  O  O32  1  0.48588000  0.27485700  0.65034200  1
  O  O33  1  0.81497600  0.67224900  0.02630800  1
  O  O34  1  0.53728100  0.72243800  0.90938000  1
  O  O35  1  0.59010800  0.79513000  0.96237300  1
  O  O36  1  0.20487000  0.40989200  0.03762700  1
  O  O37  1  0.67224900  0.02630800  0.81497600  1
  O  O38  1  0.51412000  0.34965800  0.72514300  1
  O  O39  1  0.47588300  0.83716100  0.69706700  1
  O  O40  1  0.42755400  0.60141900  0.22810000  1
  O  O41  1  0.02630800  0.81497600  0.67224900  1
  O  O42  1  0.57244600  0.77190000  0.39858100  1
  O  O43  1  0.46271900  0.09062000  0.27756200  1
  O  O44  1  0.27676800  0.93765600  0.04598100  1
  O  O45  1  0.72323200  0.95401900  0.06234400  1
  O  O46  1  0.27756200  0.46271900  0.09062000  1
  O  O47  1  0.83716100  0.69706700  0.47588300  1
loop_
_geom_bond_atom_site_label_1
_geom_bond_atom_site_label_2
_geom_bond_distance
_geom_bond_site_symmetry_2
Fe0 O21 2.189934 1_554
Fe0 O44 2.189934 1_545
Fe0 O27 2.189934 1_455
Fe0 O0 2.215913 1_545
Fe0 O18 2.215913 1_455
Fe0 O12 2.215913 1_554
Fe1 O45 2.189934 1_556
Fe1 O4 2.189934 1_655
Fe1 O6 2.189934 1_565
Fe1 O41 2.215913 1_655
Fe1 O37 2.215913 1_565
Fe1 O33 2.215913 1_556
O0 P3 1.573622 1_555
O0 Ti4 2.065183 1_565
O1 P6 1.523327 1_556
O1 Ti5 1.927914 1_555
O2 P5 1.532413 1_555
O2 Ti1 1.931644 1_555
O3 P10 1.523327 1_555
O3 Ti0 1.927914 1_555
O4 P1 1.562348 1_555
O4 Ti3 2.076186 1_455
O5 P11 1.558612 1_555
O5 Ti7 1.878460 1_556
O6 P9 1.562349 1_555
O6 Ti3 2.076186 1_545
O7 P7 1.557062 1_565
O7 Ti6 1.879038 1_555
O8 P7 1.522168 1_565
O8 Ti5 1.966548 1_555
O9 P9 1.557071 1_455
O9 Ti4 1.879038 1_555
O10 P6 1.523327 1_555
O10 Ti0 1.927914 1_555
O11 P6 1.558612 1_555
O11 Ti7 1.878460 1_655
O12 P8 1.573622 1_555
O12 Ti4 2.065183 1_556
O13 P10 1.558612 1_655
O13 Ti3 1.878460 1_554
O14 P4 1.524228 1_555
O14 Ti1 1.971743 1_555
O15 P5 1.557062 1_655
O15 Ti6 1.879039 1_555
O16 P0 1.557072 1_545
O16 Ti4 1.879039 1_555
O17 P11 1.558612 1_565
O17 Ti3 1.878460 1_455
O18 P4 1.573622 1_555
O18 Ti4 2.065183 1_655
O19 P9 1.532418 1_555
O19 Ti2 1.931644 1_555
O20 P7 1.532413 1_555
O20 Ti1 1.931644 1_555
O21 P5 1.562348 1_555
O21 Ti7 2.076186 1_556
O22 P4 1.524228 1_555
O22 Ti2 1.971743 1_555
O23 P6 1.558612 1_556
O23 Ti3 1.878460 1_545
O24 P3 1.524228 1_555
O24 Ti2 1.971743 1_555
O25 P11 1.523327 1_555
O25 Ti0 1.927913 1_555
O26 P3 1.524228 1_555
O26 Ti1 1.971743 1_555
O27 P7 1.562348 1_555
O27 Ti7 2.076186 1_655
O28 P1 1.532413 1_555
O28 Ti2 1.931644 1_555
O29 P10 1.558612 1_555
O29 Ti7 1.878460 1_565
O30 P9 1.522155 1_455
O30 Ti0 1.966548 1_555
O31 P5 1.522168 1_655
O31 Ti5 1.966548 1_555
O32 P8 1.524228 1_555
O32 Ti1 1.971743 1_555
O33 P4 1.573622 1_555
O33 Ti6 2.065183 1_554
O34 P2 1.522168 1_556
O34 Ti5 1.966548 1_555
O35 P2 1.557062 1_556
O35 Ti6 1.879039 1_555
O36 P1 1.557062 1_554
O36 Ti4 1.879039 1_555
O37 P8 1.573622 1_555
O37 Ti6 2.065183 1_545
O38 P8 1.524228 1_555
O38 Ti2 1.971743 1_555
O39 P11 1.523327 1_565
O39 Ti5 1.927914 1_555
O40 P2 1.532413 1_555
O40 Ti1 1.931644 1_555
O41 P3 1.573622 1_555
O41 Ti6 2.065183 1_455
O42 P0 1.532418 1_555
O42 Ti2 1.931644 1_555
O43 P0 1.522155 1_545
O43 Ti0 1.966548 1_555
O44 P2 1.562348 1_555
O44 Ti7 2.076186 1_565
O45 P0 1.562349 1_555
O45 Ti3 2.076186 1_554
O46 P1 1.522168 1_554
O46 Ti0 1.966548 1_555
O47 P10 1.523327 1_655
O47 Ti5 1.927913 1_555
