# generated using pymatgen
data_Rb2Mo9Se10
_symmetry_space_group_name_H-M   'P 1'
_cell_length_a   14.05112080
_cell_length_b   14.05112080
_cell_length_c   14.05112099
_cell_angle_alpha   40.50861607
_cell_angle_beta   40.50861607
_cell_angle_gamma   40.50861814
_symmetry_Int_Tables_number   1
_chemical_formula_structural   Rb2Mo9Se10
_chemical_formula_sum   'Rb4 Mo18 Se20'
_cell_volume   1055.69708664
_cell_formula_units_Z   2
loop_
 _symmetry_equiv_pos_site_id
 _symmetry_equiv_pos_as_xyz
  1  'x, y, z'
loop_
 _atom_site_type_symbol
 _atom_site_label
 _atom_site_symmetry_multiplicity
 _atom_site_fract_x
 _atom_site_fract_y
 _atom_site_fract_z
 _atom_site_occupancy
  Rb  Rb0  1  0.29520700  0.29520700  0.29520700  1
  Rb  Rb1  1  0.70479300  0.70479300  0.70479300  1
  Rb  Rb2  1  0.42362600  0.42362600  0.42362600  1
  Rb  Rb3  1  0.57637400  0.57637400  0.57637400  1
  Mo  Mo0  1  0.31407600  0.00133100  0.12631600  1
  Mo  Mo1  1  0.00133100  0.12631600  0.31407600  1
  Mo  Mo2  1  0.12631600  0.31407600  0.00133100  1
  Mo  Mo3  1  0.68592400  0.99866900  0.87368400  1
  Mo  Mo4  1  0.99866900  0.87368400  0.68592400  1
  Mo  Mo5  1  0.87368400  0.68592400  0.99866900  1
  Mo  Mo6  1  0.92054900  0.23802600  0.10431800  1
  Mo  Mo7  1  0.23802600  0.10431800  0.92054900  1
  Mo  Mo8  1  0.10431800  0.92054900  0.23802600  1
  Mo  Mo9  1  0.07945100  0.76197400  0.89568200  1
  Mo  Mo10  1  0.76197400  0.89568200  0.07945100  1
  Mo  Mo11  1  0.89568200  0.07945100  0.76197400  1
  Mo  Mo12  1  0.80357400  0.11824100  0.98913600  1
  Mo  Mo13  1  0.11824100  0.98913600  0.80357400  1
  Mo  Mo14  1  0.98913600  0.80357400  0.11824100  1
  Mo  Mo15  1  0.19642600  0.88175900  0.01086400  1
  Mo  Mo16  1  0.88175900  0.01086400  0.19642600  1
  Mo  Mo17  1  0.01086400  0.19642600  0.88175900  1
  Se  Se0  1  0.19965600  0.19965600  0.19965600  1
  Se  Se1  1  0.80034400  0.80034400  0.80034400  1
  Se  Se2  1  0.81348300  0.43320100  0.18239900  1
  Se  Se3  1  0.43320100  0.18239900  0.81348300  1
  Se  Se4  1  0.18239900  0.81348300  0.43320100  1
  Se  Se5  1  0.18651700  0.56679900  0.81760100  1
  Se  Se6  1  0.56679900  0.81760100  0.18651700  1
  Se  Se7  1  0.81760100  0.18651700  0.56679900  1
  Se  Se8  1  0.58547000  0.20305600  0.94558100  1
  Se  Se9  1  0.20305600  0.94558100  0.58547000  1
  Se  Se10  1  0.94558100  0.58547000  0.20305600  1
  Se  Se11  1  0.41453000  0.79694400  0.05441900  1
  Se  Se12  1  0.79694400  0.05441900  0.41453000  1
  Se  Se13  1  0.05441900  0.41453000  0.79694400  1
  Se  Se14  1  0.93187800  0.30265800  0.67906100  1
  Se  Se15  1  0.30265800  0.67906100  0.93187800  1
  Se  Se16  1  0.67906100  0.93187800  0.30265800  1
  Se  Se17  1  0.06812200  0.69734200  0.32093900  1
  Se  Se18  1  0.69734200  0.32093900  0.06812200  1
  Se  Se19  1  0.32093900  0.06812200  0.69734200  1
loop_
_geom_bond_atom_site_label_1
_geom_bond_atom_site_label_2
_geom_bond_distance
_geom_bond_site_symmetry_2
Rb0 Se15 3.652391 1_554
Rb0 Se14 3.652391 1_455
Rb0 Se16 3.652391 1_545
Rb0 Se9 3.690489 1_545
Rb0 Se8 3.690489 1_554
Rb0 Se10 3.690489 1_455
Rb0 Se0 3.691988 1_555
Rb0 Se18 4.021931 1_555
Rb0 Se19 4.021931 1_555
Rb0 Se17 4.021931 1_555
Rb1 Se18 3.652391 1_556
Rb1 Se17 3.652391 1_655
Rb1 Se19 3.652391 1_565
Rb1 Se12 3.690489 1_565
Rb1 Se11 3.690489 1_556
Rb1 Se13 3.690489 1_655
Rb1 Se1 3.691988 1_555
Rb1 Se15 4.021931 1_555
Rb1 Se16 4.021931 1_555
Rb1 Se14 4.021931 1_555
Rb2 Se13 3.612996 1_555
Rb2 Se11 3.612996 1_555
Rb2 Se12 3.612996 1_555
Rb2 Se2 3.702404 1_555
Rb2 Se3 3.702404 1_555
Rb2 Se4 3.702404 1_555
Rb2 Se19 3.890215 1_555
Rb2 Se18 3.890215 1_555
Rb2 Se17 3.890215 1_555
Rb3 Se10 3.612996 1_555
Rb3 Se8 3.612996 1_555
Rb3 Se9 3.612996 1_555
Rb3 Se5 3.702404 1_555
Rb3 Se6 3.702404 1_555
Rb3 Se7 3.702404 1_555
Rb3 Se16 3.890215 1_555
Rb3 Se15 3.890215 1_555
Rb3 Se14 3.890215 1_555
Mo0 Se0 2.539112 1_555
Mo0 Se3 2.622657 1_554
Mo0 Se4 2.640310 1_545
Mo0 Se6 2.701293 1_545
Mo0 Se11 2.709225 1_545
Mo1 Se0 2.539112 1_555
Mo1 Se4 2.622657 1_545
Mo1 Se2 2.640310 1_455
Mo1 Se7 2.701293 1_455
Mo1 Se12 2.709225 1_455
Mo2 Se0 2.539112 1_555
Mo2 Se2 2.622657 1_455
Mo2 Se3 2.640310 1_554
Mo2 Se5 2.701293 1_554
Mo2 Se13 2.709225 1_554
Mo3 Se1 2.539112 1_555
Mo3 Se6 2.622657 1_556
Mo3 Se7 2.640310 1_565
Mo3 Se3 2.701293 1_565
Mo3 Se8 2.709225 1_565
Mo4 Se1 2.539112 1_555
Mo4 Se7 2.622657 1_565
Mo4 Se5 2.640310 1_655
Mo4 Se4 2.701293 1_655
Mo4 Se9 2.709225 1_655
Mo5 Se1 2.539112 1_555
Mo5 Se5 2.622657 1_655
Mo5 Se6 2.640310 1_556
Mo5 Se2 2.701293 1_556
Mo5 Se10 2.709225 1_556
Mo6 Se2 2.603769 1_555
Mo6 Se13 2.606680 1_654
Mo6 Se12 2.621774 1_555
Mo6 Se18 2.724114 1_555
Mo7 Se3 2.603768 1_555
Mo7 Se11 2.606680 1_546
Mo7 Se13 2.621774 1_555
Mo7 Se19 2.724114 1_555
Mo8 Se4 2.603769 1_555
Mo8 Se12 2.606680 1_465
Mo8 Se11 2.621774 1_555
Mo8 Se17 2.724114 1_555
Mo9 Se5 2.603769 1_555
Mo9 Se10 2.606680 1_456
Mo9 Se9 2.621774 1_555
Mo9 Se15 2.724114 1_555
Mo10 Se6 2.603768 1_555
Mo10 Se8 2.606680 1_564
Mo10 Se10 2.621774 1_555
Mo10 Se16 2.724114 1_555
Mo11 Se7 2.603769 1_555
Mo11 Se9 2.606680 1_645
Mo11 Se8 2.621774 1_555
Mo11 Se14 2.724114 1_555
Mo12 Se14 2.634293 1_555
Mo12 Se16 2.651417 1_546
Mo12 Se8 2.715855 1_555
Mo12 Se18 2.719294 1_556
Mo13 Se15 2.634293 1_555
Mo13 Se14 2.651417 1_465
Mo13 Se9 2.715855 1_555
Mo13 Se19 2.719294 1_565
Mo14 Se16 2.634293 1_555
Mo14 Se15 2.651417 1_654
Mo14 Se10 2.715855 1_555
Mo14 Se17 2.719294 1_655
Mo15 Se17 2.634293 1_555
Mo15 Se19 2.651417 1_564
Mo15 Se11 2.715855 1_555
Mo15 Se15 2.719294 1_554
Mo16 Se18 2.634293 1_555
Mo16 Se17 2.651417 1_645
Mo16 Se12 2.715855 1_555
Mo16 Se16 2.719294 1_545
Mo17 Se19 2.634293 1_555
Mo17 Se18 2.651417 1_456
Mo17 Se13 2.715855 1_555
Mo17 Se14 2.719294 1_455
