# generated using pymatgen
data_KI(OF)2
_symmetry_space_group_name_H-M   'P 1'
_cell_length_a   6.12846200
_cell_length_b   8.51251400
_cell_length_c   8.56424800
_cell_angle_alpha   90.00000000
_cell_angle_beta   90.00000000
_cell_angle_gamma   90.00000000
_symmetry_Int_Tables_number   1
_chemical_formula_structural   KI(OF)2
_chemical_formula_sum   'K4 I4 O8 F8'
_cell_volume   446.78498728
_cell_formula_units_Z   4
loop_
 _symmetry_equiv_pos_site_id
 _symmetry_equiv_pos_as_xyz
  1  'x, y, z'
loop_
 _atom_site_type_symbol
 _atom_site_label
 _atom_site_symmetry_multiplicity
 _atom_site_fract_x
 _atom_site_fract_y
 _atom_site_fract_z
 _atom_site_occupancy
  K  K0  1  0.53203700  0.78678600  0.71611200  1
  K  K1  1  0.46796300  0.28678600  0.71611200  1
  K  K2  1  0.46796300  0.21321400  0.21611200  1
  K  K3  1  0.53203700  0.71321400  0.21611200  1
  I  I0  1  0.06372600  0.49632900  0.99972100  1
  I  I1  1  0.93627400  0.99632900  0.99972100  1
  I  I2  1  0.06372600  0.00367100  0.49972100  1
  I  I3  1  0.93627400  0.50367100  0.49972100  1
  O  O0  1  0.84177600  0.70322700  0.47329300  1
  O  O1  1  0.15822400  0.29677300  0.97329300  1
  O  O2  1  0.85019200  0.46575300  0.69770800  1
  O  O3  1  0.15822400  0.20322700  0.47329300  1
  O  O4  1  0.84177600  0.79677300  0.97329300  1
  O  O5  1  0.14980800  0.53424700  0.19770800  1
  O  O6  1  0.85019200  0.03424700  0.19770800  1
  O  O7  1  0.14980800  0.96575300  0.69770800  1
  F  F0  1  0.63852600  0.07806600  0.92005800  1
  F  F1  1  0.36147400  0.92193400  0.42005800  1
  F  F2  1  0.63852600  0.42193400  0.42005800  1
  F  F3  1  0.76396100  0.07357600  0.57480900  1
  F  F4  1  0.23603900  0.57357600  0.57480900  1
  F  F5  1  0.76396100  0.42642400  0.07480900  1
  F  F6  1  0.36147400  0.57806600  0.92005800  1
  F  F7  1  0.23603900  0.92642400  0.07480900  1
loop_
_geom_bond_atom_site_label_1
_geom_bond_atom_site_label_2
_geom_bond_distance
_geom_bond_site_symmetry_2
K0 O7 2.798743 1_555
K0 O0 2.904096 1_555
K0 O4 2.908910 1_555
K0 O2 3.360766 1_555
K1 O2 2.798743 1_555
K1 O3 2.904096 1_555
K1 O1 2.908910 1_555
K1 O7 3.360766 1_545
K2 O6 2.798743 1_555
K2 O1 2.904096 1_554
K2 O3 2.908910 1_555
K2 O5 3.360766 1_555
K3 O5 2.798743 1_555
K3 O4 2.904096 1_554
K3 O0 2.908910 1_555
K3 O6 3.360766 1_565
I0 O5 1.804879 1_556
I0 O1 1.808944 1_555
I1 O6 1.804879 1_566
I1 O4 1.808944 1_555
I2 O7 1.804879 1_545
I2 O3 1.808944 1_555
I3 O2 1.804879 1_555
I3 O0 1.808944 1_555
F0 I1 2.068636 1_545
F0 K1 2.701883 1_555
F0 K2 2.974024 1_556
F0 K0 3.102372 1_545
F1 I2 2.068636 1_565
F1 K3 2.701883 1_555
F1 K0 2.974024 1_555
F1 K2 3.102372 1_565
F2 I3 2.068636 1_555
F2 K2 2.701883 1_555
F2 K1 2.974024 1_555
F2 K3 3.102372 1_555
F3 I2 2.035332 1_655
F3 K1 2.837106 1_555
F3 K0 3.073213 1_545
F4 I3 2.035332 1_455
F4 K0 2.837106 1_555
F4 K1 3.073213 1_555
F5 I0 2.035332 1_654
F5 K2 2.837106 1_555
F5 K3 3.073213 1_555
F6 I0 2.068636 1_555
F6 K0 2.701883 1_555
F6 K3 2.974024 1_556
F6 K1 3.102372 1_555
F7 I1 2.035332 1_454
F7 K3 2.837106 1_555
F7 K2 3.073213 1_565
