# generated using pymatgen
data_LiMgVO4
_symmetry_space_group_name_H-M   'P 1'
_cell_length_a   5.21028392
_cell_length_b   5.21028392
_cell_length_c   6.32334000
_cell_angle_alpha   90.00000000
_cell_angle_beta   90.00000000
_cell_angle_gamma   113.49501365
_symmetry_Int_Tables_number   1
_chemical_formula_structural   LiMgVO4
_chemical_formula_sum   'Li2 Mg2 V2 O8'
_cell_volume   157.42856336
_cell_formula_units_Z   2
loop_
 _symmetry_equiv_pos_site_id
 _symmetry_equiv_pos_as_xyz
  1  'x, y, z'
loop_
 _atom_site_type_symbol
 _atom_site_label
 _atom_site_symmetry_multiplicity
 _atom_site_fract_x
 _atom_site_fract_y
 _atom_site_fract_z
 _atom_site_occupancy
  Li  Li0  1  0.83729800  0.16270200  0.75000000  1
  Li  Li1  1  0.16270200  0.83729800  0.25000000  1
  Mg  Mg0  1  0.50000000  0.50000000  0.50000000  1
  Mg  Mg1  1  0.50000000  0.50000000  0.00000000  1
  V  V0  1  0.14581300  0.85418700  0.75000000  1
  V  V1  1  0.85418700  0.14581300  0.25000000  1
  O  O0  1  0.26006500  0.73993500  0.97054600  1
  O  O1  1  0.73439400  0.77408900  0.25000000  1
  O  O2  1  0.26560600  0.22591100  0.75000000  1
  O  O3  1  0.73993500  0.26006500  0.47054600  1
  O  O4  1  0.73993500  0.26006500  0.02945400  1
  O  O5  1  0.77408900  0.73439400  0.75000000  1
  O  O6  1  0.22591100  0.26560600  0.25000000  1
  O  O7  1  0.26006500  0.73993500  0.52945400  1
loop_
_geom_bond_atom_site_label_1
_geom_bond_atom_site_label_2
_geom_bond_distance
_geom_bond_site_symmetry_2
Li0 O3 1.960218 1_555
Li0 O4 1.960218 1_556
Li0 O2 2.121915 1_655
Li0 O5 2.121915 1_545
Li1 O7 1.960218 1_555
Li1 O0 1.960218 1_554
Li1 O1 2.121915 1_455
Li1 O6 2.121915 1_565
Mg0 O7 2.099151 1_555
Mg0 O3 2.099151 1_555
Mg0 O6 2.153909 1_555
Mg0 O1 2.153909 1_555
Mg0 O5 2.153909 1_555
Mg0 O2 2.153909 1_555
Mg1 O0 2.099151 1_554
Mg1 O4 2.099151 1_555
Mg1 O6 2.153909 1_555
Mg1 O1 2.153909 1_555
Mg1 O2 2.153909 1_554
Mg1 O5 2.153909 1_554
O0 V0 1.713520 1_555
O1 V1 1.782372 1_565
O2 V0 1.782372 1_545
O3 V1 1.713520 1_555
O4 V1 1.713520 1_555
O5 V0 1.782372 1_655
O6 V1 1.782372 1_455
O7 V0 1.713520 1_555
