# generated using pymatgen
data_La3S4
_symmetry_space_group_name_H-M   'P 1'
_cell_length_a   7.57676582
_cell_length_b   7.57676489
_cell_length_c   7.57676471
_cell_angle_alpha   109.47122293
_cell_angle_beta   109.47122050
_cell_angle_gamma   109.47121929
_symmetry_Int_Tables_number   1
_chemical_formula_structural   La3S4
_chemical_formula_sum   'La6 S8'
_cell_volume   334.83402328
_cell_formula_units_Z   2
loop_
 _symmetry_equiv_pos_site_id
 _symmetry_equiv_pos_as_xyz
  1  'x, y, z'
loop_
 _atom_site_type_symbol
 _atom_site_label
 _atom_site_symmetry_multiplicity
 _atom_site_fract_x
 _atom_site_fract_y
 _atom_site_fract_z
 _atom_site_occupancy
  La  La0  1  0.75000000  0.87500000  0.12500000  1
  La  La1  1  0.62500000  0.37500000  0.25000000  1
  La  La2  1  0.87500000  0.12500000  0.75000000  1
  La  La3  1  0.12500000  0.75000000  0.87500000  1
  La  La4  1  0.37500000  0.25000000  0.62500000  1
  La  La5  1  0.25000000  0.62500000  0.37500000  1
  S  S0  1  0.64924216  0.64924216  0.64924216  1
  S  S1  1  0.35075784  0.50000000  0.00000000  1
  S  S2  1  0.50000000  -0.00000000  0.35075784  1
  S  S3  1  -0.00000000  0.35075784  0.50000000  1
  S  S4  1  0.50000000  -0.00000000  0.85075784  1
  S  S5  1  -0.00000000  0.85075784  0.50000000  1
  S  S6  1  0.14924216  0.14924216  0.14924216  1
  S  S7  1  0.85075784  0.50000000  0.00000000  1
loop_
_geom_bond_atom_site_label_1
_geom_bond_atom_site_label_2
_geom_bond_distance
_geom_bond_site_symmetry_2
La0 S5 2.947289 1_655
La0 S4 2.947289 1_564
La0 S1 2.947290 1_555
La0 S6 2.947290 1_665
La0 S0 3.112364 1_554
La0 S3 3.112364 1_665
La0 S7 3.112364 1_555
La0 S2 3.112364 1_565
La1 S4 2.947289 1_554
La1 S0 2.947289 1_555
La1 S1 2.947289 1_555
La1 S3 2.947290 1_655
La1 S2 3.112364 1_555
La1 S5 3.112364 1_655
La1 S7 3.112364 1_555
La1 S6 3.112364 1_555
La2 S7 2.947289 1_556
La2 S5 2.947289 1_645
La2 S6 2.947289 1_656
La2 S2 2.947289 1_555
La2 S0 3.112364 1_545
La2 S3 3.112364 1_655
La2 S1 3.112364 1_656
La2 S4 3.112364 1_555
La3 S3 2.947289 1_555
La3 S6 2.947289 1_566
La3 S7 2.947289 1_456
La3 S4 2.947290 1_565
La3 S5 3.112364 1_555
La3 S2 3.112364 1_566
La3 S1 3.112364 1_556
La3 S0 3.112364 1_455
La4 S1 2.947289 1_556
La4 S2 2.947289 1_555
La4 S0 2.947289 1_555
La4 S5 2.947290 1_545
La4 S6 3.112364 1_555
La4 S4 3.112364 1_555
La4 S7 3.112364 1_556
La4 S3 3.112364 1_555
La5 S2 2.947289 1_565
La5 S3 2.947289 1_555
La5 S7 2.947289 1_455
La5 S0 2.947290 1_555
La5 S4 3.112364 1_565
La5 S6 3.112364 1_555
La5 S1 3.112364 1_555
La5 S5 3.112364 1_555
