# generated using pymatgen
data_Sc2FeB2Rh5
_symmetry_space_group_name_H-M   'P 1'
_cell_length_a   9.32826800
_cell_length_b   9.32826800
_cell_length_c   3.08426000
_cell_angle_alpha   90.00000000
_cell_angle_beta   90.00000000
_cell_angle_gamma   90.00000000
_symmetry_Int_Tables_number   1
_chemical_formula_structural   Sc2FeB2Rh5
_chemical_formula_sum   'Sc4 Fe2 B4 Rh10'
_cell_volume   268.38176900
_cell_formula_units_Z   2
loop_
 _symmetry_equiv_pos_site_id
 _symmetry_equiv_pos_as_xyz
  1  'x, y, z'
loop_
 _atom_site_type_symbol
 _atom_site_label
 _atom_site_symmetry_multiplicity
 _atom_site_fract_x
 _atom_site_fract_y
 _atom_site_fract_z
 _atom_site_occupancy
  Sc  Sc0  1  0.82476600  0.32476600  0.00000000  1
  Sc  Sc1  1  0.32476600  0.17523400  0.00000000  1
  Sc  Sc2  1  0.67523400  0.82476600  0.00000000  1
  Sc  Sc3  1  0.17523400  0.67523400  0.00000000  1
  Fe  Fe0  1  0.00000000  0.00000000  0.00000000  1
  Fe  Fe1  1  0.50000000  0.50000000  0.00000000  1
  B  B0  1  0.62430600  0.12430600  0.00000000  1
  B  B1  1  0.12430600  0.37569400  0.00000000  1
  B  B2  1  0.87569400  0.62430600  0.00000000  1
  B  B3  1  0.37569400  0.87569400  0.00000000  1
  Rh  Rh0  1  0.07065500  0.21584900  0.50000000  1
  Rh  Rh1  1  0.21584900  0.92934500  0.50000000  1
  Rh  Rh2  1  0.78415100  0.07065500  0.50000000  1
  Rh  Rh3  1  0.92934500  0.78415100  0.50000000  1
  Rh  Rh4  1  0.42934500  0.71584900  0.50000000  1
  Rh  Rh5  1  0.57065500  0.28415100  0.50000000  1
  Rh  Rh6  1  0.71584900  0.57065500  0.50000000  1
  Rh  Rh7  1  0.28415100  0.42934500  0.50000000  1
  Rh  Rh8  1  0.50000000  0.00000000  0.50000000  1
  Rh  Rh9  1  0.00000000  0.50000000  0.50000000  1
loop_
_geom_bond_atom_site_label_1
_geom_bond_atom_site_label_2
_geom_bond_distance
_geom_bond_site_symmetry_2
Fe0 Rh2 2.620445 1_455
Fe0 Rh3 2.620445 1_445
Fe0 Rh2 2.620445 1_454
Fe0 Rh3 2.620445 1_444
Fe0 Rh1 2.620445 1_544
Fe0 Rh1 2.620445 1_545
Fe0 Rh0 2.620445 1_555
Fe0 Rh0 2.620445 1_554
Fe1 Rh4 2.620445 1_554
Fe1 Rh6 2.620445 1_555
Fe1 Rh6 2.620445 1_554
Fe1 Rh4 2.620445 1_555
Fe1 Rh5 2.620445 1_554
Fe1 Rh5 2.620445 1_555
Fe1 Rh7 2.620445 1_555
Fe1 Rh7 2.620445 1_554
B0 Rh5 2.202713 1_554
B0 Rh5 2.202713 1_555
B0 Rh2 2.202713 1_555
B0 Rh2 2.202713 1_554
B0 Rh8 2.251071 1_555
B0 Rh8 2.251071 1_554
B0 Sc0 2.644501 1_555
B0 Sc2 2.834288 1_545
B0 Sc1 2.834288 1_555
B1 Rh0 2.202713 1_555
B1 Rh7 2.202713 1_554
B1 Rh7 2.202713 1_555
B1 Rh0 2.202713 1_554
B1 Rh9 2.251071 1_555
B1 Rh9 2.251071 1_554
B1 Sc1 2.644501 1_555
B1 Sc3 2.834288 1_555
B1 Sc0 2.834288 1_455
B2 Rh3 2.202713 1_554
B2 Rh6 2.202713 1_555
B2 Rh3 2.202713 1_555
B2 Rh6 2.202713 1_554
B2 Rh9 2.251071 1_655
B2 Rh9 2.251071 1_654
B2 Sc2 2.644501 1_555
B2 Sc0 2.834288 1_555
B2 Sc3 2.834288 1_655
B3 Rh1 2.202713 1_554
B3 Rh1 2.202713 1_555
B3 Rh4 2.202713 1_555
B3 Rh4 2.202713 1_554
B3 Rh8 2.251071 1_564
B3 Rh8 2.251071 1_565
B3 Sc3 2.644501 1_555
B3 Sc2 2.834288 1_555
B3 Sc1 2.834288 1_565
Rh0 Sc1 2.853169 1_555
Rh0 Sc1 2.853169 1_556
Rh0 Sc0 2.944755 1_455
Rh0 Sc0 2.944755 1_456
Rh1 Sc3 2.853169 1_555
Rh1 Sc3 2.853169 1_556
Rh1 Sc1 2.944755 1_566
Rh1 Sc1 2.944755 1_565
Rh2 Sc0 2.853169 1_556
Rh2 Sc0 2.853169 1_555
Rh2 Sc2 2.944755 1_546
Rh2 Sc2 2.944755 1_545
Rh3 Sc2 2.853169 1_556
Rh3 Sc2 2.853169 1_555
Rh3 Sc3 2.944755 1_656
Rh3 Sc3 2.944755 1_655
Rh4 Sc3 2.853169 1_556
Rh4 Sc3 2.853169 1_555
Rh4 Sc2 2.944755 1_556
Rh4 Sc2 2.944755 1_555
Rh5 Sc0 2.853169 1_556
Rh5 Sc0 2.853169 1_555
Rh5 Sc1 2.944755 1_555
Rh5 Sc1 2.944755 1_556
Rh6 Sc2 2.853169 1_556
Rh6 Sc2 2.853169 1_555
Rh6 Sc0 2.944755 1_556
Rh6 Sc0 2.944755 1_555
Rh7 Sc1 2.853169 1_555
Rh7 Sc1 2.853169 1_556
Rh7 Sc3 2.944755 1_556
Rh7 Sc3 2.944755 1_555
Rh8 Sc2 2.778884 1_546
Rh8 Sc2 2.778884 1_545
Rh8 Sc1 2.778884 1_555
Rh8 Sc1 2.778884 1_556
Rh9 Sc0 2.778884 1_455
Rh9 Sc0 2.778884 1_456
Rh9 Sc3 2.778884 1_556
Rh9 Sc3 2.778884 1_555
