# generated using pymatgen
data_Cu6PS5Br
_symmetry_space_group_name_H-M   'P 1'
_cell_length_a   6.83122348
_cell_length_b   6.83122348
_cell_length_c   11.92493131
_cell_angle_alpha   73.46030605
_cell_angle_beta   73.46030605
_cell_angle_gamma   60.13845004
_symmetry_Int_Tables_number   1
_chemical_formula_structural   Cu6PS5Br
_chemical_formula_sum   'Cu12 P2 S10 Br2'
_cell_volume   455.74254887
_cell_formula_units_Z   2
loop_
 _symmetry_equiv_pos_site_id
 _symmetry_equiv_pos_as_xyz
  1  'x, y, z'
loop_
 _atom_site_type_symbol
 _atom_site_label
 _atom_site_symmetry_multiplicity
 _atom_site_fract_x
 _atom_site_fract_y
 _atom_site_fract_z
 _atom_site_occupancy
  Cu  Cu0  1  0.02831300  0.96047200  0.89314200  1
  Cu  Cu1  1  0.26845900  0.36516300  0.61406600  1
  Cu  Cu2  1  0.99911000  0.53456100  0.88370200  1
  Cu  Cu3  1  0.36516300  0.26845900  0.11406600  1
  Cu  Cu4  1  0.46140200  0.49610500  0.88870500  1
  Cu  Cu5  1  0.53456100  0.99911000  0.38370200  1
  Cu  Cu6  1  0.84585900  0.14631600  0.61274400  1
  Cu  Cu7  1  0.77234900  0.62275800  0.11137100  1
  Cu  Cu8  1  0.62275800  0.77234900  0.61137100  1
  Cu  Cu9  1  0.14631600  0.84585900  0.11274400  1
  Cu  Cu10  1  0.49610500  0.46140200  0.38870500  1
  Cu  Cu11  1  0.96047200  0.02831300  0.39314200  1
  P  P0  1  0.99973300  0.50059600  0.37565500  1
  P  P1  1  0.50059600  0.99973300  0.87565500  1
  S  S0  1  0.93668700  0.44249700  0.56048000  1
  S  S1  1  0.44249700  0.93668700  0.06048000  1
  S  S2  1  0.19975200  0.19353100  0.31236600  1
  S  S3  1  0.70227100  0.16921900  0.81265900  1
  S  S4  1  0.16921900  0.70227100  0.31265900  1
  S  S5  1  0.19353100  0.19975200  0.81236600  1
  S  S6  1  0.69478200  0.66927200  0.31025900  1
  S  S7  1  0.12171400  0.61588600  0.01424100  1
  S  S8  1  0.61588600  0.12171400  0.51424100  1
  S  S9  1  0.66927200  0.69478200  0.81025900  1
  Br  Br0  1  0.75146500  0.24571600  0.12774100  1
  Br  Br1  1  0.24571600  0.75146500  0.62774100  1
loop_
_geom_bond_atom_site_label_1
_geom_bond_atom_site_label_2
_geom_bond_distance
_geom_bond_site_symmetry_2
Cu0 S7 2.264312 1_556
Cu0 S3 2.278242 1_465
Cu0 S5 2.279297 1_565
Cu1 S0 2.294364 1_455
Cu1 S8 2.324589 1_555
Cu1 S5 2.344383 1_555
Cu2 S7 2.265250 1_656
Cu2 S5 2.271175 1_655
Cu2 S9 2.272408 1_555
Cu3 S1 2.294364 1_545
Cu3 S7 2.324589 1_555
Cu3 S2 2.344383 1_555
Cu4 S7 2.263631 1_556
Cu4 S3 2.271721 1_555
Cu4 S9 2.274535 1_555
Cu5 S8 2.265250 1_565
Cu5 S2 2.271175 1_565
Cu5 S6 2.272408 1_555
Cu6 S0 2.275754 1_555
Cu6 S8 2.302618 1_555
Cu6 S3 2.323378 1_555
Cu7 S1 2.295687 1_555
Cu7 S7 2.320584 1_655
Cu7 S6 2.356417 1_555
Cu8 S0 2.295687 1_555
Cu8 S8 2.320584 1_565
Cu8 S9 2.356417 1_555
Cu9 S1 2.275754 1_555
Cu9 S7 2.302618 1_555
Cu9 S4 2.323378 1_555
Cu10 S8 2.263631 1_555
Cu10 S4 2.271721 1_555
Cu10 S6 2.274535 1_555
Cu11 S8 2.264312 1_555
Cu11 S4 2.278242 1_645
Cu11 S2 2.279297 1_655
P0 S2 2.072850 1_655
P0 S6 2.073295 1_555
P0 S4 2.075280 1_655
P0 S0 2.081454 1_555
P1 S5 2.072850 1_565
P1 S9 2.073295 1_555
P1 S3 2.075280 1_565
P1 S1 2.081454 1_556
Br0 Cu7 2.599281 1_555
Br0 Cu3 2.614751 1_555
Br0 Cu9 2.726764 1_645
Br1 Cu8 2.599281 1_555
Br1 Cu1 2.614751 1_555
Br1 Cu6 2.726764 1_465
