# generated using pymatgen
data_Nb4N3
_symmetry_space_group_name_H-M   'P 1'
_cell_length_a   5.36496508
_cell_length_b   5.36496508
_cell_length_c   5.36496508
_cell_angle_alpha   131.23953669
_cell_angle_beta   131.23953669
_cell_angle_gamma   71.43278082
_symmetry_Int_Tables_number   1
_chemical_formula_structural   Nb4N3
_chemical_formula_sum   'Nb4 N3'
_cell_volume   85.45369441
_cell_formula_units_Z   1
loop_
 _symmetry_equiv_pos_site_id
 _symmetry_equiv_pos_as_xyz
  1  'x, y, z'
loop_
 _atom_site_type_symbol
 _atom_site_label
 _atom_site_symmetry_multiplicity
 _atom_site_fract_x
 _atom_site_fract_y
 _atom_site_fract_z
 _atom_site_occupancy
  Nb  Nb0  1  0.00000000  0.50000000  0.50000000  1
  Nb  Nb1  1  0.74612200  0.74612200  0.00000000  1
  Nb  Nb2  1  0.25387800  0.25387800  0.00000000  1
  Nb  Nb3  1  0.50000000  0.00000000  0.50000000  1
  N  N0  1  0.25000000  0.75000000  0.50000000  1
  N  N1  1  0.75000000  0.25000000  0.50000000  1
  N  N2  1  0.00000000  0.00000000  0.00000000  1
loop_
_geom_bond_atom_site_label_1
_geom_bond_atom_site_label_2
_geom_bond_distance
_geom_bond_site_symmetry_2
N0 Nb3 2.177952 1_565
N0 Nb0 2.177952 1_555
N0 Nb2 2.214863 1_555
N0 Nb2 2.214863 1_566
N0 Nb1 2.214863 1_455
N0 Nb1 2.214863 1_556
N1 Nb3 2.177952 1_555
N1 Nb0 2.177952 1_655
N1 Nb2 2.214863 1_555
N1 Nb1 2.214863 1_556
N1 Nb1 2.214863 1_545
N1 Nb2 2.214863 1_656
N2 Nb2 2.211736 1_555
N2 Nb1 2.211736 1_445
N2 Nb0 2.214605 1_544
N2 Nb3 2.214605 1_555
N2 Nb3 2.214605 1_454
N2 Nb0 2.214605 1_555
