# generated using pymatgen
data_CeAs2Pd3
_symmetry_space_group_name_H-M   'P 1'
_cell_length_a   8.63829322
_cell_length_b   8.63829322
_cell_length_c   10.03132928
_cell_angle_alpha   72.54788837
_cell_angle_beta   72.54788837
_cell_angle_gamma   27.69233598
_symmetry_Int_Tables_number   1
_chemical_formula_structural   CeAs2Pd3
_chemical_formula_sum   'Ce3 As6 Pd9'
_cell_volume   330.85303994
_cell_formula_units_Z   3
loop_
 _symmetry_equiv_pos_site_id
 _symmetry_equiv_pos_as_xyz
  1  'x, y, z'
loop_
 _atom_site_type_symbol
 _atom_site_label
 _atom_site_symmetry_multiplicity
 _atom_site_fract_x
 _atom_site_fract_y
 _atom_site_fract_z
 _atom_site_occupancy
  Ce  Ce0  1  0.15551215  0.15551215  0.29682736  1
  Ce  Ce1  1  0.84448785  0.84448785  0.70317264  1
  Ce  Ce2  1  0.00000000  0.00000000  0.00000000  1
  As  As0  1  0.80070453  0.80070453  0.12833365  1
  As  As1  1  0.63607809  0.63607809  0.54533629  1
  As  As2  1  0.36392191  0.36392191  0.45466371  1
  As  As3  1  0.19929547  0.19929547  0.87166635  1
  As  As4  1  0.53725774  0.53725774  0.21610362  1
  As  As5  1  0.46274226  0.46274226  0.78389638  1
  Pd  Pd0  1  0.04474066  0.04474066  0.66679844  1
  Pd  Pd1  1  0.32265940  0.32265940  0.96621093  1
  Pd  Pd2  1  0.67734060  0.67734060  0.03378907  1
  Pd  Pd3  1  0.77864988  0.77864988  0.39200382  1
  Pd  Pd4  1  0.37423384  0.37423384  0.20297158  1
  Pd  Pd5  1  0.95525934  0.95525934  0.33320156  1
  Pd  Pd6  1  0.22135012  0.22135012  0.60799618  1
  Pd  Pd7  1  0.50000000  0.50000000  0.50000000  1
  Pd  Pd8  1  0.62576616  0.62576616  0.79702842  1
loop_
_geom_bond_atom_site_label_1
_geom_bond_atom_site_label_2
_geom_bond_distance
_geom_bond_site_symmetry_2
Ce0 Pd5 3.264943 1_445
Ce0 Pd3 3.266515 1_545
Ce0 Pd3 3.266515 1_455
Ce0 Pd2 3.282254 1_545
Ce0 Pd2 3.282254 1_455
Ce0 Pd7 3.456594 1_455
Ce0 Pd7 3.456594 1_545
Ce0 Pd4 3.494813 1_555
Ce0 Pd0 3.600867 1_555
Ce0 Pd6 3.618387 1_555
Ce0 Pd1 3.621622 1_554
Ce1 Pd0 3.264943 1_665
Ce1 Pd6 3.266515 1_655
Ce1 Pd6 3.266515 1_565
Ce1 Pd1 3.282254 1_565
Ce1 Pd1 3.282254 1_655
Ce1 Pd7 3.456594 1_655
Ce1 Pd7 3.456594 1_565
Ce1 Pd8 3.494813 1_555
Ce1 Pd5 3.600867 1_555
Ce1 Pd3 3.618387 1_555
Ce1 Pd2 3.621622 1_556
Ce2 Pd5 3.191484 1_445
Ce2 Pd0 3.191484 1_554
Ce2 Pd8 3.196306 1_454
Ce2 Pd8 3.196306 1_544
Ce2 Pd4 3.196306 1_455
Ce2 Pd4 3.196306 1_545
As0 Pd2 2.528682 1_555
As0 Pd3 2.555033 1_555
As0 Pd1 2.585372 1_564
As0 Pd1 2.585372 1_654
As0 Pd4 2.631740 1_655
As0 Pd4 2.631740 1_565
As0 Ce2 3.189802 1_665
As0 Ce0 3.243336 1_655
As0 Ce0 3.243336 1_565
As1 Pd3 2.411015 1_555
As1 Pd7 2.461429 1_555
As1 Pd8 2.476846 1_555
As1 Pd0 2.636746 1_565
As1 Pd0 2.636746 1_655
As1 Pd6 2.696334 1_655
As1 Pd6 2.696334 1_565
As1 Ce0 3.176839 1_565
As1 Ce0 3.176839 1_655
As2 Pd6 2.411015 1_555
As2 Pd7 2.461429 1_555
As2 Pd4 2.476846 1_555
As2 Pd5 2.636746 1_455
As2 Pd5 2.636746 1_545
As2 Pd3 2.696334 1_545
As2 Pd3 2.696334 1_455
As2 Ce1 3.176839 1_545
As2 Ce1 3.176839 1_455
As3 Pd1 2.528682 1_555
As3 Pd6 2.555033 1_555
As3 Pd2 2.585372 1_456
As3 Pd2 2.585372 1_546
As3 Pd8 2.631740 1_545
As3 Pd8 2.631740 1_455
As3 Ce2 3.189802 1_556
As3 Ce1 3.243336 1_455
As3 Ce1 3.243336 1_545
As4 Pd2 2.492298 1_555
As4 Pd5 2.558765 1_455
As4 Pd5 2.558765 1_545
As4 Pd7 2.720543 1_555
As4 Pd4 2.778171 1_555
As4 Ce0 3.139526 1_655
As4 Ce0 3.139526 1_565
As4 Ce2 3.193840 1_655
As4 Ce2 3.193840 1_565
As5 Pd1 2.492298 1_555
As5 Pd0 2.558765 1_565
As5 Pd0 2.558765 1_655
As5 Pd7 2.720543 1_555
As5 Pd8 2.778171 1_555
As5 Ce1 3.139526 1_455
As5 Ce1 3.139526 1_545
As5 Ce2 3.193840 1_566
As5 Ce2 3.193840 1_656
Pd0 Pd6 2.836383 1_555
Pd0 Pd7 2.900397 1_545
Pd0 Pd7 2.900397 1_455
Pd0 Pd8 2.987393 1_545
Pd0 Pd8 2.987393 1_455
Pd1 Pd4 2.767408 1_556
Pd2 Pd8 2.767408 1_554
Pd3 Pd5 2.836383 1_555
Pd3 Pd4 2.926082 1_655
Pd3 Pd4 2.926082 1_565
Pd3 Pd6 2.933515 1_565
Pd3 Pd6 2.933515 1_655
Pd4 Pd5 2.987393 1_545
Pd4 Pd5 2.987393 1_455
Pd5 Pd7 2.900397 1_565
Pd5 Pd7 2.900397 1_655
Pd6 Pd8 2.926082 1_455
Pd6 Pd8 2.926082 1_545
