# generated using pymatgen
data_Li3BiO4
_symmetry_space_group_name_H-M   'P 1'
_cell_length_a   8.69686507
_cell_length_b   8.69686507
_cell_length_c   4.24573496
_cell_angle_alpha   90.00000000
_cell_angle_beta   90.00000000
_cell_angle_gamma   90.00000000
_symmetry_Int_Tables_number   1
_chemical_formula_structural   Li3BiO4
_chemical_formula_sum   'Li12 Bi4 O16'
_cell_volume   321.12812542
_cell_formula_units_Z   4
loop_
 _symmetry_equiv_pos_site_id
 _symmetry_equiv_pos_as_xyz
  1  'x, y, z'
loop_
 _atom_site_type_symbol
 _atom_site_label
 _atom_site_symmetry_multiplicity
 _atom_site_fract_x
 _atom_site_fract_y
 _atom_site_fract_z
 _atom_site_occupancy
  Li  Li0  1  0.86997252  0.13002748  0.50000000  1
  Li  Li1  1  0.63002748  0.63002748  -0.00000000  1
  Li  Li2  1  0.39719340  0.88838108  0.00000000  1
  Li  Li3  1  0.61161892  0.89719340  0.50000000  1
  Li  Li4  1  0.13002748  0.86997252  0.50000000  1
  Li  Li5  1  0.10280660  0.38838108  0.50000000  1
  Li  Li6  1  0.88838108  0.39719340  -0.00000000  1
  Li  Li7  1  0.60280660  0.11161892  0.00000000  1
  Li  Li8  1  0.89719340  0.61161892  0.50000000  1
  Li  Li9  1  0.36997252  0.36997252  -0.00000000  1
  Li  Li10  1  0.11161892  0.60280660  -0.00000000  1
  Li  Li11  1  0.38838108  0.10280660  0.50000000  1
  Bi  Bi0  1  0.36562408  0.63437592  0.50000000  1
  Bi  Bi1  1  0.63437592  0.36562408  0.50000000  1
  Bi  Bi2  1  0.86562408  0.86562408  -0.00000000  1
  Bi  Bi3  1  0.13437592  0.13437592  -0.00000000  1
  O  O0  1  0.88659927  0.11340073  0.00000000  1
  O  O1  1  0.38659927  0.38659927  0.50000000  1
  O  O2  1  0.62191386  0.13035194  0.50000000  1
  O  O3  1  0.86964806  0.37808614  0.50000000  1
  O  O4  1  0.87617786  0.87617786  0.50000000  1
  O  O5  1  0.12382214  0.12382214  0.50000000  1
  O  O6  1  0.13035194  0.62191386  0.50000000  1
  O  O7  1  0.61340073  0.61340073  0.50000000  1
  O  O8  1  0.63035194  0.87808614  0.00000000  1
  O  O9  1  0.12191386  0.36964806  0.00000000  1
  O  O10  1  0.37617786  0.62382214  -0.00000000  1
  O  O11  1  0.62382214  0.37617786  -0.00000000  1
  O  O12  1  0.87808614  0.63035194  -0.00000000  1
  O  O13  1  0.37808614  0.86964806  0.50000000  1
  O  O14  1  0.11340073  0.88659927  0.00000000  1
  O  O15  1  0.36964806  0.12191386  0.00000000  1
loop_
_geom_bond_atom_site_label_1
_geom_bond_atom_site_label_2
_geom_bond_distance
_geom_bond_site_symmetry_2
Li0 O0 2.132694 1_555
Li0 O0 2.132694 1_556
Li0 O2 2.157335 1_555
Li0 O3 2.157335 1_555
Li0 O5 2.208355 1_655
Li0 O4 2.208355 1_545
Li1 O7 2.132694 1_554
Li1 O7 2.132694 1_555
Li1 O12 2.157335 1_555
Li1 O8 2.157335 1_555
Li1 O11 2.208355 1_555
Li1 O10 2.208355 1_555
Li2 O8 2.029724 1_555
Li2 O15 2.045082 1_565
Li2 O13 2.135585 1_555
Li2 O13 2.135585 1_554
Li2 O10 2.308081 1_555
Li2 O14 2.468155 1_555
Li3 O2 2.029724 1_565
Li3 O13 2.045082 1_555
Li3 O8 2.135585 1_556
Li3 O8 2.135585 1_555
Li3 O4 2.308081 1_555
Li3 O7 2.468155 1_555
Li4 O14 2.132694 1_556
Li4 O14 2.132694 1_555
Li4 O6 2.157335 1_555
Li4 O13 2.157335 1_555
Li4 O5 2.208355 1_565
Li4 O4 2.208355 1_455
Li5 O3 2.029724 1_455
Li5 O6 2.045082 1_555
Li5 O9 2.135585 1_556
Li5 O9 2.135585 1_555
Li5 O5 2.308081 1_555
Li5 O1 2.468155 1_555
Li6 O12 2.029724 1_555
Li6 O9 2.045082 1_655
Li6 O3 2.135585 1_554
Li6 O3 2.135585 1_555
Li6 O11 2.308081 1_555
Li6 O0 2.468155 1_555
Li7 O15 2.029724 1_555
Li7 O8 2.045082 1_545
Li7 O2 2.135585 1_554
Li7 O2 2.135585 1_555
Li7 O11 2.308081 1_555
Li7 O0 2.468155 1_555
Li8 O6 2.029724 1_655
Li8 O3 2.045082 1_555
Li8 O12 2.135585 1_556
Li8 O12 2.135585 1_555
Li8 O4 2.308081 1_555
Li8 O7 2.468155 1_555
Li9 O1 2.132694 1_554
Li9 O1 2.132694 1_555
Li9 O15 2.157335 1_555
Li9 O9 2.157335 1_555
Li9 O11 2.208355 1_555
Li9 O10 2.208355 1_555
Li10 O9 2.029724 1_555
Li10 O12 2.045082 1_455
Li10 O6 2.135585 1_555
Li10 O6 2.135585 1_554
Li10 O10 2.308081 1_555
Li10 O14 2.468155 1_555
Li11 O13 2.029724 1_545
Li11 O2 2.045082 1_555
Li11 O15 2.135585 1_556
Li11 O15 2.135585 1_555
Li11 O5 2.308081 1_555
Li11 O1 2.468155 1_555
Bi0 O6 2.048998 1_555
Bi0 O13 2.048998 1_555
Bi0 O10 2.126832 1_555
Bi0 O10 2.126832 1_556
Bi0 O1 2.162587 1_555
Bi0 O7 2.162587 1_555
Bi1 O2 2.048998 1_555
Bi1 O3 2.048998 1_555
Bi1 O11 2.126832 1_556
Bi1 O11 2.126832 1_555
Bi1 O1 2.162587 1_555
Bi1 O7 2.162587 1_555
Bi2 O12 2.048998 1_555
Bi2 O8 2.048998 1_555
Bi2 O4 2.126832 1_554
Bi2 O4 2.126832 1_555
Bi2 O14 2.162587 1_655
Bi2 O0 2.162587 1_565
Bi3 O15 2.048998 1_555
Bi3 O9 2.048998 1_555
Bi3 O5 2.126832 1_554
Bi3 O5 2.126832 1_555
Bi3 O0 2.162587 1_455
Bi3 O14 2.162587 1_545
