# generated using pymatgen
data_KAg(PO3)2
_symmetry_space_group_name_H-M   'P 1'
_cell_length_a   13.37399700
_cell_length_b   6.15351500
_cell_length_c   7.62290863
_cell_angle_alpha   85.65173586
_cell_angle_beta   90.00000000
_cell_angle_gamma   90.00000000
_symmetry_Int_Tables_number   1
_chemical_formula_structural   KAg(PO3)2
_chemical_formula_sum   'K4 Ag4 P8 O24'
_cell_volume   625.53747402
_cell_formula_units_Z   4
loop_
 _symmetry_equiv_pos_site_id
 _symmetry_equiv_pos_as_xyz
  1  'x, y, z'
loop_
 _atom_site_type_symbol
 _atom_site_label
 _atom_site_symmetry_multiplicity
 _atom_site_fract_x
 _atom_site_fract_y
 _atom_site_fract_z
 _atom_site_occupancy
  K  K0  1  0.33050600  0.29969800  0.76833500  1
  K  K1  1  0.16949400  0.29969800  0.26833500  1
  K  K2  1  0.66949400  0.70030200  0.23166500  1
  K  K3  1  0.83050600  0.70030200  0.73166500  1
  Ag  Ag0  1  0.47154300  0.18700900  0.19680800  1
  Ag  Ag1  1  0.52845700  0.81299100  0.80319200  1
  Ag  Ag2  1  0.02845700  0.18700900  0.69680800  1
  Ag  Ag3  1  0.97154300  0.81299100  0.30319200  1
  P  P0  1  0.17358400  0.84761500  0.00613100  1
  P  P1  1  0.67358400  0.15238500  0.49386900  1
  P  P2  1  0.32641600  0.84761500  0.50613100  1
  P  P3  1  0.13194800  0.68642900  0.65131000  1
  P  P4  1  0.63194800  0.31357100  0.84869000  1
  P  P5  1  0.86805200  0.31357100  0.34869000  1
  P  P6  1  0.36805200  0.68642900  0.15131000  1
  P  P7  1  0.82641600  0.15238500  0.99386900  1
  O  O0  1  0.82867400  0.32204300  0.14688000  1
  O  O1  1  0.67132600  0.32204300  0.64688000  1
  O  O2  1  0.34897000  0.46139400  0.09405500  1
  O  O3  1  0.84897000  0.53860600  0.40594500  1
  O  O4  1  0.79352900  0.13938700  0.45313200  1
  O  O5  1  0.15103000  0.46139400  0.59405500  1
  O  O6  1  0.87751900  0.26315700  0.83602200  1
  O  O7  1  0.14692100  0.07523200  0.93762400  1
  O  O8  1  0.20647100  0.86061300  0.54686800  1
  O  O9  1  0.62248100  0.26315700  0.33602200  1
  O  O10  1  0.47078800  0.78614100  0.13633000  1
  O  O11  1  0.32867400  0.67795700  0.35312000  1
  O  O12  1  0.65103000  0.53860600  0.90594500  1
  O  O13  1  0.70647100  0.13938700  0.95313200  1
  O  O14  1  0.37751900  0.73684300  0.66397800  1
  O  O15  1  0.17132600  0.67795700  0.85312000  1
  O  O16  1  0.52921200  0.21385900  0.86367000  1
  O  O17  1  0.29352900  0.86061300  0.04686800  1
  O  O18  1  0.35307900  0.07523200  0.43762400  1
  O  O19  1  0.97078800  0.21385900  0.36367000  1
  O  O20  1  0.64692100  0.92476800  0.56237600  1
  O  O21  1  0.12248100  0.73684300  0.16397800  1
  O  O22  1  0.85307900  0.92476800  0.06237600  1
  O  O23  1  0.02921200  0.78614100  0.63633000  1
loop_
_geom_bond_atom_site_label_1
_geom_bond_atom_site_label_2
_geom_bond_distance
_geom_bond_site_symmetry_2
K0 O2 2.755101 1_556
K0 O16 2.794854 1_555
K0 O14 2.817739 1_555
K0 O5 2.883754 1_555
K0 O18 2.980329 1_555
K0 O7 3.054706 1_555
K0 O15 3.255113 1_555
K0 O17 3.344116 1_546
K1 O5 2.755101 1_555
K1 O19 2.794854 1_455
K1 O21 2.817739 1_555
K1 O2 2.883754 1_555
K1 O7 2.980329 1_554
K1 O18 3.054706 1_555
K1 O11 3.255113 1_555
K1 O8 3.344116 1_545
K2 O12 2.755101 1_554
K2 O10 2.794854 1_555
K2 O9 2.817739 1_555
K2 O3 2.883754 1_555
K2 O20 2.980329 1_555
K2 O22 3.054706 1_555
K2 O0 3.255113 1_555
K2 O13 3.344116 1_564
K3 O3 2.755101 1_555
K3 O23 2.794854 1_655
K3 O6 2.817739 1_555
K3 O12 2.883754 1_555
K3 O22 2.980329 1_556
K3 O20 3.054706 1_555
K3 O1 3.255113 1_555
K3 O4 3.344116 1_565
Ag0 O9 2.344370 1_555
Ag0 O2 2.439479 1_555
Ag0 O18 2.482261 1_555
Ag0 O10 2.543605 1_545
Ag0 O16 2.647166 1_554
Ag1 O14 2.344370 1_555
Ag1 O12 2.439479 1_555
Ag1 O20 2.482261 1_555
Ag1 O16 2.543605 1_565
Ag1 O10 2.647166 1_556
Ag2 O6 2.344370 1_455
Ag2 O5 2.439479 1_555
Ag2 O7 2.482261 1_555
Ag2 O23 2.543605 1_545
Ag2 O19 2.647166 1_455
Ag3 O21 2.344370 1_655
Ag3 O3 2.439479 1_555
Ag3 O22 2.482261 1_555
Ag3 O19 2.543605 1_565
Ag3 O23 2.647166 1_655
O0 P5 1.623120 1_555
O0 P7 1.623560 1_554
O1 P4 1.623120 1_555
O1 P1 1.623560 1_555
O2 P6 1.504929 1_555
O3 P5 1.504929 1_555
O4 P5 1.626856 1_555
O4 P1 1.637032 1_555
O5 P3 1.504929 1_555
O6 P7 1.501727 1_555
O7 P0 1.500255 1_546
O8 P3 1.626856 1_555
O8 P2 1.637032 1_555
O9 P1 1.501727 1_555
O10 P6 1.505572 1_555
O11 P6 1.623120 1_555
O11 P2 1.623560 1_555
O12 P4 1.504929 1_555
O13 P4 1.626856 1_555
O13 P7 1.637032 1_555
O14 P2 1.501727 1_555
O15 P3 1.623120 1_555
O15 P0 1.623560 1_556
O16 P4 1.505572 1_555
O17 P6 1.626856 1_555
O17 P0 1.637032 1_555
O18 P2 1.500255 1_545
O19 P5 1.505572 1_555
O20 P1 1.500255 1_565
O21 P0 1.501727 1_555
O22 P7 1.500255 1_564
O23 P3 1.505572 1_555
