# generated using pymatgen
data_Pr2NiO4
_symmetry_space_group_name_H-M   'P 1'
_cell_length_a   5.58377100
_cell_length_b   5.58377100
_cell_length_c   12.29520500
_cell_angle_alpha   90.00000000
_cell_angle_beta   90.00000000
_cell_angle_gamma   90.00000000
_symmetry_Int_Tables_number   1
_chemical_formula_structural   Pr2NiO4
_chemical_formula_sum   'Pr8 Ni4 O16'
_cell_volume   383.34603164
_cell_formula_units_Z   4
loop_
 _symmetry_equiv_pos_site_id
 _symmetry_equiv_pos_as_xyz
  1  'x, y, z'
loop_
 _atom_site_type_symbol
 _atom_site_label
 _atom_site_symmetry_multiplicity
 _atom_site_fract_x
 _atom_site_fract_y
 _atom_site_fract_z
 _atom_site_occupancy
  Pr  Pr0  1  0.23504300  0.73504300  0.11330900  1
  Pr  Pr1  1  0.76495700  0.73504300  0.61330900  1
  Pr  Pr2  1  0.23504300  0.26495700  0.61330900  1
  Pr  Pr3  1  0.73504300  0.76495700  0.88669100  1
  Pr  Pr4  1  0.26495700  0.23504300  0.88669100  1
  Pr  Pr5  1  0.76495700  0.26495700  0.11330900  1
  Pr  Pr6  1  0.73504300  0.23504300  0.38669100  1
  Pr  Pr7  1  0.26495700  0.76495700  0.38669100  1
  Ni  Ni0  1  0.25000000  0.75000000  0.75000000  1
  Ni  Ni1  1  0.75000000  0.75000000  0.25000000  1
  Ni  Ni2  1  0.25000000  0.25000000  0.25000000  1
  Ni  Ni3  1  0.75000000  0.25000000  0.75000000  1
  O  O0  1  0.50000000  0.00000000  0.72291100  1
  O  O1  1  0.50000000  0.00000000  0.22291100  1
  O  O2  1  0.00000000  0.50000000  0.27708900  1
  O  O3  1  0.00000000  0.50000000  0.77708900  1
  O  O4  1  0.00000000  0.00000000  0.75000000  1
  O  O5  1  0.50000000  0.50000000  0.25000000  1
  O  O6  1  0.50000000  0.50000000  0.75000000  1
  O  O7  1  0.00000000  0.00000000  0.25000000  1
  O  O8  1  0.29958700  0.79958700  0.92906000  1
  O  O9  1  0.70041300  0.79958700  0.42906000  1
  O  O10  1  0.29958700  0.20041300  0.42906000  1
  O  O11  1  0.79958700  0.70041300  0.07094000  1
  O  O12  1  0.20041300  0.29958700  0.07094000  1
  O  O13  1  0.70041300  0.20041300  0.92906000  1
  O  O14  1  0.79958700  0.29958700  0.57094000  1
  O  O15  1  0.20041300  0.70041300  0.57094000  1
loop_
_geom_bond_atom_site_label_1
_geom_bond_atom_site_label_2
_geom_bond_distance
_geom_bond_site_symmetry_2
Ni0 O4 1.974161 1_565
Ni0 O6 1.974161 1_555
Ni0 O0 2.002060 1_565
Ni0 O3 2.002060 1_555
Ni0 O8 2.236131 1_555
Ni0 O15 2.236131 1_555
Ni1 O7 1.974161 1_665
Ni1 O5 1.974161 1_555
Ni1 O1 2.002060 1_565
Ni1 O2 2.002060 1_655
Ni1 O11 2.236131 1_555
Ni1 O9 2.236131 1_555
Ni2 O7 1.974161 1_555
Ni2 O5 1.974161 1_555
Ni2 O1 2.002060 1_555
Ni2 O2 2.002060 1_555
Ni2 O10 2.236131 1_555
Ni2 O12 2.236131 1_555
Ni3 O6 1.974161 1_555
Ni3 O4 1.974161 1_655
Ni3 O0 2.002060 1_555
Ni3 O3 2.002060 1_655
Ni3 O13 2.236131 1_555
Ni3 O14 2.236131 1_555
O0 Pr1 2.488688 1_545
O0 Pr2 2.488688 1_555
O0 Pr3 2.738603 1_545
O0 Pr4 2.738603 1_555
O1 Pr0 2.488688 1_545
O1 Pr5 2.488688 1_555
O1 Pr6 2.738603 1_555
O1 Pr7 2.738603 1_545
O2 Pr6 2.488688 1_455
O2 Pr7 2.488688 1_555
O2 Pr5 2.738603 1_455
O2 Pr0 2.738603 1_555
O3 Pr3 2.488688 1_455
O3 Pr4 2.488688 1_555
O3 Pr1 2.738603 1_455
O3 Pr2 2.738603 1_555
O4 Pr2 2.595347 1_555
O4 Pr3 2.595347 1_445
O4 Pr4 2.595347 1_555
O4 Pr1 2.595347 1_445
O5 Pr0 2.595347 1_555
O5 Pr5 2.595347 1_555
O5 Pr7 2.595347 1_555
O5 Pr6 2.595347 1_555
O6 Pr2 2.595347 1_555
O6 Pr4 2.595347 1_555
O6 Pr1 2.595347 1_555
O6 Pr3 2.595347 1_555
O7 Pr5 2.595347 1_455
O7 Pr6 2.595347 1_455
O7 Pr0 2.595347 1_545
O7 Pr7 2.595347 1_545
O8 Pr0 2.322007 1_556
O8 Pr4 2.494171 1_565
O8 Pr3 2.494171 1_555
O8 Pr3 3.200884 1_455
O8 Pr4 3.200884 1_555
O9 Pr1 2.322007 1_555
O9 Pr7 2.494171 1_555
O9 Pr6 2.494171 1_565
O9 Pr7 3.200884 1_655
O9 Pr6 3.200884 1_555
O10 Pr2 2.322007 1_555
O10 Pr6 2.494171 1_555
O10 Pr7 2.494171 1_545
O10 Pr6 3.200884 1_455
O10 Pr7 3.200884 1_555
O11 Pr3 2.322007 1_554
O11 Pr5 2.494171 1_555
O11 Pr0 2.494171 1_655
O11 Pr5 3.200884 1_565
O11 Pr0 3.200884 1_555
O12 Pr4 2.322007 1_554
O12 Pr0 2.494171 1_555
O12 Pr5 2.494171 1_455
O12 Pr5 3.200884 1_555
O12 Pr0 3.200884 1_545
O13 Pr5 2.322007 1_556
O13 Pr4 2.494171 1_555
O13 Pr3 2.494171 1_545
O13 Pr4 3.200884 1_655
O13 Pr3 3.200884 1_555
O14 Pr6 2.322007 1_555
O14 Pr1 2.494171 1_555
O14 Pr2 2.494171 1_655
O14 Pr1 3.200884 1_545
O14 Pr2 3.200884 1_555
O15 Pr7 2.322007 1_555
O15 Pr2 2.494171 1_555
O15 Pr1 2.494171 1_455
O15 Pr1 3.200884 1_555
O15 Pr2 3.200884 1_565
