# generated using pymatgen
data_Rb2U3(IO5)4
_symmetry_space_group_name_H-M   'P 1'
_cell_length_a   7.10187700
_cell_length_b   8.17943191
_cell_length_c   9.36155611
_cell_angle_alpha   90.16523310
_cell_angle_beta   104.68402230
_cell_angle_gamma   92.18755395
_symmetry_Int_Tables_number   1
_chemical_formula_structural   Rb2U3(IO5)4
_chemical_formula_sum   'Rb2 U3 I4 O20'
_cell_volume   525.61713892
_cell_formula_units_Z   1
loop_
 _symmetry_equiv_pos_site_id
 _symmetry_equiv_pos_as_xyz
  1  'x, y, z'
loop_
 _atom_site_type_symbol
 _atom_site_label
 _atom_site_symmetry_multiplicity
 _atom_site_fract_x
 _atom_site_fract_y
 _atom_site_fract_z
 _atom_site_occupancy
  Rb  Rb0  1  0.24378400  0.58789200  0.85083600  1
  Rb  Rb1  1  0.75621600  0.41210800  0.14916400  1
  U  U0  1  0.54866400  0.92080300  0.19154300  1
  U  U1  1  0.45133600  0.07919700  0.80845700  1
  U  U2  1  0.00000000  0.00000000  0.00000000  1
  I  I0  1  0.12174200  0.79978000  0.37470000  1
  I  I1  1  0.69860300  0.64986900  0.55386100  1
  I  I2  1  0.30139700  0.35013100  0.44613900  1
  I  I3  1  0.87825800  0.20022000  0.62530000  1
  O  O0  1  0.52178300  0.70892300  0.12146700  1
  O  O1  1  0.57980600  0.12871800  0.27016600  1
  O  O2  1  0.04921700  0.28388800  0.44729700  1
  O  O3  1  0.64576400  0.48055900  0.42049800  1
  O  O4  1  0.22691900  0.91749400  0.23702500  1
  O  O5  1  0.43486700  0.18727900  0.56162700  1
  O  O6  1  0.69031300  0.01043300  0.01198300  1
  O  O7  1  0.30968700  0.98956700  0.98801700  1
  O  O8  1  0.11294100  0.11416500  0.71922800  1
  O  O9  1  0.35423600  0.51944100  0.57950200  1
  O  O10  1  0.47821700  0.29107700  0.87853300  1
  O  O11  1  0.04448800  0.21284100  0.06422100  1
  O  O12  1  0.89565800  0.39895900  0.71304200  1
  O  O13  1  0.42019400  0.87128200  0.72983400  1
  O  O14  1  0.10434200  0.60104100  0.28695800  1
  O  O15  1  0.95078300  0.71611200  0.55270300  1
  O  O16  1  0.88705900  0.88583500  0.28077200  1
  O  O17  1  0.56513300  0.81272100  0.43837300  1
  O  O18  1  0.77308100  0.08250600  0.76297500  1
  O  O19  1  0.95551200  0.78715900  0.93577900  1
loop_
_geom_bond_atom_site_label_1
_geom_bond_atom_site_label_2
_geom_bond_distance
_geom_bond_site_symmetry_2
I0 O14 1.804982 1_555
I0 O16 1.842995 1_455
I0 O4 1.893794 1_555
I0 O15 2.384986 1_455
I1 O3 1.824885 1_555
I1 O17 1.851172 1_555
I1 O15 1.853915 1_555
I2 O9 1.824885 1_555
I2 O5 1.851172 1_555
I2 O2 1.853915 1_555
I3 O12 1.804982 1_555
I3 O8 1.842995 1_655
I3 O18 1.893794 1_555
I3 O2 2.384986 1_655
O0 U0 1.837115 1_555
O0 Rb0 2.932089 1_554
O0 Rb1 2.970964 1_555
O1 U0 1.834211 1_545
O1 Rb1 2.956128 1_555
O2 Rb1 3.233982 1_455
O3 Rb1 2.901106 1_555
O4 U0 2.427304 1_555
O4 U2 2.500980 1_565
O5 U1 2.453014 1_555
O6 U2 2.235263 1_655
O6 U0 2.276661 1_545
O6 U1 2.294927 1_554
O7 U2 2.235263 1_566
O7 U1 2.276661 1_565
O7 U0 2.294927 1_556
O8 U1 2.364580 1_555
O9 Rb0 2.901106 1_555
O10 U1 1.837115 1_555
O10 Rb1 2.932089 1_556
O10 Rb0 2.970964 1_555
O11 U2 1.829684 1_555
O11 Rb1 2.924521 1_455
O12 Rb0 2.871345 1_655
O13 U1 1.834211 1_565
O13 Rb0 2.956128 1_555
O14 Rb1 2.871345 1_455
O15 Rb0 3.233982 1_655
O16 U0 2.364580 1_555
O17 U0 2.453014 1_555
O18 U1 2.427304 1_555
O18 U2 2.500980 1_656
O19 U2 1.829684 1_666
O19 Rb0 2.924521 1_655
