# generated using pymatgen
data_Na9ZrP4ClO16
_symmetry_space_group_name_H-M   'P 1'
_cell_length_a   5.44039700
_cell_length_b   9.16774764
_cell_length_c   9.26593532
_cell_angle_alpha   111.07897785
_cell_angle_beta   91.87785270
_cell_angle_gamma   90.30469988
_symmetry_Int_Tables_number   1
_chemical_formula_structural   Na9ZrP4ClO16
_chemical_formula_sum   'Na9 Zr1 P4 Cl1 O16'
_cell_volume   430.92096782
_cell_formula_units_Z   1
loop_
 _symmetry_equiv_pos_site_id
 _symmetry_equiv_pos_as_xyz
  1  'x, y, z'
loop_
 _atom_site_type_symbol
 _atom_site_label
 _atom_site_symmetry_multiplicity
 _atom_site_fract_x
 _atom_site_fract_y
 _atom_site_fract_z
 _atom_site_occupancy
  Na  Na0  1  0.53487700  0.64608300  0.39626100  1
  Na  Na1  1  0.41823100  0.98232600  0.36403400  1
  Na  Na2  1  0.51449500  0.50466700  0.98677100  1
  Na  Na3  1  0.05054600  0.83053500  0.57236400  1
  Na  Na4  1  0.45444300  0.36356300  0.59045000  1
  Na  Na5  1  0.92080200  0.17874300  0.40974500  1
  Na  Na6  1  0.96904300  0.57481100  0.82763900  1
  Na  Na7  1  0.05345200  0.44028400  0.15793900  1
  Na  Na8  1  0.52533300  0.08364100  0.76588400  1
  Zr  Zr0  1  0.01166900  0.00198000  0.99667000  1
  P  P0  1  0.53124000  0.24497500  0.18300800  1
  P  P1  1  0.96274200  0.79103300  0.24032200  1
  P  P2  1  0.48458000  0.76574700  0.79731600  1
  P  P3  1  0.03211200  0.21337200  0.74058700  1
  Cl  Cl0  1  0.00308400  0.50150100  0.49504900  1
  O  O0  1  0.77318000  0.85253700  0.36812200  1
  O  O1  1  0.79793600  0.19901800  0.11895400  1
  O  O2  1  0.51467800  0.21532500  0.33502200  1
  O  O3  1  0.03148700  0.93845100  0.19205900  1
  O  O4  1  0.22402300  0.80883000  0.87148000  1
  O  O5  1  0.68758600  0.87470900  0.91146000  1
  O  O6  1  0.20242100  0.74903700  0.30899300  1
  O  O7  1  0.86767400  0.65203900  0.09808200  1
  O  O8  1  0.53511300  0.59696800  0.78017100  1
  O  O9  1  0.48045500  0.80424100  0.64926700  1
  O  O10  1  0.77475200  0.25518000  0.69372500  1
  O  O11  1  0.19962700  0.14736000  0.59916800  1
  O  O12  1  0.15887900  0.35308000  0.86958600  1
  O  O13  1  0.33830400  0.13625200  0.06048500  1
  O  O14  1  0.99223700  0.07133700  0.80000700  1
  O  O15  1  0.48799900  0.41337400  0.19438000  1
loop_
_geom_bond_atom_site_label_1
_geom_bond_atom_site_label_2
_geom_bond_distance
_geom_bond_site_symmetry_2
Na0 O15 2.282114 1_555
Na0 O6 2.299434 1_555
Na0 O9 2.300204 1_555
Na0 O0 2.383739 1_555
Na1 O0 2.279979 1_555
Na1 O2 2.306681 1_565
Na1 O6 2.315650 1_555
Na1 O11 2.503651 1_565
Na1 O3 2.537373 1_555
Na2 O7 2.328356 1_556
Na2 O8 2.360424 1_555
Na2 O15 2.365768 1_556
Na2 O12 2.366781 1_555
Na3 O0 2.447428 1_455
Na3 O6 2.454295 1_555
Na3 O9 2.461004 1_555
Na3 O14 2.474919 1_465
Na3 O11 2.932384 1_565
Na3 O4 2.973096 1_555
Na4 O8 2.257294 1_555
Na4 O2 2.301710 1_555
Na4 O10 2.352188 1_555
Na4 O11 2.439332 1_555
Na5 O2 2.355482 1_555
Na5 O11 2.378628 1_655
Na5 O3 2.486277 1_645
Na5 O10 2.619723 1_555
Na5 O1 2.825768 1_555
Na5 O0 2.976877 1_545
Na6 O8 2.410224 1_555
Na6 O7 2.429714 1_556
Na6 O12 2.431918 1_655
Na6 O4 2.448815 1_655
Na6 O10 2.917067 1_555
Na7 O15 2.403683 1_555
Na7 O7 2.420015 1_455
Na7 O1 2.512947 1_455
Na7 O12 2.583754 1_554
Na7 O6 2.771186 1_555
Na8 O10 2.356820 1_555
Na8 O9 2.402808 1_545
Na8 O11 2.519560 1_555
Na8 O14 2.557555 1_555
Na8 O13 2.821297 1_556
Na8 O5 2.840081 1_545
Na8 O14 2.933674 1_455
Cl0 Na5 2.803748 1_455
Cl0 Na3 2.846811 1_555
Cl0 Na6 2.920979 1_455
Cl0 Na7 2.990640 1_555
Cl0 Na4 3.017495 1_555
Cl0 Na0 3.136726 1_455
O0 P1 1.545874 1_555
O1 P0 1.586837 1_555
O1 Zr0 2.129654 1_654
O2 P0 1.532805 1_555
O3 P1 1.614534 1_455
O3 Zr0 2.091639 1_564
O4 P2 1.584994 1_555
O4 Zr0 2.109012 1_565
O5 P2 1.577344 1_555
O5 Zr0 2.077902 1_665
O6 P1 1.542911 1_455
O7 P1 1.539026 1_555
O8 P2 1.524991 1_555
O9 P2 1.534018 1_555
O10 P3 1.543187 1_655
O11 P3 1.558076 1_555
O12 P3 1.542787 1_555
O13 P0 1.575104 1_555
O13 Zr0 2.099297 1_554
O14 P3 1.601966 1_655
O14 Zr0 2.134871 1_655
O15 P0 1.529169 1_555
