# generated using pymatgen
data_Pr4S3NCl3
_symmetry_space_group_name_H-M   'P 1'
_cell_length_a   9.43712166
_cell_length_b   9.43712166
_cell_length_c   6.93573100
_cell_angle_alpha   90.00000000
_cell_angle_beta   90.00000000
_cell_angle_gamma   119.99999763
_symmetry_Int_Tables_number   1
_chemical_formula_structural   Pr4S3NCl3
_chemical_formula_sum   'Pr8 S6 N2 Cl6'
_cell_volume   534.93620304
_cell_formula_units_Z   2
loop_
 _symmetry_equiv_pos_site_id
 _symmetry_equiv_pos_as_xyz
  1  'x, y, z'
loop_
 _atom_site_type_symbol
 _atom_site_label
 _atom_site_symmetry_multiplicity
 _atom_site_fract_x
 _atom_site_fract_y
 _atom_site_fract_z
 _atom_site_occupancy
  Pr  Pr0  1  0.33333300  0.66666700  0.78667600  1
  Pr  Pr1  1  0.79818900  0.59637700  0.75243800  1
  Pr  Pr2  1  0.20181100  0.40362300  0.25243800  1
  Pr  Pr3  1  0.40362300  0.20181100  0.75243800  1
  Pr  Pr4  1  0.20181100  0.79818900  0.25243800  1
  Pr  Pr5  1  0.59637700  0.79818900  0.25243800  1
  Pr  Pr6  1  0.66666700  0.33333300  0.28667600  1
  Pr  Pr7  1  0.79818900  0.20181100  0.75243800  1
  S  S0  1  0.93566900  0.46783500  0.03071300  1
  S  S1  1  0.46783500  0.93566900  0.53071300  1
  S  S2  1  0.53216500  0.46783500  0.03071300  1
  S  S3  1  0.46783500  0.53216500  0.53071300  1
  S  S4  1  0.06433100  0.53216500  0.53071300  1
  S  S5  1  0.53216500  0.06433100  0.03071300  1
  N  N0  1  0.33333300  0.66666700  0.13173200  1
  N  N1  1  0.66666700  0.33333300  0.63173200  1
  Cl  Cl0  1  0.13128000  0.26256000  0.86153300  1
  Cl  Cl1  1  0.13128000  0.86872000  0.86153300  1
  Cl  Cl2  1  0.73744000  0.86872000  0.86153300  1
  Cl  Cl3  1  0.86872000  0.13128000  0.36153300  1
  Cl  Cl4  1  0.26256000  0.13128000  0.36153300  1
  Cl  Cl5  1  0.86872000  0.73744000  0.36153300  1
loop_
_geom_bond_atom_site_label_1
_geom_bond_atom_site_label_2
_geom_bond_distance
_geom_bond_site_symmetry_2
Pr0 S4 2.825782 1_555
Pr0 S1 2.825782 1_555
Pr0 S3 2.825794 1_555
Pr1 S0 2.907529 1_556
Pr1 S2 2.907541 1_556
Pr1 S4 3.249969 1_655
Pr1 S3 3.249969 1_555
Pr2 S4 2.907529 1_555
Pr2 S3 2.907541 1_555
Pr2 S0 3.249969 1_455
Pr2 S2 3.249969 1_555
Pr3 S5 2.907529 1_556
Pr3 S2 2.907541 1_556
Pr3 S1 3.249969 1_545
Pr3 S3 3.249969 1_555
Pr4 S4 2.907541 1_555
Pr4 S1 2.907541 1_555
Pr4 S0 3.249969 1_455
Pr4 S5 3.249969 1_565
Pr5 S1 2.907529 1_555
Pr5 S3 2.907541 1_555
Pr5 S5 3.249969 1_565
Pr5 S2 3.249969 1_555
Pr6 S0 2.825782 1_555
Pr6 S5 2.825782 1_555
Pr6 S2 2.825794 1_555
Pr7 S5 2.907541 1_556
Pr7 S0 2.907541 1_556
Pr7 S1 3.249969 1_545
Pr7 S4 3.249969 1_655
N0 Pr4 2.307061 1_555
N0 Pr5 2.307061 1_555
N0 Pr2 2.307061 1_555
N0 Pr0 2.393216 1_554
N1 Pr7 2.307061 1_555
N1 Pr1 2.307061 1_555
N1 Pr3 2.307061 1_555
N1 Pr6 2.393216 1_555
Cl0 Pr2 2.946150 1_556
Cl0 Pr7 2.996694 1_455
Cl0 Pr3 2.996703 1_555
Cl0 Pr0 3.343240 1_555
Cl1 Pr4 2.946146 1_556
Cl1 Pr3 2.996697 1_565
Cl1 Pr1 2.996697 1_455
Cl1 Pr0 3.343232 1_555
Cl2 Pr5 2.946150 1_556
Cl2 Pr7 2.996694 1_565
Cl2 Pr1 2.996703 1_555
Cl2 Pr0 3.343240 1_555
Cl3 Pr7 2.946146 1_555
Cl3 Pr2 2.996697 1_655
Cl3 Pr5 2.996697 1_545
Cl3 Pr6 3.343232 1_555
Cl4 Pr3 2.946150 1_555
Cl4 Pr4 2.996694 1_545
Cl4 Pr2 2.996703 1_555
Cl4 Pr6 3.343240 1_555
Cl5 Pr1 2.946150 1_555
Cl5 Pr4 2.996694 1_655
Cl5 Pr5 2.996703 1_555
Cl5 Pr6 3.343240 1_555
