# generated using pymatgen
data_Na3AlH6
_symmetry_space_group_name_H-M   'P 1'
_cell_length_a   5.38744220
_cell_length_b   9.10476014
_cell_length_c   17.52138550
_cell_angle_alpha   90.00000000
_cell_angle_beta   90.00000000
_cell_angle_gamma   90.00000000
_symmetry_Int_Tables_number   1
_chemical_formula_structural   Na3AlH6
_chemical_formula_sum   'Na24 Al8 H48'
_cell_volume   859.44794554
_cell_formula_units_Z   8
loop_
 _symmetry_equiv_pos_site_id
 _symmetry_equiv_pos_as_xyz
  1  'x, y, z'
loop_
 _atom_site_type_symbol
 _atom_site_label
 _atom_site_symmetry_multiplicity
 _atom_site_fract_x
 _atom_site_fract_y
 _atom_site_fract_z
 _atom_site_occupancy
  Na  Na0  1  0.30184677  0.08973373  0.34750265  1
  Na  Na1  1  0.74758485  0.58195542  0.94799733  1
  Na  Na2  1  0.19106011  0.74759987  0.83541878  1
  Na  Na3  1  0.25241515  0.41804458  0.05200267  1
  Na  Na4  1  0.80893989  0.25240013  0.33541878  1
  Na  Na5  1  0.30184677  0.41026627  0.65249735  1
  Na  Na6  1  0.25241515  0.08195542  0.94799733  1
  Na  Na7  1  0.69815323  0.91026627  0.84750265  1
  Na  Na8  1  0.80893989  0.25240013  0.16458122  1
  Na  Na9  1  0.69815323  0.58973373  0.15249735  1
  Na  Na10  1  0.74758485  0.91804458  0.05200267  1
  Na  Na11  1  0.69815323  0.58973373  0.34750265  1
  Na  Na12  1  0.80893989  0.24759987  0.83541878  1
  Na  Na13  1  0.80893989  0.24759987  0.66458122  1
  Na  Na14  1  0.19106011  0.75240013  0.16458122  1
  Na  Na15  1  0.25241515  0.08195542  0.55200267  1
  Na  Na16  1  0.69815323  0.91026627  0.65249735  1
  Na  Na17  1  0.74758485  0.91804458  0.44799733  1
  Na  Na18  1  0.30184677  0.08973373  0.15249735  1
  Na  Na19  1  0.25241515  0.41804458  0.44799733  1
  Na  Na20  1  0.30184677  0.41026627  0.84750265  1
  Na  Na21  1  0.19106011  0.74759987  0.66458122  1
  Na  Na22  1  0.74758485  0.58195542  0.55200267  1
  Na  Na23  1  0.19106011  0.75240013  0.33541878  1
  Al  Al0  1  0.78241223  0.25000000  0.00000000  1
  Al  Al1  1  0.78241223  0.25000000  0.50000000  1
  Al  Al2  1  0.74318826  0.57650395  0.75000000  1
  Al  Al3  1  0.21758777  0.75000000  0.50000000  1
  Al  Al4  1  0.74318826  0.92349605  0.25000000  1
  Al  Al5  1  0.25681174  0.07650395  0.75000000  1
  Al  Al6  1  0.21758777  0.75000000  0.00000000  1
  Al  Al7  1  0.25681174  0.42349605  0.25000000  1
  H  H0  1  0.97824512  0.81118516  0.56124116  1
  H  H1  1  0.22147218  0.58692810  0.95009607  1
  H  H2  1  0.95307808  0.97109709  0.17839765  1
  H  H3  1  0.04692192  0.47109709  0.32160235  1
  H  H4  1  0.77852782  0.41307190  0.45009607  1
  H  H5  1  0.44097868  0.67416484  0.43809556  1
  H  H6  1  0.22147218  0.91307190  0.45009607  1
  H  H7  1  0.13567075  0.24228864  0.25000000  1
  H  H8  1  0.02175488  0.31118516  0.93875884  1
  H  H9  1  0.61990608  0.10263933  0.25000000  1
  H  H10  1  0.02175488  0.18881484  0.43875884  1
  H  H11  1  0.95307808  0.52890291  0.82160235  1
  H  H12  1  0.38009392  0.89736067  0.75000000  1
  H  H13  1  0.46512539  0.37675867  0.17764950  1
  H  H14  1  0.77852782  0.08692810  0.54990393  1
  H  H15  1  0.46512539  0.12324133  0.67764950  1
  H  H16  1  0.46512539  0.12324133  0.82235050  1
  H  H17  1  0.53487461  0.62324133  0.82235050  1
  H  H18  1  0.04692192  0.02890291  0.82160235  1
  H  H19  1  0.86432925  0.75771136  0.75000000  1
  H  H20  1  0.86432925  0.74228864  0.25000000  1
  H  H21  1  0.55902132  0.32583516  0.56190444  1
  H  H22  1  0.44097868  0.67416484  0.06190444  1
  H  H23  1  0.97824512  0.68881484  0.06124116  1
  H  H24  1  0.95307808  0.97109709  0.32160235  1
  H  H25  1  0.55902132  0.32583516  0.93809556  1
  H  H26  1  0.13567075  0.25771136  0.75000000  1
  H  H27  1  0.61990608  0.39736067  0.75000000  1
  H  H28  1  0.97824512  0.68881484  0.43875884  1
  H  H29  1  0.44097868  0.82583516  0.93809556  1
  H  H30  1  0.55902132  0.17416484  0.06190444  1
  H  H31  1  0.53487461  0.87675867  0.32235050  1
  H  H32  1  0.04692192  0.02890291  0.67839765  1
  H  H33  1  0.53487461  0.62324133  0.67764950  1
  H  H34  1  0.53487461  0.87675867  0.17764950  1
  H  H35  1  0.77852782  0.08692810  0.95009607  1
  H  H36  1  0.95307808  0.52890291  0.67839765  1
  H  H37  1  0.44097868  0.82583516  0.56190444  1
  H  H38  1  0.02175488  0.31118516  0.56124116  1
  H  H39  1  0.38009392  0.60263933  0.25000000  1
  H  H40  1  0.02175488  0.18881484  0.06124116  1
  H  H41  1  0.22147218  0.91307190  0.04990393  1
  H  H42  1  0.77852782  0.41307190  0.04990393  1
  H  H43  1  0.04692192  0.47109709  0.17839765  1
  H  H44  1  0.55902132  0.17416484  0.43809556  1
  H  H45  1  0.46512539  0.37675867  0.32235050  1
  H  H46  1  0.22147218  0.58692810  0.54990393  1
  H  H47  1  0.97824512  0.81118516  0.93875884  1
loop_
_geom_bond_atom_site_label_1
_geom_bond_atom_site_label_2
_geom_bond_distance
_geom_bond_site_symmetry_2
Al0 H35 1.723199 1_554
Al0 H42 1.723199 1_555
Al0 H25 1.761145 1_554
Al0 H30 1.761145 1_555
Al0 H40 1.767596 1_655
Al0 H8 1.767596 1_654
Al1 H4 1.723199 1_555
Al1 H14 1.723199 1_555
Al1 H44 1.761145 1_555
Al1 H21 1.761145 1_555
Al1 H38 1.767596 1_655
Al1 H10 1.767596 1_655
Al2 H36 1.743681 1_555
Al2 H11 1.743681 1_555
Al2 H33 1.745738 1_555
Al2 H17 1.745738 1_555
Al2 H27 1.761100 1_555
Al2 H19 1.774245 1_555
Al3 H6 1.723199 1_555
Al3 H46 1.723199 1_555
Al3 H5 1.761145 1_555
Al3 H37 1.761145 1_555
Al3 H28 1.767596 1_455
Al3 H0 1.767596 1_455
Al4 H24 1.743681 1_555
Al4 H2 1.743681 1_555
Al4 H31 1.745738 1_555
Al4 H34 1.745738 1_555
Al4 H9 1.761100 1_565
Al4 H20 1.774245 1_555
Al5 H18 1.743681 1_555
Al5 H32 1.743681 1_555
Al5 H15 1.745738 1_555
Al5 H16 1.745738 1_555
Al5 H12 1.761100 1_545
Al5 H26 1.774245 1_555
Al6 H41 1.723199 1_555
Al6 H1 1.723199 1_554
Al6 H29 1.761145 1_554
Al6 H22 1.761145 1_555
Al6 H23 1.767596 1_455
Al6 H47 1.767596 1_454
Al7 H3 1.743681 1_555
Al7 H43 1.743681 1_555
Al7 H45 1.745738 1_555
Al7 H13 1.745738 1_555
Al7 H39 1.761100 1_555
Al7 H7 1.774245 1_555
H0 Na21 2.219950 1_655
H0 Na16 2.376428 1_555
H0 Na22 2.434407 1_555
H0 Na17 2.535315 1_555
H1 Na3 2.362268 1_556
H1 Na20 2.450703 1_555
H1 Na2 2.490816 1_555
H1 Na1 2.553707 1_455
H2 Na18 2.214321 1_665
H2 Na14 2.380595 1_655
H2 Na10 2.522592 1_555
H3 Na11 2.214321 1_455
H3 Na4 2.380595 1_455
H3 Na19 2.522592 1_555
H4 Na22 2.362268 1_555
H4 Na11 2.450703 1_555
H4 Na4 2.490816 1_555
H4 Na19 2.553707 1_655
H5 Na11 2.242799 1_555
H5 Na23 2.357283 1_555
H5 Na19 2.549495 1_555
H6 Na15 2.362268 1_565
H6 Na0 2.450703 1_565
H6 Na23 2.490816 1_555
H6 Na17 2.553707 1_455
H7 Na8 2.312339 1_455
H7 Na4 2.312339 1_455
H7 Na18 2.376829 1_555
H7 Na0 2.376829 1_555
H8 Na12 2.219950 1_455
H8 Na20 2.376428 1_555
H8 Na6 2.434407 1_555
H8 Na3 2.535315 1_556
H9 Na4 2.266355 1_555
H9 Na8 2.266355 1_555
H9 Na18 2.422508 1_555
H9 Na0 2.422508 1_555
H10 Na4 2.219950 1_455
H10 Na0 2.376428 1_555
H10 Na19 2.434407 1_555
H10 Na15 2.535315 1_555
H11 Na20 2.214321 1_655
H11 Na2 2.380595 1_655
H11 Na1 2.522592 1_555
H12 Na2 2.266355 1_555
H12 Na21 2.266355 1_555
H12 Na16 2.422508 1_555
H12 Na7 2.422508 1_555
H13 Na8 2.182974 1_555
H13 Na9 2.351673 1_555
H13 Na3 2.510212 1_555
H14 Na17 2.362268 1_545
H14 Na16 2.450703 1_545
H14 Na13 2.490816 1_555
H14 Na15 2.553707 1_655
H15 Na13 2.182974 1_555
H15 Na16 2.351673 1_545
H15 Na15 2.510212 1_555
H16 Na12 2.182974 1_555
H16 Na7 2.351673 1_545
H16 Na6 2.510212 1_555
H17 Na2 2.182974 1_555
H17 Na20 2.351673 1_555
H17 Na1 2.510212 1_555
H18 Na7 2.214321 1_445
H18 Na12 2.380595 1_455
H18 Na6 2.522592 1_555
H19 Na2 2.312339 1_655
H19 Na21 2.312339 1_655
H19 Na7 2.376829 1_555
H19 Na16 2.376829 1_555
H20 Na14 2.312339 1_655
H20 Na23 2.312339 1_655
H20 Na11 2.376829 1_555
H20 Na9 2.376829 1_555
H21 Na5 2.242799 1_555
H21 Na13 2.357283 1_555
H21 Na22 2.549495 1_555
H22 Na9 2.242799 1_555
H22 Na14 2.357283 1_555
H22 Na3 2.549495 1_555
H23 Na14 2.219950 1_655
H23 Na9 2.376428 1_555
H23 Na10 2.434407 1_555
H23 Na1 2.535315 1_554
H24 Na0 2.214321 1_665
H24 Na23 2.380595 1_655
H24 Na17 2.522592 1_555
H25 Na20 2.242799 1_555
H25 Na12 2.357283 1_555
H25 Na1 2.549495 1_555
H26 Na12 2.312339 1_455
H26 Na13 2.312339 1_455
H26 Na5 2.376829 1_555
H26 Na20 2.376829 1_555
H27 Na12 2.266355 1_555
H27 Na13 2.266355 1_555
H27 Na5 2.422508 1_555
H27 Na20 2.422508 1_555
H28 Na23 2.219950 1_655
H28 Na11 2.376428 1_555
H28 Na17 2.434407 1_555
H28 Na22 2.535315 1_555
H29 Na7 2.242799 1_555
H29 Na2 2.357283 1_555
H29 Na6 2.549495 1_565
H30 Na18 2.242799 1_555
H30 Na8 2.357283 1_555
H30 Na10 2.549495 1_545
H31 Na23 2.182974 1_555
H31 Na0 2.351673 1_565
H31 Na17 2.510212 1_555
H32 Na16 2.214321 1_445
H32 Na13 2.380595 1_455
H32 Na15 2.522592 1_555
H33 Na21 2.182974 1_555
H33 Na5 2.351673 1_555
H33 Na22 2.510212 1_555
H34 Na14 2.182974 1_555
H34 Na18 2.351673 1_565
H34 Na10 2.510212 1_555
H35 Na10 2.362268 1_546
H35 Na7 2.450703 1_545
H35 Na12 2.490816 1_555
H35 Na6 2.553707 1_655
H36 Na5 2.214321 1_655
H36 Na21 2.380595 1_655
H36 Na22 2.522592 1_555
H37 Na16 2.242799 1_555
H37 Na21 2.357283 1_555
H37 Na15 2.549495 1_565
H38 Na13 2.219950 1_455
H38 Na5 2.376428 1_555
H38 Na15 2.434407 1_555
H38 Na19 2.535315 1_555
H39 Na14 2.266355 1_555
H39 Na23 2.266355 1_555
H39 Na11 2.422508 1_555
H39 Na9 2.422508 1_555
H40 Na8 2.219950 1_455
H40 Na18 2.376428 1_555
H40 Na3 2.434407 1_555
H40 Na6 2.535315 1_554
H41 Na6 2.362268 1_564
H41 Na18 2.450703 1_565
H41 Na14 2.490816 1_555
H41 Na10 2.553707 1_455
H42 Na1 2.362268 1_554
H42 Na9 2.450703 1_555
H42 Na8 2.490816 1_555
H42 Na3 2.553707 1_655
H43 Na9 2.214321 1_455
H43 Na8 2.380595 1_455
H43 Na3 2.522592 1_555
H44 Na0 2.242799 1_555
H44 Na4 2.357283 1_555
H44 Na17 2.549495 1_545
H45 Na4 2.182974 1_555
H45 Na11 2.351673 1_555
H45 Na19 2.510212 1_555
H46 Na19 2.362268 1_555
H46 Na5 2.450703 1_555
H46 Na21 2.490816 1_555
H46 Na22 2.553707 1_455
H47 Na2 2.219950 1_655
H47 Na7 2.376428 1_555
H47 Na1 2.434407 1_555
H47 Na10 2.535315 1_556
