# generated using pymatgen
data_Hf(MoO4)2
_symmetry_space_group_name_H-M   'P 1'
_cell_length_a   7.02024189
_cell_length_b   7.02024189
_cell_length_c   7.55903949
_cell_angle_alpha   64.09818907
_cell_angle_beta   64.09818907
_cell_angle_gamma   70.36719744
_symmetry_Int_Tables_number   1
_chemical_formula_structural   Hf(MoO4)2
_chemical_formula_sum   'Hf2 Mo4 O16'
_cell_volume   296.55929374
_cell_formula_units_Z   2
loop_
 _symmetry_equiv_pos_site_id
 _symmetry_equiv_pos_as_xyz
  1  'x, y, z'
loop_
 _atom_site_type_symbol
 _atom_site_label
 _atom_site_symmetry_multiplicity
 _atom_site_fract_x
 _atom_site_fract_y
 _atom_site_fract_z
 _atom_site_occupancy
  Hf  Hf0  1  0.97950200  0.02049800  0.75000000  1
  Hf  Hf1  1  0.02049800  0.97950200  0.25000000  1
  Mo  Mo0  1  0.06238700  0.50691000  0.75820100  1
  Mo  Mo1  1  0.50691000  0.06238700  0.25820100  1
  Mo  Mo2  1  0.93761300  0.49309000  0.24179900  1
  Mo  Mo3  1  0.49309000  0.93761300  0.74179900  1
  O  O0  1  0.05251500  0.65532300  0.28779800  1
  O  O1  1  0.00400300  0.68632900  0.93773600  1
  O  O2  1  0.65532300  0.05251500  0.78779800  1
  O  O3  1  0.41605100  0.33327700  0.16538900  1
  O  O4  1  0.79596300  0.01984200  0.07771200  1
  O  O5  1  0.34467700  0.94748500  0.21220200  1
  O  O6  1  0.20403700  0.98015800  0.92228800  1
  O  O7  1  0.98015800  0.20403700  0.42228800  1
  O  O8  1  0.33327700  0.41605100  0.66538900  1
  O  O9  1  0.94748500  0.34467700  0.71220200  1
  O  O10  1  0.01984200  0.79596300  0.57771200  1
  O  O11  1  0.31367100  0.99599700  0.56226400  1
  O  O12  1  0.99599700  0.31367100  0.06226400  1
  O  O13  1  0.66672300  0.58394900  0.33461100  1
  O  O14  1  0.58394900  0.66672300  0.83461100  1
  O  O15  1  0.68632900  0.00400300  0.43773600  1
loop_
_geom_bond_atom_site_label_1
_geom_bond_atom_site_label_2
_geom_bond_distance
_geom_bond_site_symmetry_2
Hf0 O9 2.110869 1_555
Hf0 O2 2.110869 1_555
Hf0 O1 2.140203 1_645
Hf0 O11 2.140203 1_645
Hf0 O7 2.236544 1_555
Hf0 O4 2.236544 1_556
Hf0 O10 2.330721 1_645
Hf0 O6 2.330721 1_645
Hf1 O5 2.110869 1_555
Hf1 O0 2.110869 1_555
Hf1 O15 2.140203 1_465
Hf1 O12 2.140203 1_465
Hf1 O6 2.236544 1_554
Hf1 O10 2.236544 1_555
Hf1 O7 2.330721 1_465
Hf1 O4 2.330721 1_465
Mo0 O8 1.710492 1_555
Mo0 O9 1.810265 1_455
Mo0 O10 1.896924 1_555
Mo0 O12 2.026129 1_456
Mo0 O1 2.063196 1_555
Mo1 O3 1.710492 1_555
Mo1 O5 1.810265 1_545
Mo1 O4 1.896924 1_555
Mo1 O11 2.026129 1_545
Mo1 O15 2.063196 1_555
Mo2 O13 1.710492 1_555
Mo2 O0 1.810265 1_655
Mo2 O7 1.896924 1_555
Mo2 O1 2.026129 1_654
Mo2 O12 2.063196 1_555
Mo3 O14 1.710492 1_555
Mo3 O2 1.810265 1_565
Mo3 O6 1.896924 1_555
Mo3 O15 2.026129 1_565
Mo3 O11 2.063196 1_555
