# generated using pymatgen
data_Li2Si3O7
_symmetry_space_group_name_H-M   'P 1'
_cell_length_a   4.92328200
_cell_length_b   6.05532200
_cell_length_c   19.96361500
_cell_angle_alpha   90.00000000
_cell_angle_beta   90.00000000
_cell_angle_gamma   90.00000000
_symmetry_Int_Tables_number   1
_chemical_formula_structural   Li2Si3O7
_chemical_formula_sum   'Li8 Si12 O28'
_cell_volume   595.15644441
_cell_formula_units_Z   4
loop_
 _symmetry_equiv_pos_site_id
 _symmetry_equiv_pos_as_xyz
  1  'x, y, z'
loop_
 _atom_site_type_symbol
 _atom_site_label
 _atom_site_symmetry_multiplicity
 _atom_site_fract_x
 _atom_site_fract_y
 _atom_site_fract_z
 _atom_site_occupancy
  Li  Li0  1  0.44228100  0.35381400  0.04413300  1
  Li  Li1  1  0.55771900  0.64618600  0.95586700  1
  Li  Li2  1  0.05771900  0.35381400  0.95586700  1
  Li  Li3  1  0.05771900  0.35381400  0.54413300  1
  Li  Li4  1  0.94228100  0.64618600  0.04413300  1
  Li  Li5  1  0.44228100  0.35381400  0.45586700  1
  Li  Li6  1  0.94228100  0.64618600  0.45586700  1
  Li  Li7  1  0.55771900  0.64618600  0.54413300  1
  Si  Si0  1  0.55319200  0.14682700  0.60499200  1
  Si  Si1  1  0.57902600  0.35023000  0.75000000  1
  Si  Si2  1  0.05319200  0.85317300  0.60499200  1
  Si  Si3  1  0.92097400  0.35023000  0.25000000  1
  Si  Si4  1  0.42097400  0.64977000  0.25000000  1
  Si  Si5  1  0.44680800  0.85317300  0.10499200  1
  Si  Si6  1  0.05319200  0.85317300  0.89500800  1
  Si  Si7  1  0.94680800  0.14682700  0.39500800  1
  Si  Si8  1  0.94680800  0.14682700  0.10499200  1
  Si  Si9  1  0.55319200  0.14682700  0.89500800  1
  Si  Si10  1  0.07902600  0.64977000  0.75000000  1
  Si  Si11  1  0.44680800  0.85317300  0.39500800  1
  O  O0  1  0.45595200  0.33764600  0.94471400  1
  O  O1  1  0.88044600  0.08764600  0.90810600  1
  O  O2  1  0.48806200  0.79670700  0.31571500  1
  O  O3  1  0.54404800  0.66235400  0.05528600  1
  O  O4  1  0.60263000  0.42408900  0.25000000  1
  O  O5  1  0.61955400  0.08764600  0.40810600  1
  O  O6  1  0.39737000  0.57591100  0.75000000  1
  O  O7  1  0.51193800  0.20329300  0.81571500  1
  O  O8  1  0.04404800  0.33764600  0.44471400  1
  O  O9  1  0.89737000  0.42408900  0.75000000  1
  O  O10  1  0.95595200  0.66235400  0.94471400  1
  O  O11  1  0.01193800  0.79670700  0.81571500  1
  O  O12  1  0.11955400  0.91235400  0.40810600  1
  O  O13  1  0.01193800  0.79670700  0.68428500  1
  O  O14  1  0.95595200  0.66235400  0.55528600  1
  O  O15  1  0.54404800  0.66235400  0.44471400  1
  O  O16  1  0.51193800  0.20329300  0.68428500  1
  O  O17  1  0.11955400  0.91235400  0.09189400  1
  O  O18  1  0.61955400  0.08764600  0.09189400  1
  O  O19  1  0.10263000  0.57591100  0.25000000  1
  O  O20  1  0.98806200  0.20329300  0.31571500  1
  O  O21  1  0.88044600  0.08764600  0.59189400  1
  O  O22  1  0.98806200  0.20329300  0.18428500  1
  O  O23  1  0.45595200  0.33764600  0.55528600  1
  O  O24  1  0.48806200  0.79670700  0.18428500  1
  O  O25  1  0.04404800  0.33764600  0.05528600  1
  O  O26  1  0.38044600  0.91235400  0.90810600  1
  O  O27  1  0.38044600  0.91235400  0.59189400  1
loop_
_geom_bond_atom_site_label_1
_geom_bond_atom_site_label_2
_geom_bond_distance
_geom_bond_site_symmetry_2
Li0 O3 1.947096 1_555
Li0 O25 1.975643 1_555
Li0 O0 1.988315 1_554
Li0 O18 2.066042 1_555
Li1 O0 1.947096 1_555
Li1 O10 1.975643 1_555
Li1 O3 1.988315 1_556
Li1 O26 2.066042 1_555
Li2 O10 1.947096 1_455
Li2 O0 1.975643 1_555
Li2 O25 1.988315 1_556
Li2 O1 2.066042 1_455
Li3 O14 1.947096 1_455
Li3 O23 1.975643 1_555
Li3 O8 1.988315 1_555
Li3 O21 2.066042 1_455
Li4 O25 1.947096 1_655
Li4 O3 1.975643 1_555
Li4 O10 1.988315 1_554
Li4 O17 2.066042 1_655
Li5 O15 1.947096 1_555
Li5 O8 1.975643 1_555
Li5 O23 1.988315 1_555
Li5 O5 2.066042 1_555
Li6 O8 1.947096 1_655
Li6 O15 1.975643 1_555
Li6 O14 1.988315 1_555
Li6 O12 2.066042 1_655
Li7 O23 1.947096 1_555
Li7 O14 1.975643 1_555
Li7 O15 1.988315 1_555
Li7 O27 2.066042 1_555
O0 Si9 1.596554 1_555
O1 Si9 1.671121 1_555
O1 Si6 1.675573 1_645
O2 Si4 1.619214 1_555
O2 Si11 1.632167 1_555
O3 Si5 1.596554 1_555
O4 Si3 1.629860 1_555
O4 Si4 1.633208 1_555
O5 Si7 1.671121 1_555
O5 Si11 1.675573 1_545
O6 Si10 1.629860 1_555
O6 Si1 1.633208 1_555
O7 Si1 1.619214 1_555
O7 Si9 1.632167 1_555
O8 Si7 1.596554 1_455
O9 Si1 1.629860 1_555
O9 Si10 1.633208 1_655
O10 Si6 1.596554 1_655
O11 Si10 1.619214 1_555
O11 Si6 1.632167 1_555
O12 Si11 1.671121 1_555
O12 Si7 1.675573 1_465
O13 Si10 1.619214 1_555
O13 Si2 1.632167 1_555
O14 Si2 1.596554 1_655
O15 Si11 1.596554 1_555
O16 Si1 1.619214 1_555
O16 Si0 1.632167 1_555
O17 Si5 1.671121 1_555
O17 Si8 1.675573 1_465
O18 Si8 1.671121 1_555
O18 Si5 1.675573 1_545
O19 Si4 1.629860 1_555
O19 Si3 1.633208 1_455
O20 Si3 1.619214 1_555
O20 Si7 1.632167 1_555
O21 Si0 1.671121 1_555
O21 Si2 1.675573 1_645
O22 Si3 1.619214 1_555
O22 Si8 1.632167 1_555
O23 Si0 1.596554 1_555
O24 Si4 1.619214 1_555
O24 Si5 1.632167 1_555
O25 Si8 1.596554 1_455
O26 Si6 1.671121 1_555
O26 Si9 1.675573 1_565
O27 Si2 1.671121 1_555
O27 Si0 1.675573 1_565
