# generated using pymatgen
data_Er3Fe5O12
_symmetry_space_group_name_H-M   'P 1'
_cell_length_a   10.80663218
_cell_length_b   10.80663218
_cell_length_c   10.80663218
_cell_angle_alpha   109.47122063
_cell_angle_beta   109.47122063
_cell_angle_gamma   109.47122063
_symmetry_Int_Tables_number   1
_chemical_formula_structural   Er3Fe5O12
_chemical_formula_sum   'Er12 Fe20 O48'
_cell_volume   971.51434855
_cell_formula_units_Z   4
loop_
 _symmetry_equiv_pos_site_id
 _symmetry_equiv_pos_as_xyz
  1  'x, y, z'
loop_
 _atom_site_type_symbol
 _atom_site_label
 _atom_site_symmetry_multiplicity
 _atom_site_fract_x
 _atom_site_fract_y
 _atom_site_fract_z
 _atom_site_occupancy
  Er  Er0  1  0.75000000  0.12500000  0.37500000  1
  Er  Er1  1  0.37500000  0.12500000  0.25000000  1
  Er  Er2  1  0.87500000  0.62500000  0.25000000  1
  Er  Er3  1  0.25000000  0.87500000  0.62500000  1
  Er  Er4  1  0.37500000  0.75000000  0.12500000  1
  Er  Er5  1  0.75000000  0.62500000  0.87500000  1
  Er  Er6  1  0.25000000  0.37500000  0.12500000  1
  Er  Er7  1  0.12500000  0.25000000  0.37500000  1
  Er  Er8  1  0.87500000  0.75000000  0.62500000  1
  Er  Er9  1  0.12500000  0.37500000  0.75000000  1
  Er  Er10  1  0.62500000  0.25000000  0.87500000  1
  Er  Er11  1  0.62500000  0.87500000  0.75000000  1
  Fe  Fe0  1  0.00000000  0.50000000  0.00000000  1
  Fe  Fe1  1  0.12500000  0.75000000  0.87500000  1
  Fe  Fe2  1  0.50000000  0.00000000  0.50000000  1
  Fe  Fe3  1  0.75000000  0.37500000  0.62500000  1
  Fe  Fe4  1  0.50000000  0.50000000  0.50000000  1
  Fe  Fe5  1  0.00000000  0.00000000  0.00000000  1
  Fe  Fe6  1  0.50000000  0.00000000  0.00000000  1
  Fe  Fe7  1  0.62500000  0.37500000  0.25000000  1
  Fe  Fe8  1  0.75000000  0.87500000  0.12500000  1
  Fe  Fe9  1  0.50000000  0.50000000  0.00000000  1
  Fe  Fe10  1  0.12500000  0.87500000  0.25000000  1
  Fe  Fe11  1  0.25000000  0.62500000  0.37500000  1
  Fe  Fe12  1  0.25000000  0.12500000  0.87500000  1
  Fe  Fe13  1  0.37500000  0.62500000  0.75000000  1
  Fe  Fe14  1  0.62500000  0.75000000  0.37500000  1
  Fe  Fe15  1  0.00000000  0.50000000  0.50000000  1
  Fe  Fe16  1  0.37500000  0.25000000  0.62500000  1
  Fe  Fe17  1  0.87500000  0.12500000  0.75000000  1
  Fe  Fe18  1  0.00000000  0.00000000  0.50000000  1
  Fe  Fe19  1  0.87500000  0.25000000  0.12500000  1
  O  O0  1  0.17676400  0.46684800  0.59315500  1
  O  O1  1  0.41639200  0.09315500  0.62630800  1
  O  O2  1  0.96684800  0.79008400  0.87369200  1
  O  O3  1  0.29008400  0.32323600  0.91639200  1
  O  O4  1  0.40684500  0.82323600  0.53315200  1
  O  O5  1  0.82323600  0.79008400  0.41639200  1
  O  O6  1  0.32323600  0.90684500  0.03315200  1
  O  O7  1  0.53315200  0.62630800  0.70991600  1
  O  O8  1  0.41639200  0.82323600  0.79008400  1
  O  O9  1  0.67676400  0.09315500  0.96684800  1
  O  O10  1  0.37369200  0.58360800  0.90684500  1
  O  O11  1  0.03315200  0.20991600  0.12630800  1
  O  O12  1  0.91639200  0.12630800  0.59315500  1
  O  O13  1  0.70991600  0.53315200  0.62630800  1
  O  O14  1  0.59315500  0.91639200  0.12630800  1
  O  O15  1  0.53315200  0.40684500  0.82323600  1
  O  O16  1  0.32323600  0.91639200  0.29008400  1
  O  O17  1  0.08360800  0.87369200  0.40684500  1
  O  O18  1  0.67676400  0.08360800  0.70991600  1
  O  O19  1  0.96684800  0.67676400  0.09315500  1
  O  O20  1  0.12630800  0.03315200  0.20991600  1
  O  O21  1  0.20991600  0.58360800  0.17676400  1
  O  O22  1  0.09315500  0.62630800  0.41639200  1
  O  O23  1  0.46684800  0.37369200  0.29008400  1
  O  O24  1  0.17676400  0.20991600  0.58360800  1
  O  O25  1  0.59315500  0.17676400  0.46684800  1
  O  O26  1  0.12630800  0.59315500  0.91639200  1
  O  O27  1  0.82323600  0.53315200  0.40684500  1
  O  O28  1  0.29008400  0.46684800  0.37369200  1
  O  O29  1  0.20991600  0.12630800  0.03315200  1
  O  O30  1  0.87369200  0.40684500  0.08360800  1
  O  O31  1  0.79008400  0.87369200  0.96684800  1
  O  O32  1  0.91639200  0.29008400  0.32323600  1
  O  O33  1  0.70991600  0.67676400  0.08360800  1
  O  O34  1  0.40684500  0.08360800  0.87369200  1
  O  O35  1  0.03315200  0.32323600  0.90684500  1
  O  O36  1  0.87369200  0.96684800  0.79008400  1
  O  O37  1  0.58360800  0.17676400  0.20991600  1
  O  O38  1  0.90684500  0.37369200  0.58360800  1
  O  O39  1  0.09315500  0.96684800  0.67676400  1
  O  O40  1  0.58360800  0.90684500  0.37369200  1
  O  O41  1  0.62630800  0.41639200  0.09315500  1
  O  O42  1  0.90684500  0.03315200  0.32323600  1
  O  O43  1  0.46684800  0.59315500  0.17676400  1
  O  O44  1  0.08360800  0.70991600  0.67676400  1
  O  O45  1  0.37369200  0.29008400  0.46684800  1
  O  O46  1  0.62630800  0.70991600  0.53315200  1
  O  O47  1  0.79008400  0.41639200  0.82323600  1
loop_
_geom_bond_atom_site_label_1
_geom_bond_atom_site_label_2
_geom_bond_distance
_geom_bond_site_symmetry_2
Er0 O38 2.356799 1_555
Er0 O14 2.356799 1_545
Er0 O25 2.356809 1_555
Er0 O42 2.356809 1_555
Er0 O40 2.434367 1_545
Er0 O12 2.434367 1_555
Er0 O37 2.434375 1_555
Er0 O32 2.434375 1_555
Er1 O23 2.356799 1_555
Er1 O16 2.356799 1_545
Er1 O37 2.356799 1_555
Er1 O20 2.356799 1_555
Er1 O6 2.434369 1_545
Er1 O25 2.434369 1_555
Er1 O29 2.434375 1_555
Er1 O45 2.434375 1_555
Er2 O17 2.356799 1_655
Er2 O41 2.356799 1_555
Er2 O27 2.356809 1_555
Er2 O19 2.356809 1_555
Er2 O22 2.434367 1_655
Er2 O30 2.434367 1_555
Er2 O33 2.434375 1_555
Er2 O5 2.434375 1_555
Er3 O34 2.356799 1_565
Er3 O22 2.356799 1_555
Er3 O4 2.356809 1_555
Er3 O39 2.356809 1_555
Er3 O1 2.434367 1_565
Er3 O17 2.434367 1_555
Er3 O44 2.434375 1_555
Er3 O8 2.434375 1_555
Er4 O40 2.356799 1_555
Er4 O26 2.356799 1_554
Er4 O43 2.356809 1_555
Er4 O6 2.356809 1_555
Er4 O10 2.434367 1_554
Er4 O14 2.434367 1_555
Er4 O21 2.434375 1_555
Er4 O16 2.434375 1_555
Er5 O31 2.356799 1_555
Er5 O33 2.356799 1_556
Er5 O47 2.356799 1_555
Er5 O13 2.356799 1_555
Er5 O19 2.434369 1_556
Er5 O15 2.434369 1_555
Er5 O2 2.434375 1_555
Er5 O7 2.434375 1_555
Er6 O28 2.356799 1_555
Er6 O3 2.356799 1_554
Er6 O29 2.356799 1_555
Er6 O21 2.356799 1_555
Er6 O35 2.434369 1_554
Er6 O43 2.434369 1_555
Er6 O11 2.434375 1_555
Er6 O23 2.434375 1_555
Er7 O45 2.356799 1_555
Er7 O32 2.356799 1_455
Er7 O11 2.356799 1_555
Er7 O24 2.356799 1_555
Er7 O42 2.434369 1_455
Er7 O0 2.434369 1_555
Er7 O20 2.434375 1_555
Er7 O28 2.434375 1_555
Er8 O2 2.356799 1_555
Er8 O44 2.356799 1_655
Er8 O46 2.356799 1_555
Er8 O5 2.356799 1_555
Er8 O39 2.434369 1_655
Er8 O27 2.434369 1_555
Er8 O36 2.434375 1_555
Er8 O13 2.434375 1_555
Er9 O10 2.356799 1_555
Er9 O12 2.356799 1_455
Er9 O0 2.356809 1_555
Er9 O35 2.356809 1_555
Er9 O38 2.434367 1_455
Er9 O26 2.434367 1_555
Er9 O24 2.434375 1_555
Er9 O3 2.434375 1_555
Er10 O30 2.356799 1_556
Er10 O1 2.356799 1_555
Er10 O15 2.356809 1_555
Er10 O9 2.356809 1_555
Er10 O41 2.434367 1_556
Er10 O34 2.434367 1_555
Er10 O18 2.434375 1_555
Er10 O47 2.434375 1_555
Er11 O36 2.356799 1_555
Er11 O18 2.356799 1_565
Er11 O7 2.356799 1_555
Er11 O8 2.356799 1_555
Er11 O9 2.434369 1_565
Er11 O4 2.434369 1_555
Er11 O31 2.434375 1_555
Er11 O46 2.434375 1_555
Fe0 O26 2.050707 1_554
Fe0 O30 2.050707 1_455
Fe0 O19 2.050709 1_455
Fe0 O35 2.050709 1_554
Fe0 O21 2.050712 1_555
Fe0 O47 2.050712 1_454
Fe1 O2 1.894825 1_455
Fe1 O44 1.894825 1_555
Fe1 O6 1.894827 1_556
Fe1 O26 1.894835 1_555
Fe2 O1 2.050707 1_555
Fe2 O40 2.050707 1_545
Fe2 O25 2.050709 1_555
Fe2 O4 2.050709 1_545
Fe2 O18 2.050712 1_555
Fe2 O16 2.050712 1_545
Fe3 O13 1.894825 1_555
Fe3 O47 1.894825 1_555
Fe3 O25 1.894827 1_555
Fe3 O38 1.894835 1_555
Fe4 O46 2.050712 1_555
Fe4 O13 2.050712 1_555
Fe4 O7 2.050712 1_555
Fe4 O45 2.050712 1_555
Fe4 O23 2.050712 1_555
Fe4 O28 2.050712 1_555
Fe5 O2 2.050712 1_444
Fe5 O36 2.050712 1_444
Fe5 O31 2.050712 1_444
Fe5 O20 2.050712 1_555
Fe5 O11 2.050712 1_555
Fe5 O29 2.050712 1_555
Fe6 O14 2.050707 1_545
Fe6 O34 2.050707 1_554
Fe6 O9 2.050709 1_554
Fe6 O6 2.050709 1_545
Fe6 O37 2.050712 1_555
Fe6 O8 2.050712 1_544
Fe7 O23 1.894825 1_555
Fe7 O37 1.894825 1_555
Fe7 O27 1.894827 1_555
Fe7 O41 1.894835 1_555
Fe8 O31 1.894825 1_554
Fe8 O33 1.894825 1_555
Fe8 O42 1.894827 1_565
Fe8 O14 1.894835 1_555
Fe9 O41 2.050707 1_555
Fe9 O10 2.050707 1_554
Fe9 O43 2.050709 1_555
Fe9 O15 2.050709 1_554
Fe9 O33 2.050712 1_555
Fe9 O3 2.050712 1_554
Fe10 O16 1.894825 1_555
Fe10 O20 1.894825 1_565
Fe10 O19 1.894827 1_455
Fe10 O17 1.894835 1_555
Fe11 O28 1.894825 1_555
Fe11 O21 1.894825 1_555
Fe11 O4 1.894827 1_555
Fe11 O22 1.894835 1_555
Fe12 O3 1.894825 1_555
Fe12 O29 1.894825 1_556
Fe12 O39 1.894827 1_545
Fe12 O34 1.894835 1_555
Fe13 O7 1.894825 1_555
Fe13 O8 1.894825 1_555
Fe13 O0 1.894827 1_555
Fe13 O10 1.894835 1_555
Fe14 O5 1.894825 1_555
Fe14 O46 1.894825 1_555
Fe14 O43 1.894827 1_555
Fe14 O40 1.894835 1_555
Fe15 O22 2.050707 1_555
Fe15 O38 2.050707 1_455
Fe15 O0 2.050709 1_555
Fe15 O27 2.050709 1_455
Fe15 O44 2.050712 1_555
Fe15 O32 2.050712 1_455
Fe16 O45 1.894825 1_555
Fe16 O24 1.894825 1_555
Fe16 O15 1.894827 1_555
Fe16 O1 1.894835 1_555
Fe17 O36 1.894825 1_545
Fe17 O18 1.894825 1_555
Fe17 O35 1.894827 1_655
Fe17 O12 1.894835 1_555
Fe18 O12 2.050707 1_455
Fe18 O17 2.050707 1_545
Fe18 O39 2.050709 1_545
Fe18 O42 2.050709 1_455
Fe18 O5 2.050712 1_445
Fe18 O24 2.050712 1_555
Fe19 O32 1.894825 1_555
Fe19 O11 1.894825 1_655
Fe19 O9 1.894827 1_554
Fe19 O30 1.894835 1_555
