# generated using pymatgen
data_Sc2CI3
_symmetry_space_group_name_H-M   'P 1'
_cell_length_a   10.97225894
_cell_length_b   11.06749697
_cell_length_c   14.14493772
_cell_angle_alpha   107.33265096
_cell_angle_beta   88.04285611
_cell_angle_gamma   119.34748589
_symmetry_Int_Tables_number   1
_chemical_formula_structural   Sc2CI3
_chemical_formula_sum   'Sc16 C8 I24'
_cell_volume   1416.29091119
_cell_formula_units_Z   8
loop_
 _symmetry_equiv_pos_site_id
 _symmetry_equiv_pos_as_xyz
  1  'x, y, z'
loop_
 _atom_site_type_symbol
 _atom_site_label
 _atom_site_symmetry_multiplicity
 _atom_site_fract_x
 _atom_site_fract_y
 _atom_site_fract_z
 _atom_site_occupancy
  Sc  Sc0  1  0.56404630  0.40515988  0.60218046  1
  Sc  Sc1  1  0.43595370  0.59484012  0.39781954  1
  Sc  Sc2  1  0.92655569  0.64489152  0.66248173  1
  Sc  Sc3  1  0.07344431  0.35510848  0.33751827  1
  Sc  Sc4  1  0.66263934  0.53087738  0.83723299  1
  Sc  Sc5  1  0.33736066  0.46912262  0.16276701  1
  Sc  Sc6  1  0.80524628  0.90996478  0.89232099  1
  Sc  Sc7  1  0.19475372  0.09003522  0.10767901  1
  Sc  Sc8  1  0.15121603  0.16117669  0.87987675  1
  Sc  Sc9  1  0.84878397  0.83882331  0.12012325  1
  Sc  Sc10  1  0.30123227  0.51840675  0.62042710  1
  Sc  Sc11  1  0.69876773  0.48159325  0.37957290  1
  Sc  Sc12  1  0.66210822  0.71707157  0.60476701  1
  Sc  Sc13  1  0.33789178  0.28292843  0.39523299  1
  Sc  Sc14  1  0.01400399  0.80485634  0.89922058  1
  Sc  Sc15  1  0.98599601  0.19514366  0.10077942  1
  C  C0  1  0.83041626  0.71327140  0.79223977  1
  C  C1  1  0.16958374  0.28672860  0.20776023  1
  C  C2  1  0.95978921  0.95739638  0.02955909  1
  C  C3  1  0.04021079  0.04260362  0.97044091  1
  C  C4  1  0.71857022  0.61311345  0.70758590  1
  C  C5  1  0.28142978  0.38688655  0.29241410  1
  C  C6  1  0.44843925  0.50317321  0.53018756  1
  C  C7  1  0.55156075  0.49682679  0.46981244  1
  I  I0  1  0.85774245  0.57637466  0.00003864  1
  I  I1  1  0.14225755  0.42362534  -0.00003864  1
  I  I2  1  0.57813422  0.71323233  0.99499231  1
  I  I3  1  0.42186578  0.28676767  0.00500769  1
  I  I4  1  0.72805947  0.12841347  0.99421231  1
  I  I5  1  0.27194053  0.87158653  0.00578769  1
  I  I6  1  0.63814411  0.90103612  0.50610146  1
  I  I7  1  0.36185589  0.09896388  0.49389854  1
  I  I8  1  0.92484711  0.77194484  0.50501333  1
  I  I9  1  0.07515289  0.22805516  0.49498667  1
  I  I10  1  0.78660369  0.35632801  0.49876057  1
  I  I11  1  0.21339631  0.64367199  0.50123943  1
  I  I12  1  0.20029395  0.93343546  0.74945663  1
  I  I13  1  0.79970605  0.06656454  0.25054337  1
  I  I14  1  0.50320613  0.80234165  0.75700495  1
  I  I15  1  0.49679387  0.19765835  0.24299505  1
  I  I16  1  0.06093874  0.52852283  0.75099636  1
  I  I17  1  0.93906126  0.47147717  0.24900364  1
  I  I18  1  0.34519067  0.37674741  0.75333054  1
  I  I19  1  0.65480933  0.62325259  0.24666946  1
  I  I20  1  0.90838460  0.06592382  0.74376020  1
  I  I21  1  0.09161540  0.93407618  0.25623980  1
  I  I22  1  0.62916894  0.25620697  0.73889708  1
  I  I23  1  0.37083106  0.74379303  0.26110292  1
loop_
_geom_bond_atom_site_label_1
_geom_bond_atom_site_label_2
_geom_bond_distance
_geom_bond_site_symmetry_2
C0 C4 1.464472 1_555
C0 Sc14 2.160530 1_655
C0 Sc2 2.208366 1_555
C0 Sc4 2.216245 1_555
C0 Sc6 2.354913 1_555
C1 C5 1.464472 1_555
C1 Sc15 2.160530 1_455
C1 Sc3 2.208366 1_555
C1 Sc5 2.216245 1_555
C1 Sc7 2.354913 1_555
C2 C3 1.403929 1_664
C2 Sc9 2.043283 1_555
C2 Sc7 2.353916 1_665
C2 Sc14 2.378637 1_654
C2 Sc6 2.379998 1_554
C2 Sc15 2.391619 1_565
C3 Sc8 2.043283 1_555
C3 Sc6 2.353916 1_445
C3 Sc15 2.378637 1_456
C3 Sc7 2.379998 1_556
C3 Sc14 2.391619 1_545
C4 Sc0 2.167420 1_555
C4 Sc4 2.222188 1_555
C4 Sc2 2.232958 1_555
C4 Sc12 2.362206 1_555
C5 Sc1 2.167420 1_555
C5 Sc5 2.222188 1_555
C5 Sc3 2.232958 1_555
C5 Sc13 2.362206 1_555
C6 C7 1.410904 1_555
C6 Sc10 2.065051 1_555
C6 Sc12 2.335414 1_555
C6 Sc13 2.354667 1_555
C6 Sc1 2.416451 1_555
C6 Sc0 2.432676 1_555
C7 Sc11 2.065051 1_555
C7 Sc13 2.335414 1_555
C7 Sc12 2.354667 1_555
C7 Sc0 2.416451 1_555
C7 Sc1 2.432676 1_555
I0 Sc9 2.942884 1_555
I0 Sc4 2.954432 1_554
I0 Sc14 3.016555 1_654
I1 Sc8 2.942884 1_554
I1 Sc5 2.954432 1_555
I1 Sc15 3.016555 1_455
I2 Sc9 2.954770 1_556
I2 Sc4 2.986971 1_555
I2 Sc6 3.062375 1_555
I3 Sc8 2.954770 1_554
I3 Sc5 2.986971 1_555
I3 Sc7 3.062375 1_555
I4 Sc15 2.899421 1_556
I4 Sc6 2.913267 1_545
I5 Sc14 2.899421 1_554
I5 Sc7 2.913267 1_565
I6 Sc12 2.899172 1_555
I6 Sc1 2.919224 1_555
I7 Sc13 2.899172 1_555
I7 Sc0 2.919224 1_555
I8 Sc11 2.952586 1_555
I8 Sc2 2.972164 1_555
I8 Sc12 3.031031 1_555
I9 Sc10 2.952586 1_555
I9 Sc3 2.972164 1_555
I9 Sc13 3.031031 1_555
I10 Sc11 2.916580 1_555
I10 Sc2 2.991590 1_555
I10 Sc0 2.995627 1_555
I11 Sc10 2.916580 1_555
I11 Sc3 2.991590 1_555
I11 Sc1 2.995627 1_555
I12 Sc8 2.922035 1_565
I12 Sc2 3.040155 1_455
I12 Sc14 3.056139 1_555
I13 Sc9 2.922035 1_545
I13 Sc3 3.040155 1_655
I13 Sc15 3.056139 1_555
I14 Sc10 2.892628 1_555
I14 Sc12 2.951796 1_555
I14 Sc6 3.357207 1_555
I15 Sc11 2.892628 1_555
I15 Sc13 2.951796 1_555
I15 Sc7 3.357207 1_555
I16 Sc2 2.889416 1_455
I16 Sc10 3.195083 1_555
I16 Sc14 3.415232 1_555
I17 Sc3 2.889416 1_655
I17 Sc11 3.195083 1_555
I17 Sc15 3.415232 1_555
I18 Sc10 2.963789 1_555
I18 Sc4 3.114896 1_555
I18 Sc0 3.121880 1_555
I18 Sc8 3.276137 1_555
I19 Sc11 2.963789 1_555
I19 Sc5 3.114896 1_555
I19 Sc1 3.121880 1_555
I19 Sc9 3.276137 1_555
I20 Sc8 2.881873 1_655
I20 Sc6 2.959711 1_545
I20 Sc12 3.418693 1_545
I21 Sc9 2.881873 1_455
I21 Sc7 2.959711 1_565
I21 Sc13 3.418693 1_565
I22 Sc4 2.780622 1_555
I22 Sc0 3.180656 1_555
I23 Sc5 2.780622 1_555
I23 Sc1 3.180656 1_555
