# generated using pymatgen
data_Ag2PS3
_symmetry_space_group_name_H-M   'P 1'
_cell_length_a   12.02477400
_cell_length_b   6.60011700
_cell_length_c   19.99040878
_cell_angle_alpha   86.62127161
_cell_angle_beta   90.00000000
_cell_angle_gamma   90.00000000
_symmetry_Int_Tables_number   1
_chemical_formula_structural   Ag2PS3
_chemical_formula_sum   'Ag24 P12 S36'
_cell_volume   1583.77934499
_cell_formula_units_Z   12
loop_
 _symmetry_equiv_pos_site_id
 _symmetry_equiv_pos_as_xyz
  1  'x, y, z'
loop_
 _atom_site_type_symbol
 _atom_site_label
 _atom_site_symmetry_multiplicity
 _atom_site_fract_x
 _atom_site_fract_y
 _atom_site_fract_z
 _atom_site_occupancy
  Ag  Ag0  1  0.07526600  0.42414100  0.16666000  1
  Ag  Ag1  1  0.77656300  0.96332000  0.78491200  1
  Ag  Ag2  1  0.70005100  0.92118800  0.00771600  1
  Ag  Ag3  1  0.36789600  0.52297800  0.10712200  1
  Ag  Ag4  1  0.66672600  0.47870000  0.12828400  1
  Ag  Ag5  1  0.92473400  0.57585900  0.83334000  1
  Ag  Ag6  1  0.72343700  0.96332000  0.28491200  1
  Ag  Ag7  1  0.05504700  0.08413400  0.90688000  1
  Ag  Ag8  1  0.22343700  0.03668000  0.21508800  1
  Ag  Ag9  1  0.57526600  0.57585900  0.33334000  1
  Ag  Ag10  1  0.16672600  0.52130000  0.37171600  1
  Ag  Ag11  1  0.27656300  0.03668000  0.71508800  1
  Ag  Ag12  1  0.79994900  0.92118800  0.50771600  1
  Ag  Ag13  1  0.20005100  0.07881200  0.49228400  1
  Ag  Ag14  1  0.63210400  0.47702200  0.89287800  1
  Ag  Ag15  1  0.94495300  0.91586600  0.09312000  1
  Ag  Ag16  1  0.83327400  0.47870000  0.62828400  1
  Ag  Ag17  1  0.86789600  0.47702200  0.39287800  1
  Ag  Ag18  1  0.13210400  0.52297800  0.60712200  1
  Ag  Ag19  1  0.55504700  0.91586600  0.59312000  1
  Ag  Ag20  1  0.29994900  0.07881200  0.99228400  1
  Ag  Ag21  1  0.33327400  0.52130000  0.87171600  1
  Ag  Ag22  1  0.44495300  0.08413400  0.40688000  1
  Ag  Ag23  1  0.42473400  0.42414100  0.66666000  1
  P  P0  1  0.90649800  0.46144100  0.00943800  1
  P  P1  1  0.99497600  0.04700100  0.62571800  1
  P  P2  1  0.40649800  0.53855900  0.49056200  1
  P  P3  1  0.48498700  0.15984600  0.23200700  1
  P  P4  1  0.98498700  0.84015400  0.26799300  1
  P  P5  1  0.59350200  0.46144100  0.50943800  1
  P  P6  1  0.49497600  0.95299900  0.87428200  1
  P  P7  1  0.01501300  0.15984600  0.73200700  1
  P  P8  1  0.51501300  0.84015400  0.76799300  1
  P  P9  1  0.09350200  0.53855900  0.99056200  1
  P  P10  1  0.50502400  0.04700100  0.12571900  1
  P  P11  1  0.00502400  0.95299900  0.37428200  1
  S  S0  1  0.53665100  0.08739600  0.70256000  1
  S  S1  1  0.61334100  0.16409300  0.49231900  1
  S  S2  1  0.38665900  0.83590700  0.50768100  1
  S  S3  1  0.14341700  0.90389800  0.60771000  1
  S  S4  1  0.03665100  0.91260400  0.79744000  1
  S  S5  1  0.62163300  0.53698800  0.60649300  1
  S  S6  1  0.63200400  0.31174700  0.25041600  1
  S  S7  1  0.96334900  0.08739600  0.20256000  1
  S  S8  1  0.68273000  0.64638600  0.44209600  1
  S  S9  1  0.97802100  0.29874000  0.56138900  1
  S  S10  1  0.88665900  0.16409300  0.99231900  1
  S  S11  1  0.18273000  0.35361400  0.05790400  1
  S  S12  1  0.85276600  0.87795400  0.62882800  1
  S  S13  1  0.35276600  0.12204600  0.87117200  1
  S  S14  1  0.14723400  0.12204600  0.37117200  1
  S  S15  1  0.47802100  0.70126000  0.93861100  1
  S  S16  1  0.12163300  0.46301200  0.89350700  1
  S  S17  1  0.02197900  0.70126000  0.43861100  1
  S  S18  1  0.15202200  0.34194500  0.72918000  1
  S  S19  1  0.46334900  0.91260400  0.29744000  1
  S  S20  1  0.64341700  0.09610200  0.89229000  1
  S  S21  1  0.84797800  0.65805500  0.27082000  1
  S  S22  1  0.52197900  0.29874000  0.06138900  1
  S  S23  1  0.37836700  0.46301200  0.39350700  1
  S  S24  1  0.87836700  0.53698800  0.10649300  1
  S  S25  1  0.34797800  0.34194500  0.22918000  1
  S  S26  1  0.81727000  0.64638600  0.94209600  1
  S  S27  1  0.31727000  0.35361400  0.55790400  1
  S  S28  1  0.13200400  0.68825300  0.24958400  1
  S  S29  1  0.35658300  0.90389800  0.10771000  1
  S  S30  1  0.11334100  0.83590700  0.00768100  1
  S  S31  1  0.86799600  0.31174700  0.75041600  1
  S  S32  1  0.64723400  0.87795400  0.12882800  1
  S  S33  1  0.85658300  0.09610200  0.39229000  1
  S  S34  1  0.65202200  0.65805500  0.77082000  1
  S  S35  1  0.36799600  0.68825300  0.74958400  1
loop_
_geom_bond_atom_site_label_1
_geom_bond_atom_site_label_2
_geom_bond_distance
_geom_bond_site_symmetry_2
Ag0 S28 2.567615 1_555
Ag0 S11 2.594693 1_555
Ag0 S7 2.660431 1_455
Ag0 S24 2.738909 1_455
Ag1 S34 2.539361 1_555
Ag1 S31 2.604968 1_565
Ag1 S20 2.856699 1_565
Ag2 S32 2.502994 1_555
Ag2 S20 2.608966 1_564
Ag2 S26 2.697696 1_554
Ag2 S10 2.764417 1_564
Ag3 S29 2.518513 1_555
Ag3 S22 2.572663 1_555
Ag3 S25 2.663627 1_555
Ag3 S11 2.702749 1_555
Ag4 S22 2.532935 1_555
Ag4 S24 2.606664 1_555
Ag4 S32 2.646187 1_555
Ag4 S6 2.651828 1_555
Ag5 S31 2.567615 1_555
Ag5 S26 2.594693 1_555
Ag5 S4 2.660431 1_655
Ag5 S16 2.738909 1_655
Ag6 S21 2.539361 1_555
Ag6 S6 2.604968 1_565
Ag6 S33 2.856699 1_565
Ag7 S4 2.531565 1_545
Ag7 S30 2.616636 1_546
Ag7 S16 2.624301 1_555
Ag7 S10 2.720627 1_455
Ag8 S25 2.539361 1_555
Ag8 S28 2.604968 1_545
Ag8 S29 2.856699 1_545
Ag9 S6 2.567615 1_555
Ag9 S8 2.594693 1_555
Ag9 S19 2.660431 1_555
Ag9 S23 2.738909 1_555
Ag10 S17 2.532935 1_555
Ag10 S23 2.606664 1_555
Ag10 S14 2.646187 1_555
Ag10 S28 2.651828 1_555
Ag11 S18 2.539361 1_555
Ag11 S35 2.604968 1_545
Ag11 S3 2.856699 1_545
Ag12 S12 2.502994 1_555
Ag12 S33 2.608966 1_565
Ag12 S8 2.697696 1_555
Ag12 S1 2.764417 1_565
Ag13 S14 2.502994 1_555
Ag13 S3 2.608966 1_545
Ag13 S27 2.697696 1_555
Ag13 S2 2.764417 1_545
Ag14 S20 2.518513 1_555
Ag14 S15 2.572663 1_555
Ag14 S34 2.663627 1_555
Ag14 S26 2.702749 1_555
Ag15 S7 2.531565 1_565
Ag15 S10 2.616636 1_564
Ag15 S24 2.624301 1_555
Ag15 S30 2.720627 1_655
Ag16 S9 2.532935 1_555
Ag16 S5 2.606664 1_555
Ag16 S12 2.646187 1_555
Ag16 S31 2.651828 1_555
Ag17 S33 2.518513 1_555
Ag17 S17 2.572663 1_655
Ag17 S21 2.663627 1_555
Ag17 S8 2.702749 1_555
Ag18 S3 2.518513 1_555
Ag18 S9 2.572663 1_455
Ag18 S18 2.663627 1_555
Ag18 S27 2.702749 1_555
Ag19 S0 2.531565 1_565
Ag19 S1 2.616636 1_565
Ag19 S5 2.624301 1_555
Ag19 S2 2.720627 1_555
Ag20 S13 2.502994 1_555
Ag20 S29 2.608966 1_546
Ag20 S11 2.697696 1_556
Ag20 S30 2.764417 1_546
Ag21 S15 2.532935 1_555
Ag21 S16 2.606664 1_555
Ag21 S13 2.646187 1_555
Ag21 S35 2.651828 1_555
Ag22 S19 2.531565 1_545
Ag22 S2 2.616636 1_545
Ag22 S23 2.624301 1_555
Ag22 S1 2.720627 1_555
Ag23 S35 2.567615 1_555
Ag23 S27 2.594693 1_555
Ag23 S0 2.660431 1_555
Ag23 S5 2.738909 1_555
P0 S10 2.026010 1_554
P0 S24 2.059450 1_555
P0 S26 2.063921 1_554
P0 P9 2.331390 1_654
P1 S12 2.040782 1_545
P1 S9 2.050372 1_555
P1 S3 2.061033 1_645
P1 P7 2.305191 1_655
P2 S2 2.026010 1_555
P2 S23 2.059450 1_555
P2 S27 2.063921 1_555
P2 P5 2.331390 1_555
P3 S25 2.038125 1_555
P3 S19 2.046927 1_545
P3 S6 2.075893 1_555
P4 S21 2.038125 1_555
P4 S7 2.046927 1_565
P4 S28 2.075893 1_655
P5 S1 2.026010 1_555
P5 S5 2.059450 1_555
P5 S8 2.063921 1_555
P6 S13 2.040782 1_565
P6 S15 2.050372 1_555
P6 S20 2.061033 1_565
P6 P8 2.305191 1_555
P7 S18 2.038125 1_555
P7 S4 2.046927 1_545
P7 S31 2.075893 1_455
P8 S34 2.038125 1_555
P8 S0 2.046927 1_565
P8 S35 2.075893 1_555
P9 S30 2.026010 1_556
P9 S16 2.059450 1_555
P9 S11 2.063921 1_556
P10 S32 2.040782 1_545
P10 S22 2.050383 1_555
P10 S29 2.061037 1_545
P10 P3 2.305172 1_555
P11 S14 2.040782 1_565
P11 S17 2.050372 1_555
P11 S33 2.061033 1_465
P11 P4 2.305191 1_455
