# generated using pymatgen
data_Ba2Ca3Tl2(CuO3)4
_symmetry_space_group_name_H-M   'P 1'
_cell_length_a   21.79863883
_cell_length_b   21.79863883
_cell_length_c   21.79863883
_cell_angle_alpha   169.78503058
_cell_angle_beta   169.78503058
_cell_angle_gamma   14.46541098
_symmetry_Int_Tables_number   1
_chemical_formula_structural   Ba2Ca3Tl2(CuO3)4
_chemical_formula_sum   'Ba2 Ca3 Tl2 Cu4 O12'
_cell_volume   325.75931306
_cell_formula_units_Z   1
loop_
 _symmetry_equiv_pos_site_id
 _symmetry_equiv_pos_as_xyz
  1  'x, y, z'
loop_
 _atom_site_type_symbol
 _atom_site_label
 _atom_site_symmetry_multiplicity
 _atom_site_fract_x
 _atom_site_fract_y
 _atom_site_fract_z
 _atom_site_occupancy
  Ba  Ba0  1  0.15698800  0.15698800  0.00000000  1
  Ba  Ba1  1  0.84301200  0.84301200  0.00000000  1
  Ca  Ca0  1  0.07503200  0.07503200  0.00000000  1
  Ca  Ca1  1  0.92496800  0.92496800  0.00000000  1
  Ca  Ca2  1  0.00000000  0.00000000  0.00000000  1
  Tl  Tl0  1  0.72349300  0.72349300  0.00000000  1
  Tl  Tl1  1  0.27650700  0.27650700  0.00000000  1
  Cu  Cu0  1  0.53754100  0.53754100  0.00000000  1
  Cu  Cu1  1  0.38991500  0.38991500  0.00000000  1
  Cu  Cu2  1  0.61008500  0.61008500  0.00000000  1
  Cu  Cu3  1  0.46245900  0.46245900  0.00000000  1
  O  O0  1  0.88903100  0.38903100  0.50000000  1
  O  O1  1  0.03716900  0.53716900  0.50000000  1
  O  O2  1  0.22828500  0.22828500  0.00000000  1
  O  O3  1  0.46283100  0.96283100  0.50000000  1
  O  O4  1  0.77171500  0.77171500  0.00000000  1
  O  O5  1  0.61096900  0.11096900  0.50000000  1
  O  O6  1  0.11096900  0.61096900  0.50000000  1
  O  O7  1  0.32349700  0.32349700  0.00000000  1
  O  O8  1  0.38903100  0.88903100  0.50000000  1
  O  O9  1  0.53716900  0.03716900  0.50000000  1
  O  O10  1  0.96283100  0.46283100  0.50000000  1
  O  O11  1  0.67650300  0.67650300  0.00000000  1
loop_
_geom_bond_atom_site_label_1
_geom_bond_atom_site_label_2
_geom_bond_distance
_geom_bond_site_symmetry_2
Ba0 O5 2.779824 1_454
Ba0 O6 2.779824 1_555
Ba0 O6 2.779824 1_544
Ba0 O5 2.779824 1_555
Ba0 O11 2.871294 1_444
Ba0 O11 2.871294 1_545
Ba0 O11 2.871294 1_556
Ba0 O11 2.871294 1_455
Ba0 O2 3.083622 1_555
Ba1 O8 2.779824 1_554
Ba1 O8 2.779824 1_655
Ba1 O0 2.779824 1_554
Ba1 O0 2.779824 1_565
Ba1 O7 2.871294 1_655
Ba1 O7 2.871294 1_565
Ba1 O7 2.871294 1_554
Ba1 O7 2.871294 1_666
Ba1 O4 3.083622 1_555
Ca0 O5 2.486319 1_555
Ca0 O5 2.486319 1_454
Ca0 O6 2.486319 1_555
Ca0 O6 2.486319 1_544
Ca0 O9 2.539226 1_555
Ca0 O9 2.539226 1_454
Ca0 O1 2.539226 1_555
Ca0 O1 2.539226 1_544
Ca1 O0 2.486319 1_554
Ca1 O0 2.486319 1_565
Ca1 O8 2.486319 1_554
Ca1 O8 2.486319 1_655
Ca1 O3 2.539226 1_554
Ca1 O10 2.539226 1_565
Ca1 O3 2.539226 1_655
Ca1 O10 2.539226 1_554
Ca2 O3 2.519973 1_545
Ca2 O3 2.519973 1_444
Ca2 O10 2.519973 1_444
Ca2 O1 2.519973 1_544
Ca2 O9 2.519973 1_454
Ca2 O10 2.519973 1_455
Ca2 O9 2.519973 1_555
Ca2 O1 2.519973 1_555
Cu0 O1 1.940678 1_554
Cu0 O1 1.940678 1_655
Cu0 O9 1.940678 1_554
Cu0 O9 1.940678 1_565
Cu1 O0 1.940988 1_555
Cu1 O0 1.940988 1_454
Cu1 O8 1.940988 1_555
Cu1 O8 1.940988 1_544
Cu2 O6 1.940988 1_554
Cu2 O5 1.940988 1_554
Cu2 O5 1.940988 1_565
Cu2 O6 1.940988 1_655
Cu3 O3 1.940678 1_555
Cu3 O10 1.940678 1_555
Cu3 O10 1.940678 1_454
Cu3 O3 1.940678 1_544
O2 Tl1 2.085620 1_555
O2 Tl0 2.752253 1_545
O2 Tl0 2.752253 1_556
O2 Tl0 2.752253 1_455
O2 Tl0 2.752253 1_444
O4 Tl0 2.085620 1_555
O4 Tl1 2.752253 1_666
O4 Tl1 2.752253 1_565
O4 Tl1 2.752253 1_554
O4 Tl1 2.752253 1_655
O7 Tl1 2.032335 1_555
O11 Tl0 2.032335 1_555
