# generated using pymatgen
data_Na3CrF6
_symmetry_space_group_name_H-M   'P 1'
_cell_length_a   5.67859266
_cell_length_b   5.41198261
_cell_length_c   9.44738146
_cell_angle_alpha   55.64952835
_cell_angle_beta   90.00000000
_cell_angle_gamma   90.00000000
_symmetry_Int_Tables_number   1
_chemical_formula_structural   Na3CrF6
_chemical_formula_sum   'Na6 Cr2 F12'
_cell_volume   239.70609057
_cell_formula_units_Z   2
loop_
 _symmetry_equiv_pos_site_id
 _symmetry_equiv_pos_as_xyz
  1  'x, y, z'
loop_
 _atom_site_type_symbol
 _atom_site_label
 _atom_site_symmetry_multiplicity
 _atom_site_fract_x
 _atom_site_fract_y
 _atom_site_fract_z
 _atom_site_occupancy
  Na  Na0  1  0.56140476  0.72411493  0.25617437  1
  Na  Na1  1  0.06140476  0.27588507  0.24382563  1
  Na  Na2  1  0.43859524  0.27588507  0.74382563  1
  Na  Na3  1  0.93859524  0.72411493  0.75617437  1
  Na  Na4  1  0.50000000  0.50000000  0.00000000  1
  Na  Na5  1  -0.00000000  0.50000000  0.50000000  1
  Cr  Cr0  1  0.50000000  -0.00000000  0.50000000  1
  Cr  Cr1  1  -0.00000000  -0.00000000  0.00000000  1
  F  F0  1  0.22085762  0.75749522  0.57335805  1
  F  F1  1  0.72085762  0.24250478  0.92664195  1
  F  F2  1  0.77914238  0.24250478  0.42664195  1
  F  F3  1  0.27914238  0.75749522  0.07335805  1
  F  F4  1  0.32138602  0.34113550  0.44696509  1
  F  F5  1  0.82138602  0.65886450  0.05303491  1
  F  F6  1  0.67861398  0.65886450  0.55303491  1
  F  F7  1  0.17861398  0.34113550  0.94696509  1
  F  F8  1  0.05724028  0.10731852  0.77192059  1
  F  F9  1  0.55724028  0.89268148  0.72807941  1
  F  F10  1  0.94275972  0.89268148  0.22807941  1
  F  F11  1  0.44275972  0.10731852  0.27192059  1
loop_
_geom_bond_atom_site_label_1
_geom_bond_atom_site_label_2
_geom_bond_distance
_geom_bond_site_symmetry_2
Cr0 F4 1.909036 1_555
Cr0 F6 1.909036 1_545
Cr0 F9 1.916672 1_545
Cr0 F11 1.916672 1_555
Cr0 F0 1.920673 1_545
Cr0 F2 1.920673 1_555
Cr1 F7 1.909036 1_554
Cr1 F5 1.909036 1_445
Cr1 F8 1.916672 1_554
Cr1 F10 1.916672 1_445
Cr1 F3 1.920673 1_545
Cr1 F1 1.920673 1_454
F0 Na5 2.255025 1_555
F0 Na3 2.287501 1_455
F0 Na2 2.485761 1_555
F1 Na4 2.255025 1_556
F1 Na2 2.287501 1_555
F1 Na3 2.485761 1_555
F2 Na5 2.255025 1_655
F2 Na1 2.287501 1_655
F2 Na0 2.485761 1_555
F3 Na4 2.255025 1_555
F3 Na0 2.287501 1_555
F3 Na1 2.485761 1_555
F4 Na5 2.192507 1_555
F4 Na0 2.277399 1_555
F4 Na1 2.598487 1_555
F4 Na2 2.704732 1_555
F5 Na4 2.192507 1_555
F5 Na1 2.277399 1_655
F5 Na0 2.598487 1_555
F5 Na3 2.704732 1_554
F6 Na5 2.192507 1_655
F6 Na2 2.277399 1_555
F6 Na3 2.598487 1_555
F6 Na0 2.704732 1_555
F7 Na4 2.192507 1_556
F7 Na3 2.277399 1_455
F7 Na2 2.598487 1_555
F7 Na1 2.704732 1_556
F8 Na5 2.249546 1_555
F8 Na3 2.263898 1_445
F8 Na2 2.306316 1_555
F9 Na4 2.249546 1_556
F9 Na2 2.263898 1_565
F9 Na3 2.306316 1_555
F10 Na5 2.249546 1_655
F10 Na1 2.263898 1_665
F10 Na0 2.306316 1_555
F11 Na4 2.249546 1_555
F11 Na0 2.263898 1_545
F11 Na1 2.306316 1_555
