# generated using pymatgen
data_Sr(FeS2)2
_symmetry_space_group_name_H-M   'P 1'
_cell_length_a   5.22962700
_cell_length_b   10.68322600
_cell_length_c   21.36312900
_cell_angle_alpha   90.00000000
_cell_angle_beta   90.00000000
_cell_angle_gamma   90.00000000
_symmetry_Int_Tables_number   1
_chemical_formula_structural   Sr(FeS2)2
_chemical_formula_sum   'Sr8 Fe16 S32'
_cell_volume   1193.54278824
_cell_formula_units_Z   8
loop_
 _symmetry_equiv_pos_site_id
 _symmetry_equiv_pos_as_xyz
  1  'x, y, z'
loop_
 _atom_site_type_symbol
 _atom_site_label
 _atom_site_symmetry_multiplicity
 _atom_site_fract_x
 _atom_site_fract_y
 _atom_site_fract_z
 _atom_site_occupancy
  Sr  Sr0  1  0.00000000  0.50000000  0.24973400  1
  Sr  Sr1  1  0.00000000  0.00000000  0.50000000  1
  Sr  Sr2  1  0.00000000  0.50000000  0.75026600  1
  Sr  Sr3  1  0.50000000  0.50000000  0.50000000  1
  Sr  Sr4  1  0.50000000  0.00000000  0.00000000  1
  Sr  Sr5  1  0.00000000  0.00000000  0.25026600  1
  Sr  Sr6  1  0.00000000  0.00000000  0.74973400  1
  Sr  Sr7  1  0.00000000  0.50000000  0.00000000  1
  Fe  Fe0  1  0.00004000  0.24950000  0.37461900  1
  Fe  Fe1  1  0.00004000  0.75050000  0.62538100  1
  Fe  Fe2  1  0.49986900  0.75061600  0.12482100  1
  Fe  Fe3  1  0.49986900  0.25061600  0.37517900  1
  Fe  Fe4  1  0.50013100  0.24938400  0.12482100  1
  Fe  Fe5  1  0.49986900  0.74938400  0.62482100  1
  Fe  Fe6  1  0.50013100  0.74938400  0.37517900  1
  Fe  Fe7  1  0.50013100  0.25061600  0.62482100  1
  Fe  Fe8  1  0.49986900  0.24938400  0.87517900  1
  Fe  Fe9  1  0.50013100  0.75061600  0.87517900  1
  Fe  Fe10  1  0.00004000  0.74950000  0.12538100  1
  Fe  Fe11  1  0.99996000  0.25050000  0.12538100  1
  Fe  Fe12  1  0.00004000  0.25050000  0.87461900  1
  Fe  Fe13  1  0.99996000  0.75050000  0.37461900  1
  Fe  Fe14  1  0.99996000  0.24950000  0.62538100  1
  Fe  Fe15  1  0.99996000  0.74950000  0.87461900  1
  S  S0  1  0.74843900  0.09088400  0.37518600  1
  S  S1  1  0.74843900  0.59088400  0.12481400  1
  S  S2  1  0.75090300  0.90920500  0.12516200  1
  S  S3  1  0.75104700  0.24960900  0.04552400  1
  S  S4  1  0.74863400  0.24999400  0.20465400  1
  S  S5  1  0.75090300  0.40920500  0.37483800  1
  S  S6  1  0.75090300  0.59079500  0.62516200  1
  S  S7  1  0.74863400  0.74999400  0.29534600  1
  S  S8  1  0.75104700  0.74960900  0.45447600  1
  S  S9  1  0.74843900  0.90911600  0.62481400  1
  S  S10  1  0.75104700  0.25039100  0.54552400  1
  S  S11  1  0.75090300  0.09079500  0.87483800  1
  S  S12  1  0.74863400  0.25000600  0.70465400  1
  S  S13  1  0.74843900  0.40911600  0.87518600  1
  S  S14  1  0.74863400  0.75000600  0.79534600  1
  S  S15  1  0.75104700  0.75039100  0.95447600  1
  S  S16  1  0.25136600  0.75000600  0.20465400  1
  S  S17  1  0.24895300  0.75039100  0.04552400  1
  S  S18  1  0.24909700  0.09079500  0.12516200  1
  S  S19  1  0.25156100  0.40911600  0.12481400  1
  S  S20  1  0.25136600  0.25000600  0.29534600  1
  S  S21  1  0.24895300  0.25039100  0.45447600  1
  S  S22  1  0.24909700  0.59079500  0.37483800  1
  S  S23  1  0.25136600  0.74999400  0.70465400  1
  S  S24  1  0.24895300  0.24960900  0.95447600  1
  S  S25  1  0.25156100  0.59088400  0.87518600  1
  S  S26  1  0.25156100  0.90911600  0.37518600  1
  S  S27  1  0.24895300  0.74960900  0.54552400  1
  S  S28  1  0.25156100  0.09088400  0.62481400  1
  S  S29  1  0.25136600  0.24999400  0.79534600  1
  S  S30  1  0.24909700  0.90920500  0.87483800  1
  S  S31  1  0.24909700  0.40920500  0.62516200  1
loop_
_geom_bond_atom_site_label_1
_geom_bond_atom_site_label_2
_geom_bond_distance
_geom_bond_site_symmetry_2
Fe0 S20 2.143719 1_555
Fe0 S0 2.145427 1_455
Fe0 S21 2.145924 1_555
Fe0 S5 2.146754 1_455
Fe1 S23 2.143719 1_555
Fe1 S9 2.145427 1_455
Fe1 S27 2.145924 1_555
Fe1 S6 2.146754 1_455
Fe2 S17 2.142805 1_555
Fe2 S2 2.143360 1_555
Fe2 S16 2.144205 1_555
Fe2 S1 2.145180 1_555
Fe3 S21 2.142805 1_555
Fe3 S5 2.143360 1_555
Fe3 S20 2.144205 1_555
Fe3 S0 2.145180 1_555
Fe4 S3 2.142805 1_555
Fe4 S18 2.143360 1_555
Fe4 S4 2.144205 1_555
Fe4 S19 2.145180 1_555
Fe5 S27 2.142805 1_555
Fe5 S6 2.143360 1_555
Fe5 S23 2.144205 1_555
Fe5 S9 2.145180 1_555
Fe6 S8 2.142805 1_555
Fe6 S22 2.143360 1_555
Fe6 S7 2.144205 1_555
Fe6 S26 2.145180 1_555
Fe7 S10 2.142805 1_555
Fe7 S31 2.143360 1_555
Fe7 S12 2.144205 1_555
Fe7 S28 2.145180 1_555
Fe8 S24 2.142805 1_555
Fe8 S11 2.143360 1_555
Fe8 S29 2.144205 1_555
Fe8 S13 2.145180 1_555
Fe9 S15 2.142805 1_555
Fe9 S30 2.143360 1_555
Fe9 S14 2.144205 1_555
Fe9 S25 2.145180 1_555
Fe10 S16 2.143719 1_555
Fe10 S1 2.145427 1_455
Fe10 S17 2.145924 1_555
Fe10 S2 2.146754 1_455
Fe11 S4 2.143719 1_555
Fe11 S19 2.145427 1_655
Fe11 S3 2.145924 1_555
Fe11 S18 2.146754 1_655
Fe12 S29 2.143719 1_555
Fe12 S13 2.145427 1_455
Fe12 S24 2.145924 1_555
Fe12 S11 2.146754 1_455
Fe13 S7 2.143719 1_555
Fe13 S26 2.145427 1_655
Fe13 S8 2.145924 1_555
Fe13 S22 2.146754 1_655
Fe14 S12 2.143719 1_555
Fe14 S28 2.145427 1_655
Fe14 S10 2.145924 1_555
Fe14 S31 2.146754 1_655
Fe15 S14 2.143719 1_555
Fe15 S25 2.145427 1_655
Fe15 S15 2.145924 1_555
Fe15 S30 2.146754 1_655
S0 Sr1 3.127814 1_655
S0 Sr5 3.129745 1_655
S1 Sr7 3.127814 1_655
S1 Sr0 3.129745 1_655
S2 Sr5 3.127413 1_665
S2 Sr4 3.132417 1_565
S3 Sr4 3.127363 1_555
S3 Sr7 3.129918 1_655
S4 Sr0 3.128747 1_655
S4 Sr5 3.132155 1_655
S5 Sr0 3.127413 1_655
S5 Sr3 3.132417 1_555
S6 Sr2 3.127413 1_655
S6 Sr3 3.132417 1_555
S7 Sr5 3.128747 1_665
S7 Sr0 3.132155 1_655
S8 Sr3 3.127363 1_555
S8 Sr1 3.129918 1_665
S9 Sr1 3.127814 1_665
S9 Sr6 3.129745 1_665
S10 Sr3 3.127363 1_555
S10 Sr1 3.129918 1_655
S11 Sr6 3.127413 1_655
S11 Sr4 3.132417 1_556
S12 Sr6 3.128747 1_655
S12 Sr2 3.132155 1_655
S13 Sr7 3.127814 1_656
S13 Sr2 3.129745 1_655
S14 Sr2 3.128747 1_655
S14 Sr6 3.132155 1_665
S15 Sr4 3.127363 1_566
S15 Sr7 3.129918 1_656
S16 Sr0 3.128747 1_555
S16 Sr5 3.132155 1_565
S17 Sr4 3.127363 1_565
S17 Sr7 3.129918 1_555
S18 Sr5 3.127413 1_555
S18 Sr4 3.132417 1_555
S19 Sr7 3.127814 1_555
S19 Sr0 3.129745 1_555
S20 Sr5 3.128747 1_555
S20 Sr0 3.132155 1_555
S21 Sr3 3.127363 1_555
S21 Sr1 3.129918 1_555
S22 Sr0 3.127413 1_555
S22 Sr3 3.132417 1_555
S23 Sr6 3.128747 1_565
S23 Sr2 3.132155 1_555
S24 Sr4 3.127363 1_556
S24 Sr7 3.129918 1_556
S25 Sr7 3.127814 1_556
S25 Sr2 3.129745 1_555
S26 Sr1 3.127814 1_565
S26 Sr5 3.129745 1_565
S27 Sr3 3.127363 1_555
S27 Sr1 3.129918 1_565
S28 Sr1 3.127814 1_555
S28 Sr6 3.129745 1_555
S29 Sr2 3.128747 1_555
S29 Sr6 3.132155 1_555
S30 Sr6 3.127413 1_565
S30 Sr4 3.132417 1_566
S31 Sr2 3.127413 1_555
S31 Sr3 3.132417 1_555
