# generated using pymatgen
data_AlCu2Sb(HO)12
_symmetry_space_group_name_H-M   'P 1'
_cell_length_a   9.20949600
_cell_length_b   9.24872317
_cell_length_c   9.74351477
_cell_angle_alpha   90.10192851
_cell_angle_beta   90.14351723
_cell_angle_gamma   119.05220147
_symmetry_Int_Tables_number   1
_chemical_formula_structural   AlCu2Sb(HO)12
_chemical_formula_sum   'Al3 Cu6 Sb3 H36 O36'
_cell_volume   725.48606305
_cell_formula_units_Z   3
loop_
 _symmetry_equiv_pos_site_id
 _symmetry_equiv_pos_as_xyz
  1  'x, y, z'
loop_
 _atom_site_type_symbol
 _atom_site_label
 _atom_site_symmetry_multiplicity
 _atom_site_fract_x
 _atom_site_fract_y
 _atom_site_fract_z
 _atom_site_occupancy
  Al  Al0  1  0.99952400  0.00263700  0.50266000  1
  Al  Al1  1  0.33237300  0.66460000  0.49359100  1
  Al  Al2  1  0.66617100  0.32942100  0.50913900  1
  Cu  Cu0  1  0.01322200  0.67196600  0.50718200  1
  Cu  Cu1  1  0.65937400  0.98655000  0.49447300  1
  Cu  Cu2  1  0.67174100  0.65728900  0.50398900  1
  Cu  Cu3  1  0.32605300  0.33990200  0.50401200  1
  Cu  Cu4  1  0.34027500  0.01377500  0.49636200  1
  Cu  Cu5  1  0.98646600  0.32706300  0.49853800  1
  Sb  Sb0  1  0.00407700  0.99767900  0.00315500  1
  Sb  Sb1  1  0.32125900  0.66105000  0.98629700  1
  Sb  Sb2  1  0.66762100  0.35284200  0.01187300  1
  H  H0  1  0.14369400  0.96171900  0.29625500  1
  H  H1  1  0.09584500  0.80402100  0.88627400  1
  H  H2  1  0.43488900  0.94447300  0.84882400  1
  H  H3  1  0.15987700  0.76428500  0.11686800  1
  H  H4  1  0.24689600  0.78327600  0.70114800  1
  H  H5  1  0.46140900  0.85430400  0.28756500  1
  H  H6  1  0.72788000  0.93230400  0.89186900  1
  H  H7  1  0.13101400  0.60032500  0.29562100  1
  H  H8  1  0.59483200  0.82843100  0.10956200  1
  H  H9  1  0.79518600  0.86494300  0.29965400  1
  H  H10  1  0.53025800  0.73738400  0.69952200  1
  H  H11  1  0.05163800  0.42688400  0.88548800  1
  H  H12  1  0.20743700  0.46000600  0.70010800  1
  H  H13  1  0.95142000  0.81147100  0.70679400  1
  H  H14  1  0.56446600  0.62423800  0.88973400  1
  H  H15  1  0.38835400  0.52701600  0.29280700  1
  H  H16  1  0.80756100  0.72666800  0.11975500  1
  H  H17  1  0.21818900  0.39160300  0.11141500  1
  H  H18  1  0.79774300  0.63360700  0.89371600  1
  H  H19  1  0.18462400  0.27399900  0.88635400  1
  H  H20  1  0.60727400  0.46736500  0.71218400  1
  H  H21  1  0.43950900  0.39675900  0.11945900  1
  H  H22  1  0.05008400  0.19386000  0.29490900  1
  H  H23  1  0.79190700  0.53836500  0.30895700  1
  H  H24  1  0.94525000  0.56098300  0.12216300  1
  H  H25  1  0.46674800  0.26592200  0.30386000  1
  H  H26  1  0.19756800  0.13814900  0.70602800  1
  H  H27  1  0.37606200  0.18345300  0.89834300  1
  H  H28  1  0.85930200  0.38937100  0.71234300  1
  H  H29  1  0.15309300  0.98899000  0.10962200  1
  H  H30  1  0.55196900  0.07850100  0.70231600  1
  H  H31  1  0.74700200  0.21901600  0.29435300  1
  H  H32  1  0.81432700  0.22793100  0.88781500  1
  H  H33  1  0.60716900  0.06626400  0.10352400  1
  H  H34  1  0.91322600  0.19185800  0.11099300  1
  H  H35  1  0.85850000  0.05818300  0.70491100  1
  O  O0  1  0.12660600  0.93124400  0.39309900  1
  O  O1  1  0.49296700  0.83919500  0.11409500  1
  O  O2  1  0.24260500  0.78148200  0.59701800  1
  O  O3  1  0.44739600  0.86287900  0.38848600  1
  O  O4  1  0.26656400  0.80093200  0.87413300  1
  O  O5  1  0.14690500  0.65307200  0.12457700  1
  O  O6  1  0.12697200  0.57785100  0.39592400  1
  O  O7  1  0.79117600  0.87580000  0.40155900  1
  O  O8  1  0.53556200  0.74863700  0.59692400  1
  O  O9  1  0.51369800  0.69702500  0.86919600  1
  O  O10  1  0.81088400  0.83564800  0.12353800  1
  O  O11  1  0.17074400  0.45578900  0.87360800  1
  O  O12  1  0.21674000  0.45983900  0.59756000  1
  O  O13  1  0.93179600  0.80541900  0.60566800  1
  O  O14  1  0.41515600  0.54483500  0.39236800  1
  O  O15  1  0.98780000  0.81153100  0.88349600  1
  O  O16  1  0.32926100  0.49221700  0.11645700  1
  O  O17  1  0.68174400  0.53805800  0.89265800  1
  O  O18  1  0.01751300  0.18658800  0.12226900  1
  O  O19  1  0.58173400  0.44750900  0.61276500  1
  O  O20  1  0.07027800  0.19902200  0.39605400  1
  O  O21  1  0.78303200  0.54099900  0.41147500  1
  O  O22  1  0.82604200  0.53006100  0.13919400  1
  O  O23  1  0.18570000  0.16610700  0.88203900  1
  O  O24  1  0.48811100  0.32284300  0.14035000  1
  O  O25  1  0.46078900  0.24712000  0.40615800  1
  O  O26  1  0.20058600  0.12792600  0.60437200  1
  O  O27  1  0.86517000  0.41041800  0.61183100  1
  O  O28  1  0.84259700  0.34598900  0.88851500  1
  O  O29  1  0.49435900  0.21873800  0.87196900  1
  O  O30  1  0.55335100  0.11298500  0.59046700  1
  O  O31  1  0.76299000  0.22729800  0.39608900  1
  O  O32  1  0.69368800  0.18239900  0.12307900  1
  O  O33  1  0.55665000  0.03226800  0.82642500  1
  O  O34  1  0.87050700  0.07696000  0.60372600  1
  O  O35  1  0.84296900  0.02251400  0.88027700  1
loop_
_geom_bond_atom_site_label_1
_geom_bond_atom_site_label_2
_geom_bond_distance
_geom_bond_site_symmetry_2
Al0 O13 1.904758 1_545
Al0 O34 1.910676 1_555
Al0 O26 1.912178 1_655
Al0 O20 1.913939 1_655
Al0 O0 1.923434 1_645
Al0 O7 1.956668 1_545
Al1 O14 1.897617 1_555
Al1 O6 1.908364 1_555
Al1 O3 1.912922 1_555
Al1 O8 1.922152 1_555
Al1 O2 1.932834 1_555
Al1 O12 1.949418 1_555
Al2 O27 1.890987 1_555
Al2 O19 1.908357 1_555
Al2 O30 1.924656 1_555
Al2 O31 1.928627 1_555
Al2 O25 1.937348 1_555
Al2 O21 1.964523 1_555
Cu0 O13 1.976084 1_455
Cu0 O6 1.979442 1_555
Cu0 O2 2.040647 1_555
Cu0 O21 2.079202 1_455
Cu0 O27 2.358538 1_455
Cu0 O0 2.379012 1_555
Cu1 O3 2.000721 1_555
Cu1 O34 2.005132 1_565
Cu1 O30 2.074903 1_565
Cu1 O7 2.133515 1_555
Cu1 O8 2.171430 1_555
Cu1 O31 2.176216 1_565
Cu2 O19 2.006122 1_555
Cu2 O21 2.022771 1_555
Cu2 O8 2.034361 1_555
Cu2 O7 2.035658 1_555
Cu2 O13 2.321841 1_555
Cu2 O14 2.333363 1_555
Cu3 O26 1.986782 1_555
Cu3 O14 1.987554 1_555
Cu3 O12 2.039687 1_555
Cu3 O25 2.054818 1_555
Cu3 O20 2.314023 1_555
Cu3 O19 2.316386 1_555
Cu4 O30 1.942327 1_555
Cu4 O0 1.998925 1_545
Cu4 O25 2.084993 1_555
Cu4 O2 2.126427 1_545
Cu4 O26 2.280145 1_555
Cu4 O3 2.315785 1_545
Cu5 O20 1.970445 1_655
Cu5 O27 1.974908 1_555
Cu5 O31 2.055645 1_555
Cu5 O12 2.095840 1_655
Cu5 O6 2.270188 1_655
Cu5 O34 2.270738 1_555
H0 O0 0.976321 1_555
H1 O15 1.030853 1_455
H1 O4 1.591000 1_555
H2 O33 1.040163 1_565
H2 O4 1.493546 1_555
H3 O5 0.979216 1_555
H4 O2 1.015055 1_555
H4 O4 1.693838 1_555
H5 O3 1.000086 1_555
H6 O35 0.987092 1_565
H7 O6 0.996545 1_555
H8 O1 0.991382 1_555
H9 O7 1.000376 1_555
H10 O8 1.004104 1_555
H11 O11 1.002006 1_555
H12 O12 1.003121 1_555
H13 O13 0.997869 1_555
H14 O9 1.008723 1_555
H14 O17 1.624402 1_555
H15 O14 0.993908 1_555
H16 O10 0.994039 1_555
H17 O16 0.994892 1_555
H18 O17 1.002659 1_555
H19 O23 1.003520 1_555
H20 O19 0.991809 1_555
H21 O24 1.003170 1_555
H22 O20 0.999191 1_555
H23 O21 1.003645 1_555
H24 O22 1.005355 1_555
H25 O25 1.009142 1_555
H25 O24 1.660717 1_555
H26 O26 0.996561 1_555
H27 O29 1.007894 1_555
H28 O27 0.995312 1_555
H29 Sb0 1.751066 1_555
H30 O30 1.134422 1_555
H30 O33 1.290923 1_555
H31 O31 0.999100 1_555
H32 O28 0.991926 1_555
H33 O32 0.996087 1_555
H34 O18 0.990873 1_655
H35 O34 0.998441 1_555
O1 Sb1 2.053827 1_554
O4 Sb1 1.938302 1_555
O5 Sb1 2.072483 1_554
O9 Sb1 1.998059 1_555
O10 Sb0 2.052882 1_655
O11 Sb1 2.039651 1_555
O15 Sb0 2.021668 1_656
O16 Sb1 2.042153 1_554
O17 Sb2 2.022875 1_556
O18 Sb0 2.048650 1_545
O22 Sb2 2.003815 1_555
O23 Sb0 2.025546 1_546
O24 Sb2 1.985752 1_555
O28 Sb2 2.038148 1_556
O29 Sb2 2.000904 1_556
O32 Sb2 2.022120 1_555
O35 Sb0 2.002674 1_646
