# generated using pymatgen
data_OsC4(ClO2)2
_symmetry_space_group_name_H-M   'P 1'
_cell_length_a   6.08941700
_cell_length_b   6.08941700
_cell_length_c   12.07405300
_cell_angle_alpha   90.00000000
_cell_angle_beta   90.00000000
_cell_angle_gamma   90.00000000
_symmetry_Int_Tables_number   1
_chemical_formula_structural   OsC4(ClO2)2
_chemical_formula_sum   'Os2 C8 Cl4 O8'
_cell_volume   447.71795205
_cell_formula_units_Z   2
loop_
 _symmetry_equiv_pos_site_id
 _symmetry_equiv_pos_as_xyz
  1  'x, y, z'
loop_
 _atom_site_type_symbol
 _atom_site_label
 _atom_site_symmetry_multiplicity
 _atom_site_fract_x
 _atom_site_fract_y
 _atom_site_fract_z
 _atom_site_occupancy
  Os  Os0  1  0.00000000  0.00000000  0.00000000  1
  Os  Os1  1  0.50000000  0.50000000  0.50000000  1
  C  C0  1  0.66057000  0.66057000  0.38380200  1
  C  C1  1  0.33943000  0.33943000  0.38380200  1
  C  C2  1  0.33943000  0.33943000  0.61619800  1
  C  C3  1  0.16057000  0.83943000  0.11619800  1
  C  C4  1  0.83943000  0.16057000  0.11619800  1
  C  C5  1  0.83943000  0.16057000  0.88380200  1
  C  C6  1  0.66057000  0.66057000  0.61619800  1
  C  C7  1  0.16057000  0.83943000  0.88380200  1
  Cl  Cl0  1  0.28339300  0.28339300  0.00000000  1
  Cl  Cl1  1  0.71660700  0.71660700  0.00000000  1
  Cl  Cl2  1  0.78339300  0.21660700  0.50000000  1
  Cl  Cl3  1  0.21660700  0.78339300  0.50000000  1
  O  O0  1  0.25104900  0.74895100  0.18610500  1
  O  O1  1  0.75104900  0.75104900  0.31389500  1
  O  O2  1  0.74895100  0.25104900  0.18610500  1
  O  O3  1  0.74895100  0.25104900  0.81389500  1
  O  O4  1  0.24895100  0.24895100  0.68610500  1
  O  O5  1  0.24895100  0.24895100  0.31389500  1
  O  O6  1  0.75104900  0.75104900  0.68610500  1
  O  O7  1  0.25104900  0.74895100  0.81389500  1
loop_
_geom_bond_atom_site_label_1
_geom_bond_atom_site_label_2
_geom_bond_distance
_geom_bond_site_symmetry_2
C0 O1 1.148722 1_555
C0 Os1 1.969887 1_555
C1 O5 1.148722 1_555
C1 Os1 1.969887 1_555
C2 O4 1.148722 1_555
C2 Os1 1.969887 1_555
C3 O0 1.148722 1_555
C3 Os0 1.969887 1_565
C4 O2 1.148722 1_555
C4 Os0 1.969887 1_655
C5 O3 1.148722 1_555
C5 Os0 1.969887 1_656
C6 O6 1.148722 1_555
C6 Os1 1.969887 1_555
C7 O7 1.148722 1_555
C7 Os0 1.969887 1_566
Cl0 Os0 2.440506 1_555
Cl1 Os0 2.440506 1_665
Cl2 Os1 2.440506 1_555
Cl3 Os1 2.440506 1_555
