# generated using pymatgen
data_ReAsC5SNO5F7
_symmetry_space_group_name_H-M   'P 1'
_cell_length_a   6.82286900
_cell_length_b   11.36689100
_cell_length_c   17.54944300
_cell_angle_alpha   90.00000000
_cell_angle_beta   90.00000000
_cell_angle_gamma   90.00000000
_symmetry_Int_Tables_number   1
_chemical_formula_structural   ReAsC5SNO5F7
_chemical_formula_sum   'Re4 As4 C20 S4 N4 O20 F28'
_cell_volume   1361.04368641
_cell_formula_units_Z   4
loop_
 _symmetry_equiv_pos_site_id
 _symmetry_equiv_pos_as_xyz
  1  'x, y, z'
loop_
 _atom_site_type_symbol
 _atom_site_label
 _atom_site_symmetry_multiplicity
 _atom_site_fract_x
 _atom_site_fract_y
 _atom_site_fract_z
 _atom_site_occupancy
  Re  Re0  1  0.76845000  0.46678600  0.12928900  1
  Re  Re1  1  0.23155000  0.96678600  0.37071100  1
  Re  Re2  1  0.73155000  0.53321400  0.62928900  1
  Re  Re3  1  0.26845000  0.03321400  0.87071100  1
  As  As0  1  0.78387100  0.00334600  0.63055800  1
  As  As1  1  0.71612900  0.99665400  0.13055800  1
  As  As2  1  0.21612900  0.50334600  0.86944200  1
  As  As3  1  0.28387100  0.49665400  0.36944200  1
  C  C0  1  0.84121100  0.39865400  0.69369400  1
  C  C1  1  0.53001000  0.94895900  0.87148900  1
  C  C2  1  0.83951300  0.37380700  0.22222800  1
  C  C3  1  0.15878900  0.89865400  0.80630600  1
  C  C4  1  0.50163400  0.88605900  0.37307800  1
  C  C5  1  0.49836600  0.38605900  0.12692200  1
  C  C6  1  0.96999000  0.05104100  0.37148900  1
  C  C7  1  0.88905300  0.33670300  0.06407500  1
  C  C8  1  0.46999000  0.44895900  0.62851100  1
  C  C9  1  0.11094700  0.83670300  0.43592500  1
  C  C10  1  0.38905300  0.16329700  0.93592500  1
  C  C11  1  0.61094700  0.66329700  0.56407500  1
  C  C12  1  0.34121100  0.10134600  0.30630600  1
  C  C13  1  0.33951300  0.12619300  0.77777200  1
  C  C14  1  0.65878900  0.60134600  0.19369400  1
  C  C15  1  0.00163400  0.61394100  0.62692200  1
  C  C16  1  0.16048700  0.87380700  0.27777200  1
  C  C17  1  0.03001000  0.55104100  0.12851100  1
  C  C18  1  0.99836600  0.11394100  0.87307800  1
  C  C19  1  0.66048700  0.62619300  0.72222800  1
  S  S0  1  0.20075200  0.86744300  0.03477500  1
  S  S1  1  0.29924800  0.13255700  0.53477500  1
  S  S2  1  0.79924800  0.36744300  0.46522500  1
  S  S3  1  0.70075200  0.63255700  0.96522500  1
  N  N0  1  0.30764900  0.05618800  0.46917900  1
  N  N1  1  0.19235100  0.94381200  0.96917900  1
  N  N2  1  0.80764900  0.44381200  0.53082100  1
  N  N3  1  0.69235100  0.55618800  0.03082100  1
  O  O0  1  0.96270000  0.26541700  0.02761500  1
  O  O1  1  0.89850800  0.32278500  0.73060400  1
  O  O2  1  0.17711300  0.60048500  0.12758800  1
  O  O3  1  0.62434800  0.68308900  0.77487700  1
  O  O4  1  0.12434800  0.81691100  0.22512300  1
  O  O5  1  0.34771100  0.34079700  0.12573700  1
  O  O6  1  0.82288700  0.10048500  0.37241200  1
  O  O7  1  0.65228900  0.84079700  0.37426300  1
  O  O8  1  0.53730000  0.73458300  0.52761500  1
  O  O9  1  0.60149200  0.67721500  0.23060400  1
  O  O10  1  0.15228900  0.65920300  0.62573700  1
  O  O11  1  0.32288700  0.39951500  0.62758800  1
  O  O12  1  0.37565200  0.18308900  0.72512300  1
  O  O13  1  0.46270000  0.23458300  0.97238500  1
  O  O14  1  0.87565200  0.31691100  0.27487700  1
  O  O15  1  0.10149200  0.82278500  0.76939600  1
  O  O16  1  0.67711300  0.89951500  0.87241200  1
  O  O17  1  0.03730000  0.76541700  0.47238500  1
  O  O18  1  0.84771100  0.15920300  0.87426300  1
  O  O19  1  0.39850800  0.17721500  0.26939600  1
  F  F0  1  0.16778100  0.35105000  0.85751600  1
  F  F1  1  0.47048400  0.47325300  0.87723100  1
  F  F2  1  0.97048400  0.02674700  0.12276900  1
  F  F3  1  0.10830800  0.22671600  0.53287100  1
  F  F4  1  0.03847400  0.03287300  0.64001500  1
  F  F5  1  0.89169200  0.72671600  0.96712900  1
  F  F6  1  0.76998200  0.84566600  0.11687700  1
  F  F7  1  0.46152600  0.96712700  0.14001500  1
  F  F8  1  0.39169200  0.77328400  0.03287100  1
  F  F9  1  0.81093600  0.98755900  0.53027700  1
  F  F10  1  0.52951600  0.97325300  0.62276900  1
  F  F11  1  0.66778100  0.14895000  0.14248400  1
  F  F12  1  0.68906400  0.01244100  0.03027700  1
  F  F13  1  0.60830800  0.27328400  0.46712900  1
  F  F14  1  0.83221900  0.85105000  0.64248400  1
  F  F15  1  0.33221900  0.64895000  0.35751600  1
  F  F16  1  0.25917800  0.47835800  0.26957000  1
  F  F17  1  0.75917800  0.02164200  0.73043000  1
  F  F18  1  0.74082200  0.97835800  0.23043000  1
  F  F19  1  0.73001800  0.15433400  0.61687700  1
  F  F20  1  0.53847400  0.46712700  0.35998500  1
  F  F21  1  0.31093600  0.51244100  0.46972300  1
  F  F22  1  0.02951600  0.52674700  0.37723100  1
  F  F23  1  0.18906400  0.48755900  0.96972300  1
  F  F24  1  0.23001800  0.34566600  0.38312300  1
  F  F25  1  0.24082200  0.52164200  0.76957000  1
  F  F26  1  0.96152600  0.53287300  0.85998500  1
  F  F27  1  0.26998200  0.65433400  0.88312300  1
loop_
_geom_bond_atom_site_label_1
_geom_bond_atom_site_label_2
_geom_bond_distance
_geom_bond_site_symmetry_2
As0 F19 1.771500 1_555
As0 F17 1.773016 1_555
As0 F10 1.774095 1_545
As0 F14 1.774666 1_545
As0 F4 1.777017 1_655
As0 F9 1.778613 1_545
As1 F6 1.771500 1_555
As1 F18 1.773016 1_555
As1 F2 1.774095 1_565
As1 F11 1.774666 1_565
As1 F7 1.777017 1_555
As1 F12 1.778613 1_565
As2 F27 1.771500 1_555
As2 F25 1.773016 1_555
As2 F1 1.774095 1_555
As2 F0 1.774666 1_555
As2 F26 1.777017 1_455
As2 F23 1.778613 1_555
As3 F24 1.771500 1_555
As3 F16 1.773016 1_555
As3 F22 1.774095 1_555
As3 F15 1.774666 1_555
As3 F20 1.777017 1_555
As3 F21 1.778613 1_555
C0 O1 1.147227 1_555
C0 Re2 2.043717 1_555
C1 O16 1.150424 1_555
C1 Re3 2.025381 1_565
C2 O14 1.154453 1_555
C2 Re0 2.003081 1_555
C3 O15 1.147227 1_555
C3 Re3 2.043717 1_565
C4 O7 1.149655 1_555
C4 Re1 2.058995 1_555
C5 O5 1.149655 1_555
C5 Re0 2.058995 1_555
C6 O6 1.150424 1_555
C6 Re1 2.025381 1_645
C7 O0 1.148254 1_555
C7 Re0 2.042861 1_555
C8 O11 1.150424 1_555
C8 Re2 2.025381 1_555
C9 O17 1.148254 1_555
C9 Re1 2.042861 1_555
C10 O13 1.148254 1_555
C10 Re3 2.042861 1_555
C11 O8 1.148254 1_555
C11 Re2 2.042861 1_555
C12 O19 1.147227 1_555
C12 Re1 2.043717 1_545
C13 O12 1.154453 1_555
C13 Re3 2.003081 1_555
C14 O9 1.147227 1_555
C14 Re0 2.043717 1_555
C15 O10 1.149655 1_555
C15 Re2 2.058995 1_455
C16 O4 1.154453 1_555
C16 Re1 2.003081 1_555
C17 O2 1.150424 1_555
C17 Re0 2.025381 1_455
C18 O18 1.149655 1_555
C18 Re3 2.058995 1_655
C19 O3 1.154453 1_555
C19 Re2 2.003081 1_555
N0 S1 1.442929 1_555
N0 Re1 2.070864 1_545
N1 S0 1.442929 1_556
N1 Re3 2.070864 1_565
N2 S2 1.442929 1_555
N2 Re2 2.070864 1_555
N3 S3 1.442929 1_554
N3 Re0 2.070864 1_555
F3 S1 1.686365 1_555
F5 S3 1.686365 1_555
F8 S0 1.686365 1_555
F13 S2 1.686365 1_555
