# generated using pymatgen
data_Ni2Sn4Au
_symmetry_space_group_name_H-M   'P 1'
_cell_length_a   9.20580103
_cell_length_b   9.20580103
_cell_length_c   9.20580035
_cell_angle_alpha   26.62376498
_cell_angle_beta   26.62376498
_cell_angle_gamma   26.62375701
_symmetry_Int_Tables_number   1
_chemical_formula_structural   Ni2Sn4Au
_chemical_formula_sum   'Ni2 Sn4 Au1'
_cell_volume   138.12149112
_cell_formula_units_Z   1
loop_
 _symmetry_equiv_pos_site_id
 _symmetry_equiv_pos_as_xyz
  1  'x, y, z'
loop_
 _atom_site_type_symbol
 _atom_site_label
 _atom_site_symmetry_multiplicity
 _atom_site_fract_x
 _atom_site_fract_y
 _atom_site_fract_z
 _atom_site_occupancy
  Ni  Ni0  1  0.59940138  0.59940138  0.59940138  1
  Ni  Ni1  1  0.40059862  0.40059862  0.40059862  1
  Sn  Sn0  1  0.70048667  0.70048667  0.70048667  1
  Sn  Sn1  1  0.88901593  0.88901593  0.88901593  1
  Sn  Sn2  1  0.29951333  0.29951333  0.29951333  1
  Sn  Sn3  1  0.11098407  0.11098407  0.11098407  1
  Au  Au0  1  0.50000000  0.50000000  0.50000000  1
loop_
_geom_bond_atom_site_label_1
_geom_bond_atom_site_label_2
_geom_bond_distance
_geom_bond_site_symmetry_2
Ni0 Sn2 2.604499 1_655
Ni0 Sn2 2.604499 1_565
Ni0 Sn2 2.604499 1_556
Ni0 Sn0 2.691235 1_555
Ni0 Sn1 2.710224 1_455
Ni0 Sn1 2.710224 1_545
Ni0 Sn1 2.710225 1_554
Ni1 Sn0 2.604499 1_545
Ni1 Sn0 2.604499 1_455
Ni1 Sn0 2.604499 1_554
Ni1 Sn2 2.691235 1_555
Ni1 Sn3 2.710224 1_565
Ni1 Sn3 2.710224 1_655
Ni1 Sn3 2.710225 1_556
Sn0 Sn2 3.038661 1_655
Sn0 Sn2 3.038661 1_565
Sn0 Sn2 3.038662 1_556
Sn0 Sn3 3.195464 1_656
Sn0 Sn3 3.195464 1_566
Sn0 Sn3 3.195465 1_665
Sn1 Sn2 3.195464 1_566
Sn1 Sn2 3.195464 1_656
Sn1 Sn2 3.195465 1_665
Au0 Ni1 2.646404 1_555
Au0 Ni0 2.646404 1_555
Au0 Sn1 2.861510 1_455
Au0 Sn3 2.861510 1_655
Au0 Sn3 2.861510 1_565
Au0 Sn1 2.861510 1_545
Au0 Sn3 2.861511 1_556
Au0 Sn1 2.861511 1_554
