# generated using pymatgen
data_Rb5Mo27Se31
_symmetry_space_group_name_H-M   'P 1'
_cell_length_a   9.73074803
_cell_length_b   9.73074803
_cell_length_c   37.79311300
_cell_angle_alpha   90.00000000
_cell_angle_beta   90.00000000
_cell_angle_gamma   120.00000020
_symmetry_Int_Tables_number   1
_chemical_formula_structural   Rb5Mo27Se31
_chemical_formula_sum   'Rb10 Mo54 Se62'
_cell_volume   3099.10114703
_cell_formula_units_Z   2
loop_
 _symmetry_equiv_pos_site_id
 _symmetry_equiv_pos_as_xyz
  1  'x, y, z'
loop_
 _atom_site_type_symbol
 _atom_site_label
 _atom_site_symmetry_multiplicity
 _atom_site_fract_x
 _atom_site_fract_y
 _atom_site_fract_z
 _atom_site_occupancy
  Rb  Rb0  1  0.66666700  0.33333300  0.52291300  1
  Rb  Rb1  1  0.33333300  0.66666700  0.31329200  1
  Rb  Rb2  1  0.66666700  0.33333300  0.81329200  1
  Rb  Rb3  1  0.66666700  0.33333300  0.68670800  1
  Rb  Rb4  1  0.66666700  0.33333300  0.97708700  1
  Rb  Rb5  1  0.00000000  0.00000000  0.25000000  1
  Rb  Rb6  1  0.33333300  0.66666700  0.02291300  1
  Rb  Rb7  1  0.00000000  0.00000000  0.75000000  1
  Rb  Rb8  1  0.33333300  0.66666700  0.18670800  1
  Rb  Rb9  1  0.33333300  0.66666700  0.47708700  1
  Mo  Mo0  1  0.98404400  0.15091700  0.52936300  1
  Mo  Mo1  1  0.68484500  0.18484600  0.25000000  1
  Mo  Mo2  1  0.50173600  0.68796400  0.87047000  1
  Mo  Mo3  1  0.16634600  0.65006800  0.69015700  1
  Mo  Mo4  1  0.15091700  0.16687300  0.02936300  1
  Mo  Mo5  1  0.16755900  0.02244700  0.40898600  1
  Mo  Mo6  1  0.31515500  0.81515400  0.75000000  1
  Mo  Mo7  1  0.84908300  0.83312700  0.97063700  1
  Mo  Mo8  1  0.83312700  0.98404400  0.02936300  1
  Mo  Mo9  1  0.34993200  0.51627800  0.80984300  1
  Mo  Mo10  1  0.97755300  0.14511200  0.40898600  1
  Mo  Mo11  1  0.51627800  0.16634600  0.19015700  1
  Mo  Mo12  1  0.48372200  0.83365400  0.80984300  1
  Mo  Mo13  1  0.16687300  0.01595600  0.52936300  1
  Mo  Mo14  1  0.02244700  0.85488800  0.59101400  1
  Mo  Mo15  1  0.83312700  0.98404400  0.47063700  1
  Mo  Mo16  1  0.14511200  0.16755900  0.90898600  1
  Mo  Mo17  1  0.14511200  0.16755900  0.59101400  1
  Mo  Mo18  1  0.83365400  0.34993200  0.19015700  1
  Mo  Mo19  1  0.02244700  0.85488800  0.90898600  1
  Mo  Mo20  1  0.16687300  0.01595600  0.97063700  1
  Mo  Mo21  1  0.48372200  0.83365400  0.69015700  1
  Mo  Mo22  1  0.85488800  0.83244100  0.09101400  1
  Mo  Mo23  1  0.01595600  0.84908300  0.02936300  1
  Mo  Mo24  1  0.34993200  0.51627800  0.69015700  1
  Mo  Mo25  1  0.83365400  0.34993200  0.30984300  1
  Mo  Mo26  1  0.16634600  0.65006800  0.80984300  1
  Mo  Mo27  1  0.65006800  0.48372200  0.19015700  1
  Mo  Mo28  1  0.50173600  0.68796400  0.62953000  1
  Mo  Mo29  1  0.81515400  0.49999800  0.25000000  1
  Mo  Mo30  1  0.81377200  0.50173600  0.12953000  1
  Mo  Mo31  1  0.98404400  0.15091700  0.97063700  1
  Mo  Mo32  1  0.31203600  0.81377200  0.87047000  1
  Mo  Mo33  1  0.18622800  0.49826400  0.62953000  1
  Mo  Mo34  1  0.16755900  0.02244700  0.09101400  1
  Mo  Mo35  1  0.49826400  0.31203600  0.12953000  1
  Mo  Mo36  1  0.97755300  0.14511200  0.09101400  1
  Mo  Mo37  1  0.01595600  0.84908300  0.47063700  1
  Mo  Mo38  1  0.65006800  0.48372200  0.30984300  1
  Mo  Mo39  1  0.18484600  0.50000200  0.75000000  1
  Mo  Mo40  1  0.83244100  0.97755300  0.90898600  1
  Mo  Mo41  1  0.68796400  0.18622800  0.12953000  1
  Mo  Mo42  1  0.15091700  0.16687300  0.47063700  1
  Mo  Mo43  1  0.49999800  0.68484500  0.75000000  1
  Mo  Mo44  1  0.83244100  0.97755300  0.59101400  1
  Mo  Mo45  1  0.85488800  0.83244100  0.40898600  1
  Mo  Mo46  1  0.84908300  0.83312700  0.52936300  1
  Mo  Mo47  1  0.51627800  0.16634600  0.30984300  1
  Mo  Mo48  1  0.68796400  0.18622800  0.37047000  1
  Mo  Mo49  1  0.50000200  0.31515500  0.25000000  1
  Mo  Mo50  1  0.81377200  0.50173600  0.37047000  1
  Mo  Mo51  1  0.18622800  0.49826400  0.87047000  1
  Mo  Mo52  1  0.49826400  0.31203600  0.37047000  1
  Mo  Mo53  1  0.31203600  0.81377200  0.62953000  1
  Se  Se0  1  0.29906500  0.95824200  0.81035300  1
  Se  Se1  1  0.00000000  0.00000000  0.14462700  1
  Se  Se2  1  0.03883900  0.70977400  0.41422400  1
  Se  Se3  1  0.00454500  0.62743300  0.63389200  1
  Se  Se4  1  0.67541200  0.96798500  0.96877200  1
  Se  Se5  1  0.70742700  0.67541200  0.03122800  1
  Se  Se6  1  0.62288800  0.99545500  0.63389200  1
  Se  Se7  1  0.95824200  0.65917600  0.31035300  1
  Se  Se8  1  0.62923500  0.62660200  0.25000000  1
  Se  Se9  1  0.62743300  0.62288800  0.13389200  1
  Se  Se10  1  0.37711200  0.00454500  0.36610800  1
  Se  Se11  1  0.37256700  0.37711200  0.63389200  1
  Se  Se12  1  0.33333300  0.66666700  0.92400700  1
  Se  Se13  1  0.32906500  0.03883900  0.91422400  1
  Se  Se14  1  0.03201500  0.70742700  0.96877200  1
  Se  Se15  1  0.99545500  0.37256700  0.36610800  1
  Se  Se16  1  0.99545500  0.37256700  0.13389200  1
  Se  Se17  1  0.03201500  0.70742700  0.53122800  1
  Se  Se18  1  0.00000000  0.00000000  0.35537300  1
  Se  Se19  1  0.00263200  0.62923500  0.75000000  1
  Se  Se20  1  0.33333300  0.66666700  0.57599300  1
  Se  Se21  1  0.34082400  0.29906500  0.18964700  1
  Se  Se22  1  0.37256700  0.37711200  0.86610800  1
  Se  Se23  1  0.95824200  0.65917600  0.18964700  1
  Se  Se24  1  0.37339800  0.00263200  0.25000000  1
  Se  Se25  1  0.29022600  0.32906500  0.08577600  1
  Se  Se26  1  0.62288800  0.99545500  0.86610800  1
  Se  Se27  1  0.66666700  0.33333300  0.42400700  1
  Se  Se28  1  0.99736800  0.37076500  0.25000000  1
  Se  Se29  1  0.67541200  0.96798500  0.53122800  1
  Se  Se30  1  0.00454500  0.62743300  0.86610800  1
  Se  Se31  1  0.70093500  0.04175800  0.18964700  1
  Se  Se32  1  0.34082400  0.29906500  0.31035300  1
  Se  Se33  1  0.29906500  0.95824200  0.68964700  1
  Se  Se34  1  0.04175800  0.34082400  0.81035300  1
  Se  Se35  1  0.70093500  0.04175800  0.31035300  1
  Se  Se36  1  0.29257300  0.32458800  0.53122800  1
  Se  Se37  1  0.70742700  0.67541200  0.46877200  1
  Se  Se38  1  0.65917600  0.70093500  0.68964700  1
  Se  Se39  1  0.32458800  0.03201500  0.46877200  1
  Se  Se40  1  0.32906500  0.03883900  0.58577600  1
  Se  Se41  1  0.96798500  0.29257300  0.46877200  1
  Se  Se42  1  0.70977400  0.67093500  0.91422400  1
  Se  Se43  1  0.96116100  0.29022600  0.58577600  1
  Se  Se44  1  0.67093500  0.96116100  0.41422400  1
  Se  Se45  1  0.03883900  0.70977400  0.08577600  1
  Se  Se46  1  0.37076500  0.37339800  0.75000000  1
  Se  Se47  1  0.96798500  0.29257300  0.03122800  1
  Se  Se48  1  0.96116100  0.29022600  0.91422400  1
  Se  Se49  1  0.70977400  0.67093500  0.58577600  1
  Se  Se50  1  0.00000000  0.00000000  0.64462700  1
  Se  Se51  1  0.29022600  0.32906500  0.41422400  1
  Se  Se52  1  0.37711200  0.00454500  0.13389200  1
  Se  Se53  1  0.00000000  0.00000000  0.85537300  1
  Se  Se54  1  0.62743300  0.62288800  0.36610800  1
  Se  Se55  1  0.65917600  0.70093500  0.81035300  1
  Se  Se56  1  0.32458800  0.03201500  0.03122800  1
  Se  Se57  1  0.29257300  0.32458800  0.96877200  1
  Se  Se58  1  0.62660200  0.99736800  0.75000000  1
  Se  Se59  1  0.66666700  0.33333300  0.07599300  1
  Se  Se60  1  0.67093500  0.96116100  0.08577600  1
  Se  Se61  1  0.04175800  0.34082400  0.68964700  1
loop_
_geom_bond_atom_site_label_1
_geom_bond_atom_site_label_2
_geom_bond_distance
_geom_bond_site_symmetry_2
Rb0 Se29 3.612107 1_545
Rb0 Se17 3.612112 1_655
Rb0 Se36 3.612117 1_555
Rb0 Se27 3.737966 1_555
Rb0 Se41 3.755517 1_555
Rb0 Se39 3.755522 1_555
Rb0 Se37 3.755525 1_555
Rb0 Se43 3.903112 1_555
Rb0 Se40 3.903117 1_555
Rb0 Se49 3.903120 1_555
Rb1 Se7 3.615727 1_455
Rb1 Se35 3.615737 1_565
Rb1 Se32 3.615747 1_555
Rb1 Se10 3.684409 1_565
Rb1 Se15 3.684412 1_455
Rb1 Se54 3.684417 1_555
Rb1 Se24 3.909826 1_565
Rb1 Se28 3.909832 1_455
Rb1 Se8 3.909841 1_555
Rb2 Se34 3.615727 1_655
Rb2 Se0 3.615737 1_545
Rb2 Se55 3.615747 1_555
Rb2 Se26 3.684409 1_545
Rb2 Se30 3.684412 1_655
Rb2 Se22 3.684417 1_555
Rb2 Se58 3.909826 1_545
Rb2 Se19 3.909832 1_655
Rb2 Se46 3.909841 1_555
Rb3 Se61 3.615727 1_655
Rb3 Se33 3.615737 1_545
Rb3 Se38 3.615747 1_555
Rb3 Se6 3.684409 1_545
Rb3 Se3 3.684412 1_655
Rb3 Se11 3.684417 1_555
Rb3 Se58 3.909826 1_545
Rb3 Se19 3.909832 1_655
Rb3 Se46 3.909841 1_555
Rb4 Se4 3.612107 1_545
Rb4 Se14 3.612112 1_655
Rb4 Se57 3.612117 1_555
Rb4 Se59 3.737966 1_556
Rb4 Se47 3.755517 1_556
Rb4 Se56 3.755522 1_556
Rb4 Se5 3.755525 1_556
Rb4 Se48 3.903112 1_555
Rb4 Se13 3.903117 1_555
Rb4 Se42 3.903120 1_555
Rb5 Se28 3.620694 1_455
Rb5 Se8 3.620699 1_445
Rb5 Se24 3.620704 1_555
Rb5 Se35 3.875444 1_455
Rb5 Se31 3.875444 1_455
Rb5 Se32 3.875449 1_555
Rb5 Se21 3.875449 1_555
Rb5 Se7 3.875452 1_445
Rb5 Se23 3.875452 1_445
Rb5 Se18 3.982374 1_555
Rb5 Se1 3.982374 1_555
Rb6 Se56 3.612107 1_565
Rb6 Se47 3.612112 1_455
Rb6 Se5 3.612117 1_555
Rb6 Se12 3.737966 1_554
Rb6 Se14 3.755517 1_554
Rb6 Se4 3.755522 1_554
Rb6 Se57 3.755525 1_554
Rb6 Se45 3.903112 1_555
Rb6 Se60 3.903117 1_555
Rb6 Se25 3.903120 1_555
Rb7 Se19 3.620694 1_545
Rb7 Se46 3.620699 1_555
Rb7 Se58 3.620704 1_445
Rb7 Se33 3.875444 1_545
Rb7 Se0 3.875444 1_545
Rb7 Se55 3.875449 1_445
Rb7 Se38 3.875449 1_445
Rb7 Se34 3.875452 1_555
Rb7 Se61 3.875452 1_555
Rb7 Se53 3.982374 1_555
Rb7 Se50 3.982374 1_555
Rb8 Se23 3.615727 1_455
Rb8 Se31 3.615737 1_565
Rb8 Se21 3.615747 1_555
Rb8 Se52 3.684409 1_565
Rb8 Se16 3.684412 1_455
Rb8 Se9 3.684417 1_555
Rb8 Se24 3.909826 1_565
Rb8 Se28 3.909832 1_455
Rb8 Se8 3.909841 1_555
Rb9 Se39 3.612107 1_565
Rb9 Se41 3.612112 1_455
Rb9 Se37 3.612117 1_555
Rb9 Se20 3.737966 1_555
Rb9 Se17 3.755517 1_555
Rb9 Se29 3.755522 1_555
Rb9 Se36 3.755525 1_555
Rb9 Se2 3.903112 1_555
Rb9 Se44 3.903117 1_555
Rb9 Se51 3.903120 1_555
Mo0 Se43 2.595101 1_555
Mo0 Se36 2.607798 1_655
Mo0 Se29 2.616678 1_545
Mo0 Se41 2.717279 1_555
Mo1 Se24 2.637215 1_555
Mo1 Se28 2.649419 1_555
Mo1 Se35 2.717313 1_555
Mo1 Se31 2.717313 1_555
Mo2 Se12 2.546078 1_555
Mo2 Se26 2.615787 1_555
Mo2 Se22 2.637161 1_555
Mo2 Se42 2.682416 1_555
Mo2 Se55 2.707700 1_555
Mo3 Se3 2.588882 1_555
Mo3 Se33 2.605387 1_555
Mo3 Se61 2.622429 1_555
Mo3 Se19 2.714970 1_555
Mo4 Se25 2.595101 1_555
Mo4 Se56 2.607798 1_555
Mo4 Se47 2.616678 1_455
Mo4 Se57 2.717279 1_554
Mo5 Se18 2.540770 1_555
Mo5 Se51 2.608562 1_555
Mo5 Se2 2.655975 1_545
Mo5 Se10 2.677595 1_555
Mo5 Se39 2.703064 1_555
Mo6 Se58 2.637215 1_555
Mo6 Se19 2.649419 1_555
Mo6 Se33 2.717313 1_555
Mo6 Se0 2.717313 1_555
Mo7 Se42 2.595101 1_555
Mo7 Se4 2.607798 1_555
Mo7 Se14 2.616678 1_655
Mo7 Se5 2.717279 1_556
Mo8 Se60 2.595101 1_555
Mo8 Se47 2.607798 1_565
Mo8 Se5 2.616678 1_555
Mo8 Se4 2.717279 1_554
Mo9 Se22 2.588882 1_555
Mo9 Se34 2.605386 1_555
Mo9 Se55 2.622431 1_555
Mo9 Se46 2.714965 1_555
Mo10 Se18 2.540770 1_655
Mo10 Se44 2.608562 1_545
Mo10 Se51 2.655975 1_655
Mo10 Se15 2.677595 1_555
Mo10 Se41 2.703064 1_555
Mo11 Se52 2.588882 1_555
Mo11 Se21 2.605378 1_555
Mo11 Se31 2.622438 1_555
Mo11 Se24 2.714968 1_555
Mo12 Se26 2.588882 1_555
Mo12 Se55 2.605378 1_555
Mo12 Se0 2.622438 1_555
Mo12 Se58 2.714968 1_555
Mo13 Se40 2.595101 1_555
Mo13 Se17 2.607798 1_545
Mo13 Se36 2.616678 1_555
Mo13 Se39 2.717279 1_555
Mo14 Se50 2.540770 1_565
Mo14 Se40 2.608562 1_565
Mo14 Se49 2.655975 1_455
Mo14 Se3 2.677595 1_555
Mo14 Se17 2.703064 1_555
Mo15 Se44 2.595101 1_555
Mo15 Se41 2.607798 1_565
Mo15 Se37 2.616678 1_555
Mo15 Se29 2.717279 1_555
Mo16 Se53 2.540770 1_555
Mo16 Se48 2.608562 1_455
Mo16 Se13 2.655975 1_555
Mo16 Se22 2.677595 1_555
Mo16 Se57 2.703064 1_555
Mo17 Se50 2.540770 1_555
Mo17 Se43 2.608562 1_455
Mo17 Se40 2.655975 1_555
Mo17 Se11 2.677595 1_555
Mo17 Se36 2.703064 1_555
Mo18 Se16 2.588882 1_555
Mo18 Se31 2.605387 1_555
Mo18 Se23 2.622429 1_555
Mo18 Se28 2.714970 1_555
Mo19 Se53 2.540770 1_565
Mo19 Se13 2.608562 1_565
Mo19 Se42 2.655975 1_455
Mo19 Se30 2.677595 1_555
Mo19 Se14 2.703064 1_555
Mo20 Se13 2.595101 1_555
Mo20 Se14 2.607798 1_545
Mo20 Se57 2.616678 1_555
Mo20 Se56 2.717279 1_556
Mo21 Se6 2.588882 1_555
Mo21 Se38 2.605378 1_555
Mo21 Se33 2.622438 1_555
Mo21 Se58 2.714968 1_555
Mo22 Se1 2.540770 1_665
Mo22 Se45 2.608562 1_655
Mo22 Se60 2.655975 1_555
Mo22 Se9 2.677595 1_555
Mo22 Se5 2.703064 1_555
Mo23 Se45 2.595101 1_555
Mo23 Se5 2.607798 1_455
Mo23 Se56 2.616678 1_565
Mo23 Se14 2.717279 1_554
Mo24 Se11 2.588882 1_555
Mo24 Se61 2.605386 1_555
Mo24 Se38 2.622431 1_555
Mo24 Se46 2.714965 1_555
Mo25 Se15 2.588882 1_555
Mo25 Se35 2.605387 1_555
Mo25 Se7 2.622429 1_555
Mo25 Se28 2.714970 1_555
Mo26 Se30 2.588882 1_555
Mo26 Se0 2.605387 1_555
Mo26 Se34 2.622429 1_555
Mo26 Se19 2.714970 1_555
Mo27 Se9 2.588882 1_555
Mo27 Se23 2.605386 1_555
Mo27 Se21 2.622431 1_555
Mo27 Se8 2.714965 1_555
Mo28 Se20 2.546078 1_555
Mo28 Se6 2.615787 1_555
Mo28 Se11 2.637161 1_555
Mo28 Se49 2.682416 1_555
Mo28 Se38 2.707700 1_555
Mo29 Se28 2.637215 1_555
Mo29 Se8 2.649419 1_555
Mo29 Se7 2.717313 1_555
Mo29 Se23 2.717313 1_555
Mo30 Se59 2.546075 1_555
Mo30 Se9 2.615787 1_555
Mo30 Se16 2.637161 1_555
Mo30 Se45 2.682416 1_655
Mo30 Se23 2.707702 1_555
Mo31 Se48 2.595101 1_555
Mo31 Se57 2.607798 1_655
Mo31 Se4 2.616678 1_545
Mo31 Se47 2.717279 1_556
Mo32 Se12 2.546072 1_555
Mo32 Se30 2.615787 1_555
Mo32 Se26 2.637161 1_555
Mo32 Se13 2.682416 1_565
Mo32 Se0 2.707705 1_555
Mo33 Se20 2.546075 1_555
Mo33 Se11 2.615787 1_555
Mo33 Se3 2.637161 1_555
Mo33 Se43 2.682416 1_455
Mo33 Se61 2.707702 1_555
Mo34 Se1 2.540770 1_555
Mo34 Se25 2.608562 1_555
Mo34 Se45 2.655975 1_545
Mo34 Se52 2.677595 1_555
Mo34 Se56 2.703064 1_555
Mo35 Se59 2.546078 1_555
Mo35 Se52 2.615787 1_555
Mo35 Se9 2.637161 1_555
Mo35 Se25 2.682416 1_555
Mo35 Se21 2.707700 1_555
Mo36 Se1 2.540770 1_655
Mo36 Se60 2.608562 1_545
Mo36 Se25 2.655975 1_655
Mo36 Se16 2.677595 1_555
Mo36 Se47 2.703064 1_555
Mo37 Se2 2.595101 1_555
Mo37 Se37 2.607798 1_455
Mo37 Se39 2.616678 1_565
Mo37 Se17 2.717279 1_555
Mo38 Se54 2.588882 1_555
Mo38 Se7 2.605386 1_555
Mo38 Se32 2.622431 1_555
Mo38 Se8 2.714965 1_555
Mo39 Se19 2.637215 1_555
Mo39 Se46 2.649419 1_555
Mo39 Se61 2.717313 1_555
Mo39 Se34 2.717313 1_555
Mo40 Se53 2.540770 1_665
Mo40 Se42 2.608562 1_555
Mo40 Se48 2.655975 1_565
Mo40 Se26 2.677595 1_555
Mo40 Se4 2.703064 1_555
Mo41 Se59 2.546072 1_555
Mo41 Se16 2.615787 1_555
Mo41 Se52 2.637161 1_555
Mo41 Se60 2.682416 1_545
Mo41 Se31 2.707705 1_555
Mo42 Se51 2.595101 1_555
Mo42 Se39 2.607798 1_555
Mo42 Se41 2.616678 1_455
Mo42 Se36 2.717279 1_555
Mo43 Se46 2.637215 1_555
Mo43 Se58 2.649419 1_555
Mo43 Se38 2.717313 1_555
Mo43 Se55 2.717313 1_555
Mo44 Se50 2.540770 1_665
Mo44 Se49 2.608562 1_555
Mo44 Se43 2.655975 1_565
Mo44 Se6 2.677595 1_555
Mo44 Se29 2.703064 1_555
Mo45 Se18 2.540770 1_665
Mo45 Se2 2.608562 1_655
Mo45 Se44 2.655975 1_555
Mo45 Se54 2.677595 1_555
Mo45 Se37 2.703064 1_555
Mo46 Se49 2.595101 1_555
Mo46 Se29 2.607798 1_555
Mo46 Se17 2.616678 1_655
Mo46 Se37 2.717279 1_555
Mo47 Se10 2.588882 1_555
Mo47 Se32 2.605378 1_555
Mo47 Se35 2.622438 1_555
Mo47 Se24 2.714968 1_555
Mo48 Se27 2.546072 1_555
Mo48 Se15 2.615787 1_555
Mo48 Se10 2.637161 1_555
Mo48 Se44 2.682416 1_545
Mo48 Se35 2.707705 1_555
Mo49 Se8 2.637215 1_555
Mo49 Se24 2.649419 1_555
Mo49 Se32 2.717313 1_555
Mo49 Se21 2.717313 1_555
Mo50 Se27 2.546075 1_555
Mo50 Se54 2.615787 1_555
Mo50 Se15 2.637161 1_555
Mo50 Se2 2.682416 1_655
Mo50 Se7 2.707702 1_555
Mo51 Se12 2.546075 1_555
Mo51 Se22 2.615787 1_555
Mo51 Se30 2.637161 1_555
Mo51 Se48 2.682416 1_455
Mo51 Se34 2.707702 1_555
Mo52 Se27 2.546078 1_555
Mo52 Se10 2.615787 1_555
Mo52 Se54 2.637161 1_555
Mo52 Se51 2.682416 1_555
Mo52 Se32 2.707700 1_555
Mo53 Se20 2.546072 1_555
Mo53 Se3 2.615787 1_555
Mo53 Se6 2.637161 1_555
Mo53 Se40 2.682416 1_565
Mo53 Se33 2.707705 1_555
