# generated using pymatgen
data_LaSClO4
_symmetry_space_group_name_H-M   'P 1'
_cell_length_a   8.22704100
_cell_length_b   6.82492900
_cell_length_c   8.73515244
_cell_angle_alpha   66.15988172
_cell_angle_beta   90.00000000
_cell_angle_gamma   90.00000000
_symmetry_Int_Tables_number   1
_chemical_formula_structural   LaSClO4
_chemical_formula_sum   'La4 S4 Cl4 O16'
_cell_volume   448.62140440
_cell_formula_units_Z   4
loop_
 _symmetry_equiv_pos_site_id
 _symmetry_equiv_pos_as_xyz
  1  'x, y, z'
loop_
 _atom_site_type_symbol
 _atom_site_label
 _atom_site_symmetry_multiplicity
 _atom_site_fract_x
 _atom_site_fract_y
 _atom_site_fract_z
 _atom_site_occupancy
  La  La0  1  0.69248700  0.62110700  0.26869700  1
  La  La1  1  0.80751300  0.62110700  0.76869700  1
  La  La2  1  0.19248700  0.37889300  0.23130300  1
  La  La3  1  0.30751300  0.37889300  0.73130300  1
  S  S0  1  0.91820600  0.22425500  0.56604900  1
  S  S1  1  0.58179400  0.22425500  0.06604900  1
  S  S2  1  0.41820600  0.77574500  0.93395100  1
  S  S3  1  0.08179400  0.77574500  0.43395100  1
  Cl  Cl0  1  0.03602600  0.27385900  0.96890300  1
  Cl  Cl1  1  0.46397400  0.27385900  0.46890300  1
  Cl  Cl2  1  0.96397400  0.72614100  0.03109700  1
  Cl  Cl3  1  0.53602600  0.72614100  0.53109700  1
  O  O0  1  0.34905600  0.99226100  0.87050600  1
  O  O1  1  0.08798600  0.67615500  0.62422700  1
  O  O2  1  0.90868100  0.78165600  0.38508300  1
  O  O3  1  0.15094400  0.99226100  0.37050600  1
  O  O4  1  0.18137700  0.63332300  0.37994400  1
  O  O5  1  0.81862300  0.36667700  0.62005600  1
  O  O6  1  0.59131900  0.78165600  0.88508300  1
  O  O7  1  0.65094400  0.00773900  0.12949400  1
  O  O8  1  0.58798600  0.32384500  0.87577300  1
  O  O9  1  0.68137700  0.36667700  0.12005600  1
  O  O10  1  0.41201400  0.67615500  0.12422700  1
  O  O11  1  0.84905600  0.00773900  0.62949400  1
  O  O12  1  0.09131900  0.21834400  0.61491700  1
  O  O13  1  0.31862300  0.63332300  0.87994400  1
  O  O14  1  0.91201400  0.32384500  0.37577300  1
  O  O15  1  0.40868100  0.21834400  0.11491700  1
loop_
_geom_bond_atom_site_label_1
_geom_bond_atom_site_label_2
_geom_bond_distance
_geom_bond_site_symmetry_2
La0 O7 2.442244 1_565
La0 O2 2.509636 1_555
La0 O9 2.555797 1_555
La0 O10 2.583570 1_555
La0 O14 2.592050 1_555
La0 O5 3.033775 1_555
La0 O6 3.186529 1_554
La1 O11 2.442244 1_565
La1 O6 2.509636 1_555
La1 O5 2.555797 1_555
La1 O1 2.583570 1_655
La1 O8 2.592050 1_555
La1 O9 3.033775 1_556
La1 O2 3.186529 1_555
La2 O3 2.442244 1_545
La2 O15 2.509636 1_555
La2 O4 2.555797 1_555
La2 O14 2.583570 1_455
La2 O10 2.592050 1_555
La2 O13 3.033775 1_554
La2 O12 3.186529 1_555
La3 O0 2.442244 1_545
La3 O12 2.509636 1_555
La3 O13 2.555797 1_555
La3 O8 2.583570 1_555
La3 O1 2.592050 1_555
La3 O4 3.033775 1_555
La3 O15 3.186529 1_556
Cl0 La3 2.933844 1_555
Cl0 La2 2.958506 1_556
Cl0 La1 2.976404 1_455
Cl1 La2 2.933844 1_555
Cl1 La3 2.958506 1_555
Cl1 La0 2.976404 1_555
Cl2 La0 2.933844 1_555
Cl2 La1 2.958506 1_554
Cl2 La2 2.976404 1_655
Cl3 La1 2.933844 1_555
Cl3 La0 2.958506 1_555
Cl3 La3 2.976404 1_555
O0 S2 1.467102 1_555
O1 S3 1.521149 1_555
O2 S3 1.482664 1_655
O3 S3 1.467102 1_555
O4 S3 1.486363 1_555
O5 S0 1.486363 1_555
O6 S2 1.482664 1_555
O7 S1 1.467102 1_555
O8 S1 1.521149 1_556
O9 S1 1.486363 1_555
O10 S2 1.521149 1_554
O11 S0 1.467102 1_555
O12 S0 1.482664 1_455
O13 S2 1.486363 1_555
O14 S0 1.521149 1_555
O15 S1 1.482664 1_555
