# generated using pymatgen
data_Ag2PdO2
_symmetry_space_group_name_H-M   'P 1'
_cell_length_a   5.80390462
_cell_length_b   5.80390462
_cell_length_c   5.80390462
_cell_angle_alpha   149.45845671
_cell_angle_beta   133.34950664
_cell_angle_gamma   56.79009531
_symmetry_Int_Tables_number   1
_chemical_formula_structural   Ag2PdO2
_chemical_formula_sum   'Ag2 Pd1 O2'
_cell_volume   71.74228473
_cell_formula_units_Z   1
loop_
 _symmetry_equiv_pos_site_id
 _symmetry_equiv_pos_as_xyz
  1  'x, y, z'
loop_
 _atom_site_type_symbol
 _atom_site_label
 _atom_site_symmetry_multiplicity
 _atom_site_fract_x
 _atom_site_fract_y
 _atom_site_fract_z
 _atom_site_occupancy
  Ag  Ag0  1  0.35941200  0.35941200  0.00000000  1
  Ag  Ag1  1  0.64058800  0.64058800  0.00000000  1
  Pd  Pd0  1  0.00000000  0.00000000  0.00000000  1
  O  O0  1  0.13712700  0.63712700  0.50000000  1
  O  O1  1  0.86287300  0.36287300  0.50000000  1
loop_
_geom_bond_atom_site_label_1
_geom_bond_atom_site_label_2
_geom_bond_distance
_geom_bond_site_symmetry_2
Ag0 O1 2.298329 1_454
Ag0 O1 2.298329 1_555
Ag0 O0 2.736564 1_555
Ag0 O0 2.736564 1_544
Ag1 O0 2.298329 1_655
Ag1 O0 2.298329 1_554
Ag1 O1 2.736564 1_554
Ag1 O1 2.736564 1_565
O0 Pd0 2.073019 1_566
O0 Pd0 2.073019 1_555
O1 Pd0 2.073019 1_666
O1 Pd0 2.073019 1_655
