# generated using pymatgen
data_KZr2(AsO4)3
_symmetry_space_group_name_H-M   'P 1'
_cell_length_a   9.87988585
_cell_length_b   9.87988585
_cell_length_c   9.87988622
_cell_angle_alpha   55.84946786
_cell_angle_beta   55.84946786
_cell_angle_gamma   55.84946773
_symmetry_Int_Tables_number   1
_chemical_formula_structural   KZr2(AsO4)3
_chemical_formula_sum   'K2 Zr4 As6 O24'
_cell_volume   616.31572381
_cell_formula_units_Z   2
loop_
 _symmetry_equiv_pos_site_id
 _symmetry_equiv_pos_as_xyz
  1  'x, y, z'
loop_
 _atom_site_type_symbol
 _atom_site_label
 _atom_site_symmetry_multiplicity
 _atom_site_fract_x
 _atom_site_fract_y
 _atom_site_fract_z
 _atom_site_occupancy
  K  K0  1  0.50000000  0.50000000  0.50000000  1
  K  K1  1  0.00000000  0.00000000  0.00000000  1
  Zr  Zr0  1  0.64765900  0.64765900  0.64765900  1
  Zr  Zr1  1  0.85234100  0.85234100  0.85234100  1
  Zr  Zr2  1  0.35234100  0.35234100  0.35234100  1
  Zr  Zr3  1  0.14765900  0.14765900  0.14765900  1
  As  As0  1  0.46558100  0.03441900  0.75000000  1
  As  As1  1  0.03441900  0.75000000  0.46558100  1
  As  As2  1  0.75000000  0.46558100  0.03441900  1
  As  As3  1  0.53441900  0.96558100  0.25000000  1
  As  As4  1  0.96558100  0.25000000  0.53441900  1
  As  As5  1  0.25000000  0.53441900  0.96558100  1
  O  O0  1  0.48946600  0.85531700  0.73892300  1
  O  O1  1  0.85531700  0.73892300  0.48946600  1
  O  O2  1  0.73892300  0.48946600  0.85531700  1
  O  O3  1  0.64468300  0.01053400  0.76107700  1
  O  O4  1  0.01053400  0.76107700  0.64468300  1
  O  O5  1  0.76107700  0.64468300  0.01053400  1
  O  O6  1  0.51053400  0.14468300  0.26107700  1
  O  O7  1  0.14468300  0.26107700  0.51053400  1
  O  O8  1  0.26107700  0.51053400  0.14468300  1
  O  O9  1  0.35531700  0.98946600  0.23892300  1
  O  O10  1  0.98946600  0.23892300  0.35531700  1
  O  O11  1  0.23892300  0.35531700  0.98946600  1
  O  O12  1  0.56663300  0.78452900  0.43160200  1
  O  O13  1  0.78452900  0.43160200  0.56663300  1
  O  O14  1  0.43160200  0.56663300  0.78452900  1
  O  O15  1  0.71547100  0.93336700  0.06839800  1
  O  O16  1  0.93336700  0.06839800  0.71547100  1
  O  O17  1  0.06839800  0.71547100  0.93336700  1
  O  O18  1  0.43336700  0.21547100  0.56839800  1
  O  O19  1  0.21547100  0.56839800  0.43336700  1
  O  O20  1  0.56839800  0.43336700  0.21547100  1
  O  O21  1  0.28452900  0.06663300  0.93160200  1
  O  O22  1  0.06663300  0.93160200  0.28452900  1
  O  O23  1  0.93160200  0.28452900  0.06663300  1
loop_
_geom_bond_atom_site_label_1
_geom_bond_atom_site_label_2
_geom_bond_distance
_geom_bond_site_symmetry_2
K0 O12 2.870174 1_555
K0 O18 2.870174 1_555
K0 O13 2.870174 1_555
K0 O19 2.870174 1_555
K0 O14 2.870174 1_555
K0 O20 2.870174 1_555
K1 O21 2.870174 1_554
K1 O15 2.870174 1_445
K1 O23 2.870174 1_455
K1 O17 2.870174 1_544
K1 O22 2.870174 1_545
K1 O16 2.870174 1_454
As0 O0 1.708340 1_545
As0 O3 1.708340 1_555
As0 O21 1.708443 1_555
As0 O18 1.708443 1_555
As1 O1 1.708340 1_455
As1 O4 1.708340 1_555
As1 O19 1.708443 1_555
As1 O22 1.708443 1_555
As2 O5 1.708340 1_555
As2 O2 1.708340 1_554
As2 O23 1.708443 1_555
As2 O20 1.708443 1_555
As3 O9 1.708340 1_555
As3 O6 1.708340 1_565
As3 O15 1.708443 1_555
As3 O12 1.708443 1_555
As4 O7 1.708340 1_655
As4 O10 1.708340 1_555
As4 O13 1.708443 1_555
As4 O16 1.708443 1_555
As5 O11 1.708340 1_555
As5 O8 1.708340 1_556
As5 O17 1.708443 1_555
As5 O14 1.708443 1_555
O0 Zr0 2.087965 1_555
O1 Zr0 2.087965 1_555
O2 Zr0 2.087965 1_555
O3 Zr1 2.087965 1_545
O4 Zr1 2.087965 1_455
O5 Zr1 2.087965 1_554
O6 Zr2 2.087965 1_555
O7 Zr2 2.087965 1_555
O8 Zr2 2.087965 1_555
O9 Zr3 2.087965 1_565
O10 Zr3 2.087965 1_655
O11 Zr3 2.087965 1_556
O12 Zr0 2.118577 1_555
O13 Zr0 2.118577 1_555
O14 Zr0 2.118577 1_555
O15 Zr1 2.118577 1_554
O16 Zr1 2.118577 1_545
O17 Zr1 2.118577 1_455
O18 Zr2 2.118577 1_555
O19 Zr2 2.118577 1_555
O20 Zr2 2.118577 1_555
O21 Zr3 2.118577 1_556
O22 Zr3 2.118577 1_565
O23 Zr3 2.118577 1_655
