# generated using pymatgen
data_V2Cu5(HO3)4
_symmetry_space_group_name_H-M   'P 1'
_cell_length_a   5.52096277
_cell_length_b   6.30386621
_cell_length_c   6.94612635
_cell_angle_alpha   86.43083855
_cell_angle_beta   90.57181647
_cell_angle_gamma   89.64545072
_symmetry_Int_Tables_number   1
_chemical_formula_structural   V2Cu5(HO3)4
_chemical_formula_sum   'V2 Cu5 H4 O12'
_cell_volume   241.26235486
_cell_formula_units_Z   1
loop_
 _symmetry_equiv_pos_site_id
 _symmetry_equiv_pos_as_xyz
  1  'x, y, z'
loop_
 _atom_site_type_symbol
 _atom_site_label
 _atom_site_symmetry_multiplicity
 _atom_site_fract_x
 _atom_site_fract_y
 _atom_site_fract_z
 _atom_site_occupancy
  V  V0  1  0.44267500  0.19125300  0.68615700  1
  V  V1  1  0.55732500  0.80874700  0.31384300  1
  Cu  Cu0  1  0.99644100  0.84679300  0.66177200  1
  Cu  Cu1  1  0.00000000  0.50000000  0.00000000  1
  Cu  Cu2  1  0.00355900  0.15320700  0.33822800  1
  Cu  Cu3  1  0.49661600  0.68306600  0.82175000  1
  Cu  Cu4  1  0.50338400  0.31693400  0.17825000  1
  H  H0  1  0.20927400  0.87851600  0.00926300  1
  H  H1  1  0.79868900  0.47375100  0.65519600  1
  H  H2  1  0.79072600  0.12148400  0.99073700  1
  H  H3  1  0.20131100  0.52624900  0.34480400  1
  O  O0  1  0.38825800  0.38699800  0.85094200  1
  O  O1  1  0.60647200  0.97891800  0.80437700  1
  O  O2  1  0.84938100  0.88346100  0.40522700  1
  O  O3  1  0.37531300  0.70475800  0.49099600  1
  O  O4  1  0.62468700  0.29524200  0.50900400  1
  O  O5  1  0.61174200  0.61300200  0.14905800  1
  O  O6  1  0.39352800  0.02108200  0.19562300  1
  O  O7  1  0.16845400  0.41745300  0.24930200  1
  O  O8  1  0.83422200  0.22851200  0.08480100  1
  O  O9  1  0.15061900  0.11653900  0.59477300  1
  O  O10  1  0.83154600  0.58254700  0.75069800  1
  O  O11  1  0.16577800  0.77148800  0.91519900  1
loop_
_geom_bond_atom_site_label_1
_geom_bond_atom_site_label_2
_geom_bond_distance
_geom_bond_site_symmetry_2
Cu0 O9 1.939056 1_665
Cu0 O2 1.950807 1_555
Cu0 O10 1.971550 1_555
Cu0 O11 2.013900 1_655
Cu0 O1 2.536422 1_555
Cu0 O3 2.596688 1_655
Cu1 O7 1.996029 1_555
Cu1 O10 1.996029 1_454
Cu1 O11 2.004560 1_554
Cu1 O8 2.004560 1_455
Cu1 O0 2.508289 1_554
Cu1 O5 2.508289 1_455
Cu2 O2 1.939056 1_445
Cu2 O9 1.950807 1_555
Cu2 O7 1.971550 1_555
Cu2 O8 2.013900 1_455
Cu2 O6 2.536422 1_555
Cu2 O4 2.596688 1_455
Cu3 O1 1.961664 1_555
Cu3 O0 1.962518 1_555
Cu3 O10 2.026587 1_555
Cu3 O11 2.030865 1_555
Cu3 O5 2.368678 1_556
Cu3 O3 2.382135 1_555
Cu4 O6 1.961664 1_555
Cu4 O5 1.962518 1_555
Cu4 O7 2.026587 1_555
Cu4 O8 2.030865 1_555
Cu4 O0 2.368678 1_554
Cu4 O4 2.382135 1_555
H0 O11 0.996765 1_554
H1 O10 0.999559 1_555
H2 O8 0.996765 1_556
H3 O7 0.999559 1_555
O0 V0 1.761015 1_555
O1 V0 1.765537 1_565
O2 V1 1.803020 1_555
O3 V1 1.698855 1_555
O4 V0 1.698855 1_555
O5 V1 1.761015 1_555
O6 V1 1.765537 1_545
O9 V0 1.803020 1_555
