# generated using pymatgen
data_Cs2NaCoF6
_symmetry_space_group_name_H-M   'P 1'
_cell_length_a   10.80258952
_cell_length_b   10.80258952
_cell_length_c   10.80258984
_cell_angle_alpha   33.78505130
_cell_angle_beta   33.78505130
_cell_angle_gamma   33.78505037
_symmetry_Int_Tables_number   1
_chemical_formula_structural   Cs2NaCoF6
_chemical_formula_sum   'Cs4 Na2 Co2 F12'
_cell_volume   347.34605819
_cell_formula_units_Z   2
loop_
 _symmetry_equiv_pos_site_id
 _symmetry_equiv_pos_as_xyz
  1  'x, y, z'
loop_
 _atom_site_type_symbol
 _atom_site_label
 _atom_site_symmetry_multiplicity
 _atom_site_fract_x
 _atom_site_fract_y
 _atom_site_fract_z
 _atom_site_occupancy
  Cs  Cs0  1  0.28354400  0.28354400  0.28354400  1
  Cs  Cs1  1  0.12782500  0.12782500  0.12782500  1
  Cs  Cs2  1  0.71645600  0.71645600  0.71645600  1
  Cs  Cs3  1  0.87217500  0.87217500  0.87217500  1
  Na  Na0  1  0.40441900  0.40441900  0.40441900  1
  Na  Na1  1  0.59558100  0.59558100  0.59558100  1
  Co  Co0  1  0.00000000  0.00000000  0.00000000  1
  Co  Co1  1  0.50000000  0.50000000  0.50000000  1
  F  F0  1  0.17848600  0.74858900  0.17848600  1
  F  F1  1  0.82151400  0.25141100  0.82151400  1
  F  F2  1  0.74858900  0.17848600  0.17848600  1
  F  F3  1  0.60211800  0.18518400  0.60211800  1
  F  F4  1  0.39788200  0.39788200  0.81481600  1
  F  F5  1  0.82151400  0.82151400  0.25141100  1
  F  F6  1  0.60211800  0.60211800  0.18518400  1
  F  F7  1  0.17848600  0.17848600  0.74858900  1
  F  F8  1  0.81481600  0.39788200  0.39788200  1
  F  F9  1  0.25141100  0.82151400  0.82151400  1
  F  F10  1  0.39788200  0.81481600  0.39788200  1
  F  F11  1  0.18518400  0.60211800  0.60211800  1
loop_
_geom_bond_atom_site_label_1
_geom_bond_atom_site_label_2
_geom_bond_distance
_geom_bond_site_symmetry_2
Cs0 F5 3.180651 1_455
Cs0 F5 3.180651 1_545
Cs0 F1 3.180652 1_554
Cs0 F9 3.180652 1_554
Cs0 F9 3.180652 1_545
Cs0 F1 3.180652 1_455
Cs0 F8 3.230155 1_455
Cs0 F10 3.230155 1_545
Cs0 F4 3.230155 1_554
Cs0 F0 3.316639 1_555
Cs0 F2 3.316639 1_555
Cs0 F7 3.316640 1_555
Cs1 F4 3.131701 1_554
Cs1 F10 3.131701 1_545
Cs1 F8 3.131701 1_455
Cs1 F6 3.153974 1_545
Cs1 F6 3.153974 1_455
Cs1 F3 3.153975 1_455
Cs1 F11 3.153975 1_545
Cs1 F3 3.153975 1_554
Cs1 F11 3.153975 1_554
Cs1 F0 3.228999 1_545
Cs1 F2 3.228999 1_455
Cs1 F7 3.229000 1_554
Cs2 F7 3.180651 1_565
Cs2 F7 3.180651 1_655
Cs2 F2 3.180652 1_556
Cs2 F0 3.180652 1_556
Cs2 F2 3.180652 1_565
Cs2 F0 3.180652 1_655
Cs2 F11 3.230155 1_655
Cs2 F3 3.230155 1_565
Cs2 F6 3.230155 1_556
Cs2 F9 3.316639 1_555
Cs2 F1 3.316639 1_555
Cs2 F5 3.316640 1_555
Cs3 F6 3.131701 1_556
Cs3 F11 3.131701 1_655
Cs3 F3 3.131701 1_565
Cs3 F4 3.153974 1_565
Cs3 F4 3.153974 1_655
Cs3 F8 3.153975 1_565
Cs3 F10 3.153975 1_655
Cs3 F10 3.153975 1_556
Cs3 F8 3.153975 1_556
Cs3 F9 3.228999 1_655
Cs3 F1 3.228999 1_565
Cs3 F5 3.229000 1_556
Co0 F7 1.892605 1_554
Co0 F5 1.892605 1_445
Co0 F0 1.892605 1_545
Co0 F2 1.892605 1_455
Co0 F1 1.892605 1_454
Co0 F9 1.892605 1_544
Co1 F8 1.884164 1_555
Co1 F10 1.884164 1_555
Co1 F3 1.884164 1_555
Co1 F11 1.884164 1_555
Co1 F4 1.884165 1_555
Co1 F6 1.884165 1_555
F0 Na0 2.339034 1_555
F1 Na1 2.339034 1_555
F2 Na0 2.339034 1_555
F3 Na0 2.344683 1_555
F4 Na1 2.344683 1_555
F5 Na1 2.339034 1_555
F6 Na0 2.344683 1_555
F7 Na0 2.339034 1_555
F8 Na1 2.344683 1_555
F9 Na1 2.339034 1_555
F10 Na1 2.344683 1_555
F11 Na0 2.344683 1_555
