# generated using pymatgen
data_MnAs2S2(OF3)4
_symmetry_space_group_name_H-M   'P 1'
_cell_length_a   11.99514336
_cell_length_b   10.30352615
_cell_length_c   9.09321938
_cell_angle_alpha   76.11548860
_cell_angle_beta   56.49906032
_cell_angle_gamma   47.38545108
_symmetry_Int_Tables_number   1
_chemical_formula_structural   MnAs2S2(OF3)4
_chemical_formula_sum   'Mn2 As4 S4 O8 F24'
_cell_volume   673.09772945
_cell_formula_units_Z   2
loop_
 _symmetry_equiv_pos_site_id
 _symmetry_equiv_pos_as_xyz
  1  'x, y, z'
loop_
 _atom_site_type_symbol
 _atom_site_label
 _atom_site_symmetry_multiplicity
 _atom_site_fract_x
 _atom_site_fract_y
 _atom_site_fract_z
 _atom_site_occupancy
  Mn  Mn0  1  0.71139800  0.78860200  0.78860200  1
  Mn  Mn1  1  0.46139800  0.53860200  0.53860200  1
  As  As0  1  0.66347300  0.44914300  0.02151400  1
  As  As1  1  0.86587000  0.02151400  0.44914300  1
  As  As2  1  0.22848600  0.38413000  0.58652700  1
  As  As3  1  0.80085700  0.58652700  0.38413000  1
  S  S0  1  0.74688300  0.94378800  0.05443100  1
  S  S1  1  0.25489900  0.05443100  0.94378800  1
  S  S2  1  0.19556900  0.99510100  0.50311700  1
  S  S3  1  0.30621200  0.50311700  0.99510100  1
  O  O0  1  0.67323900  0.91459400  0.99341500  1
  O  O1  1  0.41875200  0.99341500  0.91459400  1
  O  O2  1  0.25658500  0.83124800  0.57676100  1
  O  O3  1  0.33540600  0.57676100  0.83124800  1
  O  O4  1  0.93478800  0.85311800  0.93312800  1
  O  O5  1  0.27896600  0.93312800  0.85311800  1
  O  O6  1  0.31687200  0.97103400  0.31521200  1
  O  O7  1  0.39688200  0.31521200  0.97103400  1
  F  F0  1  0.71196700  0.59644700  0.95342800  1
  F  F1  1  0.73815700  0.95342800  0.59644700  1
  F  F2  1  0.29657200  0.51184300  0.53803300  1
  F  F3  1  0.65355300  0.53803300  0.51184300  1
  F  F4  1  0.57885200  0.52232500  0.25217900  1
  F  F5  1  0.64664400  0.25217900  0.52232500  1
  F  F6  1  0.99782100  0.60335600  0.67114800  1
  F  F7  1  0.72767500  0.67114800  0.60335600  1
  F  F8  1  0.74425200  0.38692000  0.79956600  1
  F  F9  1  0.06926300  0.79956600  0.38692000  1
  F  F10  1  0.45043400  0.18073700  0.50574800  1
  F  F11  1  0.86308000  0.50574800  0.18073700  1
  F  F12  1  0.87682700  0.27426600  0.98729000  1
  F  F13  1  0.86161700  0.98729000  0.27426600  1
  F  F14  1  0.26271000  0.38838300  0.37317300  1
  F  F15  1  0.97573400  0.37317300  0.38838300  1
  F  F16  1  0.44519300  0.63842000  0.06784400  1
  F  F17  1  0.84854400  0.06784400  0.63842000  1
  F  F18  1  0.18215600  0.40145600  0.80480700  1
  F  F19  1  0.61158000  0.80480700  0.40145600  1
  F  F20  1  0.60619000  0.31712300  0.10101000  1
  F  F21  1  0.97567800  0.10101000  0.31712300  1
  F  F22  1  0.14899000  0.27432200  0.64381000  1
  F  F23  1  0.93287700  0.64381000  0.27432200  1
loop_
_geom_bond_atom_site_label_1
_geom_bond_atom_site_label_2
_geom_bond_distance
_geom_bond_site_symmetry_2
Mn0 O0 2.185859 1_555
Mn0 O1 2.185859 1_555
Mn1 O2 2.185859 1_555
Mn1 O3 2.185859 1_555
As0 F12 1.743187 1_554
As0 F8 1.744752 1_554
As0 F20 1.757967 1_555
As0 F16 1.760245 1_555
As0 F4 1.835951 1_555
As0 F0 1.836360 1_554
As1 F13 1.743187 1_545
As1 F9 1.744756 1_645
As1 F21 1.757975 1_555
As1 F17 1.760252 1_555
As1 F5 1.835951 1_555
As1 F1 1.836368 1_545
As2 F14 1.743187 1_555
As2 F10 1.744755 1_555
As2 F22 1.757976 1_555
As2 F18 1.760243 1_555
As2 F6 1.835951 1_455
As2 F2 1.836370 1_555
As3 F15 1.743187 1_555
As3 F11 1.744761 1_555
As3 F23 1.757967 1_555
As3 F19 1.760248 1_555
As3 F7 1.835951 1_555
As3 F3 1.836360 1_555
O0 S0 1.469566 1_556
O1 S1 1.469554 1_565
O2 S2 1.469559 1_555
O3 S3 1.469559 1_555
O4 S0 1.438204 1_556
O5 S1 1.438212 1_565
O6 S2 1.438206 1_555
O7 S3 1.438203 1_555
F0 Mn0 2.176046 1_555
F1 Mn0 2.176043 1_555
F2 Mn1 2.176038 1_555
F3 Mn1 2.176050 1_555
F4 Mn1 2.153023 1_555
F5 Mn1 2.153023 1_555
F6 Mn0 2.153023 1_555
F7 Mn0 2.153023 1_555
