# generated using pymatgen
data_La5Sn3
_symmetry_space_group_name_H-M   'P 1'
_cell_length_a   6.45440942
_cell_length_b   9.64467547
_cell_length_c   9.64504683
_cell_angle_alpha   83.56873550
_cell_angle_beta   70.44917599
_cell_angle_gamma   70.45652209
_symmetry_Int_Tables_number   1
_chemical_formula_structural   La5Sn3
_chemical_formula_sum   'La10 Sn6'
_cell_volume   533.19751453
_cell_formula_units_Z   2
loop_
 _symmetry_equiv_pos_site_id
 _symmetry_equiv_pos_as_xyz
  1  'x, y, z'
loop_
 _atom_site_type_symbol
 _atom_site_label
 _atom_site_symmetry_multiplicity
 _atom_site_fract_x
 _atom_site_fract_y
 _atom_site_fract_z
 _atom_site_occupancy
  La  La0  1  0.25001097  0.50002151  0.49996125  1
  La  La1  1  0.74998903  0.49997849  0.50003875  1
  La  La2  1  0.08352231  0.13203974  0.70104727  1
  La  La3  1  0.78470001  0.29889805  0.13200188  1
  La  La4  1  0.21529999  0.70110195  0.86799812  1
  La  La5  1  0.91647769  0.86796026  0.29895273  1
  La  La6  1  0.28464595  0.13199406  0.29883469  1
  La  La7  1  0.71535405  0.86800594  0.70116531  1
  La  La8  1  0.41653249  0.29889774  0.86795144  1
  La  La9  1  0.58346751  0.70110226  0.13204856  1
  Sn  Sn0  1  0.24998375  -0.00000490  -0.00000945  1
  Sn  Sn1  1  0.75001625  0.00000490  0.00000945  1
  Sn  Sn2  1  0.15965280  0.50007570  0.18029545  1
  Sn  Sn3  1  0.34033630  0.81972077  0.49992271  1
  Sn  Sn4  1  0.65966370  0.18027923  0.50007729  1
  Sn  Sn5  1  0.84034720  0.49992430  0.81970455  1
loop_
_geom_bond_atom_site_label_1
_geom_bond_atom_site_label_2
_geom_bond_distance
_geom_bond_site_symmetry_2
La0 La1 3.227175 1_555
La0 La1 3.227235 1_455
La0 Sn5 3.323486 1_455
La0 Sn4 3.323692 1_555
La0 Sn2 3.324020 1_555
La0 Sn3 3.324078 1_555
La0 La9 4.138208 1_555
La0 La2 4.138462 1_555
La0 La5 4.138479 1_455
La0 La4 4.138979 1_555
La0 La8 4.138994 1_555
La0 La6 4.139262 1_555
La0 La3 4.139344 1_555
La0 La7 4.139735 1_455
La1 Sn2 3.323486 1_655
La1 Sn3 3.323692 1_555
La1 Sn5 3.324020 1_555
La1 Sn4 3.324078 1_555
La1 La8 4.138208 1_555
La1 La5 4.138462 1_555
La1 La2 4.138479 1_655
La1 La3 4.138979 1_555
La1 La9 4.138994 1_555
La1 La7 4.139262 1_555
La1 La4 4.139344 1_555
La1 La6 4.139735 1_655
La2 Sn3 3.376459 1_545
La2 Sn0 3.380101 1_556
La2 Sn1 3.380380 1_456
La2 Sn5 3.513409 1_455
La2 La6 3.655695 1_555
La2 Sn4 3.732735 1_555
La2 Sn4 3.735456 1_455
La2 La8 3.874464 1_555
La2 La8 3.875746 1_455
La2 La7 4.021210 1_545
La2 La7 4.022157 1_445
La2 La4 4.200359 1_545
La2 La3 4.200385 1_456
La3 Sn5 3.375573 1_554
La3 Sn0 3.379571 1_655
La3 Sn1 3.380177 1_555
La3 Sn4 3.514782 1_555
La3 La9 3.655645 1_555
La3 Sn2 3.733248 1_655
La3 Sn2 3.736981 1_555
La3 La6 3.874624 1_655
La3 La6 3.875230 1_555
La3 La8 4.020671 1_654
La3 La8 4.022856 1_554
La3 La5 4.200359 1_545
La4 Sn2 3.375573 1_556
La4 Sn1 3.379571 1_466
La4 Sn0 3.380177 1_566
La4 Sn3 3.514782 1_555
La4 La8 3.655645 1_555
La4 Sn5 3.733248 1_455
La4 Sn5 3.736981 1_555
La4 La7 3.874624 1_455
La4 La7 3.875230 1_555
La4 La9 4.020671 1_456
La4 La9 4.022856 1_556
La4 La5 4.200385 1_456
La5 Sn4 3.376459 1_565
La5 Sn1 3.380101 1_565
La5 Sn0 3.380380 1_665
La5 Sn2 3.513409 1_655
La5 La7 3.655695 1_555
La5 Sn3 3.732735 1_555
La5 Sn3 3.735456 1_655
La5 La9 3.874464 1_555
La5 La9 3.875746 1_655
La5 La6 4.021210 1_565
La5 La6 4.022157 1_665
La6 Sn3 3.375703 1_545
La6 Sn1 3.379237 1_555
La6 Sn0 3.379798 1_555
La6 Sn2 3.514634 1_555
La6 Sn4 3.734212 1_555
La6 Sn4 3.736565 1_455
La6 La9 4.199637 1_545
La6 La8 4.199720 1_554
La7 Sn4 3.375703 1_565
La7 Sn0 3.379237 1_566
La7 Sn1 3.379798 1_566
La7 Sn5 3.514634 1_555
La7 Sn3 3.734212 1_555
La7 Sn3 3.736565 1_655
La7 La8 4.199637 1_565
La7 La9 4.199720 1_556
La8 Sn2 3.376904 1_556
La8 Sn0 3.379748 1_556
La8 Sn1 3.380300 1_556
La8 Sn4 3.513191 1_555
La8 Sn5 3.733386 1_455
La8 Sn5 3.735336 1_555
La9 Sn5 3.376904 1_554
La9 Sn1 3.379748 1_565
La9 Sn0 3.380300 1_565
La9 Sn3 3.513191 1_555
La9 Sn2 3.733386 1_655
La9 Sn2 3.735336 1_555
Sn0 Sn1 3.226902 1_455
Sn0 Sn1 3.227507 1_555
