# generated using pymatgen
data_Sr6V9(S11O)2
_symmetry_space_group_name_H-M   'P 1'
_cell_length_a   12.85207772
_cell_length_b   12.85207772
_cell_length_c   12.85207803
_cell_angle_alpha   41.52013625
_cell_angle_beta   41.52013625
_cell_angle_gamma   41.52013828
_symmetry_Int_Tables_number   1
_chemical_formula_structural   Sr6V9(S11O)2
_chemical_formula_sum   'Sr6 V9 S22 O2'
_cell_volume   842.98753624
_cell_formula_units_Z   1
loop_
 _symmetry_equiv_pos_site_id
 _symmetry_equiv_pos_as_xyz
  1  'x, y, z'
loop_
 _atom_site_type_symbol
 _atom_site_label
 _atom_site_symmetry_multiplicity
 _atom_site_fract_x
 _atom_site_fract_y
 _atom_site_fract_z
 _atom_site_occupancy
  Sr  Sr0  1  0.48837500  0.91273000  0.26355800  1
  Sr  Sr1  1  0.26355800  0.48837500  0.91273000  1
  Sr  Sr2  1  0.73644200  0.51162500  0.08727000  1
  Sr  Sr3  1  0.51162500  0.08727000  0.73644200  1
  Sr  Sr4  1  0.91273000  0.26355800  0.48837500  1
  Sr  Sr5  1  0.08727000  0.73644200  0.51162500  1
  V  V0  1  0.85033600  0.71144400  0.43828500  1
  V  V1  1  0.28855600  0.56171500  0.14966400  1
  V  V2  1  0.14966400  0.28855600  0.56171500  1
  V  V3  1  0.43828500  0.85033600  0.71144400  1
  V  V4  1  0.15387200  0.15387200  0.15387200  1
  V  V5  1  0.00000000  0.00000000  0.00000000  1
  V  V6  1  0.71144400  0.43828500  0.85033600  1
  V  V7  1  0.84612800  0.84612800  0.84612800  1
  V  V8  1  0.56171500  0.14966400  0.28855600  1
  S  S0  1  0.53013000  0.53013000  0.53013000  1
  S  S1  1  0.80237600  0.23175200  0.08122400  1
  S  S2  1  0.15187200  0.35312100  0.89929600  1
  S  S3  1  0.94832700  0.51694400  0.65798200  1
  S  S4  1  0.08122400  0.80237600  0.23175200  1
  S  S5  1  0.37585600  0.37585600  0.37585600  1
  S  S6  1  0.64687900  0.10070400  0.84812800  1
  S  S7  1  0.48305600  0.34201800  0.05167300  1
  S  S8  1  0.51694400  0.65798200  0.94832700  1
  S  S9  1  0.84812800  0.64687900  0.10070400  1
  S  S10  1  0.89929600  0.15187200  0.35312100  1
  S  S11  1  0.46987000  0.46987000  0.46987000  1
  S  S12  1  0.65798200  0.94832700  0.51694400  1
  S  S13  1  0.19762400  0.76824800  0.91877600  1
  S  S14  1  0.05167300  0.48305600  0.34201800  1
  S  S15  1  0.35312100  0.89929600  0.15187200  1
  S  S16  1  0.23175200  0.08122400  0.80237600  1
  S  S17  1  0.34201800  0.05167300  0.48305600  1
  S  S18  1  0.10070400  0.84812800  0.64687900  1
  S  S19  1  0.62414400  0.62414400  0.62414400  1
  S  S20  1  0.91877600  0.19762400  0.76824800  1
  S  S21  1  0.76824800  0.91877600  0.19762400  1
  O  O0  1  0.20316300  0.20316300  0.20316300  1
  O  O1  1  0.79683700  0.79683700  0.79683700  1
loop_
_geom_bond_atom_site_label_1
_geom_bond_atom_site_label_2
_geom_bond_distance
_geom_bond_site_symmetry_2
S0 S11 2.119879 1_555
S0 Sr0 3.127230 1_555
S0 Sr1 3.127230 1_555
S0 Sr4 3.127230 1_555
S1 V5 2.401993 1_655
S1 V6 2.443346 1_554
S1 V8 2.472880 1_555
S1 Sr2 3.068851 1_555
S2 V4 2.178128 1_556
S2 Sr1 3.109456 1_555
S2 Sr3 3.161304 1_555
S2 Sr2 3.203168 1_456
S3 V0 2.418416 1_555
S3 V6 2.449126 1_555
S3 V2 2.472399 1_655
S3 Sr5 3.041819 1_655
S4 V5 2.401993 1_565
S4 V0 2.443346 1_455
S4 V1 2.472880 1_555
S4 Sr5 3.068851 1_555
S5 V2 2.426558 1_555
S5 V1 2.426558 1_555
S5 V8 2.426558 1_555
S6 V7 2.178128 1_545
S6 Sr3 3.109456 1_555
S6 Sr4 3.161304 1_555
S6 Sr0 3.203168 1_546
S7 V1 2.418416 1_555
S7 V8 2.449126 1_555
S7 V6 2.472399 1_554
S7 Sr1 3.041820 1_554
S8 V6 2.418416 1_555
S8 V3 2.449126 1_555
S8 V1 2.472399 1_556
S8 Sr2 3.041820 1_556
S9 V7 2.178128 1_554
S9 Sr2 3.109456 1_555
S9 Sr0 3.161304 1_555
S9 Sr1 3.203168 1_654
S10 V4 2.178128 1_655
S10 Sr4 3.109456 1_555
S10 Sr2 3.161304 1_555
S10 Sr5 3.203168 1_645
S11 Sr3 3.127230 1_555
S11 Sr2 3.127230 1_555
S11 Sr5 3.127230 1_555
S12 V3 2.418415 1_555
S12 V0 2.449126 1_555
S12 V8 2.472399 1_565
S12 Sr3 3.041820 1_565
S13 V5 2.401993 1_566
S13 V1 2.443346 1_556
S13 V3 2.472880 1_555
S13 Sr1 3.068851 1_555
S14 V2 2.418416 1_555
S14 V1 2.449126 1_555
S14 V0 2.472399 1_455
S14 Sr4 3.041819 1_455
S15 V4 2.178128 1_565
S15 Sr0 3.109456 1_555
S15 Sr5 3.161304 1_555
S15 Sr3 3.203168 1_564
S16 V5 2.401993 1_556
S16 V3 2.443346 1_545
S16 V2 2.472880 1_555
S16 Sr3 3.068851 1_555
S17 V8 2.418415 1_555
S17 V2 2.449126 1_555
S17 V3 2.472399 1_545
S17 Sr0 3.041820 1_545
S18 V7 2.178128 1_455
S18 Sr5 3.109456 1_555
S18 Sr1 3.161304 1_555
S18 Sr4 3.203168 1_465
S19 V0 2.426558 1_555
S19 V6 2.426558 1_555
S19 V3 2.426558 1_555
S20 V5 2.401993 1_656
S20 V2 2.443346 1_655
S20 V6 2.472880 1_555
S20 Sr4 3.068851 1_555
S21 V5 2.401993 1_665
S21 V8 2.443346 1_565
S21 V0 2.472880 1_555
S21 Sr0 3.068851 1_555
O0 V4 1.734002 1_555
O0 Sr1 2.721235 1_554
O0 Sr4 2.721235 1_455
O0 Sr0 2.721235 1_545
O1 V7 1.734002 1_555
O1 Sr2 2.721235 1_556
O1 Sr5 2.721235 1_655
O1 Sr3 2.721235 1_565
