# generated using pymatgen
data_Hg3(ClO)2
_symmetry_space_group_name_H-M   'P 1'
_cell_length_a   9.62263500
_cell_length_b   11.16262600
_cell_length_c   11.83186437
_cell_angle_alpha   71.06597907
_cell_angle_beta   90.00000000
_cell_angle_gamma   90.00000000
_symmetry_Int_Tables_number   1
_chemical_formula_structural   Hg3(ClO)2
_chemical_formula_sum   'Hg24 Cl16 O16'
_cell_volume   1202.14129406
_cell_formula_units_Z   8
loop_
 _symmetry_equiv_pos_site_id
 _symmetry_equiv_pos_as_xyz
  1  'x, y, z'
loop_
 _atom_site_type_symbol
 _atom_site_label
 _atom_site_symmetry_multiplicity
 _atom_site_fract_x
 _atom_site_fract_y
 _atom_site_fract_z
 _atom_site_occupancy
  Hg  Hg0  1  0.67256200  0.42354300  0.49355300  1
  Hg  Hg1  1  0.17256200  0.57645700  0.00644700  1
  Hg  Hg2  1  0.32743800  0.57645700  0.50644700  1
  Hg  Hg3  1  0.82743800  0.42354300  0.99355300  1
  Hg  Hg4  1  0.55419700  0.42277300  0.77746400  1
  Hg  Hg5  1  0.05419700  0.57722700  0.72253600  1
  Hg  Hg6  1  0.44580300  0.57722700  0.22253600  1
  Hg  Hg7  1  0.94580300  0.42277300  0.27746400  1
  Hg  Hg8  1  0.48236200  0.30732300  0.07642800  1
  Hg  Hg9  1  0.98236200  0.69267700  0.42357200  1
  Hg  Hg10  1  0.51763800  0.69267700  0.92357200  1
  Hg  Hg11  1  0.01763800  0.30732300  0.57642800  1
  Hg  Hg12  1  0.40045900  0.22119100  0.61517600  1
  Hg  Hg13  1  0.90045900  0.77880900  0.88482400  1
  Hg  Hg14  1  0.59954100  0.77880900  0.38482400  1
  Hg  Hg15  1  0.09954100  0.22119100  0.11517600  1
  Hg  Hg16  1  0.38584400  0.11381000  0.37056300  1
  Hg  Hg17  1  0.88584400  0.88619000  0.12943700  1
  Hg  Hg18  1  0.61415600  0.88619000  0.62943700  1
  Hg  Hg19  1  0.11415600  0.11381000  0.87056300  1
  Hg  Hg20  1  0.69227500  0.03899100  0.86749700  1
  Hg  Hg21  1  0.19227500  0.96100900  0.63250300  1
  Hg  Hg22  1  0.30772500  0.96100900  0.13250300  1
  Hg  Hg23  1  0.80772500  0.03899100  0.36749700  1
  Cl  Cl0  1  0.46972500  0.13812100  0.87417600  1
  Cl  Cl1  1  0.96972500  0.86187900  0.62582400  1
  Cl  Cl2  1  0.53027500  0.86187900  0.12582400  1
  Cl  Cl3  1  0.03027500  0.13812100  0.37417600  1
  Cl  Cl4  1  0.72968500  0.14297200  0.62689500  1
  Cl  Cl5  1  0.22968500  0.85702800  0.87310500  1
  Cl  Cl6  1  0.27031500  0.85702800  0.37310500  1
  Cl  Cl7  1  0.77031500  0.14297200  0.12689500  1
  Cl  Cl8  1  0.62221100  0.31950400  0.31479900  1
  Cl  Cl9  1  0.12221100  0.68049600  0.18520100  1
  Cl  Cl10  1  0.37778900  0.68049600  0.68520100  1
  Cl  Cl11  1  0.87778900  0.31950400  0.81479900  1
  Cl  Cl12  1  0.25943300  0.37851400  0.39695600  1
  Cl  Cl13  1  0.75943300  0.62148600  0.10304400  1
  Cl  Cl14  1  0.74056700  0.62148600  0.60304400  1
  Cl  Cl15  1  0.24056700  0.37851400  0.89695600  1
  O  O0  1  0.38534800  0.05317100  0.56129200  1
  O  O1  1  0.88534800  0.94682900  0.93870800  1
  O  O2  1  0.61465200  0.94682900  0.43870800  1
  O  O3  1  0.11465200  0.05317100  0.06129200  1
  O  O4  1  0.35116700  0.16813200  0.18589500  1
  O  O5  1  0.85116700  0.83186800  0.31410500  1
  O  O6  1  0.64883300  0.83186800  0.81410500  1
  O  O7  1  0.14883300  0.16813200  0.68589500  1
  O  O8  1  0.48853900  0.39898500  0.61629700  1
  O  O9  1  0.98853900  0.60101500  0.88370300  1
  O  O10  1  0.51146100  0.60101500  0.38370300  1
  O  O11  1  0.01146100  0.39898500  0.11629700  1
  O  O12  1  0.60501300  0.44001000  0.94430100  1
  O  O13  1  0.10501300  0.55999000  0.55569900  1
  O  O14  1  0.39498700  0.55999000  0.05569900  1
  O  O15  1  0.89498700  0.44001000  0.44430100  1
loop_
_geom_bond_atom_site_label_1
_geom_bond_atom_site_label_2
_geom_bond_distance
_geom_bond_site_symmetry_2
Hg0 O15 2.210161 1_555
Hg0 O8 2.249804 1_555
Hg0 O10 2.519143 1_555
Hg1 O14 2.210161 1_555
Hg1 O9 2.249804 1_454
Hg1 O11 2.519143 1_555
Hg2 O13 2.210161 1_555
Hg2 O10 2.249804 1_555
Hg2 O8 2.519143 1_555
Hg3 O12 2.210161 1_555
Hg3 O11 2.249804 1_656
Hg3 O9 2.519143 1_555
Hg4 O12 2.102203 1_555
Hg4 O8 2.105844 1_555
Hg5 O13 2.102203 1_555
Hg5 O9 2.105844 1_455
Hg6 O14 2.102203 1_555
Hg6 O10 2.105844 1_555
Hg7 O15 2.102203 1_555
Hg7 O11 2.105844 1_655
Hg8 O4 2.092710 1_555
Hg8 O12 2.127906 1_554
Hg9 O5 2.092710 1_555
Hg9 O13 2.127906 1_655
Hg10 O6 2.092710 1_555
Hg10 O14 2.127906 1_556
Hg11 O7 2.092710 1_555
Hg11 O15 2.127906 1_455
Hg12 O8 2.162047 1_555
Hg12 O0 2.172848 1_555
Hg12 O7 2.567495 1_555
Hg13 O9 2.162047 1_555
Hg13 O1 2.172848 1_555
Hg13 O6 2.567495 1_555
Hg14 O10 2.162047 1_555
Hg14 O2 2.172848 1_555
Hg14 O5 2.567495 1_555
Hg15 O11 2.162047 1_555
Hg15 O3 2.172848 1_555
Hg15 O4 2.567495 1_555
Hg16 O4 2.096021 1_555
Hg16 O0 2.135300 1_555
Hg17 O5 2.096021 1_555
Hg17 O1 2.135300 1_554
Hg18 O6 2.096021 1_555
Hg18 O2 2.135300 1_555
Hg19 O7 2.096021 1_555
Hg19 O3 2.135300 1_556
Hg20 O1 2.158111 1_545
Hg20 O6 2.620533 1_545
Hg21 O0 2.158111 1_565
Hg21 O7 2.620533 1_565
Hg22 O3 2.158111 1_565
Hg22 O4 2.620533 1_565
Hg23 O2 2.158111 1_545
Hg23 O5 2.620533 1_545
Cl0 Hg20 2.423540 1_555
Cl0 Hg12 2.975044 1_555
Cl1 Hg21 2.423540 1_655
Cl1 Hg13 2.975044 1_555
Cl2 Hg22 2.423540 1_555
Cl2 Hg14 2.975044 1_555
Cl3 Hg23 2.423540 1_455
Cl3 Hg15 2.975044 1_555
Cl4 Hg20 2.727012 1_555
Cl4 Hg0 3.064878 1_555
Cl5 Hg21 2.727012 1_555
Cl5 Hg1 3.064878 1_556
Cl6 Hg22 2.727012 1_555
Cl6 Hg2 3.064878 1_555
Cl7 Hg23 2.727012 1_555
Cl7 Hg3 3.064878 1_554
Cl8 Hg0 2.765985 1_555
Cl9 Hg1 2.765985 1_555
Cl10 Hg2 2.765985 1_555
Cl11 Hg3 2.765985 1_555
Cl12 Hg12 2.941003 1_555
Cl12 Hg2 2.974270 1_555
Cl12 Hg6 3.069955 1_555
Cl12 Hg11 3.075575 1_555
Cl13 Hg13 2.941003 1_554
Cl13 Hg3 2.974270 1_554
Cl13 Hg7 3.069955 1_555
Cl13 Hg10 3.075575 1_554
Cl14 Hg14 2.941003 1_555
Cl14 Hg0 2.974270 1_555
Cl14 Hg4 3.069955 1_555
Cl14 Hg9 3.075575 1_555
Cl15 Hg15 2.941003 1_556
Cl15 Hg1 2.974270 1_556
Cl15 Hg5 3.069955 1_555
Cl15 Hg8 3.075575 1_556
