# generated using pymatgen
data_ZnS
_symmetry_space_group_name_H-M   'P 1'
_cell_length_a   22.15738029
_cell_length_b   22.15738029
_cell_length_c   22.15738081
_cell_angle_alpha   9.99203003
_cell_angle_beta   9.99203003
_cell_angle_gamma   9.99203146
_symmetry_Int_Tables_number   1
_chemical_formula_structural   ZnS
_chemical_formula_sum   'Zn7 S7'
_cell_volume   284.34144030
_cell_formula_units_Z   7
loop_
 _symmetry_equiv_pos_site_id
 _symmetry_equiv_pos_as_xyz
  1  'x, y, z'
loop_
 _atom_site_type_symbol
 _atom_site_label
 _atom_site_symmetry_multiplicity
 _atom_site_fract_x
 _atom_site_fract_y
 _atom_site_fract_z
 _atom_site_occupancy
  Zn  Zn0  1  0.00001800  0.00001800  0.00001800  1
  Zn  Zn1  1  0.71428300  0.71428300  0.71428300  1
  Zn  Zn2  1  0.42856500  0.42856500  0.42856500  1
  Zn  Zn3  1  0.80953400  0.80953400  0.80953400  1
  Zn  Zn4  1  0.52382700  0.52382700  0.52382700  1
  Zn  Zn5  1  0.90477800  0.90477800  0.90477800  1
  Zn  Zn6  1  0.28571900  0.28571900  0.28571900  1
  S  S0  1  0.03570400  0.03570400  0.03570400  1
  S  S1  1  0.74996200  0.74996200  0.74996200  1
  S  S2  1  0.46427700  0.46427700  0.46427700  1
  S  S3  1  0.84523100  0.84523100  0.84523100  1
  S  S4  1  0.55954500  0.55954500  0.55954500  1
  S  S5  1  0.94044300  0.94044300  0.94044300  1
  S  S6  1  0.32144700  0.32144700  0.32144700  1
loop_
_geom_bond_atom_site_label_1
_geom_bond_atom_site_label_2
_geom_bond_distance
_geom_bond_site_symmetry_2
S0 Zn0 2.360101 1_555
S0 Zn1 2.363299 1_445
S0 Zn1 2.363299 1_544
S0 Zn1 2.363299 1_454
S1 Zn1 2.359638 1_555
S1 Zn2 2.363829 1_556
S1 Zn2 2.363829 1_565
S1 Zn2 2.363829 1_655
S2 Zn2 2.361820 1_555
S2 Zn3 2.363549 1_554
S2 Zn3 2.363549 1_455
S2 Zn3 2.363549 1_545
S3 Zn3 2.360828 1_555
S3 Zn4 2.363674 1_556
S3 Zn4 2.363674 1_655
S3 Zn4 2.363674 1_565
S4 Zn4 2.362217 1_555
S4 Zn5 2.363020 1_554
S4 Zn5 2.363020 1_545
S4 Zn5 2.363020 1_455
S5 Zn5 2.358712 1_555
S5 Zn6 2.363968 1_665
S5 Zn6 2.363969 1_656
S5 Zn6 2.363969 1_566
S6 Zn6 2.362878 1_555
S6 Zn0 2.363123 1_556
S6 Zn0 2.363123 1_655
S6 Zn0 2.363123 1_565
