# generated using pymatgen
data_KC(NO2)3
_symmetry_space_group_name_H-M   'P 1'
_cell_length_a   8.36588500
_cell_length_b   7.77806000
_cell_length_c   11.19877744
_cell_angle_alpha   55.67717347
_cell_angle_beta   90.00000000
_cell_angle_gamma   90.00000000
_symmetry_Int_Tables_number   1
_chemical_formula_structural   KC(NO2)3
_chemical_formula_sum   'K4 C4 N12 O24'
_cell_volume   601.82114210
_cell_formula_units_Z   4
loop_
 _symmetry_equiv_pos_site_id
 _symmetry_equiv_pos_as_xyz
  1  'x, y, z'
loop_
 _atom_site_type_symbol
 _atom_site_label
 _atom_site_symmetry_multiplicity
 _atom_site_fract_x
 _atom_site_fract_y
 _atom_site_fract_z
 _atom_site_occupancy
  K  K0  1  0.60495700  0.11359100  0.13355600  1
  K  K1  1  0.39504300  0.88640900  0.86644400  1
  K  K2  1  0.10495700  0.88640900  0.36644400  1
  K  K3  1  0.89504300  0.11359100  0.63355600  1
  C  C0  1  0.87919600  0.58854500  0.12165700  1
  C  C1  1  0.37919600  0.41145500  0.37834300  1
  C  C2  1  0.12080400  0.41145500  0.87834300  1
  C  C3  1  0.62080400  0.58854500  0.62165700  1
  N  N0  1  0.26564500  0.33202400  0.48952200  1
  N  N1  1  0.42923200  0.62039900  0.29942800  1
  N  N2  1  0.23435500  0.33202400  0.98952200  1
  N  N3  1  0.57076800  0.37960100  0.70057200  1
  N  N4  1  0.54679300  0.72372800  0.65418200  1
  N  N5  1  0.07076800  0.62039900  0.79942800  1
  N  N6  1  0.04679300  0.27627200  0.84581800  1
  N  N7  1  0.92923200  0.37960100  0.20057200  1
  N  N8  1  0.76564500  0.66797600  0.01047800  1
  N  N9  1  0.73435500  0.66797600  0.51047800  1
  N  N10  1  0.95320700  0.72372800  0.15418200  1
  N  N11  1  0.45320700  0.27627200  0.34581800  1
  O  O0  1  0.87221600  0.86178000  0.14948300  1
  O  O1  1  0.12778400  0.13822000  0.85051700  1
  O  O2  1  0.62778400  0.86178000  0.64948300  1
  O  O3  1  0.75231600  0.86234900  0.42971200  1
  O  O4  1  0.18515700  0.45345600  0.50559700  1
  O  O5  1  0.81484300  0.54654400  0.49440300  1
  O  O6  1  0.01181400  0.69766100  0.67609100  1
  O  O7  1  0.41415500  0.72395900  0.35325200  1
  O  O8  1  0.31484300  0.45345600  0.00559700  1
  O  O9  1  0.25231600  0.13765100  0.07028800  1
  O  O10  1  0.24768400  0.13765100  0.57028800  1
  O  O11  1  0.58584500  0.27604100  0.64674800  1
  O  O12  1  0.51181400  0.30233900  0.82390900  1
  O  O13  1  0.08584500  0.72395900  0.85325200  1
  O  O14  1  0.37221600  0.13822000  0.35051700  1
  O  O15  1  0.98818600  0.30233900  0.32390900  1
  O  O16  1  0.59776900  0.30463700  0.31349400  1
  O  O17  1  0.74768400  0.86234900  0.92971200  1
  O  O18  1  0.68515700  0.54654400  0.99440300  1
  O  O19  1  0.90223100  0.30463700  0.81349400  1
  O  O20  1  0.48818600  0.69766100  0.17609100  1
  O  O21  1  0.91415500  0.27604100  0.14674800  1
  O  O22  1  0.09776900  0.69536300  0.18650600  1
  O  O23  1  0.40223100  0.69536300  0.68650600  1
loop_
_geom_bond_atom_site_label_1
_geom_bond_atom_site_label_2
_geom_bond_distance
_geom_bond_site_symmetry_2
K0 O18 2.881131 1_554
K0 O0 2.910848 1_545
K0 O21 2.918900 1_555
K0 O3 3.004896 1_545
K0 O12 3.007689 1_554
K0 O9 3.015114 1_555
K0 O7 3.062208 1_545
K0 O16 3.106291 1_555
K0 O20 3.147928 1_545
K0 O14 3.202524 1_555
K0 O8 3.265004 1_555
K1 O8 2.881131 1_556
K1 O1 2.910848 1_565
K1 O13 2.918900 1_555
K1 O10 3.004896 1_565
K1 O20 3.007689 1_556
K1 O17 3.015114 1_555
K1 O11 3.062208 1_565
K1 O23 3.106291 1_555
K1 O12 3.147928 1_565
K1 O2 3.202524 1_555
K1 O18 3.265004 1_555
K2 O4 2.881131 1_555
K2 O14 2.910848 1_565
K2 O7 2.918900 1_555
K2 O9 3.004896 1_565
K2 O6 3.007689 1_555
K2 O3 3.015114 1_455
K2 O21 3.062208 1_465
K2 O22 3.106291 1_555
K2 O15 3.147928 1_465
K2 O0 3.202524 1_455
K2 O5 3.265004 1_455
K3 O5 2.881131 1_555
K3 O2 2.910848 1_545
K3 O11 2.918900 1_555
K3 O17 3.004896 1_545
K3 O15 3.007689 1_555
K3 O10 3.015114 1_655
K3 O13 3.062208 1_645
K3 O19 3.106291 1_555
K3 O6 3.147928 1_645
K3 O1 3.202524 1_655
K3 O4 3.265004 1_655
C0 N8 1.402443 1_555
C0 N7 1.406331 1_555
C0 N10 1.433006 1_555
C1 N0 1.402443 1_555
C1 N1 1.406331 1_555
C1 N11 1.433006 1_555
C2 N2 1.402443 1_555
C2 N5 1.406331 1_555
C2 N6 1.433006 1_555
C3 N9 1.402443 1_555
C3 N3 1.406331 1_555
C3 N4 1.433006 1_555
N0 O4 1.252856 1_555
N0 O10 1.258677 1_555
N1 O7 1.255223 1_555
N1 O20 1.255435 1_555
N2 O8 1.252856 1_556
N2 O9 1.258677 1_556
N3 O11 1.255223 1_555
N3 O12 1.255435 1_555
N4 O2 1.245445 1_555
N4 O23 1.245901 1_555
N5 O13 1.255223 1_555
N5 O6 1.255435 1_555
N6 O1 1.245445 1_555
N6 O19 1.245901 1_455
N7 O21 1.255223 1_555
N7 O15 1.255435 1_555
N8 O18 1.252856 1_554
N8 O17 1.258677 1_554
N9 O5 1.252856 1_555
N9 O3 1.258677 1_555
N10 O0 1.245445 1_555
N10 O22 1.245901 1_655
N11 O14 1.245445 1_555
N11 O16 1.245901 1_555
