# generated using pymatgen
data_Ba3LiRu2O9
_symmetry_space_group_name_H-M   'P 1'
_cell_length_a   5.86772396
_cell_length_b   5.86772396
_cell_length_c   14.39386500
_cell_angle_alpha   90.00000000
_cell_angle_beta   90.00000000
_cell_angle_gamma   119.99999955
_symmetry_Int_Tables_number   1
_chemical_formula_structural   Ba3LiRu2O9
_chemical_formula_sum   'Ba6 Li2 Ru4 O18'
_cell_volume   429.18783958
_cell_formula_units_Z   2
loop_
 _symmetry_equiv_pos_site_id
 _symmetry_equiv_pos_as_xyz
  1  'x, y, z'
loop_
 _atom_site_type_symbol
 _atom_site_label
 _atom_site_symmetry_multiplicity
 _atom_site_fract_x
 _atom_site_fract_y
 _atom_site_fract_z
 _atom_site_occupancy
  Ba  Ba0  1  0.33333300  0.66666700  0.58990900  1
  Ba  Ba1  1  0.66666700  0.33333300  0.08990900  1
  Ba  Ba2  1  0.66666700  0.33333300  0.41009100  1
  Ba  Ba3  1  0.33333300  0.66666700  0.91009100  1
  Ba  Ba4  1  0.00000000  0.00000000  0.25000000  1
  Ba  Ba5  1  0.00000000  0.00000000  0.75000000  1
  Li  Li0  1  0.00000000  0.00000000  0.00000000  1
  Li  Li1  1  0.00000000  0.00000000  0.50000000  1
  Ru  Ru0  1  0.33333300  0.66666700  0.34773800  1
  Ru  Ru1  1  0.66666700  0.33333300  0.84773800  1
  Ru  Ru2  1  0.66666700  0.33333300  0.65226200  1
  Ru  Ru3  1  0.33333300  0.66666700  0.15226200  1
  O  O0  1  0.48339200  0.96678500  0.25000000  1
  O  O1  1  0.51660800  0.48339200  0.75000000  1
  O  O2  1  0.96678500  0.48339200  0.75000000  1
  O  O3  1  0.03321500  0.51660800  0.25000000  1
  O  O4  1  0.48339200  0.51660800  0.25000000  1
  O  O5  1  0.51660800  0.03321500  0.75000000  1
  O  O6  1  0.17395700  0.34791400  0.41442200  1
  O  O7  1  0.82604300  0.17395700  0.91442200  1
  O  O8  1  0.34791400  0.17395700  0.91442200  1
  O  O9  1  0.65208600  0.82604300  0.41442200  1
  O  O10  1  0.17395700  0.82604300  0.41442200  1
  O  O11  1  0.82604300  0.65208600  0.58557800  1
  O  O12  1  0.82604300  0.17395700  0.58557800  1
  O  O13  1  0.82604300  0.65208600  0.91442200  1
  O  O14  1  0.34791400  0.17395700  0.58557800  1
  O  O15  1  0.65208600  0.82604300  0.08557800  1
  O  O16  1  0.17395700  0.34791400  0.08557800  1
  O  O17  1  0.17395700  0.82604300  0.08557800  1
loop_
_geom_bond_atom_site_label_1
_geom_bond_atom_site_label_2
_geom_bond_distance
_geom_bond_site_symmetry_2
Ba0 O11 2.935457 1_455
Ba0 O14 2.935457 1_565
Ba0 O12 2.935459 1_565
Ba0 O12 2.935459 1_455
Ba0 O14 2.935462 1_555
Ba0 O11 2.935462 1_555
Ba0 O5 2.963004 1_565
Ba0 O2 2.963004 1_455
Ba0 O1 2.963010 1_555
Ba0 O10 3.000668 1_555
Ba0 O9 3.000670 1_555
Ba0 O6 3.000670 1_555
Ba1 O15 2.935457 1_545
Ba1 O16 2.935457 1_655
Ba1 O17 2.935459 1_655
Ba1 O17 2.935459 1_545
Ba1 O16 2.935462 1_555
Ba1 O15 2.935462 1_555
Ba1 O3 2.963004 1_655
Ba1 O0 2.963004 1_545
Ba1 O4 2.963010 1_555
Ba1 O7 3.000668 1_554
Ba1 O13 3.000670 1_554
Ba1 O8 3.000670 1_554
Ba2 O9 2.935457 1_545
Ba2 O6 2.935457 1_655
Ba2 O10 2.935459 1_655
Ba2 O10 2.935459 1_545
Ba2 O6 2.935462 1_555
Ba2 O9 2.935462 1_555
Ba2 O3 2.963004 1_655
Ba2 O0 2.963004 1_545
Ba2 O4 2.963010 1_555
Ba2 O12 3.000668 1_555
Ba2 O11 3.000670 1_555
Ba2 O14 3.000670 1_555
Ba3 O13 2.935457 1_455
Ba3 O8 2.935457 1_565
Ba3 O7 2.935459 1_565
Ba3 O7 2.935459 1_455
Ba3 O8 2.935462 1_555
Ba3 O13 2.935462 1_555
Ba3 O5 2.963004 1_565
Ba3 O2 2.963004 1_455
Ba3 O1 2.963010 1_555
Ba3 O17 3.000668 1_556
Ba3 O15 3.000670 1_556
Ba3 O16 3.000670 1_556
Ba4 O3 2.938710 1_545
Ba4 O0 2.938710 1_545
Ba4 O4 2.938713 1_555
Ba4 O4 2.938713 1_445
Ba4 O0 2.938716 1_445
Ba4 O3 2.938716 1_555
Ba4 O10 2.954115 1_545
Ba4 O17 2.954115 1_545
Ba4 O6 2.954115 1_555
Ba4 O9 2.954115 1_445
Ba4 O16 2.954115 1_555
Ba4 O15 2.954115 1_445
Ba5 O5 2.938710 1_455
Ba5 O2 2.938710 1_455
Ba5 O1 2.938713 1_555
Ba5 O1 2.938713 1_445
Ba5 O5 2.938716 1_555
Ba5 O2 2.938716 1_445
Ba5 O7 2.954115 1_455
Ba5 O12 2.954115 1_455
Ba5 O8 2.954115 1_555
Ba5 O13 2.954115 1_445
Ba5 O14 2.954115 1_555
Ba5 O11 2.954115 1_445
Li0 O7 2.154764 1_454
Li0 O17 2.154764 1_545
Li0 O16 2.154764 1_555
Li0 O8 2.154764 1_554
Li0 O15 2.154764 1_445
Li0 O13 2.154764 1_444
Li1 O12 2.154764 1_455
Li1 O10 2.154764 1_545
Li1 O14 2.154764 1_555
Li1 O11 2.154764 1_445
Li1 O6 2.154764 1_555
Li1 O9 2.154764 1_445
O0 Ru0 2.074857 1_555
O0 Ru3 2.074857 1_555
O1 Ru1 2.074857 1_555
O1 Ru2 2.074857 1_555
O2 Ru1 2.074857 1_555
O2 Ru2 2.074857 1_555
O3 Ru0 2.074857 1_555
O3 Ru3 2.074857 1_555
O4 Ru0 2.074857 1_555
O4 Ru3 2.074857 1_555
O5 Ru1 2.074857 1_555
O5 Ru2 2.074857 1_555
O6 Ru0 1.882807 1_555
O7 Ru1 1.882803 1_555
O8 Ru1 1.882807 1_555
O9 Ru0 1.882807 1_555
O10 Ru0 1.882803 1_555
O11 Ru2 1.882807 1_555
O12 Ru2 1.882803 1_555
O13 Ru1 1.882807 1_555
O14 Ru2 1.882807 1_555
O15 Ru3 1.882807 1_555
O16 Ru3 1.882807 1_555
O17 Ru3 1.882803 1_555
