# generated using pymatgen
data_Sm2Cu4Sn5
_symmetry_space_group_name_H-M   'P 1'
_cell_length_a   12.90062618
_cell_length_b   12.90062618
_cell_length_c   12.90062618
_cell_angle_alpha   160.25240463
_cell_angle_beta   160.25240463
_cell_angle_gamma   28.06914443
_symmetry_Int_Tables_number   1
_chemical_formula_structural   Sm2Cu4Sn5
_chemical_formula_sum   'Sm2 Cu4 Sn5'
_cell_volume   244.99137529
_cell_formula_units_Z   1
loop_
 _symmetry_equiv_pos_site_id
 _symmetry_equiv_pos_as_xyz
  1  'x, y, z'
loop_
 _atom_site_type_symbol
 _atom_site_label
 _atom_site_symmetry_multiplicity
 _atom_site_fract_x
 _atom_site_fract_y
 _atom_site_fract_z
 _atom_site_occupancy
  Sm  Sm0  1  0.00397700  0.00397700  0.00000000  1
  Sm  Sm1  1  0.68422300  0.68422300  0.00000000  1
  Cu  Cu0  1  0.55003400  0.55003400  0.00000000  1
  Cu  Cu1  1  0.59272200  0.09272200  0.50000000  1
  Cu  Cu2  1  0.45573600  0.45573600  0.00000000  1
  Cu  Cu3  1  0.09272200  0.59272200  0.50000000  1
  Sn  Sn0  1  0.78090700  0.28090700  0.50000000  1
  Sn  Sn1  1  0.28090700  0.78090700  0.50000000  1
  Sn  Sn2  1  0.39704900  0.89704900  0.50000000  1
  Sn  Sn3  1  0.89704900  0.39704900  0.50000000  1
  Sn  Sn4  1  0.15167300  0.15167300  0.00000000  1
loop_
_geom_bond_atom_site_label_1
_geom_bond_atom_site_label_2
_geom_bond_distance
_geom_bond_site_symmetry_2
Sm0 Sn3 3.472394 1_444
Sm0 Sn2 3.472394 1_545
Sm0 Sn3 3.472394 1_455
Sm0 Sn2 3.472394 1_444
Sm1 Sn4 3.232851 1_655
Sm1 Sn4 3.232851 1_554
Sm1 Sn4 3.232851 1_565
Sm1 Sn4 3.232851 1_666
Sm1 Sn0 3.278818 1_565
Sm1 Sn1 3.278818 1_655
Sm1 Sn1 3.278818 1_554
Sm1 Sn0 3.278818 1_554
Cu0 Cu2 2.360380 1_555
Cu0 Cu1 2.456724 1_565
Cu0 Cu3 2.456724 1_554
Cu0 Cu3 2.456724 1_655
Cu0 Cu1 2.456724 1_554
Cu0 Sm0 3.334152 1_565
Cu0 Sm0 3.334152 1_554
Cu0 Sm0 3.334152 1_655
Cu0 Sm0 3.334152 1_666
Cu0 Sm1 3.358895 1_555
Cu1 Sn4 2.659165 1_656
Cu1 Sn4 2.659165 1_555
Cu1 Sm0 3.135010 1_555
Cu1 Sm0 3.135010 1_656
Cu1 Sm1 3.184263 1_545
Cu1 Sm1 3.184263 1_556
Cu2 Sn2 2.655504 1_544
Cu2 Sn3 2.655504 1_454
Cu2 Sn2 2.655504 1_555
Cu2 Sn3 2.655504 1_555
Cu2 Sm0 3.353447 1_666
Cu2 Sm0 3.353447 1_655
Cu2 Sm0 3.353447 1_554
Cu2 Sm0 3.353447 1_565
Cu3 Sn4 2.659165 1_566
Cu3 Sn4 2.659165 1_555
Cu3 Sm0 3.135010 1_555
Cu3 Sm0 3.135010 1_566
Cu3 Sm1 3.184263 1_455
Cu3 Sm1 3.184263 1_556
Sn0 Sn3 2.907159 1_555
Sn0 Sn1 3.128496 1_645
Sn0 Sn1 3.128496 1_544
Sn0 Sn1 3.128496 1_656
Sn0 Sn1 3.128496 1_555
Sn1 Sn2 2.907159 1_555
Sn2 Sn3 3.128496 1_454
Sn2 Sn3 3.128496 1_566
Sn2 Sn3 3.128496 1_465
Sn2 Sn3 3.128496 1_555
