# generated using pymatgen
data_Ce10Y22O53
_symmetry_space_group_name_H-M   'P 1'
_cell_length_a   9.37500800
_cell_length_b   9.38608492
_cell_length_c   15.27895781
_cell_angle_alpha   90.06004325
_cell_angle_beta   90.25846447
_cell_angle_gamma   109.57044891
_symmetry_Int_Tables_number   1
_chemical_formula_structural   Ce10Y22O53
_chemical_formula_sum   'Ce10 Y22 O53'
_cell_volume   1266.77919593
_cell_formula_units_Z   1
loop_
 _symmetry_equiv_pos_site_id
 _symmetry_equiv_pos_as_xyz
  1  'x, y, z'
loop_
 _atom_site_type_symbol
 _atom_site_label
 _atom_site_symmetry_multiplicity
 _atom_site_fract_x
 _atom_site_fract_y
 _atom_site_fract_z
 _atom_site_occupancy
  Ce  Ce0  1  0.88025300  0.14272000  0.88607000  1
  Ce  Ce1  1  0.38261300  0.60133400  0.86846000  1
  Ce  Ce2  1  0.76338100  0.76205700  0.51250200  1
  Ce  Ce3  1  0.01670500  0.51530400  0.51163800  1
  Ce  Ce4  1  0.09280100  0.86496900  0.87375500  1
  Ce  Ce5  1  0.25387000  0.25337000  0.00531700  1
  Ce  Ce6  1  0.63145200  0.35937200  0.61155200  1
  Ce  Ce7  1  0.52099000  0.01674700  0.01345700  1
  Ce  Ce8  1  0.58674900  0.34305500  0.37243000  1
  Ce  Ce9  1  0.14079800  0.86223200  0.11362800  1
  Y  Y0  1  0.37867000  0.65591700  0.62688500  1
  Y  Y1  1  0.60433600  0.34484700  0.87237600  1
  Y  Y2  1  0.35911100  0.64371700  0.38472400  1
  Y  Y3  1  0.73476300  0.76097300  0.98505400  1
  Y  Y4  1  0.48795100  0.01379800  0.73364800  1
  Y  Y5  1  0.87918000  0.16299400  0.13122000  1
  Y  Y6  1  0.02399400  0.50605700  0.99936900  1
  Y  Y7  1  0.23109400  0.23062500  0.75716800  1
  Y  Y8  1  0.98066400  0.51429800  0.23569200  1
  Y  Y9  1  0.10005700  0.84687500  0.37227800  1
  Y  Y10  1  0.23122900  0.26116600  0.48546300  1
  Y  Y11  1  0.11351000  0.87041400  0.64017700  1
  Y  Y12  1  0.88273300  0.09471400  0.36795700  1
  Y  Y13  1  0.02570100  0.49839900  0.75432000  1
  Y  Y14  1  0.89890700  0.14175700  0.61233900  1
  Y  Y15  1  0.73809800  0.74370700  0.75052000  1
  Y  Y16  1  0.74058900  0.74143100  0.24425700  1
  Y  Y17  1  0.60596300  0.36893500  0.14041500  1
  Y  Y18  1  0.52760300  0.98999600  0.25607600  1
  Y  Y19  1  0.39878700  0.63712300  0.11489500  1
  Y  Y20  1  0.52524000  0.99668300  0.49627900  1
  Y  Y21  1  0.23687000  0.24850100  0.25107300  1
  O  O0  1  0.85159700  0.89598600  0.86200800  1
  O  O1  1  0.86408100  0.39321200  0.87929800  1
  O  O2  1  0.97446700  0.74433200  0.00232400  1
  O  O3  1  0.50659500  0.78146900  0.75644600  1
  O  O4  1  0.37192900  0.40435500  0.36353900  1
  O  O5  1  0.61313000  0.09921800  0.86922700  1
  O  O6  1  0.25771900  0.50236400  0.51418000  1
  O  O7  1  0.50271100  0.27127600  0.73434900  1
  O  O8  1  0.63621000  0.59671200  0.87238700  1
  O  O9  1  0.36584700  0.89521600  0.60896000  1
  O  O10  1  0.46924700  0.23330100  0.50122700  1
  O  O11  1  0.35786100  0.89239000  0.37779700  1
  O  O12  1  0.36535200  0.35385900  0.87682800  1
  O  O13  1  0.49319400  0.76936400  0.98425100  1
  O  O14  1  0.00761400  0.28731300  0.25657100  1
  O  O15  1  0.24577600  0.98373600  0.76471900  1
  O  O16  1  0.10522700  0.59995600  0.36919300  1
  O  O17  1  0.26693600  0.48498400  0.74099600  1
  O  O18  1  0.76542200  0.00419700  0.01504900  1
  O  O19  1  0.00381700  0.77556000  0.23322200  1
  O  O20  1  0.15318400  0.13946300  0.61339700  1
  O  O21  1  0.13190800  0.09676500  0.37245400  1
  O  O22  1  0.01801600  0.77203000  0.50728000  1
  O  O23  1  0.11412300  0.11712100  0.88590300  1
  O  O24  1  0.85765400  0.40481600  0.11200200  1
  O  O25  1  0.16004500  0.64876500  0.87357900  1
  O  O26  1  0.13084100  0.63419600  0.63297800  1
  O  O27  1  0.63081700  0.13537500  0.13392300  1
  O  O28  1  0.98986500  0.27271200  0.48376900  1
  O  O29  1  0.86384700  0.89044400  0.64047700  1
  O  O30  1  0.84182000  0.82661400  0.37707800  1
  O  O31  1  0.98163100  0.22916900  0.75449300  1
  O  O32  1  0.26564700  0.97799800  0.98908000  1
  O  O33  1  0.73377300  0.49148200  0.26995700  1
  O  O34  1  0.77140400  0.98651800  0.23797500  1
  O  O35  1  0.87405100  0.39653900  0.63276800  1
  O  O36  1  0.96889500  0.71946400  0.75807700  1
  O  O37  1  0.65205100  0.63613600  0.11026300  1
  O  O38  1  0.51477400  0.26617200  0.00627600  1
  O  O39  1  0.77038600  0.99734000  0.49692800  1
  O  O40  1  0.65748800  0.14277600  0.37343100  1
  O  O41  1  0.64788100  0.12271500  0.62608200  1
  O  O42  1  0.52030100  0.74678300  0.49456800  1
  O  O43  1  0.36139500  0.38835900  0.13903200  1
  O  O44  1  0.49460800  0.71944500  0.26103000  1
  O  O45  1  0.74833000  0.48941400  0.48301100  1
  O  O46  1  0.61890800  0.59078700  0.63521400  1
  O  O47  1  0.38206500  0.88772900  0.13615500  1
  O  O48  1  0.46304200  0.20965700  0.25751300  1
  O  O49  1  0.26776200  0.49876600  0.99481900  1
  O  O50  1  0.14781100  0.62081600  0.12913700  1
  O  O51  1  0.01336300  0.26253300  0.00649500  1
  O  O52  1  0.12342300  0.09231700  0.13359000  1
loop_
_geom_bond_atom_site_label_1
_geom_bond_atom_site_label_2
_geom_bond_distance
_geom_bond_site_symmetry_2
Ce0 O31 2.259924 1_555
Ce0 O0 2.269602 1_545
Ce0 O23 2.284276 1_655
Ce0 O51 2.289588 1_656
Ce0 O1 2.408469 1_555
Ce0 O5 2.411080 1_555
Ce0 O18 2.412417 1_556
Ce1 O49 2.267536 1_555
Ce1 O25 2.276364 1_555
Ce1 O12 2.277504 1_555
Ce1 O17 2.311838 1_555
Ce1 O13 2.361001 1_555
Ce1 O8 2.392839 1_555
Ce1 O3 2.417897 1_555
Ce2 O39 2.200452 1_555
Ce2 O30 2.215197 1_555
Ce2 O42 2.250406 1_555
Ce2 O29 2.319619 1_555
Ce2 O22 2.359218 1_655
Ce2 O46 2.550409 1_555
Ce2 O45 2.554757 1_555
Ce3 O26 2.237230 1_555
Ce3 O28 2.245545 1_455
Ce3 O6 2.303195 1_555
Ce3 O35 2.341874 1_455
Ce3 O16 2.373810 1_555
Ce3 O22 2.406556 1_555
Ce3 O45 2.482127 1_455
Ce4 O15 2.242604 1_555
Ce4 O36 2.291725 1_455
Ce4 O23 2.314644 1_565
Ce4 O25 2.317881 1_555
Ce4 O2 2.356799 1_456
Ce4 O0 2.380731 1_455
Ce4 O32 2.382173 1_555
Ce5 O49 2.268902 1_554
Ce5 O12 2.279914 1_554
Ce5 O51 2.285151 1_555
Ce5 O23 2.351992 1_554
Ce5 O38 2.408367 1_555
Ce5 O43 2.432241 1_555
Ce5 O52 2.532028 1_555
Ce5 O32 2.635206 1_544
Ce6 O35 2.204790 1_555
Ce6 O7 2.239577 1_555
Ce6 O46 2.243286 1_555
Ce6 O41 2.288456 1_555
Ce6 O10 2.306793 1_555
Ce6 O45 2.382456 1_555
Ce7 O27 2.213204 1_555
Ce7 O13 2.291275 1_544
Ce7 O32 2.325916 1_544
Ce7 O18 2.333671 1_555
Ce7 O38 2.363932 1_555
Ce7 O47 2.376431 1_545
Ce7 O5 2.402996 1_554
Ce8 O40 2.192937 1_555
Ce8 O48 2.236030 1_555
Ce8 O33 2.242694 1_555
Ce8 O4 2.275837 1_555
Ce8 O10 2.326122 1_555
Ce8 O45 2.369473 1_555
Ce9 O47 2.218559 1_555
Ce9 O19 2.230312 1_555
Ce9 O52 2.240124 1_565
Ce9 O50 2.301260 1_555
Ce9 O32 2.311780 1_554
Ce9 O2 2.316107 1_455
O0 Y15 2.244201 1_555
O0 Y3 2.331045 1_555
O1 Y1 2.324659 1_555
O1 Y6 2.375362 1_655
O1 Y13 2.438185 1_655
O2 Y3 2.318175 1_554
O2 Y6 2.432093 1_654
O3 Y4 2.272345 1_565
O3 Y15 2.315440 1_555
O3 Y0 2.402616 1_555
O4 Y2 2.312238 1_555
O4 Y21 2.330272 1_555
O4 Y10 2.419974 1_555
O5 Y1 2.334857 1_555
O5 Y4 2.378114 1_555
O6 Y10 2.236009 1_555
O6 Y0 2.282689 1_555
O6 Y2 2.398686 1_555
O7 Y1 2.317352 1_555
O7 Y4 2.373952 1_555
O7 Y7 2.471587 1_555
O8 Y1 2.281373 1_555
O8 Y3 2.284691 1_555
O8 Y15 2.328428 1_555
O9 Y20 2.275367 1_555
O9 Y4 2.302379 1_565
O9 Y0 2.305693 1_555
O9 Y11 2.349365 1_555
O10 Y10 2.343484 1_555
O10 Y20 2.448424 1_545
O11 Y9 2.310294 1_555
O11 Y2 2.340520 1_555
O11 Y20 2.374718 1_555
O11 Y18 2.425693 1_555
O12 Y1 2.271529 1_555
O12 Y7 2.294393 1_555
O13 Y3 2.292273 1_555
O13 Y19 2.365076 1_556
O14 Y8 2.250766 1_455
O14 Y21 2.298968 1_555
O14 Y5 2.347924 1_455
O14 Y12 2.478211 1_455
O15 Y4 2.245106 1_565
O15 Y11 2.319643 1_555
O15 Y7 2.369881 1_565
O16 Y2 2.286909 1_555
O16 Y9 2.334716 1_555
O16 Y8 2.348787 1_455
O17 Y7 2.310489 1_555
O17 Y13 2.316660 1_555
O17 Y0 2.368031 1_555
O18 Y3 2.249756 1_544
O18 Y5 2.328501 1_555
O19 Y9 2.313286 1_555
O19 Y16 2.386458 1_455
O19 Y8 2.388647 1_455
O20 Y10 2.262460 1_555
O20 Y7 2.377792 1_555
O20 Y14 2.391129 1_455
O20 Y11 2.461153 1_545
O21 Y9 2.263022 1_545
O21 Y10 2.290591 1_555
O21 Y12 2.330342 1_455
O21 Y21 2.349305 1_555
O22 Y9 2.234981 1_555
O22 Y11 2.281030 1_555
O23 Y7 2.334000 1_555
O24 Y8 2.267113 1_555
O24 Y6 2.308956 1_654
O24 Y17 2.312313 1_555
O24 Y5 2.363576 1_555
O25 Y13 2.383587 1_555
O25 Y6 2.449048 1_555
O26 Y0 2.265628 1_555
O26 Y11 2.279318 1_555
O26 Y13 2.283243 1_555
O27 Y5 2.255415 1_555
O27 Y17 2.282956 1_555
O27 Y18 2.327808 1_545
O28 Y10 2.301389 1_655
O28 Y14 2.326993 1_555
O28 Y12 2.405143 1_555
O29 Y15 2.246912 1_555
O29 Y14 2.311061 1_565
O29 Y11 2.410110 1_655
O30 Y16 2.264762 1_555
O30 Y9 2.365556 1_655
O30 Y12 2.419392 1_565
O31 Y7 2.334348 1_655
O31 Y14 2.355172 1_555
O31 Y13 2.420143 1_655
O33 Y8 2.314399 1_555
O33 Y16 2.358795 1_555
O33 Y17 2.393069 1_555
O34 Y16 2.222621 1_555
O34 Y5 2.307475 1_565
O34 Y12 2.309068 1_565
O34 Y18 2.314597 1_555
O35 Y13 2.333740 1_655
O35 Y14 2.498593 1_555
O36 Y15 2.252654 1_555
O36 Y13 2.309238 1_655
O36 Y11 2.414753 1_655
O37 Y3 2.245760 1_554
O37 Y16 2.299559 1_555
O37 Y19 2.378843 1_555
O37 Y17 2.442766 1_555
O38 Y1 2.244796 1_554
O38 Y17 2.299846 1_555
O39 Y12 2.281514 1_565
O39 Y20 2.296164 1_555
O39 Y14 2.297882 1_565
O40 Y12 2.304205 1_555
O40 Y18 2.357813 1_545
O40 Y20 2.414125 1_545
O41 Y4 2.234528 1_555
O41 Y14 2.310225 1_555
O41 Y20 2.391222 1_545
O42 Y2 2.242876 1_555
O42 Y20 2.330598 1_555
O42 Y0 2.418002 1_555
O43 Y21 2.238901 1_555
O43 Y19 2.272745 1_555
O43 Y17 2.360160 1_555
O44 Y2 2.260579 1_555
O44 Y16 2.261166 1_555
O44 Y19 2.429537 1_555
O44 Y18 2.454468 1_555
O46 Y15 2.305429 1_555
O46 Y0 2.526344 1_555
O47 Y18 2.288359 1_555
O47 Y19 2.430818 1_555
O48 Y21 2.270386 1_555
O48 Y18 2.335315 1_545
O48 Y17 2.432405 1_555
O49 Y6 2.310505 1_555
O49 Y19 2.338206 1_556
O50 Y8 2.254437 1_455
O50 Y19 2.317402 1_555
O50 Y6 2.361346 1_554
O51 Y6 2.257074 1_554
O51 Y5 2.307580 1_455
O52 Y21 2.331316 1_555
O52 Y5 2.588707 1_455
