# generated using pymatgen
data_La6S4BrN3
_symmetry_space_group_name_H-M   'P 1'
_cell_length_a   4.11180000
_cell_length_b   11.70436000
_cell_length_c   27.89318900
_cell_angle_alpha   90.00000000
_cell_angle_beta   90.00000000
_cell_angle_gamma   90.00000000
_symmetry_Int_Tables_number   1
_chemical_formula_structural   La6S4BrN3
_chemical_formula_sum   'La24 S16 Br4 N12'
_cell_volume   1342.38726370
_cell_formula_units_Z   4
loop_
 _symmetry_equiv_pos_site_id
 _symmetry_equiv_pos_as_xyz
  1  'x, y, z'
loop_
 _atom_site_type_symbol
 _atom_site_label
 _atom_site_symmetry_multiplicity
 _atom_site_fract_x
 _atom_site_fract_y
 _atom_site_fract_z
 _atom_site_occupancy
  La  La0  1  0.75000000  0.10003000  0.03605900  1
  La  La1  1  0.25000000  0.24656700  0.67153400  1
  La  La2  1  0.75000000  0.75501100  0.06385700  1
  La  La3  1  0.75000000  0.60003000  0.46394100  1
  La  La4  1  0.25000000  0.37563000  0.28290800  1
  La  La5  1  0.25000000  0.44176600  0.07774500  1
  La  La6  1  0.75000000  0.55823400  0.92225500  1
  La  La7  1  0.25000000  0.43903600  0.80834500  1
  La  La8  1  0.25000000  0.24498900  0.93614300  1
  La  La9  1  0.75000000  0.25501100  0.43614300  1
  La  La10  1  0.25000000  0.74656700  0.82846600  1
  La  La11  1  0.75000000  0.05823400  0.57774500  1
  La  La12  1  0.75000000  0.75343300  0.32846600  1
  La  La13  1  0.75000000  0.12437000  0.78290800  1
  La  La14  1  0.25000000  0.94176600  0.42225500  1
  La  La15  1  0.25000000  0.87563000  0.21709200  1
  La  La16  1  0.75000000  0.06096400  0.30834500  1
  La  La17  1  0.75000000  0.62437000  0.71709200  1
  La  La18  1  0.25000000  0.93903600  0.69165500  1
  La  La19  1  0.25000000  0.89997000  0.96394100  1
  La  La20  1  0.75000000  0.25343300  0.17153400  1
  La  La21  1  0.25000000  0.74498900  0.56385700  1
  La  La22  1  0.75000000  0.56096400  0.19165500  1
  La  La23  1  0.25000000  0.39997000  0.53605900  1
  S  S0  1  0.75000000  0.81047300  0.63700500  1
  S  S1  1  0.75000000  0.79298500  0.89750000  1
  S  S2  1  0.25000000  0.63577500  0.26389400  1
  S  S3  1  0.75000000  0.86422500  0.76389400  1
  S  S4  1  0.75000000  0.85435400  0.50498600  1
  S  S5  1  0.25000000  0.68952700  0.13700500  1
  S  S6  1  0.75000000  0.31047300  0.86299500  1
  S  S7  1  0.25000000  0.14564600  0.49501400  1
  S  S8  1  0.25000000  0.13577500  0.23610600  1
  S  S9  1  0.75000000  0.29298500  0.60250000  1
  S  S10  1  0.75000000  0.35435400  0.99501400  1
  S  S11  1  0.75000000  0.36422500  0.73610600  1
  S  S12  1  0.25000000  0.20701500  0.10250000  1
  S  S13  1  0.25000000  0.64564600  0.00498600  1
  S  S14  1  0.25000000  0.18952700  0.36299500  1
  S  S15  1  0.25000000  0.70701500  0.39750000  1
  Br  Br0  1  0.75000000  0.46201400  0.36233200  1
  Br  Br1  1  0.75000000  0.96201400  0.13766800  1
  Br  Br2  1  0.25000000  0.53798600  0.63766800  1
  Br  Br3  1  0.25000000  0.03798600  0.86233200  1
  N  N0  1  0.25000000  0.59812000  0.51402100  1
  N  N1  1  0.25000000  0.09812000  0.98597900  1
  N  N2  1  0.75000000  0.40188000  0.48597900  1
  N  N3  1  0.25000000  0.61344100  0.76256900  1
  N  N4  1  0.75000000  0.43704200  0.12566300  1
  N  N5  1  0.75000000  0.38655900  0.23743100  1
  N  N6  1  0.25000000  0.11344100  0.73743100  1
  N  N7  1  0.25000000  0.06295800  0.62566300  1
  N  N8  1  0.75000000  0.88655900  0.26256900  1
  N  N9  1  0.75000000  0.93704200  0.37433700  1
  N  N10  1  0.25000000  0.56295800  0.87433700  1
  N  N11  1  0.75000000  0.90188000  0.01402100  1
loop_
_geom_bond_atom_site_label_1
_geom_bond_atom_site_label_2
_geom_bond_distance
_geom_bond_site_symmetry_2
La0 N11 2.399301 1_545
La0 N1 2.485665 1_554
La0 N1 2.485665 1_654
La0 S12 3.037968 1_655
La0 S12 3.037968 1_555
La0 S10 3.189276 1_554
La1 N6 2.409642 1_555
La1 N7 2.501080 1_555
La1 S9 2.868753 1_555
La1 S9 2.868753 1_455
La1 S11 3.060587 1_555
La1 S11 3.060587 1_455
La2 N11 2.210729 1_555
La2 S13 2.926045 1_555
La2 S13 2.926045 1_655
La2 S5 2.996184 1_555
La2 S5 2.996184 1_655
La3 N2 2.399301 1_555
La3 N0 2.485665 1_655
La3 N0 2.485665 1_555
La3 S15 3.037968 1_555
La3 S15 3.037968 1_655
La3 S4 3.189276 1_555
La4 N5 2.419127 1_455
La4 N5 2.419127 1_555
La4 S2 3.090676 1_555
La4 S8 3.096034 1_555
La4 S14 3.120073 1_555
La5 N4 2.452803 1_455
La5 N4 2.452803 1_555
La5 S12 2.833045 1_555
La5 S13 3.132594 1_555
La5 S10 3.255553 1_454
La5 S10 3.255553 1_554
La5 S5 3.337899 1_555
La6 N10 2.452803 1_555
La6 N10 2.452803 1_655
La6 S1 2.833045 1_555
La6 S10 3.132594 1_555
La6 S13 3.255553 1_556
La6 S13 3.255553 1_656
La6 S6 3.337899 1_555
La7 N10 2.343505 1_555
La7 N3 2.407741 1_555
La7 S6 2.968951 1_555
La7 S6 2.968951 1_455
La7 S11 3.008913 1_555
La7 S11 3.008913 1_455
La8 N1 2.210729 1_555
La8 S10 2.926045 1_455
La8 S10 2.926045 1_555
La8 S6 2.996184 1_455
La8 S6 2.996184 1_555
La9 N2 2.210729 1_555
La9 S7 2.926045 1_555
La9 S7 2.926045 1_655
La9 S14 2.996184 1_655
La9 S14 2.996184 1_555
La10 N3 2.409642 1_555
La10 N10 2.501080 1_555
La10 S1 2.868753 1_455
La10 S1 2.868753 1_555
La10 S3 3.060587 1_555
La10 S3 3.060587 1_455
La11 N7 2.452803 1_655
La11 N7 2.452803 1_555
La11 S9 2.833045 1_555
La11 S4 3.132594 1_545
La11 S7 3.255553 1_655
La11 S7 3.255553 1_555
La11 S0 3.337899 1_545
La12 N8 2.409642 1_555
La12 N9 2.501080 1_555
La12 S15 2.868753 1_655
La12 S15 2.868753 1_555
La12 S2 3.060587 1_555
La12 S2 3.060587 1_655
La13 N6 2.419127 1_655
La13 N6 2.419127 1_555
La13 S3 3.090676 1_545
La13 S11 3.096034 1_555
La13 S6 3.120073 1_555
La14 N9 2.452803 1_555
La14 N9 2.452803 1_455
La14 S15 2.833045 1_555
La14 S7 3.132594 1_565
La14 S4 3.255553 1_455
La14 S4 3.255553 1_555
La14 S14 3.337899 1_565
La15 N8 2.419127 1_555
La15 N8 2.419127 1_455
La15 S8 3.090676 1_565
La15 S2 3.096034 1_555
La15 S5 3.120073 1_555
La16 N9 2.343505 1_545
La16 N8 2.407741 1_545
La16 S14 2.968951 1_655
La16 S14 2.968951 1_555
La16 S8 3.008913 1_555
La16 S8 3.008913 1_655
La17 N3 2.419127 1_655
La17 N3 2.419127 1_555
La17 S11 3.090676 1_555
La17 S3 3.096034 1_555
La17 S0 3.120073 1_555
La18 N7 2.343505 1_565
La18 N6 2.407741 1_565
La18 S0 2.968951 1_555
La18 S0 2.968951 1_455
La18 S3 3.008913 1_455
La18 S3 3.008913 1_555
La19 N1 2.399301 1_565
La19 N11 2.485665 1_456
La19 N11 2.485665 1_556
La19 S1 3.037968 1_455
La19 S1 3.037968 1_555
La19 S13 3.189276 1_556
La20 N5 2.409642 1_555
La20 N4 2.501080 1_555
La20 S12 2.868753 1_655
La20 S12 2.868753 1_555
La20 S8 3.060587 1_555
La20 S8 3.060587 1_655
La21 N0 2.210729 1_555
La21 S4 2.926045 1_455
La21 S4 2.926045 1_555
La21 S0 2.996184 1_455
La21 S0 2.996184 1_555
La22 N4 2.343505 1_555
La22 N5 2.407741 1_555
La22 S5 2.968951 1_555
La22 S5 2.968951 1_655
La22 S2 3.008913 1_555
La22 S2 3.008913 1_655
La23 N0 2.399301 1_555
La23 N2 2.485665 1_455
La23 N2 2.485665 1_555
La23 S9 3.037968 1_455
La23 S9 3.037968 1_555
La23 S7 3.189276 1_555
Br0 La9 3.179450 1_555
Br0 La4 3.186994 1_555
Br0 La4 3.186994 1_655
Br0 La3 3.262233 1_555
Br0 La12 3.539263 1_555
Br1 La2 3.179450 1_555
Br1 La15 3.186994 1_655
Br1 La15 3.186994 1_555
Br1 La0 3.262233 1_565
Br1 La20 3.539263 1_565
Br2 La21 3.179450 1_555
Br2 La17 3.186994 1_455
Br2 La17 3.186994 1_555
Br2 La23 3.262233 1_555
Br2 La1 3.539263 1_555
Br3 La8 3.179450 1_555
Br3 La13 3.186994 1_455
Br3 La13 3.186994 1_555
Br3 La19 3.262233 1_545
Br3 La10 3.539263 1_545
