# generated using pymatgen
data_CsB(CF4)2
_symmetry_space_group_name_H-M   'P 1'
_cell_length_a   7.71397600
_cell_length_b   6.08203900
_cell_length_c   8.36858332
_cell_angle_alpha   79.19387431
_cell_angle_beta   90.00000000
_cell_angle_gamma   90.00000000
_symmetry_Int_Tables_number   1
_chemical_formula_structural   CsB(CF4)2
_chemical_formula_sum   'Cs2 B2 C4 F16'
_cell_volume   385.66397724
_cell_formula_units_Z   2
loop_
 _symmetry_equiv_pos_site_id
 _symmetry_equiv_pos_as_xyz
  1  'x, y, z'
loop_
 _atom_site_type_symbol
 _atom_site_label
 _atom_site_symmetry_multiplicity
 _atom_site_fract_x
 _atom_site_fract_y
 _atom_site_fract_z
 _atom_site_occupancy
  Cs  Cs0  1  0.75000000  0.98106800  0.22106000  1
  Cs  Cs1  1  0.25000000  0.01893200  0.77894000  1
  B  B0  1  0.25000000  0.68423600  0.20543700  1
  B  B1  1  0.75000000  0.31576400  0.79456300  1
  C  C0  1  0.75000000  0.57246600  0.83211300  1
  C  C1  1  0.75000000  0.30647700  0.59630700  1
  C  C2  1  0.25000000  0.42753400  0.16788700  1
  C  C3  1  0.25000000  0.69352300  0.40369300  1
  F  F0  1  0.75000000  0.51222900  0.49248400  1
  F  F1  1  0.60731200  0.69817600  0.77195600  1
  F  F2  1  0.09956900  0.79598800  0.13197000  1
  F  F3  1  0.59956900  0.20401200  0.86803000  1
  F  F4  1  0.10731200  0.30182400  0.22804400  1
  F  F5  1  0.39207600  0.80532900  0.45083900  1
  F  F6  1  0.89268800  0.69817600  0.77195600  1
  F  F7  1  0.90043100  0.20401200  0.86803000  1
  F  F8  1  0.39268800  0.30182400  0.22804400  1
  F  F9  1  0.10792400  0.80532900  0.45083900  1
  F  F10  1  0.89207600  0.19467100  0.54916100  1
  F  F11  1  0.25000000  0.42885200  0.00161600  1
  F  F12  1  0.40043100  0.79598800  0.13197000  1
  F  F13  1  0.75000000  0.57114800  0.99838400  1
  F  F14  1  0.25000000  0.48777100  0.50751600  1
  F  F15  1  0.60792400  0.19467100  0.54916100  1
loop_
_geom_bond_atom_site_label_1
_geom_bond_atom_site_label_2
_geom_bond_distance
_geom_bond_site_symmetry_2
Cs0 F2 3.067432 1_655
Cs0 F12 3.067432 1_555
Cs0 F3 3.226655 1_564
Cs0 F7 3.226655 1_564
Cs0 F0 3.295718 1_555
Cs0 F13 3.380897 1_554
Cs0 F4 3.383660 1_665
Cs0 F8 3.383660 1_565
Cs0 F9 3.419446 1_655
Cs0 F5 3.419446 1_555
Cs0 F15 3.430099 1_565
Cs0 F10 3.430099 1_565
Cs1 F3 3.067432 1_555
Cs1 F7 3.067432 1_455
Cs1 F12 3.226655 1_546
Cs1 F2 3.226655 1_546
Cs1 F14 3.295718 1_555
Cs1 F11 3.380897 1_556
Cs1 F1 3.383660 1_545
Cs1 F6 3.383660 1_445
Cs1 F15 3.419446 1_555
Cs1 F10 3.419446 1_455
Cs1 F5 3.430099 1_545
Cs1 F9 3.430099 1_545
B0 F12 1.424727 1_555
B0 F2 1.424727 1_555
B0 C2 1.649328 1_555
B0 C3 1.670633 1_555
B1 F3 1.424727 1_555
B1 F7 1.424727 1_555
B1 C0 1.649328 1_555
B1 C1 1.670633 1_555
C0 F6 1.380292 1_555
C0 F1 1.380292 1_555
C0 F13 1.389972 1_555
C1 F0 1.383180 1_555
C1 F10 1.385580 1_555
C1 F15 1.385580 1_555
C2 F8 1.380292 1_555
C2 F4 1.380292 1_555
C2 F11 1.389972 1_555
C3 F14 1.383180 1_555
C3 F5 1.385580 1_555
C3 F9 1.385580 1_555
