# generated using pymatgen
data_Ni(SbO3)2
_symmetry_space_group_name_H-M   'P 1'
_cell_length_a   4.65283633
_cell_length_b   10.35367062
_cell_length_c   9.30112636
_cell_angle_alpha   63.29887904
_cell_angle_beta   90.00004470
_cell_angle_gamma   89.99988320
_symmetry_Int_Tables_number   1
_chemical_formula_structural   Ni(SbO3)2
_chemical_formula_sum   'Ni4 Sb8 O24'
_cell_volume   400.29063625
_cell_formula_units_Z   4
loop_
 _symmetry_equiv_pos_site_id
 _symmetry_equiv_pos_as_xyz
  1  'x, y, z'
loop_
 _atom_site_type_symbol
 _atom_site_label
 _atom_site_symmetry_multiplicity
 _atom_site_fract_x
 _atom_site_fract_y
 _atom_site_fract_z
 _atom_site_occupancy
  Ni  Ni0  1  0.49999942  0.50000153  0.99999634  1
  Ni  Ni1  1  0.99999317  -0.00000113  0.49999662  1
  Ni  Ni2  1  0.50000816  0.49999462  0.49998758  1
  Ni  Ni3  1  0.99998930  0.00000395  0.00001343  1
  Sb  Sb0  1  0.50005687  0.16756367  0.16624738  1
  Sb  Sb1  1  0.50006325  0.16755591  0.66625850  1
  Sb  Sb2  1  -0.00006392  0.66758013  0.16623871  1
  Sb  Sb3  1  0.99994924  0.66758404  0.66623705  1
  Sb  Sb4  1  0.49993989  0.83244172  0.83374819  1
  Sb  Sb5  1  0.49993840  0.83243835  0.33375232  1
  Sb  Sb6  1  0.00006869  0.33241859  0.33376366  1
  Sb  Sb7  1  0.00006002  0.33242311  0.83375422  1
  O  O0  1  0.19139797  0.49999493  0.84572653  1
  O  O1  1  0.19140301  0.49998987  0.34572154  1
  O  O2  1  0.80860392  0.50000708  0.15428329  1
  O  O3  1  0.80861255  0.50001461  0.65427154  1
  O  O4  1  0.30861002  -0.00000810  0.34571774  1
  O  O5  1  0.30860913  0.99998668  0.84572324  1
  O  O6  1  0.69139157  0.00000885  0.15428587  1
  O  O7  1  0.69139046  0.00000577  0.65427665  1
  O  O8  1  0.19729618  0.17081309  0.01324669  1
  O  O9  1  0.19731640  0.17080083  0.51324268  1
  O  O10  1  0.80282406  0.17079644  0.31595388  1
  O  O11  1  0.80281860  0.17079517  0.81596344  1
  O  O12  1  0.30267721  0.67080392  0.01324434  1
  O  O13  1  0.30268961  0.67079562  0.51325536  1
  O  O14  1  0.69718688  0.67078767  0.81595522  1
  O  O15  1  0.69718103  0.67078642  0.31595748  1
  O  O16  1  0.80267899  0.82919180  0.98675671  1
  O  O17  1  0.80269414  0.82918835  0.48675701  1
  O  O18  1  0.19718115  0.82921109  0.68403356  1
  O  O19  1  0.19717140  0.82920533  0.18404751  1
  O  O20  1  0.69730677  0.32920606  0.98674505  1
  O  O21  1  0.69732600  0.32919066  0.48675552  1
  O  O22  1  0.30281531  0.32921518  0.18404123  1
  O  O23  1  0.30281617  0.32921019  0.68404395  1
loop_
_geom_bond_atom_site_label_1
_geom_bond_atom_site_label_2
_geom_bond_distance
_geom_bond_site_symmetry_2
Ni0 O0 2.029951 1_555
Ni0 O2 2.030071 1_556
Ni0 O14 2.044155 1_555
Ni0 O22 2.044165 1_556
Ni0 O20 2.044736 1_555
Ni0 O12 2.044817 1_556
Ni1 O7 2.030025 1_555
Ni1 O4 2.030065 1_655
Ni1 O18 2.044143 1_645
Ni1 O10 2.044177 1_555
Ni1 O9 2.044811 1_655
Ni1 O17 2.044812 1_545
Ni2 O1 2.029933 1_555
Ni2 O3 2.030098 1_555
Ni2 O15 2.044108 1_555
Ni2 O23 2.044220 1_555
Ni2 O21 2.044756 1_555
Ni2 O13 2.044880 1_555
Ni3 O6 2.029952 1_555
Ni3 O5 2.030183 1_644
Ni3 O19 2.044174 1_645
Ni3 O11 2.044179 1_554
Ni3 O8 2.044789 1_655
Ni3 O16 2.044922 1_544
O0 Sb3 1.997021 1_455
O0 Sb7 1.997190 1_555
O1 Sb2 1.997037 1_555
O1 Sb6 1.997118 1_555
O2 Sb6 1.997013 1_655
O2 Sb2 1.997119 1_655
O3 Sb7 1.997003 1_655
O3 Sb3 1.997137 1_555
O4 Sb0 1.996854 1_555
O4 Sb5 1.996970 1_545
O5 Sb1 1.996833 1_565
O5 Sb4 1.996935 1_555
O6 Sb5 1.996844 1_545
O6 Sb0 1.996978 1_555
O7 Sb4 1.996827 1_545
O7 Sb1 1.997004 1_555
O8 Sb7 1.979576 1_554
O8 Sb0 1.991904 1_555
O9 Sb6 1.979580 1_555
O9 Sb1 1.991972 1_555
O10 Sb6 1.979653 1_655
O10 Sb0 1.991582 1_555
O11 Sb7 1.979617 1_655
O11 Sb1 1.991555 1_555
O12 Sb4 1.979787 1_554
O12 Sb2 1.991880 1_555
O13 Sb5 1.979811 1_555
O13 Sb3 1.991833 1_455
O14 Sb4 1.979874 1_555
O14 Sb3 1.991544 1_555
O15 Sb5 1.979853 1_555
O15 Sb2 1.991533 1_655
O16 Sb2 1.979584 1_656
O16 Sb4 1.991882 1_555
O17 Sb3 1.979535 1_555
O17 Sb5 1.991912 1_555
O18 Sb3 1.979613 1_455
O18 Sb4 1.991600 1_555
O19 Sb2 1.979656 1_555
O19 Sb5 1.991571 1_555
O20 Sb0 1.979808 1_556
O20 Sb7 1.991918 1_655
O21 Sb1 1.979802 1_555
O21 Sb6 1.991856 1_655
O22 Sb0 1.979843 1_555
O22 Sb6 1.991519 1_555
O23 Sb1 1.979844 1_555
O23 Sb7 1.991503 1_555
