# generated using pymatgen
data_La3MnBi5
_symmetry_space_group_name_H-M   'P 1'
_cell_length_a   9.77965057
_cell_length_b   9.77965057
_cell_length_c   6.57426200
_cell_angle_alpha   90.00000000
_cell_angle_beta   90.00000000
_cell_angle_gamma   120.00000387
_symmetry_Int_Tables_number   1
_chemical_formula_structural   La3MnBi5
_chemical_formula_sum   'La6 Mn2 Bi10'
_cell_volume   544.53311744
_cell_formula_units_Z   2
loop_
 _symmetry_equiv_pos_site_id
 _symmetry_equiv_pos_as_xyz
  1  'x, y, z'
loop_
 _atom_site_type_symbol
 _atom_site_label
 _atom_site_symmetry_multiplicity
 _atom_site_fract_x
 _atom_site_fract_y
 _atom_site_fract_z
 _atom_site_occupancy
  La  La0  1  0.37951500  0.37951500  0.25000000  1
  La  La1  1  0.00000000  0.62048500  0.25000000  1
  La  La2  1  0.00000000  0.37951500  0.75000000  1
  La  La3  1  0.62048500  0.00000000  0.25000000  1
  La  La4  1  0.62048500  0.62048500  0.75000000  1
  La  La5  1  0.37951500  0.00000000  0.75000000  1
  Mn  Mn0  1  0.00000000  0.00000000  0.00000000  1
  Mn  Mn1  1  0.00000000  0.00000000  0.50000000  1
  Bi  Bi0  1  0.66666700  0.33333300  0.50000000  1
  Bi  Bi1  1  0.74752100  0.00000000  0.75000000  1
  Bi  Bi2  1  0.66666700  0.33333300  0.00000000  1
  Bi  Bi3  1  0.00000000  0.25247900  0.25000000  1
  Bi  Bi4  1  0.33333300  0.66666700  0.50000000  1
  Bi  Bi5  1  0.25247900  0.00000000  0.25000000  1
  Bi  Bi6  1  0.00000000  0.74752100  0.75000000  1
  Bi  Bi7  1  0.74752100  0.74752100  0.25000000  1
  Bi  Bi8  1  0.33333300  0.66666700  0.00000000  1
  Bi  Bi9  1  0.25247900  0.25247900  0.75000000  1
loop_
_geom_bond_atom_site_label_1
_geom_bond_atom_site_label_2
_geom_bond_distance
_geom_bond_site_symmetry_2
Bi0 Bi2 3.287131 1_556
Bi0 Bi2 3.287131 1_555
Bi0 La3 3.472723 1_555
Bi0 La2 3.472723 1_655
Bi0 La1 3.472726 1_655
Bi0 La5 3.472726 1_555
Bi0 La0 3.472731 1_555
Bi0 La4 3.472731 1_555
Bi1 Mn0 2.966149 1_656
Bi1 Mn1 2.966149 1_655
Bi1 La2 3.272279 1_655
Bi1 La4 3.272279 1_545
Bi1 La3 3.514073 1_556
Bi1 La3 3.514073 1_555
Bi1 La5 3.598970 1_555
Bi2 La3 3.472723 1_555
Bi2 La2 3.472723 1_654
Bi2 La1 3.472726 1_655
Bi2 La5 3.472726 1_554
Bi2 La4 3.472731 1_554
Bi2 La0 3.472731 1_555
Bi3 Mn1 2.966149 1_555
Bi3 Mn0 2.966149 1_555
Bi3 La3 3.272279 1_455
Bi3 La0 3.272279 1_555
Bi3 La2 3.514073 1_554
Bi3 La2 3.514073 1_555
Bi3 La1 3.598970 1_555
Bi4 Bi8 3.287131 1_556
Bi4 Bi8 3.287131 1_555
Bi4 La1 3.472723 1_555
Bi4 La5 3.472723 1_565
Bi4 La2 3.472726 1_555
Bi4 La3 3.472726 1_565
Bi4 La0 3.472731 1_555
Bi4 La4 3.472731 1_555
Bi5 Mn1 2.966149 1_555
Bi5 Mn0 2.966149 1_555
Bi5 La1 3.272279 1_545
Bi5 La0 3.272279 1_555
Bi5 La5 3.514073 1_555
Bi5 La5 3.514073 1_554
Bi5 La3 3.598970 1_555
Bi6 Mn1 2.966149 1_565
Bi6 Mn0 2.966149 1_566
Bi6 La5 3.272279 1_565
Bi6 La4 3.272279 1_455
Bi6 La1 3.514073 1_555
Bi6 La1 3.514073 1_556
Bi6 La2 3.598970 1_555
Bi7 Mn0 2.966149 1_665
Bi7 Mn1 2.966149 1_665
Bi7 La3 3.272279 1_565
Bi7 La1 3.272279 1_655
Bi7 La4 3.514073 1_554
Bi7 La4 3.514073 1_555
Bi7 La0 3.598970 1_555
Bi8 La1 3.472723 1_555
Bi8 La5 3.472723 1_564
Bi8 La2 3.472726 1_554
Bi8 La3 3.472726 1_565
Bi8 La4 3.472731 1_554
Bi8 La0 3.472731 1_555
Bi9 Mn0 2.966149 1_556
Bi9 Mn1 2.966149 1_555
Bi9 La2 3.272279 1_555
Bi9 La5 3.272279 1_555
Bi9 La0 3.514073 1_556
Bi9 La0 3.514073 1_555
Bi9 La4 3.598970 1_555
