# generated using pymatgen
data_Zn2In2S5
_symmetry_space_group_name_H-M   'P 1'
_cell_length_a   3.92144613
_cell_length_b   3.92144613
_cell_length_c   31.04520500
_cell_angle_alpha   90.00000000
_cell_angle_beta   90.00000000
_cell_angle_gamma   120.00000211
_symmetry_Int_Tables_number   1
_chemical_formula_structural   Zn2In2S5
_chemical_formula_sum   'Zn4 In4 S10'
_cell_volume   413.44491994
_cell_formula_units_Z   2
loop_
 _symmetry_equiv_pos_site_id
 _symmetry_equiv_pos_as_xyz
  1  'x, y, z'
loop_
 _atom_site_type_symbol
 _atom_site_label
 _atom_site_symmetry_multiplicity
 _atom_site_fract_x
 _atom_site_fract_y
 _atom_site_fract_z
 _atom_site_occupancy
  Zn  Zn0  1  0.33333300  0.66666700  0.30913800  1
  Zn  Zn1  1  0.66666700  0.33333300  0.80913800  1
  Zn  Zn2  1  0.66666700  0.33333300  0.06528900  1
  Zn  Zn3  1  0.33333300  0.66666700  0.56528900  1
  In  In0  1  0.33333300  0.66666700  0.91787200  1
  In  In1  1  0.00000000  0.00000000  0.18849100  1
  In  In2  1  0.00000000  0.00000000  0.68849100  1
  In  In3  1  0.66666700  0.33333300  0.41787200  1
  S  S0  1  0.66666700  0.33333300  0.33703200  1
  S  S1  1  0.33333300  0.66666700  0.04519200  1
  S  S2  1  0.33333300  0.66666700  0.45150100  1
  S  S3  1  0.33333300  0.66666700  0.23670600  1
  S  S4  1  0.66666700  0.33333300  0.14677800  1
  S  S5  1  0.66666700  0.33333300  0.95150100  1
  S  S6  1  0.33333300  0.66666700  0.83703200  1
  S  S7  1  0.33333300  0.66666700  0.64677800  1
  S  S8  1  0.66666700  0.33333300  0.73670600  1
  S  S9  1  0.66666700  0.33333300  0.54519200  1
loop_
_geom_bond_atom_site_label_1
_geom_bond_atom_site_label_2
_geom_bond_distance
_geom_bond_site_symmetry_2
In0 S5 2.493166 1_455
In0 S5 2.493166 1_565
In0 S5 2.493173 1_555
In0 S6 2.509694 1_555
In1 S4 2.608237 1_455
In1 S4 2.608240 1_445
In1 S4 2.608240 1_555
In1 S3 2.714120 1_545
In1 S3 2.714123 1_555
In1 S3 2.714123 1_445
In2 S7 2.608237 1_545
In2 S7 2.608240 1_555
In2 S7 2.608240 1_445
In2 S8 2.714120 1_455
In2 S8 2.714123 1_555
In2 S8 2.714123 1_445
In3 S2 2.493166 1_655
In3 S2 2.493166 1_545
In3 S2 2.493173 1_555
In3 S0 2.509694 1_555
S0 Zn0 2.424008 1_545
S0 Zn0 2.424008 1_655
S0 Zn0 2.424015 1_555
S1 Zn2 2.348441 1_455
S1 Zn2 2.348441 1_565
S1 Zn2 2.348447 1_555
S3 Zn0 2.248666 1_555
S4 Zn2 2.529843 1_555
S6 Zn1 2.424008 1_455
S6 Zn1 2.424008 1_565
S6 Zn1 2.424015 1_555
S7 Zn3 2.529843 1_555
S8 Zn1 2.248666 1_555
S9 Zn3 2.348441 1_545
S9 Zn3 2.348441 1_655
S9 Zn3 2.348447 1_555
