# generated using pymatgen
data_NiB4O7
_symmetry_space_group_name_H-M   'P 1'
_cell_length_a   6.43876755
_cell_length_b   8.21231930
_cell_length_c   8.21231930
_cell_angle_alpha   78.90449003
_cell_angle_beta   66.91982638
_cell_angle_gamma   66.91982638
_symmetry_Int_Tables_number   1
_chemical_formula_structural   NiB4O7
_chemical_formula_sum   'Ni4 B16 O28'
_cell_volume   367.12466364
_cell_formula_units_Z   4
loop_
 _symmetry_equiv_pos_site_id
 _symmetry_equiv_pos_as_xyz
  1  'x, y, z'
loop_
 _atom_site_type_symbol
 _atom_site_label
 _atom_site_symmetry_multiplicity
 _atom_site_fract_x
 _atom_site_fract_y
 _atom_site_fract_z
 _atom_site_occupancy
  Ni  Ni0  1  0.74622800  0.12500000  0.87500000  1
  Ni  Ni1  1  0.25377200  0.37500000  0.62500000  1
  Ni  Ni2  1  0.74622800  0.62500000  0.37500000  1
  Ni  Ni3  1  0.25377200  0.87500000  0.12500000  1
  B  B0  1  0.92933600  0.75893000  0.00893000  1
  B  B1  1  0.92933600  0.25893000  0.50893000  1
  B  B2  1  0.30280300  0.50893000  0.25893000  1
  B  B3  1  0.30280300  0.00893000  0.75893000  1
  B  B4  1  0.69719700  0.99107000  0.24107000  1
  B  B5  1  0.69719700  0.49107000  0.74107000  1
  B  B6  1  0.07066400  0.74107000  0.49107000  1
  B  B7  1  0.07066400  0.24107000  0.99107000  1
  B  B8  1  0.70181800  0.79818200  0.79818200  1
  B  B9  1  0.70181800  0.29818200  0.29818200  1
  B  B10  1  0.70181800  0.54818200  0.04818200  1
  B  B11  1  0.70181800  0.04818200  0.54818200  1
  B  B12  1  0.29818200  0.20181800  0.20181800  1
  B  B13  1  0.29818200  0.70181800  0.70181800  1
  B  B14  1  0.29818200  0.95181800  0.45181800  1
  B  B15  1  0.29818200  0.45181800  0.95181800  1
  O  O0  1  0.07024100  0.62500000  0.37500000  1
  O  O1  1  0.07024100  0.12500000  0.87500000  1
  O  O2  1  0.92975900  0.87500000  0.12500000  1
  O  O3  1  0.92975900  0.37500000  0.62500000  1
  O  O4  1  0.19826500  0.15322600  0.40322600  1
  O  O5  1  0.19826500  0.65322600  0.90322600  1
  O  O6  1  0.75471700  0.59677400  0.84677400  1
  O  O7  1  0.75471700  0.09677400  0.34677400  1
  O  O8  1  0.24528300  0.90322600  0.65322600  1
  O  O9  1  0.24528300  0.40322600  0.15322600  1
  O  O10  1  0.80173500  0.34677400  0.09677400  1
  O  O11  1  0.80173500  0.84677400  0.59677400  1
  O  O12  1  0.81170700  0.86169400  0.88476800  1
  O  O13  1  0.81170700  0.36169400  0.38476800  1
  O  O14  1  0.55816900  0.88830600  0.36523200  1
  O  O15  1  0.55816900  0.38830600  0.86523200  1
  O  O16  1  0.18829300  0.63830600  0.61523200  1
  O  O17  1  0.18829300  0.13830600  0.11523200  1
  O  O18  1  0.55816900  0.11523200  0.13830600  1
  O  O19  1  0.55816900  0.61523200  0.63830600  1
  O  O20  1  0.18829300  0.86523200  0.38830600  1
  O  O21  1  0.18829300  0.36523200  0.88830600  1
  O  O22  1  0.44183100  0.38476800  0.36169400  1
  O  O23  1  0.44183100  0.88476800  0.86169400  1
  O  O24  1  0.44183100  0.61169400  0.13476800  1
  O  O25  1  0.44183100  0.11169400  0.63476800  1
  O  O26  1  0.81170700  0.63476800  0.11169400  1
  O  O27  1  0.81170700  0.13476800  0.61169400  1
loop_
_geom_bond_atom_site_label_1
_geom_bond_atom_site_label_2
_geom_bond_distance
_geom_bond_site_symmetry_2
Ni0 O27 2.026064 1_555
Ni0 O12 2.026064 1_545
Ni0 O18 2.026064 1_556
Ni0 O15 2.026064 1_555
Ni0 O1 2.086244 1_655
Ni1 O16 2.026064 1_555
Ni1 O21 2.026064 1_555
Ni1 O25 2.026064 1_555
Ni1 O22 2.026064 1_555
Ni1 O3 2.086244 1_455
Ni2 O26 2.026064 1_555
Ni2 O13 2.026064 1_555
Ni2 O19 2.026064 1_555
Ni2 O14 2.026064 1_555
Ni2 O0 2.086244 1_655
Ni3 O17 2.026064 1_565
Ni3 O20 2.026064 1_555
Ni3 O23 2.026064 1_554
Ni3 O24 2.026064 1_555
Ni3 O2 2.086244 1_455
B0 O12 1.448689 1_554
B0 O26 1.448689 1_555
B0 O2 1.473426 1_555
B0 O5 1.561556 1_654
B1 O13 1.448689 1_555
B1 O27 1.448689 1_555
B1 O3 1.473426 1_555
B1 O4 1.561556 1_655
B2 O22 1.448692 1_555
B2 O24 1.448692 1_555
B2 O0 1.473423 1_555
B2 O9 1.561551 1_555
B3 O23 1.448692 1_545
B3 O25 1.448692 1_555
B3 O1 1.473423 1_555
B3 O8 1.561551 1_545
B4 O18 1.448692 1_565
B4 O14 1.448692 1_555
B4 O2 1.473423 1_555
B4 O7 1.561551 1_565
B5 O15 1.448692 1_555
B5 O19 1.448692 1_555
B5 O3 1.473423 1_555
B5 O6 1.561551 1_555
B6 O20 1.448689 1_555
B6 O16 1.448689 1_555
B6 O0 1.473426 1_555
B6 O11 1.561556 1_455
B7 O17 1.448689 1_556
B7 O21 1.448689 1_555
B7 O1 1.473426 1_555
B7 O10 1.561556 1_456
B8 O12 1.450811 1_555
B8 O23 1.450811 1_555
B8 O6 1.556238 1_555
B8 O11 1.556238 1_555
B9 O13 1.450811 1_555
B9 O22 1.450811 1_555
B9 O7 1.556238 1_555
B9 O10 1.556238 1_555
B10 O26 1.450811 1_555
B10 O24 1.450811 1_555
B10 O6 1.556238 1_554
B10 O10 1.556238 1_555
B11 O27 1.450811 1_555
B11 O25 1.450811 1_555
B11 O7 1.556238 1_555
B11 O11 1.556238 1_545
B12 O17 1.450811 1_555
B12 O18 1.450811 1_555
B12 O9 1.556238 1_555
B12 O4 1.556238 1_555
B13 O16 1.450811 1_555
B13 O19 1.450811 1_555
B13 O8 1.556238 1_555
B13 O5 1.556238 1_555
B14 O20 1.450811 1_555
B14 O14 1.450811 1_555
B14 O8 1.556238 1_555
B14 O4 1.556238 1_565
B15 O21 1.450811 1_555
B15 O15 1.450811 1_555
B15 O9 1.556238 1_556
B15 O5 1.556238 1_555
