# generated using pymatgen
data_Zr2Fe12P7
_symmetry_space_group_name_H-M   'P 1'
_cell_length_a   9.11994765
_cell_length_b   9.12007796
_cell_length_c   3.46767255
_cell_angle_alpha   90.00000154
_cell_angle_beta   90.00000243
_cell_angle_gamma   120.00078952
_symmetry_Int_Tables_number   1
_chemical_formula_structural   Zr2Fe12P7
_chemical_formula_sum   'Zr2 Fe12 P7'
_cell_volume   249.77913272
_cell_formula_units_Z   1
loop_
 _symmetry_equiv_pos_site_id
 _symmetry_equiv_pos_as_xyz
  1  'x, y, z'
loop_
 _atom_site_type_symbol
 _atom_site_label
 _atom_site_symmetry_multiplicity
 _atom_site_fract_x
 _atom_site_fract_y
 _atom_site_fract_z
 _atom_site_occupancy
  Zr  Zr0  1  -0.00000072  0.00000324  1.00000013  1
  Zr  Zr1  1  0.33336859  0.66663034  0.49999996  1
  Fe  Fe0  1  0.09286339  0.39489007  0.00000013  1
  Fe  Fe1  1  0.30209335  0.90719406  0.00000009  1
  Fe  Fe2  1  0.60509869  0.69791137  -0.00000013  1
  Fe  Fe3  1  0.82707359  0.60683191  0.00000004  1
  Fe  Fe4  1  0.77970775  0.17286971  -0.00000013  1
  Fe  Fe5  1  0.39318005  0.22031486  0.99999995  1
  Fe  Fe6  1  0.05567233  0.77574743  0.49999984  1
  Fe  Fe7  1  0.72002728  0.94426466  0.50000002  1
  Fe  Fe8  1  0.22429629  0.27998583  0.49999999  1
  Fe  Fe9  1  0.88336940  0.42899411  0.50000006  1
  Fe  Fe10  1  0.54560636  0.11662464  0.49999978  1
  Fe  Fe11  1  0.57097765  0.45441499  0.50000032  1
  P  P0  1  0.08527441  0.63593045  -0.00000002  1
  P  P1  1  0.55067566  0.91470896  0.99999995  1
  P  P2  1  0.36408388  0.44933630  0.00000001  1
  P  P3  1  0.79504064  0.74326706  0.49999996  1
  P  P4  1  0.94823160  0.20492502  0.50000003  1
  P  P5  1  0.25672278  0.05181663  0.50000002  1
  P  P6  1  0.66663901  0.33333633  0.99999996  1
loop_
_geom_bond_atom_site_label_1
_geom_bond_atom_site_label_2
_geom_bond_distance
_geom_bond_site_symmetry_2
Fe0 P0 2.233718 1_555
Fe0 P2 2.266404 1_555
Fe0 P4 2.337158 1_455
Fe0 P4 2.337158 1_454
Fe0 Zr1 2.919434 1_555
Fe0 Zr1 2.919435 1_554
Fe1 P1 2.233577 1_554
Fe1 P0 2.266801 1_555
Fe1 P5 2.337274 1_565
Fe1 P5 2.337275 1_564
Fe1 Zr1 2.920068 1_555
Fe1 Zr1 2.920068 1_554
Fe2 P2 2.233306 1_555
Fe2 P1 2.266516 1_554
Fe2 P3 2.336976 1_554
Fe2 P3 2.336976 1_555
Fe2 Zr1 2.919225 1_554
Fe2 Zr1 2.919225 1_555
Fe3 P6 2.170881 1_554
Fe3 P0 2.233938 1_655
Fe3 P3 2.236812 1_555
Fe3 P3 2.236813 1_554
Fe4 P6 2.171223 1_554
Fe4 P1 2.233461 1_544
Fe4 P4 2.237069 1_554
Fe4 P4 2.237069 1_555
Fe5 P6 2.170588 1_555
Fe5 P2 2.233229 1_556
Fe5 P5 2.236953 1_555
Fe5 P5 2.236954 1_556
Fe6 P3 2.243547 1_455
Fe6 P0 2.247068 1_555
Fe6 P0 2.247069 1_556
Fe6 P5 2.254891 1_565
Fe6 Zr0 2.912972 1_564
Fe6 Zr0 2.912974 1_565
Fe7 P4 2.243894 1_565
Fe7 P1 2.246760 1_555
Fe7 P1 2.246761 1_554
Fe7 P3 2.254422 1_555
Fe7 Zr0 2.913091 1_664
Fe7 Zr0 2.913091 1_665
Fe8 P5 2.243454 1_555
Fe8 P2 2.246741 1_556
Fe8 P2 2.246741 1_555
Fe8 P4 2.254741 1_455
Fe8 Zr0 2.913300 1_554
Fe8 Zr0 2.913300 1_555
Fe9 P4 2.394740 1_555
Fe9 P6 2.439200 1_555
Fe9 P6 2.439200 1_554
Fe9 P0 2.546247 1_656
Fe9 P0 2.546247 1_655
Fe10 P5 2.394420 1_555
Fe10 P6 2.439097 1_554
Fe10 P6 2.439098 1_555
Fe10 P1 2.546475 1_544
Fe10 P1 2.546476 1_545
Fe11 P3 2.394201 1_555
Fe11 P6 2.439277 1_555
Fe11 P6 2.439278 1_554
Fe11 P2 2.545815 1_556
Fe11 P2 2.545816 1_555
P0 Zr1 2.751446 1_555
P0 Zr1 2.751446 1_554
P1 Zr1 2.751134 1_555
P1 Zr1 2.751134 1_556
P2 Zr1 2.750834 1_555
P2 Zr1 2.750834 1_554
P3 Zr0 2.757856 1_664
P3 Zr0 2.757856 1_665
P4 Zr0 2.757579 1_654
P4 Zr0 2.757580 1_655
P5 Zr0 2.757680 1_554
P5 Zr0 2.757681 1_555
