# generated using pymatgen
data_K3Ho(SiO3)3
_symmetry_space_group_name_H-M   'P 1'
_cell_length_a   5.88572000
_cell_length_b   12.98806800
_cell_length_c   14.07468500
_cell_angle_alpha   90.00000000
_cell_angle_beta   90.00000000
_cell_angle_gamma   90.00000000
_symmetry_Int_Tables_number   1
_chemical_formula_structural   K3Ho(SiO3)3
_chemical_formula_sum   'K12 Ho4 Si12 O36'
_cell_volume   1075.92707221
_cell_formula_units_Z   4
loop_
 _symmetry_equiv_pos_site_id
 _symmetry_equiv_pos_as_xyz
  1  'x, y, z'
loop_
 _atom_site_type_symbol
 _atom_site_label
 _atom_site_symmetry_multiplicity
 _atom_site_fract_x
 _atom_site_fract_y
 _atom_site_fract_z
 _atom_site_occupancy
  K  K0  1  0.18554000  0.06406700  0.00000000  1
  K  K1  1  0.17767200  0.81186100  0.00000000  1
  K  K2  1  0.16924700  0.84958800  0.50000000  1
  K  K3  1  0.65837200  0.12410100  0.78066400  1
  K  K4  1  0.34162800  0.62410100  0.28066400  1
  K  K5  1  0.83075300  0.34958800  0.00000000  1
  K  K6  1  0.82232800  0.31186100  0.50000000  1
  K  K7  1  0.34162800  0.62410100  0.71933600  1
  K  K8  1  0.81446000  0.56406700  0.50000000  1
  K  K9  1  0.65837200  0.12410100  0.21933600  1
  K  K10  1  0.75214400  0.60538600  0.00000000  1
  K  K11  1  0.24785600  0.10538600  0.50000000  1
  Ho  Ho0  1  0.83573600  0.46025000  0.26027300  1
  Ho  Ho1  1  0.16426400  0.96025000  0.76027400  1
  Ho  Ho2  1  0.83573600  0.46025000  0.73972600  1
  Ho  Ho3  1  0.16426400  0.96025000  0.23972700  1
  Si  Si0  1  0.32171900  0.37038500  0.60988800  1
  Si  Si1  1  0.67828100  0.87038500  0.10988800  1
  Si  Si2  1  0.67828100  0.87038500  0.89011200  1
  Si  Si3  1  0.33122200  0.43794600  0.11629900  1
  Si  Si4  1  0.66877800  0.93794600  0.38370100  1
  Si  Si5  1  0.16308900  0.24713800  0.78059000  1
  Si  Si6  1  0.66877800  0.93794600  0.61629900  1
  Si  Si7  1  0.16308900  0.24713800  0.21941000  1
  Si  Si8  1  0.33122200  0.43794600  0.88370100  1
  Si  Si9  1  0.83691100  0.74713800  0.71941000  1
  Si  Si10  1  0.83691100  0.74713800  0.28059000  1
  Si  Si11  1  0.32171900  0.37038500  0.39011200  1
  O  O0  1  0.32385400  0.31215600  0.14173300  1
  O  O1  1  0.09125300  0.79538000  0.28102000  1
  O  O2  1  0.17784800  0.12669600  0.19109000  1
  O  O3  1  0.57379800  0.48631200  0.85203700  1
  O  O4  1  0.71095100  0.76276300  0.82566200  1
  O  O5  1  0.32341300  0.31763900  0.50000000  1
  O  O6  1  0.67614600  0.81215600  0.35826700  1
  O  O7  1  0.67614600  0.81215600  0.64173300  1
  O  O8  1  0.56615600  0.42439500  0.62816000  1
  O  O9  1  0.42620200  0.98631200  0.35203700  1
  O  O10  1  0.57379800  0.48631200  0.14796300  1
  O  O11  1  0.10888700  0.49884600  0.15422800  1
  O  O12  1  0.17784800  0.12669600  0.80891000  1
  O  O13  1  0.10121300  0.44385600  0.37821800  1
  O  O14  1  0.09125300  0.79538000  0.71898000  1
  O  O15  1  0.32385400  0.31215600  0.85826700  1
  O  O16  1  0.56615600  0.42439500  0.37184000  1
  O  O17  1  0.89878700  0.94385600  0.12178200  1
  O  O18  1  0.82215200  0.62669600  0.69109000  1
  O  O19  1  0.67658700  0.81763900  0.00000000  1
  O  O20  1  0.10121300  0.44385600  0.62178200  1
  O  O21  1  0.67456000  0.93891500  0.50000000  1
  O  O22  1  0.43384400  0.92439500  0.12816000  1
  O  O23  1  0.10888700  0.49884600  0.84577200  1
  O  O24  1  0.89111300  0.99884600  0.34577200  1
  O  O25  1  0.71095100  0.76276300  0.17433800  1
  O  O26  1  0.89878700  0.94385600  0.87821800  1
  O  O27  1  0.82215200  0.62669600  0.30891000  1
  O  O28  1  0.43384400  0.92439500  0.87184000  1
  O  O29  1  0.28904900  0.26276300  0.67433800  1
  O  O30  1  0.89111300  0.99884600  0.65422800  1
  O  O31  1  0.28904900  0.26276300  0.32566200  1
  O  O32  1  0.32544000  0.43891500  0.00000000  1
  O  O33  1  0.42620200  0.98631200  0.64796300  1
  O  O34  1  0.90874700  0.29538000  0.78102000  1
  O  O35  1  0.90874700  0.29538000  0.21898000  1
loop_
_geom_bond_atom_site_label_1
_geom_bond_atom_site_label_2
_geom_bond_distance
_geom_bond_site_symmetry_2
K0 O12 2.810213 1_554
K0 O2 2.810213 1_555
K0 O26 2.867773 1_444
K0 O17 2.867773 1_445
K0 O22 2.946254 1_545
K0 O28 2.946254 1_544
K1 O22 2.768274 1_555
K1 O28 2.768274 1_554
K1 O26 2.927678 1_454
K1 O17 2.927678 1_455
K1 O19 2.937433 1_555
K1 O19 2.950201 1_455
K2 O33 3.126913 1_555
K2 O9 3.126913 1_555
K2 O21 3.134227 1_455
K2 O21 3.192410 1_555
K2 O14 3.194622 1_555
K2 O1 3.194622 1_555
K2 O30 3.339144 1_455
K2 O24 3.339144 1_455
K3 O34 2.668408 1_555
K3 O30 2.773052 1_545
K3 O12 2.856233 1_555
K3 O33 2.925474 1_545
K3 O26 3.060711 1_545
K3 O12 3.083412 1_655
K3 O28 3.181344 1_545
K3 O29 3.195006 1_555
K3 O15 3.321917 1_555
K4 O1 2.668408 1_555
K4 O11 2.773052 1_555
K4 O27 2.856233 1_555
K4 O10 2.925474 1_555
K4 O13 3.060711 1_555
K4 O27 3.083412 1_455
K4 O16 3.181344 1_555
K4 O25 3.195006 1_555
K4 O6 3.321917 1_555
K5 O3 3.126913 1_554
K5 O10 3.126913 1_555
K5 O32 3.134227 1_655
K5 O32 3.192410 1_555
K5 O34 3.194622 1_554
K5 O35 3.194622 1_555
K5 O23 3.339144 1_654
K5 O11 3.339144 1_655
K6 O16 2.768274 1_555
K6 O8 2.768274 1_555
K6 O20 2.927678 1_655
K6 O13 2.927678 1_655
K6 O5 2.937433 1_555
K6 O5 2.950201 1_655
K7 O14 2.668408 1_555
K7 O23 2.773052 1_555
K7 O18 2.856233 1_555
K7 O3 2.925474 1_555
K7 O20 3.060711 1_555
K7 O18 3.083412 1_455
K7 O8 3.181344 1_555
K7 O4 3.195006 1_555
K7 O7 3.321917 1_555
K8 O18 2.810213 1_555
K8 O27 2.810213 1_555
K8 O20 2.867773 1_655
K8 O13 2.867773 1_655
K8 O16 2.946254 1_555
K8 O8 2.946254 1_555
K9 O35 2.668408 1_555
K9 O24 2.773052 1_545
K9 O2 2.856233 1_555
K9 O9 2.925474 1_545
K9 O17 3.060711 1_545
K9 O2 3.083412 1_655
K9 O22 3.181344 1_545
K9 O31 3.195006 1_555
K9 O0 3.321917 1_555
K10 O19 2.792395 1_555
K10 O3 2.798319 1_554
K10 O10 2.798319 1_555
K11 O5 2.792395 1_555
K11 O33 2.798319 1_545
K11 O9 2.798319 1_545
Ho0 O10 2.233853 1_555
Ho0 O11 2.250258 1_655
Ho0 O35 2.260041 1_555
Ho0 O27 2.269016 1_555
Ho0 O16 2.280382 1_555
Ho0 O13 2.289661 1_655
Ho1 O33 2.233863 1_555
Ho1 O30 2.250268 1_455
Ho1 O14 2.260045 1_555
Ho1 O12 2.269012 1_565
Ho1 O28 2.280372 1_555
Ho1 O26 2.289650 1_455
Ho2 O3 2.233863 1_555
Ho2 O23 2.250268 1_655
Ho2 O34 2.260045 1_555
Ho2 O18 2.269012 1_555
Ho2 O8 2.280372 1_555
Ho2 O20 2.289650 1_655
Ho3 O9 2.233853 1_555
Ho3 O24 2.250258 1_455
Ho3 O1 2.260041 1_555
Ho3 O2 2.269016 1_565
Ho3 O22 2.280382 1_555
Ho3 O17 2.289661 1_455
O0 Si3 1.673090 1_555
O0 Si7 1.674424 1_555
O1 Si10 1.622835 1_455
O2 Si7 1.616628 1_555
O3 Si8 1.622236 1_555
O4 Si2 1.677402 1_555
O4 Si9 1.681433 1_555
O5 Si0 1.691600 1_555
O5 Si11 1.691600 1_555
O6 Si4 1.673090 1_555
O6 Si10 1.674424 1_555
O7 Si6 1.673090 1_555
O7 Si9 1.674424 1_555
O8 Si0 1.621124 1_555
O9 Si4 1.622236 1_555
O10 Si3 1.622236 1_555
O11 Si3 1.619587 1_555
O12 Si5 1.616628 1_555
O13 Si11 1.619565 1_555
O14 Si9 1.622835 1_455
O15 Si8 1.673090 1_555
O15 Si5 1.674424 1_555
O16 Si11 1.621124 1_555
O17 Si1 1.619565 1_555
O18 Si9 1.616628 1_555
O19 Si2 1.691600 1_554
O19 Si1 1.691600 1_555
O20 Si0 1.619565 1_555
O21 Si4 1.637274 1_555
O21 Si6 1.637274 1_555
O22 Si1 1.621124 1_555
O23 Si8 1.619587 1_555
O24 Si4 1.619587 1_555
O25 Si1 1.677402 1_555
O25 Si10 1.681433 1_555
O26 Si2 1.619565 1_555
O27 Si10 1.616628 1_555
O28 Si2 1.621124 1_555
O29 Si0 1.677402 1_555
O29 Si5 1.681433 1_555
O30 Si6 1.619587 1_555
O31 Si11 1.677402 1_555
O31 Si7 1.681433 1_555
O32 Si3 1.637274 1_555
O32 Si8 1.637274 1_554
O33 Si6 1.622236 1_555
O34 Si5 1.622835 1_655
O35 Si7 1.622835 1_655
