# generated using pymatgen
data_U(CoB)4
_symmetry_space_group_name_H-M   'P 1'
_cell_length_a   5.00051900
_cell_length_b   5.00051900
_cell_length_c   6.98143700
_cell_angle_alpha   90.00000000
_cell_angle_beta   90.00000000
_cell_angle_gamma   90.00000000
_symmetry_Int_Tables_number   1
_chemical_formula_structural   U(CoB)4
_chemical_formula_sum   'U2 Co8 B8'
_cell_volume   174.57216054
_cell_formula_units_Z   2
loop_
 _symmetry_equiv_pos_site_id
 _symmetry_equiv_pos_as_xyz
  1  'x, y, z'
loop_
 _atom_site_type_symbol
 _atom_site_label
 _atom_site_symmetry_multiplicity
 _atom_site_fract_x
 _atom_site_fract_y
 _atom_site_fract_z
 _atom_site_occupancy
  U  U0  1  0.00000000  0.00000000  0.00000000  1
  U  U1  1  0.50000000  0.50000000  0.50000000  1
  Co  Co0  1  0.50000000  0.75365000  0.14122400  1
  Co  Co1  1  0.74635000  0.00000000  0.64122400  1
  Co  Co2  1  0.25365000  0.00000000  0.64122400  1
  Co  Co3  1  0.00000000  0.74635000  0.35877600  1
  Co  Co4  1  0.00000000  0.25365000  0.35877600  1
  Co  Co5  1  0.50000000  0.24635000  0.14122400  1
  Co  Co6  1  0.75365000  0.50000000  0.85877600  1
  Co  Co7  1  0.24635000  0.50000000  0.85877600  1
  B  B0  1  0.50000000  0.82620300  0.84486800  1
  B  B1  1  0.67379700  0.00000000  0.34486800  1
  B  B2  1  0.32620300  0.00000000  0.34486800  1
  B  B3  1  0.00000000  0.67379700  0.65513200  1
  B  B4  1  0.00000000  0.32620300  0.65513200  1
  B  B5  1  0.50000000  0.17379700  0.84486800  1
  B  B6  1  0.82620300  0.50000000  0.15513200  1
  B  B7  1  0.17379700  0.50000000  0.15513200  1
loop_
_geom_bond_atom_site_label_1
_geom_bond_atom_site_label_2
_geom_bond_distance
_geom_bond_site_symmetry_2
Co0 U1 2.807610 1_555
Co0 U0 2.956503 1_565
Co0 U0 2.956503 1_665
Co1 U0 2.807610 1_656
Co1 U1 2.956503 1_555
Co1 U1 2.956503 1_545
Co2 U0 2.807610 1_556
Co2 U1 2.956503 1_555
Co2 U1 2.956503 1_545
Co3 U0 2.807610 1_565
Co3 U1 2.956503 1_455
Co3 U1 2.956503 1_555
Co4 U0 2.807610 1_555
Co4 U1 2.956503 1_555
Co4 U1 2.956503 1_455
Co5 U1 2.807610 1_555
Co5 U0 2.956503 1_655
Co5 U0 2.956503 1_555
Co6 U1 2.807610 1_555
Co6 U0 2.956503 1_656
Co6 U0 2.956503 1_666
Co7 U1 2.807610 1_555
Co7 U0 2.956503 1_556
Co7 U0 2.956503 1_566
B0 B5 1.738150 1_565
B0 Co7 2.068570 1_555
B0 Co6 2.068570 1_555
B0 Co2 2.072227 1_565
B0 Co1 2.072227 1_565
B0 Co0 2.100559 1_556
B0 U0 2.859995 1_566
B0 U0 2.859995 1_666
B0 U1 2.908205 1_555
B1 B2 1.738150 1_555
B1 Co3 2.068570 1_645
B1 Co4 2.068570 1_655
B1 Co0 2.072227 1_545
B1 Co5 2.072227 1_555
B1 Co1 2.100559 1_555
B1 U1 2.859995 1_545
B1 U1 2.859995 1_555
B1 U0 2.908205 1_655
B2 Co3 2.068570 1_545
B2 Co4 2.068570 1_555
B2 Co0 2.072227 1_545
B2 Co5 2.072227 1_555
B2 Co2 2.100559 1_555
B2 U1 2.859995 1_545
B2 U1 2.859995 1_555
B2 U0 2.908205 1_555
B3 B4 1.738150 1_555
B3 Co1 2.068570 1_465
B3 Co2 2.068570 1_565
B3 Co6 2.072227 1_455
B3 Co7 2.072227 1_555
B3 Co3 2.100559 1_555
B3 U1 2.859995 1_555
B3 U1 2.859995 1_455
B3 U0 2.908205 1_566
B4 Co1 2.068570 1_455
B4 Co2 2.068570 1_555
B4 Co7 2.072227 1_555
B4 Co6 2.072227 1_455
B4 Co4 2.100559 1_555
B4 U1 2.859995 1_555
B4 U1 2.859995 1_455
B4 U0 2.908205 1_556
B5 Co7 2.068570 1_555
B5 Co6 2.068570 1_555
B5 Co2 2.072227 1_555
B5 Co1 2.072227 1_555
B5 Co5 2.100559 1_556
B5 U0 2.859995 1_556
B5 U0 2.859995 1_656
B5 U1 2.908205 1_555
B6 B7 1.738150 1_655
B6 Co5 2.068570 1_555
B6 Co0 2.068570 1_555
B6 Co4 2.072227 1_655
B6 Co3 2.072227 1_655
B6 Co6 2.100559 1_554
B6 U0 2.859995 1_655
B6 U0 2.859995 1_665
B6 U1 2.908205 1_555
B7 Co5 2.068570 1_555
B7 Co0 2.068570 1_555
B7 Co4 2.072227 1_555
B7 Co3 2.072227 1_555
B7 Co7 2.100559 1_554
B7 U0 2.859995 1_555
B7 U0 2.859995 1_565
B7 U1 2.908205 1_555
