# generated using pymatgen
data_HgH10C3Br3N
_symmetry_space_group_name_H-M   'P 1'
_cell_length_a   14.92407400
_cell_length_b   8.31684400
_cell_length_c   9.07656658
_cell_angle_alpha   88.78623109
_cell_angle_beta   90.00000000
_cell_angle_gamma   90.00000000
_symmetry_Int_Tables_number   1
_chemical_formula_structural   HgH10C3Br3N
_chemical_formula_sum   'Hg4 H40 C12 Br12 N4'
_cell_volume   1126.34151041
_cell_formula_units_Z   4
loop_
 _symmetry_equiv_pos_site_id
 _symmetry_equiv_pos_as_xyz
  1  'x, y, z'
loop_
 _atom_site_type_symbol
 _atom_site_label
 _atom_site_symmetry_multiplicity
 _atom_site_fract_x
 _atom_site_fract_y
 _atom_site_fract_z
 _atom_site_occupancy
  Hg  Hg0  1  0.78567600  0.34672200  0.26657200  1
  Hg  Hg1  1  0.71432400  0.84672200  0.26657200  1
  Hg  Hg2  1  0.28567600  0.15327800  0.73342800  1
  Hg  Hg3  1  0.21432400  0.65327800  0.73342800  1
  H  H0  1  0.52494000  0.13567400  0.09347300  1
  H  H1  1  0.39414900  0.01848200  0.21630100  1
  H  H2  1  0.95902200  0.19291800  0.96386300  1
  H  H3  1  0.93867600  0.83406100  0.13862900  1
  H  H4  1  0.47506000  0.86432600  0.90652700  1
  H  H5  1  0.01624600  0.98351200  0.32435000  1
  H  H6  1  0.37810400  0.46142600  0.23202800  1
  H  H7  1  0.99312500  0.30478700  0.65763900  1
  H  H8  1  0.87810400  0.03857400  0.76797200  1
  H  H9  1  0.43867600  0.66593900  0.86137100  1
  H  H10  1  0.02494000  0.36432600  0.90652700  1
  H  H11  1  0.82691700  0.31008200  0.83639500  1
  H  H12  1  0.48375400  0.48351200  0.32435000  1
  H  H13  1  0.17308300  0.68991800  0.16360500  1
  H  H14  1  0.50687500  0.80478700  0.65763900  1
  H  H15  1  0.12189600  0.96142600  0.23202800  1
  H  H16  1  0.67308300  0.81008200  0.83639500  1
  H  H17  1  0.54097800  0.69291800  0.96386300  1
  H  H18  1  0.62189600  0.53857400  0.76797200  1
  H  H19  1  0.10973000  0.89522500  0.42078800  1
  H  H20  1  0.10585100  0.51848200  0.21630100  1
  H  H21  1  0.51624600  0.51648800  0.67565000  1
  H  H22  1  0.60585100  0.98151800  0.78369900  1
  H  H23  1  0.04097800  0.80708200  0.03613700  1
  H  H24  1  0.39027000  0.39522500  0.42078800  1
  H  H25  1  0.89027000  0.10477500  0.57921200  1
  H  H26  1  0.56132400  0.33406100  0.13862900  1
  H  H27  1  0.32691700  0.18991800  0.16360500  1
  H  H28  1  0.98375400  0.01648800  0.67565000  1
  H  H29  1  0.66366300  0.87017800  0.64551600  1
  H  H30  1  0.89414900  0.48151800  0.78369900  1
  H  H31  1  0.33633700  0.12982200  0.35448400  1
  H  H32  1  0.45902200  0.30708200  0.03613700  1
  H  H33  1  0.83633700  0.37017800  0.64551600  1
  H  H34  1  0.00687500  0.69521300  0.34236100  1
  H  H35  1  0.97506000  0.63567400  0.09347300  1
  H  H36  1  0.06132400  0.16593900  0.86137100  1
  H  H37  1  0.49312500  0.19521300  0.34236100  1
  H  H38  1  0.60973000  0.60477500  0.57921200  1
  H  H39  1  0.16366300  0.62982200  0.35448400  1
  C  C0  1  0.62888500  0.86232200  0.75165300  1
  C  C1  1  0.87111500  0.36232200  0.75165300  1
  C  C2  1  0.50295300  0.25662500  0.12219600  1
  C  C3  1  0.37111500  0.13767800  0.24834700  1
  C  C4  1  0.92387700  0.09157100  0.68591900  1
  C  C5  1  0.00295300  0.24337500  0.87780400  1
  C  C6  1  0.99704700  0.75662500  0.12219600  1
  C  C7  1  0.49704700  0.74337500  0.87780400  1
  C  C8  1  0.57612300  0.59157100  0.68591900  1
  C  C9  1  0.07612300  0.90842900  0.31408100  1
  C  C10  1  0.42387700  0.40842900  0.31408100  1
  C  C11  1  0.12888500  0.63767800  0.24834700  1
  Br  Br0  1  0.73070500  0.56459800  0.06449600  1
  Br  Br1  1  0.83342800  0.75000400  0.45718800  1
  Br  Br2  1  0.26929500  0.43540200  0.93550400  1
  Br  Br3  1  0.66657200  0.25000400  0.45718800  1
  Br  Br4  1  0.45647000  0.17068200  0.68085700  1
  Br  Br5  1  0.95647000  0.32931800  0.31914300  1
  Br  Br6  1  0.04353000  0.67068200  0.68085700  1
  Br  Br7  1  0.54353000  0.82931800  0.31914300  1
  Br  Br8  1  0.33342800  0.74999600  0.54281200  1
  Br  Br9  1  0.76929500  0.06459800  0.06449600  1
  Br  Br10  1  0.23070500  0.93540200  0.93550400  1
  Br  Br11  1  0.16657200  0.24999600  0.54281200  1
  N  N0  1  0.04910000  0.74538700  0.26297900  1
  N  N1  1  0.95090000  0.25461300  0.73702100  1
  N  N2  1  0.54910000  0.75461300  0.73702100  1
  N  N3  1  0.45090000  0.24538700  0.26297900  1
loop_
_geom_bond_atom_site_label_1
_geom_bond_atom_site_label_2
_geom_bond_distance
_geom_bond_site_symmetry_2
H7 N1 1.038099 1_555
H14 N2 1.038099 1_555
H34 N0 1.038099 1_555
H37 N3 1.038099 1_555
C0 H22 1.094411 1_555
C0 H29 1.095014 1_555
C0 H16 1.096046 1_555
C0 N2 1.497645 1_555
C1 H30 1.094411 1_555
C1 H33 1.095014 1_555
C1 H11 1.096046 1_555
C1 N1 1.497645 1_555
C2 H0 1.094828 1_555
C2 H26 1.095425 1_555
C2 H32 1.096454 1_555
C2 N3 1.496663 1_555
C3 H1 1.094411 1_555
C3 H31 1.095014 1_555
C3 H27 1.096046 1_555
C3 N3 1.497645 1_555
C4 H25 1.094151 1_555
C4 H28 1.095277 1_555
C4 H8 1.096215 1_555
C4 N1 1.497716 1_555
C5 H10 1.094828 1_555
C5 H36 1.095425 1_555
C5 H2 1.096454 1_455
C5 N1 1.496663 1_455
C6 H35 1.094828 1_555
C6 H3 1.095425 1_555
C6 H23 1.096454 1_655
C6 N0 1.496663 1_655
C7 H4 1.094828 1_555
C7 H9 1.095425 1_555
C7 H17 1.096454 1_555
C7 N2 1.496663 1_555
C8 H38 1.094151 1_555
C8 H21 1.095277 1_555
C8 H18 1.096215 1_555
C8 N2 1.497716 1_555
C9 H19 1.094151 1_555
C9 H5 1.095277 1_555
C9 H15 1.096215 1_555
C9 N0 1.497716 1_555
C10 H24 1.094151 1_555
C10 H12 1.095277 1_555
C10 H6 1.096215 1_555
C10 N3 1.497716 1_555
C11 H20 1.094411 1_555
C11 H39 1.095014 1_555
C11 H13 1.096046 1_555
C11 N0 1.497645 1_555
Br0 Hg0 2.679526 1_555
Br0 Hg1 3.018563 1_555
Br1 Hg1 2.596349 1_555
Br2 Hg3 2.679526 1_555
Br2 Hg2 3.018563 1_555
Br3 Hg0 2.596349 1_555
Br4 Hg2 2.596694 1_555
Br5 Hg0 2.596694 1_555
Br6 Hg3 2.596694 1_555
Br7 Hg1 2.596694 1_555
Br8 Hg3 2.596349 1_555
Br9 Hg1 2.679526 1_545
Br9 Hg0 3.018563 1_555
Br10 Hg2 2.679526 1_565
Br10 Hg3 3.018563 1_555
Br11 Hg2 2.596349 1_555
