# generated using pymatgen
data_Cs5Hg19
_symmetry_space_group_name_H-M   'P 1'
_cell_length_a   10.19748874
_cell_length_b   10.19748787
_cell_length_c   10.19748974
_cell_angle_alpha   107.36055583
_cell_angle_beta   107.36053900
_cell_angle_gamma   113.78042113
_symmetry_Int_Tables_number   1
_chemical_formula_structural   Cs5Hg19
_chemical_formula_sum   'Cs5 Hg19'
_cell_volume   812.82479836
_cell_formula_units_Z   1
loop_
 _symmetry_equiv_pos_site_id
 _symmetry_equiv_pos_as_xyz
  1  'x, y, z'
loop_
 _atom_site_type_symbol
 _atom_site_label
 _atom_site_symmetry_multiplicity
 _atom_site_fract_x
 _atom_site_fract_y
 _atom_site_fract_z
 _atom_site_occupancy
  Cs  Cs0  1  0.11694746  0.32226177  0.43921123  1
  Cs  Cs1  1  0.32226177  0.88305254  0.20531431  1
  Cs  Cs2  1  0.67773823  0.11694746  0.79468569  1
  Cs  Cs3  1  0.88305254  0.67773823  0.56078877  1
  Cs  Cs4  1  0.50000000  0.50000000  -0.00000000  1
  Hg  Hg0  1  0.52402158  0.33947609  0.58692565  1
  Hg  Hg1  1  0.33947609  0.75255045  0.81545651  1
  Hg  Hg2  1  0.93709393  0.52402158  0.18454349  1
  Hg  Hg3  1  0.75255045  0.93709393  0.41307435  1
  Hg  Hg4  1  0.47597842  0.66052391  0.41307435  1
  Hg  Hg5  1  0.66052391  0.24744955  0.18454349  1
  Hg  Hg6  1  0.06290607  0.47597842  0.81545651  1
  Hg  Hg7  1  0.24744955  0.06290607  0.58692565  1
  Hg  Hg8  1  0.75000000  0.25000000  0.50000000  1
  Hg  Hg9  1  0.25000000  0.75000000  0.50000000  1
  Hg  Hg10  1  0.39454102  0.30327100  0.25182808  1
  Hg  Hg11  1  0.30327100  0.05144392  0.90872998  1
  Hg  Hg12  1  0.14271394  0.39454102  0.09127002  1
  Hg  Hg13  1  0.05144392  0.14271394  0.74817192  1
  Hg  Hg14  1  0.60545898  0.69672900  0.74817192  1
  Hg  Hg15  1  0.69672900  0.94855708  0.09127002  1
  Hg  Hg16  1  0.85728606  0.60545898  0.90872998  1
  Hg  Hg17  1  0.94855708  0.85728606  0.25182808  1
  Hg  Hg18  1  -0.00000000  -0.00000000  -0.00000000  1
loop_
_geom_bond_atom_site_label_1
_geom_bond_atom_site_label_2
_geom_bond_distance
_geom_bond_site_symmetry_2
Cs0 Hg8 3.789792 1_455
Cs0 Hg9 3.789808 1_555
Cs0 Hg7 3.880011 1_555
Cs0 Hg0 3.880040 1_555
Cs0 Hg17 3.892454 1_445
Cs0 Hg10 3.892460 1_555
Cs0 Hg15 3.893870 1_445
Cs0 Hg12 3.893886 1_555
Cs0 Hg6 3.981319 1_555
Cs0 Hg1 3.981331 1_555
Cs0 Hg3 4.039808 1_445
Cs0 Hg4 4.039819 1_555
Cs0 Hg18 4.141264 1_555
Cs0 Hg13 4.175769 1_555
Cs0 Hg14 4.175794 1_555
Cs0 Hg5 4.210731 1_455
Cs0 Hg2 4.210756 1_455
Cs1 Hg9 3.789803 1_555
Cs1 Hg8 3.789803 1_565
Cs1 Hg1 3.880022 1_554
Cs1 Hg6 3.880031 1_554
Cs1 Hg11 3.892453 1_564
Cs1 Hg16 3.892453 1_454
Cs1 Hg17 3.893860 1_455
Cs1 Hg10 3.893863 1_565
Cs1 Hg4 3.981331 1_555
Cs1 Hg3 3.981341 1_555
Cs1 Hg2 4.039808 1_455
Cs1 Hg5 4.039818 1_565
Cs1 Hg18 4.141248 1_565
Cs1 Hg15 4.175796 1_555
Cs1 Hg12 4.175797 1_555
Cs1 Hg0 4.210720 1_565
Cs1 Hg7 4.210725 1_565
Cs2 Hg8 3.789803 1_555
Cs2 Hg9 3.789803 1_545
Cs2 Hg5 3.880022 1_556
Cs2 Hg2 3.880031 1_556
Cs2 Hg15 3.892446 1_546
Cs2 Hg12 3.892453 1_656
Cs2 Hg14 3.893863 1_545
Cs2 Hg13 3.893870 1_655
Cs2 Hg0 3.981331 1_555
Cs2 Hg7 3.981341 1_555
Cs2 Hg6 4.039808 1_655
Cs2 Hg1 4.039818 1_545
Cs2 Hg18 4.141248 1_656
Cs2 Hg16 4.175797 1_555
Cs2 Hg11 4.175797 1_555
Cs2 Hg4 4.210720 1_545
Cs2 Hg3 4.210725 1_545
Cs3 Hg9 3.789792 1_655
Cs3 Hg8 3.789808 1_555
Cs3 Hg3 3.880011 1_555
Cs3 Hg4 3.880040 1_555
Cs3 Hg13 3.892452 1_665
Cs3 Hg14 3.892460 1_555
Cs3 Hg11 3.893872 1_665
Cs3 Hg16 3.893886 1_555
Cs3 Hg2 3.981319 1_555
Cs3 Hg5 3.981331 1_555
Cs3 Hg7 4.039808 1_665
Cs3 Hg0 4.039819 1_555
Cs3 Hg18 4.141264 1_666
Cs3 Hg17 4.175771 1_555
Cs3 Hg10 4.175794 1_555
Cs3 Hg1 4.210731 1_655
Cs3 Hg6 4.210756 1_655
Cs4 Hg11 3.841661 1_554
Cs4 Hg16 3.841661 1_554
Cs4 Hg12 3.841661 1_555
Cs4 Hg13 3.841662 1_554
Cs4 Hg17 3.841668 1_555
Cs4 Hg15 3.841670 1_555
Cs4 Hg10 3.841671 1_555
Cs4 Hg14 3.841671 1_554
Cs4 Hg2 4.160205 1_555
Cs4 Hg6 4.160205 1_554
Cs4 Hg3 4.160215 1_555
Cs4 Hg7 4.160215 1_554
Cs4 Hg5 4.160216 1_555
Cs4 Hg1 4.160216 1_554
Cs4 Hg4 4.160226 1_555
Cs4 Hg0 4.160226 1_554
Hg0 Hg8 3.059514 1_555
Hg0 Hg7 3.081183 1_555
Hg0 Hg10 3.117378 1_555
Hg0 Hg14 3.136209 1_555
Hg0 Hg16 3.205356 1_555
Hg1 Hg9 3.059534 1_555
Hg1 Hg6 3.081183 1_555
Hg1 Hg11 3.117385 1_565
Hg1 Hg15 3.136203 1_556
Hg1 Hg14 3.205368 1_555
Hg2 Hg9 3.059533 1_655
Hg2 Hg5 3.081183 1_555
Hg3 Hg8 3.059533 1_565
Hg3 Hg4 3.081183 1_555
Hg4 Hg9 3.059514 1_555
Hg5 Hg8 3.059534 1_555
Hg6 Hg8 3.059533 1_455
Hg7 Hg9 3.059533 1_545
Hg10 Hg4 3.136209 1_555
Hg10 Hg5 3.205368 1_555
Hg10 Hg12 3.235644 1_555
Hg10 Hg11 3.235648 1_554
Hg10 Hg18 3.377329 1_555
Hg11 Hg5 3.136204 1_556
Hg11 Hg7 3.205365 1_555
Hg11 Hg13 3.235644 1_555
Hg11 Hg18 3.377328 1_556
Hg12 Hg2 3.117398 1_455
Hg12 Hg6 3.136191 1_554
Hg12 Hg4 3.205356 1_555
Hg12 Hg13 3.235648 1_554
Hg12 Hg18 3.377327 1_555
Hg13 Hg3 3.117380 1_445
Hg13 Hg7 3.136197 1_555
Hg13 Hg6 3.205343 1_555
Hg13 Hg18 3.377338 1_556
Hg14 Hg4 3.117378 1_555
Hg14 Hg16 3.235644 1_555
Hg14 Hg15 3.235652 1_556
Hg14 Hg18 3.377329 1_666
Hg15 Hg5 3.117376 1_565
Hg15 Hg3 3.205369 1_555
Hg15 Hg17 3.235660 1_555
Hg15 Hg18 3.377329 1_665
Hg16 Hg6 3.117398 1_655
Hg16 Hg2 3.136191 1_556
Hg16 Hg17 3.235644 1_556
Hg16 Hg18 3.377327 1_666
Hg17 Hg7 3.117376 1_665
Hg17 Hg3 3.136206 1_555
Hg17 Hg2 3.205338 1_555
Hg17 Hg18 3.377335 1_665
