# generated using pymatgen
data_NaZrCuSe3
_symmetry_space_group_name_H-M   'P 1'
_cell_length_a   3.84939575
_cell_length_b   10.32819629
_cell_length_c   13.56132796
_cell_angle_alpha   90.00000000
_cell_angle_beta   90.00000000
_cell_angle_gamma   90.00000000
_symmetry_Int_Tables_number   1
_chemical_formula_structural   NaZrCuSe3
_chemical_formula_sum   'Na4 Zr4 Cu4 Se12'
_cell_volume   539.16198622
_cell_formula_units_Z   4
loop_
 _symmetry_equiv_pos_site_id
 _symmetry_equiv_pos_as_xyz
  1  'x, y, z'
loop_
 _atom_site_type_symbol
 _atom_site_label
 _atom_site_symmetry_multiplicity
 _atom_site_fract_x
 _atom_site_fract_y
 _atom_site_fract_z
 _atom_site_occupancy
  Na  Na0  1  0.25000000  0.04438836  0.22846400  1
  Na  Na1  1  0.75000000  0.95561164  0.77153600  1
  Na  Na2  1  0.75000000  0.54438836  0.27153600  1
  Na  Na3  1  0.25000000  0.45561164  0.72846400  1
  Zr  Zr0  1  0.25000000  0.32179932  0.01040368  1
  Zr  Zr1  1  0.75000000  0.67820068  0.98959632  1
  Zr  Zr2  1  0.75000000  0.82179932  0.48959632  1
  Zr  Zr3  1  0.25000000  0.17820068  0.51040368  1
  Cu  Cu0  1  0.25000000  0.59097527  0.49189665  1
  Cu  Cu1  1  0.75000000  0.40902473  0.50810335  1
  Cu  Cu2  1  0.75000000  0.09097527  0.00810335  1
  Cu  Cu3  1  0.25000000  0.90902473  0.99189665  1
  Se  Se0  1  0.25000000  0.56441309  0.10371285  1
  Se  Se1  1  0.75000000  0.43558691  0.89628715  1
  Se  Se2  1  0.75000000  0.06441309  0.39628715  1
  Se  Se3  1  0.25000000  0.93558691  0.60371285  1
  Se  Se4  1  0.25000000  0.38210471  0.39571145  1
  Se  Se5  1  0.75000000  0.61789529  0.60428855  1
  Se  Se6  1  0.75000000  0.88210471  0.10428855  1
  Se  Se7  1  0.25000000  0.11789529  0.89571145  1
  Se  Se8  1  0.25000000  0.75162829  0.36216628  1
  Se  Se9  1  0.75000000  0.24837171  0.63783372  1
  Se  Se10  1  0.75000000  0.25162829  0.13783372  1
  Se  Se11  1  0.25000000  0.74837171  0.86216628  1
loop_
_geom_bond_atom_site_label_1
_geom_bond_atom_site_label_2
_geom_bond_distance
_geom_bond_site_symmetry_2
Na0 Se2 2.987805 1_555
Na0 Se2 2.987805 1_455
Na0 Se6 3.057706 1_545
Na0 Se6 3.057706 1_445
Na0 Se10 3.129927 1_555
Na0 Se10 3.129927 1_455
Na0 Se8 3.525661 1_545
Na1 Se3 2.987805 1_555
Na1 Se3 2.987805 1_655
Na1 Se7 3.057706 1_665
Na1 Se7 3.057706 1_565
Na1 Se11 3.129927 1_555
Na1 Se11 3.129927 1_655
Na1 Se9 3.525661 1_565
Na2 Se0 2.987805 1_655
Na2 Se0 2.987805 1_555
Na2 Se4 3.057706 1_655
Na2 Se4 3.057706 1_555
Na2 Se8 3.129927 1_555
Na2 Se8 3.129927 1_655
Na2 Se10 3.525661 1_555
Na3 Se1 2.987805 1_555
Na3 Se1 2.987805 1_455
Na3 Se5 3.057706 1_455
Na3 Se5 3.057706 1_555
Na3 Se9 3.129927 1_455
Na3 Se9 3.129927 1_555
Na3 Se11 3.525661 1_555
Cu0 Se8 2.418331 1_555
Cu0 Se5 2.470810 1_555
Cu0 Se5 2.470810 1_455
Cu0 Se4 2.520954 1_555
Cu1 Se9 2.418331 1_555
Cu1 Se4 2.470810 1_555
Cu1 Se4 2.470810 1_655
Cu1 Se5 2.520954 1_555
Cu2 Se10 2.418331 1_555
Cu2 Se7 2.470810 1_554
Cu2 Se7 2.470810 1_654
Cu2 Se6 2.520954 1_545
Cu3 Se11 2.418331 1_555
Cu3 Se6 2.470810 1_556
Cu3 Se6 2.470810 1_456
Cu3 Se7 2.520954 1_565
Se0 Zr1 2.735066 1_454
Se0 Zr1 2.735066 1_554
Se0 Zr0 2.807147 1_555
Se1 Zr0 2.735066 1_656
Se1 Zr0 2.735066 1_556
Se1 Zr1 2.807147 1_555
Se2 Zr3 2.735066 1_555
Se2 Zr3 2.735066 1_655
Se2 Zr2 2.807147 1_545
Se3 Zr2 2.735066 1_555
Se3 Zr2 2.735066 1_455
Se3 Zr3 2.807147 1_565
Se4 Zr3 2.618067 1_555
Se5 Zr2 2.618067 1_555
Se6 Zr1 2.618067 1_554
Se7 Zr0 2.618067 1_556
Se8 Zr2 2.686282 1_455
Se8 Zr2 2.686282 1_555
Se9 Zr3 2.686282 1_555
Se9 Zr3 2.686282 1_655
Se10 Zr0 2.686282 1_655
Se10 Zr0 2.686282 1_555
Se11 Zr1 2.686282 1_455
Se11 Zr1 2.686282 1_555
