# generated using pymatgen
data_Sm3(GaNi3)2
_symmetry_space_group_name_H-M   'P 1'
_cell_length_a   7.72767221
_cell_length_b   7.72767221
_cell_length_c   7.72767221
_cell_angle_alpha   109.47122063
_cell_angle_beta   109.47122063
_cell_angle_gamma   109.47122063
_symmetry_Int_Tables_number   1
_chemical_formula_structural   Sm3(GaNi3)2
_chemical_formula_sum   'Sm6 Ga4 Ni12'
_cell_volume   355.24190077
_cell_formula_units_Z   2
loop_
 _symmetry_equiv_pos_site_id
 _symmetry_equiv_pos_as_xyz
  1  'x, y, z'
loop_
 _atom_site_type_symbol
 _atom_site_label
 _atom_site_symmetry_multiplicity
 _atom_site_fract_x
 _atom_site_fract_y
 _atom_site_fract_z
 _atom_site_occupancy
  Sm  Sm0  1  0.29213844  0.29213844  -0.00000000  1
  Sm  Sm1  1  -0.00000000  0.29213844  0.29213844  1
  Sm  Sm2  1  0.00000000  0.70786156  0.70786156  1
  Sm  Sm3  1  0.70786156  0.00000000  0.70786156  1
  Sm  Sm4  1  0.29213844  0.00000000  0.29213844  1
  Sm  Sm5  1  0.70786156  0.70786156  -0.00000000  1
  Ga  Ga0  1  0.50000000  0.50000000  0.50000000  1
  Ga  Ga1  1  -0.00000000  -0.00000000  0.50000000  1
  Ga  Ga2  1  0.50000000  -0.00000000  -0.00000000  1
  Ga  Ga3  1  -0.00000000  0.50000000  -0.00000000  1
  Ni  Ni0  1  0.66479320  0.66479320  0.32958640  1
  Ni  Ni1  1  0.00000000  0.33520680  0.66479320  1
  Ni  Ni2  1  0.32958640  0.66479320  0.66479320  1
  Ni  Ni3  1  0.66479320  0.32958640  0.66479320  1
  Ni  Ni4  1  0.33520680  -0.00000000  0.66479320  1
  Ni  Ni5  1  0.66479320  0.33520680  0.00000000  1
  Ni  Ni6  1  0.33520680  0.66479320  -0.00000000  1
  Ni  Ni7  1  0.33520680  0.67041360  0.33520680  1
  Ni  Ni8  1  -0.00000000  0.66479320  0.33520680  1
  Ni  Ni9  1  0.66479320  0.00000000  0.33520680  1
  Ni  Ni10  1  0.67041360  0.33520680  0.33520680  1
  Ni  Ni11  1  0.33520680  0.33520680  0.67041360  1
loop_
_geom_bond_atom_site_label_1
_geom_bond_atom_site_label_2
_geom_bond_distance
_geom_bond_site_symmetry_2
Sm0 Sm4 3.686564 1_555
Sm0 Sm3 3.686564 1_454
Sm0 Sm1 3.686564 1_555
Sm0 Sm2 3.686564 1_544
Sm1 Sm4 3.686564 1_555
Sm1 Sm3 3.686564 1_454
Sm1 Sm5 3.686564 1_445
Sm2 Sm3 3.686564 1_465
Sm2 Sm4 3.686564 1_566
Sm2 Sm5 3.686564 1_456
Sm3 Sm5 3.686564 1_546
Sm4 Sm5 3.686564 1_445
Ga0 Ni3 2.476401 1_555
Ga0 Ni0 2.476401 1_555
Ga0 Ni2 2.476401 1_555
Ga0 Ni7 2.476401 1_555
Ga0 Ni10 2.476401 1_555
Ga0 Ni11 2.476401 1_555
Ga0 Sm3 3.177137 1_565
Ga0 Sm4 3.177137 1_555
Ga0 Sm5 3.177137 1_556
Ga0 Sm1 3.177137 1_555
Ga0 Sm2 3.177137 1_655
Ga0 Sm0 3.177137 1_555
Ga1 Ni1 2.476401 1_555
Ga1 Ni4 2.476401 1_555
Ga1 Ni11 2.476401 1_555
Ga1 Ni0 2.476401 1_445
Ga1 Ni9 2.476401 1_455
Ga1 Ni8 2.476401 1_545
Ga1 Sm2 3.177137 1_545
Ga1 Sm4 3.177137 1_555
Ga1 Sm3 3.177137 1_455
Ga1 Sm1 3.177137 1_555
Ga1 Sm5 3.177137 1_445
Ga1 Sm0 3.177137 1_556
Ga2 Ni9 2.476401 1_555
Ga2 Ni10 2.476401 1_555
Ga2 Ni5 2.476401 1_555
Ga2 Ni2 2.476401 1_544
Ga2 Ni6 2.476401 1_545
Ga2 Ni4 2.476401 1_554
Ga2 Sm2 3.177137 1_544
Ga2 Sm5 3.177137 1_545
Ga2 Sm4 3.177137 1_555
Ga2 Sm0 3.177137 1_555
Ga2 Sm1 3.177137 1_655
Ga2 Sm3 3.177137 1_554
Ga3 Ni6 2.476401 1_555
Ga3 Ni7 2.476401 1_555
Ga3 Ni8 2.476401 1_555
Ga3 Ni3 2.476401 1_454
Ga3 Ni1 2.476401 1_554
Ga3 Ni5 2.476401 1_455
Ga3 Sm0 3.177137 1_555
Ga3 Sm3 3.177137 1_454
Ga3 Sm4 3.177137 1_565
Ga3 Sm5 3.177137 1_455
Ga3 Sm2 3.177137 1_554
Ga3 Sm1 3.177137 1_555
Ni0 Ni9 2.576216 1_565
Ni0 Ni10 2.576216 1_555
Ni0 Ni7 2.576216 1_555
Ni0 Ni8 2.576216 1_655
Ni0 Sm5 2.786538 1_555
Ni0 Sm0 2.786538 1_555
Ni0 Ni5 2.940948 1_555
Ni0 Ni6 2.940948 1_555
Ni0 Sm2 3.015687 1_655
Ni0 Sm3 3.015687 1_565
Ni1 Ni11 2.576216 1_555
Ni1 Ni6 2.576216 1_556
Ni1 Ni9 2.576216 1_455
Ni1 Ni3 2.576216 1_455
Ni1 Sm1 2.786538 1_555
Ni1 Sm2 2.786538 1_555
Ni1 Ni2 2.940948 1_555
Ni1 Ni10 2.940948 1_455
Ni1 Sm0 3.015687 1_556
Ni1 Sm3 3.015687 1_455
Ni2 Ni7 2.576216 1_555
Ni2 Ni4 2.576216 1_565
Ni2 Ni6 2.576216 1_556
Ni2 Sm2 2.786538 1_555
Ni2 Sm1 2.786538 1_555
Ni2 Ni8 2.940948 1_555
Ni2 Sm3 3.015687 1_565
Ni2 Sm5 3.015687 1_556
Ni3 Ni5 2.576216 1_556
Ni3 Sm3 2.786538 1_555
Ni3 Sm4 2.786538 1_555
Ni3 Ni9 2.940948 1_555
Ni3 Ni4 2.940948 1_555
Ni3 Sm2 3.015687 1_655
Ni3 Sm5 3.015687 1_556
Ni4 Ni5 2.576216 1_556
Ni4 Ni8 2.576216 1_545
Ni4 Sm4 2.786538 1_555
Ni4 Sm3 2.786538 1_555
Ni4 Ni7 2.940948 1_545
Ni4 Sm0 3.015687 1_556
Ni4 Sm2 3.015687 1_545
Ni5 Ni8 2.576216 1_655
Ni5 Sm0 2.786538 1_555
Ni5 Sm5 2.786538 1_555
Ni5 Sm1 3.015687 1_655
Ni5 Sm3 3.015687 1_554
Ni6 Ni7 2.576216 1_555
Ni6 Ni9 2.576216 1_565
Ni6 Sm0 2.786538 1_555
Ni6 Sm5 2.786538 1_555
Ni6 Sm4 3.015687 1_565
Ni6 Sm2 3.015687 1_554
Ni7 Ni8 2.576216 1_555
Ni7 Sm4 2.786538 1_565
Ni7 Sm3 2.786538 1_565
Ni7 Ni9 2.940948 1_565
Ni7 Sm1 3.015687 1_555
Ni7 Sm0 3.015687 1_555
Ni8 Sm1 2.786538 1_555
Ni8 Sm2 2.786538 1_555
Ni8 Sm5 3.015687 1_455
Ni8 Sm4 3.015687 1_565
Ni9 Sm4 2.786538 1_555
Ni9 Sm3 2.786538 1_555
Ni9 Sm5 3.015687 1_545
Ni9 Sm1 3.015687 1_655
Ni10 Ni5 2.576216 1_555
Ni10 Ni9 2.576216 1_555
Ni10 Ni3 2.576216 1_555
Ni10 Sm1 2.786538 1_655
Ni10 Sm2 2.786538 1_655
Ni10 Ni8 2.940948 1_655
Ni10 Sm4 3.015687 1_555
Ni10 Sm0 3.015687 1_555
Ni11 Ni4 2.576216 1_555
Ni11 Ni3 2.576216 1_555
Ni11 Ni2 2.576216 1_555
Ni11 Sm0 2.786538 1_556
Ni11 Sm5 2.786538 1_556
Ni11 Ni6 2.940948 1_556
Ni11 Ni5 2.940948 1_556
Ni11 Sm4 3.015687 1_555
Ni11 Sm1 3.015687 1_555
