# generated using pymatgen
data_LiZnCr3(SO4)6
_symmetry_space_group_name_H-M   'P 1'
_cell_length_a   8.88456982
_cell_length_b   8.90710700
_cell_length_c   17.82108825
_cell_angle_alpha   55.52645546
_cell_angle_beta   55.54216277
_cell_angle_gamma   55.67376603
_symmetry_Int_Tables_number   1
_chemical_formula_structural   LiZnCr3(SO4)6
_chemical_formula_sum   'Li2 Zn2 Cr6 S12 O48'
_cell_volume   894.93355853
_cell_formula_units_Z   2
loop_
 _symmetry_equiv_pos_site_id
 _symmetry_equiv_pos_as_xyz
  1  'x, y, z'
loop_
 _atom_site_type_symbol
 _atom_site_label
 _atom_site_symmetry_multiplicity
 _atom_site_fract_x
 _atom_site_fract_y
 _atom_site_fract_z
 _atom_site_occupancy
  Li  Li0  1  0.58334700  0.22944500  0.41024300  1
  Li  Li1  1  0.81719800  0.57645200  0.61730400  1
  Zn  Zn0  1  0.14825200  0.13905500  0.57580400  1
  Zn  Zn1  1  0.86433100  0.84190000  0.41474700  1
  Cr  Cr0  1  0.15150000  0.15192200  0.07479600  1
  Cr  Cr1  1  0.35677800  0.35907700  0.17377100  1
  Cr  Cr2  1  0.35400600  0.35039100  0.68160400  1
  Cr  Cr3  1  0.64870300  0.65347200  0.31839000  1
  Cr  Cr4  1  0.64329600  0.64253300  0.82567300  1
  Cr  Cr5  1  0.84819200  0.84499700  0.92495400  1
  S  S0  1  0.04837800  0.74629000  0.22505100  1
  S  S1  1  0.45935200  0.04863800  0.36925100  1
  S  S2  1  0.74831400  0.46108700  0.02167800  1
  S  S3  1  0.25863200  0.53474500  0.48200600  1
  S  S4  1  0.53665800  0.96154400  0.12423300  1
  S  S5  1  0.03785200  0.73969600  0.73573200  1
  S  S6  1  0.96301700  0.25502700  0.26543000  1
  S  S7  1  0.46251600  0.03743500  0.87608100  1
  S  S8  1  0.74595900  0.45996700  0.52035200  1
  S  S9  1  0.25211900  0.53771300  0.97736500  1
  S  S10  1  0.53165700  0.96165500  0.62899600  1
  S  S11  1  0.95620500  0.25174300  0.77213300  1
  O  O0  1  0.10633300  0.31353600  0.25018200  1
  O  O1  1  0.30023000  0.51135900  0.05186400  1
  O  O2  1  0.02069500  0.95442400  0.16020400  1
  O  O3  1  0.51182000  0.11539800  0.14444400  1
  O  O4  1  0.03764200  0.70438400  0.32029400  1
  O  O5  1  0.24427700  0.62096400  0.17706200  1
  O  O6  1  0.36714600  0.24485500  0.30468100  1
  O  O7  1  0.32459400  0.01178400  0.47110700  1
  O  O8  1  0.61598400  0.37579800  0.12001600  1
  O  O9  1  0.04898500  0.65662600  0.49774200  1
  O  O10  1  0.30544100  0.34271600  0.48453200  1
  O  O11  1  0.34406800  0.97828500  0.14004500  1
  O  O12  1  0.64067300  0.04910000  0.35716800  1
  O  O13  1  0.71683000  0.65201100  0.01424600  1
  O  O14  1  0.11032200  0.28898300  0.76226600  1
  O  O15  1  0.95347200  0.32555400  0.00910000  1
  O  O16  1  0.38238300  0.63393400  0.38421000  1
  O  O17  1  0.30082600  0.50781300  0.55907000  1
  O  O18  1  0.67499500  0.97999600  0.02250400  1
  O  O19  1  0.61644300  0.76599000  0.19257300  1
  O  O20  1  0.00844100  0.94282200  0.66944200  1
  O  O21  1  0.50966200  0.10237000  0.65731000  1
  O  O22  1  0.76019000  0.38595100  0.31030100  1
  O  O23  1  0.97443400  0.28606200  0.17100600  1
  O  O24  1  0.02009400  0.70809300  0.83220900  1
  O  O25  1  0.23602800  0.60720700  0.69446800  1
  O  O26  1  0.50818000  0.90108500  0.33670700  1
  O  O27  1  0.98636400  0.05345500  0.33465700  1
  O  O28  1  0.38167700  0.23338900  0.80890800  1
  O  O29  1  0.32511000  0.01667200  0.97815800  1
  O  O30  1  0.69156300  0.50426300  0.44322700  1
  O  O31  1  0.61335100  0.37131000  0.61815400  1
  O  O32  1  0.04712900  0.67438700  0.98961300  1
  O  O33  1  0.89568900  0.70366800  0.23603800  1
  O  O34  1  0.28156800  0.34670700  0.98579000  1
  O  O35  1  0.34353900  0.96994400  0.64872700  1
  O  O36  1  0.65517800  0.01980500  0.86023100  1
  O  O37  1  0.71945700  0.64284700  0.51970400  1
  O  O38  1  0.94878300  0.32399300  0.50617700  1
  O  O39  1  0.38576800  0.62136200  0.87888100  1
  O  O40  1  0.66349900  0.99248000  0.52494700  1
  O  O41  1  0.63490400  0.75889800  0.68953000  1
  O  O42  1  0.75946400  0.38387700  0.81625500  1
  O  O43  1  0.96872500  0.29752000  0.67449700  1
  O  O44  1  0.48616500  0.88496300  0.85503400  1
  O  O45  1  0.97725300  0.04641300  0.83622200  1
  O  O46  1  0.69984900  0.48738900  0.94704900  1
  O  O47  1  0.89151300  0.68377200  0.74985800  1
loop_
_geom_bond_atom_site_label_1
_geom_bond_atom_site_label_2
_geom_bond_distance
_geom_bond_site_symmetry_2
Li0 O10 1.967384 1_555
Li0 O12 1.996642 1_555
Li0 O22 2.019137 1_555
Li0 O40 2.051443 1_545
Li1 O43 1.984368 1_555
Li1 O41 1.990289 1_555
Li1 O37 2.023531 1_555
Li1 O9 2.064346 1_655
Cr0 O11 1.975433 1_545
Cr0 O34 1.983202 1_554
Cr0 O23 1.997275 1_455
Cr0 O2 2.008670 1_545
Cr0 O29 2.010823 1_554
Cr0 O15 2.017524 1_455
Cr1 O5 1.975544 1_555
Cr1 O0 1.983384 1_555
Cr1 O6 1.984136 1_555
Cr1 O1 1.985621 1_555
Cr1 O8 1.993046 1_555
Cr1 O3 1.994784 1_555
Cr2 O17 1.977863 1_555
Cr2 O31 1.979870 1_555
Cr2 O21 1.984925 1_555
Cr2 O28 1.989763 1_555
Cr2 O14 1.994139 1_555
Cr2 O25 2.000357 1_555
Cr3 O26 1.943689 1_555
Cr3 O33 1.971905 1_555
Cr3 O30 1.975212 1_555
Cr3 O19 1.993335 1_555
Cr3 O16 2.024207 1_555
Cr3 O22 2.060389 1_555
Cr4 O47 1.950337 1_555
Cr4 O46 1.975813 1_555
Cr4 O44 1.984478 1_555
Cr4 O42 1.990283 1_555
Cr4 O39 1.999714 1_555
Cr4 O41 2.058429 1_555
Cr5 O24 1.968770 1_655
Cr5 O36 1.972131 1_565
Cr5 O13 1.978266 1_556
Cr5 O32 2.013504 1_655
Cr5 O18 2.021991 1_556
Cr5 O45 2.022520 1_565
O0 S6 1.470804 1_455
O1 S9 1.475361 1_554
O2 S0 1.488261 1_555
O3 S4 1.477895 1_545
O4 S0 1.472787 1_555
O4 Zn1 1.994641 1_455
O5 S0 1.487258 1_555
O6 S1 1.491666 1_555
O7 S1 1.464769 1_555
O7 Zn0 2.074711 1_555
O8 S2 1.482977 1_555
O9 S3 1.483104 1_555
O9 Zn1 2.128789 1_455
O10 S3 1.494091 1_555
O10 Zn0 2.198448 1_555
O11 S4 1.497875 1_555
O12 S1 1.501834 1_555
O12 Zn1 2.105959 1_545
O13 S2 1.496068 1_555
O14 S11 1.479721 1_455
O15 S2 1.480645 1_555
O16 S3 1.486913 1_555
O17 S3 1.480683 1_555
O18 S4 1.481007 1_555
O19 S4 1.484122 1_555
O20 S5 1.460759 1_555
O20 Zn0 2.045433 1_565
O21 S10 1.480489 1_545
O22 S6 1.517125 1_555
O23 S6 1.493384 1_555
O24 S5 1.501816 1_555
O25 S5 1.485719 1_555
O26 S1 1.478860 1_565
O27 S6 1.466506 1_555
O27 Zn1 2.066826 1_545
O28 S7 1.479555 1_555
O29 S7 1.481384 1_555
O30 S8 1.483600 1_555
O31 S8 1.488947 1_555
O32 S9 1.482241 1_555
O33 S0 1.489588 1_655
O34 S9 1.496234 1_555
O35 S10 1.465498 1_555
O35 Zn0 2.087143 1_565
O36 S7 1.494779 1_555
O37 S8 1.502733 1_555
O37 Zn1 2.096185 1_555
O38 S8 1.465505 1_555
O38 Zn0 2.067832 1_655
O39 S9 1.484785 1_555
O40 S10 1.488052 1_555
O40 Zn1 2.270901 1_555
O41 S10 1.520751 1_555
O42 S11 1.493643 1_555
O43 S11 1.495040 1_555
O43 Zn0 2.174052 1_655
O44 S7 1.481514 1_565
O45 S11 1.474989 1_555
O46 S2 1.480087 1_556
O47 S5 1.489963 1_655
