# generated using pymatgen
data_Sb5IO7
_symmetry_space_group_name_H-M   'P 1'
_cell_length_a   13.12612000
_cell_length_b   6.94938300
_cell_length_c   13.59036774
_cell_angle_alpha   60.36282604
_cell_angle_beta   90.00000000
_cell_angle_gamma   90.00000000
_symmetry_Int_Tables_number   1
_chemical_formula_structural   Sb5IO7
_chemical_formula_sum   'Sb20 I4 O28'
_cell_volume   1077.50846133
_cell_formula_units_Z   4
loop_
 _symmetry_equiv_pos_site_id
 _symmetry_equiv_pos_as_xyz
  1  'x, y, z'
loop_
 _atom_site_type_symbol
 _atom_site_label
 _atom_site_symmetry_multiplicity
 _atom_site_fract_x
 _atom_site_fract_y
 _atom_site_fract_z
 _atom_site_occupancy
  Sb  Sb0  1  0.44572800  0.18132800  0.07513700  1
  Sb  Sb1  1  0.24129300  0.53829900  0.06551500  1
  Sb  Sb2  1  0.73607200  0.85803100  0.09275500  1
  Sb  Sb3  1  0.24167700  0.83108800  0.25897900  1
  Sb  Sb4  1  0.05427200  0.18132800  0.57513700  1
  Sb  Sb5  1  0.94307100  0.83509100  0.91888800  1
  Sb  Sb6  1  0.05692900  0.16490900  0.08111200  1
  Sb  Sb7  1  0.23607200  0.14196900  0.40724500  1
  Sb  Sb8  1  0.94572800  0.81867200  0.42486300  1
  Sb  Sb9  1  0.74167700  0.16891200  0.24102100  1
  Sb  Sb10  1  0.76392800  0.85803100  0.59275500  1
  Sb  Sb11  1  0.75870700  0.46170100  0.93448500  1
  Sb  Sb12  1  0.25870700  0.53829900  0.56551500  1
  Sb  Sb13  1  0.44307100  0.16490900  0.58111200  1
  Sb  Sb14  1  0.75832300  0.16891200  0.74102100  1
  Sb  Sb15  1  0.26392800  0.14196900  0.90724500  1
  Sb  Sb16  1  0.55427200  0.81867200  0.92486300  1
  Sb  Sb17  1  0.74129300  0.46170100  0.43448500  1
  Sb  Sb18  1  0.25832300  0.83108800  0.75897900  1
  Sb  Sb19  1  0.55692900  0.83509100  0.41888800  1
  I  I0  1  0.00474100  0.43542300  0.75623800  1
  I  I1  1  0.49525900  0.43542300  0.25623800  1
  I  I2  1  0.99525900  0.56457700  0.24376200  1
  I  I3  1  0.50474100  0.56457700  0.74376200  1
  O  O0  1  0.66836100  0.59498000  0.00310600  1
  O  O1  1  0.63497900  0.97987400  0.78275800  1
  O  O2  1  0.85748400  0.92021000  0.77871300  1
  O  O3  1  0.24999600  0.83348300  0.91393100  1
  O  O4  1  0.36502100  0.02012600  0.21724200  1
  O  O5  1  0.17151600  0.01536700  0.04233300  1
  O  O6  1  0.61925300  0.53221900  0.49631100  1
  O  O7  1  0.83163900  0.59498000  0.50310600  1
  O  O8  1  0.64251600  0.92021000  0.27871300  1
  O  O9  1  0.86502100  0.97987400  0.28275800  1
  O  O10  1  0.25000400  0.83348300  0.41393100  1
  O  O11  1  0.14251600  0.07979000  0.22128700  1
  O  O12  1  0.13497900  0.02012600  0.71724200  1
  O  O13  1  0.88603700  0.98777400  0.49588600  1
  O  O14  1  0.75000400  0.16651700  0.08606900  1
  O  O15  1  0.38074700  0.46778100  0.50368900  1
  O  O16  1  0.82848400  0.98463300  0.95766700  1
  O  O17  1  0.33163900  0.40502000  0.99689400  1
  O  O18  1  0.74999600  0.16651700  0.58606900  1
  O  O19  1  0.88074700  0.53221900  0.99631100  1
  O  O20  1  0.35748400  0.07979000  0.72128700  1
  O  O21  1  0.67151600  0.98463300  0.45766700  1
  O  O22  1  0.11396300  0.01222600  0.50411400  1
  O  O23  1  0.16836100  0.40502000  0.49689400  1
  O  O24  1  0.32848400  0.01536700  0.54233300  1
  O  O25  1  0.11925300  0.46778100  0.00368900  1
  O  O26  1  0.38603700  0.01222600  0.00411400  1
  O  O27  1  0.61396300  0.98777400  0.99588600  1
loop_
_geom_bond_atom_site_label_1
_geom_bond_atom_site_label_2
_geom_bond_distance
_geom_bond_site_symmetry_2
O0 Sb11 1.997045 1_554
O0 Sb16 2.038396 1_554
O1 Sb14 1.982883 1_565
O1 Sb16 1.991800 1_555
O2 Sb14 2.016944 1_565
O2 Sb5 2.031412 1_555
O3 Sb1 2.070146 1_556
O3 Sb15 2.108286 1_565
O3 Sb18 2.116958 1_555
O4 Sb3 1.982883 1_545
O4 Sb0 1.991800 1_555
O5 Sb15 2.004616 1_554
O5 Sb6 2.040019 1_555
O6 Sb17 1.979777 1_555
O6 Sb19 2.004029 1_555
O7 Sb17 1.997045 1_555
O7 Sb8 2.038396 1_555
O8 Sb9 2.016944 1_565
O8 Sb19 2.031412 1_555
O9 Sb9 1.982883 1_565
O9 Sb8 1.991800 1_555
O10 Sb12 2.070146 1_555
O10 Sb7 2.108286 1_565
O10 Sb3 2.116958 1_555
O11 Sb3 2.016944 1_545
O11 Sb6 2.031412 1_555
O12 Sb18 1.982883 1_545
O12 Sb4 1.991800 1_555
O13 Sb10 1.985234 1_555
O13 Sb8 2.012057 1_555
O14 Sb11 2.070146 1_554
O14 Sb2 2.108286 1_545
O14 Sb9 2.116958 1_555
O15 Sb12 1.979777 1_555
O15 Sb13 2.004029 1_555
O16 Sb2 2.004616 1_556
O16 Sb5 2.040019 1_555
O17 Sb1 1.997045 1_556
O17 Sb0 2.038396 1_556
O18 Sb17 2.070146 1_555
O18 Sb10 2.108286 1_545
O18 Sb14 2.116958 1_555
O19 Sb11 1.979777 1_555
O19 Sb5 2.004029 1_555
O20 Sb18 2.016944 1_545
O20 Sb13 2.031412 1_555
O21 Sb10 2.004616 1_555
O21 Sb19 2.040019 1_555
O22 Sb7 1.985234 1_555
O22 Sb4 2.012057 1_555
O23 Sb12 1.997045 1_555
O23 Sb4 2.038396 1_555
O24 Sb7 2.004616 1_555
O24 Sb13 2.040019 1_555
O25 Sb1 1.979777 1_555
O25 Sb6 2.004029 1_555
O26 Sb15 1.985234 1_554
O26 Sb0 2.012057 1_555
O27 Sb2 1.985234 1_556
O27 Sb16 2.012057 1_555
