# generated using pymatgen
data_SiC
_symmetry_space_group_name_H-M   'P 1'
_cell_length_a   3.07704414
_cell_length_b   3.07704531
_cell_length_c   35.22248581
_cell_angle_alpha   90.00000000
_cell_angle_beta   90.00000000
_cell_angle_gamma   119.99998747
_symmetry_Int_Tables_number   1
_chemical_formula_structural   SiC
_chemical_formula_sum   'Si14 C14'
_cell_volume   288.81404317
_cell_formula_units_Z   14
loop_
 _symmetry_equiv_pos_site_id
 _symmetry_equiv_pos_as_xyz
  1  'x, y, z'
loop_
 _atom_site_type_symbol
 _atom_site_label
 _atom_site_symmetry_multiplicity
 _atom_site_fract_x
 _atom_site_fract_y
 _atom_site_fract_z
 _atom_site_occupancy
  Si  Si0  1  0.66666700  0.33333300  0.14284440  1
  Si  Si1  1  0.00000000  -0.00000000  0.64279153  1
  Si  Si2  1  -0.00000000  -0.00000000  0.21421629  1
  Si  Si3  1  0.33333300  0.66666700  0.07145783  1
  Si  Si4  1  0.66666700  0.33333300  0.85712294  1
  Si  Si5  1  0.66666700  0.33333300  0.57144311  1
  Si  Si6  1  -0.00000000  0.00000000  0.78574169  1
  Si  Si7  1  -0.00000000  -0.00000000  0.35716426  1
  Si  Si8  1  -0.00000000  0.00000000  0.99998112  1
  Si  Si9  1  0.66666700  0.33333300  0.42850389  1
  Si  Si10  1  0.33333300  0.66666700  0.92849262  1
  Si  Si11  1  0.33333300  0.66666700  0.28569373  1
  Si  Si12  1  0.33333300  0.66666700  0.49997794  1
  Si  Si13  1  0.33333300  0.66666700  0.71427737  1
  C  C0  1  0.66666700  0.33333300  0.19643134  1
  C  C1  1  0.33333300  0.66666700  0.33941923  1
  C  C2  1  0.66666700  0.33333300  0.91071329  1
  C  C3  1  -0.00000000  -0.00000000  0.83931378  1
  C  C4  1  -0.00000000  0.00000000  0.41072148  1
  C  C5  1  0.33333300  0.66666700  0.55369680  1
  C  C6  1  0.00000000  -0.00000000  0.26777475  1
  C  C7  1  0.33333300  0.66666700  0.76800264  1
  C  C8  1  0.33333300  0.66666700  0.98205704  1
  C  C9  1  -0.00000000  0.00000000  0.69635330  1
  C  C10  1  -0.00000000  0.00000000  0.05370980  1
  C  C11  1  0.66666700  0.33333300  0.48205394  1
  C  C12  1  0.66666700  0.33333300  0.62500492  1
  C  C13  1  0.33333300  0.66666700  0.12503398  1
loop_
_geom_bond_atom_site_label_1
_geom_bond_atom_site_label_2
_geom_bond_distance
_geom_bond_site_symmetry_2
C0 Si2 1.883740 1_655
C0 Si2 1.883742 1_555
C0 Si2 1.883743 1_665
C0 Si0 1.887465 1_555
C1 Si7 1.883273 1_565
C1 Si7 1.883275 1_665
C1 Si7 1.883276 1_555
C1 Si11 1.892346 1_555
C2 Si10 1.883674 1_655
C2 Si10 1.883675 1_545
C2 Si10 1.883679 1_555
C2 Si4 1.887585 1_555
C3 Si4 1.884024 1_455
C3 Si4 1.884026 1_555
C3 Si4 1.884027 1_445
C3 Si6 1.886942 1_555
C4 Si9 1.883710 1_455
C4 Si9 1.883713 1_555
C4 Si9 1.883713 1_445
C4 Si7 1.886418 1_555
C5 Si5 1.883288 1_455
C5 Si5 1.883288 1_565
C5 Si5 1.883293 1_555
C5 Si12 1.892112 1_555
C6 Si11 1.885315 1_545
C6 Si11 1.885318 1_445
C6 Si11 1.885318 1_555
C6 Si2 1.886462 1_555
C7 Si6 1.883203 1_565
C7 Si6 1.883205 1_665
C7 Si6 1.883206 1_555
C7 Si13 1.892338 1_555
C8 Si8 1.885375 1_565
C8 Si8 1.885378 1_665
C8 Si8 1.885378 1_555
C8 Si10 1.886672 1_555
C9 Si13 1.885375 1_545
C9 Si13 1.885378 1_445
C9 Si13 1.885378 1_555
C9 Si1 1.886579 1_555
C10 Si3 1.883308 1_545
C10 Si3 1.883310 1_445
C10 Si3 1.883311 1_555
C10 Si8 1.892458 1_554
C11 Si12 1.885374 1_655
C11 Si12 1.885375 1_545
C11 Si12 1.885379 1_555
C11 Si9 1.886166 1_555
C12 Si1 1.883759 1_655
C12 Si1 1.883762 1_555
C12 Si1 1.883763 1_665
C12 Si5 1.886580 1_555
C13 Si0 1.884038 1_455
C13 Si0 1.884039 1_565
C13 Si0 1.884043 1_555
C13 Si3 1.887085 1_555
