# generated using pymatgen
data_NbP4(SCl)5
_symmetry_space_group_name_H-M   'P 1'
_cell_length_a   13.95387300
_cell_length_b   7.27244700
_cell_length_c   18.74227848
_cell_angle_alpha   76.67104264
_cell_angle_beta   90.00000000
_cell_angle_gamma   90.00000000
_symmetry_Int_Tables_number   1
_chemical_formula_structural   NbP4(SCl)5
_chemical_formula_sum   'Nb4 P16 S20 Cl20'
_cell_volume   1850.71031246
_cell_formula_units_Z   4
loop_
 _symmetry_equiv_pos_site_id
 _symmetry_equiv_pos_as_xyz
  1  'x, y, z'
loop_
 _atom_site_type_symbol
 _atom_site_label
 _atom_site_symmetry_multiplicity
 _atom_site_fract_x
 _atom_site_fract_y
 _atom_site_fract_z
 _atom_site_occupancy
  Nb  Nb0  1  0.69333500  0.72852000  0.47029900  1
  Nb  Nb1  1  0.80666500  0.72852000  0.97029900  1
  Nb  Nb2  1  0.30666500  0.27148000  0.52970100  1
  Nb  Nb3  1  0.19333500  0.27148000  0.02970100  1
  P  P0  1  0.64006600  0.69569500  0.88603100  1
  P  P1  1  0.49233900  0.58363300  0.19113200  1
  P  P2  1  0.94772200  0.09312300  0.70198500  1
  P  P3  1  0.55227800  0.09312300  0.20198500  1
  P  P4  1  0.32846200  0.23127800  0.23964600  1
  P  P5  1  0.99233900  0.41636700  0.30886800  1
  P  P6  1  0.14006600  0.30430500  0.61396900  1
  P  P7  1  0.00766100  0.58363300  0.69113200  1
  P  P8  1  0.67153800  0.76872200  0.76035400  1
  P  P9  1  0.50766100  0.41636700  0.80886800  1
  P  P10  1  0.05227800  0.90687700  0.29801500  1
  P  P11  1  0.44772200  0.90687700  0.79801500  1
  P  P12  1  0.17153800  0.23127800  0.73964600  1
  P  P13  1  0.82846200  0.76872200  0.26035400  1
  P  P14  1  0.85993400  0.69569500  0.38603100  1
  P  P15  1  0.35993400  0.30430500  0.11396900  1
  S  S0  1  0.02786100  0.11949800  0.60257700  1
  S  S1  1  0.52786100  0.88050200  0.89742300  1
  S  S2  1  0.93510700  0.97691700  0.22376500  1
  S  S3  1  0.58345600  0.42044900  0.90752700  1
  S  S4  1  0.39992900  0.62998800  0.79468300  1
  S  S5  1  0.87832100  0.51668800  0.23453000  1
  S  S6  1  0.89992900  0.37001200  0.70531700  1
  S  S7  1  0.62167900  0.51668800  0.73453000  1
  S  S8  1  0.47213900  0.11949800  0.10257700  1
  S  S9  1  0.97213900  0.88050200  0.39742300  1
  S  S10  1  0.60007100  0.37001200  0.20531700  1
  S  S11  1  0.37832100  0.48331200  0.26547000  1
  S  S12  1  0.91654400  0.42044900  0.40752700  1
  S  S13  1  0.06489300  0.02308300  0.77623500  1
  S  S14  1  0.08345600  0.57955100  0.59247300  1
  S  S15  1  0.43510700  0.02308300  0.27623500  1
  S  S16  1  0.56489300  0.97691700  0.72376500  1
  S  S17  1  0.10007100  0.62998800  0.29468300  1
  S  S18  1  0.12167900  0.48331200  0.76547000  1
  S  S19  1  0.41654400  0.57955100  0.09247300  1
  Cl  Cl0  1  0.19721800  0.16569800  0.45206200  1
  Cl  Cl1  1  0.37331200  0.38971800  0.62594400  1
  Cl  Cl2  1  0.70244000  0.02889000  0.38957300  1
  Cl  Cl3  1  0.62668800  0.61028200  0.37405600  1
  Cl  Cl4  1  0.55424800  0.76491200  0.52987000  1
  Cl  Cl5  1  0.94575200  0.76491200  0.02987000  1
  Cl  Cl6  1  0.26896500  0.58285400  0.47006900  1
  Cl  Cl7  1  0.20244000  0.97111000  0.11042700  1
  Cl  Cl8  1  0.29756000  0.97111000  0.61042700  1
  Cl  Cl9  1  0.79756000  0.02889000  0.88957300  1
  Cl  Cl10  1  0.30278200  0.16569800  0.95206200  1
  Cl  Cl11  1  0.44575200  0.23508800  0.47013000  1
  Cl  Cl12  1  0.12668800  0.38971800  0.12594400  1
  Cl  Cl13  1  0.73103500  0.41714600  0.52993100  1
  Cl  Cl14  1  0.80278200  0.83430200  0.54793800  1
  Cl  Cl15  1  0.23103500  0.58285400  0.97006900  1
  Cl  Cl16  1  0.05424800  0.23508800  0.97013000  1
  Cl  Cl17  1  0.87331200  0.61028200  0.87405600  1
  Cl  Cl18  1  0.69721800  0.83430200  0.04793800  1
  Cl  Cl19  1  0.76896500  0.41714600  0.02993100  1
loop_
_geom_bond_atom_site_label_1
_geom_bond_atom_site_label_2
_geom_bond_distance
_geom_bond_site_symmetry_2
Nb0 P14 2.851225 1_555
Nb1 P0 2.851225 1_555
Nb2 P6 2.851225 1_555
Nb3 P15 2.851225 1_555
P0 S3 2.102691 1_555
P0 S1 2.106094 1_555
P0 P8 2.333746 1_555
P1 S11 2.129798 1_555
P1 S10 2.133916 1_555
P1 S19 2.136336 1_555
P2 S13 2.131290 1_655
P2 S6 2.135758 1_555
P2 S0 2.143306 1_655
P3 S15 2.131290 1_555
P3 S10 2.135758 1_555
P3 S8 2.143306 1_555
P4 S11 2.118223 1_555
P4 S15 2.120957 1_555
P5 S5 2.129798 1_555
P5 S17 2.133916 1_655
P5 S12 2.136336 1_555
P6 S14 2.102691 1_555
P6 S0 2.106094 1_555
P7 S18 2.129798 1_555
P7 S6 2.133916 1_455
P7 S14 2.136336 1_555
P8 S7 2.118223 1_555
P8 S16 2.120957 1_555
P9 S7 2.129798 1_555
P9 S4 2.133916 1_555
P9 S3 2.136336 1_555
P10 S2 2.131290 1_455
P10 S17 2.135758 1_555
P10 S9 2.143306 1_455
P11 S16 2.131290 1_555
P11 S4 2.135758 1_555
P11 S1 2.143306 1_555
P12 S18 2.118223 1_555
P12 S13 2.120957 1_555
P12 P6 2.333746 1_555
P13 S5 2.118223 1_555
P13 S2 2.120957 1_555
P13 P14 2.333746 1_555
P14 S12 2.102691 1_555
P14 S9 2.106094 1_555
P15 S19 2.102691 1_555
P15 S8 2.106094 1_555
P15 P4 2.333746 1_555
Cl0 Nb2 2.357486 1_555
Cl1 Nb2 2.360757 1_555
Cl2 Nb0 2.356503 1_545
Cl3 Nb0 2.360757 1_555
Cl4 Nb0 2.284637 1_555
Cl5 Nb1 2.284637 1_554
Cl6 Nb2 2.342364 1_555
Cl7 Nb3 2.356503 1_565
Cl8 Nb2 2.356503 1_565
Cl9 Nb1 2.356503 1_545
Cl10 Nb3 2.357486 1_556
Cl11 Nb2 2.284637 1_555
Cl12 Nb3 2.360757 1_555
Cl13 Nb0 2.342364 1_555
Cl14 Nb0 2.357486 1_555
Cl15 Nb3 2.342364 1_556
Cl16 Nb3 2.284637 1_556
Cl17 Nb1 2.360757 1_555
Cl18 Nb1 2.357486 1_554
Cl19 Nb1 2.342364 1_554
