# generated using pymatgen
data_Nb3Co2Si
_symmetry_space_group_name_H-M   'P 1'
_cell_length_a   7.91305521
_cell_length_b   7.91305521
_cell_length_c   7.91305521
_cell_angle_alpha   60.00000000
_cell_angle_beta   60.00000000
_cell_angle_gamma   60.00000000
_symmetry_Int_Tables_number   1
_chemical_formula_structural   Nb3Co2Si
_chemical_formula_sum   'Nb12 Co8 Si4'
_cell_volume   350.36247853
_cell_formula_units_Z   4
loop_
 _symmetry_equiv_pos_site_id
 _symmetry_equiv_pos_as_xyz
  1  'x, y, z'
loop_
 _atom_site_type_symbol
 _atom_site_label
 _atom_site_symmetry_multiplicity
 _atom_site_fract_x
 _atom_site_fract_y
 _atom_site_fract_z
 _atom_site_occupancy
  Nb  Nb0  1  0.95142000  0.95142000  0.54858000  1
  Nb  Nb1  1  0.70142000  0.29858000  0.29858000  1
  Nb  Nb2  1  0.29858000  0.70142000  0.70142000  1
  Nb  Nb3  1  0.70142000  0.70142000  0.29858000  1
  Nb  Nb4  1  0.70142000  0.29858000  0.70142000  1
  Nb  Nb5  1  0.29858000  0.70142000  0.29858000  1
  Nb  Nb6  1  0.54858000  0.95142000  0.54858000  1
  Nb  Nb7  1  0.54858000  0.95142000  0.95142000  1
  Nb  Nb8  1  0.95142000  0.54858000  0.54858000  1
  Nb  Nb9  1  0.95142000  0.54858000  0.95142000  1
  Nb  Nb10  1  0.29858000  0.29858000  0.70142000  1
  Nb  Nb11  1  0.54858000  0.54858000  0.95142000  1
  Co  Co0  1  0.91739100  0.24782600  0.91739100  1
  Co  Co1  1  0.33260900  0.33260900  0.00217400  1
  Co  Co2  1  0.00217400  0.33260900  0.33260900  1
  Co  Co3  1  0.33260900  0.33260900  0.33260900  1
  Co  Co4  1  0.24782600  0.91739100  0.91739100  1
  Co  Co5  1  0.91739100  0.91739100  0.91739100  1
  Co  Co6  1  0.91739100  0.91739100  0.24782600  1
  Co  Co7  1  0.33260900  0.00217400  0.33260900  1
  Si  Si0  1  0.12500000  0.62500000  0.12500000  1
  Si  Si1  1  0.12500000  0.12500000  0.62500000  1
  Si  Si2  1  0.62500000  0.12500000  0.12500000  1
  Si  Si3  1  0.12500000  0.12500000  0.12500000  1
loop_
_geom_bond_atom_site_label_1
_geom_bond_atom_site_label_2
_geom_bond_distance
_geom_bond_site_symmetry_2
Nb0 Si1 2.772507 1_665
Nb0 Si3 2.772507 1_665
Nb1 Si3 2.772507 1_655
Nb1 Si2 2.772507 1_555
Nb2 Si1 2.772507 1_565
Nb2 Si0 2.772507 1_556
Nb3 Si0 2.772507 1_655
Nb3 Si2 2.772507 1_565
Nb4 Si2 2.772507 1_556
Nb4 Si1 2.772507 1_655
Nb5 Si3 2.772507 1_565
Nb5 Si0 2.772507 1_555
Nb6 Si2 2.772507 1_565
Nb6 Si1 2.772507 1_565
Nb7 Si2 2.772507 1_566
Nb7 Si3 2.772507 1_566
Nb8 Si0 2.772507 1_655
Nb8 Si1 2.772507 1_655
Nb9 Si0 2.772507 1_656
Nb9 Si3 2.772507 1_656
Nb10 Si3 2.772507 1_556
Nb10 Si1 2.772507 1_555
Nb11 Si0 2.772507 1_556
Nb11 Si2 2.772507 1_556
Co0 Si1 2.418220 1_655
Co0 Si2 2.418220 1_556
Co0 Si3 2.418227 1_656
Co0 Co6 2.614750 1_546
Co0 Co4 2.614750 1_645
Co0 Co5 2.614750 1_545
Co0 Nb11 2.676382 1_555
Co0 Nb8 2.676382 1_555
Co0 Nb9 2.676387 1_555
Co0 Nb4 2.747820 1_555
Co0 Nb1 2.747827 1_556
Co0 Nb10 2.747827 1_655
Co1 Si2 2.418220 1_555
Co1 Si0 2.418220 1_555
Co1 Si3 2.418227 1_555
Co1 Co2 2.614750 1_555
Co1 Co3 2.614750 1_555
Co1 Co7 2.614750 1_555
Co1 Nb2 2.676382 1_554
Co1 Nb4 2.676382 1_554
Co1 Nb10 2.676387 1_554
Co1 Nb11 2.747820 1_554
Co1 Nb9 2.747827 1_454
Co1 Nb7 2.747827 1_544
Co2 Si1 2.418220 1_555
Co2 Si0 2.418220 1_555
Co2 Si3 2.418227 1_555
Co2 Co3 2.614750 1_555
Co2 Co7 2.614750 1_555
Co2 Nb3 2.676382 1_455
Co2 Nb4 2.676382 1_455
Co2 Nb1 2.676387 1_455
Co2 Nb8 2.747820 1_455
Co2 Nb0 2.747827 1_445
Co2 Nb9 2.747827 1_454
Co3 Si0 2.418225 1_555
Co3 Si1 2.418225 1_555
Co3 Si2 2.418225 1_555
Co3 Co7 2.614750 1_555
Co3 Nb1 2.676379 1_555
Co3 Nb5 2.676379 1_555
Co3 Nb10 2.676379 1_555
Co3 Nb8 2.747824 1_455
Co3 Nb11 2.747824 1_554
Co3 Nb6 2.747824 1_545
Co4 Si1 2.418220 1_565
Co4 Si0 2.418220 1_556
Co4 Si3 2.418227 1_566
Co4 Co6 2.614750 1_456
Co4 Co5 2.614750 1_455
Co4 Nb11 2.676382 1_555
Co4 Nb6 2.676382 1_555
Co4 Nb7 2.676387 1_555
Co4 Nb2 2.747820 1_555
Co4 Nb10 2.747827 1_565
Co4 Nb5 2.747827 1_556
Co5 Si1 2.418225 1_665
Co5 Si2 2.418225 1_566
Co5 Si0 2.418225 1_656
Co5 Co6 2.614750 1_556
Co5 Nb9 2.676379 1_555
Co5 Nb0 2.676379 1_555
Co5 Nb7 2.676379 1_555
Co5 Nb2 2.747824 1_655
Co5 Nb3 2.747824 1_556
Co5 Nb4 2.747824 1_565
Co6 Si0 2.418220 1_655
Co6 Si2 2.418220 1_565
Co6 Si3 2.418227 1_665
Co6 Nb6 2.676382 1_555
Co6 Nb8 2.676382 1_555
Co6 Nb0 2.676387 1_555
Co6 Nb3 2.747820 1_555
Co6 Nb1 2.747827 1_565
Co6 Nb5 2.747827 1_655
Co7 Si2 2.418220 1_555
Co7 Si1 2.418220 1_555
Co7 Si3 2.418227 1_555
Co7 Nb2 2.676382 1_545
Co7 Nb3 2.676382 1_545
Co7 Nb5 2.676387 1_545
Co7 Nb6 2.747820 1_545
Co7 Nb0 2.747827 1_445
Co7 Nb7 2.747827 1_544
