# generated using pymatgen
data_FeH6(CO3)2
_symmetry_space_group_name_H-M   'P 1'
_cell_length_a   7.25267200
_cell_length_b   8.87258500
_cell_length_c   9.52729698
_cell_angle_alpha   82.52489189
_cell_angle_beta   90.00000000
_cell_angle_gamma   90.00000000
_symmetry_Int_Tables_number   1
_chemical_formula_structural   FeH6(CO3)2
_chemical_formula_sum   'Fe4 H24 C8 O24'
_cell_volume   607.87078747
_cell_formula_units_Z   4
loop_
 _symmetry_equiv_pos_site_id
 _symmetry_equiv_pos_as_xyz
  1  'x, y, z'
loop_
 _atom_site_type_symbol
 _atom_site_label
 _atom_site_symmetry_multiplicity
 _atom_site_fract_x
 _atom_site_fract_y
 _atom_site_fract_z
 _atom_site_occupancy
  Fe  Fe0  1  0.00000000  0.00000000  0.00000000  1
  Fe  Fe1  1  0.50000000  0.00000000  0.50000000  1
  Fe  Fe2  1  0.50000000  0.50000000  0.00000000  1
  Fe  Fe3  1  0.00000000  0.50000000  0.50000000  1
  H  H0  1  0.71075400  0.93329100  0.77435300  1
  H  H1  1  0.21075400  0.06670900  0.72564700  1
  H  H2  1  0.28924600  0.06670900  0.22564700  1
  H  H3  1  0.78924600  0.93329100  0.27435300  1
  H  H4  1  0.52616200  0.32792900  0.61014800  1
  H  H5  1  0.02616200  0.67207100  0.88985200  1
  H  H6  1  0.47383800  0.67207100  0.38985200  1
  H  H7  1  0.97383800  0.32792900  0.11014800  1
  H  H8  1  0.60934600  0.20890100  0.99014100  1
  H  H9  1  0.10934600  0.79109900  0.50985900  1
  H  H10  1  0.39065400  0.79109900  0.00985900  1
  H  H11  1  0.89065400  0.20890100  0.49014100  1
  H  H12  1  0.39440600  0.23375000  0.95434200  1
  H  H13  1  0.89440600  0.76625000  0.54565800  1
  H  H14  1  0.60559400  0.76625000  0.04565800  1
  H  H15  1  0.10559400  0.23375000  0.45434200  1
  H  H16  1  0.90170900  0.30173900  0.73695900  1
  H  H17  1  0.40170900  0.69826100  0.76304100  1
  H  H18  1  0.09829100  0.69826100  0.26304100  1
  H  H19  1  0.59829100  0.30173900  0.23695900  1
  H  H20  1  0.85261300  0.46686400  0.77878300  1
  H  H21  1  0.35261300  0.53313600  0.72121700  1
  H  H22  1  0.14738700  0.53313600  0.22121700  1
  H  H23  1  0.64738700  0.46686400  0.27878300  1
  C  C0  1  0.77697900  0.03876200  0.72403700  1
  C  C1  1  0.27697900  0.96123800  0.77596300  1
  C  C2  1  0.22302100  0.96123800  0.27596300  1
  C  C3  1  0.72302100  0.03876200  0.22403700  1
  C  C4  1  0.38475200  0.32600800  0.56681500  1
  C  C5  1  0.88475200  0.67399200  0.93318500  1
  C  C6  1  0.61524800  0.67399200  0.43318500  1
  C  C7  1  0.11524800  0.32600800  0.06681500  1
  O  O0  1  0.89546700  0.10246100  0.79434700  1
  O  O1  1  0.39546700  0.89753900  0.70565300  1
  O  O2  1  0.10453300  0.89753900  0.20565300  1
  O  O3  1  0.60453300  0.10246100  0.29434700  1
  O  O4  1  0.72931100  0.08943500  0.59781200  1
  O  O5  1  0.22931100  0.91056500  0.90218800  1
  O  O6  1  0.27068900  0.91056500  0.40218800  1
  O  O7  1  0.77068900  0.08943500  0.09781200  1
  O  O8  1  0.28028600  0.43722800  0.58371500  1
  O  O9  1  0.78028600  0.56277200  0.91628500  1
  O  O10  1  0.71971400  0.56277200  0.41628500  1
  O  O11  1  0.21971400  0.43722800  0.08371500  1
  O  O12  1  0.33909900  0.21222400  0.50514600  1
  O  O13  1  0.83909900  0.78777600  0.99485400  1
  O  O14  1  0.66090100  0.78777600  0.49485400  1
  O  O15  1  0.16090100  0.21222400  0.00514600  1
  O  O16  1  0.52026300  0.27575300  0.93285700  1
  O  O17  1  0.02026300  0.72424700  0.56714300  1
  O  O18  1  0.47973700  0.72424700  0.06714300  1
  O  O19  1  0.97973700  0.27575300  0.43285700  1
  O  O20  1  0.89088400  0.41082500  0.69943600  1
  O  O21  1  0.39088400  0.58917500  0.80056400  1
  O  O22  1  0.10911600  0.58917500  0.30056400  1
  O  O23  1  0.60911600  0.41082500  0.19943600  1
loop_
_geom_bond_atom_site_label_1
_geom_bond_atom_site_label_2
_geom_bond_distance
_geom_bond_site_symmetry_2
Fe0 O7 2.111029 1_455
Fe0 O5 2.111029 1_544
Fe0 O2 2.185567 1_545
Fe0 O0 2.185567 1_454
Fe0 O15 2.221221 1_555
Fe0 O13 2.221221 1_444
Fe1 O4 2.111029 1_555
Fe1 O6 2.111029 1_545
Fe1 O1 2.185567 1_545
Fe1 O3 2.185567 1_555
Fe1 O12 2.221221 1_555
Fe1 O14 2.221221 1_545
Fe2 O23 2.114584 1_555
Fe2 O21 2.114584 1_554
Fe2 O18 2.172711 1_555
Fe2 O16 2.172711 1_554
Fe2 O9 2.227804 1_554
Fe2 O11 2.227804 1_555
Fe3 O22 2.114584 1_555
Fe3 O20 2.114584 1_455
Fe3 O17 2.172711 1_555
Fe3 O19 2.172711 1_455
Fe3 O8 2.227804 1_555
Fe3 O10 2.227804 1_455
H8 O16 0.991406 1_555
H9 O17 0.991406 1_555
H10 O18 0.991406 1_555
H11 O19 0.991406 1_555
H12 O16 0.997066 1_555
H13 O17 0.997066 1_655
H14 O18 0.997066 1_555
H15 O19 0.997066 1_455
H16 O20 0.990312 1_555
H17 O21 0.990312 1_555
H18 O22 0.990312 1_555
H19 O23 0.990312 1_555
H20 O20 0.996765 1_555
H20 O9 1.733637 1_555
H21 O21 0.996765 1_555
H21 O8 1.733637 1_555
H22 O22 0.996765 1_555
H22 O11 1.733637 1_555
H23 O23 0.996765 1_555
H23 O10 1.733637 1_555
C0 H0 1.104309 1_545
C0 O0 1.266940 1_555
C0 O4 1.275613 1_555
C1 H1 1.104309 1_565
C1 O1 1.266940 1_555
C1 O5 1.275613 1_555
C2 H2 1.104309 1_565
C2 O2 1.266940 1_555
C2 O6 1.275613 1_555
C3 H3 1.104309 1_545
C3 O3 1.266940 1_555
C3 O7 1.275613 1_555
C4 H4 1.106535 1_555
C4 O8 1.270867 1_555
C4 O12 1.276078 1_555
C5 H5 1.106535 1_655
C5 O9 1.270867 1_555
C5 O13 1.276078 1_555
C6 H6 1.106535 1_555
C6 O10 1.270867 1_555
C6 O14 1.276078 1_555
C7 H7 1.106535 1_455
C7 O11 1.270867 1_555
C7 O15 1.276078 1_555
