# generated using pymatgen
data_BaGe2O5
_symmetry_space_group_name_H-M   'P 1'
_cell_length_a   13.26971900
_cell_length_b   9.69559900
_cell_length_c   13.40660810
_cell_angle_alpha   85.95011706
_cell_angle_beta   90.00000000
_cell_angle_gamma   90.00000000
_symmetry_Int_Tables_number   1
_chemical_formula_structural   BaGe2O5
_chemical_formula_sum   'Ba16 Ge32 O80'
_cell_volume   1720.55860675
_cell_formula_units_Z   16
loop_
 _symmetry_equiv_pos_site_id
 _symmetry_equiv_pos_as_xyz
  1  'x, y, z'
loop_
 _atom_site_type_symbol
 _atom_site_label
 _atom_site_symmetry_multiplicity
 _atom_site_fract_x
 _atom_site_fract_y
 _atom_site_fract_z
 _atom_site_occupancy
  Ba  Ba0  1  0.24634000  0.87879200  0.36602500  1
  Ba  Ba1  1  0.00960400  0.38782400  0.13162400  1
  Ba  Ba2  1  0.50960400  0.61217600  0.36837600  1
  Ba  Ba3  1  0.51391100  0.38701300  0.13294800  1
  Ba  Ba4  1  0.75245400  0.86261600  0.38433400  1
  Ba  Ba5  1  0.75366000  0.12120800  0.63397500  1
  Ba  Ba6  1  0.24754600  0.13738400  0.61566600  1
  Ba  Ba7  1  0.48608900  0.61298700  0.86705200  1
  Ba  Ba8  1  0.25245400  0.13738400  0.11566600  1
  Ba  Ba9  1  0.98608900  0.38701300  0.63294800  1
  Ba  Ba10  1  0.99039600  0.61217600  0.86837600  1
  Ba  Ba11  1  0.49039600  0.38782400  0.63162400  1
  Ba  Ba12  1  0.25366000  0.87879200  0.86602500  1
  Ba  Ba13  1  0.74754600  0.86261600  0.88433400  1
  Ba  Ba14  1  0.74634000  0.12120800  0.13397500  1
  Ba  Ba15  1  0.01391100  0.61298700  0.36705200  1
  Ge  Ge0  1  0.49981600  0.01248700  0.76139100  1
  Ge  Ge1  1  0.60645100  0.74981000  0.61337300  1
  Ge  Ge2  1  0.63210200  0.24070800  0.87962800  1
  Ge  Ge3  1  0.36789800  0.75929200  0.12037200  1
  Ge  Ge4  1  0.86888500  0.24024000  0.90859700  1
  Ge  Ge5  1  0.74542900  0.47430000  0.51685800  1
  Ge  Ge6  1  0.13210200  0.75929200  0.62037200  1
  Ge  Ge7  1  0.10645100  0.25019000  0.88662700  1
  Ge  Ge8  1  0.65151800  0.73546900  0.10839900  1
  Ge  Ge9  1  0.86789800  0.24070800  0.37962800  1
  Ge  Ge10  1  0.27343500  0.48061400  0.23947700  1
  Ge  Ge11  1  0.84848200  0.73546900  0.60839900  1
  Ge  Ge12  1  0.25457100  0.52570000  0.48314200  1
  Ge  Ge13  1  0.15151800  0.26453100  0.39160100  1
  Ge  Ge14  1  0.00000000  0.00000000  0.00000000  1
  Ge  Ge15  1  0.50018400  0.98751300  0.23860900  1
  Ge  Ge16  1  0.77343500  0.51938600  0.26052300  1
  Ge  Ge17  1  0.24542900  0.52570000  0.98314200  1
  Ge  Ge18  1  0.34848200  0.26453100  0.89160100  1
  Ge  Ge19  1  0.99981600  0.98751300  0.73860900  1
  Ge  Ge20  1  0.13111500  0.75976000  0.09140300  1
  Ge  Ge21  1  0.00018400  0.01248700  0.26139100  1
  Ge  Ge22  1  0.00000000  0.00000000  0.50000000  1
  Ge  Ge23  1  0.50000000  0.00000000  0.50000000  1
  Ge  Ge24  1  0.22656500  0.48061400  0.73947700  1
  Ge  Ge25  1  0.63111500  0.24024000  0.40859700  1
  Ge  Ge26  1  0.75457100  0.47430000  0.01685800  1
  Ge  Ge27  1  0.72656500  0.51938600  0.76052300  1
  Ge  Ge28  1  0.36888500  0.75976000  0.59140300  1
  Ge  Ge29  1  0.50000000  0.00000000  0.00000000  1
  Ge  Ge30  1  0.39354900  0.25019000  0.38662700  1
  Ge  Ge31  1  0.89354900  0.74981000  0.11337300  1
  O  O0  1  0.64954200  0.32763700  0.51839900  1
  O  O1  1  0.35045800  0.67236300  0.48160100  1
  O  O2  1  0.94750500  0.82276000  0.98755500  1
  O  O3  1  0.34702900  0.38558400  0.98948100  1
  O  O4  1  0.36784400  0.41345900  0.44673700  1
  O  O5  1  0.71033900  0.51865300  0.37964900  1
  O  O6  1  0.34928500  0.66537200  0.00560300  1
  O  O7  1  0.49251300  0.10250400  0.12774300  1
  O  O8  1  0.02812000  0.68864900  0.16210700  1
  O  O9  1  0.14261900  0.36217300  0.27839500  1
  O  O10  1  0.14954200  0.67236300  0.98160100  1
  O  O11  1  0.73750700  0.21946800  0.33181500  1
  O  O12  1  0.87458800  0.06758900  0.96373000  1
  O  O13  1  0.76717600  0.41774200  0.65858500  1
  O  O14  1  0.94144100  0.94544300  0.15014600  1
  O  O15  1  0.95908800  0.82711200  0.57088100  1
  O  O16  1  0.63215600  0.58654100  0.55326300  1
  O  O17  1  0.54091200  0.82711200  0.07088100  1
  O  O18  1  0.26334500  0.16279200  0.41188400  1
  O  O19  1  0.23750700  0.78053200  0.16818500  1
  O  O20  1  0.58434000  0.15685200  0.76445500  1
  O  O21  1  0.44750500  0.17724000  0.51244500  1
  O  O22  1  0.26717600  0.58225800  0.84141500  1
  O  O23  1  0.73665500  0.83720800  0.58811600  1
  O  O24  1  0.15224800  0.31846700  0.75635400  1
  O  O25  1  0.55249500  0.82276000  0.48755500  1
  O  O26  1  0.84775200  0.68153300  0.24364600  1
  O  O27  1  0.41566000  0.84314800  0.23554500  1
  O  O28  1  0.12951000  0.93166200  0.53512800  1
  O  O29  1  0.91566000  0.15685200  0.26445500  1
  O  O30  1  0.37458800  0.93241100  0.53627000  1
  O  O31  1  0.85045800  0.32763700  0.01839900  1
  O  O32  1  0.15297100  0.38558400  0.48948100  1
  O  O33  1  0.97188000  0.31135100  0.83789300  1
  O  O34  1  0.85738100  0.63782700  0.72160500  1
  O  O35  1  0.62541200  0.06758900  0.46373000  1
  O  O36  1  0.21033900  0.48134700  0.12035100  1
  O  O37  1  0.26249300  0.78053200  0.66818500  1
  O  O38  1  0.45908800  0.17288800  0.92911900  1
  O  O39  1  0.99251300  0.89749600  0.37225700  1
  O  O40  1  0.05855900  0.05455700  0.84985400  1
  O  O41  1  0.65224800  0.68153300  0.74364600  1
  O  O42  1  0.37049000  0.93166200  0.03512800  1
  O  O43  1  0.65071500  0.33462800  0.99439700  1
  O  O44  1  0.23282400  0.58225800  0.34141500  1
  O  O45  1  0.76334500  0.83720800  0.08811600  1
  O  O46  1  0.00748700  0.10250400  0.62774300  1
  O  O47  1  0.47188000  0.68864900  0.66210700  1
  O  O48  1  0.08434000  0.84314800  0.73554500  1
  O  O49  1  0.55855900  0.94544300  0.65014600  1
  O  O50  1  0.28966100  0.48134700  0.62035100  1
  O  O51  1  0.50748700  0.89749600  0.87225700  1
  O  O52  1  0.76249300  0.21946800  0.83181500  1
  O  O53  1  0.15071500  0.66537200  0.50560300  1
  O  O54  1  0.13215600  0.41345900  0.94673700  1
  O  O55  1  0.52812000  0.31135100  0.33789300  1
  O  O56  1  0.78966100  0.51865300  0.87964900  1
  O  O57  1  0.84702900  0.61441600  0.51051900  1
  O  O58  1  0.65297100  0.61441600  0.01051900  1
  O  O59  1  0.35738100  0.36217300  0.77839500  1
  O  O60  1  0.12541200  0.93241100  0.03627000  1
  O  O61  1  0.34775200  0.31846700  0.25635400  1
  O  O62  1  0.64261900  0.63782700  0.22160500  1
  O  O63  1  0.44144100  0.05455700  0.34985400  1
  O  O64  1  0.37388200  0.05194800  0.74534600  1
  O  O65  1  0.62951000  0.06833800  0.96487200  1
  O  O66  1  0.05249500  0.17724000  0.01244500  1
  O  O67  1  0.11055200  0.58590700  0.69725500  1
  O  O68  1  0.73282400  0.41774200  0.15858500  1
  O  O69  1  0.88944800  0.41409300  0.30274500  1
  O  O70  1  0.61055200  0.41409300  0.80274500  1
  O  O71  1  0.87388200  0.94805200  0.75465400  1
  O  O72  1  0.87049000  0.06833800  0.46487200  1
  O  O73  1  0.04091200  0.17288800  0.42911900  1
  O  O74  1  0.38944800  0.58590700  0.19725500  1
  O  O75  1  0.12611800  0.05194800  0.24534600  1
  O  O76  1  0.23665500  0.16279200  0.91188400  1
  O  O77  1  0.62611800  0.94805200  0.25465400  1
  O  O78  1  0.84928500  0.33462800  0.49439700  1
  O  O79  1  0.86784400  0.58654100  0.05326300  1
loop_
_geom_bond_atom_site_label_1
_geom_bond_atom_site_label_2
_geom_bond_distance
_geom_bond_site_symmetry_2
Ba0 O75 2.756354 1_565
Ba0 O1 2.806693 1_555
Ba0 O28 2.823133 1_555
Ba0 O18 2.872295 1_565
Ba0 O27 2.883244 1_555
Ba0 O19 2.883281 1_555
Ba0 O44 2.922511 1_555
Ba0 O30 2.922914 1_555
Ba0 O53 2.974322 1_555
Ba0 O63 3.098632 1_565
Ba0 O39 3.374443 1_455
Ba1 O9 2.641979 1_555
Ba1 O31 2.688802 1_455
Ba1 O66 2.739770 1_555
Ba1 O36 2.814424 1_555
Ba1 O69 2.820064 1_455
Ba1 O79 2.840503 1_455
Ba1 O54 2.960299 1_554
Ba1 O8 2.983750 1_555
Ba1 O29 3.029356 1_455
Ba2 O62 2.641979 1_555
Ba2 O1 2.688802 1_555
Ba2 O25 2.739770 1_555
Ba2 O5 2.814424 1_555
Ba2 O74 2.820064 1_555
Ba2 O4 2.840503 1_555
Ba2 O16 2.960299 1_555
Ba2 O55 2.983750 1_555
Ba2 O27 3.029356 1_555
Ba3 O43 2.671521 1_554
Ba3 O74 2.724808 1_555
Ba3 O7 2.778835 1_555
Ba3 O55 2.799714 1_555
Ba3 O61 2.808044 1_555
Ba3 O3 2.933830 1_554
Ba3 O68 2.942769 1_555
Ba3 O58 3.232515 1_555
Ba3 O62 3.263681 1_555
Ba4 O77 2.513132 1_555
Ba4 O23 2.733777 1_555
Ba4 O72 2.811010 1_565
Ba4 O35 2.867626 1_565
Ba4 O26 2.950759 1_555
Ba4 O25 3.004887 1_555
Ba4 O57 3.106901 1_555
Ba4 O39 3.206300 1_555
Ba4 O5 3.386383 1_555
Ba5 O71 2.756354 1_545
Ba5 O0 2.806693 1_555
Ba5 O72 2.823133 1_555
Ba5 O23 2.872295 1_545
Ba5 O20 2.883244 1_555
Ba5 O52 2.883281 1_555
Ba5 O13 2.922511 1_555
Ba5 O35 2.922914 1_555
Ba5 O78 2.974322 1_555
Ba5 O49 3.098632 1_545
Ba5 O46 3.374443 1_655
Ba6 O64 2.513132 1_555
Ba6 O18 2.733777 1_555
Ba6 O28 2.811010 1_545
Ba6 O30 2.867626 1_545
Ba6 O24 2.950759 1_555
Ba6 O21 3.004887 1_555
Ba6 O32 3.106901 1_555
Ba6 O46 3.206300 1_555
Ba6 O50 3.386383 1_555
Ba7 O6 2.671521 1_556
Ba7 O70 2.724808 1_555
Ba7 O51 2.778835 1_555
Ba7 O47 2.799714 1_555
Ba7 O41 2.808044 1_555
Ba7 O58 2.933830 1_556
Ba7 O22 2.942769 1_555
Ba7 O3 3.232515 1_555
Ba7 O59 3.263681 1_555
Ba8 O75 2.513132 1_555
Ba8 O76 2.733777 1_554
Ba8 O42 2.811010 1_545
Ba8 O60 2.867626 1_545
Ba8 O61 2.950759 1_555
Ba8 O66 3.004887 1_555
Ba8 O3 3.106901 1_554
Ba8 O7 3.206300 1_555
Ba8 O36 3.386383 1_555
Ba9 O78 2.671521 1_555
Ba9 O67 2.724808 1_655
Ba9 O46 2.778835 1_655
Ba9 O33 2.799714 1_555
Ba9 O24 2.808044 1_655
Ba9 O32 2.933830 1_655
Ba9 O13 2.942769 1_555
Ba9 O57 3.232515 1_555
Ba9 O34 3.263681 1_555
Ba10 O34 2.641979 1_555
Ba10 O10 2.688802 1_655
Ba10 O2 2.739770 1_555
Ba10 O56 2.814424 1_555
Ba10 O67 2.820064 1_655
Ba10 O54 2.840503 1_655
Ba10 O79 2.960299 1_556
Ba10 O33 2.983750 1_555
Ba10 O48 3.029356 1_655
Ba11 O59 2.641979 1_555
Ba11 O0 2.688802 1_555
Ba11 O21 2.739770 1_555
Ba11 O50 2.814424 1_555
Ba11 O70 2.820064 1_555
Ba11 O16 2.840503 1_555
Ba11 O4 2.960299 1_555
Ba11 O47 2.983750 1_555
Ba11 O20 3.029356 1_555
Ba12 O64 2.756354 1_565
Ba12 O10 2.806693 1_555
Ba12 O42 2.823133 1_556
Ba12 O76 2.872295 1_565
Ba12 O48 2.883244 1_555
Ba12 O37 2.883281 1_555
Ba12 O22 2.922511 1_555
Ba12 O60 2.922914 1_556
Ba12 O6 2.974322 1_556
Ba12 O40 3.098632 1_565
Ba12 O51 3.374443 1_555
Ba13 O71 2.513132 1_555
Ba13 O45 2.733777 1_556
Ba13 O65 2.811010 1_565
Ba13 O12 2.867626 1_565
Ba13 O41 2.950759 1_555
Ba13 O2 3.004887 1_555
Ba13 O58 3.106901 1_556
Ba13 O51 3.206300 1_555
Ba13 O56 3.386383 1_555
Ba14 O77 2.756354 1_545
Ba14 O31 2.806693 1_555
Ba14 O65 2.823133 1_554
Ba14 O45 2.872295 1_545
Ba14 O29 2.883244 1_555
Ba14 O11 2.883281 1_555
Ba14 O68 2.922511 1_555
Ba14 O12 2.922914 1_554
Ba14 O43 2.974322 1_554
Ba14 O14 3.098632 1_545
Ba14 O7 3.374443 1_555
Ba15 O53 2.671521 1_555
Ba15 O69 2.724808 1_455
Ba15 O39 2.778835 1_455
Ba15 O8 2.799714 1_555
Ba15 O26 2.808044 1_455
Ba15 O57 2.933830 1_455
Ba15 O44 2.942769 1_555
Ba15 O32 3.232515 1_555
Ba15 O9 3.263681 1_555
Ge0 O64 1.724422 1_555
Ge0 O20 1.796383 1_555
Ge0 O51 1.796805 1_545
Ge0 O49 1.841584 1_545
Ge1 O16 1.857909 1_555
Ge1 O25 1.920844 1_555
Ge1 O41 1.922124 1_555
Ge1 O23 1.943544 1_555
Ge1 O47 1.978025 1_555
Ge1 O49 2.092076 1_555
Ge2 O43 1.858927 1_555
Ge2 O52 1.861645 1_555
Ge2 O20 1.903738 1_555
Ge2 O70 1.930143 1_555
Ge2 O65 1.957162 1_555
Ge3 O6 1.858927 1_555
Ge3 O19 1.861645 1_555
Ge3 O27 1.903738 1_555
Ge3 O74 1.930143 1_555
Ge3 O42 1.957162 1_555
Ge4 O31 1.766638 1_556
Ge4 O52 1.767098 1_555
Ge4 O33 1.774675 1_555
Ge4 O12 1.783093 1_555
Ge5 O0 1.907172 1_555
Ge5 O57 1.911573 1_555
Ge5 O5 1.916714 1_555
Ge5 O16 1.938252 1_555
Ge5 O13 1.961404 1_555
Ge5 O78 1.970130 1_555
Ge6 O53 1.858927 1_555
Ge6 O37 1.861645 1_555
Ge6 O48 1.903738 1_555
Ge6 O67 1.930143 1_555
Ge6 O28 1.957162 1_555
Ge7 O54 1.857909 1_555
Ge7 O66 1.920844 1_556
Ge7 O24 1.922124 1_555
Ge7 O76 1.943544 1_555
Ge7 O33 1.978025 1_455
Ge7 O40 2.092076 1_555
Ge8 O62 1.735128 1_555
Ge8 O17 1.770180 1_555
Ge8 O45 1.791948 1_555
Ge8 O58 1.821378 1_555
Ge9 O78 1.858927 1_555
Ge9 O11 1.861645 1_555
Ge9 O29 1.903738 1_555
Ge9 O69 1.930143 1_555
Ge9 O72 1.957162 1_555
Ge10 O36 1.802807 1_555
Ge10 O44 1.821969 1_555
Ge10 O61 1.856074 1_555
Ge10 O74 1.910739 1_555
Ge10 O9 2.125945 1_555
Ge11 O34 1.735128 1_555
Ge11 O15 1.770180 1_555
Ge11 O23 1.791948 1_555
Ge11 O57 1.821378 1_555
Ge12 O1 1.907172 1_555
Ge12 O32 1.911573 1_555
Ge12 O50 1.916714 1_555
Ge12 O4 1.938252 1_555
Ge12 O44 1.961404 1_555
Ge12 O53 1.970130 1_555
Ge13 O9 1.735128 1_555
Ge13 O73 1.770180 1_555
Ge13 O18 1.791948 1_555
Ge13 O32 1.821378 1_555
Ge14 O12 1.841298 1_454
Ge14 O60 1.841298 1_545
Ge14 O2 1.872603 1_444
Ge14 O66 1.872603 1_555
Ge14 O14 2.187507 1_445
Ge14 O40 2.187507 1_554
Ge15 O77 1.724422 1_555
Ge15 O27 1.796383 1_555
Ge15 O7 1.796805 1_565
Ge15 O63 1.841584 1_565
Ge16 O5 1.802807 1_555
Ge16 O68 1.821969 1_555
Ge16 O26 1.856074 1_555
Ge16 O69 1.910739 1_555
Ge16 O62 2.125945 1_555
Ge17 O10 1.907172 1_555
Ge17 O3 1.911573 1_555
Ge17 O36 1.916714 1_556
Ge17 O54 1.938252 1_555
Ge17 O22 1.961404 1_555
Ge17 O6 1.970130 1_556
Ge18 O59 1.735128 1_555
Ge18 O38 1.770180 1_555
Ge18 O76 1.791948 1_555
Ge18 O3 1.821378 1_555
Ge19 O71 1.724422 1_555
Ge19 O48 1.796383 1_655
Ge19 O46 1.796805 1_665
Ge19 O40 1.841584 1_665
Ge20 O10 1.766638 1_554
Ge20 O19 1.767098 1_555
Ge20 O8 1.774675 1_555
Ge20 O60 1.783093 1_555
Ge21 O75 1.724422 1_555
Ge21 O29 1.796383 1_455
Ge21 O39 1.796805 1_445
Ge21 O14 1.841584 1_445
Ge22 O28 1.889492 1_545
Ge22 O72 1.889492 1_455
Ge22 O15 1.944885 1_445
Ge22 O73 1.944885 1_555
Ge22 O39 2.042302 1_445
Ge22 O46 2.042302 1_555
Ge23 O35 1.841298 1_555
Ge23 O30 1.841298 1_545
Ge23 O25 1.872603 1_545
Ge23 O21 1.872603 1_555
Ge23 O63 2.187507 1_555
Ge23 O49 2.187507 1_545
Ge24 O50 1.802807 1_555
Ge24 O22 1.821969 1_555
Ge24 O24 1.856074 1_555
Ge24 O67 1.910739 1_555
Ge24 O59 2.125945 1_555
Ge25 O0 1.766638 1_555
Ge25 O11 1.767098 1_555
Ge25 O55 1.774675 1_555
Ge25 O35 1.783093 1_555
Ge26 O31 1.907172 1_555
Ge26 O58 1.911573 1_555
Ge26 O56 1.916714 1_554
Ge26 O79 1.938252 1_555
Ge26 O68 1.961404 1_555
Ge26 O43 1.970130 1_554
Ge27 O56 1.802807 1_555
Ge27 O13 1.821969 1_555
Ge27 O41 1.856074 1_555
Ge27 O70 1.910739 1_555
Ge27 O34 2.125945 1_555
Ge28 O1 1.766638 1_555
Ge28 O37 1.767098 1_555
Ge28 O47 1.774675 1_555
Ge28 O30 1.783093 1_555
Ge29 O42 1.889492 1_545
Ge29 O65 1.889492 1_554
Ge29 O38 1.944885 1_554
Ge29 O17 1.944885 1_545
Ge29 O7 2.042302 1_555
Ge29 O51 2.042302 1_544
Ge30 O4 1.857909 1_555
Ge30 O21 1.920844 1_555
Ge30 O61 1.922124 1_555
Ge30 O18 1.943544 1_555
Ge30 O55 1.978025 1_555
Ge30 O63 2.092076 1_555
Ge31 O79 1.857909 1_555
Ge31 O2 1.920844 1_554
Ge31 O26 1.922124 1_555
Ge31 O45 1.943544 1_555
Ge31 O8 1.978025 1_655
Ge31 O14 2.092076 1_555
