# generated using pymatgen
data_Bi2Te3
_symmetry_space_group_name_H-M   'P 1'
_cell_length_a   10.22888166
_cell_length_b   10.22888166
_cell_length_c   10.22888170
_cell_angle_alpha   25.16855583
_cell_angle_beta   25.16855583
_cell_angle_gamma   25.16855483
_symmetry_Int_Tables_number   1
_chemical_formula_structural   Bi2Te3
_chemical_formula_sum   'Bi2 Te3'
_cell_volume   170.33093279
_cell_formula_units_Z   1
loop_
 _symmetry_equiv_pos_site_id
 _symmetry_equiv_pos_as_xyz
  1  'x, y, z'
loop_
 _atom_site_type_symbol
 _atom_site_label
 _atom_site_symmetry_multiplicity
 _atom_site_fract_x
 _atom_site_fract_y
 _atom_site_fract_z
 _atom_site_occupancy
  Bi  Bi0  1  0.29531500  0.29531500  0.29531500  1
  Bi  Bi1  1  0.70468500  0.70468500  0.70468500  1
  Te  Te0  1  0.09802300  0.09802300  0.09802300  1
  Te  Te1  1  0.50000000  0.50000000  0.50000000  1
  Te  Te2  1  0.90197700  0.90197700  0.90197700  1
loop_
_geom_bond_atom_site_label_1
_geom_bond_atom_site_label_2
_geom_bond_distance
_geom_bond_site_symmetry_2
Bi0 Te2 3.130221 1_544
Bi0 Te2 3.130221 1_454
Bi0 Te2 3.130221 1_445
Bi0 Bi1 3.423754 1_545
Bi0 Bi1 3.423754 1_455
Bi0 Bi1 3.423754 1_554
Bi1 Te0 3.130221 1_656
Bi1 Te0 3.130221 1_566
Bi1 Te0 3.130221 1_665
Te0 Te1 3.283079 1_455
Te0 Te1 3.283079 1_545
Te0 Te1 3.283079 1_554
Te1 Te2 3.283079 1_545
Te1 Te2 3.283079 1_455
Te1 Te2 3.283079 1_554
