# generated using pymatgen
data_Dy(PRu)2
_symmetry_space_group_name_H-M   'P 1'
_cell_length_a   4.03409224
_cell_length_b   4.03409212
_cell_length_c   5.54645346
_cell_angle_alpha   111.32538500
_cell_angle_beta   111.32538693
_cell_angle_gamma   89.99999259
_symmetry_Int_Tables_number   1
_chemical_formula_structural   Dy(PRu)2
_chemical_formula_sum   'Dy1 P2 Ru2'
_cell_volume   77.41007178
_cell_formula_units_Z   1
loop_
 _symmetry_equiv_pos_site_id
 _symmetry_equiv_pos_as_xyz
  1  'x, y, z'
loop_
 _atom_site_type_symbol
 _atom_site_label
 _atom_site_symmetry_multiplicity
 _atom_site_fract_x
 _atom_site_fract_y
 _atom_site_fract_z
 _atom_site_occupancy
  Dy  Dy0  1  0.00000000  0.00000000  0.00000000  1
  P  P0  1  0.37458796  0.37458796  0.74917593  1
  P  P1  1  0.62541204  0.62541204  0.25082407  1
  Ru  Ru0  1  0.75000000  0.25000000  0.50000000  1
  Ru  Ru1  1  0.25000000  0.75000000  0.50000000  1
loop_
_geom_bond_atom_site_label_1
_geom_bond_atom_site_label_2
_geom_bond_distance
_geom_bond_site_symmetry_2
Dy0 P1 3.091994 1_545
Dy0 P0 3.091994 1_454
Dy0 P1 3.091994 1_445
Dy0 P0 3.091994 1_554
Dy0 P0 3.091994 1_544
Dy0 P1 3.091994 1_455
Dy0 P1 3.091994 1_555
Dy0 P0 3.091994 1_444
Dy0 Ru1 3.118497 1_545
Dy0 Ru0 3.118497 1_454
Dy0 Ru1 3.118497 1_544
Dy0 Ru0 3.118497 1_455
Dy0 Ru0 3.118498 1_444
Dy0 Ru1 3.118498 1_555
Dy0 Ru0 3.118498 1_555
Dy0 Ru1 3.118498 1_444
P0 Ru1 2.339509 1_555
P0 Ru0 2.339509 1_555
P0 Ru1 2.339510 1_545
P0 Ru0 2.339510 1_455
P0 P1 2.386190 1_556
P1 Ru0 2.339509 1_555
P1 Ru1 2.339509 1_555
P1 Ru0 2.339510 1_565
P1 Ru1 2.339510 1_655
