# generated using pymatgen
data_Sr2Fe2S2OF2
_symmetry_space_group_name_H-M   'P 1'
_cell_length_a   4.09511821
_cell_length_b   4.09624526
_cell_length_c   18.22180288
_cell_angle_alpha   90.00234300
_cell_angle_beta   90.00367972
_cell_angle_gamma   89.99348081
_symmetry_Int_Tables_number   1
_chemical_formula_structural   Sr2Fe2S2OF2
_chemical_formula_sum   'Sr4 Fe4 S4 O2 F4'
_cell_volume   305.66360767
_cell_formula_units_Z   2
loop_
 _symmetry_equiv_pos_site_id
 _symmetry_equiv_pos_as_xyz
  1  'x, y, z'
loop_
 _atom_site_type_symbol
 _atom_site_label
 _atom_site_symmetry_multiplicity
 _atom_site_fract_x
 _atom_site_fract_y
 _atom_site_fract_z
 _atom_site_occupancy
  Sr  Sr0  1  0.00001400  0.00000200  0.32831800  1
  Sr  Sr1  1  0.50001400  0.50000200  0.82831800  1
  Sr  Sr2  1  0.49997200  0.49997800  0.17168500  1
  Sr  Sr3  1  0.99997200  0.99997800  0.67168500  1
  Fe  Fe0  1  0.00003400  0.50001300  0.99999100  1
  Fe  Fe1  1  0.99996300  0.50001900  0.49998700  1
  Fe  Fe2  1  0.50003300  0.00001800  0.49998900  1
  Fe  Fe3  1  0.49996300  0.00001900  0.99998800  1
  S  S0  1  0.99997600  0.99998100  0.09459400  1
  S  S1  1  0.49997600  0.49998200  0.59459500  1
  S  S2  1  0.50002100  0.50001100  0.40540500  1
  S  S3  1  0.00002100  0.00001200  0.90540600  1
  O  O0  1  0.50003800  0.50001500  0.99999900  1
  O  O1  1  0.00003800  0.00001500  0.49999900  1
  F  F0  1  0.49999400  0.99998900  0.25001600  1
  F  F1  1  0.99999400  0.49998900  0.75001600  1
  F  F2  1  0.99998800  0.49998800  0.25000400  1
  F  F3  1  0.49998800  0.99998800  0.75000400  1
loop_
_geom_bond_atom_site_label_1
_geom_bond_atom_site_label_2
_geom_bond_distance
_geom_bond_site_symmetry_2
Fe0 O0 2.047543 1_455
Fe0 O0 2.047575 1_555
Fe0 S3 2.676755 1_555
Fe0 S3 2.676857 1_565
Fe0 S0 2.676863 1_456
Fe0 S0 2.677171 1_446
Fe1 O1 2.048106 1_665
Fe1 O1 2.048139 1_655
Fe1 S2 2.676073 1_555
Fe1 S1 2.676601 1_655
Fe1 S2 2.676606 1_655
Fe1 S1 2.676689 1_555
Fe2 O1 2.047539 1_555
Fe2 O1 2.047580 1_655
Fe2 S2 2.676762 1_545
Fe2 S2 2.676826 1_555
Fe2 S1 2.676886 1_555
Fe2 S1 2.677219 1_545
Fe3 O0 2.048106 1_555
Fe3 O0 2.048139 1_545
Fe3 S3 2.676073 1_555
Fe3 S0 2.676577 1_546
Fe3 S3 2.676606 1_655
Fe3 S0 2.676665 1_446
S0 Sr2 3.218615 1_655
S0 Sr2 3.218662 1_565
S0 Sr2 3.218823 1_665
S0 Sr2 3.219048 1_555
S1 Sr3 3.218610 1_545
S1 Sr3 3.218652 1_455
S1 Sr3 3.218813 1_555
S1 Sr3 3.219042 1_445
S2 Sr0 3.218581 1_565
S2 Sr0 3.218633 1_655
S2 Sr0 3.218851 1_555
S2 Sr0 3.218956 1_665
S3 Sr1 3.218586 1_455
S3 Sr1 3.218644 1_545
S3 Sr1 3.218862 1_445
S3 Sr1 3.218961 1_555
F0 Sr0 2.495642 1_665
F0 Sr0 2.495658 1_565
F0 Sr2 2.496403 1_555
F0 Sr2 2.496425 1_565
F1 Sr1 2.495642 1_655
F1 Sr1 2.495658 1_555
F1 Sr3 2.496403 1_545
F1 Sr3 2.496425 1_555
F2 Sr2 2.495805 1_555
F2 Sr2 2.495848 1_655
F2 Sr0 2.496236 1_665
F2 Sr0 2.496238 1_655
F3 Sr3 2.495805 1_455
F3 Sr3 2.495848 1_555
F3 Sr1 2.496236 1_565
F3 Sr1 2.496238 1_555
