# generated using pymatgen
data_Li2Ca3Be3Si3(O6F)2
_symmetry_space_group_name_H-M   'P 1'
_cell_length_a   11.25927422
_cell_length_b   11.25927422
_cell_length_c   11.25927422
_cell_angle_alpha   109.47122063
_cell_angle_beta   109.47122063
_cell_angle_gamma   109.47122063
_symmetry_Int_Tables_number   1
_chemical_formula_structural   Li2Ca3Be3Si3(O6F)2
_chemical_formula_sum   'Li8 Ca12 Be12 Si12 O48 F8'
_cell_volume   1098.77633817
_cell_formula_units_Z   4
loop_
 _symmetry_equiv_pos_site_id
 _symmetry_equiv_pos_as_xyz
  1  'x, y, z'
loop_
 _atom_site_type_symbol
 _atom_site_label
 _atom_site_symmetry_multiplicity
 _atom_site_fract_x
 _atom_site_fract_y
 _atom_site_fract_z
 _atom_site_occupancy
  Li  Li0  1  0.00000000  0.03944300  0.50000000  1
  Li  Li1  1  0.50000000  0.00000000  0.03944300  1
  Li  Li2  1  0.03944300  0.50000000  0.00000000  1
  Li  Li3  1  0.54286700  0.50000000  0.00000000  1
  Li  Li4  1  0.50000000  0.00000000  0.54286700  1
  Li  Li5  1  0.95713300  0.95713300  0.95713300  1
  Li  Li6  1  0.46055700  0.46055700  0.46055700  1
  Li  Li7  1  0.00000000  0.54286700  0.50000000  1
  Ca  Ca0  1  0.16398200  0.41398200  0.75000000  1
  Ca  Ca1  1  0.84414400  0.75000000  0.59414400  1
  Ca  Ca2  1  0.90585600  0.65585600  0.25000000  1
  Ca  Ca3  1  0.59414400  0.84414400  0.75000000  1
  Ca  Ca4  1  0.41398200  0.75000000  0.16398200  1
  Ca  Ca5  1  0.33601800  0.08601800  0.25000000  1
  Ca  Ca6  1  0.75000000  0.59414400  0.84414400  1
  Ca  Ca7  1  0.25000000  0.90585600  0.65585600  1
  Ca  Ca8  1  0.25000000  0.33601800  0.08601800  1
  Ca  Ca9  1  0.75000000  0.16398200  0.41398200  1
  Ca  Ca10  1  0.65585600  0.25000000  0.90585600  1
  Ca  Ca11  1  0.08601800  0.25000000  0.33601800  1
  Be  Be0  1  0.46474100  0.70112700  0.42442000  1
  Be  Be1  1  0.79887300  0.26361400  0.72329400  1
  Be  Be2  1  0.04032000  0.07558000  0.77670600  1
  Be  Be3  1  0.07558000  0.77670600  0.04032000  1
  Be  Be4  1  0.42442000  0.46474100  0.70112700  1
  Be  Be5  1  0.45968000  0.23638600  0.03525900  1
  Be  Be6  1  0.70112700  0.42442000  0.46474100  1
  Be  Be7  1  0.03525900  0.45968000  0.23638600  1
  Be  Be8  1  0.26361400  0.72329400  0.79887300  1
  Be  Be9  1  0.77670600  0.04032000  0.07558000  1
  Be  Be10  1  0.72329400  0.79887300  0.26361400  1
  Be  Be11  1  0.23638600  0.03525900  0.45968000  1
  Si  Si0  1  0.95606300  0.53160000  0.73541100  1
  Si  Si1  1  0.92446300  0.20381100  0.96840000  1
  Si  Si2  1  0.96840000  0.92446300  0.20381100  1
  Si  Si3  1  0.57553700  0.54393700  0.27934800  1
  Si  Si4  1  0.54393700  0.27934800  0.57553700  1
  Si  Si5  1  0.29618900  0.22065200  0.76458900  1
  Si  Si6  1  0.53160000  0.73541100  0.95606300  1
  Si  Si7  1  0.73541100  0.95606300  0.53160000  1
  Si  Si8  1  0.22065200  0.76458900  0.29618900  1
  Si  Si9  1  0.20381100  0.96840000  0.92446300  1
  Si  Si10  1  0.76458900  0.29618900  0.22065200  1
  Si  Si11  1  0.27934800  0.57553700  0.54393700  1
  O  O0  1  0.63865800  0.82407300  0.54892100  1
  O  O1  1  0.67592700  0.31458500  0.72484700  1
  O  O2  1  0.36016300  0.68553600  0.91003400  1
  O  O3  1  0.31458500  0.72484700  0.67592700  1
  O  O4  1  0.77515300  0.08973700  0.95107900  1
  O  O5  1  0.86134200  0.41026300  0.18541500  1
  O  O6  1  0.91003400  0.36016300  0.68553600  1
  O  O7  1  0.90395400  0.99219700  0.61287700  1
  O  O8  1  0.99219700  0.61287700  0.90395400  1
  O  O9  1  0.04987100  0.32537300  0.13983700  1
  O  O10  1  0.38055800  0.38479600  0.79004800  1
  O  O11  1  0.17462700  0.22449800  0.81446400  1
  O  O12  1  0.54892100  0.63865800  0.82407300  1
  O  O13  1  0.27550200  0.45012900  0.58996600  1
  O  O14  1  0.68553600  0.91003400  0.36016300  1
  O  O15  1  0.11520400  0.49576200  0.40525200  1
  O  O16  1  0.49576200  0.40525200  0.11520400  1
  O  O17  1  0.61287700  0.90395400  0.99219700  1
  O  O18  1  0.08824200  0.59604600  0.20892300  1
  O  O19  1  0.32537300  0.13983700  0.04987100  1
  O  O20  1  0.90949000  0.00423800  0.11944200  1
  O  O21  1  0.95107900  0.77515300  0.08973700  1
  O  O22  1  0.41175800  0.62068000  0.50780300  1
  O  O23  1  0.79004800  0.38055800  0.38479600  1
  O  O24  1  0.38479600  0.79004800  0.38055800  1
  O  O25  1  0.09474800  0.59051000  0.70995200  1
  O  O26  1  0.20892300  0.08824200  0.59604600  1
  O  O27  1  0.41026300  0.18541500  0.86134200  1
  O  O28  1  0.45012900  0.58996600  0.27550200  1
  O  O29  1  0.70995200  0.09474800  0.59051000  1
  O  O30  1  0.18541500  0.86134200  0.41026300  1
  O  O31  1  0.62068000  0.50780300  0.41175800  1
  O  O32  1  0.87932000  0.29107700  0.88712300  1
  O  O33  1  0.59604600  0.20892300  0.08824200  1
  O  O34  1  0.08973700  0.95107900  0.77515300  1
  O  O35  1  0.40525200  0.11520400  0.49576200  1
  O  O36  1  0.50780300  0.41175800  0.62068000  1
  O  O37  1  0.11944200  0.90949000  0.00423800  1
  O  O38  1  0.22449800  0.81446400  0.17462700  1
  O  O39  1  0.58996600  0.27550200  0.45012900  1
  O  O40  1  0.29107700  0.88712300  0.87932000  1
  O  O41  1  0.13983700  0.04987100  0.32537300  1
  O  O42  1  0.59051000  0.70995200  0.09474800  1
  O  O43  1  0.72484700  0.67592700  0.31458500  1
  O  O44  1  0.82407300  0.54892100  0.63865800  1
  O  O45  1  0.81446400  0.17462700  0.22449800  1
  O  O46  1  0.00423800  0.11944200  0.90949000  1
  O  O47  1  0.88712300  0.87932000  0.29107700  1
  F  F0  1  0.00000000  0.21003100  0.50000000  1
  F  F1  1  0.71004400  0.50000000  0.00000000  1
  F  F2  1  0.50000000  0.00000000  0.71004400  1
  F  F3  1  0.00000000  0.71004400  0.50000000  1
  F  F4  1  0.21003100  0.50000000  0.00000000  1
  F  F5  1  0.50000000  0.00000000  0.21003100  1
  F  F6  1  0.28996900  0.28996900  0.28996900  1
  F  F7  1  0.78995600  0.78995600  0.78995600  1
loop_
_geom_bond_atom_site_label_1
_geom_bond_atom_site_label_2
_geom_bond_distance
_geom_bond_site_symmetry_2
Li0 O47 2.012734 1_445
Li0 O7 2.012734 1_445
Li0 O26 2.012737 1_555
Li1 O40 2.012734 1_544
Li1 O17 2.012734 1_544
Li1 O33 2.012737 1_555
Li2 O32 2.012734 1_454
Li2 O8 2.012734 1_454
Li2 O18 2.012737 1_555
Li3 O42 2.026272 1_555
Li3 O10 2.026272 1_554
Li3 O16 2.026272 1_555
Li4 O29 2.026272 1_555
Li4 O35 2.026272 1_555
Li4 O24 2.026272 1_545
Li5 O46 2.026272 1_665
Li5 O20 2.026272 1_566
Li5 O37 2.026272 1_656
Li6 O36 2.012726 1_555
Li6 O22 2.012726 1_555
Li6 O31 2.012726 1_555
Li7 O25 2.026272 1_555
Li7 O23 2.026272 1_455
Li7 O15 2.026272 1_555
Ca0 F0 2.450483 1_555
Ca0 F4 2.450483 1_556
Ca0 O10 2.481432 1_555
Ca0 O25 2.481432 1_555
Ca0 O11 2.497519 1_555
Ca0 O6 2.497519 1_455
Ca0 O13 2.577889 1_555
Ca0 O2 2.577889 1_555
Ca1 F3 2.419472 1_655
Ca1 F7 2.419472 1_555
Ca1 O44 2.432873 1_555
Ca1 O34 2.432875 1_655
Ca1 O31 2.496378 1_555
Ca1 O7 2.496379 1_555
Ca1 O0 2.663046 1_555
Ca1 O43 2.663046 1_555
Ca2 F1 2.419472 1_555
Ca2 F3 2.419472 1_655
Ca2 O5 2.432873 1_555
Ca2 O43 2.432884 1_555
Ca2 O18 2.496368 1_655
Ca2 O47 2.496379 1_555
Ca2 O30 2.663046 1_655
Ca2 O21 2.663053 1_555
Ca3 F2 2.419472 1_565
Ca3 F7 2.419472 1_555
Ca3 O0 2.432873 1_555
Ca3 O4 2.432875 1_565
Ca3 O22 2.496378 1_555
Ca3 O17 2.496379 1_555
Ca3 O12 2.663046 1_555
Ca3 O3 2.663046 1_555
Ca4 F4 2.450483 1_555
Ca4 F5 2.450483 1_565
Ca4 O24 2.481432 1_555
Ca4 O42 2.481432 1_555
Ca4 O38 2.497519 1_555
Ca4 O2 2.497519 1_554
Ca4 O28 2.577889 1_555
Ca4 O14 2.577889 1_555
Ca5 F6 2.450483 1_555
Ca5 F5 2.450483 1_555
Ca5 O35 2.481432 1_555
Ca5 O37 2.481432 1_545
Ca5 O39 2.497519 1_555
Ca5 O19 2.497519 1_555
Ca5 O41 2.577889 1_555
Ca5 O38 2.577889 1_545
Ca6 F7 2.419472 1_555
Ca6 F1 2.419472 1_556
Ca6 O12 2.432873 1_555
Ca6 O21 2.432875 1_556
Ca6 O36 2.496378 1_555
Ca6 O8 2.496379 1_555
Ca6 O44 2.663046 1_555
Ca6 O1 2.663046 1_555
Ca7 F2 2.419472 1_565
Ca7 F3 2.419472 1_555
Ca7 O30 2.432873 1_555
Ca7 O3 2.432884 1_555
Ca7 O26 2.496368 1_565
Ca7 O40 2.496379 1_555
Ca7 O27 2.663046 1_565
Ca7 O34 2.663053 1_555
Ca8 F6 2.450483 1_555
Ca8 F4 2.450483 1_555
Ca8 O16 2.481432 1_555
Ca8 O46 2.481432 1_554
Ca8 O9 2.497519 1_555
Ca8 O28 2.497519 1_555
Ca8 O19 2.577889 1_555
Ca8 O11 2.577889 1_554
Ca9 F5 2.450483 1_555
Ca9 F0 2.450483 1_655
Ca9 O23 2.481432 1_555
Ca9 O29 2.481432 1_555
Ca9 O45 2.497519 1_555
Ca9 O14 2.497519 1_545
Ca9 O39 2.577889 1_555
Ca9 O6 2.577889 1_555
Ca10 F2 2.419472 1_555
Ca10 F1 2.419472 1_556
Ca10 O27 2.432873 1_555
Ca10 O1 2.432884 1_555
Ca10 O33 2.496368 1_556
Ca10 O32 2.496379 1_555
Ca10 O5 2.663046 1_556
Ca10 O4 2.663053 1_555
Ca11 F6 2.450483 1_555
Ca11 F0 2.450483 1_555
Ca11 O15 2.481432 1_555
Ca11 O20 2.481432 1_455
Ca11 O41 2.497519 1_555
Ca11 O13 2.497519 1_555
Ca11 O9 2.577889 1_555
Ca11 O45 2.577889 1_455
Be0 O22 1.624120 1_555
Be0 O28 1.638502 1_555
Be0 O24 1.640291 1_555
Be0 O0 1.668827 1_555
Be1 O32 1.624114 1_555
Be1 O6 1.638510 1_555
Be1 O29 1.640294 1_555
Be1 O1 1.668823 1_555
Be2 O7 1.624113 1_445
Be2 O11 1.638503 1_555
Be2 O46 1.640293 1_555
Be2 O34 1.668838 1_545
Be3 O8 1.624113 1_454
Be3 O38 1.638503 1_555
Be3 O37 1.640293 1_555
Be3 O21 1.668838 1_455
Be4 O36 1.624120 1_555
Be4 O13 1.638502 1_555
Be4 O10 1.640291 1_555
Be4 O12 1.668827 1_555
Be5 O33 1.624113 1_555
Be5 O19 1.638510 1_555
Be5 O16 1.640294 1_555
Be5 O27 1.668825 1_554
Be6 O31 1.624120 1_555
Be6 O39 1.638502 1_555
Be6 O23 1.640291 1_555
Be6 O44 1.668827 1_555
Be7 O18 1.624113 1_555
Be7 O9 1.638510 1_555
Be7 O15 1.640294 1_555
Be7 O5 1.668825 1_455
Be8 O40 1.624114 1_555
Be8 O2 1.638510 1_555
Be8 O25 1.640294 1_555
Be8 O3 1.668823 1_555
Be9 O17 1.624113 1_544
Be9 O45 1.638503 1_555
Be9 O20 1.640293 1_555
Be9 O4 1.668838 1_554
Be10 O47 1.624114 1_555
Be10 O14 1.638510 1_555
Be10 O42 1.640294 1_555
Be10 O43 1.668823 1_555
Be11 O26 1.624113 1_555
Be11 O41 1.638510 1_555
Be11 O35 1.640294 1_555
Be11 O30 1.668825 1_545
O0 Si7 1.639772 1_555
O1 Si4 1.639765 1_555
O2 Si6 1.651140 1_555
O3 Si11 1.639765 1_555
O4 Si1 1.639764 1_555
O5 Si10 1.639772 1_555
O6 Si0 1.651140 1_555
O7 Si7 1.638134 1_555
O8 Si0 1.638134 1_555
O9 Si1 1.651140 1_454
O10 Si5 1.641661 1_555
O11 Si5 1.651140 1_555
O12 Si6 1.639772 1_555
O13 Si11 1.651140 1_555
O14 Si7 1.651140 1_555
O15 Si11 1.641661 1_555
O16 Si3 1.641661 1_555
O17 Si6 1.638134 1_555
O18 Si8 1.638138 1_555
O19 Si9 1.651140 1_544
O20 Si2 1.641661 1_545
O21 Si2 1.639764 1_555
O22 Si11 1.638144 1_555
O23 Si10 1.641661 1_555
O24 Si8 1.641661 1_555
O25 Si0 1.641661 1_455
O26 Si5 1.638138 1_555
O27 Si5 1.639772 1_555
O28 Si3 1.651140 1_555
O29 Si7 1.641661 1_545
O30 Si8 1.639772 1_555
O31 Si3 1.638144 1_555
O32 Si1 1.638134 1_555
O33 Si10 1.638138 1_555
O34 Si9 1.639764 1_555
O35 Si4 1.641661 1_555
O36 Si4 1.638144 1_555
O37 Si9 1.641661 1_554
O38 Si8 1.651140 1_555
O39 Si4 1.651140 1_555
O40 Si9 1.638134 1_555
O41 Si2 1.651140 1_445
O42 Si6 1.641661 1_554
O43 Si3 1.639765 1_555
O44 Si0 1.639772 1_555
O45 Si10 1.651140 1_555
O46 Si1 1.641661 1_455
O47 Si2 1.638134 1_555
F0 Li0 1.920697 1_555
F1 Li3 1.882292 1_555
F2 Li4 1.882292 1_555
F3 Li7 1.882292 1_555
F4 Li2 1.920697 1_555
F5 Li1 1.920697 1_555
F6 Li6 1.920697 1_555
F7 Li5 1.882292 1_555
