# generated using pymatgen
data_Ba6Pr3I19
_symmetry_space_group_name_H-M   'P 1'
_cell_length_a   10.30750771
_cell_length_b   10.30750771
_cell_length_c   22.92704495
_cell_angle_alpha   86.21558798
_cell_angle_beta   86.21558798
_cell_angle_gamma   76.21611649
_symmetry_Int_Tables_number   1
_chemical_formula_structural   Ba6Pr3I19
_chemical_formula_sum   'Ba12 Pr6 I38'
_cell_volume   2357.38979741
_cell_formula_units_Z   2
loop_
 _symmetry_equiv_pos_site_id
 _symmetry_equiv_pos_as_xyz
  1  'x, y, z'
loop_
 _atom_site_type_symbol
 _atom_site_label
 _atom_site_symmetry_multiplicity
 _atom_site_fract_x
 _atom_site_fract_y
 _atom_site_fract_z
 _atom_site_occupancy
  Ba  Ba0  1  0.73422288  0.58778175  0.03834963  1
  Ba  Ba1  1  0.58114810  0.78336209  0.28410213  1
  Ba  Ba2  1  0.91364410  0.14693108  0.60569094  1
  Ba  Ba3  1  0.41885190  0.21663791  0.71589787  1
  Ba  Ba4  1  0.26577712  0.41221825  0.96165037  1
  Ba  Ba5  1  0.85306892  0.08635590  0.89430906  1
  Ba  Ba6  1  0.78336209  0.58114810  0.78410213  1
  Ba  Ba7  1  0.58778175  0.73422288  0.53834963  1
  Ba  Ba8  1  0.21663791  0.41885190  0.21589787  1
  Ba  Ba9  1  0.14693108  0.91364410  0.10569094  1
  Ba  Ba10  1  0.08635590  0.85306892  0.39430906  1
  Ba  Ba11  1  0.41221825  0.26577712  0.46165037  1
  Pr  Pr0  1  0.63557817  0.12632136  0.12502641  1
  Pr  Pr1  1  0.75431785  0.24568215  0.25000000  1
  Pr  Pr2  1  0.24568215  0.75431785  0.75000000  1
  Pr  Pr3  1  0.36442183  0.87367864  0.87497359  1
  Pr  Pr4  1  0.87367864  0.36442183  0.37497359  1
  Pr  Pr5  1  0.12632136  0.63557817  0.62502641  1
  I  I0  1  0.61495841  0.30101350  0.99598786  1
  I  I1  1  0.53726378  0.83959174  0.13368109  1
  I  I2  1  0.07117880  0.15367230  0.28529573  1
  I  I3  1  0.52307309  0.86395246  0.74352226  1
  I  I4  1  0.45790869  0.55521955  0.84151240  1
  I  I5  1  0.09422754  0.75547643  0.88421876  1
  I  I6  1  0.30101350  0.61495841  0.49598786  1
  I  I7  1  0.24452357  0.90577246  0.61578124  1
  I  I8  1  0.07487052  0.16056210  0.46509214  1
  I  I9  1  0.86395246  0.52307309  0.24352226  1
  I  I10  1  0.92913402  0.41769440  0.91367764  1
  I  I11  1  0.31210437  0.20170312  0.09846443  1
  I  I12  1  0.16040826  0.46273622  0.36631891  1
  I  I13  1  0.79829688  0.68789563  0.40153557  1
  I  I14  1  0.41769440  0.92913402  0.41367764  1
  I  I15  1  0.15367230  0.07117880  0.78529573  1
  I  I16  1  0.55521955  0.45790869  0.34151240  1
  I  I17  1  0.69898650  0.38504159  0.50401214  1
  I  I18  1  0.46273622  0.16040826  0.86631891  1
  I  I19  1  0.92882120  0.84632770  0.71470427  1
  I  I20  1  0.84632770  0.92882120  0.21470427  1
  I  I21  1  0.24561569  0.75438431  0.25000000  1
  I  I22  1  0.68789563  0.79829688  0.90153557  1
  I  I23  1  0.58230560  0.07086598  0.58632236  1
  I  I24  1  0.16056210  0.07487052  0.96509214  1
  I  I25  1  0.47692691  0.13604754  0.25647774  1
  I  I26  1  0.92512948  0.83943790  0.53490786  1
  I  I27  1  0.20170312  0.31210437  0.59846443  1
  I  I28  1  0.44478045  0.54209131  0.65848760  1
  I  I29  1  0.90577246  0.24452357  0.11578124  1
  I  I30  1  0.75547643  0.09422754  0.38421876  1
  I  I31  1  0.75438431  0.24561569  0.75000000  1
  I  I32  1  0.83943790  0.92512948  0.03490786  1
  I  I33  1  0.07086598  0.58230560  0.08632236  1
  I  I34  1  0.38504159  0.69898650  0.00401214  1
  I  I35  1  0.83959174  0.53726378  0.63368109  1
  I  I36  1  0.13604754  0.47692691  0.75647774  1
  I  I37  1  0.54209131  0.44478045  0.15848760  1
loop_
_geom_bond_atom_site_label_1
_geom_bond_atom_site_label_2
_geom_bond_distance
_geom_bond_site_symmetry_2
Ba0 I34 3.629988 1_555
Ba0 I1 3.645223 1_555
Ba0 I0 3.668755 1_554
Ba0 I10 3.674939 1_554
Ba0 I22 3.685252 1_554
Ba0 I33 3.695367 1_655
Ba0 I37 3.717040 1_555
Ba0 I32 3.875934 1_555
Ba0 I29 3.924373 1_555
Ba1 I1 3.500182 1_555
Ba1 I13 3.552940 1_555
Ba1 I14 3.555836 1_555
Ba1 I25 3.563084 1_565
Ba1 I9 3.578510 1_555
Ba1 I16 3.585427 1_555
Ba1 I20 3.648909 1_555
Ba1 I21 3.679918 1_555
Ba2 I8 3.537915 1_655
Ba2 I26 3.628791 1_545
Ba2 I31 3.688869 1_555
Ba2 I17 3.700220 1_555
Ba2 I7 3.721918 1_645
Ba2 I23 3.741411 1_555
Ba2 I27 3.748159 1_655
Ba2 I19 3.830161 1_545
Ba2 I35 3.999326 1_555
Ba3 I18 3.500182 1_555
Ba3 I27 3.552940 1_555
Ba3 I23 3.555836 1_555
Ba3 I3 3.563084 1_545
Ba3 I36 3.578510 1_555
Ba3 I28 3.585427 1_555
Ba3 I15 3.648909 1_555
Ba3 I31 3.679918 1_555
Ba4 I0 3.629988 1_555
Ba4 I18 3.645223 1_555
Ba4 I34 3.668755 1_556
Ba4 I33 3.674939 1_556
Ba4 I11 3.685252 1_556
Ba4 I10 3.695367 1_455
Ba4 I4 3.717040 1_555
Ba4 I24 3.875934 1_555
Ba4 I5 3.924373 1_555
Ba5 I32 3.537915 1_546
Ba5 I24 3.628791 1_655
Ba5 I31 3.688869 1_555
Ba5 I0 3.700220 1_555
Ba5 I5 3.721918 1_645
Ba5 I10 3.741411 1_555
Ba5 I22 3.748159 1_545
Ba5 I15 3.830161 1_655
Ba5 I18 3.999326 1_555
Ba6 I35 3.500182 1_555
Ba6 I22 3.552940 1_555
Ba6 I10 3.555836 1_555
Ba6 I36 3.563084 1_655
Ba6 I3 3.578510 1_555
Ba6 I4 3.585427 1_555
Ba6 I19 3.648909 1_555
Ba6 I31 3.679918 1_555
Ba7 I17 3.629988 1_555
Ba7 I35 3.645223 1_555
Ba7 I6 3.668755 1_555
Ba7 I14 3.674939 1_555
Ba7 I13 3.685252 1_555
Ba7 I23 3.695367 1_565
Ba7 I28 3.717040 1_555
Ba7 I26 3.875934 1_555
Ba7 I7 3.924373 1_555
Ba8 I12 3.500182 1_555
Ba8 I11 3.552940 1_555
Ba8 I33 3.555836 1_555
Ba8 I9 3.563084 1_455
Ba8 I25 3.578510 1_555
Ba8 I37 3.585427 1_555
Ba8 I2 3.648909 1_555
Ba8 I21 3.679918 1_555
Ba9 I24 3.537915 1_564
Ba9 I32 3.628791 1_455
Ba9 I21 3.688869 1_555
Ba9 I34 3.700220 1_555
Ba9 I29 3.721918 1_465
Ba9 I33 3.741411 1_555
Ba9 I11 3.748159 1_565
Ba9 I20 3.830161 1_455
Ba9 I1 3.999326 1_555
Ba10 I26 3.537915 1_455
Ba10 I8 3.628791 1_565
Ba10 I21 3.688869 1_555
Ba10 I6 3.700220 1_555
Ba10 I30 3.721918 1_465
Ba10 I14 3.741411 1_555
Ba10 I13 3.748159 1_455
Ba10 I2 3.830161 1_565
Ba10 I12 3.999326 1_555
Ba11 I6 3.629988 1_555
Ba11 I12 3.645223 1_555
Ba11 I17 3.668755 1_555
Ba11 I23 3.674939 1_555
Ba11 I27 3.685252 1_555
Ba11 I14 3.695367 1_545
Ba11 I16 3.717040 1_555
Ba11 I8 3.875934 1_555
Ba11 I30 3.924373 1_555
I0 Pr0 3.352233 1_556
I1 Pr0 3.335314 1_565
I2 Pr1 3.315556 1_455
I2 Pr4 3.319673 1_455
I3 Pr2 3.306907 1_555
I3 Pr3 3.328418 1_555
I4 Pr3 3.319577 1_555
I4 Pr2 3.361122 1_555
I5 Pr3 3.284914 1_555
I5 Pr2 3.356853 1_555
I6 Pr5 3.352233 1_555
I7 Pr5 3.284914 1_555
I7 Pr2 3.356853 1_555
I8 Pr4 3.301664 1_455
I9 Pr1 3.306907 1_555
I9 Pr4 3.328418 1_555
I11 Pr0 3.326049 1_555
I12 Pr4 3.335314 1_455
I13 Pr4 3.326049 1_555
I15 Pr2 3.315556 1_545
I15 Pr3 3.319673 1_545
I16 Pr4 3.319577 1_555
I16 Pr1 3.361122 1_555
I17 Pr4 3.352233 1_555
I18 Pr3 3.335314 1_545
I19 Pr2 3.315556 1_655
I19 Pr5 3.319673 1_655
I20 Pr1 3.315556 1_565
I20 Pr0 3.319673 1_565
I22 Pr3 3.326049 1_555
I24 Pr3 3.301664 1_545
I25 Pr1 3.306907 1_555
I25 Pr0 3.328418 1_555
I26 Pr5 3.301664 1_655
I27 Pr5 3.326049 1_555
I28 Pr5 3.319577 1_555
I28 Pr2 3.361122 1_555
I29 Pr0 3.284914 1_555
I29 Pr1 3.356853 1_555
I30 Pr4 3.284914 1_555
I30 Pr1 3.356853 1_555
I32 Pr0 3.301664 1_565
I34 Pr3 3.352233 1_554
I35 Pr5 3.335314 1_655
I36 Pr2 3.306907 1_555
I36 Pr5 3.328418 1_555
I37 Pr0 3.319577 1_555
I37 Pr1 3.361122 1_555
