# generated using pymatgen
data_Rb2Tb10C4Br19
_symmetry_space_group_name_H-M   'P 1'
_cell_length_a   12.72836322
_cell_length_b   14.41491071
_cell_length_c   23.23893317
_cell_angle_alpha   90.00000000
_cell_angle_beta   90.00000000
_cell_angle_gamma   90.00000000
_symmetry_Int_Tables_number   1
_chemical_formula_structural   Rb2Tb10C4Br19
_chemical_formula_sum   'Rb8 Tb40 C16 Br76'
_cell_volume   4263.83807648
_cell_formula_units_Z   4
loop_
 _symmetry_equiv_pos_site_id
 _symmetry_equiv_pos_as_xyz
  1  'x, y, z'
loop_
 _atom_site_type_symbol
 _atom_site_label
 _atom_site_symmetry_multiplicity
 _atom_site_fract_x
 _atom_site_fract_y
 _atom_site_fract_z
 _atom_site_occupancy
  Rb  Rb0  1  0.00000000  0.75000000  0.77235624  1
  Rb  Rb1  1  0.00000000  0.25000000  0.22764376  1
  Rb  Rb2  1  0.00000000  0.50000000  0.50000000  1
  Rb  Rb3  1  0.50000000  0.50000000  0.00000000  1
  Rb  Rb4  1  0.50000000  0.25000000  0.72764376  1
  Rb  Rb5  1  0.50000000  0.00000000  0.00000000  1
  Rb  Rb6  1  0.50000000  0.75000000  0.27235624  1
  Rb  Rb7  1  0.00000000  0.00000000  0.50000000  1
  Tb  Tb0  1  0.11688941  0.31295223  0.97926613  1
  Tb  Tb1  1  0.37093596  0.58494736  0.76484695  1
  Tb  Tb2  1  0.10113042  0.31261690  0.82666378  1
  Tb  Tb3  1  0.38774613  0.31716546  0.17207038  1
  Tb  Tb4  1  0.88774613  0.68283454  0.32792962  1
  Tb  Tb5  1  0.38774613  0.81716546  0.82792962  1
  Tb  Tb6  1  0.63266443  0.91547532  0.58768930  1
  Tb  Tb7  1  0.61225387  0.18283454  0.17207038  1
  Tb  Tb8  1  0.11225387  0.81716546  0.32792962  1
  Tb  Tb9  1  0.12906404  0.58494736  0.26484695  1
  Tb  Tb10  1  0.37093596  0.08494736  0.23515305  1
  Tb  Tb11  1  0.86733557  0.41547532  0.91231070  1
  Tb  Tb12  1  0.13266443  0.58452468  0.08768930  1
  Tb  Tb13  1  0.39886958  0.31261690  0.32666378  1
  Tb  Tb14  1  0.88774613  0.18283454  0.67207038  1
  Tb  Tb15  1  0.88311059  0.68704777  0.02073387  1
  Tb  Tb16  1  0.10113042  0.81261690  0.17333622  1
  Tb  Tb17  1  0.60113042  0.68738310  0.67333622  1
  Tb  Tb18  1  0.89886958  0.18738310  0.82666378  1
  Tb  Tb19  1  0.12906404  0.08494736  0.73515305  1
  Tb  Tb20  1  0.36733557  0.58452468  0.58768930  1
  Tb  Tb21  1  0.11225387  0.31716546  0.67207038  1
  Tb  Tb22  1  0.11688941  0.81295223  0.02073387  1
  Tb  Tb23  1  0.38311059  0.31295223  0.47926613  1
  Tb  Tb24  1  0.88311059  0.18704777  0.97926613  1
  Tb  Tb25  1  0.87093596  0.41505264  0.73515305  1
  Tb  Tb26  1  0.61688941  0.18704777  0.47926613  1
  Tb  Tb27  1  0.36733557  0.08452468  0.41231070  1
  Tb  Tb28  1  0.60113042  0.18738310  0.32666378  1
  Tb  Tb29  1  0.39886958  0.81261690  0.67333622  1
  Tb  Tb30  1  0.63266443  0.41547532  0.41231070  1
  Tb  Tb31  1  0.13266443  0.08452468  0.91231070  1
  Tb  Tb32  1  0.87093596  0.91505264  0.26484695  1
  Tb  Tb33  1  0.61225387  0.68283454  0.82792962  1
  Tb  Tb34  1  0.89886958  0.68738310  0.17333622  1
  Tb  Tb35  1  0.62906404  0.41505264  0.23515305  1
  Tb  Tb36  1  0.61688941  0.68704777  0.52073387  1
  Tb  Tb37  1  0.86733557  0.91547532  0.08768930  1
  Tb  Tb38  1  0.38311059  0.81295223  0.52073387  1
  Tb  Tb39  1  0.62906404  0.91505264  0.76484695  1
  C  C0  1  0.96840774  0.79080411  0.25771397  1
  C  C1  1  0.03159226  0.20919589  0.74228603  1
  C  C2  1  0.96848601  0.29118803  0.90954192  1
  C  C3  1  0.53159226  0.79080411  0.75771397  1
  C  C4  1  0.03151399  0.70881197  0.09045808  1
  C  C5  1  0.03159226  0.70919589  0.25771397  1
  C  C6  1  0.03151399  0.20881197  0.90954192  1
  C  C7  1  0.53151399  0.29118803  0.40954192  1
  C  C8  1  0.53151399  0.79118803  0.59045808  1
  C  C9  1  0.96848601  0.79118803  0.09045808  1
  C  C10  1  0.46848601  0.70881197  0.59045808  1
  C  C11  1  0.46840774  0.20919589  0.24228603  1
  C  C12  1  0.96840774  0.29080411  0.74228603  1
  C  C13  1  0.53159226  0.29080411  0.24228603  1
  C  C14  1  0.46840774  0.70919589  0.75771397  1
  C  C15  1  0.46848601  0.20881197  0.40954192  1
  Br  Br0  1  0.74196473  0.60156003  0.25122524  1
  Br  Br1  1  0.26505964  0.17059240  0.65791580  1
  Br  Br2  1  0.76495155  0.83583286  0.50658842  1
  Br  Br3  1  0.75803527  0.60156003  0.75122524  1
  Br  Br4  1  0.26673201  0.65846857  0.17515996  1
  Br  Br5  1  0.26505964  0.67059240  0.34208420  1
  Br  Br6  1  0.76505964  0.32940760  0.15791580  1
  Br  Br7  1  0.50797591  0.50461779  0.84564054  1
  Br  Br8  1  0.74741924  0.59494118  0.92622985  1
  Br  Br9  1  0.73504845  0.33583286  0.99341158  1
  Br  Br10  1  0.25280687  0.40597257  0.40468671  1
  Br  Br11  1  0.25258076  0.40505882  0.07377015  1
  Br  Br12  1  0.49202409  0.49538221  0.15435946  1
  Br  Br13  1  0.73504845  0.83583286  0.00658842  1
  Br  Br14  1  0.76673201  0.34153143  0.32484004  1
  Br  Br15  1  0.99202409  0.50461779  0.34564054  1
  Br  Br16  1  0.75803527  0.10156003  0.24877476  1
  Br  Br17  1  0.49202409  0.99538221  0.84564054  1
  Br  Br18  1  0.50797591  0.00461779  0.15435946  1
  Br  Br19  1  0.73326799  0.84153143  0.17515996  1
  Br  Br20  1  0.23504845  0.66416714  0.50658842  1
  Br  Br21  1  0.00000000  0.75000000  0.92563577  1
  Br  Br22  1  0.75280687  0.59402743  0.09531329  1
  Br  Br23  1  0.23494036  0.67059240  0.84208420  1
  Br  Br24  1  0.00797591  0.99538221  0.34564054  1
  Br  Br25  1  0.50000000  0.25000000  0.57436423  1
  Br  Br26  1  0.25803527  0.89843997  0.25122524  1
  Br  Br27  1  0.75280687  0.09402743  0.90468671  1
  Br  Br28  1  0.74719313  0.59402743  0.59531329  1
  Br  Br29  1  0.00000000  0.25000000  0.07436423  1
  Br  Br30  1  0.50354060  0.50416554  0.32550536  1
  Br  Br31  1  0.73494036  0.32940760  0.65791580  1
  Br  Br32  1  0.00000000  0.75000000  0.42381415  1
  Br  Br33  1  0.26673201  0.15846857  0.82484004  1
  Br  Br34  1  0.99202409  0.00461779  0.65435946  1
  Br  Br35  1  0.74196473  0.10156003  0.74877476  1
  Br  Br36  1  0.24719313  0.40597257  0.90468671  1
  Br  Br37  1  0.50000000  0.50000000  0.50000000  1
  Br  Br38  1  0.24196473  0.89843997  0.75122524  1
  Br  Br39  1  0.23494036  0.17059240  0.15791580  1
  Br  Br40  1  0.49645940  0.49583446  0.67449464  1
  Br  Br41  1  0.24741924  0.40505882  0.57377015  1
  Br  Br42  1  0.76673201  0.84153143  0.67515996  1
  Br  Br43  1  0.75258076  0.09494118  0.57377015  1
  Br  Br44  1  0.76505964  0.82940760  0.84208420  1
  Br  Br45  1  0.00354060  0.49583446  0.17449464  1
  Br  Br46  1  0.25258076  0.90505882  0.92622985  1
  Br  Br47  1  0.23326799  0.65846857  0.67515996  1
  Br  Br48  1  0.24719313  0.90597257  0.09531329  1
  Br  Br49  1  0.23504845  0.16416714  0.49341158  1
  Br  Br50  1  0.50000000  0.25000000  0.07618585  1
  Br  Br51  1  0.00000000  0.25000000  0.57618585  1
  Br  Br52  1  0.99645940  0.50416554  0.82550536  1
  Br  Br53  1  0.25803527  0.39843997  0.74877476  1
  Br  Br54  1  0.75258076  0.59494118  0.42622985  1
  Br  Br55  1  0.00000000  0.50000000  0.00000000  1
  Br  Br56  1  0.50000000  0.75000000  0.42563577  1
  Br  Br57  1  0.00000000  0.00000000  0.00000000  1
  Br  Br58  1  0.50354060  0.00416554  0.67449464  1
  Br  Br59  1  0.24741924  0.90505882  0.42622985  1
  Br  Br60  1  0.49645940  0.99583446  0.32550536  1
  Br  Br61  1  0.26495155  0.66416714  0.00658842  1
  Br  Br62  1  0.74719313  0.09402743  0.40468671  1
  Br  Br63  1  0.74741924  0.09494118  0.07377015  1
  Br  Br64  1  0.50000000  0.75000000  0.92381415  1
  Br  Br65  1  0.73326799  0.34153143  0.82484004  1
  Br  Br66  1  0.25280687  0.90597257  0.59531329  1
  Br  Br67  1  0.00797591  0.49538221  0.65435946  1
  Br  Br68  1  0.24196473  0.39843997  0.24877476  1
  Br  Br69  1  0.50000000  0.00000000  0.50000000  1
  Br  Br70  1  0.99645940  0.00416554  0.17449464  1
  Br  Br71  1  0.73494036  0.82940760  0.34208420  1
  Br  Br72  1  0.26495155  0.16416714  0.99341158  1
  Br  Br73  1  0.76495155  0.33583286  0.49341158  1
  Br  Br74  1  0.23326799  0.15846857  0.32484004  1
  Br  Br75  1  0.00354060  0.99583446  0.82550536  1
loop_
_geom_bond_atom_site_label_1
_geom_bond_atom_site_label_2
_geom_bond_distance
_geom_bond_site_symmetry_2
C0 C5 1.425010 1_655
C0 Tb32 2.185063 1_555
C0 Tb4 2.477691 1_555
C0 Tb8 2.481784 1_655
C0 Tb16 2.607235 1_655
C0 Tb34 2.617411 1_555
C1 C12 1.425010 1_455
C1 Tb19 2.185063 1_555
C1 Tb21 2.477691 1_555
C1 Tb14 2.481784 1_455
C1 Tb18 2.607235 1_455
C1 Tb2 2.617411 1_555
C2 C6 1.433044 1_655
C2 Tb11 2.207156 1_555
C2 Tb24 2.461674 1_555
C2 Tb0 2.508369 1_655
C2 Tb2 2.579807 1_655
C2 Tb18 2.594934 1_555
C3 Tb39 2.185063 1_555
C3 Tb33 2.477691 1_555
C3 Tb5 2.481784 1_555
C3 Tb29 2.607235 1_555
C3 Tb17 2.617411 1_555
C4 C9 1.433044 1_455
C4 Tb12 2.207156 1_555
C4 Tb22 2.461674 1_555
C4 Tb15 2.508369 1_455
C4 Tb34 2.579807 1_455
C4 Tb16 2.594934 1_555
C5 Tb9 2.185063 1_555
C5 Tb8 2.477691 1_555
C5 Tb4 2.481784 1_455
C5 Tb34 2.607235 1_455
C5 Tb16 2.617411 1_555
C6 Tb31 2.207156 1_555
C6 Tb0 2.461674 1_555
C6 Tb24 2.508369 1_455
C6 Tb18 2.579807 1_455
C6 Tb2 2.594934 1_555
C7 Tb30 2.207156 1_555
C7 Tb26 2.461674 1_555
C7 Tb23 2.508369 1_555
C7 Tb13 2.579807 1_555
C7 Tb28 2.594934 1_555
C8 Tb6 2.207156 1_555
C8 Tb36 2.461674 1_555
C8 Tb38 2.508369 1_555
C8 Tb29 2.579807 1_555
C8 Tb17 2.594934 1_555
C9 Tb37 2.207156 1_555
C9 Tb15 2.461674 1_555
C9 Tb22 2.508369 1_655
C9 Tb16 2.579807 1_655
C9 Tb34 2.594934 1_555
C10 C8 1.433044 1_555
C10 Tb20 2.207156 1_555
C10 Tb38 2.461674 1_555
C10 Tb36 2.508369 1_555
C10 Tb17 2.579807 1_555
C10 Tb29 2.594934 1_555
C11 C13 1.425010 1_555
C11 Tb10 2.185063 1_555
C11 Tb3 2.477691 1_555
C11 Tb7 2.481784 1_555
C11 Tb28 2.607235 1_555
C11 Tb13 2.617411 1_555
C12 Tb25 2.185063 1_555
C12 Tb14 2.477691 1_555
C12 Tb21 2.481784 1_655
C12 Tb2 2.607235 1_655
C12 Tb18 2.617411 1_555
C13 Tb35 2.185063 1_555
C13 Tb7 2.477691 1_555
C13 Tb3 2.481784 1_555
C13 Tb13 2.607235 1_555
C13 Tb28 2.617411 1_555
C14 C3 1.425010 1_555
C14 Tb1 2.185063 1_555
C14 Tb5 2.477691 1_555
C14 Tb33 2.481784 1_555
C14 Tb17 2.607235 1_555
C14 Tb29 2.617411 1_555
C15 C7 1.433044 1_555
C15 Tb27 2.207156 1_555
C15 Tb23 2.461674 1_555
C15 Tb26 2.508369 1_555
C15 Tb28 2.579807 1_555
C15 Tb13 2.594934 1_555
Br0 Tb4 2.827201 1_555
Br0 Tb34 2.965701 1_555
Br0 Tb35 3.071246 1_555
Br0 Rb6 3.782186 1_555
Br1 Tb19 2.782485 1_555
Br1 Tb21 2.890533 1_555
Br1 Rb4 3.588658 1_555
Br2 Tb6 2.775834 1_555
Br2 Tb36 2.873948 1_555
Br2 Rb7 3.817631 1_665
Br3 Tb33 2.827201 1_555
Br3 Tb17 2.965701 1_555
Br3 Tb25 3.071246 1_555
Br3 Rb0 3.782186 1_655
Br4 Tb12 2.860089 1_555
Br4 Tb9 2.921936 1_555
Br4 Tb16 3.063039 1_555
Br4 Rb6 3.957074 1_555
Br5 Tb9 2.782485 1_555
Br5 Tb8 2.890533 1_555
Br5 Rb6 3.588658 1_555
Br6 Tb35 2.782485 1_555
Br6 Tb7 2.890533 1_555
Br6 Rb1 3.588658 1_655
Br7 Tb1 2.812226 1_555
Br7 Tb33 2.920744 1_555
Br7 Rb3 3.589203 1_556
Br8 Tb11 3.021064 1_555
Br8 Tb15 3.093373 1_556
Br8 Tb33 3.127869 1_555
Br8 Rb3 3.837925 1_556
Br9 Tb11 2.775834 1_555
Br9 Tb24 2.873948 1_555
Br9 Rb3 3.817631 1_556
Br10 Tb23 2.748191 1_555
Br10 Tb13 2.924881 1_555
Br10 Rb2 4.134923 1_555
Br11 Tb12 3.021064 1_555
Br11 Tb0 3.093373 1_554
Br11 Tb3 3.127869 1_555
Br11 Rb3 3.837925 1_555
Br12 Tb35 2.812226 1_555
Br12 Tb3 2.920744 1_555
Br12 Rb3 3.589203 1_555
Br13 Tb37 2.775834 1_555
Br13 Tb15 2.873948 1_555
Br13 Rb5 3.817631 1_565
Br14 Tb30 2.860089 1_555
Br14 Tb35 2.921936 1_555
Br14 Tb28 3.063039 1_555
Br14 Rb1 3.957074 1_655
Br15 Tb9 2.812226 1_655
Br15 Tb4 2.920744 1_555
Br15 Rb2 3.589203 1_655
Br16 Tb7 2.827201 1_555
Br16 Tb28 2.965701 1_555
Br16 Tb32 3.071246 1_545
Br16 Rb1 3.782186 1_655
Br17 Tb39 2.812226 1_555
Br17 Tb5 2.920744 1_555
Br17 Rb5 3.589203 1_566
Br18 Tb10 2.812226 1_555
Br18 Tb7 2.920744 1_555
Br18 Rb5 3.589203 1_555
Br19 Tb37 2.860089 1_555
Br19 Tb32 2.921936 1_555
Br19 Tb34 3.063039 1_555
Br19 Rb6 3.957074 1_555
Br20 Tb20 2.775834 1_555
Br20 Tb38 2.873948 1_555
Br20 Rb2 3.817631 1_555
Br21 Tb15 2.814436 1_456
Br21 Tb22 2.814436 1_556
Br21 Rb0 3.562053 1_555
Br22 Tb15 2.748191 1_555
Br22 Tb34 2.924881 1_555
Br22 Rb3 4.134923 1_555
Br23 Tb1 2.782485 1_555
Br23 Tb5 2.890533 1_555
Br23 Rb0 3.588658 1_555
Br24 Tb32 2.812226 1_455
Br24 Tb8 2.920744 1_555
Br24 Rb7 3.589203 1_565
Br25 Tb23 2.814436 1_555
Br25 Tb26 2.814436 1_555
Br25 Rb4 3.562053 1_555
Br26 Tb8 2.827201 1_555
Br26 Tb16 2.965701 1_555
Br26 Tb10 3.071246 1_565
Br26 Rb6 3.782186 1_555
Br27 Tb24 2.748191 1_555
Br27 Tb18 2.924881 1_555
Br27 Rb5 4.134923 1_556
Br28 Tb36 2.748191 1_555
Br28 Tb17 2.924881 1_555
Br28 Rb2 4.134923 1_655
Br29 Tb24 2.814436 1_454
Br29 Tb0 2.814436 1_554
Br29 Rb1 3.562053 1_555
Br30 Tb30 2.899142 1_555
Br30 Tb35 2.934528 1_555
Br30 Tb13 3.065894 1_555
Br30 Rb6 3.753033 1_555
Br31 Tb25 2.782485 1_555
Br31 Tb14 2.890533 1_555
Br31 Rb4 3.588658 1_555
Br32 Tb4 2.818508 1_455
Br32 Tb8 2.818508 1_555
Br32 Rb7 4.015152 1_565
Br32 Rb2 4.015152 1_555
Br33 Tb31 2.860089 1_555
Br33 Tb19 2.921936 1_555
Br33 Tb2 3.063039 1_555
Br33 Rb4 3.957074 1_555
Br34 Tb19 2.812226 1_655
Br34 Tb14 2.920744 1_555
Br34 Rb7 3.589203 1_655
Br35 Tb14 2.827201 1_555
Br35 Tb18 2.965701 1_555
Br35 Tb39 3.071246 1_545
Br35 Rb4 3.782186 1_555
Br36 Tb0 2.748191 1_555
Br36 Tb2 2.924881 1_555
Br36 Rb3 4.134923 1_556
Br37 Tb20 2.913514 1_555
Br37 Tb30 2.913514 1_555
Br37 Tb23 3.116994 1_555
Br37 Tb36 3.116994 1_555
Br38 Tb5 2.827201 1_555
Br38 Tb29 2.965701 1_555
Br38 Tb19 3.071246 1_565
Br38 Rb0 3.782186 1_555
Br39 Tb10 2.782485 1_555
Br39 Tb3 2.890533 1_555
Br39 Rb1 3.588658 1_555
Br40 Tb20 2.899142 1_555
Br40 Tb1 2.934528 1_555
Br40 Tb17 3.065894 1_555
Br40 Rb4 3.753033 1_555
Br41 Tb20 3.021064 1_555
Br41 Tb23 3.093373 1_555
Br41 Tb21 3.127869 1_555
Br41 Rb2 3.837925 1_555
Br42 Tb6 2.860089 1_555
Br42 Tb39 2.921936 1_555
Br42 Tb17 3.063039 1_555
Br42 Rb0 3.957074 1_655
Br43 Tb6 3.021064 1_545
Br43 Tb26 3.093373 1_555
Br43 Tb14 3.127869 1_555
Br43 Rb7 3.837925 1_655
Br44 Tb39 2.782485 1_555
Br44 Tb33 2.890533 1_555
Br44 Rb0 3.588658 1_655
Br45 Tb12 2.899142 1_555
Br45 Tb9 2.934528 1_555
Br45 Tb34 3.065894 1_455
Br45 Rb1 3.753033 1_555
Br46 Tb31 3.021064 1_565
Br46 Tb22 3.093373 1_556
Br46 Tb5 3.127869 1_555
Br46 Rb5 3.837925 1_566
Br47 Tb20 2.860089 1_555
Br47 Tb1 2.921936 1_555
Br47 Tb29 3.063039 1_555
Br47 Rb0 3.957074 1_555
Br48 Tb22 2.748191 1_555
Br48 Tb16 2.924881 1_555
Br48 Rb5 4.134923 1_565
Br49 Tb27 2.775834 1_555
Br49 Tb23 2.873948 1_555
Br49 Rb7 3.817631 1_555
Br50 Tb3 2.818508 1_555
Br50 Tb7 2.818508 1_555
Br50 Rb3 4.015152 1_555
Br50 Rb5 4.015152 1_555
Br51 Tb14 2.818508 1_455
Br51 Tb21 2.818508 1_555
Br51 Rb7 4.015152 1_555
Br51 Rb2 4.015152 1_555
Br52 Tb11 2.899142 1_555
Br52 Tb25 2.934528 1_555
Br52 Tb2 3.065894 1_655
Br52 Rb0 3.753033 1_655
Br53 Tb21 2.827201 1_555
Br53 Tb2 2.965701 1_555
Br53 Tb1 3.071246 1_555
Br53 Rb4 3.782186 1_555
Br54 Tb30 3.021064 1_555
Br54 Tb36 3.093373 1_555
Br54 Tb4 3.127869 1_555
Br54 Rb2 3.837925 1_655
Br55 Tb12 2.913514 1_555
Br55 Tb11 2.913514 1_454
Br55 Tb0 3.116994 1_554
Br55 Tb15 3.116994 1_455
Br56 Tb36 2.814436 1_555
Br56 Tb38 2.814436 1_555
Br56 Rb6 3.562053 1_555
Br57 Tb37 2.913514 1_445
Br57 Tb31 2.913514 1_554
Br57 Tb22 3.116994 1_545
Br57 Tb24 3.116994 1_454
Br58 Tb6 2.899142 1_545
Br58 Tb39 2.934528 1_545
Br58 Tb29 3.065894 1_545
Br58 Rb4 3.753033 1_555
Br59 Tb27 3.021064 1_565
Br59 Tb38 3.093373 1_555
Br59 Tb8 3.127869 1_555
Br59 Rb7 3.837925 1_565
Br60 Tb27 2.899142 1_565
Br60 Tb10 2.934528 1_565
Br60 Tb28 3.065894 1_565
Br60 Rb6 3.753033 1_555
Br61 Tb12 2.775834 1_555
Br61 Tb22 2.873948 1_555
Br61 Rb3 3.817631 1_555
Br62 Tb26 2.748191 1_555
Br62 Tb28 2.924881 1_555
Br62 Rb7 4.134923 1_655
Br63 Tb37 3.021064 1_545
Br63 Tb24 3.093373 1_554
Br63 Tb7 3.127869 1_555
Br63 Rb5 3.837925 1_555
Br64 Tb33 2.818508 1_555
Br64 Tb5 2.818508 1_555
Br64 Rb3 4.015152 1_556
Br64 Rb5 4.015152 1_566
Br65 Tb11 2.860089 1_555
Br65 Tb25 2.921936 1_555
Br65 Tb18 3.063039 1_555
Br65 Rb4 3.957074 1_555
Br66 Tb38 2.748191 1_555
Br66 Tb29 2.924881 1_555
Br66 Rb7 4.134923 1_565
Br67 Tb25 2.812226 1_455
Br67 Tb21 2.920744 1_555
Br67 Rb2 3.589203 1_555
Br68 Tb3 2.827201 1_555
Br68 Tb13 2.965701 1_555
Br68 Tb9 3.071246 1_555
Br68 Rb1 3.782186 1_555
Br69 Tb6 2.913514 1_545
Br69 Tb27 2.913514 1_555
Br69 Tb38 3.116994 1_545
Br69 Tb26 3.116994 1_555
Br70 Tb37 2.899142 1_545
Br70 Tb32 2.934528 1_545
Br70 Tb16 3.065894 1_645
Br70 Rb1 3.753033 1_655
Br71 Tb32 2.782485 1_555
Br71 Tb4 2.890533 1_555
Br71 Rb6 3.588658 1_555
Br72 Tb31 2.775834 1_555
Br72 Tb0 2.873948 1_555
Br72 Rb5 3.817631 1_556
Br73 Tb30 2.775834 1_555
Br73 Tb26 2.873948 1_555
Br73 Rb2 3.817631 1_655
Br74 Tb27 2.860089 1_555
Br74 Tb10 2.921936 1_555
Br74 Tb13 3.063039 1_555
Br74 Rb1 3.957074 1_555
Br75 Tb31 2.899142 1_565
Br75 Tb19 2.934528 1_565
Br75 Tb18 3.065894 1_465
Br75 Rb0 3.753033 1_555
