# generated using pymatgen
data_Ho4NiB14
_symmetry_space_group_name_H-M   'P 1'
_cell_length_a   7.19955821
_cell_length_b   7.19955821
_cell_length_c   7.44400809
_cell_angle_alpha   90.00000000
_cell_angle_beta   90.00000000
_cell_angle_gamma   90.00000000
_symmetry_Int_Tables_number   1
_chemical_formula_structural   Ho4NiB14
_chemical_formula_sum   'Ho8 Ni2 B28'
_cell_volume   385.85002373
_cell_formula_units_Z   2
loop_
 _symmetry_equiv_pos_site_id
 _symmetry_equiv_pos_as_xyz
  1  'x, y, z'
loop_
 _atom_site_type_symbol
 _atom_site_label
 _atom_site_symmetry_multiplicity
 _atom_site_fract_x
 _atom_site_fract_y
 _atom_site_fract_z
 _atom_site_occupancy
  Ho  Ho0  1  0.19370387  0.33116612  0.00000000  1
  Ho  Ho1  1  0.66883388  0.19370387  0.00000000  1
  Ho  Ho2  1  0.33116612  0.80629613  0.00000000  1
  Ho  Ho3  1  0.69370387  0.16883388  0.50000000  1
  Ho  Ho4  1  0.30629613  0.83116612  0.50000000  1
  Ho  Ho5  1  0.80629613  0.66883388  0.00000000  1
  Ho  Ho6  1  0.83116612  0.69370387  0.50000000  1
  Ho  Ho7  1  0.16883388  0.30629613  0.50000000  1
  Ni  Ni0  1  0.00000000  -0.00000000  0.00000000  1
  Ni  Ni1  1  0.50000000  0.50000000  0.50000000  1
  B  B0  1  0.17442308  0.03901516  0.23143736  1
  B  B1  1  0.96098484  0.17442308  0.23143736  1
  B  B2  1  0.03901516  0.82557692  0.23143736  1
  B  B3  1  0.67442308  0.46098484  0.26856264  1
  B  B4  1  0.32557692  0.53901516  0.26856264  1
  B  B5  1  0.82557692  0.96098484  0.23143736  1
  B  B6  1  0.53901516  0.67442308  0.26856264  1
  B  B7  1  0.46098484  0.32557692  0.26856264  1
  B  B8  1  0.82557692  0.96098484  0.76856264  1
  B  B9  1  0.03901516  0.82557692  0.76856264  1
  B  B10  1  0.96098484  0.17442308  0.76856264  1
  B  B11  1  0.32557692  0.53901516  0.73143736  1
  B  B12  1  0.67442308  0.46098484  0.73143736  1
  B  B13  1  0.17442308  0.03901516  0.76856264  1
  B  B14  1  0.46098484  0.32557692  0.73143736  1
  B  B15  1  0.53901516  0.67442308  0.73143736  1
  B  B16  1  0.08934335  0.58934335  0.25000000  1
  B  B17  1  0.41065665  0.08934335  0.25000000  1
  B  B18  1  0.58934335  0.91065665  0.25000000  1
  B  B19  1  0.91065665  0.41065665  0.25000000  1
  B  B20  1  0.91065665  0.41065665  0.75000000  1
  B  B21  1  0.58934335  0.91065665  0.75000000  1
  B  B22  1  0.41065665  0.08934335  0.75000000  1
  B  B23  1  0.08934335  0.58934335  0.75000000  1
  B  B24  1  0.00000000  -0.00000000  0.38877870  1
  B  B25  1  0.50000000  0.50000000  0.11122130  1
  B  B26  1  0.00000000  -0.00000000  0.61122130  1
  B  B27  1  0.50000000  0.50000000  0.88877870  1
loop_
_geom_bond_atom_site_label_1
_geom_bond_atom_site_label_2
_geom_bond_distance
_geom_bond_site_symmetry_2
Ho0 Ni0 2.762156 1_555
Ho1 Ni0 2.762156 1_655
Ho2 Ni0 2.762156 1_565
Ho3 Ni1 2.762156 1_555
Ho4 Ni1 2.762156 1_555
Ho5 Ni0 2.762156 1_665
Ho6 Ni1 2.762156 1_555
Ho7 Ni1 2.762156 1_555
B0 B24 1.740024 1_555
B0 B17 1.744428 1_555
B0 B2 1.819811 1_545
B0 B1 1.819811 1_455
B0 Ni0 2.150342 1_555
B0 Ho2 2.654957 1_545
B0 Ho4 2.671595 1_545
B0 Ho0 2.722407 1_555
B0 Ho7 2.775121 1_555
B1 B24 1.740024 1_655
B1 B19 1.744428 1_555
B1 B5 1.819811 1_545
B1 Ni0 2.150342 1_655
B1 Ho0 2.654957 1_655
B1 Ho7 2.671595 1_655
B1 Ho1 2.722407 1_555
B1 Ho3 2.775121 1_555
B2 B24 1.740024 1_565
B2 B5 1.819811 1_455
B2 Ni0 2.150342 1_565
B2 Ho5 2.654957 1_455
B2 Ho6 2.671595 1_455
B2 Ho2 2.722407 1_555
B2 Ho4 2.775121 1_555
B3 B6 1.819811 1_555
B3 B7 1.819811 1_555
B3 Ni1 2.150342 1_555
B3 Ho6 2.654957 1_555
B3 Ho5 2.671595 1_555
B3 Ho3 2.722407 1_555
B3 Ho1 2.775121 1_555
B4 B6 1.819811 1_555
B4 B7 1.819811 1_555
B4 Ni1 2.150342 1_555
B4 Ho7 2.654957 1_555
B4 Ho0 2.671595 1_555
B4 Ho4 2.722407 1_555
B4 Ho2 2.775121 1_555
B5 Ni0 2.150342 1_665
B5 Ho1 2.654957 1_565
B5 Ho3 2.671595 1_565
B5 Ho5 2.722407 1_555
B5 Ho6 2.775121 1_555
B6 Ni1 2.150342 1_555
B6 Ho4 2.654957 1_555
B6 Ho2 2.671595 1_555
B6 Ho6 2.722407 1_555
B6 Ho5 2.775121 1_555
B7 Ni1 2.150342 1_555
B7 Ho3 2.654957 1_555
B7 Ho1 2.671595 1_555
B7 Ho7 2.722407 1_555
B7 Ho0 2.775121 1_555
B8 B9 1.819811 1_655
B8 Ni0 2.150342 1_666
B8 Ho1 2.654957 1_566
B8 Ho3 2.671595 1_565
B8 Ho5 2.722407 1_556
B8 Ho6 2.775121 1_555
B9 Ni0 2.150342 1_566
B9 Ho5 2.654957 1_456
B9 Ho6 2.671595 1_455
B9 Ho2 2.722407 1_556
B9 Ho4 2.775121 1_555
B10 B26 1.740024 1_655
B10 B20 1.744428 1_555
B10 B8 1.819811 1_545
B10 B13 1.819811 1_655
B10 Ni0 2.150342 1_656
B10 Ho0 2.654957 1_656
B10 Ho7 2.671595 1_655
B10 Ho1 2.722407 1_556
B10 Ho3 2.775121 1_555
B11 B27 1.740024 1_555
B11 B23 1.744428 1_555
B11 B15 1.819811 1_555
B11 B14 1.819811 1_555
B11 Ni1 2.150342 1_555
B11 Ho7 2.654957 1_555
B11 Ho0 2.671595 1_556
B11 Ho4 2.722407 1_555
B11 Ho2 2.775121 1_556
B12 B27 1.740024 1_555
B12 B20 1.744428 1_555
B12 B15 1.819811 1_555
B12 B14 1.819811 1_555
B12 Ni1 2.150342 1_555
B12 Ho6 2.654957 1_555
B12 Ho5 2.671595 1_556
B12 Ho3 2.722407 1_555
B12 Ho1 2.775121 1_556
B13 B26 1.740024 1_555
B13 B22 1.744428 1_555
B13 B9 1.819811 1_545
B13 Ni0 2.150342 1_556
B13 Ho2 2.654957 1_546
B13 Ho4 2.671595 1_545
B13 Ho0 2.722407 1_556
B13 Ho7 2.775121 1_555
B14 B27 1.740024 1_555
B14 B22 1.744428 1_555
B14 Ni1 2.150342 1_555
B14 Ho3 2.654957 1_555
B14 Ho1 2.671595 1_556
B14 Ho7 2.722407 1_555
B14 Ho0 2.775121 1_556
B15 B27 1.740024 1_555
B15 B21 1.744428 1_555
B15 Ni1 2.150342 1_555
B15 Ho4 2.654957 1_555
B15 Ho2 2.671595 1_556
B15 Ho6 2.722407 1_555
B15 Ho5 2.775121 1_556
B16 B2 1.744428 1_555
B16 B4 1.744428 1_555
B16 B19 1.819337 1_455
B16 Ho6 2.735480 1_455
B16 Ho0 2.735480 1_555
B16 Ho5 2.818429 1_455
B16 Ho7 2.818429 1_555
B16 Ho2 2.989013 1_555
B16 Ho4 2.989013 1_555
B17 B7 1.744428 1_555
B17 B18 1.819337 1_545
B17 Ho1 2.735480 1_555
B17 Ho4 2.735480 1_545
B17 Ho2 2.818429 1_545
B17 Ho3 2.818429 1_555
B17 Ho0 2.989013 1_555
B17 Ho7 2.989013 1_555
B18 B6 1.744428 1_555
B18 B5 1.744428 1_555
B18 Ho2 2.735480 1_555
B18 Ho3 2.735480 1_565
B18 Ho1 2.818429 1_565
B18 Ho4 2.818429 1_555
B18 Ho5 2.989013 1_555
B18 Ho6 2.989013 1_555
B19 B3 1.744428 1_555
B19 Ho5 2.735480 1_555
B19 Ho7 2.735480 1_655
B19 Ho6 2.818429 1_555
B19 Ho0 2.818429 1_655
B19 Ho1 2.989013 1_555
B19 Ho3 2.989013 1_555
B20 B23 1.819337 1_655
B20 Ho7 2.735480 1_655
B20 Ho5 2.735480 1_556
B20 Ho6 2.818429 1_555
B20 Ho0 2.818429 1_656
B20 Ho1 2.989013 1_556
B20 Ho3 2.989013 1_555
B21 B8 1.744428 1_555
B21 B22 1.819337 1_565
B21 Ho3 2.735480 1_565
B21 Ho2 2.735480 1_556
B21 Ho4 2.818429 1_555
B21 Ho1 2.818429 1_566
B21 Ho5 2.989013 1_556
B21 Ho6 2.989013 1_555
B22 Ho1 2.735480 1_556
B22 Ho4 2.735480 1_545
B22 Ho3 2.818429 1_555
B22 Ho2 2.818429 1_546
B22 Ho7 2.989013 1_555
B22 Ho0 2.989013 1_556
B23 B9 1.744428 1_555
B23 Ho6 2.735480 1_455
B23 Ho0 2.735480 1_556
B23 Ho5 2.818429 1_456
B23 Ho7 2.818429 1_555
B23 Ho4 2.989013 1_555
B23 Ho2 2.989013 1_556
B24 B26 1.655865 1_555
B24 B5 1.740024 1_445
B24 Ho7 2.650637 1_555
B24 Ho6 2.650637 1_445
B24 Ho4 2.650637 1_545
B24 Ho3 2.650637 1_455
B25 B27 1.655865 1_554
B25 B6 1.740024 1_555
B25 B3 1.740024 1_555
B25 B4 1.740024 1_555
B25 B7 1.740024 1_555
B25 Ho0 2.650637 1_555
B25 Ho2 2.650637 1_555
B25 Ho1 2.650637 1_555
B25 Ho5 2.650637 1_555
B26 B8 1.740024 1_445
B26 B9 1.740024 1_545
B26 Ho6 2.650637 1_445
B26 Ho3 2.650637 1_455
B26 Ho4 2.650637 1_545
B26 Ho7 2.650637 1_555
B27 Ho0 2.650637 1_556
B27 Ho5 2.650637 1_556
B27 Ho2 2.650637 1_556
B27 Ho1 2.650637 1_556
