# generated using pymatgen
data_K3Al2(PO4)3
_symmetry_space_group_name_H-M   'P 1'
_cell_length_a   8.57997400
_cell_length_b   8.81422800
_cell_length_c   17.13913100
_cell_angle_alpha   90.00000000
_cell_angle_beta   90.00000000
_cell_angle_gamma   90.00000000
_symmetry_Int_Tables_number   1
_chemical_formula_structural   K3Al2(PO4)3
_chemical_formula_sum   'K12 Al8 P12 O48'
_cell_volume   1296.16129992
_cell_formula_units_Z   4
loop_
 _symmetry_equiv_pos_site_id
 _symmetry_equiv_pos_as_xyz
  1  'x, y, z'
loop_
 _atom_site_type_symbol
 _atom_site_label
 _atom_site_symmetry_multiplicity
 _atom_site_fract_x
 _atom_site_fract_y
 _atom_site_fract_z
 _atom_site_occupancy
  K  K0  1  0.10797900  0.51311200  0.40001600  1
  K  K1  1  0.33011000  0.82684100  0.50874400  1
  K  K2  1  0.13175600  0.04341900  0.85895300  1
  K  K3  1  0.33011000  0.32684100  0.99125600  1
  K  K4  1  0.83011000  0.67315900  0.00874400  1
  K  K5  1  0.63175600  0.45658100  0.35895300  1
  K  K6  1  0.60797900  0.48688800  0.59998400  1
  K  K7  1  0.63175600  0.95658100  0.14104700  1
  K  K8  1  0.13175600  0.54341900  0.64104700  1
  K  K9  1  0.10797900  0.01311200  0.09998400  1
  K  K10  1  0.83011000  0.17315900  0.49125600  1
  K  K11  1  0.60797900  0.98688800  0.90001600  1
  Al  Al0  1  0.28971500  0.63186000  0.16854400  1
  Al  Al1  1  0.29987600  0.64896000  0.83892800  1
  Al  Al2  1  0.28971500  0.13186000  0.33145600  1
  Al  Al3  1  0.79987600  0.85104000  0.33892800  1
  Al  Al4  1  0.78971500  0.36814000  0.83145600  1
  Al  Al5  1  0.79987600  0.35104000  0.16107200  1
  Al  Al6  1  0.78971500  0.86814000  0.66854400  1
  Al  Al7  1  0.29987600  0.14896000  0.66107200  1
  P  P0  1  0.36323500  0.26113500  0.49749100  1
  P  P1  1  0.43476600  0.29646400  0.18810400  1
  P  P2  1  0.94189500  0.66006900  0.21276600  1
  P  P3  1  0.93476600  0.20353600  0.68810400  1
  P  P4  1  0.44189500  0.33993100  0.78723400  1
  P  P5  1  0.93476600  0.70353600  0.81189600  1
  P  P6  1  0.94189500  0.16006900  0.28723400  1
  P  P7  1  0.36323500  0.76113500  0.00250900  1
  P  P8  1  0.43476600  0.79646400  0.31189600  1
  P  P9  1  0.86323500  0.73886500  0.50250900  1
  P  P10  1  0.86323500  0.23886500  0.99749100  1
  P  P11  1  0.44189500  0.83993100  0.71276600  1
  O  O0  1  0.53596100  0.26348500  0.47705500  1
  O  O1  1  0.39789300  0.96313600  0.33592600  1
  O  O2  1  0.10591500  0.58443400  0.20672900  1
  O  O3  1  0.29794600  0.41079600  0.52754100  1
  O  O4  1  0.03596100  0.23651500  0.97705500  1
  O  O5  1  0.60591500  0.91556600  0.70672900  1
  O  O6  1  0.83069600  0.36983500  0.06040200  1
  O  O7  1  0.91390800  0.28424100  0.34634300  1
  O  O8  1  0.79794600  0.58920400  0.47245900  1
  O  O9  1  0.29794600  0.91079600  0.97245900  1
  O  O10  1  0.61616700  0.78330200  0.30964900  1
  O  O11  1  0.39789300  0.46313600  0.16407400  1
  O  O12  1  0.36618600  0.68163700  0.36722200  1
  O  O13  1  0.61616700  0.28330200  0.19035100  1
  O  O14  1  0.86618600  0.81836300  0.86722200  1
  O  O15  1  0.33069600  0.63016500  0.93959800  1
  O  O16  1  0.43031700  0.78337200  0.79927300  1
  O  O17  1  0.89789300  0.53686400  0.83592600  1
  O  O18  1  0.26268300  0.70742600  0.07522500  1
  O  O19  1  0.83069600  0.86983500  0.43959800  1
  O  O20  1  0.36618600  0.18163700  0.13277800  1
  O  O21  1  0.10591500  0.08443400  0.29327100  1
  O  O22  1  0.11616700  0.71669800  0.80964900  1
  O  O23  1  0.93031700  0.21662800  0.20072700  1
  O  O24  1  0.76268300  0.79257400  0.57522500  1
  O  O25  1  0.33069600  0.13016500  0.56040200  1
  O  O26  1  0.53596100  0.76348500  0.02294500  1
  O  O27  1  0.91390800  0.78424100  0.15365700  1
  O  O28  1  0.88092000  0.22517000  0.77479500  1
  O  O29  1  0.26268300  0.20742600  0.42477500  1
  O  O30  1  0.43031700  0.28337200  0.70072700  1
  O  O31  1  0.60591500  0.41556600  0.79327100  1
  O  O32  1  0.31883600  0.96963800  0.70436400  1
  O  O33  1  0.38092000  0.77483000  0.22520500  1
  O  O34  1  0.89789300  0.03686400  0.66407400  1
  O  O35  1  0.31883600  0.46963800  0.79563600  1
  O  O36  1  0.11616700  0.21669800  0.69035100  1
  O  O37  1  0.41390800  0.71575900  0.65365700  1
  O  O38  1  0.86618600  0.31836300  0.63277800  1
  O  O39  1  0.38092000  0.27483000  0.27479500  1
  O  O40  1  0.79794600  0.08920400  0.02754100  1
  O  O41  1  0.88092000  0.72517000  0.72520500  1
  O  O42  1  0.93031700  0.71662800  0.29927300  1
  O  O43  1  0.81883600  0.53036200  0.20436400  1
  O  O44  1  0.41390800  0.21575900  0.84634300  1
  O  O45  1  0.03596100  0.73651500  0.52294500  1
  O  O46  1  0.81883600  0.03036200  0.29563600  1
  O  O47  1  0.76268300  0.29257400  0.92477500  1
loop_
_geom_bond_atom_site_label_1
_geom_bond_atom_site_label_2
_geom_bond_distance
_geom_bond_site_symmetry_2
K0 O12 2.725879 1_555
K0 O7 2.772806 1_455
K0 O3 2.871770 1_555
K0 O42 2.919376 1_455
K0 O45 2.949285 1_555
K0 O8 3.011216 1_455
K0 O29 3.033424 1_555
K1 O45 2.657559 1_555
K1 O12 2.759930 1_555
K1 O37 2.764826 1_555
K1 O25 2.816358 1_565
K1 O1 3.248782 1_555
K2 O9 2.680346 1_545
K2 O4 2.769400 1_555
K2 O44 2.866139 1_555
K2 O22 3.004192 1_545
K2 O14 3.024413 1_445
K2 O28 3.046098 1_455
K2 O32 3.165337 1_545
K2 O36 3.271226 1_555
K3 O4 2.657559 1_555
K3 O20 2.759930 1_556
K3 O44 2.764826 1_555
K3 O15 2.816358 1_555
K3 O11 3.248782 1_556
K4 O26 2.657559 1_555
K4 O14 2.759930 1_554
K4 O27 2.764826 1_555
K4 O6 2.816358 1_555
K4 O17 3.248782 1_554
K5 O8 2.680346 1_555
K5 O0 2.769400 1_555
K5 O7 2.866139 1_555
K5 O10 3.004192 1_555
K5 O12 3.024413 1_555
K5 O39 3.046098 1_555
K5 O43 3.165337 1_555
K5 O13 3.271226 1_555
K6 O38 2.725879 1_555
K6 O37 2.772806 1_555
K6 O8 2.871770 1_555
K6 O30 2.919376 1_555
K6 O0 2.949285 1_555
K6 O3 3.011216 1_555
K6 O24 3.033424 1_555
K7 O40 2.680346 1_565
K7 O26 2.769400 1_555
K7 O27 2.866139 1_555
K7 O13 3.004192 1_565
K7 O20 3.024413 1_565
K7 O33 3.046098 1_555
K7 O46 3.165337 1_565
K7 O10 3.271226 1_555
K8 O3 2.680346 1_555
K8 O45 2.769400 1_555
K8 O37 2.866139 1_555
K8 O36 3.004192 1_555
K8 O38 3.024413 1_455
K8 O41 3.046098 1_455
K8 O35 3.165337 1_555
K8 O22 3.271226 1_555
K9 O20 2.725879 1_555
K9 O27 2.772806 1_445
K9 O9 2.871770 1_544
K9 O23 2.919376 1_455
K9 O4 2.949285 1_554
K9 O40 3.011216 1_455
K9 O18 3.033424 1_545
K10 O0 2.657559 1_555
K10 O38 2.759930 1_555
K10 O7 2.764826 1_555
K10 O19 2.816358 1_545
K10 O34 3.248782 1_555
K11 O14 2.725879 1_555
K11 O44 2.772806 1_565
K11 O40 2.871770 1_566
K11 O16 2.919376 1_555
K11 O26 2.949285 1_556
K11 O9 3.011216 1_555
K11 O47 3.033424 1_565
Al0 O18 1.748006 1_555
Al0 O11 1.754719 1_555
Al0 O2 1.757835 1_555
Al0 O33 1.772982 1_555
Al1 O15 1.753386 1_555
Al1 O35 1.753641 1_555
Al1 O22 1.758625 1_555
Al1 O16 1.765813 1_555
Al2 O29 1.748006 1_555
Al2 O1 1.754719 1_545
Al2 O21 1.757835 1_555
Al2 O39 1.772982 1_555
Al3 O19 1.753386 1_555
Al3 O46 1.753641 1_565
Al3 O10 1.758625 1_555
Al3 O42 1.765813 1_555
Al4 O47 1.748006 1_555
Al4 O17 1.754719 1_555
Al4 O31 1.757835 1_555
Al4 O28 1.772982 1_555
Al5 O6 1.753386 1_555
Al5 O43 1.753641 1_555
Al5 O13 1.758625 1_555
Al5 O23 1.765813 1_555
Al6 O24 1.748006 1_555
Al6 O34 1.754719 1_565
Al6 O5 1.757835 1_555
Al6 O41 1.772982 1_555
Al7 O25 1.753386 1_555
Al7 O32 1.753641 1_545
Al7 O36 1.758625 1_555
Al7 O30 1.765813 1_555
O0 P0 1.522953 1_555
O1 P8 1.558180 1_555
O2 P2 1.560642 1_455
O3 P0 1.522893 1_555
O4 P10 1.522953 1_455
O5 P11 1.560642 1_555
O6 P10 1.604114 1_554
O7 P6 1.510587 1_555
O8 P9 1.522893 1_555
O9 P7 1.522893 1_556
O10 P8 1.561209 1_555
O11 P1 1.558180 1_555
O12 P8 1.506572 1_555
O13 P1 1.561209 1_555
O14 P5 1.506572 1_555
O15 P7 1.604114 1_556
O16 P11 1.567373 1_555
O17 P5 1.558180 1_555
O18 P7 1.587972 1_555
O19 P9 1.604114 1_555
O20 P1 1.506572 1_555
O21 P6 1.560642 1_455
O22 P5 1.561209 1_455
O23 P6 1.567373 1_555
O24 P9 1.587972 1_555
O25 P0 1.604114 1_555
O26 P7 1.522953 1_555
O27 P2 1.510587 1_555
O28 P3 1.567619 1_555
O29 P0 1.587972 1_555
O30 P4 1.567373 1_555
O31 P4 1.560642 1_555
O32 P11 1.562882 1_555
O33 P8 1.567619 1_555
O34 P3 1.558180 1_555
O35 P4 1.562882 1_555
O36 P3 1.561209 1_455
O37 P11 1.510587 1_555
O38 P3 1.506572 1_555
O39 P1 1.567619 1_555
O40 P10 1.522893 1_554
O41 P5 1.567619 1_555
O42 P2 1.567373 1_555
O43 P2 1.562882 1_555
O44 P4 1.510587 1_555
O45 P9 1.522953 1_455
O46 P6 1.562882 1_555
O47 P10 1.587972 1_555
