# generated using pymatgen
data_Li6Mn5(P2O7)4
_symmetry_space_group_name_H-M   'P 1'
_cell_length_a   9.22273900
_cell_length_b   10.69110702
_cell_length_c   13.20790143
_cell_angle_alpha   88.00672634
_cell_angle_beta   106.44226636
_cell_angle_gamma   114.09691396
_symmetry_Int_Tables_number   1
_chemical_formula_structural   Li6Mn5(P2O7)4
_chemical_formula_sum   'Li12 Mn10 P16 O56'
_cell_volume   1135.34700504
_cell_formula_units_Z   2
loop_
 _symmetry_equiv_pos_site_id
 _symmetry_equiv_pos_as_xyz
  1  'x, y, z'
loop_
 _atom_site_type_symbol
 _atom_site_label
 _atom_site_symmetry_multiplicity
 _atom_site_fract_x
 _atom_site_fract_y
 _atom_site_fract_z
 _atom_site_occupancy
  Li  Li0  1  0.87881300  0.39028000  0.67483000  1
  Li  Li1  1  0.10746500  0.13835500  0.55516400  1
  Li  Li2  1  0.12118700  0.60972000  0.32517000  1
  Li  Li3  1  0.50000000  0.50000000  0.50000000  1
  Li  Li4  1  0.91088900  0.87052300  0.94510900  1
  Li  Li5  1  0.12762100  0.60532100  0.83040300  1
  Li  Li6  1  0.08911100  0.12947700  0.05489100  1
  Li  Li7  1  0.80881600  0.99142500  0.72601800  1
  Li  Li8  1  0.19118400  0.00857500  0.27398200  1
  Li  Li9  1  0.87237900  0.39467900  0.16959700  1
  Li  Li10  1  0.50000000  0.50000000  0.00000000  1
  Li  Li11  1  0.89253500  0.86164500  0.44483600  1
  Mn  Mn0  1  0.90134000  0.29417800  0.89023400  1
  Mn  Mn1  1  0.48799000  0.75641000  0.06866000  1
  Mn  Mn2  1  0.49684100  0.76008200  0.56984000  1
  Mn  Mn3  1  0.51201000  0.24359000  0.93134000  1
  Mn  Mn4  1  0.81414800  0.01456000  0.24068300  1
  Mn  Mn5  1  0.50315900  0.23991800  0.43016000  1
  Mn  Mn6  1  0.18585200  0.98544000  0.75931700  1
  Mn  Mn7  1  0.90136300  0.29911300  0.39495700  1
  Mn  Mn8  1  0.09863700  0.70088700  0.60504300  1
  Mn  Mn9  1  0.09866000  0.70582200  0.10976600  1
  P  P0  1  0.80589100  0.55986500  0.89840200  1
  P  P1  1  0.20047300  0.44283500  0.60230300  1
  P  P2  1  0.81812900  0.70141200  0.70939700  1
  P  P3  1  0.71724400  0.03808200  0.97188400  1
  P  P4  1  0.44864200  0.81090700  0.81382700  1
  P  P5  1  0.71389000  0.03812700  0.46992400  1
  P  P6  1  0.80875900  0.70189300  0.21093800  1
  P  P7  1  0.54332400  0.19183700  0.68299000  1
  P  P8  1  0.19124100  0.29810700  0.78906200  1
  P  P9  1  0.79952700  0.55716500  0.39769700  1
  P  P10  1  0.28611000  0.96187300  0.53007600  1
  P  P11  1  0.45667600  0.80816300  0.31701000  1
  P  P12  1  0.19410900  0.44013500  0.10159800  1
  P  P13  1  0.18187100  0.29858800  0.29060300  1
  P  P14  1  0.28275600  0.96191800  0.02811600  1
  P  P15  1  0.55135800  0.18909300  0.18617300  1
  O  O0  1  0.91184200  0.49458100  0.37356700  1
  O  O1  1  0.28090900  0.39324700  0.21173700  1
  O  O2  1  0.27332600  0.80890000  0.76015500  1
  O  O3  1  0.71909100  0.60675300  0.78826300  1
  O  O4  1  0.08815800  0.50541900  0.62643300  1
  O  O5  1  0.66463200  0.45645200  0.44074700  1
  O  O6  1  0.29093600  0.39928300  0.71250700  1
  O  O7  1  0.09192700  0.30752000  0.53123500  1
  O  O8  1  0.68418000  0.68368000  0.60622100  1
  O  O9  1  0.54458400  0.96077500  0.88222700  1
  O  O10  1  0.55663900  0.82773300  0.23765100  1
  O  O11  1  0.44336100  0.17226700  0.76234900  1
  O  O12  1  0.32279700  0.31764800  0.89428300  1
  O  O13  1  0.14812400  0.96454100  0.57642700  1
  O  O14  1  0.06092300  0.36014500  0.29924700  1
  O  O15  1  0.33302000  0.54091700  0.06172400  1
  O  O16  1  0.70483700  0.96468800  0.07293400  1
  O  O17  1  0.54521700  0.81568100  0.73646300  1
  O  O18  1  0.67720300  0.68235200  0.10571700  1
  O  O19  1  0.66698000  0.45908300  0.93827600  1
  O  O20  1  0.52854600  0.29104900  0.59933000  1
  O  O21  1  0.85187600  0.03545900  0.42357300  1
  O  O22  1  0.14072800  0.96537000  0.06615300  1
  O  O23  1  0.08888500  0.30528400  0.02973700  1
  O  O24  1  0.90807300  0.69248000  0.46876500  1
  O  O25  1  0.72667400  0.19110000  0.23984500  1
  O  O26  1  0.08366700  0.14728300  0.23810600  1
  O  O27  1  0.08179100  0.50386900  0.12403700  1
  O  O28  1  0.31582000  0.31632000  0.39377900  1
  O  O29  1  0.53753800  0.96069900  0.38222800  1
  O  O30  1  0.89644100  0.85025200  0.26707900  1
  O  O31  1  0.85927200  0.03463000  0.93384700  1
  O  O32  1  0.71356900  0.96476500  0.57063800  1
  O  O33  1  0.33536800  0.54354800  0.55925300  1
  O  O34  1  0.45478300  0.18431900  0.26353700  1
  O  O35  1  0.91111500  0.69471600  0.97026300  1
  O  O36  1  0.72565300  0.18574600  0.47919500  1
  O  O37  1  0.91633300  0.85271700  0.76189400  1
  O  O38  1  0.91820900  0.49613100  0.87596300  1
  O  O39  1  0.93600800  0.64700200  0.20325600  1
  O  O40  1  0.27432500  0.78331400  0.26396600  1
  O  O41  1  0.72740500  0.18545900  0.97943900  1
  O  O42  1  0.47145400  0.70895100  0.40067000  1
  O  O43  1  0.70906400  0.60071700  0.28749300  1
  O  O44  1  0.46246200  0.03930100  0.61777200  1
  O  O45  1  0.27434700  0.81425400  0.52080500  1
  O  O46  1  0.29516300  0.03531200  0.92706600  1
  O  O47  1  0.43676000  0.70322000  0.89391400  1
  O  O48  1  0.27259500  0.81454100  0.02056100  1
  O  O49  1  0.93907700  0.63985500  0.70075300  1
  O  O50  1  0.72567500  0.21668600  0.73603400  1
  O  O51  1  0.28643100  0.03523500  0.42936200  1
  O  O52  1  0.56324000  0.29678000  0.10608600  1
  O  O53  1  0.06399200  0.35299800  0.79674400  1
  O  O54  1  0.10355900  0.14974800  0.73292100  1
  O  O55  1  0.45541600  0.03922500  0.11777300  1
loop_
_geom_bond_atom_site_label_1
_geom_bond_atom_site_label_2
_geom_bond_distance
_geom_bond_site_symmetry_2
Li0 O4 2.086826 1_655
Li0 O50 2.119953 1_555
Li0 O53 2.150093 1_655
Li0 O49 2.508081 1_555
Li1 O7 1.880836 1_555
Li1 O13 2.036102 1_545
Li1 O21 2.341742 1_455
Li1 O54 2.366356 1_555
Li2 O0 2.086826 1_455
Li2 O40 2.119953 1_555
Li2 O39 2.150093 1_455
Li2 O14 2.508081 1_555
Li3 O33 2.099979 1_555
Li3 O5 2.099979 1_555
Li3 O28 2.197436 1_555
Li3 O8 2.197436 1_555
Li4 O35 1.898035 1_555
Li4 O31 1.987647 1_565
Li4 O22 2.125244 1_656
Li4 O37 2.450151 1_555
Li5 O38 2.054994 1_455
Li5 O49 2.210653 1_455
Li5 O2 2.362380 1_555
Li5 O47 2.489662 1_555
Li5 O53 2.542086 1_555
Li6 O23 1.898035 1_555
Li6 O22 1.987647 1_545
Li6 O31 2.125244 1_454
Li6 O26 2.450151 1_555
Li7 O32 1.969847 1_555
Li7 O37 2.071906 1_555
Li7 O17 2.429300 1_555
Li7 O54 2.525075 1_665
Li8 O51 1.969847 1_555
Li8 O26 2.071906 1_555
Li8 O34 2.429300 1_555
Li8 O30 2.525075 1_445
Li9 O27 2.054994 1_655
Li9 O14 2.210653 1_655
Li9 O25 2.362380 1_555
Li9 O52 2.489662 1_555
Li9 O39 2.542086 1_555
Li10 O15 2.124443 1_555
Li10 O19 2.124443 1_554
Li10 O18 2.171905 1_555
Li10 O12 2.171905 1_554
Li11 O24 1.880836 1_555
Li11 O21 2.036102 1_565
Li11 O13 2.341742 1_655
Li11 O30 2.366356 1_555
Mn0 O53 2.096373 1_655
Mn0 O38 2.106051 1_555
Mn0 O23 2.108129 1_656
Mn0 O50 2.147691 1_555
Mn0 O41 2.182810 1_555
Mn0 O31 2.705252 1_555
Mn1 O18 2.128248 1_555
Mn1 O15 2.147255 1_555
Mn1 O10 2.210969 1_555
Mn1 O48 2.236600 1_555
Mn1 O47 2.264549 1_554
Mn1 O16 2.295567 1_555
Mn2 O8 2.130358 1_555
Mn2 O33 2.164721 1_555
Mn2 O17 2.171232 1_555
Mn2 O42 2.242855 1_555
Mn2 O45 2.271035 1_555
Mn2 O32 2.280800 1_555
Mn3 O12 2.128248 1_555
Mn3 O19 2.147255 1_555
Mn3 O11 2.210969 1_555
Mn3 O41 2.236600 1_555
Mn3 O52 2.264549 1_556
Mn3 O46 2.295567 1_555
Mn4 O16 2.142047 1_545
Mn4 O30 2.163241 1_545
Mn4 O26 2.314681 1_655
Mn4 O25 2.334549 1_555
Mn4 O21 2.346131 1_555
Mn4 O10 2.389500 1_545
Mn5 O28 2.130358 1_555
Mn5 O5 2.164721 1_555
Mn5 O34 2.171232 1_555
Mn5 O20 2.242855 1_555
Mn5 O36 2.271035 1_555
Mn5 O51 2.280800 1_555
Mn6 O46 2.142047 1_565
Mn6 O54 2.163241 1_565
Mn6 O37 2.314681 1_455
Mn6 O2 2.334549 1_555
Mn6 O13 2.346131 1_555
Mn6 O11 2.389500 1_565
Mn7 O0 2.065372 1_555
Mn7 O14 2.097849 1_655
Mn7 O7 2.104332 1_655
Mn7 O36 2.157788 1_555
Mn7 O25 2.214327 1_555
Mn7 O21 2.696213 1_555
Mn8 O4 2.065372 1_555
Mn8 O49 2.097849 1_455
Mn8 O24 2.104332 1_455
Mn8 O45 2.157788 1_555
Mn8 O2 2.214327 1_555
Mn8 O13 2.696213 1_555
Mn9 O39 2.096373 1_455
Mn9 O27 2.106051 1_555
Mn9 O35 2.108129 1_454
Mn9 O40 2.147691 1_555
Mn9 O48 2.182810 1_555
Mn9 O22 2.705252 1_555
O0 P9 1.545934 1_555
O1 P12 1.620499 1_555
O1 P13 1.629105 1_555
O2 P4 1.562434 1_555
O3 P0 1.620499 1_555
O3 P2 1.629105 1_555
O4 P1 1.545934 1_555
O5 P9 1.514753 1_555
O6 P1 1.616833 1_555
O6 P8 1.635825 1_555
O7 P1 1.534939 1_555
O8 P2 1.514220 1_555
O9 P3 1.595940 1_565
O9 P4 1.629977 1_555
O10 P11 1.538397 1_555
O11 P7 1.538397 1_555
O12 P8 1.518495 1_555
O13 P10 1.570679 1_555
O14 P13 1.538567 1_555
O15 P12 1.514903 1_555
O16 P3 1.533098 1_564
O17 P4 1.521349 1_555
O18 P6 1.518495 1_555
O19 P0 1.514903 1_555
O20 P7 1.521794 1_555
O21 P5 1.570679 1_555
O22 P14 1.543651 1_555
O23 P12 1.533771 1_555
O24 P9 1.534939 1_555
O25 P15 1.562434 1_555
O26 P13 1.563312 1_555
O27 P12 1.545760 1_555
O28 P13 1.514220 1_555
O29 P5 1.604068 1_565
O29 P11 1.642734 1_555
O30 P6 1.553886 1_555
O31 P3 1.543651 1_555
O32 P5 1.520661 1_565
O33 P1 1.514753 1_555
O34 P15 1.521349 1_555
O35 P0 1.533771 1_555
O36 P5 1.543900 1_555
O37 P2 1.563312 1_555
O38 P0 1.545760 1_555
O39 P6 1.538152 1_555
O40 P11 1.539772 1_555
O41 P3 1.544798 1_555
O42 P11 1.521794 1_555
O43 P9 1.616833 1_555
O43 P6 1.635825 1_555
O44 P10 1.604068 1_545
O44 P7 1.642734 1_555
O45 P10 1.543900 1_555
O46 P14 1.533098 1_546
O47 P4 1.527831 1_555
O48 P14 1.544798 1_555
O49 P2 1.538567 1_555
O50 P7 1.539772 1_555
O51 P10 1.520661 1_545
O52 P15 1.527831 1_555
O53 P8 1.538152 1_555
O54 P8 1.553886 1_555
O55 P14 1.595940 1_545
O55 P15 1.629977 1_555
