# generated using pymatgen
data_Ca2P2H8O11
_symmetry_space_group_name_H-M   'P 1'
_cell_length_a   25.27542300
_cell_length_b   5.97329600
_cell_length_c   6.96477510
_cell_angle_alpha   70.28425052
_cell_angle_beta   90.00000000
_cell_angle_gamma   90.00000000
_symmetry_Int_Tables_number   1
_chemical_formula_structural   Ca2P2H8O11
_chemical_formula_sum   'Ca8 P8 H32 O44'
_cell_volume   989.88225896
_cell_formula_units_Z   4
loop_
 _symmetry_equiv_pos_site_id
 _symmetry_equiv_pos_as_xyz
  1  'x, y, z'
loop_
 _atom_site_type_symbol
 _atom_site_label
 _atom_site_symmetry_multiplicity
 _atom_site_fract_x
 _atom_site_fract_y
 _atom_site_fract_z
 _atom_site_occupancy
  Ca  Ca0  1  0.29463100  0.89370400  0.60227000  1
  Ca  Ca1  1  0.70536900  0.10629600  0.39773000  1
  Ca  Ca2  1  0.95757900  0.80489100  0.39524800  1
  Ca  Ca3  1  0.20536900  0.89370400  0.10227000  1
  Ca  Ca4  1  0.79463100  0.10629600  0.89773000  1
  Ca  Ca5  1  0.54242100  0.80489100  0.89524800  1
  Ca  Ca6  1  0.45757900  0.19510900  0.10475200  1
  Ca  Ca7  1  0.04242100  0.19510900  0.60475200  1
  P  P0  1  0.33328200  0.92394700  0.08992200  1
  P  P1  1  0.83328200  0.07605300  0.41007800  1
  P  P2  1  0.66671800  0.07605300  0.91007800  1
  P  P3  1  0.41856300  0.80663800  0.85503000  1
  P  P4  1  0.91856300  0.19336200  0.64497000  1
  P  P5  1  0.08143700  0.80663800  0.35503000  1
  P  P6  1  0.16671800  0.92394700  0.58992200  1
  P  P7  1  0.58143700  0.19336200  0.14497000  1
  H  H0  1  0.18707400  0.46629300  0.86503200  1
  H  H1  1  0.17331200  0.38732500  0.37026200  1
  H  H2  1  0.73242900  0.61695300  0.19531200  1
  H  H3  1  0.23242900  0.38304700  0.30468800  1
  H  H4  1  0.76757100  0.61695300  0.69531200  1
  H  H5  1  0.07410800  0.80271200  0.98817600  1
  H  H6  1  0.57696100  0.78701800  0.48920000  1
  H  H7  1  0.07696100  0.21298200  0.01080000  1
  H  H8  1  0.67331200  0.61267500  0.12973800  1
  H  H9  1  0.42589200  0.80271200  0.48817600  1
  H  H10  1  0.92303900  0.78701800  0.98920000  1
  H  H11  1  0.51332400  0.24191500  0.54402100  1
  H  H12  1  0.17063100  0.28257200  0.75397200  1
  H  H13  1  0.81292600  0.53370700  0.13496800  1
  H  H14  1  0.57410800  0.19728800  0.51182400  1
  H  H15  1  0.98667600  0.24191500  0.04402100  1
  H  H16  1  0.82936900  0.71742800  0.24602800  1
  H  H17  1  0.68707400  0.53370700  0.63496800  1
  H  H18  1  0.01332400  0.75808500  0.95597900  1
  H  H19  1  0.92589200  0.19728800  0.01182400  1
  H  H20  1  0.55656700  0.51972300  0.60351000  1
  H  H21  1  0.44343300  0.48027700  0.39649000  1
  H  H22  1  0.31292600  0.46629300  0.36503200  1
  H  H23  1  0.32936900  0.28257200  0.25397200  1
  H  H24  1  0.48667600  0.75808500  0.45597900  1
  H  H25  1  0.42303900  0.21298200  0.51080000  1
  H  H26  1  0.05656700  0.48027700  0.89649000  1
  H  H27  1  0.94343300  0.51972300  0.10351000  1
  H  H28  1  0.82668800  0.61267500  0.62973800  1
  H  H29  1  0.26757100  0.38304700  0.80468800  1
  H  H30  1  0.67063100  0.71742800  0.74602800  1
  H  H31  1  0.32668800  0.38732500  0.87026200  1
  O  O0  1  0.05184800  0.31015000  0.90821500  1
  O  O1  1  0.31109600  0.78762800  0.30174700  1
  O  O2  1  0.36251700  0.15391700  0.08030200  1
  O  O3  1  0.38657100  0.89026500  0.65565100  1
  O  O4  1  0.95184700  0.21529700  0.11408300  1
  O  O5  1  0.04381300  0.00137400  0.37007100  1
  O  O6  1  0.70082100  0.51494700  0.22096500  1
  O  O7  1  0.30761600  0.30065700  0.36664500  1
  O  O8  1  0.44815200  0.31015000  0.40821500  1
  O  O9  1  0.54381300  0.99862600  0.12992900  1
  O  O10  1  0.04815300  0.78470300  0.88591700  1
  O  O11  1  0.29917900  0.48505300  0.77903500  1
  O  O12  1  0.20082100  0.48505300  0.27903500  1
  O  O13  1  0.87664800  0.25501700  0.45571600  1
  O  O14  1  0.79001200  0.03456600  0.57387800  1
  O  O15  1  0.95618700  0.99862600  0.62992900  1
  O  O16  1  0.68890400  0.21237200  0.69825300  1
  O  O17  1  0.20998800  0.96543400  0.42612200  1
  O  O18  1  0.05009800  0.57902200  0.38767100  1
  O  O19  1  0.70998800  0.03456600  0.07387800  1
  O  O20  1  0.11342900  0.89026500  0.15565100  1
  O  O21  1  0.80761600  0.69934300  0.13335500  1
  O  O22  1  0.62335200  0.25501700  0.95571600  1
  O  O23  1  0.19238400  0.30065700  0.86664500  1
  O  O24  1  0.63748300  0.84608300  0.91969800  1
  O  O25  1  0.94815200  0.68985000  0.09178500  1
  O  O26  1  0.12335200  0.74498300  0.54428400  1
  O  O27  1  0.69238400  0.69934300  0.63335500  1
  O  O28  1  0.29001200  0.96543400  0.92612200  1
  O  O29  1  0.44990200  0.57902200  0.88767100  1
  O  O30  1  0.37664800  0.74498300  0.04428400  1
  O  O31  1  0.55184800  0.68985000  0.59178500  1
  O  O32  1  0.81109600  0.21237200  0.19825300  1
  O  O33  1  0.79917900  0.51494700  0.72096500  1
  O  O34  1  0.86251700  0.84608300  0.41969800  1
  O  O35  1  0.55009800  0.42097800  0.11232900  1
  O  O36  1  0.45184700  0.78470300  0.38591700  1
  O  O37  1  0.45618700  0.00137400  0.87007100  1
  O  O38  1  0.18890400  0.78762800  0.80174700  1
  O  O39  1  0.61342900  0.10973500  0.34434900  1
  O  O40  1  0.94990200  0.42097800  0.61232900  1
  O  O41  1  0.13748300  0.15391700  0.58030200  1
  O  O42  1  0.54815300  0.21529700  0.61408300  1
  O  O43  1  0.88657100  0.10973500  0.84434900  1
loop_
_geom_bond_atom_site_label_1
_geom_bond_atom_site_label_2
_geom_bond_distance
_geom_bond_site_symmetry_2
Ca0 O11 2.336605 1_555
Ca0 O3 2.352370 1_555
Ca0 O1 2.418769 1_555
Ca0 O17 2.431258 1_555
Ca0 O28 2.436555 1_555
Ca0 O7 2.453228 1_565
Ca1 O6 2.336605 1_555
Ca1 O39 2.352370 1_555
Ca1 O16 2.418769 1_555
Ca1 O14 2.431258 1_555
Ca1 O19 2.436555 1_555
Ca1 O27 2.453228 1_545
Ca2 O40 2.289784 1_555
Ca2 O15 2.299617 1_555
Ca2 O34 2.427124 1_555
Ca2 O25 2.444588 1_555
Ca2 O5 2.453571 1_665
Ca2 O4 2.574192 1_565
Ca2 O18 2.709151 1_655
Ca3 O12 2.336605 1_555
Ca3 O20 2.352370 1_555
Ca3 O38 2.418769 1_554
Ca3 O28 2.431258 1_554
Ca3 O17 2.436555 1_555
Ca3 O23 2.453228 1_564
Ca4 O33 2.336605 1_555
Ca4 O43 2.352370 1_555
Ca4 O32 2.418769 1_556
Ca4 O19 2.431258 1_556
Ca4 O14 2.436555 1_555
Ca4 O21 2.453228 1_546
Ca5 O35 2.289784 1_556
Ca5 O9 2.299617 1_556
Ca5 O24 2.427124 1_555
Ca5 O31 2.444588 1_555
Ca5 O37 2.453571 1_565
Ca5 O42 2.574192 1_565
Ca5 O29 2.709151 1_555
Ca6 O29 2.289784 1_554
Ca6 O37 2.299617 1_554
Ca6 O2 2.427124 1_555
Ca6 O8 2.444588 1_555
Ca6 O9 2.453571 1_545
Ca6 O36 2.574192 1_545
Ca6 O35 2.709151 1_555
Ca7 O18 2.289784 1_555
Ca7 O5 2.299617 1_555
Ca7 O41 2.427124 1_555
Ca7 O0 2.444588 1_555
Ca7 O15 2.453571 1_445
Ca7 O10 2.574192 1_545
Ca7 O40 2.709151 1_455
H0 O23 0.994755 1_555
H1 O12 0.988770 1_555
H2 O6 0.983861 1_555
H3 O12 0.983861 1_555
H4 O33 0.983861 1_555
H5 O10 1.000438 1_555
H5 O20 1.741662 1_556
H6 O31 0.985121 1_555
H7 O0 0.985121 1_554
H8 O6 0.988770 1_555
H9 O36 1.000438 1_555
H9 O3 1.741662 1_555
H10 O25 0.985121 1_556
H11 O42 0.992977 1_555
H12 O23 0.993471 1_555
H13 O21 0.994755 1_555
H14 O42 1.000438 1_555
H14 O39 1.741662 1_555
H15 O4 0.992977 1_555
H16 O21 0.993471 1_555
H17 O27 0.994755 1_555
H18 O10 0.992977 1_555
H19 O4 1.000438 1_555
H19 O43 1.741662 1_554
H20 O31 0.998801 1_555
H21 O8 0.998801 1_555
H22 O7 0.994755 1_555
H23 O7 0.993471 1_555
H24 O36 0.992977 1_555
H25 O8 0.985121 1_555
H26 O0 0.998801 1_555
H27 O25 0.998801 1_555
H28 O33 0.988770 1_555
H29 O11 0.983861 1_555
H30 O27 0.993471 1_555
H31 O11 0.988770 1_555
O1 P0 1.530853 1_555
O2 P0 1.541232 1_545
O3 P3 1.537419 1_555
O5 P5 1.533164 1_545
O9 P7 1.533164 1_565
O13 P4 1.633368 1_555
O13 P1 1.635386 1_555
O14 P1 1.538917 1_555
O15 P4 1.533164 1_565
O16 P2 1.530853 1_555
O17 P6 1.538917 1_555
O18 P5 1.522869 1_555
O19 P2 1.538917 1_554
O20 P5 1.537419 1_555
O22 P7 1.633368 1_556
O22 P2 1.635386 1_555
O24 P2 1.541232 1_565
O26 P5 1.633368 1_555
O26 P6 1.635386 1_555
O28 P0 1.538917 1_556
O29 P3 1.522869 1_555
O30 P3 1.633368 1_554
O30 P0 1.635386 1_555
O32 P1 1.530853 1_555
O34 P1 1.541232 1_565
O35 P7 1.522869 1_555
O37 P3 1.533164 1_545
O38 P6 1.530853 1_555
O39 P7 1.537419 1_555
O40 P4 1.522869 1_555
O41 P6 1.541232 1_545
O43 P4 1.537419 1_555
