# generated using pymatgen
data_Ce8C8Cl5
_symmetry_space_group_name_H-M   'P 1'
_cell_length_a   16.54815200
_cell_length_b   6.65433400
_cell_length_c   7.58883501
_cell_angle_alpha   75.45710103
_cell_angle_beta   90.00000000
_cell_angle_gamma   90.00000000
_symmetry_Int_Tables_number   1
_chemical_formula_structural   Ce8C8Cl5
_chemical_formula_sum   'Ce16 C16 Cl10'
_cell_volume   808.88461490
_cell_formula_units_Z   2
loop_
 _symmetry_equiv_pos_site_id
 _symmetry_equiv_pos_as_xyz
  1  'x, y, z'
loop_
 _atom_site_type_symbol
 _atom_site_label
 _atom_site_symmetry_multiplicity
 _atom_site_fract_x
 _atom_site_fract_y
 _atom_site_fract_z
 _atom_site_occupancy
  Ce  Ce0  1  0.30616000  0.37080300  0.07623900  1
  Ce  Ce1  1  0.06761500  0.37997900  0.15030300  1
  Ce  Ce2  1  0.94879900  0.88788000  0.21952900  1
  Ce  Ce3  1  0.05120100  0.11212000  0.78047100  1
  Ce  Ce4  1  0.69384000  0.62919700  0.92376100  1
  Ce  Ce5  1  0.44879900  0.61212000  0.78047100  1
  Ce  Ce6  1  0.93238500  0.62002100  0.84969700  1
  Ce  Ce7  1  0.19384000  0.87080300  0.07623900  1
  Ce  Ce8  1  0.67324000  0.89692100  0.29361200  1
  Ce  Ce9  1  0.55120100  0.38788000  0.21952900  1
  Ce  Ce10  1  0.43238500  0.87997900  0.15030300  1
  Ce  Ce11  1  0.32676000  0.10307900  0.70638800  1
  Ce  Ce12  1  0.56761500  0.12002100  0.84969700  1
  Ce  Ce13  1  0.80616000  0.12919700  0.92376100  1
  Ce  Ce14  1  0.17324000  0.60307900  0.70638800  1
  Ce  Ce15  1  0.82676000  0.39692100  0.29361200  1
  C  C0  1  0.65992900  0.23333400  0.03805700  1
  C  C1  1  0.28365100  0.71602500  0.84488100  1
  C  C2  1  0.84007100  0.73333400  0.03805700  1
  C  C3  1  0.71634900  0.28397500  0.15511900  1
  C  C4  1  0.53851700  0.72335500  0.97033900  1
  C  C5  1  0.34007100  0.76666600  0.96194300  1
  C  C6  1  0.21634900  0.21602500  0.84488100  1
  C  C7  1  0.46148300  0.27664500  0.02966100  1
  C  C8  1  0.08582100  0.72123900  0.89748300  1
  C  C9  1  0.03851700  0.77664500  0.02966100  1
  C  C10  1  0.91417900  0.27876100  0.10251700  1
  C  C11  1  0.58582100  0.77876100  0.10251700  1
  C  C12  1  0.78365100  0.78397500  0.15511900  1
  C  C13  1  0.15992900  0.26666600  0.96194300  1
  C  C14  1  0.96148300  0.22335500  0.97033900  1
  C  C15  1  0.41417900  0.22123900  0.89748300  1
  Cl  Cl0  1  0.09738400  0.97923800  0.41531100  1
  Cl  Cl1  1  0.29709700  0.97534600  0.35737000  1
  Cl  Cl2  1  0.20290300  0.47534600  0.35737000  1
  Cl  Cl3  1  0.90261600  0.02076200  0.58468900  1
  Cl  Cl4  1  0.40261600  0.47923800  0.41531100  1
  Cl  Cl5  1  0.79709700  0.52465400  0.64263000  1
  Cl  Cl6  1  0.50000000  0.00000000  0.50000000  1
  Cl  Cl7  1  0.59738400  0.52076200  0.58468900  1
  Cl  Cl8  1  0.00000000  0.50000000  0.50000000  1
  Cl  Cl9  1  0.70290300  0.02465400  0.64263000  1
loop_
_geom_bond_atom_site_label_1
_geom_bond_atom_site_label_2
_geom_bond_distance
_geom_bond_site_symmetry_2
Ce0 Cl1 2.946088 1_545
Ce0 Cl2 2.949686 1_555
Ce0 Cl4 3.259144 1_555
Ce1 Cl2 2.895669 1_555
Ce1 Cl0 2.950422 1_545
Ce1 Cl8 3.161778 1_555
Ce2 Cl0 3.012705 1_655
Ce2 Cl8 3.025091 1_655
Ce2 Cl3 3.205582 1_565
Ce3 Cl3 3.012705 1_455
Ce3 Cl8 3.025091 1_555
Ce3 Cl0 3.205582 1_545
Ce4 Cl9 2.946088 1_565
Ce4 Cl5 2.949686 1_555
Ce4 Cl7 3.259144 1_555
Ce5 Cl7 3.012705 1_555
Ce5 Cl6 3.025091 1_565
Ce5 Cl4 3.205582 1_555
Ce6 Cl5 2.895669 1_555
Ce6 Cl3 2.950422 1_565
Ce6 Cl8 3.161778 1_655
Ce7 Cl2 2.946088 1_555
Ce7 Cl1 2.949686 1_555
Ce7 Cl0 3.259144 1_555
Ce8 Cl9 3.018166 1_565
Ce8 Cl7 3.153374 1_555
Ce8 Cl6 3.417850 1_565
Ce9 Cl4 3.012705 1_555
Ce9 Cl6 3.025091 1_555
Ce9 Cl7 3.205582 1_555
Ce10 Cl1 2.895669 1_555
Ce10 Cl4 2.950422 1_555
Ce10 Cl6 3.161778 1_565
Ce11 Cl1 3.018166 1_545
Ce11 Cl4 3.153374 1_555
Ce11 Cl6 3.417850 1_555
Ce12 Cl9 2.895669 1_555
Ce12 Cl7 2.950422 1_555
Ce12 Cl6 3.161778 1_555
Ce13 Cl5 2.946088 1_555
Ce13 Cl9 2.949686 1_555
Ce13 Cl3 3.259144 1_555
Ce14 Cl2 3.018166 1_555
Ce14 Cl0 3.153374 1_555
Ce14 Cl8 3.417850 1_555
Ce15 Cl5 3.018166 1_555
Ce15 Cl3 3.153374 1_555
Ce15 Cl8 3.417850 1_655
C0 C3 1.387367 1_555
C0 Ce12 2.342384 1_554
C0 Ce8 2.576951 1_545
C0 Ce4 2.618933 1_554
C0 Ce9 2.627306 1_555
C0 Ce13 2.718470 1_554
C1 C5 1.387367 1_555
C1 Ce14 2.324750 1_555
C1 Ce0 2.544212 1_556
C1 Ce11 2.624443 1_565
C1 Ce7 2.694506 1_556
C1 Ce5 2.890575 1_555
C2 Ce6 2.342384 1_554
C2 Ce15 2.576951 1_555
C2 Ce13 2.618933 1_564
C2 Ce2 2.627306 1_555
C2 Ce4 2.718470 1_554
C3 Ce15 2.324750 1_555
C3 Ce4 2.544212 1_554
C3 Ce8 2.624443 1_545
C3 Ce13 2.694506 1_554
C3 Ce9 2.890575 1_555
C4 Ce5 2.316004 1_555
C4 Ce9 2.546275 1_556
C4 Ce10 2.598233 1_556
C4 Ce12 2.612209 1_565
C4 Ce4 2.689838 1_555
C5 Ce10 2.342384 1_556
C5 Ce11 2.576951 1_565
C5 Ce0 2.618933 1_556
C5 Ce5 2.627306 1_555
C5 Ce7 2.718470 1_556
C6 Ce11 2.324750 1_555
C6 Ce7 2.544212 1_546
C6 Ce14 2.624443 1_555
C6 Ce0 2.694506 1_556
C6 Ce3 2.890575 1_555
C7 Ce9 2.316004 1_555
C7 Ce5 2.546275 1_554
C7 Ce12 2.598233 1_554
C7 Ce10 2.612209 1_545
C7 Ce0 2.689838 1_555
C8 C9 1.393051 1_556
C8 Ce14 2.320913 1_555
C8 Ce7 2.589207 1_556
C8 Ce3 2.592731 1_565
C8 Ce1 2.596257 1_556
C8 Ce6 2.674839 1_455
C9 Ce2 2.316004 1_455
C9 Ce3 2.546275 1_564
C9 Ce6 2.598233 1_454
C9 Ce1 2.612209 1_555
C9 Ce7 2.689838 1_555
C10 C14 1.393051 1_554
C10 Ce15 2.320913 1_555
C10 Ce13 2.589207 1_554
C10 Ce2 2.592731 1_545
C10 Ce6 2.596257 1_554
C10 Ce1 2.674839 1_655
C11 C4 1.393051 1_554
C11 Ce8 2.320913 1_555
C11 Ce4 2.589207 1_554
C11 Ce9 2.592731 1_555
C11 Ce12 2.596257 1_564
C11 Ce10 2.674839 1_555
C12 C2 1.387367 1_555
C12 Ce8 2.324750 1_555
C12 Ce13 2.544212 1_564
C12 Ce15 2.624443 1_555
C12 Ce4 2.694506 1_554
C12 Ce2 2.890575 1_555
C13 C6 1.387367 1_555
C13 Ce1 2.342384 1_556
C13 Ce14 2.576951 1_555
C13 Ce7 2.618933 1_546
C13 Ce3 2.627306 1_555
C13 Ce0 2.718470 1_556
C14 Ce3 2.316004 1_655
C14 Ce2 2.546275 1_546
C14 Ce1 2.598233 1_656
C14 Ce6 2.612209 1_555
C14 Ce13 2.689838 1_555
C15 C7 1.393051 1_556
C15 Ce11 2.320913 1_555
C15 Ce0 2.589207 1_556
C15 Ce5 2.592731 1_555
C15 Ce10 2.596257 1_546
C15 Ce12 2.674839 1_555
