# generated using pymatgen
data_RbNd2I5
_symmetry_space_group_name_H-M   'P 1'
_cell_length_a   8.78844500
_cell_length_b   9.88391400
_cell_length_c   14.35507359
_cell_angle_alpha   89.49863116
_cell_angle_beta   90.00000000
_cell_angle_gamma   90.00000000
_symmetry_Int_Tables_number   1
_chemical_formula_structural   RbNd2I5
_chemical_formula_sum   'Rb4 Nd8 I20'
_cell_volume   1246.89473993
_cell_formula_units_Z   4
loop_
 _symmetry_equiv_pos_site_id
 _symmetry_equiv_pos_as_xyz
  1  'x, y, z'
loop_
 _atom_site_type_symbol
 _atom_site_label
 _atom_site_symmetry_multiplicity
 _atom_site_fract_x
 _atom_site_fract_y
 _atom_site_fract_z
 _atom_site_occupancy
  Rb  Rb0  1  0.06104800  0.49608700  0.83139100  1
  Rb  Rb1  1  0.56104800  0.50391300  0.66860900  1
  Rb  Rb2  1  0.93895200  0.50391300  0.16860900  1
  Rb  Rb3  1  0.43895200  0.49608700  0.33139100  1
  Nd  Nd0  1  0.06255800  0.99428700  0.82550800  1
  Nd  Nd1  1  0.93744200  0.00571300  0.17449200  1
  Nd  Nd2  1  0.41403500  0.76979500  0.99703600  1
  Nd  Nd3  1  0.56255800  0.00571300  0.67449200  1
  Nd  Nd4  1  0.58596500  0.23020500  0.00296400  1
  Nd  Nd5  1  0.43744200  0.99428700  0.32550800  1
  Nd  Nd6  1  0.08596500  0.76979500  0.49703600  1
  Nd  Nd7  1  0.91403500  0.23020500  0.50296400  1
  I  I0  1  0.35328200  0.21115500  0.81933900  1
  I  I1  1  0.66767200  0.95496700  0.89485400  1
  I  I2  1  0.82372200  0.22789400  0.72095500  1
  I  I3  1  0.03991800  0.78836300  0.00407800  1
  I  I4  1  0.96008200  0.21163700  0.99592200  1
  I  I5  1  0.17012200  0.46628500  0.57858900  1
  I  I6  1  0.82987800  0.53371500  0.42141100  1
  I  I7  1  0.14671800  0.21115500  0.31933900  1
  I  I8  1  0.17627800  0.77210600  0.27904500  1
  I  I9  1  0.67012200  0.53371500  0.92141100  1
  I  I10  1  0.64671800  0.78884500  0.18066100  1
  I  I11  1  0.32987800  0.46628500  0.07858900  1
  I  I12  1  0.33232800  0.04503300  0.10514600  1
  I  I13  1  0.32372200  0.77210600  0.77904500  1
  I  I14  1  0.85328200  0.78884500  0.68066100  1
  I  I15  1  0.67627800  0.22789400  0.22095500  1
  I  I16  1  0.46008200  0.78836300  0.50407800  1
  I  I17  1  0.53991800  0.21163700  0.49592200  1
  I  I18  1  0.16767200  0.04503300  0.60514600  1
  I  I19  1  0.83232800  0.95496700  0.39485400  1
loop_
_geom_bond_atom_site_label_1
_geom_bond_atom_site_label_2
_geom_bond_distance
_geom_bond_site_symmetry_2
I0 Nd0 3.335749 1_545
I0 Nd4 3.342765 1_556
I0 Nd3 3.450109 1_555
I0 Rb0 3.816511 1_555
I0 Rb1 4.034743 1_555
I1 Nd4 3.224707 1_566
I1 Nd2 3.228483 1_555
I1 Nd3 3.329225 1_565
I1 Nd0 3.630308 1_655
I2 Nd7 3.228254 1_555
I2 Nd3 3.249777 1_555
I2 Nd0 3.453838 1_645
I2 Rb1 3.647015 1_555
I2 Rb0 3.736810 1_655
I3 Nd0 3.265244 1_554
I3 Nd2 3.294625 1_554
I3 Nd1 3.391538 1_465
I3 Rb2 3.762170 1_455
I3 Rb0 3.827567 1_554
I4 Nd1 3.265244 1_556
I4 Nd4 3.294625 1_556
I4 Nd0 3.391538 1_645
I4 Rb0 3.762170 1_655
I4 Rb2 3.827567 1_556
I5 Nd6 3.294738 1_555
I5 Nd7 3.425321 1_455
I5 Rb1 3.690554 1_555
I5 Rb0 3.767486 1_555
I5 Rb3 4.271126 1_555
I6 Nd7 3.294738 1_555
I6 Nd6 3.425321 1_655
I6 Rb3 3.690554 1_555
I6 Rb2 3.767486 1_555
I6 Rb1 4.271126 1_555
I7 Nd5 3.335749 1_545
I7 Nd7 3.342765 1_455
I7 Nd1 3.450109 1_455
I7 Rb3 3.816511 1_555
I7 Rb2 4.034743 1_455
I8 Nd6 3.228254 1_555
I8 Nd5 3.249777 1_555
I8 Nd1 3.453838 1_465
I8 Rb3 3.647015 1_555
I8 Rb2 3.736810 1_455
I9 Nd4 3.294738 1_556
I9 Nd2 3.425321 1_555
I9 Rb0 3.690554 1_655
I9 Rb1 3.767486 1_555
I9 Rb2 4.271126 1_556
I10 Nd1 3.335749 1_565
I10 Nd2 3.342765 1_554
I10 Nd5 3.450109 1_555
I10 Rb2 3.816511 1_555
I10 Rb3 4.034743 1_555
I11 Nd2 3.294738 1_554
I11 Nd4 3.425321 1_555
I11 Rb2 3.690554 1_455
I11 Rb3 3.767486 1_555
I11 Rb0 4.271126 1_554
I12 Nd2 3.224707 1_544
I12 Nd4 3.228483 1_555
I12 Nd5 3.329225 1_545
I12 Nd1 3.630308 1_455
I13 Nd2 3.228254 1_555
I13 Nd0 3.249777 1_555
I13 Nd3 3.453838 1_565
I13 Rb0 3.647015 1_555
I13 Rb1 3.736810 1_555
I14 Nd3 3.335749 1_565
I14 Nd6 3.342765 1_655
I14 Nd0 3.450109 1_655
I14 Rb1 3.816511 1_555
I14 Rb0 4.034743 1_655
I15 Nd4 3.228254 1_555
I15 Nd1 3.249777 1_555
I15 Nd5 3.453838 1_545
I15 Rb2 3.647015 1_555
I15 Rb3 3.736810 1_555
I16 Nd5 3.265244 1_555
I16 Nd6 3.294625 1_555
I16 Nd3 3.391538 1_565
I16 Rb1 3.762170 1_555
I16 Rb3 3.827567 1_555
I17 Nd3 3.265244 1_555
I17 Nd7 3.294625 1_555
I17 Nd5 3.391538 1_545
I17 Rb3 3.762170 1_555
I17 Rb1 3.827567 1_555
I18 Nd6 3.224707 1_545
I18 Nd7 3.228483 1_455
I18 Nd0 3.329225 1_545
I18 Nd3 3.630308 1_555
I19 Nd7 3.224707 1_565
I19 Nd6 3.228483 1_655
I19 Nd1 3.329225 1_565
I19 Nd5 3.630308 1_555
