# generated using pymatgen
data_Ba2CoSi2O7
_symmetry_space_group_name_H-M   'P 1'
_cell_length_a   8.55624923
_cell_length_b   10.89072326
_cell_length_c   8.56900459
_cell_angle_alpha   89.99999953
_cell_angle_beta   111.24555361
_cell_angle_gamma   90.00000368
_symmetry_Int_Tables_number   1
_chemical_formula_structural   Ba2CoSi2O7
_chemical_formula_sum   'Ba8 Co4 Si8 O28'
_cell_volume   744.22320732
_cell_formula_units_Z   4
loop_
 _symmetry_equiv_pos_site_id
 _symmetry_equiv_pos_as_xyz
  1  'x, y, z'
loop_
 _atom_site_type_symbol
 _atom_site_label
 _atom_site_symmetry_multiplicity
 _atom_site_fract_x
 _atom_site_fract_y
 _atom_site_fract_z
 _atom_site_occupancy
  Ba  Ba0  1  0.22731000  0.95903800  0.97413700  1
  Ba  Ba1  1  0.72731000  0.45903800  0.97413700  1
  Ba  Ba2  1  0.77269000  0.04096200  0.02586300  1
  Ba  Ba3  1  0.27269000  0.54096200  0.02586300  1
  Ba  Ba4  1  0.77269000  0.95903800  0.52586300  1
  Ba  Ba5  1  0.27269000  0.45903800  0.52586300  1
  Ba  Ba6  1  0.22731000  0.04096200  0.47413700  1
  Ba  Ba7  1  0.72731000  0.54096200  0.47413700  1
  Co  Co0  1  0.00000000  0.74261300  0.25000000  1
  Co  Co1  1  0.00000000  0.25738700  0.75000000  1
  Co  Co2  1  0.50000000  0.24261300  0.25000000  1
  Co  Co3  1  0.50000000  0.75738700  0.75000000  1
  Si  Si0  1  0.61328700  0.78111100  0.13778800  1
  Si  Si1  1  0.11328700  0.28111100  0.13778800  1
  Si  Si2  1  0.38671300  0.21888900  0.86221200  1
  Si  Si3  1  0.88671300  0.71888900  0.86221200  1
  Si  Si4  1  0.38671300  0.78111100  0.36221200  1
  Si  Si5  1  0.88671300  0.28111100  0.36221200  1
  Si  Si6  1  0.61328700  0.21888900  0.63778800  1
  Si  Si7  1  0.11328700  0.71888900  0.63778800  1
  O  O0  1  0.50000000  0.16655800  0.75000000  1
  O  O1  1  0.00000000  0.66655800  0.75000000  1
  O  O2  1  0.50000000  0.83344200  0.25000000  1
  O  O3  1  0.00000000  0.33344200  0.25000000  1
  O  O4  1  0.47286400  0.85153400  0.54354400  1
  O  O5  1  0.97286400  0.35153400  0.54354400  1
  O  O6  1  0.52713600  0.85153400  0.95645600  1
  O  O7  1  0.02713600  0.35153400  0.95645600  1
  O  O8  1  0.52713600  0.14846600  0.45645600  1
  O  O9  1  0.02713600  0.64846600  0.45645600  1
  O  O10  1  0.47286400  0.14846600  0.04354400  1
  O  O11  1  0.97286400  0.64846600  0.04354400  1
  O  O12  1  0.39109800  0.63222700  0.36684200  1
  O  O13  1  0.89109800  0.13222700  0.36684200  1
  O  O14  1  0.60890200  0.63222700  0.13315800  1
  O  O15  1  0.10890200  0.13222700  0.13315800  1
  O  O16  1  0.39109800  0.36777300  0.86684200  1
  O  O17  1  0.89109800  0.86777300  0.86684200  1
  O  O18  1  0.60890200  0.36777300  0.63315800  1
  O  O19  1  0.10890200  0.86777300  0.63315800  1
  O  O20  1  0.20040700  0.84259100  0.26452100  1
  O  O21  1  0.70040700  0.34259100  0.26452100  1
  O  O22  1  0.79959300  0.15740900  0.73547900  1
  O  O23  1  0.29959300  0.65740900  0.73547900  1
  O  O24  1  0.79959300  0.84259100  0.23547900  1
  O  O25  1  0.29959300  0.34259100  0.23547900  1
  O  O26  1  0.20040700  0.15740900  0.76452100  1
  O  O27  1  0.70040700  0.65740900  0.76452100  1
loop_
_geom_bond_atom_site_label_1
_geom_bond_atom_site_label_2
_geom_bond_distance
_geom_bond_site_symmetry_2
Ba0 O15 2.727883 1_566
Ba0 O26 2.765324 1_565
Ba0 O10 2.849282 1_566
Ba0 O17 2.862148 1_455
Ba0 O6 2.873432 1_555
Ba0 O20 2.875423 1_556
Ba0 O19 2.899345 1_555
Ba0 O2 2.984210 1_556
Ba1 O14 2.727883 1_556
Ba1 O27 2.765324 1_555
Ba1 O11 2.849282 1_556
Ba1 O16 2.862148 1_555
Ba1 O7 2.873432 1_655
Ba1 O21 2.875423 1_556
Ba1 O18 2.899345 1_555
Ba1 O3 2.984210 1_656
Ba2 O17 2.727883 1_544
Ba2 O24 2.765324 1_545
Ba2 O6 2.849282 1_544
Ba2 O15 2.862148 1_655
Ba2 O10 2.873432 1_555
Ba2 O22 2.875423 1_554
Ba2 O13 2.899345 1_555
Ba2 O0 2.984210 1_554
Ba3 O16 2.727883 1_554
Ba3 O25 2.765324 1_555
Ba3 O7 2.849282 1_554
Ba3 O14 2.862148 1_555
Ba3 O11 2.873432 1_455
Ba3 O23 2.875423 1_554
Ba3 O12 2.899345 1_555
Ba3 O1 2.984210 1_554
Ba4 O13 2.727883 1_565
Ba4 O22 2.765324 1_565
Ba4 O8 2.849282 1_565
Ba4 O19 2.862148 1_655
Ba4 O4 2.873432 1_555
Ba4 O24 2.875423 1_555
Ba4 O17 2.899345 1_555
Ba4 O2 2.984210 1_555
Ba5 O12 2.727883 1_555
Ba5 O23 2.765324 1_555
Ba5 O9 2.849282 1_555
Ba5 O18 2.862148 1_555
Ba5 O5 2.873432 1_455
Ba5 O25 2.875423 1_555
Ba5 O16 2.899345 1_555
Ba5 O3 2.984210 1_555
Ba6 O19 2.727883 1_545
Ba6 O20 2.765324 1_545
Ba6 O4 2.849282 1_545
Ba6 O13 2.862148 1_455
Ba6 O8 2.873432 1_555
Ba6 O26 2.875423 1_555
Ba6 O15 2.899345 1_555
Ba6 O0 2.984210 1_555
Ba7 O18 2.727883 1_555
Ba7 O21 2.765324 1_555
Ba7 O5 2.849282 1_555
Ba7 O12 2.862148 1_555
Ba7 O9 2.873432 1_655
Ba7 O27 2.875423 1_555
Ba7 O14 2.899345 1_555
Ba7 O1 2.984210 1_655
Co0 O11 1.984266 1_455
Co0 O9 1.984266 1_555
Co0 O20 1.996676 1_555
Co0 O24 1.996676 1_455
Co1 O7 1.984266 1_555
Co1 O5 1.984266 1_455
Co1 O22 1.996676 1_455
Co1 O26 1.996676 1_555
Co2 O10 1.984266 1_555
Co2 O8 1.984266 1_555
Co2 O21 1.996676 1_555
Co2 O25 1.996676 1_555
Co3 O6 1.984266 1_555
Co3 O4 1.984266 1_555
Co3 O23 1.996676 1_555
Co3 O27 1.996676 1_555
O0 Si6 1.692460 1_555
O0 Si2 1.692461 1_555
O1 Si7 1.692460 1_555
O1 Si3 1.692461 1_455
O2 Si4 1.692460 1_555
O2 Si0 1.692461 1_555
O3 Si5 1.692460 1_455
O3 Si1 1.692461 1_555
O4 Si4 1.647997 1_555
O5 Si5 1.647997 1_555
O6 Si0 1.647997 1_556
O7 Si1 1.647997 1_556
O8 Si6 1.647997 1_555
O9 Si7 1.647997 1_555
O10 Si2 1.647997 1_554
O11 Si3 1.647997 1_554
O12 Si4 1.622041 1_555
O13 Si5 1.622041 1_555
O14 Si0 1.622041 1_555
O15 Si1 1.622041 1_555
O16 Si2 1.622041 1_555
O17 Si3 1.622041 1_555
O18 Si6 1.622041 1_555
O19 Si7 1.622041 1_555
O20 Si4 1.650171 1_555
O21 Si5 1.650171 1_555
O22 Si6 1.650171 1_555
O23 Si7 1.650171 1_555
O24 Si0 1.650171 1_555
O25 Si1 1.650171 1_555
O26 Si2 1.650171 1_555
O27 Si3 1.650171 1_555
