# generated using pymatgen
data_HoTe2ClO5
_symmetry_space_group_name_H-M   'P 1'
_cell_length_a   7.66287600
_cell_length_b   8.01516234
_cell_length_c   10.41224444
_cell_angle_alpha   100.79589846
_cell_angle_beta   99.18848336
_cell_angle_gamma   91.96897774
_symmetry_Int_Tables_number   1
_chemical_formula_structural   HoTe2ClO5
_chemical_formula_sum   'Ho4 Te8 Cl4 O20'
_cell_volume   618.76849557
_cell_formula_units_Z   4
loop_
 _symmetry_equiv_pos_site_id
 _symmetry_equiv_pos_as_xyz
  1  'x, y, z'
loop_
 _atom_site_type_symbol
 _atom_site_label
 _atom_site_symmetry_multiplicity
 _atom_site_fract_x
 _atom_site_fract_y
 _atom_site_fract_z
 _atom_site_occupancy
  Ho  Ho0  1  0.26199000  0.51193300  0.05272200  1
  Ho  Ho1  1  0.75464300  0.00699500  0.02037900  1
  Ho  Ho2  1  0.73801000  0.48806700  0.94727800  1
  Ho  Ho3  1  0.24535700  0.99300500  0.97962100  1
  Te  Te0  1  0.05490300  0.24475100  0.74171900  1
  Te  Te1  1  0.94509700  0.75524900  0.25828100  1
  Te  Te2  1  0.32882900  0.62298100  0.74059800  1
  Te  Te3  1  0.50357100  0.07614100  0.73764400  1
  Te  Te4  1  0.12340900  0.20754800  0.26276300  1
  Te  Te5  1  0.67117100  0.37701900  0.25940200  1
  Te  Te6  1  0.49642900  0.92385900  0.26235600  1
  Te  Te7  1  0.87659100  0.79245200  0.73723700  1
  Cl  Cl0  1  0.67013400  0.42550500  0.66144000  1
  Cl  Cl1  1  0.32986600  0.57449500  0.33856000  1
  Cl  Cl2  1  0.83708500  0.10705800  0.41689900  1
  Cl  Cl3  1  0.16291500  0.89294200  0.58310100  1
  O  O0  1  0.82538500  0.58698500  0.34016500  1
  O  O1  1  0.43894600  0.54492400  0.89224700  1
  O  O2  1  0.78490800  0.74361800  0.88772900  1
  O  O3  1  0.67172300  0.91369800  0.66323400  1
  O  O4  1  0.56105400  0.45507600  0.10775300  1
  O  O5  1  0.27521500  0.19584300  0.84332700  1
  O  O6  1  0.72478500  0.80415700  0.15667300  1
  O  O7  1  0.98796900  0.59796200  0.10883400  1
  O  O8  1  0.84518200  0.27529300  0.15830500  1
  O  O9  1  0.66783300  0.20263400  0.88492000  1
  O  O10  1  0.01203100  0.40203800  0.89116600  1
  O  O11  1  0.17461500  0.41301500  0.65983500  1
  O  O12  1  0.32827700  0.08630200  0.33676600  1
  O  O13  1  0.53319500  0.07662100  0.14238400  1
  O  O14  1  0.97013200  0.00680300  0.85577900  1
  O  O15  1  0.46680500  0.92337900  0.85761600  1
  O  O16  1  0.21509200  0.25638200  0.11227100  1
  O  O17  1  0.15481800  0.72470700  0.84169500  1
  O  O18  1  0.33216700  0.79736600  0.11508000  1
  O  O19  1  0.02986800  0.99319700  0.14422100  1
loop_
_geom_bond_atom_site_label_1
_geom_bond_atom_site_label_2
_geom_bond_distance
_geom_bond_site_symmetry_2
Ho0 O18 2.278645 1_555
Ho0 O16 2.281538 1_555
Ho0 O4 2.353310 1_555
Ho0 O1 2.359033 1_554
Ho0 O7 2.359300 1_455
Ho0 O10 2.360992 1_554
Ho1 O13 2.300592 1_555
Ho1 O19 2.307346 1_645
Ho1 O2 2.336980 1_544
Ho1 O9 2.343347 1_554
Ho1 O8 2.364435 1_555
Ho1 O6 2.377369 1_545
Ho1 O15 2.542709 1_544
Ho1 O14 2.562612 1_554
Ho2 O9 2.278645 1_555
Ho2 O2 2.281538 1_555
Ho2 O1 2.353310 1_555
Ho2 O4 2.359033 1_556
Ho2 O10 2.359300 1_655
Ho2 O7 2.360992 1_556
Ho3 O15 2.300592 1_555
Ho3 O14 2.307346 1_465
Ho3 O16 2.336980 1_566
Ho3 O18 2.343347 1_556
Ho3 O17 2.364435 1_555
Ho3 O5 2.377369 1_565
Ho3 O13 2.542709 1_566
Ho3 O19 2.562612 1_556
Cl0 Ho2 2.882437 1_555
Cl1 Ho0 2.882437 1_555
Cl2 Te6 3.011578 1_545
Cl2 Te4 3.086383 1_655
Cl2 Te5 3.136893 1_555
Cl2 Te1 3.196300 1_545
Cl3 Te3 3.011578 1_565
Cl3 Te7 3.086383 1_455
Cl3 Te2 3.136893 1_555
Cl3 Te0 3.196300 1_565
O0 Te5 1.987869 1_555
O0 Te1 1.995709 1_555
O1 Te2 1.891441 1_555
O2 Te7 1.914315 1_555
O3 Te7 2.000422 1_555
O3 Te3 2.003001 1_565
O4 Te5 1.891441 1_555
O5 Te0 1.937393 1_555
O5 Te3 2.351216 1_555
O6 Te1 1.937393 1_555
O6 Te6 2.351216 1_555
O7 Te1 1.890884 1_555
O8 Te5 1.937094 1_555
O8 Te4 2.362950 1_655
O9 Te3 1.917618 1_555
O10 Te0 1.890884 1_555
O11 Te2 1.987869 1_555
O11 Te0 1.995709 1_555
O12 Te4 2.000422 1_555
O12 Te6 2.003001 1_545
O13 Te6 1.949534 1_545
O13 Te5 2.591191 1_555
O14 Te7 1.956372 1_545
O14 Te0 2.545499 1_655
O15 Te3 1.949534 1_565
O15 Te2 2.591191 1_555
O16 Te4 1.914315 1_555
O17 Te2 1.937094 1_555
O17 Te7 2.362950 1_455
O18 Te6 1.917618 1_555
O19 Te4 1.956372 1_565
O19 Te1 2.545499 1_455
