# generated using pymatgen
data_BaCaSiO4
_symmetry_space_group_name_H-M   'P 1'
_cell_length_a   11.38265801
_cell_length_b   11.38265801
_cell_length_c   7.30520900
_cell_angle_alpha   90.00000000
_cell_angle_beta   90.00000000
_cell_angle_gamma   120.00000005
_symmetry_Int_Tables_number   1
_chemical_formula_structural   BaCaSiO4
_chemical_formula_sum   'Ba8 Ca8 Si8 O32'
_cell_volume   819.69191663
_cell_formula_units_Z   8
loop_
 _symmetry_equiv_pos_site_id
 _symmetry_equiv_pos_as_xyz
  1  'x, y, z'
loop_
 _atom_site_type_symbol
 _atom_site_label
 _atom_site_symmetry_multiplicity
 _atom_site_fract_x
 _atom_site_fract_y
 _atom_site_fract_z
 _atom_site_occupancy
  Ba  Ba0  1  0.66604200  0.83302100  0.95481000  1
  Ba  Ba1  1  0.33395800  0.16697900  0.45481000  1
  Ba  Ba2  1  0.83302100  0.16697900  0.45481000  1
  Ba  Ba3  1  0.16697900  0.33395800  0.95481000  1
  Ba  Ba4  1  0.16697900  0.83302100  0.95481000  1
  Ba  Ba5  1  0.66666700  0.33333300  0.14288000  1
  Ba  Ba6  1  0.83302100  0.66604200  0.45481000  1
  Ba  Ba7  1  0.33333300  0.66666700  0.64288000  1
  Ca  Ca0  1  0.47082200  0.94164400  0.27771000  1
  Ca  Ca1  1  0.52917800  0.05835600  0.77771000  1
  Ca  Ca2  1  0.94164400  0.47082200  0.77771000  1
  Ca  Ca3  1  0.00000000  0.00000000  0.25160400  1
  Ca  Ca4  1  0.00000000  0.00000000  0.75160400  1
  Ca  Ca5  1  0.47082200  0.52917800  0.27771000  1
  Ca  Ca6  1  0.05835600  0.52917800  0.27771000  1
  Ca  Ca7  1  0.52917800  0.47082200  0.77771000  1
  Si  Si0  1  0.34260300  0.17130100  0.00542100  1
  Si  Si1  1  0.17130100  0.82869900  0.50542100  1
  Si  Si2  1  0.33333300  0.66666700  0.07021100  1
  Si  Si3  1  0.82869900  0.17130100  0.00542100  1
  Si  Si4  1  0.65739700  0.82869900  0.50542100  1
  Si  Si5  1  0.17130100  0.34260300  0.50542100  1
  Si  Si6  1  0.82869900  0.65739700  0.00542100  1
  Si  Si7  1  0.66666700  0.33333300  0.57021100  1
  O  O0  1  0.37399300  0.18699700  0.78789700  1
  O  O1  1  0.81300300  0.62600700  0.78789700  1
  O  O2  1  0.18699700  0.81300300  0.28789700  1
  O  O3  1  0.58794400  0.17588900  0.48821500  1
  O  O4  1  0.58794400  0.41205600  0.48821500  1
  O  O5  1  0.91265700  0.82531400  0.03943000  1
  O  O6  1  0.91265700  0.08734300  0.03943000  1
  O  O7  1  0.91438800  0.59045000  0.09935200  1
  O  O8  1  0.59045000  0.91438800  0.59935200  1
  O  O9  1  0.17468600  0.08734300  0.03943000  1
  O  O10  1  0.66666700  0.33333300  0.79275200  1
  O  O11  1  0.32393800  0.40955000  0.59935200  1
  O  O12  1  0.33333300  0.66666700  0.29275200  1
  O  O13  1  0.82531400  0.91265700  0.53943000  1
  O  O14  1  0.67606200  0.08561200  0.09935200  1
  O  O15  1  0.62600700  0.81300300  0.28789700  1
  O  O16  1  0.67606200  0.59045000  0.09935200  1
  O  O17  1  0.41205600  0.58794400  0.98821500  1
  O  O18  1  0.40955000  0.08561200  0.09935200  1
  O  O19  1  0.91438800  0.32393800  0.09935200  1
  O  O20  1  0.32393800  0.91438800  0.59935200  1
  O  O21  1  0.81300300  0.18699700  0.78789700  1
  O  O22  1  0.08734300  0.17468600  0.53943000  1
  O  O23  1  0.17588900  0.58794400  0.98821500  1
  O  O24  1  0.08561200  0.40955000  0.59935200  1
  O  O25  1  0.08561200  0.67606200  0.59935200  1
  O  O26  1  0.82411100  0.41205600  0.48821500  1
  O  O27  1  0.08734300  0.91265700  0.53943000  1
  O  O28  1  0.18699700  0.37399300  0.28789700  1
  O  O29  1  0.59045000  0.67606200  0.59935200  1
  O  O30  1  0.41205600  0.82411100  0.98821500  1
  O  O31  1  0.40955000  0.32393800  0.09935200  1
loop_
_geom_bond_atom_site_label_1
_geom_bond_atom_site_label_2
_geom_bond_distance
_geom_bond_site_symmetry_2
Ba0 O15 2.465067 1_556
Ba0 O30 2.852143 1_555
Ba0 O17 2.852148 1_555
Ba0 O6 2.918234 1_566
Ba0 O5 2.918234 1_556
Ba0 O14 3.011072 1_566
Ba0 O16 3.011072 1_556
Ba0 O29 3.022894 1_555
Ba0 O8 3.022894 1_555
Ba1 O0 2.465067 1_555
Ba1 O3 2.852143 1_555
Ba1 O4 2.852148 1_555
Ba1 O27 2.918234 1_545
Ba1 O22 2.918234 1_555
Ba1 O20 3.011072 1_545
Ba1 O11 3.011072 1_555
Ba1 O31 3.022894 1_555
Ba1 O18 3.022894 1_555
Ba2 O21 2.465068 1_555
Ba2 O3 2.852154 1_555
Ba2 O26 2.852154 1_555
Ba2 O22 2.918234 1_655
Ba2 O13 2.918234 1_545
Ba2 O8 3.011072 1_545
Ba2 O24 3.011072 1_655
Ba2 O19 3.022894 1_555
Ba2 O14 3.022894 1_555
Ba3 O28 2.465067 1_556
Ba3 O23 2.852143 1_555
Ba3 O17 2.852148 1_555
Ba3 O6 2.918234 1_456
Ba3 O9 2.918234 1_556
Ba3 O19 3.011072 1_456
Ba3 O31 3.011072 1_556
Ba3 O11 3.022894 1_555
Ba3 O24 3.022894 1_555
Ba4 O2 2.465068 1_556
Ba4 O23 2.852154 1_555
Ba4 O30 2.852154 1_555
Ba4 O9 2.918234 1_566
Ba4 O5 2.918234 1_456
Ba4 O18 3.011072 1_566
Ba4 O7 3.011072 1_456
Ba4 O20 3.022894 1_555
Ba4 O25 3.022894 1_555
Ba5 O10 2.557758 1_554
Ba5 O14 2.892219 1_555
Ba5 O19 2.892219 1_555
Ba5 O18 2.892225 1_555
Ba5 O7 2.892225 1_555
Ba5 O31 2.892230 1_555
Ba5 O16 2.892230 1_555
Ba5 O26 2.961932 1_555
Ba5 O3 2.961932 1_555
Ba5 O4 2.961942 1_555
Ba6 O1 2.465067 1_555
Ba6 O26 2.852143 1_555
Ba6 O4 2.852148 1_555
Ba6 O27 2.918234 1_655
Ba6 O13 2.918234 1_555
Ba6 O25 3.011072 1_655
Ba6 O29 3.011072 1_555
Ba6 O16 3.022894 1_555
Ba6 O7 3.022894 1_555
Ba7 O12 2.557758 1_555
Ba7 O25 2.892219 1_555
Ba7 O20 2.892219 1_555
Ba7 O24 2.892225 1_555
Ba7 O8 2.892225 1_555
Ba7 O11 2.892230 1_555
Ba7 O29 2.892230 1_555
Ba7 O30 2.961932 1_555
Ba7 O23 2.961932 1_555
Ba7 O17 2.961942 1_555
Ca0 O30 2.411395 1_554
Ca0 O14 2.452032 1_565
Ca0 O18 2.452032 1_565
Ca0 O12 2.712859 1_555
Ca0 O3 2.774305 1_565
Ca0 O2 2.802917 1_555
Ca0 O15 2.802927 1_555
Ca0 O20 2.809592 1_555
Ca0 O8 2.809592 1_555
Ca1 O3 2.411395 1_555
Ca1 O20 2.452032 1_545
Ca1 O8 2.452032 1_545
Ca1 O10 2.712859 1_555
Ca1 O30 2.774305 1_545
Ca1 O21 2.802917 1_555
Ca1 O0 2.802927 1_555
Ca1 O14 2.809592 1_556
Ca1 O18 2.809592 1_556
Ca2 O26 2.411395 1_555
Ca2 O25 2.452032 1_655
Ca2 O24 2.452032 1_655
Ca2 O10 2.712859 1_555
Ca2 O23 2.774305 1_655
Ca2 O21 2.802917 1_555
Ca2 O1 2.802927 1_555
Ca2 O19 2.809592 1_556
Ca2 O7 2.809592 1_556
Ca3 O9 2.316829 1_555
Ca3 O5 2.316829 1_445
Ca3 O6 2.316829 1_455
Ca3 O22 2.717779 1_555
Ca3 O13 2.717779 1_445
Ca3 O27 2.717779 1_545
Ca4 O22 2.316829 1_555
Ca4 O13 2.316829 1_445
Ca4 O27 2.316829 1_545
Ca4 O9 2.717779 1_556
Ca4 O5 2.717779 1_446
Ca4 O6 2.717779 1_456
Ca5 O17 2.411391 1_554
Ca5 O31 2.452032 1_555
Ca5 O16 2.452032 1_555
Ca5 O12 2.712869 1_555
Ca5 O4 2.774296 1_555
Ca5 O28 2.802917 1_555
Ca5 O15 2.802917 1_555
Ca5 O11 2.809592 1_555
Ca5 O29 2.809592 1_555
Ca6 O23 2.411395 1_554
Ca6 O19 2.452032 1_455
Ca6 O7 2.452032 1_455
Ca6 O12 2.712859 1_555
Ca6 O26 2.774305 1_455
Ca6 O2 2.802917 1_555
Ca6 O28 2.802927 1_555
Ca6 O25 2.809592 1_555
Ca6 O24 2.809592 1_555
Ca7 O4 2.411391 1_555
Ca7 O11 2.452032 1_555
Ca7 O29 2.452032 1_555
Ca7 O10 2.712869 1_555
Ca7 O17 2.774296 1_555
Ca7 O0 2.802917 1_555
Ca7 O1 2.802917 1_555
Ca7 O31 2.809592 1_556
Ca7 O16 2.809592 1_556
O0 Si0 1.618905 1_556
O1 Si6 1.618905 1_556
O2 Si1 1.618909 1_555
O3 Si7 1.663610 1_555
O4 Si7 1.663629 1_555
O5 Si6 1.673811 1_555
O6 Si3 1.673802 1_555
O7 Si6 1.657153 1_555
O8 Si4 1.657153 1_555
O9 Si0 1.673811 1_555
O10 Si7 1.625709 1_555
O11 Si5 1.657162 1_555
O12 Si2 1.625709 1_555
O13 Si4 1.673811 1_555
O14 Si3 1.657162 1_555
O15 Si4 1.618905 1_555
O16 Si6 1.657162 1_555
O17 Si2 1.663629 1_556
O18 Si0 1.657153 1_555
O19 Si3 1.657162 1_555
O20 Si1 1.657162 1_555
O21 Si3 1.618909 1_556
O22 Si5 1.673811 1_555
O23 Si2 1.663610 1_556
O24 Si5 1.657153 1_555
O25 Si1 1.657162 1_555
O26 Si7 1.663610 1_555
O27 Si1 1.673802 1_555
O28 Si5 1.618905 1_555
O29 Si4 1.657162 1_555
O30 Si2 1.663610 1_556
O31 Si0 1.657162 1_555
