# generated using pymatgen
data_Cs2Ca2Be3F12
_symmetry_space_group_name_H-M   'P 1'
_cell_length_a   10.81764600
_cell_length_b   10.81764600
_cell_length_c   10.81764600
_cell_angle_alpha   90.00000000
_cell_angle_beta   90.00000000
_cell_angle_gamma   90.00000000
_symmetry_Int_Tables_number   1
_chemical_formula_structural   Cs2Ca2Be3F12
_chemical_formula_sum   'Cs8 Ca8 Be12 F48'
_cell_volume   1265.89678257
_cell_formula_units_Z   4
loop_
 _symmetry_equiv_pos_site_id
 _symmetry_equiv_pos_as_xyz
  1  'x, y, z'
loop_
 _atom_site_type_symbol
 _atom_site_label
 _atom_site_symmetry_multiplicity
 _atom_site_fract_x
 _atom_site_fract_y
 _atom_site_fract_z
 _atom_site_occupancy
  Cs  Cs0  1  0.93532400  0.56467600  0.43532400  1
  Cs  Cs1  1  0.43532400  0.93532400  0.56467600  1
  Cs  Cs2  1  0.56467600  0.43532400  0.93532400  1
  Cs  Cs3  1  0.20305900  0.70305900  0.79694100  1
  Cs  Cs4  1  0.79694100  0.20305900  0.70305900  1
  Cs  Cs5  1  0.29694100  0.29694100  0.29694100  1
  Cs  Cs6  1  0.70305900  0.79694100  0.20305900  1
  Cs  Cs7  1  0.06467600  0.06467600  0.06467600  1
  Ca  Ca0  1  0.91765300  0.41765300  0.08234700  1
  Ca  Ca1  1  0.58234700  0.58234700  0.58234700  1
  Ca  Ca2  1  0.08234700  0.91765300  0.41765300  1
  Ca  Ca3  1  0.34472500  0.65527500  0.15527500  1
  Ca  Ca4  1  0.65527500  0.15527500  0.34472500  1
  Ca  Ca5  1  0.15527500  0.34472500  0.65527500  1
  Ca  Ca6  1  0.84472500  0.84472500  0.84472500  1
  Ca  Ca7  1  0.41765300  0.08234700  0.91765300  1
  Be  Be0  1  0.73590600  0.12523800  0.03179900  1
  Be  Be1  1  0.46820100  0.26409400  0.62523800  1
  Be  Be2  1  0.53179900  0.76409400  0.87476200  1
  Be  Be3  1  0.23590600  0.37476200  0.96820100  1
  Be  Be4  1  0.96820100  0.23590600  0.37476200  1
  Be  Be5  1  0.03179900  0.73590600  0.12523800  1
  Be  Be6  1  0.87476200  0.53179900  0.76409400  1
  Be  Be7  1  0.26409400  0.62523800  0.46820100  1
  Be  Be8  1  0.37476200  0.96820100  0.23590600  1
  Be  Be9  1  0.76409400  0.87476200  0.53179900  1
  Be  Be10  1  0.62523800  0.46820100  0.26409400  1
  Be  Be11  1  0.12523800  0.03179900  0.73590600  1
  F  F0  1  0.48647000  0.18720700  0.74733800  1
  F  F1  1  0.83057400  0.24465400  0.41879200  1
  F  F2  1  0.18720700  0.74733800  0.48647000  1
  F  F3  1  0.58120800  0.33057400  0.25534600  1
  F  F4  1  0.98647000  0.31279300  0.25266200  1
  F  F5  1  0.70567800  0.97598700  0.44510900  1
  F  F6  1  0.75534600  0.91879200  0.66942600  1
  F  F7  1  0.55489100  0.20567800  0.52401300  1
  F  F8  1  0.99510500  0.59902200  0.15028500  1
  F  F9  1  0.20567800  0.52401300  0.55489100  1
  F  F10  1  0.24465400  0.41879200  0.83057400  1
  F  F11  1  0.91879200  0.66942600  0.75534600  1
  F  F12  1  0.97598700  0.44510900  0.70567800  1
  F  F13  1  0.31279300  0.25266200  0.98647000  1
  F  F14  1  0.34971500  0.00489500  0.09902200  1
  F  F15  1  0.29432200  0.47598700  0.05489100  1
  F  F16  1  0.47598700  0.05489100  0.29432200  1
  F  F17  1  0.00489500  0.09902200  0.34971500  1
  F  F18  1  0.25266200  0.98647000  0.31279300  1
  F  F19  1  0.74733800  0.48647000  0.18720700  1
  F  F20  1  0.01353000  0.81279300  0.24733800  1
  F  F21  1  0.49510500  0.90097800  0.84971500  1
  F  F22  1  0.66942600  0.75534600  0.91879200  1
  F  F23  1  0.09902200  0.34971500  0.00489500  1
  F  F24  1  0.40097800  0.65028500  0.50489500  1
  F  F25  1  0.25534600  0.58120800  0.33057400  1
  F  F26  1  0.08120800  0.16942600  0.74465400  1
  F  F27  1  0.05489100  0.29432200  0.47598700  1
  F  F28  1  0.84971500  0.49510500  0.90097800  1
  F  F29  1  0.79432200  0.02401300  0.94510900  1
  F  F30  1  0.44510900  0.70567800  0.97598700  1
  F  F31  1  0.59902200  0.15028500  0.99510500  1
  F  F32  1  0.52401300  0.55489100  0.20567800  1
  F  F33  1  0.50489500  0.40097800  0.65028500  1
  F  F34  1  0.15028500  0.99510500  0.59902200  1
  F  F35  1  0.68720700  0.75266200  0.51353000  1
  F  F36  1  0.33057400  0.25534600  0.58120800  1
  F  F37  1  0.02401300  0.94510900  0.79432200  1
  F  F38  1  0.90097800  0.84971500  0.49510500  1
  F  F39  1  0.81279300  0.24733800  0.01353000  1
  F  F40  1  0.74465400  0.08120800  0.16942600  1
  F  F41  1  0.41879200  0.83057400  0.24465400  1
  F  F42  1  0.75266200  0.51353000  0.68720700  1
  F  F43  1  0.24733800  0.01353000  0.81279300  1
  F  F44  1  0.16942600  0.74465400  0.08120800  1
  F  F45  1  0.94510900  0.79432200  0.02401300  1
  F  F46  1  0.65028500  0.50489500  0.40097800  1
  F  F47  1  0.51353000  0.68720700  0.75266200  1
loop_
_geom_bond_atom_site_label_1
_geom_bond_atom_site_label_2
_geom_bond_distance
_geom_bond_site_symmetry_2
Cs0 F46 3.172368 1_555
Cs0 F38 3.172368 1_555
Cs0 F8 3.172368 1_555
Cs0 F12 3.227958 1_555
Cs0 F27 3.227958 1_655
Cs0 F9 3.227958 1_655
Cs0 F2 3.411014 1_655
Cs0 F42 3.411014 1_555
Cs0 F4 3.411014 1_555
Cs0 F35 3.472059 1_555
Cs0 F19 3.472059 1_555
Cs0 F20 3.472059 1_655
Cs0 F11 3.647006 1_555
Cs0 F25 3.647006 1_655
Cs0 F1 3.647006 1_555
Cs1 F24 3.172368 1_555
Cs1 F21 3.172368 1_555
Cs1 F34 3.172368 1_555
Cs1 F5 3.227958 1_555
Cs1 F16 3.227958 1_565
Cs1 F7 3.227958 1_565
Cs1 F0 3.411014 1_565
Cs1 F35 3.411014 1_555
Cs1 F18 3.411014 1_555
Cs1 F47 3.472059 1_555
Cs1 F2 3.472059 1_555
Cs1 F43 3.472059 1_565
Cs1 F36 3.647006 1_565
Cs1 F6 3.647006 1_555
Cs1 F41 3.647006 1_555
Cs2 F33 3.172368 1_555
Cs2 F28 3.172368 1_555
Cs2 F31 3.172368 1_555
Cs2 F30 3.227958 1_555
Cs2 F15 3.227958 1_556
Cs2 F32 3.227958 1_556
Cs2 F47 3.411014 1_555
Cs2 F19 3.411014 1_556
Cs2 F13 3.411014 1_555
Cs2 F42 3.472059 1_555
Cs2 F0 3.472059 1_555
Cs2 F39 3.472059 1_556
Cs2 F3 3.647006 1_556
Cs2 F22 3.647006 1_555
Cs2 F10 3.647006 1_555
Cs3 F10 3.129069 1_555
Cs3 F44 3.129069 1_556
Cs3 F11 3.129069 1_455
Cs3 F30 3.257037 1_555
Cs3 F37 3.257037 1_555
Cs3 F9 3.257037 1_555
Cs3 F2 3.396881 1_555
Cs3 F43 3.396881 1_565
Cs3 F47 3.396881 1_555
Cs4 F1 3.129069 1_555
Cs4 F26 3.129069 1_655
Cs4 F6 3.129069 1_545
Cs4 F12 3.257037 1_555
Cs4 F29 3.257037 1_555
Cs4 F7 3.257037 1_555
Cs4 F0 3.396881 1_555
Cs4 F39 3.396881 1_556
Cs4 F42 3.396881 1_555
Cs5 F3 3.129069 1_555
Cs5 F25 3.129069 1_555
Cs5 F36 3.129069 1_555
Cs5 F27 3.257037 1_555
Cs5 F16 3.257037 1_555
Cs5 F15 3.257037 1_555
Cs5 F18 3.396881 1_545
Cs5 F4 3.396881 1_455
Cs5 F13 3.396881 1_554
Cs6 F41 3.129069 1_555
Cs6 F40 3.129069 1_565
Cs6 F22 3.129069 1_554
Cs6 F5 3.257037 1_555
Cs6 F45 3.257037 1_555
Cs6 F32 3.257037 1_555
Cs6 F19 3.396881 1_555
Cs6 F20 3.396881 1_655
Cs6 F35 3.396881 1_555
Cs7 F17 3.172368 1_555
Cs7 F23 3.172368 1_555
Cs7 F14 3.172368 1_555
Cs7 F37 3.227958 1_544
Cs7 F29 3.227958 1_454
Cs7 F45 3.227958 1_445
Cs7 F43 3.411014 1_554
Cs7 F20 3.411014 1_545
Cs7 F39 3.411014 1_455
Cs7 F13 3.472059 1_554
Cs7 F18 3.472059 1_545
Cs7 F4 3.472059 1_455
Cs7 F44 3.647006 1_545
Cs7 F26 3.647006 1_554
Cs7 F40 3.647006 1_455
Ca0 F28 2.256435 1_554
Ca0 F8 2.256435 1_555
Ca0 F23 2.256435 1_655
Ca0 F39 2.288094 1_555
Ca0 F19 2.288094 1_555
Ca0 F4 2.288094 1_555
Ca1 F33 2.256435 1_555
Ca1 F46 2.256435 1_555
Ca1 F24 2.256435 1_555
Ca1 F47 2.288094 1_555
Ca1 F35 2.288094 1_555
Ca1 F42 2.288094 1_555
Ca2 F38 2.256435 1_455
Ca2 F34 2.256435 1_555
Ca2 F17 2.256435 1_565
Ca2 F20 2.288094 1_555
Ca2 F2 2.288094 1_555
Ca2 F18 2.288094 1_555
Ca3 F41 2.274390 1_555
Ca3 F44 2.274390 1_555
Ca3 F25 2.274390 1_555
Ca3 F32 2.288683 1_555
Ca3 F15 2.288683 1_555
Ca3 F30 2.288683 1_554
Ca4 F1 2.274390 1_555
Ca4 F40 2.274390 1_555
Ca4 F3 2.274390 1_555
Ca4 F7 2.288683 1_555
Ca4 F16 2.288683 1_555
Ca4 F5 2.288683 1_545
Ca5 F10 2.274390 1_555
Ca5 F26 2.274390 1_555
Ca5 F36 2.274390 1_555
Ca5 F9 2.288683 1_555
Ca5 F27 2.288683 1_555
Ca5 F12 2.288683 1_455
Ca6 F6 2.274390 1_555
Ca6 F22 2.274390 1_555
Ca6 F11 2.274390 1_555
Ca6 F37 2.288683 1_655
Ca6 F45 2.288683 1_556
Ca6 F29 2.288683 1_565
Ca7 F21 2.256435 1_545
Ca7 F31 2.256435 1_555
Ca7 F14 2.256435 1_556
Ca7 F43 2.288094 1_555
Ca7 F0 2.288094 1_555
Ca7 F13 2.288094 1_555
Be0 F31 1.556803 1_554
Be0 F40 1.565996 1_555
Be0 F39 1.573355 1_555
Be0 F29 1.574110 1_554
Be1 F33 1.556803 1_555
Be1 F36 1.565996 1_555
Be1 F0 1.573355 1_555
Be1 F7 1.574110 1_555
Be2 F21 1.556803 1_555
Be2 F22 1.565996 1_555
Be2 F47 1.573355 1_555
Be2 F30 1.574110 1_555
Be3 F23 1.556803 1_556
Be3 F10 1.565996 1_555
Be3 F13 1.573355 1_555
Be3 F15 1.574110 1_556
Be4 F17 1.556803 1_655
Be4 F1 1.565996 1_555
Be4 F4 1.573355 1_555
Be4 F27 1.574110 1_655
Be5 F8 1.556803 1_455
Be5 F44 1.565996 1_555
Be5 F20 1.573355 1_555
Be5 F45 1.574110 1_455
Be6 F28 1.556803 1_555
Be6 F11 1.565996 1_555
Be6 F42 1.573355 1_555
Be6 F12 1.574110 1_555
Be7 F24 1.556803 1_555
Be7 F25 1.565996 1_555
Be7 F2 1.573355 1_555
Be7 F9 1.574110 1_555
Be8 F14 1.556803 1_565
Be8 F41 1.565996 1_555
Be8 F18 1.573355 1_555
Be8 F16 1.574110 1_565
Be9 F38 1.556803 1_555
Be9 F6 1.565996 1_555
Be9 F35 1.573355 1_555
Be9 F5 1.574110 1_555
Be10 F46 1.556803 1_555
Be10 F3 1.565996 1_555
Be10 F19 1.573355 1_555
Be10 F32 1.574110 1_555
Be11 F34 1.556803 1_545
Be11 F26 1.565996 1_555
Be11 F43 1.573355 1_555
Be11 F37 1.574110 1_545
