# generated using pymatgen
data_SmTiClO3
_symmetry_space_group_name_H-M   'P 1'
_cell_length_a   5.30972736
_cell_length_b   5.30972736
_cell_length_c   10.16217241
_cell_angle_alpha   74.57740877
_cell_angle_beta   74.57740877
_cell_angle_gamma   43.95743361
_symmetry_Int_Tables_number   1
_chemical_formula_structural   SmTiClO3
_chemical_formula_sum   'Sm2 Ti2 Cl2 O6'
_cell_volume   190.51625433
_cell_formula_units_Z   2
loop_
 _symmetry_equiv_pos_site_id
 _symmetry_equiv_pos_as_xyz
  1  'x, y, z'
loop_
 _atom_site_type_symbol
 _atom_site_label
 _atom_site_symmetry_multiplicity
 _atom_site_fract_x
 _atom_site_fract_y
 _atom_site_fract_z
 _atom_site_occupancy
  Sm  Sm0  1  0.22015900  0.22015900  0.79428300  1
  Sm  Sm1  1  0.77984100  0.77984100  0.20571700  1
  Ti  Ti0  1  0.62034400  0.62034400  0.56621500  1
  Ti  Ti1  1  0.37965600  0.37965600  0.43378500  1
  Cl  Cl0  1  0.88654300  0.88654300  0.90451200  1
  Cl  Cl1  1  0.11345700  0.11345700  0.09548800  1
  O  O0  1  0.16772800  0.16772800  0.56144000  1
  O  O1  1  0.64881200  0.64881200  0.74115900  1
  O  O2  1  0.83227200  0.83227200  0.43856000  1
  O  O3  1  0.42343800  0.42343800  0.62134000  1
  O  O4  1  0.35118800  0.35118800  0.25884100  1
  O  O5  1  0.57656200  0.57656200  0.37866000  1
loop_
_geom_bond_atom_site_label_1
_geom_bond_atom_site_label_2
_geom_bond_distance
_geom_bond_site_symmetry_2
Cl0 Sm1 2.937427 1_556
Cl0 Sm0 2.990186 1_565
Cl0 Sm0 2.990186 1_655
Cl0 Sm0 3.152374 1_665
Cl1 Sm0 2.937427 1_554
Cl1 Sm1 2.990186 1_455
Cl1 Sm1 2.990186 1_545
Cl1 Sm1 3.152374 1_445
O0 Ti0 2.038673 1_545
O0 Ti0 2.038673 1_455
O0 Ti1 2.117921 1_555
O0 Sm0 2.562454 1_555
O1 Ti0 1.877515 1_555
O1 Sm0 2.225248 1_565
O1 Sm0 2.225248 1_655
O2 Ti1 2.038673 1_655
O2 Ti1 2.038673 1_565
O2 Ti0 2.117921 1_555
O2 Sm1 2.562454 1_555
O3 Ti0 1.857622 1_555
O3 Ti1 2.071213 1_555
O3 Sm0 2.253477 1_555
O4 Ti1 1.877515 1_555
O4 Sm1 2.225248 1_545
O4 Sm1 2.225248 1_455
O5 Ti1 1.857622 1_555
O5 Ti0 2.071213 1_555
O5 Sm1 2.253477 1_555
