# generated using pymatgen
data_Ho10Si17
_symmetry_space_group_name_H-M   'P 1'
_cell_length_a   6.66160762
_cell_length_b   8.20360592
_cell_length_c   10.93942168
_cell_angle_alpha   112.02349981
_cell_angle_beta   107.72386870
_cell_angle_gamma   90.00065790
_symmetry_Int_Tables_number   1
_chemical_formula_structural   Ho10Si17
_chemical_formula_sum   'Ho10 Si17'
_cell_volume   523.47055595
_cell_formula_units_Z   1
loop_
 _symmetry_equiv_pos_site_id
 _symmetry_equiv_pos_as_xyz
  1  'x, y, z'
loop_
 _atom_site_type_symbol
 _atom_site_label
 _atom_site_symmetry_multiplicity
 _atom_site_fract_x
 _atom_site_fract_y
 _atom_site_fract_z
 _atom_site_occupancy
  Ho  Ho0  1  0.56410903  0.05159819  0.60032856  1
  Ho  Ho1  1  0.36844055  0.35242297  0.20069946  1
  Ho  Ho2  1  0.16782506  0.15182690  0.79939785  1
  Ho  Ho3  1  0.96378405  0.45121786  0.39956802  1
  Ho  Ho4  1  0.16784321  0.64755282  0.79937827  1
  Ho  Ho5  1  0.96377669  0.94836395  0.39957509  1
  Ho  Ho6  1  0.36844426  0.84825668  0.20068572  1
  Ho  Ho7  1  0.56410215  0.54873873  0.60032855  1
  Ho  Ho8  1  0.76185812  0.24451613  -0.00012946  1
  Ho  Ho9  1  0.76186284  0.75534995  -0.00011545  1
  Si  Si0  1  0.50522860  0.89585873  0.79174147  1
  Si  Si1  1  0.08189072  0.11927731  0.23858557  1
  Si  Si2  1  0.18341476  0.80089271  0.60174929  1
  Si  Si3  1  0.89769669  0.30057551  0.60116849  1
  Si  Si4  1  0.50160665  0.39959995  0.79924219  1
  Si  Si5  1  0.84329630  0.88074549  0.76147789  1
  Si  Si6  1  0.71339097  0.10410740  0.20814916  1
  Si  Si7  1  0.58139972  0.19910659  0.39818603  1
  Si  Si8  1  0.29671457  0.69944889  0.39883273  1
  Si  Si9  1  0.43266070  -0.00005081  -0.00003230  1
  Si  Si10  1  0.66926843  0.71371470  0.42744035  1
  Si  Si11  1  0.70236962  0.60042558  0.20077784  1
  Si  Si12  1  0.08302016  -0.00000109  -0.00000481  1
  Si  Si13  1  0.39399249  0.50000545  0.00003585  1
  Si  Si14  1  0.24164550  0.28637126  0.57274838  1
  Si  Si15  1  0.03809337  0.58357083  0.16717074  1
  Si  Si16  1  0.87118580  0.41650730  0.83301453  1
loop_
_geom_bond_atom_site_label_1
_geom_bond_atom_site_label_2
_geom_bond_distance
_geom_bond_site_symmetry_2
Ho0 Si5 2.896228 1_545
Ho0 Si14 2.907952 1_555
Ho0 Si7 2.920532 1_555
Ho0 Si10 2.937010 1_545
Ho0 Si0 2.945715 1_545
Ho0 Si4 2.991871 1_555
Ho0 Si3 3.013907 1_555
Ho0 Si8 3.034950 1_545
Ho0 Si2 3.272543 1_545
Ho0 Si16 3.277206 1_555
Ho1 Si7 2.904067 1_555
Ho1 Si13 2.921324 1_555
Ho1 Si1 2.924019 1_555
Ho1 Si15 2.933151 1_555
Ho1 Si8 3.005616 1_555
Ho1 Si11 3.014150 1_555
Ho1 Si9 3.029202 1_555
Ho1 Si6 3.073662 1_555
Ho1 Si12 3.080905 1_555
Ho1 Si10 3.226909 1_555
Ho2 Si2 2.905564 1_545
Ho2 Si13 2.920731 1_556
Ho2 Si5 2.924606 1_445
Ho2 Si16 2.932334 1_455
Ho2 Si3 3.006394 1_455
Ho2 Si4 3.013378 1_555
Ho2 Si9 3.028610 1_556
Ho2 Si0 3.074279 1_545
Ho2 Si12 3.080687 1_556
Ho2 Si14 3.225269 1_555
Ho3 Si1 2.895305 1_655
Ho3 Si10 2.907116 1_555
Ho3 Si2 2.921070 1_655
Ho3 Si14 2.937775 1_655
Ho3 Si6 2.945681 1_555
Ho3 Si11 2.991756 1_555
Ho3 Si8 3.014774 1_655
Ho3 Si3 3.036438 1_555
Ho3 Si7 3.274058 1_555
Ho3 Si15 3.274692 1_655
Ho4 Si2 2.905745 1_555
Ho4 Si13 2.921014 1_556
Ho4 Si5 2.924889 1_455
Ho4 Si16 2.932423 1_455
Ho4 Si3 3.006278 1_455
Ho4 Si4 3.013463 1_555
Ho4 Si9 3.028201 1_566
Ho4 Si0 3.074019 1_555
Ho4 Si12 3.080857 1_566
Ho4 Si14 3.224969 1_555
Ho5 Si1 2.895198 1_665
Ho5 Si10 2.907162 1_555
Ho5 Si2 2.921015 1_655
Ho5 Si14 2.937564 1_665
Ho5 Si6 2.946133 1_565
Ho5 Si11 2.991301 1_555
Ho5 Si8 3.014557 1_655
Ho5 Si3 3.036129 1_565
Ho5 Si7 3.274127 1_565
Ho5 Si15 3.274877 1_655
Ho6 Si7 2.904251 1_565
Ho6 Si13 2.921194 1_555
Ho6 Si1 2.923993 1_565
Ho6 Si15 2.933228 1_555
Ho6 Si8 3.005376 1_555
Ho6 Si11 3.013655 1_555
Ho6 Si9 3.028863 1_565
Ho6 Si6 3.074008 1_565
Ho6 Si12 3.081057 1_565
Ho6 Si10 3.227085 1_555
Ho7 Si5 2.896169 1_555
Ho7 Si14 2.907953 1_555
Ho7 Si7 2.920344 1_555
Ho7 Si10 2.936989 1_555
Ho7 Si0 2.945430 1_555
Ho7 Si4 2.992223 1_555
Ho7 Si3 3.014119 1_555
Ho7 Si8 3.035369 1_555
Ho7 Si2 3.272687 1_555
Ho7 Si16 3.277393 1_555
Ho8 Si16 2.931520 1_554
Ho8 Si12 2.932810 1_655
Ho8 Si15 2.933239 1_655
Ho8 Si9 2.972787 1_555
Ho8 Si0 3.005574 1_544
Ho8 Si6 3.006411 1_555
Ho8 Si4 3.036234 1_554
Ho8 Si11 3.038094 1_555
Ho8 Si13 3.224630 1_555
Ho8 Si5 3.320505 1_544
Ho8 Si1 3.323045 1_655
Ho9 Si16 2.931464 1_554
Ho9 Si12 2.932866 1_665
Ho9 Si15 2.933386 1_655
Ho9 Si9 2.972489 1_565
Ho9 Si0 3.005709 1_554
Ho9 Si6 3.006650 1_565
Ho9 Si4 3.036367 1_554
Ho9 Si11 3.037611 1_555
Ho9 Si13 3.224654 1_555
Ho9 Si5 3.320814 1_554
Ho9 Si1 3.322735 1_665
Si0 Si9 2.315872 1_566
Si0 Si2 2.365436 1_555
Si0 Si5 2.370653 1_555
Si1 Si6 2.371427 1_455
Si1 Si12 2.422068 1_555
Si2 Si8 2.413370 1_555
Si3 Si7 2.414179 1_555
Si6 Si9 2.315461 1_555
Si6 Si7 2.366468 1_555
Si10 Si11 2.380168 1_555
Si10 Si8 2.402215 1_555
Si11 Si13 2.370164 1_555
Si11 Si15 2.370344 1_655
Si12 Si9 2.329260 1_555
Si12 Si5 2.421571 1_444
Si13 Si4 2.370474 1_554
Si14 Si4 2.379552 1_555
Si14 Si3 2.401381 1_455
Si15 Si8 2.414354 1_555
Si16 Si4 2.371684 1_555
Si16 Si3 2.414956 1_555
