# generated using pymatgen
data_Mn2PClO4
_symmetry_space_group_name_H-M   'P 1'
_cell_length_a   4.98438200
_cell_length_b   8.17942300
_cell_length_c   11.53503200
_cell_angle_alpha   90.00001694
_cell_angle_beta   89.99997857
_cell_angle_gamma   90.00059308
_symmetry_Int_Tables_number   1
_chemical_formula_structural   Mn2PClO4
_chemical_formula_sum   'Mn8 P4 Cl4 O16'
_cell_volume   470.27597339
_cell_formula_units_Z   4
loop_
 _symmetry_equiv_pos_site_id
 _symmetry_equiv_pos_as_xyz
  1  'x, y, z'
loop_
 _atom_site_type_symbol
 _atom_site_label
 _atom_site_symmetry_multiplicity
 _atom_site_fract_x
 _atom_site_fract_y
 _atom_site_fract_z
 _atom_site_occupancy
  Mn  Mn0  1  0.49898500  0.10409400  0.12033500  1
  Mn  Mn1  1  0.99898000  0.60409400  0.37966700  1
  Mn  Mn2  1  0.99575600  0.34554800  0.87575300  1
  Mn  Mn3  1  0.49575400  0.84554800  0.62425000  1
  Mn  Mn4  1  0.99885000  0.89592300  0.87968900  1
  Mn  Mn5  1  0.49892000  0.39593100  0.62031800  1
  Mn  Mn6  1  0.99568500  0.15446600  0.37575400  1
  Mn  Mn7  1  0.49568400  0.65447600  0.12424200  1
  P  P0  1  0.54609700  0.37816600  0.33625600  1
  P  P1  1  0.04609700  0.87816500  0.16374300  1
  P  P2  1  0.54609200  0.12183500  0.83624000  1
  P  P3  1  0.04609300  0.62183600  0.66375900  1
  Cl  Cl0  1  0.73930700  0.62039300  0.93549500  1
  Cl  Cl1  1  0.23931000  0.12039300  0.56450500  1
  Cl  Cl2  1  0.23932700  0.37963400  0.06451100  1
  Cl  Cl3  1  0.73932700  0.87963400  0.43548900  1
  O  O0  1  0.64597000  0.22329300  0.27101400  1
  O  O1  1  0.14596900  0.72329300  0.22898600  1
  O  O2  1  0.14594600  0.77669400  0.72899900  1
  O  O3  1  0.64594600  0.27669200  0.77100000  1
  O  O4  1  0.14523900  0.03612100  0.22545800  1
  O  O5  1  0.64524000  0.53611900  0.27454100  1
  O  O6  1  0.64525900  0.96386600  0.77455000  1
  O  O7  1  0.14525800  0.46386600  0.72544900  1
  O  O8  1  0.19857600  0.62483700  0.54450200  1
  O  O9  1  0.19856100  0.87515200  0.04449700  1
  O  O10  1  0.69856200  0.37515100  0.45550200  1
  O  O11  1  0.69857600  0.12483700  0.95549700  1
  O  O12  1  0.73735800  0.87860900  0.14955300  1
  O  O13  1  0.23735900  0.12136200  0.85044100  1
  O  O14  1  0.23736000  0.37860900  0.35044700  1
  O  O15  1  0.73735800  0.62136300  0.64955800  1
loop_
_geom_bond_atom_site_label_1
_geom_bond_atom_site_label_2
_geom_bond_distance
_geom_bond_site_symmetry_2
Mn0 O0 2.123267 1_555
Mn0 O11 2.152638 1_554
Mn0 O4 2.210967 1_555
Mn0 O12 2.219661 1_545
Mn0 O9 2.552289 1_545
Mn1 O1 2.123293 1_655
Mn1 O8 2.152619 1_655
Mn1 O5 2.210967 1_555
Mn1 O14 2.219683 1_655
Mn1 O10 2.552265 1_555
Mn2 O7 2.120798 1_655
Mn2 O3 2.194842 1_555
Mn2 O13 2.213141 1_655
Mn2 O11 2.509833 1_555
Mn3 O6 2.120766 1_555
Mn3 O2 2.194804 1_555
Mn3 O15 2.213131 1_555
Mn3 O8 2.509844 1_555
Mn4 O2 2.123681 1_655
Mn4 O9 2.152629 1_656
Mn4 O6 2.210401 1_555
Mn4 O13 2.219744 1_665
Mn4 O11 2.551586 1_565
Mn5 O3 2.123523 1_555
Mn5 O10 2.152557 1_555
Mn5 O7 2.210615 1_555
Mn5 O15 2.219493 1_555
Mn5 O8 2.551775 1_555
Mn6 O4 2.120921 1_655
Mn6 O0 2.194332 1_555
Mn6 O14 2.213017 1_655
Mn6 O10 2.509551 1_555
Mn7 O5 2.120999 1_555
Mn7 O1 2.194335 1_555
Mn7 O12 2.212952 1_555
Mn7 O9 2.509486 1_555
Cl0 Mn7 2.508482 1_556
Cl0 Mn2 2.676319 1_555
Cl0 Mn4 2.677114 1_555
Cl1 Mn6 2.508519 1_455
Cl1 Mn3 2.676317 1_545
Cl1 Mn5 2.677350 1_555
Cl2 Mn2 2.508468 1_454
Cl2 Mn7 2.676025 1_555
Cl2 Mn0 2.677532 1_555
Cl3 Mn3 2.508502 1_555
Cl3 Mn6 2.675970 1_565
Cl3 Mn1 2.677514 1_555
O0 P0 1.555279 1_555
O1 P1 1.555277 1_555
O2 P3 1.555128 1_555
O3 P2 1.555123 1_555
O4 P1 1.555698 1_545
O5 P0 1.555680 1_555
O6 P2 1.555703 1_565
O7 P3 1.555707 1_555
O8 P3 1.571820 1_555
O9 P1 1.571665 1_555
O10 P0 1.571668 1_555
O11 P2 1.571823 1_555
O12 P1 1.547558 1_655
O13 P2 1.547542 1_555
O14 P0 1.547549 1_555
O15 P3 1.547552 1_655
