# generated using pymatgen
data_KBiF4
_symmetry_space_group_name_H-M   'P 1'
_cell_length_a   8.37574488
_cell_length_b   8.37574488
_cell_length_c   8.37574488
_cell_angle_alpha   60.00000000
_cell_angle_beta   60.00000000
_cell_angle_gamma   60.00000000
_symmetry_Int_Tables_number   1
_chemical_formula_structural   KBiF4
_chemical_formula_sum   'K4 Bi4 F16'
_cell_volume   415.48497508
_cell_formula_units_Z   4
loop_
 _symmetry_equiv_pos_site_id
 _symmetry_equiv_pos_as_xyz
  1  'x, y, z'
loop_
 _atom_site_type_symbol
 _atom_site_label
 _atom_site_symmetry_multiplicity
 _atom_site_fract_x
 _atom_site_fract_y
 _atom_site_fract_z
 _atom_site_occupancy
  K  K0  1  0.62500000  0.62500000  0.62500000  1
  K  K1  1  0.62500000  0.12500000  0.62500000  1
  K  K2  1  0.12500000  0.62500000  0.62500000  1
  K  K3  1  0.62500000  0.62500000  0.12500000  1
  Bi  Bi0  1  0.12500000  0.12500000  0.12500000  1
  Bi  Bi1  1  0.62500000  0.12500000  0.12500000  1
  Bi  Bi2  1  0.12500000  0.62500000  0.12500000  1
  Bi  Bi3  1  0.12500000  0.12500000  0.62500000  1
  F  F0  1  0.50000000  0.50000000  0.50000000  1
  F  F1  1  0.78179700  0.21820300  0.21820300  1
  F  F2  1  0.46820300  0.03179700  0.46820300  1
  F  F3  1  0.46820300  0.03179700  0.03179700  1
  F  F4  1  0.46820300  0.46820300  0.03179700  1
  F  F5  1  0.25000000  0.25000000  0.25000000  1
  F  F6  1  0.78179700  0.21820300  0.78179700  1
  F  F7  1  0.75000000  0.75000000  0.75000000  1
  F  F8  1  0.21820300  0.21820300  0.78179700  1
  F  F9  1  0.03179700  0.46820300  0.46820300  1
  F  F10  1  0.21820300  0.78179700  0.21820300  1
  F  F11  1  0.78179700  0.78179700  0.21820300  1
  F  F12  1  0.03179700  0.46820300  0.03179700  1
  F  F13  1  0.00000000  0.00000000  0.00000000  1
  F  F14  1  0.21820300  0.78179700  0.78179700  1
  F  F15  1  0.03179700  0.03179700  0.46820300  1
loop_
_geom_bond_atom_site_label_1
_geom_bond_atom_site_label_2
_geom_bond_distance
_geom_bond_site_symmetry_2
Bi0 F15 2.367146 1_555
Bi0 F12 2.367146 1_555
Bi0 F3 2.367146 1_555
Bi0 F1 2.367146 1_455
Bi0 F8 2.367146 1_554
Bi0 F10 2.367146 1_545
Bi0 F13 2.564538 1_555
Bi0 F5 2.564538 1_555
Bi1 F11 2.367146 1_545
Bi1 F4 2.367146 1_555
Bi1 F1 2.367146 1_555
Bi1 F2 2.367146 1_555
Bi1 F6 2.367146 1_554
Bi1 F3 2.367146 1_555
Bi1 F13 2.564538 1_655
Bi1 F5 2.564538 1_555
Bi2 F9 2.367146 1_555
Bi2 F10 2.367146 1_555
Bi2 F4 2.367146 1_555
Bi2 F14 2.367146 1_554
Bi2 F11 2.367146 1_455
Bi2 F12 2.367146 1_555
Bi2 F13 2.564538 1_565
Bi2 F5 2.564538 1_555
Bi3 F8 2.367146 1_555
Bi3 F9 2.367146 1_555
Bi3 F6 2.367146 1_455
Bi3 F15 2.367146 1_555
Bi3 F2 2.367146 1_555
Bi3 F14 2.367146 1_545
Bi3 F13 2.564538 1_556
Bi3 F5 2.564538 1_555
F0 K2 2.564538 1_555
F0 K0 2.564538 1_555
F0 K1 2.564538 1_555
F0 K3 2.564538 1_555
F1 K3 2.798935 1_555
F1 K1 2.798935 1_555
F2 K0 2.798935 1_545
F2 K1 2.798935 1_555
F3 K1 2.798935 1_554
F3 K3 2.798935 1_545
F4 K0 2.798935 1_554
F4 K3 2.798935 1_555
F6 K0 2.798935 1_555
F6 K1 2.798935 1_555
F7 K2 2.564538 1_655
F7 K0 2.564538 1_555
F7 K3 2.564538 1_556
F7 K1 2.564538 1_565
F8 K2 2.798935 1_555
F8 K1 2.798935 1_555
F9 K2 2.798935 1_555
F9 K0 2.798935 1_455
F10 K2 2.798935 1_555
F10 K3 2.798935 1_555
F11 K3 2.798935 1_555
F11 K0 2.798935 1_555
F12 K2 2.798935 1_554
F12 K3 2.798935 1_455
F14 K2 2.798935 1_555
F14 K0 2.798935 1_555
F15 K2 2.798935 1_545
F15 K1 2.798935 1_455
