# generated using pymatgen
data_RbInP2O7
_symmetry_space_group_name_H-M   'P 1'
_cell_length_a   10.57180700
_cell_length_b   7.64976400
_cell_length_c   8.64723082
_cell_angle_alpha   74.56190846
_cell_angle_beta   90.00000000
_cell_angle_gamma   90.00000000
_symmetry_Int_Tables_number   1
_chemical_formula_structural   RbInP2O7
_chemical_formula_sum   'Rb4 In4 P8 O28'
_cell_volume   674.08504932
_cell_formula_units_Z   4
loop_
 _symmetry_equiv_pos_site_id
 _symmetry_equiv_pos_as_xyz
  1  'x, y, z'
loop_
 _atom_site_type_symbol
 _atom_site_label
 _atom_site_symmetry_multiplicity
 _atom_site_fract_x
 _atom_site_fract_y
 _atom_site_fract_z
 _atom_site_occupancy
  Rb  Rb0  1  0.31530700  0.68604600  0.94813900  1
  Rb  Rb1  1  0.68469300  0.31395400  0.05186100  1
  Rb  Rb2  1  0.81530700  0.31395400  0.55186100  1
  Rb  Rb3  1  0.18469300  0.68604600  0.44813900  1
  In  In0  1  0.40011700  0.26342100  0.75654300  1
  In  In1  1  0.09988300  0.26342100  0.25654300  1
  In  In2  1  0.59988300  0.73657900  0.24345700  1
  In  In3  1  0.90011700  0.73657900  0.74345700  1
  P  P0  1  0.13596900  0.06236500  0.68731300  1
  P  P1  1  0.90325200  0.63209800  0.17464800  1
  P  P2  1  0.09674800  0.36790200  0.82535200  1
  P  P3  1  0.36403100  0.06236500  0.18731300  1
  P  P4  1  0.63596900  0.93763500  0.81268700  1
  P  P5  1  0.40325200  0.36790200  0.32535200  1
  P  P6  1  0.59674800  0.63209800  0.67464800  1
  P  P7  1  0.86403100  0.93763500  0.31268700  1
  O  O0  1  0.58768300  0.64168400  0.49865100  1
  O  O1  1  0.49654600  0.50809700  0.77799200  1
  O  O2  1  0.77744900  0.95360000  0.76931500  1
  O  O3  1  0.22255100  0.04640000  0.23068500  1
  O  O4  1  0.58101800  0.13013400  0.76881400  1
  O  O5  1  0.91898200  0.13013400  0.26881400  1
  O  O6  1  0.00345400  0.50809700  0.27799200  1
  O  O7  1  0.08101800  0.86986600  0.73118600  1
  O  O8  1  0.39520400  0.17511000  0.01842600  1
  O  O9  1  0.72920200  0.57650500  0.74527100  1
  O  O10  1  0.22920200  0.42349500  0.75472900  1
  O  O11  1  0.27744900  0.04640000  0.73068500  1
  O  O12  1  0.06639400  0.16486200  0.80770100  1
  O  O13  1  0.93360600  0.83513800  0.19229900  1
  O  O14  1  0.91231700  0.64168400  0.99865100  1
  O  O15  1  0.72255100  0.95360000  0.26931500  1
  O  O16  1  0.77079800  0.57650500  0.24527100  1
  O  O17  1  0.43360600  0.16486200  0.30770100  1
  O  O18  1  0.99654600  0.49190300  0.72200800  1
  O  O19  1  0.89520400  0.82489000  0.48157400  1
  O  O20  1  0.41231700  0.35831600  0.50134900  1
  O  O21  1  0.56639400  0.83513800  0.69229900  1
  O  O22  1  0.08768300  0.35831600  0.00134900  1
  O  O23  1  0.60479600  0.82489000  0.98157400  1
  O  O24  1  0.27079800  0.42349500  0.25472900  1
  O  O25  1  0.50345400  0.49190300  0.22200800  1
  O  O26  1  0.10479600  0.17511000  0.51842600  1
  O  O27  1  0.41898200  0.86986600  0.23118600  1
loop_
_geom_bond_atom_site_label_1
_geom_bond_atom_site_label_2
_geom_bond_distance
_geom_bond_site_symmetry_2
In0 O20 2.135503 1_555
In0 O4 2.156557 1_555
In0 O11 2.164603 1_555
In0 O10 2.180437 1_555
In0 O1 2.182148 1_555
In0 O8 2.184683 1_556
In1 O22 2.135503 1_555
In1 O5 2.156557 1_455
In1 O3 2.164603 1_555
In1 O24 2.180437 1_555
In1 O6 2.182148 1_555
In1 O26 2.184683 1_555
In2 O0 2.135503 1_555
In2 O27 2.156557 1_555
In2 O15 2.164603 1_555
In2 O16 2.180437 1_555
In2 O25 2.182148 1_555
In2 O23 2.184683 1_554
In3 O14 2.135503 1_555
In3 O7 2.156557 1_655
In3 O2 2.164603 1_555
In3 O9 2.180437 1_555
In3 O18 2.182148 1_555
In3 O19 2.184683 1_555
O0 P6 1.507078 1_555
O0 Rb2 3.416673 1_555
O1 P6 1.539233 1_555
O1 Rb0 2.958922 1_555
O1 Rb1 3.146094 1_556
O2 P4 1.538930 1_555
O2 Rb2 2.921525 1_565
O3 P3 1.538930 1_555
O3 Rb3 2.921525 1_545
O4 P4 1.533770 1_545
O4 Rb2 3.198002 1_555
O4 Rb1 3.316865 1_556
O5 P7 1.533770 1_545
O5 Rb1 3.198002 1_555
O5 Rb2 3.316865 1_555
O6 P1 1.539233 1_455
O6 Rb3 2.958922 1_555
O6 Rb2 3.146094 1_455
O7 P0 1.533770 1_565
O7 Rb0 3.198002 1_555
O7 Rb3 3.316865 1_555
O8 P3 1.521403 1_555
O8 Rb1 3.277403 1_555
O9 P6 1.541530 1_555
O9 Rb1 2.906727 1_556
O9 Rb2 3.073755 1_555
O10 P2 1.541530 1_555
O10 Rb3 2.906727 1_555
O10 Rb0 3.073755 1_555
O11 P0 1.538930 1_555
O11 Rb0 2.921525 1_545
O12 P2 1.632465 1_555
O12 P0 1.635261 1_555
O12 Rb2 3.449323 1_455
O13 P1 1.632465 1_555
O13 P7 1.635261 1_555
O13 Rb3 3.449323 1_655
O14 P1 1.507078 1_556
O14 Rb1 3.416673 1_556
O15 P7 1.538930 1_555
O15 Rb1 2.921525 1_565
O16 P1 1.541530 1_555
O16 Rb2 2.906727 1_555
O16 Rb1 3.073755 1_555
O17 P5 1.632465 1_555
O17 P3 1.635261 1_555
O17 Rb1 3.449323 1_555
O18 P2 1.539233 1_655
O18 Rb2 2.958922 1_555
O18 Rb3 3.146094 1_655
O19 P7 1.521403 1_555
O19 Rb3 3.277403 1_655
O20 P5 1.507078 1_555
O20 Rb3 3.416673 1_555
O21 P6 1.632465 1_555
O21 P4 1.635261 1_555
O21 Rb0 3.449323 1_555
O22 P2 1.507078 1_554
O22 Rb0 3.416673 1_554
O23 P4 1.521403 1_555
O23 Rb0 3.277403 1_555
O24 P5 1.541530 1_555
O24 Rb0 2.906727 1_554
O24 Rb3 3.073755 1_555
O25 P5 1.539233 1_555
O25 Rb1 2.958922 1_555
O25 Rb0 3.146094 1_554
O26 P0 1.521403 1_555
O26 Rb2 3.277403 1_455
O27 P3 1.533770 1_565
O27 Rb3 3.198002 1_555
O27 Rb0 3.316865 1_554
