# generated using pymatgen
data_RbFe(MoO4)2
_symmetry_space_group_name_H-M   'P 1'
_cell_length_a   5.71855900
_cell_length_b   9.76036590
_cell_length_c   9.76036590
_cell_angle_alpha   71.73261392
_cell_angle_beta   72.96547294
_cell_angle_gamma   107.03452706
_symmetry_Int_Tables_number   1
_chemical_formula_structural   RbFe(MoO4)2
_chemical_formula_sum   'Rb2 Fe2 Mo4 O16'
_cell_volume   448.01443535
_cell_formula_units_Z   2
loop_
 _symmetry_equiv_pos_site_id
 _symmetry_equiv_pos_as_xyz
  1  'x, y, z'
loop_
 _atom_site_type_symbol
 _atom_site_label
 _atom_site_symmetry_multiplicity
 _atom_site_fract_x
 _atom_site_fract_y
 _atom_site_fract_z
 _atom_site_occupancy
  Rb  Rb0  1  0.00000000  0.25000000  0.25000000  1
  Rb  Rb1  1  0.00000000  0.75000000  0.75000000  1
  Fe  Fe0  1  0.00000000  0.50000000  0.50000000  1
  Fe  Fe1  1  0.00000000  0.00000000  0.00000000  1
  Mo  Mo0  1  0.66666700  0.05684100  0.72350800  1
  Mo  Mo1  1  0.33333300  0.94315900  0.27649200  1
  Mo  Mo2  1  0.66666700  0.55684200  0.22350900  1
  Mo  Mo3  1  0.33333300  0.44315900  0.77649100  1
  O  O0  1  0.33333300  0.55388800  0.88722100  1
  O  O1  1  0.33333300  0.05388800  0.38722100  1
  O  O2  1  0.66666700  0.44611200  0.11277900  1
  O  O3  1  0.66666700  0.94611200  0.61277900  1
  O  O4  1  0.21002200  0.23678600  0.91400500  1
  O  O5  1  0.21002200  0.73678600  0.41400500  1
  O  O6  1  0.78997800  0.76321400  0.08599500  1
  O  O7  1  0.78997800  0.26321400  0.58599500  1
  O  O8  1  0.88724100  0.52961500  0.31959300  1
  O  O9  1  0.88724100  0.02961500  0.81959300  1
  O  O10  1  0.67721900  0.51901600  0.63177500  1
  O  O11  1  0.67721900  0.01901600  0.13177500  1
  O  O12  1  0.32278100  0.48098400  0.36822500  1
  O  O13  1  0.32278100  0.98098400  0.86822500  1
  O  O14  1  0.11275900  0.47038500  0.68040700  1
  O  O15  1  0.11275900  0.97038500  0.18040700  1
loop_
_geom_bond_atom_site_label_1
_geom_bond_atom_site_label_2
_geom_bond_distance
_geom_bond_site_symmetry_2
Fe0 O7 2.013763 1_455
Fe0 O5 2.013763 1_555
Fe0 O12 2.013763 1_555
Fe0 O10 2.013763 1_455
Fe0 O14 2.013767 1_555
Fe0 O8 2.013767 1_455
Fe1 O4 2.013763 1_554
Fe1 O6 2.013763 1_445
Fe1 O11 2.013763 1_455
Fe1 O13 2.013763 1_544
Fe1 O9 2.013767 1_454
Fe1 O15 2.013767 1_545
Mo0 O3 1.751659 1_545
Mo0 O9 1.809532 1_555
Mo0 O13 1.809539 1_545
Mo0 O7 1.809539 1_555
Mo1 O1 1.751659 1_565
Mo1 O15 1.809532 1_555
Mo1 O11 1.809539 1_565
Mo1 O5 1.809539 1_555
Mo2 O2 1.751675 1_555
Mo2 O8 1.809527 1_555
Mo2 O12 1.809534 1_555
Mo2 O6 1.809535 1_555
Mo3 O0 1.751667 1_555
Mo3 O14 1.809525 1_555
Mo3 O10 1.809536 1_555
Mo3 O4 1.809542 1_555
O0 Rb1 3.334305 1_555
O0 Rb0 3.334310 1_556
O0 Rb1 3.334311 1_655
O1 Rb0 3.334305 1_555
O1 Rb1 3.334310 1_545
O1 Rb0 3.334311 1_655
O2 Rb0 3.334305 1_655
O2 Rb1 3.334310 1_654
O2 Rb0 3.334311 1_555
O3 Rb1 3.334305 1_655
O3 Rb0 3.334310 1_665
O3 Rb1 3.334311 1_555
O4 Rb0 3.203441 1_556
O5 Rb1 3.203441 1_555
O6 Rb1 3.203441 1_654
O7 Rb0 3.203441 1_655
O8 Rb0 3.203434 1_655
O9 Rb1 3.203434 1_645
O10 Rb1 3.203441 1_655
O11 Rb0 3.203441 1_655
O12 Rb0 3.203441 1_555
O13 Rb1 3.203441 1_555
O14 Rb1 3.203434 1_555
O15 Rb0 3.203434 1_565
