# generated using pymatgen
data_Co2Hg2H2S2O11
_symmetry_space_group_name_H-M   'P 1'
_cell_length_a   6.19621600
_cell_length_b   11.37153000
_cell_length_c   13.32938800
_cell_angle_alpha   90.00000000
_cell_angle_beta   90.00000000
_cell_angle_gamma   90.00000000
_symmetry_Int_Tables_number   1
_chemical_formula_structural   Co2Hg2H2S2O11
_chemical_formula_sum   'Co8 Hg8 H8 S8 O44'
_cell_volume   939.19475842
_cell_formula_units_Z   4
loop_
 _symmetry_equiv_pos_site_id
 _symmetry_equiv_pos_as_xyz
  1  'x, y, z'
loop_
 _atom_site_type_symbol
 _atom_site_label
 _atom_site_symmetry_multiplicity
 _atom_site_fract_x
 _atom_site_fract_y
 _atom_site_fract_z
 _atom_site_occupancy
  Co  Co0  1  0.01931700  0.16868000  0.12450800  1
  Co  Co1  1  0.01931700  0.33132000  0.87549200  1
  Co  Co2  1  0.98068300  0.66868000  0.37549200  1
  Co  Co3  1  0.98068300  0.83132000  0.62450800  1
  Co  Co4  1  0.98068300  0.83132000  0.87549200  1
  Co  Co5  1  0.98068300  0.66868000  0.12450800  1
  Co  Co6  1  0.01931700  0.33132000  0.62450800  1
  Co  Co7  1  0.01931700  0.16868000  0.37549200  1
  Hg  Hg0  1  0.20093800  0.41991700  0.25000000  1
  Hg  Hg1  1  0.20093800  0.08008300  0.75000000  1
  Hg  Hg2  1  0.79906200  0.91991700  0.25000000  1
  Hg  Hg3  1  0.79906200  0.58008300  0.75000000  1
  Hg  Hg4  1  0.52371900  0.17009500  0.25000000  1
  Hg  Hg5  1  0.52371900  0.32990500  0.75000000  1
  Hg  Hg6  1  0.47628100  0.67009500  0.25000000  1
  Hg  Hg7  1  0.47628100  0.82990500  0.75000000  1
  H  H0  1  0.30866600  0.30883100  0.02932100  1
  H  H1  1  0.30866600  0.19116900  0.97067900  1
  H  H2  1  0.69133400  0.80883100  0.47067900  1
  H  H3  1  0.69133400  0.69116900  0.52932100  1
  H  H4  1  0.69133400  0.69116900  0.97067900  1
  H  H5  1  0.69133400  0.80883100  0.02932100  1
  H  H6  1  0.30866600  0.19116900  0.52932100  1
  H  H7  1  0.30866600  0.30883100  0.47067900  1
  S  S0  1  0.73341600  0.41074200  0.07713300  1
  S  S1  1  0.73341600  0.08925800  0.92286700  1
  S  S2  1  0.26658400  0.91074200  0.42286700  1
  S  S3  1  0.26658400  0.58925800  0.57713300  1
  S  S4  1  0.26658400  0.58925800  0.92286700  1
  S  S5  1  0.26658400  0.91074200  0.07713300  1
  S  S6  1  0.73341600  0.08925800  0.57713300  1
  S  S7  1  0.73341600  0.41074200  0.42286700  1
  O  O0  1  0.11504700  0.83378300  0.13587700  1
  O  O1  1  0.11504700  0.66621700  0.86412300  1
  O  O2  1  0.88495300  0.33378300  0.36412300  1
  O  O3  1  0.88495300  0.16621700  0.63587700  1
  O  O4  1  0.88495300  0.16621700  0.86412300  1
  O  O5  1  0.88495300  0.33378300  0.13587700  1
  O  O6  1  0.11504700  0.66621700  0.63587700  1
  O  O7  1  0.11504700  0.83378300  0.36412300  1
  O  O8  1  0.21350300  0.59488200  0.03158400  1
  O  O9  1  0.21350300  0.90511800  0.96841600  1
  O  O10  1  0.78649700  0.09488200  0.46841600  1
  O  O11  1  0.78649700  0.40511800  0.53158400  1
  O  O12  1  0.78649700  0.40511800  0.96841600  1
  O  O13  1  0.78649700  0.09488200  0.03158400  1
  O  O14  1  0.21350300  0.90511800  0.53158400  1
  O  O15  1  0.21350300  0.59488200  0.46841600  1
  O  O16  1  0.24193000  0.03313000  0.11607400  1
  O  O17  1  0.24193000  0.46687000  0.88392600  1
  O  O18  1  0.75807000  0.53313000  0.38392600  1
  O  O19  1  0.75807000  0.96687000  0.61607400  1
  O  O20  1  0.75807000  0.96687000  0.88392600  1
  O  O21  1  0.75807000  0.53313000  0.11607400  1
  O  O22  1  0.24193000  0.46687000  0.61607400  1
  O  O23  1  0.24193000  0.03313000  0.38392600  1
  O  O24  1  0.50922700  0.37159400  0.09563400  1
  O  O25  1  0.50922700  0.12840600  0.90436600  1
  O  O26  1  0.49077300  0.87159400  0.40436600  1
  O  O27  1  0.49077300  0.62840600  0.59563400  1
  O  O28  1  0.49077300  0.62840600  0.90436600  1
  O  O29  1  0.49077300  0.87159400  0.09563400  1
  O  O30  1  0.50922700  0.12840600  0.59563400  1
  O  O31  1  0.50922700  0.37159400  0.40436600  1
  O  O32  1  0.16367600  0.60355300  0.25000000  1
  O  O33  1  0.16367600  0.89644700  0.75000000  1
  O  O34  1  0.83632400  0.10355300  0.25000000  1
  O  O35  1  0.83632400  0.39644700  0.75000000  1
  O  O36  1  0.21183000  0.23367400  0.25000000  1
  O  O37  1  0.21183000  0.26632600  0.75000000  1
  O  O38  1  0.78817000  0.73367400  0.25000000  1
  O  O39  1  0.78817000  0.76632600  0.75000000  1
  O  O40  1  0.20577200  0.25000000  0.00000000  1
  O  O41  1  0.79422800  0.75000000  0.50000000  1
  O  O42  1  0.79422800  0.75000000  0.00000000  1
  O  O43  1  0.20577200  0.25000000  0.50000000  1
loop_
_geom_bond_atom_site_label_1
_geom_bond_atom_site_label_2
_geom_bond_distance
_geom_bond_site_symmetry_2
Co0 O5 2.059371 1_455
Co0 O16 2.071525 1_555
Co0 O13 2.078349 1_455
Co0 O34 2.152245 1_455
Co0 O36 2.183385 1_555
Co0 O40 2.223558 1_555
Co1 O4 2.059371 1_455
Co1 O17 2.071525 1_555
Co1 O12 2.078349 1_455
Co1 O35 2.152245 1_455
Co1 O37 2.183385 1_555
Co1 O40 2.223558 1_556
Co2 O7 2.059371 1_655
Co2 O18 2.071525 1_555
Co2 O15 2.078349 1_655
Co2 O32 2.152245 1_655
Co2 O38 2.183385 1_555
Co2 O41 2.223558 1_555
Co3 O6 2.059371 1_655
Co3 O19 2.071525 1_555
Co3 O14 2.078349 1_655
Co3 O33 2.152245 1_655
Co3 O39 2.183385 1_555
Co3 O41 2.223558 1_555
Co4 O1 2.059371 1_655
Co4 O20 2.071525 1_555
Co4 O9 2.078349 1_655
Co4 O33 2.152245 1_655
Co4 O39 2.183385 1_555
Co4 O42 2.223558 1_556
Co5 O0 2.059371 1_655
Co5 O21 2.071525 1_555
Co5 O8 2.078349 1_655
Co5 O32 2.152245 1_655
Co5 O38 2.183385 1_555
Co5 O42 2.223558 1_555
Co6 O3 2.059371 1_455
Co6 O22 2.071525 1_555
Co6 O11 2.078349 1_455
Co6 O35 2.152245 1_455
Co6 O37 2.183385 1_555
Co6 O43 2.223558 1_555
Co7 O2 2.059371 1_455
Co7 O23 2.071525 1_555
Co7 O10 2.078349 1_455
Co7 O34 2.152245 1_455
Co7 O36 2.183385 1_555
Co7 O43 2.223558 1_555
Hg0 O32 2.100947 1_555
Hg0 O36 2.118943 1_555
Hg1 O33 2.100947 1_545
Hg1 O37 2.118943 1_555
Hg2 O34 2.100947 1_565
Hg2 O38 2.118943 1_555
Hg3 O35 2.100947 1_555
Hg3 O39 2.118943 1_555
Hg4 O36 2.063345 1_555
Hg4 O34 2.079523 1_555
Hg5 O37 2.063345 1_555
Hg5 O35 2.079523 1_555
Hg6 O38 2.063345 1_555
Hg6 O32 2.079523 1_555
Hg7 O39 2.063345 1_555
Hg7 O33 2.079523 1_555
H0 O40 1.003385 1_555
H0 O24 1.683756 1_555
H1 O40 1.003385 1_556
H1 O25 1.683756 1_555
H2 O41 1.003385 1_555
H2 O26 1.683756 1_555
H3 O41 1.003385 1_555
H3 O27 1.683756 1_555
H4 O42 1.003385 1_556
H4 O28 1.683756 1_555
H5 O42 1.003385 1_555
H5 O29 1.683756 1_555
H6 O43 1.003385 1_555
H6 O30 1.683756 1_555
H7 O43 1.003385 1_555
H7 O31 1.683756 1_555
O0 S5 1.503540 1_555
O1 S4 1.503540 1_555
O2 S7 1.503540 1_555
O3 S6 1.503540 1_555
O4 S1 1.503540 1_555
O5 S0 1.503540 1_555
O6 S3 1.503540 1_555
O7 S2 1.503540 1_555
O8 S4 1.487362 1_554
O9 S5 1.487362 1_556
O10 S6 1.487362 1_555
O11 S7 1.487362 1_555
O12 S0 1.487362 1_556
O13 S1 1.487362 1_554
O14 S2 1.487362 1_555
O15 S3 1.487362 1_555
O16 S5 1.493217 1_545
O17 S4 1.493217 1_555
O18 S7 1.493217 1_555
O19 S6 1.493217 1_565
O20 S1 1.493217 1_565
O21 S0 1.493217 1_555
O22 S3 1.493217 1_555
O23 S2 1.493217 1_545
O24 S0 1.479411 1_555
O25 S1 1.479411 1_555
O26 S2 1.479411 1_555
O27 S3 1.479411 1_555
O28 S4 1.479411 1_555
O29 S5 1.479411 1_555
O30 S6 1.479411 1_555
O31 S7 1.479411 1_555
