# generated using pymatgen
data_NaUBO5
_symmetry_space_group_name_H-M   'P 1'
_cell_length_a   5.80328448
_cell_length_b   6.84230728
_cell_length_c   10.61632663
_cell_angle_alpha   90.00000000
_cell_angle_beta   90.00000000
_cell_angle_gamma   90.00000000
_symmetry_Int_Tables_number   1
_chemical_formula_structural   NaUBO5
_chemical_formula_sum   'Na4 U4 B4 O20'
_cell_volume   421.55156531
_cell_formula_units_Z   4
loop_
 _symmetry_equiv_pos_site_id
 _symmetry_equiv_pos_as_xyz
  1  'x, y, z'
loop_
 _atom_site_type_symbol
 _atom_site_label
 _atom_site_symmetry_multiplicity
 _atom_site_fract_x
 _atom_site_fract_y
 _atom_site_fract_z
 _atom_site_occupancy
  Na  Na0  1  0.60906333  -0.00000000  0.25000000  1
  Na  Na1  1  0.39093667  0.50000000  0.75000000  1
  Na  Na2  1  0.60906333  0.50000000  0.25000000  1
  Na  Na3  1  0.39093667  -0.00000000  0.75000000  1
  U  U0  1  0.89800060  0.75000000  0.56542126  1
  U  U1  1  0.10199940  0.25000000  0.43457874  1
  U  U2  1  0.89800060  0.25000000  0.93457874  1
  U  U3  1  0.10199940  0.75000000  0.06542126  1
  B  B0  1  0.20505530  0.75000000  0.35092350  1
  B  B1  1  0.79494470  0.25000000  0.64907650  1
  B  B2  1  0.79494470  0.75000000  0.85092350  1
  B  B3  1  0.20505530  0.25000000  0.14907650  1
  O  O0  1  0.86600509  0.08202260  0.58856636  1
  O  O1  1  0.86600509  0.58202260  0.91143364  1
  O  O2  1  0.14716825  0.75000000  0.67308135  1
  O  O3  1  0.65654602  0.25000000  0.04541166  1
  O  O4  1  0.13399491  0.08202260  0.08856636  1
  O  O5  1  0.67631975  0.75000000  0.73995676  1
  O  O6  1  0.13399491  0.91797740  0.41143364  1
  O  O7  1  0.32368025  0.25000000  0.26004324  1
  O  O8  1  0.65654602  0.75000000  0.45458834  1
  O  O9  1  0.85283175  0.75000000  0.17308135  1
  O  O10  1  0.34345398  0.25000000  0.54541166  1
  O  O11  1  0.13399491  0.58202260  0.41143364  1
  O  O12  1  0.32368025  0.75000000  0.23995676  1
  O  O13  1  0.86600509  0.41797740  0.58856636  1
  O  O14  1  0.14716825  0.25000000  0.82691865  1
  O  O15  1  0.67631975  0.25000000  0.76004324  1
  O  O16  1  0.13399491  0.41797740  0.08856636  1
  O  O17  1  0.34345398  0.75000000  0.95458834  1
  O  O18  1  0.86600509  0.91797740  0.91143364  1
  O  O19  1  0.85283175  0.25000000  0.32691865  1
loop_
_geom_bond_atom_site_label_1
_geom_bond_atom_site_label_2
_geom_bond_distance
_geom_bond_site_symmetry_2
Na0 O9 2.365196 1_545
Na0 O19 2.365196 1_555
Na0 O7 2.383339 1_555
Na0 O12 2.383339 1_545
Na0 O3 2.778396 1_555
Na0 O8 2.778396 1_545
Na1 O14 2.365196 1_555
Na1 O2 2.365196 1_555
Na1 O15 2.383339 1_555
Na1 O5 2.383339 1_555
Na1 O10 2.778396 1_555
Na1 O17 2.778396 1_555
Na2 O19 2.365196 1_555
Na2 O9 2.365196 1_555
Na2 O7 2.383339 1_555
Na2 O12 2.383339 1_555
Na2 O8 2.778396 1_555
Na2 O3 2.778396 1_555
Na3 O2 2.365196 1_545
Na3 O14 2.365196 1_555
Na3 O5 2.383339 1_545
Na3 O15 2.383339 1_555
Na3 O10 2.778396 1_555
Na3 O17 2.778396 1_545
B0 O12 1.364455 1_555
B0 O11 1.379762 1_555
B0 O6 1.379762 1_555
B1 O15 1.364455 1_555
B1 O13 1.379762 1_555
B1 O0 1.379762 1_555
B2 O5 1.364455 1_555
B2 O18 1.379762 1_555
B2 O1 1.379762 1_555
B3 O7 1.364455 1_555
B3 O4 1.379762 1_555
B3 O16 1.379762 1_555
O0 U0 2.292582 1_545
O0 U1 2.422638 1_655
O1 U2 2.292582 1_555
O1 U3 2.422638 1_656
O2 U0 1.843159 1_455
O3 U2 1.829733 1_554
O4 U3 2.292582 1_545
O4 U2 2.422638 1_454
O5 U0 2.255739 1_555
O6 U1 2.292582 1_565
O6 U0 2.422638 1_455
O7 U1 2.255739 1_555
O8 U0 1.829733 1_555
O9 U3 1.843159 1_655
O10 U1 1.829733 1_555
O11 U1 2.292582 1_555
O11 U0 2.422638 1_455
O12 U3 2.255739 1_555
O13 U0 2.292582 1_555
O13 U1 2.422638 1_655
O14 U2 1.843159 1_455
O15 U2 2.255739 1_555
O16 U3 2.292582 1_555
O16 U2 2.422638 1_454
O17 U3 1.829733 1_556
O18 U2 2.292582 1_565
O18 U3 2.422638 1_656
O19 U1 1.843159 1_655
