# generated using pymatgen
data_SiC
_symmetry_space_group_name_H-M   'P 1'
_cell_length_a   3.07718443
_cell_length_b   3.07718297
_cell_length_c   20.12563135
_cell_angle_alpha   90.00000000
_cell_angle_beta   90.00000000
_cell_angle_gamma   119.99998351
_symmetry_Int_Tables_number   1
_chemical_formula_structural   SiC
_chemical_formula_sum   'Si8 C8'
_cell_volume   165.03918267
_cell_formula_units_Z   8
loop_
 _symmetry_equiv_pos_site_id
 _symmetry_equiv_pos_as_xyz
  1  'x, y, z'
loop_
 _atom_site_type_symbol
 _atom_site_label
 _atom_site_symmetry_multiplicity
 _atom_site_fract_x
 _atom_site_fract_y
 _atom_site_fract_z
 _atom_site_occupancy
  Si  Si0  1  0.33333300  0.66666700  0.87519892  1
  Si  Si1  1  0.33333300  0.66666700  0.62498767  1
  Si  Si2  1  -0.00000000  0.00000000  0.00008758  1
  Si  Si3  1  0.66666700  0.33333300  0.75010472  1
  Si  Si4  1  0.66666700  0.33333300  0.37519892  1
  Si  Si5  1  0.33333300  0.66666700  0.25010472  1
  Si  Si6  1  -0.00000000  0.00000000  0.50008658  1
  Si  Si7  1  0.66666700  0.33333300  0.12498767  1
  C  C0  1  0.33333300  0.66666700  0.34413164  1
  C  C1  1  0.66666700  0.33333300  0.21871684  1
  C  C2  1  0.66666700  0.33333300  0.84413164  1
  C  C3  1  0.00000000  -0.00000000  0.59384846  1
  C  C4  1  0.33333300  0.66666700  0.96892618  1
  C  C5  1  -0.00000000  0.00000000  0.09384846  1
  C  C6  1  0.33333300  0.66666700  0.71871684  1
  C  C7  1  0.66666700  0.33333300  0.46892618  1
loop_
_geom_bond_atom_site_label_1
_geom_bond_atom_site_label_2
_geom_bond_distance
_geom_bond_site_symmetry_2
C0 Si4 1.883423 1_565
C0 Si4 1.883424 1_455
C0 Si4 1.883428 1_555
C0 Si5 1.892351 1_555
C1 Si5 1.885575 1_545
C1 Si5 1.885576 1_655
C1 Si5 1.885580 1_555
C1 Si7 1.886359 1_555
C2 Si0 1.883423 1_545
C2 Si0 1.883424 1_655
C2 Si0 1.883428 1_555
C2 Si3 1.892351 1_555
C3 Si1 1.883904 1_545
C3 Si1 1.883907 1_555
C3 Si1 1.883907 1_445
C3 Si6 1.887017 1_555
C4 Si2 1.884053 1_566
C4 Si2 1.884055 1_556
C4 Si2 1.884056 1_666
C4 Si0 1.886320 1_555
C5 Si7 1.883904 1_455
C5 Si7 1.883907 1_445
C5 Si7 1.883907 1_555
C5 Si2 1.886997 1_555
C6 Si3 1.885575 1_565
C6 Si3 1.885576 1_455
C6 Si3 1.885580 1_555
C6 Si1 1.886359 1_555
C7 Si6 1.884046 1_655
C7 Si6 1.884049 1_665
C7 Si6 1.884049 1_555
C7 Si4 1.886320 1_555
