# generated using pymatgen
data_Ce4Al23Ni6
_symmetry_space_group_name_H-M   'P 1'
_cell_length_a   8.25974503
_cell_length_b   8.25974503
_cell_length_c   18.31018825
_cell_angle_alpha   67.52733959
_cell_angle_beta   67.52733959
_cell_angle_gamma   28.84865871
_symmetry_Int_Tables_number   1
_chemical_formula_structural   Ce4Al23Ni6
_chemical_formula_sum   'Ce4 Al23 Ni6'
_cell_volume   553.79666600
_cell_formula_units_Z   1
loop_
 _symmetry_equiv_pos_site_id
 _symmetry_equiv_pos_as_xyz
  1  'x, y, z'
loop_
 _atom_site_type_symbol
 _atom_site_label
 _atom_site_symmetry_multiplicity
 _atom_site_fract_x
 _atom_site_fract_y
 _atom_site_fract_z
 _atom_site_occupancy
  Ce  Ce0  1  0.73487300  0.73487300  0.71774900  1
  Ce  Ce1  1  0.57023500  0.57023500  0.09269800  1
  Ce  Ce2  1  0.42976500  0.42976500  0.90730200  1
  Ce  Ce3  1  0.26512700  0.26512700  0.28225100  1
  Al  Al0  1  0.85728400  0.85728400  0.35757200  1
  Al  Al1  1  0.43152200  0.43152200  0.43937700  1
  Al  Al2  1  0.91785100  0.91785100  0.18679900  1
  Al  Al3  1  0.46813200  0.46813200  0.28082600  1
  Al  Al4  1  0.74414700  0.74414700  0.54608100  1
  Al  Al5  1  0.20289500  0.20289500  0.97844500  1
  Al  Al6  1  0.91099400  0.91099400  0.77825100  1
  Al  Al7  1  0.08214900  0.08214900  0.81320100  1
  Al  Al8  1  0.37685800  0.37685800  0.09594100  1
  Al  Al9  1  0.39166700  0.39166700  0.66075400  1
  Al  Al10  1  0.56847800  0.56847800  0.56062300  1
  Al  Al11  1  0.72322900  0.72322900  0.17741300  1
  Al  Al12  1  0.25585300  0.25585300  0.45391900  1
  Al  Al13  1  0.53186800  0.53186800  0.71917400  1
  Al  Al14  1  0.00000000  0.00000000  0.00000000  1
  Al  Al15  1  0.08900600  0.08900600  0.22174900  1
  Al  Al16  1  0.62314200  0.62314200  0.90405900  1
  Al  Al17  1  0.27677100  0.27677100  0.82258700  1
  Al  Al18  1  0.79710500  0.79710500  0.02155500  1
  Al  Al19  1  0.09015200  0.09015200  0.45230700  1
  Al  Al20  1  0.90984800  0.90984800  0.54769300  1
  Al  Al21  1  0.14271600  0.14271600  0.64242800  1
  Al  Al22  1  0.60833300  0.60833300  0.33924600  1
  Ni  Ni0  1  0.99237100  0.99237100  0.63332900  1
  Ni  Ni1  1  0.22600900  0.22600900  0.10249400  1
  Ni  Ni2  1  0.69045500  0.69045500  0.43233900  1
  Ni  Ni3  1  0.77399100  0.77399100  0.89750600  1
  Ni  Ni4  1  0.30954500  0.30954500  0.56766100  1
  Ni  Ni5  1  0.00762900  0.00762900  0.36667100  1
loop_
_geom_bond_atom_site_label_1
_geom_bond_atom_site_label_2
_geom_bond_distance
_geom_bond_site_symmetry_2
Ce0 Ni4 3.259029 1_655
Ce0 Ni4 3.259029 1_565
Ce1 Ni1 3.290805 1_655
Ce1 Ni1 3.290805 1_565
Ce2 Ni3 3.290805 1_455
Ce2 Ni3 3.290805 1_545
Ce3 Ni2 3.259029 1_455
Ce3 Ni2 3.259029 1_545
Al0 Ni2 2.472594 1_555
Al0 Ni5 2.475826 1_665
Al0 Al3 2.717705 1_565
Al0 Al3 2.717705 1_655
Al0 Al12 2.778329 1_655
Al0 Al12 2.778329 1_565
Al0 Al2 2.885244 1_555
Al0 Ce3 3.148704 1_655
Al0 Ce3 3.148704 1_565
Al1 Ni4 2.388993 1_555
Al1 Ni5 2.491719 1_655
Al1 Ni5 2.491719 1_565
Al1 Al22 2.696180 1_555
Al1 Al12 2.716433 1_555
Al1 Al3 2.725585 1_555
Al1 Al20 2.782833 1_455
Al1 Al20 2.782833 1_545
Al2 Al8 2.879650 1_655
Al2 Al8 2.879650 1_565
Al2 Al3 2.989614 1_565
Al2 Al3 2.989614 1_655
Al2 Ce1 3.135267 1_655
Al2 Ce1 3.135267 1_565
Al2 Ce3 3.144392 1_565
Al2 Ce3 3.144392 1_655
Al3 Ni5 2.808446 1_565
Al3 Ni5 2.808446 1_655
Al3 Ce1 3.176847 1_555
Al3 Ce3 3.237618 1_555
Al4 Ni4 2.410507 1_655
Al4 Ni4 2.410507 1_565
Al4 Ni2 2.547046 1_555
Al4 Ce0 3.087724 1_555
Al5 Ni1 2.441075 1_556
Al5 Ni3 2.528408 1_455
Al5 Ni3 2.528408 1_545
Al5 Ce1 3.099924 1_546
Al5 Ce1 3.099924 1_456
Al5 Ce2 3.337502 1_555
Al6 Ni3 2.407141 1_555
Al6 Ni0 2.451385 1_555
Al6 Al7 3.048092 1_665
Al6 Al9 3.079377 1_565
Al6 Al9 3.079377 1_655
Al6 Ce2 3.235308 1_565
Al6 Ce2 3.235308 1_655
Al6 Ce0 3.410388 1_555
Al7 Ce2 3.135267 1_545
Al7 Ce2 3.135267 1_455
Al7 Ce0 3.144392 1_455
Al7 Ce0 3.144392 1_545
Al8 Ni1 2.368606 1_555
Al8 Ce1 3.070839 1_555
Al8 Ce3 3.165317 1_555
Al8 Ce2 3.215411 1_554
Al9 Ni4 2.529723 1_555
Al9 Ni0 2.538238 1_545
Al9 Ni0 2.538238 1_455
Al9 Ce0 3.090081 1_545
Al9 Ce0 3.090081 1_455
Al10 Ni2 2.388993 1_555
Al10 Ni0 2.491719 1_545
Al10 Ni0 2.491719 1_455
Al10 Al9 2.696180 1_555
Al10 Al4 2.716433 1_555
Al10 Al13 2.725585 1_555
Al10 Al19 2.782833 1_655
Al10 Al19 2.782833 1_565
Al11 Ni1 2.463525 1_655
Al11 Ni1 2.463525 1_565
Al11 Al18 2.622699 1_555
Al11 Al22 2.803541 1_555
Al11 Al15 2.850900 1_565
Al11 Al15 2.850900 1_655
Al11 Ce3 3.063212 1_565
Al11 Ce3 3.063212 1_655
Al11 Al2 3.185456 1_555
Al11 Ce1 3.375560 1_555
Al12 Ni2 2.410507 1_455
Al12 Ni2 2.410507 1_545
Al12 Ni4 2.547046 1_555
Al12 Al4 2.620425 1_545
Al12 Al4 2.620425 1_455
Al12 Al19 2.662797 1_555
Al12 Ce3 3.087724 1_555
Al13 Al21 2.717705 1_565
Al13 Al21 2.717705 1_655
Al13 Al6 2.737139 1_455
Al13 Al6 2.737139 1_545
Al13 Ni0 2.808446 1_545
Al13 Ni0 2.808446 1_455
Al13 Al9 2.840671 1_555
Al13 Al7 2.989614 1_655
Al13 Al7 2.989614 1_565
Al13 Ce2 3.176847 1_555
Al13 Ce0 3.237618 1_555
Al14 Al16 2.910118 1_544
Al14 Al16 2.910118 1_454
Al14 Al8 2.910118 1_455
Al14 Al8 2.910118 1_545
Al14 Al5 3.111499 1_554
Al14 Al18 3.111499 1_445
Al14 Al2 3.142855 1_445
Al14 Al7 3.142855 1_554
Al14 Ce1 3.143627 1_455
Al14 Ce1 3.143627 1_545
Al14 Ce2 3.143627 1_544
Al14 Ce2 3.143627 1_454
Al15 Ni1 2.407141 1_555
Al15 Ni5 2.451385 1_555
Al15 Al3 2.737139 1_455
Al15 Al3 2.737139 1_545
Al15 Al2 3.048092 1_445
Al15 Al22 3.079377 1_455
Al15 Al22 3.079377 1_545
Al15 Ce1 3.235308 1_455
Al15 Ce1 3.235308 1_545
Al15 Ce3 3.410388 1_555
Al16 Ni3 2.368606 1_555
Al16 Al7 2.879650 1_565
Al16 Al7 2.879650 1_655
Al16 Al5 3.014684 1_565
Al16 Al5 3.014684 1_655
Al16 Ce2 3.070839 1_555
Al16 Ce0 3.165317 1_555
Al16 Ce1 3.215411 1_556
Al17 Ni3 2.463525 1_545
Al17 Ni3 2.463525 1_455
Al17 Al5 2.622699 1_555
Al17 Al9 2.803541 1_555
Al17 Al6 2.850900 1_545
Al17 Al6 2.850900 1_455
Al17 Ce0 3.063212 1_545
Al17 Ce0 3.063212 1_455
Al17 Al7 3.185456 1_555
Al17 Ce2 3.375560 1_555
Al18 Ni3 2.441075 1_554
Al18 Ni1 2.528408 1_565
Al18 Ni1 2.528408 1_655
Al18 Al5 2.840310 1_564
Al18 Al5 2.840310 1_654
Al18 Al8 3.014684 1_565
Al18 Al8 3.014684 1_655
Al18 Ce2 3.099924 1_564
Al18 Ce2 3.099924 1_654
Al18 Ce1 3.337502 1_555
Al19 Ni5 2.415761 1_555
Al19 Ni2 2.545395 1_455
Al19 Ni2 2.545395 1_545
Al19 Al20 2.719301 1_445
Al19 Al22 2.851006 1_545
Al19 Al22 2.851006 1_455
Al19 Ni0 3.056217 1_445
Al19 Ce3 3.263652 1_555
Al20 Ni0 2.415761 1_555
Al20 Ni4 2.545395 1_565
Al20 Ni4 2.545395 1_655
Al20 Al4 2.662797 1_555
Al20 Al9 2.851006 1_565
Al20 Al9 2.851006 1_655
Al20 Ni5 3.056217 1_665
Al20 Ce0 3.263652 1_555
Al21 Ni4 2.472594 1_555
Al21 Ni0 2.475826 1_445
Al21 Al4 2.778329 1_455
Al21 Al4 2.778329 1_545
Al21 Al7 2.885244 1_555
Al21 Ce0 3.148704 1_545
Al21 Ce0 3.148704 1_455
Al22 Ni2 2.529723 1_555
Al22 Ni5 2.538238 1_565
Al22 Ni5 2.538238 1_655
Al22 Al3 2.840671 1_555
Al22 Ce3 3.090081 1_565
Al22 Ce3 3.090081 1_655
