# generated using pymatgen
data_U2PN2
_symmetry_space_group_name_H-M   'P 1'
_cell_length_a   3.81518831
_cell_length_b   3.81518831
_cell_length_c   6.53963350
_cell_angle_alpha   90.00000000
_cell_angle_beta   90.00000000
_cell_angle_gamma   119.99999735
_symmetry_Int_Tables_number   1
_chemical_formula_structural   U2PN2
_chemical_formula_sum   'U2 P1 N2'
_cell_volume   82.43582905
_cell_formula_units_Z   1
loop_
 _symmetry_equiv_pos_site_id
 _symmetry_equiv_pos_as_xyz
  1  'x, y, z'
loop_
 _atom_site_type_symbol
 _atom_site_label
 _atom_site_symmetry_multiplicity
 _atom_site_fract_x
 _atom_site_fract_y
 _atom_site_fract_z
 _atom_site_occupancy
  U  U0  1  0.66666700  0.33333300  0.72126677  1
  U  U1  1  0.33333300  0.66666700  0.27873323  1
  P  P0  1  0.00000000  0.00000000  -0.00000000  1
  N  N0  1  0.33333300  0.66666700  0.63088604  1
  N  N1  1  0.66666700  0.33333300  0.36911396  1
loop_
_geom_bond_atom_site_label_1
_geom_bond_atom_site_label_2
_geom_bond_distance
_geom_bond_site_symmetry_2
P0 U0 2.859113 1_454
P0 U1 2.859113 1_545
P0 U1 2.859115 1_555
P0 U0 2.859115 1_554
P0 U1 2.859115 1_445
P0 U0 2.859115 1_444
N0 U0 2.280620 1_455
N0 U0 2.280620 1_565
N0 U0 2.280626 1_555
N0 U1 2.302950 1_555
N1 U1 2.280620 1_545
N1 U1 2.280620 1_655
N1 U1 2.280626 1_555
N1 U0 2.302950 1_555
