# generated using pymatgen
data_NbCoTe2
_symmetry_space_group_name_H-M   'P 1'
_cell_length_a   8.60677626
_cell_length_b   8.60677626
_cell_length_c   6.37525600
_cell_angle_alpha   90.00000000
_cell_angle_beta   90.00000000
_cell_angle_gamma   126.14714805
_symmetry_Int_Tables_number   1
_chemical_formula_structural   NbCoTe2
_chemical_formula_sum   'Nb4 Co4 Te8'
_cell_volume   381.34999993
_cell_formula_units_Z   4
loop_
 _symmetry_equiv_pos_site_id
 _symmetry_equiv_pos_as_xyz
  1  'x, y, z'
loop_
 _atom_site_type_symbol
 _atom_site_label
 _atom_site_symmetry_multiplicity
 _atom_site_fract_x
 _atom_site_fract_y
 _atom_site_fract_z
 _atom_site_occupancy
  Nb  Nb0  1  0.70649600  0.70649600  0.50000000  1
  Nb  Nb1  1  0.79350400  0.79350400  0.00000000  1
  Nb  Nb2  1  0.29350400  0.29350400  0.50000000  1
  Nb  Nb3  1  0.20649600  0.20649600  0.00000000  1
  Co  Co0  1  0.05554400  0.94445600  0.64411000  1
  Co  Co1  1  0.44445600  0.55554400  0.14411000  1
  Co  Co2  1  0.94445600  0.05554400  0.35589000  1
  Co  Co3  1  0.55554400  0.44445600  0.85589000  1
  Te  Te0  1  0.40332300  0.09667700  0.75000000  1
  Te  Te1  1  0.09667700  0.40332300  0.25000000  1
  Te  Te2  1  0.59667700  0.90332300  0.25000000  1
  Te  Te3  1  0.90332300  0.59667700  0.75000000  1
  Te  Te4  1  0.89188300  0.10811700  0.74399500  1
  Te  Te5  1  0.60811700  0.39188300  0.24399500  1
  Te  Te6  1  0.10811700  0.89188300  0.25600500  1
  Te  Te7  1  0.39188300  0.60811700  0.75600500  1
loop_
_geom_bond_atom_site_label_1
_geom_bond_atom_site_label_2
_geom_bond_distance
_geom_bond_site_symmetry_2
Nb0 Te7 2.829851 1_555
Nb0 Te5 2.829851 1_555
Nb0 Te3 2.862232 1_555
Nb0 Te2 2.862232 1_555
Nb1 Te6 2.829851 1_655
Nb1 Te4 2.829851 1_564
Nb1 Te2 2.862232 1_555
Nb1 Te3 2.862232 1_554
Nb2 Te7 2.829851 1_555
Nb2 Te5 2.829851 1_555
Nb2 Te1 2.862232 1_555
Nb2 Te0 2.862232 1_555
Nb3 Te6 2.829851 1_545
Nb3 Te4 2.829851 1_454
Nb3 Te0 2.862232 1_554
Nb3 Te1 2.862232 1_555
Co0 Co2 2.506601 1_465
Co0 Te3 2.550569 1_455
Co0 Te0 2.550569 1_565
Co0 Te4 2.591236 1_465
Co0 Te6 2.602504 1_555
Co0 Nb0 2.608678 1_455
Co0 Nb2 2.608678 1_565
Co0 Nb1 2.909559 1_456
Co0 Nb3 2.909559 1_566
Co1 Co3 2.506601 1_554
Co1 Te1 2.550569 1_555
Co1 Te2 2.550569 1_555
Co1 Te5 2.591236 1_555
Co1 Te7 2.602504 1_554
Co1 Nb3 2.608678 1_555
Co1 Nb1 2.608678 1_555
Co1 Nb2 2.909559 1_555
Co1 Nb0 2.909559 1_555
Co2 Te2 2.550569 1_545
Co2 Te1 2.550569 1_655
Co2 Te6 2.591236 1_645
Co2 Te4 2.602504 1_555
Co2 Nb0 2.608678 1_545
Co2 Nb2 2.608678 1_655
Co2 Nb1 2.909559 1_545
Co2 Nb3 2.909559 1_655
Co3 Te0 2.550569 1_555
Co3 Te3 2.550569 1_555
Co3 Te7 2.591236 1_555
Co3 Te5 2.602504 1_556
Co3 Nb3 2.608678 1_556
Co3 Nb1 2.608678 1_556
Co3 Nb2 2.909559 1_555
Co3 Nb0 2.909559 1_555
