# generated using pymatgen
data_La3InS6
_symmetry_space_group_name_H-M   'P 1'
_cell_length_a   4.08693485
_cell_length_b   14.00502483
_cell_length_c   16.98236880
_cell_angle_alpha   89.99792902
_cell_angle_beta   90.00212112
_cell_angle_gamma   89.99390147
_symmetry_Int_Tables_number   1
_chemical_formula_structural   La3InS6
_chemical_formula_sum   'La12 In4 S24'
_cell_volume   972.03043316
_cell_formula_units_Z   4
loop_
 _symmetry_equiv_pos_site_id
 _symmetry_equiv_pos_as_xyz
  1  'x, y, z'
loop_
 _atom_site_type_symbol
 _atom_site_label
 _atom_site_symmetry_multiplicity
 _atom_site_fract_x
 _atom_site_fract_y
 _atom_site_fract_z
 _atom_site_occupancy
  La  La0  1  0.25249292  0.03626364  0.77974775  1
  La  La1  1  0.25254290  0.96368874  0.22027113  1
  La  La2  1  0.74748001  0.46371728  0.27975169  1
  La  La3  1  0.74758427  0.53627216  0.72023304  1
  La  La4  1  0.25686701  0.24921563  0.60974600  1
  La  La5  1  0.25682943  0.75068920  0.39034090  1
  La  La6  1  0.74324613  0.25072554  0.10966195  1
  La  La7  1  0.74320247  0.74930507  0.89030790  1
  La  La8  1  0.74632613  0.30929151  0.85764398  1
  La  La9  1  0.74637830  0.69070294  0.14236437  1
  La  La10  1  0.25364445  0.19067201  0.35765220  1
  La  La11  1  0.25364843  0.80931503  0.64235944  1
  In  In0  1  0.75258331  -0.00002736  0.49995400  1
  In  In1  1  0.24740518  0.50002542  -0.00002016  1
  In  In2  1  0.41577166  0.50004783  0.50003362  1
  In  In3  1  0.58423018  0.00002458  0.00006995  1
  S  S0  1  0.76249110  0.39780278  0.58746393  1
  S  S1  1  0.76262163  0.60219991  0.41247629  1
  S  S2  1  0.23732227  0.10221110  0.08749907  1
  S  S3  1  0.23746175  0.89784121  0.91250450  1
  S  S4  1  0.24590039  0.31383802  0.98294144  1
  S  S5  1  0.24595524  0.68618449  0.01704922  1
  S  S6  1  0.75410797  0.18615390  0.48294124  1
  S  S7  1  0.75406341  0.81383067  0.51704748  1
  S  S8  1  0.75157255  0.10657646  0.89295590  1
  S  S9  1  0.75163371  0.89343465  0.10702638  1
  S  S10  1  0.24839008  0.39342680  0.39294898  1
  S  S11  1  0.24837938  0.60660173  0.60701754  1
  S  S12  1  0.75472699  0.17752349  0.71745898  1
  S  S13  1  0.75475831  0.82246191  0.28256836  1
  S  S14  1  0.24515999  0.32245699  0.21745554  1
  S  S15  1  0.24530199  0.67757181  0.78255099  1
  S  S16  1  0.24745523  0.38680412  0.75648663  1
  S  S17  1  0.24745666  0.61318113  0.24350848  1
  S  S18  1  0.75251095  0.11316124  0.25651116  1
  S  S19  1  0.75252929  0.88684473  0.74350318  1
  S  S20  1  0.25321136  0.01968561  0.60173043  1
  S  S21  1  0.25322409  0.98028050  0.39825200  1
  S  S22  1  0.74675061  0.48031609  0.10173770  1
  S  S23  1  0.74678427  0.51968044  0.89824881  1
loop_
_geom_bond_atom_site_label_1
_geom_bond_atom_site_label_2
_geom_bond_distance
_geom_bond_site_symmetry_2
La0 S8 2.970950 1_555
La0 S3 2.973984 1_545
La0 S8 2.976074 1_455
La0 S19 2.988904 1_545
La0 S19 2.988974 1_445
La0 S12 3.028231 1_455
La0 S20 3.032068 1_555
La0 S12 3.040864 1_555
La1 S9 2.971065 1_555
La1 S2 2.975097 1_565
La1 S9 2.976218 1_455
La1 S18 2.989401 1_465
La1 S18 2.989496 1_565
La1 S13 3.028366 1_455
La1 S21 3.031465 1_555
La1 S13 3.040225 1_555
La2 S10 2.970807 1_555
La2 S1 2.974232 1_555
La2 S10 2.975678 1_655
La2 S17 2.989241 1_555
La2 S17 2.989446 1_655
La2 S14 3.028145 1_655
La2 S22 3.032017 1_555
La2 S14 3.041146 1_555
La3 S11 2.971270 1_555
La3 S0 2.974659 1_555
La3 S11 2.975978 1_655
La3 S16 2.988893 1_655
La3 S16 2.989949 1_555
La3 S15 3.028969 1_655
La3 S23 3.032040 1_555
La3 S15 3.041298 1_555
La4 S12 2.914347 1_555
La4 S0 2.924885 1_455
La4 S12 2.926830 1_455
La4 S0 2.957153 1_555
La4 S6 3.089857 1_555
La4 S6 3.104755 1_455
La4 S16 3.150390 1_555
La4 S20 3.217496 1_555
La5 S13 2.915811 1_555
La5 S1 2.923439 1_455
La5 S13 2.927407 1_455
La5 S1 2.956022 1_555
La5 S7 3.089015 1_555
La5 S7 3.103916 1_455
La5 S17 3.150936 1_555
La5 S21 3.218274 1_555
La6 S14 2.916181 1_555
La6 S2 2.923091 1_655
La6 S14 2.927177 1_655
La6 S2 2.957034 1_555
La6 S4 3.089196 1_554
La6 S4 3.103743 1_654
La6 S18 3.151522 1_555
La6 S22 3.218265 1_555
La7 S15 2.915324 1_555
La7 S3 2.924185 1_655
La7 S15 2.927273 1_655
La7 S3 2.956508 1_555
La7 S5 3.089438 1_556
La7 S5 3.104056 1_656
La7 S19 3.150724 1_555
La7 S23 3.218752 1_555
La8 S16 2.878482 1_555
La8 S16 2.885280 1_655
La8 S8 2.901728 1_555
La8 S4 2.949603 1_655
La8 S4 2.952112 1_555
La8 S12 3.012416 1_555
La8 S23 3.026141 1_555
La9 S17 2.878797 1_555
La9 S17 2.884794 1_655
La9 S9 2.902053 1_555
La9 S5 2.949918 1_655
La9 S5 2.952213 1_555
La9 S13 3.012595 1_555
La9 S22 3.026196 1_555
La10 S18 2.878431 1_555
La10 S18 2.885075 1_455
La10 S10 2.902263 1_555
La10 S6 2.949490 1_455
La10 S6 2.951995 1_555
La10 S14 3.012614 1_555
La10 S21 3.026108 1_545
La11 S19 2.878674 1_555
La11 S19 2.885087 1_455
La11 S11 2.901857 1_555
La11 S7 2.949789 1_455
La11 S7 2.952256 1_555
La11 S15 3.012187 1_555
La11 S20 3.025935 1_565
In0 S7 2.623031 1_545
In0 S6 2.623429 1_555
In0 S21 2.687756 1_545
In0 S20 2.688690 1_555
In0 S21 2.691788 1_645
In0 S20 2.692537 1_655
In1 S5 2.623245 1_555
In1 S4 2.623583 1_554
In1 S23 2.688165 1_554
In1 S22 2.688290 1_555
In1 S23 2.691879 1_454
In1 S22 2.692496 1_455
In2 S11 2.448659 1_555
In2 S10 2.450540 1_555
In2 S0 2.502443 1_555
In2 S1 2.503516 1_555
In3 S9 2.448515 1_545
In3 S8 2.450234 1_554
In3 S2 2.502522 1_555
In3 S3 2.503659 1_544
