# generated using pymatgen
data_AsSeS2N2ClF6
_symmetry_space_group_name_H-M   'P 1'
_cell_length_a   19.99068700
_cell_length_b   9.54553600
_cell_length_c   12.49592628
_cell_angle_alpha   57.60320467
_cell_angle_beta   90.00000000
_cell_angle_gamma   90.00000000
_symmetry_Int_Tables_number   1
_chemical_formula_structural   AsSeS2N2ClF6
_chemical_formula_sum   'As8 Se8 S16 N16 Cl8 F48'
_cell_volume   2013.36753633
_cell_formula_units_Z   8
loop_
 _symmetry_equiv_pos_site_id
 _symmetry_equiv_pos_as_xyz
  1  'x, y, z'
loop_
 _atom_site_type_symbol
 _atom_site_label
 _atom_site_symmetry_multiplicity
 _atom_site_fract_x
 _atom_site_fract_y
 _atom_site_fract_z
 _atom_site_occupancy
  As  As0  1  0.96503300  0.49970900  0.24791700  1
  As  As1  1  0.20771000  0.02954600  0.40027800  1
  As  As2  1  0.70771000  0.97045400  0.09972200  1
  As  As3  1  0.53496700  0.49970900  0.74791700  1
  As  As4  1  0.03496700  0.50029100  0.75208300  1
  As  As5  1  0.29229000  0.02954600  0.90027800  1
  As  As6  1  0.46503300  0.50029100  0.25208300  1
  As  As7  1  0.79229000  0.97045400  0.59972200  1
  Se  Se0  1  0.27830600  0.39291900  0.46914600  1
  Se  Se1  1  0.48476200  0.14139500  0.67613500  1
  Se  Se2  1  0.98476200  0.85860500  0.82386500  1
  Se  Se3  1  0.22169400  0.39291900  0.96914600  1
  Se  Se4  1  0.51523800  0.85860500  0.32386500  1
  Se  Se5  1  0.77830600  0.60708100  0.03085400  1
  Se  Se6  1  0.72169400  0.60708100  0.53085400  1
  Se  Se7  1  0.01523800  0.14139500  0.17613500  1
  S  S0  1  0.64955900  0.43779800  0.10092100  1
  S  S1  1  0.49267000  0.91625800  0.88726300  1
  S  S2  1  0.10313700  0.06778100  0.75407000  1
  S  S3  1  0.73576900  0.38867100  0.74330100  1
  S  S4  1  0.76423100  0.38867100  0.24330100  1
  S  S5  1  0.23576900  0.61132900  0.75669900  1
  S  S6  1  0.89686300  0.93221900  0.24593000  1
  S  S7  1  0.50733000  0.08374200  0.11273700  1
  S  S8  1  0.60313700  0.93221900  0.74593000  1
  S  S9  1  0.00733000  0.91625800  0.38726300  1
  S  S10  1  0.99267000  0.08374200  0.61273700  1
  S  S11  1  0.39686300  0.06778100  0.25407000  1
  S  S12  1  0.26423100  0.61132900  0.25669900  1
  S  S13  1  0.35044100  0.56220200  0.89907900  1
  S  S14  1  0.85044100  0.43779800  0.60092100  1
  S  S15  1  0.14955900  0.56220200  0.39907900  1
  N  N0  1  0.80573600  0.58747500  0.49586000  1
  N  N1  1  0.80988800  0.34146100  0.72750200  1
  N  N2  1  0.93459500  0.09777700  0.14263100  1
  N  N3  1  0.56540500  0.09777700  0.64263100  1
  N  N4  1  0.30573600  0.41252500  0.00414000  1
  N  N5  1  0.69426400  0.58747500  0.99586000  1
  N  N6  1  0.43459500  0.90222300  0.35736900  1
  N  N7  1  0.06540500  0.90222300  0.85736900  1
  N  N8  1  0.93809400  0.84578100  0.37210300  1
  N  N9  1  0.30988800  0.65853900  0.77249800  1
  N  N10  1  0.06190600  0.15421900  0.62789700  1
  N  N11  1  0.43809400  0.15421900  0.12789700  1
  N  N12  1  0.19426400  0.41252500  0.50414000  1
  N  N13  1  0.19011200  0.65853900  0.27249800  1
  N  N14  1  0.69011200  0.34146100  0.22750200  1
  N  N15  1  0.56190600  0.84578100  0.87210300  1
  Cl  Cl0  1  0.58657400  0.96252000  0.40236400  1
  Cl  Cl1  1  0.66030600  0.47774100  0.45874700  1
  Cl  Cl2  1  0.91342600  0.96252000  0.90236400  1
  Cl  Cl3  1  0.83969400  0.47774100  0.95874700  1
  Cl  Cl4  1  0.33969400  0.52225900  0.54125300  1
  Cl  Cl5  1  0.16030600  0.52225900  0.04125300  1
  Cl  Cl6  1  0.08657400  0.03748000  0.09763600  1
  Cl  Cl7  1  0.41342600  0.03748000  0.59763600  1
  F  F0  1  0.01407000  0.44577900  0.90791300  1
  F  F1  1  0.76761200  0.76167600  0.65810600  1
  F  F2  1  0.50228300  0.69049000  0.71605800  1
  F  F3  1  0.61579900  0.59302400  0.69196600  1
  F  F4  1  0.45632300  0.40205200  0.80443600  1
  F  F5  1  0.31792300  0.82325500  0.95744900  1
  F  F6  1  0.23238800  0.23832400  0.34189400  1
  F  F7  1  0.23171200  0.05725400  0.25344700  1
  F  F8  1  0.04367700  0.40205200  0.30443600  1
  F  F9  1  0.18283600  0.00750700  0.54428300  1
  F  F10  1  0.68283600  0.99249300  0.95571700  1
  F  F11  1  0.76828800  0.94274600  0.74655300  1
  F  F12  1  0.44234900  0.55418100  0.09733800  1
  F  F13  1  0.56867100  0.30829900  0.77868500  1
  F  F14  1  0.94234900  0.44581900  0.40266200  1
  F  F15  1  0.28926900  0.95899900  0.46098600  1
  F  F16  1  0.81792300  0.17674500  0.54255100  1
  F  F17  1  0.81716400  0.99249300  0.45571700  1
  F  F18  1  0.99771700  0.69049000  0.21605800  1
  F  F19  1  0.31716400  0.00750700  0.04428300  1
  F  F20  1  0.11579900  0.40697600  0.80803400  1
  F  F21  1  0.87475300  0.89824100  0.66231000  1
  F  F22  1  0.78926900  0.04100100  0.03901400  1
  F  F23  1  0.18207700  0.82325500  0.45744900  1
  F  F24  1  0.12524700  0.10175900  0.33769000  1
  F  F25  1  0.48593000  0.44577900  0.40791300  1
  F  F26  1  0.00228300  0.30951000  0.78394200  1
  F  F27  1  0.26761200  0.23832400  0.84189400  1
  F  F28  1  0.93132900  0.30829900  0.27868500  1
  F  F29  1  0.55765100  0.44581900  0.90266200  1
  F  F30  1  0.73171200  0.94274600  0.24655300  1
  F  F31  1  0.43132900  0.69170100  0.22131500  1
  F  F32  1  0.73238800  0.76167600  0.15810600  1
  F  F33  1  0.62524700  0.89824100  0.16231000  1
  F  F34  1  0.21073100  0.95899900  0.96098600  1
  F  F35  1  0.51407000  0.55422100  0.59208700  1
  F  F36  1  0.71073100  0.04100100  0.53901400  1
  F  F37  1  0.88420100  0.59302400  0.19196600  1
  F  F38  1  0.06867100  0.69170100  0.72131500  1
  F  F39  1  0.49771700  0.30951000  0.28394200  1
  F  F40  1  0.95632300  0.59794800  0.69556400  1
  F  F41  1  0.37475300  0.10175900  0.83769000  1
  F  F42  1  0.54367700  0.59794800  0.19556400  1
  F  F43  1  0.26828800  0.05725400  0.75344700  1
  F  F44  1  0.38420100  0.40697600  0.30803400  1
  F  F45  1  0.98593000  0.55422100  0.09208700  1
  F  F46  1  0.05765100  0.55418100  0.59733800  1
  F  F47  1  0.68207700  0.17674500  0.04255100  1
loop_
_geom_bond_atom_site_label_1
_geom_bond_atom_site_label_2
_geom_bond_distance
_geom_bond_site_symmetry_2
As0 F18 1.767751 1_555
As0 F8 1.770295 1_655
As0 F14 1.772990 1_555
As0 F45 1.775182 1_555
As0 F28 1.785321 1_555
As0 F37 1.796107 1_555
As1 F9 1.767477 1_555
As1 F15 1.771954 1_545
As1 F23 1.772876 1_545
As1 F7 1.773873 1_555
As1 F6 1.785859 1_555
As1 F24 1.796292 1_555
As2 F10 1.767477 1_554
As2 F22 1.771954 1_565
As2 F47 1.772876 1_565
As2 F30 1.773873 1_555
As2 F32 1.785859 1_555
As2 F33 1.796292 1_555
As3 F2 1.767751 1_555
As3 F4 1.770295 1_555
As3 F29 1.772990 1_555
As3 F35 1.775182 1_555
As3 F13 1.785321 1_555
As3 F3 1.796107 1_555
As4 F26 1.767751 1_555
As4 F40 1.770295 1_455
As4 F46 1.772990 1_555
As4 F0 1.775182 1_555
As4 F38 1.785321 1_555
As4 F20 1.796107 1_555
As5 F19 1.767477 1_556
As5 F34 1.771954 1_545
As5 F5 1.772876 1_545
As5 F43 1.773873 1_555
As5 F27 1.785859 1_555
As5 F41 1.796292 1_555
As6 F39 1.767751 1_555
As6 F42 1.770295 1_555
As6 F12 1.772990 1_555
As6 F25 1.775182 1_555
As6 F31 1.785321 1_555
As6 F44 1.796107 1_555
As7 F17 1.767477 1_555
As7 F36 1.771954 1_565
As7 F16 1.772876 1_565
As7 F11 1.773873 1_555
As7 F1 1.785859 1_555
As7 F21 1.796292 1_555
S1 Se1 2.351232 1_565
S3 Se6 2.354262 1_555
S4 Se5 2.354262 1_555
S5 Se3 2.354262 1_555
S7 Se4 2.351232 1_545
S9 Se7 2.351232 1_565
S10 Se2 2.351232 1_545
S12 Se0 2.354262 1_555
N0 S14 1.597996 1_555
N0 Se6 1.771024 1_555
N1 S14 1.564011 1_555
N1 S3 1.591476 1_555
N2 S6 1.595847 1_545
N2 Se7 1.770400 1_655
N3 S8 1.595847 1_545
N3 Se1 1.770400 1_555
N4 S13 1.597996 1_554
N4 Se3 1.771024 1_554
N5 S0 1.597996 1_556
N5 Se5 1.771024 1_556
N6 S11 1.595847 1_565
N6 Se4 1.770400 1_555
N7 S2 1.595847 1_565
N7 Se2 1.770400 1_455
N8 S6 1.565884 1_555
N8 S9 1.593955 1_655
N9 S13 1.564011 1_555
N9 S5 1.591476 1_555
N10 S2 1.565884 1_555
N10 S10 1.593955 1_455
N11 S11 1.565884 1_555
N11 S7 1.593955 1_555
N12 S15 1.597996 1_555
N12 Se0 1.771024 1_555
N13 S15 1.564011 1_555
N13 S12 1.591476 1_555
N14 S0 1.564011 1_555
N14 S4 1.591476 1_555
N15 S8 1.565884 1_555
N15 S1 1.593955 1_555
Cl0 Se4 2.241065 1_555
Cl1 Se6 2.243704 1_555
Cl2 Se2 2.241065 1_555
Cl3 Se5 2.243704 1_556
Cl4 Se0 2.243704 1_555
Cl5 Se3 2.243704 1_554
Cl6 Se7 2.241065 1_555
Cl7 Se1 2.241065 1_555
