# generated using pymatgen
data_Ba6Ti5S15O
_symmetry_space_group_name_H-M   'P 1'
_cell_length_a   8.60278143
_cell_length_b   8.60278143
_cell_length_c   24.01205600
_cell_angle_alpha   90.00000000
_cell_angle_beta   90.00000000
_cell_angle_gamma   133.63996858
_symmetry_Int_Tables_number   1
_chemical_formula_structural   Ba6Ti5S15O
_chemical_formula_sum   'Ba12 Ti10 S30 O2'
_cell_volume   1286.05655662
_cell_formula_units_Z   2
loop_
 _symmetry_equiv_pos_site_id
 _symmetry_equiv_pos_as_xyz
  1  'x, y, z'
loop_
 _atom_site_type_symbol
 _atom_site_label
 _atom_site_symmetry_multiplicity
 _atom_site_fract_x
 _atom_site_fract_y
 _atom_site_fract_z
 _atom_site_occupancy
  Ba  Ba0  1  0.37943100  0.18109700  0.32212700  1
  Ba  Ba1  1  0.62056900  0.81890300  0.82212700  1
  Ba  Ba2  1  0.09788500  0.31475400  0.16384300  1
  Ba  Ba3  1  0.15534700  0.44460800  0.48288600  1
  Ba  Ba4  1  0.81890300  0.62056900  0.17787300  1
  Ba  Ba5  1  0.84465300  0.55539200  0.98288600  1
  Ba  Ba6  1  0.55539200  0.84465300  0.01711400  1
  Ba  Ba7  1  0.18109700  0.37943100  0.67787300  1
  Ba  Ba8  1  0.90211500  0.68524600  0.66384300  1
  Ba  Ba9  1  0.31475400  0.09788500  0.83615700  1
  Ba  Ba10  1  0.44460800  0.15534700  0.51711400  1
  Ba  Ba11  1  0.68524600  0.90211500  0.33615700  1
  Ti  Ti0  1  0.36764400  0.11100100  0.09462000  1
  Ti  Ti1  1  0.93525300  0.44890200  0.80497900  1
  Ti  Ti2  1  0.55109800  0.06474700  0.69502100  1
  Ti  Ti3  1  0.17392800  0.17392800  0.00000000  1
  Ti  Ti4  1  0.11100100  0.36764400  0.90538000  1
  Ti  Ti5  1  0.63235600  0.88899900  0.59462000  1
  Ti  Ti6  1  0.88899900  0.63235600  0.40538000  1
  Ti  Ti7  1  0.82607200  0.82607200  0.50000000  1
  Ti  Ti8  1  0.44890200  0.93525300  0.19502100  1
  Ti  Ti9  1  0.06474700  0.55109800  0.30497900  1
  S  S0  1  0.64401500  0.94928100  0.49360300  1
  S  S1  1  0.21783200  0.69227900  0.89018300  1
  S  S2  1  0.73896000  0.21522900  0.88433500  1
  S  S3  1  0.35598500  0.05071900  0.99360300  1
  S  S4  1  0.21522900  0.73896000  0.11566500  1
  S  S5  1  0.80812200  0.60930600  0.80384800  1
  S  S6  1  0.02902000  0.06377300  0.57362800  1
  S  S7  1  0.60930600  0.80812200  0.19615200  1
  S  S8  1  0.46763600  0.43949400  0.07255200  1
  S  S9  1  0.05071900  0.35598500  0.00639700  1
  S  S10  1  0.78216800  0.30772100  0.39018300  1
  S  S11  1  0.30772100  0.78216800  0.60981700  1
  S  S12  1  0.25572700  0.74427300  0.75000000  1
  S  S13  1  0.93622700  0.97098000  0.92637200  1
  S  S14  1  0.87355900  0.69694600  0.30922200  1
  S  S15  1  0.69694600  0.87355900  0.69077800  1
  S  S16  1  0.26104000  0.78477100  0.38433500  1
  S  S17  1  0.97098000  0.93622700  0.07362800  1
  S  S18  1  0.19187800  0.39069400  0.30384800  1
  S  S19  1  0.56050600  0.53236400  0.42744800  1
  S  S20  1  0.74427300  0.25572700  0.25000000  1
  S  S21  1  0.39069400  0.19187800  0.69615200  1
  S  S22  1  0.94928100  0.64401500  0.50639700  1
  S  S23  1  0.06377300  0.02902000  0.42637200  1
  S  S24  1  0.69227900  0.21783200  0.10981700  1
  S  S25  1  0.12644100  0.30305400  0.80922200  1
  S  S26  1  0.43949400  0.46763600  0.92744800  1
  S  S27  1  0.53236400  0.56050600  0.57255200  1
  S  S28  1  0.78477100  0.26104000  0.61566500  1
  S  S29  1  0.30305400  0.12644100  0.19077800  1
  O  O0  1  0.75622000  0.24378000  0.75000000  1
  O  O1  1  0.24378000  0.75622000  0.25000000  1
loop_
_geom_bond_atom_site_label_1
_geom_bond_atom_site_label_2
_geom_bond_distance
_geom_bond_site_symmetry_2
Ba0 S18 3.172181 1_555
Ba0 S16 3.178102 1_545
Ba0 S29 3.189647 1_555
Ba0 S23 3.232312 1_555
Ba0 S20 3.237524 1_555
Ba0 S10 3.263701 1_555
Ba0 S14 3.371124 1_445
Ba0 S19 3.384780 1_555
Ba0 S14 3.438326 1_555
Ba0 O1 3.440048 1_545
Ba1 S5 3.172181 1_555
Ba1 S2 3.178102 1_565
Ba1 S15 3.189647 1_555
Ba1 S13 3.232312 1_555
Ba1 S12 3.237524 1_555
Ba1 S1 3.263701 1_555
Ba1 S25 3.371124 1_665
Ba1 S26 3.384780 1_555
Ba1 S25 3.438326 1_555
Ba1 O0 3.440048 1_565
Ba2 S29 3.178790 1_555
Ba2 S24 3.246218 1_455
Ba2 S4 3.254281 1_555
Ba2 S8 3.370970 1_555
Ba2 S17 3.403178 1_445
Ba2 S18 3.413687 1_555
Ba2 S20 3.414636 1_455
Ba2 S7 3.461113 1_445
Ba2 S7 3.492700 1_555
Ba3 S22 3.255998 1_455
Ba3 S19 3.295258 1_555
Ba3 S16 3.364165 1_555
Ba3 S23 3.369979 1_555
Ba3 S0 3.375892 1_555
Ba3 S10 3.380856 1_455
Ba3 S27 3.418469 1_555
Ba3 S0 3.420829 1_445
Ba3 S6 3.427542 1_555
Ba3 S11 3.766525 1_555
Ba4 S7 3.172181 1_555
Ba4 S4 3.178102 1_655
Ba4 S14 3.189647 1_555
Ba4 S17 3.232312 1_555
Ba4 S20 3.237524 1_555
Ba4 S24 3.263701 1_555
Ba4 S29 3.371124 1_665
Ba4 S8 3.384780 1_555
Ba4 S29 3.438326 1_555
Ba4 O1 3.440048 1_655
Ba5 S9 3.255998 1_656
Ba5 S26 3.295258 1_555
Ba5 S2 3.364165 1_555
Ba5 S13 3.369979 1_555
Ba5 S3 3.375892 1_555
Ba5 S1 3.380856 1_655
Ba5 S8 3.418469 1_556
Ba5 S3 3.420829 1_665
Ba5 S17 3.427542 1_556
Ba5 S24 3.766525 1_556
Ba6 S3 3.255998 1_564
Ba6 S8 3.295258 1_555
Ba6 S4 3.364165 1_555
Ba6 S17 3.369979 1_555
Ba6 S9 3.375892 1_555
Ba6 S24 3.380856 1_565
Ba6 S26 3.418469 1_554
Ba6 S9 3.420829 1_665
Ba6 S13 3.427542 1_554
Ba6 S1 3.766525 1_554
Ba7 S21 3.172181 1_555
Ba7 S28 3.178102 1_455
Ba7 S25 3.189647 1_555
Ba7 S6 3.232312 1_555
Ba7 S12 3.237524 1_555
Ba7 S11 3.263701 1_555
Ba7 S15 3.371124 1_445
Ba7 S27 3.384780 1_555
Ba7 S15 3.438326 1_555
Ba7 O0 3.440048 1_455
Ba8 S15 3.178790 1_555
Ba8 S11 3.246218 1_655
Ba8 S28 3.254281 1_555
Ba8 S27 3.370970 1_555
Ba8 S6 3.403178 1_665
Ba8 S5 3.413687 1_555
Ba8 S12 3.414636 1_655
Ba8 S21 3.461113 1_665
Ba8 S21 3.492700 1_555
Ba9 S25 3.178790 1_555
Ba9 S1 3.246218 1_545
Ba9 S2 3.254281 1_555
Ba9 S26 3.370970 1_555
Ba9 S13 3.403178 1_445
Ba9 S21 3.413687 1_555
Ba9 S12 3.414636 1_545
Ba9 S5 3.461113 1_445
Ba9 S5 3.492700 1_555
Ba10 S0 3.255998 1_545
Ba10 S27 3.295258 1_555
Ba10 S28 3.364165 1_555
Ba10 S6 3.369979 1_555
Ba10 S22 3.375892 1_555
Ba10 S11 3.380856 1_545
Ba10 S19 3.418469 1_555
Ba10 S22 3.420829 1_445
Ba10 S23 3.427542 1_555
Ba10 S10 3.766525 1_555
Ba11 S14 3.178790 1_555
Ba11 S10 3.246218 1_565
Ba11 S16 3.254281 1_555
Ba11 S19 3.370970 1_555
Ba11 S23 3.403178 1_665
Ba11 S7 3.413687 1_555
Ba11 S20 3.414636 1_565
Ba11 S18 3.461113 1_665
Ba11 S18 3.492700 1_555
S0 Ti7 2.427211 1_555
S0 Ti5 2.467968 1_555
S1 Ti4 2.287943 1_555
S1 Ti1 2.730187 1_455
S2 Ti1 2.416228 1_555
S2 Ti4 2.534958 1_655
S3 Ti3 2.427211 1_556
S3 Ti0 2.467968 1_556
S4 Ti8 2.416228 1_555
S4 Ti0 2.534958 1_565
S5 Ti1 2.276865 1_555
S6 Ti7 2.329744 1_445
S6 Ti5 2.660381 1_445
S7 Ti8 2.276865 1_555
S8 Ti0 2.377289 1_555
S8 Ti3 2.582854 1_555
S9 Ti3 2.427211 1_555
S9 Ti4 2.467968 1_554
S10 Ti6 2.287943 1_555
S10 Ti9 2.730187 1_655
S11 Ti5 2.287943 1_555
S11 Ti2 2.730187 1_565
S12 Ti1 2.476109 1_455
S12 Ti2 2.476109 1_565
S13 Ti3 2.329744 1_666
S13 Ti4 2.660381 1_665
S14 Ti6 2.399900 1_555
S14 Ti9 2.671744 1_655
S15 Ti5 2.399900 1_555
S15 Ti2 2.671744 1_565
S16 Ti9 2.416228 1_555
S16 Ti6 2.534958 1_455
S17 Ti3 2.329744 1_665
S17 Ti0 2.660381 1_665
S18 Ti9 2.276865 1_555
S19 Ti6 2.377289 1_555
S19 Ti7 2.582854 1_555
S20 Ti8 2.476109 1_545
S20 Ti9 2.476109 1_655
S21 Ti2 2.276865 1_555
S22 Ti7 2.427211 1_555
S22 Ti6 2.467968 1_555
S23 Ti7 2.329744 1_445
S23 Ti6 2.660381 1_445
S24 Ti0 2.287943 1_555
S24 Ti8 2.730187 1_545
S25 Ti4 2.399900 1_555
S25 Ti1 2.671744 1_455
S26 Ti4 2.377289 1_555
S26 Ti3 2.582854 1_556
S27 Ti5 2.377289 1_555
S27 Ti7 2.582854 1_555
S28 Ti2 2.416228 1_555
S28 Ti5 2.534958 1_545
S29 Ti0 2.399900 1_555
S29 Ti8 2.671744 1_545
O0 Ti2 1.864825 1_555
O0 Ti1 1.864825 1_555
O1 Ti9 1.864825 1_555
O1 Ti8 1.864825 1_555
