# generated using pymatgen
data_Ce2Br3N
_symmetry_space_group_name_H-M   'P 1'
_cell_length_a   12.05535973
_cell_length_b   12.05535973
_cell_length_c   12.05535973
_cell_angle_alpha   104.42908549
_cell_angle_beta   104.42908549
_cell_angle_gamma   120.10835641
_symmetry_Int_Tables_number   1
_chemical_formula_structural   Ce2Br3N
_chemical_formula_sum   'Ce16 Br24 N8'
_cell_volume   1313.29833745
_cell_formula_units_Z   8
loop_
 _symmetry_equiv_pos_site_id
 _symmetry_equiv_pos_as_xyz
  1  'x, y, z'
loop_
 _atom_site_type_symbol
 _atom_site_label
 _atom_site_symmetry_multiplicity
 _atom_site_fract_x
 _atom_site_fract_y
 _atom_site_fract_z
 _atom_site_occupancy
  Ce  Ce0  1  0.22114000  0.61799100  0.84504500  1
  Ce  Ce1  1  0.39112200  0.47008400  0.75868500  1
  Ce  Ce2  1  0.71139900  0.13243800  0.74131500  1
  Ce  Ce3  1  0.77886000  0.38200900  0.15495500  1
  Ce  Ce4  1  0.02991600  0.78860100  0.42103800  1
  Ce  Ce5  1  0.11799100  0.27294600  0.89685100  1
  Ce  Ce6  1  0.77294600  0.87609500  0.65495500  1
  Ce  Ce7  1  0.62390500  0.27886000  0.39685100  1
  Ce  Ce8  1  0.37609500  0.72114000  0.60314900  1
  Ce  Ce9  1  0.28860100  0.86756200  0.25868500  1
  Ce  Ce10  1  0.97008400  0.21139900  0.57896200  1
  Ce  Ce11  1  0.22705400  0.12390500  0.34504500  1
  Ce  Ce12  1  0.63243800  0.89112200  0.92103800  1
  Ce  Ce13  1  0.36756200  0.10887800  0.07896200  1
  Ce  Ce14  1  0.88200900  0.72705400  0.10314900  1
  Ce  Ce15  1  0.60887800  0.52991600  0.24131500  1
  Br  Br0  1  0.93201300  0.01152400  0.16419800  1
  Br  Br1  1  0.84732700  0.26781600  0.33580200  1
  Br  Br2  1  0.11323900  0.59802000  0.32394700  1
  Br  Br3  1  0.53028700  0.08934100  0.90850200  1
  Br  Br4  1  0.48847600  0.65267300  0.42048900  1
  Br  Br5  1  0.18083900  0.12178500  0.59149800  1
  Br  Br6  1  0.27407300  0.28929200  0.17605300  1
  Br  Br7  1  0.41065900  0.31916100  0.94094600  1
  Br  Br8  1  0.37821500  0.96971300  0.55905400  1
  Br  Br9  1  0.46971300  0.91065900  0.09149800  1
  Br  Br10  1  0.90198000  0.22592700  0.01521900  1
  Br  Br11  1  0.06798700  0.98847600  0.83580200  1
  Br  Br12  1  0.15267300  0.73218400  0.66419800  1
  Br  Br13  1  0.09802000  0.77407300  0.98478100  1
  Br  Br14  1  0.23218400  0.56798700  0.07951100  1
  Br  Br15  1  0.51152400  0.34732700  0.57951100  1
  Br  Br16  1  0.88676100  0.40198000  0.67605300  1
  Br  Br17  1  0.76781600  0.43201300  0.92048900  1
  Br  Br18  1  0.81916100  0.87821500  0.40850200  1
  Br  Br19  1  0.78929200  0.61323900  0.51521900  1
  Br  Br20  1  0.58934100  0.68083900  0.05905400  1
  Br  Br21  1  0.21070800  0.38676100  0.48478100  1
  Br  Br22  1  0.72592700  0.71070800  0.82394700  1
  Br  Br23  1  0.62178500  0.03028700  0.44094600  1
  N  N0  1  0.89498500  0.12200900  0.71543100  1
  N  N1  1  0.37799100  0.09342100  0.27297600  1
  N  N2  1  0.17955400  0.39498500  0.77297600  1
  N  N3  1  0.62200900  0.90657900  0.72702400  1
  N  N4  1  0.40657900  0.67955400  0.78456900  1
  N  N5  1  0.10501500  0.87799100  0.28456900  1
  N  N6  1  0.59342100  0.32044600  0.21543100  1
  N  N7  1  0.82044600  0.60501500  0.22702400  1
loop_
_geom_bond_atom_site_label_1
_geom_bond_atom_site_label_2
_geom_bond_distance
_geom_bond_site_symmetry_2
Ce0 N4 2.344630 1_555
Ce0 N2 2.345302 1_555
Ce1 N2 2.309670 1_555
Ce1 N4 2.369629 1_555
Ce2 N3 2.309670 1_545
Ce2 N0 2.369641 1_555
Ce3 N6 2.344630 1_555
Ce3 N7 2.345302 1_555
Ce4 N5 2.309670 1_555
Ce4 N7 2.369635 1_455
Ce5 N2 2.344619 1_555
Ce5 N0 2.345302 1_455
Ce6 N0 2.344619 1_565
Ce6 N3 2.345307 1_555
Ce7 N1 2.344621 1_555
Ce7 N6 2.345302 1_555
Ce8 N3 2.344621 1_555
Ce8 N4 2.345302 1_555
Ce9 N1 2.309670 1_565
Ce9 N5 2.369641 1_555
Ce10 N0 2.309670 1_555
Ce10 N2 2.369635 1_655
Ce11 N5 2.344619 1_545
Ce11 N1 2.345307 1_555
Ce12 N4 2.309670 1_555
Ce12 N3 2.369637 1_555
Ce13 N6 2.309670 1_555
Ce13 N1 2.369637 1_555
Ce14 N7 2.344619 1_555
Ce14 N5 2.345302 1_655
Ce15 N7 2.309670 1_555
Ce15 N6 2.369629 1_555
Br0 Ce11 3.011400 1_655
Br0 Ce14 3.018734 1_545
Br0 Ce12 3.329712 1_544
Br1 Ce3 3.011395 1_555
Br1 Ce7 3.018740 1_555
Br1 Ce10 3.329724 1_555
Br2 Ce4 3.036238 1_555
Br2 Ce3 3.148477 1_455
Br2 Ce9 3.295147 1_555
Br2 Ce8 3.324101 1_555
Br3 Ce3 3.160201 1_556
Br3 Ce12 3.207666 1_545
Br3 Ce13 3.218380 1_556
Br3 Ce2 3.267437 1_555
Br4 Ce8 3.011404 1_555
Br4 Ce6 3.018735 1_555
Br4 Ce15 3.329714 1_555
Br5 Ce11 3.160201 1_555
Br5 Ce10 3.207657 1_455
Br5 Ce4 3.218371 1_545
Br5 Ce1 3.267437 1_555
Br6 Ce13 3.036228 1_555
Br6 Ce11 3.148477 1_555
Br6 Ce15 3.295156 1_555
Br6 Ce5 3.324101 1_554
Br7 Ce5 3.160201 1_555
Br7 Ce15 3.207657 1_556
Br7 Ce1 3.218371 1_555
Br7 Ce13 3.267436 1_556
Br8 Ce8 3.160201 1_555
Br8 Ce9 3.207656 1_555
Br8 Ce2 3.218369 1_565
Br8 Ce4 3.267437 1_555
Br9 Ce0 3.160201 1_554
Br9 Ce13 3.207666 1_565
Br9 Ce12 3.218380 1_554
Br9 Ce9 3.267437 1_555
Br10 Ce2 3.036241 1_554
Br10 Ce5 3.148477 1_654
Br10 Ce12 3.295152 1_544
Br10 Ce3 3.324101 1_555
Br11 Ce6 3.011400 1_455
Br11 Ce5 3.018734 1_565
Br11 Ce13 3.329712 1_566
Br12 Ce0 3.011395 1_555
Br12 Ce8 3.018740 1_555
Br12 Ce4 3.329724 1_555
Br13 Ce9 3.036241 1_556
Br13 Ce14 3.148477 1_456
Br13 Ce13 3.295152 1_566
Br13 Ce0 3.324101 1_555
Br14 Ce5 3.011404 1_554
Br14 Ce0 3.018735 1_554
Br14 Ce9 3.329704 1_555
Br15 Ce7 3.011404 1_555
Br15 Ce11 3.018735 1_555
Br15 Ce1 3.329714 1_555
Br16 Ce10 3.036238 1_555
Br16 Ce0 3.148477 1_655
Br16 Ce2 3.295147 1_555
Br16 Ce7 3.324101 1_555
Br17 Ce14 3.011404 1_556
Br17 Ce3 3.018735 1_556
Br17 Ce2 3.329704 1_555
Br18 Ce6 3.160201 1_555
Br18 Ce4 3.207657 1_655
Br18 Ce10 3.218371 1_565
Br18 Ce15 3.267437 1_555
Br19 Ce15 3.036238 1_555
Br19 Ce7 3.148477 1_555
Br19 Ce4 3.295156 1_655
Br19 Ce6 3.324101 1_555
Br20 Ce14 3.160201 1_555
Br20 Ce1 3.207657 1_554
Br20 Ce15 3.218371 1_555
Br20 Ce12 3.267436 1_554
Br21 Ce1 3.036238 1_555
Br21 Ce8 3.148477 1_555
Br21 Ce10 3.295156 1_455
Br21 Ce11 3.324101 1_555
Br22 Ce12 3.036228 1_555
Br22 Ce6 3.148477 1_555
Br22 Ce1 3.295156 1_555
Br22 Ce14 3.324101 1_556
Br23 Ce7 3.160201 1_555
Br23 Ce2 3.207656 1_555
Br23 Ce9 3.218369 1_545
Br23 Ce10 3.267437 1_555
