# generated using pymatgen
data_Sr14MnAs11
_symmetry_space_group_name_H-M   'P 1'
_cell_length_a   16.18146322
_cell_length_b   16.18146323
_cell_length_c   16.18146360
_cell_angle_alpha   93.57391612
_cell_angle_beta   117.97324909
_cell_angle_gamma   117.94375276
_symmetry_Int_Tables_number   1
_chemical_formula_structural   Sr14MnAs11
_chemical_formula_sum   'Sr56 Mn4 As44'
_cell_volume   3081.93802411
_cell_formula_units_Z   4
loop_
 _symmetry_equiv_pos_site_id
 _symmetry_equiv_pos_as_xyz
  1  'x, y, z'
loop_
 _atom_site_type_symbol
 _atom_site_label
 _atom_site_symmetry_multiplicity
 _atom_site_fract_x
 _atom_site_fract_y
 _atom_site_fract_z
 _atom_site_occupancy
  As  As0  1  0.12162372  0.93170182  0.81822403  1
  As  As1  1  0.15686471  0.58467395  0.98011154  1
  As  As2  1  0.24998143  0.86198132  0.63789240  1
  As  As3  1  0.25005389  0.74493306  0.75460718  1
  As  As4  1  0.10229055  0.42722555  0.58274355  1
  As  As5  1  0.11543867  0.18376431  0.80573715  1
  As  As6  1  0.12197284  0.69029848  0.30573715  1
  As  As7  1  0.00967412  0.75506694  0.00512083  1
  As  As8  1  0.34319155  0.52151891  0.91524395  1
  As  As9  1  0.11357485  0.43116830  0.30998904  1
  As  As10  1  0.10371820  0.17617603  0.52109574  1
  As  As11  1  0.39372504  0.97848109  0.32167264  1
  As  As12  1  0.37937592  0.68070100  0.56884986  1
  As  As13  1  0.61543867  0.80970152  0.93167436  1
  As  As14  1  0.47894807  0.48924705  0.73914359  1
  As  As15  1  0.37882074  0.19641419  0.80998904  1
  As  As16  1  0.38652221  0.69660031  0.31822403  1
  As  As17  1  0.39543759  0.91532605  0.07219076  1
  As  As18  1  0.34491972  0.32382397  0.42754217  1
  As  As19  1  0.24989654  0.01075295  0.48970102  1
  As  As20  1  0.84319155  0.92794760  0.82167264  1
  As  As21  1  0.27591109  0.38791098  0.13789240  1
  As  As22  1  0.15551800  0.07277445  0.17506499  1
  As  As23  1  0.75005389  0.99544671  0.50512083  1
  As  As24  1  0.77591109  0.63801868  0.88800011  1
  As  As25  1  0.65686471  0.67675317  0.57219076  1
  As  As26  1  0.60371820  0.08262245  0.92754217  1
  As  As27  1  0.61357485  0.30358581  0.68240655  1
  As  As28  1  0.62162372  0.80339969  0.18992190  1
  As  As29  1  0.50967412  0.50455329  0.25460718  1
  As  As30  1  0.38814886  0.18947394  0.06884986  1
  As  As31  1  0.62197284  0.31623569  0.43167436  1
  As  As32  1  0.60229055  0.01954699  0.67506499  1
  As  As33  1  0.89543759  0.82324683  0.48011154  1
  As  As34  1  0.88652221  0.56829818  0.68992190  1
  As  As35  1  0.65551800  0.48045301  0.08274355  1
  As  As36  1  0.97894807  0.23980448  0.98970102  1
  As  As37  1  0.87937592  0.31052606  0.69867492  1
  As  As38  1  0.88814886  0.81929900  0.19867492  1
  As  As39  1  0.89372504  0.57205240  0.41524395  1
  As  As40  1  0.74998143  0.11208902  0.38800011  1
  As  As41  1  0.74989654  0.26019552  0.23914359  1
  As  As42  1  0.84491972  0.41737755  0.02109574  1
  As  As43  1  0.87882074  0.06883170  0.18240655  1
  Mn  Mn0  1  0.25089839  0.12529880  0.87562866  1
  Mn  Mn1  1  0.25032986  0.62473027  0.37562866  1
  Mn  Mn2  1  0.75032986  0.37470120  0.62559959  1
  Mn  Mn3  1  0.75089839  0.87526973  0.12559959  1
  Sr  Sr0  1  0.14832835  0.75000000  0.89832835  1
  Sr  Sr1  1  0.02408865  0.74204214  0.62723485  1
  Sr  Sr2  1  0.03453735  0.78736492  0.40650076  1
  Sr  Sr3  1  0.08379870  0.52163927  0.74898039  1
  Sr  Sr4  1  0.35539037  0.97504935  0.87634824  1
  Sr  Sr5  1  0.11913584  0.37196341  0.90650076  1
  Sr  Sr6  1  0.10044377  0.12828135  0.98106452  1
  Sr  Sr7  1  0.14501062  0.62407928  0.52534132  1
  Sr  Sr8  1  0.41998774  0.75356364  0.97606695  1
  Sr  Sr9  1  0.14909539  0.90104265  0.25323822  1
  Sr  Sr10  1  0.47551355  0.87156103  0.75695842  1
  Sr  Sr11  1  0.35278317  0.88062075  0.48106452  1
  Sr  Sr12  1  0.35219557  0.59895735  0.74805274  1
  Sr  Sr13  1  0.22734112  0.97836073  0.06215944  1
  Sr  Sr14  1  0.27548575  0.33472750  0.75152387  1
  Sr  Sr15  1  0.22250332  0.74643636  0.16642410  1
  Sr  Sr16  1  0.27090221  0.43490390  0.52160037  1
  Sr  Sr17  1  0.10041508  0.47171922  0.11934188  1
  Sr  Sr18  1  0.14762266  0.01892680  0.61934188  1
  Sr  Sr19  1  0.60044377  0.61937925  0.97216242  1
  Sr  Sr20  1  0.08669647  0.06509610  0.33599831  1
  Sr  Sr21  1  0.11911603  0.24801495  0.21322144  1
  Sr  Sr22  1  0.58379870  0.83481831  0.56215944  1
  Sr  Sr23  1  0.61913584  0.71263508  0.74717243  1
  Sr  Sr24  1  0.35161788  0.25000000  0.60161788  1
  Sr  Sr25  1  0.52408865  0.89685380  0.28204651  1
  Sr  Sr26  1  0.40129889  0.52095787  0.37634824  1
  Sr  Sr27  1  0.61911603  0.40589459  0.87110108  1
  Sr  Sr28  1  0.38519271  0.60314620  0.12723485  1
  Sr  Sr29  1  0.60041508  0.48107320  0.62869586  1
  Sr  Sr30  1  0.46520648  0.09410541  0.71322144  1
  Sr  Sr31  1  0.64832835  0.75000000  0.39832835  1
  Sr  Sr32  1  0.38539739  0.28144487  0.25695842  1
  Sr  Sr33  1  0.41679637  0.16527250  0.44075825  1
  Sr  Sr34  1  0.88519271  0.75795786  0.78204651  1
  Sr  Sr35  1  0.91998774  0.94392079  0.66642410  1
  Sr  Sr36  1  0.40126204  0.38033070  0.02534132  1
  Sr  Sr37  1  0.85539037  0.97904213  0.38034102  1
  Sr  Sr38  1  0.90129889  0.52495065  0.88034102  1
  Sr  Sr39  1  0.72250332  0.55607921  0.47606695  1
  Sr  Sr40  1  0.77090221  0.24930184  0.83599831  1
  Sr  Sr41  1  0.72734112  0.66518169  0.24898039  1
  Sr  Sr42  1  0.77548575  0.02396188  0.94075825  1
  Sr  Sr43  1  0.64909539  0.39585717  0.24805274  1
  Sr  Sr44  1  0.64501062  0.11966930  0.52093134  1
  Sr  Sr45  1  0.53453735  0.12803659  0.24717243  1
  Sr  Sr46  1  0.85219557  0.10414283  0.75323822  1
  Sr  Sr47  1  0.58669647  0.25069816  0.02160037  1
  Sr  Sr48  1  0.85278317  0.37171865  0.47216242  1
  Sr  Sr49  1  0.90126204  0.87592072  0.02093134  1
  Sr  Sr50  1  0.88539739  0.62843897  0.10395252  1
  Sr  Sr51  1  0.64762266  0.02828078  0.12869586  1
  Sr  Sr52  1  0.91679637  0.47603812  0.25152387  1
  Sr  Sr53  1  0.97551355  0.21855513  0.60395252  1
  Sr  Sr54  1  0.96520648  0.25198505  0.37110108  1
  Sr  Sr55  1  0.85161788  0.25000000  0.10161788  1
loop_
_geom_bond_atom_site_label_1
_geom_bond_atom_site_label_2
_geom_bond_distance
_geom_bond_site_symmetry_2
As0 Mn0 2.593280 1_565
As0 Sr4 3.127109 1_555
As0 Sr35 3.140858 1_455
As0 Sr34 3.239869 1_455
As0 Sr13 3.340733 1_556
As0 Sr1 3.341087 1_555
As0 Sr0 3.413515 1_555
As0 Sr18 3.715625 1_565
As1 Sr0 3.089239 1_555
As1 Sr28 3.167388 1_556
As1 Sr17 3.182790 1_556
As1 Sr38 3.230912 1_455
As1 Sr15 3.236566 1_556
As1 Sr5 3.236652 1_555
As1 Sr3 3.266811 1_555
As2 As3 2.756831 1_555
As2 Sr1 3.142560 1_555
As2 Sr10 3.144981 1_555
As2 Sr2 3.298003 1_555
As2 Sr30 3.303021 1_565
As2 Sr7 3.334229 1_555
As2 Sr4 3.341590 1_555
As2 Sr18 3.585245 1_565
As2 Sr11 3.589358 1_555
As3 Sr10 3.219296 1_555
As3 Sr1 3.221435 1_555
As3 Sr7 3.246708 1_555
As3 Sr4 3.261666 1_555
As3 Sr8 3.279648 1_555
As3 Sr3 3.304571 1_555
As3 Sr0 3.437836 1_555
As3 Sr12 3.480615 1_555
As4 Sr12 3.102249 1_555
As4 Sr48 3.151636 1_455
As4 Sr53 3.168686 1_455
As4 Sr3 3.214125 1_555
As4 Sr7 3.224098 1_555
As4 Sr54 3.233791 1_455
As4 Sr16 3.266251 1_555
As5 Mn0 2.594219 1_555
As5 Sr6 3.110138 1_555
As5 Sr14 3.148533 1_555
As5 Sr53 3.254712 1_455
As5 Sr35 3.296031 1_445
As5 Sr5 3.324889 1_555
As5 Sr46 3.442623 1_455
As5 Sr36 3.677087 1_556
As6 Mn1 2.594219 1_555
As6 Sr11 3.110138 1_555
As6 Sr52 3.148533 1_455
As6 Sr50 3.254712 1_455
As6 Sr15 3.296031 1_555
As6 Sr2 3.324889 1_555
As6 Sr9 3.442623 1_555
As6 Sr7 3.677087 1_555
As7 Sr50 3.219296 1_455
As7 Sr34 3.221435 1_454
As7 Sr49 3.246708 1_455
As7 Sr38 3.261666 1_454
As7 Sr15 3.279648 1_555
As7 Sr13 3.304571 1_555
As7 Sr0 3.437836 1_554
As7 Sr9 3.480615 1_555
As8 Sr12 3.087378 1_555
As8 Sr36 3.197711 1_556
As8 Sr5 3.205350 1_555
As8 Sr28 3.221853 1_556
As8 Sr14 3.244982 1_555
As8 Sr8 3.260440 1_555
As8 Sr19 3.275309 1_555
As9 Mn1 2.592228 1_555
As9 Sr17 3.124080 1_555
As9 Sr16 3.140362 1_555
As9 Sr52 3.314734 1_455
As9 Sr21 3.323485 1_555
As9 Sr54 3.348033 1_455
As9 Sr55 3.412358 1_455
As9 Sr26 3.703538 1_555
As10 Sr24 3.102833 1_555
As10 Sr37 3.163081 1_445
As10 Sr54 3.203737 1_455
As10 Sr20 3.220008 1_555
As10 Sr53 3.224833 1_455
As10 Sr14 3.257669 1_555
As10 Sr18 3.262771 1_555
As10 Sr16 3.769145 1_555
As11 Sr9 3.087378 1_555
As11 Sr44 3.197711 1_565
As11 Sr45 3.205350 1_565
As11 Sr25 3.221853 1_555
As11 Sr33 3.244982 1_565
As11 Sr15 3.260440 1_555
As11 Sr11 3.275309 1_555
As12 Mn1 2.589591 1_555
As12 Sr22 3.132286 1_555
As12 Sr7 3.142545 1_555
As12 Sr23 3.328388 1_555
As12 Sr10 3.332630 1_555
As12 Sr16 3.362118 1_555
As12 Sr12 3.388378 1_555
As12 Sr11 3.737951 1_555
As13 Mn3 2.594219 1_556
As13 Sr19 3.110138 1_555
As13 Sr42 3.148533 1_565
As13 Sr10 3.254712 1_555
As13 Sr8 3.296031 1_555
As13 Sr23 3.324889 1_555
As13 Sr12 3.442623 1_555
As13 Sr49 3.677087 1_556
As14 Sr14 3.177637 1_555
As14 Sr27 3.194634 1_555
As14 Sr23 3.195169 1_555
As14 Sr16 3.196943 1_555
As14 Sr29 3.253371 1_555
As14 Sr19 3.269948 1_555
As14 Sr12 3.322221 1_555
As14 Sr24 3.366573 1_555
As15 Mn0 2.592228 1_555
As15 Sr18 3.124080 1_555
As15 Sr47 3.140362 1_556
As15 Sr14 3.314734 1_555
As15 Sr30 3.323485 1_555
As15 Sr27 3.348033 1_555
As15 Sr24 3.412358 1_555
As15 Sr4 3.703538 1_545
As16 Mn1 2.593280 1_555
As16 Sr26 3.127109 1_555
As16 Sr15 3.140858 1_555
As16 Sr25 3.239869 1_555
As16 Sr22 3.340733 1_555
As16 Sr28 3.341087 1_555
As16 Sr31 3.413515 1_555
As16 Sr17 3.715625 1_555
As17 Sr0 3.089239 1_554
As17 Sr25 3.167388 1_555
As17 Sr51 3.182790 1_565
As17 Sr4 3.230913 1_554
As17 Sr8 3.236567 1_554
As17 Sr45 3.236652 1_565
As17 Sr13 3.266811 1_555
As18 Sr24 3.102833 1_555
As18 Sr26 3.163081 1_555
As18 Sr21 3.203737 1_555
As18 Sr16 3.220008 1_555
As18 Sr32 3.224833 1_555
As18 Sr33 3.257669 1_555
As18 Sr29 3.262771 1_555
As18 Sr20 3.769146 1_555
As19 Sr33 3.177637 1_555
As19 Sr30 3.194634 1_555
As19 Sr2 3.195169 1_545
As19 Sr20 3.196943 1_555
As19 Sr18 3.253371 1_555
As19 Sr11 3.269948 1_545
As19 Sr9 3.322221 1_545
As19 Sr24 3.366573 1_555
As20 Sr46 3.087378 1_565
As20 Sr49 3.197711 1_556
As20 Sr23 3.205350 1_555
As20 Sr34 3.221853 1_555
As20 Sr42 3.244982 1_565
As20 Sr35 3.260440 1_555
As20 Sr6 3.275309 1_665
As21 As29 2.756831 1_555
As21 Sr28 3.142560 1_555
As21 Sr32 3.144981 1_555
As21 Sr5 3.298003 1_554
As21 Sr21 3.303022 1_555
As21 Sr36 3.334228 1_555
As21 Sr26 3.341590 1_555
As21 Sr17 3.585245 1_555
As21 Sr6 3.589358 1_554
As22 Sr9 3.102249 1_545
As22 Sr6 3.151636 1_554
As22 Sr32 3.168686 1_555
As22 Sr13 3.214125 1_545
As22 Sr49 3.224098 1_445
As22 Sr21 3.233791 1_555
As22 Sr20 3.266251 1_555
As23 As40 2.756831 1_565
As23 Sr53 3.219296 1_565
As23 Sr25 3.221435 1_555
As23 Sr44 3.246708 1_565
As23 Sr37 3.261666 1_555
As23 Sr35 3.279648 1_555
As23 Sr22 3.304571 1_555
As23 Sr31 3.437836 1_555
As23 Sr46 3.480615 1_565
As24 As7 2.756831 1_656
As24 Sr34 3.142560 1_555
As24 Sr50 3.144981 1_556
As24 Sr23 3.298003 1_555
As24 Sr27 3.303021 1_555
As24 Sr49 3.334229 1_556
As24 Sr38 3.341590 1_555
As24 Sr29 3.585245 1_555
As24 Sr19 3.589358 1_555
As25 Sr31 3.089239 1_555
As25 Sr34 3.167388 1_555
As25 Sr29 3.182790 1_555
As25 Sr26 3.230913 1_555
As25 Sr39 3.236567 1_555
As25 Sr23 3.236652 1_555
As25 Sr22 3.266811 1_555
As26 Sr55 3.102833 1_556
As26 Sr4 3.163081 1_545
As26 Sr30 3.203737 1_555
As26 Sr47 3.220008 1_556
As26 Sr10 3.224833 1_545
As26 Sr42 3.257669 1_555
As26 Sr51 3.262771 1_556
As26 Sr40 3.769145 1_555
As27 Mn2 2.592228 1_555
As27 Sr29 3.124080 1_555
As27 Sr40 3.140362 1_555
As27 Sr33 3.314734 1_555
As27 Sr27 3.323485 1_555
As27 Sr30 3.348033 1_555
As27 Sr24 3.412358 1_555
As27 Sr38 3.703538 1_555
As28 Mn3 2.593280 1_555
As28 Sr37 3.127109 1_555
As28 Sr8 3.140858 1_554
As28 Sr28 3.239869 1_555
As28 Sr41 3.340733 1_555
As28 Sr25 3.341087 1_555
As28 Sr31 3.413515 1_555
As28 Sr51 3.715625 1_565
As29 Sr32 3.219296 1_555
As29 Sr28 3.221435 1_555
As29 Sr36 3.246708 1_555
As29 Sr26 3.261666 1_555
As29 Sr39 3.279648 1_555
As29 Sr41 3.304571 1_555
As29 Sr31 3.437836 1_555
As29 Sr43 3.480615 1_555
As30 Mn0 2.589591 1_554
As30 Sr13 3.132287 1_545
As30 Sr36 3.142545 1_555
As30 Sr45 3.328388 1_555
As30 Sr32 3.332630 1_555
As30 Sr47 3.362118 1_555
As30 Sr43 3.388378 1_555
As30 Sr6 3.737951 1_554
As31 Mn2 2.594219 1_555
As31 Sr48 3.110138 1_555
As31 Sr33 3.148533 1_555
As31 Sr32 3.254712 1_555
As31 Sr39 3.296031 1_555
As31 Sr45 3.324889 1_555
As31 Sr43 3.442623 1_555
As31 Sr44 3.677087 1_555
As32 Sr46 3.102249 1_555
As32 Sr11 3.151636 1_545
As32 Sr10 3.168686 1_545
As32 Sr22 3.214125 1_545
As32 Sr44 3.224098 1_555
As32 Sr30 3.233792 1_555
As32 Sr40 3.266251 1_555
As33 Sr31 3.089239 1_555
As33 Sr1 3.167388 1_655
As33 Sr18 3.182790 1_665
As33 Sr37 3.230912 1_555
As33 Sr35 3.236567 1_555
As33 Sr2 3.236652 1_655
As33 Sr41 3.266811 1_555
As34 Mn2 2.593280 1_555
As34 Sr38 3.127109 1_555
As34 Sr39 3.140858 1_555
As34 Sr1 3.239869 1_655
As34 Sr3 3.340733 1_655
As34 Sr34 3.341087 1_555
As34 Sr0 3.413515 1_655
As34 Sr29 3.715625 1_555
As35 Sr43 3.102249 1_555
As35 Sr19 3.151635 1_554
As35 Sr50 3.168686 1_555
As35 Sr41 3.214125 1_555
As35 Sr36 3.224098 1_555
As35 Sr27 3.233791 1_554
As35 Sr47 3.266251 1_555
As36 Sr42 3.177637 1_555
As36 Sr21 3.194634 1_656
As36 Sr5 3.195169 1_655
As36 Sr40 3.196943 1_555
As36 Sr17 3.253371 1_656
As36 Sr6 3.269948 1_655
As36 Sr46 3.322221 1_555
As36 Sr55 3.366573 1_556
As37 Mn2 2.589591 1_555
As37 Sr3 3.132287 1_655
As37 Sr44 3.142545 1_555
As37 Sr5 3.328388 1_655
As37 Sr53 3.332630 1_555
As37 Sr40 3.362118 1_555
As37 Sr46 3.388378 1_555
As37 Sr48 3.737951 1_555
As38 Mn3 2.589591 1_555
As38 Sr41 3.132286 1_555
As38 Sr49 3.142545 1_555
As38 Sr2 3.328388 1_655
As38 Sr50 3.332630 1_555
As38 Sr20 3.362118 1_665
As38 Sr9 3.388378 1_655
As38 Sr19 3.737951 1_554
As39 Sr43 3.087378 1_555
As39 Sr7 3.197711 1_655
As39 Sr2 3.205350 1_655
As39 Sr1 3.221853 1_655
As39 Sr52 3.244982 1_555
As39 Sr39 3.260439 1_555
As39 Sr48 3.275309 1_555
As40 Sr25 3.142560 1_545
As40 Sr53 3.144981 1_555
As40 Sr45 3.298003 1_555
As40 Sr54 3.303021 1_555
As40 Sr44 3.334229 1_555
As40 Sr37 3.341590 1_545
As40 Sr51 3.585245 1_555
As40 Sr48 3.589358 1_555
As41 Sr52 3.177637 1_555
As41 Sr54 3.194634 1_555
As41 Sr45 3.195169 1_555
As41 Sr47 3.196943 1_555
As41 Sr51 3.253371 1_555
As41 Sr48 3.269948 1_555
As41 Sr43 3.322221 1_555
As41 Sr55 3.366573 1_555
As42 Sr55 3.102833 1_555
As42 Sr38 3.163081 1_554
As42 Sr27 3.203737 1_554
As42 Sr40 3.220008 1_554
As42 Sr50 3.224833 1_555
As42 Sr52 3.257669 1_555
As42 Sr17 3.262771 1_655
As42 Sr47 3.769146 1_555
As43 Mn3 2.592228 1_545
As43 Sr51 3.124080 1_555
As43 Sr20 3.140362 1_655
As43 Sr42 3.314734 1_554
As43 Sr54 3.323485 1_555
As43 Sr21 3.348033 1_655
As43 Sr55 3.412358 1_555
As43 Sr37 3.703538 1_545
