# generated using pymatgen
data_Ca2MnFeO5
_symmetry_space_group_name_H-M   'P 1'
_cell_length_a   5.43713900
_cell_length_b   5.64741100
_cell_length_c   15.14717100
_cell_angle_alpha   90.00000000
_cell_angle_beta   90.00000000
_cell_angle_gamma   90.00000000
_symmetry_Int_Tables_number   1
_chemical_formula_structural   Ca2MnFeO5
_chemical_formula_sum   'Ca8 Mn4 Fe4 O20'
_cell_volume   465.10537616
_cell_formula_units_Z   4
loop_
 _symmetry_equiv_pos_site_id
 _symmetry_equiv_pos_as_xyz
  1  'x, y, z'
loop_
 _atom_site_type_symbol
 _atom_site_label
 _atom_site_symmetry_multiplicity
 _atom_site_fract_x
 _atom_site_fract_y
 _atom_site_fract_z
 _atom_site_occupancy
  Ca  Ca0  1  0.01955800  0.52674400  0.10854900  1
  Ca  Ca1  1  0.51955800  0.97325600  0.39145100  1
  Ca  Ca2  1  0.48044200  0.02674400  0.89145100  1
  Ca  Ca3  1  0.98044200  0.47325600  0.60854900  1
  Ca  Ca4  1  0.98044200  0.47325600  0.89145100  1
  Ca  Ca5  1  0.48044200  0.02674400  0.60854900  1
  Ca  Ca6  1  0.51955800  0.97325600  0.10854900  1
  Ca  Ca7  1  0.01955800  0.52674400  0.39145100  1
  Mn  Mn0  1  0.00000000  0.00000000  0.00000000  1
  Mn  Mn1  1  0.50000000  0.50000000  0.50000000  1
  Mn  Mn2  1  0.50000000  0.50000000  0.00000000  1
  Mn  Mn3  1  0.00000000  0.00000000  0.50000000  1
  Fe  Fe0  1  0.05223400  0.06651900  0.25000000  1
  Fe  Fe1  1  0.55223400  0.43348100  0.25000000  1
  Fe  Fe2  1  0.44776600  0.56651900  0.75000000  1
  Fe  Fe3  1  0.94776600  0.93348100  0.75000000  1
  O  O0  1  0.74309500  0.76423900  0.98433600  1
  O  O1  1  0.24309500  0.73576100  0.51566400  1
  O  O2  1  0.75690500  0.26423900  0.01566400  1
  O  O3  1  0.25690500  0.23576100  0.48433600  1
  O  O4  1  0.25690500  0.23576100  0.01566400  1
  O  O5  1  0.75690500  0.26423900  0.48433600  1
  O  O6  1  0.24309500  0.73576100  0.98433600  1
  O  O7  1  0.74309500  0.76423900  0.51566400  1
  O  O8  1  0.96805100  0.92530700  0.14273000  1
  O  O9  1  0.46805100  0.57469300  0.35727000  1
  O  O10  1  0.53194900  0.42530700  0.85727000  1
  O  O11  1  0.03194900  0.07469300  0.64273000  1
  O  O12  1  0.03194900  0.07469300  0.85727000  1
  O  O13  1  0.53194900  0.42530700  0.64273000  1
  O  O14  1  0.46805100  0.57469300  0.14273000  1
  O  O15  1  0.96805100  0.92530700  0.35727000  1
  O  O16  1  0.91029900  0.38321900  0.25000000  1
  O  O17  1  0.41029900  0.11678100  0.25000000  1
  O  O18  1  0.58970100  0.88321900  0.75000000  1
  O  O19  1  0.08970100  0.61678100  0.75000000  1
loop_
_geom_bond_atom_site_label_1
_geom_bond_atom_site_label_2
_geom_bond_distance
_geom_bond_site_symmetry_2
Ca0 O8 2.326545 1_455
Ca0 O16 2.366547 1_455
Ca0 O2 2.493319 1_455
Ca0 O14 2.507541 1_555
Ca0 O4 2.518986 1_555
Ca0 O6 2.531898 1_554
Ca0 O0 2.756513 1_454
Ca0 O14 3.055014 1_455
Ca1 O9 2.326545 1_555
Ca1 O17 2.366547 1_565
Ca1 O3 2.493319 1_565
Ca1 O15 2.507541 1_555
Ca1 O5 2.518986 1_565
Ca1 O7 2.531898 1_555
Ca1 O1 2.756513 1_555
Ca1 O15 3.055014 1_455
Ca2 O10 2.326545 1_555
Ca2 O18 2.366547 1_545
Ca2 O0 2.493319 1_545
Ca2 O12 2.507541 1_555
Ca2 O6 2.518986 1_545
Ca2 O4 2.531898 1_556
Ca2 O2 2.756513 1_556
Ca2 O12 3.055014 1_655
Ca3 O11 2.326545 1_655
Ca3 O19 2.366547 1_655
Ca3 O1 2.493319 1_655
Ca3 O13 2.507541 1_555
Ca3 O7 2.518986 1_555
Ca3 O5 2.531898 1_555
Ca3 O3 2.756513 1_655
Ca3 O13 3.055014 1_655
Ca4 O12 2.326545 1_655
Ca4 O19 2.366547 1_655
Ca4 O6 2.493319 1_655
Ca4 O10 2.507541 1_555
Ca4 O0 2.518986 1_555
Ca4 O2 2.531898 1_556
Ca4 O4 2.756513 1_656
Ca4 O10 3.055014 1_655
Ca5 O13 2.326545 1_555
Ca5 O18 2.366547 1_545
Ca5 O7 2.493319 1_545
Ca5 O11 2.507541 1_555
Ca5 O1 2.518986 1_545
Ca5 O3 2.531898 1_555
Ca5 O5 2.756513 1_555
Ca5 O11 3.055014 1_655
Ca6 O14 2.326545 1_555
Ca6 O17 2.366547 1_565
Ca6 O4 2.493319 1_565
Ca6 O8 2.507541 1_555
Ca6 O2 2.518986 1_565
Ca6 O0 2.531898 1_554
Ca6 O6 2.756513 1_554
Ca6 O8 3.055014 1_455
Ca7 O15 2.326545 1_455
Ca7 O16 2.366547 1_455
Ca7 O5 2.493319 1_455
Ca7 O9 2.507541 1_555
Ca7 O3 2.518986 1_555
Ca7 O1 2.531898 1_555
Ca7 O7 2.756513 1_455
Ca7 O9 3.055014 1_455
Mn0 O4 1.944262 1_555
Mn0 O0 1.944262 1_444
Mn0 O6 2.007524 1_544
Mn0 O2 2.007524 1_455
Mn0 O12 2.209561 1_554
Mn0 O8 2.209561 1_445
Mn1 O5 1.944262 1_555
Mn1 O1 1.944262 1_555
Mn1 O7 2.007524 1_555
Mn1 O3 2.007524 1_555
Mn1 O9 2.209561 1_555
Mn1 O13 2.209561 1_555
Mn2 O2 1.944262 1_555
Mn2 O6 1.944262 1_554
Mn2 O4 2.007524 1_555
Mn2 O0 2.007524 1_554
Mn2 O10 2.209561 1_554
Mn2 O14 2.209561 1_555
Mn3 O3 1.944262 1_555
Mn3 O7 1.944262 1_445
Mn3 O1 2.007524 1_545
Mn3 O5 2.007524 1_455
Mn3 O15 2.209561 1_445
Mn3 O11 2.209561 1_555
Fe0 O8 1.866970 1_445
Fe0 O15 1.866970 1_445
Fe0 O16 1.947925 1_455
Fe0 O17 1.967433 1_555
Fe1 O14 1.866970 1_555
Fe1 O9 1.866970 1_555
Fe1 O17 1.947925 1_555
Fe1 O16 1.967433 1_555
Fe2 O13 1.866970 1_555
Fe2 O10 1.866970 1_555
Fe2 O18 1.947925 1_555
Fe2 O19 1.967433 1_555
Fe3 O11 1.866970 1_665
Fe3 O12 1.866970 1_665
Fe3 O19 1.947925 1_655
Fe3 O18 1.967433 1_555
