# generated using pymatgen
data_DyPS4
_symmetry_space_group_name_H-M   'P 1'
_cell_length_a   12.16907522
_cell_length_b   12.16911832
_cell_length_c   12.16913419
_cell_angle_alpha   127.79358167
_cell_angle_beta   127.79353672
_cell_angle_gamma   76.95966726
_symmetry_Int_Tables_number   1
_chemical_formula_structural   DyPS4
_chemical_formula_sum   'Dy8 P8 S32'
_cell_volume   1092.41382125
_cell_formula_units_Z   8
loop_
 _symmetry_equiv_pos_site_id
 _symmetry_equiv_pos_as_xyz
  1  'x, y, z'
loop_
 _atom_site_type_symbol
 _atom_site_label
 _atom_site_symmetry_multiplicity
 _atom_site_fract_x
 _atom_site_fract_y
 _atom_site_fract_z
 _atom_site_occupancy
  Dy  Dy0  1  0.50000902  0.50001649  0.00002464  1
  Dy  Dy1  1  0.24998992  0.74998357  0.49997446  1
  Dy  Dy2  1  0.75001726  0.25000519  0.50002270  1
  Dy  Dy3  1  -0.00001743  -0.00000400  -0.00002135  1
  Dy  Dy4  1  0.24998655  0.25000794  -0.00000429  1
  Dy  Dy5  1  -0.00001401  0.50001015  0.49999548  1
  Dy  Dy6  1  0.50001258  -0.00000832  0.50000348  1
  Dy  Dy7  1  0.75001466  0.74998945  0.00000402  1
  P  P0  1  0.62499700  0.91297728  0.78797262  1
  P  P1  1  0.62500605  0.41300247  0.28799928  1
  P  P2  1  0.16296875  0.37499549  0.28796461  1
  P  P3  1  0.08699335  0.87499691  0.71199692  1
  P  P4  1  0.12500277  0.33702305  0.71202778  1
  P  P5  1  0.12499391  0.83699815  0.21200116  1
  P  P6  1  0.58703112  0.87500459  0.21203569  1
  P  P7  1  0.66300596  0.37500322  0.78800265  1
  S  S0  1  0.98484803  0.70956834  0.45121792  1
  S  S1  1  0.25835141  0.53365986  0.54878308  1
  S  S2  1  0.28365662  0.23486740  0.77530575  1
  S  S3  1  0.45957661  0.50836767  0.22471396  1
  S  S4  1  0.99163113  0.04042436  0.77528346  1
  S  S5  1  0.26512695  0.21634271  0.22469055  1
  S  S6  1  0.79043799  0.51515123  0.54878041  1
  S  S7  1  0.96633836  0.24164354  0.45121244  1
  S  S8  1  0.77980821  0.96841069  0.31997707  1
  S  S9  1  0.71841564  0.89845262  0.68861177  1
  S  S10  1  0.20982622  0.02976628  0.31134557  1
  S  S11  1  0.47023816  0.29017227  0.68865836  1
  S  S12  1  0.60155543  0.78158417  0.31139295  1
  S  S13  1  0.04016274  0.85153697  0.31995393  1
  S  S14  1  0.53158812  0.72019901  0.68002586  1
  S  S15  1  0.64846925  0.45983680  0.68005147  1
  S  S16  1  0.97019181  0.28158879  0.18002306  1
  S  S17  1  0.03158328  0.35154730  0.81138932  1
  S  S18  1  0.54017396  0.22023508  0.18865487  1
  S  S19  1  0.27976110  0.95982753  0.81134158  1
  S  S20  1  0.14844774  0.46841512  0.18860859  1
  S  S21  1  0.70983680  0.39846334  0.18004650  1
  S  S22  1  0.21841265  0.52980235  0.81997500  1
  S  S23  1  0.10153090  0.79016368  0.81994806  1
  S  S24  1  0.49164773  0.71633996  0.95121659  1
  S  S25  1  0.46634465  0.01513125  0.72469419  1
  S  S26  1  0.29042437  0.74163163  0.27528596  1
  S  S27  1  0.75836912  0.20957481  0.72471618  1
  S  S28  1  0.48487277  0.03365733  0.27530947  1
  S  S29  1  0.95956349  0.73484793  0.95121868  1
  S  S30  1  0.78365947  0.00835596  0.04878473  1
  S  S31  1  0.76515184  0.54043239  0.04878279  1
loop_
_geom_bond_atom_site_label_1
_geom_bond_atom_site_label_2
_geom_bond_distance
_geom_bond_site_symmetry_2
Dy0 S12 2.807865 1_555
Dy0 S21 2.807948 1_555
Dy0 S11 2.808058 1_554
Dy0 S22 2.808084 1_554
Dy0 S24 3.002402 1_554
Dy0 S3 3.002403 1_555
Dy0 S2 3.002628 1_554
Dy0 S31 3.002760 1_555
Dy1 S20 2.807866 1_555
Dy1 S13 2.807940 1_555
Dy1 S19 2.808063 1_555
Dy1 S14 2.808097 1_555
Dy1 S26 3.002405 1_555
Dy1 S1 3.002409 1_555
Dy1 S25 3.002629 1_565
Dy1 S0 3.002757 1_455
Dy2 S17 2.807850 1_655
Dy2 S15 2.807958 1_555
Dy2 S18 2.808075 1_555
Dy2 S8 2.808089 1_545
Dy2 S7 3.002382 1_555
Dy2 S27 3.002432 1_555
Dy2 S28 3.002574 1_555
Dy2 S6 3.002829 1_555
Dy3 S9 2.807854 1_444
Dy3 S23 2.807975 1_544
Dy3 S10 2.808066 1_555
Dy3 S16 2.808072 1_455
Dy3 S30 3.002375 1_455
Dy3 S4 3.002438 1_454
Dy3 S5 3.002570 1_555
Dy3 S29 3.002832 1_444
Dy4 S17 2.894109 1_554
Dy4 S20 2.894158 1_555
Dy4 S19 2.894387 1_544
Dy4 S18 2.894441 1_555
Dy4 S2 2.898227 1_554
Dy4 S5 2.898247 1_555
Dy4 S4 2.898334 1_454
Dy4 S3 2.898398 1_555
Dy5 S21 2.894143 1_455
Dy5 S23 2.894191 1_555
Dy5 S16 2.894413 1_455
Dy5 S22 2.894494 1_555
Dy5 S6 2.897977 1_455
Dy5 S0 2.898056 1_455
Dy5 S1 2.898367 1_555
Dy5 S7 2.898415 1_455
Dy6 S9 2.894117 1_545
Dy6 S12 2.894180 1_545
Dy6 S11 2.894389 1_555
Dy6 S10 2.894437 1_555
Dy6 S25 2.898224 1_555
Dy6 S28 2.898244 1_555
Dy6 S27 2.898339 1_555
Dy6 S26 2.898390 1_545
Dy7 S13 2.894139 1_655
Dy7 S15 2.894185 1_554
Dy7 S8 2.894422 1_555
Dy7 S14 2.894492 1_554
Dy7 S29 2.897989 1_554
Dy7 S31 2.898055 1_555
Dy7 S24 2.898385 1_554
Dy7 S30 2.898421 1_565
P0 S14 2.029134 1_555
P0 S9 2.029214 1_555
P0 S25 2.033171 1_565
P0 S30 2.033227 1_566
P1 S18 2.029146 1_555
P1 S21 2.029185 1_555
P1 S6 2.033006 1_555
P1 S3 2.033096 1_555
P2 S16 2.029129 1_455
P2 S20 2.029195 1_555
P2 S5 2.033198 1_555
P2 S1 2.033271 1_555
P3 S19 2.029136 1_555
P3 S23 2.029206 1_555
P3 S0 2.032990 1_455
P3 S4 2.033063 1_465
P4 S22 2.029148 1_555
P4 S17 2.029233 1_555
P4 S2 2.033193 1_555
P4 S7 2.033253 1_455
P5 S10 2.029155 1_565
P5 S13 2.029192 1_555
P5 S29 2.033010 1_454
P5 S26 2.033113 1_555
P6 S8 2.029128 1_555
P6 S12 2.029201 1_555
P6 S28 2.033198 1_565
P6 S24 2.033275 1_554
P7 S11 2.029140 1_555
P7 S15 2.029215 1_555
P7 S31 2.032999 1_556
P7 S27 2.033077 1_555
