# generated using pymatgen
data_Fe2NiP
_symmetry_space_group_name_H-M   'P 1'
_cell_length_a   6.72267715
_cell_length_b   6.72271537
_cell_length_c   6.72348806
_cell_angle_alpha   96.15077378
_cell_angle_beta   96.14563189
_cell_angle_gamma   141.80598999
_symmetry_Int_Tables_number   1
_chemical_formula_structural   Fe2NiP
_chemical_formula_sum   'Fe8 Ni4 P4'
_cell_volume   177.53567564
_cell_formula_units_Z   4
loop_
 _symmetry_equiv_pos_site_id
 _symmetry_equiv_pos_as_xyz
  1  'x, y, z'
loop_
 _atom_site_type_symbol
 _atom_site_label
 _atom_site_symmetry_multiplicity
 _atom_site_fract_x
 _atom_site_fract_y
 _atom_site_fract_z
 _atom_site_occupancy
  Fe  Fe0  1  0.14721590  0.33225911  0.03336683  1
  Fe  Fe1  1  0.04668915  0.37515183  0.38938342  1
  Fe  Fe2  1  0.88616258  0.85280475  0.18501520  1
  Fe  Fe3  1  0.66777395  0.70115774  0.81486094  1
  Fe  Fe4  1  0.98565234  0.65722201  0.61071303  1
  Fe  Fe5  1  0.29885461  0.11374381  0.96660226  1
  Fe  Fe6  1  0.34272995  0.95335505  0.32839467  1
  Fe  Fe7  1  0.62488986  0.01425296  0.67156444  1
  Ni  Ni0  1  0.47927661  0.43079351  0.39255230  1
  Ni  Ni1  1  0.91325594  0.52063462  0.95152682  1
  Ni  Ni2  1  0.56932787  0.96183241  0.04852032  1
  Ni  Ni3  1  0.03821919  0.08674936  0.60743268  1
  P  P0  1  0.46924638  0.22489657  0.66185270  1
  P  P1  1  0.77503924  0.43697199  0.24440373  1
  P  P2  1  0.56311227  0.80746766  0.33814036  1
  P  P3  1  0.19255317  0.53070760  0.75566929  1
loop_
_geom_bond_atom_site_label_1
_geom_bond_atom_site_label_2
_geom_bond_distance
_geom_bond_site_symmetry_2
Fe0 P3 2.318465 1_554
Fe0 P2 2.356442 1_555
Fe0 Ni2 2.497375 1_445
Fe0 Ni2 2.635088 1_555
Fe0 Ni0 2.726318 1_555
Fe0 Ni1 2.734085 1_454
Fe0 Ni3 2.845881 1_554
Fe1 P2 2.286680 1_445
Fe1 P2 2.286744 1_555
Fe1 P1 2.314435 1_455
Fe1 P3 2.332239 1_555
Fe1 Ni2 2.513204 1_445
Fe1 Ni3 2.522921 1_555
Fe1 Ni0 2.621606 1_555
Fe2 P2 2.318388 1_555
Fe2 P1 2.356466 1_555
Fe2 Ni0 2.497565 1_665
Fe2 Ni0 2.635457 1_555
Fe2 Ni1 2.726466 1_554
Fe2 Ni3 2.734755 1_665
Fe2 Ni2 2.845314 1_555
Fe3 P0 2.318252 1_555
Fe3 P3 2.356629 1_555
Fe3 Ni3 2.497554 1_665
Fe3 Ni3 2.634760 1_555
Fe3 Ni2 2.726317 1_556
Fe3 Ni0 2.734022 1_555
Fe3 Ni1 2.846581 1_555
Fe4 P0 2.286376 1_555
Fe4 P0 2.286782 1_665
Fe4 P3 2.314048 1_655
Fe4 P1 2.332269 1_555
Fe4 Ni1 2.513568 1_555
Fe4 Ni0 2.522790 1_555
Fe4 Ni3 2.622000 1_665
Fe5 P1 2.318268 1_556
Fe5 P0 2.356701 1_555
Fe5 Ni1 2.497809 1_445
Fe5 Ni1 2.634933 1_555
Fe5 Ni3 2.726711 1_555
Fe5 Ni2 2.734502 1_546
Fe5 Ni0 2.846139 1_556
Fe6 P1 2.286559 1_565
Fe6 P1 2.286659 1_455
Fe6 P0 2.314428 1_565
Fe6 P2 2.331986 1_555
Fe6 Ni0 2.513583 1_565
Fe6 Ni2 2.522899 1_555
Fe6 Ni1 2.621279 1_454
Fe7 P3 2.286590 1_655
Fe7 P3 2.286787 1_545
Fe7 P2 2.314283 1_545
Fe7 P0 2.332089 1_555
Fe7 Ni3 2.513446 1_655
Fe7 Ni1 2.522394 1_555
Fe7 Ni2 2.621903 1_546
Ni0 P2 2.205275 1_555
Ni0 P1 2.291375 1_555
Ni0 P0 2.369690 1_555
Ni0 Ni3 2.660774 1_665
Ni0 Ni3 2.661239 1_555
Ni1 P1 2.205658 1_556
Ni1 P0 2.291980 1_555
Ni1 P3 2.369134 1_655
Ni1 Ni2 2.660590 1_546
Ni1 Ni2 2.661330 1_656
Ni2 P3 2.205193 1_554
Ni2 P2 2.291893 1_555
Ni2 P1 2.369645 1_565
Ni3 P0 2.205214 1_555
Ni3 P3 2.291597 1_555
Ni3 P2 2.369005 1_445
