# generated using pymatgen
data_NaCa9Co(PO4)7
_symmetry_space_group_name_H-M   'P 1'
_cell_length_a   13.83801688
_cell_length_b   13.83801688
_cell_length_c   13.83801723
_cell_angle_alpha   44.38285436
_cell_angle_beta   44.38285436
_cell_angle_gamma   44.38285335
_symmetry_Int_Tables_number   1
_chemical_formula_structural   NaCa9Co(PO4)7
_chemical_formula_sum   'Na2 Ca18 Co2 P14 O56'
_cell_volume   1178.41161014
_cell_formula_units_Z   2
loop_
 _symmetry_equiv_pos_site_id
 _symmetry_equiv_pos_as_xyz
  1  'x, y, z'
loop_
 _atom_site_type_symbol
 _atom_site_label
 _atom_site_symmetry_multiplicity
 _atom_site_fract_x
 _atom_site_fract_y
 _atom_site_fract_z
 _atom_site_occupancy
  Na  Na0  1  0.31135800  0.31135800  0.31135800  1
  Na  Na1  1  0.81135800  0.81135800  0.81135800  1
  Ca  Ca0  1  0.42369700  0.43539400  0.83724700  1
  Ca  Ca1  1  0.92369700  0.33724700  0.93539400  1
  Ca  Ca2  1  0.15142000  0.59065600  0.55903100  1
  Ca  Ca3  1  0.33724700  0.93539400  0.92369700  1
  Ca  Ca4  1  0.65142000  0.05903100  0.09065600  1
  Ca  Ca5  1  0.02825100  0.44060900  0.05075900  1
  Ca  Ca6  1  0.43539400  0.83724700  0.42369700  1
  Ca  Ca7  1  0.55075900  0.94060900  0.52825100  1
  Ca  Ca8  1  0.93539400  0.92369700  0.33724700  1
  Ca  Ca9  1  0.52825100  0.55075900  0.94060900  1
  Ca  Ca10  1  0.05903100  0.09065600  0.65142000  1
  Ca  Ca11  1  0.94060900  0.52825100  0.55075900  1
  Ca  Ca12  1  0.59065600  0.55903100  0.15142000  1
  Ca  Ca13  1  0.83724700  0.42369700  0.43539400  1
  Ca  Ca14  1  0.05075900  0.02825100  0.44060900  1
  Ca  Ca15  1  0.55903100  0.15142000  0.59065600  1
  Ca  Ca16  1  0.09065600  0.65142000  0.05903100  1
  Ca  Ca17  1  0.44060900  0.05075900  0.02825100  1
  Co  Co0  1  0.99728600  0.99728600  0.99728600  1
  Co  Co1  1  0.49728600  0.49728600  0.49728600  1
  P  P0  1  0.31556900  0.81162900  0.27406600  1
  P  P1  1  0.27406600  0.31556900  0.81162900  1
  P  P2  1  0.68888400  0.17481200  0.72583300  1
  P  P3  1  0.17481200  0.72583300  0.68888400  1
  P  P4  1  0.23153100  0.23153100  0.23153100  1
  P  P5  1  0.72583300  0.68888400  0.17481200  1
  P  P6  1  0.81556900  0.77406600  0.31162900  1
  P  P7  1  0.77406600  0.31162900  0.81556900  1
  P  P8  1  0.73153100  0.73153100  0.73153100  1
  P  P9  1  0.81162900  0.27406600  0.31556900  1
  P  P10  1  0.31162900  0.81556900  0.77406600  1
  P  P11  1  0.67481200  0.18888400  0.22583300  1
  P  P12  1  0.18888400  0.22583300  0.67481200  1
  P  P13  1  0.22583300  0.67481200  0.18888400  1
  O  O0  1  0.88566900  0.31050300  0.32630700  1
  O  O1  1  0.85274700  0.10094500  0.41083800  1
  O  O2  1  0.36293700  0.15035300  0.61911700  1
  O  O3  1  0.88277000  0.86177000  0.13434500  1
  O  O4  1  0.10813100  0.38786700  0.66212800  1
  O  O5  1  0.38786700  0.66212800  0.10813100  1
  O  O6  1  0.60094500  0.35274700  0.91083800  1
  O  O7  1  0.35115000  0.62693300  0.62036000  1
  O  O8  1  0.41083800  0.85274700  0.10094500  1
  O  O9  1  0.38277000  0.63434500  0.36177000  1
  O  O10  1  0.35274700  0.91083800  0.60094500  1
  O  O11  1  0.38566900  0.82630700  0.81050300  1
  O  O12  1  0.88786700  0.60813100  0.16212800  1
  O  O13  1  0.14755400  0.24371400  0.58248000  1
  O  O14  1  0.66212800  0.10813100  0.38786700  1
  O  O15  1  0.36177000  0.38277000  0.63434500  1
  O  O16  1  0.15035300  0.61911700  0.36293700  1
  O  O17  1  0.88872500  0.73973500  0.60738100  1
  O  O18  1  0.86293700  0.11911700  0.65035300  1
  O  O19  1  0.82630700  0.81050300  0.38566900  1
  O  O20  1  0.58248000  0.14755400  0.24371400  1
  O  O21  1  0.32630700  0.88566900  0.31050300  1
  O  O22  1  0.64578400  0.82734100  0.36901200  1
  O  O23  1  0.32734100  0.14578400  0.86901200  1
  O  O24  1  0.62693300  0.62036000  0.35115000  1
  O  O25  1  0.10094500  0.41083800  0.85274700  1
  O  O26  1  0.12036000  0.12693300  0.85115000  1
  O  O27  1  0.10738100  0.23973500  0.38872500  1
  O  O28  1  0.11911700  0.65035300  0.86293700  1
  O  O29  1  0.38872500  0.10738100  0.23973500  1
  O  O30  1  0.13434500  0.88277000  0.86177000  1
  O  O31  1  0.74371400  0.64755400  0.08248000  1
  O  O32  1  0.91083800  0.60094500  0.35274700  1
  O  O33  1  0.36901200  0.64578400  0.82734100  1
  O  O34  1  0.86901200  0.32734100  0.14578400  1
  O  O35  1  0.19007100  0.19007100  0.19007100  1
  O  O36  1  0.63434500  0.36177000  0.38277000  1
  O  O37  1  0.31050300  0.32630700  0.88566900  1
  O  O38  1  0.12693300  0.85115000  0.12036000  1
  O  O39  1  0.86177000  0.13434500  0.88277000  1
  O  O40  1  0.60738100  0.88872500  0.73973500  1
  O  O41  1  0.23973500  0.38872500  0.10738100  1
  O  O42  1  0.60813100  0.16212800  0.88786700  1
  O  O43  1  0.65035300  0.86293700  0.11911700  1
  O  O44  1  0.14578400  0.86901200  0.32734100  1
  O  O45  1  0.82734100  0.36901200  0.64578400  1
  O  O46  1  0.85115000  0.12036000  0.12693300  1
  O  O47  1  0.81050300  0.38566900  0.82630700  1
  O  O48  1  0.08248000  0.74371400  0.64755400  1
  O  O49  1  0.73973500  0.60738100  0.88872500  1
  O  O50  1  0.24371400  0.58248000  0.14755400  1
  O  O51  1  0.61911700  0.36293700  0.15035300  1
  O  O52  1  0.64755400  0.08248000  0.74371400  1
  O  O53  1  0.16212800  0.88786700  0.60813100  1
  O  O54  1  0.69007100  0.69007100  0.69007100  1
  O  O55  1  0.62036000  0.35115000  0.62693300  1
loop_
_geom_bond_atom_site_label_1
_geom_bond_atom_site_label_2
_geom_bond_distance
_geom_bond_site_symmetry_2
Na0 O20 2.438750 1_555
Na0 O50 2.438750 1_555
Na0 O13 2.438750 1_555
Na0 O27 2.873745 1_555
Na0 O29 2.873745 1_555
Na0 O41 2.873745 1_555
Na1 O52 2.438750 1_565
Na1 O48 2.438750 1_655
Na1 O31 2.438750 1_556
Na1 O49 2.873745 1_555
Na1 O40 2.873745 1_555
Na1 O17 2.873745 1_555
Ca0 O33 2.344422 1_555
Ca0 O37 2.369603 1_555
Ca0 O41 2.483635 1_556
Ca0 O7 2.484670 1_555
Ca0 O55 2.495807 1_555
Ca0 O6 2.501398 1_555
Ca0 O42 2.505633 1_555
Ca0 O28 2.861553 1_555
Ca1 O34 2.344422 1_556
Ca1 O47 2.369603 1_555
Ca1 O49 2.483635 1_555
Ca1 O46 2.484670 1_556
Ca1 O26 2.495806 1_655
Ca1 O25 2.501398 1_655
Ca1 O4 2.505633 1_655
Ca1 O51 2.861553 1_556
Ca2 O17 2.386477 1_455
Ca2 O4 2.393265 1_555
Ca2 O15 2.432374 1_555
Ca2 O9 2.445898 1_555
Ca2 O16 2.457655 1_555
Ca2 O48 2.459004 1_555
Ca2 O25 2.677628 1_555
Ca2 O44 2.719977 1_555
Ca3 O23 2.344422 1_565
Ca3 O11 2.369603 1_555
Ca3 O40 2.483635 1_555
Ca3 O26 2.484670 1_565
Ca3 O38 2.495807 1_556
Ca3 O8 2.501398 1_556
Ca3 O5 2.505633 1_556
Ca3 O2 2.861553 1_565
Ca4 O29 2.386477 1_555
Ca4 O42 2.393265 1_554
Ca4 O39 2.432374 1_554
Ca4 O3 2.445898 1_545
Ca4 O43 2.457655 1_545
Ca4 O20 2.459004 1_555
Ca4 O6 2.677627 1_554
Ca4 O22 2.719977 1_545
Ca5 O25 2.402303 1_554
Ca5 O12 2.431691 1_455
Ca5 O0 2.486967 1_455
Ca5 O35 2.504156 1_555
Ca5 O28 2.554019 1_554
Ca5 O37 2.560593 1_554
Ca5 O34 2.624999 1_455
Ca5 O31 2.665739 1_455
Ca6 O22 2.344422 1_555
Ca6 O21 2.369603 1_555
Ca6 O29 2.483635 1_565
Ca6 O24 2.484670 1_555
Ca6 O7 2.495807 1_555
Ca6 O10 2.501398 1_555
Ca6 O53 2.505633 1_555
Ca6 O43 2.861553 1_555
Ca7 O10 2.402303 1_555
Ca7 O14 2.431691 1_565
Ca7 O19 2.486967 1_555
Ca7 O54 2.504156 1_555
Ca7 O2 2.554019 1_565
Ca7 O11 2.560593 1_555
Ca7 O22 2.624999 1_555
Ca7 O20 2.665739 1_565
Ca8 O44 2.344422 1_655
Ca8 O19 2.369603 1_555
Ca8 O17 2.483635 1_555
Ca8 O38 2.484670 1_655
Ca8 O46 2.495807 1_565
Ca8 O1 2.501398 1_565
Ca8 O14 2.505633 1_565
Ca8 O16 2.861553 1_655
Ca9 O6 2.402303 1_555
Ca9 O5 2.431691 1_556
Ca9 O11 2.486967 1_555
Ca9 O54 2.504156 1_555
Ca9 O51 2.554019 1_556
Ca9 O47 2.560593 1_555
Ca9 O33 2.624999 1_555
Ca9 O50 2.665739 1_556
Ca10 O27 2.386477 1_555
Ca10 O53 2.393265 1_545
Ca10 O30 2.432374 1_545
Ca10 O39 2.445898 1_455
Ca10 O18 2.457655 1_455
Ca10 O13 2.459004 1_555
Ca10 O10 2.677627 1_545
Ca10 O45 2.719977 1_455
Ca11 O32 2.402303 1_555
Ca11 O4 2.431691 1_655
Ca11 O47 2.486967 1_555
Ca11 O54 2.504156 1_555
Ca11 O16 2.554019 1_655
Ca11 O19 2.560593 1_555
Ca11 O45 2.624999 1_555
Ca11 O13 2.665739 1_655
Ca12 O49 2.386477 1_554
Ca12 O5 2.393265 1_555
Ca12 O9 2.432374 1_555
Ca12 O36 2.445898 1_555
Ca12 O51 2.457655 1_555
Ca12 O31 2.459004 1_555
Ca12 O8 2.677627 1_555
Ca12 O34 2.719977 1_555
Ca13 O45 2.344422 1_555
Ca13 O0 2.369603 1_555
Ca13 O27 2.483635 1_655
Ca13 O55 2.484670 1_555
Ca13 O24 2.495806 1_555
Ca13 O32 2.501398 1_555
Ca13 O12 2.505633 1_555
Ca13 O18 2.861553 1_555
Ca14 O1 2.402303 1_455
Ca14 O53 2.431691 1_545
Ca14 O21 2.486967 1_545
Ca14 O35 2.504156 1_555
Ca14 O18 2.554019 1_455
Ca14 O0 2.560593 1_455
Ca14 O44 2.624999 1_545
Ca14 O48 2.665739 1_545
Ca15 O40 2.386477 1_545
Ca15 O14 2.393265 1_555
Ca15 O36 2.432374 1_555
Ca15 O15 2.445898 1_555
Ca15 O2 2.457655 1_555
Ca15 O52 2.459004 1_555
Ca15 O1 2.677627 1_555
Ca15 O23 2.719977 1_555
Ca16 O41 2.386477 1_555
Ca16 O12 2.393265 1_455
Ca16 O3 2.432374 1_455
Ca16 O30 2.445898 1_554
Ca16 O28 2.457655 1_554
Ca16 O50 2.459004 1_555
Ca16 O32 2.677628 1_455
Ca16 O33 2.719977 1_554
Ca17 O8 2.402303 1_545
Ca17 O42 2.431691 1_554
Ca17 O37 2.486967 1_554
Ca17 O35 2.504156 1_555
Ca17 O43 2.554019 1_545
Ca17 O21 2.560593 1_545
Ca17 O23 2.624999 1_554
Ca17 O52 2.665739 1_554
Co0 O26 2.113628 1_665
Co0 O38 2.113628 1_656
Co0 O46 2.113628 1_566
Co0 O3 2.119637 1_556
Co0 O39 2.119637 1_565
Co0 O30 2.119637 1_655
Co1 O24 2.113628 1_555
Co1 O7 2.113628 1_555
Co1 O55 2.113628 1_555
Co1 O15 2.119637 1_555
Co1 O36 2.119637 1_555
Co1 O9 2.119637 1_555
O0 P9 1.545693 1_555
O1 P9 1.552549 1_555
O2 P12 1.545160 1_555
O3 P6 1.566114 1_555
O4 P12 1.563174 1_555
O5 P13 1.563174 1_555
O6 P7 1.552549 1_555
O7 P3 1.581368 1_555
O8 P0 1.552549 1_555
O9 P0 1.566113 1_555
O10 P10 1.552549 1_555
O11 P10 1.545693 1_555
O12 P5 1.563174 1_555
O13 P12 1.552788 1_555
O14 P11 1.563174 1_555
O15 P1 1.566114 1_555
O16 P13 1.545160 1_555
O17 P8 1.558423 1_555
O18 P2 1.545160 1_555
O19 P6 1.545693 1_555
O20 P11 1.552788 1_555
O21 P0 1.545693 1_555
O22 P6 1.545445 1_555
O23 P1 1.545445 1_555
O24 P5 1.581368 1_555
O25 P1 1.552549 1_555
O26 P12 1.581368 1_555
O27 P4 1.558423 1_555
O28 P3 1.545160 1_555
O29 P4 1.558423 1_555
O30 P10 1.566113 1_555
O31 P5 1.552788 1_555
O32 P6 1.552549 1_555
O33 P10 1.545445 1_555
O34 P9 1.545445 1_555
O35 P4 1.548853 1_555
O36 P9 1.566113 1_555
O37 P1 1.545693 1_555
O38 P13 1.581368 1_555
O39 P7 1.566113 1_555
O40 P8 1.558423 1_555
O41 P4 1.558423 1_555
O42 P2 1.563174 1_555
O43 P5 1.545160 1_555
O44 P0 1.545445 1_555
O45 P7 1.545445 1_555
O46 P11 1.581368 1_555
O47 P7 1.545693 1_555
O48 P3 1.552788 1_555
O49 P8 1.558423 1_555
O50 P13 1.552788 1_555
O51 P11 1.545160 1_555
O52 P2 1.552788 1_555
O53 P3 1.563174 1_555
O54 P8 1.548853 1_555
O55 P2 1.581368 1_555
