# generated using pymatgen
data_S4IN3Cl2
_symmetry_space_group_name_H-M   'P 1'
_cell_length_a   9.25542600
_cell_length_b   6.46279800
_cell_length_c   18.21867388
_cell_angle_alpha   87.04103254
_cell_angle_beta   90.00000000
_cell_angle_gamma   90.00000000
_symmetry_Int_Tables_number   1
_chemical_formula_structural   S4IN3Cl2
_chemical_formula_sum   'S16 I4 N12 Cl8'
_cell_volume   1088.31433892
_cell_formula_units_Z   4
loop_
 _symmetry_equiv_pos_site_id
 _symmetry_equiv_pos_as_xyz
  1  'x, y, z'
loop_
 _atom_site_type_symbol
 _atom_site_label
 _atom_site_symmetry_multiplicity
 _atom_site_fract_x
 _atom_site_fract_y
 _atom_site_fract_z
 _atom_site_occupancy
  S  S0  1  0.25647200  0.78287400  0.23978400  1
  S  S1  1  0.39688400  0.99156800  0.10557000  1
  S  S2  1  0.15697500  0.53462300  0.18621500  1
  S  S3  1  0.74352800  0.21712600  0.76021600  1
  S  S4  1  0.60311600  0.00843200  0.89443000  1
  S  S5  1  0.75647200  0.21712600  0.26021600  1
  S  S6  1  0.75699700  0.34992900  0.46869900  1
  S  S7  1  0.89688400  0.00843200  0.39443000  1
  S  S8  1  0.24300300  0.65007100  0.53130100  1
  S  S9  1  0.65697500  0.46537700  0.31378500  1
  S  S10  1  0.10311600  0.99156800  0.60557000  1
  S  S11  1  0.34302500  0.53462300  0.68621500  1
  S  S12  1  0.74300300  0.34992900  0.96869900  1
  S  S13  1  0.24352800  0.78287400  0.73978400  1
  S  S14  1  0.84302500  0.46537700  0.81378500  1
  S  S15  1  0.25699700  0.65007100  0.03130100  1
  I  I0  1  0.70985300  0.77628600  0.62779500  1
  I  I1  1  0.29014700  0.22371400  0.37220500  1
  I  I2  1  0.20985300  0.22371400  0.87220500  1
  I  I3  1  0.79014700  0.77628600  0.12779500  1
  N  N0  1  0.85067900  0.14774100  0.45946200  1
  N  N1  1  0.31003500  0.54398500  0.60165300  1
  N  N2  1  0.81003500  0.45601500  0.89834700  1
  N  N3  1  0.35067900  0.85225900  0.04053800  1
  N  N4  1  0.34285800  0.92872300  0.18404400  1
  N  N5  1  0.68996500  0.45601500  0.39834700  1
  N  N6  1  0.84285800  0.07127700  0.31595600  1
  N  N7  1  0.14932100  0.85225900  0.54053800  1
  N  N8  1  0.18996500  0.54398500  0.10165300  1
  N  N9  1  0.64932100  0.14774100  0.95946200  1
  N  N10  1  0.65714200  0.07127700  0.81595600  1
  N  N11  1  0.15714200  0.92872300  0.68404400  1
  Cl  Cl0  1  0.08884000  0.51019600  0.34720800  1
  Cl  Cl1  1  0.91116000  0.48980400  0.65279200  1
  Cl  Cl2  1  0.58884000  0.48980400  0.15279200  1
  Cl  Cl3  1  0.41116000  0.51019600  0.84720800  1
  Cl  Cl4  1  0.48178200  0.95300800  0.39232200  1
  Cl  Cl5  1  0.51821800  0.04699200  0.60767800  1
  Cl  Cl6  1  0.01821800  0.95300800  0.89232200  1
  Cl  Cl7  1  0.98178200  0.04699200  0.10767800  1
loop_
_geom_bond_atom_site_label_1
_geom_bond_atom_site_label_2
_geom_bond_distance
_geom_bond_site_symmetry_2
N0 S7 1.583458 1_555
N0 S6 1.584390 1_555
N1 S8 1.551468 1_555
N1 S11 1.568674 1_555
N2 S12 1.551468 1_555
N2 S14 1.568674 1_555
N3 S1 1.583458 1_555
N3 S15 1.584390 1_555
N4 S1 1.548892 1_555
N4 S0 1.568496 1_555
N5 S6 1.551468 1_555
N5 S9 1.568674 1_555
N6 S7 1.548892 1_555
N6 S5 1.568496 1_555
N7 S10 1.583458 1_555
N7 S8 1.584390 1_555
N8 S15 1.551468 1_555
N8 S2 1.568674 1_555
N9 S4 1.583458 1_555
N9 S12 1.584390 1_555
N10 S4 1.548892 1_555
N10 S3 1.568496 1_555
N11 S10 1.548892 1_555
N11 S13 1.568496 1_555
Cl0 I1 2.649482 1_555
Cl1 I0 2.649482 1_555
Cl2 I3 2.649482 1_555
Cl3 I2 2.649482 1_555
Cl4 I1 2.504960 1_565
Cl5 I0 2.504960 1_545
Cl6 I2 2.504960 1_565
Cl7 I3 2.504960 1_545
