# generated using pymatgen
data_ErSnPd2
_symmetry_space_group_name_H-M   'P 1'
_cell_length_a   4.74383303
_cell_length_b   4.74383266
_cell_length_c   4.74383236
_cell_angle_alpha   59.99999496
_cell_angle_beta   59.99999753
_cell_angle_gamma   59.99999172
_symmetry_Int_Tables_number   1
_chemical_formula_structural   ErSnPd2
_chemical_formula_sum   'Er1 Sn1 Pd2'
_cell_volume   75.48715166
_cell_formula_units_Z   1
loop_
 _symmetry_equiv_pos_site_id
 _symmetry_equiv_pos_as_xyz
  1  'x, y, z'
loop_
 _atom_site_type_symbol
 _atom_site_label
 _atom_site_symmetry_multiplicity
 _atom_site_fract_x
 _atom_site_fract_y
 _atom_site_fract_z
 _atom_site_occupancy
  Er  Er0  1  0.50000000  0.50000000  0.50000000  1
  Sn  Sn0  1  0.00000000  -0.00000000  -0.00000000  1
  Pd  Pd0  1  0.75000000  0.75000000  0.75000000  1
  Pd  Pd1  1  0.25000000  0.25000000  0.25000000  1
loop_
_geom_bond_atom_site_label_1
_geom_bond_atom_site_label_2
_geom_bond_distance
_geom_bond_site_symmetry_2
Er0 Pd0 2.904992 1_554
Er0 Pd1 2.904992 1_556
Er0 Pd1 2.904992 1_565
Er0 Pd0 2.904992 1_545
Er0 Pd1 2.904992 1_655
Er0 Pd0 2.904992 1_455
Er0 Pd0 2.904992 1_555
Er0 Pd1 2.904992 1_555
Er0 Sn0 3.354396 1_655
Er0 Sn0 3.354396 1_566
Er0 Sn0 3.354396 1_565
Er0 Sn0 3.354396 1_656
Er0 Sn0 3.354396 1_556
Er0 Sn0 3.354396 1_665
Pd0 Sn0 2.904992 1_665
Pd0 Sn0 2.904992 1_656
Pd0 Sn0 2.904992 1_566
Pd0 Sn0 2.904992 1_666
Pd1 Sn0 2.904992 1_556
Pd1 Sn0 2.904992 1_565
Pd1 Sn0 2.904992 1_655
Pd1 Sn0 2.904992 1_555
