# generated using pymatgen
data_Na2CuP2O7
_symmetry_space_group_name_H-M   'P 1'
_cell_length_a   5.07263812
_cell_length_b   8.73616863
_cell_length_c   13.34579949
_cell_angle_alpha   90.00000000
_cell_angle_beta   90.00000000
_cell_angle_gamma   92.99015929
_symmetry_Int_Tables_number   1
_chemical_formula_structural   Na2CuP2O7
_chemical_formula_sum   'Na8 Cu4 P8 O28'
_cell_volume   590.61951626
_cell_formula_units_Z   4
loop_
 _symmetry_equiv_pos_site_id
 _symmetry_equiv_pos_as_xyz
  1  'x, y, z'
loop_
 _atom_site_type_symbol
 _atom_site_label
 _atom_site_symmetry_multiplicity
 _atom_site_fract_x
 _atom_site_fract_y
 _atom_site_fract_z
 _atom_site_occupancy
  Na  Na0  1  0.28514845  0.36851384  0.38739861  1
  Na  Na1  1  0.73541417  0.15400044  0.29005008  1
  Na  Na2  1  0.23541417  0.65400044  0.20994992  1
  Na  Na3  1  0.71485155  0.63148616  0.61260139  1
  Na  Na4  1  0.78514845  0.86851384  0.11260139  1
  Na  Na5  1  0.76458583  0.34599956  0.79005008  1
  Na  Na6  1  0.26458583  0.84599956  0.70994992  1
  Na  Na7  1  0.21485155  0.13148616  0.88739861  1
  Cu  Cu0  1  0.20499846  0.25863396  0.15621539  1
  Cu  Cu1  1  0.70499846  0.75863396  0.34378461  1
  Cu  Cu2  1  0.29500154  0.24136604  0.65621539  1
  Cu  Cu3  1  0.79500154  0.74136604  0.84378461  1
  P  P0  1  0.77088980  0.04192408  0.67887374  1
  P  P1  1  0.27088980  0.54192408  0.82112626  1
  P  P2  1  0.70640018  0.22647218  0.03484302  1
  P  P3  1  0.22911020  0.95807592  0.32112526  1
  P  P4  1  0.29359982  0.77352782  0.96515698  1
  P  P5  1  0.72911020  0.45807592  0.17887474  1
  P  P6  1  0.79359982  0.27352782  0.53484302  1
  P  P7  1  0.20640018  0.72647218  0.46515698  1
  O  O0  1  0.99573495  0.14167573  0.72495032  1
  O  O1  1  0.49511398  0.91669521  0.27735870  1
  O  O2  1  0.18748158  0.12595894  0.31468633  1
  O  O3  1  0.79908089  0.21171067  0.93026821  1
  O  O4  1  0.08469468  0.32326069  0.54958689  1
  O  O5  1  0.49573495  0.64167573  0.77504968  1
  O  O6  1  0.91530532  0.67673931  0.45041311  1
  O  O7  1  0.99511398  0.41669521  0.22264130  1
  O  O8  1  0.58469468  0.82326069  0.95041311  1
  O  O9  1  0.00426505  0.85832427  0.27504968  1
  O  O10  1  0.87714495  0.14876711  0.11377431  1
  O  O11  1  0.37714495  0.64876711  0.38622569  1
  O  O12  1  0.62285505  0.35123289  0.61377431  1
  O  O13  1  0.81251842  0.87404106  0.68531367  1
  O  O14  1  0.00488602  0.58330479  0.77735870  1
  O  O15  1  0.76553850  0.09137967  0.56291457  1
  O  O16  1  0.26553850  0.59137967  0.93708543  1
  O  O17  1  0.68748158  0.62595894  0.18531367  1
  O  O18  1  0.12285505  0.85123289  0.88622569  1
  O  O19  1  0.50426505  0.35832427  0.22495032  1
  O  O20  1  0.73446150  0.40862033  0.06291457  1
  O  O21  1  0.41530532  0.17673931  0.04958689  1
  O  O22  1  0.31251842  0.37404106  0.81468633  1
  O  O23  1  0.20091911  0.78828933  0.06973179  1
  O  O24  1  0.50488602  0.08330479  0.72264130  1
  O  O25  1  0.23446150  0.90862033  0.43708543  1
  O  O26  1  0.70091911  0.28828933  0.43026821  1
  O  O27  1  0.29908089  0.71171067  0.56973179  1
loop_
_geom_bond_atom_site_label_1
_geom_bond_atom_site_label_2
_geom_bond_distance
_geom_bond_site_symmetry_2
Na0 O26 2.328272 1_555
Na0 O2 2.359612 1_555
Na0 O4 2.415263 1_555
Na0 O19 2.440064 1_555
Na0 O11 2.468438 1_555
Na0 O7 2.690935 1_455
Na1 O26 2.220409 1_555
Na1 O2 2.342087 1_655
Na1 O19 2.352505 1_555
Na1 O1 2.355589 1_545
Na1 O10 2.461068 1_555
Na1 O7 2.737906 1_555
Na1 O2 2.796873 1_555
Na2 O23 2.220409 1_555
Na2 O17 2.342087 1_555
Na2 O9 2.352505 1_555
Na2 O7 2.355589 1_455
Na2 O11 2.461068 1_555
Na2 O1 2.737906 1_555
Na2 O17 2.796873 1_455
Na3 O27 2.328272 1_555
Na3 O13 2.359612 1_555
Na3 O6 2.415263 1_555
Na3 O5 2.440064 1_555
Na3 O12 2.468438 1_555
Na3 O14 2.690935 1_655
Na4 O23 2.328272 1_655
Na4 O17 2.359612 1_555
Na4 O8 2.415263 1_554
Na4 O9 2.440064 1_655
Na4 O10 2.468438 1_565
Na4 O1 2.690935 1_555
Na5 O3 2.220409 1_555
Na5 O22 2.342087 1_555
Na5 O0 2.352505 1_555
Na5 O14 2.355589 1_655
Na5 O12 2.461068 1_555
Na5 O24 2.737906 1_555
Na5 O22 2.796873 1_655
Na6 O27 2.220409 1_555
Na6 O13 2.342087 1_455
Na6 O5 2.352505 1_555
Na6 O24 2.355589 1_565
Na6 O18 2.461068 1_555
Na6 O14 2.737906 1_555
Na6 O13 2.796873 1_555
Na7 O3 2.328272 1_455
Na7 O22 2.359612 1_555
Na7 O21 2.415263 1_556
Na7 O0 2.440064 1_455
Na7 O18 2.468438 1_545
Na7 O24 2.690935 1_555
Cu0 O21 1.937686 1_555
Cu0 O19 1.940766 1_555
Cu0 O10 1.959942 1_455
Cu0 O7 1.994878 1_455
Cu0 O2 2.411118 1_555
Cu1 O6 1.937686 1_555
Cu1 O9 1.940766 1_655
Cu1 O11 1.959942 1_555
Cu1 O1 1.994878 1_555
Cu1 O17 2.411118 1_555
Cu2 O4 1.937686 1_555
Cu2 O0 1.940766 1_455
Cu2 O12 1.959942 1_555
Cu2 O24 1.994878 1_555
Cu2 O22 2.411118 1_555
Cu3 O8 1.937686 1_555
Cu3 O5 1.940766 1_555
Cu3 O18 1.959942 1_655
Cu3 O14 1.994878 1_655
Cu3 O13 2.411118 1_555
O0 P0 1.527984 1_555
O1 P3 1.530841 1_555
O2 P3 1.495113 1_545
O3 P2 1.480466 1_556
O4 P6 1.530019 1_455
O5 P1 1.527984 1_555
O6 P7 1.530019 1_655
O7 P5 1.530841 1_555
O8 P4 1.530019 1_555
O9 P3 1.527978 1_555
O10 P2 1.543373 1_555
O11 P7 1.543373 1_555
O12 P6 1.543373 1_555
O13 P0 1.495114 1_565
O14 P1 1.530846 1_555
O15 P0 1.607357 1_555
O15 P6 1.633752 1_555
O16 P1 1.607357 1_555
O16 P4 1.633752 1_555
O17 P5 1.495113 1_555
O18 P4 1.543373 1_555
O19 P5 1.527978 1_555
O20 P5 1.607370 1_555
O20 P2 1.633752 1_555
O21 P2 1.530019 1_555
O22 P1 1.495114 1_555
O23 P4 1.480466 1_554
O24 P0 1.530846 1_555
O25 P3 1.607370 1_555
O25 P7 1.633752 1_555
O26 P6 1.480466 1_555
O27 P7 1.480466 1_555
