# generated using pymatgen
data_KNaP2H2O7
_symmetry_space_group_name_H-M   'P 1'
_cell_length_a   8.01695300
_cell_length_b   8.03892227
_cell_length_c   11.48029506
_cell_angle_alpha   106.48749703
_cell_angle_beta   95.30391657
_cell_angle_gamma   90.06559965
_symmetry_Int_Tables_number   1
_chemical_formula_structural   KNaP2H2O7
_chemical_formula_sum   'K4 Na4 P8 H8 O28'
_cell_volume   706.12749959
_cell_formula_units_Z   4
loop_
 _symmetry_equiv_pos_site_id
 _symmetry_equiv_pos_as_xyz
  1  'x, y, z'
loop_
 _atom_site_type_symbol
 _atom_site_label
 _atom_site_symmetry_multiplicity
 _atom_site_fract_x
 _atom_site_fract_y
 _atom_site_fract_z
 _atom_site_occupancy
  K  K0  1  0.22286100  0.64687800  0.43614800  1
  K  K1  1  0.77713900  0.35312200  0.56385200  1
  K  K2  1  0.33940200  0.76490400  0.06332200  1
  K  K3  1  0.66059800  0.23509600  0.93667800  1
  Na  Na0  1  0.66797100  0.85144300  0.42002200  1
  Na  Na1  1  0.33202900  0.14855700  0.57997800  1
  Na  Na2  1  0.12364900  0.21032200  0.07693400  1
  Na  Na3  1  0.87635100  0.78967800  0.92306600  1
  P  P0  1  0.44867200  0.15906200  0.29320900  1
  P  P1  1  0.55132800  0.84093800  0.70679100  1
  P  P2  1  0.78355400  0.06858800  0.21059200  1
  P  P3  1  0.21644600  0.93141200  0.78940800  1
  P  P4  1  0.85235100  0.44699700  0.28600800  1
  P  P5  1  0.14764900  0.55300300  0.71399200  1
  P  P6  1  0.49182300  0.47102600  0.20921600  1
  P  P7  1  0.50817700  0.52897400  0.79078400  1
  H  H0  1  0.19134200  0.00428200  0.34649000  1
  H  H1  1  0.80865800  0.99571800  0.65351000  1
  H  H2  1  0.02355300  0.96836100  0.39025000  1
  H  H3  1  0.97644700  0.03163900  0.60975000  1
  H  H4  1  0.01034700  0.59347700  0.11904800  1
  H  H5  1  0.98965300  0.40652300  0.88095200  1
  H  H6  1  0.95838900  0.78344400  0.15824700  1
  H  H7  1  0.04161100  0.21655600  0.84175300  1
  O  O0  1  0.57901300  0.07828600  0.19115900  1
  O  O1  1  0.42098700  0.92171400  0.80884100  1
  O  O2  1  0.83394900  0.25585100  0.30954900  1
  O  O3  1  0.16605100  0.74414900  0.69045100  1
  O  O4  1  0.69043300  0.44254000  0.18756700  1
  O  O5  1  0.30956700  0.55746000  0.81243300  1
  O  O6  1  0.46688300  0.36786300  0.31110400  1
  O  O7  1  0.53311700  0.63213700  0.68889600  1
  O  O8  1  0.27844200  0.09195000  0.23187600  1
  O  O9  1  0.72155800  0.90805000  0.76812400  1
  O  O10  1  0.50890500  0.13221700  0.41388800  1
  O  O11  1  0.49109500  0.86778300  0.58611200  1
  O  O12  1  0.84522600  0.05793200  0.08947100  1
  O  O13  1  0.15477400  0.94206800  0.91052900  1
  O  O14  1  0.82890100  0.93293900  0.27405900  1
  O  O15  1  0.17109900  0.06706100  0.72594100  1
  O  O16  1  0.83377100  0.57771000  0.40587600  1
  O  O17  1  0.16622900  0.42229000  0.59412400  1
  O  O18  1  0.00576900  0.45036100  0.22088900  1
  O  O19  1  0.99423100  0.54963900  0.77911100  1
  O  O20  1  0.46466300  0.65851400  0.27147000  1
  O  O21  1  0.53533700  0.34148600  0.72853000  1
  O  O22  1  0.39583100  0.38106800  0.08957900  1
  O  O23  1  0.60416900  0.61893200  0.91042100  1
  O  O24  1  0.14474300  0.97141000  0.41392800  1
  O  O25  1  0.85525700  0.02859000  0.58607200  1
  O  O26  1  0.01219000  0.70014600  0.09292100  1
  O  O27  1  0.98781000  0.29985400  0.90707900  1
loop_
_geom_bond_atom_site_label_1
_geom_bond_atom_site_label_2
_geom_bond_distance
_geom_bond_site_symmetry_2
K0 O24 2.759626 1_555
K0 O20 2.849262 1_555
K0 O3 2.879765 1_555
K0 O11 2.883285 1_555
K0 O18 2.935023 1_555
K0 O17 2.960385 1_555
K0 O6 3.101693 1_555
K0 O16 3.137836 1_455
K1 O25 2.759626 1_555
K1 O21 2.849262 1_555
K1 O2 2.879765 1_555
K1 O10 2.883285 1_555
K1 O19 2.935023 1_555
K1 O16 2.960385 1_555
K1 O7 3.101693 1_555
K1 O17 3.137836 1_655
K2 O26 2.744077 1_555
K2 O20 2.858054 1_555
K2 O8 2.861031 1_565
K2 O13 2.870359 1_554
K2 O5 2.877420 1_554
K2 O23 2.913615 1_554
K2 O0 3.091869 1_565
K2 O22 3.212873 1_555
K3 O27 2.744077 1_555
K3 O21 2.858054 1_555
K3 O9 2.861031 1_545
K3 O12 2.870359 1_556
K3 O4 2.877420 1_556
K3 O22 2.913615 1_556
K3 O1 3.091869 1_545
K3 O23 3.212873 1_555
Na0 O25 2.416898 1_565
Na0 O14 2.433639 1_555
Na0 O20 2.439152 1_555
Na0 O11 2.453950 1_555
Na0 O16 2.545431 1_555
Na0 O10 2.608823 1_565
Na1 O24 2.416898 1_545
Na1 O15 2.433639 1_555
Na1 O21 2.439152 1_555
Na1 O10 2.453950 1_555
Na1 O17 2.545431 1_555
Na1 O11 2.608823 1_545
Na2 O18 2.414682 1_555
Na2 O27 2.431513 1_454
Na2 O13 2.472482 1_544
Na2 O8 2.482931 1_555
Na2 O22 2.547165 1_555
Na2 O12 2.580110 1_455
Na3 O19 2.414682 1_555
Na3 O26 2.431513 1_656
Na3 O12 2.472482 1_566
Na3 O9 2.482931 1_555
Na3 O23 2.547165 1_555
Na3 O13 2.580110 1_655
H0 O24 0.989023 1_545
H1 O25 0.989023 1_565
H2 O24 0.982744 1_555
H3 O25 0.982744 1_555
H4 O26 0.986043 1_555
H5 O27 0.986043 1_555
H6 O26 0.986049 1_655
H7 O27 0.986049 1_455
O0 P0 1.637737 1_555
O0 P2 1.639302 1_555
O1 P1 1.637737 1_555
O1 P3 1.639302 1_555
O2 P2 1.631892 1_555
O2 P4 1.642723 1_555
O3 P3 1.631892 1_555
O3 P5 1.642723 1_555
O4 P4 1.633771 1_555
O4 P6 1.640473 1_555
O5 P5 1.633771 1_555
O5 P7 1.640473 1_555
O6 P0 1.636814 1_555
O6 P6 1.639949 1_555
O7 P1 1.636814 1_555
O7 P7 1.639949 1_555
O8 P0 1.501455 1_555
O9 P1 1.501455 1_555
O10 P0 1.498475 1_555
O11 P1 1.498475 1_555
O12 P2 1.498293 1_555
O13 P3 1.498293 1_555
O14 P2 1.501701 1_565
O15 P3 1.501701 1_545
O16 P4 1.495839 1_555
O17 P5 1.495839 1_555
O18 P4 1.501257 1_455
O19 P5 1.501257 1_655
O20 P6 1.499317 1_555
O21 P7 1.499317 1_555
O22 P6 1.497047 1_555
O23 P7 1.497047 1_555
