# generated using pymatgen
data_Na4Ce(As2O7)2
_symmetry_space_group_name_H-M   'P 1'
_cell_length_a   11.00105800
_cell_length_b   11.00105800
_cell_length_c   10.41413100
_cell_angle_alpha   90.00000000
_cell_angle_beta   90.00000000
_cell_angle_gamma   90.00000000
_symmetry_Int_Tables_number   1
_chemical_formula_structural   Na4Ce(As2O7)2
_chemical_formula_sum   'Na16 Ce4 As16 O56'
_cell_volume   1260.35226197
_cell_formula_units_Z   4
loop_
 _symmetry_equiv_pos_site_id
 _symmetry_equiv_pos_as_xyz
  1  'x, y, z'
loop_
 _atom_site_type_symbol
 _atom_site_label
 _atom_site_symmetry_multiplicity
 _atom_site_fract_x
 _atom_site_fract_y
 _atom_site_fract_z
 _atom_site_occupancy
  Na  Na0  1  0.35113800  0.42511300  0.39563200  1
  Na  Na1  1  0.07488700  0.14886200  0.89563200  1
  Na  Na2  1  0.42511300  0.64886200  0.60436800  1
  Na  Na3  1  0.64886200  0.57488700  0.39563200  1
  Na  Na4  1  0.07488700  0.85113800  0.39563200  1
  Na  Na5  1  0.64886200  0.42511300  0.89563200  1
  Na  Na6  1  0.14886200  0.92511300  0.10436800  1
  Na  Na7  1  0.35113800  0.57488700  0.89563200  1
  Na  Na8  1  0.85113800  0.92511300  0.60436800  1
  Na  Na9  1  0.92511300  0.14886200  0.39563200  1
  Na  Na10  1  0.92511300  0.85113800  0.89563200  1
  Na  Na11  1  0.85113800  0.07488700  0.10436800  1
  Na  Na12  1  0.14886200  0.07488700  0.60436800  1
  Na  Na13  1  0.57488700  0.64886200  0.10436800  1
  Na  Na14  1  0.57488700  0.35113800  0.60436800  1
  Na  Na15  1  0.42511300  0.35113800  0.10436800  1
  Ce  Ce0  1  0.00000000  0.50000000  0.93065800  1
  Ce  Ce1  1  0.50000000  0.00000000  0.06934200  1
  Ce  Ce2  1  0.00000000  0.50000000  0.43065800  1
  Ce  Ce3  1  0.50000000  0.00000000  0.56934200  1
  As  As0  1  0.60061500  0.77355200  0.82272200  1
  As  As1  1  0.77355200  0.60061500  0.67727800  1
  As  As2  1  0.39938500  0.77355200  0.32272200  1
  As  As3  1  0.22644800  0.39938500  0.67727800  1
  As  As4  1  0.22644800  0.60061500  0.17727800  1
  As  As5  1  0.60061500  0.22644800  0.32272200  1
  As  As6  1  0.39938500  0.22644800  0.82272200  1
  As  As7  1  0.27355200  0.10061500  0.32272200  1
  As  As8  1  0.77355200  0.39938500  0.17727800  1
  As  As9  1  0.72644800  0.89938500  0.32272200  1
  As  As10  1  0.10061500  0.27355200  0.17727800  1
  As  As11  1  0.89938500  0.72644800  0.17727800  1
  As  As12  1  0.27355200  0.89938500  0.82272200  1
  As  As13  1  0.72644800  0.10061500  0.82272200  1
  As  As14  1  0.10061500  0.72644800  0.67727800  1
  As  As15  1  0.89938500  0.27355200  0.67727800  1
  O  O0  1  0.13829300  0.94726100  0.88114300  1
  O  O1  1  0.24981700  0.75018300  0.25000000  1
  O  O2  1  0.82147600  0.48847100  0.30249800  1
  O  O3  1  0.98847100  0.32147600  0.80249800  1
  O  O4  1  0.67852400  0.01152900  0.69750200  1
  O  O5  1  0.62563600  0.86693500  0.44296300  1
  O  O6  1  0.62563600  0.13306500  0.94296300  1
  O  O7  1  0.05273900  0.13829300  0.11885700  1
  O  O8  1  0.36693500  0.87436400  0.44296300  1
  O  O9  1  0.86693500  0.62563600  0.05703700  1
  O  O10  1  0.36170700  0.55273900  0.11885700  1
  O  O11  1  0.86693500  0.37436400  0.55703700  1
  O  O12  1  0.98847100  0.67852400  0.30249800  1
  O  O13  1  0.74981700  0.74981700  0.25000000  1
  O  O14  1  0.87436400  0.36693500  0.05703700  1
  O  O15  1  0.17852400  0.48847100  0.80249800  1
  O  O16  1  0.55273900  0.36170700  0.38114300  1
  O  O17  1  0.01152900  0.32147600  0.30249800  1
  O  O18  1  0.63306500  0.12563600  0.44296300  1
  O  O19  1  0.87436400  0.63306500  0.55703700  1
  O  O20  1  0.63306500  0.87436400  0.94296300  1
  O  O21  1  0.51152900  0.82147600  0.69750200  1
  O  O22  1  0.48847100  0.17852400  0.69750200  1
  O  O23  1  0.44726100  0.63829300  0.38114300  1
  O  O24  1  0.82147600  0.51152900  0.80249800  1
  O  O25  1  0.25018300  0.25018300  0.25000000  1
  O  O26  1  0.51152900  0.17852400  0.19750200  1
  O  O27  1  0.24981700  0.24981700  0.75000000  1
  O  O28  1  0.01152900  0.67852400  0.80249800  1
  O  O29  1  0.63829300  0.55273900  0.61885700  1
  O  O30  1  0.67852400  0.98847100  0.19750200  1
  O  O31  1  0.13306500  0.37436400  0.05703700  1
  O  O32  1  0.75018300  0.24981700  0.25000000  1
  O  O33  1  0.48847100  0.82147600  0.19750200  1
  O  O34  1  0.12563600  0.36693500  0.55703700  1
  O  O35  1  0.94726100  0.86170700  0.11885700  1
  O  O36  1  0.44726100  0.36170700  0.88114300  1
  O  O37  1  0.17852400  0.51152900  0.30249800  1
  O  O38  1  0.37436400  0.86693500  0.94296300  1
  O  O39  1  0.36170700  0.44726100  0.61885700  1
  O  O40  1  0.55273900  0.63829300  0.88114300  1
  O  O41  1  0.86170700  0.05273900  0.88114300  1
  O  O42  1  0.86170700  0.94726100  0.38114300  1
  O  O43  1  0.13306500  0.62563600  0.55703700  1
  O  O44  1  0.25018300  0.74981700  0.75000000  1
  O  O45  1  0.32147600  0.01152900  0.19750200  1
  O  O46  1  0.32147600  0.98847100  0.69750200  1
  O  O47  1  0.05273900  0.86170700  0.61885700  1
  O  O48  1  0.63829300  0.44726100  0.11885700  1
  O  O49  1  0.75018300  0.75018300  0.75000000  1
  O  O50  1  0.13829300  0.05273900  0.38114300  1
  O  O51  1  0.12563600  0.63306500  0.05703700  1
  O  O52  1  0.36693500  0.12563600  0.94296300  1
  O  O53  1  0.37436400  0.13306500  0.44296300  1
  O  O54  1  0.74981700  0.25018300  0.75000000  1
  O  O55  1  0.94726100  0.13829300  0.61885700  1
loop_
_geom_bond_atom_site_label_1
_geom_bond_atom_site_label_2
_geom_bond_distance
_geom_bond_site_symmetry_2
Na0 O16 2.329821 1_555
Na0 O37 2.334621 1_555
Na0 O39 2.340318 1_555
Na0 O23 2.577007 1_555
Na0 O25 2.690167 1_555
Na1 O0 2.329821 1_545
Na1 O3 2.334621 1_455
Na1 O7 2.340318 1_556
Na1 O41 2.577007 1_455
Na1 O27 2.690167 1_555
Na2 O39 2.329821 1_555
Na2 O21 2.334621 1_555
Na2 O23 2.340318 1_555
Na2 O29 2.577007 1_555
Na2 O44 2.690167 1_555
Na3 O23 2.329821 1_555
Na3 O2 2.334621 1_555
Na3 O29 2.340318 1_555
Na3 O16 2.577007 1_555
Na3 O13 2.690167 1_555
Na4 O50 2.329821 1_565
Na4 O12 2.334621 1_455
Na4 O47 2.340318 1_555
Na4 O42 2.577007 1_455
Na4 O1 2.690167 1_555
Na5 O36 2.329821 1_555
Na5 O24 2.334621 1_555
Na5 O48 2.340318 1_556
Na5 O40 2.577007 1_555
Na5 O54 2.690167 1_555
Na6 O35 2.329821 1_455
Na6 O45 2.334621 1_565
Na6 O0 2.340318 1_554
Na6 O7 2.577007 1_565
Na6 O1 2.690167 1_555
Na7 O40 2.329821 1_555
Na7 O15 2.334621 1_555
Na7 O10 2.340318 1_556
Na7 O36 2.577007 1_555
Na7 O44 2.690167 1_555
Na8 O47 2.329821 1_655
Na8 O4 2.334621 1_565
Na8 O42 2.340318 1_555
Na8 O55 2.577007 1_565
Na8 O49 2.690167 1_555
Na9 O42 2.329821 1_545
Na9 O17 2.334621 1_655
Na9 O55 2.340318 1_555
Na9 O50 2.577007 1_655
Na9 O32 2.690167 1_555
Na10 O41 2.329821 1_565
Na10 O28 2.334621 1_655
Na10 O35 2.340318 1_556
Na10 O0 2.577007 1_655
Na10 O49 2.690167 1_555
Na11 O7 2.329821 1_655
Na11 O30 2.334621 1_545
Na11 O41 2.340318 1_554
Na11 O35 2.577007 1_545
Na11 O32 2.690167 1_555
Na12 O55 2.329821 1_455
Na12 O46 2.334621 1_545
Na12 O50 2.340318 1_555
Na12 O47 2.577007 1_545
Na12 O27 2.690167 1_555
Na13 O48 2.329821 1_555
Na13 O33 2.334621 1_555
Na13 O40 2.340318 1_554
Na13 O10 2.577007 1_555
Na13 O13 2.690167 1_555
Na14 O29 2.329821 1_555
Na14 O22 2.334621 1_555
Na14 O16 2.340318 1_555
Na14 O39 2.577007 1_555
Na14 O54 2.690167 1_555
Na15 O10 2.329821 1_555
Na15 O26 2.334621 1_555
Na15 O36 2.340318 1_554
Na15 O48 2.577007 1_555
Na15 O25 2.690167 1_555
Ce0 O24 2.377931 1_455
Ce0 O28 2.377931 1_555
Ce0 O3 2.377931 1_455
Ce0 O15 2.377931 1_555
Ce0 O31 2.405275 1_556
Ce0 O51 2.405275 1_556
Ce0 O14 2.405275 1_456
Ce0 O9 2.405275 1_456
Ce1 O33 2.377931 1_545
Ce1 O45 2.377931 1_555
Ce1 O26 2.377931 1_555
Ce1 O30 2.377931 1_545
Ce1 O6 2.405275 1_554
Ce1 O52 2.405275 1_554
Ce1 O38 2.405275 1_544
Ce1 O20 2.405275 1_544
Ce2 O37 2.377931 1_555
Ce2 O17 2.377931 1_555
Ce2 O12 2.377931 1_455
Ce2 O2 2.377931 1_455
Ce2 O43 2.405275 1_555
Ce2 O11 2.405275 1_455
Ce2 O34 2.405275 1_555
Ce2 O19 2.405275 1_455
Ce3 O21 2.377931 1_545
Ce3 O4 2.377931 1_555
Ce3 O46 2.377931 1_545
Ce3 O22 2.377931 1_555
Ce3 O18 2.405275 1_555
Ce3 O8 2.405275 1_545
Ce3 O53 2.405275 1_555
Ce3 O5 2.405275 1_545
As0 O40 1.691649 1_555
As0 O20 1.710387 1_555
As0 O21 1.714351 1_555
As0 O49 1.829484 1_555
As1 O29 1.691649 1_555
As1 O19 1.710387 1_555
As1 O24 1.714351 1_555
As1 O49 1.829484 1_555
As2 O23 1.691649 1_555
As2 O8 1.710387 1_555
As2 O33 1.714351 1_555
As2 O1 1.829484 1_555
As3 O39 1.691649 1_555
As3 O34 1.710387 1_555
As3 O15 1.714351 1_555
As3 O27 1.829484 1_555
As4 O10 1.691649 1_555
As4 O51 1.710387 1_555
As4 O37 1.714351 1_555
As4 O1 1.829484 1_555
As5 O16 1.691649 1_555
As5 O18 1.710387 1_555
As5 O26 1.714351 1_555
As5 O32 1.829484 1_555
As6 O36 1.691649 1_555
As6 O52 1.710387 1_555
As6 O22 1.714351 1_555
As6 O27 1.829484 1_555
As7 O50 1.691649 1_555
As7 O53 1.710387 1_555
As7 O45 1.714351 1_555
As7 O25 1.829484 1_555
As8 O48 1.691649 1_555
As8 O14 1.710387 1_555
As8 O2 1.714351 1_555
As8 O32 1.829484 1_555
As9 O42 1.691649 1_555
As9 O5 1.710387 1_555
As9 O30 1.714351 1_555
As9 O13 1.829484 1_555
As10 O7 1.691649 1_555
As10 O31 1.710387 1_555
As10 O17 1.714351 1_555
As10 O25 1.829484 1_555
As11 O35 1.691649 1_555
As11 O9 1.710387 1_555
As11 O12 1.714351 1_555
As11 O13 1.829484 1_555
As12 O0 1.691649 1_555
As12 O38 1.710387 1_555
As12 O46 1.714351 1_555
As12 O44 1.829484 1_555
As13 O41 1.691649 1_555
As13 O6 1.710387 1_555
As13 O4 1.714351 1_555
As13 O54 1.829484 1_555
As14 O47 1.691649 1_555
As14 O43 1.710387 1_555
As14 O28 1.714351 1_555
As14 O44 1.829484 1_555
As15 O55 1.691649 1_555
As15 O11 1.710387 1_555
As15 O3 1.714351 1_555
As15 O54 1.829484 1_555
