# generated using pymatgen
data_Li3SbO4
_symmetry_space_group_name_H-M   'P 1'
_cell_length_a   5.10526801
_cell_length_b   5.09825546
_cell_length_c   6.06666540
_cell_angle_alpha   90.00000000
_cell_angle_beta   90.00000000
_cell_angle_gamma   108.57928025
_symmetry_Int_Tables_number   1
_chemical_formula_structural   Li3SbO4
_chemical_formula_sum   'Li6 Sb2 O8'
_cell_volume   149.67360982
_cell_formula_units_Z   2
loop_
 _symmetry_equiv_pos_site_id
 _symmetry_equiv_pos_as_xyz
  1  'x, y, z'
loop_
 _atom_site_type_symbol
 _atom_site_label
 _atom_site_symmetry_multiplicity
 _atom_site_fract_x
 _atom_site_fract_y
 _atom_site_fract_z
 _atom_site_occupancy
  Li  Li0  1  0.75000000  0.50000000  0.57173173  1
  Li  Li1  1  0.25000000  0.50000000  0.42826827  1
  Li  Li2  1  0.75000000  0.00000000  0.38989793  1
  Li  Li3  1  0.25000000  0.00000000  0.61010207  1
  Li  Li4  1  0.25000000  0.50000000  0.85172729  1
  Li  Li5  1  0.75000000  0.50000000  0.14827271  1
  Sb  Sb0  1  0.75000000  0.00000000  0.85542329  1
  Sb  Sb1  1  0.25000000  0.00000000  0.14457671  1
  O  O0  1  0.49370271  0.22455160  0.89755754  1
  O  O1  1  0.47846416  0.24556236  0.36225332  1
  O  O2  1  0.97846416  0.24556236  0.63774668  1
  O  O3  1  0.52153584  0.75443764  0.63774668  1
  O  O4  1  0.50629729  0.77544840  0.10244246  1
  O  O5  1  0.99370271  0.22455160  0.10244246  1
  O  O6  1  0.02153584  0.75443764  0.36225332  1
  O  O7  1  0.00629729  0.77544840  0.89755754  1
loop_
_geom_bond_atom_site_label_1
_geom_bond_atom_site_label_2
_geom_bond_distance
_geom_bond_site_symmetry_2
Li0 O1 2.018302 1_555
Li0 O6 2.018302 1_655
Li0 O2 2.041481 1_555
Li0 O3 2.041481 1_555
Li0 O7 2.533871 1_655
Li0 O0 2.533871 1_555
Li1 O3 2.018302 1_555
Li1 O2 2.018302 1_455
Li1 O1 2.041481 1_555
Li1 O6 2.041481 1_555
Li1 O4 2.533871 1_555
Li1 O5 2.533871 1_455
Li2 O3 2.063523 1_545
Li2 O2 2.063523 1_555
Li2 O1 2.150148 1_555
Li2 O6 2.150148 1_645
Li2 O5 2.234301 1_555
Li2 O4 2.234301 1_545
Li3 O6 2.063523 1_545
Li3 O1 2.063523 1_555
Li3 O3 2.150148 1_545
Li3 O2 2.150148 1_455
Li3 O0 2.234301 1_555
Li3 O7 2.234301 1_545
Li4 O2 2.035611 1_455
Li4 O3 2.035611 1_555
Li4 O7 2.170415 1_555
Li4 O0 2.170415 1_555
Li4 O4 2.196977 1_556
Li4 O5 2.196977 1_456
Li5 O1 2.035611 1_555
Li5 O6 2.035611 1_655
Li5 O4 2.170415 1_555
Li5 O5 2.170415 1_555
Li5 O7 2.196977 1_654
Li5 O0 2.196977 1_554
O0 Sb0 2.010619 1_555
O0 Sb1 2.048579 1_556
O1 Sb1 1.934212 1_555
O2 Sb0 1.934212 1_555
O3 Sb0 1.934212 1_565
O4 Sb1 2.010619 1_565
O4 Sb0 2.048579 1_564
O5 Sb1 2.010619 1_655
O5 Sb0 2.048579 1_554
O6 Sb1 1.934212 1_565
O7 Sb0 2.010619 1_465
O7 Sb1 2.048579 1_566
