# generated using pymatgen
data_CsAg(NO3)2
_symmetry_space_group_name_H-M   'P 1'
_cell_length_a   10.81477464
_cell_length_b   10.81477464
_cell_length_c   5.59171379
_cell_angle_alpha   86.82577391
_cell_angle_beta   86.82577391
_cell_angle_gamma   30.89901849
_symmetry_Int_Tables_number   1
_chemical_formula_structural   CsAg(NO3)2
_chemical_formula_sum   'Cs2 Ag2 N4 O12'
_cell_volume   335.29335784
_cell_formula_units_Z   2
loop_
 _symmetry_equiv_pos_site_id
 _symmetry_equiv_pos_as_xyz
  1  'x, y, z'
loop_
 _atom_site_type_symbol
 _atom_site_label
 _atom_site_symmetry_multiplicity
 _atom_site_fract_x
 _atom_site_fract_y
 _atom_site_fract_z
 _atom_site_occupancy
  Cs  Cs0  1  0.59034600  0.59034600  0.73028300  1
  Cs  Cs1  1  0.40965400  0.40965400  0.26971700  1
  Ag  Ag0  1  0.17968600  0.17968600  0.18824600  1
  Ag  Ag1  1  0.82031400  0.82031400  0.81175400  1
  N  N0  1  0.24032800  0.24032800  0.68077200  1
  N  N1  1  0.75967200  0.75967200  0.31922800  1
  N  N2  1  0.03992800  0.03992800  0.23985600  1
  N  N3  1  0.96007200  0.96007200  0.76014400  1
  O  O0  1  0.72136300  0.72136300  0.15101800  1
  O  O1  1  0.81992900  0.81992900  0.27252400  1
  O  O2  1  0.88036100  0.26220300  0.23141000  1
  O  O3  1  0.02011100  0.02011100  0.74413100  1
  O  O4  1  0.11963900  0.73779700  0.76859000  1
  O  O5  1  0.73779700  0.11963900  0.76859000  1
  O  O6  1  0.27863700  0.27863700  0.84898200  1
  O  O7  1  0.26220300  0.88036100  0.23141000  1
  O  O8  1  0.97988900  0.97988900  0.25586900  1
  O  O9  1  0.18007100  0.18007100  0.72747600  1
  O  O10  1  0.26262400  0.26262400  0.46352100  1
  O  O11  1  0.73737600  0.73737600  0.53647900  1
loop_
_geom_bond_atom_site_label_1
_geom_bond_atom_site_label_2
_geom_bond_distance
_geom_bond_site_symmetry_2
Cs0 O11 3.191968 1_555
Cs0 O3 3.230607 1_655
Cs0 O3 3.230607 1_565
Cs0 O7 3.324697 1_556
Cs0 O2 3.324697 1_556
Cs0 O7 3.352384 1_555
Cs0 O2 3.352384 1_555
Cs0 O9 3.434496 1_655
Cs0 O9 3.434496 1_565
Cs1 O10 3.191968 1_555
Cs1 O8 3.230607 1_545
Cs1 O8 3.230607 1_455
Cs1 O4 3.324697 1_554
Cs1 O5 3.324697 1_554
Cs1 O4 3.352384 1_555
Cs1 O5 3.352384 1_555
Cs1 O1 3.434496 1_545
Cs1 O1 3.434496 1_455
Ag0 O10 2.380098 1_555
Ag0 O7 2.512636 1_545
Ag0 O2 2.512636 1_455
Ag0 O9 2.576045 1_554
Ag0 O6 2.721192 1_554
Ag1 O11 2.380098 1_555
Ag1 O4 2.512636 1_655
Ag1 O5 2.512636 1_565
Ag1 O1 2.576045 1_556
Ag1 O0 2.721192 1_556
N0 O9 1.268321 1_555
N0 O6 1.268413 1_555
N0 O10 1.275514 1_555
N1 O1 1.268321 1_555
N1 O0 1.268413 1_555
N1 O11 1.275514 1_555
N2 O8 1.249749 1_445
N2 O2 1.279103 1_455
N2 O7 1.279103 1_545
N3 O3 1.249749 1_665
N3 O4 1.279103 1_655
N3 O5 1.279103 1_565
