# generated using pymatgen
data_Ag4PIO4
_symmetry_space_group_name_H-M   'P 1'
_cell_length_a   6.92830800
_cell_length_b   9.31627100
_cell_length_c   11.31477650
_cell_angle_alpha   71.47942085
_cell_angle_beta   90.00000000
_cell_angle_gamma   90.00000000
_symmetry_Int_Tables_number   1
_chemical_formula_structural   Ag4PIO4
_chemical_formula_sum   'Ag16 P4 I4 O16'
_cell_volume   692.49977916
_cell_formula_units_Z   4
loop_
 _symmetry_equiv_pos_site_id
 _symmetry_equiv_pos_as_xyz
  1  'x, y, z'
loop_
 _atom_site_type_symbol
 _atom_site_label
 _atom_site_symmetry_multiplicity
 _atom_site_fract_x
 _atom_site_fract_y
 _atom_site_fract_z
 _atom_site_occupancy
  Ag  Ag0  1  0.03586700  0.35642600  0.92425300  1
  Ag  Ag1  1  0.53785600  0.99439200  0.78154100  1
  Ag  Ag2  1  0.75000000  0.62083300  0.30766400  1
  Ag  Ag3  1  0.03785600  0.00560800  0.21845900  1
  Ag  Ag4  1  0.53586700  0.64357400  0.07574700  1
  Ag  Ag5  1  0.46214400  0.00560800  0.21845900  1
  Ag  Ag6  1  0.25000000  0.37916700  0.69233600  1
  Ag  Ag7  1  0.01821600  0.29000100  0.46024000  1
  Ag  Ag8  1  0.46413300  0.35642600  0.92425300  1
  Ag  Ag9  1  0.48178400  0.29000100  0.46024000  1
  Ag  Ag10  1  0.96413300  0.64357400  0.07574700  1
  Ag  Ag11  1  0.96214400  0.99439200  0.78154100  1
  Ag  Ag12  1  0.25000000  0.31417100  0.21955100  1
  Ag  Ag13  1  0.98178400  0.70999900  0.53976000  1
  Ag  Ag14  1  0.75000000  0.68582900  0.78044900  1
  Ag  Ag15  1  0.51821600  0.70999900  0.53976000  1
  P  P0  1  0.25000000  0.63657100  0.32352100  1
  P  P1  1  0.75000000  0.36342900  0.67647900  1
  P  P2  1  0.25000000  0.69299100  0.79873100  1
  P  P3  1  0.75000000  0.30700900  0.20126900  1
  I  I0  1  0.75000000  0.94790300  0.57042700  1
  I  I1  1  0.25000000  0.09560200  0.97600100  1
  I  I2  1  0.75000000  0.90439800  0.02399900  1
  I  I3  1  0.25000000  0.05209700  0.42957300  1
  O  O0  1  0.43502800  0.62324900  0.87525100  1
  O  O1  1  0.25000000  0.49398400  0.44160600  1
  O  O2  1  0.75000000  0.35085300  0.32476600  1
  O  O3  1  0.25000000  0.86760300  0.77008200  1
  O  O4  1  0.25000000  0.64914700  0.67523400  1
  O  O5  1  0.93612900  0.26670600  0.67434500  1
  O  O6  1  0.75000000  0.13239700  0.22991800  1
  O  O7  1  0.56497200  0.37675100  0.12474900  1
  O  O8  1  0.06497200  0.62324900  0.87525100  1
  O  O9  1  0.75000000  0.40825900  0.79882200  1
  O  O10  1  0.25000000  0.59174100  0.20117800  1
  O  O11  1  0.93502800  0.37675100  0.12474900  1
  O  O12  1  0.43612900  0.73329400  0.32565500  1
  O  O13  1  0.75000000  0.50601600  0.55839400  1
  O  O14  1  0.56387100  0.26670600  0.67434500  1
  O  O15  1  0.06387100  0.73329400  0.32565500  1
loop_
_geom_bond_atom_site_label_1
_geom_bond_atom_site_label_2
_geom_bond_distance
_geom_bond_site_symmetry_2
Ag0 O8 2.377324 1_555
Ag0 O9 2.394717 1_455
Ag0 O11 2.437878 1_456
Ag0 I1 2.746712 1_555
Ag1 O3 2.342390 1_555
Ag1 O14 2.446406 1_565
Ag1 I0 2.951450 1_555
Ag1 I2 2.987984 1_556
Ag1 I1 3.320497 1_565
Ag2 O12 2.450205 1_555
Ag2 O15 2.450205 1_655
Ag2 O2 2.460591 1_555
Ag2 O13 2.695300 1_555
Ag2 I2 3.448748 1_555
Ag3 O6 2.342390 1_455
Ag3 O15 2.446406 1_545
Ag3 I3 2.951450 1_555
Ag3 I1 2.987984 1_554
Ag3 I2 3.320497 1_445
Ag4 O7 2.377324 1_555
Ag4 O10 2.394717 1_555
Ag4 O0 2.437878 1_554
Ag4 I2 2.746712 1_555
Ag5 O6 2.342390 1_555
Ag5 O12 2.446406 1_545
Ag5 I3 2.951450 1_555
Ag5 I1 2.987984 1_554
Ag5 I2 3.320497 1_545
Ag6 O5 2.450205 1_455
Ag6 O14 2.450205 1_555
Ag6 O4 2.460591 1_555
Ag6 O1 2.695300 1_555
Ag6 I1 3.448748 1_555
Ag7 O2 2.360550 1_455
Ag7 O5 2.430081 1_455
Ag7 O1 2.445425 1_555
Ag7 I3 2.846073 1_555
Ag8 O0 2.377324 1_555
Ag8 O9 2.394717 1_555
Ag8 O7 2.437878 1_556
Ag8 I1 2.746712 1_555
Ag9 O2 2.360550 1_555
Ag9 O14 2.430081 1_555
Ag9 O1 2.445425 1_555
Ag9 I3 2.846073 1_555
Ag10 O11 2.377324 1_555
Ag10 O10 2.394717 1_655
Ag10 O8 2.437878 1_654
Ag10 I2 2.746712 1_555
Ag11 O3 2.342390 1_655
Ag11 O5 2.446406 1_565
Ag11 I0 2.951450 1_555
Ag11 I2 2.987984 1_556
Ag11 I1 3.320497 1_665
Ag12 O7 2.419775 1_555
Ag12 O11 2.419775 1_455
Ag12 O10 2.527581 1_555
Ag12 I3 2.814654 1_555
Ag13 O4 2.360550 1_655
Ag13 O15 2.430081 1_655
Ag13 O13 2.445425 1_555
Ag13 I0 2.846073 1_555
Ag14 O0 2.419775 1_555
Ag14 O8 2.419775 1_655
Ag14 O9 2.527581 1_555
Ag14 I0 2.814654 1_555
Ag15 O4 2.360550 1_555
Ag15 O12 2.430081 1_555
Ag15 O13 2.445425 1_555
Ag15 I0 2.846073 1_555
O0 P2 1.567720 1_555
O1 P0 1.556348 1_555
O2 P3 1.575437 1_555
O3 P2 1.554457 1_555
O4 P2 1.575437 1_555
O5 P1 1.577766 1_555
O6 P3 1.554457 1_555
O7 P3 1.567720 1_555
O8 P2 1.567720 1_555
O9 P1 1.567789 1_555
O10 P0 1.567789 1_555
O11 P3 1.567720 1_555
O12 P0 1.577766 1_555
O13 P1 1.556348 1_555
O14 P1 1.577766 1_555
O15 P0 1.577766 1_555
