# generated using pymatgen
data_Zr3TlF15
_symmetry_space_group_name_H-M   'P 1'
_cell_length_a   8.11996600
_cell_length_b   8.12741066
_cell_length_c   16.26271933
_cell_angle_alpha   100.02274958
_cell_angle_beta   99.95406983
_cell_angle_gamma   99.91618497
_symmetry_Int_Tables_number   1
_chemical_formula_structural   Zr3TlF15
_chemical_formula_sum   'Zr12 Tl4 F60'
_cell_volume   1018.06572681
_cell_formula_units_Z   4
loop_
 _symmetry_equiv_pos_site_id
 _symmetry_equiv_pos_as_xyz
  1  'x, y, z'
loop_
 _atom_site_type_symbol
 _atom_site_label
 _atom_site_symmetry_multiplicity
 _atom_site_fract_x
 _atom_site_fract_y
 _atom_site_fract_z
 _atom_site_occupancy
  Zr  Zr0  1  0.24824800  0.67998300  0.90984700  1
  Zr  Zr1  1  0.17915200  0.75023500  0.66017600  1
  Zr  Zr2  1  0.32457000  0.17960300  0.87265300  1
  Zr  Zr3  1  0.25169700  0.67828800  0.41096400  1
  Zr  Zr4  1  0.17559700  0.75247800  0.16206500  1
  Zr  Zr5  1  0.32144200  0.17620400  0.37626800  1
  Zr  Zr6  1  0.25035700  0.25063000  0.12519900  1
  Zr  Zr7  1  0.67942800  0.82048200  0.62524800  1
  Zr  Zr8  1  0.82087300  0.24959500  0.83903900  1
  Zr  Zr9  1  0.74969600  0.32062300  0.58980500  1
  Zr  Zr10  1  0.67785800  0.81901500  0.12370300  1
  Zr  Zr11  1  0.82224100  0.25250700  0.34106000  1
  Tl  Tl0  1  0.24975300  0.25012200  0.62472600  1
  Tl  Tl1  1  0.74748400  0.74799800  0.87473000  1
  Tl  Tl2  1  0.75238400  0.75017600  0.37620600  1
  Tl  Tl3  1  0.74996900  0.32203700  0.08824900  1
  F  F0  1  0.02666800  0.79011700  0.89450700  1
  F  F1  1  0.03339400  0.47044600  0.87233700  1
  F  F2  1  0.05468800  0.15819500  0.84240900  1
  F  F3  1  0.03102200  0.78918600  0.39216900  1
  F  F4  1  0.17074200  0.65857100  0.77481000  1
  F  F5  1  0.25032700  0.96682100  0.76604300  1
  F  F6  1  0.03689000  0.46756100  0.37806200  1
  F  F7  1  0.22144000  0.21693200  0.99612200  1
  F  F8  1  0.21227900  0.97207200  0.60513000  1
  F  F9  1  0.32293900  0.95134100  0.92107700  1
  F  F10  1  0.15650200  0.67288200  0.52542400  1
  F  F11  1  0.05256300  0.15761700  0.33525700  1
  F  F12  1  0.33719800  0.44788200  0.91487600  1
  F  F13  1  0.17663200  0.65234200  0.27469500  1
  F  F14  1  0.28517400  0.29070600  0.76402200  1
  F  F15  1  0.28894200  0.52855300  0.64336800  1
  F  F16  1  0.24994300  0.96317800  0.26913700  1
  F  F17  1  0.21113600  0.21470100  0.48537700  1
  F  F18  1  0.22221900  0.98957400  0.11211100  1
  F  F19  1  0.32973200  0.94933700  0.42380800  1
  F  F20  1  0.15979400  0.68318900  0.02822400  1
  F  F21  1  0.46814800  0.71113500  0.85416300  1
  F  F22  1  0.44989100  0.82907200  0.67162300  1
  F  F23  1  0.34549000  0.44486100  0.40771800  1
  F  F24  1  0.28026800  0.27627600  0.25532000  1
  F  F25  1  0.27821300  0.50962100  0.14075500  1
  F  F26  1  0.46556000  0.74502500  0.51669100  1
  F  F27  1  0.52950800  0.24988000  0.97488000  1
  F  F28  1  0.47390300  0.71489900  0.35611500  1
  F  F29  1  0.55010900  0.16966200  0.82180000  1
  F  F30  1  0.44361900  0.81614200  0.17053900  1
  F  F31  1  0.52808700  0.28808800  0.64478700  1
  F  F32  1  0.46405100  0.75247200  0.01431000  1
  F  F33  1  0.53367200  0.24905000  0.48325100  1
  F  F34  1  0.70807200  0.46981600  0.85589100  1
  F  F35  1  0.71215700  0.71048000  0.73566200  1
  F  F36  1  0.65665300  0.55024400  0.58578000  1
  F  F37  1  0.54842600  0.17455700  0.32811700  1
  F  F38  1  0.50603800  0.27531300  0.14455900  1
  F  F39  1  0.86284200  0.32736600  0.97082300  1
  F  F40  1  0.67030700  0.05000800  0.57842800  1
  F  F41  1  0.78103700  0.02552300  0.89312100  1
  F  F42  1  0.79049100  0.78886400  0.51508500  1
  F  F43  1  0.75672000  0.03322500  0.73261000  1
  F  F44  1  0.71082400  0.47321900  0.35949000  1
  F  F45  1  0.71995600  0.71604800  0.23708200  1
  F  F46  1  0.82864600  0.34388800  0.72419200  1
  F  F47  1  0.63576700  0.55509800  0.08674700  1
  F  F48  1  0.94990200  0.84271600  0.66425000  1
  F  F49  1  0.84453300  0.32775200  0.47574600  1
  F  F50  1  0.66900900  0.04043600  0.07712100  1
  F  F51  1  0.78736200  0.02850200  0.39381100  1
  F  F52  1  0.79036700  0.78002600  0.01373100  1
  F  F53  1  0.96615600  0.53368100  0.62484800  1
  F  F54  1  0.74418600  0.03393400  0.23345300  1
  F  F55  1  0.83056900  0.34470000  0.23045300  1
  F  F56  1  0.97139600  0.21020100  0.60632200  1
  F  F57  1  0.95241400  0.85627200  0.16361000  1
  F  F58  1  0.97043800  0.54912800  0.12578300  1
  F  F59  1  0.99424200  0.21164000  0.11243000  1
loop_
_geom_bond_atom_site_label_1
_geom_bond_atom_site_label_2
_geom_bond_distance
_geom_bond_site_symmetry_2
F0 Zr0 2.139597 1_555
F0 Tl1 2.191367 1_455
F1 Zr0 2.136155 1_555
F1 Zr8 2.182837 1_455
F2 Zr2 2.130921 1_555
F2 Zr8 2.150193 1_455
F3 Zr3 2.139951 1_555
F3 Tl2 2.192759 1_455
F4 Zr1 2.131916 1_555
F4 Zr0 2.144883 1_555
F5 Zr2 2.143834 1_565
F5 Zr1 2.155811 1_555
F6 Zr3 2.142744 1_555
F6 Zr11 2.162629 1_455
F7 Zr6 2.035653 1_556
F7 Zr2 2.298240 1_555
F8 Zr1 2.145324 1_555
F8 Tl0 2.186306 1_565
F9 Zr2 2.136751 1_565
F9 Zr0 2.150806 1_555
F10 Zr1 2.138395 1_555
F10 Zr3 2.139757 1_555
F11 Zr5 2.140634 1_555
F11 Zr11 2.152623 1_455
F12 Zr0 2.142272 1_555
F12 Zr2 2.147960 1_555
F13 Zr4 2.129165 1_555
F13 Zr3 2.157126 1_555
F14 Zr2 2.120868 1_555
F14 Tl0 2.192085 1_555
F15 Zr1 2.140472 1_555
F15 Tl0 2.189482 1_555
F16 Zr4 2.138127 1_555
F16 Zr5 2.150395 1_565
F17 Zr5 2.121648 1_555
F17 Tl0 2.193853 1_555
F18 Zr6 2.063539 1_565
F18 Zr4 2.217319 1_555
F19 Zr5 2.126726 1_565
F19 Zr3 2.147402 1_555
F20 Zr4 2.126772 1_555
F20 Zr0 2.165571 1_554
F21 Zr0 2.134381 1_555
F21 Tl1 2.194345 1_555
F22 Zr7 2.135414 1_555
F22 Zr1 2.147087 1_555
F23 Zr5 2.120669 1_555
F23 Zr3 2.158401 1_555
F24 Zr6 2.057123 1_555
F24 Zr5 2.250621 1_555
F25 Zr6 2.043712 1_555
F25 Zr4 2.266813 1_555
F26 Zr3 2.141241 1_555
F26 Zr7 2.169113 1_555
F27 Zr2 2.060335 1_555
F27 Tl3 2.251387 1_556
F28 Zr3 2.145598 1_555
F28 Tl2 2.188815 1_555
F29 Zr8 2.136829 1_555
F29 Zr2 2.143757 1_555
F30 Zr4 2.122918 1_555
F30 Zr10 2.165664 1_555
F31 Zr9 2.140598 1_555
F31 Tl0 2.186183 1_555
F32 Zr0 2.137914 1_554
F32 Zr10 2.178402 1_555
F33 Zr5 2.144952 1_555
F33 Zr9 2.159843 1_555
F34 Zr8 2.144342 1_555
F34 Tl1 2.187177 1_555
F35 Zr7 2.137722 1_555
F35 Tl1 2.189920 1_555
F36 Zr9 2.137498 1_555
F36 Zr7 2.144398 1_555
F37 Zr5 2.124667 1_555
F37 Zr11 2.166954 1_555
F38 Zr6 2.014507 1_555
F38 Tl3 2.322734 1_555
F39 Zr8 2.076200 1_555
F39 Tl3 2.260294 1_556
F40 Zr7 2.141881 1_545
F40 Zr9 2.148476 1_555
F41 Zr8 2.155847 1_555
F41 Tl1 2.185541 1_545
F42 Zr7 2.137080 1_555
F42 Tl2 2.184801 1_555
F43 Zr7 2.151420 1_545
F43 Zr8 2.161684 1_555
F44 Zr11 2.142811 1_555
F44 Tl2 2.179036 1_555
F45 Zr10 2.152831 1_555
F45 Tl2 2.194487 1_555
F46 Zr9 2.133815 1_555
F46 Zr8 2.145227 1_555
F47 Zr10 2.075249 1_555
F47 Tl3 2.249818 1_555
F48 Zr1 2.131133 1_655
F48 Zr7 2.144820 1_555
F49 Zr9 2.133759 1_555
F49 Zr11 2.136115 1_555
F50 Zr10 2.077925 1_545
F50 Tl3 2.235958 1_555
F51 Zr11 2.140263 1_555
F51 Tl2 2.191980 1_545
F52 Zr10 2.144959 1_555
F52 Tl1 2.188803 1_554
F53 Zr9 2.162068 1_555
F53 Zr1 2.162201 1_655
F54 Zr11 2.183242 1_555
F54 Zr10 2.187524 1_545
F55 Zr11 2.072517 1_555
F55 Tl3 2.257751 1_555
F56 Zr9 2.142763 1_555
F56 Tl0 2.187082 1_655
F57 Zr4 2.128697 1_655
F57 Zr10 2.163778 1_555
F58 Zr4 2.056031 1_655
F58 Tl3 2.252992 1_555
F59 Zr6 2.017247 1_655
F59 Tl3 2.315170 1_555
