# generated using pymatgen
data_K3Bi2(AsO4)3
_symmetry_space_group_name_H-M   'P 1'
_cell_length_a   9.99835894
_cell_length_b   9.99835894
_cell_length_c   7.17743707
_cell_angle_alpha   72.68308221
_cell_angle_beta   72.68308221
_cell_angle_gamma   89.28425876
_symmetry_Int_Tables_number   1
_chemical_formula_structural   K3Bi2(AsO4)3
_chemical_formula_sum   'K6 Bi4 As6 O24'
_cell_volume   651.65320147
_cell_formula_units_Z   2
loop_
 _symmetry_equiv_pos_site_id
 _symmetry_equiv_pos_as_xyz
  1  'x, y, z'
loop_
 _atom_site_type_symbol
 _atom_site_label
 _atom_site_symmetry_multiplicity
 _atom_site_fract_x
 _atom_site_fract_y
 _atom_site_fract_z
 _atom_site_occupancy
  K  K0  1  0.98614500  0.01385500  0.25000000  1
  K  K1  1  0.27588200  0.72411800  0.75000000  1
  K  K2  1  0.72411800  0.27588200  0.25000000  1
  K  K3  1  0.50000000  0.50000000  0.00000000  1
  K  K4  1  0.01385500  0.98614500  0.75000000  1
  K  K5  1  0.50000000  0.50000000  0.50000000  1
  Bi  Bi0  1  0.61597300  0.91207400  0.16567100  1
  Bi  Bi1  1  0.91207400  0.61597300  0.66567100  1
  Bi  Bi2  1  0.08792600  0.38402700  0.33432900  1
  Bi  Bi3  1  0.38402700  0.08792600  0.83432900  1
  As  As0  1  0.86134600  0.64979700  0.13926000  1
  As  As1  1  0.13865400  0.35020300  0.86074000  1
  As  As2  1  0.24619600  0.75380400  0.25000000  1
  As  As3  1  0.35020300  0.13865400  0.36074000  1
  As  As4  1  0.64979700  0.86134600  0.63926000  1
  As  As5  1  0.75380400  0.24619600  0.75000000  1
  O  O0  1  0.42463100  0.29054700  0.36052500  1
  O  O1  1  0.54822900  0.91634500  0.84428100  1
  O  O2  1  0.45177100  0.08365500  0.15571900  1
  O  O3  1  0.39228400  0.75764700  0.32741000  1
  O  O4  1  0.57536900  0.70945300  0.63947500  1
  O  O5  1  0.91634500  0.54822900  0.34428100  1
  O  O6  1  0.66303500  0.99186600  0.40901100  1
  O  O7  1  0.99186600  0.66303500  0.90901100  1
  O  O8  1  0.76492800  0.10128100  0.95198800  1
  O  O9  1  0.15696800  0.18388800  0.83754500  1
  O  O10  1  0.24235300  0.60771600  0.17259000  1
  O  O11  1  0.10128100  0.76492800  0.45198800  1
  O  O12  1  0.84303200  0.81611200  0.16245500  1
  O  O13  1  0.81611200  0.84303200  0.66245500  1
  O  O14  1  0.29054700  0.42463100  0.86052500  1
  O  O15  1  0.00813400  0.33696500  0.09098900  1
  O  O16  1  0.33696500  0.00813400  0.59098900  1
  O  O17  1  0.08365500  0.45177100  0.65571900  1
  O  O18  1  0.75764700  0.39228400  0.82741000  1
  O  O19  1  0.89871900  0.23507200  0.54801200  1
  O  O20  1  0.23507200  0.89871900  0.04801200  1
  O  O21  1  0.60771600  0.24235300  0.67259000  1
  O  O22  1  0.18388800  0.15696800  0.33754500  1
  O  O23  1  0.70945300  0.57536900  0.13947500  1
loop_
_geom_bond_atom_site_label_1
_geom_bond_atom_site_label_2
_geom_bond_distance
_geom_bond_site_symmetry_2
K0 O22 2.774296 1_655
K0 O12 2.774296 1_545
K0 O11 2.897470 1_645
K0 O20 2.897470 1_645
K0 O9 2.938965 1_654
K0 O13 2.938965 1_545
K0 O15 3.075857 1_655
K0 O6 3.075857 1_545
K1 O7 2.727346 1_455
K1 O16 2.727346 1_565
K1 O10 2.823050 1_556
K1 O3 2.823050 1_555
K1 O4 2.874243 1_555
K1 O14 2.874243 1_555
K1 O20 3.078109 1_556
K1 O11 3.078109 1_555
K2 O6 2.727346 1_545
K2 O15 2.727346 1_655
K2 O18 2.823050 1_554
K2 O21 2.823050 1_555
K2 O0 2.874243 1_555
K2 O23 2.874243 1_555
K2 O19 3.078109 1_555
K2 O8 3.078109 1_554
K3 O0 2.702215 1_555
K3 O4 2.702215 1_554
K3 O14 2.773477 1_554
K3 O23 2.773477 1_555
K3 O18 2.855806 1_554
K3 O10 2.855806 1_555
K4 O9 2.774296 1_565
K4 O13 2.774296 1_455
K4 O19 2.897470 1_465
K4 O8 2.897470 1_465
K4 O22 2.938965 1_565
K4 O12 2.938965 1_456
K4 O7 3.075857 1_455
K4 O16 3.075857 1_565
K5 O23 2.702215 1_555
K5 O14 2.702215 1_555
K5 O0 2.773477 1_555
K5 O4 2.773477 1_555
K5 O3 2.855806 1_555
K5 O21 2.855806 1_555
Bi0 O8 2.265476 1_564
Bi0 O6 2.288333 1_555
Bi0 O2 2.360081 1_565
Bi0 O12 2.450012 1_555
Bi0 O3 2.491436 1_555
Bi0 O1 2.579243 1_554
Bi1 O11 2.265476 1_655
Bi1 O7 2.288333 1_555
Bi1 O17 2.360081 1_655
Bi1 O13 2.450012 1_555
Bi1 O18 2.491436 1_555
Bi1 O5 2.579243 1_555
Bi2 O19 2.265476 1_455
Bi2 O15 2.288333 1_555
Bi2 O5 2.360081 1_455
Bi2 O22 2.450012 1_555
Bi2 O10 2.491436 1_555
Bi2 O17 2.579243 1_555
Bi3 O20 2.265476 1_546
Bi3 O16 2.288333 1_555
Bi3 O1 2.360081 1_545
Bi3 O9 2.450012 1_555
Bi3 O21 2.491436 1_555
Bi3 O2 2.579243 1_556
As0 O23 1.698917 1_555
As0 O12 1.722050 1_555
As0 O7 1.744082 1_554
As0 O5 1.754197 1_555
As1 O14 1.698917 1_555
As1 O9 1.722050 1_555
As1 O15 1.744082 1_556
As1 O17 1.754197 1_555
As2 O3 1.714898 1_555
As2 O10 1.714898 1_555
As2 O20 1.747849 1_555
As2 O11 1.747849 1_555
As3 O0 1.698917 1_555
As3 O22 1.722050 1_555
As3 O16 1.744082 1_555
As3 O2 1.754197 1_555
As4 O4 1.698917 1_555
As4 O13 1.722050 1_555
As4 O6 1.744082 1_555
As4 O1 1.754197 1_555
As5 O18 1.714898 1_555
As5 O21 1.714898 1_555
As5 O19 1.747849 1_555
As5 O8 1.747849 1_555
