# generated using pymatgen
data_Ni3Mo3C
_symmetry_space_group_name_H-M   'P 1'
_cell_length_a   7.82597360
_cell_length_b   7.82597360
_cell_length_c   7.82597360
_cell_angle_alpha   60.00000000
_cell_angle_beta   60.00000000
_cell_angle_gamma   60.00000000
_symmetry_Int_Tables_number   1
_chemical_formula_structural   Ni3Mo3C
_chemical_formula_sum   'Ni12 Mo12 C4'
_cell_volume   338.92229401
_cell_formula_units_Z   4
loop_
 _symmetry_equiv_pos_site_id
 _symmetry_equiv_pos_as_xyz
  1  'x, y, z'
loop_
 _atom_site_type_symbol
 _atom_site_label
 _atom_site_symmetry_multiplicity
 _atom_site_fract_x
 _atom_site_fract_y
 _atom_site_fract_z
 _atom_site_occupancy
  Ni  Ni0  1  0.91670700  0.24988000  0.91670700  1
  Ni  Ni1  1  0.12500000  0.62500000  0.12500000  1
  Ni  Ni2  1  0.33329300  0.33329300  0.00012000  1
  Ni  Ni3  1  0.33329300  0.00012000  0.33329300  1
  Ni  Ni4  1  0.62500000  0.12500000  0.12500000  1
  Ni  Ni5  1  0.91670700  0.91670700  0.24988000  1
  Ni  Ni6  1  0.33329300  0.33329300  0.33329300  1
  Ni  Ni7  1  0.91670700  0.91670700  0.91670700  1
  Ni  Ni8  1  0.12500000  0.12500000  0.12500000  1
  Ni  Ni9  1  0.00012000  0.33329300  0.33329300  1
  Ni  Ni10  1  0.24988000  0.91670700  0.91670700  1
  Ni  Ni11  1  0.12500000  0.12500000  0.62500000  1
  Mo  Mo0  1  0.54704700  0.95295300  0.54704700  1
  Mo  Mo1  1  0.95295300  0.95295300  0.54704700  1
  Mo  Mo2  1  0.29704700  0.70295300  0.29704700  1
  Mo  Mo3  1  0.54704700  0.95295300  0.95295300  1
  Mo  Mo4  1  0.70295300  0.29704700  0.70295300  1
  Mo  Mo5  1  0.70295300  0.70295300  0.29704700  1
  Mo  Mo6  1  0.95295300  0.54704700  0.54704700  1
  Mo  Mo7  1  0.29704700  0.29704700  0.70295300  1
  Mo  Mo8  1  0.54704700  0.54704700  0.95295300  1
  Mo  Mo9  1  0.95295300  0.54704700  0.95295300  1
  Mo  Mo10  1  0.70295300  0.29704700  0.29704700  1
  Mo  Mo11  1  0.29704700  0.70295300  0.70295300  1
  C  C0  1  0.62500000  0.12500000  0.62500000  1
  C  C1  1  0.62500000  0.62500000  0.12500000  1
  C  C2  1  0.12500000  0.62500000  0.62500000  1
  C  C3  1  0.62500000  0.62500000  0.62500000  1
loop_
_geom_bond_atom_site_label_1
_geom_bond_atom_site_label_2
_geom_bond_distance
_geom_bond_site_symmetry_2
Ni0 Ni8 2.395946 1_656
Ni0 Ni4 2.395952 1_556
Ni0 Ni11 2.395952 1_655
Ni0 Ni5 2.607403 1_546
Ni0 Ni7 2.607403 1_545
Ni0 Ni10 2.607403 1_645
Ni1 Ni6 2.395948 1_555
Ni1 Ni7 2.395948 1_454
Ni1 Ni2 2.395952 1_555
Ni1 Ni9 2.395952 1_555
Ni1 Ni10 2.395952 1_554
Ni1 Ni5 2.395952 1_455
Ni2 Ni8 2.395946 1_555
Ni2 Ni4 2.395952 1_555
Ni2 Ni9 2.607403 1_555
Ni2 Ni6 2.607403 1_555
Ni2 Ni3 2.607403 1_555
Ni3 Ni8 2.395946 1_555
Ni3 Ni4 2.395952 1_555
Ni3 Ni9 2.607403 1_555
Ni3 Ni6 2.607403 1_555
Ni4 Ni6 2.395948 1_555
Ni4 Ni7 2.395948 1_544
Ni4 Ni5 2.395952 1_545
Ni5 Ni8 2.395946 1_665
Ni5 Ni7 2.607403 1_554
Ni6 Ni9 2.607403 1_555
Ni8 Ni9 2.395946 1_555
Ni10 Ni8 2.395946 1_566
Ni10 Ni11 2.395952 1_565
Ni10 Ni5 2.607403 1_456
Ni10 Ni7 2.607403 1_455
Ni11 Ni6 2.395948 1_555
Ni11 Ni7 2.395948 1_445
Ni11 Ni3 2.395952 1_555
Ni11 Ni9 2.395952 1_555
Mo0 Ni5 2.639943 1_555
Mo0 Ni10 2.639943 1_555
Mo0 Ni6 2.701179 1_565
Mo0 Ni3 2.701183 1_565
Mo0 Ni11 2.730136 1_565
Mo0 Ni4 2.730136 1_565
Mo1 Ni5 2.639939 1_555
Mo1 Ni7 2.639946 1_555
Mo1 Ni3 2.701176 1_665
Mo1 Ni9 2.701176 1_665
Mo1 Ni8 2.730136 1_665
Mo1 Ni11 2.730136 1_665
Mo2 Ni3 2.639939 1_565
Mo2 Ni6 2.639946 1_555
Mo2 Ni5 2.701176 1_455
Mo2 Ni10 2.701176 1_554
Mo2 Ni8 2.730136 1_565
Mo2 Ni1 2.730136 1_555
Mo3 Ni10 2.639939 1_555
Mo3 Ni7 2.639946 1_555
Mo3 Ni3 2.701176 1_566
Mo3 Ni2 2.701176 1_566
Mo3 Ni4 2.730136 1_566
Mo3 Ni8 2.730136 1_566
Mo4 Ni9 2.639943 1_655
Mo4 Ni2 2.639943 1_556
Mo4 Ni7 2.701179 1_545
Mo4 Ni0 2.701183 1_555
Mo4 Ni4 2.730136 1_556
Mo4 Ni11 2.730136 1_655
Mo5 Ni3 2.639943 1_565
Mo5 Ni9 2.639943 1_655
Mo5 Ni7 2.701179 1_554
Mo5 Ni5 2.701183 1_555
Mo5 Ni4 2.730136 1_565
Mo5 Ni1 2.730136 1_655
Mo6 Ni5 2.639943 1_555
Mo6 Ni0 2.639943 1_555
Mo6 Ni6 2.701179 1_655
Mo6 Ni9 2.701183 1_655
Mo6 Ni11 2.730136 1_655
Mo6 Ni1 2.730136 1_655
Mo7 Ni2 2.639939 1_556
Mo7 Ni6 2.639946 1_555
Mo7 Ni10 2.701176 1_545
Mo7 Ni0 2.701176 1_455
Mo7 Ni8 2.730136 1_556
Mo7 Ni11 2.730136 1_555
Mo8 Ni10 2.639943 1_555
Mo8 Ni0 2.639943 1_555
Mo8 Ni6 2.701179 1_556
Mo8 Ni2 2.701183 1_556
Mo8 Ni1 2.730136 1_556
Mo8 Ni4 2.730136 1_556
Mo9 Ni0 2.639939 1_555
Mo9 Ni7 2.639946 1_555
Mo9 Ni2 2.701176 1_656
Mo9 Ni9 2.701176 1_656
Mo9 Ni8 2.730136 1_656
Mo9 Ni1 2.730136 1_656
Mo10 Ni9 2.639939 1_655
Mo10 Ni6 2.639946 1_555
Mo10 Ni5 2.701176 1_545
Mo10 Ni0 2.701176 1_554
Mo10 Ni4 2.730136 1_555
Mo10 Ni8 2.730136 1_655
Mo11 Ni3 2.639943 1_565
Mo11 Ni2 2.639943 1_556
Mo11 Ni7 2.701179 1_455
Mo11 Ni10 2.701183 1_555
Mo11 Ni1 2.730136 1_556
Mo11 Ni11 2.730136 1_565
C0 Mo7 2.138272 1_555
C0 Mo10 2.138272 1_555
C0 Mo1 2.138272 1_545
C0 Mo0 2.138272 1_545
C0 Mo3 2.138272 1_545
C0 Mo4 2.138272 1_555
C1 Mo2 2.138272 1_555
C1 Mo10 2.138272 1_555
C1 Mo8 2.138272 1_554
C1 Mo9 2.138272 1_554
C1 Mo3 2.138272 1_554
C1 Mo5 2.138272 1_555
C2 Mo7 2.138272 1_555
C2 Mo9 2.138272 1_455
C2 Mo1 2.138272 1_455
C2 Mo6 2.138272 1_455
C2 Mo2 2.138272 1_555
C2 Mo11 2.138272 1_555
C3 Mo11 2.138272 1_555
C3 Mo4 2.138272 1_555
C3 Mo5 2.138272 1_555
C3 Mo0 2.138272 1_555
C3 Mo6 2.138272 1_555
C3 Mo8 2.138272 1_555
