# generated using pymatgen
data_BiXeF9
_symmetry_space_group_name_H-M   'P 1'
_cell_length_a   5.71565212
_cell_length_b   7.70241033
_cell_length_c   8.51291988
_cell_angle_alpha   101.08475138
_cell_angle_beta   109.39957275
_cell_angle_gamma   86.65942860
_symmetry_Int_Tables_number   1
_chemical_formula_structural   BiXeF9
_chemical_formula_sum   'Bi2 Xe2 F18'
_cell_volume   346.89628233
_cell_formula_units_Z   2
loop_
 _symmetry_equiv_pos_site_id
 _symmetry_equiv_pos_as_xyz
  1  'x, y, z'
loop_
 _atom_site_type_symbol
 _atom_site_label
 _atom_site_symmetry_multiplicity
 _atom_site_fract_x
 _atom_site_fract_y
 _atom_site_fract_z
 _atom_site_occupancy
  Bi  Bi0  1  0.78660602  0.65566454  0.74657414  1
  Bi  Bi1  1  0.21339398  0.34433546  0.25342586  1
  Xe  Xe0  1  0.70426844  0.83233002  0.21848253  1
  Xe  Xe1  1  0.29573156  0.16766998  0.78151747  1
  F  F0  1  0.12067752  0.54426403  0.82948046  1
  F  F1  1  0.37043053  0.87297942  0.05588736  1
  F  F2  1  0.44383705  0.12001614  0.60145626  1
  F  F3  1  0.26731425  0.44919290  0.49673860  1
  F  F4  1  0.86558238  0.78020301  0.01314163  1
  F  F5  1  0.97136926  0.20041026  0.60629630  1
  F  F6  1  0.46393995  0.78591047  0.71208008  1
  F  F7  1  0.94657144  0.87730420  0.73846665  1
  F  F8  1  0.53606005  0.21408953  0.28791992  1
  F  F9  1  0.55616295  0.87998386  0.39854374  1
  F  F10  1  0.35587034  0.54005811  0.18696883  1
  F  F11  1  0.73268575  0.55080710  0.50326140  1
  F  F12  1  0.13441762  0.21979699  0.98685837  1
  F  F13  1  0.87932248  0.45573597  0.17051954  1
  F  F14  1  0.02863074  0.79958974  0.39370370  1
  F  F15  1  0.05342856  0.12269580  0.26153335  1
  F  F16  1  0.64412966  0.45994189  0.81303117  1
  F  F17  1  0.62956947  0.12702058  0.94411264  1
loop_
_geom_bond_atom_site_label_1
_geom_bond_atom_site_label_2
_geom_bond_distance
_geom_bond_site_symmetry_2
Bi0 F11 1.999815 1_555
Bi0 F7 2.006053 1_555
Bi0 F0 2.006738 1_655
Bi0 F6 2.007933 1_555
Bi0 F16 2.008225 1_555
Bi0 F4 2.192362 1_556
Bi1 F3 1.999815 1_555
Bi1 F15 2.006053 1_555
Bi1 F13 2.006738 1_455
Bi1 F8 2.007933 1_555
Bi1 F10 2.008225 1_555
Bi1 F12 2.192362 1_554
F1 Xe0 1.999320 1_555
F2 Xe1 1.952020 1_555
F4 Xe0 2.196511 1_555
F5 Xe1 1.994683 1_655
F9 Xe0 1.952020 1_555
F12 Xe1 2.196511 1_555
F14 Xe0 1.994683 1_455
F17 Xe1 1.999320 1_555
