# generated using pymatgen
data_La3(SiNi)4
_symmetry_space_group_name_H-M   'P 1'
_cell_length_a   12.15529075
_cell_length_b   12.15529075
_cell_length_c   12.15529075
_cell_angle_alpha   160.49063017
_cell_angle_beta   160.23561020
_cell_angle_gamma   27.91072706
_symmetry_Int_Tables_number   1
_chemical_formula_structural   La3(SiNi)4
_chemical_formula_sum   'La3 Si4 Ni4'
_cell_volume   202.72640295
_cell_formula_units_Z   1
loop_
 _symmetry_equiv_pos_site_id
 _symmetry_equiv_pos_as_xyz
  1  'x, y, z'
loop_
 _atom_site_type_symbol
 _atom_site_label
 _atom_site_symmetry_multiplicity
 _atom_site_fract_x
 _atom_site_fract_y
 _atom_site_fract_z
 _atom_site_occupancy
  La  La0  1  0.85001000  0.35001000  0.50000000  1
  La  La1  1  0.00000000  0.00000000  0.00000000  1
  La  La2  1  0.14999000  0.64999000  0.50000000  1
  Si  Si0  1  0.70089100  0.20089100  0.50000000  1
  Si  Si1  1  0.44823900  0.44823900  0.00000000  1
  Si  Si2  1  0.55176100  0.55176100  0.00000000  1
  Si  Si3  1  0.29910900  0.79910900  0.50000000  1
  Ni  Ni0  1  0.24850200  0.24850200  0.00000000  1
  Ni  Ni1  1  0.75149800  0.75149800  0.00000000  1
  Ni  Ni2  1  0.59957900  0.09957900  0.50000000  1
  Ni  Ni3  1  0.40042100  0.90042100  0.50000000  1
loop_
_geom_bond_atom_site_label_1
_geom_bond_atom_site_label_2
_geom_bond_distance
_geom_bond_site_symmetry_2
La0 Ni1 3.105369 1_556
La0 Ni1 3.105369 1_545
La0 Si1 3.118144 1_555
La0 Si1 3.118144 1_656
La0 Ni3 3.163526 1_656
La0 Ni3 3.163526 1_544
La0 Ni3 3.163526 1_645
La0 Ni3 3.163526 1_555
La0 Si3 3.167891 1_656
La0 Si3 3.167891 1_645
La0 Si3 3.167891 1_544
La0 Si3 3.167891 1_555
La0 Ni0 3.176064 1_656
La0 Ni0 3.176064 1_555
La1 Ni2 3.141889 1_555
La1 Ni2 3.141889 1_454
La1 Ni3 3.141889 1_444
La1 Ni3 3.141889 1_545
La1 Si1 3.175638 1_455
La1 Si1 3.175638 1_444
La1 Si1 3.175638 1_556
La1 Si2 3.175638 1_556
La1 Si1 3.175638 1_545
La1 Si2 3.175638 1_455
La1 Si2 3.175638 1_545
La1 Si2 3.175638 1_444
La2 Ni0 3.105369 1_566
La2 Ni0 3.105369 1_555
La2 Si2 3.118144 1_556
La2 Si2 3.118144 1_455
La2 Ni2 3.163526 1_555
La2 Ni2 3.163526 1_566
La2 Ni2 3.163526 1_465
La2 Ni2 3.163526 1_454
La2 Si0 3.167891 1_555
La2 Si0 3.167891 1_566
La2 Si0 3.167891 1_454
La2 Si0 3.167891 1_465
La2 Ni1 3.176064 1_556
La2 Ni1 3.176064 1_455
Si1 Si2 2.442397 1_555
Ni0 Si0 2.369325 1_555
Ni0 Si0 2.369325 1_454
Ni0 Si3 2.380545 1_555
Ni0 Si3 2.380545 1_544
Ni1 Si3 2.369325 1_554
Ni1 Si3 2.369325 1_655
Ni1 Si0 2.380545 1_554
Ni1 Si0 2.380545 1_565
Ni2 Si2 2.348232 1_556
Ni2 Si2 2.348232 1_545
Ni2 Si0 2.390257 1_555
Ni3 Si1 2.348232 1_555
Ni3 Si1 2.348232 1_566
Ni3 Si3 2.390257 1_555
