# generated using pymatgen
data_Nd3Se4
_symmetry_space_group_name_H-M   'P 1'
_cell_length_a   7.74183774
_cell_length_b   7.74183764
_cell_length_c   7.74183813
_cell_angle_alpha   109.47121923
_cell_angle_beta   109.47121892
_cell_angle_gamma   109.47122257
_symmetry_Int_Tables_number   1
_chemical_formula_structural   Nd3Se4
_chemical_formula_sum   'Nd6 Se8'
_cell_volume   357.19907510
_cell_formula_units_Z   2
loop_
 _symmetry_equiv_pos_site_id
 _symmetry_equiv_pos_as_xyz
  1  'x, y, z'
loop_
 _atom_site_type_symbol
 _atom_site_label
 _atom_site_symmetry_multiplicity
 _atom_site_fract_x
 _atom_site_fract_y
 _atom_site_fract_z
 _atom_site_occupancy
  Nd  Nd0  1  0.12500000  0.75000000  0.87500000  1
  Nd  Nd1  1  0.62500000  0.37500000  0.25000000  1
  Nd  Nd2  1  0.37500000  0.25000000  0.62500000  1
  Nd  Nd3  1  0.75000000  0.87500000  0.12500000  1
  Nd  Nd4  1  0.25000000  0.62500000  0.37500000  1
  Nd  Nd5  1  0.87500000  0.12500000  0.75000000  1
  Se  Se0  1  0.64818043  0.64818043  0.64818043  1
  Se  Se1  1  -0.00000000  0.85181957  0.50000000  1
  Se  Se2  1  0.85181957  0.50000000  -0.00000000  1
  Se  Se3  1  -0.00000000  0.35181957  0.50000000  1
  Se  Se4  1  0.50000000  0.00000000  0.85181957  1
  Se  Se5  1  0.50000000  0.00000000  0.35181957  1
  Se  Se6  1  0.35181957  0.50000000  -0.00000000  1
  Se  Se7  1  0.14818043  0.14818043  0.14818043  1
loop_
_geom_bond_atom_site_label_1
_geom_bond_atom_site_label_2
_geom_bond_distance
_geom_bond_site_symmetry_2
Nd0 Se4 3.006594 1_565
Nd0 Se2 3.006594 1_456
Nd0 Se7 3.006594 1_566
Nd0 Se3 3.006594 1_555
Nd0 Se6 3.185529 1_556
Nd0 Se0 3.185530 1_455
Nd0 Se1 3.185530 1_555
Nd0 Se5 3.185530 1_566
Nd1 Se6 3.006594 1_555
Nd1 Se3 3.006594 1_655
Nd1 Se4 3.006594 1_554
Nd1 Se0 3.006594 1_555
Nd1 Se5 3.185529 1_555
Nd1 Se1 3.185529 1_655
Nd1 Se7 3.185529 1_555
Nd1 Se2 3.185529 1_555
Nd2 Se0 3.006594 1_555
Nd2 Se1 3.006594 1_545
Nd2 Se5 3.006594 1_555
Nd2 Se6 3.006594 1_556
Nd2 Se3 3.185530 1_555
Nd2 Se4 3.185530 1_555
Nd2 Se2 3.185530 1_556
Nd2 Se7 3.185530 1_555
Nd3 Se6 3.006594 1_555
Nd3 Se7 3.006594 1_665
Nd3 Se4 3.006594 1_564
Nd3 Se1 3.006594 1_655
Nd3 Se2 3.185529 1_555
Nd3 Se5 3.185530 1_565
Nd3 Se3 3.185530 1_665
Nd3 Se0 3.185530 1_554
Nd4 Se5 3.006594 1_565
Nd4 Se3 3.006594 1_555
Nd4 Se0 3.006594 1_555
Nd4 Se2 3.006594 1_455
Nd4 Se7 3.185529 1_555
Nd4 Se1 3.185529 1_555
Nd4 Se6 3.185530 1_555
Nd4 Se4 3.185530 1_565
Nd5 Se2 3.006594 1_556
Nd5 Se1 3.006594 1_645
Nd5 Se5 3.006594 1_555
Nd5 Se7 3.006594 1_656
Nd5 Se0 3.185529 1_545
Nd5 Se4 3.185529 1_555
Nd5 Se6 3.185529 1_656
Nd5 Se3 3.185529 1_655
