# generated using pymatgen
data_ZnS
_symmetry_space_group_name_H-M   'P 1'
_cell_length_a   3.83338320
_cell_length_b   3.83338320
_cell_length_c   38.92690800
_cell_angle_alpha   90.00000000
_cell_angle_beta   90.00000000
_cell_angle_gamma   119.99998615
_symmetry_Int_Tables_number   1
_chemical_formula_structural   ZnS
_chemical_formula_sum   'Zn12 S12'
_cell_volume   495.38753070
_cell_formula_units_Z   12
loop_
 _symmetry_equiv_pos_site_id
 _symmetry_equiv_pos_as_xyz
  1  'x, y, z'
loop_
 _atom_site_type_symbol
 _atom_site_label
 _atom_site_symmetry_multiplicity
 _atom_site_fract_x
 _atom_site_fract_y
 _atom_site_fract_z
 _atom_site_occupancy
  Zn  Zn0  1  0.00000000  0.00000000  0.82109200  1
  Zn  Zn1  1  0.33333300  0.66666700  0.65669100  1
  Zn  Zn2  1  0.33333300  0.66666700  0.25055000  1
  Zn  Zn3  1  0.00000000  0.00000000  0.33291800  1
  Zn  Zn4  1  0.00000000  0.00000000  0.57640600  1
  Zn  Zn5  1  0.00000000  0.00000000  0.16808200  1
  Zn  Zn6  1  0.66666700  0.33333300  0.41466300  1
  Zn  Zn7  1  0.66666700  0.33333300  0.08589900  1
  Zn  Zn8  1  0.66666700  0.33333300  0.73670300  1
  Zn  Zn9  1  0.33333300  0.66666700  0.86734000  1
  Zn  Zn10  1  0.33333300  0.66666700  0.49576800  1
  Zn  Zn11  1  0.33333300  0.66666700  0.00403600  1
  S  S0  1  0.00000000  0.00000000  0.22950100  1
  S  S1  1  0.66666700  0.33333300  0.47556300  1
  S  S2  1  0.33333300  0.66666700  0.71706900  1
  S  S3  1  0.00000000  0.00000000  0.63696600  1
  S  S4  1  0.00000000  0.00000000  0.98468800  1
  S  S5  1  0.66666700  0.33333300  0.14725900  1
  S  S6  1  0.33333300  0.66666700  0.31204600  1
  S  S7  1  0.33333300  0.66666700  0.92363600  1
  S  S8  1  0.33333300  0.66666700  0.06558400  1
  S  S9  1  0.00000000  0.00000000  0.39408800  1
  S  S10  1  0.33333300  0.66666700  0.55640200  1
  S  S11  1  0.66666700  0.33333300  0.79704800  1
loop_
_geom_bond_atom_site_label_1
_geom_bond_atom_site_label_2
_geom_bond_distance
_geom_bond_site_symmetry_2
S0 Zn2 2.360008 1_545
S0 Zn2 2.360011 1_445
S0 Zn2 2.360011 1_555
S0 Zn5 2.390852 1_555
S1 Zn10 2.348804 1_545
S1 Zn10 2.348804 1_655
S1 Zn10 2.348809 1_555
S1 Zn6 2.370649 1_555
S2 Zn8 2.341454 1_455
S2 Zn8 2.341454 1_565
S2 Zn8 2.341460 1_555
S2 Zn1 2.350329 1_555
S3 Zn1 2.342612 1_545
S3 Zn1 2.342616 1_445
S3 Zn1 2.342616 1_555
S3 Zn4 2.357414 1_555
S4 Zn11 2.337843 1_546
S4 Zn11 2.337847 1_446
S4 Zn11 2.337847 1_556
S5 Zn5 2.356968 1_655
S5 Zn5 2.356971 1_555
S5 Zn5 2.356971 1_665
S5 Zn7 2.388555 1_555
S6 Zn3 2.357624 1_565
S6 Zn3 2.357628 1_665
S6 Zn3 2.357628 1_555
S6 Zn2 2.393849 1_555
S7 Zn9 2.191429 1_555
S8 Zn7 2.350241 1_455
S8 Zn7 2.350241 1_565
S8 Zn7 2.350247 1_555
S8 Zn11 2.395873 1_555
S9 Zn6 2.353665 1_455
S9 Zn6 2.353669 1_555
S9 Zn6 2.353669 1_445
S9 Zn3 2.381159 1_555
S10 Zn4 2.346195 1_565
S10 Zn4 2.346198 1_555
S10 Zn4 2.346198 1_665
S10 Zn10 2.360294 1_555
S11 Zn8 2.349044 1_555
S11 Zn0 2.402974 1_655
S11 Zn0 2.402977 1_555
S11 Zn0 2.402977 1_665
