# generated using pymatgen
data_Ba2Mn(AsO4)2
_symmetry_space_group_name_H-M   'P 1'
_cell_length_a   9.34074100
_cell_length_b   5.60942300
_cell_length_c   17.77146551
_cell_angle_alpha   72.03574629
_cell_angle_beta   90.00000000
_cell_angle_gamma   90.00000000
_symmetry_Int_Tables_number   1
_chemical_formula_structural   Ba2Mn(AsO4)2
_chemical_formula_sum   'Ba8 Mn4 As8 O32'
_cell_volume   885.76197799
_cell_formula_units_Z   4
loop_
 _symmetry_equiv_pos_site_id
 _symmetry_equiv_pos_as_xyz
  1  'x, y, z'
loop_
 _atom_site_type_symbol
 _atom_site_label
 _atom_site_symmetry_multiplicity
 _atom_site_fract_x
 _atom_site_fract_y
 _atom_site_fract_z
 _atom_site_occupancy
  Ba  Ba0  1  0.33660500  0.52375300  0.73120600  1
  Ba  Ba1  1  0.69781300  0.68967500  0.52064800  1
  Ba  Ba2  1  0.16339500  0.52375300  0.23120600  1
  Ba  Ba3  1  0.83660500  0.47624700  0.76879400  1
  Ba  Ba4  1  0.66339500  0.47624700  0.26879400  1
  Ba  Ba5  1  0.19781300  0.31032500  0.97935200  1
  Ba  Ba6  1  0.30218700  0.31032500  0.47935200  1
  Ba  Ba7  1  0.80218700  0.68967500  0.02064800  1
  Mn  Mn0  1  0.97984700  0.09425800  0.63664500  1
  Mn  Mn1  1  0.02015300  0.90574200  0.36335500  1
  Mn  Mn2  1  0.47984700  0.90574200  0.86335500  1
  Mn  Mn3  1  0.52015300  0.09425800  0.13664500  1
  As  As0  1  0.39584400  0.91549700  0.33611000  1
  As  As1  1  0.89584400  0.08450300  0.16389000  1
  As  As2  1  0.09546900  0.67834800  0.57571600  1
  As  As3  1  0.40453100  0.67834800  0.07571600  1
  As  As4  1  0.59546900  0.32165200  0.92428400  1
  As  As5  1  0.90453100  0.32165200  0.42428400  1
  As  As6  1  0.60415600  0.08450300  0.66389000  1
  As  As7  1  0.10415600  0.91549700  0.83611000  1
  O  O0  1  0.71171900  0.11745400  0.90052600  1
  O  O1  1  0.96913000  0.26670600  0.07613200  1
  O  O2  1  0.46913000  0.73329400  0.42386800  1
  O  O3  1  0.49436500  0.87684400  0.25832300  1
  O  O4  1  0.60701100  0.29743500  0.02224900  1
  O  O5  1  0.07048800  0.25510800  0.39174300  1
  O  O6  1  0.10701100  0.70256500  0.47775100  1
  O  O7  1  0.92951200  0.74489200  0.60825700  1
  O  O8  1  0.89298900  0.29743500  0.52224900  1
  O  O9  1  0.27300200  0.79847000  0.82739100  1
  O  O10  1  0.64435000  0.62424900  0.86994400  1
  O  O11  1  0.10836600  0.22747600  0.83217900  1
  O  O12  1  0.60836600  0.77252400  0.66782100  1
  O  O13  1  0.21171900  0.88254600  0.59947400  1
  O  O14  1  0.00563500  0.87684400  0.75832300  1
  O  O15  1  0.14435000  0.37575100  0.63005600  1
  O  O16  1  0.03087000  0.73329400  0.92386800  1
  O  O17  1  0.89163400  0.77252400  0.16782100  1
  O  O18  1  0.77300200  0.20153000  0.67260900  1
  O  O19  1  0.72699800  0.20153000  0.17260900  1
  O  O20  1  0.78828100  0.11745400  0.40052600  1
  O  O21  1  0.50563500  0.12315600  0.74167700  1
  O  O22  1  0.39298900  0.70256500  0.97775100  1
  O  O23  1  0.85565000  0.62424900  0.36994400  1
  O  O24  1  0.22699800  0.79847000  0.32739100  1
  O  O25  1  0.99436500  0.12315600  0.24167700  1
  O  O26  1  0.53087000  0.26670600  0.57613200  1
  O  O27  1  0.57048800  0.74489200  0.10825700  1
  O  O28  1  0.39163400  0.22747600  0.33217900  1
  O  O29  1  0.28828100  0.88254600  0.09947400  1
  O  O30  1  0.42951200  0.25510800  0.89174300  1
  O  O31  1  0.35565000  0.37575100  0.13005600  1
loop_
_geom_bond_atom_site_label_1
_geom_bond_atom_site_label_2
_geom_bond_distance
_geom_bond_site_symmetry_2
Ba0 O9 2.697103 1_555
Ba0 O21 2.705373 1_555
Ba0 O13 2.825890 1_555
Ba0 O15 2.840074 1_555
Ba0 O30 2.917443 1_555
Ba0 O11 2.947466 1_555
Ba0 O12 2.947929 1_555
Ba1 O2 2.705772 1_555
Ba1 O7 2.738869 1_555
Ba1 O26 2.755012 1_555
Ba1 O20 2.805256 1_565
Ba1 O8 2.850772 1_555
Ba1 O12 2.916257 1_555
Ba1 O23 3.176086 1_555
Ba1 O18 3.274556 1_555
Ba2 O24 2.697103 1_555
Ba2 O25 2.705373 1_455
Ba2 O29 2.825890 1_555
Ba2 O31 2.840074 1_555
Ba2 O5 2.917443 1_555
Ba2 O28 2.947466 1_555
Ba2 O17 2.947929 1_455
Ba3 O18 2.697103 1_555
Ba3 O14 2.705373 1_655
Ba3 O0 2.825890 1_555
Ba3 O10 2.840074 1_555
Ba3 O7 2.917443 1_555
Ba3 O12 2.947466 1_555
Ba3 O11 2.947929 1_655
Ba4 O19 2.697103 1_555
Ba4 O3 2.705373 1_555
Ba4 O20 2.825890 1_555
Ba4 O23 2.840074 1_555
Ba4 O27 2.917443 1_555
Ba4 O17 2.947466 1_555
Ba4 O28 2.947929 1_555
Ba5 O1 2.705772 1_456
Ba5 O30 2.738869 1_555
Ba5 O16 2.755012 1_555
Ba5 O29 2.805256 1_546
Ba5 O22 2.850772 1_555
Ba5 O11 2.916257 1_555
Ba5 O31 3.176086 1_556
Ba5 O9 3.274556 1_555
Ba6 O26 2.705772 1_555
Ba6 O5 2.738869 1_555
Ba6 O2 2.755012 1_555
Ba6 O13 2.805256 1_545
Ba6 O6 2.850772 1_555
Ba6 O28 2.916257 1_555
Ba6 O15 3.176086 1_555
Ba6 O24 3.274556 1_555
Ba7 O16 2.705772 1_654
Ba7 O27 2.738869 1_555
Ba7 O1 2.755012 1_555
Ba7 O0 2.805256 1_564
Ba7 O4 2.850772 1_555
Ba7 O17 2.916257 1_555
Ba7 O10 3.176086 1_554
Ba7 O19 3.274556 1_555
Mn0 O14 2.143498 1_645
Mn0 O8 2.158925 1_555
Mn0 O18 2.177329 1_555
Mn0 O15 2.180371 1_655
Mn0 O7 2.219465 1_545
Mn0 O13 2.649824 1_645
Mn1 O25 2.143498 1_465
Mn1 O6 2.158925 1_555
Mn1 O24 2.177329 1_555
Mn1 O23 2.180371 1_455
Mn1 O5 2.219465 1_565
Mn1 O20 2.649824 1_465
Mn2 O21 2.143498 1_565
Mn2 O22 2.158925 1_555
Mn2 O9 2.177329 1_555
Mn2 O10 2.180371 1_555
Mn2 O30 2.219465 1_565
Mn2 O0 2.649824 1_565
Mn3 O3 2.143498 1_545
Mn3 O4 2.158925 1_555
Mn3 O19 2.177329 1_555
Mn3 O31 2.180371 1_555
Mn3 O27 2.219465 1_545
Mn3 O29 2.649824 1_545
As0 O2 1.721124 1_555
As0 O3 1.729097 1_555
As0 O28 1.730200 1_565
As0 O24 1.733516 1_555
As1 O1 1.721124 1_555
As1 O25 1.729097 1_555
As1 O17 1.730200 1_545
As1 O19 1.733516 1_555
As2 O6 1.707398 1_555
As2 O13 1.722700 1_555
As2 O7 1.734912 1_455
As2 O15 1.735245 1_555
As3 O22 1.707398 1_554
As3 O29 1.722700 1_555
As3 O27 1.734912 1_555
As3 O31 1.735245 1_555
As4 O4 1.707398 1_556
As4 O0 1.722700 1_555
As4 O30 1.734912 1_555
As4 O10 1.735245 1_555
As5 O8 1.707398 1_555
As5 O20 1.722700 1_555
As5 O5 1.734912 1_655
As5 O23 1.735245 1_555
As6 O26 1.721124 1_555
As6 O21 1.729097 1_555
As6 O12 1.730200 1_545
As6 O18 1.733516 1_555
As7 O16 1.721124 1_555
As7 O14 1.729097 1_555
As7 O11 1.730200 1_565
As7 O9 1.733516 1_555
