# generated using pymatgen
data_AsS6N5F6
_symmetry_space_group_name_H-M   'P 1'
_cell_length_a   12.68852132
_cell_length_b   12.68852132
_cell_length_c   17.26017231
_cell_angle_alpha   84.59565717
_cell_angle_beta   84.59565717
_cell_angle_gamma   89.28129311
_symmetry_Int_Tables_number   1
_chemical_formula_structural   AsS6N5F6
_chemical_formula_sum   'As8 S48 N40 F48'
_cell_volume   2754.19406704
_cell_formula_units_Z   8
loop_
 _symmetry_equiv_pos_site_id
 _symmetry_equiv_pos_as_xyz
  1  'x, y, z'
loop_
 _atom_site_type_symbol
 _atom_site_label
 _atom_site_symmetry_multiplicity
 _atom_site_fract_x
 _atom_site_fract_y
 _atom_site_fract_z
 _atom_site_occupancy
  As  As0  1  0.75622900  0.08064500  0.94125800  1
  As  As1  1  0.57832800  0.76376600  0.43526600  1
  As  As2  1  0.24377100  0.91935500  0.05874200  1
  As  As3  1  0.23623400  0.42167200  0.06473400  1
  As  As4  1  0.76376600  0.57832800  0.93526600  1
  As  As5  1  0.91935500  0.24377100  0.55874200  1
  As  As6  1  0.08064500  0.75622900  0.44125800  1
  As  As7  1  0.42167200  0.23623400  0.56473400  1
  S  S0  1  0.31027000  0.46818000  0.72107500  1
  S  S1  1  0.78700100  0.46282200  0.71504200  1
  S  S2  1  0.65957600  0.94325600  0.61226800  1
  S  S3  1  0.94325600  0.65957600  0.11226800  1
  S  S4  1  0.15749500  0.19361400  0.90465800  1
  S  S5  1  0.69088700  0.15277800  0.39672900  1
  S  S6  1  0.15277800  0.69088700  0.89672900  1
  S  S7  1  0.94275000  0.15784600  0.10786300  1
  S  S8  1  0.19361400  0.15749500  0.40465800  1
  S  S9  1  0.05725000  0.84215400  0.89213700  1
  S  S10  1  0.53182000  0.68973000  0.77892500  1
  S  S11  1  0.34025300  0.46956700  0.40037600  1
  S  S12  1  0.34042400  0.05674400  0.38773200  1
  S  S13  1  0.46956700  0.34025300  0.90037600  1
  S  S14  1  0.46818000  0.31027000  0.22107500  1
  S  S15  1  0.47280800  0.83624700  0.88257200  1
  S  S16  1  0.83624700  0.47280800  0.38257200  1
  S  S17  1  0.52719200  0.16375300  0.11742800  1
  S  S18  1  0.28054400  0.97527000  0.72648900  1
  S  S19  1  0.21299900  0.53717800  0.28495800  1
  S  S20  1  0.16375300  0.52719200  0.61742800  1
  S  S21  1  0.62661000  0.80886300  0.09500800  1
  S  S22  1  0.53043300  0.65974700  0.09962400  1
  S  S23  1  0.97029200  0.80239900  0.21896600  1
  S  S24  1  0.05674400  0.34042400  0.88773200  1
  S  S25  1  0.84250500  0.80638600  0.09534200  1
  S  S26  1  0.63088200  0.31010900  0.09983700  1
  S  S27  1  0.80638600  0.84250500  0.59534200  1
  S  S28  1  0.46282200  0.78700100  0.21504200  1
  S  S29  1  0.02473000  0.71945600  0.77351100  1
  S  S30  1  0.19113700  0.37339000  0.40499200  1
  S  S31  1  0.19760100  0.02970800  0.28103400  1
  S  S32  1  0.68989100  0.36911800  0.40016300  1
  S  S33  1  0.37339000  0.19113700  0.90499200  1
  S  S34  1  0.68973000  0.53182000  0.27892500  1
  S  S35  1  0.80239900  0.97029200  0.71896600  1
  S  S36  1  0.53717800  0.21299900  0.78495800  1
  S  S37  1  0.02970800  0.19760100  0.78103400  1
  S  S38  1  0.71945600  0.02473000  0.27351100  1
  S  S39  1  0.97527000  0.28054400  0.22648900  1
  S  S40  1  0.36911800  0.68989100  0.90016300  1
  S  S41  1  0.80886300  0.62661000  0.59500800  1
  S  S42  1  0.84215400  0.05725000  0.39213700  1
  S  S43  1  0.31010900  0.63088200  0.59983700  1
  S  S44  1  0.65974700  0.53043300  0.59962400  1
  S  S45  1  0.15784600  0.94275000  0.60786300  1
  S  S46  1  0.84722200  0.30911300  0.10327100  1
  S  S47  1  0.30911300  0.84722200  0.60327100  1
  N  N0  1  0.23418500  0.27125000  0.35853000  1
  N  N1  1  0.73208300  0.26829500  0.14729600  1
  N  N2  1  0.68908700  0.99007700  0.69057900  1
  N  N3  1  0.09759100  0.13213500  0.84286700  1
  N  N4  1  0.26791700  0.73170500  0.85270400  1
  N  N5  1  0.64247600  0.09088000  0.32968800  1
  N  N6  1  0.67848900  0.45836600  0.67871800  1
  N  N7  1  0.13914000  0.45485100  0.34047500  1
  N  N8  1  0.73170500  0.26791700  0.35270400  1
  N  N9  1  0.00911000  0.82735900  0.81111900  1
  N  N10  1  0.90912000  0.35752400  0.17031200  1
  N  N11  1  0.72875000  0.76581500  0.14147000  1
  N  N12  1  0.44712000  0.62659700  0.83987300  1
  N  N13  1  0.00992300  0.31091300  0.80942100  1
  N  N14  1  0.09088000  0.64247600  0.82968800  1
  N  N15  1  0.90240900  0.86786500  0.15713300  1
  N  N16  1  0.86786500  0.90240900  0.65713300  1
  N  N17  1  0.54199200  0.80377200  0.80585100  1
  N  N18  1  0.35752400  0.90912000  0.67031200  1
  N  N19  1  0.45836600  0.67848900  0.17871800  1
  N  N20  1  0.99007700  0.68908700  0.19057900  1
  N  N21  1  0.37340300  0.55288000  0.66012700  1
  N  N22  1  0.82735900  0.00911000  0.31111900  1
  N  N23  1  0.86086000  0.54514900  0.65952500  1
  N  N24  1  0.45800800  0.19622800  0.19414900  1
  N  N25  1  0.62659700  0.44712000  0.33987300  1
  N  N26  1  0.99089000  0.17264100  0.18888100  1
  N  N27  1  0.55288000  0.37340300  0.16012700  1
  N  N28  1  0.54163400  0.32151100  0.82128200  1
  N  N29  1  0.80377200  0.54199200  0.30585100  1
  N  N30  1  0.54514900  0.86086000  0.15952500  1
  N  N31  1  0.17264100  0.99089000  0.68888100  1
  N  N32  1  0.45485100  0.13914000  0.84047500  1
  N  N33  1  0.32151100  0.54163400  0.32128200  1
  N  N34  1  0.76581500  0.72875000  0.64147000  1
  N  N35  1  0.19622800  0.45800800  0.69414900  1
  N  N36  1  0.27125000  0.23418500  0.85853000  1
  N  N37  1  0.13213500  0.09759100  0.34286700  1
  N  N38  1  0.31091300  0.00992300  0.30942100  1
  N  N39  1  0.26829500  0.73208300  0.64729600  1
  F  F0  1  0.01523300  0.33185300  0.58284900  1
  F  F1  1  0.74428400  0.02623400  0.04074700  1
  F  F2  1  0.13198300  0.33981800  0.04188400  1
  F  F3  1  0.00281500  0.13423200  0.57990600  1
  F  F4  1  0.25571600  0.97376600  0.95925300  1
  F  F5  1  0.84418900  0.17867500  0.96628700  1
  F  F6  1  0.35267700  0.83340700  0.03579500  1
  F  F7  1  0.36585200  0.21976600  0.66329700  1
  F  F8  1  0.85620100  0.47757800  0.91358200  1
  F  F9  1  0.17867500  0.84418900  0.46628700  1
  F  F10  1  0.66814700  0.98476700  0.91715100  1
  F  F11  1  0.32893200  0.31898300  0.04218000  1
  F  F12  1  0.74724400  0.52610800  0.03518200  1
  F  F13  1  0.47757800  0.85620100  0.41358200  1
  F  F14  1  0.64732300  0.16659300  0.96420500  1
  F  F15  1  0.33185300  0.01523300  0.08284900  1
  F  F16  1  0.52242200  0.14379900  0.58641800  1
  F  F17  1  0.50093000  0.34142300  0.58624800  1
  F  F18  1  0.86127400  0.23235900  0.65672600  1
  F  F19  1  0.66018200  0.86801700  0.45811600  1
  F  F20  1  0.21976600  0.36585200  0.16329700  1
  F  F21  1  0.13872600  0.76764100  0.34327400  1
  F  F22  1  0.14379900  0.52242200  0.08641800  1
  F  F23  1  0.83340700  0.35267700  0.53579500  1
  F  F24  1  0.33981800  0.13198300  0.54188400  1
  F  F25  1  0.23235900  0.86127400  0.15672600  1
  F  F26  1  0.13423200  0.00281500  0.07990600  1
  F  F27  1  0.68101700  0.67106800  0.45782000  1
  F  F28  1  0.52610800  0.74724400  0.53518200  1
  F  F29  1  0.99718500  0.86576800  0.42009400  1
  F  F30  1  0.31898300  0.32893200  0.54218000  1
  F  F31  1  0.02623400  0.74428400  0.54074700  1
  F  F32  1  0.47389200  0.25275600  0.46481800  1
  F  F33  1  0.98476700  0.66814700  0.41715100  1
  F  F34  1  0.82132500  0.15581100  0.53371300  1
  F  F35  1  0.86801700  0.66018200  0.95811600  1
  F  F36  1  0.65857700  0.49907000  0.91375200  1
  F  F37  1  0.25275600  0.47389200  0.96481800  1
  F  F38  1  0.34142300  0.50093000  0.08624800  1
  F  F39  1  0.78023400  0.63414800  0.83670300  1
  F  F40  1  0.86576800  0.99718500  0.92009400  1
  F  F41  1  0.63414800  0.78023400  0.33670300  1
  F  F42  1  0.49907000  0.65857700  0.41375200  1
  F  F43  1  0.16659300  0.64732300  0.46420500  1
  F  F44  1  0.15581100  0.82132500  0.03371300  1
  F  F45  1  0.67106800  0.68101700  0.95782000  1
  F  F46  1  0.97376600  0.25571600  0.45925300  1
  F  F47  1  0.76764100  0.13872600  0.84327400  1
loop_
_geom_bond_atom_site_label_1
_geom_bond_atom_site_label_2
_geom_bond_distance
_geom_bond_site_symmetry_2
As0 F10 1.766149 1_545
As0 F40 1.768327 1_545
As0 F47 1.773719 1_555
As0 F1 1.782881 1_556
As0 F14 1.787782 1_555
As0 F5 1.790618 1_555
As1 F13 1.766278 1_555
As1 F42 1.768626 1_555
As1 F41 1.774606 1_555
As1 F28 1.782484 1_555
As1 F19 1.787155 1_555
As1 F27 1.789853 1_555
As2 F15 1.766149 1_565
As2 F26 1.768327 1_565
As2 F25 1.773719 1_555
As2 F4 1.782881 1_554
As2 F6 1.787782 1_555
As2 F44 1.790618 1_555
As3 F22 1.766278 1_555
As3 F38 1.768626 1_555
As3 F20 1.774606 1_555
As3 F37 1.782484 1_554
As3 F2 1.787155 1_555
As3 F11 1.789853 1_555
As4 F8 1.766278 1_555
As4 F36 1.768626 1_555
As4 F39 1.774606 1_555
As4 F12 1.782484 1_556
As4 F35 1.787155 1_555
As4 F45 1.789853 1_555
As5 F0 1.766149 1_655
As5 F3 1.768327 1_655
As5 F18 1.773719 1_555
As5 F46 1.782881 1_555
As5 F23 1.787782 1_555
As5 F34 1.790618 1_555
As6 F33 1.766149 1_455
As6 F29 1.768327 1_455
As6 F21 1.773719 1_555
As6 F31 1.782881 1_555
As6 F43 1.787782 1_555
As6 F9 1.790618 1_555
As7 F16 1.766278 1_555
As7 F17 1.768626 1_555
As7 F7 1.774606 1_555
As7 F32 1.782484 1_555
As7 F24 1.787155 1_555
As7 F30 1.789853 1_555
N0 S8 1.645364 1_555
N0 S30 1.648210 1_555
N1 S26 1.643341 1_555
N1 S46 1.647953 1_555
N2 S35 1.571852 1_555
N2 S2 1.603847 1_555
N3 S37 1.599731 1_555
N3 S4 1.627276 1_555
N4 S40 1.643341 1_555
N4 S6 1.647953 1_555
N5 S38 1.597834 1_555
N5 S5 1.627980 1_555
N6 S1 1.569472 1_555
N6 S44 1.605297 1_555
N7 S19 1.598292 1_555
N7 S30 1.627323 1_555
N8 S32 1.643341 1_555
N8 S5 1.647953 1_555
N9 S29 1.572107 1_555
N9 S9 1.605320 1_555
N10 S39 1.597834 1_555
N10 S46 1.627980 1_555
N11 S25 1.645364 1_555
N11 S21 1.648210 1_555
N12 S10 1.597895 1_555
N12 S40 1.628160 1_555
N13 S37 1.571852 1_555
N13 S24 1.603847 1_555
N14 S29 1.597834 1_555
N14 S6 1.627980 1_555
N15 S23 1.599731 1_555
N15 S25 1.627276 1_555
N16 S35 1.599731 1_555
N16 S27 1.627276 1_555
N17 S10 1.571366 1_555
N17 S15 1.602715 1_555
N18 S18 1.597834 1_555
N18 S47 1.627980 1_555
N19 S28 1.569472 1_555
N19 S22 1.605297 1_555
N20 S23 1.571852 1_555
N20 S3 1.603847 1_555
N21 S0 1.597895 1_555
N21 S43 1.628160 1_555
N22 S38 1.572107 1_555
N22 S42 1.605320 1_555
N23 S1 1.598292 1_555
N23 S41 1.627323 1_555
N24 S14 1.571366 1_555
N24 S17 1.602715 1_555
N25 S34 1.597895 1_555
N25 S32 1.628160 1_555
N26 S39 1.572107 1_555
N26 S7 1.605320 1_555
N27 S14 1.597895 1_555
N27 S26 1.628160 1_555
N28 S36 1.569472 1_555
N28 S13 1.605297 1_555
N29 S34 1.571366 1_555
N29 S16 1.602715 1_555
N30 S28 1.598292 1_555
N30 S21 1.627323 1_555
N31 S18 1.572107 1_555
N31 S45 1.605320 1_555
N32 S36 1.598292 1_555
N32 S33 1.627323 1_555
N33 S19 1.569472 1_555
N33 S11 1.605297 1_555
N34 S27 1.645364 1_555
N34 S41 1.648210 1_555
N35 S0 1.571366 1_555
N35 S20 1.602715 1_555
N36 S4 1.645364 1_555
N36 S33 1.648210 1_555
N37 S31 1.599731 1_555
N37 S8 1.627276 1_555
N38 S31 1.571852 1_555
N38 S12 1.603847 1_555
N39 S43 1.643341 1_555
N39 S47 1.647953 1_555
