# generated using pymatgen
data_HoMoClO4
_symmetry_space_group_name_H-M   'P 1'
_cell_length_a   6.30248350
_cell_length_b   6.30248350
_cell_length_c   6.91213226
_cell_angle_alpha   75.92845675
_cell_angle_beta   75.92845675
_cell_angle_gamma   70.74591716
_symmetry_Int_Tables_number   1
_chemical_formula_structural   HoMoClO4
_chemical_formula_sum   'Ho2 Mo2 Cl2 O8'
_cell_volume   247.41069323
_cell_formula_units_Z   2
loop_
 _symmetry_equiv_pos_site_id
 _symmetry_equiv_pos_as_xyz
  1  'x, y, z'
loop_
 _atom_site_type_symbol
 _atom_site_label
 _atom_site_symmetry_multiplicity
 _atom_site_fract_x
 _atom_site_fract_y
 _atom_site_fract_z
 _atom_site_occupancy
  Ho  Ho0  1  0.77825400  0.77825400  0.11267500  1
  Ho  Ho1  1  0.22174600  0.22174600  0.88732500  1
  Mo  Mo0  1  0.36223600  0.36223600  0.26912500  1
  Mo  Mo1  1  0.63776400  0.63776400  0.73087500  1
  Cl  Cl0  1  0.98970700  0.98970700  0.76766500  1
  Cl  Cl1  1  0.01029300  0.01029300  0.23233500  1
  O  O0  1  0.45639000  0.45639000  0.79864200  1
  O  O1  1  0.29352500  0.29352500  0.53641400  1
  O  O2  1  0.49141900  0.10852000  0.15341300  1
  O  O3  1  0.10852000  0.49141900  0.15341300  1
  O  O4  1  0.70647500  0.70647500  0.46358600  1
  O  O5  1  0.50858100  0.89148000  0.84658700  1
  O  O6  1  0.89148000  0.50858100  0.84658700  1
  O  O7  1  0.54361000  0.54361000  0.20135800  1
loop_
_geom_bond_atom_site_label_1
_geom_bond_atom_site_label_2
_geom_bond_distance
_geom_bond_site_symmetry_2
Ho0 O2 2.288180 1_565
Ho0 O3 2.288180 1_655
Ho0 O7 2.304434 1_555
Ho0 O4 2.315253 1_555
Ho0 O6 2.619664 1_554
Ho0 O5 2.619664 1_554
Ho1 O6 2.288180 1_455
Ho1 O5 2.288180 1_545
Ho1 O0 2.304434 1_555
Ho1 O1 2.315253 1_555
Ho1 O3 2.619664 1_556
Ho1 O2 2.619664 1_556
Mo0 O1 1.770321 1_555
Mo0 O7 1.781528 1_555
Mo0 O3 1.818282 1_555
Mo0 O2 1.818282 1_555
Mo1 O4 1.770321 1_555
Mo1 O0 1.781528 1_555
Mo1 O6 1.818282 1_555
Mo1 O5 1.818282 1_555
Cl0 Ho0 2.705480 1_556
Cl0 Ho1 2.747418 1_665
Cl1 Ho1 2.705480 1_554
Cl1 Ho0 2.747418 1_445
