# generated using pymatgen
data_GdMnB4
_symmetry_space_group_name_H-M   'P 1'
_cell_length_a   3.42468036
_cell_length_b   5.97749138
_cell_length_c   11.57672579
_cell_angle_alpha   90.00000000
_cell_angle_beta   90.00000000
_cell_angle_gamma   90.00000000
_symmetry_Int_Tables_number   1
_chemical_formula_structural   GdMnB4
_chemical_formula_sum   'Gd4 Mn4 B16'
_cell_volume   236.98712275
_cell_formula_units_Z   4
loop_
 _symmetry_equiv_pos_site_id
 _symmetry_equiv_pos_as_xyz
  1  'x, y, z'
loop_
 _atom_site_type_symbol
 _atom_site_label
 _atom_site_symmetry_multiplicity
 _atom_site_fract_x
 _atom_site_fract_y
 _atom_site_fract_z
 _atom_site_occupancy
  Gd  Gd0  1  -0.00000000  0.87413698  0.84938181  1
  Gd  Gd1  1  -0.00000000  0.37413698  0.65061819  1
  Gd  Gd2  1  -0.00000000  0.12586302  0.15061819  1
  Gd  Gd3  1  0.00000000  0.62586302  0.34938181  1
  Mn  Mn0  1  0.00000000  0.36845479  0.91391252  1
  Mn  Mn1  1  0.00000000  0.63154521  0.08608748  1
  Mn  Mn2  1  -0.00000000  0.13154521  0.41391252  1
  Mn  Mn3  1  0.00000000  0.86845479  0.58608748  1
  B  B0  1  0.50000000  0.71794222  0.68440842  1
  B  B1  1  0.50000000  0.52251309  0.81004313  1
  B  B2  1  0.50000000  0.78205778  0.18440842  1
  B  B3  1  0.50000000  0.61221242  0.95368526  1
  B  B4  1  0.50000000  0.02251309  0.68995687  1
  B  B5  1  0.50000000  0.97748691  0.31004313  1
  B  B6  1  0.50000000  0.47748691  0.18995687  1
  B  B7  1  0.50000000  0.63968717  0.53262209  1
  B  B8  1  0.50000000  0.36031283  0.46737791  1
  B  B9  1  0.50000000  0.11221242  0.54631474  1
  B  B10  1  0.50000000  0.13968717  0.96737791  1
  B  B11  1  0.50000000  0.38778758  0.04631474  1
  B  B12  1  0.50000000  0.86031283  0.03262209  1
  B  B13  1  0.50000000  0.88778758  0.45368526  1
  B  B14  1  0.50000000  0.21794222  0.81559158  1
  B  B15  1  0.50000000  0.28205778  0.31559158  1
loop_
_geom_bond_atom_site_label_1
_geom_bond_atom_site_label_2
_geom_bond_distance
_geom_bond_site_symmetry_2
B0 B7 1.818384 1_555
B0 B4 1.821703 1_565
B0 B1 1.865483 1_555
B0 Mn3 2.244354 1_555
B0 Mn3 2.244354 1_655
B0 Gd1 2.703431 1_655
B0 Gd1 2.703431 1_555
B0 Gd0 2.729716 1_555
B0 Gd0 2.729716 1_655
B1 B3 1.747209 1_555
B1 B14 1.821703 1_555
B1 Mn0 2.286058 1_555
B1 Mn0 2.286058 1_655
B1 Gd1 2.669277 1_655
B1 Gd1 2.669277 1_555
B1 Gd0 2.749035 1_555
B1 Gd0 2.749035 1_655
B2 B6 1.821703 1_555
B2 B5 1.865483 1_555
B2 Mn1 2.244354 1_555
B2 Mn1 2.244354 1_655
B2 Gd2 2.703431 1_565
B2 Gd2 2.703431 1_665
B2 Gd3 2.729716 1_555
B2 Gd3 2.729716 1_655
B3 Mn0 2.295024 1_655
B3 Mn0 2.295024 1_555
B3 Mn1 2.301063 1_656
B3 Mn1 2.301063 1_556
B3 Gd0 2.615609 1_555
B3 Gd0 2.615609 1_655
B4 B9 1.747209 1_555
B4 Mn3 2.286058 1_645
B4 Mn3 2.286058 1_545
B4 Gd0 2.669277 1_545
B4 Gd0 2.669277 1_645
B4 Gd1 2.749035 1_655
B4 Gd1 2.749035 1_555
B5 Mn2 2.286058 1_565
B5 Mn2 2.286058 1_665
B5 Gd2 2.669277 1_565
B5 Gd2 2.669277 1_665
B5 Gd3 2.749035 1_555
B5 Gd3 2.749035 1_655
B6 Mn1 2.286058 1_555
B6 Mn1 2.286058 1_655
B6 Gd3 2.669277 1_655
B6 Gd3 2.669277 1_555
B6 Gd2 2.749035 1_655
B6 Gd2 2.749035 1_555
B7 B8 1.832828 1_555
B7 Mn3 2.277093 1_555
B7 Mn3 2.277093 1_655
B7 Gd1 2.705122 1_655
B7 Gd1 2.705122 1_555
B7 Gd3 2.727443 1_655
B7 Gd3 2.727443 1_555
B8 B9 1.741961 1_555
B8 Mn2 2.277093 1_555
B8 Mn2 2.277093 1_655
B8 Gd3 2.705122 1_655
B8 Gd3 2.705122 1_555
B8 Gd1 2.727443 1_555
B8 Gd1 2.727443 1_655
B9 Mn3 2.295024 1_645
B9 Mn3 2.295024 1_545
B9 Mn2 2.301063 1_555
B9 Mn2 2.301063 1_655
B9 Gd1 2.615609 1_655
B9 Gd1 2.615609 1_555
B10 B11 1.741961 1_556
B10 B14 1.818384 1_555
B10 B12 1.832828 1_546
B10 Mn0 2.277093 1_655
B10 Mn0 2.277093 1_555
B10 Gd0 2.705122 1_545
B10 Gd0 2.705122 1_645
B10 Gd2 2.727443 1_656
B10 Gd2 2.727443 1_556
B11 B3 1.717423 1_554
B11 B6 1.747209 1_555
B11 Mn1 2.295024 1_655
B11 Mn1 2.295024 1_555
B11 Mn0 2.301063 1_554
B11 Mn0 2.301063 1_654
B11 Gd2 2.615609 1_555
B11 Gd2 2.615609 1_655
B12 B3 1.741961 1_554
B12 B2 1.818384 1_555
B12 Mn1 2.277093 1_555
B12 Mn1 2.277093 1_655
B12 Gd2 2.705122 1_565
B12 Gd2 2.705122 1_665
B12 Gd0 2.727443 1_554
B12 Gd0 2.727443 1_654
B13 B9 1.717423 1_565
B13 B7 1.741961 1_555
B13 B5 1.747209 1_555
B13 Mn2 2.295024 1_565
B13 Mn2 2.295024 1_665
B13 Mn3 2.301063 1_555
B13 Mn3 2.301063 1_655
B13 Gd3 2.615609 1_555
B13 Gd3 2.615609 1_655
B14 B4 1.865483 1_555
B14 Mn0 2.244354 1_555
B14 Mn0 2.244354 1_655
B14 Gd0 2.703431 1_545
B14 Gd0 2.703431 1_645
B14 Gd1 2.729716 1_655
B14 Gd1 2.729716 1_555
B15 B8 1.818384 1_555
B15 B5 1.821703 1_545
B15 B6 1.865483 1_555
B15 Mn2 2.244354 1_655
B15 Mn2 2.244354 1_555
B15 Gd3 2.703431 1_555
B15 Gd3 2.703431 1_655
B15 Gd2 2.729716 1_555
B15 Gd2 2.729716 1_655
