# generated using pymatgen
data_Rb(WO3)3
_symmetry_space_group_name_H-M   'P 1'
_cell_length_a   7.40739805
_cell_length_b   7.40740359
_cell_length_c   7.64407444
_cell_angle_alpha   90.00007713
_cell_angle_beta   89.99990117
_cell_angle_gamma   120.00000189
_symmetry_Int_Tables_number   1
_chemical_formula_structural   Rb(WO3)3
_chemical_formula_sum   'Rb2 W6 O18'
_cell_volume   363.23460935
_cell_formula_units_Z   2
loop_
 _symmetry_equiv_pos_site_id
 _symmetry_equiv_pos_as_xyz
  1  'x, y, z'
loop_
 _atom_site_type_symbol
 _atom_site_label
 _atom_site_symmetry_multiplicity
 _atom_site_fract_x
 _atom_site_fract_y
 _atom_site_fract_z
 _atom_site_occupancy
  Rb  Rb0  1  0.00000011  0.99999954  0.99640809  1
  Rb  Rb1  1  0.00000006  0.00000045  0.49586065  1
  W  W0  1  -0.00002439  0.49867482  0.24205434  1
  W  W1  1  -0.00001992  0.50584586  0.74207384  1
  W  W2  1  0.49870462  0.00002357  0.24204766  1
  W  W3  1  0.50132234  0.50129656  0.24204564  1
  W  W4  1  0.49414486  0.49412849  0.74206831  1
  W  W5  1  0.50587449  0.00002084  0.74206833  1
  O  O0  1  0.42155999  0.21055466  0.24256048  1
  O  O1  1  0.49756037  0.49850249  0.49203425  1
  O  O2  1  0.21055225  0.42155623  0.24146907  1
  O  O3  1  0.78775057  0.57850111  0.74145244  1
  O  O4  1  0.00094266  0.50244014  0.49203900  1
  O  O5  1  0.50149764  0.99905960  0.49203437  1
  O  O6  1  0.99906129  0.50150942  0.99202151  1
  O  O7  1  0.50244829  0.00094035  0.99201743  1
  O  O8  1  0.79074838  0.21224910  0.74145191  1
  O  O9  1  0.21224650  0.79075307  0.74256945  1
  O  O10  1  0.20924925  0.42149553  0.74256890  1
  O  O11  1  0.57844394  0.78899663  0.24146769  1
  O  O12  1  0.78944562  0.21100686  0.24256188  1
  O  O13  1  0.49849088  0.49755248  0.99201748  1
  O  O14  1  0.57850540  0.78775329  0.74256756  1
  O  O15  1  0.21100228  0.78944982  0.24146881  1
  O  O16  1  0.42149937  0.20924984  0.74145063  1
  O  O17  1  0.78899414  0.57844023  0.24256229  1
loop_
_geom_bond_atom_site_label_1
_geom_bond_atom_site_label_2
_geom_bond_distance
_geom_bond_site_symmetry_2
O0 W2 1.910424 1_555
O0 W3 1.927390 1_555
O0 Rb0 3.294499 1_544
O0 Rb1 3.326004 1_555
O1 W3 1.911096 1_555
O1 W4 1.911507 1_555
O2 W0 1.910614 1_555
O2 W3 1.927632 1_555
O2 Rb0 3.289723 1_544
O2 Rb1 3.330850 1_555
O3 W1 1.899245 1_655
O3 W4 1.939425 1_555
O3 Rb1 3.291753 1_665
O3 Rb0 3.333087 1_655
O4 W0 1.911066 1_555
O4 W1 1.911512 1_555
O5 W2 1.911081 1_565
O5 W5 1.911506 1_565
O6 W1 1.910844 1_655
O6 W0 1.911434 1_656
O7 W5 1.910855 1_555
O7 W2 1.911414 1_556
O8 W5 1.899187 1_555
O8 W1 1.939377 1_655
O8 Rb1 3.291752 1_655
O8 Rb0 3.333107 1_645
O9 W1 1.899434 1_555
O9 W5 1.939604 1_565
O9 Rb1 3.296602 1_565
O9 Rb0 3.328070 1_555
O10 W4 1.899366 1_555
O10 W1 1.939561 1_555
O10 Rb1 3.296604 1_555
O10 Rb0 3.328093 1_545
O11 W3 1.910644 1_555
O11 W2 1.927608 1_565
O11 Rb0 3.289712 1_654
O11 Rb1 3.330858 1_665
O12 W0 1.910381 1_655
O12 W2 1.927391 1_555
O12 Rb0 3.294511 1_644
O12 Rb1 3.326008 1_655
O13 W4 1.910856 1_555
O13 W3 1.911398 1_556
O14 W5 1.899392 1_565
O14 W4 1.939582 1_555
O14 Rb1 3.296593 1_665
O14 Rb0 3.328092 1_655
O15 W2 1.910646 1_565
O15 W0 1.927654 1_555
O15 Rb0 3.289700 1_554
O15 Rb1 3.330832 1_565
O16 W4 1.899222 1_555
O16 W5 1.939411 1_555
O16 Rb1 3.291745 1_555
O16 Rb0 3.333097 1_545
O17 W3 1.910397 1_555
O17 W0 1.927419 1_655
O17 Rb0 3.294504 1_654
O17 Rb1 3.326000 1_665
