# generated using pymatgen
data_BaCo2(AsO4)2
_symmetry_space_group_name_H-M   'P 1'
_cell_length_a   8.54271260
_cell_length_b   8.71950315
_cell_length_c   8.62300347
_cell_angle_alpha   33.41765343
_cell_angle_beta   33.72821919
_cell_angle_gamma   34.16078584
_symmetry_Int_Tables_number   1
_chemical_formula_structural   BaCo2(AsO4)2
_chemical_formula_sum   'Ba1 Co2 As2 O8'
_cell_volume   176.78171173
_cell_formula_units_Z   1
loop_
 _symmetry_equiv_pos_site_id
 _symmetry_equiv_pos_as_xyz
  1  'x, y, z'
loop_
 _atom_site_type_symbol
 _atom_site_label
 _atom_site_symmetry_multiplicity
 _atom_site_fract_x
 _atom_site_fract_y
 _atom_site_fract_z
 _atom_site_occupancy
  Ba  Ba0  1  0.99952200  0.00109800  0.99957900  1
  Co  Co0  1  0.82493000  0.82959700  0.84020100  1
  Co  Co1  1  0.17329500  0.17243800  0.16044300  1
  As  As0  1  0.43570800  0.41945900  0.42962600  1
  As  As1  1  0.56440800  0.58044300  0.57033700  1
  O  O0  1  0.55259600  0.22248300  0.88026600  1
  O  O1  1  0.20577600  0.88422600  0.55483700  1
  O  O2  1  0.87085300  0.56848600  0.21222200  1
  O  O3  1  0.44980400  0.77617600  0.11851900  1
  O  O4  1  0.79466600  0.11487500  0.44572800  1
  O  O5  1  0.35933100  0.35285900  0.36373100  1
  O  O6  1  0.63948600  0.64953400  0.63489000  1
  O  O7  1  0.12962500  0.42832700  0.78962000  1
loop_
_geom_bond_atom_site_label_1
_geom_bond_atom_site_label_2
_geom_bond_distance
_geom_bond_site_symmetry_2
Ba0 O6 2.900133 1_546
Ba0 O5 2.900623 1_655
Ba0 O5 2.988278 1_646
Ba0 O5 2.988310 1_556
Ba0 O6 2.989223 1_645
Ba0 O6 2.990732 1_555
Ba0 O0 3.222279 1_555
Ba0 O3 3.227129 1_646
Ba0 O7 3.261358 1_655
Ba0 O2 3.280618 1_546
Ba0 O4 3.338672 1_556
Ba0 O1 3.341146 1_645
Co0 O2 2.012733 1_556
Co0 O3 2.014357 1_556
Co0 O4 2.024479 1_565
Co0 O1 2.039228 1_655
Co0 O0 2.171826 1_565
Co0 O7 2.189698 1_655
Co1 O7 2.009668 1_554
Co1 O0 2.021203 1_554
Co1 O1 2.026495 1_545
Co1 O4 2.038609 1_455
Co1 O2 2.165553 1_455
Co1 O3 2.192400 1_545
As0 O5 1.697169 1_555
As0 O3 1.743246 1_555
As0 O7 1.744732 1_555
As0 O4 1.758067 1_555
As1 O6 1.696239 1_555
As1 O2 1.743298 1_555
As1 O0 1.744210 1_555
As1 O1 1.755104 1_555
