# generated using pymatgen
data_Na3SO4F
_symmetry_space_group_name_H-M   'P 1'
_cell_length_a   5.76033500
_cell_length_b   5.76033500
_cell_length_c   5.76033500
_cell_angle_alpha   90.00000000
_cell_angle_beta   90.00000000
_cell_angle_gamma   90.00000000
_symmetry_Int_Tables_number   1
_chemical_formula_structural   Na3SO4F
_chemical_formula_sum   'Na3 S1 O4 F1'
_cell_volume   191.13632143
_cell_formula_units_Z   1
loop_
 _symmetry_equiv_pos_site_id
 _symmetry_equiv_pos_as_xyz
  1  'x, y, z'
loop_
 _atom_site_type_symbol
 _atom_site_label
 _atom_site_symmetry_multiplicity
 _atom_site_fract_x
 _atom_site_fract_y
 _atom_site_fract_z
 _atom_site_occupancy
  Na  Na0  1  0.00000000  0.50000000  0.00000000  1
  Na  Na1  1  0.00000000  0.00000000  0.50000000  1
  Na  Na2  1  0.50000000  0.00000000  0.00000000  1
  S  S0  1  0.00000000  0.00000000  0.00000000  1
  O  O0  1  0.14881800  0.85118200  0.14881800  1
  O  O1  1  0.85118200  0.14881800  0.14881800  1
  O  O2  1  0.14881800  0.14881800  0.85118200  1
  O  O3  1  0.85118200  0.85118200  0.85118200  1
  F  F0  1  0.50000000  0.50000000  0.50000000  1
loop_
_geom_bond_atom_site_label_1
_geom_bond_atom_site_label_2
_geom_bond_distance
_geom_bond_site_symmetry_2
Na0 O1 2.358380 1_455
Na0 O2 2.358380 1_554
Na0 O3 2.358380 1_454
Na0 O0 2.358380 1_555
Na1 O0 2.358380 1_545
Na1 O1 2.358380 1_455
Na1 O3 2.358380 1_445
Na1 O2 2.358380 1_555
Na2 O0 2.358380 1_545
Na2 O1 2.358380 1_555
Na2 O3 2.358380 1_544
Na2 O2 2.358380 1_554
O0 S0 1.484786 1_565
O1 S0 1.484786 1_655
O2 S0 1.484786 1_556
O3 S0 1.484786 1_666
