# generated using pymatgen
data_Zn(FeO2)2
_symmetry_space_group_name_H-M   'P 1'
_cell_length_a   6.05764795
_cell_length_b   6.05764747
_cell_length_c   24.16560575
_cell_angle_alpha   59.91099991
_cell_angle_beta   59.91100184
_cell_angle_gamma   59.99999088
_symmetry_Int_Tables_number   1
_chemical_formula_structural   Zn(FeO2)2
_chemical_formula_sum   'Zn8 Fe16 O32'
_cell_volume   626.18858999
_cell_formula_units_Z   8
loop_
 _symmetry_equiv_pos_site_id
 _symmetry_equiv_pos_as_xyz
  1  'x, y, z'
loop_
 _atom_site_type_symbol
 _atom_site_label
 _atom_site_symmetry_multiplicity
 _atom_site_fract_x
 _atom_site_fract_y
 _atom_site_fract_z
 _atom_site_occupancy
  Zn  Zn0  1  0.00570100  0.00570100  0.99572400  1
  Zn  Zn1  1  0.24988700  0.24988700  0.31258400  1
  Zn  Zn2  1  0.62751600  0.62751600  0.02936300  1
  Zn  Zn3  1  0.24810600  0.24810600  0.56392000  1
  Zn  Zn4  1  0.00035200  0.00035200  0.24973600  1
  Zn  Zn5  1  0.24679300  0.24679300  0.81490500  1
  Zn  Zn6  1  0.00025300  0.00025300  0.49981100  1
  Zn  Zn7  1  0.00240000  0.00240000  0.74820000  1
  Fe  Fe0  1  0.24759200  0.24759200  0.06430600  1
  Fe  Fe1  1  0.12267800  0.62594700  0.15635700  1
  Fe  Fe2  1  0.62594700  0.12267800  0.15635700  1
  Fe  Fe3  1  0.62594700  0.62594700  0.15635700  1
  Fe  Fe4  1  0.12444600  0.62464400  0.40656700  1
  Fe  Fe5  1  0.62464400  0.12444600  0.40656700  1
  Fe  Fe6  1  0.62395600  0.62395600  0.28203300  1
  Fe  Fe7  1  0.62464400  0.62464400  0.40656700  1
  Fe  Fe8  1  0.12454400  0.62447100  0.65662900  1
  Fe  Fe9  1  0.62447100  0.12454400  0.65662900  1
  Fe  Fe10  1  0.62437800  0.62437800  0.53171600  1
  Fe  Fe11  1  0.62447100  0.62447100  0.65662900  1
  Fe  Fe12  1  0.12097400  0.62694300  0.90628500  1
  Fe  Fe13  1  0.62694300  0.12097400  0.90628500  1
  Fe  Fe14  1  0.62440000  0.62440000  0.78170000  1
  Fe  Fe15  1  0.62694300  0.62694300  0.90628500  1
  O  O0  1  0.37456400  0.37456400  0.09874600  1
  O  O1  1  0.38694400  0.38694400  0.20979200  1
  O  O2  1  0.37456400  0.85588800  0.09874600  1
  O  O3  1  0.85588800  0.37456400  0.09874600  1
  O  O4  1  0.38539100  0.38539100  0.34635000  1
  O  O5  1  0.40709900  0.86374800  0.21635100  1
  O  O6  1  0.38539100  0.84381800  0.34635000  1
  O  O7  1  0.38494900  0.38494900  0.46128800  1
  O  O8  1  0.86567300  0.86567300  0.10074500  1
  O  O9  1  0.86374800  0.40709900  0.21635100  1
  O  O10  1  0.84381800  0.38539100  0.34635000  1
  O  O11  1  0.86374800  0.86374800  0.21635100  1
  O  O12  1  0.38575400  0.38575400  0.59630400  1
  O  O13  1  0.40680800  0.86456400  0.46601600  1
  O  O14  1  0.38575400  0.84327700  0.59630400  1
  O  O15  1  0.86456400  0.40680800  0.46601600  1
  O  O16  1  0.38448700  0.38448700  0.71163500  1
  O  O17  1  0.86502800  0.86502800  0.35122900  1
  O  O18  1  0.84327700  0.38575400  0.59630400  1
  O  O19  1  0.86456400  0.86456400  0.46601600  1
  O  O20  1  0.38686100  0.38686100  0.84629200  1
  O  O21  1  0.40682000  0.86500900  0.71579000  1
  O  O22  1  0.38686100  0.84111200  0.84629200  1
  O  O23  1  0.37941500  0.37941500  0.96543900  1
  O  O24  1  0.86500900  0.40682000  0.71579000  1
  O  O25  1  0.86470300  0.86470300  0.60147300  1
  O  O26  1  0.84111200  0.38686100  0.84629200  1
  O  O27  1  0.86500900  0.86500900  0.71579000  1
  O  O28  1  0.40492300  0.87148900  0.96302500  1
  O  O29  1  0.87148900  0.40492300  0.96302500  1
  O  O30  1  0.86631000  0.86631000  0.85026700  1
  O  O31  1  0.87148900  0.87148900  0.96302500  1
loop_
_geom_bond_atom_site_label_1
_geom_bond_atom_site_label_2
_geom_bond_distance
_geom_bond_site_symmetry_2
Fe0 O2 1.936791 1_545
Fe0 O3 1.936792 1_455
Fe0 O0 1.936792 1_555
Fe0 O23 1.948130 1_554
Fe1 O11 2.047357 1_455
Fe1 O9 2.047362 1_455
Fe1 O1 2.051016 1_555
Fe1 O8 2.053990 1_455
Fe1 O0 2.063375 1_555
Fe1 O2 2.063375 1_555
Fe2 O11 2.047357 1_545
Fe2 O5 2.047362 1_545
Fe2 O1 2.051016 1_555
Fe2 O8 2.053990 1_545
Fe2 O0 2.063375 1_555
Fe2 O3 2.063375 1_555
Fe3 O5 2.047357 1_555
Fe3 O9 2.047357 1_555
Fe3 O1 2.051016 1_555
Fe3 O8 2.053986 1_555
Fe3 O3 2.063375 1_555
Fe3 O2 2.063375 1_555
Fe4 O19 2.047507 1_455
Fe4 O15 2.047516 1_455
Fe4 O7 2.054983 1_555
Fe4 O6 2.057668 1_555
Fe4 O4 2.057676 1_555
Fe4 O17 2.060221 1_455
Fe5 O19 2.047507 1_545
Fe5 O13 2.047516 1_545
Fe5 O7 2.054983 1_555
Fe5 O10 2.057668 1_555
Fe5 O4 2.057676 1_555
Fe5 O17 2.060221 1_545
Fe6 O6 2.043698 1_555
Fe6 O10 2.043698 1_555
Fe6 O4 2.043698 1_555
Fe6 O11 2.055648 1_555
Fe6 O9 2.055651 1_555
Fe6 O5 2.055651 1_555
Fe7 O13 2.047507 1_555
Fe7 O15 2.047507 1_555
Fe7 O7 2.054997 1_555
Fe7 O10 2.057677 1_555
Fe7 O6 2.057677 1_555
Fe7 O17 2.060212 1_555
Fe8 O27 2.045241 1_455
Fe8 O24 2.045258 1_455
Fe8 O16 2.057133 1_555
Fe8 O14 2.057345 1_555
Fe8 O12 2.057349 1_555
Fe8 O25 2.059128 1_455
Fe9 O27 2.045241 1_545
Fe9 O21 2.045258 1_545
Fe9 O16 2.057133 1_555
Fe9 O18 2.057345 1_555
Fe9 O12 2.057349 1_555
Fe9 O25 2.059128 1_545
Fe10 O12 2.044530 1_555
Fe10 O14 2.044542 1_555
Fe10 O18 2.044542 1_555
Fe10 O15 2.058880 1_555
Fe10 O13 2.058880 1_555
Fe10 O19 2.058888 1_555
Fe11 O21 2.045240 1_555
Fe11 O24 2.045240 1_555
Fe11 O16 2.057138 1_555
Fe11 O18 2.057349 1_555
Fe11 O14 2.057349 1_555
Fe11 O25 2.059124 1_555
Fe12 O29 2.019555 1_455
Fe12 O31 2.019559 1_455
Fe12 O30 2.050306 1_455
Fe12 O20 2.059477 1_555
Fe12 O22 2.059485 1_555
Fe12 O23 2.118964 1_555
Fe13 O28 2.019555 1_545
Fe13 O31 2.019559 1_545
Fe13 O30 2.050306 1_545
Fe13 O20 2.059477 1_555
Fe13 O26 2.059485 1_555
Fe13 O23 2.118964 1_555
Fe14 O20 2.035638 1_555
Fe14 O22 2.035646 1_555
Fe14 O26 2.035646 1_555
Fe14 O27 2.062658 1_555
Fe14 O24 2.062666 1_555
Fe14 O21 2.062666 1_555
Fe15 O28 2.019559 1_555
Fe15 O29 2.019559 1_555
Fe15 O30 2.050298 1_555
Fe15 O26 2.059476 1_555
Fe15 O22 2.059476 1_555
Fe15 O23 2.118960 1_555
O0 Zn2 2.168613 1_555
O1 Zn1 2.025470 1_555
O2 Zn2 2.168612 1_555
O3 Zn2 2.168612 1_555
O4 Zn1 2.007560 1_555
O5 Zn4 2.010948 1_565
O6 Zn1 2.007544 1_565
O7 Zn3 2.022317 1_555
O8 Zn0 2.069392 1_664
O9 Zn4 2.010947 1_655
O10 Zn1 2.007545 1_655
O11 Zn4 2.010953 1_665
O12 Zn3 2.001696 1_555
O13 Zn6 2.009948 1_565
O14 Zn3 2.001681 1_565
O15 Zn6 2.009948 1_655
O16 Zn5 2.034889 1_555
O17 Zn4 1.999874 1_665
O18 Zn3 2.001681 1_655
O19 Zn6 2.009963 1_665
O20 Zn5 2.006403 1_555
O21 Zn7 1.999639 1_565
O22 Zn5 2.006388 1_565
O24 Zn7 1.999638 1_655
O25 Zn6 2.003204 1_665
O26 Zn5 2.006388 1_655
O27 Zn7 1.999649 1_665
O28 Zn0 1.973756 1_565
O28 Zn2 2.090767 1_556
O29 Zn0 1.973756 1_655
O29 Zn2 2.090767 1_556
O30 Zn7 2.011184 1_665
O31 Zn0 1.973746 1_665
O31 Zn2 2.090771 1_556
