# generated using pymatgen
data_La11C11Cl7
_symmetry_space_group_name_H-M   'P 1'
_cell_length_a   6.94682664
_cell_length_b   7.82427666
_cell_length_c   47.24311483
_cell_angle_alpha   90.00000000
_cell_angle_beta   90.00000000
_cell_angle_gamma   104.27047709
_symmetry_Int_Tables_number   1
_chemical_formula_structural   La11C11Cl7
_chemical_formula_sum   'La44 C44 Cl28'
_cell_volume   2488.61084766
_cell_formula_units_Z   4
loop_
 _symmetry_equiv_pos_site_id
 _symmetry_equiv_pos_as_xyz
  1  'x, y, z'
loop_
 _atom_site_type_symbol
 _atom_site_label
 _atom_site_symmetry_multiplicity
 _atom_site_fract_x
 _atom_site_fract_y
 _atom_site_fract_z
 _atom_site_occupancy
  La  La0  1  0.13463091  0.39024782  0.41105222  1
  La  La1  1  0.13241119  0.38556110  0.04904755  1
  La  La2  1  0.86758881  0.61443890  0.95095245  1
  La  La3  1  0.36254901  0.76646012  0.45938257  1
  La  La4  1  0.38013156  0.70017074  0.35888368  1
  La  La5  1  0.38636056  0.55667566  0.27024199  1
  La  La6  1  0.86431944  0.68011681  0.86535186  1
  La  La7  1  0.11986844  0.29982926  0.85888368  1
  La  La8  1  0.86953582  0.76958710  0.40459625  1
  La  La9  1  0.86536909  0.60975218  0.58894778  1
  La  La10  1  0.61615311  0.36952926  0.81548003  1
  La  La11  1  0.13046418  0.23041290  0.59540375  1
  La  La12  1  0.86254901  0.76646012  0.04061743  1
  La  La13  1  0.61363944  0.44332434  0.72975801  1
  La  La14  1  0.12396592  0.30925189  0.49740804  1
  La  La15  1  0.88384689  0.63047074  0.31548003  1
  La  La16  1  0.62396592  0.30925189  0.00259196  1
  La  La17  1  0.63745099  0.23353988  0.54061743  1
  La  La18  1  0.36758881  0.61443890  0.54904755  1
  La  La19  1  0.11615311  0.36952926  0.68451997  1
  La  La20  1  0.84806840  0.82213463  0.77779170  1
  La  La21  1  0.87603408  0.69074811  0.50259196  1
  La  La22  1  0.35716811  0.75000014  0.82248211  1
  La  La23  1  0.36536909  0.60975218  0.91105222  1
  La  La24  1  0.14283189  0.24999986  0.32248211  1
  La  La25  1  0.88636056  0.55667566  0.22975801  1
  La  La26  1  0.65193160  0.17786537  0.27779170  1
  La  La27  1  0.61986844  0.29982926  0.64111632  1
  La  La28  1  0.85716811  0.75000014  0.67751789  1
  La  La29  1  0.64283189  0.24999986  0.17751789  1
  La  La30  1  0.63568056  0.31988319  0.36535186  1
  La  La31  1  0.63241119  0.38556110  0.45095245  1
  La  La32  1  0.13745099  0.23353988  0.95938257  1
  La  La33  1  0.36953582  0.76958710  0.09540375  1
  La  La34  1  0.13568056  0.31988319  0.13464814  1
  La  La35  1  0.63046418  0.23041290  0.90459625  1
  La  La36  1  0.34806840  0.82213463  0.72220830  1
  La  La37  1  0.15193160  0.17786537  0.22220830  1
  La  La38  1  0.38384689  0.63047074  0.18451997  1
  La  La39  1  0.88013156  0.70017074  0.14111632  1
  La  La40  1  0.37603408  0.69074811  0.99740804  1
  La  La41  1  0.36431944  0.68011681  0.63464814  1
  La  La42  1  0.11363944  0.44332434  0.77024199  1
  La  La43  1  0.63463091  0.39024782  0.08894778  1
  C  C0  1  0.52215549  0.38417893  0.94403507  1
  C  C1  1  0.51832850  0.50199315  0.67321007  1
  C  C2  1  0.52631671  0.50663726  0.03620360  1
  C  C3  1  0.52846131  0.44074878  0.50815107  1
  C  C4  1  0.52103526  0.37860197  0.58103836  1
  C  C5  1  0.96129037  0.61960904  0.80955126  1
  C  C6  1  0.98167150  0.49800685  0.17321007  1
  C  C7  1  0.03971270  0.45365908  0.35453253  1
  C  C8  1  0.98130114  0.57011594  0.37170386  1
  C  C9  1  0.97153869  0.55925122  0.00815107  1
  C  C10  1  0.02978270  0.51707715  0.10119535  1
  C  C11  1  0.02631671  0.50663726  0.46379640  1
  C  C12  1  0.53870963  0.38039096  0.30955126  1
  C  C13  1  0.49222617  0.43095021  0.21733414  1
  C  C14  1  0.48130114  0.57011594  0.12829614  1
  C  C15  1  0.97021730  0.48292285  0.89880465  1
  C  C16  1  0.47368329  0.49336274  0.96379640  1
  C  C17  1  0.96028730  0.54634092  0.64546747  1
  C  C18  1  0.50777383  0.56904979  0.78266586  1
  C  C19  1  0.51869886  0.42988406  0.87170386  1
  C  C20  1  0.02215549  0.38417893  0.55596493  1
  C  C21  1  0.45816450  0.67347998  0.76247881  1
  C  C22  1  0.02103526  0.37860197  0.91896164  1
  C  C23  1  0.02846131  0.44074878  0.99184893  1
  C  C24  1  0.01869886  0.42988406  0.62829614  1
  C  C25  1  0.48167150  0.49800685  0.32678993  1
  C  C26  1  0.03870963  0.38039096  0.19044874  1
  C  C27  1  0.01832850  0.50199315  0.82678993  1
  C  C28  1  0.97896474  0.62139803  0.08103836  1
  C  C29  1  0.52978270  0.51707715  0.39880465  1
  C  C30  1  0.47896474  0.62139803  0.41896164  1
  C  C31  1  0.46028730  0.54634092  0.85453253  1
  C  C32  1  0.97784451  0.61582107  0.44403507  1
  C  C33  1  0.95816450  0.67347998  0.73752119  1
  C  C34  1  0.97368329  0.49336274  0.53620360  1
  C  C35  1  0.47153869  0.55925122  0.49184893  1
  C  C36  1  0.47021730  0.48292285  0.60119535  1
  C  C37  1  0.47784451  0.61582107  0.05596493  1
  C  C38  1  0.04183550  0.32652002  0.26247881  1
  C  C39  1  0.99222617  0.43095021  0.28266586  1
  C  C40  1  0.53971270  0.45365908  0.14546747  1
  C  C41  1  0.00777383  0.56904979  0.71733414  1
  C  C42  1  0.54183550  0.32652002  0.23752119  1
  C  C43  1  0.46129037  0.61960904  0.69044874  1
  Cl  Cl0  1  0.28318338  0.83137583  0.23303279  1
  Cl  Cl1  1  0.23726222  0.11718522  0.08696790  1
  Cl  Cl2  1  0.76125433  0.95012229  0.98413996  1
  Cl  Cl3  1  0.24027757  0.02385033  0.65997450  1
  Cl  Cl4  1  0.74027757  0.02385033  0.84002550  1
  Cl  Cl5  1  0.73513182  0.11606618  0.05234233  1
  Cl  Cl6  1  0.76236674  0.94039646  0.62458151  1
  Cl  Cl7  1  0.23874567  0.04987771  0.01586004  1
  Cl  Cl8  1  0.75972243  0.97614967  0.34002550  1
  Cl  Cl9  1  0.76273778  0.88281478  0.91303210  1
  Cl  Cl10  1  0.26486818  0.88393382  0.94765767  1
  Cl  Cl11  1  0.78318338  0.83137583  0.26696721  1
  Cl  Cl12  1  0.73726222  0.11718522  0.41303210  1
  Cl  Cl13  1  0.26236674  0.94039646  0.87541849  1
  Cl  Cl14  1  0.71776935  0.11117017  0.69444945  1
  Cl  Cl15  1  0.78223065  0.88882983  0.19444945  1
  Cl  Cl16  1  0.71681662  0.16862417  0.76696721  1
  Cl  Cl17  1  0.23513182  0.11606618  0.44765767  1
  Cl  Cl18  1  0.26273778  0.88281478  0.58696790  1
  Cl  Cl19  1  0.28223065  0.88882983  0.30555055  1
  Cl  Cl20  1  0.76486818  0.88393382  0.55234233  1
  Cl  Cl21  1  0.73763326  0.05960354  0.12458151  1
  Cl  Cl22  1  0.73874567  0.04987771  0.48413996  1
  Cl  Cl23  1  0.26125433  0.95012229  0.51586004  1
  Cl  Cl24  1  0.23763326  0.05960354  0.37541849  1
  Cl  Cl25  1  0.21681662  0.16862417  0.73303279  1
  Cl  Cl26  1  0.25972243  0.97614967  0.15997450  1
  Cl  Cl27  1  0.21776935  0.11117017  0.80555055  1
loop_
_geom_bond_atom_site_label_1
_geom_bond_atom_site_label_2
_geom_bond_distance
_geom_bond_site_symmetry_2
C0 C16 1.362567 1_555
C0 La35 2.435449 1_555
C0 La2 2.641902 1_555
C0 La32 2.739369 1_555
C0 La23 2.770750 1_555
C0 La16 2.949804 1_556
C1 C43 1.359009 1_555
C1 La27 2.418381 1_555
C1 La28 2.663774 1_555
C1 La41 2.672265 1_555
C1 La19 2.781672 1_555
C1 La13 2.817066 1_555
C2 C37 1.362567 1_555
C2 La16 2.425551 1_555
C2 La40 2.695498 1_554
C2 La12 2.700190 1_555
C2 La1 2.734134 1_555
C2 La43 2.818218 1_555
C3 C35 1.337896 1_555
C3 La17 2.481828 1_555
C3 La21 2.719684 1_555
C3 La18 2.752721 1_555
C3 La14 2.790472 1_555
C3 La31 2.857227 1_555
C4 La17 2.457927 1_555
C4 La9 2.645674 1_555
C4 La11 2.759646 1_555
C4 La18 2.791975 1_555
C4 La27 3.019215 1_555
C5 La20 2.448542 1_555
C5 La42 2.681607 1_655
C5 La10 2.709756 1_555
C5 La22 2.755693 1_655
C5 La6 2.790103 1_555
C6 La39 2.418381 1_555
C6 La29 2.663774 1_555
C6 La34 2.672265 1_655
C6 La38 2.781672 1_655
C6 La25 2.817066 1_555
C7 C8 1.354730 1_455
C7 La24 2.430596 1_555
C7 La4 2.665741 1_555
C7 La15 2.688609 1_455
C7 La30 2.790394 1_455
C7 La0 2.823476 1_555
C8 La8 2.459834 1_555
C8 La0 2.703670 1_655
C8 La30 2.714870 1_555
C8 La4 2.772840 1_655
C8 La15 2.809676 1_555
C9 La12 2.481828 1_555
C9 La16 2.719684 1_555
C9 La1 2.752721 1_655
C9 La40 2.790472 1_654
C9 La2 2.857227 1_554
C10 C28 1.356377 1_455
C10 La34 2.445202 1_555
C10 La33 2.692576 1_555
C10 La39 2.724744 1_455
C10 La43 2.740785 1_455
C10 La1 2.828125 1_555
C11 C32 1.362567 1_455
C11 La14 2.425551 1_555
C11 La21 2.695498 1_455
C11 La3 2.700190 1_555
C11 La31 2.734134 1_455
C11 La0 2.818218 1_555
C12 C25 1.359009 1_555
C12 La26 2.448542 1_555
C12 La5 2.681607 1_555
C12 La15 2.709756 1_555
C12 La24 2.755693 1_555
C12 La30 2.790103 1_555
C13 C42 1.354538 1_555
C13 La38 2.446751 1_555
C13 La37 2.693470 1_555
C13 La29 2.714349 1_555
C13 La25 2.735124 1_555
C13 La5 2.848309 1_555
C14 C40 1.354730 1_555
C14 La33 2.459834 1_555
C14 La43 2.703670 1_555
C14 La34 2.714870 1_555
C14 La39 2.772840 1_555
C14 La38 2.809676 1_555
C15 C22 1.356377 1_655
C15 La6 2.445202 1_555
C15 La35 2.692576 1_555
C15 La7 2.724744 1_655
C15 La23 2.740785 1_655
C15 La2 2.828125 1_555
C16 La40 2.425551 1_555
C16 La16 2.695498 1_556
C16 La32 2.700190 1_555
C16 La2 2.734134 1_555
C16 La23 2.818218 1_555
C17 C24 1.354730 1_655
C17 La28 2.430596 1_555
C17 La27 2.665741 1_555
C17 La19 2.688609 1_655
C17 La41 2.790394 1_655
C17 La9 2.823476 1_555
C18 C21 1.354538 1_555
C18 La10 2.446751 1_555
C18 La20 2.693470 1_555
C18 La22 2.714349 1_555
C18 La42 2.735124 1_555
C18 La13 2.848309 1_555
C19 C31 1.354730 1_555
C19 La35 2.459834 1_555
C19 La23 2.703670 1_555
C19 La6 2.714870 1_555
C19 La7 2.772840 1_555
C19 La10 2.809676 1_555
C20 C34 1.362567 1_455
C20 La11 2.435449 1_555
C20 La18 2.641902 1_555
C20 La17 2.739369 1_455
C20 La9 2.770750 1_455
C20 La14 2.949804 1_555
C21 La36 2.448646 1_555
C21 La42 2.642109 1_555
C21 La20 2.767584 1_555
C21 La13 2.785296 1_555
C21 La22 3.015554 1_555
C22 La32 2.457927 1_555
C22 La23 2.645674 1_555
C22 La35 2.759646 1_455
C22 La2 2.791975 1_455
C22 La7 3.019215 1_555
C23 C9 1.337896 1_456
C23 La32 2.481828 1_555
C23 La40 2.719684 1_555
C23 La2 2.752721 1_455
C23 La16 2.790472 1_456
C23 La1 2.857227 1_556
C24 La11 2.459834 1_555
C24 La9 2.703670 1_455
C24 La41 2.714870 1_555
C24 La27 2.772840 1_455
C24 La19 2.809676 1_555
C25 La4 2.418381 1_555
C25 La24 2.663774 1_555
C25 La30 2.672265 1_555
C25 La15 2.781672 1_555
C25 La5 2.817066 1_555
C26 C6 1.359009 1_455
C26 La37 2.448542 1_555
C26 La25 2.681607 1_455
C26 La38 2.709756 1_555
C26 La29 2.755693 1_455
C26 La34 2.790103 1_555
C27 C5 1.359009 1_455
C27 La7 2.418381 1_555
C27 La22 2.663774 1_555
C27 La6 2.672265 1_455
C27 La10 2.781672 1_455
C27 La42 2.817066 1_555
C28 La12 2.457927 1_555
C28 La43 2.645674 1_555
C28 La33 2.759646 1_655
C28 La1 2.791975 1_655
C28 La39 3.019215 1_555
C29 C30 1.356377 1_555
C29 La30 2.445202 1_555
C29 La8 2.692576 1_555
C29 La4 2.724744 1_555
C29 La0 2.740785 1_555
C29 La31 2.828125 1_555
C30 La3 2.457927 1_555
C30 La0 2.645674 1_555
C30 La8 2.759646 1_555
C30 La31 2.791975 1_555
C30 La4 3.019215 1_555
C31 La22 2.430596 1_555
C31 La7 2.665741 1_555
C31 La10 2.688609 1_555
C31 La6 2.790394 1_555
C31 La23 2.823476 1_555
C32 La8 2.435449 1_555
C32 La31 2.641902 1_555
C32 La3 2.739369 1_655
C32 La0 2.770750 1_655
C32 La21 2.949804 1_555
C33 C41 1.354538 1_655
C33 La20 2.448646 1_555
C33 La13 2.642109 1_555
C33 La36 2.767584 1_655
C33 La42 2.785296 1_655
C33 La28 3.015554 1_555
C34 La21 2.425551 1_555
C34 La14 2.695498 1_655
C34 La17 2.700190 1_555
C34 La18 2.734134 1_655
C34 La9 2.818218 1_555
C35 La3 2.481828 1_555
C35 La14 2.719684 1_555
C35 La31 2.752721 1_555
C35 La21 2.790472 1_555
C35 La18 2.857227 1_555
C36 C4 1.356377 1_555
C36 La41 2.445202 1_555
C36 La11 2.692576 1_555
C36 La27 2.724744 1_555
C36 La9 2.740785 1_555
C36 La18 2.828125 1_555
C37 La33 2.435449 1_555
C37 La1 2.641902 1_555
C37 La12 2.739369 1_555
C37 La43 2.770750 1_555
C37 La40 2.949804 1_554
C38 C39 1.354538 1_455
C38 La37 2.448646 1_555
C38 La5 2.642109 1_555
C38 La26 2.767584 1_455
C38 La25 2.785296 1_455
C38 La24 3.015554 1_555
C39 La15 2.446751 1_555
C39 La26 2.693470 1_555
C39 La24 2.714349 1_655
C39 La5 2.735124 1_655
C39 La25 2.848309 1_555
C40 La29 2.430596 1_555
C40 La39 2.665741 1_555
C40 La38 2.688609 1_555
C40 La34 2.790394 1_555
C40 La43 2.823476 1_555
C41 La19 2.446751 1_555
C41 La36 2.693470 1_555
C41 La28 2.714349 1_455
C41 La13 2.735124 1_455
C41 La42 2.848309 1_555
C42 La26 2.448646 1_555
C42 La25 2.642109 1_555
C42 La37 2.767584 1_555
C42 La5 2.785296 1_555
C42 La29 3.015554 1_555
C43 La36 2.448542 1_555
C43 La13 2.681607 1_555
C43 La19 2.709756 1_555
C43 La28 2.755693 1_555
C43 La41 2.790103 1_555
Cl0 La38 2.958836 1_555
Cl0 La5 2.997162 1_555
Cl0 La25 3.053149 1_455
Cl0 La37 3.108243 1_565
Cl1 La34 2.939225 1_555
Cl1 La1 2.983843 1_555
Cl1 La43 3.047287 1_555
Cl1 La33 3.103548 1_545
Cl2 La40 2.999221 1_555
Cl2 La12 3.190276 1_556
Cl2 La32 3.202833 1_665
Cl2 La2 3.295269 1_555
Cl2 La16 3.299451 1_566
Cl3 La28 3.090255 1_445
Cl3 La27 3.098841 1_555
Cl3 La41 3.248058 1_545
Cl3 La19 3.248583 1_555
Cl3 La36 3.504085 1_545
Cl3 La11 3.620440 1_555
Cl4 La22 3.090255 1_545
Cl4 La7 3.098841 1_655
Cl4 La6 3.248058 1_545
Cl4 La10 3.248583 1_555
Cl4 La20 3.504085 1_545
Cl4 La35 3.620440 1_555
Cl5 La43 2.969627 1_555
Cl5 La16 2.996797 1_555
Cl5 La1 3.036140 1_655
Cl5 La12 3.125136 1_545
Cl6 La41 3.040303 1_555
Cl6 La28 3.064478 1_555
Cl6 La11 3.275274 1_665
Cl6 La27 3.297218 1_565
Cl6 La9 3.309297 1_555
Cl7 La16 2.999221 1_555
Cl7 La32 3.190276 1_554
Cl7 La12 3.202833 1_445
Cl7 La1 3.295269 1_555
Cl7 La40 3.299451 1_544
Cl8 La24 3.090255 1_665
Cl8 La4 3.098841 1_555
Cl8 La30 3.248058 1_565
Cl8 La15 3.248583 1_555
Cl8 La26 3.504085 1_565
Cl8 La8 3.620440 1_555
Cl9 La6 2.939225 1_555
Cl9 La2 2.983843 1_555
Cl9 La23 3.047287 1_555
Cl9 La35 3.103548 1_565
Cl10 La23 2.969627 1_555
Cl10 La40 2.996797 1_555
Cl10 La2 3.036140 1_455
Cl10 La32 3.125136 1_565
Cl11 La15 2.958836 1_555
Cl11 La25 2.997162 1_555
Cl11 La5 3.053149 1_555
Cl11 La26 3.108243 1_565
Cl12 La30 2.939225 1_555
Cl12 La31 2.983843 1_555
Cl12 La0 3.047287 1_655
Cl12 La8 3.103548 1_545
Cl13 La6 3.040303 1_455
Cl13 La22 3.064478 1_555
Cl13 La35 3.275274 1_565
Cl13 La7 3.297218 1_565
Cl13 La23 3.309297 1_555
Cl14 La19 3.034374 1_655
Cl14 La27 3.079756 1_555
Cl14 La36 3.250644 1_545
Cl14 La28 3.303390 1_545
Cl14 La13 3.314619 1_555
Cl15 La38 3.034374 1_555
Cl15 La39 3.079756 1_555
Cl15 La37 3.250644 1_665
Cl15 La29 3.303390 1_565
Cl15 La25 3.314619 1_555
Cl16 La10 2.958836 1_555
Cl16 La13 2.997162 1_555
Cl16 La42 3.053149 1_655
Cl16 La20 3.108243 1_545
Cl17 La0 2.969627 1_555
Cl17 La14 2.996797 1_555
Cl17 La31 3.036140 1_555
Cl17 La3 3.125136 1_545
Cl18 La41 2.939225 1_555
Cl18 La18 2.983843 1_555
Cl18 La9 3.047287 1_455
Cl18 La11 3.103548 1_565
Cl19 La15 3.034374 1_455
Cl19 La4 3.079756 1_555
Cl19 La26 3.250644 1_565
Cl19 La24 3.303390 1_565
Cl19 La5 3.314619 1_555
Cl20 La9 2.969627 1_555
Cl20 La21 2.996797 1_555
Cl20 La18 3.036140 1_555
Cl20 La17 3.125136 1_565
Cl21 La34 3.040303 1_655
Cl21 La29 3.064478 1_555
Cl21 La33 3.275274 1_545
Cl21 La39 3.297218 1_545
Cl21 La43 3.309297 1_555
Cl22 La14 2.999221 1_655
Cl22 La17 3.190276 1_555
Cl22 La3 3.202833 1_545
Cl22 La31 3.295269 1_555
Cl22 La21 3.299451 1_545
Cl23 La21 2.999221 1_455
Cl23 La3 3.190276 1_555
Cl23 La17 3.202833 1_565
Cl23 La18 3.295269 1_555
Cl23 La14 3.299451 1_565
Cl24 La30 3.040303 1_555
Cl24 La24 3.064478 1_555
Cl24 La8 3.275274 1_445
Cl24 La4 3.297218 1_545
Cl24 La0 3.309297 1_555
Cl25 La19 2.958836 1_555
Cl25 La42 2.997162 1_555
Cl25 La13 3.053149 1_555
Cl25 La36 3.108243 1_545
Cl26 La29 3.090255 1_565
Cl26 La39 3.098841 1_455
Cl26 La34 3.248058 1_565
Cl26 La38 3.248583 1_555
Cl26 La37 3.504085 1_565
Cl26 La33 3.620440 1_555
Cl27 La10 3.034374 1_555
Cl27 La7 3.079756 1_555
Cl27 La20 3.250644 1_445
Cl27 La22 3.303390 1_545
Cl27 La42 3.314619 1_555
