# generated using pymatgen
data_BiRhO3
_symmetry_space_group_name_H-M   'P 1'
_cell_length_a   5.44007200
_cell_length_b   5.92128000
_cell_length_c   7.81221400
_cell_angle_alpha   90.00000000
_cell_angle_beta   90.00000000
_cell_angle_gamma   90.00000000
_symmetry_Int_Tables_number   1
_chemical_formula_structural   BiRhO3
_chemical_formula_sum   'Bi4 Rh4 O12'
_cell_volume   251.64851803
_cell_formula_units_Z   4
loop_
 _symmetry_equiv_pos_site_id
 _symmetry_equiv_pos_as_xyz
  1  'x, y, z'
loop_
 _atom_site_type_symbol
 _atom_site_label
 _atom_site_symmetry_multiplicity
 _atom_site_fract_x
 _atom_site_fract_y
 _atom_site_fract_z
 _atom_site_occupancy
  Bi  Bi0  1  0.01739000  0.93332300  0.75000000  1
  Bi  Bi1  1  0.48261000  0.43332300  0.75000000  1
  Bi  Bi2  1  0.98261000  0.06667700  0.25000000  1
  Bi  Bi3  1  0.51739000  0.56667700  0.25000000  1
  Rh  Rh0  1  0.00000000  0.50000000  0.50000000  1
  Rh  Rh1  1  0.00000000  0.50000000  0.00000000  1
  Rh  Rh2  1  0.50000000  0.00000000  0.50000000  1
  Rh  Rh3  1  0.50000000  0.00000000  0.00000000  1
  O  O0  1  0.67431000  0.31263000  0.04668700  1
  O  O1  1  0.67431000  0.31263000  0.45331300  1
  O  O2  1  0.32569000  0.68737000  0.95331300  1
  O  O3  1  0.87941400  0.54611200  0.75000000  1
  O  O4  1  0.82569000  0.81263000  0.04668700  1
  O  O5  1  0.82569000  0.81263000  0.45331300  1
  O  O6  1  0.37941400  0.95388800  0.25000000  1
  O  O7  1  0.62058600  0.04611200  0.75000000  1
  O  O8  1  0.32569000  0.68737000  0.54668700  1
  O  O9  1  0.17431000  0.18737000  0.95331300  1
  O  O10  1  0.17431000  0.18737000  0.54668700  1
  O  O11  1  0.12058600  0.45388800  0.25000000  1
loop_
_geom_bond_atom_site_label_1
_geom_bond_atom_site_label_2
_geom_bond_distance
_geom_bond_site_symmetry_2
Bi0 O7 2.259595 1_465
Bi0 O9 2.348270 1_565
Bi0 O10 2.348270 1_565
Bi0 O3 2.412522 1_455
Bi0 O4 2.640153 1_456
Bi0 O5 2.640153 1_455
Bi0 O2 2.730689 1_555
Bi0 O8 2.730689 1_555
Bi1 O3 2.259595 1_555
Bi1 O2 2.348270 1_555
Bi1 O8 2.348270 1_555
Bi1 O7 2.412522 1_555
Bi1 O0 2.640153 1_556
Bi1 O1 2.640153 1_555
Bi1 O9 2.730689 1_555
Bi1 O10 2.730689 1_555
Bi2 O6 2.259595 1_645
Bi2 O5 2.348270 1_545
Bi2 O4 2.348270 1_545
Bi2 O11 2.412522 1_655
Bi2 O10 2.640153 1_655
Bi2 O9 2.640153 1_654
Bi2 O1 2.730689 1_555
Bi2 O0 2.730689 1_555
Bi3 O11 2.259595 1_555
Bi3 O1 2.348270 1_555
Bi3 O0 2.348270 1_555
Bi3 O6 2.412522 1_555
Bi3 O8 2.640153 1_555
Bi3 O2 2.640153 1_554
Bi3 O5 2.730689 1_555
Bi3 O4 2.730689 1_555
O0 Rh3 2.111647 1_555
O0 Rh1 2.122062 1_655
O1 Rh2 2.111647 1_555
O1 Rh0 2.122062 1_655
O2 Rh3 2.111647 1_566
O2 Rh1 2.122062 1_556
O3 Rh0 2.078293 1_655
O3 Rh1 2.078293 1_656
O4 Rh1 2.111647 1_655
O4 Rh3 2.122062 1_565
O5 Rh0 2.111647 1_655
O5 Rh2 2.122062 1_565
O6 Rh3 2.078293 1_565
O6 Rh2 2.078293 1_565
O7 Rh2 2.078293 1_555
O7 Rh3 2.078293 1_556
O8 Rh2 2.111647 1_565
O8 Rh0 2.122062 1_555
O9 Rh1 2.111647 1_556
O9 Rh3 2.122062 1_556
O10 Rh0 2.111647 1_555
O10 Rh2 2.122062 1_555
O11 Rh0 2.078293 1_555
O11 Rh1 2.078293 1_555
