# generated using pymatgen
data_Al2CoO4
_symmetry_space_group_name_H-M   'P 1'
_cell_length_a   19.19913044
_cell_length_b   19.19913044
_cell_length_c   19.19913024
_cell_angle_alpha   17.32776425
_cell_angle_beta   17.32776425
_cell_angle_gamma   17.32776286
_symmetry_Int_Tables_number   1
_chemical_formula_structural   Al2CoO4
_chemical_formula_sum   'Al16 Co8 O32'
_cell_volume   547.81141452
_cell_formula_units_Z   8
loop_
 _symmetry_equiv_pos_site_id
 _symmetry_equiv_pos_as_xyz
  1  'x, y, z'
loop_
 _atom_site_type_symbol
 _atom_site_label
 _atom_site_symmetry_multiplicity
 _atom_site_fract_x
 _atom_site_fract_y
 _atom_site_fract_z
 _atom_site_occupancy
  Al  Al0  1  0.68804000  0.68804000  0.68804000  1
  Al  Al1  1  0.72197200  0.21710400  0.21710400  1
  Al  Al2  1  0.21710400  0.21710400  0.72197200  1
  Al  Al3  1  0.21710400  0.72197200  0.21710400  1
  Al  Al4  1  0.46923800  0.96859900  0.96859900  1
  Al  Al5  1  0.96859900  0.96859900  0.46923800  1
  Al  Al6  1  0.09394300  0.09394300  0.09394300  1
  Al  Al7  1  0.96859900  0.46923800  0.96859900  1
  Al  Al8  1  0.21888900  0.71902300  0.71902300  1
  Al  Al9  1  0.71902300  0.71902300  0.21888900  1
  Al  Al10  1  0.84390300  0.84390300  0.84390300  1
  Al  Al11  1  0.71902300  0.21888900  0.71902300  1
  Al  Al12  1  0.97265900  0.46646600  0.46646600  1
  Al  Al13  1  0.46646600  0.46646600  0.97265900  1
  Al  Al14  1  0.59385400  0.59385400  0.59385400  1
  Al  Al15  1  0.46646600  0.97265900  0.46646600  1
  Co  Co0  1  0.99925500  0.99925500  0.99925500  1
  Co  Co1  1  0.43702600  0.43702600  0.43702600  1
  Co  Co2  1  0.34310500  0.34310500  0.34310500  1
  Co  Co3  1  0.74996100  0.74996100  0.74996100  1
  Co  Co4  1  0.18759900  0.18759900  0.18759900  1
  Co  Co5  1  0.93837800  0.93837800  0.93837800  1
  Co  Co6  1  0.50017400  0.50017400  0.50017400  1
  Co  Co7  1  0.24972700  0.24972700  0.24972700  1
  O  O0  1  0.53170700  0.03711200  0.53170700  1
  O  O1  1  0.40140900  0.40140900  0.40140900  1
  O  O2  1  0.53170700  0.53170700  0.03711200  1
  O  O3  1  0.03711200  0.53170700  0.53170700  1
  O  O4  1  0.26365800  0.81988400  0.26365800  1
  O  O5  1  0.36486700  0.92554900  0.92554900  1
  O  O6  1  0.03466100  0.03466100  0.03466100  1
  O  O7  1  0.15255300  0.15255300  0.15255300  1
  O  O8  1  0.92554900  0.92554900  0.36486700  1
  O  O9  1  0.26365800  0.26365800  0.81988400  1
  O  O10  1  0.81988400  0.26365800  0.26365800  1
  O  O11  1  0.92554900  0.36486700  0.92554900  1
  O  O12  1  0.01316900  0.57137300  0.01316900  1
  O  O13  1  0.11638200  0.67438200  0.67438200  1
  O  O14  1  0.67438200  0.67438200  0.11638200  1
  O  O15  1  0.90303600  0.90303600  0.90303600  1
  O  O16  1  0.01316900  0.01316900  0.57137300  1
  O  O17  1  0.78482400  0.78482400  0.78482400  1
  O  O18  1  0.57137300  0.01316900  0.01316900  1
  O  O19  1  0.67438200  0.11638200  0.67438200  1
  O  O20  1  0.76097800  0.32608900  0.76097800  1
  O  O21  1  0.86597200  0.42461700  0.42461700  1
  O  O22  1  0.65576100  0.65576100  0.65576100  1
  O  O23  1  0.76097800  0.76097800  0.32608900  1
  O  O24  1  0.42461700  0.42461700  0.86597200  1
  O  O25  1  0.53493000  0.53493000  0.53493000  1
  O  O26  1  0.32608900  0.76097800  0.76097800  1
  O  O27  1  0.42461700  0.86597200  0.42461700  1
  O  O28  1  0.62755400  0.16559600  0.16559600  1
  O  O29  1  0.16559600  0.16559600  0.62755400  1
  O  O30  1  0.28417500  0.28417500  0.28417500  1
  O  O31  1  0.16559600  0.62755400  0.16559600  1
loop_
_geom_bond_atom_site_label_1
_geom_bond_atom_site_label_2
_geom_bond_distance
_geom_bond_site_symmetry_2
Al0 O0 1.822766 1_565
Al0 O3 1.822766 1_655
Al0 O2 1.822766 1_556
Al0 O22 1.830845 1_555
Al1 O1 1.915162 1_555
Al1 O6 1.925609 1_655
Al1 O8 1.933455 1_545
Al1 O11 1.933455 1_554
Al1 O2 1.973109 1_555
Al1 O0 1.973109 1_555
Al2 O1 1.915162 1_555
Al2 O6 1.925610 1_556
Al2 O11 1.933455 1_455
Al2 O5 1.933455 1_545
Al2 O3 1.973109 1_555
Al2 O0 1.973109 1_555
Al3 O1 1.915162 1_555
Al3 O6 1.925609 1_565
Al3 O8 1.933455 1_455
Al3 O5 1.933455 1_554
Al3 O2 1.973109 1_555
Al3 O3 1.973109 1_555
Al4 O14 1.931405 1_556
Al4 O19 1.931405 1_565
Al4 O7 1.932129 1_566
Al4 O17 1.935510 1_555
Al4 O9 1.941153 1_565
Al4 O4 1.941153 1_556
Al5 O19 1.931405 1_565
Al5 O13 1.931405 1_655
Al5 O7 1.932129 1_665
Al5 O17 1.935511 1_555
Al5 O4 1.941153 1_655
Al5 O10 1.941153 1_565
Al6 O5 1.924339 1_544
Al6 O11 1.924339 1_454
Al6 O8 1.924339 1_445
Al6 O10 1.929725 1_455
Al6 O4 1.929725 1_545
Al6 O9 1.929725 1_554
Al7 O14 1.931405 1_556
Al7 O13 1.931405 1_655
Al7 O7 1.932129 1_656
Al7 O17 1.935510 1_555
Al7 O9 1.941153 1_655
Al7 O10 1.941153 1_556
Al8 O24 1.927179 1_555
Al8 O27 1.927179 1_555
Al8 O16 1.937591 1_565
Al8 O12 1.937591 1_556
Al8 O15 1.938971 1_455
Al8 O25 1.939472 1_555
Al9 O27 1.927179 1_555
Al9 O21 1.927179 1_555
Al9 O18 1.937591 1_565
Al9 O12 1.937591 1_655
Al9 O15 1.938971 1_554
Al9 O25 1.939472 1_555
Al10 O12 1.932339 1_656
Al10 O18 1.932339 1_566
Al10 O16 1.932339 1_665
Al10 O19 1.939724 1_565
Al10 O13 1.939724 1_655
Al10 O14 1.939724 1_556
Al11 O24 1.927179 1_555
Al11 O21 1.927179 1_555
Al11 O16 1.937591 1_655
Al11 O18 1.937591 1_556
Al11 O15 1.938971 1_545
Al11 O25 1.939472 1_555
Al12 O29 1.888214 1_655
Al12 O31 1.888214 1_655
Al12 O23 1.922367 1_555
Al12 O20 1.922367 1_555
Al12 O30 1.930299 1_655
Al12 O22 2.053785 1_555
Al13 O28 1.888214 1_556
Al13 O31 1.888214 1_556
Al13 O26 1.922367 1_555
Al13 O20 1.922367 1_555
Al13 O30 1.930300 1_556
Al13 O22 2.053786 1_555
Al14 O26 1.920725 1_555
Al14 O20 1.920725 1_555
Al14 O23 1.920725 1_555
Al14 O27 1.935546 1_555
Al14 O21 1.935546 1_555
Al14 O24 1.935546 1_555
Al15 O29 1.888214 1_565
Al15 O28 1.888214 1_565
Al15 O23 1.922367 1_555
Al15 O26 1.922367 1_555
Al15 O30 1.930299 1_565
Al15 O22 2.053785 1_555
Co0 O31 1.942350 1_656
Co0 O28 1.942350 1_566
Co0 O29 1.942350 1_665
Co0 O6 2.008206 1_666
Co1 O10 1.979096 1_555
Co1 O4 1.979096 1_555
Co1 O9 1.979096 1_555
Co1 O1 2.020174 1_555
Co2 O28 2.039632 1_555
Co2 O31 2.039632 1_555
Co2 O29 2.039632 1_555
Co2 O3 2.130916 1_555
Co2 O0 2.130916 1_555
Co2 O2 2.130916 1_555
Co3 O17 1.977408 1_555
Co3 O11 1.979179 1_555
Co3 O5 1.979179 1_555
Co3 O8 1.979179 1_555
Co4 O18 1.977557 1_555
Co4 O12 1.977557 1_555
Co4 O16 1.977557 1_555
Co4 O7 1.987787 1_555
Co5 O26 1.987134 1_655
Co5 O20 1.987134 1_565
Co5 O23 1.987134 1_556
Co5 O15 2.004576 1_555
Co6 O25 1.971339 1_555
Co6 O13 1.979849 1_555
Co6 O19 1.979849 1_555
Co6 O14 1.979849 1_555
Co7 O30 1.953869 1_555
Co7 O21 1.973095 1_455
Co7 O27 1.973095 1_545
Co7 O24 1.973095 1_554
