# generated using pymatgen
data_YH7C4O11
_symmetry_space_group_name_H-M   'P 1'
_cell_length_a   8.81163000
_cell_length_b   8.81163000
_cell_length_c   12.81185600
_cell_angle_alpha   90.00000000
_cell_angle_beta   90.00000000
_cell_angle_gamma   90.00000000
_symmetry_Int_Tables_number   1
_chemical_formula_structural   YH7C4O11
_chemical_formula_sum   'Y4 H28 C16 O44'
_cell_volume   994.77429471
_cell_formula_units_Z   4
loop_
 _symmetry_equiv_pos_site_id
 _symmetry_equiv_pos_as_xyz
  1  'x, y, z'
loop_
 _atom_site_type_symbol
 _atom_site_label
 _atom_site_symmetry_multiplicity
 _atom_site_fract_x
 _atom_site_fract_y
 _atom_site_fract_z
 _atom_site_occupancy
  Y  Y0  1  0.00000000  0.50000000  0.45936700  1
  Y  Y1  1  0.50000000  0.00000000  0.54063300  1
  Y  Y2  1  0.50000000  0.00000000  0.04063300  1
  Y  Y3  1  0.00000000  0.50000000  0.95936700  1
  H  H0  1  0.82097000  0.92646000  0.21311900  1
  H  H1  1  0.49267100  0.30517600  0.82869900  1
  H  H2  1  0.58957800  0.00185900  0.77625300  1
  H  H3  1  0.50000000  0.50000000  0.77708700  1
  H  H4  1  0.30517600  0.50732900  0.17130100  1
  H  H5  1  0.50732900  0.69482400  0.82869900  1
  H  H6  1  0.99267100  0.80517600  0.67130100  1
  H  H7  1  0.67903000  0.57354000  0.28688100  1
  H  H8  1  0.00732900  0.19482400  0.67130100  1
  H  H9  1  0.50000000  0.50000000  0.22291300  1
  H  H10  1  0.00000000  0.00000000  0.72291300  1
  H  H11  1  0.08957800  0.50185900  0.72374700  1
  H  H12  1  0.92646000  0.17903000  0.78688100  1
  H  H13  1  0.32097000  0.42646000  0.28688100  1
  H  H14  1  0.17903000  0.07354000  0.21311900  1
  H  H15  1  0.99814100  0.58957800  0.22374700  1
  H  H16  1  0.57354000  0.32097000  0.71311900  1
  H  H17  1  0.19482400  0.99267100  0.32869900  1
  H  H18  1  0.91042200  0.49814100  0.72374700  1
  H  H19  1  0.80517600  0.00732900  0.32869900  1
  H  H20  1  0.00185900  0.41042200  0.22374700  1
  H  H21  1  0.07354000  0.82097000  0.78688100  1
  H  H22  1  0.41042200  0.99814100  0.77625300  1
  H  H23  1  0.42646000  0.67903000  0.71311900  1
  H  H24  1  0.00000000  0.00000000  0.27708700  1
  H  H25  1  0.69482400  0.49267100  0.17130100  1
  H  H26  1  0.50185900  0.91042200  0.27625300  1
  H  H27  1  0.49814100  0.08957800  0.27625300  1
  C  C0  1  0.77373400  0.20421600  0.94705400  1
  C  C1  1  0.72601400  0.28332500  0.04956900  1
  C  C2  1  0.70421600  0.72626600  0.44705400  1
  C  C3  1  0.29578400  0.27373400  0.44705400  1
  C  C4  1  0.22626600  0.79578400  0.94705400  1
  C  C5  1  0.71667500  0.72601400  0.95043100  1
  C  C6  1  0.72626600  0.29578400  0.55294600  1
  C  C7  1  0.21667500  0.22601400  0.54956900  1
  C  C8  1  0.22601400  0.78332500  0.45043100  1
  C  C9  1  0.78332500  0.77398600  0.54956900  1
  C  C10  1  0.27398600  0.71667500  0.04956900  1
  C  C11  1  0.20421600  0.22626600  0.05294600  1
  C  C12  1  0.79578400  0.77373400  0.05294600  1
  C  C13  1  0.77398600  0.21667500  0.45043100  1
  C  C14  1  0.27373400  0.70421600  0.55294600  1
  C  C15  1  0.28332500  0.27398600  0.95043100  1
  O  O0  1  0.12474700  0.72007200  0.39646200  1
  O  O1  1  0.77992800  0.62474700  0.89646200  1
  O  O2  1  0.09159900  0.29134000  0.57138000  1
  O  O3  1  0.37339400  0.44730700  0.21836900  1
  O  O4  1  0.50000000  0.00000000  0.23125100  1
  O  O5  1  0.40840100  0.20866000  0.92862000  1
  O  O6  1  0.70866000  0.09159900  0.42862000  1
  O  O7  1  0.79134000  0.40840100  0.07138000  1
  O  O8  1  0.50000000  0.00000000  0.73125100  1
  O  O9  1  0.41306900  0.20080100  0.42108900  1
  O  O10  1  0.87525300  0.27992800  0.39646200  1
  O  O11  1  0.08693100  0.29919900  0.07891100  1
  O  O12  1  0.22007200  0.37525300  0.89646200  1
  O  O13  1  0.11695300  0.73549200  0.89692500  1
  O  O14  1  0.00000000  0.50000000  0.76874900  1
  O  O15  1  0.20866000  0.59159900  0.07138000  1
  O  O16  1  0.26450800  0.11695300  0.10307500  1
  O  O17  1  0.00000000  0.50000000  0.26874900  1
  O  O18  1  0.38304700  0.76450800  0.60307500  1
  O  O19  1  0.55269300  0.37339400  0.78163100  1
  O  O20  1  0.88304700  0.26450800  0.89692500  1
  O  O21  1  0.37525300  0.77992800  0.10353800  1
  O  O22  1  0.76450800  0.61695300  0.39692500  1
  O  O23  1  0.29919900  0.91306900  0.92108900  1
  O  O24  1  0.79919900  0.41306900  0.57891100  1
  O  O25  1  0.12660600  0.05269300  0.28163100  1
  O  O26  1  0.59159900  0.79134000  0.92862000  1
  O  O27  1  0.58693100  0.79919900  0.42108900  1
  O  O28  1  0.44730700  0.62660600  0.78163100  1
  O  O29  1  0.61695300  0.23549200  0.60307500  1
  O  O30  1  0.72007200  0.87525300  0.60353800  1
  O  O31  1  0.73549200  0.88304700  0.10307500  1
  O  O32  1  0.27992800  0.12474700  0.60353800  1
  O  O33  1  0.05269300  0.87339400  0.71836900  1
  O  O34  1  0.90840100  0.70866000  0.57138000  1
  O  O35  1  0.70080100  0.08693100  0.92108900  1
  O  O36  1  0.62474700  0.22007200  0.10353800  1
  O  O37  1  0.23549200  0.38304700  0.39692500  1
  O  O38  1  0.94730700  0.12660600  0.71836900  1
  O  O39  1  0.29134000  0.90840100  0.42862000  1
  O  O40  1  0.20080100  0.58693100  0.57891100  1
  O  O41  1  0.91306900  0.70080100  0.07891100  1
  O  O42  1  0.87339400  0.94730700  0.28163100  1
  O  O43  1  0.62660600  0.55269300  0.21836900  1
loop_
_geom_bond_atom_site_label_1
_geom_bond_atom_site_label_2
_geom_bond_distance
_geom_bond_site_symmetry_2
H0 O42 1.008765 1_555
H0 O31 1.643586 1_555
H1 O19 1.002350 1_555
H1 O5 1.706904 1_555
H2 O8 0.977613 1_555
H3 O19 1.209772 1_555
H3 O28 1.209772 1_555
H4 O3 1.002350 1_555
H4 O15 1.706904 1_555
H5 O28 1.002350 1_555
H5 O26 1.706904 1_555
H6 O33 1.002350 1_655
H6 O34 1.706904 1_555
H7 O43 1.008765 1_555
H7 O22 1.643586 1_555
H8 O38 1.002350 1_455
H8 O2 1.706904 1_555
H9 O43 1.209772 1_555
H9 O3 1.209772 1_555
H10 O33 1.209772 1_545
H10 O38 1.209772 1_455
H11 O14 0.977613 1_555
H12 O38 1.008765 1_555
H12 O20 1.643586 1_555
H13 O3 1.008765 1_555
H13 O37 1.643586 1_555
H14 O25 1.008765 1_555
H14 O16 1.643586 1_555
H15 O17 0.977613 1_655
H16 O19 1.008765 1_555
H16 O29 1.643586 1_555
H17 O25 1.002350 1_565
H17 O39 1.706904 1_555
H18 O14 0.977613 1_655
H19 O42 1.002350 1_545
H19 O6 1.706904 1_555
H20 O17 0.977613 1_555
H21 O33 1.008765 1_555
H21 O13 1.643586 1_555
H22 O8 0.977613 1_565
H23 O28 1.008765 1_555
H23 O18 1.643586 1_555
H24 O42 1.209772 1_445
H24 O25 1.209772 1_555
H25 O43 1.002350 1_555
H25 O7 1.706904 1_555
H26 O4 0.977613 1_565
H27 O4 0.977613 1_555
C0 O35 1.261641 1_555
C0 O20 1.273786 1_555
C1 O36 1.258965 1_555
C1 O7 1.274406 1_555
C2 O27 1.261641 1_555
C2 O22 1.273786 1_555
C3 O9 1.261641 1_555
C3 O37 1.273786 1_555
C4 O23 1.261641 1_555
C4 O13 1.273786 1_555
C5 O1 1.258965 1_555
C5 O26 1.274406 1_555
C6 O24 1.261641 1_555
C6 O29 1.273786 1_555
C7 O32 1.258965 1_555
C7 O2 1.274406 1_555
C8 O0 1.258965 1_555
C8 O39 1.274406 1_555
C9 O30 1.258965 1_555
C9 O34 1.274406 1_555
C10 O21 1.258965 1_555
C10 O15 1.274406 1_555
C11 O11 1.261641 1_555
C11 O16 1.273786 1_555
C12 O41 1.261641 1_555
C12 O31 1.273786 1_555
C13 O10 1.258965 1_555
C13 O6 1.274406 1_555
C14 O40 1.261641 1_555
C14 O18 1.273786 1_555
C15 O12 1.258965 1_555
C15 O5 1.274406 1_555
O0 Y0 2.370293 1_555
O1 Y3 2.370293 1_655
O2 Y0 2.468105 1_555
O4 Y2 2.442170 1_555
O5 Y2 2.468105 1_556
O6 Y1 2.468105 1_555
O7 Y3 2.468105 1_654
O8 Y1 2.442170 1_555
O9 Y1 2.462361 1_555
O10 Y0 2.370293 1_655
O11 Y3 2.462361 1_554
O12 Y3 2.370293 1_555
O13 Y3 2.451108 1_555
O14 Y3 2.442170 1_555
O15 Y3 2.468105 1_554
O16 Y2 2.451108 1_555
O17 Y0 2.442170 1_555
O18 Y1 2.451108 1_565
O20 Y3 2.451108 1_655
O21 Y2 2.370293 1_565
O22 Y0 2.451108 1_655
O23 Y2 2.462361 1_566
O24 Y0 2.462361 1_655
O26 Y2 2.468105 1_566
O27 Y1 2.462361 1_565
O29 Y1 2.451108 1_555
O30 Y1 2.370293 1_565
O31 Y2 2.451108 1_565
O32 Y1 2.370293 1_555
O34 Y0 2.468105 1_655
O35 Y2 2.462361 1_556
O36 Y2 2.370293 1_555
O37 Y0 2.451108 1_555
O39 Y1 2.468105 1_565
O40 Y0 2.462361 1_555
O41 Y3 2.462361 1_654
