# generated using pymatgen
data_Na3La2(BO3)3
_symmetry_space_group_name_H-M   'P 1'
_cell_length_a   6.77767485
_cell_length_b   6.77767485
_cell_length_c   5.18312500
_cell_angle_alpha   90.00000000
_cell_angle_beta   90.00000000
_cell_angle_gamma   114.28024307
_symmetry_Int_Tables_number   1
_chemical_formula_structural   Na3La2(BO3)3
_chemical_formula_sum   'Na3 La2 B3 O9'
_cell_volume   217.03576939
_cell_formula_units_Z   1
loop_
 _symmetry_equiv_pos_site_id
 _symmetry_equiv_pos_as_xyz
  1  'x, y, z'
loop_
 _atom_site_type_symbol
 _atom_site_label
 _atom_site_symmetry_multiplicity
 _atom_site_fract_x
 _atom_site_fract_y
 _atom_site_fract_z
 _atom_site_occupancy
  Na  Na0  1  0.45756900  0.45756900  0.00000000  1
  Na  Na1  1  0.12908200  0.12908200  0.50000000  1
  Na  Na2  1  0.71145700  0.71145700  0.50000000  1
  La  La0  1  0.61687800  0.04325100  0.00000000  1
  La  La1  1  0.04325100  0.61687800  0.00000000  1
  B  B0  1  0.72156100  0.29185700  0.50000000  1
  B  B1  1  0.05800600  0.05800600  0.00000000  1
  B  B2  1  0.29185700  0.72156100  0.50000000  1
  O  O0  1  0.86772600  0.86772600  0.00000000  1
  O  O1  1  0.04515700  0.25541900  0.00000000  1
  O  O2  1  0.09970000  0.74973400  0.50000000  1
  O  O3  1  0.70064900  0.38290300  0.73362400  1
  O  O4  1  0.25541900  0.04515700  0.00000000  1
  O  O5  1  0.74973400  0.09970000  0.50000000  1
  O  O6  1  0.38290300  0.70064900  0.73362400  1
  O  O7  1  0.70064900  0.38290300  0.26637600  1
  O  O8  1  0.38290300  0.70064900  0.26637600  1
loop_
_geom_bond_atom_site_label_1
_geom_bond_atom_site_label_2
_geom_bond_distance
_geom_bond_site_symmetry_2
Na0 O7 2.358454 1_555
Na0 O8 2.358454 1_555
Na0 O6 2.358454 1_554
Na0 O3 2.358454 1_554
Na0 O4 2.557488 1_555
Na0 O1 2.557488 1_555
Na1 O2 2.495821 1_545
Na1 O5 2.495821 1_455
Na2 O6 2.509239 1_555
Na2 O3 2.509239 1_555
Na2 O7 2.509239 1_555
Na2 O8 2.509239 1_555
Na2 O5 2.535759 1_565
Na2 O2 2.535759 1_655
Na2 O0 2.834996 1_556
Na2 O0 2.834996 1_555
La0 O0 2.443200 1_545
La0 O4 2.455192 1_555
La0 O7 2.540298 1_555
La0 O3 2.540298 1_554
La0 O8 2.604719 1_545
La0 O6 2.604719 1_544
La0 O1 2.657238 1_655
La0 O5 2.718468 1_554
La0 O5 2.718468 1_555
La1 O0 2.443200 1_455
La1 O1 2.455192 1_555
La1 O8 2.540298 1_555
La1 O6 2.540298 1_554
La1 O7 2.604719 1_455
La1 O3 2.604719 1_454
La1 O4 2.657238 1_565
La1 O2 2.718468 1_554
La1 O2 2.718468 1_555
B0 O5 1.391822 1_555
B0 O3 1.392512 1_555
B0 O7 1.392512 1_555
B1 O4 1.376103 1_555
B1 O1 1.376103 1_555
B1 O0 1.399500 1_445
B2 O2 1.391822 1_555
B2 O6 1.392512 1_555
B2 O8 1.392512 1_555
