# generated using pymatgen
data_Cs3Mo5P7O24
_symmetry_space_group_name_H-M   'P 1'
_cell_length_a   12.54066211
_cell_length_b   12.54066211
_cell_length_c   9.60148300
_cell_angle_alpha   90.00000000
_cell_angle_beta   90.00000000
_cell_angle_gamma   120.00000058
_symmetry_Int_Tables_number   1
_chemical_formula_structural   Cs3Mo5P7O24
_chemical_formula_sum   'Cs6 Mo10 P14 O48'
_cell_volume   1307.70528716
_cell_formula_units_Z   2
loop_
 _symmetry_equiv_pos_site_id
 _symmetry_equiv_pos_as_xyz
  1  'x, y, z'
loop_
 _atom_site_type_symbol
 _atom_site_label
 _atom_site_symmetry_multiplicity
 _atom_site_fract_x
 _atom_site_fract_y
 _atom_site_fract_z
 _atom_site_occupancy
  Cs  Cs0  1  0.60585500  0.68734600  0.52585500  1
  Cs  Cs1  1  0.31265400  0.91850900  0.52585500  1
  Cs  Cs2  1  0.39414500  0.08149100  0.02585500  1
  Cs  Cs3  1  0.68734600  0.60585500  0.02585500  1
  Cs  Cs4  1  0.91850900  0.31265400  0.02585500  1
  Cs  Cs5  1  0.08149100  0.39414500  0.52585500  1
  Mo  Mo0  1  0.19384700  0.67755200  0.12144900  1
  Mo  Mo1  1  0.67755200  0.19384700  0.62144900  1
  Mo  Mo2  1  0.00000000  0.00000000  0.97326700  1
  Mo  Mo3  1  0.51629500  0.32244800  0.62144900  1
  Mo  Mo4  1  0.00000000  0.00000000  0.47326700  1
  Mo  Mo5  1  0.48370500  0.80615300  0.12144900  1
  Mo  Mo6  1  0.66666700  0.33333300  0.34907000  1
  Mo  Mo7  1  0.80615300  0.48370500  0.62144900  1
  Mo  Mo8  1  0.33333300  0.66666700  0.84907000  1
  Mo  Mo9  1  0.32244800  0.51629500  0.12144900  1
  P  P0  1  0.14905200  0.23059300  0.22697500  1
  P  P1  1  0.65282500  0.06828400  0.29639500  1
  P  P2  1  0.41545900  0.34717500  0.29639500  1
  P  P3  1  0.58454100  0.93171600  0.79639500  1
  P  P4  1  0.33333300  0.66666700  0.29962100  1
  P  P5  1  0.66666700  0.33333300  0.79962100  1
  P  P6  1  0.34717500  0.41545900  0.79639500  1
  P  P7  1  0.76940700  0.91845900  0.22697500  1
  P  P8  1  0.93171600  0.58454100  0.29639500  1
  P  P9  1  0.23059300  0.14905200  0.72697500  1
  P  P10  1  0.85094800  0.08154100  0.72697500  1
  P  P11  1  0.91845900  0.76940700  0.72697500  1
  P  P12  1  0.08154100  0.85094800  0.22697500  1
  P  P13  1  0.06828400  0.65282500  0.79639500  1
  O  O0  1  0.34267500  0.40803500  0.95604000  1
  O  O1  1  0.04453300  0.76025900  0.73626200  1
  O  O2  1  0.52775900  0.96625700  0.23859900  1
  O  O3  1  0.07355300  0.90903800  0.09271500  1
  O  O4  1  0.19022000  0.82568300  0.22261400  1
  O  O5  1  0.83548500  0.92644700  0.09271500  1
  O  O6  1  0.09096200  0.16451500  0.09271500  1
  O  O7  1  0.49083000  0.80668500  0.73387200  1
  O  O8  1  0.82568300  0.19022000  0.72261400  1
  O  O9  1  0.45870100  0.66485200  0.00047300  1
  O  O10  1  0.56150200  0.03374300  0.73859900  1
  O  O11  1  0.16451500  0.09096200  0.59271500  1
  O  O12  1  0.17431700  0.36453600  0.22261400  1
  O  O13  1  0.19331500  0.68414500  0.73387200  1
  O  O14  1  0.43849800  0.47224100  0.23859900  1
  O  O15  1  0.80668500  0.49083000  0.23387200  1
  O  O16  1  0.79384900  0.33514800  0.50047300  1
  O  O17  1  0.50917000  0.31585500  0.23387200  1
  O  O18  1  0.16916800  0.07598700  0.85776500  1
  O  O19  1  0.90903800  0.07355300  0.59271500  1
  O  O20  1  0.68414500  0.19331500  0.23387200  1
  O  O21  1  0.59196500  0.93464000  0.95604000  1
  O  O22  1  0.36453600  0.17431700  0.72261400  1
  O  O23  1  0.95546700  0.71572600  0.23626200  1
  O  O24  1  0.96625700  0.52775900  0.73859900  1
  O  O25  1  0.33514800  0.79384900  0.00047300  1
  O  O26  1  0.76025900  0.04453300  0.23626200  1
  O  O27  1  0.03374300  0.56150200  0.23859900  1
  O  O28  1  0.66485200  0.45870100  0.50047300  1
  O  O29  1  0.92644700  0.83548500  0.59271500  1
  O  O30  1  0.93464000  0.59196500  0.45604000  1
  O  O31  1  0.83083200  0.90681900  0.35776500  1
  O  O32  1  0.23974100  0.28427400  0.73626200  1
  O  O33  1  0.65732500  0.06536000  0.45604000  1
  O  O34  1  0.92401300  0.09318100  0.85776500  1
  O  O35  1  0.90681900  0.83083200  0.85776500  1
  O  O36  1  0.80978000  0.63546400  0.72261400  1
  O  O37  1  0.63546400  0.80978000  0.22261400  1
  O  O38  1  0.31585500  0.50917000  0.73387200  1
  O  O39  1  0.47224100  0.43849800  0.73859900  1
  O  O40  1  0.07598700  0.16916800  0.35776500  1
  O  O41  1  0.09318100  0.92401300  0.35776500  1
  O  O42  1  0.06536000  0.65732500  0.95604000  1
  O  O43  1  0.20615100  0.54129900  0.00047300  1
  O  O44  1  0.54129900  0.20615100  0.50047300  1
  O  O45  1  0.28427400  0.23974100  0.23626200  1
  O  O46  1  0.40803500  0.34267500  0.45604000  1
  O  O47  1  0.71572600  0.95546700  0.73626200  1
loop_
_geom_bond_atom_site_label_1
_geom_bond_atom_site_label_2
_geom_bond_distance
_geom_bond_site_symmetry_2
Cs0 O31 3.220996 1_555
Cs0 O37 3.225278 1_555
Cs0 O7 3.235501 1_555
Cs0 O28 3.309077 1_555
Cs0 O39 3.389675 1_555
Cs0 O36 3.492318 1_555
Cs0 O29 3.543766 1_555
Cs0 O47 3.557061 1_555
Cs0 O14 3.691494 1_555
Cs0 O38 3.752584 1_555
Cs0 O46 3.816261 1_555
Cs0 P4 3.947072 1_555
Cs1 O41 3.220996 1_555
Cs1 O4 3.225280 1_555
Cs1 O13 3.235501 1_555
Cs1 O44 3.309076 1_565
Cs1 O10 3.389675 1_565
Cs1 O22 3.492328 1_565
Cs1 O11 3.543766 1_565
Cs1 O1 3.557061 1_555
Cs1 O2 3.691494 1_555
Cs1 O7 3.752584 1_555
Cs1 O33 3.816261 1_565
Cs1 P4 3.947061 1_555
Cs2 O18 3.220996 1_554
Cs2 O22 3.225284 1_554
Cs2 O17 3.235501 1_555
Cs2 O25 3.309077 1_545
Cs2 O2 3.389675 1_545
Cs2 O4 3.492325 1_545
Cs2 O3 3.543766 1_545
Cs2 O45 3.557061 1_555
Cs2 O10 3.691494 1_554
Cs2 O20 3.752584 1_555
Cs2 O21 3.816261 1_544
Cs2 P5 3.947067 1_554
Cs3 O35 3.220996 1_554
Cs3 O36 3.225278 1_554
Cs3 O15 3.235501 1_555
Cs3 O9 3.309077 1_555
Cs3 O14 3.389675 1_555
Cs3 O37 3.492318 1_555
Cs3 O5 3.543766 1_555
Cs3 O23 3.557061 1_555
Cs3 O39 3.691494 1_554
Cs3 O17 3.752584 1_555
Cs3 O0 3.816261 1_554
Cs3 P5 3.947072 1_554
Cs4 O34 3.220996 1_554
Cs4 O8 3.225280 1_554
Cs4 O20 3.235501 1_555
Cs4 O43 3.309076 1_655
Cs4 O27 3.389675 1_655
Cs4 O12 3.492328 1_655
Cs4 O6 3.543766 1_655
Cs4 O26 3.557061 1_555
Cs4 O24 3.691494 1_554
Cs4 O15 3.752584 1_555
Cs4 O42 3.816261 1_654
Cs4 P5 3.947061 1_554
Cs5 O40 3.220996 1_555
Cs5 O12 3.225284 1_555
Cs5 O38 3.235501 1_555
Cs5 O16 3.309077 1_455
Cs5 O24 3.389675 1_455
Cs5 O8 3.492325 1_455
Cs5 O19 3.543766 1_455
Cs5 O32 3.557061 1_555
Cs5 O27 3.691494 1_555
Cs5 O13 3.752584 1_555
Cs5 O30 3.816261 1_455
Cs5 P4 3.947067 1_555
Mo0 O25 2.007957 1_555
Mo0 O4 2.116827 1_555
Mo0 O27 2.119547 1_555
Mo0 O43 2.134555 1_555
Mo0 O42 2.185002 1_554
Mo0 P4 2.498765 1_555
Mo1 O16 2.007957 1_555
Mo1 O8 2.116827 1_555
Mo1 O10 2.119547 1_555
Mo1 O44 2.134555 1_555
Mo1 O33 2.185002 1_555
Mo1 P5 2.498765 1_555
Mo2 O6 2.125939 1_556
Mo2 O5 2.125939 1_446
Mo2 O3 2.125939 1_546
Mo2 O35 2.148718 1_445
Mo2 O18 2.148718 1_555
Mo2 O34 2.148718 1_455
Mo3 O44 2.007957 1_555
Mo3 O22 2.116833 1_555
Mo3 O39 2.119547 1_555
Mo3 O28 2.134555 1_555
Mo3 O46 2.185002 1_555
Mo3 P5 2.498774 1_555
Mo4 O11 2.125939 1_555
Mo4 O29 2.125939 1_445
Mo4 O19 2.125939 1_455
Mo4 O31 2.148718 1_445
Mo4 O40 2.148718 1_555
Mo4 O41 2.148718 1_545
Mo5 O9 2.007957 1_555
Mo5 O37 2.116838 1_555
Mo5 O2 2.119547 1_555
Mo5 O25 2.134555 1_555
Mo5 O21 2.185002 1_554
Mo5 P4 2.498770 1_555
Mo6 O16 2.149719 1_555
Mo6 O44 2.149724 1_555
Mo6 O28 2.149729 1_555
Mo6 O20 2.177053 1_555
Mo6 O15 2.177059 1_555
Mo6 O17 2.177063 1_555
Mo7 O28 2.007957 1_555
Mo7 O36 2.116838 1_555
Mo7 O24 2.119547 1_555
Mo7 O16 2.134555 1_555
Mo7 O30 2.185002 1_555
Mo7 P5 2.498770 1_555
Mo8 O25 2.149719 1_556
Mo8 O43 2.149724 1_556
Mo8 O9 2.149729 1_556
Mo8 O13 2.177053 1_555
Mo8 O7 2.177059 1_555
Mo8 O38 2.177063 1_555
Mo9 O43 2.007957 1_555
Mo9 O12 2.116833 1_555
Mo9 O14 2.119547 1_555
Mo9 O9 2.134555 1_555
Mo9 O0 2.185002 1_554
Mo9 P4 2.498774 1_555
O0 P6 1.534980 1_555
O1 P13 1.624366 1_555
O1 P11 1.643842 1_455
O2 P1 1.548606 1_565
O3 P12 1.508466 1_555
O4 P12 1.546441 1_555
O5 P7 1.508466 1_555
O6 P0 1.508466 1_555
O7 P3 1.535358 1_555
O8 P10 1.546441 1_555
O10 P3 1.548606 1_545
O11 P9 1.508466 1_555
O12 P0 1.546428 1_555
O13 P13 1.535358 1_555
O14 P2 1.548606 1_555
O15 P8 1.535358 1_555
O17 P2 1.535358 1_555
O18 P9 1.517929 1_555
O19 P10 1.508466 1_555
O20 P1 1.535358 1_555
O21 P3 1.534980 1_555
O22 P9 1.546428 1_555
O23 P8 1.624366 1_555
O23 P12 1.643842 1_655
O24 P13 1.548606 1_655
O26 P1 1.624366 1_555
O26 P7 1.643842 1_545
O27 P8 1.548606 1_455
O29 P11 1.508466 1_555
O30 P8 1.534980 1_555
O31 P7 1.517929 1_555
O32 P6 1.624366 1_555
O32 P9 1.643842 1_555
O33 P1 1.534980 1_555
O34 P10 1.517929 1_555
O35 P11 1.517929 1_555
O36 P11 1.546432 1_555
O37 P7 1.546432 1_555
O38 P6 1.535358 1_555
O39 P6 1.548606 1_555
O40 P0 1.517929 1_555
O41 P12 1.517929 1_555
O42 P13 1.534980 1_555
O45 P2 1.624366 1_555
O45 P0 1.643842 1_555
O46 P2 1.534980 1_555
O47 P3 1.624366 1_555
O47 P10 1.643842 1_565
