# generated using pymatgen
data_Sr8Fe3N8
_symmetry_space_group_name_H-M   'P 1'
_cell_length_a   9.75220857
_cell_length_b   9.75220857
_cell_length_c   7.45387109
_cell_angle_alpha   74.63867559
_cell_angle_beta   74.63867559
_cell_angle_gamma   31.73663002
_symmetry_Int_Tables_number   1
_chemical_formula_structural   Sr8Fe3N8
_chemical_formula_sum   'Sr8 Fe3 N8'
_cell_volume   358.47488219
_cell_formula_units_Z   1
loop_
 _symmetry_equiv_pos_site_id
 _symmetry_equiv_pos_as_xyz
  1  'x, y, z'
loop_
 _atom_site_type_symbol
 _atom_site_label
 _atom_site_symmetry_multiplicity
 _atom_site_fract_x
 _atom_site_fract_y
 _atom_site_fract_z
 _atom_site_occupancy
  Sr  Sr0  1  0.03042876  0.03042876  0.73763507  1
  Sr  Sr1  1  0.80040214  0.80040214  0.80680261  1
  Sr  Sr2  1  0.40538075  0.40538075  0.96605923  1
  Sr  Sr3  1  0.66729626  0.66729626  0.53078119  1
  Sr  Sr4  1  0.33270374  0.33270374  0.46921881  1
  Sr  Sr5  1  0.59461925  0.59461925  0.03394077  1
  Sr  Sr6  1  0.96957124  0.96957124  0.26236493  1
  Sr  Sr7  1  0.19959786  0.19959786  0.19319739  1
  Fe  Fe0  1  0.81200349  0.81200349  0.20604038  1
  Fe  Fe1  1  0.50000000  0.50000000  0.50000000  1
  Fe  Fe2  1  0.18799651  0.18799651  0.79395962  1
  N  N0  1  0.27585397  0.27585397  0.83118257  1
  N  N1  1  0.47331266  0.47331266  0.28053106  1
  N  N2  1  0.52668734  0.52668734  0.71946894  1
  N  N3  1  0.10806027  0.10806027  0.98377949  1
  N  N4  1  0.89193973  0.89193973  0.01622051  1
  N  N5  1  0.72414603  0.72414603  0.16881743  1
  N  N6  1  0.82178997  0.82178997  0.42998158  1
  N  N7  1  0.17821003  0.17821003  0.57001842  1
loop_
_geom_bond_atom_site_label_1
_geom_bond_atom_site_label_2
_geom_bond_distance
_geom_bond_site_symmetry_2
Fe0 N6 1.728828 1_555
Fe0 N5 1.745221 1_555
Fe0 N4 1.755637 1_555
Fe1 N2 1.837927 1_555
Fe1 N1 1.837927 1_555
Fe2 N7 1.728828 1_555
Fe2 N0 1.745221 1_555
Fe2 N3 1.755637 1_555
N0 Sr4 2.613798 1_555
N0 Sr7 2.683624 1_556
N0 Sr1 2.703584 1_455
N0 Sr1 2.703584 1_545
N0 Sr2 2.874306 1_555
N1 Sr5 2.500773 1_555
N1 Sr4 2.625548 1_555
N1 Sr6 2.671859 1_455
N1 Sr6 2.671859 1_545
N1 Sr2 2.960450 1_554
N2 Sr2 2.500773 1_555
N2 Sr3 2.625548 1_555
N2 Sr0 2.671859 1_655
N2 Sr0 2.671859 1_565
N2 Sr5 2.960450 1_556
N3 Sr7 2.619635 1_556
N3 Sr0 2.638057 1_555
N3 Sr5 2.694770 1_456
N3 Sr5 2.694770 1_546
N3 Sr6 2.844469 1_446
N4 Sr1 2.619635 1_554
N4 Sr6 2.638057 1_555
N4 Sr2 2.694770 1_654
N4 Sr2 2.694770 1_564
N4 Sr0 2.844469 1_664
N5 Sr3 2.613798 1_555
N5 Sr1 2.683624 1_554
N5 Sr7 2.703584 1_565
N5 Sr7 2.703584 1_655
N5 Sr5 2.874306 1_555
N6 Sr4 2.696438 1_655
N6 Sr4 2.696438 1_565
N6 Sr6 2.709249 1_555
N6 Sr1 2.725702 1_555
N6 Sr3 2.786790 1_555
N7 Sr3 2.696438 1_455
N7 Sr3 2.696438 1_545
N7 Sr0 2.709249 1_555
N7 Sr7 2.725702 1_555
N7 Sr4 2.786790 1_555
