# generated using pymatgen
data_CuSb(MoO4)2
_symmetry_space_group_name_H-M   'P 1'
_cell_length_a   11.36570212
_cell_length_b   11.36570212
_cell_length_c   5.63526603
_cell_angle_alpha   79.26734509
_cell_angle_beta   79.26734509
_cell_angle_gamma   25.21428698
_symmetry_Int_Tables_number   1
_chemical_formula_structural   CuSb(MoO4)2
_chemical_formula_sum   'Cu2 Sb2 Mo4 O16'
_cell_volume   304.41534367
_cell_formula_units_Z   2
loop_
 _symmetry_equiv_pos_site_id
 _symmetry_equiv_pos_as_xyz
  1  'x, y, z'
loop_
 _atom_site_type_symbol
 _atom_site_label
 _atom_site_symmetry_multiplicity
 _atom_site_fract_x
 _atom_site_fract_y
 _atom_site_fract_z
 _atom_site_occupancy
  Cu  Cu0  1  0.50000000  0.00000000  0.50000000  1
  Cu  Cu1  1  0.00000000  0.50000000  0.00000000  1
  Sb  Sb0  1  0.80863200  0.19136800  0.25000000  1
  Sb  Sb1  1  0.19136800  0.80863200  0.75000000  1
  Mo  Mo0  1  0.12061600  0.60476500  0.27654900  1
  Mo  Mo1  1  0.39523500  0.87938400  0.22345100  1
  Mo  Mo2  1  0.87938400  0.39523500  0.72345100  1
  Mo  Mo3  1  0.60476500  0.12061600  0.77654900  1
  O  O0  1  0.12139700  0.20131500  0.03823400  1
  O  O1  1  0.43154100  0.36077300  0.98641500  1
  O  O2  1  0.63222800  0.78927700  0.21106500  1
  O  O3  1  0.96139500  0.14269400  0.88073500  1
  O  O4  1  0.85730600  0.03860500  0.61926500  1
  O  O5  1  0.79868500  0.87860300  0.46176600  1
  O  O6  1  0.87860300  0.79868500  0.96176600  1
  O  O7  1  0.63922700  0.56845900  0.51358500  1
  O  O8  1  0.14269400  0.96139500  0.38073500  1
  O  O9  1  0.20131500  0.12139700  0.53823400  1
  O  O10  1  0.21072300  0.36777200  0.28893500  1
  O  O11  1  0.78927700  0.63222800  0.71106500  1
  O  O12  1  0.36077300  0.43154100  0.48641500  1
  O  O13  1  0.36777200  0.21072300  0.78893500  1
  O  O14  1  0.56845900  0.63922700  0.01358500  1
  O  O15  1  0.03860500  0.85730600  0.11926500  1
loop_
_geom_bond_atom_site_label_1
_geom_bond_atom_site_label_2
_geom_bond_distance
_geom_bond_site_symmetry_2
Cu0 O11 2.105770 1_545
Cu0 O10 2.105770 1_555
Cu0 O13 2.161938 1_555
Cu0 O2 2.161938 1_545
Cu0 O5 2.199438 1_545
Cu0 O9 2.199438 1_555
Cu1 O2 2.105770 1_455
Cu1 O13 2.105770 1_554
Cu1 O10 2.161938 1_555
Cu1 O11 2.161938 1_454
Cu1 O6 2.199438 1_454
Cu1 O0 2.199438 1_555
Mo0 O10 1.809488 1_555
Mo0 O12 1.826619 1_555
Mo0 O5 1.829148 1_455
Mo0 O15 2.100519 1_555
Mo0 O1 2.157799 1_554
Mo0 O6 2.227523 1_454
Mo1 O2 1.809488 1_555
Mo1 O14 1.826619 1_555
Mo1 O0 1.829148 1_565
Mo1 O8 2.100519 1_555
Mo1 O7 2.157799 1_555
Mo1 O9 2.227523 1_565
Mo2 O11 1.809488 1_555
Mo2 O7 1.826619 1_555
Mo2 O9 1.829148 1_655
Mo2 O3 2.100519 1_555
Mo2 O14 2.157799 1_556
Mo2 O0 2.227523 1_656
Mo3 O13 1.809488 1_555
Mo3 O1 1.826619 1_555
Mo3 O6 1.829148 1_545
Mo3 O4 2.100519 1_555
Mo3 O12 2.157799 1_555
Mo3 O5 2.227523 1_545
O3 Sb1 2.039148 1_645
O3 Sb0 2.235150 1_556
O4 Sb1 2.039148 1_645
O4 Sb0 2.235150 1_555
O8 Sb0 2.039148 1_465
O8 Sb1 2.235150 1_555
O15 Sb0 2.039148 1_465
O15 Sb1 2.235150 1_554
