# generated using pymatgen
data_Ba9(RhO3)8
_symmetry_space_group_name_H-M   'P 1'
_cell_length_a   15.40532756
_cell_length_b   15.40532756
_cell_length_c   15.40532798
_cell_angle_alpha   38.75621972
_cell_angle_beta   38.75621972
_cell_angle_gamma   38.75621848
_symmetry_Int_Tables_number   1
_chemical_formula_structural   Ba9(RhO3)8
_chemical_formula_sum   'Ba18 Rh16 O48'
_cell_volume   1287.91256197
_cell_formula_units_Z   2
loop_
 _symmetry_equiv_pos_site_id
 _symmetry_equiv_pos_as_xyz
  1  'x, y, z'
loop_
 _atom_site_type_symbol
 _atom_site_label
 _atom_site_symmetry_multiplicity
 _atom_site_fract_x
 _atom_site_fract_y
 _atom_site_fract_z
 _atom_site_occupancy
  Ba  Ba0  1  0.69759300  0.03463000  0.35117200  1
  Ba  Ba1  1  0.46537000  0.80240700  0.14882800  1
  Ba  Ba2  1  0.64882800  0.30240700  0.96537000  1
  Ba  Ba3  1  0.85117200  0.53463000  0.19759300  1
  Ba  Ba4  1  0.96537000  0.64882800  0.30240700  1
  Ba  Ba5  1  0.53463000  0.19759300  0.85117200  1
  Ba  Ba6  1  0.30240700  0.96537000  0.64882800  1
  Ba  Ba7  1  0.19759300  0.85117200  0.53463000  1
  Ba  Ba8  1  0.39806200  0.10193800  0.75000000  1
  Ba  Ba9  1  0.14882800  0.46537000  0.80240700  1
  Ba  Ba10  1  0.75000000  0.39806200  0.10193800  1
  Ba  Ba11  1  0.25000000  0.60193800  0.89806200  1
  Ba  Ba12  1  0.35117200  0.69759300  0.03463000  1
  Ba  Ba13  1  0.60193800  0.89806200  0.25000000  1
  Ba  Ba14  1  0.03463000  0.35117200  0.69759300  1
  Ba  Ba15  1  0.80240700  0.14882800  0.46537000  1
  Ba  Ba16  1  0.89806200  0.25000000  0.60193800  1
  Ba  Ba17  1  0.10193800  0.75000000  0.39806200  1
  Rh  Rh0  1  0.12073500  0.12073500  0.12073500  1
  Rh  Rh1  1  0.55973200  0.55973200  0.55973200  1
  Rh  Rh2  1  0.75000000  0.75000000  0.75000000  1
  Rh  Rh3  1  0.44026800  0.44026800  0.44026800  1
  Rh  Rh4  1  0.87926500  0.87926500  0.87926500  1
  Rh  Rh5  1  0.31569300  0.31569300  0.31569300  1
  Rh  Rh6  1  0.68430700  0.68430700  0.68430700  1
  Rh  Rh7  1  0.05973200  0.05973200  0.05973200  1
  Rh  Rh8  1  0.00000000  0.00000000  0.00000000  1
  Rh  Rh9  1  0.18430700  0.18430700  0.18430700  1
  Rh  Rh10  1  0.81569300  0.81569300  0.81569300  1
  Rh  Rh11  1  0.94026800  0.94026800  0.94026800  1
  Rh  Rh12  1  0.37926500  0.37926500  0.37926500  1
  Rh  Rh13  1  0.62073500  0.62073500  0.62073500  1
  Rh  Rh14  1  0.50000000  0.50000000  0.50000000  1
  Rh  Rh15  1  0.25000000  0.25000000  0.25000000  1
  O  O0  1  0.61861500  0.89399700  0.83759000  1
  O  O1  1  0.06304600  0.91817000  0.74993700  1
  O  O2  1  0.56304600  0.24993700  0.41817000  1
  O  O3  1  0.08183000  0.25006300  0.93695400  1
  O  O4  1  0.88138500  0.66241000  0.60600300  1
  O  O5  1  0.10600300  0.16241000  0.38138500  1
  O  O6  1  0.97278800  0.12766100  0.81032700  1
  O  O7  1  0.83759000  0.61861500  0.89399700  1
  O  O8  1  0.00790000  0.70752600  0.82915300  1
  O  O9  1  0.70752600  0.82915300  0.00790000  1
  O  O10  1  0.25006300  0.93695400  0.08183000  1
  O  O11  1  0.62766100  0.47278800  0.31032700  1
  O  O12  1  0.43695400  0.75006300  0.58183000  1
  O  O13  1  0.02721200  0.87233900  0.18967300  1
  O  O14  1  0.32915300  0.20752600  0.50790000  1
  O  O15  1  0.17084700  0.99210000  0.29247400  1
  O  O16  1  0.11861500  0.33759000  0.39399700  1
  O  O17  1  0.41817000  0.56304600  0.24993700  1
  O  O18  1  0.37233900  0.52721200  0.68967300  1
  O  O19  1  0.50790000  0.32915300  0.20752600  1
  O  O20  1  0.74993700  0.06304600  0.91817000  1
  O  O21  1  0.29247400  0.17084700  0.99210000  1
  O  O22  1  0.68967300  0.37233900  0.52721200  1
  O  O23  1  0.93695400  0.08183000  0.25006300  1
  O  O24  1  0.99210000  0.29247400  0.17084700  1
  O  O25  1  0.66241000  0.60600300  0.88138500  1
  O  O26  1  0.12766100  0.81032700  0.97278800  1
  O  O27  1  0.67084700  0.79247400  0.49210000  1
  O  O28  1  0.91817000  0.74993700  0.06304600  1
  O  O29  1  0.89399700  0.83759000  0.61861500  1
  O  O30  1  0.20752600  0.50790000  0.32915300  1
  O  O31  1  0.81032700  0.97278800  0.12766100  1
  O  O32  1  0.52721200  0.68967300  0.37233900  1
  O  O33  1  0.58183000  0.43695400  0.75006300  1
  O  O34  1  0.82915300  0.00790000  0.70752600  1
  O  O35  1  0.75006300  0.58183000  0.43695400  1
  O  O36  1  0.33759000  0.39399700  0.11861500  1
  O  O37  1  0.87233900  0.18967300  0.02721200  1
  O  O38  1  0.38138500  0.10600300  0.16241000  1
  O  O39  1  0.31032700  0.62766100  0.47278800  1
  O  O40  1  0.49210000  0.67084700  0.79247400  1
  O  O41  1  0.60600300  0.88138500  0.66241000  1
  O  O42  1  0.24993700  0.41817000  0.56304600  1
  O  O43  1  0.16241000  0.38138500  0.10600300  1
  O  O44  1  0.39399700  0.11861500  0.33759000  1
  O  O45  1  0.47278800  0.31032700  0.62766100  1
  O  O46  1  0.79247400  0.49210000  0.67084700  1
  O  O47  1  0.18967300  0.02721200  0.87233900  1
loop_
_geom_bond_atom_site_label_1
_geom_bond_atom_site_label_2
_geom_bond_distance
_geom_bond_site_symmetry_2
Ba0 O27 2.677749 1_545
Ba0 O41 2.746529 1_545
Ba0 O2 2.764673 1_555
Ba0 O19 2.787502 1_555
Ba0 O37 2.888290 1_555
Ba0 O13 2.902227 1_645
Ba0 O31 2.998170 1_545
Ba0 O23 3.163776 1_555
Ba0 O14 3.196554 1_555
Ba1 O9 2.677749 1_555
Ba1 O0 2.746529 1_554
Ba1 O10 2.764673 1_555
Ba1 O15 2.787502 1_555
Ba1 O39 2.888290 1_555
Ba1 O11 2.902227 1_555
Ba1 O32 2.998170 1_555
Ba1 O17 3.163776 1_555
Ba1 O21 3.196554 1_564
Ba2 O19 2.677749 1_556
Ba2 O36 2.746529 1_556
Ba2 O33 2.764673 1_555
Ba2 O46 2.787502 1_555
Ba2 O6 2.888290 1_555
Ba2 O31 2.902227 1_546
Ba2 O37 2.998170 1_556
Ba2 O20 3.163776 1_555
Ba2 O40 3.196554 1_555
Ba3 O24 2.677749 1_555
Ba3 O43 2.746529 1_655
Ba3 O28 2.764673 1_555
Ba3 O9 2.787502 1_555
Ba3 O32 2.888290 1_555
Ba3 O22 2.902227 1_555
Ba3 O11 2.998170 1_555
Ba3 O35 3.163776 1_555
Ba3 O8 3.196554 1_654
Ba4 O30 2.677749 1_655
Ba4 O16 2.746529 1_655
Ba4 O35 2.764673 1_555
Ba4 O27 2.787502 1_555
Ba4 O31 2.888290 1_555
Ba4 O26 2.902227 1_654
Ba4 O13 2.998170 1_655
Ba4 O28 3.163776 1_555
Ba4 O46 3.196554 1_555
Ba5 O21 2.677749 1_555
Ba5 O38 2.746529 1_556
Ba5 O20 2.764673 1_555
Ba5 O34 2.787502 1_555
Ba5 O22 2.888290 1_555
Ba5 O18 2.902227 1_555
Ba5 O45 2.998170 1_555
Ba5 O33 3.163776 1_555
Ba5 O9 3.196554 1_546
Ba6 O14 2.677749 1_565
Ba6 O44 2.746529 1_565
Ba6 O12 2.764673 1_555
Ba6 O40 2.787502 1_555
Ba6 O26 2.888290 1_555
Ba6 O6 2.902227 1_465
Ba6 O47 2.998170 1_565
Ba6 O1 3.163776 1_555
Ba6 O27 3.196554 1_555
Ba7 O15 2.677749 1_555
Ba7 O5 2.746529 1_565
Ba7 O1 2.764673 1_555
Ba7 O8 2.787502 1_555
Ba7 O18 2.888290 1_555
Ba7 O32 2.902227 1_555
Ba7 O39 2.998170 1_555
Ba7 O12 3.163776 1_555
Ba7 O34 3.196554 1_465
Ba8 O0 2.657144 1_545
Ba8 O41 2.657144 1_545
Ba8 O45 2.850778 1_555
Ba8 O47 2.850778 1_555
Ba8 O42 2.874767 1_555
Ba8 O3 2.874767 1_555
Ba8 O2 2.895948 1_555
Ba8 O10 2.895948 1_546
Ba9 O8 2.677749 1_555
Ba9 O7 2.746529 1_455
Ba9 O3 2.764673 1_555
Ba9 O21 2.787502 1_555
Ba9 O45 2.888290 1_555
Ba9 O39 2.902227 1_555
Ba9 O18 2.998170 1_555
Ba9 O42 3.163776 1_555
Ba9 O24 3.196554 1_456
Ba10 O7 2.657144 1_554
Ba10 O25 2.657144 1_554
Ba10 O37 2.850779 1_555
Ba10 O11 2.850779 1_555
Ba10 O23 2.874767 1_555
Ba10 O2 2.874768 1_555
Ba10 O17 2.895948 1_555
Ba10 O3 2.895948 1_654
Ba11 O43 2.657144 1_556
Ba11 O36 2.657144 1_556
Ba11 O26 2.850779 1_555
Ba11 O18 2.850779 1_555
Ba11 O1 2.874767 1_555
Ba11 O12 2.874768 1_555
Ba11 O33 2.895948 1_555
Ba11 O28 2.895948 1_456
Ba12 O40 2.677749 1_554
Ba12 O25 2.746529 1_554
Ba12 O17 2.764673 1_555
Ba12 O30 2.787502 1_555
Ba12 O13 2.888290 1_555
Ba12 O47 2.902227 1_564
Ba12 O26 2.998170 1_554
Ba12 O10 3.163776 1_555
Ba12 O19 3.196554 1_555
Ba13 O44 2.657144 1_565
Ba13 O38 2.657144 1_565
Ba13 O31 2.850778 1_555
Ba13 O32 2.850778 1_555
Ba13 O35 2.874767 1_555
Ba13 O28 2.874767 1_555
Ba13 O20 2.895948 1_564
Ba13 O12 2.895948 1_555
Ba14 O46 2.677749 1_455
Ba14 O4 2.746529 1_455
Ba14 O42 2.764673 1_555
Ba14 O14 2.787502 1_555
Ba14 O47 2.888290 1_555
Ba14 O37 2.902227 1_456
Ba14 O6 2.998170 1_455
Ba14 O3 3.163776 1_555
Ba14 O30 3.196554 1_555
Ba15 O34 2.677749 1_555
Ba15 O29 2.746529 1_545
Ba15 O23 2.764673 1_555
Ba15 O24 2.787502 1_555
Ba15 O11 2.888290 1_555
Ba15 O45 2.902227 1_555
Ba15 O22 2.998170 1_555
Ba15 O2 3.163776 1_555
Ba15 O15 3.196554 1_645
Ba16 O16 2.657144 1_655
Ba16 O5 2.657144 1_655
Ba16 O22 2.850779 1_555
Ba16 O6 2.850779 1_555
Ba16 O33 2.874767 1_555
Ba16 O20 2.874768 1_555
Ba16 O1 2.895948 1_645
Ba16 O35 2.895948 1_555
Ba17 O4 2.657144 1_455
Ba17 O29 2.657144 1_455
Ba17 O39 2.850779 1_555
Ba17 O13 2.850779 1_555
Ba17 O17 2.874767 1_555
Ba17 O10 2.874768 1_555
Ba17 O23 2.895948 1_465
Ba17 O42 2.895948 1_555
O0 Rh10 2.027788 1_555
O0 Rh2 2.060246 1_555
O1 Rh11 2.047844 1_455
O1 Rh4 2.081114 1_455
O2 Rh3 2.047844 1_555
O2 Rh12 2.081114 1_555
O3 Rh7 2.047844 1_556
O3 Rh0 2.081114 1_556
O4 Rh6 2.027788 1_555
O4 Rh2 2.060246 1_555
O5 Rh9 2.027788 1_555
O5 Rh15 2.060246 1_555
O6 Rh8 2.059986 1_656
O6 Rh11 2.066563 1_545
O7 Rh10 2.027788 1_555
O7 Rh2 2.060246 1_555
O8 Rh4 2.035979 1_455
O8 Rh10 2.076210 1_455
O9 Rh4 2.035979 1_554
O9 Rh10 2.076210 1_554
O10 Rh7 2.047844 1_565
O10 Rh0 2.081114 1_565
O11 Rh14 2.059986 1_555
O11 Rh3 2.066563 1_555
O12 Rh1 2.047844 1_555
O12 Rh13 2.081114 1_555
O13 Rh8 2.059986 1_565
O13 Rh7 2.066563 1_565
O14 Rh12 2.035979 1_555
O14 Rh5 2.076210 1_555
O15 Rh0 2.035979 1_565
O15 Rh9 2.076210 1_565
O16 Rh5 2.027788 1_555
O16 Rh15 2.060246 1_555
O17 Rh3 2.047844 1_555
O17 Rh12 2.081114 1_555
O18 Rh14 2.059986 1_555
O18 Rh1 2.066563 1_555
O19 Rh12 2.035979 1_555
O19 Rh5 2.076210 1_555
O20 Rh11 2.047844 1_545
O20 Rh4 2.081114 1_545
O21 Rh0 2.035979 1_556
O21 Rh9 2.076210 1_556
O22 Rh14 2.059986 1_555
O22 Rh1 2.066563 1_555
O23 Rh7 2.047844 1_655
O23 Rh0 2.081114 1_655
O24 Rh0 2.035979 1_655
O24 Rh9 2.076210 1_655
O25 Rh6 2.027788 1_555
O25 Rh2 2.060246 1_555
O26 Rh8 2.059986 1_566
O26 Rh11 2.066563 1_455
O27 Rh13 2.035979 1_555
O27 Rh6 2.076210 1_555
O28 Rh11 2.047844 1_554
O28 Rh4 2.081114 1_554
O29 Rh10 2.027788 1_555
O29 Rh2 2.060246 1_555
O30 Rh12 2.035979 1_555
O30 Rh5 2.076210 1_555
O31 Rh8 2.059986 1_665
O31 Rh11 2.066564 1_554
O32 Rh14 2.059986 1_555
O32 Rh1 2.066564 1_555
O33 Rh1 2.047844 1_555
O33 Rh13 2.081114 1_555
O34 Rh4 2.035979 1_545
O34 Rh10 2.076210 1_545
O35 Rh1 2.047844 1_555
O35 Rh13 2.081114 1_555
O36 Rh5 2.027788 1_555
O36 Rh15 2.060246 1_555
O37 Rh8 2.059986 1_655
O37 Rh7 2.066563 1_655
O38 Rh9 2.027788 1_555
O38 Rh15 2.060246 1_555
O39 Rh14 2.059986 1_555
O39 Rh3 2.066563 1_555
O40 Rh13 2.035979 1_555
O40 Rh6 2.076210 1_555
O41 Rh6 2.027788 1_555
O41 Rh2 2.060246 1_555
O42 Rh3 2.047844 1_555
O42 Rh12 2.081114 1_555
O43 Rh9 2.027788 1_555
O43 Rh15 2.060246 1_555
O44 Rh5 2.027788 1_555
O44 Rh15 2.060246 1_555
O45 Rh14 2.059986 1_555
O45 Rh3 2.066564 1_555
O46 Rh13 2.035979 1_555
O46 Rh6 2.076210 1_555
O47 Rh8 2.059986 1_556
O47 Rh7 2.066564 1_556
