# generated using pymatgen
data_SrTa2Bi2O9
_symmetry_space_group_name_H-M   'P 1'
_cell_length_a   5.53241109
_cell_length_b   5.54774569
_cell_length_c   12.81504348
_cell_angle_alpha   102.50087673
_cell_angle_beta   90.00000000
_cell_angle_gamma   90.00000000
_symmetry_Int_Tables_number   1
_chemical_formula_structural   SrTa2Bi2O9
_chemical_formula_sum   'Sr2 Ta4 Bi4 O18'
_cell_volume   383.99990028
_cell_formula_units_Z   2
loop_
 _symmetry_equiv_pos_site_id
 _symmetry_equiv_pos_as_xyz
  1  'x, y, z'
loop_
 _atom_site_type_symbol
 _atom_site_label
 _atom_site_symmetry_multiplicity
 _atom_site_fract_x
 _atom_site_fract_y
 _atom_site_fract_z
 _atom_site_occupancy
  Sr  Sr0  1  -0.00000000  0.01820799  0.00000000  1
  Sr  Sr1  1  0.50000000  0.51820799  0.00000000  1
  Ta  Ta0  1  0.49733173  0.09736497  0.16863517  1
  Ta  Ta1  1  0.50266827  0.92872980  0.83136483  1
  Ta  Ta2  1  0.00266827  0.59736497  0.16863517  1
  Ta  Ta3  1  0.99733173  0.42872980  0.83136483  1
  Bi  Bi0  1  0.01778636  0.12326473  0.40014091  1
  Bi  Bi1  1  0.98221364  0.72312382  0.59985909  1
  Bi  Bi2  1  0.51778636  0.22312382  0.59985909  1
  Bi  Bi3  1  0.48221364  0.62326473  0.40014091  1
  O  O0  1  0.53082864  0.87599324  0.68197156  1
  O  O1  1  0.74076845  0.46263749  0.49825167  1
  O  O2  1  0.25923155  0.96438582  0.50174833  1
  O  O3  1  0.96917136  0.37599324  0.68197156  1
  O  O4  1  -0.00000000  0.52494410  0.00000000  1
  O  O5  1  0.50000000  0.02494410  0.00000000  1
  O  O6  1  0.73667394  0.83626509  0.15619651  1
  O  O7  1  0.26332606  0.68007058  0.84380349  1
  O  O8  1  0.26653095  0.36304239  0.14838909  1
  O  O9  1  0.24076845  0.46438582  0.50174833  1
  O  O10  1  0.23346905  0.86304239  0.14838909  1
  O  O11  1  0.23667394  0.18007058  0.84380349  1
  O  O12  1  0.76653095  0.71465130  0.85161091  1
  O  O13  1  0.76332606  0.33626509  0.15619651  1
  O  O14  1  0.03082864  0.69402069  0.31802844  1
  O  O15  1  0.73346905  0.21465130  0.85161091  1
  O  O16  1  0.46917136  0.19402069  0.31802844  1
  O  O17  1  0.75923155  0.96263749  0.49825167  1
loop_
_geom_bond_atom_site_label_1
_geom_bond_atom_site_label_2
_geom_bond_distance
_geom_bond_site_symmetry_2
Bi0 O2 2.180256 1_545
Bi0 O17 2.214959 1_445
Bi0 O14 2.387145 1_545
Bi0 O9 2.394145 1_555
Bi0 O1 2.539600 1_455
Bi0 O16 2.770637 1_555
Bi1 O1 2.180256 1_555
Bi1 O9 2.214959 1_655
Bi1 O3 2.387140 1_555
Bi1 O17 2.394145 1_555
Bi1 O2 2.539601 1_655
Bi1 O0 2.770638 1_555
Bi2 O17 2.180256 1_545
Bi2 O2 2.214959 1_545
Bi2 O0 2.387140 1_545
Bi2 O1 2.394145 1_555
Bi2 O9 2.539601 1_555
Bi2 O3 2.770638 1_555
Bi3 O9 2.180256 1_555
Bi3 O1 2.214959 1_555
Bi3 O16 2.387145 1_555
Bi3 O2 2.394145 1_555
Bi3 O17 2.539600 1_555
Bi3 O14 2.770637 1_555
O0 Ta1 1.879528 1_555
O3 Ta3 1.879528 1_555
O4 Ta3 2.110918 1_454
O4 Ta2 2.110918 1_555
O4 Sr0 2.736503 1_565
O4 Sr1 2.766458 1_555
O4 Sr1 2.766458 1_455
O4 Sr0 2.811243 1_555
O5 Ta1 2.110918 1_544
O5 Ta0 2.110918 1_555
O5 Sr1 2.736503 1_555
O5 Sr0 2.766458 1_655
O5 Sr0 2.766458 1_555
O5 Sr1 2.811243 1_545
O6 Ta0 1.943449 1_565
O6 Ta2 2.009730 1_655
O6 Sr1 2.702884 1_555
O6 Sr0 2.832403 1_665
O7 Ta1 1.943441 1_555
O7 Ta3 2.009738 1_455
O7 Sr1 2.702890 1_556
O7 Sr0 2.832397 1_566
O8 Ta2 1.934480 1_555
O8 Ta0 2.008909 1_555
O8 Sr1 2.595022 1_555
O8 Sr0 2.806306 1_555
O10 Ta0 1.934480 1_565
O10 Ta2 2.008909 1_555
O10 Sr0 2.595022 1_565
O10 Sr1 2.806306 1_555
O11 Ta3 1.943441 1_455
O11 Ta1 2.009738 1_545
O11 Sr0 2.702890 1_556
O11 Sr1 2.832397 1_556
O12 Ta1 1.934487 1_555
O12 Ta3 2.008900 1_555
O12 Sr0 2.595027 1_666
O12 Sr1 2.806300 1_556
O13 Ta2 1.943449 1_655
O13 Ta0 2.009730 1_555
O13 Sr0 2.702884 1_655
O13 Sr1 2.832403 1_555
O14 Ta2 1.879528 1_555
O15 Ta3 1.934487 1_555
O15 Ta1 2.008900 1_545
O15 Sr1 2.595027 1_556
O15 Sr0 2.806300 1_656
O16 Ta0 1.879528 1_555
