# generated using pymatgen
data_SrCu(TeO3)2
_symmetry_space_group_name_H-M   'P 1'
_cell_length_a   12.62958300
_cell_length_b   12.62958300
_cell_length_c   12.62958300
_cell_angle_alpha   90.00000000
_cell_angle_beta   90.00000000
_cell_angle_gamma   90.00000000
_symmetry_Int_Tables_number   1
_chemical_formula_structural   SrCu(TeO3)2
_chemical_formula_sum   'Sr12 Cu12 Te24 O72'
_cell_volume   2014.49889795
_cell_formula_units_Z   12
loop_
 _symmetry_equiv_pos_site_id
 _symmetry_equiv_pos_as_xyz
  1  'x, y, z'
loop_
 _atom_site_type_symbol
 _atom_site_label
 _atom_site_symmetry_multiplicity
 _atom_site_fract_x
 _atom_site_fract_y
 _atom_site_fract_z
 _atom_site_occupancy
  Sr  Sr0  1  0.69555800  0.69555800  0.69555800  1
  Sr  Sr1  1  0.80444200  0.30444200  0.19555800  1
  Sr  Sr2  1  0.44555800  0.94555800  0.55444200  1
  Sr  Sr3  1  0.94555800  0.55444200  0.44555800  1
  Sr  Sr4  1  0.55444200  0.44555800  0.94555800  1
  Sr  Sr5  1  0.12500000  0.37500000  0.62500000  1
  Sr  Sr6  1  0.05444200  0.05444200  0.05444200  1
  Sr  Sr7  1  0.30444200  0.19555800  0.80444200  1
  Sr  Sr8  1  0.37500000  0.62500000  0.12500000  1
  Sr  Sr9  1  0.62500000  0.12500000  0.37500000  1
  Sr  Sr10  1  0.87500000  0.87500000  0.87500000  1
  Sr  Sr11  1  0.19555800  0.80444200  0.30444200  1
  Cu  Cu0  1  0.77411700  0.02411700  0.12500000  1
  Cu  Cu1  1  0.52411700  0.37500000  0.22588300  1
  Cu  Cu2  1  0.47588300  0.87500000  0.27411700  1
  Cu  Cu3  1  0.02411700  0.12500000  0.77411700  1
  Cu  Cu4  1  0.97588300  0.62500000  0.72588300  1
  Cu  Cu5  1  0.27411700  0.47588300  0.87500000  1
  Cu  Cu6  1  0.37500000  0.22588300  0.52411700  1
  Cu  Cu7  1  0.62500000  0.72588300  0.97588300  1
  Cu  Cu8  1  0.22588300  0.52411700  0.37500000  1
  Cu  Cu9  1  0.72588300  0.97588300  0.62500000  1
  Cu  Cu10  1  0.12500000  0.77411700  0.02411700  1
  Cu  Cu11  1  0.87500000  0.27411700  0.47588300  1
  Te  Te0  1  0.57913200  0.93939800  0.83748100  1
  Te  Te1  1  0.93939800  0.83748100  0.57913200  1
  Te  Te2  1  0.58748100  0.18939800  0.67086800  1
  Te  Te3  1  0.56060200  0.16251900  0.07913200  1
  Te  Te4  1  0.82913200  0.41251900  0.68939800  1
  Te  Te5  1  0.83748100  0.57913200  0.93939800  1
  Te  Te6  1  0.07913200  0.56060200  0.16251900  1
  Te  Te7  1  0.91251900  0.81060200  0.17086800  1
  Te  Te8  1  0.67086800  0.58748100  0.18939800  1
  Te  Te9  1  0.42086800  0.43939800  0.66251900  1
  Te  Te10  1  0.41251900  0.68939800  0.82913200  1
  Te  Te11  1  0.43939800  0.66251900  0.42086800  1
  Te  Te12  1  0.92086800  0.06060200  0.33748100  1
  Te  Te13  1  0.06060200  0.33748100  0.92086800  1
  Te  Te14  1  0.68939800  0.82913200  0.41251900  1
  Te  Te15  1  0.31060200  0.32913200  0.08748100  1
  Te  Te16  1  0.16251900  0.07913200  0.56060200  1
  Te  Te17  1  0.33748100  0.92086800  0.06060200  1
  Te  Te18  1  0.81060200  0.17086800  0.91251900  1
  Te  Te19  1  0.66251900  0.42086800  0.43939800  1
  Te  Te20  1  0.18939800  0.67086800  0.58748100  1
  Te  Te21  1  0.17086800  0.91251900  0.81060200  1
  Te  Te22  1  0.32913200  0.08748100  0.31060200  1
  Te  Te23  1  0.08748100  0.31060200  0.32913200  1
  O  O0  1  0.77223700  0.93685500  0.48415400  1
  O  O1  1  0.37836100  0.57790500  0.92929600  1
  O  O2  1  0.13111200  0.22128000  0.98021700  1
  O  O3  1  0.62163900  0.07790500  0.57070400  1
  O  O4  1  0.81314500  0.97776300  0.26584600  1
  O  O5  1  0.87163900  0.67929600  0.82790500  1
  O  O6  1  0.92929600  0.37836100  0.57790500  1
  O  O7  1  0.36888800  0.77872000  0.48021700  1
  O  O8  1  0.92209500  0.07070400  0.87836100  1
  O  O9  1  0.42929600  0.12163900  0.42209500  1
  O  O10  1  0.76978300  0.52872000  0.61888800  1
  O  O11  1  0.73415400  0.31314500  0.52223700  1
  O  O12  1  0.11888800  0.73021700  0.47128000  1
  O  O13  1  0.26584600  0.81314500  0.97776300  1
  O  O14  1  0.52872000  0.61888800  0.76978300  1
  O  O15  1  0.86888800  0.72128000  0.51978300  1
  O  O16  1  0.38111200  0.26978300  0.97128000  1
  O  O17  1  0.93685500  0.48415400  0.77223700  1
  O  O18  1  0.18685500  0.47776300  0.23415400  1
  O  O19  1  0.27872000  0.01978300  0.63111200  1
  O  O20  1  0.97776300  0.26584600  0.81314500  1
  O  O21  1  0.73021700  0.47128000  0.11888800  1
  O  O22  1  0.57790500  0.92929600  0.37836100  1
  O  O23  1  0.42209500  0.42929600  0.12163900  1
  O  O24  1  0.23415400  0.18685500  0.47776300  1
  O  O25  1  0.37163900  0.82070400  0.17209500  1
  O  O26  1  0.56314500  0.51584600  0.27223700  1
  O  O27  1  0.23021700  0.02872000  0.88111200  1
  O  O28  1  0.06314500  0.98415400  0.72776300  1
  O  O29  1  0.17209500  0.37163900  0.82070400  1
  O  O30  1  0.02223700  0.76584600  0.68685500  1
  O  O31  1  0.12163900  0.42209500  0.42929600  1
  O  O32  1  0.22128000  0.98021700  0.13111200  1
  O  O33  1  0.27223700  0.56314500  0.51584600  1
  O  O34  1  0.72128000  0.51978300  0.86888800  1
  O  O35  1  0.26978300  0.97128000  0.38111200  1
  O  O36  1  0.77872000  0.48021700  0.36888800  1
  O  O37  1  0.07070400  0.87836100  0.92209500  1
  O  O38  1  0.01978300  0.63111200  0.27872000  1
  O  O39  1  0.31314500  0.52223700  0.73415400  1
  O  O40  1  0.98021700  0.13111200  0.22128000  1
  O  O41  1  0.02872000  0.88111200  0.23021700  1
  O  O42  1  0.17929600  0.67209500  0.12836100  1
  O  O43  1  0.72776300  0.06314500  0.98415400  1
  O  O44  1  0.43685500  0.01584600  0.22776300  1
  O  O45  1  0.68685500  0.02223700  0.76584600  1
  O  O46  1  0.52223700  0.73415400  0.31314500  1
  O  O47  1  0.61888800  0.76978300  0.52872000  1
  O  O48  1  0.22776300  0.43685500  0.01584600  1
  O  O49  1  0.32790500  0.62836100  0.32070400  1
  O  O50  1  0.01584600  0.22776300  0.43685500  1
  O  O51  1  0.32070400  0.32790500  0.62836100  1
  O  O52  1  0.07790500  0.57070400  0.62163900  1
  O  O53  1  0.47776300  0.23415400  0.18685500  1
  O  O54  1  0.63111200  0.27872000  0.01978300  1
  O  O55  1  0.82070400  0.17209500  0.37163900  1
  O  O56  1  0.67209500  0.12836100  0.17929600  1
  O  O57  1  0.62836100  0.32070400  0.32790500  1
  O  O58  1  0.51978300  0.86888800  0.72128000  1
  O  O59  1  0.57070400  0.62163900  0.07790500  1
  O  O60  1  0.47128000  0.11888800  0.73021700  1
  O  O61  1  0.97128000  0.38111200  0.26978300  1
  O  O62  1  0.67929600  0.82790500  0.87163900  1
  O  O63  1  0.98415400  0.72776300  0.06314500  1
  O  O64  1  0.87836100  0.92209500  0.07070400  1
  O  O65  1  0.88111200  0.23021700  0.02872000  1
  O  O66  1  0.82790500  0.87163900  0.67929600  1
  O  O67  1  0.51584600  0.27223700  0.56314500  1
  O  O68  1  0.48021700  0.36888800  0.77872000  1
  O  O69  1  0.12836100  0.17929600  0.67209500  1
  O  O70  1  0.48415400  0.77223700  0.93685500  1
  O  O71  1  0.76584600  0.68685500  0.02223700  1
loop_
_geom_bond_atom_site_label_1
_geom_bond_atom_site_label_2
_geom_bond_distance
_geom_bond_site_symmetry_2
Cu0 O4 1.936469 1_545
Cu0 O43 1.936469 1_554
Cu0 O56 1.965650 1_555
Cu0 O64 1.965650 1_545
Cu1 O53 1.936469 1_555
Cu1 O26 1.936469 1_555
Cu1 O23 1.965650 1_555
Cu1 O57 1.965650 1_555
Cu2 O46 1.936469 1_555
Cu2 O44 1.936469 1_565
Cu2 O22 1.965650 1_555
Cu2 O25 1.965650 1_555
Cu3 O20 1.936469 1_455
Cu3 O28 1.936469 1_545
Cu3 O69 1.965650 1_555
Cu3 O8 1.965650 1_455
Cu4 O30 1.936469 1_655
Cu4 O17 1.936469 1_555
Cu4 O52 1.965650 1_655
Cu4 O5 1.965650 1_555
Cu5 O39 1.936469 1_555
Cu5 O48 1.936469 1_556
Cu5 O29 1.965650 1_555
Cu5 O1 1.965650 1_555
Cu6 O24 1.936469 1_555
Cu6 O67 1.936469 1_555
Cu6 O9 1.965650 1_555
Cu6 O51 1.965650 1_555
Cu7 O71 1.936469 1_556
Cu7 O70 1.936469 1_555
Cu7 O59 1.965650 1_556
Cu7 O62 1.965650 1_555
Cu8 O18 1.936469 1_555
Cu8 O33 1.936469 1_555
Cu8 O31 1.965650 1_555
Cu8 O49 1.965650 1_555
Cu9 O45 1.936469 1_565
Cu9 O0 1.936469 1_555
Cu9 O3 1.965650 1_565
Cu9 O66 1.965650 1_555
Cu10 O13 1.936469 1_554
Cu10 O63 1.936469 1_455
Cu10 O42 1.965650 1_555
Cu10 O37 1.965650 1_554
Cu11 O11 1.936469 1_555
Cu11 O50 1.936469 1_655
Cu11 O55 1.965650 1_555
Cu11 O6 1.965650 1_555
O0 Te14 1.940116 1_555
O1 Te10 1.941438 1_555
O1 Sr8 2.542573 1_556
O1 Sr4 2.789529 1_555
O2 Te13 1.873127 1_555
O2 Sr6 2.501249 1_556
O2 Sr7 3.134625 1_555
O3 Te2 1.941438 1_555
O3 Sr9 2.542573 1_555
O3 Sr2 2.789529 1_545
O4 Te12 1.940116 1_565
O5 Te5 1.941438 1_555
O5 Sr10 2.542573 1_555
O5 Sr0 2.789529 1_555
O6 Te4 1.941438 1_555
O6 Sr5 2.542573 1_655
O6 Sr3 2.789529 1_555
O7 Te11 1.873127 1_555
O7 Sr2 2.501249 1_555
O7 Sr11 3.134625 1_555
O8 Te18 1.941438 1_555
O8 Sr10 2.542573 1_545
O8 Sr6 2.789529 1_656
O9 Te22 1.941438 1_555
O9 Sr9 2.542573 1_555
O9 Sr2 2.789529 1_545
O10 Te4 1.873127 1_555
O10 Sr0 2.501249 1_555
O10 Sr3 3.134625 1_555
O11 Te19 1.940116 1_555
O12 Te20 1.873127 1_555
O12 Sr11 2.501249 1_555
O12 Sr3 3.134625 1_455
O13 Te17 1.940116 1_556
O14 Te10 1.873127 1_555
O14 Sr0 2.501249 1_555
O14 Sr4 3.134625 1_555
O15 Te1 1.873127 1_555
O15 Sr3 2.501249 1_555
O15 Sr0 3.134625 1_555
O16 Te15 1.873127 1_556
O16 Sr7 2.501249 1_555
O16 Sr4 3.134625 1_555
O17 Te4 1.940116 1_555
O18 Te6 1.940116 1_555
O19 Te16 1.873127 1_555
O19 Sr2 2.501249 1_545
O19 Sr7 3.134625 1_555
O20 Te13 1.940116 1_655
O21 Te8 1.873127 1_555
O21 Sr1 2.501249 1_555
O21 Sr4 3.134625 1_554
O22 Te14 1.941438 1_555
O22 Sr9 2.542573 1_565
O22 Sr2 2.789529 1_555
O23 Te15 1.941438 1_555
O23 Sr8 2.542573 1_555
O23 Sr4 2.789529 1_554
O24 Te16 1.940116 1_555
O25 Te17 1.941438 1_555
O25 Sr8 2.542573 1_555
O25 Sr11 2.789529 1_555
O26 Te8 1.940116 1_555
O27 Te21 1.873127 1_545
O27 Sr7 2.501249 1_555
O27 Sr6 3.134625 1_556
O28 Te21 1.940116 1_555
O29 Te13 1.941438 1_555
O29 Sr5 2.542573 1_555
O29 Sr7 2.789529 1_555
O30 Te1 1.940116 1_455
O31 Te23 1.941438 1_555
O31 Sr5 2.542573 1_555
O31 Sr3 2.789529 1_455
O32 Te17 1.873127 1_555
O32 Sr6 2.501249 1_565
O32 Sr11 3.134625 1_555
O33 Te20 1.940116 1_555
O34 Te5 1.873127 1_555
O34 Sr4 2.501249 1_555
O34 Sr0 3.134625 1_555
O35 Te22 1.873127 1_565
O35 Sr11 2.501249 1_555
O35 Sr2 3.134625 1_555
O36 Te19 1.873127 1_555
O36 Sr3 2.501249 1_555
O36 Sr1 3.134625 1_555
O37 Te21 1.941438 1_555
O37 Sr10 2.542573 1_455
O37 Sr6 2.789529 1_566
O38 Te6 1.873127 1_555
O38 Sr3 2.501249 1_455
O38 Sr11 3.134625 1_555
O39 Te9 1.940116 1_555
O40 Te12 1.873127 1_555
O40 Sr6 2.501249 1_655
O40 Sr1 3.134625 1_555
O41 Te7 1.873127 1_455
O41 Sr11 2.501249 1_555
O41 Sr6 3.134625 1_565
O42 Te6 1.941438 1_555
O42 Sr8 2.542573 1_555
O42 Sr11 2.789529 1_555
O43 Te18 1.940116 1_555
O44 Te22 1.940116 1_555
O45 Te0 1.940116 1_545
O46 Te11 1.940116 1_555
O47 Te14 1.873127 1_555
O47 Sr0 2.501249 1_555
O47 Sr2 3.134625 1_555
O48 Te15 1.940116 1_555
O49 Te11 1.941438 1_555
O49 Sr8 2.542573 1_555
O49 Sr11 2.789529 1_555
O50 Te23 1.940116 1_555
O51 Te9 1.941438 1_555
O51 Sr5 2.542573 1_555
O51 Sr7 2.789529 1_555
O52 Te20 1.941438 1_555
O52 Sr5 2.542573 1_555
O52 Sr3 2.789529 1_455
O53 Te3 1.940116 1_555
O54 Te3 1.873127 1_555
O54 Sr4 2.501249 1_554
O54 Sr1 3.134625 1_555
O55 Te12 1.941438 1_555
O55 Sr9 2.542573 1_555
O55 Sr1 2.789529 1_555
O56 Te3 1.941438 1_555
O56 Sr9 2.542573 1_555
O56 Sr1 2.789529 1_555
O57 Te19 1.941438 1_555
O57 Sr9 2.542573 1_555
O57 Sr1 2.789529 1_555
O58 Te0 1.873127 1_555
O58 Sr2 2.501249 1_555
O58 Sr0 3.134625 1_555
O59 Te8 1.941438 1_555
O59 Sr8 2.542573 1_555
O59 Sr4 2.789529 1_554
O60 Te2 1.873127 1_555
O60 Sr7 2.501249 1_555
O60 Sr2 3.134625 1_545
O61 Te23 1.873127 1_655
O61 Sr1 2.501249 1_555
O61 Sr3 3.134625 1_555
O62 Te0 1.941438 1_555
O62 Sr10 2.542573 1_555
O62 Sr0 2.789529 1_555
O63 Te7 1.940116 1_555
O64 Te7 1.941438 1_555
O64 Sr10 2.542573 1_554
O64 Sr6 2.789529 1_665
O65 Te18 1.873127 1_554
O65 Sr1 2.501249 1_555
O65 Sr6 3.134625 1_655
O66 Te1 1.941438 1_555
O66 Sr10 2.542573 1_555
O66 Sr0 2.789529 1_555
O67 Te2 1.940116 1_555
O68 Te9 1.873127 1_555
O68 Sr4 2.501249 1_555
O68 Sr7 3.134625 1_555
O69 Te16 1.941438 1_555
O69 Sr5 2.542573 1_555
O69 Sr7 2.789529 1_555
O70 Te10 1.940116 1_555
O71 Te5 1.940116 1_554
