# generated using pymatgen
data_RbGa3(P3O10)2
_symmetry_space_group_name_H-M   'P 1'
_cell_length_a   8.35675571
_cell_length_b   8.35675571
_cell_length_c   12.21933900
_cell_angle_alpha   90.00000000
_cell_angle_beta   90.00000000
_cell_angle_gamma   105.18580239
_symmetry_Int_Tables_number   1
_chemical_formula_structural   RbGa3(P3O10)2
_chemical_formula_sum   'Rb2 Ga6 P12 O40'
_cell_volume   823.54453204
_cell_formula_units_Z   2
loop_
 _symmetry_equiv_pos_site_id
 _symmetry_equiv_pos_as_xyz
  1  'x, y, z'
loop_
 _atom_site_type_symbol
 _atom_site_label
 _atom_site_symmetry_multiplicity
 _atom_site_fract_x
 _atom_site_fract_y
 _atom_site_fract_z
 _atom_site_occupancy
  Rb  Rb0  1  0.47362300  0.47362300  0.00000000  1
  Rb  Rb1  1  0.52637700  0.52637700  0.50000000  1
  Ga  Ga0  1  0.70628100  0.29372000  0.75000000  1
  Ga  Ga1  1  0.86452500  0.86452500  0.00000000  1
  Ga  Ga2  1  0.29371900  0.70628000  0.25000000  1
  Ga  Ga3  1  0.24369500  0.75630500  0.75000000  1
  Ga  Ga4  1  0.75630500  0.24369500  0.25000000  1
  Ga  Ga5  1  0.13547500  0.13547500  0.50000000  1
  P  P0  1  0.14984700  0.74112700  0.48786700  1
  P  P1  1  0.69703000  0.82564300  0.22328800  1
  P  P2  1  0.09387500  0.36737900  0.81703000  1
  P  P3  1  0.90612500  0.63262100  0.31703000  1
  P  P4  1  0.17435700  0.30297000  0.27671200  1
  P  P5  1  0.63262100  0.90612500  0.68297000  1
  P  P6  1  0.85015300  0.25887300  0.98786700  1
  P  P7  1  0.30297000  0.17435700  0.72328800  1
  P  P8  1  0.25887300  0.85015300  0.01213300  1
  P  P9  1  0.82564300  0.69703000  0.77671200  1
  P  P10  1  0.36737900  0.09387500  0.18297000  1
  P  P11  1  0.74112700  0.14984700  0.51213300  1
  O  O0  1  0.94959400  0.33406600  0.73969100  1
  O  O1  1  0.74942800  0.73761600  0.88648600  1
  O  O2  1  0.01034500  0.73099200  0.79055900  1
  O  O3  1  0.21036500  0.17223800  0.18625400  1
  O  O4  1  0.76800100  0.47606900  0.30148000  1
  O  O5  1  0.17223800  0.21036500  0.81374600  1
  O  O6  1  0.03478700  0.36235700  0.94259200  1
  O  O7  1  0.63764300  0.96521300  0.55740800  1
  O  O8  1  0.67865200  0.16136700  0.39735200  1
  O  O9  1  0.72872600  0.53107700  0.73283300  1
  O  O10  1  0.72382000  0.30433200  0.91202200  1
  O  O11  1  0.92283800  0.14630000  0.52181000  1
  O  O12  1  0.36235700  0.03478700  0.05740800  1
  O  O13  1  0.52393100  0.23199900  0.19852000  1
  O  O14  1  0.14630000  0.92283800  0.47819000  1
  O  O15  1  0.53107700  0.72872600  0.26716700  1
  O  O16  1  0.85370000  0.07716200  0.97819000  1
  O  O17  1  0.26900800  0.98965500  0.70944100  1
  O  O18  1  0.32134800  0.83863300  0.89735200  1
  O  O19  1  0.07716200  0.85370000  0.02181000  1
  O  O20  1  0.25057200  0.26238400  0.38648600  1
  O  O21  1  0.69566800  0.27618000  0.58797800  1
  O  O22  1  0.83863300  0.32134800  0.10264800  1
  O  O23  1  0.82776200  0.78963500  0.31374600  1
  O  O24  1  0.05040600  0.66593400  0.23969100  1
  O  O25  1  0.73099200  0.01034500  0.20944100  1
  O  O26  1  0.23199900  0.52393100  0.80148000  1
  O  O27  1  0.26238400  0.25057200  0.61351400  1
  O  O28  1  0.30433200  0.72382000  0.08797800  1
  O  O29  1  0.33406600  0.94959400  0.26030900  1
  O  O30  1  0.47606900  0.76800100  0.69852000  1
  O  O31  1  0.78963500  0.82776200  0.68625400  1
  O  O32  1  0.27127400  0.46892300  0.23283300  1
  O  O33  1  0.16136700  0.67865200  0.60264800  1
  O  O34  1  0.27618000  0.69566800  0.41202200  1
  O  O35  1  0.66593400  0.05040600  0.76030900  1
  O  O36  1  0.98965500  0.26900800  0.29055900  1
  O  O37  1  0.96521300  0.63764300  0.44259200  1
  O  O38  1  0.46892300  0.27127400  0.76716700  1
  O  O39  1  0.73761600  0.74942800  0.11351400  1
loop_
_geom_bond_atom_site_label_1
_geom_bond_atom_site_label_2
_geom_bond_distance
_geom_bond_site_symmetry_2
Ga0 O9 1.954144 1_555
Ga0 O38 1.954151 1_555
Ga0 O0 1.976037 1_555
Ga0 O35 1.976045 1_555
Ga0 O10 1.985485 1_555
Ga0 O21 1.985486 1_555
Ga1 O16 1.822359 1_564
Ga1 O19 1.822359 1_655
Ga1 O39 1.854569 1_555
Ga1 O1 1.854569 1_554
Ga2 O32 1.954144 1_555
Ga2 O15 1.954151 1_555
Ga2 O24 1.976037 1_555
Ga2 O29 1.976045 1_555
Ga2 O34 1.985485 1_555
Ga2 O28 1.985486 1_555
Ga3 O2 1.968997 1_555
Ga3 O17 1.968997 1_555
Ga3 O18 1.975475 1_555
Ga3 O33 1.975475 1_555
Ga3 O30 2.019101 1_555
Ga3 O26 2.019101 1_555
Ga4 O25 1.968997 1_555
Ga4 O36 1.968997 1_555
Ga4 O8 1.975475 1_555
Ga4 O22 1.975475 1_555
Ga4 O4 2.019101 1_555
Ga4 O13 2.019101 1_555
Ga5 O14 1.822359 1_545
Ga5 O11 1.822359 1_455
Ga5 O27 1.854569 1_555
Ga5 O20 1.854569 1_555
O0 P2 1.499499 1_655
O1 P9 1.559847 1_555
O1 Rb0 3.072345 1_556
O2 P9 1.504027 1_455
O3 P10 1.613164 1_555
O3 P4 1.636487 1_555
O4 P3 1.512900 1_555
O4 Rb1 3.253159 1_555
O5 P2 1.613164 1_555
O5 P7 1.636487 1_555
O6 P2 1.608961 1_555
O6 P6 1.653948 1_455
O7 P5 1.608961 1_555
O7 P11 1.653948 1_565
O8 P11 1.508415 1_555
O9 P9 1.509398 1_555
O9 Rb1 3.304627 1_555
O10 P6 1.525752 1_555
O10 Rb0 3.013039 1_556
O11 P11 1.531120 1_555
O12 P10 1.608961 1_555
O12 P8 1.653948 1_545
O13 P10 1.512900 1_555
O13 Rb0 3.253159 1_555
O14 P0 1.531120 1_555
O15 P1 1.509398 1_555
O15 Rb1 3.304627 1_555
O16 P6 1.531120 1_555
O17 P7 1.504027 1_565
O18 P8 1.508415 1_556
O19 P8 1.531120 1_555
O20 P4 1.559847 1_555
O20 Rb1 3.072345 1_555
O21 P11 1.525752 1_555
O21 Rb1 3.013039 1_555
O22 P6 1.508415 1_554
O23 P3 1.613164 1_555
O23 P1 1.636487 1_555
O24 P3 1.499499 1_455
O25 P1 1.504027 1_545
O26 P2 1.512900 1_555
O26 Rb0 3.253159 1_556
O27 P7 1.559847 1_555
O27 Rb1 3.072345 1_555
O28 P8 1.525752 1_555
O28 Rb0 3.013039 1_555
O29 P10 1.499499 1_565
O30 P5 1.512900 1_555
O30 Rb1 3.253159 1_555
O31 P5 1.613164 1_555
O31 P9 1.636487 1_555
O32 P4 1.509398 1_555
O32 Rb0 3.304627 1_555
O33 P0 1.508415 1_555
O34 P0 1.525752 1_555
O34 Rb1 3.013039 1_555
O35 P5 1.499499 1_545
O36 P4 1.504027 1_655
O37 P3 1.608961 1_555
O37 P0 1.653948 1_655
O38 P7 1.509398 1_555
O38 Rb0 3.304627 1_556
O39 P1 1.559847 1_555
O39 Rb0 3.072345 1_555
