# generated using pymatgen
data_Ba14Na17CaN6
_symmetry_space_group_name_H-M   'P 1'
_cell_length_a   11.17379603
_cell_length_b   12.04399352
_cell_length_c   13.72688480
_cell_angle_alpha   66.68601435
_cell_angle_beta   67.61054621
_cell_angle_gamma   78.80058796
_symmetry_Int_Tables_number   1
_chemical_formula_structural   Ba14Na17CaN6
_chemical_formula_sum   'Ba14 Na17 Ca1 N6'
_cell_volume   1566.54494043
_cell_formula_units_Z   1
loop_
 _symmetry_equiv_pos_site_id
 _symmetry_equiv_pos_as_xyz
  1  'x, y, z'
loop_
 _atom_site_type_symbol
 _atom_site_label
 _atom_site_symmetry_multiplicity
 _atom_site_fract_x
 _atom_site_fract_y
 _atom_site_fract_z
 _atom_site_occupancy
  Ba  Ba0  1  0.36922758  0.77910990  0.44566263  1
  Ba  Ba1  1  0.63077242  0.22089010  0.55433737  1
  Ba  Ba2  1  0.27638777  0.30901520  0.69651790  1
  Ba  Ba3  1  0.72361223  0.69098480  0.30348210  1
  Ba  Ba4  1  0.26263450  0.52082559  0.40571154  1
  Ba  Ba5  1  0.73736550  0.47917441  0.59428846  1
  Ba  Ba6  1  0.38476935  0.56886769  0.73358386  1
  Ba  Ba7  1  0.61523065  0.43113231  0.26641614  1
  Ba  Ba8  1  0.34192613  0.16245816  0.45656657  1
  Ba  Ba9  1  0.65807387  0.83754184  0.54343343  1
  Ba  Ba10  1  0.47629829  0.78870919  0.11932021  1
  Ba  Ba11  1  0.52370171  0.21129081  0.88067979  1
  Ba  Ba12  1  0.03016050  0.61820679  0.67768440  1
  Ba  Ba13  1  0.96983950  0.38179321  0.32231560  1
  Ca  Ca0  1  0.50000000  0.50000000  0.50000000  1
  Na  Na0  1  0.00000000  0.00000000  0.50000000  1
  Na  Na1  1  0.23658347  0.09581677  0.20904559  1
  Na  Na2  1  0.76341653  0.90418323  0.79095441  1
  Na  Na3  1  0.63057643  0.59885903  0.89460057  1
  Na  Na4  1  0.36942357  0.40114097  0.10539943  1
  Na  Na5  1  0.04035607  0.81550014  0.31115750  1
  Na  Na6  1  0.95964393  0.18449986  0.68884250  1
  Na  Na7  1  0.13611252  0.89264503  0.75418876  1
  Na  Na8  1  0.86388748  0.10735497  0.24581124  1
  Na  Na9  1  0.58713641  0.08617555  0.18679973  1
  Na  Na10  1  0.41286359  0.91382445  0.81320027  1
  Na  Na11  1  0.90480739  0.64508091  0.98446311  1
  Na  Na12  1  0.09519261  0.35491909  0.01553689  1
  Na  Na13  1  0.85215139  0.97163349  0.99162568  1
  Na  Na14  1  0.14784861  0.02836651  0.00837432  1
  Na  Na15  1  0.16906949  0.68937624  0.05595520  1
  Na  Na16  1  0.83093051  0.31062376  0.94404480  1
  N  N0  1  0.48818935  0.64195703  0.30688838  1
  N  N1  1  0.51181065  0.35804297  0.69311162  1
  N  N2  1  0.42640626  0.32714225  0.47603914  1
  N  N3  1  0.57359374  0.67285775  0.52396086  1
  N  N4  1  0.73660000  0.44108618  0.40672643  1
  N  N5  1  0.26340000  0.55891382  0.59327357  1
loop_
_geom_bond_atom_site_label_1
_geom_bond_atom_site_label_2
_geom_bond_distance
_geom_bond_site_symmetry_2
Ba0 N3 2.766454 1_555
Ba0 N5 2.770683 1_555
Ba0 N0 2.798784 1_555
Ba0 Na9 4.328665 1_565
Ba0 Na1 4.354391 1_565
Ba0 Na0 4.429230 1_565
Ba1 N2 2.766454 1_555
Ba1 N4 2.770683 1_555
Ba1 N1 2.798784 1_555
Ba1 Na10 4.328665 1_545
Ba1 Na2 4.354391 1_545
Ba1 Na0 4.429230 1_655
Ba2 N5 2.774711 1_555
Ba2 N1 2.785423 1_555
Ba2 N2 2.787750 1_555
Ba2 Na6 4.154170 1_455
Ba2 Na14 4.190724 1_556
Ba2 Na12 4.278899 1_556
Ba3 N4 2.774711 1_555
Ba3 N0 2.785423 1_555
Ba3 N3 2.787750 1_555
Ba3 Na5 4.154170 1_655
Ba3 Na13 4.190724 1_554
Ba3 Na11 4.278899 1_554
Ba4 N0 2.752781 1_555
Ba4 N2 2.761766 1_555
Ba4 N5 2.791498 1_555
Ba4 Na5 3.979285 1_555
Ba5 N1 2.752781 1_555
Ba5 N3 2.761766 1_555
Ba5 N4 2.791498 1_555
Ba5 Na6 3.979285 1_555
Ba6 N5 2.792639 1_555
Ba6 N3 2.801600 1_555
Ba6 N1 2.808342 1_555
Ba6 Na12 4.230071 1_556
Ba6 Na3 4.266322 1_555
Ba6 Na7 4.367153 1_555
Ba7 N4 2.792639 1_555
Ba7 N2 2.801600 1_555
Ba7 N0 2.808342 1_555
Ba7 Na11 4.230071 1_554
Ba7 Na4 4.266322 1_555
Ba7 Na8 4.367153 1_555
Ba8 N2 2.497153 1_555
Ba8 Na9 4.006214 1_555
Ba8 Na7 4.216222 1_545
Ba8 Na6 4.282145 1_455
Ba8 Na0 4.361905 1_555
Ba8 Na1 4.375651 1_555
Ba9 N3 2.497153 1_555
Ba9 Na10 4.006214 1_555
Ba9 Na8 4.216222 1_565
Ba9 Na5 4.282145 1_655
Ba9 Na0 4.361905 1_665
Ba9 Na2 4.375651 1_555
Ba10 N0 2.517564 1_555
Ba10 Na10 4.156027 1_554
Ba10 Na3 4.209074 1_554
Ba10 Na2 4.277707 1_554
Ba10 Na15 4.320473 1_555
Ba10 Na1 4.429094 1_565
Ba11 N1 2.517564 1_555
Ba11 Na9 4.156027 1_556
Ba11 Na4 4.209074 1_556
Ba11 Na1 4.277707 1_556
Ba11 Na16 4.320473 1_555
Ba11 Na2 4.429094 1_545
Ba12 N5 2.505241 1_555
Ba12 Na11 4.026105 1_455
Ba12 Na16 4.281278 1_455
Ba12 Na0 4.284126 1_565
Ba12 Na3 4.310747 1_455
Ba12 Na7 4.317915 1_555
Ba12 Na2 4.459280 1_455
Ba13 N4 2.505241 1_555
Ba13 Na12 4.026105 1_655
Ba13 Na15 4.281278 1_655
Ba13 Na0 4.284126 1_655
Ba13 Na4 4.310747 1_655
Ba13 Na8 4.317915 1_555
Ba13 Na1 4.459280 1_655
Ca0 N2 2.555731 1_555
Ca0 N3 2.555731 1_555
Ca0 N5 2.558093 1_555
Ca0 N4 2.558093 1_555
Ca0 N0 2.561033 1_555
Ca0 N1 2.561033 1_555
Na0 Na2 3.710117 1_445
Na0 Na1 3.710117 1_555
Na0 Na5 3.891074 1_545
Na0 Na6 3.891074 1_455
Na0 Na7 3.983383 1_545
Na0 Na8 3.983383 1_455
Na1 Na14 3.659997 1_555
Na1 Na12 3.743081 1_555
Na1 Na4 3.757712 1_555
Na1 Na9 3.793396 1_555
Na1 Na5 3.867681 1_545
Na1 Na8 3.980719 1_455
Na2 Na3 3.757712 1_555
Na2 Na6 3.867681 1_565
Na2 Na7 3.980719 1_655
Na3 Na4 3.656693 1_556
Na5 Na8 3.634264 1_465
Na6 Na7 3.634264 1_645
Na8 Na9 3.558394 1_555
Na10 Na7 3.558394 1_555
Na10 Na14 3.625552 1_566
Na10 Na2 3.793396 1_555
Na10 Na15 3.827204 1_556
Na11 Na15 3.633269 1_656
Na11 Na12 3.680205 1_656
Na11 Na2 3.743081 1_555
Na11 Na7 3.856361 1_655
Na11 Na13 3.897106 1_555
Na11 Na3 3.912348 1_555
Na12 Na16 3.633269 1_454
Na12 Na8 3.856361 1_455
Na12 Na14 3.897106 1_555
Na12 Na4 3.912348 1_555
Na13 Na14 3.607848 1_666
Na13 Na9 3.625552 1_566
Na13 Na2 3.659997 1_555
Na13 Na6 3.774769 1_565
Na13 Na16 3.844896 1_565
Na13 Na7 3.872853 1_655
Na14 Na5 3.774769 1_545
Na14 Na15 3.844896 1_545
Na14 Na8 3.872853 1_455
Na15 Na4 3.714492 1_555
Na15 Na7 4.009077 1_554
Na15 Na5 4.021587 1_555
Na16 Na3 3.714492 1_555
Na16 Na9 3.827204 1_556
Na16 Na8 4.009077 1_556
Na16 Na6 4.021587 1_555
