# generated using pymatgen
data_Cu4Sn7S16
_symmetry_space_group_name_H-M   'P 1'
_cell_length_a   12.97221901
_cell_length_b   12.97221901
_cell_length_c   21.09479262
_cell_angle_alpha   65.58397132
_cell_angle_beta   65.58397132
_cell_angle_gamma   33.29465002
_symmetry_Int_Tables_number   1
_chemical_formula_structural   Cu4Sn7S16
_chemical_formula_sum   'Cu12 Sn21 S48'
_cell_volume   1757.95032322
_cell_formula_units_Z   3
loop_
 _symmetry_equiv_pos_site_id
 _symmetry_equiv_pos_as_xyz
  1  'x, y, z'
loop_
 _atom_site_type_symbol
 _atom_site_label
 _atom_site_symmetry_multiplicity
 _atom_site_fract_x
 _atom_site_fract_y
 _atom_site_fract_z
 _atom_site_occupancy
  Cu  Cu0  1  0.00049400  0.00049400  0.99878100  1
  Cu  Cu1  1  0.74920600  0.74920600  0.93715600  1
  Cu  Cu2  1  0.59889600  0.59889600  0.89984200  1
  Cu  Cu3  1  0.66701400  0.66701400  0.66679800  1
  Cu  Cu4  1  0.41572900  0.41572900  0.60401700  1
  Cu  Cu5  1  0.26566800  0.26566800  0.56623900  1
  Cu  Cu6  1  0.33231300  0.33231300  0.33432400  1
  Cu  Cu7  1  0.05445700  0.05445700  0.76350900  1
  Cu  Cu8  1  0.08235500  0.08235500  0.27060200  1
  Cu  Cu9  1  0.94461200  0.94461200  0.23631400  1
  Cu  Cu10  1  0.72114900  0.72114900  0.43025900  1
  Cu  Cu11  1  0.38795200  0.38795200  0.09712700  1
  Sn  Sn0  1  0.66668600  0.16887500  0.91674000  1
  Sn  Sn1  1  0.50075500  0.50075500  0.75079700  1
  Sn  Sn2  1  0.16887500  0.66668600  0.91674000  1
  Sn  Sn3  1  0.33657800  0.33657800  0.83414800  1
  Sn  Sn4  1  0.50305400  0.99385800  0.74844900  1
  Sn  Sn5  1  0.16361900  0.16361900  0.91819600  1
  Sn  Sn6  1  0.99385800  0.50305400  0.74844900  1
  Sn  Sn7  1  0.16749000  0.16749000  0.41728700  1
  Sn  Sn8  1  0.33338000  0.83568100  0.58327400  1
  Sn  Sn9  1  0.83568100  0.33338000  0.58327400  1
  Sn  Sn10  1  0.00334800  0.00334800  0.50073600  1
  Sn  Sn11  1  0.17050500  0.66006700  0.41551400  1
  Sn  Sn12  1  0.83020900  0.83020900  0.58482900  1
  Sn  Sn13  1  0.66006700  0.17050500  0.41551400  1
  Sn  Sn14  1  0.83377200  0.83377200  0.08445500  1
  Sn  Sn15  1  0.99933400  0.50280600  0.24976400  1
  Sn  Sn16  1  0.50280600  0.99933400  0.24976400  1
  Sn  Sn17  1  0.66997500  0.66997500  0.16760600  1
  Sn  Sn18  1  0.83639500  0.32796300  0.08154700  1
  Sn  Sn19  1  0.49744400  0.49744400  0.25182400  1
  Sn  Sn20  1  0.32796300  0.83639500  0.08154700  1
  S  S0  1  0.83387900  0.83387900  0.95851600  1
  S  S1  1  0.66786700  0.66786700  0.78653500  1
  S  S2  1  0.84204400  0.31914500  0.96062200  1
  S  S3  1  0.31914500  0.84204400  0.96062200  1
  S  S4  1  0.50054200  0.50054200  0.87512100  1
  S  S5  1  0.50058100  0.50058100  0.62515700  1
  S  S6  1  0.66089900  0.17350700  0.79339300  1
  S  S7  1  0.33601900  0.33601900  0.95586500  1
  S  S8  1  0.17350700  0.66089900  0.79339300  1
  S  S9  1  0.49343700  0.00743400  0.87329900  1
  S  S10  1  0.33140300  0.33140300  0.71139900  1
  S  S11  1  0.00743400  0.49343700  0.87329900  1
  S  S12  1  0.33450900  0.33450900  0.45265900  1
  S  S13  1  0.50848300  0.98650200  0.62710700  1
  S  S14  1  0.16907700  0.16907700  0.79231900  1
  S  S15  1  0.98650200  0.50848300  0.62710700  1
  S  S16  1  0.34532700  0.82207300  0.70544000  1
  S  S17  1  0.16722700  0.16722700  0.54177600  1
  S  S18  1  0.82207300  0.34532700  0.70544000  1
  S  S19  1  0.99643300  0.99643300  0.87968000  1
  S  S20  1  0.16719900  0.16719900  0.29176200  1
  S  S21  1  0.32775500  0.84014700  0.46005000  1
  S  S22  1  0.84014700  0.32775500  0.46005000  1
  S  S23  1  0.00267100  0.00267100  0.62247200  1
  S  S24  1  0.15994600  0.67414600  0.54025900  1
  S  S25  1  0.99814500  0.99814500  0.37824700  1
  S  S26  1  0.67414600  0.15994600  0.54025900  1
  S  S27  1  0.83077200  0.83077200  0.70765200  1
  S  S28  1  0.00223000  0.00223000  0.12085100  1
  S  S29  1  0.17577000  0.65528100  0.29396500  1
  S  S30  1  0.83597500  0.83597500  0.45885100  1
  S  S31  1  0.65528100  0.17577000  0.29396500  1
  S  S32  1  0.01187400  0.48887700  0.37199600  1
  S  S33  1  0.83268200  0.83268200  0.20814800  1
  S  S34  1  0.48887700  0.01187400  0.37199600  1
  S  S35  1  0.66314500  0.66314500  0.54648800  1
  S  S36  1  0.99458200  0.50610600  0.12649500  1
  S  S37  1  0.50610600  0.99458200  0.12649500  1
  S  S38  1  0.66893700  0.66893700  0.28937200  1
  S  S39  1  0.82698300  0.34115900  0.20657000  1
  S  S40  1  0.66494200  0.66494200  0.04454200  1
  S  S41  1  0.34115900  0.82698300  0.20657000  1
  S  S42  1  0.49776700  0.49776700  0.37493400  1
  S  S43  1  0.50259300  0.50259300  0.12584100  1
  S  S44  1  0.67906700  0.15497200  0.03891100  1
  S  S45  1  0.15497200  0.67906700  0.03891100  1
  S  S46  1  0.32972900  0.32972900  0.21354500  1
  S  S47  1  0.16454900  0.16454900  0.04063800  1
loop_
_geom_bond_atom_site_label_1
_geom_bond_atom_site_label_2
_geom_bond_distance
_geom_bond_site_symmetry_2
Cu0 S2 2.524477 1_455
Cu0 S3 2.524477 1_545
Cu0 S19 2.557584 1_445
Cu0 S45 2.575697 1_546
Cu0 S44 2.575697 1_456
Cu0 S28 2.593951 1_556
Cu1 S40 2.329052 1_556
Cu1 S11 2.329947 1_655
Cu1 S9 2.329947 1_565
Cu1 S0 2.334777 1_555
Cu2 S1 2.261925 1_555
Cu2 S3 2.263563 1_555
Cu2 S2 2.263563 1_555
Cu2 S4 2.710910 1_555
Cu3 S15 2.532461 1_555
Cu3 S13 2.532461 1_555
Cu3 S1 2.535047 1_555
Cu3 S16 2.575964 1_555
Cu3 S18 2.575964 1_555
Cu3 S35 2.580866 1_555
Cu4 S26 2.328858 1_555
Cu4 S24 2.328858 1_555
Cu4 S10 2.329742 1_555
Cu4 S5 2.336462 1_555
Cu5 S13 2.261667 1_545
Cu5 S15 2.261667 1_455
Cu5 S12 2.265162 1_555
Cu5 S17 2.709880 1_555
Cu6 S12 2.520284 1_555
Cu6 S34 2.554509 1_555
Cu6 S32 2.554509 1_555
Cu6 S46 2.576171 1_555
Cu6 S31 2.580533 1_555
Cu6 S29 2.580533 1_555
Cu7 S19 2.244062 1_445
Cu7 S18 2.245411 1_455
Cu7 S16 2.245411 1_545
Cu8 S39 2.329774 1_455
Cu8 S41 2.329774 1_545
Cu8 S25 2.331609 1_445
Cu8 S20 2.336511 1_555
Cu9 S28 2.230163 1_665
Cu9 S29 2.232590 1_655
Cu9 S31 2.232590 1_565
Cu10 S35 2.244974 1_555
Cu10 S34 2.246212 1_565
Cu10 S32 2.246212 1_655
Cu11 S45 2.248999 1_555
Cu11 S44 2.248999 1_555
Cu11 S46 2.249157 1_555
S0 Sn0 2.650128 1_565
S0 Sn2 2.650128 1_655
S0 Sn14 2.655511 1_556
S1 Sn6 2.568348 1_555
S1 Sn4 2.568348 1_555
S2 Sn18 2.568689 1_556
S2 Sn5 2.570979 1_655
S3 Sn20 2.568689 1_556
S3 Sn5 2.570979 1_565
S4 Sn1 2.620309 1_555
S4 Sn0 2.620482 1_555
S4 Sn2 2.620482 1_555
S5 Sn9 2.651174 1_555
S5 Sn8 2.651174 1_555
S5 Sn1 2.652219 1_555
S6 Sn3 2.559210 1_555
S6 Sn1 2.605990 1_555
S6 Sn0 2.608492 1_555
S7 Sn3 2.561631 1_555
S7 Sn2 2.605140 1_555
S7 Sn0 2.605140 1_555
S8 Sn3 2.559210 1_555
S8 Sn1 2.605990 1_555
S8 Sn2 2.608492 1_555
S9 Sn3 2.646347 1_555
S9 Sn5 2.655642 1_555
S9 Sn4 2.656683 1_545
S10 Sn3 2.647408 1_555
S10 Sn6 2.655614 1_455
S10 Sn4 2.655614 1_545
S11 Sn3 2.646347 1_555
S11 Sn5 2.655642 1_555
S11 Sn6 2.656683 1_455
S12 Sn13 2.568655 1_555
S12 Sn11 2.568655 1_555
S13 Sn12 2.568341 1_555
S13 Sn4 2.570547 1_555
S14 Sn4 2.599015 1_545
S14 Sn6 2.599015 1_455
S14 Sn5 2.599698 1_555
S15 Sn12 2.568341 1_555
S15 Sn6 2.570547 1_555
S16 Sn1 2.569655 1_555
S16 Sn8 2.569983 1_555
S17 Sn9 2.619163 1_455
S17 Sn8 2.619163 1_545
S17 Sn7 2.623256 1_555
S18 Sn1 2.569655 1_555
S18 Sn9 2.569983 1_555
S19 Sn2 2.568576 1_655
S19 Sn0 2.568576 1_565
S20 Sn7 2.651053 1_555
S20 Sn16 2.652973 1_545
S20 Sn15 2.652973 1_455
S21 Sn10 2.559432 1_565
S21 Sn8 2.605902 1_555
S21 Sn7 2.606345 1_565
S22 Sn10 2.559432 1_655
S22 Sn9 2.605902 1_555
S22 Sn7 2.606345 1_655
S23 Sn10 2.560780 1_555
S23 Sn8 2.606382 1_545
S23 Sn9 2.606382 1_455
S24 Sn10 2.648225 1_565
S24 Sn11 2.652220 1_555
S24 Sn12 2.655433 1_455
S25 Sn10 2.642256 1_665
S25 Sn13 2.657307 1_565
S25 Sn11 2.657307 1_655
S26 Sn10 2.648225 1_655
S26 Sn13 2.652220 1_555
S26 Sn12 2.655433 1_545
S27 Sn4 2.595125 1_555
S27 Sn6 2.595125 1_555
S27 Sn12 2.596994 1_555
S28 Sn18 2.559728 1_455
S28 Sn20 2.559728 1_545
S29 Sn19 2.559321 1_555
S29 Sn11 2.561760 1_555
S30 Sn12 2.598862 1_555
S30 Sn13 2.601056 1_565
S30 Sn11 2.601056 1_655
S31 Sn19 2.559321 1_555
S31 Sn13 2.561760 1_555
S32 Sn7 2.569328 1_555
S32 Sn15 2.572939 1_455
S33 Sn14 2.597704 1_555
S33 Sn15 2.598885 1_555
S33 Sn16 2.598885 1_555
S34 Sn7 2.569328 1_555
S34 Sn16 2.572939 1_545
S35 Sn9 2.568428 1_555
S35 Sn8 2.568428 1_555
S36 Sn17 2.558016 1_555
S36 Sn14 2.606806 1_555
S36 Sn15 2.608342 1_555
S37 Sn17 2.558016 1_555
S37 Sn14 2.606806 1_555
S37 Sn16 2.608342 1_555
S38 Sn17 2.557603 1_555
S38 Sn16 2.607518 1_555
S38 Sn15 2.607518 1_555
S39 Sn17 2.642042 1_555
S39 Sn19 2.652151 1_555
S39 Sn18 2.659291 1_555
S40 Sn18 2.650660 1_555
S40 Sn20 2.650660 1_555
S40 Sn17 2.652388 1_555
S41 Sn17 2.642042 1_555
S41 Sn19 2.652151 1_555
S41 Sn20 2.659291 1_555
S42 Sn13 2.594581 1_555
S42 Sn11 2.594581 1_555
S42 Sn19 2.600454 1_555
S43 Sn20 2.600332 1_555
S43 Sn18 2.600332 1_555
S43 Sn19 2.604926 1_555
S44 Sn0 2.570924 1_554
S44 Sn14 2.572438 1_545
S45 Sn2 2.570924 1_554
S45 Sn14 2.572438 1_455
S46 Sn16 2.572632 1_545
S46 Sn15 2.572632 1_455
S47 Sn5 2.592946 1_554
S47 Sn18 2.597967 1_455
S47 Sn20 2.597967 1_545
