# generated using pymatgen
data_KLiCO3
_symmetry_space_group_name_H-M   'P 1'
_cell_length_a   7.17483500
_cell_length_b   6.73627400
_cell_length_c   7.77042131
_cell_angle_alpha   60.13512032
_cell_angle_beta   90.00000000
_cell_angle_gamma   90.00000000
_symmetry_Int_Tables_number   1
_chemical_formula_structural   KLiCO3
_chemical_formula_sum   'K4 Li4 C4 O12'
_cell_volume   325.68411023
_cell_formula_units_Z   4
loop_
 _symmetry_equiv_pos_site_id
 _symmetry_equiv_pos_as_xyz
  1  'x, y, z'
loop_
 _atom_site_type_symbol
 _atom_site_label
 _atom_site_symmetry_multiplicity
 _atom_site_fract_x
 _atom_site_fract_y
 _atom_site_fract_z
 _atom_site_occupancy
  K  K0  1  0.64636600  0.16734800  0.65542900  1
  K  K1  1  0.14636600  0.83265200  0.84457100  1
  K  K2  1  0.35363400  0.83265200  0.34457100  1
  K  K3  1  0.85363400  0.16734800  0.15542900  1
  Li  Li0  1  0.43038500  0.40326900  0.20058400  1
  Li  Li1  1  0.56961500  0.59673100  0.79941600  1
  Li  Li2  1  0.93038500  0.59673100  0.29941600  1
  Li  Li3  1  0.06961500  0.40326900  0.70058400  1
  C  C0  1  0.33184400  0.29620100  0.91784000  1
  C  C1  1  0.66815600  0.70379900  0.08216000  1
  C  C2  1  0.83184400  0.70379900  0.58216000  1
  C  C3  1  0.16815600  0.29620100  0.41784000  1
  O  O0  1  0.33339800  0.48167500  0.74120600  1
  O  O1  1  0.66660200  0.51832500  0.25879400  1
  O  O2  1  0.47353700  0.25902300  0.03500200  1
  O  O3  1  0.16660200  0.48167500  0.24120600  1
  O  O4  1  0.83339800  0.51832500  0.75879400  1
  O  O5  1  0.30957800  0.16000500  0.46908700  1
  O  O6  1  0.19042200  0.16000500  0.96908700  1
  O  O7  1  0.02646300  0.25902300  0.53500200  1
  O  O8  1  0.52646300  0.74097700  0.96499800  1
  O  O9  1  0.80957800  0.83999500  0.03091300  1
  O  O10  1  0.97353700  0.74097700  0.46499800  1
  O  O11  1  0.69042200  0.83999500  0.53091300  1
loop_
_geom_bond_atom_site_label_1
_geom_bond_atom_site_label_2
_geom_bond_distance
_geom_bond_site_symmetry_2
K0 O1 2.802280 1_555
K0 O8 2.809808 1_545
K0 O5 2.830077 1_555
K0 O11 2.832585 1_545
K0 O7 2.849345 1_655
K0 O9 2.887758 1_546
K0 O4 3.150695 1_555
K1 O3 2.802280 1_556
K1 O7 2.809808 1_565
K1 O9 2.830077 1_456
K1 O6 2.832585 1_565
K1 O8 2.849345 1_555
K1 O5 2.887758 1_565
K1 O0 3.150695 1_555
K2 O0 2.802280 1_555
K2 O2 2.809808 1_565
K2 O11 2.830077 1_555
K2 O5 2.832585 1_565
K2 O10 2.849345 1_455
K2 O6 2.887758 1_564
K2 O3 3.150695 1_555
K3 O4 2.802280 1_554
K3 O10 2.809808 1_545
K3 O6 2.830077 1_654
K3 O9 2.832585 1_545
K3 O2 2.849345 1_555
K3 O11 2.887758 1_545
K3 O1 3.150695 1_555
Li0 O2 1.985085 1_555
Li0 O1 2.006697 1_555
Li0 O3 2.031393 1_555
Li0 O5 2.093951 1_555
Li0 O8 2.203188 1_554
Li1 O8 1.985085 1_555
Li1 O0 2.006697 1_555
Li1 O4 2.031393 1_555
Li1 O11 2.093951 1_555
Li1 O2 2.203188 1_556
Li2 O10 1.985085 1_555
Li2 O3 2.006697 1_655
Li2 O1 2.031393 1_555
Li2 O9 2.093951 1_555
Li2 O7 2.203188 1_655
Li3 O7 1.985085 1_555
Li3 O4 2.006697 1_455
Li3 O0 2.031393 1_555
Li3 O6 2.093951 1_555
Li3 O10 2.203188 1_455
C0 O6 1.290744 1_555
C0 O2 1.303073 1_556
C0 O0 1.318000 1_555
C1 O9 1.290744 1_555
C1 O8 1.303073 1_554
C1 O1 1.318000 1_555
C2 O11 1.290744 1_555
C2 O10 1.303073 1_555
C2 O4 1.318000 1_555
C3 O5 1.290744 1_555
C3 O7 1.303073 1_555
C3 O3 1.318000 1_555
