# generated using pymatgen
data_TiNiO3
_symmetry_space_group_name_H-M   'P 1'
_cell_length_a   5.50517938
_cell_length_b   5.49939771
_cell_length_c   33.01173662
_cell_angle_alpha   55.03462497
_cell_angle_beta   54.94943479
_cell_angle_gamma   54.94504403
_symmetry_Int_Tables_number   1
_chemical_formula_structural   TiNiO3
_chemical_formula_sum   'Ti12 Ni12 O36'
_cell_volume   624.09541268
_cell_formula_units_Z   12
loop_
 _symmetry_equiv_pos_site_id
 _symmetry_equiv_pos_as_xyz
  1  'x, y, z'
loop_
 _atom_site_type_symbol
 _atom_site_label
 _atom_site_symmetry_multiplicity
 _atom_site_fract_x
 _atom_site_fract_y
 _atom_site_fract_z
 _atom_site_occupancy
  Ti  Ti0  1  0.15074500  0.14581100  0.19055400  1
  Ti  Ti1  1  0.14675000  0.14554300  0.35627500  1
  Ti  Ti2  1  0.87348800  0.86426300  0.13974800  1
  Ti  Ti3  1  0.14594800  0.14557000  0.52298600  1
  Ti  Ti4  1  0.86152300  0.85899300  0.30857200  1
  Ti  Ti5  1  0.14694600  0.14926200  0.68955300  1
  Ti  Ti6  1  0.86040300  0.85942700  0.47518100  1
  Ti  Ti7  1  0.14313000  0.14002500  0.85804800  1
  Ti  Ti8  1  0.86024100  0.86046700  0.64202800  1
  Ti  Ti9  1  0.86849100  0.85495400  0.80804700  1
  Ti  Ti10  1  0.63691000  0.64726700  0.94556100  1
  Ti  Ti11  1  0.82409500  0.86014700  0.98110000  1
  Ni  Ni0  1  0.14546300  0.15026300  0.02623800  1
  Ni  Ni1  1  0.33863100  0.35643700  0.06189000  1
  Ni  Ni2  1  0.35605300  0.35116800  0.22455200  1
  Ni  Ni3  1  0.65577200  0.65143800  0.11083100  1
  Ni  Ni4  1  0.35240600  0.35148200  0.39091100  1
  Ni  Ni5  1  0.65393300  0.65369200  0.27386800  1
  Ni  Ni6  1  0.35136400  0.35122900  0.55778200  1
  Ni  Ni7  1  0.65140400  0.65164800  0.44118900  1
  Ni  Ni8  1  0.35277000  0.34989300  0.72524300  1
  Ni  Ni9  1  0.65146400  0.65221100  0.60793100  1
  Ni  Ni10  1  0.35598400  0.35030200  0.89149100  1
  Ni  Ni11  1  0.65128100  0.65232700  0.77497900  1
  O  O0  1  0.04978000  0.75648200  0.07692100  1
  O  O1  1  0.44139500  0.05852900  0.12826300  1
  O  O2  1  0.75616100  0.46851000  0.00489200  1
  O  O3  1  0.23602000  0.56684700  0.15831300  1
  O  O4  1  0.57465900  0.95181800  0.03957700  1
  O  O5  1  0.05379300  0.77082700  0.24051500  1
  O  O6  1  0.94544700  0.24684300  0.09388500  1
  O  O7  1  0.43865000  0.05148600  0.29513700  1
  O  O8  1  0.77286100  0.43431700  0.17759400  1
  O  O9  1  0.23172200  0.55950300  0.32501800  1
  O  O10  1  0.56556100  0.94855000  0.20483600  1
  O  O11  1  0.05133100  0.76926900  0.40726200  1
  O  O12  1  0.94910700  0.23047800  0.26142900  1
  O  O13  1  0.43675400  0.05214100  0.46177900  1
  O  O14  1  0.77051800  0.43530800  0.34252100  1
  O  O15  1  0.23000400  0.55959900  0.49184000  1
  O  O16  1  0.56124700  0.94662000  0.37206900  1
  O  O17  1  0.05117800  0.76933800  0.57404200  1
  O  O18  1  0.94596200  0.23056200  0.42800100  1
  O  O19  1  0.43695300  0.05282700  0.62860300  1
  O  O20  1  0.76926900  0.43450500  0.50945500  1
  O  O21  1  0.23039500  0.56005900  0.65877000  1
  O  O22  1  0.56072000  0.94657800  0.53876100  1
  O  O23  1  0.05296700  0.77057400  0.74082100  1
  O  O24  1  0.94583600  0.23127200  0.59473000  1
  O  O25  1  0.43972500  0.05267300  0.79589400  1
  O  O26  1  0.76988900  0.43561600  0.67621700  1
  O  O27  1  0.23472300  0.55919000  0.82490700  1
  O  O28  1  0.56264500  0.94759000  0.70546500  1
  O  O29  1  0.05664900  0.76839700  0.90463600  1
  O  O30  1  0.94824300  0.22967400  0.76170600  1
  O  O31  1  0.46725400  0.04323800  0.95727600  1
  O  O32  1  0.77524700  0.43317800  0.84223800  1
  O  O33  1  0.25185600  0.58811400  0.98534200  1
  O  O34  1  0.56790400  0.93073500  0.87469500  1
  O  O35  1  0.92958100  0.25213200  0.92823000  1
loop_
_geom_bond_atom_site_label_1
_geom_bond_atom_site_label_2
_geom_bond_distance
_geom_bond_site_symmetry_2
Ni0 O0 1.977803 1_545
Ni0 O2 2.040878 1_455
Ni0 O6 2.084413 1_455
Ni0 O31 2.091214 1_554
Ni0 O4 2.156361 1_545
Ni0 O33 2.224783 1_554
Ni1 O0 1.985224 1_555
Ni1 O1 2.012387 1_555
Ni1 O6 2.075362 1_455
Ni1 O2 2.129376 1_555
Ni1 O4 2.154117 1_545
Ni1 O33 2.287871 1_554
Ni2 O8 2.045625 1_555
Ni2 O7 2.075339 1_555
Ni2 O5 2.085228 1_555
Ni2 O3 2.100388 1_555
Ni2 O10 2.124223 1_545
Ni2 O12 2.142648 1_455
Ni3 O6 2.032926 1_555
Ni3 O0 2.049637 1_655
Ni3 O3 2.062025 1_555
Ni3 O4 2.089651 1_555
Ni3 O1 2.097015 1_565
Ni3 O8 2.104771 1_555
Ni4 O14 2.052816 1_555
Ni4 O11 2.082482 1_555
Ni4 O13 2.086685 1_555
Ni4 O9 2.101546 1_555
Ni4 O16 2.119294 1_545
Ni4 O18 2.139446 1_455
Ni5 O10 2.047227 1_555
Ni5 O12 2.051966 1_555
Ni5 O9 2.096344 1_555
Ni5 O5 2.122516 1_655
Ni5 O7 2.123609 1_565
Ni5 O14 2.157838 1_555
Ni6 O20 2.050611 1_555
Ni6 O17 2.082524 1_555
Ni6 O19 2.088198 1_555
Ni6 O15 2.104793 1_555
Ni6 O22 2.121046 1_545
Ni6 O24 2.132808 1_455
Ni7 O18 2.052478 1_555
Ni7 O16 2.053718 1_555
Ni7 O15 2.087433 1_555
Ni7 O11 2.119778 1_655
Ni7 O13 2.124349 1_565
Ni7 O20 2.151899 1_555
Ni8 O26 2.053045 1_555
Ni8 O23 2.084049 1_555
Ni8 O25 2.086781 1_555
Ni8 O21 2.121717 1_555
Ni8 O28 2.123399 1_545
Ni8 O30 2.132065 1_455
Ni9 O24 2.051988 1_555
Ni9 O22 2.056373 1_555
Ni9 O21 2.086391 1_555
Ni9 O17 2.117389 1_655
Ni9 O19 2.126741 1_565
Ni9 O26 2.154960 1_555
Ni10 O31 2.019769 1_555
Ni10 O29 2.039674 1_555
Ni10 O32 2.056049 1_555
Ni10 O27 2.122991 1_555
Ni10 O34 2.150245 1_545
Ni10 O35 2.169807 1_455
Ni11 O28 2.060557 1_555
Ni11 O30 2.060752 1_555
Ni11 O27 2.068363 1_555
Ni11 O23 2.128805 1_655
Ni11 O25 2.133916 1_565
Ni11 O32 2.139325 1_555
O0 Ti2 2.007747 1_455
O1 Ti0 1.867880 1_555
O1 Ti2 2.143809 1_545
O2 Ti10 1.939656 1_554
O2 Ti11 2.011095 1_554
O3 Ti2 1.881543 1_455
O3 Ti0 2.136498 1_555
O4 Ti11 1.772515 1_554
O5 Ti0 1.900697 1_565
O5 Ti4 2.081009 1_455
O6 Ti2 1.869048 1_545
O7 Ti1 1.854667 1_555
O7 Ti4 2.133953 1_545
O8 Ti0 1.865697 1_655
O8 Ti2 2.186834 1_555
O9 Ti4 1.884424 1_455
O9 Ti1 2.107760 1_555
O10 Ti2 1.939216 1_555
O10 Ti0 2.102093 1_565
O11 Ti1 1.905779 1_565
O11 Ti6 2.084797 1_455
O12 Ti4 1.858401 1_545
O12 Ti0 2.143599 1_655
O13 Ti3 1.854498 1_555
O13 Ti6 2.137004 1_545
O14 Ti1 1.869471 1_655
O14 Ti4 2.153843 1_555
O15 Ti6 1.885013 1_455
O15 Ti3 2.106227 1_555
O16 Ti4 1.902997 1_555
O16 Ti1 2.126223 1_565
O17 Ti3 1.904448 1_565
O17 Ti8 2.089844 1_455
O18 Ti6 1.852460 1_545
O18 Ti1 2.171613 1_655
O19 Ti5 1.854540 1_555
O19 Ti8 2.136068 1_545
O20 Ti3 1.868118 1_655
O20 Ti6 2.157988 1_555
O21 Ti8 1.888684 1_455
O21 Ti5 2.090959 1_555
O22 Ti6 1.903745 1_555
O22 Ti3 2.127166 1_565
O23 Ti5 1.913443 1_565
O23 Ti9 2.054761 1_455
O24 Ti8 1.851403 1_545
O24 Ti3 2.175123 1_655
O25 Ti7 1.867459 1_555
O25 Ti9 2.134086 1_545
O26 Ti5 1.866156 1_655
O26 Ti8 2.155895 1_555
O27 Ti9 1.872042 1_455
O27 Ti7 2.139147 1_555
O28 Ti8 1.899147 1_555
O28 Ti5 2.130870 1_565
O29 Ti7 1.855512 1_565
O29 Ti10 2.181619 1_455
O29 Ti11 2.295905 1_455
O30 Ti9 1.853172 1_545
O30 Ti5 2.173581 1_655
O31 Ti10 1.994461 1_545
O31 Ti11 2.021457 1_545
O32 Ti7 1.863384 1_655
O32 Ti9 2.149226 1_555
O33 Ti10 1.851747 1_555
O33 Ti11 1.973568 1_455
O34 Ti9 1.956949 1_555
O34 Ti10 2.051310 1_555
O34 Ti7 2.180464 1_565
O35 Ti10 1.997387 1_555
O35 Ti11 1.997986 1_545
O35 Ti7 2.192256 1_655
