# generated using pymatgen
data_ZnS
_symmetry_space_group_name_H-M   'P 1'
_cell_length_a   3.85225861
_cell_length_b   3.85225861
_cell_length_c   113.30076300
_cell_angle_alpha   90.00000000
_cell_angle_beta   90.00000000
_cell_angle_gamma   120.00001056
_symmetry_Int_Tables_number   1
_chemical_formula_structural   ZnS
_chemical_formula_sum   'Zn36 S36'
_cell_volume   1456.11035439
_cell_formula_units_Z   36
loop_
 _symmetry_equiv_pos_site_id
 _symmetry_equiv_pos_as_xyz
  1  'x, y, z'
loop_
 _atom_site_type_symbol
 _atom_site_label
 _atom_site_symmetry_multiplicity
 _atom_site_fract_x
 _atom_site_fract_y
 _atom_site_fract_z
 _atom_site_occupancy
  Zn  Zn0  1  0.00000000  0.00000000  0.16666700  1
  Zn  Zn1  1  0.33333300  0.66666700  0.91666700  1
  Zn  Zn2  1  0.66666700  0.33333300  0.33333300  1
  Zn  Zn3  1  0.33333300  0.66666700  0.36111100  1
  Zn  Zn4  1  0.66666700  0.33333300  0.13888700  1
  Zn  Zn5  1  0.66666700  0.33333300  0.97221900  1
  Zn  Zn6  1  0.33333300  0.66666700  0.55555400  1
  Zn  Zn7  1  0.00000000  0.00000000  0.38888400  1
  Zn  Zn8  1  0.00000000  0.00000000  0.94443900  1
  Zn  Zn9  1  0.00000000  0.00000000  0.44445100  1
  Zn  Zn10  1  0.33333300  0.66666700  0.27777700  1
  Zn  Zn11  1  0.00000000  0.00000000  0.66666300  1
  Zn  Zn12  1  0.33333300  0.66666700  0.02777800  1
  Zn  Zn13  1  0.00000000  0.00000000  0.52777400  1
  Zn  Zn14  1  0.66666700  0.33333300  0.88888600  1
  Zn  Zn15  1  0.66666700  0.33333300  0.61111000  1
  Zn  Zn16  1  0.33333300  0.66666700  0.63888700  1
  Zn  Zn17  1  0.00000000  0.00000000  0.58334000  1
  Zn  Zn18  1  0.33333300  0.66666700  0.19444400  1
  Zn  Zn19  1  0.33333300  0.66666700  0.47222100  1
  Zn  Zn20  1  0.66666700  0.33333300  0.22222200  1
  Zn  Zn21  1  0.66666700  0.33333300  0.05555600  1
  Zn  Zn22  1  0.00000000  0.00000000  0.30556500  1
  Zn  Zn23  1  0.00000000  0.00000000  0.00000600  1
  Zn  Zn24  1  0.33333300  0.66666700  0.11111000  1
  Zn  Zn25  1  0.00000000  0.00000000  0.80555300  1
  Zn  Zn26  1  0.00000000  0.00000000  0.72222900  1
  Zn  Zn27  1  0.00000000  0.00000000  0.08333200  1
  Zn  Zn28  1  0.66666700  0.33333300  0.77777900  1
  Zn  Zn29  1  0.66666700  0.33333300  0.69444100  1
  Zn  Zn30  1  0.66666700  0.33333300  0.41666500  1
  Zn  Zn31  1  0.33333300  0.66666700  0.83333100  1
  Zn  Zn32  1  0.00000000  0.00000000  0.24999500  1
  Zn  Zn33  1  0.66666700  0.33333300  0.49999900  1
  Zn  Zn34  1  0.33333300  0.66666700  0.74999900  1
  Zn  Zn35  1  0.00000000  0.00000000  0.86111700  1
  S  S0  1  0.00000000  0.00000000  0.46527700  1
  S  S1  1  0.33333300  0.66666700  0.38194400  1
  S  S2  1  0.66666700  0.33333300  0.79861400  1
  S  S3  1  0.66666700  0.33333300  0.52083300  1
  S  S4  1  0.33333300  0.66666700  0.93750000  1
  S  S5  1  0.66666700  0.33333300  0.99307300  1
  S  S6  1  0.33333300  0.66666700  0.13194400  1
  S  S7  1  0.33333300  0.66666700  0.57640700  1
  S  S8  1  0.66666700  0.33333300  0.90972100  1
  S  S9  1  0.00000000  0.00000000  0.32639100  1
  S  S10  1  0.00000000  0.00000000  0.10416700  1
  S  S11  1  0.33333300  0.66666700  0.21527900  1
  S  S12  1  0.66666700  0.33333300  0.71529500  1
  S  S13  1  0.66666700  0.33333300  0.07639000  1
  S  S14  1  0.66666700  0.33333300  0.24305600  1
  S  S15  1  0.66666700  0.33333300  0.43751800  1
  S  S16  1  0.33333300  0.66666700  0.04861300  1
  S  S17  1  0.00000000  0.00000000  0.60416600  1
  S  S18  1  0.00000000  0.00000000  0.40970500  1
  S  S19  1  0.00000000  0.00000000  0.88194200  1
  S  S20  1  0.66666700  0.33333300  0.15972200  1
  S  S21  1  0.33333300  0.66666700  0.29863000  1
  S  S22  1  0.66666700  0.33333300  0.63194300  1
  S  S23  1  0.33333300  0.66666700  0.85418400  1
  S  S24  1  0.33333300  0.66666700  0.65972100  1
  S  S25  1  0.00000000  0.00000000  0.82637300  1
  S  S26  1  0.33333300  0.66666700  0.77083300  1
  S  S27  1  0.00000000  0.00000000  0.96526000  1
  S  S28  1  0.00000000  0.00000000  0.27081600  1
  S  S29  1  0.00000000  0.00000000  0.74305700  1
  S  S30  1  0.33333300  0.66666700  0.49305600  1
  S  S31  1  0.00000000  0.00000000  0.02083300  1
  S  S32  1  0.66666700  0.33333300  0.35416800  1
  S  S33  1  0.00000000  0.00000000  0.54859500  1
  S  S34  1  0.00000000  0.00000000  0.68748300  1
  S  S35  1  0.00000000  0.00000000  0.18750100  1
loop_
_geom_bond_atom_site_label_1
_geom_bond_atom_site_label_2
_geom_bond_distance
_geom_bond_site_symmetry_2
S0 Zn19 2.359156 1_545
S0 Zn19 2.359158 1_445
S0 Zn19 2.359158 1_555
S0 Zn9 2.359602 1_555
S1 Zn7 2.359004 1_565
S1 Zn7 2.359007 1_555
S1 Zn7 2.359007 1_665
S1 Zn3 2.360395 1_555
S2 Zn25 2.358967 1_655
S2 Zn25 2.358969 1_665
S2 Zn25 2.358969 1_555
S2 Zn28 2.360621 1_555
S3 Zn13 2.359042 1_655
S3 Zn13 2.359045 1_665
S3 Zn13 2.359045 1_555
S3 Zn33 2.360508 1_555
S4 Zn8 2.358967 1_565
S4 Zn8 2.358969 1_555
S4 Zn8 2.358969 1_665
S4 Zn1 2.360395 1_555
S5 Zn23 2.358740 1_656
S5 Zn23 2.358743 1_666
S5 Zn23 2.358743 1_556
S5 Zn5 2.362774 1_555
S6 Zn4 2.359117 1_455
S6 Zn4 2.359117 1_565
S6 Zn4 2.359124 1_555
S6 Zn24 2.360508 1_555
S7 Zn17 2.358740 1_565
S7 Zn17 2.358743 1_665
S7 Zn17 2.358743 1_555
S7 Zn6 2.362661 1_555
S8 Zn1 2.359231 1_545
S8 Zn1 2.359231 1_655
S8 Zn1 2.359237 1_555
S8 Zn14 2.360621 1_555
S9 Zn2 2.359080 1_455
S9 Zn2 2.359083 1_445
S9 Zn2 2.359083 1_555
S9 Zn22 2.359602 1_555
S10 Zn24 2.359118 1_545
S10 Zn24 2.359121 1_555
S10 Zn24 2.359121 1_445
S10 Zn27 2.360621 1_555
S11 Zn20 2.359117 1_455
S11 Zn20 2.359117 1_565
S11 Zn20 2.359124 1_555
S11 Zn18 2.360621 1_555
S12 Zn26 2.358778 1_655
S12 Zn26 2.358781 1_665
S12 Zn26 2.358781 1_555
S12 Zn29 2.362774 1_555
S13 Zn27 2.359080 1_655
S13 Zn27 2.359083 1_665
S13 Zn27 2.359083 1_555
S13 Zn21 2.360508 1_555
S14 Zn32 2.358967 1_655
S14 Zn32 2.358969 1_555
S14 Zn32 2.358969 1_665
S14 Zn20 2.360508 1_555
S15 Zn9 2.358740 1_655
S15 Zn9 2.358743 1_665
S15 Zn9 2.358743 1_555
S15 Zn30 2.362661 1_555
S16 Zn21 2.359117 1_565
S16 Zn21 2.359117 1_455
S16 Zn21 2.359124 1_555
S16 Zn12 2.360621 1_555
S17 Zn15 2.359156 1_455
S17 Zn15 2.359158 1_445
S17 Zn15 2.359158 1_555
S17 Zn17 2.359602 1_555
S18 Zn7 2.359035 1_555
S18 Zn30 2.359761 1_455
S18 Zn30 2.359764 1_445
S18 Zn30 2.359764 1_555
S19 Zn14 2.359156 1_455
S19 Zn14 2.359158 1_445
S19 Zn14 2.359158 1_555
S19 Zn35 2.359488 1_555
S20 Zn0 2.359193 1_655
S20 Zn0 2.359196 1_665
S20 Zn0 2.359196 1_555
S20 Zn4 2.360621 1_555
S21 Zn22 2.358816 1_565
S21 Zn22 2.358818 1_555
S21 Zn22 2.358818 1_665
S21 Zn10 2.362661 1_555
S22 Zn16 2.359155 1_545
S22 Zn16 2.359155 1_655
S22 Zn16 2.359162 1_555
S22 Zn15 2.360395 1_555
S23 Zn35 2.358740 1_565
S23 Zn35 2.358743 1_555
S23 Zn35 2.358743 1_665
S23 Zn31 2.362661 1_555
S24 Zn11 2.359080 1_565
S24 Zn11 2.359083 1_555
S24 Zn11 2.359083 1_665
S24 Zn16 2.360508 1_555
S25 Zn25 2.358922 1_555
S25 Zn31 2.359685 1_545
S25 Zn31 2.359688 1_555
S25 Zn31 2.359688 1_445
S26 Zn28 2.359231 1_455
S26 Zn28 2.359231 1_565
S26 Zn28 2.359237 1_555
S26 Zn34 2.360508 1_555
S27 Zn8 2.359035 1_555
S27 Zn5 2.359723 1_455
S27 Zn5 2.359726 1_555
S27 Zn5 2.359726 1_445
S28 Zn32 2.359035 1_555
S28 Zn10 2.359799 1_545
S28 Zn10 2.359801 1_555
S28 Zn10 2.359801 1_445
S29 Zn34 2.359080 1_545
S29 Zn34 2.359083 1_555
S29 Zn34 2.359083 1_445
S29 Zn26 2.359828 1_555
S30 Zn33 2.359117 1_455
S30 Zn33 2.359117 1_565
S30 Zn33 2.359124 1_555
S30 Zn19 2.360621 1_555
S31 Zn12 2.359193 1_545
S31 Zn12 2.359196 1_555
S31 Zn12 2.359196 1_445
S31 Zn23 2.359715 1_555
S32 Zn3 2.359117 1_545
S32 Zn3 2.359117 1_655
S32 Zn3 2.359124 1_555
S32 Zn2 2.360621 1_555
S33 Zn13 2.359035 1_555
S33 Zn6 2.359723 1_545
S33 Zn6 2.359726 1_555
S33 Zn6 2.359726 1_445
S34 Zn11 2.358922 1_555
S34 Zn29 2.359685 1_455
S34 Zn29 2.359688 1_445
S34 Zn29 2.359688 1_555
S35 Zn18 2.359118 1_545
S35 Zn18 2.359121 1_445
S35 Zn18 2.359121 1_555
S35 Zn0 2.360508 1_555
