# generated using pymatgen
data_K2B2Se7
_symmetry_space_group_name_H-M   'P 1'
_cell_length_a   8.61690198
_cell_length_b   8.61690198
_cell_length_c   12.34107482
_cell_angle_alpha   61.95390387
_cell_angle_beta   61.95390387
_cell_angle_gamma   48.96516095
_symmetry_Int_Tables_number   1
_chemical_formula_structural   K2B2Se7
_chemical_formula_sum   'K4 B4 Se14'
_cell_volume   591.81230689
_cell_formula_units_Z   2
loop_
 _symmetry_equiv_pos_site_id
 _symmetry_equiv_pos_as_xyz
  1  'x, y, z'
loop_
 _atom_site_type_symbol
 _atom_site_label
 _atom_site_symmetry_multiplicity
 _atom_site_fract_x
 _atom_site_fract_y
 _atom_site_fract_z
 _atom_site_occupancy
  K  K0  1  0.67549936  0.11868039  0.02282742  1
  K  K1  1  0.88131961  0.32450064  0.47717258  1
  K  K2  1  0.32450064  0.88131961  0.97717258  1
  K  K3  1  0.11868039  0.67549936  0.52282742  1
  B  B0  1  0.84244534  0.39082173  0.15150838  1
  B  B1  1  0.60917827  0.15755466  0.34849162  1
  B  B2  1  0.15755466  0.60917827  0.84849162  1
  B  B3  1  0.39082173  0.84244534  0.65150838  1
  Se  Se0  1  0.54023991  0.45976009  0.25000000  1
  Se  Se1  1  0.45976009  0.54023991  0.75000000  1
  Se  Se2  1  0.17216694  0.56838631  0.02129847  1
  Se  Se3  1  0.43161369  0.82783306  0.47870153  1
  Se  Se4  1  0.82783306  0.43161369  0.97870153  1
  Se  Se5  1  0.56838631  0.17216694  0.52129847  1
  Se  Se6  1  0.84801135  0.61181697  0.16822103  1
  Se  Se7  1  0.38818303  0.15198865  0.33177897  1
  Se  Se8  1  0.15198865  0.38818303  0.83177897  1
  Se  Se9  1  0.61181697  0.84801135  0.66822103  1
  Se  Se10  1  0.07126122  0.09369918  0.23025047  1
  Se  Se11  1  0.90630082  0.92873878  0.26974953  1
  Se  Se12  1  0.92873878  0.90630082  0.76974953  1
  Se  Se13  1  0.09369918  0.07126122  0.73025047  1
loop_
_geom_bond_atom_site_label_1
_geom_bond_atom_site_label_2
_geom_bond_distance
_geom_bond_site_symmetry_2
K0 Se6 3.334518 1_545
K0 Se12 3.404108 1_544
K0 Se2 3.430420 1_555
K0 Se4 3.447510 1_554
K0 Se7 3.459568 1_555
K0 Se11 3.557379 1_545
K0 Se13 3.661761 1_654
K0 Se1 3.675005 1_554
K0 Se2 3.763401 1_645
K1 Se7 3.334518 1_655
K1 Se13 3.404108 1_655
K1 Se3 3.430420 1_555
K1 Se5 3.447510 1_555
K1 Se6 3.459568 1_555
K1 Se10 3.557379 1_655
K1 Se12 3.661761 1_545
K1 Se1 3.675005 1_555
K1 Se3 3.763401 1_645
K2 Se8 3.334518 1_565
K2 Se10 3.404108 1_566
K2 Se4 3.430420 1_555
K2 Se2 3.447510 1_556
K2 Se9 3.459568 1_555
K2 Se13 3.557379 1_565
K2 Se11 3.661761 1_456
K2 Se0 3.675005 1_556
K2 Se4 3.763401 1_465
K3 Se9 3.334518 1_455
K3 Se11 3.404108 1_455
K3 Se5 3.430420 1_555
K3 Se3 3.447510 1_555
K3 Se8 3.459568 1_555
K3 Se12 3.557379 1_455
K3 Se10 3.661761 1_565
K3 Se0 3.675005 1_555
K3 Se5 3.763401 1_465
B0 Se6 2.041995 1_555
B0 Se4 2.043763 1_554
B0 Se10 2.054443 1_655
B0 Se0 2.069509 1_555
B1 Se7 2.041995 1_555
B1 Se5 2.043763 1_555
B1 Se11 2.054443 1_545
B1 Se0 2.069509 1_555
B2 Se8 2.041995 1_555
B2 Se2 2.043763 1_556
B2 Se12 2.054443 1_455
B2 Se1 2.069509 1_555
B3 Se9 2.041995 1_555
B3 Se3 2.043763 1_555
B3 Se13 2.054443 1_565
B3 Se1 2.069509 1_555
Se2 Se6 2.394308 1_455
Se3 Se7 2.394308 1_565
Se4 Se8 2.394308 1_655
Se5 Se9 2.394308 1_545
