# generated using pymatgen
data_Gd2Ge2O7
_symmetry_space_group_name_H-M   'P 1'
_cell_length_a   6.85814700
_cell_length_b   6.92528730
_cell_length_c   18.67922742
_cell_angle_alpha   88.59583977
_cell_angle_beta   85.65754583
_cell_angle_gamma   87.85991443
_symmetry_Int_Tables_number   1
_chemical_formula_structural   Gd2Ge2O7
_chemical_formula_sum   'Gd12 Ge12 O42'
_cell_volume   883.79015394
_cell_formula_units_Z   6
loop_
 _symmetry_equiv_pos_site_id
 _symmetry_equiv_pos_as_xyz
  1  'x, y, z'
loop_
 _atom_site_type_symbol
 _atom_site_label
 _atom_site_symmetry_multiplicity
 _atom_site_fract_x
 _atom_site_fract_y
 _atom_site_fract_z
 _atom_site_occupancy
  Gd  Gd0  1  0.09879700  0.10716100  0.08949300  1
  Gd  Gd1  1  0.19732700  0.37026500  0.90803100  1
  Gd  Gd2  1  0.11848400  0.44819000  0.41044400  1
  Gd  Gd3  1  0.48582200  0.46195900  0.73888600  1
  Gd  Gd4  1  0.98873100  0.19966900  0.73871400  1
  Gd  Gd5  1  0.89069800  0.57893700  0.58752800  1
  Gd  Gd6  1  0.01266800  0.80440900  0.25905700  1
  Gd  Gd7  1  0.80560500  0.62831400  0.09122800  1
  Gd  Gd8  1  0.90391400  0.89259900  0.90978600  1
  Gd  Gd9  1  0.38845200  0.85869700  0.60026100  1
  Gd  Gd10  1  0.51957800  0.54495600  0.26192400  1
  Gd  Gd11  1  0.59635800  0.13072500  0.39362700  1
  Ge  Ge0  1  0.70063400  0.38864700  0.91631500  1
  Ge  Ge1  1  0.12264500  0.95604400  0.44436100  1
  Ge  Ge2  1  0.80516900  0.08224400  0.55732700  1
  Ge  Ge3  1  0.30354200  0.60989000  0.08293000  1
  Ge  Ge4  1  0.98937000  0.33592100  0.25749200  1
  Ge  Ge5  1  0.37776800  0.34755200  0.58028500  1
  Ge  Ge6  1  0.62960400  0.65966600  0.42055400  1
  Ge  Ge7  1  0.64785100  0.14029700  0.05923600  1
  Ge  Ge8  1  0.52075700  0.00538400  0.21140600  1
  Ge  Ge9  1  0.01320000  0.66610300  0.74378100  1
  Ge  Ge10  1  0.48160900  0.99647600  0.78665900  1
  Ge  Ge11  1  0.35603000  0.85792400  0.93948700  1
  O  O0  1  0.81825600  0.29250300  0.09006800  1
  O  O1  1  0.17542500  0.42575000  0.04530500  1
  O  O2  1  0.54927800  0.25134100  0.98223800  1
  O  O3  1  0.70550400  0.78458500  0.33707300  1
  O  O4  1  0.45508800  0.74496000  0.01623100  1
  O  O5  1  0.82993800  0.57171300  0.95403900  1
  O  O6  1  0.44661100  0.80195400  0.73232900  1
  O  O7  1  0.15027900  0.48104000  0.78752500  1
  O  O8  1  0.55097900  0.19796800  0.26775700  1
  O  O9  1  0.19345600  0.05356300  0.96806600  1
  O  O10  1  0.19435500  0.44879100  0.52883400  1
  O  O11  1  0.65122700  0.16557400  0.75326600  1
  O  O12  1  0.49140900  0.54143100  0.13740500  1
  O  O13  1  0.48906900  0.83784600  0.46831900  1
  O  O14  1  0.26330300  0.14495900  0.40724500  1
  O  O15  1  0.12526200  0.70330000  0.65744900  1
  O  O16  1  0.81030900  0.94469800  0.03102900  1
  O  O17  1  0.56010900  0.90924900  0.87743100  1
  O  O18  1  0.85221900  0.51901400  0.21214100  1
  O  O19  1  0.18216900  0.48962200  0.27926700  1
  O  O20  1  0.29700700  0.21120000  0.65894300  1
  O  O21  1  0.48422900  0.47122100  0.38868500  1
  O  O22  1  0.94006000  0.87898400  0.78748300  1
  O  O23  1  0.11135000  0.76884300  0.11875900  1
  O  O24  1  0.88969500  0.24557800  0.61575000  1
  O  O25  1  0.10325400  0.77919500  0.38051000  1
  O  O26  1  0.89213500  0.23016500  0.87986900  1
  O  O27  1  0.51948900  0.53554200  0.61199000  1
  O  O28  1  0.26447000  0.12892600  0.81500900  1
  O  O29  1  0.44266000  0.09123600  0.12110600  1
  O  O30  1  0.73965600  0.87602300  0.18297000  1
  O  O31  1  0.54714500  0.18097800  0.53260400  1
  O  O32  1  0.72401600  0.86951100  0.59929400  1
  O  O33  1  0.35234500  0.83656100  0.24522800  1
  O  O34  1  0.06453000  0.12597700  0.21173900  1
  O  O35  1  0.81949500  0.51633500  0.72161400  1
  O  O36  1  0.51202200  0.46010900  0.86262700  1
  O  O37  1  0.87664500  0.08838500  0.46198000  1
  O  O38  1  0.11273300  0.89869700  0.53686800  1
  O  O39  1  0.82010700  0.55494600  0.46976400  1
  O  O40  1  0.87890600  0.29380300  0.34369800  1
  O  O41  1  0.18429200  0.70685700  0.90878000  1
loop_
_geom_bond_atom_site_label_1
_geom_bond_atom_site_label_2
_geom_bond_distance
_geom_bond_site_symmetry_2
Gd0 O0 2.272104 1_455
Gd0 O34 2.284170 1_555
Gd0 O9 2.346074 1_554
Gd0 O23 2.392688 1_545
Gd0 O1 2.399368 1_555
Gd0 O29 2.471949 1_555
Gd0 O16 2.631835 1_445
Gd1 O41 2.329716 1_555
Gd1 O36 2.358303 1_555
Gd1 O7 2.401315 1_555
Gd1 O26 2.437695 1_455
Gd1 O9 2.438835 1_555
Gd1 O28 2.447098 1_555
Gd1 O1 2.594386 1_556
Gd1 O5 2.915745 1_455
Gd1 O2 2.954317 1_555
Gd2 O14 2.289373 1_555
Gd2 O10 2.309994 1_555
Gd2 O25 2.346563 1_555
Gd2 O39 2.354901 1_455
Gd2 O40 2.429805 1_455
Gd2 O19 2.467757 1_555
Gd2 O21 2.520850 1_555
Gd3 O11 2.327476 1_555
Gd3 O35 2.330058 1_555
Gd3 O36 2.331572 1_555
Gd3 O6 2.361112 1_555
Gd3 O27 2.407927 1_555
Gd3 O7 2.409357 1_555
Gd3 O20 2.740484 1_555
Gd4 O11 2.330160 1_555
Gd4 O22 2.404902 1_545
Gd4 O24 2.454048 1_555
Gd4 O35 2.467813 1_555
Gd4 O28 2.480288 1_655
Gd4 O20 2.495240 1_655
Gd4 O7 2.501400 1_655
Gd4 O26 2.681008 1_555
Gd5 O32 2.283914 1_555
Gd5 O39 2.299136 1_555
Gd5 O15 2.347803 1_655
Gd5 O24 2.355548 1_555
Gd5 O10 2.431818 1_655
Gd5 O35 2.544981 1_555
Gd5 O27 2.579628 1_555
Gd5 O38 2.837051 1_655
Gd6 O33 2.342632 1_555
Gd6 O25 2.397733 1_555
Gd6 O34 2.404603 1_565
Gd6 O30 2.463881 1_455
Gd6 O19 2.466383 1_555
Gd6 O3 2.475294 1_455
Gd6 O18 2.505696 1_455
Gd6 O23 2.671543 1_555
Gd7 O0 2.324537 1_555
Gd7 O12 2.353536 1_555
Gd7 O18 2.404939 1_555
Gd7 O16 2.438281 1_555
Gd7 O23 2.438970 1_655
Gd7 O30 2.460238 1_555
Gd7 O5 2.593823 1_554
Gd7 O1 2.932612 1_655
Gd7 O4 2.950124 1_555
Gd8 O41 2.272309 1_655
Gd8 O22 2.283079 1_555
Gd8 O16 2.339626 1_556
Gd8 O26 2.390095 1_565
Gd8 O5 2.410320 1_555
Gd8 O17 2.475916 1_555
Gd8 O9 2.631150 1_665
Gd9 O32 2.304050 1_555
Gd9 O38 2.310491 1_555
Gd9 O15 2.313872 1_555
Gd9 O27 2.391562 1_555
Gd9 O13 2.514677 1_555
Gd9 O6 2.547359 1_555
Gd9 O20 2.732563 1_565
Gd9 O31 2.756418 1_565
Gd10 O33 2.311093 1_555
Gd10 O12 2.349254 1_555
Gd10 O19 2.356483 1_555
Gd10 O18 2.399513 1_555
Gd10 O8 2.405138 1_555
Gd10 O21 2.406044 1_555
Gd10 O3 2.625556 1_555
Gd11 O14 2.277750 1_555
Gd11 O37 2.392156 1_555
Gd11 O40 2.395477 1_555
Gd11 O8 2.426512 1_555
Gd11 O21 2.454557 1_555
Gd11 O13 2.533605 1_545
Gd11 O31 2.622399 1_555
Gd11 O3 2.700516 1_545
Ge0 O36 1.745897 1_555
Ge0 O5 1.764251 1_555
Ge0 O26 1.785071 1_555
Ge0 O2 1.822295 1_555
Ge1 O25 1.745831 1_555
Ge1 O14 1.752532 1_565
Ge1 O38 1.760336 1_555
Ge1 O37 1.899953 1_465
Ge2 O24 1.735427 1_555
Ge2 O32 1.741629 1_545
Ge2 O37 1.811001 1_555
Ge2 O31 1.957057 1_555
Ge2 O38 2.431563 1_645
Ge3 O12 1.746275 1_555
Ge3 O1 1.764445 1_555
Ge3 O23 1.786379 1_555
Ge3 O4 1.823952 1_555
Ge4 O34 1.745908 1_655
Ge4 O40 1.749484 1_555
Ge4 O18 1.785790 1_555
Ge4 O19 1.804034 1_655
Ge5 O10 1.755456 1_555
Ge5 O20 1.790256 1_555
Ge5 O27 1.791582 1_555
Ge5 O31 1.807463 1_555
Ge6 O13 1.755708 1_555
Ge6 O39 1.776581 1_555
Ge6 O21 1.810146 1_555
Ge6 O3 1.815367 1_555
Ge7 O0 1.741320 1_555
Ge7 O2 1.780787 1_554
Ge7 O16 1.785276 1_545
Ge7 O29 1.789280 1_555
Ge8 O8 1.747041 1_555
Ge8 O33 1.747628 1_545
Ge8 O30 1.772160 1_545
Ge8 O29 1.883960 1_555
Ge9 O22 1.741602 1_455
Ge9 O15 1.750509 1_555
Ge9 O7 1.780173 1_555
Ge9 O35 1.794228 1_455
Ge10 O6 1.740772 1_555
Ge10 O11 1.752050 1_565
Ge10 O28 1.772508 1_565
Ge10 O17 1.895621 1_555
Ge11 O41 1.741970 1_555
Ge11 O4 1.783627 1_556
Ge11 O9 1.787801 1_565
Ge11 O17 1.788898 1_555
