# generated using pymatgen
data_Mn2H30C9N3Cl7
_symmetry_space_group_name_H-M   'P 1'
_cell_length_a   14.65218214
_cell_length_b   14.65218214
_cell_length_c   6.43755500
_cell_angle_alpha   90.00000000
_cell_angle_beta   90.00000000
_cell_angle_gamma   120.00000065
_symmetry_Int_Tables_number   1
_chemical_formula_structural   Mn2H30C9N3Cl7
_chemical_formula_sum   'Mn4 H60 C18 N6 Cl14'
_cell_volume   1196.89540321
_cell_formula_units_Z   2
loop_
 _symmetry_equiv_pos_site_id
 _symmetry_equiv_pos_as_xyz
  1  'x, y, z'
loop_
 _atom_site_type_symbol
 _atom_site_label
 _atom_site_symmetry_multiplicity
 _atom_site_fract_x
 _atom_site_fract_y
 _atom_site_fract_z
 _atom_site_occupancy
  Mn  Mn0  1  0.66666700  0.33333300  0.64303300  1
  Mn  Mn1  1  0.00000000  0.00000000  0.50259400  1
  Mn  Mn2  1  0.33333300  0.66666700  0.14303300  1
  Mn  Mn3  1  0.00000000  0.00000000  0.00259400  1
  H  H0  1  0.75561300  0.67904700  0.99330000  1
  H  H1  1  0.14422500  0.68610600  0.41910300  1
  H  H2  1  0.32095300  0.07656600  0.99330000  1
  H  H3  1  0.58271900  0.93506700  0.64919900  1
  H  H4  1  0.68610600  0.54188100  0.91910300  1
  H  H5  1  0.32095300  0.24438700  0.99330000  1
  H  H6  1  0.93506700  0.35234800  0.14919900  1
  H  H7  1  0.36957600  0.12390800  0.45563600  1
  H  H8  1  0.24566800  0.87609200  0.95563600  1
  H  H9  1  0.41728100  0.06493300  0.14919900  1
  H  H10  1  0.26839100  0.13419600  0.31557500  1
  H  H11  1  0.73160900  0.86580400  0.81557500  1
  H  H12  1  0.50213700  0.75106900  0.72190000  1
  H  H13  1  0.35234800  0.41728100  0.64919900  1
  H  H14  1  0.75561300  0.07656600  0.99330000  1
  H  H15  1  0.86580400  0.13419600  0.31557500  1
  H  H16  1  0.93506700  0.58271900  0.14919900  1
  H  H17  1  0.86580400  0.73160900  0.31557500  1
  H  H18  1  0.06493300  0.41728100  0.64919900  1
  H  H19  1  0.36957600  0.24566800  0.45563600  1
  H  H20  1  0.12390800  0.75433200  0.95563600  1
  H  H21  1  0.13419600  0.86580400  0.81557500  1
  H  H22  1  0.87609200  0.63042400  0.45563600  1
  H  H23  1  0.45811900  0.31389400  0.91910300  1
  H  H24  1  0.75433200  0.12390800  0.45563600  1
  H  H25  1  0.14422500  0.45811900  0.41910300  1
  H  H26  1  0.07656600  0.32095300  0.49330000  1
  H  H27  1  0.67904700  0.75561300  0.49330000  1
  H  H28  1  0.64765200  0.06493300  0.14919900  1
  H  H29  1  0.54188100  0.68610600  0.41910300  1
  H  H30  1  0.31389400  0.85577500  0.41910300  1
  H  H31  1  0.24893100  0.49786300  0.72190000  1
  H  H32  1  0.35234800  0.93506700  0.64919900  1
  H  H33  1  0.75106900  0.50213700  0.22190000  1
  H  H34  1  0.58271900  0.64765200  0.64919900  1
  H  H35  1  0.07656600  0.75561300  0.49330000  1
  H  H36  1  0.24438700  0.92343400  0.49330000  1
  H  H37  1  0.67904700  0.92343400  0.49330000  1
  H  H38  1  0.54188100  0.85577500  0.41910300  1
  H  H39  1  0.31389400  0.45811900  0.41910300  1
  H  H40  1  0.24438700  0.32095300  0.49330000  1
  H  H41  1  0.41728100  0.35234800  0.14919900  1
  H  H42  1  0.24893100  0.75106900  0.72190000  1
  H  H43  1  0.92343400  0.67904700  0.99330000  1
  H  H44  1  0.85577500  0.31389400  0.91910300  1
  H  H45  1  0.49786300  0.24893100  0.22190000  1
  H  H46  1  0.12390800  0.36957600  0.95563600  1
  H  H47  1  0.45811900  0.14422500  0.91910300  1
  H  H48  1  0.68610600  0.14422500  0.91910300  1
  H  H49  1  0.13419600  0.26839100  0.81557500  1
  H  H50  1  0.63042400  0.75433200  0.95563600  1
  H  H51  1  0.24566800  0.36957600  0.95563600  1
  H  H52  1  0.92343400  0.24438700  0.99330000  1
  H  H53  1  0.75433200  0.63042400  0.45563600  1
  H  H54  1  0.87609200  0.24566800  0.45563600  1
  H  H55  1  0.63042400  0.87609200  0.95563600  1
  H  H56  1  0.85577500  0.54188100  0.91910300  1
  H  H57  1  0.06493300  0.64765200  0.64919900  1
  H  H58  1  0.64765200  0.58271900  0.14919900  1
  H  H59  1  0.75106900  0.24893100  0.22190000  1
  C  C0  1  0.35110500  0.17555200  0.36441800  1
  C  C1  1  0.28577100  0.88321700  0.54939600  1
  C  C2  1  0.17555200  0.82444800  0.86441800  1
  C  C3  1  0.28577100  0.40255400  0.54939600  1
  C  C4  1  0.82444800  0.64889500  0.36441800  1
  C  C5  1  0.71422900  0.11678300  0.04939600  1
  C  C6  1  0.88321700  0.59744600  0.04939600  1
  C  C7  1  0.71422900  0.59744600  0.04939600  1
  C  C8  1  0.59744600  0.71422900  0.54939600  1
  C  C9  1  0.40255400  0.11678300  0.04939600  1
  C  C10  1  0.17555200  0.35110500  0.86441800  1
  C  C11  1  0.11678300  0.40255400  0.54939600  1
  C  C12  1  0.59744600  0.88321700  0.54939600  1
  C  C13  1  0.82444800  0.17555200  0.36441800  1
  C  C14  1  0.11678300  0.71422900  0.54939600  1
  C  C15  1  0.40255400  0.28577100  0.04939600  1
  C  C16  1  0.88321700  0.28577100  0.04939600  1
  C  C17  1  0.64889500  0.82444800  0.86441800  1
  N  N0  1  0.58046600  0.79023300  0.67528100  1
  N  N1  1  0.41953400  0.20976700  0.17528100  1
  N  N2  1  0.79023300  0.20976700  0.17528100  1
  N  N3  1  0.20976700  0.41953400  0.67528100  1
  N  N4  1  0.79023300  0.58046600  0.17528100  1
  N  N5  1  0.20976700  0.79023300  0.67528100  1
  Cl  Cl0  1  0.07843900  0.15687700  0.25366600  1
  Cl  Cl1  1  0.33333300  0.66666700  0.51506800  1
  Cl  Cl2  1  0.92156100  0.07843900  0.75366600  1
  Cl  Cl3  1  0.92156100  0.84312300  0.75366600  1
  Cl  Cl4  1  0.84297900  0.42148900  0.53009000  1
  Cl  Cl5  1  0.15702100  0.57851100  0.03009000  1
  Cl  Cl6  1  0.42148900  0.57851100  0.03009000  1
  Cl  Cl7  1  0.15687700  0.07843900  0.75366600  1
  Cl  Cl8  1  0.57851100  0.42148900  0.53009000  1
  Cl  Cl9  1  0.42148900  0.84297900  0.03009000  1
  Cl  Cl10  1  0.66666700  0.33333300  0.01506800  1
  Cl  Cl11  1  0.07843900  0.92156100  0.25366600  1
  Cl  Cl12  1  0.84312300  0.92156100  0.25366600  1
  Cl  Cl13  1  0.57851100  0.15702100  0.53009000  1
loop_
_geom_bond_atom_site_label_1
_geom_bond_atom_site_label_2
_geom_bond_distance
_geom_bond_site_symmetry_2
H12 N0 1.038250 1_555
H31 N3 1.038250 1_555
H33 N4 1.038250 1_555
H42 N5 1.038238 1_555
H45 N1 1.038250 1_555
H59 N2 1.038238 1_555
C0 H7 1.093370 1_555
C0 H19 1.093382 1_555
C0 H10 1.095658 1_555
C0 N1 1.495479 1_555
C1 H32 1.095652 1_555
C1 H30 1.095758 1_555
C1 H36 1.096647 1_555
C1 N5 1.495278 1_555
C2 H20 1.093379 1_555
C2 H8 1.093379 1_555
C2 H21 1.095633 1_555
C2 N5 1.495486 1_555
C3 H13 1.095652 1_555
C3 H39 1.095758 1_555
C3 H40 1.096647 1_555
C3 N3 1.495278 1_555
C4 H22 1.093370 1_555
C4 H53 1.093382 1_555
C4 H17 1.095658 1_555
C4 N4 1.495479 1_555
C5 H28 1.095652 1_555
C5 H48 1.095758 1_554
C5 H14 1.096647 1_554
C5 N2 1.495278 1_555
C6 H16 1.095652 1_555
C6 H56 1.095758 1_554
C6 H43 1.096647 1_554
C6 N4 1.495278 1_555
C7 H58 1.095652 1_555
C7 H4 1.095758 1_554
C7 H0 1.096647 1_554
C7 N4 1.495278 1_555
C8 H34 1.095652 1_555
C8 H29 1.095758 1_555
C8 H27 1.096647 1_555
C8 N0 1.495278 1_555
C9 H9 1.095652 1_555
C9 H47 1.095758 1_554
C9 H2 1.096647 1_554
C9 N1 1.495278 1_555
C10 H46 1.093370 1_555
C10 H51 1.093382 1_555
C10 H49 1.095658 1_555
C10 N3 1.495479 1_555
C11 H18 1.095652 1_555
C11 H25 1.095758 1_555
C11 H26 1.096647 1_555
C11 N3 1.495278 1_555
C12 H3 1.095652 1_555
C12 H38 1.095758 1_555
C12 H37 1.096647 1_555
C12 N0 1.495278 1_555
C13 H24 1.093379 1_555
C13 H54 1.093379 1_555
C13 H15 1.095633 1_555
C13 N2 1.495486 1_555
C14 H57 1.095652 1_555
C14 H1 1.095758 1_555
C14 H35 1.096647 1_555
C14 N5 1.495278 1_555
C15 H41 1.095652 1_555
C15 H23 1.095758 1_554
C15 H5 1.096647 1_554
C15 N1 1.495278 1_555
C16 H6 1.095652 1_555
C16 H44 1.095758 1_554
C16 H52 1.096647 1_554
C16 N2 1.495278 1_555
C17 H55 1.093370 1_555
C17 H50 1.093382 1_555
C17 H11 1.095658 1_555
C17 N0 1.495479 1_555
Cl0 Mn1 2.555505 1_555
Cl0 Mn3 2.564182 1_555
Cl1 Mn2 2.394996 1_555
Cl2 Mn3 2.555515 1_656
Cl2 Mn1 2.564192 1_655
Cl3 Mn3 2.555505 1_666
Cl3 Mn1 2.564182 1_665
Cl4 Mn0 2.352432 1_555
Cl5 Mn2 2.352432 1_555
Cl6 Mn2 2.352432 1_555
Cl7 Mn3 2.555505 1_556
Cl7 Mn1 2.564182 1_555
Cl8 Mn0 2.352432 1_555
Cl9 Mn2 2.352432 1_555
Cl10 Mn0 2.394996 1_554
Cl11 Mn1 2.555515 1_565
Cl11 Mn3 2.564192 1_565
Cl12 Mn1 2.555505 1_665
Cl12 Mn3 2.564182 1_665
Cl13 Mn0 2.352432 1_555
