# generated using pymatgen
data_HfIN
_symmetry_space_group_name_H-M   'P 1'
_cell_length_a   10.98748181
_cell_length_b   10.98748181
_cell_length_c   10.98748195
_cell_angle_alpha   19.34822657
_cell_angle_beta   19.34822657
_cell_angle_gamma   19.34823049
_symmetry_Int_Tables_number   1
_chemical_formula_structural   HfIN
_chemical_formula_sum   'Hf2 I2 N2'
_cell_volume   127.29091836
_cell_formula_units_Z   2
loop_
 _symmetry_equiv_pos_site_id
 _symmetry_equiv_pos_as_xyz
  1  'x, y, z'
loop_
 _atom_site_type_symbol
 _atom_site_label
 _atom_site_symmetry_multiplicity
 _atom_site_fract_x
 _atom_site_fract_y
 _atom_site_fract_z
 _atom_site_occupancy
  Hf  Hf0  1  0.79440200  0.79440200  0.79440200  1
  Hf  Hf1  1  0.20559800  0.20559800  0.20559800  1
  I  I0  1  0.39304726  0.39304726  0.39304726  1
  I  I1  1  0.60695274  0.60695274  0.60695274  1
  N  N0  1  0.13994434  0.13994434  0.13994434  1
  N  N1  1  0.86005566  0.86005566  0.86005566  1
loop_
_geom_bond_atom_site_label_1
_geom_bond_atom_site_label_2
_geom_bond_distance
_geom_bond_site_symmetry_2
Hf0 N1 2.122973 1_555
Hf0 N0 2.168260 1_665
Hf0 N0 2.168261 1_656
Hf0 N0 2.168261 1_566
Hf0 I0 3.063242 1_556
Hf0 I0 3.063243 1_565
Hf0 I0 3.063243 1_655
Hf1 N0 2.122973 1_555
Hf1 N1 2.168260 1_445
Hf1 N1 2.168261 1_454
Hf1 N1 2.168261 1_544
Hf1 I1 3.063242 1_554
Hf1 I1 3.063243 1_455
Hf1 I1 3.063243 1_545
