# generated using pymatgen
data_PrCu(MoO4)2
_symmetry_space_group_name_H-M   'P 1'
_cell_length_a   10.09320100
_cell_length_b   10.53351700
_cell_length_c   15.02929500
_cell_angle_alpha   90.00000000
_cell_angle_beta   90.00000000
_cell_angle_gamma   90.00000000
_symmetry_Int_Tables_number   1
_chemical_formula_structural   PrCu(MoO4)2
_chemical_formula_sum   'Pr8 Cu8 Mo16 O64'
_cell_volume   1597.86811848
_cell_formula_units_Z   8
loop_
 _symmetry_equiv_pos_site_id
 _symmetry_equiv_pos_as_xyz
  1  'x, y, z'
loop_
 _atom_site_type_symbol
 _atom_site_label
 _atom_site_symmetry_multiplicity
 _atom_site_fract_x
 _atom_site_fract_y
 _atom_site_fract_z
 _atom_site_occupancy
  Pr  Pr0  1  0.77714300  0.03490000  0.89638100  1
  Pr  Pr1  1  0.27714300  0.46510000  0.89638100  1
  Pr  Pr2  1  0.22285700  0.46510000  0.39638100  1
  Pr  Pr3  1  0.72285700  0.53490000  0.10361900  1
  Pr  Pr4  1  0.77714300  0.53490000  0.60361900  1
  Pr  Pr5  1  0.27714300  0.96510000  0.60361900  1
  Pr  Pr6  1  0.72285700  0.03490000  0.39638100  1
  Pr  Pr7  1  0.22285700  0.96510000  0.10361900  1
  Cu  Cu0  1  0.19440400  0.81899800  0.30608500  1
  Cu  Cu1  1  0.30559600  0.81899800  0.80608500  1
  Cu  Cu2  1  0.80559600  0.18100200  0.69391500  1
  Cu  Cu3  1  0.69440400  0.68100200  0.30608500  1
  Cu  Cu4  1  0.80559600  0.68100200  0.80608500  1
  Cu  Cu5  1  0.69440400  0.18100200  0.19391500  1
  Cu  Cu6  1  0.19440400  0.31899800  0.19391500  1
  Cu  Cu7  1  0.30559600  0.31899800  0.69391500  1
  Mo  Mo0  1  0.49770100  0.27867700  0.55831800  1
  Mo  Mo1  1  0.17133300  0.10287000  0.84657500  1
  Mo  Mo2  1  0.67133300  0.89713000  0.65342500  1
  Mo  Mo3  1  0.17133300  0.60287000  0.65342500  1
  Mo  Mo4  1  0.99770100  0.22132300  0.55831800  1
  Mo  Mo5  1  0.99770100  0.72132300  0.94168200  1
  Mo  Mo6  1  0.00229900  0.77867700  0.44168200  1
  Mo  Mo7  1  0.32866700  0.10287000  0.34657500  1
  Mo  Mo8  1  0.32866700  0.60287000  0.15342500  1
  Mo  Mo9  1  0.82866700  0.39713000  0.34657500  1
  Mo  Mo10  1  0.82866700  0.89713000  0.15342500  1
  Mo  Mo11  1  0.50229900  0.72132300  0.44168200  1
  Mo  Mo12  1  0.00229900  0.27867700  0.05831800  1
  Mo  Mo13  1  0.49770100  0.77867700  0.94168200  1
  Mo  Mo14  1  0.50229900  0.22132300  0.05831800  1
  Mo  Mo15  1  0.67133300  0.39713000  0.84657500  1
  O  O0  1  0.11474100  0.68460300  0.36855000  1
  O  O1  1  0.24470500  0.98712700  0.27412100  1
  O  O2  1  0.39518100  0.33321000  0.00549700  1
  O  O3  1  0.00352400  0.41225400  0.33481600  1
  O  O4  1  0.60481900  0.16679000  0.50549700  1
  O  O5  1  0.25529500  0.48712700  0.72587900  1
  O  O6  1  0.59208300  0.13542600  0.97574900  1
  O  O7  1  0.24470500  0.48712700  0.22587900  1
  O  O8  1  0.89518100  0.16679000  0.00549700  1
  O  O9  1  0.40791700  0.36457400  0.47574900  1
  O  O10  1  0.90271000  0.38436900  0.12400300  1
  O  O11  1  0.59729000  0.38436900  0.62400300  1
  O  O12  1  0.78579000  0.92170000  0.04006700  1
  O  O13  1  0.72568700  0.73885600  0.68424200  1
  O  O14  1  0.27431300  0.26114400  0.31575800  1
  O  O15  1  0.28579000  0.57830000  0.04006700  1
  O  O16  1  0.39518100  0.83321000  0.49450300  1
  O  O17  1  0.40271000  0.61563100  0.37599700  1
  O  O18  1  0.09729000  0.61563100  0.87599700  1
  O  O19  1  0.88525900  0.31539700  0.63145000  1
  O  O20  1  0.38525900  0.68460300  0.86855000  1
  O  O21  1  0.21421000  0.57830000  0.54006700  1
  O  O22  1  0.71421000  0.42170000  0.95993300  1
  O  O23  1  0.99647600  0.08774600  0.83481600  1
  O  O24  1  0.59208300  0.63542600  0.52425100  1
  O  O25  1  0.27431300  0.76114400  0.18424200  1
  O  O26  1  0.90271000  0.88436900  0.37599700  1
  O  O27  1  0.77431300  0.23885600  0.31575800  1
  O  O28  1  0.49647600  0.91225400  0.66518400  1
  O  O29  1  0.72568700  0.23885600  0.81575800  1
  O  O30  1  0.59729000  0.88436900  0.87599700  1
  O  O31  1  0.22568700  0.26114400  0.81575800  1
  O  O32  1  0.71421000  0.92170000  0.54006700  1
  O  O33  1  0.90791700  0.13542600  0.47574900  1
  O  O34  1  0.90791700  0.63542600  0.02425100  1
  O  O35  1  0.11474100  0.18460300  0.13145000  1
  O  O36  1  0.40271000  0.11563100  0.12400300  1
  O  O37  1  0.25529500  0.98712700  0.77412100  1
  O  O38  1  0.61474100  0.81539700  0.36855000  1
  O  O39  1  0.38525900  0.18460300  0.63145000  1
  O  O40  1  0.50352400  0.08774600  0.33481600  1
  O  O41  1  0.88525900  0.81539700  0.86855000  1
  O  O42  1  0.09208300  0.86457400  0.52425100  1
  O  O43  1  0.10481900  0.33321000  0.50549700  1
  O  O44  1  0.09208300  0.36457400  0.97574900  1
  O  O45  1  0.74470500  0.51287300  0.27412100  1
  O  O46  1  0.75529500  0.01287300  0.72587900  1
  O  O47  1  0.40791700  0.86457400  0.02425100  1
  O  O48  1  0.22568700  0.76114400  0.68424200  1
  O  O49  1  0.60481900  0.66679000  0.99450300  1
  O  O50  1  0.89518100  0.66679000  0.49450300  1
  O  O51  1  0.09729000  0.11563100  0.62400300  1
  O  O52  1  0.74470500  0.01287300  0.22587900  1
  O  O53  1  0.00352400  0.91225400  0.16518400  1
  O  O54  1  0.21421000  0.07830000  0.95993300  1
  O  O55  1  0.77431300  0.73885600  0.18424200  1
  O  O56  1  0.78579000  0.42170000  0.45993300  1
  O  O57  1  0.99647600  0.58774600  0.66518400  1
  O  O58  1  0.75529500  0.51287300  0.77412100  1
  O  O59  1  0.28579000  0.07830000  0.45993300  1
  O  O60  1  0.61474100  0.31539700  0.13145000  1
  O  O61  1  0.50352400  0.58774600  0.16518400  1
  O  O62  1  0.49647600  0.41225400  0.83481600  1
  O  O63  1  0.10481900  0.83321000  0.99450300  1
loop_
_geom_bond_atom_site_label_1
_geom_bond_atom_site_label_2
_geom_bond_distance
_geom_bond_site_symmetry_2
Cu0 O0 1.879343 1_555
Cu0 O1 1.903928 1_555
Cu0 O25 2.091704 1_555
Cu1 O20 1.879343 1_555
Cu1 O37 1.903928 1_555
Cu1 O48 2.091704 1_555
Cu2 O19 1.879343 1_555
Cu2 O46 1.903928 1_555
Cu2 O29 2.091704 1_555
Cu3 O38 1.879343 1_555
Cu3 O45 1.903928 1_555
Cu3 O55 2.091704 1_555
Cu4 O41 1.879343 1_555
Cu4 O58 1.903928 1_555
Cu4 O13 2.091704 1_555
Cu5 O60 1.879343 1_555
Cu5 O52 1.903928 1_555
Cu5 O27 2.091704 1_555
Cu6 O35 1.879343 1_555
Cu6 O7 1.903928 1_555
Cu6 O14 2.091704 1_555
Cu7 O39 1.879343 1_555
Cu7 O5 1.903928 1_555
Cu7 O31 2.091704 1_555
Mo0 O9 1.783210 1_555
Mo0 O4 1.785538 1_555
Mo0 O11 1.795658 1_555
Mo0 O39 1.864942 1_555
Mo1 O54 1.776747 1_555
Mo1 O23 1.780833 1_455
Mo1 O31 1.815208 1_555
Mo1 O37 1.841287 1_545
Mo2 O32 1.776747 1_555
Mo2 O28 1.780833 1_555
Mo2 O13 1.815208 1_555
Mo2 O46 1.841287 1_565
Mo3 O21 1.776747 1_555
Mo3 O57 1.780833 1_455
Mo3 O48 1.815208 1_555
Mo3 O5 1.841287 1_555
Mo4 O33 1.783210 1_555
Mo4 O43 1.785538 1_655
Mo4 O51 1.795658 1_655
Mo4 O19 1.864942 1_555
Mo5 O34 1.783210 1_556
Mo5 O63 1.785538 1_655
Mo5 O18 1.795658 1_655
Mo5 O41 1.864942 1_555
Mo6 O42 1.783210 1_555
Mo6 O50 1.785538 1_455
Mo6 O26 1.795658 1_455
Mo6 O0 1.864942 1_555
Mo7 O59 1.776747 1_555
Mo7 O40 1.780833 1_555
Mo7 O14 1.815208 1_555
Mo7 O1 1.841287 1_545
Mo8 O15 1.776747 1_555
Mo8 O61 1.780833 1_555
Mo8 O25 1.815208 1_555
Mo8 O7 1.841287 1_555
Mo9 O56 1.776747 1_555
Mo9 O3 1.780833 1_655
Mo9 O27 1.815208 1_555
Mo9 O45 1.841287 1_555
Mo10 O12 1.776747 1_555
Mo10 O53 1.780833 1_655
Mo10 O55 1.815208 1_555
Mo10 O52 1.841287 1_565
Mo11 O24 1.783210 1_555
Mo11 O16 1.785538 1_555
Mo11 O17 1.795658 1_555
Mo11 O38 1.864942 1_555
Mo12 O44 1.783210 1_554
Mo12 O8 1.785538 1_455
Mo12 O10 1.795658 1_455
Mo12 O35 1.864942 1_555
Mo13 O47 1.783210 1_556
Mo13 O49 1.785538 1_555
Mo13 O30 1.795658 1_555
Mo13 O20 1.864942 1_555
Mo14 O6 1.783210 1_554
Mo14 O2 1.785538 1_555
Mo14 O36 1.795658 1_555
Mo14 O60 1.864942 1_555
Mo15 O22 1.776747 1_555
Mo15 O62 1.780833 1_555
Mo15 O29 1.815208 1_555
Mo15 O58 1.841287 1_555
O0 Pr2 2.590703 1_555
O1 Pr7 2.582440 1_555
O2 Pr1 2.457405 1_554
O3 Pr2 2.463086 1_555
O4 Pr6 2.457405 1_555
O5 Pr1 2.582440 1_555
O6 Pr0 2.456214 1_555
O7 Pr2 2.582440 1_555
O8 Pr0 2.457405 1_554
O9 Pr2 2.456214 1_555
O10 Pr3 2.429678 1_555
O11 Pr4 2.429678 1_555
O12 Pr0 2.468372 1_564
O13 Pr4 2.520610 1_555
O14 Pr2 2.520610 1_555
O15 Pr1 2.468372 1_554
O16 Pr5 2.457405 1_555
O17 Pr2 2.429678 1_555
O18 Pr1 2.429678 1_555
O19 Pr4 2.590703 1_555
O20 Pr1 2.590703 1_555
O21 Pr2 2.468372 1_555
O22 Pr3 2.468372 1_556
O23 Pr0 2.463086 1_555
O24 Pr4 2.456214 1_555
O25 Pr7 2.520610 1_555
O26 Pr6 2.429678 1_565
O27 Pr6 2.520610 1_555
O28 Pr5 2.463086 1_555
O29 Pr0 2.520610 1_555
O30 Pr0 2.429678 1_565
O31 Pr1 2.520610 1_555
O32 Pr6 2.468372 1_565
O33 Pr6 2.456214 1_555
O34 Pr3 2.456214 1_555
O35 Pr7 2.590703 1_545
O36 Pr7 2.429678 1_545
O37 Pr5 2.582440 1_555
O38 Pr6 2.590703 1_565
O39 Pr5 2.590703 1_545
O40 Pr6 2.463086 1_555
O41 Pr0 2.590703 1_565
O42 Pr5 2.456214 1_555
O43 Pr2 2.457405 1_555
O44 Pr1 2.456214 1_555
O45 Pr3 2.582440 1_555
O46 Pr0 2.582440 1_555
O47 Pr7 2.456214 1_555
O48 Pr5 2.520610 1_555
O49 Pr3 2.457405 1_556
O50 Pr4 2.457405 1_555
O51 Pr5 2.429678 1_545
O52 Pr6 2.582440 1_555
O53 Pr7 2.463086 1_555
O54 Pr7 2.468372 1_546
O55 Pr3 2.520610 1_555
O56 Pr4 2.468372 1_555
O57 Pr4 2.463086 1_555
O58 Pr4 2.582440 1_555
O59 Pr5 2.468372 1_545
O60 Pr3 2.590703 1_555
O61 Pr3 2.463086 1_555
O62 Pr1 2.463086 1_555
O63 Pr7 2.457405 1_556
