# generated using pymatgen
data_U(SiRh)2
_symmetry_space_group_name_H-M   'P 1'
_cell_length_a   4.06354866
_cell_length_b   4.06354925
_cell_length_c   5.73774929
_cell_angle_alpha   110.73869907
_cell_angle_beta   110.73870261
_cell_angle_gamma   89.99999206
_symmetry_Int_Tables_number   1
_chemical_formula_structural   U(SiRh)2
_chemical_formula_sum   'U1 Si2 Rh2'
_cell_volume   82.00803102
_cell_formula_units_Z   1
loop_
 _symmetry_equiv_pos_site_id
 _symmetry_equiv_pos_as_xyz
  1  'x, y, z'
loop_
 _atom_site_type_symbol
 _atom_site_label
 _atom_site_symmetry_multiplicity
 _atom_site_fract_x
 _atom_site_fract_y
 _atom_site_fract_z
 _atom_site_occupancy
  U  U0  1  0.00000000  0.00000000  0.00000000  1
  Si  Si0  1  0.61936403  0.61936403  0.23872807  1
  Si  Si1  1  0.38063597  0.38063597  0.76127193  1
  Rh  Rh0  1  0.75000000  0.25000000  0.50000000  1
  Rh  Rh1  1  0.25000000  0.75000000  0.50000000  1
loop_
_geom_bond_atom_site_label_1
_geom_bond_atom_site_label_2
_geom_bond_distance
_geom_bond_site_symmetry_2
Si0 Si1 2.371258 1_554
Si0 U0 3.108364 1_565
Si0 U0 3.108365 1_655
Si0 U0 3.108365 1_555
Si0 U0 3.108365 1_665
Si1 U0 3.108364 1_656
Si1 U0 3.108365 1_566
Si1 U0 3.108365 1_666
Si1 U0 3.108365 1_556
Rh0 Si1 2.410778 1_655
Rh0 Si1 2.410778 1_555
Rh0 Si0 2.410778 1_555
Rh0 Si0 2.410779 1_545
Rh0 U0 3.208503 1_555
Rh0 U0 3.208504 1_656
Rh0 U0 3.208504 1_655
Rh0 U0 3.208504 1_666
Rh1 Si0 2.410778 1_455
Rh1 Si0 2.410778 1_555
Rh1 Si1 2.410778 1_555
Rh1 Si1 2.410779 1_565
Rh1 U0 3.208503 1_666
Rh1 U0 3.208504 1_565
Rh1 U0 3.208504 1_566
Rh1 U0 3.208504 1_555
