# generated using pymatgen
data_BaH4(CO3)2
_symmetry_space_group_name_H-M   'P 1'
_cell_length_a   11.16918800
_cell_length_b   7.18769500
_cell_length_c   7.56195167
_cell_angle_alpha   75.02773593
_cell_angle_beta   90.00000000
_cell_angle_gamma   90.00000000
_symmetry_Int_Tables_number   1
_chemical_formula_structural   BaH4(CO3)2
_chemical_formula_sum   'Ba4 H16 C8 O24'
_cell_volume   586.46918064
_cell_formula_units_Z   4
loop_
 _symmetry_equiv_pos_site_id
 _symmetry_equiv_pos_as_xyz
  1  'x, y, z'
loop_
 _atom_site_type_symbol
 _atom_site_label
 _atom_site_symmetry_multiplicity
 _atom_site_fract_x
 _atom_site_fract_y
 _atom_site_fract_z
 _atom_site_occupancy
  Ba  Ba0  1  0.00957500  0.79210000  0.80183800  1
  Ba  Ba1  1  0.50957500  0.70790000  0.19816200  1
  Ba  Ba2  1  0.49042500  0.29210000  0.80183800  1
  Ba  Ba3  1  0.99042500  0.20790000  0.19816200  1
  H  H0  1  0.47291900  0.22351700  0.36395500  1
  H  H1  1  0.52708100  0.77648300  0.63604500  1
  H  H2  1  0.39331900  0.73986200  0.59617200  1
  H  H3  1  0.02708100  0.72351700  0.36395500  1
  H  H4  1  0.89331900  0.76013800  0.40382800  1
  H  H5  1  0.60668100  0.26013800  0.40382800  1
  H  H6  1  0.24563400  0.96259000  0.54122600  1
  H  H7  1  0.74563400  0.53741000  0.45877400  1
  H  H8  1  0.10668100  0.23986200  0.59617200  1
  H  H9  1  0.97291900  0.27648300  0.63604500  1
  H  H10  1  0.21486800  0.40297700  0.75184400  1
  H  H11  1  0.25436600  0.46259000  0.54122600  1
  H  H12  1  0.28513200  0.90297700  0.75184400  1
  H  H13  1  0.78513200  0.59702300  0.24815600  1
  H  H14  1  0.75436600  0.03741000  0.45877400  1
  H  H15  1  0.71486800  0.09702300  0.24815600  1
  C  C0  1  0.75291900  0.49213700  0.95881900  1
  C  C1  1  0.29854900  0.07162800  0.21275100  1
  C  C2  1  0.74708100  0.99213700  0.95881900  1
  C  C3  1  0.25291900  0.00786300  0.04118100  1
  C  C4  1  0.20145100  0.57162800  0.21275100  1
  C  C5  1  0.79854900  0.42837200  0.78724900  1
  C  C6  1  0.24708100  0.50786300  0.04118100  1
  C  C7  1  0.70145100  0.92837200  0.78724900  1
  O  O0  1  0.74799900  0.14831500  0.34942500  1
  O  O1  1  0.75200100  0.64831500  0.34942500  1
  O  O2  1  0.35844200  0.50193500  0.01493000  1
  O  O3  1  0.85844200  0.99806500  0.98507000  1
  O  O4  1  0.64155800  0.49806500  0.98507000  1
  O  O5  1  0.02449300  0.19264900  0.58115100  1
  O  O6  1  0.41113000  0.07097800  0.23490900  1
  O  O7  1  0.16526000  0.46359700  0.94116500  1
  O  O8  1  0.27932800  0.61683500  0.31605400  1
  O  O9  1  0.14155800  0.00193500  0.01493000  1
  O  O10  1  0.72067200  0.38316500  0.68394600  1
  O  O11  1  0.83474000  0.53640300  0.05883500  1
  O  O12  1  0.77932800  0.88316500  0.68394600  1
  O  O13  1  0.97550700  0.80735100  0.41884900  1
  O  O14  1  0.47550700  0.69264900  0.58115100  1
  O  O15  1  0.25200100  0.85168500  0.65057500  1
  O  O16  1  0.52449300  0.30735100  0.41884900  1
  O  O17  1  0.91113000  0.42902200  0.76509100  1
  O  O18  1  0.66526000  0.03640300  0.05883500  1
  O  O19  1  0.08887000  0.57097800  0.23490900  1
  O  O20  1  0.22067200  0.11683500  0.31605400  1
  O  O21  1  0.58887000  0.92902200  0.76509100  1
  O  O22  1  0.33474000  0.96359700  0.94116500  1
  O  O23  1  0.24799900  0.35168500  0.65057500  1
loop_
_geom_bond_atom_site_label_1
_geom_bond_atom_site_label_2
_geom_bond_distance
_geom_bond_site_symmetry_2
Ba0 O12 2.745028 1_455
Ba0 O3 2.832107 1_455
Ba0 O9 2.881008 1_566
Ba0 O13 2.894895 1_455
Ba0 O7 2.902325 1_555
Ba0 O17 2.910573 1_455
Ba0 O15 2.927512 1_555
Ba0 O5 2.935809 1_565
Ba0 O11 3.020322 1_456
Ba1 O8 2.745028 1_555
Ba1 O2 2.832107 1_555
Ba1 O4 2.881008 1_554
Ba1 O14 2.894895 1_555
Ba1 O18 2.902325 1_565
Ba1 O6 2.910573 1_565
Ba1 O1 2.927512 1_555
Ba1 O16 2.935809 1_555
Ba1 O22 3.020322 1_554
Ba2 O10 2.745028 1_555
Ba2 O4 2.832107 1_555
Ba2 O2 2.881008 1_556
Ba2 O16 2.894895 1_555
Ba2 O22 2.902325 1_545
Ba2 O21 2.910573 1_545
Ba2 O23 2.927512 1_555
Ba2 O14 2.935809 1_555
Ba2 O18 3.020322 1_556
Ba3 O20 2.745028 1_655
Ba3 O9 2.832107 1_655
Ba3 O3 2.881008 1_544
Ba3 O5 2.894895 1_655
Ba3 O11 2.902325 1_555
Ba3 O19 2.910573 1_655
Ba3 O0 2.927512 1_555
Ba3 O13 2.935809 1_545
Ba3 O7 3.020322 1_654
H0 O16 0.998235 1_555
H1 O14 0.998235 1_555
H2 O14 0.995316 1_555
H3 O13 0.998235 1_455
H4 O13 0.995316 1_555
H5 O16 0.995316 1_555
H6 O15 0.991801 1_555
H7 O1 0.991801 1_555
H8 O5 0.995316 1_555
H9 O5 0.998235 1_655
H10 O23 1.002580 1_555
H11 O23 0.991801 1_555
H12 O15 1.002580 1_555
H13 O1 1.002580 1_555
H14 O0 0.991801 1_555
H15 O0 1.002580 1_555
C0 O4 1.262006 1_555
C0 O11 1.277791 1_556
C1 O20 1.266317 1_555
C1 O6 1.268402 1_555
C2 O3 1.262006 1_555
C2 O18 1.277791 1_566
C3 O9 1.262006 1_555
C3 O22 1.277791 1_544
C4 O8 1.266317 1_555
C4 O19 1.268402 1_555
C5 O10 1.266317 1_555
C5 O17 1.268402 1_555
C6 O2 1.262006 1_555
C6 O7 1.277791 1_554
C7 O12 1.266317 1_555
C7 O21 1.268402 1_555
