# generated using pymatgen
data_Nd12C6I17
_symmetry_space_group_name_H-M   'P 1'
_cell_length_a   11.82453593
_cell_length_b   11.82481250
_cell_length_c   19.29137367
_cell_angle_alpha   89.27178714
_cell_angle_beta   89.27613952
_cell_angle_gamma   64.22202321
_symmetry_Int_Tables_number   1
_chemical_formula_structural   Nd12C6I17
_chemical_formula_sum   'Nd24 C12 I34'
_cell_volume   2428.67767945
_cell_formula_units_Z   2
loop_
 _symmetry_equiv_pos_site_id
 _symmetry_equiv_pos_as_xyz
  1  'x, y, z'
loop_
 _atom_site_type_symbol
 _atom_site_label
 _atom_site_symmetry_multiplicity
 _atom_site_fract_x
 _atom_site_fract_y
 _atom_site_fract_z
 _atom_site_occupancy
  Nd  Nd0  1  0.01985473  0.07634204  0.15218984  1
  Nd  Nd1  1  0.19258757  0.66080100  0.71195743  1
  Nd  Nd2  1  0.71119418  0.29597288  0.02123515  1
  Nd  Nd3  1  0.80741243  0.33919900  0.28804257  1
  Nd  Nd4  1  0.89944403  0.42559813  0.11677696  1
  Nd  Nd5  1  0.57439919  0.10052436  0.38324356  1
  Nd  Nd6  1  0.35768619  0.35815158  0.05072537  1
  Nd  Nd7  1  0.64231381  0.64184842  0.94927463  1
  Nd  Nd8  1  0.42560081  0.89947564  0.61675644  1
  Nd  Nd9  1  0.54990950  0.53321830  0.62751459  1
  Nd  Nd10  1  0.53322361  0.54988670  0.12751847  1
  Nd  Nd11  1  0.07636551  0.01985292  0.65218266  1
  Nd  Nd12  1  0.35820230  0.35764959  0.55075708  1
  Nd  Nd13  1  0.33921328  0.80742279  0.78803824  1
  Nd  Nd14  1  0.10055597  0.57440187  0.88322304  1
  Nd  Nd15  1  0.70403230  0.28879329  0.47877651  1
  Nd  Nd16  1  0.29596770  0.71120671  0.52122349  1
  Nd  Nd17  1  0.98014527  0.92365796  0.84781016  1
  Nd  Nd18  1  0.64179770  0.64235041  0.44924292  1
  Nd  Nd19  1  0.45009050  0.46678170  0.37248541  1
  Nd  Nd20  1  0.92363449  0.98014708  0.34781734  1
  Nd  Nd21  1  0.66078672  0.19257721  0.21196176  1
  Nd  Nd22  1  0.28880582  0.70402712  0.97876485  1
  Nd  Nd23  1  0.46677639  0.45011330  0.87248153  1
  C  C0  1  0.46768977  0.46651017  0.51184989  1
  C  C1  1  0.53347264  0.53233504  0.98815702  1
  C  C2  1  0.25684932  0.83178698  0.65214390  1
  C  C3  1  0.53231023  0.53348983  0.48815011  1
  C  C4  1  0.36771346  0.71990561  0.64922093  1
  C  C5  1  0.28008875  0.63231022  0.85076765  1
  C  C6  1  0.16821425  0.74317405  0.84784264  1
  C  C7  1  0.46652736  0.46766496  0.01184298  1
  C  C8  1  0.74315068  0.16821302  0.34785610  1
  C  C9  1  0.83178575  0.25682595  0.15215736  1
  C  C10  1  0.63228654  0.28009439  0.35077907  1
  C  C11  1  0.71991125  0.36768978  0.14923235  1
  I  I0  1  0.09268035  0.60287416  0.04958910  1
  I  I1  1  0.78913134  0.81706397  0.39864472  1
  I  I2  1  0.60298728  0.10279463  0.05983376  1
  I  I3  1  0.00000000  0.00000000  0.00000000  1
  I  I4  1  0.90731965  0.39712584  0.95041090  1
  I  I5  1  0.80738961  0.28102685  0.63899979  1
  I  I6  1  0.03373046  0.49714346  0.74635536  1
  I  I7  1  0.88688484  0.90463895  0.19705006  1
  I  I8  1  0.39704122  0.90740120  0.45029869  1
  I  I9  1  0.19261039  0.71897315  0.36100021  1
  I  I10  1  0.57496153  0.62868857  0.29138936  1
  I  I11  1  0.96626954  0.50285654  0.25364464  1
  I  I12  1  0.60295878  0.09259880  0.54970131  1
  I  I13  1  0.10279857  0.60301178  0.55981315  1
  I  I14  1  0.62862161  0.57501461  0.79141610  1
  I  I15  1  0.09534262  0.11316600  0.30292810  1
  I  I16  1  0.89720143  0.39698822  0.44018685  1
  I  I17  1  0.49709932  0.03375908  0.24636446  1
  I  I18  1  0.81706482  0.78914031  0.89865680  1
  I  I19  1  0.39701272  0.89720537  0.94016624  1
  I  I20  1  0.28104898  0.80733280  0.13897790  1
  I  I21  1  0.31078876  0.28766559  0.90019335  1
  I  I22  1  0.50290068  0.96624092  0.75363554  1
  I  I23  1  0.21086866  0.18293603  0.60135528  1
  I  I24  1  0.68921124  0.71233441  0.09980665  1
  I  I25  1  0.42503847  0.37131143  0.70861064  1
  I  I26  1  0.18293518  0.21085969  0.10134320  1
  I  I27  1  0.28766394  0.31078543  0.40021755  1
  I  I28  1  0.71895102  0.19266720  0.86102210  1
  I  I29  1  0.71233606  0.68921457  0.59978245  1
  I  I30  1  0.11311516  0.09536105  0.80294994  1
  I  I31  1  0.90465738  0.88683400  0.69707190  1
  I  I32  1  0.37137839  0.42498539  0.20858390  1
  I  I33  1  0.00000000  0.00000000  0.50000000  1
loop_
_geom_bond_atom_site_label_1
_geom_bond_atom_site_label_2
_geom_bond_distance
_geom_bond_site_symmetry_2
C0 C3 1.388717 1_555
C0 Nd12 2.301492 1_555
C0 Nd19 2.699048 1_555
C0 Nd9 2.704223 1_555
C0 Nd16 2.724315 1_555
C0 Nd15 2.741217 1_555
C1 C7 1.388772 1_556
C1 Nd7 2.301405 1_555
C1 Nd10 2.698968 1_556
C1 Nd23 2.704358 1_555
C1 Nd22 2.723919 1_555
C1 Nd2 2.741357 1_556
C2 C4 1.401258 1_555
C2 Nd11 2.317781 1_565
C2 Nd8 2.535582 1_555
C2 Nd1 2.692889 1_555
C2 Nd13 2.775880 1_555
C2 Nd16 2.848541 1_555
C3 Nd18 2.301492 1_555
C3 Nd9 2.699048 1_555
C3 Nd19 2.704223 1_555
C3 Nd15 2.724315 1_555
C3 Nd16 2.741217 1_555
C4 Nd9 2.356720 1_555
C4 Nd8 2.566911 1_555
C4 Nd16 2.638704 1_555
C4 Nd1 2.723111 1_555
C4 Nd13 2.846120 1_555
C5 C6 1.401206 1_555
C5 Nd23 2.356692 1_555
C5 Nd14 2.566601 1_555
C5 Nd22 2.638681 1_555
C5 Nd13 2.723038 1_555
C5 Nd1 2.845829 1_555
C6 Nd17 2.317798 1_455
C6 Nd14 2.535544 1_555
C6 Nd13 2.692868 1_555
C6 Nd1 2.775838 1_555
C6 Nd22 2.848465 1_555
C7 Nd6 2.301405 1_555
C7 Nd23 2.698968 1_554
C7 Nd10 2.704358 1_555
C7 Nd2 2.723919 1_555
C7 Nd22 2.741357 1_554
C8 Nd20 2.317781 1_545
C8 Nd5 2.535582 1_555
C8 Nd3 2.692889 1_555
C8 Nd21 2.775880 1_555
C8 Nd15 2.848541 1_555
C9 Nd0 2.317798 1_655
C9 Nd4 2.535544 1_555
C9 Nd21 2.692868 1_555
C9 Nd3 2.775838 1_555
C9 Nd2 2.848465 1_555
C10 C8 1.401258 1_555
C10 Nd19 2.356720 1_555
C10 Nd5 2.566911 1_555
C10 Nd15 2.638704 1_555
C10 Nd3 2.723111 1_555
C10 Nd21 2.846120 1_555
C11 C9 1.401206 1_555
C11 Nd10 2.356692 1_555
C11 Nd4 2.566601 1_555
C11 Nd2 2.638681 1_555
C11 Nd21 2.723038 1_555
C11 Nd3 2.845829 1_555
I0 Nd6 3.210441 1_555
I0 Nd14 3.227245 1_554
I0 Nd22 3.311602 1_554
I0 Nd4 3.913734 1_455
I1 Nd20 3.128884 1_555
I1 Nd5 3.218960 1_565
I1 Nd18 3.360403 1_555
I2 Nd2 3.143945 1_555
I2 Nd6 3.153323 1_555
I2 Nd21 3.311799 1_555
I3 Nd0 3.123935 1_555
I3 Nd17 3.123935 1_444
I3 Nd2 3.699254 1_455
I3 Nd22 3.699254 1_544
I4 Nd7 3.210441 1_555
I4 Nd4 3.227245 1_556
I4 Nd2 3.311602 1_556
I4 Nd14 3.913734 1_655
I5 Nd9 3.211688 1_555
I5 Nd15 3.323632 1_555
I5 Nd11 3.342951 1_655
I6 Nd14 3.028600 1_555
I6 Nd1 3.288076 1_555
I7 Nd20 3.143386 1_555
I7 Nd0 3.168754 1_665
I7 Nd21 3.303223 1_565
I8 Nd18 3.210945 1_555
I8 Nd8 3.229063 1_555
I8 Nd16 3.312444 1_555
I8 Nd5 3.912597 1_565
I9 Nd19 3.211688 1_555
I9 Nd16 3.323632 1_555
I9 Nd20 3.342951 1_455
I10 Nd18 3.179364 1_555
I10 Nd19 3.258420 1_555
I10 Nd3 3.330858 1_555
I10 Nd10 3.408802 1_555
I11 Nd4 3.028600 1_555
I11 Nd3 3.288076 1_555
I12 Nd12 3.210945 1_555
I12 Nd5 3.229063 1_555
I12 Nd15 3.312444 1_555
I12 Nd8 3.912597 1_545
I13 Nd16 3.143699 1_555
I13 Nd12 3.153959 1_555
I13 Nd1 3.312038 1_555
I14 Nd7 3.179560 1_555
I14 Nd23 3.257833 1_555
I14 Nd13 3.329999 1_555
I14 Nd9 3.409138 1_555
I15 Nd0 3.142984 1_555
I15 Nd20 3.169395 1_445
I15 Nd3 3.302764 1_455
I16 Nd15 3.143699 1_555
I16 Nd18 3.153959 1_555
I16 Nd3 3.312038 1_555
I17 Nd5 3.028706 1_555
I17 Nd21 3.288008 1_555
I18 Nd17 3.129101 1_555
I18 Nd14 3.219301 1_655
I18 Nd7 3.360491 1_555
I19 Nd22 3.143945 1_555
I19 Nd7 3.153323 1_555
I19 Nd13 3.311799 1_555
I20 Nd10 3.211366 1_555
I20 Nd22 3.323344 1_554
I20 Nd0 3.343373 1_565
I21 Nd6 3.152692 1_556
I21 Nd23 3.226216 1_555
I21 Nd14 3.231778 1_555
I22 Nd8 3.028706 1_555
I22 Nd13 3.288008 1_555
I23 Nd11 3.128884 1_555
I23 Nd8 3.218960 1_545
I23 Nd12 3.360403 1_555
I24 Nd7 3.152692 1_554
I24 Nd10 3.226216 1_555
I24 Nd4 3.231778 1_555
I25 Nd12 3.179364 1_555
I25 Nd9 3.258420 1_555
I25 Nd1 3.330858 1_555
I25 Nd23 3.408802 1_555
I26 Nd0 3.129101 1_555
I26 Nd4 3.219301 1_455
I26 Nd6 3.360491 1_555
I27 Nd12 3.152903 1_555
I27 Nd19 3.226149 1_555
I27 Nd5 3.231889 1_555
I28 Nd23 3.211366 1_555
I28 Nd2 3.323344 1_556
I28 Nd17 3.343373 1_545
I29 Nd18 3.152903 1_555
I29 Nd9 3.226149 1_555
I29 Nd8 3.231889 1_555
I30 Nd11 3.143386 1_555
I30 Nd17 3.168754 1_445
I30 Nd13 3.303223 1_545
I31 Nd17 3.142984 1_555
I31 Nd11 3.169395 1_665
I31 Nd1 3.302764 1_655
I32 Nd6 3.179560 1_555
I32 Nd10 3.257833 1_555
I32 Nd21 3.329999 1_555
I32 Nd19 3.409138 1_555
I33 Nd11 3.123839 1_555
I33 Nd20 3.123839 1_445
I33 Nd15 3.699058 1_455
I33 Nd16 3.699058 1_545
