# generated using pymatgen
data_UCo5
_symmetry_space_group_name_H-M   'P 1'
_cell_length_a   12.26487970
_cell_length_b   12.26487980
_cell_length_c   12.26487941
_cell_angle_alpha   22.38730007
_cell_angle_beta   22.38729639
_cell_angle_gamma   22.38729884
_symmetry_Int_Tables_number   1
_chemical_formula_structural   UCo5
_chemical_formula_sum   'U3 Co15'
_cell_volume   234.72086062
_cell_formula_units_Z   3
loop_
 _symmetry_equiv_pos_site_id
 _symmetry_equiv_pos_as_xyz
  1  'x, y, z'
loop_
 _atom_site_type_symbol
 _atom_site_label
 _atom_site_symmetry_multiplicity
 _atom_site_fract_x
 _atom_site_fract_y
 _atom_site_fract_z
 _atom_site_occupancy
  U  U0  1  0.00000000  0.00000000  0.00000000  1
  U  U1  1  0.09945400  0.09945400  0.09945400  1
  U  U2  1  0.90054600  0.90054600  0.90054600  1
  Co  Co0  1  0.22146300  0.22146300  0.22146300  1
  Co  Co1  1  0.77853700  0.77853700  0.77853700  1
  Co  Co2  1  0.33251900  0.33251900  0.33251900  1
  Co  Co3  1  0.66748100  0.66748100  0.66748100  1
  Co  Co4  1  0.46403300  0.46403300  0.46403300  1
  Co  Co5  1  0.53596700  0.53596700  0.53596700  1
  Co  Co6  1  0.00000000  0.00000000  0.50000000  1
  Co  Co7  1  0.50000000  0.00000000  0.00000000  1
  Co  Co8  1  0.00000000  0.50000000  0.00000000  1
  Co  Co9  1  0.55415800  0.06272600  0.55415800  1
  Co  Co10  1  0.55415800  0.55415800  0.06272600  1
  Co  Co11  1  0.06272600  0.55415800  0.55415800  1
  Co  Co12  1  0.93727400  0.44584200  0.44584200  1
  Co  Co13  1  0.44584200  0.93727400  0.44584200  1
  Co  Co14  1  0.44584200  0.44584200  0.93727400  1
loop_
_geom_bond_atom_site_label_1
_geom_bond_atom_site_label_2
_geom_bond_distance
_geom_bond_site_symmetry_2
Co0 Co7 2.398011 1_555
Co0 Co8 2.398011 1_555
Co0 Co6 2.398011 1_555
Co0 Co12 2.413344 1_455
Co0 Co13 2.413344 1_545
Co0 Co14 2.413344 1_554
Co0 U2 2.785076 1_544
Co0 U2 2.785076 1_445
Co0 U2 2.785076 1_454
Co0 Co5 2.830954 1_455
Co0 Co5 2.830954 1_554
Co0 Co5 2.830954 1_545
Co1 Co7 2.398011 1_566
Co1 Co8 2.398011 1_656
Co1 Co6 2.398011 1_665
Co1 Co11 2.413344 1_655
Co1 Co9 2.413344 1_565
Co1 Co10 2.413344 1_556
Co1 U1 2.785076 1_566
Co1 U1 2.785076 1_665
Co1 U1 2.785076 1_656
Co1 Co4 2.830954 1_655
Co1 Co4 2.830954 1_556
Co1 Co4 2.830954 1_565
Co2 Co9 2.474940 1_555
Co2 U0 2.749413 1_655
Co2 U0 2.749413 1_556
Co2 U0 2.749413 1_565
Co2 Co3 2.749878 1_455
Co2 Co3 2.749878 1_554
Co2 Co3 2.749879 1_545
Co3 Co9 2.452765 1_565
Co3 U0 2.749413 1_566
Co3 U0 2.749413 1_665
Co3 U0 2.749413 1_656
Co4 Co5 2.579433 1_555
Co4 Co8 2.707800 1_556
Co4 Co8 2.707800 1_655
Co4 Co6 2.707801 1_565
Co4 Co6 2.707801 1_655
Co4 Co7 2.707801 1_556
Co4 Co7 2.707801 1_565
Co4 Co9 2.967635 1_555
Co4 U1 2.968797 1_655
Co4 U1 2.968797 1_556
Co4 U1 2.968797 1_565
Co5 Co8 2.707800 1_655
Co5 Co8 2.707800 1_556
Co5 Co6 2.707801 1_655
Co5 Co6 2.707801 1_565
Co5 Co7 2.707801 1_565
Co5 Co7 2.707801 1_556
Co5 U2 2.968797 1_455
Co5 U2 2.968797 1_554
Co5 U2 2.968797 1_545
Co6 Co7 2.380927 1_456
Co6 Co7 2.380927 1_555
Co6 Co8 2.380928 1_546
Co6 Co8 2.380928 1_555
Co6 U2 2.774590 1_445
Co6 U1 2.774590 1_555
Co7 Co8 2.380927 1_645
Co7 Co8 2.380927 1_555
Co7 U2 2.774590 1_544
Co7 U1 2.774590 1_555
Co8 U2 2.774590 1_454
Co8 U1 2.774590 1_555
Co9 U1 2.825832 1_556
Co9 U1 2.825832 1_655
Co9 U0 3.138319 1_655
Co9 U0 3.138320 1_556
Co10 Co11 2.340128 1_555
Co10 Co9 2.340128 1_555
Co10 Co11 2.421727 1_654
Co10 Co9 2.421727 1_564
Co10 Co3 2.452765 1_554
Co10 Co2 2.474940 1_555
Co10 U1 2.825832 1_655
Co10 U1 2.825832 1_565
Co10 Co4 2.967635 1_555
Co10 U0 3.138320 1_655
Co10 U0 3.138320 1_565
Co11 Co9 2.340128 1_555
Co11 Co9 2.421727 1_465
Co11 Co3 2.452765 1_455
Co11 Co2 2.474940 1_555
Co11 U1 2.825832 1_556
Co11 U1 2.825833 1_565
Co11 Co4 2.967635 1_555
Co11 U0 3.138320 1_565
Co11 U0 3.138320 1_556
Co12 Co14 2.340128 1_555
Co12 Co13 2.340128 1_555
Co12 Co14 2.421727 1_654
Co12 Co13 2.421727 1_645
Co12 Co2 2.452765 1_655
Co12 Co3 2.474940 1_555
Co12 U2 2.825832 1_554
Co12 U2 2.825833 1_545
Co12 Co5 2.967635 1_555
Co12 U0 3.138320 1_656
Co12 U0 3.138320 1_665
Co13 Co14 2.340128 1_555
Co13 Co14 2.421727 1_564
Co13 Co2 2.452765 1_565
Co13 Co3 2.474940 1_555
Co13 U2 2.825832 1_554
Co13 U2 2.825832 1_455
Co13 Co5 2.967635 1_555
Co13 U0 3.138319 1_566
Co13 U0 3.138320 1_665
Co14 Co2 2.452765 1_556
Co14 Co3 2.474940 1_555
Co14 U2 2.825832 1_455
Co14 U2 2.825832 1_545
Co14 Co5 2.967635 1_555
Co14 U0 3.138320 1_566
Co14 U0 3.138320 1_656
