# generated using pymatgen
data_Na2W(OF2)2
_symmetry_space_group_name_H-M   'P 1'
_cell_length_a   5.13816700
_cell_length_b   5.54059500
_cell_length_c   18.71341500
_cell_angle_alpha   90.00000000
_cell_angle_beta   90.00000000
_cell_angle_gamma   90.00000000
_symmetry_Int_Tables_number   1
_chemical_formula_structural   Na2W(OF2)2
_chemical_formula_sum   'Na8 W4 O8 F16'
_cell_volume   532.74289964
_cell_formula_units_Z   4
loop_
 _symmetry_equiv_pos_site_id
 _symmetry_equiv_pos_as_xyz
  1  'x, y, z'
loop_
 _atom_site_type_symbol
 _atom_site_label
 _atom_site_symmetry_multiplicity
 _atom_site_fract_x
 _atom_site_fract_y
 _atom_site_fract_z
 _atom_site_occupancy
  Na  Na0  1  0.00000000  0.75000000  0.77064200  1
  Na  Na1  1  0.50000000  0.25000000  0.72935800  1
  Na  Na2  1  0.00000000  0.25000000  0.22935800  1
  Na  Na3  1  0.50000000  0.75000000  0.27064200  1
  Na  Na4  1  0.00000000  0.75000000  0.44881100  1
  Na  Na5  1  0.50000000  0.25000000  0.05118900  1
  Na  Na6  1  0.00000000  0.25000000  0.55118900  1
  Na  Na7  1  0.50000000  0.75000000  0.94881100  1
  W  W0  1  0.00000000  0.75000000  0.10727100  1
  W  W1  1  0.50000000  0.25000000  0.39272900  1
  W  W2  1  0.00000000  0.25000000  0.89272900  1
  W  W3  1  0.50000000  0.75000000  0.60727100  1
  O  O0  1  0.77166800  0.88469100  0.04807300  1
  O  O1  1  0.27166800  0.11530900  0.45192700  1
  O  O2  1  0.72833200  0.38469100  0.45192700  1
  O  O3  1  0.22833200  0.61530900  0.04807300  1
  O  O4  1  0.22833200  0.11530900  0.95192700  1
  O  O5  1  0.72833200  0.88469100  0.54807300  1
  O  O6  1  0.27166800  0.61530900  0.54807300  1
  O  O7  1  0.77166800  0.38469100  0.95192700  1
  F  F0  1  0.71028200  0.95935000  0.37413800  1
  F  F1  1  0.21028200  0.04065000  0.12586200  1
  F  F2  1  0.78971800  0.45935000  0.12586200  1
  F  F3  1  0.28971800  0.54065000  0.37413800  1
  F  F4  1  0.28971800  0.04065000  0.62586200  1
  F  F5  1  0.78971800  0.95935000  0.87413800  1
  F  F6  1  0.21028200  0.54065000  0.87413800  1
  F  F7  1  0.71028200  0.45935000  0.62586200  1
  F  F8  1  0.80164700  0.89427500  0.19423400  1
  F  F9  1  0.30164700  0.10572500  0.30576600  1
  F  F10  1  0.69835300  0.39427500  0.30576600  1
  F  F11  1  0.19835300  0.60572500  0.19423400  1
  F  F12  1  0.19835300  0.10572500  0.80576600  1
  F  F13  1  0.69835300  0.89427500  0.69423400  1
  F  F14  1  0.30164700  0.60572500  0.69423400  1
  F  F15  1  0.80164700  0.39427500  0.80576600  1
loop_
_geom_bond_atom_site_label_1
_geom_bond_atom_site_label_2
_geom_bond_distance
_geom_bond_site_symmetry_2
Na4 O6 2.440452 1_555
Na4 O5 2.440452 1_455
Na4 O1 2.459383 1_565
Na4 O2 2.459383 1_455
Na5 O7 2.440452 1_554
Na5 O4 2.440452 1_554
Na5 O3 2.459383 1_555
Na5 O0 2.459383 1_545
Na6 O2 2.440452 1_455
Na6 O1 2.440452 1_555
Na6 O5 2.459383 1_445
Na6 O6 2.459383 1_555
Na7 O0 2.440452 1_556
Na7 O3 2.440452 1_556
Na7 O4 2.459383 1_565
Na7 O7 2.459383 1_555
O0 W0 1.777793 1_655
O1 W1 1.777793 1_555
O2 W1 1.777793 1_555
O3 W0 1.777793 1_555
O4 W2 1.777793 1_555
O5 W3 1.777793 1_555
O6 W3 1.777793 1_555
O7 W2 1.777793 1_655
F0 W1 1.970214 1_565
F0 Na4 2.348212 1_655
F0 Na3 2.502774 1_555
F1 W0 1.970214 1_545
F1 Na5 2.348212 1_555
F1 Na2 2.502774 1_555
F2 W0 1.970214 1_655
F2 Na5 2.348212 1_555
F2 Na2 2.502774 1_655
F3 W1 1.970214 1_555
F3 Na4 2.348212 1_555
F3 Na3 2.502774 1_555
F4 W3 1.970214 1_545
F4 Na6 2.348212 1_555
F4 Na1 2.502774 1_555
F5 W2 1.970214 1_665
F5 Na7 2.348212 1_555
F5 Na0 2.502774 1_655
F6 W2 1.970214 1_555
F6 Na7 2.348212 1_555
F6 Na0 2.502774 1_555
F7 W3 1.970214 1_555
F7 Na6 2.348212 1_655
F7 Na1 2.502774 1_555
F8 W0 2.079916 1_655
F8 Na3 2.255151 1_555
F8 Na2 2.314151 1_665
F9 W1 2.079916 1_555
F9 Na2 2.255151 1_555
F9 Na3 2.314151 1_545
F10 W1 2.079916 1_555
F10 Na2 2.255151 1_655
F10 Na3 2.314151 1_555
F11 W0 2.079916 1_555
F11 Na3 2.255151 1_555
F11 Na2 2.314151 1_555
F12 W2 2.079916 1_555
F12 Na1 2.255151 1_555
F12 Na0 2.314151 1_545
F13 W3 2.079916 1_555
F13 Na0 2.255151 1_655
F13 Na1 2.314151 1_565
F14 W3 2.079916 1_555
F14 Na0 2.255151 1_555
F14 Na1 2.314151 1_555
F15 W2 2.079916 1_655
F15 Na1 2.255151 1_555
F15 Na0 2.314151 1_655
