# generated using pymatgen
data_Nd(PRu)2
_symmetry_space_group_name_H-M   'P 1'
_cell_length_a   4.03839737
_cell_length_b   4.03839782
_cell_length_c   5.88032262
_cell_angle_alpha   110.08306366
_cell_angle_beta   110.08307262
_cell_angle_gamma   90.00000954
_symmetry_Int_Tables_number   1
_chemical_formula_structural   Nd(PRu)2
_chemical_formula_sum   'Nd1 P2 Ru2'
_cell_volume   83.83326525
_cell_formula_units_Z   1
loop_
 _symmetry_equiv_pos_site_id
 _symmetry_equiv_pos_as_xyz
  1  'x, y, z'
loop_
 _atom_site_type_symbol
 _atom_site_label
 _atom_site_symmetry_multiplicity
 _atom_site_fract_x
 _atom_site_fract_y
 _atom_site_fract_z
 _atom_site_occupancy
  Nd  Nd0  1  0.00000000  0.00000000  0.00000000  1
  P  P0  1  0.36265316  0.36265316  0.72530632  1
  P  P1  1  0.63734684  0.63734684  0.27469368  1
  Ru  Ru0  1  0.75000000  0.25000000  0.50000000  1
  Ru  Ru1  1  0.25000000  0.75000000  0.50000000  1
loop_
_geom_bond_atom_site_label_1
_geom_bond_atom_site_label_2
_geom_bond_distance
_geom_bond_site_symmetry_2
Nd0 P0 3.185621 1_554
Nd0 P1 3.185621 1_445
Nd0 P0 3.185621 1_444
Nd0 P1 3.185621 1_555
Nd0 P1 3.185621 1_545
Nd0 P0 3.185621 1_454
Nd0 P1 3.185622 1_455
Nd0 P0 3.185622 1_544
Nd0 Ru1 3.268506 1_545
Nd0 Ru0 3.268506 1_454
Nd0 Ru1 3.268506 1_544
Nd0 Ru0 3.268506 1_455
Nd0 Ru1 3.268506 1_444
Nd0 Ru0 3.268506 1_555
Nd0 Ru1 3.268506 1_555
Nd0 Ru0 3.268506 1_444
P0 Ru1 2.327771 1_555
P0 Ru0 2.327771 1_555
P0 Ru0 2.327771 1_455
P0 Ru1 2.327771 1_545
P0 P1 2.824079 1_556
P1 Ru0 2.327771 1_555
P1 Ru1 2.327771 1_555
P1 Ru1 2.327771 1_655
P1 Ru0 2.327771 1_565
