# generated using pymatgen
data_BaCo2(PO4)2
_symmetry_space_group_name_H-M   'P 1'
_cell_length_a   4.76793200
_cell_length_b   4.87179358
_cell_length_c   8.51757218
_cell_angle_alpha   90.40854108
_cell_angle_beta   106.11460837
_cell_angle_gamma   119.22424643
_symmetry_Int_Tables_number   1
_chemical_formula_structural   BaCo2(PO4)2
_chemical_formula_sum   'Ba1 Co2 P2 O8'
_cell_volume   163.46357684
_cell_formula_units_Z   1
loop_
 _symmetry_equiv_pos_site_id
 _symmetry_equiv_pos_as_xyz
  1  'x, y, z'
loop_
 _atom_site_type_symbol
 _atom_site_label
 _atom_site_symmetry_multiplicity
 _atom_site_fract_x
 _atom_site_fract_y
 _atom_site_fract_z
 _atom_site_occupancy
  Ba  Ba0  1  0.00000000  0.00000000  0.00000000  1
  Co  Co0  1  0.32754900  0.14922700  0.50506900  1
  Co  Co1  1  0.67245100  0.85077300  0.49493100  1
  P  P0  1  0.14317800  0.57103200  0.71881600  1
  P  P1  1  0.85682200  0.42896800  0.28118400  1
  O  O0  1  0.91179700  0.14917400  0.34133100  1
  O  O1  1  0.27478800  0.63547100  0.90866900  1
  O  O2  1  0.72521200  0.36452900  0.09133100  1
  O  O3  1  0.59536900  0.44485800  0.35136100  1
  O  O4  1  0.08820300  0.85082600  0.65866900  1
  O  O5  1  0.79762400  0.24354100  0.65967800  1
  O  O6  1  0.20237600  0.75645900  0.34032200  1
  O  O7  1  0.40463100  0.55514200  0.64863900  1
loop_
_geom_bond_atom_site_label_1
_geom_bond_atom_site_label_2
_geom_bond_distance
_geom_bond_site_symmetry_2
Ba0 O2 2.864634 1_555
Ba0 O1 2.864634 1_444
Ba0 O1 2.879863 1_544
Ba0 O2 2.879863 1_455
Ba0 O1 2.923299 1_554
Ba0 O2 2.923299 1_445
Ba0 O4 3.178758 1_544
Ba0 O0 3.178758 1_455
Ba0 O6 3.218017 1_545
Ba0 O5 3.218017 1_454
Ba0 O3 3.300882 1_555
Ba0 O7 3.300882 1_444
Co0 O5 2.077506 1_555
Co0 O0 2.083097 1_455
Co0 O4 2.088855 1_545
Co0 O6 2.090072 1_545
Co0 O7 2.132479 1_555
Co0 O3 2.139647 1_555
Co1 O6 2.077506 1_555
Co1 O4 2.083097 1_655
Co1 O0 2.088855 1_565
Co1 O5 2.090072 1_565
Co1 O3 2.132479 1_555
Co1 O7 2.139647 1_555
O0 P1 1.572735 1_555
O1 P0 1.531141 1_555
O2 P1 1.531141 1_555
O3 P1 1.557074 1_555
O4 P0 1.572735 1_555
O5 P0 1.573158 1_655
O6 P1 1.573158 1_455
O7 P0 1.557074 1_555
