# generated using pymatgen
data_NaZr2MnF11
_symmetry_space_group_name_H-M   'P 1'
_cell_length_a   5.82625152
_cell_length_b   5.82625152
_cell_length_c   7.94626800
_cell_angle_alpha   69.31428536
_cell_angle_beta   69.31428536
_cell_angle_gamma   72.98340802
_symmetry_Int_Tables_number   1
_chemical_formula_structural   NaZr2MnF11
_chemical_formula_sum   'Na1 Zr2 Mn1 F11'
_cell_volume   231.69679558
_cell_formula_units_Z   1
loop_
 _symmetry_equiv_pos_site_id
 _symmetry_equiv_pos_as_xyz
  1  'x, y, z'
loop_
 _atom_site_type_symbol
 _atom_site_label
 _atom_site_symmetry_multiplicity
 _atom_site_fract_x
 _atom_site_fract_y
 _atom_site_fract_z
 _atom_site_occupancy
  Na  Na0  1  0.00000000  0.00000000  0.00000000  1
  Zr  Zr0  1  0.49739600  0.49739600  0.23335700  1
  Zr  Zr1  1  0.50260400  0.50260400  0.76664300  1
  Mn  Mn0  1  0.00000000  0.00000000  0.50000000  1
  F  F0  1  0.19747700  0.77799100  0.30663600  1
  F  F1  1  0.22200900  0.80252300  0.69336400  1
  F  F2  1  0.80252300  0.22200900  0.69336400  1
  F  F3  1  0.77799100  0.19747700  0.30663600  1
  F  F4  1  0.50000000  0.50000000  0.50000000  1
  F  F5  1  0.66898600  0.33101400  0.00000000  1
  F  F6  1  0.33101400  0.66898600  0.00000000  1
  F  F7  1  0.74626900  0.74626900  0.64920700  1
  F  F8  1  0.25373100  0.25373100  0.35079300  1
  F  F9  1  0.73352400  0.73352400  0.10908000  1
  F  F10  1  0.26647600  0.26647600  0.89092000  1
loop_
_geom_bond_atom_site_label_1
_geom_bond_atom_site_label_2
_geom_bond_distance
_geom_bond_site_symmetry_2
F0 Zr0 2.084895 1_555
F0 Mn0 2.154499 1_565
F0 Na0 2.795862 1_565
F1 Zr1 2.084895 1_555
F1 Mn0 2.154499 1_565
F1 Na0 2.795862 1_566
F2 Zr1 2.084895 1_555
F2 Mn0 2.154499 1_655
F2 Na0 2.795862 1_656
F3 Zr0 2.084895 1_555
F3 Mn0 2.154499 1_655
F3 Na0 2.795862 1_655
F4 Zr1 2.129648 1_555
F4 Zr0 2.129648 1_555
F5 Zr0 2.184188 1_555
F5 Zr1 2.184188 1_554
F5 Na0 2.293867 1_655
F6 Zr0 2.184188 1_555
F6 Zr1 2.184188 1_554
F6 Na0 2.293867 1_565
F7 Zr1 2.051679 1_555
F7 Mn0 2.139866 1_665
F8 Zr0 2.051679 1_555
F8 Mn0 2.139866 1_555
F9 Zr0 1.987128 1_555
F9 Na0 2.254224 1_665
F10 Zr1 1.987128 1_555
F10 Na0 2.254224 1_556
