# generated using pymatgen
data_La2CN3Cl
_symmetry_space_group_name_H-M   'P 1'
_cell_length_a   8.29141507
_cell_length_b   8.29141507
_cell_length_c   3.95928800
_cell_angle_alpha   90.00000000
_cell_angle_beta   90.00000000
_cell_angle_gamma   108.69091108
_symmetry_Int_Tables_number   1
_chemical_formula_structural   La2CN3Cl
_chemical_formula_sum   'La4 C2 N6 Cl2'
_cell_volume   257.83633633
_cell_formula_units_Z   2
loop_
 _symmetry_equiv_pos_site_id
 _symmetry_equiv_pos_as_xyz
  1  'x, y, z'
loop_
 _atom_site_type_symbol
 _atom_site_label
 _atom_site_symmetry_multiplicity
 _atom_site_fract_x
 _atom_site_fract_y
 _atom_site_fract_z
 _atom_site_occupancy
  La  La0  1  0.78734000  0.78734000  0.50000000  1
  La  La1  1  0.63781800  0.36218200  0.00000000  1
  La  La2  1  0.21266000  0.21266000  0.50000000  1
  La  La3  1  0.36218200  0.63781800  0.00000000  1
  C  C0  1  0.00000000  0.50000000  0.50000000  1
  C  C1  1  0.50000000  0.00000000  0.50000000  1
  N  N0  1  0.34431300  0.34431300  0.00000000  1
  N  N1  1  0.65568700  0.65568700  0.00000000  1
  N  N2  1  0.15061700  0.50528300  0.50000000  1
  N  N3  1  0.84938300  0.49471700  0.50000000  1
  N  N4  1  0.49471700  0.84938300  0.50000000  1
  N  N5  1  0.50528300  0.15061700  0.50000000  1
  Cl  Cl0  1  0.12187500  0.87812500  0.00000000  1
  Cl  Cl1  1  0.87812500  0.12187500  0.00000000  1
loop_
_geom_bond_atom_site_label_1
_geom_bond_atom_site_label_2
_geom_bond_distance
_geom_bond_site_symmetry_2
La0 N1 2.353385 1_555
La0 N1 2.353385 1_556
La0 N3 2.636536 1_555
La0 N4 2.636536 1_555
La1 N1 2.390216 1_555
La1 N0 2.390216 1_555
La1 N3 2.639737 1_554
La1 N3 2.639737 1_555
La1 N5 2.639737 1_554
La1 N5 2.639737 1_555
La2 N0 2.353385 1_556
La2 N0 2.353385 1_555
La2 N5 2.636536 1_555
La2 N2 2.636536 1_555
La3 N1 2.390216 1_555
La3 N0 2.390216 1_555
La3 N4 2.639737 1_555
La3 N4 2.639737 1_554
La3 N2 2.639737 1_554
La3 N2 2.639737 1_555
C0 N3 1.235488 1_455
C0 N2 1.235488 1_555
C1 N4 1.235488 1_545
C1 N5 1.235488 1_555
Cl0 La3 3.237972 1_555
Cl0 La0 3.292597 1_455
Cl0 La0 3.292597 1_454
Cl0 La2 3.292597 1_565
Cl0 La2 3.292597 1_564
Cl1 La1 3.237972 1_555
Cl1 La0 3.292597 1_545
Cl1 La0 3.292597 1_544
Cl1 La2 3.292597 1_655
Cl1 La2 3.292597 1_654
