# generated using pymatgen
data_ZnSO4
_symmetry_space_group_name_H-M   'P 1'
_cell_length_a   4.75275201
_cell_length_b   6.66785586
_cell_length_c   8.60200284
_cell_angle_alpha   90.00000000
_cell_angle_beta   90.00000000
_cell_angle_gamma   90.00000000
_symmetry_Int_Tables_number   1
_chemical_formula_structural   ZnSO4
_chemical_formula_sum   'Zn4 S4 O16'
_cell_volume   272.60319326
_cell_formula_units_Z   4
loop_
 _symmetry_equiv_pos_site_id
 _symmetry_equiv_pos_as_xyz
  1  'x, y, z'
loop_
 _atom_site_type_symbol
 _atom_site_label
 _atom_site_symmetry_multiplicity
 _atom_site_fract_x
 _atom_site_fract_y
 _atom_site_fract_z
 _atom_site_occupancy
  Zn  Zn0  1  0.50000000  0.50000000  0.50000000  1
  Zn  Zn1  1  0.00000000  0.50000000  -0.00000000  1
  Zn  Zn2  1  0.50000000  -0.00000000  0.50000000  1
  Zn  Zn3  1  0.00000000  -0.00000000  -0.00000000  1
  S  S0  1  0.97150038  0.75000000  0.67862779  1
  S  S1  1  0.47150038  0.25000000  0.82137221  1
  S  S2  1  0.02849962  0.25000000  0.32137221  1
  S  S3  1  0.52849962  0.75000000  0.17862779  1
  O  O0  1  0.16594405  0.43328610  0.37479515  1
  O  O1  1  0.66594405  0.56671390  0.12520485  1
  O  O2  1  0.83405595  0.93328610  0.62520485  1
  O  O3  1  0.33405595  0.06671390  0.87479515  1
  O  O4  1  0.83405595  0.56671390  0.62520485  1
  O  O5  1  0.33405595  0.43328610  0.87479515  1
  O  O6  1  0.16594405  0.06671390  0.37479515  1
  O  O7  1  0.66594405  0.93328610  0.12520485  1
  O  O8  1  0.23210587  0.75000000  0.12629830  1
  O  O9  1  0.73210587  0.25000000  0.37370170  1
  O  O10  1  0.76789413  0.25000000  0.87370170  1
  O  O11  1  0.26789413  0.75000000  0.62629830  1
  O  O12  1  0.54665132  0.75000000  0.35282136  1
  O  O13  1  0.04665132  0.25000000  0.14717864  1
  O  O14  1  0.45334868  0.25000000  0.64717864  1
  O  O15  1  0.95334868  0.75000000  0.85282136  1
loop_
_geom_bond_atom_site_label_1
_geom_bond_atom_site_label_2
_geom_bond_distance
_geom_bond_site_symmetry_2
O0 S2 1.459963 1_555
O0 Zn0 1.969411 1_555
O1 S3 1.459963 1_555
O1 Zn1 1.969411 1_655
O2 S0 1.459963 1_555
O2 Zn2 1.969411 1_565
O3 S1 1.459963 1_555
O3 Zn3 1.969411 1_556
O4 S0 1.459963 1_555
O4 Zn0 1.969411 1_555
O5 S1 1.459963 1_555
O5 Zn1 1.969411 1_556
O6 S2 1.459963 1_555
O6 Zn2 1.969411 1_555
O7 S3 1.459963 1_555
O7 Zn3 1.969411 1_665
O8 S3 1.478858 1_555
O8 Zn3 2.275081 1_565
O8 Zn1 2.275081 1_555
O9 S2 1.478858 1_655
O9 Zn2 2.275081 1_555
O9 Zn0 2.275081 1_555
O10 S1 1.478858 1_555
O10 Zn3 2.275081 1_656
O10 Zn1 2.275081 1_656
O11 S0 1.478858 1_455
O11 Zn2 2.275081 1_565
O11 Zn0 2.275081 1_555
O12 S3 1.500895 1_555
O12 Zn0 2.104938 1_555
O12 Zn2 2.104938 1_565
O13 S2 1.500895 1_555
O13 Zn3 2.104938 1_555
O13 Zn1 2.104938 1_555
O14 S1 1.500895 1_555
O14 Zn0 2.104938 1_555
O14 Zn2 2.104938 1_555
O15 S0 1.500895 1_555
O15 Zn1 2.104938 1_656
O15 Zn3 2.104938 1_666
