# generated using pymatgen
data_AgHg2NO5
_symmetry_space_group_name_H-M   'P 1'
_cell_length_a   6.50637100
_cell_length_b   6.79519600
_cell_length_c   13.00612900
_cell_angle_alpha   90.00000000
_cell_angle_beta   90.00000000
_cell_angle_gamma   90.00000000
_symmetry_Int_Tables_number   1
_chemical_formula_structural   AgHg2NO5
_chemical_formula_sum   'Ag4 Hg8 N4 O20'
_cell_volume   575.02783627
_cell_formula_units_Z   4
loop_
 _symmetry_equiv_pos_site_id
 _symmetry_equiv_pos_as_xyz
  1  'x, y, z'
loop_
 _atom_site_type_symbol
 _atom_site_label
 _atom_site_symmetry_multiplicity
 _atom_site_fract_x
 _atom_site_fract_y
 _atom_site_fract_z
 _atom_site_occupancy
  Ag  Ag0  1  0.75834800  0.75000000  0.15305300  1
  Ag  Ag1  1  0.74165200  0.25000000  0.65305300  1
  Ag  Ag2  1  0.24165200  0.25000000  0.84694700  1
  Ag  Ag3  1  0.25834800  0.75000000  0.34694700  1
  Hg  Hg0  1  0.79735700  0.99999800  0.90221600  1
  Hg  Hg1  1  0.20264300  0.00000200  0.09778400  1
  Hg  Hg2  1  0.70264300  0.00000200  0.40221600  1
  Hg  Hg3  1  0.29735700  0.99999800  0.59778400  1
  Hg  Hg4  1  0.70264300  0.49999800  0.40221600  1
  Hg  Hg5  1  0.20264300  0.49999800  0.09778400  1
  Hg  Hg6  1  0.29735700  0.50000200  0.59778400  1
  Hg  Hg7  1  0.79735700  0.50000200  0.90221600  1
  N  N0  1  0.19606100  0.25000000  0.35486500  1
  N  N1  1  0.80393900  0.75000000  0.64513500  1
  N  N2  1  0.69606100  0.25000000  0.14513500  1
  N  N3  1  0.30393900  0.75000000  0.85486500  1
  O  O0  1  0.31525500  0.25000000  0.27863400  1
  O  O1  1  0.11563000  0.25000000  0.01851400  1
  O  O2  1  0.61563000  0.25000000  0.48148600  1
  O  O3  1  0.68474500  0.75000000  0.72136600  1
  O  O4  1  0.79989800  0.75000000  0.32703900  1
  O  O5  1  0.88437000  0.75000000  0.98148600  1
  O  O6  1  0.18474500  0.75000000  0.77863400  1
  O  O7  1  0.63480200  0.08893800  0.10508400  1
  O  O8  1  0.29989800  0.75000000  0.17296100  1
  O  O9  1  0.36519800  0.91106200  0.89491600  1
  O  O10  1  0.81525500  0.25000000  0.22136600  1
  O  O11  1  0.70010200  0.25000000  0.82703900  1
  O  O12  1  0.36519800  0.58893800  0.89491600  1
  O  O13  1  0.38437000  0.75000000  0.51851400  1
  O  O14  1  0.20010200  0.25000000  0.67296100  1
  O  O15  1  0.13480200  0.41106200  0.39491600  1
  O  O16  1  0.13480200  0.08893800  0.39491600  1
  O  O17  1  0.86519800  0.58893800  0.60508400  1
  O  O18  1  0.63480200  0.41106200  0.10508400  1
  O  O19  1  0.86519800  0.91106200  0.60508400  1
loop_
_geom_bond_atom_site_label_1
_geom_bond_atom_site_label_2
_geom_bond_distance
_geom_bond_site_symmetry_2
Ag0 O4 2.278975 1_555
Ag0 O5 2.377301 1_554
Ag0 O7 2.517914 1_565
Ag0 O18 2.517914 1_555
Ag1 O11 2.278975 1_555
Ag1 O2 2.377301 1_555
Ag1 O17 2.517914 1_555
Ag1 O19 2.517914 1_545
Ag2 O14 2.278975 1_555
Ag2 O1 2.377301 1_556
Ag2 O12 2.517914 1_555
Ag2 O9 2.517914 1_545
Ag3 O8 2.278975 1_555
Ag3 O13 2.377301 1_555
Ag3 O16 2.517914 1_565
Ag3 O15 2.517914 1_555
Hg0 O11 2.059706 1_565
Hg0 O5 2.066238 1_555
Hg1 O8 2.059706 1_545
Hg1 O1 2.066238 1_555
Hg2 O4 2.059706 1_545
Hg2 O2 2.066238 1_555
Hg3 O14 2.059706 1_565
Hg3 O13 2.066238 1_555
Hg4 O4 2.059706 1_555
Hg4 O2 2.066238 1_555
Hg5 O8 2.059706 1_555
Hg5 O1 2.066238 1_555
Hg6 O14 2.059706 1_555
Hg6 O13 2.066238 1_555
Hg7 O11 2.059706 1_555
Hg7 O5 2.066238 1_555
N0 O0 1.258747 1_555
N0 O15 1.275940 1_555
N0 O16 1.275940 1_555
N1 O3 1.258747 1_555
N1 O19 1.275940 1_555
N1 O17 1.275940 1_555
N2 O10 1.258747 1_555
N2 O18 1.275940 1_555
N2 O7 1.275940 1_555
N3 O6 1.258747 1_555
N3 O9 1.275940 1_555
N3 O12 1.275940 1_555
