# generated using pymatgen
data_Mo(PO3)3
_symmetry_space_group_name_H-M   'P 1'
_cell_length_a   11.88724162
_cell_length_b   11.88724162
_cell_length_c   9.61499416
_cell_angle_alpha   69.95364027
_cell_angle_beta   69.95364027
_cell_angle_gamma   110.89807599
_symmetry_Int_Tables_number   1
_chemical_formula_structural   Mo(PO3)3
_chemical_formula_sum   'Mo6 P18 O54'
_cell_volume   1011.21165880
_cell_formula_units_Z   6
loop_
 _symmetry_equiv_pos_site_id
 _symmetry_equiv_pos_as_xyz
  1  'x, y, z'
loop_
 _atom_site_type_symbol
 _atom_site_label
 _atom_site_symmetry_multiplicity
 _atom_site_fract_x
 _atom_site_fract_y
 _atom_site_fract_z
 _atom_site_occupancy
  Mo  Mo0  1  0.02737044  0.51481101  0.46026990  1
  Mo  Mo1  1  0.51481101  0.02737044  0.96026990  1
  Mo  Mo2  1  0.83908112  0.66103597  0.99599575  1
  Mo  Mo3  1  0.66103597  0.83908112  0.49599575  1
  Mo  Mo4  1  0.33140505  0.17399525  0.49381670  1
  Mo  Mo5  1  0.17399525  0.33140505  0.99381670  1
  P  P0  1  0.68966026  0.31004645  0.25090228  1
  P  P1  1  0.31004645  0.68966026  0.75090228  1
  P  P2  1  0.01050733  0.96354039  0.26969595  1
  P  P3  1  0.96354039  0.01050733  0.76969595  1
  P  P4  1  0.42616117  0.36340251  0.66769217  1
  P  P5  1  0.36340251  0.42616117  0.16769217  1
  P  P6  1  0.63277000  0.57899846  0.82972583  1
  P  P7  1  0.57899846  0.63277000  0.32972583  1
  P  P8  1  0.10168078  0.70550011  0.64564086  1
  P  P9  1  0.70550011  0.10168078  0.14564086  1
  P  P10  1  0.67011107  0.38637520  0.70097638  1
  P  P11  1  0.38637520  0.67011107  0.20097638  1
  P  P12  1  0.31419855  0.92357579  0.80048406  1
  P  P13  1  0.92357579  0.31419855  0.30048406  1
  P  P14  1  0.04479737  0.77011440  0.14725609  1
  P  P15  1  0.77011440  0.04479737  0.64725609  1
  P  P16  1  0.25330606  0.98107095  0.30903601  1
  P  P17  1  0.98107095  0.25330606  0.80903601  1
  O  O0  1  0.45098542  0.49631664  0.51539507  1
  O  O1  1  0.49631664  0.45098542  0.01539507  1
  O  O2  1  0.19016500  0.65447090  0.70800078  1
  O  O3  1  0.65447090  0.19016500  0.20800078  1
  O  O4  1  0.58439780  0.40317966  0.60718093  1
  O  O5  1  0.40317966  0.58439780  0.10718093  1
  O  O6  1  0.69123128  0.49793785  0.75861428  1
  O  O7  1  0.49793785  0.69123128  0.25861428  1
  O  O8  1  0.28729305  0.77000194  0.85140503  1
  O  O9  1  0.77000194  0.28729305  0.35140503  1
  O  O10  1  0.17899034  0.88958429  0.95801979  1
  O  O11  1  0.88958429  0.17899034  0.45801979  1
  O  O12  1  0.99006389  0.86172167  0.19668335  1
  O  O13  1  0.86172167  0.99006389  0.69668335  1
  O  O14  1  0.09629136  0.93856705  0.35935709  1
  O  O15  1  0.93856705  0.09629136  0.85935709  1
  O  O16  1  0.22449148  0.84516191  0.46121592  1
  O  O17  1  0.84516191  0.22449148  0.96121592  1
  O  O18  1  0.24290743  0.58530702  0.36084348  1
  O  O19  1  0.58530702  0.24290743  0.86084348  1
  O  O20  1  0.08952192  0.71215959  0.26640650  1
  O  O21  1  0.71215959  0.08952192  0.76640650  1
  O  O22  1  0.99019690  0.32552236  0.64203502  1
  O  O23  1  0.32552236  0.99019690  0.14203502  1
  O  O24  1  0.36572008  0.35961789  0.83379020  1
  O  O25  1  0.35961789  0.36572008  0.33379020  1
  O  O26  1  0.23376042  0.34208013  0.17171622  1
  O  O27  1  0.34208013  0.23376042  0.67171622  1
  O  O28  1  0.27677886  0.55182673  0.87955240  1
  O  O29  1  0.55182673  0.27677886  0.37955240  1
  O  O30  1  0.98236100  0.31031913  0.13961016  1
  O  O31  1  0.31031913  0.98236100  0.63961016  1
  O  O32  1  0.09056326  0.11106248  0.12038413  1
  O  O33  1  0.11106248  0.09056326  0.62038413  1
  O  O34  1  0.10735238  0.32325850  0.81855276  1
  O  O35  1  0.32325850  0.10735238  0.31855276  1
  O  O36  1  0.66869058  0.73960813  0.35346785  1
  O  O37  1  0.73960813  0.66869058  0.85346785  1
  O  O38  1  0.86971756  0.90593788  0.41950160  1
  O  O39  1  0.90593788  0.86971756  0.91950160  1
  O  O40  1  0.58999108  0.65080074  0.71772853  1
  O  O41  1  0.65080074  0.58999108  0.21772853  1
  O  O42  1  0.44992944  0.78511055  0.58299252  1
  O  O43  1  0.78511055  0.44992944  0.08299252  1
  O  O44  1  0.74106510  0.02589073  0.26493313  1
  O  O45  1  0.02589073  0.74106510  0.76493313  1
  O  O46  1  0.66499800  0.93732347  0.63886204  1
  O  O47  1  0.93732347  0.66499800  0.13886204  1
  O  O48  1  0.43525239  0.81114884  0.06049239  1
  O  O49  1  0.81114884  0.43525239  0.56049239  1
  O  O50  1  0.59413694  0.01441106  0.12525722  1
  O  O51  1  0.01441106  0.59413694  0.62525722  1
  O  O52  1  0.44193715  0.01536404  0.79351263  1
  O  O53  1  0.01536404  0.44193715  0.29351263  1
loop_
_geom_bond_atom_site_label_1
_geom_bond_atom_site_label_2
_geom_bond_distance
_geom_bond_site_symmetry_2
Mo0 O20 2.084536 1_555
Mo0 O53 2.088654 1_555
Mo0 O49 2.091025 1_455
Mo0 O22 2.092347 1_455
Mo0 O51 2.095481 1_555
Mo0 O18 2.102512 1_555
Mo1 O21 2.084536 1_555
Mo1 O52 2.088654 1_555
Mo1 O48 2.091025 1_546
Mo1 O23 2.092347 1_546
Mo1 O50 2.095481 1_556
Mo1 O19 2.102512 1_555
Mo2 O39 2.065956 1_555
Mo2 O47 2.087552 1_556
Mo2 O37 2.094442 1_555
Mo2 O41 2.100874 1_556
Mo2 O45 2.105655 1_655
Mo2 O43 2.110260 1_556
Mo3 O38 2.065956 1_555
Mo3 O46 2.087552 1_555
Mo3 O36 2.094442 1_555
Mo3 O40 2.100874 1_555
Mo3 O44 2.105655 1_565
Mo3 O42 2.110260 1_555
Mo4 O27 2.089078 1_555
Mo4 O25 2.090696 1_555
Mo4 O31 2.092781 1_545
Mo4 O29 2.094669 1_555
Mo4 O35 2.109286 1_555
Mo4 O33 2.111687 1_555
Mo5 O26 2.089078 1_556
Mo5 O24 2.090696 1_555
Mo5 O30 2.092781 1_456
Mo5 O28 2.094669 1_555
Mo5 O34 2.109286 1_555
Mo5 O32 2.111687 1_556
O0 P4 1.585153 1_555
O0 P7 1.589078 1_555
O1 P5 1.585153 1_555
O1 P6 1.589078 1_554
O2 P1 1.572242 1_555
O2 P8 1.572267 1_555
O3 P0 1.572242 1_555
O3 P9 1.572267 1_555
O4 P4 1.589605 1_555
O4 P10 1.594684 1_555
O5 P5 1.589605 1_555
O5 P11 1.594684 1_555
O6 P6 1.575626 1_555
O6 P10 1.578162 1_555
O7 P7 1.575626 1_555
O7 P11 1.578162 1_555
O8 P12 1.593127 1_555
O8 P1 1.599017 1_555
O9 P13 1.593127 1_555
O9 P0 1.599017 1_555
O10 P12 1.577640 1_555
O10 P14 1.579433 1_556
O11 P13 1.577640 1_555
O11 P15 1.579433 1_555
O12 P14 1.575841 1_655
O12 P2 1.583174 1_655
O13 P15 1.575841 1_565
O13 P3 1.583174 1_565
O14 P16 1.585439 1_555
O14 P2 1.585681 1_555
O15 P17 1.585439 1_555
O15 P3 1.585681 1_555
O16 P16 1.584112 1_555
O16 P8 1.584245 1_555
O17 P17 1.584112 1_555
O17 P9 1.584245 1_556
O18 P11 1.483742 1_555
O19 P10 1.483742 1_555
O20 P14 1.485771 1_555
O21 P15 1.485771 1_555
O22 P17 1.481949 1_555
O23 P16 1.481949 1_555
O24 P4 1.486538 1_555
O25 P5 1.486538 1_555
O26 P5 1.486327 1_555
O27 P4 1.486327 1_555
O28 P1 1.477830 1_555
O29 P0 1.477830 1_555
O30 P13 1.487921 1_555
O31 P12 1.487921 1_555
O32 P2 1.479444 1_545
O33 P3 1.479444 1_455
O34 P17 1.486290 1_455
O35 P16 1.486290 1_545
O36 P7 1.483713 1_555
O37 P6 1.483713 1_555
O38 P2 1.482621 1_655
O39 P3 1.482621 1_565
O40 P6 1.483804 1_555
O41 P7 1.483804 1_555
O42 P1 1.488824 1_555
O43 P0 1.488824 1_555
O44 P9 1.483828 1_555
O45 P8 1.483828 1_555
O46 P15 1.483578 1_565
O47 P14 1.483578 1_655
O48 P11 1.478999 1_555
O49 P10 1.478999 1_555
O50 P9 1.484780 1_555
O51 P8 1.484780 1_555
O52 P12 1.482844 1_545
O53 P13 1.482844 1_455
