# generated using pymatgen
data_FeCoPO5
_symmetry_space_group_name_H-M   'P 1'
_cell_length_a   6.53003100
_cell_length_b   7.41591600
_cell_length_c   7.47955000
_cell_angle_alpha   90.00000000
_cell_angle_beta   90.00000000
_cell_angle_gamma   90.00000000
_symmetry_Int_Tables_number   1
_chemical_formula_structural   FeCoPO5
_chemical_formula_sum   'Fe4 Co4 P4 O20'
_cell_volume   362.20589530
_cell_formula_units_Z   4
loop_
 _symmetry_equiv_pos_site_id
 _symmetry_equiv_pos_as_xyz
  1  'x, y, z'
loop_
 _atom_site_type_symbol
 _atom_site_label
 _atom_site_symmetry_multiplicity
 _atom_site_fract_x
 _atom_site_fract_y
 _atom_site_fract_z
 _atom_site_occupancy
  Fe  Fe0  1  0.75000000  0.84817900  0.71622300  1
  Fe  Fe1  1  0.25000000  0.15182100  0.28377700  1
  Fe  Fe2  1  0.75000000  0.34817900  0.78377700  1
  Fe  Fe3  1  0.25000000  0.65182100  0.21622300  1
  Co  Co0  1  0.00000000  0.00000000  0.00000000  1
  Co  Co1  1  0.50000000  0.00000000  0.00000000  1
  Co  Co2  1  0.50000000  0.50000000  0.50000000  1
  Co  Co3  1  0.00000000  0.50000000  0.50000000  1
  P  P0  1  0.75000000  0.62267700  0.13306300  1
  P  P1  1  0.25000000  0.37732300  0.86693700  1
  P  P2  1  0.75000000  0.12267700  0.36693700  1
  P  P3  1  0.25000000  0.87732300  0.63306300  1
  O  O0  1  0.75000000  0.59643900  0.64300600  1
  O  O1  1  0.25000000  0.40356100  0.35699400  1
  O  O2  1  0.75000000  0.09643900  0.85699400  1
  O  O3  1  0.25000000  0.90356100  0.14300600  1
  O  O4  1  0.75000000  0.79371500  0.01063200  1
  O  O5  1  0.25000000  0.20628500  0.98936800  1
  O  O6  1  0.75000000  0.29371500  0.48936800  1
  O  O7  1  0.25000000  0.70628500  0.51063200  1
  O  O8  1  0.75000000  0.95017000  0.47803700  1
  O  O9  1  0.25000000  0.04983000  0.52196300  1
  O  O10  1  0.75000000  0.45017000  0.02196300  1
  O  O11  1  0.25000000  0.54983000  0.97803700  1
  O  O12  1  0.94080200  0.63004700  0.25732600  1
  O  O13  1  0.44080200  0.36995300  0.74267400  1
  O  O14  1  0.55919800  0.13004700  0.24267400  1
  O  O15  1  0.05919800  0.86995300  0.75732600  1
  O  O16  1  0.05919800  0.36995300  0.74267400  1
  O  O17  1  0.55919800  0.63004700  0.25732600  1
  O  O18  1  0.44080200  0.86995300  0.75732600  1
  O  O19  1  0.94080200  0.13004700  0.24267400  1
loop_
_geom_bond_atom_site_label_1
_geom_bond_atom_site_label_2
_geom_bond_distance
_geom_bond_site_symmetry_2
Fe0 O8 1.935434 1_555
Fe0 O0 1.945546 1_555
Fe0 O18 2.048717 1_555
Fe0 O15 2.048717 1_655
Fe0 O2 2.120888 1_565
Fe0 O4 2.238782 1_556
Fe1 O9 1.935434 1_555
Fe1 O1 1.945546 1_555
Fe1 O14 2.048717 1_555
Fe1 O19 2.048717 1_455
Fe1 O3 2.120888 1_545
Fe1 O5 2.238782 1_554
Fe2 O10 1.935434 1_556
Fe2 O2 1.945546 1_555
Fe2 O13 2.048717 1_555
Fe2 O16 2.048717 1_655
Fe2 O0 2.120888 1_555
Fe2 O6 2.238782 1_555
Fe3 O11 1.935434 1_554
Fe3 O3 1.945546 1_555
Fe3 O17 2.048717 1_555
Fe3 O12 2.048717 1_455
Fe3 O1 2.120888 1_555
Fe3 O7 2.238782 1_555
Co0 O2 2.078619 1_454
Co0 O3 2.078619 1_545
Co0 O19 2.091433 1_455
Co0 O15 2.091433 1_544
Co0 O5 2.238676 1_554
Co0 O4 2.238676 1_445
Co1 O3 2.078619 1_545
Co1 O2 2.078619 1_554
Co1 O18 2.091433 1_544
Co1 O14 2.091433 1_555
Co1 O5 2.238676 1_554
Co1 O4 2.238676 1_545
Co2 O1 2.078619 1_555
Co2 O0 2.078619 1_555
Co2 O13 2.091433 1_555
Co2 O17 2.091433 1_555
Co2 O6 2.238676 1_555
Co2 O7 2.238676 1_555
Co3 O1 2.078619 1_555
Co3 O0 2.078619 1_455
Co3 O16 2.091433 1_555
Co3 O12 2.091433 1_455
Co3 O6 2.238676 1_455
Co3 O7 2.238676 1_555
O4 P0 1.564419 1_555
O5 P1 1.564419 1_555
O6 P2 1.564419 1_555
O7 P3 1.564419 1_555
O8 P2 1.525492 1_565
O9 P3 1.525492 1_545
O10 P0 1.525492 1_555
O11 P1 1.525492 1_555
O12 P0 1.555379 1_555
O13 P1 1.555379 1_555
O14 P2 1.555379 1_555
O15 P3 1.555379 1_555
O16 P1 1.555379 1_555
O17 P0 1.555379 1_555
O18 P3 1.555379 1_555
O19 P2 1.555379 1_555
