# generated using pymatgen
data_K2(ReS2)3
_symmetry_space_group_name_H-M   'P 1'
_cell_length_a   9.62774272
_cell_length_b   9.62774272
_cell_length_c   11.92721644
_cell_angle_alpha   88.81548936
_cell_angle_beta   88.81548936
_cell_angle_gamma   61.18018107
_symmetry_Int_Tables_number   1
_chemical_formula_structural   K2(ReS2)3
_chemical_formula_sum   'K8 Re12 S24'
_cell_volume   968.35877750
_cell_formula_units_Z   4
loop_
 _symmetry_equiv_pos_site_id
 _symmetry_equiv_pos_as_xyz
  1  'x, y, z'
loop_
 _atom_site_type_symbol
 _atom_site_label
 _atom_site_symmetry_multiplicity
 _atom_site_fract_x
 _atom_site_fract_y
 _atom_site_fract_z
 _atom_site_occupancy
  K  K0  1  0.60166938  0.39833062  0.25000000  1
  K  K1  1  0.39833062  0.60166938  0.75000000  1
  K  K2  1  0.21100306  0.78899694  0.25000000  1
  K  K3  1  0.78899694  0.21100306  0.75000000  1
  K  K4  1  0.35620276  0.87778785  0.97975249  1
  K  K5  1  0.12221215  0.64379724  0.52024751  1
  K  K6  1  0.64379724  0.12221215  0.02024751  1
  K  K7  1  0.87778785  0.35620276  0.47975249  1
  Re  Re0  1  0.69107235  0.99657579  0.47452706  1
  Re  Re1  1  0.00342421  0.30892765  0.02547294  1
  Re  Re2  1  0.30892765  0.00342421  0.52547294  1
  Re  Re3  1  0.99657579  0.69107235  0.97452706  1
  Re  Re4  1  0.53062186  0.88427322  0.36996047  1
  Re  Re5  1  0.11572678  0.46937814  0.13003953  1
  Re  Re6  1  0.46937814  0.11572678  0.63003953  1
  Re  Re7  1  0.88427322  0.53062186  0.86996047  1
  Re  Re8  1  0.39732005  0.18756951  0.41652440  1
  Re  Re9  1  0.81243049  0.60267995  0.08347560  1
  Re  Re10  1  0.60267995  0.81243049  0.58347560  1
  Re  Re11  1  0.18756951  0.39732005  0.91652440  1
  S  S0  1  0.74352276  0.92867732  0.66931745  1
  S  S1  1  0.07132268  0.25647724  0.83068255  1
  S  S2  1  0.25647724  0.07132268  0.33068255  1
  S  S3  1  0.92867732  0.74352276  0.16931745  1
  S  S4  1  0.28190390  0.20346449  0.06829734  1
  S  S5  1  0.79653551  0.71809610  0.43170266  1
  S  S6  1  0.71809610  0.79653551  0.93170266  1
  S  S7  1  0.20346449  0.28190390  0.56829734  1
  S  S8  1  0.38827737  0.93902413  0.71816700  1
  S  S9  1  0.06097587  0.61172263  0.78183300  1
  S  S10  1  0.61172263  0.06097587  0.28183300  1
  S  S11  1  0.93902413  0.38827737  0.21816700  1
  S  S12  1  0.44490875  0.72202824  0.48001818  1
  S  S13  1  0.27797176  0.55509125  0.01998182  1
  S  S14  1  0.55509125  0.27797176  0.51998182  1
  S  S15  1  0.72202824  0.44490875  0.98001818  1
  S  S16  1  0.00062529  0.94045930  0.92611822  1
  S  S17  1  0.05954070  0.99937471  0.57388178  1
  S  S18  1  0.99937471  0.05954070  0.07388178  1
  S  S19  1  0.94045930  0.00062529  0.42611822  1
  S  S20  1  0.56132145  0.73477100  0.19528468  1
  S  S21  1  0.26522900  0.43867855  0.30471532  1
  S  S22  1  0.43867855  0.26522900  0.80471532  1
  S  S23  1  0.73477100  0.56132145  0.69528468  1
loop_
_geom_bond_atom_site_label_1
_geom_bond_atom_site_label_2
_geom_bond_distance
_geom_bond_site_symmetry_2
K0 S20 3.127125 1_555
K0 S21 3.127125 1_555
K0 S11 3.217180 1_555
K0 S10 3.217180 1_555
K0 S15 3.492872 1_554
K0 S14 3.492872 1_555
K1 S23 3.127125 1_555
K1 S22 3.127125 1_555
K1 S8 3.217180 1_555
K1 S9 3.217180 1_555
K1 S13 3.492872 1_556
K1 S12 3.492872 1_555
K2 S2 3.127145 1_565
K2 S3 3.127145 1_455
K2 S18 3.191017 1_465
K2 S19 3.191017 1_465
K2 S20 3.209284 1_555
K2 S21 3.209284 1_555
K2 S13 3.434565 1_555
K2 S12 3.434565 1_555
K3 S1 3.127145 1_655
K3 S0 3.127145 1_545
K3 S17 3.191017 1_645
K3 S16 3.191017 1_645
K3 S23 3.209284 1_555
K3 S22 3.209284 1_555
K3 S14 3.434565 1_555
K3 S15 3.434565 1_555
K4 S4 3.066237 1_566
K4 S20 3.137883 1_556
K4 S8 3.199517 1_555
K4 S18 3.201674 1_466
K4 S6 3.223094 1_555
K4 S16 3.252092 1_555
K4 S13 3.553795 1_556
K5 S5 3.066237 1_455
K5 S21 3.137883 1_555
K5 S9 3.199517 1_555
K5 S19 3.201674 1_465
K5 S7 3.223094 1_555
K5 S17 3.252092 1_555
K5 S12 3.553795 1_555
K6 S6 3.066237 1_544
K6 S22 3.137883 1_554
K6 S10 3.199517 1_555
K6 S16 3.201674 1_644
K6 S4 3.223094 1_555
K6 S18 3.252092 1_555
K6 S15 3.553795 1_554
K7 S7 3.066237 1_655
K7 S23 3.137883 1_555
K7 S11 3.199517 1_555
K7 S17 3.201674 1_645
K7 S5 3.223094 1_555
K7 S19 3.252092 1_555
K7 S14 3.553795 1_555
Re0 S0 2.397404 1_555
Re0 S10 2.409827 1_565
Re0 S5 2.427110 1_555
Re0 S14 2.441211 1_565
Re0 S19 2.476259 1_565
Re1 S1 2.397404 1_554
Re1 S11 2.409827 1_455
Re1 S4 2.427110 1_555
Re1 S15 2.441211 1_454
Re1 S18 2.476259 1_455
Re2 S2 2.397404 1_555
Re2 S8 2.409827 1_545
Re2 S7 2.427110 1_555
Re2 S12 2.441211 1_545
Re2 S17 2.476259 1_545
Re3 S3 2.397404 1_556
Re3 S9 2.409827 1_655
Re3 S6 2.427110 1_555
Re3 S13 2.441211 1_656
Re3 S16 2.476259 1_655
Re4 S5 2.395119 1_555
Re4 S10 2.404494 1_565
Re4 S2 2.421282 1_565
Re4 S12 2.440770 1_555
Re4 S20 2.487577 1_555
Re5 S4 2.395119 1_555
Re5 S11 2.404494 1_455
Re5 S3 2.421282 1_455
Re5 S13 2.440770 1_555
Re5 S21 2.487577 1_555
Re6 S7 2.395119 1_555
Re6 S8 2.404494 1_545
Re6 S0 2.421282 1_545
Re6 S14 2.440770 1_555
Re6 S22 2.487577 1_555
Re7 S6 2.395119 1_555
Re7 S9 2.404494 1_655
Re7 S1 2.421282 1_655
Re7 S15 2.440770 1_555
Re7 S23 2.487577 1_555
Re8 S2 2.389047 1_555
Re8 S10 2.417756 1_555
Re8 S7 2.424713 1_555
Re8 S14 2.446227 1_555
Re8 S21 2.492623 1_555
Re9 S3 2.389047 1_555
Re9 S11 2.417756 1_555
Re9 S6 2.424713 1_554
Re9 S15 2.446227 1_554
Re9 S20 2.492623 1_555
Re10 S0 2.389047 1_555
Re10 S8 2.417756 1_555
Re10 S5 2.424713 1_555
Re10 S12 2.446227 1_555
Re10 S23 2.492623 1_555
Re11 S1 2.389047 1_555
Re11 S9 2.417756 1_555
Re11 S4 2.424713 1_556
Re11 S13 2.446227 1_556
Re11 S22 2.492623 1_555
S16 S18 2.118964 1_466
S17 S19 2.118964 1_465
