# generated using pymatgen
data_Ba2Zn(BO3)2
_symmetry_space_group_name_H-M   'P 1'
_cell_length_a   8.86034300
_cell_length_b   10.25503100
_cell_length_c   15.29637900
_cell_angle_alpha   90.00000000
_cell_angle_beta   90.00000000
_cell_angle_gamma   90.00000000
_symmetry_Int_Tables_number   1
_chemical_formula_structural   Ba2Zn(BO3)2
_chemical_formula_sum   'Ba16 Zn8 B16 O48'
_cell_volume   1389.87629442
_cell_formula_units_Z   8
loop_
 _symmetry_equiv_pos_site_id
 _symmetry_equiv_pos_as_xyz
  1  'x, y, z'
loop_
 _atom_site_type_symbol
 _atom_site_label
 _atom_site_symmetry_multiplicity
 _atom_site_fract_x
 _atom_site_fract_y
 _atom_site_fract_z
 _atom_site_occupancy
  Ba  Ba0  1  0.13597500  0.62599600  0.38650300  1
  Ba  Ba1  1  0.13597500  0.12599600  0.11349700  1
  Ba  Ba2  1  0.20816400  0.67758200  0.11401500  1
  Ba  Ba3  1  0.79183600  0.17758200  0.88598500  1
  Ba  Ba4  1  0.69040600  0.41385700  0.09912200  1
  Ba  Ba5  1  0.86402500  0.12599600  0.61349700  1
  Ba  Ba6  1  0.67363100  0.88938100  0.11761400  1
  Ba  Ba7  1  0.79183600  0.67758200  0.61401500  1
  Ba  Ba8  1  0.67363100  0.38938100  0.38238600  1
  Ba  Ba9  1  0.30959400  0.41385700  0.59912200  1
  Ba  Ba10  1  0.32636900  0.38938100  0.88238600  1
  Ba  Ba11  1  0.30959400  0.91385700  0.90087800  1
  Ba  Ba12  1  0.69040600  0.91385700  0.40087800  1
  Ba  Ba13  1  0.86402500  0.62599600  0.88650300  1
  Ba  Ba14  1  0.32636900  0.88938100  0.61761400  1
  Ba  Ba15  1  0.20816400  0.17758200  0.38598500  1
  Zn  Zn0  1  0.50609900  0.64998800  0.28800800  1
  Zn  Zn1  1  0.01243500  0.90316800  0.27422300  1
  Zn  Zn2  1  0.98756500  0.90316800  0.77422300  1
  Zn  Zn3  1  0.01243500  0.40316800  0.22577700  1
  Zn  Zn4  1  0.98756500  0.40316800  0.72577700  1
  Zn  Zn5  1  0.49390100  0.14998800  0.71199200  1
  Zn  Zn6  1  0.49390100  0.64998800  0.78800800  1
  Zn  Zn7  1  0.50609900  0.14998800  0.21199200  1
  B  B0  1  0.65434800  0.91132000  0.76429400  1
  B  B1  1  0.55376300  0.17222700  0.51360700  1
  B  B2  1  0.84063800  0.15682400  0.25059600  1
  B  B3  1  0.98935000  0.92143000  0.98503100  1
  B  B4  1  0.55376300  0.67222700  0.98639300  1
  B  B5  1  0.15936200  0.15682400  0.75059600  1
  B  B6  1  0.15936200  0.65682400  0.74940400  1
  B  B7  1  0.34565200  0.41132000  0.23570600  1
  B  B8  1  0.98935000  0.42143000  0.51496900  1
  B  B9  1  0.01065000  0.92143000  0.48503100  1
  B  B10  1  0.44623700  0.17222700  0.01360700  1
  B  B11  1  0.01065000  0.42143000  0.01496900  1
  B  B12  1  0.44623700  0.67222700  0.48639300  1
  B  B13  1  0.84063800  0.65682400  0.24940400  1
  B  B14  1  0.34565200  0.91132000  0.26429400  1
  B  B15  1  0.65434800  0.41132000  0.73570600  1
  O  O0  1  0.65742400  0.77613200  0.76570100  1
  O  O1  1  0.34257600  0.77613200  0.26570100  1
  O  O2  1  0.47928500  0.98069200  0.27436100  1
  O  O3  1  0.99891600  0.36614400  0.09902100  1
  O  O4  1  0.29286100  0.22517900  0.73571400  1
  O  O5  1  0.52965900  0.59452500  0.91162300  1
  O  O6  1  0.78839400  0.47986300  0.74758900  1
  O  O7  1  0.52071500  0.98069200  0.77436100  1
  O  O8  1  0.69108800  0.15836800  0.46971500  1
  O  O9  1  0.10529400  0.89074000  0.04236000  1
  O  O10  1  0.47928500  0.48069200  0.22563900  1
  O  O11  1  0.12477100  0.00607200  0.50845000  1
  O  O12  1  0.47034100  0.59452500  0.41162300  1
  O  O13  1  0.52965900  0.09452500  0.58837700  1
  O  O14  1  0.30891200  0.15836800  0.96971500  1
  O  O15  1  0.02816800  0.22497600  0.77067300  1
  O  O16  1  0.52071500  0.48069200  0.72563900  1
  O  O17  1  0.44777100  0.26033000  0.48347600  1
  O  O18  1  0.44777100  0.76033000  0.01652400  1
  O  O19  1  0.30891200  0.65836800  0.53028500  1
  O  O20  1  0.00108400  0.36614400  0.59902100  1
  O  O21  1  0.47034100  0.09452500  0.08837700  1
  O  O22  1  0.21160600  0.97986300  0.25241100  1
  O  O23  1  0.89470600  0.39074000  0.95764000  1
  O  O24  1  0.12477100  0.50607200  0.99155000  1
  O  O25  1  0.02816800  0.72497600  0.72932700  1
  O  O26  1  0.34257600  0.27613200  0.23429900  1
  O  O27  1  0.78839400  0.97986300  0.75241100  1
  O  O28  1  0.87522900  0.00607200  0.00845000  1
  O  O29  1  0.00108400  0.86614400  0.90097900  1
  O  O30  1  0.87522900  0.50607200  0.49155000  1
  O  O31  1  0.70713900  0.72517900  0.26428600  1
  O  O32  1  0.69108800  0.65836800  0.03028500  1
  O  O33  1  0.55222900  0.26033000  0.98347600  1
  O  O34  1  0.99891600  0.86614400  0.40097900  1
  O  O35  1  0.89470600  0.89074000  0.54236000  1
  O  O36  1  0.21160600  0.47986300  0.24758900  1
  O  O37  1  0.70713900  0.22517900  0.23571400  1
  O  O38  1  0.84351800  0.02170700  0.24460900  1
  O  O39  1  0.15648200  0.52170700  0.75539100  1
  O  O40  1  0.84351800  0.52170700  0.25539100  1
  O  O41  1  0.29286100  0.72517900  0.76428600  1
  O  O42  1  0.15648200  0.02170700  0.74460900  1
  O  O43  1  0.97183200  0.22497600  0.27067300  1
  O  O44  1  0.10529400  0.39074000  0.45764000  1
  O  O45  1  0.55222900  0.76033000  0.51652400  1
  O  O46  1  0.97183200  0.72497600  0.22932700  1
  O  O47  1  0.65742400  0.27613200  0.73429900  1
loop_
_geom_bond_atom_site_label_1
_geom_bond_atom_site_label_2
_geom_bond_distance
_geom_bond_site_symmetry_2
Ba0 O44 2.660522 1_555
Ba0 O36 2.685139 1_555
Ba0 O19 2.700964 1_555
Ba0 O34 2.754776 1_455
Ba0 O46 2.987604 1_455
Ba0 O12 3.004794 1_555
Ba0 O1 3.022572 1_555
Ba0 O30 3.071137 1_455
Ba1 O9 2.660522 1_545
Ba1 O22 2.685139 1_545
Ba1 O14 2.700964 1_554
Ba1 O3 2.754776 1_455
Ba1 O43 2.987604 1_455
Ba1 O21 3.004794 1_555
Ba1 O26 3.022572 1_555
Ba1 O28 3.071137 1_455
Ba2 O9 2.609686 1_555
Ba2 O24 2.673691 1_554
Ba2 O18 2.729666 1_555
Ba2 O46 2.780679 1_455
Ba2 O1 2.797008 1_555
Ba2 O36 2.878682 1_555
Ba3 O23 2.609686 1_555
Ba3 O28 2.673691 1_556
Ba3 O33 2.729666 1_555
Ba3 O15 2.780679 1_655
Ba3 O47 2.797008 1_555
Ba3 O27 2.878682 1_545
Ba4 O33 2.665886 1_554
Ba4 O32 2.719586 1_555
Ba4 O3 2.776952 1_555
Ba4 O10 2.777432 1_555
Ba4 O23 2.831344 1_554
Ba4 O37 2.851535 1_555
Ba4 O40 2.962676 1_555
Ba5 O35 2.660522 1_545
Ba5 O27 2.685139 1_545
Ba5 O8 2.700964 1_555
Ba5 O20 2.754776 1_655
Ba5 O15 2.987604 1_655
Ba5 O13 3.004794 1_555
Ba5 O47 3.022572 1_555
Ba5 O11 3.071137 1_655
Ba6 O28 2.722298 1_565
Ba6 O32 2.724098 1_555
Ba6 O21 2.805387 1_565
Ba6 O38 2.807280 1_565
Ba6 O31 2.820846 1_555
Ba6 O18 2.854350 1_555
Ba6 O2 3.096903 1_555
Ba7 O35 2.609686 1_555
Ba7 O30 2.673691 1_555
Ba7 O45 2.729666 1_555
Ba7 O25 2.780679 1_655
Ba7 O0 2.797008 1_555
Ba7 O6 2.878682 1_555
Ba8 O30 2.722298 1_555
Ba8 O8 2.724098 1_555
Ba8 O12 2.805387 1_555
Ba8 O40 2.807280 1_555
Ba8 O37 2.820846 1_555
Ba8 O17 2.854350 1_555
Ba8 O10 3.096903 1_555
Ba9 O17 2.665886 1_555
Ba9 O19 2.719586 1_555
Ba9 O20 2.776952 1_555
Ba9 O16 2.777432 1_555
Ba9 O44 2.831344 1_555
Ba9 O4 2.851535 1_555
Ba9 O39 2.962676 1_555
Ba10 O24 2.722298 1_555
Ba10 O14 2.724098 1_555
Ba10 O5 2.805387 1_555
Ba10 O39 2.807280 1_555
Ba10 O4 2.820846 1_555
Ba10 O33 2.854350 1_555
Ba10 O16 3.096903 1_555
Ba11 O18 2.665886 1_556
Ba11 O14 2.719586 1_565
Ba11 O29 2.776952 1_555
Ba11 O7 2.777432 1_555
Ba11 O9 2.831344 1_556
Ba11 O41 2.851535 1_555
Ba11 O42 2.962676 1_565
Ba12 O45 2.665886 1_555
Ba12 O8 2.719586 1_565
Ba12 O34 2.776952 1_555
Ba12 O2 2.777432 1_555
Ba12 O35 2.831344 1_555
Ba12 O31 2.851535 1_555
Ba12 O38 2.962676 1_565
Ba13 O23 2.660522 1_555
Ba13 O6 2.685139 1_555
Ba13 O32 2.700964 1_556
Ba13 O29 2.754776 1_655
Ba13 O25 2.987604 1_655
Ba13 O5 3.004794 1_555
Ba13 O0 3.022572 1_555
Ba13 O24 3.071137 1_655
Ba14 O11 2.722298 1_565
Ba14 O19 2.724098 1_555
Ba14 O13 2.805387 1_565
Ba14 O42 2.807280 1_565
Ba14 O41 2.820846 1_555
Ba14 O45 2.854350 1_555
Ba14 O7 3.096903 1_555
Ba15 O44 2.609686 1_555
Ba15 O11 2.673691 1_555
Ba15 O17 2.729666 1_555
Ba15 O43 2.780679 1_455
Ba15 O26 2.797008 1_555
Ba15 O22 2.878682 1_545
B0 O0 1.386792 1_555
B0 O7 1.389876 1_555
B0 O27 1.392027 1_555
B1 O17 1.382278 1_555
B1 O8 1.396938 1_555
B1 O13 1.410189 1_555
B2 O38 1.388887 1_555
B2 O43 1.390685 1_555
B2 O37 1.393673 1_555
B3 O28 1.379923 1_566
B3 O9 1.386869 1_656
B3 O29 1.408991 1_655
B4 O18 1.382278 1_556
B4 O32 1.396938 1_556
B4 O5 1.410189 1_555
B5 O42 1.388887 1_555
B5 O15 1.390685 1_555
B5 O4 1.393673 1_555
B6 O39 1.388887 1_555
B6 O25 1.390685 1_555
B6 O41 1.393673 1_555
B7 O26 1.386792 1_555
B7 O10 1.389876 1_555
B7 O36 1.392027 1_555
B8 O30 1.379923 1_555
B8 O44 1.386869 1_655
B8 O20 1.408991 1_655
B9 O11 1.379923 1_565
B9 O35 1.386869 1_455
B9 O34 1.408991 1_455
B10 O33 1.382278 1_554
B10 O14 1.396938 1_554
B10 O21 1.410189 1_555
B11 O24 1.379923 1_554
B11 O23 1.386869 1_454
B11 O3 1.408991 1_455
B12 O45 1.382278 1_555
B12 O19 1.396938 1_555
B12 O12 1.410189 1_555
B13 O40 1.388887 1_555
B13 O46 1.390685 1_555
B13 O31 1.393673 1_555
B14 O1 1.386792 1_555
B14 O2 1.389876 1_555
B14 O22 1.392027 1_555
B15 O47 1.386792 1_555
B15 O16 1.389876 1_555
B15 O6 1.392027 1_555
O0 Zn6 1.972075 1_555
O1 Zn0 1.972075 1_555
O2 Zn7 1.995186 1_565
O3 Zn3 1.979361 1_655
O4 Zn5 1.974642 1_555
O5 Zn6 1.999811 1_555
O6 Zn4 1.960654 1_555
O7 Zn5 1.995186 1_565
O10 Zn0 1.995186 1_555
O12 Zn0 1.999811 1_555
O13 Zn5 1.999811 1_555
O15 Zn4 1.985020 1_455
O16 Zn6 1.995186 1_555
O20 Zn4 1.979361 1_455
O21 Zn7 1.999811 1_555
O22 Zn1 1.960654 1_555
O25 Zn2 1.985020 1_455
O26 Zn7 1.972075 1_555
O27 Zn2 1.960654 1_555
O29 Zn2 1.979361 1_455
O31 Zn0 1.974642 1_555
O34 Zn1 1.979361 1_655
O36 Zn3 1.960654 1_555
O37 Zn7 1.974642 1_555
O38 Zn1 1.980639 1_645
O39 Zn4 1.980639 1_455
O40 Zn3 1.980639 1_655
O41 Zn6 1.974642 1_555
O42 Zn2 1.980639 1_445
O43 Zn3 1.985020 1_655
O46 Zn1 1.985020 1_655
O47 Zn5 1.972075 1_555
