# generated using pymatgen
data_YbClF
_symmetry_space_group_name_H-M   'P 1'
_cell_length_a   3.81099100
_cell_length_b   3.81099100
_cell_length_c   6.84915700
_cell_angle_alpha   90.00000000
_cell_angle_beta   90.00000000
_cell_angle_gamma   90.00000000
_symmetry_Int_Tables_number   1
_chemical_formula_structural   YbClF
_chemical_formula_sum   'Yb2 Cl2 F2'
_cell_volume   99.47477552
_cell_formula_units_Z   2
loop_
 _symmetry_equiv_pos_site_id
 _symmetry_equiv_pos_as_xyz
  1  'x, y, z'
loop_
 _atom_site_type_symbol
 _atom_site_label
 _atom_site_symmetry_multiplicity
 _atom_site_fract_x
 _atom_site_fract_y
 _atom_site_fract_z
 _atom_site_occupancy
  Yb  Yb0  1  0.00000000  0.50000000  0.81060600  1
  Yb  Yb1  1  0.50000000  0.00000000  0.18939400  1
  Cl  Cl0  1  0.00000000  0.50000000  0.35257500  1
  Cl  Cl1  1  0.50000000  0.00000000  0.64742500  1
  F  F0  1  0.50000000  0.50000000  0.00000000  1
  F  F1  1  0.00000000  0.00000000  0.00000000  1
loop_
_geom_bond_atom_site_label_1
_geom_bond_atom_site_label_2
_geom_bond_distance
_geom_bond_site_symmetry_2
Cl0 Yb1 2.917357 1_465
Cl0 Yb1 2.917357 1_565
Cl0 Yb1 2.917357 1_555
Cl0 Yb1 2.917357 1_455
Cl0 Yb0 3.137126 1_555
Cl1 Yb0 2.917357 1_655
Cl1 Yb0 2.917357 1_645
Cl1 Yb0 2.917357 1_545
Cl1 Yb0 2.917357 1_555
Cl1 Yb1 3.137126 1_555
F0 Yb1 2.305128 1_555
F0 Yb1 2.305128 1_565
F0 Yb0 2.305128 1_654
F0 Yb0 2.305128 1_554
F1 Yb1 2.305128 1_455
F1 Yb0 2.305128 1_544
F1 Yb1 2.305128 1_555
F1 Yb0 2.305128 1_554
