# generated using pymatgen
data_Rb5B19O31
_symmetry_space_group_name_H-M   'P 1'
_cell_length_a   10.78760209
_cell_length_b   10.78760209
_cell_length_c   13.30456907
_cell_angle_alpha   85.26190030
_cell_angle_beta   85.26190030
_cell_angle_gamma   64.55753531
_symmetry_Int_Tables_number   1
_chemical_formula_structural   Rb5B19O31
_chemical_formula_sum   'Rb10 B38 O62'
_cell_volume   1391.43833693
_cell_formula_units_Z   2
loop_
 _symmetry_equiv_pos_site_id
 _symmetry_equiv_pos_as_xyz
  1  'x, y, z'
loop_
 _atom_site_type_symbol
 _atom_site_label
 _atom_site_symmetry_multiplicity
 _atom_site_fract_x
 _atom_site_fract_y
 _atom_site_fract_z
 _atom_site_occupancy
  Rb  Rb0  1  0.58978910  0.06064249  0.66969934  1
  Rb  Rb1  1  0.41021090  0.93935751  0.33030066  1
  Rb  Rb2  1  0.27403870  0.39571869  0.68624395  1
  Rb  Rb3  1  0.06064249  0.58978910  0.16969934  1
  Rb  Rb4  1  -0.00000000  0.00000000  0.00000000  1
  Rb  Rb5  1  0.39571869  0.27403870  0.18624395  1
  Rb  Rb6  1  -0.00000000  0.00000000  0.50000000  1
  Rb  Rb7  1  0.72596130  0.60428131  0.31375605  1
  Rb  Rb8  1  0.60428131  0.72596130  0.81375605  1
  Rb  Rb9  1  0.93935751  0.41021090  0.83030066  1
  B  B0  1  0.72354356  0.75987458  0.53039566  1
  B  B1  1  0.04345189  0.29210016  0.53369041  1
  B  B2  1  0.43939716  0.52844150  0.88102555  1
  B  B3  1  0.38793495  0.61206505  0.25000000  1
  B  B4  1  0.28614884  0.68030368  0.00317143  1
  B  B5  1  0.61206505  0.38793495  0.75000000  1
  B  B6  1  0.90569899  0.96082680  0.24315293  1
  B  B7  1  0.47829231  0.78595384  0.57335797  1
  B  B8  1  0.03917320  0.09430101  0.25684707  1
  B  B9  1  0.89515297  0.75756057  0.64736689  1
  B  B10  1  0.02656607  0.67154629  0.80278127  1
  B  B11  1  0.56060284  0.47155850  0.11897445  1
  B  B12  1  0.10484703  0.24243943  0.35263311  1
  B  B13  1  0.70789984  0.95654811  0.96630959  1
  B  B14  1  0.75987458  0.72354356  0.03039566  1
  B  B15  1  0.97343393  0.32845371  0.19721873  1
  B  B16  1  0.09430101  0.03917320  0.75684707  1
  B  B17  1  0.75756057  0.89515297  0.14736689  1
  B  B18  1  0.27645644  0.24012542  0.46960434  1
  B  B19  1  0.67997300  0.17579115  0.86788434  1
  B  B20  1  0.96082680  0.90569899  0.74315293  1
  B  B21  1  0.68030368  0.28614884  0.50317143  1
  B  B22  1  0.31969632  0.71385116  0.49682857  1
  B  B23  1  0.82420885  0.32002700  0.63211566  1
  B  B24  1  0.95654811  0.70789984  0.46630959  1
  B  B25  1  0.21404616  0.52170769  0.92664203  1
  B  B26  1  0.47155850  0.56060284  0.61897445  1
  B  B27  1  0.71385116  0.31969632  0.99682857  1
  B  B28  1  0.67154629  0.02656607  0.30278127  1
  B  B29  1  0.52170769  0.21404616  0.42664203  1
  B  B30  1  0.24243943  0.10484703  0.85263311  1
  B  B31  1  0.32845371  0.97343393  0.69721873  1
  B  B32  1  0.52844150  0.43939716  0.38102555  1
  B  B33  1  0.24012542  0.27645644  0.96960434  1
  B  B34  1  0.78595384  0.47829231  0.07335797  1
  B  B35  1  0.29210016  0.04345189  0.03369041  1
  B  B36  1  0.17579115  0.67997300  0.36788434  1
  B  B37  1  0.32002700  0.82420885  0.13211566  1
  O  O0  1  0.31756329  0.95472406  0.11808532  1
  O  O1  1  0.99393613  0.71419757  0.55923107  1
  O  O2  1  0.51576021  0.65709268  0.63502836  1
  O  O3  1  0.51732010  0.43490153  0.66779939  1
  O  O4  1  0.88385004  0.89470510  0.67238810  1
  O  O5  1  0.65853023  0.94784392  0.23225600  1
  O  O6  1  0.17629090  0.27090712  0.54998650  1
  O  O7  1  0.79806285  0.03121549  0.31061994  1
  O  O8  1  0.71419757  0.99393613  0.05923107  1
  O  O9  1  0.48267990  0.56509847  0.33220061  1
  O  O10  1  0.05215608  0.34146977  0.26774400  1
  O  O11  1  0.18982278  0.63487266  0.99112711  1
  O  O12  1  0.96878451  0.20193715  0.18938006  1
  O  O13  1  0.36512734  0.81017722  0.50887289  1
  O  O14  1  0.95472406  0.31756329  0.61808532  1
  O  O15  1  0.74670273  0.21484443  0.93346953  1
  O  O16  1  0.25329727  0.78515557  0.06653047  1
  O  O17  1  0.78515557  0.25329727  0.56653047  1
  O  O18  1  0.11614996  0.10529490  0.32761190  1
  O  O19  1  0.90003061  0.44127396  0.13957704  1
  O  O20  1  0.27090712  0.17629090  0.04998650  1
  O  O21  1  0.03121549  0.79806285  0.81061994  1
  O  O22  1  0.55872604  0.09996939  0.36042296  1
  O  O23  1  0.81017722  0.36512734  0.00887289  1
  O  O24  1  0.22817921  0.24126485  0.87567366  1
  O  O25  1  0.21484443  0.74670273  0.43346953  1
  O  O26  1  0.00606387  0.28580243  0.44076893  1
  O  O27  1  0.24126485  0.22817921  0.37567366  1
  O  O28  1  0.68243671  0.04527594  0.88191468  1
  O  O29  1  0.02721950  0.97278050  0.25000000  1
  O  O30  1  0.77726984  0.59783036  0.00610593  1
  O  O31  1  0.62049927  0.25130612  0.78546443  1
  O  O32  1  0.20193715  0.96878451  0.68938006  1
  O  O33  1  0.75873515  0.77182079  0.62432634  1
  O  O34  1  0.56509847  0.48267990  0.83220061  1
  O  O35  1  0.25130612  0.62049927  0.28546443  1
  O  O36  1  0.72909288  0.82370910  0.95001350  1
  O  O37  1  0.74869388  0.37950073  0.71453557  1
  O  O38  1  0.36751768  0.58955454  0.55187411  1
  O  O39  1  0.43490153  0.51732010  0.16779939  1
  O  O40  1  0.34290732  0.48423979  0.86497164  1
  O  O41  1  0.22273016  0.40216964  0.99389407  1
  O  O42  1  0.77182079  0.75873515  0.12432634  1
  O  O43  1  0.59783036  0.77726984  0.50610593  1
  O  O44  1  0.04527594  0.68243671  0.38191468  1
  O  O45  1  0.09996939  0.55872604  0.86042296  1
  O  O46  1  0.65709268  0.51576021  0.13502836  1
  O  O47  1  0.94784392  0.65853023  0.73225600  1
  O  O48  1  0.44127396  0.90003061  0.63957704  1
  O  O49  1  0.97278050  0.02721950  0.75000000  1
  O  O50  1  0.10529490  0.11614996  0.82761190  1
  O  O51  1  0.28580243  0.00606387  0.94076893  1
  O  O52  1  0.89470510  0.88385004  0.17238810  1
  O  O53  1  0.63248232  0.41044546  0.44812589  1
  O  O54  1  0.34146977  0.05215608  0.76774400  1
  O  O55  1  0.48423979  0.34290732  0.36497164  1
  O  O56  1  0.37950073  0.74869388  0.21453557  1
  O  O57  1  0.40216964  0.22273016  0.49389407  1
  O  O58  1  0.63487266  0.18982278  0.49112711  1
  O  O59  1  0.82370910  0.72909288  0.45001350  1
  O  O60  1  0.58955454  0.36751768  0.05187411  1
  O  O61  1  0.41044546  0.63248232  0.94812589  1
loop_
_geom_bond_atom_site_label_1
_geom_bond_atom_site_label_2
_geom_bond_distance
_geom_bond_site_symmetry_2
B0 O43 1.350001 1_555
B0 O33 1.367302 1_555
B0 O59 1.407493 1_555
B1 O26 1.347394 1_555
B1 O14 1.378360 1_455
B1 O6 1.383637 1_555
B2 O40 1.355158 1_555
B2 O34 1.355266 1_555
B2 O61 1.404453 1_555
B3 O9 1.464778 1_555
B3 O39 1.464778 1_555
B3 O35 1.476572 1_555
B3 O56 1.476572 1_555
B4 O11 1.350446 1_554
B4 O16 1.370883 1_555
B4 O61 1.380668 1_554
B5 O34 1.464778 1_555
B5 O3 1.464778 1_555
B5 O31 1.476572 1_555
B5 O37 1.476572 1_555
B6 O52 1.349910 1_555
B6 O29 1.382150 1_655
B6 O7 1.383257 1_565
B7 O48 1.465885 1_555
B7 O2 1.467165 1_555
B7 O13 1.468521 1_555
B7 O43 1.480437 1_555
B8 O18 1.349910 1_555
B8 O29 1.382150 1_545
B8 O12 1.383257 1_455
B9 O47 1.457710 1_555
B9 O33 1.468171 1_555
B9 O1 1.478273 1_555
B9 O4 1.494709 1_555
B10 O45 1.347024 1_555
B10 O47 1.370101 1_455
B10 O21 1.399748 1_555
B11 O46 1.355158 1_555
B11 O39 1.355266 1_555
B11 O60 1.404453 1_555
B12 O10 1.457710 1_555
B12 O27 1.468171 1_555
B12 O26 1.478273 1_555
B12 O18 1.494709 1_555
B13 O8 1.347394 1_556
B13 O28 1.378360 1_565
B13 O36 1.383637 1_555
B14 O30 1.350001 1_555
B14 O42 1.367302 1_555
B14 O36 1.407493 1_554
B15 O19 1.347024 1_555
B15 O10 1.370101 1_655
B15 O12 1.399748 1_555
B16 O50 1.349910 1_555
B16 O49 1.382150 1_455
B16 O32 1.383257 1_545
B17 O5 1.457710 1_555
B17 O42 1.468171 1_555
B17 O8 1.478273 1_555
B17 O52 1.494709 1_555
B18 O57 1.350001 1_555
B18 O27 1.367302 1_555
B18 O6 1.407493 1_555
B19 O31 1.340625 1_555
B19 O15 1.371913 1_555
B19 O28 1.393956 1_555
B20 O4 1.349910 1_555
B20 O49 1.382150 1_565
B20 O21 1.383257 1_655
B21 O58 1.350446 1_555
B21 O17 1.370883 1_555
B21 O53 1.380668 1_555
B22 O13 1.350446 1_555
B22 O25 1.370883 1_555
B22 O38 1.380668 1_555
B23 O37 1.340625 1_555
B23 O17 1.371913 1_555
B23 O14 1.393956 1_555
B24 O1 1.347394 1_555
B24 O44 1.378360 1_655
B24 O59 1.383637 1_555
B25 O45 1.465885 1_555
B25 O40 1.467165 1_555
B25 O11 1.468521 1_555
B25 O41 1.480437 1_555
B26 O2 1.355158 1_555
B26 O3 1.355266 1_555
B26 O38 1.404453 1_555
B27 O23 1.350446 1_556
B27 O15 1.370883 1_555
B27 O60 1.380668 1_556
B28 O22 1.347024 1_555
B28 O5 1.370101 1_545
B28 O7 1.399748 1_555
B29 O22 1.465885 1_555
B29 O55 1.467165 1_555
B29 O58 1.468521 1_555
B29 O57 1.480437 1_555
B30 O54 1.457710 1_555
B30 O24 1.468171 1_555
B30 O51 1.478273 1_555
B30 O50 1.494709 1_555
B31 O48 1.347024 1_555
B31 O54 1.370101 1_565
B31 O32 1.399748 1_555
B32 O55 1.355158 1_555
B32 O9 1.355266 1_555
B32 O53 1.404453 1_555
B33 O41 1.350001 1_555
B33 O24 1.367302 1_555
B33 O20 1.407493 1_556
B34 O19 1.465885 1_555
B34 O46 1.467165 1_555
B34 O23 1.468521 1_555
B34 O30 1.480437 1_555
B35 O51 1.347394 1_554
B35 O0 1.378360 1_545
B35 O20 1.383637 1_555
B36 O35 1.340625 1_555
B36 O25 1.371913 1_555
B36 O44 1.393956 1_555
B37 O56 1.340625 1_555
B37 O16 1.371913 1_555
B37 O0 1.393956 1_555
O0 Rb1 3.040503 1_555
O2 Rb8 2.897370 1_555
O3 Rb2 2.820653 1_555
O4 Rb0 2.897883 1_565
O4 Rb6 2.904869 1_665
O5 Rb1 2.915386 1_555
O6 Rb2 2.854828 1_555
O9 Rb7 2.820653 1_555
O10 Rb3 2.915386 1_555
O11 Rb3 2.769031 1_556
O13 Rb1 2.769031 1_555
O14 Rb9 3.040503 1_555
O15 Rb4 2.870676 1_656
O16 Rb4 2.870676 1_565
O17 Rb6 2.870676 1_655
O18 Rb1 2.897883 1_545
O18 Rb6 2.904869 1_555
O19 Rb3 2.887075 1_655
O19 Rb7 3.017565 1_555
O20 Rb5 2.854828 1_555
O22 Rb1 2.887075 1_545
O22 Rb5 3.017565 1_555
O23 Rb9 2.769031 1_554
O24 Rb9 2.939994 1_455
O24 Rb2 3.030060 1_555
O25 Rb6 2.870676 1_565
O27 Rb1 2.939994 1_545
O27 Rb5 3.030060 1_555
O28 Rb0 3.040503 1_555
O30 Rb9 3.112957 1_554
O30 Rb8 3.151266 1_554
O31 Rb0 2.811676 1_555
O33 Rb0 2.939994 1_565
O33 Rb8 3.030060 1_555
O34 Rb8 2.820653 1_555
O35 Rb3 2.811676 1_555
O36 Rb8 2.854828 1_555
O37 Rb9 2.811676 1_555
O38 Rb2 3.079226 1_555
O39 Rb5 2.820653 1_555
O40 Rb2 2.897370 1_555
O41 Rb3 3.112957 1_556
O41 Rb5 3.151266 1_556
O42 Rb3 2.939994 1_655
O42 Rb7 3.030060 1_555
O43 Rb1 3.112957 1_555
O43 Rb7 3.151266 1_555
O44 Rb3 3.040503 1_555
O45 Rb9 2.887075 1_455
O45 Rb2 3.017565 1_555
O46 Rb7 2.897370 1_555
O47 Rb9 2.915386 1_555
O48 Rb0 2.887075 1_565
O48 Rb8 3.017565 1_555
O50 Rb9 2.897883 1_455
O50 Rb4 2.904869 1_556
O52 Rb3 2.897883 1_655
O52 Rb4 2.904869 1_665
O53 Rb7 3.079226 1_555
O54 Rb0 2.915386 1_555
O55 Rb5 2.897370 1_555
O56 Rb1 2.811676 1_555
O57 Rb0 3.112957 1_555
O57 Rb2 3.151266 1_555
O58 Rb0 2.769031 1_555
O59 Rb7 2.854828 1_555
O60 Rb5 3.079226 1_555
O61 Rb8 3.079226 1_555
