# generated using pymatgen
data_SbH18C3(NCl2)3
_symmetry_space_group_name_H-M   'P 1'
_cell_length_a   8.15506300
_cell_length_b   13.09243300
_cell_length_c   18.99985544
_cell_angle_alpha   53.63614247
_cell_angle_beta   90.00000000
_cell_angle_gamma   90.00000000
_symmetry_Int_Tables_number   1
_chemical_formula_structural   SbH18C3(NCl2)3
_chemical_formula_sum   'Sb4 H72 C12 N12 Cl24'
_cell_volume   1633.57245462
_cell_formula_units_Z   4
loop_
 _symmetry_equiv_pos_site_id
 _symmetry_equiv_pos_as_xyz
  1  'x, y, z'
loop_
 _atom_site_type_symbol
 _atom_site_label
 _atom_site_symmetry_multiplicity
 _atom_site_fract_x
 _atom_site_fract_y
 _atom_site_fract_z
 _atom_site_occupancy
  Sb  Sb0  1  0.83445500  0.12539300  0.27756700  1
  Sb  Sb1  1  0.16554500  0.87460700  0.72243300  1
  Sb  Sb2  1  0.66554500  0.12539300  0.77756700  1
  Sb  Sb3  1  0.33445500  0.87460700  0.22243300  1
  H  H0  1  0.31017100  0.29455600  0.64573000  1
  H  H1  1  0.63507200  0.68632300  0.63634500  1
  H  H2  1  0.06061000  0.56306600  0.82865900  1
  H  H3  1  0.52286900  0.34464900  0.06568500  1
  H  H4  1  0.32734400  0.76668100  0.03443200  1
  H  H5  1  0.72248000  0.58703600  0.13105800  1
  H  H6  1  0.18982900  0.29455600  0.14573000  1
  H  H7  1  0.89300200  0.10474000  0.56342100  1
  H  H8  1  0.58081500  0.47044400  0.32893400  1
  H  H9  1  0.85216400  0.72101900  0.45387300  1
  H  H10  1  0.86602800  0.99555800  0.08853300  1
  H  H11  1  0.27752000  0.41296400  0.86894200  1
  H  H12  1  0.17265600  0.76668100  0.53443200  1
  H  H13  1  0.47713100  0.65535100  0.93431500  1
  H  H14  1  0.60663300  0.14194800  0.57536600  1
  H  H15  1  0.07284800  0.53307200  0.75312800  1
  H  H16  1  0.43939000  0.56306600  0.32865900  1
  H  H17  1  0.13566300  0.21125300  0.69572000  1
  H  H18  1  0.22248000  0.41296400  0.36894200  1
  H  H19  1  0.36492800  0.31367700  0.36365500  1
  H  H20  1  0.15673400  0.43996800  0.51156900  1
  H  H21  1  0.43684300  0.86711400  0.51356500  1
  H  H22  1  0.35216400  0.27898100  0.04612700  1
  H  H23  1  0.60699800  0.10474000  0.06342100  1
  H  H24  1  0.64860800  0.09214300  0.98268500  1
  H  H25  1  0.63397200  0.99555800  0.58853300  1
  H  H26  1  0.84473000  0.63641700  0.33877400  1
  H  H27  1  0.36433700  0.21125300  0.19572000  1
  H  H28  1  0.93939000  0.43693400  0.17134100  1
  H  H29  1  0.08081500  0.52955600  0.17106600  1
  H  H30  1  0.89336700  0.14194800  0.07536600  1
  H  H31  1  0.63566300  0.78874700  0.80428000  1
  H  H32  1  0.10699800  0.89526000  0.43657900  1
  H  H33  1  0.68982900  0.70544400  0.35427000  1
  H  H34  1  0.14783600  0.27898100  0.54612700  1
  H  H35  1  0.02286900  0.65535100  0.43431500  1
  H  H36  1  0.57284800  0.46692800  0.74687200  1
  H  H37  1  0.56061000  0.43693400  0.67134100  1
  H  H38  1  0.36602800  0.00444200  0.41146700  1
  H  H39  1  0.56315700  0.13288600  0.48643500  1
  H  H40  1  0.34473000  0.36358300  0.16122600  1
  H  H41  1  0.14860800  0.90785700  0.51731500  1
  H  H42  1  0.91918500  0.47044400  0.82893400  1
  H  H43  1  0.84326600  0.56003200  0.48843100  1
  H  H44  1  0.77752000  0.58703600  0.63105800  1
  H  H45  1  0.64783600  0.72101900  0.95387300  1
  H  H46  1  0.35139200  0.90785700  0.01731500  1
  H  H47  1  0.93684300  0.13288600  0.98643500  1
  H  H48  1  0.39336700  0.85805200  0.42463400  1
  H  H49  1  0.97713100  0.34464900  0.56568500  1
  H  H50  1  0.85139200  0.09214300  0.48268500  1
  H  H51  1  0.86492800  0.68632300  0.13634500  1
  H  H52  1  0.61157100  0.66040600  0.55423100  1
  H  H53  1  0.34326600  0.43996800  0.01156900  1
  H  H54  1  0.82734400  0.23331900  0.46556800  1
  H  H55  1  0.42715200  0.53307200  0.25312800  1
  H  H56  1  0.86433700  0.78874700  0.30428000  1
  H  H57  1  0.65673400  0.56003200  0.98843100  1
  H  H58  1  0.41918500  0.52955600  0.67106600  1
  H  H59  1  0.15527000  0.36358300  0.66122600  1
  H  H60  1  0.38842900  0.33959400  0.44576900  1
  H  H61  1  0.65527000  0.63641700  0.83877400  1
  H  H62  1  0.11157100  0.33959400  0.94576900  1
  H  H63  1  0.81017100  0.70544400  0.85427000  1
  H  H64  1  0.13397200  0.00444200  0.91146700  1
  H  H65  1  0.06315700  0.86711400  0.01356500  1
  H  H66  1  0.92715200  0.46692800  0.24687200  1
  H  H67  1  0.10663300  0.85805200  0.92463400  1
  H  H68  1  0.13507200  0.31367700  0.86365500  1
  H  H69  1  0.88842900  0.66040600  0.05423100  1
  H  H70  1  0.67265600  0.23331900  0.96556800  1
  H  H71  1  0.39300200  0.89526000  0.93657900  1
  C  C0  1  0.61085500  0.65565200  0.93874800  1
  C  C1  1  0.35793900  0.90107600  0.45721900  1
  C  C2  1  0.64934400  0.61771400  0.62161600  1
  C  C3  1  0.14206100  0.90107600  0.95721900  1
  C  C4  1  0.11085500  0.34434800  0.56125200  1
  C  C5  1  0.88914500  0.65565200  0.43874800  1
  C  C6  1  0.64206100  0.09892400  0.54278100  1
  C  C7  1  0.85065600  0.61771400  0.12161600  1
  C  C8  1  0.35065600  0.38228600  0.37838400  1
  C  C9  1  0.85793900  0.09892400  0.04278100  1
  C  C10  1  0.38914500  0.34434800  0.06125200  1
  C  C11  1  0.14934400  0.38228600  0.87838400  1
  N  N0  1  0.81457000  0.13477700  0.51172600  1
  N  N1  1  0.18543000  0.86522300  0.48827400  1
  N  N2  1  0.31457000  0.86522300  0.98827400  1
  N  N3  1  0.81755000  0.70038400  0.35282900  1
  N  N4  1  0.68245000  0.70038400  0.85282900  1
  N  N5  1  0.18245000  0.29961600  0.64717100  1
  N  N6  1  0.31755000  0.29961600  0.14717100  1
  N  N7  1  0.45601600  0.49433500  0.31811600  1
  N  N8  1  0.04398400  0.49433500  0.81811600  1
  N  N9  1  0.68543000  0.13477700  0.01172600  1
  N  N10  1  0.54398400  0.50566500  0.68188400  1
  N  N11  1  0.95601600  0.50566500  0.18188400  1
  Cl  Cl0  1  0.13337800  0.73305200  0.21748000  1
  Cl  Cl1  1  0.06056200  0.95222800  0.28334200  1
  Cl  Cl2  1  0.56770300  0.80516600  0.17335700  1
  Cl  Cl3  1  0.78393000  0.94816100  0.44213700  1
  Cl  Cl4  1  0.83968600  0.43978600  0.36757900  1
  Cl  Cl5  1  0.92459600  0.32829100  0.11188500  1
  Cl  Cl6  1  0.71607000  0.94816100  0.94213700  1
  Cl  Cl7  1  0.28393000  0.05183900  0.05786300  1
  Cl  Cl8  1  0.07540400  0.67170900  0.88811500  1
  Cl  Cl9  1  0.63337800  0.26694800  0.28252000  1
  Cl  Cl10  1  0.16031400  0.56021400  0.63242100  1
  Cl  Cl11  1  0.43229700  0.19483400  0.82664300  1
  Cl  Cl12  1  0.56056200  0.04777200  0.21665800  1
  Cl  Cl13  1  0.93229700  0.80516600  0.67335700  1
  Cl  Cl14  1  0.86662200  0.26694800  0.78252000  1
  Cl  Cl15  1  0.66031400  0.43978600  0.86757900  1
  Cl  Cl16  1  0.93943800  0.04777200  0.71665800  1
  Cl  Cl17  1  0.43943800  0.95222800  0.78334200  1
  Cl  Cl18  1  0.06770300  0.19483400  0.32664300  1
  Cl  Cl19  1  0.36662200  0.73305200  0.71748000  1
  Cl  Cl20  1  0.33968600  0.56021400  0.13242100  1
  Cl  Cl21  1  0.42459600  0.67170900  0.38811500  1
  Cl  Cl22  1  0.57540400  0.32829100  0.61188500  1
  Cl  Cl23  1  0.21607000  0.05183900  0.55786300  1
loop_
_geom_bond_atom_site_label_1
_geom_bond_atom_site_label_2
_geom_bond_distance
_geom_bond_site_symmetry_2
H0 N5 1.045066 1_555
H2 N8 1.040193 1_555
H4 N2 1.050125 1_554
H6 N6 1.045066 1_555
H7 N0 1.034622 1_555
H8 N7 1.048642 1_555
H12 N1 1.050125 1_555
H15 N8 1.046264 1_555
H16 N7 1.040193 1_555
H17 N5 1.034116 1_555
H23 N9 1.034622 1_555
H24 N9 1.035093 1_556
H26 N3 1.042604 1_555
H27 N6 1.034116 1_555
H28 N11 1.040193 1_555
H29 N11 1.048642 1_455
H31 N4 1.034116 1_555
H32 N1 1.034622 1_555
H33 N3 1.045066 1_555
H36 N10 1.046264 1_555
H37 N10 1.040193 1_555
H40 N6 1.042604 1_555
H41 N1 1.035093 1_555
H42 N8 1.048642 1_655
H46 N2 1.035093 1_554
H50 N0 1.035093 1_555
H54 N0 1.050125 1_555
H55 N7 1.046264 1_555
H56 N3 1.034116 1_555
H58 N10 1.048642 1_555
H59 N5 1.042604 1_555
H61 N4 1.042604 1_555
H63 N4 1.045066 1_555
H66 N11 1.046264 1_555
H70 N9 1.050125 1_556
H71 N2 1.034622 1_555
C0 H13 1.093962 1_555
C0 H57 1.094058 1_555
C0 H45 1.094344 1_555
C0 N4 1.488311 1_555
C1 H21 1.092425 1_555
C1 H38 1.093821 1_565
C1 H48 1.094352 1_555
C1 N1 1.489698 1_555
C2 H1 1.093992 1_555
C2 H52 1.094483 1_555
C2 H44 1.095755 1_555
C2 N10 1.486460 1_555
C3 H65 1.092425 1_556
C3 H64 1.093821 1_565
C3 H67 1.094352 1_555
C3 N2 1.489698 1_555
C4 H49 1.093962 1_455
C4 H20 1.094058 1_555
C4 H34 1.094344 1_555
C4 N5 1.488311 1_555
C5 H35 1.093962 1_655
C5 H43 1.094058 1_555
C5 H9 1.094344 1_555
C5 N3 1.488311 1_555
C6 H39 1.092425 1_555
C6 H25 1.093821 1_545
C6 H14 1.094352 1_555
C6 N0 1.489698 1_555
C7 H51 1.093992 1_555
C7 H69 1.094483 1_555
C7 H5 1.095755 1_555
C7 N11 1.486460 1_555
C8 H19 1.093992 1_555
C8 H60 1.094483 1_555
C8 H18 1.095755 1_555
C8 N7 1.486460 1_555
C9 H47 1.092425 1_554
C9 H10 1.093821 1_545
C9 H30 1.094352 1_555
C9 N9 1.489698 1_555
C10 H3 1.093962 1_555
C10 H53 1.094058 1_555
C10 H22 1.094344 1_555
C10 N6 1.488311 1_555
C11 H68 1.093992 1_555
C11 H62 1.094483 1_555
C11 H11 1.095755 1_555
C11 N8 1.486460 1_555
Cl0 Sb3 2.517801 1_555
Cl1 Sb0 2.873509 1_465
Cl1 Sb3 2.958995 1_555
Cl2 Sb3 2.513848 1_555
Cl3 Sb0 2.593700 1_565
Cl5 Sb0 2.755055 1_555
Cl6 Sb2 2.593700 1_565
Cl7 Sb3 2.593700 1_545
Cl8 Sb1 2.755055 1_555
Cl9 Sb0 2.517801 1_555
Cl11 Sb2 2.513848 1_555
Cl12 Sb3 2.873509 1_545
Cl12 Sb0 2.958995 1_555
Cl13 Sb1 2.513848 1_655
Cl14 Sb2 2.517801 1_555
Cl16 Sb1 2.873509 1_645
Cl16 Sb2 2.958995 1_555
Cl17 Sb2 2.873509 1_565
Cl17 Sb1 2.958995 1_555
Cl18 Sb0 2.513848 1_455
Cl19 Sb1 2.517801 1_555
Cl21 Sb3 2.755055 1_555
Cl22 Sb2 2.755055 1_555
Cl23 Sb1 2.593700 1_545
