# generated using pymatgen
data_NiMoP8
_symmetry_space_group_name_H-M   'P 1'
_cell_length_a   6.25150016
_cell_length_b   6.25150016
_cell_length_c   8.77279300
_cell_angle_alpha   90.00000000
_cell_angle_beta   90.00000000
_cell_angle_gamma   120.00000173
_symmetry_Int_Tables_number   1
_chemical_formula_structural   NiMoP8
_chemical_formula_sum   'Ni2 Mo2 P16'
_cell_volume   296.91832358
_cell_formula_units_Z   2
loop_
 _symmetry_equiv_pos_site_id
 _symmetry_equiv_pos_as_xyz
  1  'x, y, z'
loop_
 _atom_site_type_symbol
 _atom_site_label
 _atom_site_symmetry_multiplicity
 _atom_site_fract_x
 _atom_site_fract_y
 _atom_site_fract_z
 _atom_site_occupancy
  Ni  Ni0  1  0.00000000  0.00000000  0.50000000  1
  Ni  Ni1  1  0.00000000  0.00000000  0.00000000  1
  Mo  Mo0  1  0.33333300  0.66666700  0.75000000  1
  Mo  Mo1  1  0.66666700  0.33333300  0.25000000  1
  P  P0  1  0.95514100  0.27531100  0.65332000  1
  P  P1  1  0.72468900  0.67983000  0.65332000  1
  P  P2  1  0.32017000  0.04485900  0.65332000  1
  P  P3  1  0.72468900  0.04485900  0.84668000  1
  P  P4  1  0.33333300  0.66666700  0.03677700  1
  P  P5  1  0.33333300  0.66666700  0.46322300  1
  P  P6  1  0.66666700  0.33333300  0.96322300  1
  P  P7  1  0.66666700  0.33333300  0.53677700  1
  P  P8  1  0.04485900  0.32017000  0.15332000  1
  P  P9  1  0.67983000  0.72468900  0.15332000  1
  P  P10  1  0.27531100  0.95514100  0.15332000  1
  P  P11  1  0.67983000  0.95514100  0.34668000  1
  P  P12  1  0.27531100  0.32017000  0.34668000  1
  P  P13  1  0.04485900  0.72468900  0.34668000  1
  P  P14  1  0.95514100  0.67983000  0.84668000  1
  P  P15  1  0.32017000  0.27531100  0.84668000  1
loop_
_geom_bond_atom_site_label_1
_geom_bond_atom_site_label_2
_geom_bond_distance
_geom_bond_site_symmetry_2
Ni0 P12 2.309255 1_555
Ni0 P1 2.309255 1_445
Ni0 P11 2.309255 1_445
Ni0 P2 2.309255 1_555
Ni0 P13 2.309255 1_545
Ni0 P0 2.309255 1_455
Ni1 P9 2.309255 1_445
Ni1 P15 2.309255 1_554
Ni1 P14 2.309255 1_444
Ni1 P8 2.309255 1_555
Ni1 P3 2.309255 1_454
Ni1 P10 2.309255 1_545
Mo0 P5 2.515835 1_555
Mo0 P4 2.515835 1_556
Mo0 P2 2.551558 1_565
Mo0 P14 2.551558 1_455
Mo0 P0 2.551561 1_455
Mo0 P3 2.551561 1_565
Mo0 P15 2.551564 1_555
Mo0 P1 2.551564 1_555
Mo1 P7 2.515835 1_555
Mo1 P6 2.515835 1_554
Mo1 P8 2.551558 1_655
Mo1 P11 2.551558 1_545
Mo1 P13 2.551561 1_655
Mo1 P10 2.551561 1_545
Mo1 P12 2.551564 1_555
Mo1 P9 2.551564 1_555
P0 P3 2.225531 1_555
P0 P7 2.254608 1_555
P1 P14 2.225531 1_555
P1 P7 2.254613 1_555
P2 P7 2.254611 1_555
P3 P6 2.254608 1_555
P4 P8 2.254611 1_555
P4 P9 2.254613 1_555
P10 P13 2.225531 1_555
P10 P4 2.254608 1_555
P11 P9 2.225531 1_555
P11 P5 2.254611 1_555
P12 P8 2.225531 1_555
P12 P5 2.254613 1_555
P13 P5 2.254608 1_555
P14 P6 2.254611 1_555
P15 P2 2.225531 1_555
P15 P6 2.254613 1_555
