# generated using pymatgen
data_CeCo3
_symmetry_space_group_name_H-M   'P 1'
_cell_length_a   9.02881195
_cell_length_b   9.02881170
_cell_length_c   9.02881137
_cell_angle_alpha   31.06960545
_cell_angle_beta   31.06960953
_cell_angle_gamma   31.06960864
_symmetry_Int_Tables_number   1
_chemical_formula_structural   CeCo3
_chemical_formula_sum   'Ce3 Co9'
_cell_volume   173.92065832
_cell_formula_units_Z   3
loop_
 _symmetry_equiv_pos_site_id
 _symmetry_equiv_pos_as_xyz
  1  'x, y, z'
loop_
 _atom_site_type_symbol
 _atom_site_label
 _atom_site_symmetry_multiplicity
 _atom_site_fract_x
 _atom_site_fract_y
 _atom_site_fract_z
 _atom_site_occupancy
  Ce  Ce0  1  0.86122870  0.86122870  0.86122870  1
  Ce  Ce1  1  0.13877130  0.13877130  0.13877130  1
  Ce  Ce2  1  0.00000000  -0.00000000  0.00000000  1
  Co  Co0  1  0.33116747  0.33116747  0.33116747  1
  Co  Co1  1  0.42206512  0.42206512  0.91716558  1
  Co  Co2  1  0.57793488  0.57793488  0.08283442  1
  Co  Co3  1  0.66883253  0.66883253  0.66883253  1
  Co  Co4  1  0.57793488  0.08283442  0.57793488  1
  Co  Co5  1  0.91716558  0.42206512  0.42206512  1
  Co  Co6  1  0.42206512  0.91716558  0.42206512  1
  Co  Co7  1  0.50000000  0.50000000  0.50000000  1
  Co  Co8  1  0.08283442  0.57793488  0.57793488  1
loop_
_geom_bond_atom_site_label_1
_geom_bond_atom_site_label_2
_geom_bond_distance
_geom_bond_site_symmetry_2
Ce0 Co5 2.858871 1_556
Ce0 Co5 2.858871 1_565
Ce0 Co6 2.858871 1_556
Ce0 Co1 2.858871 1_565
Ce0 Co1 2.858871 1_655
Ce0 Co6 2.858871 1_655
Ce0 Co7 2.883188 1_565
Ce0 Co7 2.883188 1_556
Ce0 Co7 2.883189 1_655
Ce0 Ce1 3.140335 1_665
Ce0 Ce1 3.140335 1_656
Ce0 Ce1 3.140335 1_566
Ce0 Co4 3.280466 1_565
Ce0 Co8 3.280466 1_655
Ce0 Co2 3.280467 1_556
Ce0 Ce2 3.574558 1_666
Ce1 Co8 2.858871 1_554
Ce1 Co8 2.858871 1_545
Ce1 Co4 2.858871 1_554
Ce1 Co2 2.858871 1_545
Ce1 Co2 2.858871 1_455
Ce1 Co4 2.858871 1_455
Ce1 Co7 2.883188 1_545
Ce1 Co7 2.883188 1_554
Ce1 Co7 2.883189 1_455
Ce1 Co6 3.280466 1_545
Ce1 Co5 3.280466 1_455
Ce1 Co1 3.280467 1_554
Ce1 Ce2 3.574558 1_555
Ce2 Co3 2.792773 1_454
Ce2 Co0 2.792773 1_545
Ce2 Co0 2.792773 1_554
Ce2 Co3 2.792773 1_445
Ce2 Co0 2.792773 1_455
Ce2 Co3 2.792773 1_544
Ce2 Co5 3.169897 1_454
Ce2 Co8 3.169897 1_545
Ce2 Co6 3.169897 1_544
Ce2 Co4 3.169897 1_455
Ce2 Co5 3.169897 1_445
Ce2 Co8 3.169897 1_554
Ce2 Co1 3.169897 1_544
Ce2 Co2 3.169897 1_455
Ce2 Co1 3.169898 1_454
Ce2 Co2 3.169898 1_545
Ce2 Co6 3.169898 1_445
Ce2 Co4 3.169898 1_554
Co0 Co1 2.441851 1_554
Co0 Co6 2.441851 1_545
Co0 Co5 2.441852 1_455
Co0 Co4 2.518654 1_555
Co0 Co8 2.518654 1_555
Co0 Co2 2.518654 1_555
Co0 Co3 2.794444 1_545
Co0 Co3 2.794444 1_554
Co0 Co3 2.794444 1_455
Co1 Co6 2.394434 1_555
Co1 Co5 2.394434 1_555
Co1 Co6 2.441825 1_546
Co1 Co5 2.441825 1_456
Co1 Co3 2.518654 1_555
Co1 Co7 2.635257 1_555
Co2 Co4 2.394434 1_555
Co2 Co8 2.394434 1_555
Co2 Co4 2.441825 1_564
Co2 Co8 2.441825 1_654
Co2 Co3 2.441851 1_554
Co2 Co7 2.635257 1_555
Co3 Co4 2.441851 1_565
Co3 Co8 2.441852 1_655
Co3 Co6 2.518654 1_555
Co3 Co5 2.518654 1_555
Co4 Co8 2.394434 1_555
Co4 Co8 2.441825 1_645
Co4 Co7 2.635257 1_555
Co5 Co6 2.394434 1_555
Co5 Co6 2.441825 1_645
Co5 Co7 2.635257 1_555
Co6 Co7 2.635257 1_555
Co7 Co8 2.635257 1_555
