# generated using pymatgen
data_Li4MoP2O9
_symmetry_space_group_name_H-M   'P 1'
_cell_length_a   8.04057845
_cell_length_b   8.04057845
_cell_length_c   7.18524977
_cell_angle_alpha   89.82645926
_cell_angle_beta   89.82645926
_cell_angle_gamma   51.90648797
_symmetry_Int_Tables_number   1
_chemical_formula_structural   Li4MoP2O9
_chemical_formula_sum   'Li8 Mo2 P4 O18'
_cell_volume   365.58757080
_cell_formula_units_Z   2
loop_
 _symmetry_equiv_pos_site_id
 _symmetry_equiv_pos_as_xyz
  1  'x, y, z'
loop_
 _atom_site_type_symbol
 _atom_site_label
 _atom_site_symmetry_multiplicity
 _atom_site_fract_x
 _atom_site_fract_y
 _atom_site_fract_z
 _atom_site_occupancy
  Li  Li0  1  0.89975500  0.89975500  0.24009700  1
  Li  Li1  1  0.36878700  0.36878700  0.69101400  1
  Li  Li2  1  0.00000000  0.50000000  0.50000000  1
  Li  Li3  1  0.50000000  0.00000000  0.50000000  1
  Li  Li4  1  0.63121300  0.63121300  0.30898600  1
  Li  Li5  1  0.10024500  0.10024500  0.75990300  1
  Li  Li6  1  0.76889300  0.23110700  0.00000000  1
  Li  Li7  1  0.23110700  0.76889300  0.00000000  1
  Mo  Mo0  1  0.00000000  0.50000000  0.00000000  1
  Mo  Mo1  1  0.50000000  0.00000000  0.00000000  1
  P  P0  1  0.40287100  0.40287100  0.24340300  1
  P  P1  1  0.87770100  0.87770100  0.69939300  1
  P  P2  1  0.12229900  0.12229900  0.30060700  1
  P  P3  1  0.59712900  0.59712900  0.75659700  1
  O  O0  1  0.49285400  0.49285400  0.75175400  1
  O  O1  1  0.96638600  0.96638600  0.81809100  1
  O  O2  1  0.88264100  0.88264100  0.48942700  1
  O  O3  1  0.55749500  0.19423400  0.12041900  1
  O  O4  1  0.19423400  0.55749500  0.12041900  1
  O  O5  1  0.34668000  0.34668000  0.42428900  1
  O  O6  1  0.63541600  0.00426200  0.75106900  1
  O  O7  1  0.00426200  0.63541600  0.75106900  1
  O  O8  1  0.75958300  0.75958300  0.12978700  1
  O  O9  1  0.24041700  0.24041700  0.87021300  1
  O  O10  1  0.99573800  0.36458400  0.24893100  1
  O  O11  1  0.36458400  0.99573800  0.24893100  1
  O  O12  1  0.65332000  0.65332000  0.57571100  1
  O  O13  1  0.80576600  0.44250500  0.87958100  1
  O  O14  1  0.44250500  0.80576600  0.87958100  1
  O  O15  1  0.11735900  0.11735900  0.51057300  1
  O  O16  1  0.03361400  0.03361400  0.18190900  1
  O  O17  1  0.50714600  0.50714600  0.24824600  1
loop_
_geom_bond_atom_site_label_1
_geom_bond_atom_site_label_2
_geom_bond_distance
_geom_bond_site_symmetry_2
Li0 O2 1.807682 1_555
Li0 O16 1.978785 1_665
Li0 O8 2.178755 1_555
Li0 O3 2.425088 1_565
Li0 O4 2.425088 1_655
Li1 O0 1.847687 1_555
Li1 O5 1.944022 1_555
Li1 O9 2.255457 1_555
Li1 O6 2.370158 1_555
Li1 O7 2.370158 1_555
Li2 O7 2.121183 1_555
Li2 O10 2.121183 1_455
Li2 O12 2.310980 1_455
Li2 O5 2.310980 1_555
Li2 O15 2.603604 1_555
Li2 O2 2.603604 1_455
Li3 O6 2.121183 1_555
Li3 O11 2.121183 1_545
Li3 O12 2.310980 1_545
Li3 O5 2.310980 1_555
Li3 O15 2.603604 1_555
Li3 O2 2.603604 1_545
Li4 O17 1.847687 1_555
Li4 O12 1.944022 1_555
Li4 O8 2.255457 1_555
Li4 O11 2.370158 1_555
Li4 O10 2.370158 1_555
Li5 O15 1.807682 1_555
Li5 O1 1.978785 1_445
Li5 O9 2.178755 1_555
Li5 O14 2.425088 1_545
Li5 O13 2.425088 1_455
Li6 O13 2.082567 1_554
Li6 O3 2.082567 1_555
Li6 O1 2.143435 1_544
Li6 O16 2.143435 1_655
Li7 O14 2.082567 1_554
Li7 O4 2.082567 1_555
Li7 O1 2.143435 1_454
Li7 O16 2.143435 1_565
Mo0 O9 1.996326 1_554
Mo0 O8 1.996326 1_455
Mo0 O4 2.074342 1_555
Mo0 O13 2.074342 1_454
Mo0 O10 2.102328 1_455
Mo0 O7 2.102328 1_554
Mo1 O9 1.996326 1_554
Mo1 O8 1.996326 1_545
Mo1 O3 2.074342 1_555
Mo1 O14 2.074342 1_544
Mo1 O11 2.102328 1_545
Mo1 O6 2.102328 1_554
O0 P3 1.508272 1_555
O1 P1 1.542445 1_555
O2 P1 1.510108 1_555
O3 P0 1.603012 1_555
O4 P0 1.603012 1_555
O5 P0 1.530448 1_555
O6 P1 1.587560 1_545
O7 P1 1.587560 1_455
O10 P2 1.587560 1_655
O11 P2 1.587560 1_565
O12 P3 1.530448 1_555
O13 P3 1.603012 1_555
O14 P3 1.603012 1_555
O15 P2 1.510108 1_555
O16 P2 1.542445 1_555
O17 P0 1.508272 1_555
