# generated using pymatgen
data_AlS5N5Cl4
_symmetry_space_group_name_H-M   'P 1'
_cell_length_a   9.90377000
_cell_length_b   14.33676000
_cell_length_c   21.48499900
_cell_angle_alpha   90.00000000
_cell_angle_beta   90.00000000
_cell_angle_gamma   90.00000000
_symmetry_Int_Tables_number   1
_chemical_formula_structural   AlS5N5Cl4
_chemical_formula_sum   'Al8 S40 N40 Cl32'
_cell_volume   3050.61147049
_cell_formula_units_Z   8
loop_
 _symmetry_equiv_pos_site_id
 _symmetry_equiv_pos_as_xyz
  1  'x, y, z'
loop_
 _atom_site_type_symbol
 _atom_site_label
 _atom_site_symmetry_multiplicity
 _atom_site_fract_x
 _atom_site_fract_y
 _atom_site_fract_z
 _atom_site_occupancy
  Al  Al0  1  0.94445900  0.25000000  0.37048600  1
  Al  Al1  1  0.05554100  0.75000000  0.62951400  1
  Al  Al2  1  0.44445900  0.25000000  0.12951400  1
  Al  Al3  1  0.46633300  0.75000000  0.38075200  1
  Al  Al4  1  0.96633300  0.75000000  0.11924800  1
  Al  Al5  1  0.03366700  0.25000000  0.88075200  1
  Al  Al6  1  0.55554100  0.75000000  0.87048600  1
  Al  Al7  1  0.53366700  0.25000000  0.61924800  1
  S  S0  1  0.41233800  0.39481000  0.36871000  1
  S  S1  1  0.57204700  0.89355600  0.04655800  1
  S  S2  1  0.91233800  0.10519000  0.13129000  1
  S  S3  1  0.51860000  0.10163300  0.82207200  1
  S  S4  1  0.01860000  0.39836700  0.67792800  1
  S  S5  1  0.07204700  0.89355600  0.45344200  1
  S  S6  1  0.41233800  0.10519000  0.36871000  1
  S  S7  1  0.08766200  0.60519000  0.86871000  1
  S  S8  1  0.19921100  0.50979900  0.97944900  1
  S  S9  1  0.19921100  0.99020100  0.97944900  1
  S  S10  1  0.92795300  0.39355600  0.54655800  1
  S  S11  1  0.69921100  0.99020100  0.52055100  1
  S  S12  1  0.57204700  0.60644400  0.04655800  1
  S  S13  1  0.08766200  0.89481000  0.86871000  1
  S  S14  1  0.79489000  0.96929400  0.72806100  1
  S  S15  1  0.30078900  0.49020100  0.47944900  1
  S  S16  1  0.42795300  0.39355600  0.95344200  1
  S  S17  1  0.42795300  0.10644400  0.95344200  1
  S  S18  1  0.70511000  0.03070600  0.22806100  1
  S  S19  1  0.58766200  0.60519000  0.63129000  1
  S  S20  1  0.01860000  0.10163300  0.67792800  1
  S  S21  1  0.51860000  0.39836700  0.82207200  1
  S  S22  1  0.20511000  0.46929400  0.27193900  1
  S  S23  1  0.98140000  0.60163300  0.32207200  1
  S  S24  1  0.91233800  0.39481000  0.13129000  1
  S  S25  1  0.80078900  0.00979900  0.02055100  1
  S  S26  1  0.48140000  0.89836700  0.17792800  1
  S  S27  1  0.07204700  0.60644400  0.45344200  1
  S  S28  1  0.70511000  0.46929400  0.22806100  1
  S  S29  1  0.98140000  0.89836700  0.32207200  1
  S  S30  1  0.92795300  0.10644400  0.54655800  1
  S  S31  1  0.29489000  0.53070600  0.77193900  1
  S  S32  1  0.58766200  0.89481000  0.63129000  1
  S  S33  1  0.79489000  0.53070600  0.72806100  1
  S  S34  1  0.20511000  0.03070600  0.27193900  1
  S  S35  1  0.80078900  0.49020100  0.02055100  1
  S  S36  1  0.29489000  0.96929400  0.77193900  1
  S  S37  1  0.30078900  0.00979900  0.47944900  1
  S  S38  1  0.48140000  0.60163300  0.17792800  1
  S  S39  1  0.69921100  0.50979900  0.52055100  1
  N  N0  1  0.58943900  0.96564900  0.20536200  1
  N  N1  1  0.31374000  0.46717700  0.93610100  1
  N  N2  1  0.60583800  0.57398300  0.56116900  1
  N  N3  1  0.18677000  0.93227200  0.81829700  1
  N  N4  1  0.51458500  0.12704200  0.89368400  1
  N  N5  1  0.31374000  0.03282300  0.93610100  1
  N  N6  1  0.81374000  0.03282300  0.56389900  1
  N  N7  1  0.18677000  0.56772800  0.81829700  1
  N  N8  1  0.01458500  0.12704200  0.60631600  1
  N  N9  1  0.31323000  0.43227200  0.31829700  1
  N  N10  1  0.60583800  0.92601700  0.56116900  1
  N  N11  1  0.41056100  0.03435100  0.79463800  1
  N  N12  1  0.81374000  0.46717700  0.56389900  1
  N  N13  1  0.08943900  0.53435100  0.29463800  1
  N  N14  1  0.89416200  0.42601700  0.06116900  1
  N  N15  1  0.51458500  0.37295800  0.89368400  1
  N  N16  1  0.91056100  0.03435100  0.70536200  1
  N  N17  1  0.10583800  0.57398300  0.93883100  1
  N  N18  1  0.89416200  0.07398300  0.06116900  1
  N  N19  1  0.39416200  0.07398300  0.43883100  1
  N  N20  1  0.48541500  0.87295800  0.10631600  1
  N  N21  1  0.68626000  0.53282300  0.06389900  1
  N  N22  1  0.91056100  0.46564900  0.70536200  1
  N  N23  1  0.98541500  0.62704200  0.39368400  1
  N  N24  1  0.81323000  0.06772800  0.18170300  1
  N  N25  1  0.18626000  0.53282300  0.43610100  1
  N  N26  1  0.98541500  0.87295800  0.39368400  1
  N  N27  1  0.01458500  0.37295800  0.60631600  1
  N  N28  1  0.58943900  0.53435100  0.20536200  1
  N  N29  1  0.18626000  0.96717700  0.43610100  1
  N  N30  1  0.68677000  0.93227200  0.68170300  1
  N  N31  1  0.31323000  0.06772800  0.31829700  1
  N  N32  1  0.68677000  0.56772800  0.68170300  1
  N  N33  1  0.68626000  0.96717700  0.06389900  1
  N  N34  1  0.81323000  0.43227200  0.18170300  1
  N  N35  1  0.41056100  0.46564900  0.79463800  1
  N  N36  1  0.39416200  0.42601700  0.43883100  1
  N  N37  1  0.48541500  0.62704200  0.10631600  1
  N  N38  1  0.08943900  0.96564900  0.29463800  1
  N  N39  1  0.10583800  0.92601700  0.93883100  1
  Cl  Cl0  1  0.41200900  0.12621600  0.63059500  1
  Cl  Cl1  1  0.80597700  0.75000000  0.18795600  1
  Cl  Cl2  1  0.08799100  0.62621600  0.13059500  1
  Cl  Cl3  1  0.37524300  0.75000000  0.47227500  1
  Cl  Cl4  1  0.87524300  0.75000000  0.02772500  1
  Cl  Cl5  1  0.88211200  0.75000000  0.56822000  1
  Cl  Cl6  1  0.67348900  0.87449100  0.88822200  1
  Cl  Cl7  1  0.82651100  0.37449100  0.38822200  1
  Cl  Cl8  1  0.91200900  0.12621600  0.86940500  1
  Cl  Cl9  1  0.17348900  0.62550900  0.61177800  1
  Cl  Cl10  1  0.58799100  0.87378400  0.36940500  1
  Cl  Cl11  1  0.91200900  0.37378400  0.86940500  1
  Cl  Cl12  1  0.98778100  0.75000000  0.72495500  1
  Cl  Cl13  1  0.38211200  0.75000000  0.93178000  1
  Cl  Cl14  1  0.69402300  0.25000000  0.68795600  1
  Cl  Cl15  1  0.01221900  0.25000000  0.27504500  1
  Cl  Cl16  1  0.41200900  0.37378400  0.63059500  1
  Cl  Cl17  1  0.82651100  0.12550900  0.38822200  1
  Cl  Cl18  1  0.08799100  0.87378400  0.13059500  1
  Cl  Cl19  1  0.62475700  0.25000000  0.52772500  1
  Cl  Cl20  1  0.19402300  0.25000000  0.81204400  1
  Cl  Cl21  1  0.67348900  0.62550900  0.88822200  1
  Cl  Cl22  1  0.11788800  0.25000000  0.43178000  1
  Cl  Cl23  1  0.32651100  0.37449100  0.11177800  1
  Cl  Cl24  1  0.51221900  0.25000000  0.22495500  1
  Cl  Cl25  1  0.12475700  0.25000000  0.97227500  1
  Cl  Cl26  1  0.17348900  0.87449100  0.61177800  1
  Cl  Cl27  1  0.30597700  0.75000000  0.31204400  1
  Cl  Cl28  1  0.32651100  0.12550900  0.11177800  1
  Cl  Cl29  1  0.58799100  0.62621600  0.36940500  1
  Cl  Cl30  1  0.61788800  0.25000000  0.06822000  1
  Cl  Cl31  1  0.48778100  0.75000000  0.77504500  1
loop_
_geom_bond_atom_site_label_1
_geom_bond_atom_site_label_2
_geom_bond_distance
_geom_bond_site_symmetry_2
Al0 Cl15 2.157569 1_655
Al0 Cl22 2.164343 1_655
Al0 Cl7 2.166849 1_555
Al0 Cl17 2.166849 1_555
Al1 Cl12 2.157569 1_455
Al1 Cl5 2.164343 1_455
Al1 Cl26 2.166849 1_555
Al1 Cl9 2.166849 1_555
Al2 Cl24 2.157569 1_555
Al2 Cl30 2.164343 1_555
Al2 Cl23 2.166849 1_555
Al2 Cl28 2.166849 1_555
Al3 Cl10 2.158837 1_555
Al3 Cl29 2.158837 1_555
Al3 Cl3 2.163438 1_555
Al3 Cl27 2.168247 1_555
Al4 Cl2 2.158837 1_655
Al4 Cl18 2.158837 1_655
Al4 Cl4 2.163438 1_555
Al4 Cl1 2.168247 1_555
Al5 Cl11 2.158837 1_455
Al5 Cl8 2.158837 1_455
Al5 Cl25 2.163438 1_555
Al5 Cl20 2.168247 1_555
Al6 Cl31 2.157569 1_555
Al6 Cl13 2.164343 1_555
Al6 Cl6 2.166849 1_555
Al6 Cl21 2.166849 1_555
Al7 Cl0 2.158837 1_555
Al7 Cl16 2.158837 1_555
Al7 Cl19 2.163438 1_555
Al7 Cl14 2.168247 1_555
N0 S18 1.555677 1_565
N0 S26 1.556524 1_555
N1 S8 1.589761 1_555
N1 S16 1.591332 1_555
N2 S39 1.569544 1_555
N2 S19 1.581856 1_555
N3 S36 1.555746 1_555
N3 S13 1.557254 1_555
N4 S17 1.572178 1_555
N4 S3 1.581620 1_555
N5 S9 1.589761 1_545
N5 S17 1.591332 1_555
N6 S11 1.589761 1_545
N6 S30 1.591332 1_555
N7 S31 1.555746 1_555
N7 S7 1.557254 1_555
N8 S30 1.572178 1_455
N8 S20 1.581620 1_555
N9 S22 1.555746 1_555
N9 S0 1.557254 1_555
N10 S11 1.569544 1_555
N10 S32 1.581856 1_555
N11 S36 1.555677 1_545
N11 S3 1.556524 1_555
N12 S39 1.589761 1_555
N12 S10 1.591332 1_555
N13 S22 1.555677 1_555
N13 S23 1.556524 1_455
N14 S35 1.569544 1_555
N14 S24 1.581856 1_555
N15 S16 1.572178 1_555
N15 S21 1.581620 1_555
N16 S14 1.555677 1_545
N16 S20 1.556524 1_655
N17 S8 1.569544 1_555
N17 S7 1.581856 1_555
N18 S25 1.569544 1_555
N18 S2 1.581856 1_555
N19 S37 1.569544 1_555
N19 S6 1.581856 1_555
N20 S1 1.572178 1_555
N20 S26 1.581620 1_555
N21 S35 1.589761 1_555
N21 S12 1.591332 1_555
N22 S33 1.555677 1_555
N22 S4 1.556524 1_655
N23 S27 1.572178 1_655
N23 S23 1.581620 1_555
N24 S18 1.555746 1_555
N24 S2 1.557254 1_555
N25 S15 1.589761 1_555
N25 S27 1.591332 1_555
N26 S5 1.572178 1_655
N26 S29 1.581620 1_555
N27 S10 1.572178 1_455
N27 S4 1.581620 1_555
N28 S28 1.555677 1_555
N28 S38 1.556524 1_555
N29 S37 1.589761 1_565
N29 S5 1.591332 1_555
N30 S14 1.555746 1_555
N30 S32 1.557254 1_555
N31 S34 1.555746 1_555
N31 S6 1.557254 1_555
N32 S33 1.555746 1_555
N32 S19 1.557254 1_555
N33 S25 1.589761 1_565
N33 S1 1.591332 1_555
N34 S28 1.555746 1_555
N34 S24 1.557254 1_555
N35 S31 1.555677 1_555
N35 S21 1.556524 1_555
N36 S15 1.569544 1_555
N36 S0 1.581856 1_555
N37 S12 1.572178 1_555
N37 S38 1.581620 1_555
N38 S34 1.555677 1_565
N38 S29 1.556524 1_455
N39 S9 1.569544 1_555
N39 S13 1.581856 1_555
