# generated using pymatgen
data_TiSCl6O
_symmetry_space_group_name_H-M   'P 1'
_cell_length_a   10.63901500
_cell_length_b   7.91557800
_cell_length_c   12.97123751
_cell_angle_alpha   75.57369668
_cell_angle_beta   90.00000000
_cell_angle_gamma   90.00000000
_symmetry_Int_Tables_number   1
_chemical_formula_structural   TiSCl6O
_chemical_formula_sum   'Ti4 S4 Cl24 O4'
_cell_volume   1057.91588989
_cell_formula_units_Z   4
loop_
 _symmetry_equiv_pos_site_id
 _symmetry_equiv_pos_as_xyz
  1  'x, y, z'
loop_
 _atom_site_type_symbol
 _atom_site_label
 _atom_site_symmetry_multiplicity
 _atom_site_fract_x
 _atom_site_fract_y
 _atom_site_fract_z
 _atom_site_occupancy
  Ti  Ti0  1  0.64272800  0.64893600  0.44960000  1
  Ti  Ti1  1  0.35727200  0.35106400  0.55040000  1
  Ti  Ti2  1  0.85727200  0.64893600  0.94960000  1
  Ti  Ti3  1  0.14272800  0.35106400  0.05040000  1
  S  S0  1  0.92227100  0.10232100  0.25111700  1
  S  S1  1  0.42227100  0.89767900  0.24888300  1
  S  S2  1  0.57772900  0.10232100  0.75111700  1
  S  S3  1  0.07772900  0.89767900  0.74888300  1
  Cl  Cl0  1  0.26207800  0.31684000  0.70711000  1
  Cl  Cl1  1  0.23792200  0.31684000  0.20711000  1
  Cl  Cl2  1  0.76207800  0.68316000  0.79289000  1
  Cl  Cl3  1  0.55001900  0.08901300  0.17532400  1
  Cl  Cl4  1  0.71469900  0.48340200  0.05093500  1
  Cl  Cl5  1  0.47656800  0.60024300  0.58744300  1
  Cl  Cl6  1  0.94998100  0.08901300  0.67532400  1
  Cl  Cl7  1  0.73792200  0.68316000  0.29289000  1
  Cl  Cl8  1  0.28530100  0.51659800  0.94906500  1
  Cl  Cl9  1  0.21469900  0.51659800  0.44906500  1
  Cl  Cl10  1  0.81165900  0.90249500  0.98610700  1
  Cl  Cl11  1  0.06668300  0.73617700  0.64606500  1
  Cl  Cl12  1  0.78530100  0.48340200  0.55093500  1
  Cl  Cl13  1  0.52343200  0.39975700  0.41255700  1
  Cl  Cl14  1  0.05001900  0.91098700  0.32467600  1
  Cl  Cl15  1  0.56668300  0.26382300  0.85393500  1
  Cl  Cl16  1  0.02343200  0.60024300  0.08744300  1
  Cl  Cl17  1  0.68834100  0.90249500  0.48610700  1
  Cl  Cl18  1  0.44998100  0.91098700  0.82467600  1
  Cl  Cl19  1  0.97656800  0.39975700  0.91255700  1
  Cl  Cl20  1  0.18834100  0.09750500  0.01389300  1
  Cl  Cl21  1  0.93331700  0.26382300  0.35393500  1
  Cl  Cl22  1  0.43331700  0.73617700  0.14606500  1
  Cl  Cl23  1  0.31165900  0.09750500  0.51389300  1
  O  O0  1  0.52384500  0.19575300  0.64870300  1
  O  O1  1  0.47615500  0.80424700  0.35129700  1
  O  O2  1  0.97615500  0.19575300  0.14870300  1
  O  O3  1  0.02384500  0.80424700  0.85129700  1
loop_
_geom_bond_atom_site_label_1
_geom_bond_atom_site_label_2
_geom_bond_distance
_geom_bond_site_symmetry_2
Cl0 Ti1 2.226358 1_555
Cl1 Ti3 2.226358 1_555
Cl2 Ti2 2.226358 1_555
Cl3 S1 2.081183 1_545
Cl4 Ti2 2.210713 1_554
Cl5 Ti0 2.475306 1_555
Cl5 Ti1 2.490841 1_555
Cl6 S3 2.081183 1_645
Cl7 Ti0 2.226358 1_555
Cl8 Ti3 2.210713 1_556
Cl9 Ti1 2.210713 1_555
Cl10 Ti2 2.227469 1_555
Cl11 S3 2.067918 1_555
Cl12 Ti0 2.210713 1_555
Cl13 Ti1 2.475306 1_555
Cl13 Ti0 2.490841 1_555
Cl14 S0 2.081183 1_465
Cl15 S2 2.067918 1_555
Cl16 Ti2 2.475306 1_454
Cl16 Ti3 2.490841 1_555
Cl17 Ti0 2.227469 1_555
Cl18 S2 2.081183 1_565
Cl19 Ti3 2.475306 1_656
Cl19 Ti2 2.490841 1_555
Cl20 Ti3 2.227469 1_555
Cl21 S0 2.067918 1_555
Cl22 S1 2.067918 1_555
Cl23 Ti1 2.227469 1_555
O0 S2 1.466565 1_555
O0 Ti1 2.344523 1_555
O1 S1 1.466565 1_555
O1 Ti0 2.344523 1_555
O2 S0 1.466565 1_555
O2 Ti3 2.344523 1_655
O3 S3 1.466565 1_555
O3 Ti2 2.344523 1_455
