# generated using pymatgen
data_RbAu(SO4)2
_symmetry_space_group_name_H-M   'P 1'
_cell_length_a   4.35617100
_cell_length_b   5.16817699
_cell_length_c   9.03767060
_cell_angle_alpha   103.04377396
_cell_angle_beta   88.30908708
_cell_angle_gamma   105.68841534
_symmetry_Int_Tables_number   1
_chemical_formula_structural   RbAu(SO4)2
_chemical_formula_sum   'Rb1 Au1 S2 O8'
_cell_volume   190.72714634
_cell_formula_units_Z   1
loop_
 _symmetry_equiv_pos_site_id
 _symmetry_equiv_pos_as_xyz
  1  'x, y, z'
loop_
 _atom_site_type_symbol
 _atom_site_label
 _atom_site_symmetry_multiplicity
 _atom_site_fract_x
 _atom_site_fract_y
 _atom_site_fract_z
 _atom_site_occupancy
  Rb  Rb0  1  0.00000000  0.50000000  0.00000000  1
  Au  Au0  1  0.00000000  0.00000000  0.50000000  1
  S  S0  1  0.55064200  0.12347400  0.26886800  1
  S  S1  1  0.44935800  0.87652600  0.73113200  1
  O  O0  1  0.52338000  0.63333900  0.75751500  1
  O  O1  1  0.32002400  0.03814500  0.85778100  1
  O  O2  1  0.67997600  0.96185500  0.14221900  1
  O  O3  1  0.22095900  0.76512400  0.58921300  1
  O  O4  1  0.77904100  0.23487600  0.41078700  1
  O  O5  1  0.25184400  0.91126200  0.31027300  1
  O  O6  1  0.74815600  0.08873800  0.68972700  1
  O  O7  1  0.47662000  0.36666100  0.24248500  1
loop_
_geom_bond_atom_site_label_1
_geom_bond_atom_site_label_2
_geom_bond_distance
_geom_bond_site_symmetry_2
Au0 O6 2.039653 1_455
Au0 O5 2.039653 1_545
Au0 O3 2.041945 1_545
Au0 O4 2.041945 1_455
O0 S1 1.448946 1_555
O0 Rb0 3.164298 1_556
O0 Rb0 3.363379 1_656
O1 S1 1.452628 1_545
O1 Rb0 3.098714 1_556
O1 Rb0 3.277465 1_546
O1 Rb0 3.337613 1_656
O2 S0 1.452628 1_565
O2 Rb0 3.098714 1_655
O2 Rb0 3.277465 1_665
O2 Rb0 3.337613 1_555
O3 S1 1.548769 1_555
O4 S0 1.548769 1_555
O5 S0 1.556138 1_565
O5 Rb0 3.132823 1_555
O6 S1 1.556138 1_545
O6 Rb0 3.132823 1_656
O7 S0 1.448946 1_555
O7 Rb0 3.164298 1_655
O7 Rb0 3.363379 1_555
