# generated using pymatgen
data_PuAl4
_symmetry_space_group_name_H-M   'P 1'
_cell_length_a   7.85017383
_cell_length_b   7.83478323
_cell_length_c   7.83478323
_cell_angle_alpha   147.50059076
_cell_angle_beta   133.19435989
_cell_angle_gamma   58.11747637
_symmetry_Int_Tables_number   1
_chemical_formula_structural   PuAl4
_chemical_formula_sum   'Pu2 Al8'
_cell_volume   187.26300169
_cell_formula_units_Z   2
loop_
 _symmetry_equiv_pos_site_id
 _symmetry_equiv_pos_as_xyz
  1  'x, y, z'
loop_
 _atom_site_type_symbol
 _atom_site_label
 _atom_site_symmetry_multiplicity
 _atom_site_fract_x
 _atom_site_fract_y
 _atom_site_fract_z
 _atom_site_occupancy
  Pu  Pu0  1  0.86254147  0.11225049  0.75029198  1
  Pu  Pu1  1  0.13745853  0.88774951  0.24970802  1
  Al  Al0  1  0.63493004  0.88571970  0.74920934  1
  Al  Al1  1  0.36506996  0.11428030  0.25079066  1
  Al  Al2  1  0.50000000  0.50000000  0.00000000  1
  Al  Al3  1  0.00000000  0.50000000  0.50000000  1
  Al  Al4  1  0.33106629  0.30170412  0.02936317  1
  Al  Al5  1  0.66893371  0.69829588  0.97063683  1
  Al  Al6  1  0.22677221  0.69753595  0.52923726  1
  Al  Al7  1  0.77322779  0.30246405  0.47076274  1
loop_
_geom_bond_atom_site_label_1
_geom_bond_atom_site_label_2
_geom_bond_distance
_geom_bond_site_symmetry_2
Al0 Al7 2.829430 1_555
Al0 Al7 2.829430 1_566
Al0 Al4 2.831638 1_555
Al0 Al4 2.831645 1_566
Al0 Al5 2.913116 1_555
Al0 Al6 2.924906 1_555
Al0 Pu0 3.105879 1_565
Al0 Al2 3.107757 1_555
Al0 Al2 3.107760 1_566
Al0 Pu1 3.111925 1_555
Al0 Al3 3.117115 1_655
Al0 Al3 3.117119 1_666
Al0 Pu1 3.118296 1_656
Al1 Al6 2.829430 1_544
Al1 Al6 2.829430 1_555
Al1 Al5 2.831638 1_555
Al1 Al5 2.831645 1_544
Al1 Al4 2.913116 1_555
Al1 Al7 2.924906 1_555
Al1 Pu1 3.105879 1_545
Al1 Al2 3.107757 1_556
Al1 Al2 3.107760 1_545
Al1 Pu0 3.111925 1_555
Al1 Al3 3.117115 1_555
Al1 Al3 3.117119 1_544
Al1 Pu0 3.118296 1_454
Al2 Al4 2.724388 1_555
Al2 Al5 2.724388 1_554
Al2 Pu0 3.101613 1_554
Al2 Pu1 3.101613 1_555
Al2 Pu1 3.101616 1_544
Al2 Pu0 3.101616 1_565
Al2 Al3 3.114986 1_554
Al2 Al3 3.114986 1_655
Al3 Al6 2.714956 1_555
Al3 Al7 2.714956 1_455
Al3 Pu1 3.095415 1_556
Al3 Pu0 3.095415 1_454
Al3 Pu1 3.095418 1_545
Al3 Pu0 3.095418 1_465
Al4 Al6 2.616529 1_544
Al4 Al6 2.616529 1_555
Al4 Al7 2.749963 1_555
Al4 Pu1 3.036775 1_555
Al4 Pu1 3.036781 1_544
Al4 Pu0 3.129756 1_454
Al5 Al7 2.616529 1_555
Al5 Al7 2.616529 1_566
Al5 Al6 2.749963 1_555
Al5 Pu0 3.036775 1_555
Al5 Pu0 3.036781 1_566
Al5 Pu1 3.129756 1_656
Al6 Pu0 3.034015 1_465
Al6 Pu0 3.034015 1_454
Al6 Pu1 3.131835 1_555
Al7 Pu1 3.034015 1_645
Al7 Pu1 3.034015 1_656
Al7 Pu0 3.131835 1_555
