# generated using pymatgen
data_K2Sn(AuS2)2
_symmetry_space_group_name_H-M   'P 1'
_cell_length_a   7.50744200
_cell_length_b   8.46754315
_cell_length_c   9.35513332
_cell_angle_alpha   71.62425444
_cell_angle_beta   82.09225887
_cell_angle_gamma   67.75148049
_symmetry_Int_Tables_number   1
_chemical_formula_structural   K2Sn(AuS2)2
_chemical_formula_sum   'K4 Sn2 Au4 S8'
_cell_volume   522.24771989
_cell_formula_units_Z   2
loop_
 _symmetry_equiv_pos_site_id
 _symmetry_equiv_pos_as_xyz
  1  'x, y, z'
loop_
 _atom_site_type_symbol
 _atom_site_label
 _atom_site_symmetry_multiplicity
 _atom_site_fract_x
 _atom_site_fract_y
 _atom_site_fract_z
 _atom_site_occupancy
  K  K0  1  0.78241500  0.81168400  0.42099400  1
  K  K1  1  0.21758500  0.18831600  0.57900600  1
  K  K2  1  0.02695900  0.25277200  0.07676500  1
  K  K3  1  0.97304100  0.74722800  0.92323500  1
  Sn  Sn0  1  0.62300200  0.28097500  0.80445800  1
  Sn  Sn1  1  0.37699800  0.71902500  0.19554200  1
  Au  Au0  1  0.53280900  0.71240100  0.83202800  1
  Au  Au1  1  0.26273500  0.66815100  0.57675400  1
  Au  Au2  1  0.46719100  0.28759900  0.16797200  1
  Au  Au3  1  0.73726500  0.33184900  0.42324600  1
  S  S0  1  0.72449500  0.58141400  0.22266000  1
  S  S1  1  0.76085000  0.09096600  0.63528900  1
  S  S2  1  0.29299300  0.91418200  0.93901900  1
  S  S3  1  0.21611200  0.50171700  0.25416600  1
  S  S4  1  0.27550500  0.41858600  0.77734000  1
  S  S5  1  0.70700700  0.08581800  0.06098100  1
  S  S6  1  0.23915000  0.90903400  0.36471100  1
  S  S7  1  0.78388800  0.49828300  0.74583400  1
loop_
_geom_bond_atom_site_label_1
_geom_bond_atom_site_label_2
_geom_bond_distance
_geom_bond_site_symmetry_2
K0 S0 3.252469 1_555
K0 S7 3.343634 1_555
K0 S5 3.413544 1_565
K0 S1 3.499656 1_565
K1 S4 3.252469 1_555
K1 S3 3.343634 1_555
K1 S2 3.413544 1_545
K1 S6 3.499656 1_545
K2 S5 3.254326 1_455
K2 S6 3.315423 1_545
K2 S2 3.339831 1_544
K2 S4 3.371286 1_554
K2 S0 3.394097 1_455
K2 S7 3.443881 1_454
K3 S2 3.254326 1_655
K3 S1 3.315423 1_565
K3 S5 3.339831 1_566
K3 S0 3.371286 1_556
K3 S4 3.394097 1_655
K3 S3 3.443881 1_656
Au0 S7 2.325094 1_555
Au0 S2 2.327133 1_555
Au0 K3 3.662074 1_555
Au1 S4 2.322068 1_555
Au1 S6 2.323535 1_555
Au1 K0 3.689711 1_455
Au1 K3 3.743103 1_455
Au2 S3 2.325094 1_555
Au2 S5 2.327133 1_555
Au2 K2 3.662074 1_555
Au3 S0 2.322068 1_555
Au3 S1 2.323535 1_555
Au3 K1 3.689711 1_655
Au3 K2 3.743103 1_655
S0 Sn1 2.433479 1_555
S1 Sn0 2.461320 1_555
S2 Sn1 2.452444 1_556
S3 Sn1 2.451522 1_555
S4 Sn0 2.433479 1_555
S5 Sn0 2.452444 1_554
S6 Sn1 2.461320 1_555
S7 Sn0 2.451522 1_555
