# generated using pymatgen
data_BiAuBr6
_symmetry_space_group_name_H-M   'P 1'
_cell_length_a   8.15775100
_cell_length_b   10.67193303
_cell_length_c   15.15421577
_cell_angle_alpha   103.97052656
_cell_angle_beta   95.69274306
_cell_angle_gamma   112.01361129
_symmetry_Int_Tables_number   1
_chemical_formula_structural   BiAuBr6
_chemical_formula_sum   'Bi4 Au4 Br24'
_cell_volume   1160.26441190
_cell_formula_units_Z   4
loop_
 _symmetry_equiv_pos_site_id
 _symmetry_equiv_pos_as_xyz
  1  'x, y, z'
loop_
 _atom_site_type_symbol
 _atom_site_label
 _atom_site_symmetry_multiplicity
 _atom_site_fract_x
 _atom_site_fract_y
 _atom_site_fract_z
 _atom_site_occupancy
  Bi  Bi0  1  0.60050900  0.92944400  0.61960200  1
  Bi  Bi1  1  0.39949100  0.07055600  0.38039800  1
  Bi  Bi2  1  0.97239500  0.31413700  0.87253800  1
  Bi  Bi3  1  0.02760500  0.68586300  0.12746200  1
  Au  Au0  1  0.29528000  0.62929000  0.76453800  1
  Au  Au1  1  0.70472000  0.37071000  0.23546200  1
  Au  Au2  1  0.50000000  0.50000000  0.50000000  1
  Au  Au3  1  0.00000000  0.00000000  0.00000000  1
  Br  Br0  1  0.61256400  0.72867700  0.74863600  1
  Br  Br1  1  0.38743600  0.27132300  0.25136400  1
  Br  Br2  1  0.26601200  0.84024000  0.73952800  1
  Br  Br3  1  0.73398800  0.15976000  0.26047200  1
  Br  Br4  1  0.97550000  0.53168300  0.77921200  1
  Br  Br5  1  0.02450000  0.46831700  0.22078800  1
  Br  Br6  1  0.32137100  0.41462700  0.78753400  1
  Br  Br7  1  0.67862900  0.58537300  0.21246600  1
  Br  Br8  1  0.69430700  0.37029400  0.50624200  1
  Br  Br9  1  0.30569300  0.62970600  0.49375800  1
  Br  Br10  1  0.76830800  0.72288900  0.52262500  1
  Br  Br11  1  0.23169200  0.27711100  0.47737500  1
  Br  Br12  1  0.78027800  0.10158400  0.97033700  1
  Br  Br13  1  0.21972200  0.89841600  0.02966300  1
  Br  Br14  1  0.76307700  0.80140700  0.03372800  1
  Br  Br15  1  0.23692300  0.19859300  0.96627200  1
  Br  Br16  1  0.61344300  0.18625300  0.74431600  1
  Br  Br17  1  0.38655700  0.81374700  0.25568400  1
  Br  Br18  1  0.96159600  0.05306600  0.72295600  1
  Br  Br19  1  0.03840400  0.94693400  0.27704400  1
  Br  Br20  1  0.73542200  0.04857600  0.48272700  1
  Br  Br21  1  0.26457800  0.95142400  0.51727300  1
  Br  Br22  1  0.75565700  0.43517100  0.97434200  1
  Br  Br23  1  0.24434300  0.56482900  0.02565800  1
loop_
_geom_bond_atom_site_label_1
_geom_bond_atom_site_label_2
_geom_bond_distance
_geom_bond_site_symmetry_2
Bi0 Br20 2.794167 1_565
Bi0 Br18 2.836242 1_565
Bi0 Br16 2.887361 1_565
Bi0 Br21 3.127973 1_555
Bi0 Br10 3.160633 1_555
Bi0 Br9 3.167124 1_555
Bi0 Br0 3.250638 1_555
Bi0 Br2 3.395147 1_555
Bi1 Br21 2.794167 1_545
Bi1 Br19 2.836242 1_545
Bi1 Br17 2.887361 1_545
Bi1 Br20 3.127973 1_555
Bi1 Br11 3.160633 1_555
Bi1 Br8 3.167124 1_555
Bi1 Br1 3.250638 1_555
Bi1 Br3 3.395147 1_555
Bi2 Br22 2.909586 1_555
Bi2 Br16 2.967776 1_555
Bi2 Br4 2.989858 1_555
Bi2 Br23 2.999242 1_656
Bi2 Br12 3.035982 1_555
Bi2 Br18 3.104125 1_555
Bi2 Br6 3.165426 1_655
Bi2 Br15 3.229140 1_655
Bi3 Br23 2.909586 1_555
Bi3 Br17 2.967776 1_555
Bi3 Br5 2.989858 1_555
Bi3 Br22 2.999242 1_454
Bi3 Br13 3.035982 1_555
Bi3 Br19 3.104125 1_555
Bi3 Br7 3.165426 1_455
Bi3 Br14 3.229140 1_455
Au0 Br2 2.462870 1_555
Au0 Br0 2.464062 1_555
Au0 Br4 2.475801 1_455
Au0 Br6 2.480144 1_555
Au1 Br3 2.462870 1_555
Au1 Br1 2.464062 1_555
Au1 Br5 2.475801 1_655
Au1 Br7 2.480144 1_555
Au2 Br8 2.473030 1_555
Au2 Br9 2.473030 1_555
Au2 Br11 2.474008 1_555
Au2 Br10 2.474008 1_555
Au3 Br12 2.474334 1_454
Au3 Br13 2.474334 1_545
Au3 Br15 2.477258 1_554
Au3 Br14 2.477258 1_445
