# generated using pymatgen
data_Nd10(B3C4)3
_symmetry_space_group_name_H-M   'P 1'
_cell_length_a   8.45931600
_cell_length_b   8.45931600
_cell_length_c   25.32152800
_cell_angle_alpha   90.00000000
_cell_angle_beta   90.00000000
_cell_angle_gamma   90.00000000
_symmetry_Int_Tables_number   1
_chemical_formula_structural   Nd10(B3C4)3
_chemical_formula_sum   'Nd40 B36 C48'
_cell_volume   1812.00923212
_cell_formula_units_Z   4
loop_
 _symmetry_equiv_pos_site_id
 _symmetry_equiv_pos_as_xyz
  1  'x, y, z'
loop_
 _atom_site_type_symbol
 _atom_site_label
 _atom_site_symmetry_multiplicity
 _atom_site_fract_x
 _atom_site_fract_y
 _atom_site_fract_z
 _atom_site_occupancy
  Nd  Nd0  1  0.39646700  0.09298000  0.20969200  1
  Nd  Nd1  1  0.80484600  0.91466800  0.19624900  1
  Nd  Nd2  1  0.51450600  0.59903800  0.81051300  1
  Nd  Nd3  1  0.19835500  0.71375500  0.17837100  1
  Nd  Nd4  1  0.91466800  0.80484600  0.80375100  1
  Nd  Nd5  1  0.18315300  0.48731500  0.41714900  1
  Nd  Nd6  1  0.48731500  0.18315300  0.58285100  1
  Nd  Nd7  1  0.98731500  0.31684700  0.16714900  1
  Nd  Nd8  1  0.28624500  0.80164500  0.32162900  1
  Nd  Nd9  1  0.98549400  0.09903800  0.43948700  1
  Nd  Nd10  1  0.59903800  0.51450600  0.18948700  1
  Nd  Nd11  1  0.90096200  0.01450600  0.06051300  1
  Nd  Nd12  1  0.69515400  0.41466800  0.05375100  1
  Nd  Nd13  1  0.08533200  0.19515400  0.30375100  1
  Nd  Nd14  1  0.09903800  0.98549400  0.56051300  1
  Nd  Nd15  1  0.30484600  0.58533200  0.55375100  1
  Nd  Nd16  1  0.40702000  0.89646700  0.45969200  1
  Nd  Nd17  1  0.51268500  0.81684700  0.08285100  1
  Nd  Nd18  1  0.78624500  0.69835500  0.42837100  1
  Nd  Nd19  1  0.81684700  0.51268500  0.91714900  1
  Nd  Nd20  1  0.58533200  0.30484600  0.44624900  1
  Nd  Nd21  1  0.69835500  0.78624500  0.57162900  1
  Nd  Nd22  1  0.10353300  0.59298000  0.04030800  1
  Nd  Nd23  1  0.68315300  0.01268500  0.33285100  1
  Nd  Nd24  1  0.90702000  0.60353300  0.29030800  1
  Nd  Nd25  1  0.30164500  0.21375500  0.07162900  1
  Nd  Nd26  1  0.89646700  0.40702000  0.54030800  1
  Nd  Nd27  1  0.01268500  0.68315300  0.66714900  1
  Nd  Nd28  1  0.60353300  0.90702000  0.70969200  1
  Nd  Nd29  1  0.31684700  0.98731500  0.83285100  1
  Nd  Nd30  1  0.21375500  0.30164500  0.92837100  1
  Nd  Nd31  1  0.41466800  0.69515400  0.94624900  1
  Nd  Nd32  1  0.09298000  0.39646700  0.79030800  1
  Nd  Nd33  1  0.01450600  0.90096200  0.93948700  1
  Nd  Nd34  1  0.59298000  0.10353300  0.95969200  1
  Nd  Nd35  1  0.71375500  0.19835500  0.82162900  1
  Nd  Nd36  1  0.40096200  0.48549400  0.68948700  1
  Nd  Nd37  1  0.80164500  0.28624500  0.67837100  1
  Nd  Nd38  1  0.19515400  0.08533200  0.69624900  1
  Nd  Nd39  1  0.48549400  0.40096200  0.31051300  1
  B  B0  1  0.08910800  0.80157500  0.40763500  1
  B  B1  1  0.41089200  0.30157500  0.84236500  1
  B  B2  1  0.51101900  0.37662400  0.89246500  1
  B  B3  1  0.63576100  0.14131500  0.11648000  1
  B  B4  1  0.87662400  0.98898100  0.64246500  1
  B  B5  1  0.69842500  0.58910800  0.65763500  1
  B  B6  1  0.80157500  0.08910800  0.59236500  1
  B  B7  1  0.20329400  0.28238900  0.52476000  1
  B  B8  1  0.91777500  0.08222500  0.75000000  1
  B  B9  1  0.71761100  0.79670600  0.97524000  1
  B  B10  1  0.85868500  0.36423900  0.38352000  1
  B  B11  1  0.01101900  0.12337600  0.85753500  1
  B  B12  1  0.58222500  0.58222500  0.50000000  1
  B  B13  1  0.78238900  0.29670600  0.27476000  1
  B  B14  1  0.12337600  0.01101900  0.14246500  1
  B  B15  1  0.70329400  0.21761100  0.22524000  1
  B  B16  1  0.29670600  0.78238900  0.72524000  1
  B  B17  1  0.08222500  0.91777500  0.25000000  1
  B  B18  1  0.91089200  0.19842500  0.90763500  1
  B  B19  1  0.41777500  0.41777500  0.00000000  1
  B  B20  1  0.19842500  0.91089200  0.09236500  1
  B  B21  1  0.48898100  0.62337600  0.39246500  1
  B  B22  1  0.21761100  0.70329400  0.77476000  1
  B  B23  1  0.37662400  0.51101900  0.10753500  1
  B  B24  1  0.58910800  0.69842500  0.34236500  1
  B  B25  1  0.30157500  0.41089200  0.15763500  1
  B  B26  1  0.86423900  0.64131500  0.13352000  1
  B  B27  1  0.98898100  0.87662400  0.35753500  1
  B  B28  1  0.28238900  0.20329400  0.47524000  1
  B  B29  1  0.14131500  0.63576100  0.88352000  1
  B  B30  1  0.36423900  0.85868500  0.61648000  1
  B  B31  1  0.79670600  0.71761100  0.02476000  1
  B  B32  1  0.64131500  0.86423900  0.86648000  1
  B  B33  1  0.35868500  0.13576200  0.36648000  1
  B  B34  1  0.62337600  0.48898100  0.60753500  1
  B  B35  1  0.13576200  0.35868500  0.63352000  1
  C  C0  1  0.17983300  0.29755700  0.58174300  1
  C  C1  1  0.29755700  0.17983300  0.41825700  1
  C  C2  1  0.68987100  0.00579900  0.43541800  1
  C  C3  1  0.81012900  0.50579900  0.81458200  1
  C  C4  1  0.31012900  0.99420100  0.93541800  1
  C  C5  1  0.89383100  0.61474100  0.18955900  1
  C  C6  1  0.21580600  0.92488100  0.03358800  1
  C  C7  1  0.60616900  0.11474100  0.06044100  1
  C  C8  1  0.71580600  0.57511900  0.71641200  1
  C  C9  1  0.92488100  0.21580600  0.96641200  1
  C  C10  1  0.79755700  0.32016700  0.33174300  1
  C  C11  1  0.49420100  0.18987100  0.68541800  1
  C  C12  1  0.67983300  0.20244300  0.16825700  1
  C  C13  1  0.20244300  0.67983300  0.83174300  1
  C  C14  1  0.01081200  0.09738600  0.79937400  1
  C  C15  1  0.18987100  0.49420100  0.31458200  1
  C  C16  1  0.88525900  0.39383100  0.43955900  1
  C  C17  1  0.48918800  0.59738600  0.45062600  1
  C  C18  1  0.57511900  0.71580600  0.28358800  1
  C  C19  1  0.38525900  0.10616900  0.31044100  1
  C  C20  1  0.51081200  0.40261400  0.95062600  1
  C  C21  1  0.59738600  0.48918800  0.54937400  1
  C  C22  1  0.99420100  0.31012900  0.06458200  1
  C  C23  1  0.28831900  0.97332900  0.98806200  1
  C  C24  1  0.11474100  0.60616900  0.93955900  1
  C  C25  1  0.61474100  0.89383100  0.81044100  1
  C  C26  1  0.32016700  0.79755700  0.66825700  1
  C  C27  1  0.90261400  0.98918800  0.70062600  1
  C  C28  1  0.39383100  0.88525900  0.56044100  1
  C  C29  1  0.78831900  0.52667100  0.76193800  1
  C  C30  1  0.98918800  0.90261400  0.29937400  1
  C  C31  1  0.00579900  0.68987100  0.56458200  1
  C  C32  1  0.52667100  0.78831900  0.23806200  1
  C  C33  1  0.71168100  0.02667100  0.48806200  1
  C  C34  1  0.47332900  0.21168100  0.73806200  1
  C  C35  1  0.07511900  0.78419400  0.46641200  1
  C  C36  1  0.97332900  0.28831900  0.01193800  1
  C  C37  1  0.21168100  0.47332900  0.26193800  1
  C  C38  1  0.82016700  0.70244300  0.08174300  1
  C  C39  1  0.40261400  0.51081200  0.04937400  1
  C  C40  1  0.70244300  0.82016700  0.91825700  1
  C  C41  1  0.50579900  0.81012900  0.18541800  1
  C  C42  1  0.02667100  0.71168100  0.51193800  1
  C  C43  1  0.28419400  0.42488100  0.21641200  1
  C  C44  1  0.78419400  0.07511900  0.53358800  1
  C  C45  1  0.10616900  0.38525900  0.68955900  1
  C  C46  1  0.09738600  0.01081200  0.20062600  1
  C  C47  1  0.42488100  0.28419400  0.78358800  1
loop_
_geom_bond_atom_site_label_1
_geom_bond_atom_site_label_2
_geom_bond_distance
_geom_bond_site_symmetry_2
B0 C35 1.500243 1_555
B0 Nd8 2.742966 1_555
B0 Nd18 2.757179 1_455
B0 Nd9 2.784008 1_465
B0 Nd5 2.785349 1_555
B1 C47 1.500243 1_555
B1 Nd30 2.742966 1_555
B1 Nd35 2.757179 1_555
B1 Nd2 2.784008 1_555
B1 Nd29 2.785349 1_545
B2 C20 1.489047 1_555
B2 Nd30 2.748163 1_555
B2 Nd2 2.801258 1_555
B2 Nd35 2.903910 1_555
B2 Nd31 3.127245 1_555
B3 C12 1.457841 1_555
B3 C7 1.458335 1_555
B3 Nd12 2.850004 1_555
B3 Nd11 2.862171 1_555
B3 Nd25 3.107059 1_555
B3 Nd1 3.130771 1_545
B4 C27 1.489047 1_555
B4 Nd37 2.748163 1_565
B4 Nd14 2.801258 1_655
B4 Nd21 2.903910 1_555
B4 Nd38 3.127245 1_665
B5 C8 1.500243 1_555
B5 Nd21 2.742966 1_555
B5 Nd37 2.757179 1_555
B5 Nd36 2.784008 1_555
B5 Nd27 2.785349 1_655
B6 C44 1.500243 1_555
B6 Nd37 2.742966 1_555
B6 Nd21 2.757179 1_545
B6 Nd14 2.784008 1_645
B6 Nd6 2.785349 1_555
B7 C0 1.462123 1_555
B7 Nd15 2.800762 1_555
B7 Nd14 2.811617 1_545
B8 C14 1.482878 1_655
B8 C27 1.482878 1_545
B8 Nd35 2.689499 1_555
B8 Nd37 2.689499 1_555
B8 Nd4 2.712735 1_545
B8 Nd38 2.712735 1_655
B9 C40 1.462123 1_555
B9 Nd31 2.800762 1_555
B9 Nd33 2.811617 1_655
B10 C10 1.457841 1_555
B10 C16 1.458335 1_555
B10 Nd20 2.850004 1_555
B10 Nd9 2.862171 1_555
B10 Nd18 3.107059 1_555
B10 Nd13 3.130771 1_655
B11 C14 1.489047 1_555
B11 Nd35 2.748163 1_455
B11 Nd33 2.801258 1_545
B11 Nd30 2.903910 1_555
B11 Nd4 3.127245 1_445
B12 C21 1.482878 1_555
B12 C17 1.482878 1_555
B12 Nd21 2.689499 1_555
B12 Nd18 2.689499 1_555
B12 Nd15 2.712735 1_555
B12 Nd20 2.712735 1_555
B13 C10 1.462123 1_555
B13 Nd13 2.800762 1_655
B13 Nd39 2.811617 1_555
B14 C46 1.489047 1_555
B14 Nd3 2.748163 1_545
B14 Nd11 2.801258 1_455
B14 Nd25 2.903910 1_555
B14 Nd1 3.127245 1_445
B15 C12 1.462123 1_555
B15 Nd1 2.800762 1_545
B15 Nd10 2.811617 1_555
B16 C26 1.462123 1_555
B16 Nd38 2.800762 1_565
B16 Nd36 2.811617 1_555
B17 C30 1.482878 1_455
B17 C46 1.482878 1_565
B17 Nd8 2.689499 1_555
B17 Nd3 2.689499 1_555
B17 Nd13 2.712735 1_565
B17 Nd1 2.712735 1_455
B18 C9 1.500243 1_555
B18 Nd35 2.742966 1_555
B18 Nd30 2.757179 1_655
B18 Nd33 2.784008 1_645
B18 Nd19 2.785349 1_555
B19 C39 1.482878 1_555
B19 C20 1.482878 1_554
B19 Nd25 2.689499 1_555
B19 Nd30 2.689499 1_554
B19 Nd31 2.712735 1_554
B19 Nd12 2.712735 1_555
B20 C6 1.500243 1_555
B20 Nd3 2.742966 1_555
B20 Nd25 2.757179 1_565
B20 Nd11 2.784008 1_465
B20 Nd17 2.785349 1_555
B21 C17 1.489047 1_555
B21 Nd18 2.748163 1_555
B21 Nd39 2.801258 1_555
B21 Nd8 2.903910 1_555
B21 Nd20 3.127245 1_555
B22 C13 1.462123 1_555
B22 Nd4 2.800762 1_455
B22 Nd2 2.811617 1_555
B23 C39 1.489047 1_555
B23 Nd25 2.748163 1_555
B23 Nd10 2.801258 1_555
B23 Nd3 2.903910 1_555
B23 Nd12 3.127245 1_555
B24 C18 1.500243 1_555
B24 Nd18 2.742966 1_555
B24 Nd8 2.757179 1_555
B24 Nd39 2.784008 1_555
B24 Nd23 2.785349 1_565
B25 C43 1.500243 1_555
B25 Nd25 2.742966 1_555
B25 Nd3 2.757179 1_555
B25 Nd10 2.784008 1_555
B25 Nd7 2.785349 1_455
B26 C38 1.457841 1_555
B26 C5 1.458335 1_555
B26 Nd1 2.850004 1_555
B26 Nd10 2.862171 1_555
B26 Nd3 3.107059 1_655
B26 Nd12 3.130771 1_555
B27 C30 1.489047 1_555
B27 Nd8 2.748163 1_655
B27 Nd9 2.801258 1_565
B27 Nd18 2.903910 1_555
B27 Nd13 3.127245 1_665
B28 C1 1.462123 1_555
B28 Nd20 2.800762 1_555
B28 Nd9 2.811617 1_455
B29 C13 1.457841 1_555
B29 C24 1.458335 1_555
B29 Nd31 2.850004 1_555
B29 Nd33 2.862171 1_555
B29 Nd30 3.107059 1_555
B29 Nd4 3.130771 1_455
B30 C26 1.457841 1_555
B30 C28 1.458335 1_555
B30 Nd15 2.850004 1_555
B30 Nd14 2.862171 1_555
B30 Nd21 3.107059 1_555
B30 Nd38 3.130771 1_565
B31 C38 1.462123 1_555
B31 Nd12 2.800762 1_555
B31 Nd11 2.811617 1_565
B32 C40 1.457841 1_555
B32 C25 1.458335 1_555
B32 Nd4 2.850004 1_555
B32 Nd2 2.862171 1_555
B32 Nd35 3.107059 1_565
B32 Nd31 3.130771 1_555
B33 C1 1.457838 1_555
B33 C19 1.458336 1_555
B33 Nd13 2.850003 1_555
B33 Nd39 2.862164 1_555
B33 Nd8 3.107067 1_545
B33 Nd20 3.130767 1_555
B34 C21 1.489047 1_555
B34 Nd21 2.748163 1_555
B34 Nd36 2.801258 1_555
B34 Nd37 2.903910 1_555
B34 Nd15 3.127245 1_555
B35 C0 1.457838 1_555
B35 C45 1.458336 1_555
B35 Nd38 2.850003 1_555
B35 Nd36 2.862164 1_555
B35 Nd37 3.107067 1_455
B35 Nd15 3.130767 1_555
C0 Nd15 2.747173 1_555
C0 Nd6 2.775435 1_555
C0 Nd14 2.779365 1_545
C1 Nd20 2.747173 1_555
C1 Nd5 2.775435 1_555
C1 Nd9 2.779365 1_455
C2 C33 1.357267 1_555
C2 Nd23 2.598428 1_555
C2 Nd9 2.624227 1_555
C2 Nd16 2.637865 1_545
C2 Nd20 2.693845 1_555
C2 Nd18 2.731386 1_545
C3 Nd19 2.598428 1_555
C3 Nd2 2.624227 1_555
C3 Nd32 2.637865 1_655
C3 Nd4 2.693845 1_555
C3 Nd35 2.731386 1_555
C4 Nd29 2.598428 1_555
C4 Nd33 2.624227 1_555
C4 Nd34 2.637865 1_565
C4 Nd31 2.693845 1_555
C4 Nd30 2.731386 1_565
C5 Nd24 2.555317 1_555
C5 Nd10 2.633960 1_555
C5 Nd1 2.651905 1_555
C5 Nd7 2.701423 1_555
C5 Nd3 2.723587 1_655
C6 Nd25 2.725196 1_565
C6 Nd11 2.851869 1_465
C6 Nd33 2.935698 1_554
C7 Nd34 2.555317 1_554
C7 Nd11 2.633960 1_555
C7 Nd12 2.651905 1_555
C7 Nd17 2.701423 1_545
C7 Nd25 2.723587 1_555
C8 Nd37 2.725196 1_555
C8 Nd36 2.851869 1_555
C8 Nd2 2.935698 1_555
C9 Nd30 2.725196 1_655
C9 Nd33 2.851869 1_645
C9 Nd11 2.935698 1_556
C10 Nd13 2.747173 1_655
C10 Nd23 2.775435 1_555
C10 Nd39 2.779365 1_555
C11 C34 1.357267 1_555
C11 Nd6 2.598428 1_555
C11 Nd36 2.624227 1_555
C11 Nd28 2.637865 1_545
C11 Nd38 2.693845 1_555
C11 Nd37 2.731386 1_555
C12 Nd1 2.747173 1_545
C12 Nd7 2.775435 1_555
C12 Nd10 2.779365 1_555
C13 Nd4 2.747173 1_455
C13 Nd29 2.775435 1_555
C13 Nd2 2.779365 1_555
C14 Nd4 2.607267 1_445
C14 Nd32 2.633790 1_555
C14 Nd35 2.713257 1_455
C14 Nd29 2.878836 1_545
C14 Nd38 3.043180 1_555
C15 C37 1.357267 1_555
C15 Nd5 2.598428 1_555
C15 Nd39 2.624227 1_555
C15 Nd24 2.637865 1_455
C15 Nd13 2.693845 1_555
C15 Nd8 2.731386 1_555
C16 Nd26 2.555317 1_555
C16 Nd9 2.633960 1_555
C16 Nd20 2.651905 1_555
C16 Nd5 2.701423 1_655
C16 Nd18 2.723587 1_555
C17 Nd20 2.607267 1_555
C17 Nd16 2.633790 1_555
C17 Nd18 2.713257 1_555
C17 Nd5 2.878836 1_555
C17 Nd15 3.043180 1_555
C18 C32 1.368634 1_555
C18 Nd8 2.725196 1_555
C18 Nd39 2.851869 1_555
C18 Nd10 2.935698 1_555
C19 Nd0 2.555317 1_555
C19 Nd39 2.633960 1_555
C19 Nd13 2.651905 1_555
C19 Nd23 2.701423 1_555
C19 Nd8 2.723587 1_545
C20 Nd31 2.607267 1_555
C20 Nd34 2.633790 1_555
C20 Nd30 2.713257 1_555
C20 Nd19 2.878836 1_555
C20 Nd12 3.043180 1_556
C21 Nd15 2.607267 1_555
C21 Nd26 2.633790 1_555
C21 Nd21 2.713257 1_555
C21 Nd6 2.878836 1_555
C21 Nd20 3.043180 1_555
C22 C36 1.357267 1_555
C22 Nd7 2.598428 1_555
C22 Nd11 2.624227 1_555
C22 Nd22 2.637865 1_655
C22 Nd12 2.693845 1_555
C22 Nd25 2.731386 1_655
C23 C4 1.357267 1_555
C23 C6 1.368634 1_556
C23 Nd33 2.693093 1_555
C23 Nd31 2.792990 1_555
C23 Nd25 2.937151 1_566
C23 Nd30 3.224275 1_565
C24 Nd22 2.555317 1_556
C24 Nd33 2.633960 1_555
C24 Nd31 2.651905 1_555
C24 Nd19 2.701423 1_455
C24 Nd30 2.723587 1_555
C25 Nd28 2.555317 1_555
C25 Nd2 2.633960 1_555
C25 Nd4 2.651905 1_555
C25 Nd29 2.701423 1_555
C25 Nd35 2.723587 1_565
C26 Nd38 2.747173 1_565
C26 Nd27 2.775435 1_555
C26 Nd36 2.779365 1_555
C27 Nd38 2.607267 1_665
C27 Nd28 2.633790 1_555
C27 Nd37 2.713257 1_565
C27 Nd27 2.878836 1_655
C27 Nd4 3.043180 1_555
C28 Nd16 2.555317 1_555
C28 Nd14 2.633960 1_555
C28 Nd15 2.651905 1_555
C28 Nd6 2.701423 1_565
C28 Nd21 2.723587 1_555
C29 C3 1.357267 1_555
C29 C8 1.368634 1_555
C29 Nd2 2.693093 1_555
C29 Nd4 2.792990 1_555
C29 Nd37 2.937151 1_555
C29 Nd35 3.224275 1_555
C30 Nd13 2.607267 1_665
C30 Nd24 2.633790 1_555
C30 Nd8 2.713257 1_655
C30 Nd23 2.878836 1_565
C30 Nd1 3.043180 1_555
C31 C42 1.357267 1_555
C31 Nd27 2.598428 1_555
C31 Nd14 2.624227 1_555
C31 Nd26 2.637865 1_455
C31 Nd15 2.693845 1_555
C31 Nd21 2.731386 1_455
C32 C41 1.357267 1_555
C32 Nd10 2.693093 1_555
C32 Nd1 2.792990 1_555
C32 Nd8 2.937151 1_555
C32 Nd3 3.224275 1_555
C33 C44 1.368634 1_555
C33 Nd9 2.693093 1_555
C33 Nd20 2.792990 1_555
C33 Nd21 2.937151 1_545
C33 Nd18 3.224275 1_545
C34 C47 1.368634 1_555
C34 Nd36 2.693093 1_555
C34 Nd38 2.792990 1_555
C34 Nd35 2.937151 1_555
C34 Nd37 3.224275 1_555
C35 C42 1.368634 1_555
C35 Nd18 2.725196 1_455
C35 Nd9 2.851869 1_465
C35 Nd14 2.935698 1_555
C36 C9 1.368634 1_554
C36 Nd11 2.693093 1_555
C36 Nd12 2.792990 1_555
C36 Nd30 2.937151 1_654
C36 Nd25 3.224275 1_655
C37 C43 1.368634 1_555
C37 Nd39 2.693093 1_555
C37 Nd13 2.792990 1_555
C37 Nd3 2.937151 1_555
C37 Nd8 3.224275 1_555
C38 Nd12 2.747173 1_555
C38 Nd17 2.775435 1_555
C38 Nd11 2.779365 1_565
C39 Nd12 2.607267 1_555
C39 Nd22 2.633790 1_555
C39 Nd25 2.713257 1_555
C39 Nd17 2.878836 1_555
C39 Nd31 3.043180 1_554
C40 Nd31 2.747173 1_555
C40 Nd19 2.775435 1_555
C40 Nd33 2.779365 1_655
C41 Nd17 2.598428 1_555
C41 Nd10 2.624227 1_555
C41 Nd0 2.637865 1_565
C41 Nd1 2.693845 1_555
C41 Nd3 2.731386 1_555
C42 Nd14 2.693093 1_555
C42 Nd15 2.792990 1_555
C42 Nd18 2.937151 1_455
C42 Nd21 3.224275 1_455
C43 Nd3 2.725196 1_555
C43 Nd10 2.851869 1_555
C43 Nd39 2.935698 1_555
C44 Nd21 2.725196 1_545
C44 Nd14 2.851869 1_645
C44 Nd9 2.935698 1_555
C45 Nd32 2.555317 1_555
C45 Nd36 2.633960 1_555
C45 Nd38 2.651905 1_555
C45 Nd27 2.701423 1_555
C45 Nd37 2.723587 1_455
C46 Nd1 2.607267 1_445
C46 Nd0 2.633790 1_555
C46 Nd3 2.713257 1_545
C46 Nd7 2.878836 1_455
C46 Nd13 3.043180 1_555
C47 Nd35 2.725196 1_555
C47 Nd2 2.851869 1_555
C47 Nd36 2.935698 1_555
