# generated using pymatgen
data_Y4Al2O9
_symmetry_space_group_name_H-M   'P 1'
_cell_length_a   10.56075800
_cell_length_b   7.43685900
_cell_length_c   11.26096082
_cell_angle_alpha   71.52038303
_cell_angle_beta   90.00000000
_cell_angle_gamma   90.00000000
_symmetry_Int_Tables_number   1
_chemical_formula_structural   Y4Al2O9
_chemical_formula_sum   'Y16 Al8 O36'
_cell_volume   838.81914505
_cell_formula_units_Z   4
loop_
 _symmetry_equiv_pos_site_id
 _symmetry_equiv_pos_as_xyz
  1  'x, y, z'
loop_
 _atom_site_type_symbol
 _atom_site_label
 _atom_site_symmetry_multiplicity
 _atom_site_fract_x
 _atom_site_fract_y
 _atom_site_fract_z
 _atom_site_occupancy
  Y  Y0  1  0.62198500  0.16138200  0.91697200  1
  Y  Y1  1  0.12198500  0.83861800  0.58302800  1
  Y  Y2  1  0.37801500  0.83861800  0.08302800  1
  Y  Y3  1  0.87801500  0.16138200  0.41697200  1
  Y  Y4  1  0.62703800  0.66017400  0.93851200  1
  Y  Y5  1  0.12703800  0.33982600  0.56148800  1
  Y  Y6  1  0.37296200  0.33982600  0.06148800  1
  Y  Y7  1  0.87296200  0.66017400  0.43851200  1
  Y  Y8  1  0.59607200  0.97726900  0.30556100  1
  Y  Y9  1  0.09607200  0.02273100  0.19443900  1
  Y  Y10  1  0.40392800  0.02273100  0.69443900  1
  Y  Y11  1  0.90392800  0.97726900  0.80556100  1
  Y  Y12  1  0.60970200  0.47673700  0.28532600  1
  Y  Y13  1  0.10970200  0.52326300  0.21467400  1
  Y  Y14  1  0.39029800  0.52326300  0.71467400  1
  Y  Y15  1  0.89029800  0.47673700  0.78532600  1
  Al  Al0  1  0.67667700  0.34609400  0.61410300  1
  Al  Al1  1  0.17667700  0.65390600  0.88589700  1
  Al  Al2  1  0.32332300  0.65390600  0.38589700  1
  Al  Al3  1  0.82332300  0.34609400  0.11410300  1
  Al  Al4  1  0.67894100  0.78248400  0.62798900  1
  Al  Al5  1  0.17894100  0.21751600  0.87201100  1
  Al  Al6  1  0.32105900  0.21751600  0.37201100  1
  Al  Al7  1  0.82105900  0.78248400  0.12798900  1
  O  O0  1  0.50808900  0.43545900  0.89214100  1
  O  O1  1  0.00808900  0.56454100  0.60785900  1
  O  O2  1  0.49191100  0.56454100  0.10785900  1
  O  O3  1  0.99191100  0.43545900  0.39214100  1
  O  O4  1  0.49427600  0.92261400  0.89324500  1
  O  O5  1  0.99427600  0.07738600  0.60675500  1
  O  O6  1  0.50572400  0.07738600  0.10675500  1
  O  O7  1  0.00572400  0.92261400  0.39324500  1
  O  O8  1  0.51696100  0.30490700  0.65953600  1
  O  O9  1  0.01696100  0.69509300  0.84046400  1
  O  O10  1  0.48303900  0.69509300  0.34046400  1
  O  O11  1  0.98303900  0.30490700  0.15953600  1
  O  O12  1  0.72998600  0.36244300  0.46254200  1
  O  O13  1  0.22998600  0.63755700  0.03745800  1
  O  O14  1  0.51622300  0.78793600  0.65389200  1
  O  O15  1  0.27001400  0.63755700  0.53745800  1
  O  O16  1  0.73949500  0.56642600  0.61644300  1
  O  O17  1  0.23949500  0.43357400  0.88355700  1
  O  O18  1  0.26050500  0.43357400  0.38355700  1
  O  O19  1  0.76050500  0.56642600  0.11644300  1
  O  O20  1  0.73337900  0.92634300  0.48125100  1
  O  O21  1  0.23337900  0.07365700  0.01874900  1
  O  O22  1  0.26662100  0.07365700  0.51874900  1
  O  O23  1  0.76662100  0.92634300  0.98125100  1
  O  O24  1  0.76173800  0.20987400  0.74743900  1
  O  O25  1  0.26173800  0.79012600  0.75256100  1
  O  O26  1  0.23826200  0.79012600  0.25256100  1
  O  O27  1  0.73826200  0.20987400  0.24743900  1
  O  O28  1  0.76030400  0.76940800  0.76867800  1
  O  O29  1  0.26030400  0.23059200  0.73132200  1
  O  O30  1  0.23969600  0.23059200  0.23132200  1
  O  O31  1  0.73969600  0.76940800  0.26867800  1
  O  O32  1  0.98377700  0.78793600  0.15389200  1
  O  O33  1  0.48377700  0.21206400  0.34610800  1
  O  O34  1  0.01622300  0.21206400  0.84610800  1
  O  O35  1  0.77001400  0.36244300  0.96254200  1
loop_
_geom_bond_atom_site_label_1
_geom_bond_atom_site_label_2
_geom_bond_distance
_geom_bond_site_symmetry_2
Al0 O8 1.761040 1_555
Al0 O12 1.764394 1_555
Al0 O24 1.767324 1_555
Al0 O16 1.775700 1_555
Al1 O9 1.761040 1_555
Al1 O13 1.764394 1_556
Al1 O25 1.767324 1_555
Al1 O17 1.775700 1_555
Al2 O10 1.761040 1_555
Al2 O15 1.764394 1_555
Al2 O26 1.767324 1_555
Al2 O18 1.775700 1_555
Al3 O11 1.761040 1_555
Al3 O35 1.764394 1_554
Al3 O27 1.767324 1_555
Al3 O19 1.775700 1_555
Al4 O14 1.745627 1_555
Al4 O20 1.756382 1_555
Al4 O16 1.772027 1_555
Al4 O28 1.777665 1_555
Al5 O34 1.745627 1_555
Al5 O21 1.756382 1_556
Al5 O17 1.772027 1_555
Al5 O29 1.777665 1_555
Al6 O33 1.745627 1_555
Al6 O22 1.756382 1_555
Al6 O18 1.772027 1_555
Al6 O30 1.777665 1_555
Al7 O32 1.745627 1_555
Al7 O23 1.756382 1_554
Al7 O19 1.772027 1_555
Al7 O31 1.777665 1_555
O0 Y14 2.267239 1_555
O0 Y4 2.279632 1_555
O0 Y0 2.306129 1_555
O0 Y6 2.306331 1_556
O1 Y15 2.267239 1_455
O1 Y5 2.279632 1_555
O1 Y1 2.306129 1_555
O1 Y7 2.306331 1_455
O2 Y12 2.267239 1_555
O2 Y6 2.279632 1_555
O2 Y2 2.306129 1_555
O2 Y4 2.306331 1_554
O3 Y13 2.267239 1_655
O3 Y7 2.279632 1_555
O3 Y3 2.306129 1_555
O3 Y5 2.306331 1_655
O4 Y0 2.311755 1_565
O4 Y4 2.324691 1_555
O4 Y10 2.328100 1_565
O4 Y2 2.370395 1_556
O5 Y1 2.311755 1_645
O5 Y5 2.324691 1_655
O5 Y11 2.328100 1_545
O5 Y3 2.370395 1_555
O6 Y2 2.311755 1_545
O6 Y6 2.324691 1_555
O6 Y8 2.328100 1_545
O6 Y0 2.370395 1_554
O7 Y3 2.311755 1_465
O7 Y7 2.324691 1_455
O7 Y9 2.328100 1_565
O7 Y1 2.370395 1_555
O8 Y14 2.334744 1_555
O8 Y10 2.336725 1_555
O9 Y15 2.334744 1_455
O9 Y11 2.336725 1_455
O10 Y12 2.334744 1_555
O10 Y8 2.336725 1_555
O11 Y13 2.334744 1_655
O11 Y9 2.336725 1_655
O12 Y12 2.289828 1_555
O12 Y3 2.330123 1_555
O12 Y7 2.622195 1_555
O13 Y13 2.289828 1_555
O13 Y2 2.330123 1_555
O13 Y6 2.622195 1_555
O14 Y10 2.273612 1_565
O14 Y14 2.292881 1_555
O15 Y14 2.289828 1_555
O15 Y1 2.330123 1_555
O15 Y5 2.622195 1_555
O16 Y7 2.366842 1_555
O16 Y15 2.407050 1_555
O17 Y6 2.366842 1_556
O17 Y14 2.407050 1_555
O18 Y5 2.366842 1_555
O18 Y13 2.407050 1_555
O19 Y4 2.366842 1_554
O19 Y12 2.407050 1_555
O20 Y3 2.260610 1_565
O20 Y8 2.384396 1_555
O20 Y7 2.631884 1_555
O21 Y2 2.260610 1_545
O21 Y9 2.384396 1_555
O21 Y6 2.631884 1_555
O22 Y1 2.260610 1_545
O22 Y10 2.384396 1_555
O22 Y5 2.631884 1_555
O23 Y0 2.260610 1_565
O23 Y11 2.384396 1_555
O23 Y4 2.631884 1_555
O24 Y11 2.226641 1_545
O24 Y0 2.348735 1_555
O24 Y15 2.549676 1_555
O25 Y10 2.226641 1_565
O25 Y1 2.348735 1_555
O25 Y14 2.549676 1_555
O26 Y9 2.226641 1_565
O26 Y2 2.348735 1_555
O26 Y13 2.549676 1_555
O27 Y8 2.226641 1_545
O27 Y3 2.348735 1_555
O27 Y12 2.549676 1_555
O28 Y11 2.295590 1_555
O28 Y4 2.305083 1_555
O28 Y15 2.529532 1_555
O29 Y10 2.295590 1_555
O29 Y5 2.305083 1_555
O29 Y14 2.529532 1_555
O30 Y9 2.295590 1_555
O30 Y6 2.305083 1_555
O30 Y13 2.529532 1_555
O31 Y8 2.295590 1_555
O31 Y7 2.305083 1_555
O31 Y12 2.529532 1_555
O32 Y9 2.273612 1_665
O32 Y13 2.292881 1_655
O33 Y8 2.273612 1_545
O33 Y12 2.292881 1_555
O34 Y11 2.273612 1_445
O34 Y15 2.292881 1_455
O35 Y15 2.289828 1_555
O35 Y0 2.330123 1_555
O35 Y4 2.622195 1_555
