# generated using pymatgen
data_SrSi2O5
_symmetry_space_group_name_H-M   'P 1'
_cell_length_a   5.38669968
_cell_length_b   5.38669968
_cell_length_c   13.66936700
_cell_angle_alpha   90.00000000
_cell_angle_beta   90.00000000
_cell_angle_gamma   121.13584676
_symmetry_Int_Tables_number   1
_chemical_formula_structural   SrSi2O5
_chemical_formula_sum   'Sr4 Si8 O20'
_cell_volume   339.49951315
_cell_formula_units_Z   4
loop_
 _symmetry_equiv_pos_site_id
 _symmetry_equiv_pos_as_xyz
  1  'x, y, z'
loop_
 _atom_site_type_symbol
 _atom_site_label
 _atom_site_symmetry_multiplicity
 _atom_site_fract_x
 _atom_site_fract_y
 _atom_site_fract_z
 _atom_site_occupancy
  Sr  Sr0  1  0.66074000  0.33926000  0.91608700  1
  Sr  Sr1  1  0.16074000  0.83926000  0.58391300  1
  Sr  Sr2  1  0.33926000  0.66074000  0.08391300  1
  Sr  Sr3  1  0.83926000  0.16074000  0.41608700  1
  Si  Si0  1  0.49425000  0.50575000  0.63854900  1
  Si  Si1  1  0.00575000  0.99425000  0.13854900  1
  Si  Si2  1  0.17384400  0.82615600  0.31639700  1
  Si  Si3  1  0.99425000  0.00575000  0.86145100  1
  Si  Si4  1  0.82615600  0.17384400  0.68360300  1
  Si  Si5  1  0.50575000  0.49425000  0.36145100  1
  Si  Si6  1  0.32615600  0.67384400  0.81639700  1
  Si  Si7  1  0.67384400  0.32615600  0.18360300  1
  O  O0  1  0.83498700  0.16501300  0.10262500  1
  O  O1  1  0.84440100  0.66469500  0.40617400  1
  O  O2  1  0.16469500  0.34440100  0.90617400  1
  O  O3  1  0.16501300  0.83498700  0.89737500  1
  O  O4  1  0.33498700  0.66501300  0.39737500  1
  O  O5  1  0.66501300  0.33498700  0.60262500  1
  O  O6  1  0.48823500  0.51176500  0.75692700  1
  O  O7  1  0.66469500  0.84440100  0.59382600  1
  O  O8  1  0.01176500  0.98823500  0.25692700  1
  O  O9  1  0.33530500  0.15559900  0.40617400  1
  O  O10  1  0.34440100  0.16469500  0.09382600  1
  O  O11  1  0.00346200  0.49653800  0.75000000  1
  O  O12  1  0.15559900  0.33530500  0.59382600  1
  O  O13  1  0.65559900  0.83530500  0.90617400  1
  O  O14  1  0.83530500  0.65559900  0.09382600  1
  O  O15  1  0.98823500  0.01176500  0.74307300  1
  O  O16  1  0.99653800  0.50346200  0.25000000  1
  O  O17  1  0.49653800  0.00346200  0.25000000  1
  O  O18  1  0.51176500  0.48823500  0.24307300  1
  O  O19  1  0.50346200  0.99653800  0.75000000  1
loop_
_geom_bond_atom_site_label_1
_geom_bond_atom_site_label_2
_geom_bond_distance
_geom_bond_site_symmetry_2
O0 Si1 1.675825 1_645
O0 Si7 1.873876 1_555
O0 Sr2 2.659610 1_545
O0 Sr2 2.659610 1_655
O0 Sr0 3.029001 1_554
O1 Si5 1.677021 1_555
O1 Si2 1.953345 1_655
O1 Sr3 2.689884 1_565
O1 Sr3 2.703837 1_555
O1 Sr1 2.834383 1_655
O2 Si3 1.677021 1_455
O2 Si6 1.953345 1_555
O2 Sr0 2.689884 1_555
O2 Sr0 2.703837 1_455
O2 Sr2 2.834383 1_556
O3 Si3 1.675825 1_465
O3 Si6 1.873876 1_555
O3 Sr0 2.659610 1_565
O3 Sr0 2.659610 1_455
O3 Sr2 3.029001 1_556
O4 Si5 1.675825 1_555
O4 Si2 1.873876 1_555
O4 Sr3 2.659610 1_455
O4 Sr3 2.659610 1_565
O4 Sr1 3.029001 1_555
O5 Si0 1.675825 1_555
O5 Si4 1.873876 1_555
O5 Sr1 2.659610 1_545
O5 Sr1 2.659610 1_655
O5 Sr3 3.029001 1_555
O6 Si0 1.619136 1_555
O6 Si6 1.724417 1_555
O6 Sr0 2.711679 1_555
O7 Si0 1.677021 1_555
O7 Si4 1.953345 1_565
O7 Sr1 2.689884 1_655
O7 Sr1 2.703837 1_555
O7 Sr3 2.834383 1_565
O8 Si1 1.619136 1_555
O8 Si2 1.724417 1_555
O8 Sr3 2.711679 1_465
O9 Si5 1.677021 1_555
O9 Si2 1.953345 1_545
O9 Sr3 2.689884 1_455
O9 Sr3 2.703837 1_555
O9 Sr1 2.834383 1_545
O10 Si1 1.677021 1_545
O10 Si7 1.953345 1_555
O10 Sr2 2.689884 1_555
O10 Sr2 2.703837 1_545
O10 Sr0 2.834383 1_554
O11 Si4 1.743735 1_455
O11 Si6 1.743735 1_555
O11 Sr1 2.768180 1_555
O11 Sr0 2.768180 1_455
O12 Si0 1.677021 1_555
O12 Si4 1.953345 1_455
O12 Sr1 2.689884 1_545
O12 Sr1 2.703837 1_555
O12 Sr3 2.834383 1_455
O13 Si3 1.677021 1_565
O13 Si6 1.953345 1_555
O13 Sr0 2.689884 1_555
O13 Sr0 2.703837 1_565
O13 Sr2 2.834383 1_556
O14 Si1 1.677021 1_655
O14 Si7 1.953345 1_555
O14 Sr2 2.689884 1_555
O14 Sr2 2.703837 1_655
O14 Sr0 2.834383 1_554
O15 Si3 1.619136 1_555
O15 Si4 1.724417 1_555
O15 Sr1 2.711679 1_645
O16 Si2 1.743735 1_655
O16 Si7 1.743735 1_555
O16 Sr2 2.768180 1_655
O16 Sr3 2.768180 1_555
O17 Si2 1.743735 1_545
O17 Si7 1.743735 1_555
O17 Sr2 2.768180 1_545
O17 Sr3 2.768180 1_555
O18 Si5 1.619136 1_555
O18 Si7 1.724417 1_555
O18 Sr2 2.711679 1_555
O19 Si4 1.743735 1_565
O19 Si6 1.743735 1_555
O19 Sr1 2.768180 1_555
O19 Sr0 2.768180 1_565
