# generated using pymatgen
data_Li2Co(PO3)4
_symmetry_space_group_name_H-M   'P 1'
_cell_length_a   4.96649000
_cell_length_b   7.16646025
_cell_length_c   7.60494922
_cell_angle_alpha   115.31096437
_cell_angle_beta   82.30281397
_cell_angle_gamma   109.79177613
_symmetry_Int_Tables_number   1
_chemical_formula_structural   Li2Co(PO3)4
_chemical_formula_sum   'Li2 Co1 P4 O12'
_cell_volume   230.21903294
_cell_formula_units_Z   1
loop_
 _symmetry_equiv_pos_site_id
 _symmetry_equiv_pos_as_xyz
  1  'x, y, z'
loop_
 _atom_site_type_symbol
 _atom_site_label
 _atom_site_symmetry_multiplicity
 _atom_site_fract_x
 _atom_site_fract_y
 _atom_site_fract_z
 _atom_site_occupancy
  Li  Li0  1  0.97660000  0.24495400  0.44621600  1
  Li  Li1  1  0.02340000  0.75504600  0.55378400  1
  Co  Co0  1  0.00000000  0.00000000  0.00000000  1
  P  P0  1  0.43897500  0.80730700  0.21156500  1
  P  P1  1  0.56102500  0.19269300  0.78843500  1
  P  P2  1  0.56187500  0.40315400  0.21689800  1
  P  P3  1  0.43812500  0.59684600  0.78310200  1
  O  O0  1  0.71735600  0.98213100  0.20944400  1
  O  O1  1  0.29335600  0.69336300  0.99502800  1
  O  O2  1  0.73463200  0.75625000  0.78807500  1
  O  O3  1  0.28264400  0.01786900  0.79055600  1
  O  O4  1  0.70664400  0.30663700  0.00497200  1
  O  O5  1  0.22956800  0.53779400  0.63072800  1
  O  O6  1  0.26536800  0.24375000  0.21192500  1
  O  O7  1  0.77043200  0.46220600  0.36927200  1
  O  O8  1  0.52685000  0.61753300  0.22109600  1
  O  O9  1  0.22082200  0.86982100  0.35703100  1
  O  O10  1  0.47315000  0.38246700  0.77890400  1
  O  O11  1  0.77917800  0.13017900  0.64296900  1
loop_
_geom_bond_atom_site_label_1
_geom_bond_atom_site_label_2
_geom_bond_distance
_geom_bond_site_symmetry_2
Li0 O11 1.997508 1_555
Li0 O5 2.029871 1_655
Li0 O0 2.127545 1_545
Li0 O6 2.131274 1_655
Li0 O7 2.415359 1_555
Li1 O9 1.997508 1_555
Li1 O7 2.029871 1_455
Li1 O3 2.127545 1_565
Li1 O2 2.131274 1_455
Li1 O5 2.415359 1_555
Co0 O0 1.994414 1_445
Co0 O3 1.994414 1_554
Co0 O2 1.997132 1_444
Co0 O6 1.997132 1_555
O0 P0 1.523062 1_555
O1 P3 1.632814 1_555
O1 P0 1.634297 1_556
O2 P3 1.521093 1_555
O3 P1 1.523062 1_555
O4 P2 1.632814 1_555
O4 P1 1.634297 1_554
O5 P3 1.483285 1_555
O6 P2 1.521093 1_555
O7 P2 1.483285 1_555
O8 P2 1.590336 1_555
O8 P0 1.593758 1_555
O9 P0 1.477247 1_555
O10 P3 1.590336 1_555
O10 P1 1.593758 1_555
O11 P1 1.477247 1_555
