# generated using pymatgen
data_CsTmCoS3
_symmetry_space_group_name_H-M   'P 1'
_cell_length_a   7.98189818
_cell_length_b   7.98189818
_cell_length_c   10.37362526
_cell_angle_alpha   90.00000000
_cell_angle_beta   90.00000000
_cell_angle_gamma   151.37376547
_symmetry_Int_Tables_number   1
_chemical_formula_structural   CsTmCoS3
_chemical_formula_sum   'Cs2 Tm2 Co2 S6'
_cell_volume   316.63833182
_cell_formula_units_Z   2
loop_
 _symmetry_equiv_pos_site_id
 _symmetry_equiv_pos_as_xyz
  1  'x, y, z'
loop_
 _atom_site_type_symbol
 _atom_site_label
 _atom_site_symmetry_multiplicity
 _atom_site_fract_x
 _atom_site_fract_y
 _atom_site_fract_z
 _atom_site_occupancy
  Cs  Cs0  1  0.26204171  0.73795829  0.75000000  1
  Cs  Cs1  1  0.73795829  0.26204171  0.25000000  1
  Tm  Tm0  1  0.00000000  -0.00000000  0.50000000  1
  Tm  Tm1  1  0.00000000  -0.00000000  -0.00000000  1
  Co  Co0  1  0.53634607  0.46365393  0.75000000  1
  Co  Co1  1  0.46365393  0.53634607  0.25000000  1
  S  S0  1  0.38829550  0.61170450  0.06209973  1
  S  S1  1  0.61170450  0.38829550  0.56209973  1
  S  S2  1  0.38829550  0.61170450  0.43790027  1
  S  S3  1  0.61170450  0.38829550  0.93790027  1
  S  S4  1  0.95172578  0.04827422  0.75000000  1
  S  S5  1  0.04827422  0.95172578  0.25000000  1
loop_
_geom_bond_atom_site_label_1
_geom_bond_atom_site_label_2
_geom_bond_distance
_geom_bond_site_symmetry_2
Cs0 S4 3.535920 1_455
Cs0 S4 3.535920 1_565
Cs0 S1 3.619535 1_565
Cs0 S3 3.619535 1_565
Cs0 S1 3.619535 1_455
Cs0 S3 3.619535 1_455
Cs0 S0 3.781007 1_556
Cs0 S2 3.781007 1_555
Cs1 S5 3.535920 1_545
Cs1 S5 3.535920 1_655
Cs1 S0 3.619535 1_655
Cs1 S2 3.619535 1_655
Cs1 S2 3.619535 1_545
Cs1 S0 3.619535 1_545
Cs1 S1 3.781007 1_555
Cs1 S3 3.781007 1_554
Co0 S1 2.271163 1_555
Co0 S3 2.271163 1_555
Co0 S4 2.367948 1_565
Co0 S4 2.367948 1_455
Co1 S0 2.271163 1_555
Co1 S2 2.271163 1_555
Co1 S5 2.367948 1_545
Co1 S5 2.367948 1_655
S0 Tm1 2.700819 1_665
S0 Tm1 2.700819 1_555
S1 Tm0 2.700819 1_555
S1 Tm0 2.700819 1_665
S2 Tm0 2.700819 1_555
S2 Tm0 2.700819 1_665
S3 Tm1 2.700819 1_666
S3 Tm1 2.700819 1_556
S4 Tm0 2.698767 1_655
S4 Tm1 2.698767 1_656
S5 Tm1 2.698767 1_565
S5 Tm0 2.698767 1_565
