# generated using pymatgen
data_LiI
_symmetry_space_group_name_H-M   'P 1'
_cell_length_a   4.54406925
_cell_length_b   4.54406935
_cell_length_c   7.29169756
_cell_angle_alpha   90.00000000
_cell_angle_beta   90.00000000
_cell_angle_gamma   119.99997707
_symmetry_Int_Tables_number   1
_chemical_formula_structural   LiI
_chemical_formula_sum   'Li2 I2'
_cell_volume   130.39149697
_cell_formula_units_Z   2
loop_
 _symmetry_equiv_pos_site_id
 _symmetry_equiv_pos_as_xyz
  1  'x, y, z'
loop_
 _atom_site_type_symbol
 _atom_site_label
 _atom_site_symmetry_multiplicity
 _atom_site_fract_x
 _atom_site_fract_y
 _atom_site_fract_z
 _atom_site_occupancy
  Li  Li0  1  0.33333300  0.66666700  0.99684166  1
  Li  Li1  1  0.66666700  0.33333300  0.49684166  1
  I  I0  1  0.33333300  0.66666700  0.37815834  1
  I  I1  1  0.66666700  0.33333300  0.87815834  1
loop_
_geom_bond_atom_site_label_1
_geom_bond_atom_site_label_2
_geom_bond_distance
_geom_bond_site_symmetry_2
I0 Li1 2.762565 1_455
I0 Li1 2.762565 1_565
I0 Li1 2.762572 1_555
I0 Li0 2.780446 1_554
I1 Li0 2.762565 1_655
I1 Li0 2.762565 1_545
I1 Li0 2.762572 1_555
I1 Li1 2.780446 1_555
