# generated using pymatgen
data_K3Nd(PS4)2
_symmetry_space_group_name_H-M   'P 1'
_cell_length_a   17.24130200
_cell_length_b   9.24675600
_cell_length_c   9.66927553
_cell_angle_alpha   89.23204345
_cell_angle_beta   90.00000000
_cell_angle_gamma   90.00000000
_symmetry_Int_Tables_number   1
_chemical_formula_structural   K3Nd(PS4)2
_chemical_formula_sum   'K12 Nd4 P8 S32'
_cell_volume   1541.39654417
_cell_formula_units_Z   4
loop_
 _symmetry_equiv_pos_site_id
 _symmetry_equiv_pos_as_xyz
  1  'x, y, z'
loop_
 _atom_site_type_symbol
 _atom_site_label
 _atom_site_symmetry_multiplicity
 _atom_site_fract_x
 _atom_site_fract_y
 _atom_site_fract_z
 _atom_site_occupancy
  K  K0  1  0.70709800  0.12304600  0.87503900  1
  K  K1  1  0.20709800  0.87695400  0.62496100  1
  K  K2  1  0.29290200  0.87695400  0.12496100  1
  K  K3  1  0.79290200  0.12304600  0.37503900  1
  K  K4  1  0.78798900  0.61832400  0.87035900  1
  K  K5  1  0.28798900  0.38167600  0.62964100  1
  K  K6  1  0.21201100  0.38167600  0.12964100  1
  K  K7  1  0.71201100  0.61832400  0.37035900  1
  K  K8  1  0.53030700  0.73250600  0.98609900  1
  K  K9  1  0.03030700  0.26749400  0.51390100  1
  K  K10  1  0.46969300  0.26749400  0.01390100  1
  K  K11  1  0.96969300  0.73250600  0.48609900  1
  Nd  Nd0  1  0.98544900  0.22759000  0.97458300  1
  Nd  Nd1  1  0.48544900  0.77241000  0.52541700  1
  Nd  Nd2  1  0.01455100  0.77241000  0.02541700  1
  Nd  Nd3  1  0.51455100  0.22759000  0.47458300  1
  P  P0  1  0.40039700  0.00449800  0.74347900  1
  P  P1  1  0.90039700  0.99550200  0.75652100  1
  P  P2  1  0.59960300  0.99550200  0.25652100  1
  P  P3  1  0.09960300  0.00449800  0.24347900  1
  P  P4  1  0.59769400  0.47530700  0.71945000  1
  P  P5  1  0.09769400  0.52469300  0.78055000  1
  P  P6  1  0.40230600  0.52469300  0.28055000  1
  P  P7  1  0.90230600  0.47530700  0.21945000  1
  S  S0  1  0.32545700  0.11832700  0.86001800  1
  S  S1  1  0.82545700  0.88167300  0.63998200  1
  S  S2  1  0.67454300  0.88167300  0.13998200  1
  S  S3  1  0.17454300  0.11832700  0.36001800  1
  S  S4  1  0.88694500  0.21395600  0.72656900  1
  S  S5  1  0.38694500  0.78604400  0.77343100  1
  S  S6  1  0.11305500  0.78604400  0.27343100  1
  S  S7  1  0.61305500  0.21395600  0.22656900  1
  S  S8  1  0.51654600  0.05475000  0.75797800  1
  S  S9  1  0.01654600  0.94525000  0.74202200  1
  S  S10  1  0.48345400  0.94525000  0.24202200  1
  S  S11  1  0.98345400  0.05475000  0.25797800  1
  S  S12  1  0.38027600  0.03506700  0.53303700  1
  S  S13  1  0.88027600  0.96493300  0.96696300  1
  S  S14  1  0.61972400  0.96493300  0.46696300  1
  S  S15  1  0.11972400  0.03506700  0.03303700  1
  S  S16  1  0.62532500  0.43477700  0.91954700  1
  S  S17  1  0.12532500  0.56522300  0.58045300  1
  S  S18  1  0.37467500  0.56522300  0.08045300  1
  S  S19  1  0.87467500  0.43477700  0.41954700  1
  S  S20  1  0.65631000  0.33721600  0.59122700  1
  S  S21  1  0.15631000  0.66278400  0.90877300  1
  S  S22  1  0.34369000  0.66278400  0.40877300  1
  S  S23  1  0.84369000  0.33721600  0.09122700  1
  S  S24  1  0.62657800  0.68608600  0.67042700  1
  S  S25  1  0.12657800  0.31391400  0.82957300  1
  S  S26  1  0.37342200  0.31391400  0.32957300  1
  S  S27  1  0.87342200  0.68608600  0.17042700  1
  S  S28  1  0.97971900  0.54223600  0.82193200  1
  S  S29  1  0.47971900  0.45776400  0.67806800  1
  S  S30  1  0.02028100  0.45776400  0.17806800  1
  S  S31  1  0.52028100  0.54223600  0.32193200  1
loop_
_geom_bond_atom_site_label_1
_geom_bond_atom_site_label_2
_geom_bond_distance
_geom_bond_site_symmetry_2
K0 S16 3.242686 1_555
K0 S2 3.421416 1_546
K0 S13 3.436251 1_545
K0 S20 3.474755 1_555
K0 S4 3.514282 1_555
K0 S8 3.534513 1_555
K0 S23 3.734796 1_556
K1 S17 3.242686 1_555
K1 S3 3.421416 1_565
K1 S12 3.436251 1_565
K1 S21 3.474755 1_555
K1 S5 3.514282 1_555
K1 S9 3.534513 1_555
K1 S22 3.734796 1_555
K2 S18 3.242686 1_555
K2 S0 3.421416 1_564
K2 S15 3.436251 1_565
K2 S22 3.474755 1_555
K2 S6 3.514282 1_555
K2 S10 3.534513 1_555
K2 S21 3.734796 1_554
K3 S19 3.242686 1_555
K3 S1 3.421416 1_545
K3 S14 3.436251 1_545
K3 S23 3.474755 1_555
K3 S7 3.514282 1_555
K3 S11 3.534513 1_555
K3 S20 3.734796 1_555
K4 S16 3.309161 1_555
K4 S27 3.321046 1_556
K4 S1 3.341233 1_555
K4 S28 3.413295 1_555
K4 S24 3.441237 1_555
K4 S23 3.477206 1_556
K4 S13 3.708990 1_555
K5 S17 3.309161 1_555
K5 S26 3.321046 1_555
K5 S0 3.341233 1_555
K5 S29 3.413295 1_555
K5 S25 3.441237 1_555
K5 S22 3.477206 1_555
K5 S12 3.708990 1_555
K6 S18 3.309161 1_555
K6 S25 3.321046 1_554
K6 S3 3.341233 1_555
K6 S30 3.413295 1_555
K6 S26 3.441237 1_555
K6 S21 3.477206 1_554
K6 S15 3.708990 1_555
K7 S19 3.309161 1_555
K7 S24 3.321046 1_555
K7 S2 3.341233 1_555
K7 S31 3.413295 1_555
K7 S27 3.441237 1_555
K7 S20 3.477206 1_555
K7 S14 3.708990 1_555
K8 S2 3.218031 1_556
K8 S18 3.222931 1_556
K8 S5 3.248982 1_555
K8 S16 3.274838 1_555
K8 S10 3.282755 1_556
K8 S24 3.505863 1_555
K8 S31 3.676529 1_556
K8 S8 3.691096 1_565
K9 S3 3.218031 1_555
K9 S19 3.222931 1_455
K9 S4 3.248982 1_455
K9 S17 3.274838 1_555
K9 S11 3.282755 1_455
K9 S25 3.505863 1_555
K9 S30 3.676529 1_555
K9 S9 3.691096 1_545
K10 S0 3.218031 1_554
K10 S16 3.222931 1_554
K10 S7 3.248982 1_555
K10 S18 3.274838 1_555
K10 S8 3.282755 1_554
K10 S26 3.505863 1_555
K10 S29 3.676529 1_554
K10 S10 3.691096 1_545
K11 S1 3.218031 1_555
K11 S17 3.222931 1_655
K11 S6 3.248982 1_655
K11 S19 3.274838 1_555
K11 S9 3.282755 1_655
K11 S27 3.505863 1_555
K11 S28 3.676529 1_555
K11 S11 3.691096 1_565
Nd0 S23 2.881658 1_556
Nd0 S25 2.914420 1_655
Nd0 S4 2.942670 1_555
Nd0 S15 2.970054 1_656
Nd0 S30 2.978944 1_656
Nd0 S13 3.032665 1_545
Nd0 S11 3.153869 1_556
Nd0 S28 3.246262 1_555
Nd0 S9 3.509611 1_645
Nd1 S22 2.881658 1_555
Nd1 S24 2.914420 1_555
Nd1 S5 2.942670 1_555
Nd1 S14 2.970054 1_555
Nd1 S31 2.978944 1_555
Nd1 S12 3.032665 1_565
Nd1 S10 3.153869 1_555
Nd1 S29 3.246262 1_555
Nd1 S8 3.509611 1_565
Nd2 S21 2.881658 1_554
Nd2 S27 2.914420 1_455
Nd2 S6 2.942670 1_555
Nd2 S13 2.970054 1_454
Nd2 S28 2.978944 1_454
Nd2 S15 3.032665 1_565
Nd2 S9 3.153869 1_554
Nd2 S30 3.246262 1_555
Nd2 S11 3.509611 1_465
Nd3 S20 2.881658 1_555
Nd3 S26 2.914420 1_555
Nd3 S7 2.942670 1_555
Nd3 S12 2.970054 1_555
Nd3 S29 2.978944 1_555
Nd3 S14 3.032665 1_545
Nd3 S8 3.153869 1_555
Nd3 S31 3.246262 1_555
Nd3 S10 3.509611 1_545
P0 S0 2.019620 1_555
P0 S5 2.049963 1_545
P0 S8 2.060962 1_555
P0 S12 2.079742 1_555
P1 S1 2.019620 1_555
P1 S4 2.049963 1_565
P1 S9 2.060962 1_655
P1 S13 2.079742 1_555
P2 S2 2.019620 1_555
P2 S7 2.049963 1_565
P2 S10 2.060962 1_555
P2 S14 2.079742 1_555
P3 S3 2.019620 1_555
P3 S6 2.049963 1_545
P3 S11 2.060962 1_455
P3 S15 2.079742 1_555
P4 S16 2.022719 1_555
P4 S20 2.057037 1_555
P4 S24 2.060732 1_555
P4 S29 2.079781 1_555
P5 S17 2.022719 1_555
P5 S21 2.057037 1_555
P5 S25 2.060732 1_555
P5 S28 2.079781 1_455
P6 S18 2.022719 1_555
P6 S22 2.057037 1_555
P6 S26 2.060732 1_555
P6 S31 2.079781 1_555
P7 S19 2.022719 1_555
P7 S23 2.057037 1_555
P7 S27 2.060732 1_555
P7 S30 2.079781 1_655
