# generated using pymatgen
data_AlH15(NF)6
_symmetry_space_group_name_H-M   'P 1'
_cell_length_a   9.06823600
_cell_length_b   9.23626600
_cell_length_c   10.62345300
_cell_angle_alpha   90.00000000
_cell_angle_beta   90.00000000
_cell_angle_gamma   90.00000000
_symmetry_Int_Tables_number   1
_chemical_formula_structural   AlH15(NF)6
_chemical_formula_sum   'Al4 H60 N24 F24'
_cell_volume   889.78472685
_cell_formula_units_Z   4
loop_
 _symmetry_equiv_pos_site_id
 _symmetry_equiv_pos_as_xyz
  1  'x, y, z'
loop_
 _atom_site_type_symbol
 _atom_site_label
 _atom_site_symmetry_multiplicity
 _atom_site_fract_x
 _atom_site_fract_y
 _atom_site_fract_z
 _atom_site_occupancy
  Al  Al0  1  0.45576500  0.51351200  0.55037100  1
  Al  Al1  1  0.95576500  0.98648800  0.44962900  1
  Al  Al2  1  0.54423500  0.01351200  0.94962900  1
  Al  Al3  1  0.04423500  0.48648800  0.05037100  1
  H  H0  1  0.19348000  0.37120000  0.83179600  1
  H  H1  1  0.69348000  0.12880000  0.16820400  1
  H  H2  1  0.80652000  0.87120000  0.66820400  1
  H  H3  1  0.30652000  0.62880000  0.33179600  1
  H  H4  1  0.33752500  0.26392700  0.87363100  1
  H  H5  1  0.83752500  0.23607300  0.12636900  1
  H  H6  1  0.66247500  0.76392700  0.62636900  1
  H  H7  1  0.16247500  0.73607300  0.37363100  1
  H  H8  1  0.31908400  0.31522000  0.71920200  1
  H  H9  1  0.81908400  0.18478000  0.28079800  1
  H  H10  1  0.68091600  0.81522000  0.78079800  1
  H  H11  1  0.18091600  0.68478000  0.21920200  1
  H  H12  1  0.11829200  0.16704700  0.70149200  1
  H  H13  1  0.61829200  0.33295300  0.29850800  1
  H  H14  1  0.88170800  0.66704700  0.79850800  1
  H  H15  1  0.38170800  0.83295300  0.20149200  1
  H  H16  1  0.24613200  0.07417600  0.77279600  1
  H  H17  1  0.74613200  0.42582400  0.22720400  1
  H  H18  1  0.75386800  0.57417600  0.72720400  1
  H  H19  1  0.25386800  0.92582400  0.27279600  1
  H  H20  1  0.19565400  0.20522200  0.37340700  1
  H  H21  1  0.69565400  0.29477800  0.62659300  1
  H  H22  1  0.80434600  0.70522200  0.12659300  1
  H  H23  1  0.30434600  0.79477800  0.87340700  1
  H  H24  1  0.31605600  0.34402200  0.33719500  1
  H  H25  1  0.81605600  0.15597800  0.66280500  1
  H  H26  1  0.68394400  0.84402200  0.16280500  1
  H  H27  1  0.18394400  0.65597800  0.83719500  1
  H  H28  1  0.15796100  0.32578800  0.25598900  1
  H  H29  1  0.65796100  0.17421200  0.74401100  1
  H  H30  1  0.84203900  0.82578800  0.24401100  1
  H  H31  1  0.34203900  0.67421200  0.75598900  1
  H  H32  1  0.34220300  0.22455700  0.13677800  1
  H  H33  1  0.84220300  0.27544300  0.86322200  1
  H  H34  1  0.65779700  0.72455700  0.36322200  1
  H  H35  1  0.15779700  0.77544300  0.63677800  1
  H  H36  1  0.39743700  0.12393900  0.25889600  1
  H  H37  1  0.89743700  0.37606100  0.74110400  1
  H  H38  1  0.60256300  0.62393900  0.24110400  1
  H  H39  1  0.10256300  0.87606100  0.75889600  1
  H  H40  1  0.68883400  0.50347900  0.98604300  1
  H  H41  1  0.18883400  0.99652100  0.01395700  1
  H  H42  1  0.31116600  0.00347900  0.51395700  1
  H  H43  1  0.81116600  0.49652100  0.48604300  1
  H  H44  1  0.55380700  0.37860500  0.99877200  1
  H  H45  1  0.05380700  0.12139500  0.00122800  1
  H  H46  1  0.44619300  0.87860500  0.50122800  1
  H  H47  1  0.94619300  0.62139500  0.49877200  1
  H  H48  1  0.55252700  0.49445800  0.87498800  1
  H  H49  1  0.05252700  0.00554200  0.12501200  1
  H  H50  1  0.44747300  0.99445800  0.62501200  1
  H  H51  1  0.94747300  0.50554200  0.37498800  1
  H  H52  1  0.38589100  0.54480900  0.04977100  1
  H  H53  1  0.88589100  0.95519100  0.95022900  1
  H  H54  1  0.61410900  0.04480900  0.45022900  1
  H  H55  1  0.11410900  0.45519100  0.54977100  1
  H  H56  1  0.49866500  0.68172100  0.00269900  1
  H  H57  1  0.99866500  0.81827900  0.99730100  1
  H  H58  1  0.50133500  0.18172100  0.49730100  1
  H  H59  1  0.00133500  0.31827900  0.50269900  1
  N  N0  1  0.26191700  0.28694400  0.80195700  1
  N  N1  1  0.76191700  0.21305600  0.19804300  1
  N  N2  1  0.73808300  0.78694400  0.69804300  1
  N  N3  1  0.23808300  0.71305600  0.30195700  1
  N  N4  1  0.17299700  0.15782100  0.78552900  1
  N  N5  1  0.67299700  0.34217900  0.21447100  1
  N  N6  1  0.82700300  0.65782100  0.71447100  1
  N  N7  1  0.32700300  0.84217900  0.28552900  1
  N  N8  1  0.24133200  0.26772200  0.30104100  1
  N  N9  1  0.74133200  0.23227800  0.69895900  1
  N  N10  1  0.75866800  0.76772200  0.19895900  1
  N  N11  1  0.25866800  0.73227800  0.80104100  1
  N  N12  1  0.30691300  0.16663700  0.21358400  1
  N  N13  1  0.80691300  0.33336300  0.78641600  1
  N  N14  1  0.69308700  0.66663700  0.28641600  1
  N  N15  1  0.19308700  0.83336300  0.71358400  1
  N  N16  1  0.57651400  0.48425300  0.97085400  1
  N  N17  1  0.07651400  0.01574700  0.02914600  1
  N  N18  1  0.42348600  0.98425300  0.52914600  1
  N  N19  1  0.92348600  0.51574700  0.47085400  1
  N  N20  1  0.49264700  0.58383300  0.04863500  1
  N  N21  1  0.99264700  0.91616700  0.95136500  1
  N  N22  1  0.50735300  0.08383300  0.45136500  1
  N  N23  1  0.00735300  0.41616700  0.54863500  1
  F  F0  1  0.64292600  0.43600400  0.53389600  1
  F  F1  1  0.14292600  0.06399600  0.46610400  1
  F  F2  1  0.35707400  0.93600400  0.96610400  1
  F  F3  1  0.85707400  0.56399600  0.03389600  1
  F  F4  1  0.48273600  0.53951900  0.72316900  1
  F  F5  1  0.98273600  0.96048100  0.27683100  1
  F  F6  1  0.51726400  0.03951900  0.77683100  1
  F  F7  1  0.01726400  0.46048100  0.22316900  1
  F  F8  1  0.26995300  0.58240200  0.56444300  1
  F  F9  1  0.76995300  0.91759800  0.43555700  1
  F  F10  1  0.73004700  0.08240200  0.93555700  1
  F  F11  1  0.23004700  0.41759800  0.06444300  1
  F  F12  1  0.42543800  0.48896900  0.37920100  1
  F  F13  1  0.92543800  0.01103100  0.62079900  1
  F  F14  1  0.57456200  0.98896900  0.12079900  1
  F  F15  1  0.07456200  0.51103100  0.87920100  1
  F  F16  1  0.38924400  0.32826400  0.57879800  1
  F  F17  1  0.88924400  0.17173600  0.42120200  1
  F  F18  1  0.61075600  0.82826400  0.92120200  1
  F  F19  1  0.11075600  0.67173600  0.07879800  1
  F  F20  1  0.53010200  0.69699900  0.52566400  1
  F  F21  1  0.03010200  0.80300100  0.47433600  1
  F  F22  1  0.46989800  0.19699900  0.97433600  1
  F  F23  1  0.96989800  0.30300100  0.02566400  1
loop_
_geom_bond_atom_site_label_1
_geom_bond_atom_site_label_2
_geom_bond_distance
_geom_bond_site_symmetry_2
Al0 F8 1.807316 1_555
Al0 F16 1.839186 1_555
Al0 F20 1.842671 1_555
Al0 F0 1.850319 1_555
Al0 F12 1.853013 1_555
Al0 F4 1.867446 1_555
Al1 F9 1.807316 1_555
Al1 F17 1.839186 1_565
Al1 F21 1.842671 1_655
Al1 F1 1.850319 1_665
Al1 F13 1.853013 1_565
Al1 F5 1.867446 1_555
Al2 F10 1.807316 1_555
Al2 F18 1.839186 1_545
Al2 F22 1.842671 1_555
Al2 F2 1.850319 1_545
Al2 F14 1.853013 1_546
Al2 F6 1.867446 1_555
Al3 F11 1.807316 1_555
Al3 F19 1.839186 1_555
Al3 F23 1.842671 1_455
Al3 F3 1.850319 1_455
Al3 F15 1.853013 1_554
Al3 F7 1.867446 1_555
H0 N0 1.044627 1_555
H1 N1 1.044627 1_555
H2 N2 1.044627 1_555
H3 N3 1.044627 1_555
H4 N0 1.046448 1_555
H5 N1 1.046448 1_555
H6 N2 1.046448 1_555
H7 N3 1.046448 1_555
H8 N0 1.053491 1_555
H9 N1 1.053491 1_555
H10 N2 1.053491 1_555
H11 N3 1.053491 1_555
H12 N4 1.024881 1_555
H13 N5 1.024881 1_555
H14 N6 1.024881 1_555
H15 N7 1.024881 1_555
H16 N4 1.027132 1_555
H17 N5 1.027132 1_555
H18 N6 1.027132 1_555
H19 N7 1.027132 1_555
H20 N8 1.046820 1_555
H21 N9 1.046820 1_555
H22 N10 1.046820 1_555
H23 N11 1.046820 1_555
H24 N8 1.050390 1_555
H25 N9 1.050390 1_555
H26 N10 1.050390 1_555
H27 N11 1.050390 1_555
H28 N8 1.043204 1_555
H29 N9 1.043204 1_555
H30 N10 1.043204 1_555
H31 N11 1.043204 1_555
H32 N12 1.026823 1_555
H33 N13 1.026823 1_555
H34 N14 1.026823 1_555
H35 N15 1.026823 1_555
H36 N12 1.030102 1_555
H37 N13 1.030102 1_555
H38 N14 1.030102 1_555
H39 N15 1.030102 1_555
H40 N16 1.046424 1_555
H41 N17 1.046424 1_565
H42 N18 1.046424 1_545
H43 N19 1.046424 1_555
H44 N16 1.040449 1_555
H45 N17 1.040449 1_555
H46 N18 1.040449 1_555
H47 N19 1.040449 1_555
H48 N16 1.045655 1_555
H49 N17 1.045655 1_555
H50 N18 1.045655 1_555
H51 N19 1.045655 1_555
H52 N20 1.033081 1_555
H53 N21 1.033081 1_555
H54 N22 1.033081 1_555
H55 N23 1.033081 1_555
H56 N20 1.028860 1_555
H57 N21 1.028860 1_555
H58 N22 1.028860 1_555
H59 N23 1.028860 1_555
F16 H8 1.626068 1_555
F17 H9 1.626068 1_555
F18 H10 1.626068 1_555
F19 H11 1.626068 1_555
