# generated using pymatgen
data_Ti3Ni3O
_symmetry_space_group_name_H-M   'P 1'
_cell_length_a   7.77024085
_cell_length_b   7.77024085
_cell_length_c   7.77024085
_cell_angle_alpha   60.00000000
_cell_angle_beta   60.00000000
_cell_angle_gamma   60.00000000
_symmetry_Int_Tables_number   1
_chemical_formula_structural   Ti3Ni3O
_chemical_formula_sum   'Ti12 Ni12 O4'
_cell_volume   331.73282323
_cell_formula_units_Z   4
loop_
 _symmetry_equiv_pos_site_id
 _symmetry_equiv_pos_as_xyz
  1  'x, y, z'
loop_
 _atom_site_type_symbol
 _atom_site_label
 _atom_site_symmetry_multiplicity
 _atom_site_fract_x
 _atom_site_fract_y
 _atom_site_fract_z
 _atom_site_occupancy
  Ti  Ti0  1  0.69372200  0.30627800  0.69372200  1
  Ti  Ti1  1  0.94372200  0.55627800  0.55627800  1
  Ti  Ti2  1  0.55627800  0.94372200  0.94372200  1
  Ti  Ti3  1  0.94372200  0.55627800  0.94372200  1
  Ti  Ti4  1  0.55627800  0.55627800  0.94372200  1
  Ti  Ti5  1  0.94372200  0.94372200  0.55627800  1
  Ti  Ti6  1  0.69372200  0.69372200  0.30627800  1
  Ti  Ti7  1  0.30627800  0.69372200  0.69372200  1
  Ti  Ti8  1  0.69372200  0.30627800  0.30627800  1
  Ti  Ti9  1  0.30627800  0.30627800  0.69372200  1
  Ti  Ti10  1  0.55627800  0.94372200  0.55627800  1
  Ti  Ti11  1  0.30627800  0.69372200  0.30627800  1
  Ni  Ni0  1  0.12500000  0.12500000  0.12500000  1
  Ni  Ni1  1  0.62500000  0.12500000  0.12500000  1
  Ni  Ni2  1  0.12500000  0.62500000  0.12500000  1
  Ni  Ni3  1  0.12500000  0.12500000  0.62500000  1
  Ni  Ni4  1  0.33569300  0.33569300  0.33569300  1
  Ni  Ni5  1  0.25707800  0.91430700  0.91430700  1
  Ni  Ni6  1  0.91430700  0.25707800  0.91430700  1
  Ni  Ni7  1  0.91430700  0.91430700  0.25707800  1
  Ni  Ni8  1  0.33569300  0.99292200  0.33569300  1
  Ni  Ni9  1  0.33569300  0.33569300  0.99292200  1
  Ni  Ni10  1  0.99292200  0.33569300  0.33569300  1
  Ni  Ni11  1  0.91430700  0.91430700  0.91430700  1
  O  O0  1  0.62500000  0.62500000  0.62500000  1
  O  O1  1  0.12500000  0.62500000  0.62500000  1
  O  O2  1  0.62500000  0.12500000  0.62500000  1
  O  O3  1  0.62500000  0.62500000  0.12500000  1
loop_
_geom_bond_atom_site_label_1
_geom_bond_atom_site_label_2
_geom_bond_distance
_geom_bond_site_symmetry_2
Ni0 Ni8 2.394488 1_545
Ni0 Ni6 2.394488 1_454
Ni0 Ni9 2.394488 1_554
Ni0 Ni7 2.394488 1_445
Ni0 Ni10 2.394488 1_455
Ni0 Ni5 2.394488 1_544
Ni0 Ti8 2.782391 1_455
Ni0 Ti9 2.782391 1_554
Ni0 Ti3 2.782391 1_454
Ni0 Ti11 2.782391 1_545
Ni0 Ti5 2.782391 1_445
Ni0 Ti2 2.782391 1_544
Ni1 Ni6 2.394481 1_554
Ni1 Ni8 2.394481 1_545
Ni1 Ni9 2.394481 1_554
Ni1 Ni7 2.394481 1_545
Ni1 Ni4 2.394486 1_555
Ni1 Ni11 2.394486 1_544
Ni1 Ti8 2.782391 1_555
Ni1 Ti4 2.782391 1_554
Ni1 Ti10 2.782391 1_545
Ni1 Ti6 2.782391 1_545
Ni1 Ti0 2.782391 1_554
Ni1 Ti2 2.782391 1_544
Ni2 Ni7 2.394481 1_455
Ni2 Ni5 2.394481 1_554
Ni2 Ni9 2.394481 1_554
Ni2 Ni4 2.394486 1_555
Ni2 Ti11 2.782391 1_555
Ni2 Ti3 2.782391 1_454
Ni2 Ti4 2.782391 1_554
Ni2 Ti1 2.782391 1_455
Ni2 Ti6 2.782391 1_455
Ni2 Ti7 2.782391 1_554
Ni3 Ni6 2.394481 1_455
Ni3 Ni8 2.394481 1_545
Ni3 Ni5 2.394481 1_545
Ni3 Ni4 2.394486 1_555
Ni3 Ti9 2.782391 1_555
Ni3 Ti5 2.782391 1_445
Ni3 Ti10 2.782391 1_545
Ni3 Ti1 2.782391 1_455
Ni3 Ti7 2.782391 1_545
Ni3 Ti0 2.782391 1_455
Ni4 Ti9 2.573788 1_555
Ni4 Ti11 2.573788 1_555
Ni4 Ti8 2.573788 1_555
Ni4 Ni8 2.663413 1_545
Ni4 Ni9 2.663413 1_554
Ni4 Ti4 2.765689 1_554
Ni4 Ti10 2.765689 1_545
Ni4 Ti1 2.765689 1_455
Ni5 Ti4 2.573791 1_555
Ni5 Ti10 2.573791 1_555
Ni5 Ti2 2.573795 1_555
Ni5 Ni6 2.663413 1_465
Ni5 Ni7 2.663413 1_456
Ni5 Ti7 2.765685 1_555
Ni5 Ti9 2.765692 1_565
Ni5 Ti11 2.765692 1_556
Ni6 Ti4 2.573791 1_555
Ni6 Ti1 2.573791 1_555
Ni6 Ti3 2.573795 1_555
Ni6 Ni7 2.663413 1_546
Ni6 Ti0 2.765685 1_555
Ni6 Ti9 2.765692 1_655
Ni6 Ti8 2.765692 1_556
Ni7 Ti1 2.573791 1_555
Ni7 Ti10 2.573791 1_555
Ni7 Ti5 2.573795 1_555
Ni7 Ti6 2.765685 1_555
Ni7 Ti11 2.765692 1_655
Ni7 Ti8 2.765692 1_565
Ni8 Ti7 2.573791 1_555
Ni8 Ti6 2.573791 1_555
Ni8 Ti11 2.573795 1_555
Ni8 Ni9 2.663413 1_564
Ni8 Ti10 2.765685 1_555
Ni8 Ti2 2.765692 1_554
Ni8 Ti5 2.765692 1_455
Ni9 Ti0 2.573791 1_555
Ni9 Ti7 2.573791 1_555
Ni9 Ti9 2.573795 1_555
Ni9 Ti4 2.765685 1_555
Ni9 Ti2 2.765692 1_545
Ni9 Ti3 2.765692 1_455
Ni10 Ni2 2.394481 1_655
Ni10 Ni3 2.394481 1_655
Ni10 Ti0 2.573791 1_555
Ni10 Ti6 2.573791 1_555
Ni10 Ti8 2.573795 1_555
Ni10 Ni4 2.663413 1_655
Ni10 Ni9 2.663413 1_654
Ni10 Ni8 2.663413 1_645
Ni10 Ti1 2.765685 1_555
Ni10 Ti3 2.765692 1_554
Ni10 Ti5 2.765692 1_545
Ni11 Ni2 2.394486 1_656
Ni11 Ni3 2.394486 1_665
Ni11 Ti3 2.573788 1_555
Ni11 Ti2 2.573788 1_555
Ni11 Ti5 2.573788 1_555
Ni11 Ni6 2.663413 1_565
Ni11 Ni5 2.663413 1_655
Ni11 Ni7 2.663413 1_556
Ni11 Ti6 2.765689 1_556
Ni11 Ti0 2.765689 1_565
Ni11 Ti7 2.765689 1_655
O0 Ti4 2.084184 1_555
O0 Ti1 2.084184 1_555
O0 Ti10 2.084184 1_555
O0 Ti6 2.084184 1_555
O0 Ti0 2.084184 1_555
O0 Ti7 2.084184 1_555
O1 Ti7 2.084184 1_555
O1 Ti1 2.084184 1_455
O1 Ti5 2.084184 1_455
O1 Ti3 2.084184 1_455
O1 Ti9 2.084184 1_555
O1 Ti11 2.084184 1_555
O2 Ti10 2.084184 1_545
O2 Ti2 2.084184 1_545
O2 Ti5 2.084184 1_545
O2 Ti0 2.084184 1_555
O2 Ti9 2.084184 1_555
O2 Ti8 2.084184 1_555
O3 Ti3 2.084184 1_554
O3 Ti4 2.084184 1_554
O3 Ti6 2.084184 1_555
O3 Ti11 2.084184 1_555
O3 Ti2 2.084184 1_554
O3 Ti8 2.084184 1_555
