# generated using pymatgen
data_BaH2N2O5
_symmetry_space_group_name_H-M   'P 1'
_cell_length_a   7.17410819
_cell_length_b   7.17410819
_cell_length_c   18.17519700
_cell_angle_alpha   90.00000000
_cell_angle_beta   90.00000000
_cell_angle_gamma   120.00000178
_symmetry_Int_Tables_number   1
_chemical_formula_structural   BaH2N2O5
_chemical_formula_sum   'Ba6 H12 N12 O30'
_cell_volume   810.11298754
_cell_formula_units_Z   6
loop_
 _symmetry_equiv_pos_site_id
 _symmetry_equiv_pos_as_xyz
  1  'x, y, z'
loop_
 _atom_site_type_symbol
 _atom_site_label
 _atom_site_symmetry_multiplicity
 _atom_site_fract_x
 _atom_site_fract_y
 _atom_site_fract_z
 _atom_site_occupancy
  Ba  Ba0  1  0.43361300  0.85454800  0.99940800  1
  Ba  Ba1  1  0.57906400  0.43361300  0.83274100  1
  Ba  Ba2  1  0.85454800  0.42093600  0.16607500  1
  Ba  Ba3  1  0.14545200  0.57906400  0.66607500  1
  Ba  Ba4  1  0.42093600  0.56638700  0.33274100  1
  Ba  Ba5  1  0.56638700  0.14545200  0.49940800  1
  H  H0  1  0.16788900  0.02479100  0.37986500  1
  H  H1  1  0.14309800  0.16788900  0.21319900  1
  H  H2  1  0.02479100  0.85690200  0.54653200  1
  H  H3  1  0.97520900  0.14309800  0.04653200  1
  H  H4  1  0.85690200  0.83211100  0.71319900  1
  H  H5  1  0.83211100  0.97520900  0.87986500  1
  H  H6  1  0.09723200  0.13916100  0.43694300  1
  H  H7  1  0.95807100  0.09723200  0.27027700  1
  H  H8  1  0.13916100  0.04192900  0.60361000  1
  H  H9  1  0.86083900  0.95807100  0.10361000  1
  H  H10  1  0.04192900  0.90276800  0.77027700  1
  H  H11  1  0.90276800  0.86083900  0.93694300  1
  N  N0  1  0.24564100  0.03339100  0.14627900  1
  N  N1  1  0.21225000  0.24564100  0.97961300  1
  N  N2  1  0.03339100  0.78775000  0.31294600  1
  N  N3  1  0.96660900  0.21225000  0.81294600  1
  N  N4  1  0.78775000  0.75435900  0.47961300  1
  N  N5  1  0.75435900  0.96660900  0.64627900  1
  N  N6  1  0.56620700  0.12153200  0.32610600  1
  N  N7  1  0.44467400  0.56620700  0.15943900  1
  N  N8  1  0.12153200  0.55532600  0.49277200  1
  N  N9  1  0.87846800  0.44467400  0.99277200  1
  N  N10  1  0.55532600  0.43379300  0.65943900  1
  N  N11  1  0.43379300  0.87846800  0.82610600  1
  O  O0  1  0.43688900  0.10079900  0.12444600  1
  O  O1  1  0.33609000  0.43688900  0.95777900  1
  O  O2  1  0.10079900  0.66391000  0.29111300  1
  O  O3  1  0.89920100  0.33609000  0.79111300  1
  O  O4  1  0.66391000  0.56311100  0.45777900  1
  O  O5  1  0.56311100  0.89920100  0.62444600  1
  O  O6  1  0.10353000  0.86524100  0.11365400  1
  O  O7  1  0.23828900  0.10353000  0.94698800  1
  O  O8  1  0.86524100  0.76171100  0.28032100  1
  O  O9  1  0.13475900  0.23828900  0.78032100  1
  O  O10  1  0.76171100  0.89647000  0.44698800  1
  O  O11  1  0.89647000  0.13475900  0.61365400  1
  O  O12  1  0.59331800  0.29559600  0.29755900  1
  O  O13  1  0.29772200  0.59331800  0.13089200  1
  O  O14  1  0.29559600  0.70227800  0.46422600  1
  O  O15  1  0.70440400  0.29772200  0.96422600  1
  O  O16  1  0.70227800  0.40668200  0.63089200  1
  O  O17  1  0.40668200  0.70440400  0.79755900  1
  O  O18  1  0.61214600  0.00839200  0.28485300  1
  O  O19  1  0.60375300  0.61214600  0.11818700  1
  O  O20  1  0.00839200  0.39624700  0.45152000  1
  O  O21  1  0.99160800  0.60375300  0.95152000  1
  O  O22  1  0.39624700  0.38785400  0.61818700  1
  O  O23  1  0.38785400  0.99160800  0.78485300  1
  O  O24  1  0.22628600  0.15159600  0.41347500  1
  O  O25  1  0.07469100  0.22628600  0.24680900  1
  O  O26  1  0.15159600  0.92530900  0.58014200  1
  O  O27  1  0.84840400  0.07469100  0.08014200  1
  O  O28  1  0.92530900  0.77371400  0.74680900  1
  O  O29  1  0.77371400  0.84840400  0.91347500  1
loop_
_geom_bond_atom_site_label_1
_geom_bond_atom_site_label_2
_geom_bond_distance
_geom_bond_site_symmetry_2
Ba0 O1 2.818441 1_555
Ba0 O15 2.848653 1_565
Ba0 O0 2.871356 1_566
Ba0 O21 2.888706 1_455
Ba0 O13 2.889030 1_556
Ba0 O29 2.915832 1_555
Ba0 O7 2.926582 1_565
Ba0 O27 2.966958 1_566
Ba0 N11 3.154434 1_555
Ba0 O6 3.179124 1_556
Ba0 O19 3.361140 1_556
Ba1 O3 2.818443 1_555
Ba1 O17 2.848647 1_555
Ba1 O1 2.871352 1_555
Ba1 O23 2.888706 1_545
Ba1 O15 2.889048 1_555
Ba1 O28 2.915823 1_555
Ba1 O9 2.926576 1_555
Ba1 O29 2.966957 1_555
Ba1 N10 3.154433 1_555
Ba1 O7 3.179133 1_555
Ba1 O21 3.361150 1_555
Ba2 O0 2.818443 1_555
Ba2 O13 2.848658 1_655
Ba2 O2 2.871354 1_655
Ba2 O19 2.888706 1_555
Ba2 O12 2.889030 1_555
Ba2 O27 2.915832 1_555
Ba2 O6 2.926582 1_655
Ba2 O25 2.966968 1_655
Ba2 N9 3.154452 1_554
Ba2 O8 3.179118 1_555
Ba2 O18 3.361137 1_555
Ba3 O5 2.818443 1_555
Ba3 O16 2.848658 1_455
Ba3 O3 2.871354 1_455
Ba3 O22 2.888706 1_555
Ba3 O17 2.889030 1_555
Ba3 O26 2.915832 1_555
Ba3 O11 2.926582 1_455
Ba3 O28 2.966968 1_455
Ba3 N8 3.154452 1_555
Ba3 O9 3.179118 1_555
Ba3 O23 3.361137 1_555
Ba4 O2 2.818443 1_555
Ba4 O12 2.848647 1_555
Ba4 O4 2.871352 1_555
Ba4 O18 2.888706 1_565
Ba4 O14 2.889048 1_555
Ba4 O25 2.915823 1_555
Ba4 O8 2.926576 1_555
Ba4 O24 2.966957 1_555
Ba4 N7 3.154433 1_555
Ba4 O10 3.179133 1_555
Ba4 O20 3.361150 1_555
Ba5 O4 2.818441 1_555
Ba5 O14 2.848653 1_545
Ba5 O5 2.871356 1_545
Ba5 O20 2.888706 1_655
Ba5 O16 2.889030 1_555
Ba5 O24 2.915832 1_555
Ba5 O10 2.926582 1_545
Ba5 O26 2.966958 1_545
Ba5 N6 3.154434 1_555
Ba5 O11 3.179124 1_555
Ba5 O22 3.361140 1_555
H0 O24 0.997563 1_555
H1 O25 0.997558 1_555
H2 O26 0.997563 1_555
H3 O27 0.997563 1_555
H4 O28 0.997558 1_555
H5 O29 0.997563 1_555
H6 O24 0.982084 1_555
H7 O25 0.982087 1_655
H8 O26 0.982091 1_545
H9 O27 0.982091 1_565
H10 O28 0.982087 1_455
H11 O29 0.982084 1_555
N0 O0 1.268975 1_555
N0 O6 1.271369 1_545
N1 O1 1.268981 1_555
N1 O7 1.271369 1_555
N2 O2 1.268975 1_555
N2 O8 1.271369 1_455
N3 O3 1.268975 1_555
N3 O9 1.271369 1_655
N4 O4 1.268981 1_555
N4 O10 1.271369 1_555
N5 O5 1.268975 1_555
N5 O11 1.271369 1_565
N6 O18 1.263771 1_555
N6 O12 1.274182 1_555
N7 O19 1.263760 1_555
N7 O13 1.274175 1_555
N8 O20 1.263760 1_555
N8 O14 1.274172 1_555
N9 O21 1.263760 1_555
N9 O15 1.274172 1_555
N10 O22 1.263760 1_555
N10 O16 1.274175 1_555
N11 O23 1.263771 1_555
N11 O17 1.274182 1_555
