# generated using pymatgen
data_Cs3Sb2Br9
_symmetry_space_group_name_H-M   'P 1'
_cell_length_a   7.98547137
_cell_length_b   7.98547063
_cell_length_c   9.79265017
_cell_angle_alpha   90.00000000
_cell_angle_beta   90.00000000
_cell_angle_gamma   119.99999873
_symmetry_Int_Tables_number   1
_chemical_formula_structural   Cs3Sb2Br9
_chemical_formula_sum   'Cs3 Sb2 Br9'
_cell_volume   540.79410775
_cell_formula_units_Z   1
loop_
 _symmetry_equiv_pos_site_id
 _symmetry_equiv_pos_as_xyz
  1  'x, y, z'
loop_
 _atom_site_type_symbol
 _atom_site_label
 _atom_site_symmetry_multiplicity
 _atom_site_fract_x
 _atom_site_fract_y
 _atom_site_fract_z
 _atom_site_occupancy
  Cs  Cs0  1  0.66666700  0.33333300  0.67074870  1
  Cs  Cs1  1  0.33333300  0.66666700  0.32925130  1
  Cs  Cs2  1  -0.00000000  0.00000000  -0.00000000  1
  Sb  Sb0  1  0.66666700  0.33333300  0.18736552  1
  Sb  Sb1  1  0.33333300  0.66666700  0.81263448  1
  Br  Br0  1  0.65751507  0.82875853  0.66450790  1
  Br  Br1  1  0.82875853  0.17124147  0.33549210  1
  Br  Br2  1  0.17124147  0.34248493  0.66450790  1
  Br  Br3  1  0.50000000  0.00000000  -0.00000000  1
  Br  Br4  1  0.82875853  0.65751507  0.33549210  1
  Br  Br5  1  0.34248493  0.17124147  0.33549210  1
  Br  Br6  1  0.17124147  0.82875853  0.66450790  1
  Br  Br7  1  0.50000000  0.50000000  -0.00000000  1
  Br  Br8  1  -0.00000000  0.50000000  -0.00000000  1
loop_
_geom_bond_atom_site_label_1
_geom_bond_atom_site_label_2
_geom_bond_distance
_geom_bond_site_symmetry_2
Br0 Sb1 2.670264 1_555
Br0 Cs1 3.975504 1_555
Br0 Cs0 3.993693 1_565
Br0 Cs0 3.993716 1_555
Br0 Cs2 4.050104 1_666
Br1 Sb0 2.670269 1_555
Br1 Cs0 3.975507 1_555
Br1 Cs1 3.993704 1_545
Br1 Cs1 3.993704 1_655
Br1 Cs2 4.050096 1_655
Br2 Sb1 2.670263 1_555
Br2 Cs1 3.975503 1_555
Br2 Cs0 3.993693 1_455
Br2 Cs0 3.993717 1_555
Br2 Cs2 4.050104 1_556
Br3 Sb0 2.946265 1_555
Br3 Sb1 2.946265 1_544
Br3 Cs1 3.963548 1_545
Br3 Cs0 3.963548 1_554
Br3 Cs2 3.992736 1_655
Br3 Cs2 3.992736 1_555
Br4 Sb0 2.670263 1_555
Br4 Cs0 3.975503 1_555
Br4 Cs1 3.993693 1_655
Br4 Cs1 3.993717 1_555
Br4 Cs2 4.050104 1_665
Br5 Sb0 2.670264 1_555
Br5 Cs0 3.975504 1_555
Br5 Cs1 3.993693 1_545
Br5 Cs1 3.993716 1_555
Br5 Cs2 4.050104 1_555
Br6 Sb1 2.670269 1_555
Br6 Cs1 3.975507 1_555
Br6 Cs0 3.993704 1_565
Br6 Cs0 3.993704 1_455
Br6 Cs2 4.050096 1_566
Br7 Sb1 2.946270 1_554
Br7 Sb0 2.946270 1_555
Br7 Cs1 3.963552 1_555
Br7 Cs0 3.963552 1_554
Br7 Cs2 3.992736 1_555
Br7 Cs2 3.992736 1_665
Br8 Sb0 2.946265 1_455
Br8 Sb1 2.946265 1_554
Br8 Cs1 3.963548 1_555
Br8 Cs0 3.963548 1_454
Br8 Cs2 3.992735 1_555
Br8 Cs2 3.992735 1_565
