# generated using pymatgen
data_Ho(GeRu)2
_symmetry_space_group_name_H-M   'P 1'
_cell_length_a   4.23317031
_cell_length_b   4.23316936
_cell_length_c   5.72680261
_cell_angle_alpha   111.69049958
_cell_angle_beta   111.69049750
_cell_angle_gamma   90.00000453
_symmetry_Int_Tables_number   1
_chemical_formula_structural   Ho(GeRu)2
_chemical_formula_sum   'Ho1 Ge2 Ru2'
_cell_volume   87.48866776
_cell_formula_units_Z   1
loop_
 _symmetry_equiv_pos_site_id
 _symmetry_equiv_pos_as_xyz
  1  'x, y, z'
loop_
 _atom_site_type_symbol
 _atom_site_label
 _atom_site_symmetry_multiplicity
 _atom_site_fract_x
 _atom_site_fract_y
 _atom_site_fract_z
 _atom_site_occupancy
  Ho  Ho0  1  -0.00000000  -0.00000000  -0.00000000  1
  Ge  Ge0  1  0.63039660  0.63039660  0.26079321  1
  Ge  Ge1  1  0.36960340  0.36960340  0.73920679  1
  Ru  Ru0  1  0.75000000  0.25000000  0.50000000  1
  Ru  Ru1  1  0.25000000  0.75000000  0.50000000  1
loop_
_geom_bond_atom_site_label_1
_geom_bond_atom_site_label_2
_geom_bond_distance
_geom_bond_site_symmetry_2
Ho0 Ru1 3.230949 1_545
Ho0 Ru0 3.230949 1_454
Ho0 Ru1 3.230949 1_555
Ho0 Ru0 3.230949 1_444
Ho0 Ru0 3.230949 1_455
Ho0 Ru1 3.230949 1_544
Ho0 Ru0 3.230950 1_555
Ho0 Ru1 3.230950 1_444
Ge0 Ru0 2.417405 1_555
Ge0 Ru0 2.417405 1_565
Ge0 Ru1 2.417405 1_555
Ge0 Ru1 2.417406 1_655
Ge0 Ge1 2.546518 1_554
Ge0 Ho0 3.252853 1_665
Ge0 Ho0 3.252853 1_655
Ge0 Ho0 3.252853 1_555
Ge0 Ho0 3.252853 1_565
Ge1 Ru1 2.417405 1_555
Ge1 Ru1 2.417405 1_545
Ge1 Ru0 2.417405 1_555
Ge1 Ru0 2.417406 1_455
Ge1 Ho0 3.252853 1_556
Ge1 Ho0 3.252853 1_566
Ge1 Ho0 3.252853 1_666
Ge1 Ho0 3.252853 1_656
