# generated using pymatgen
data_Ho2Sn3(PbS4)3
_symmetry_space_group_name_H-M   'P 1'
_cell_length_a   3.93968600
_cell_length_b   11.65239300
_cell_length_c   20.42475200
_cell_angle_alpha   90.00000000
_cell_angle_beta   90.00000000
_cell_angle_gamma   90.00000000
_symmetry_Int_Tables_number   1
_chemical_formula_structural   Ho2Sn3(PbS4)3
_chemical_formula_sum   'Ho4 Sn6 Pb6 S24'
_cell_volume   937.63438356
_cell_formula_units_Z   2
loop_
 _symmetry_equiv_pos_site_id
 _symmetry_equiv_pos_as_xyz
  1  'x, y, z'
loop_
 _atom_site_type_symbol
 _atom_site_label
 _atom_site_symmetry_multiplicity
 _atom_site_fract_x
 _atom_site_fract_y
 _atom_site_fract_z
 _atom_site_occupancy
  Ho  Ho0  1  0.00000000  0.86947800  0.89344900  1
  Ho  Ho1  1  0.00000000  0.36947800  0.10655100  1
  Ho  Ho2  1  0.00000000  0.54838900  0.58789000  1
  Ho  Ho3  1  0.00000000  0.04838900  0.41211000  1
  Sn  Sn0  1  0.50000000  0.67680500  0.08868100  1
  Sn  Sn1  1  0.50000000  0.69271800  0.75014800  1
  Sn  Sn2  1  0.50000000  0.20019100  0.57165700  1
  Sn  Sn3  1  0.50000000  0.19271800  0.24985200  1
  Sn  Sn4  1  0.50000000  0.70019100  0.42834300  1
  Sn  Sn5  1  0.50000000  0.17680500  0.91131900  1
  Pb  Pb0  1  0.00000000  0.29013600  0.73968500  1
  Pb  Pb1  1  0.00000000  0.99202600  0.08441800  1
  Pb  Pb2  1  0.00000000  0.49202600  0.91558200  1
  Pb  Pb3  1  0.00000000  0.79013600  0.26031500  1
  Pb  Pb4  1  0.00000000  0.92194400  0.62123500  1
  Pb  Pb5  1  0.00000000  0.42194400  0.37876500  1
  S  S0  1  0.50000000  0.88942900  0.36274500  1
  S  S1  1  0.50000000  0.09449000  0.67541100  1
  S  S2  1  0.50000000  0.38942900  0.63725500  1
  S  S3  1  0.50000000  0.21053800  0.37368300  1
  S  S4  1  0.00000000  0.59344900  0.15860900  1
  S  S5  1  0.50000000  0.70482900  0.87539000  1
  S  S6  1  0.00000000  0.26071200  0.98234000  1
  S  S7  1  0.50000000  0.85767700  0.15831800  1
  S  S8  1  0.00000000  0.76071200  0.01766000  1
  S  S9  1  0.00000000  0.75279800  0.49613000  1
  S  S10  1  0.50000000  0.20482900  0.12461000  1
  S  S11  1  0.50000000  0.71053800  0.62631700  1
  S  S12  1  0.50000000  0.98139500  0.96790900  1
  S  S13  1  0.50000000  0.00984500  0.50856800  1
  S  S14  1  0.00000000  0.84441400  0.75678300  1
  S  S15  1  0.50000000  0.50984500  0.49143200  1
  S  S16  1  0.50000000  0.59449000  0.32458900  1
  S  S17  1  0.00000000  0.09344900  0.84139100  1
  S  S18  1  0.00000000  0.54793700  0.73869600  1
  S  S19  1  0.50000000  0.35767700  0.84168200  1
  S  S20  1  0.00000000  0.34441400  0.24321700  1
  S  S21  1  0.00000000  0.25279800  0.50387000  1
  S  S22  1  0.50000000  0.48139500  0.03209100  1
  S  S23  1  0.00000000  0.04793700  0.26130400  1
loop_
_geom_bond_atom_site_label_1
_geom_bond_atom_site_label_2
_geom_bond_distance
_geom_bond_site_symmetry_2
Ho0 S5 2.774380 1_455
Ho0 S5 2.774380 1_555
Ho0 S14 2.806606 1_555
Ho0 S12 2.809604 1_455
Ho0 S12 2.809604 1_555
Ho0 S17 2.818083 1_565
Ho0 S8 2.835934 1_556
Ho1 S10 2.774380 1_455
Ho1 S10 2.774380 1_555
Ho1 S20 2.806606 1_555
Ho1 S22 2.809604 1_455
Ho1 S22 2.809604 1_555
Ho1 S4 2.818083 1_555
Ho1 S6 2.835934 1_554
Ho2 S15 2.821952 1_455
Ho2 S15 2.821952 1_555
Ho2 S11 2.840108 1_555
Ho2 S11 2.840108 1_455
Ho2 S2 2.885787 1_555
Ho2 S2 2.885787 1_455
Ho2 S9 3.030802 1_555
Ho2 S18 3.080180 1_555
Ho3 S13 2.821952 1_555
Ho3 S13 2.821952 1_455
Ho3 S3 2.840108 1_455
Ho3 S3 2.840108 1_555
Ho3 S0 2.885787 1_545
Ho3 S0 2.885787 1_445
Ho3 S21 3.030802 1_555
Ho3 S23 3.080180 1_555
Pb0 S19 2.973156 1_455
Pb0 S19 2.973156 1_555
Pb0 S18 3.004066 1_555
Pb0 S17 3.093210 1_555
Pb0 S2 3.097716 1_455
Pb0 S2 3.097716 1_555
Pb1 S7 2.934159 1_455
Pb1 S7 2.934159 1_555
Pb1 S8 3.020621 1_555
Pb1 S12 3.091673 1_554
Pb1 S12 3.091673 1_454
Pb2 S19 2.934159 1_455
Pb2 S19 2.934159 1_555
Pb2 S6 3.020621 1_555
Pb2 S22 3.091673 1_456
Pb2 S22 3.091673 1_556
Pb3 S7 2.973156 1_555
Pb3 S7 2.973156 1_455
Pb3 S23 3.004066 1_565
Pb3 S4 3.093210 1_555
Pb3 S0 3.097716 1_455
Pb3 S0 3.097716 1_555
Pb4 S14 2.912204 1_555
Pb4 S1 3.024417 1_465
Pb4 S1 3.024417 1_565
Pb4 S11 3.155840 1_455
Pb4 S11 3.155840 1_555
Pb4 S13 3.197637 1_465
Pb4 S13 3.197637 1_565
Pb4 S9 3.227059 1_555
Pb5 S20 2.912204 1_555
Pb5 S16 3.024417 1_455
Pb5 S16 3.024417 1_555
Pb5 S3 3.155840 1_455
Pb5 S3 3.155840 1_555
Pb5 S15 3.197637 1_455
Pb5 S15 3.197637 1_555
Pb5 S21 3.227059 1_555
S0 Sn4 2.580210 1_555
S1 Sn2 2.451083 1_555
S2 Sn2 2.580210 1_555
S3 Sn3 2.537727 1_555
S4 Sn0 2.619853 1_555
S4 Sn0 2.619853 1_455
S5 Sn1 2.561927 1_555
S6 Sn5 2.634466 1_455
S6 Sn5 2.634466 1_555
S7 Sn0 2.542623 1_555
S8 Sn0 2.634466 1_455
S8 Sn0 2.634466 1_555
S9 Sn4 2.484548 1_455
S9 Sn4 2.484548 1_555
S10 Sn3 2.561927 1_555
S11 Sn1 2.537727 1_555
S12 Sn5 2.553558 1_565
S13 Sn2 2.565131 1_555
S14 Sn1 2.650119 1_555
S14 Sn1 2.650119 1_455
S15 Sn4 2.565131 1_555
S16 Sn4 2.451083 1_555
S17 Sn5 2.619853 1_455
S17 Sn5 2.619853 1_555
S18 Sn1 2.604057 1_555
S18 Sn1 2.604057 1_455
S19 Sn5 2.542623 1_555
S20 Sn3 2.650119 1_555
S20 Sn3 2.650119 1_455
S21 Sn2 2.484548 1_555
S21 Sn2 2.484548 1_455
S22 Sn0 2.553558 1_555
S23 Sn3 2.604057 1_455
S23 Sn3 2.604057 1_555
