# generated using pymatgen
data_Ba(Mo3S4)2
_symmetry_space_group_name_H-M   'P 1'
_cell_length_a   6.63183972
_cell_length_b   6.72513574
_cell_length_c   6.77800372
_cell_angle_alpha   89.06562856
_cell_angle_beta   89.22169835
_cell_angle_gamma   87.93802096
_symmetry_Int_Tables_number   1
_chemical_formula_structural   Ba(Mo3S4)2
_chemical_formula_sum   'Ba1 Mo6 S8'
_cell_volume   302.03765233
_cell_formula_units_Z   1
loop_
 _symmetry_equiv_pos_site_id
 _symmetry_equiv_pos_as_xyz
  1  'x, y, z'
loop_
 _atom_site_type_symbol
 _atom_site_label
 _atom_site_symmetry_multiplicity
 _atom_site_fract_x
 _atom_site_fract_y
 _atom_site_fract_z
 _atom_site_occupancy
  Ba  Ba0  1  0.00000000  0.00000000  0.00000000  1
  Mo  Mo0  1  0.56741283  0.41685028  0.23638282  1
  Mo  Mo1  1  0.43258717  0.58314972  0.76361718  1
  Mo  Mo2  1  0.41739905  0.23662248  0.56393554  1
  Mo  Mo3  1  0.58260095  0.76337752  0.43606446  1
  Mo  Mo4  1  0.24485212  0.56399483  0.41955771  1
  Mo  Mo5  1  0.75514788  0.43600517  0.58044229  1
  S  S0  1  0.26161855  0.24651774  0.25311476  1
  S  S1  1  0.73838145  0.75348226  0.74688524  1
  S  S2  1  0.39429405  0.72945536  0.12462292  1
  S  S3  1  0.60570595  0.27054464  0.87537708  1
  S  S4  1  0.73218299  0.12199157  0.38719408  1
  S  S5  1  0.26781701  0.87800843  0.61280592  1
  S  S6  1  0.12423066  0.39268747  0.73256792  1
  S  S7  1  0.87576934  0.60731253  0.26743208  1
loop_
_geom_bond_atom_site_label_1
_geom_bond_atom_site_label_2
_geom_bond_distance
_geom_bond_site_symmetry_2
Ba0 S1 3.013757 1_444
Ba0 S0 3.013757 1_555
Ba0 S3 3.244857 1_454
Ba0 S2 3.244857 1_545
Ba0 S5 3.248676 1_544
Ba0 S4 3.248676 1_455
Ba0 S6 3.301302 1_554
Ba0 S7 3.301302 1_445
Mo0 S0 2.365256 1_555
Mo0 S4 2.445282 1_555
Mo0 S7 2.464921 1_555
Mo0 S2 2.471772 1_555
Mo0 S3 2.657738 1_554
Mo1 S1 2.365256 1_555
Mo1 S5 2.445282 1_555
Mo1 S6 2.464921 1_555
Mo1 S3 2.471772 1_555
Mo1 S2 2.657738 1_556
Mo2 S0 2.357908 1_555
Mo2 S6 2.453569 1_555
Mo2 S3 2.485064 1_555
Mo2 S4 2.496762 1_555
Mo2 S5 2.654696 1_545
Mo3 S1 2.357908 1_555
Mo3 S7 2.453569 1_555
Mo3 S2 2.485064 1_555
Mo3 S5 2.496762 1_555
Mo3 S4 2.654696 1_565
Mo4 S0 2.429343 1_555
Mo4 S2 2.483887 1_555
Mo4 S5 2.513420 1_555
Mo4 S6 2.531556 1_555
Mo4 S7 2.673337 1_455
Mo5 S1 2.429343 1_555
Mo5 S3 2.483887 1_555
Mo5 S4 2.513420 1_555
Mo5 S7 2.531556 1_555
Mo5 S6 2.673337 1_655
