# generated using pymatgen
data_PClOF2
_symmetry_space_group_name_H-M   'P 1'
_cell_length_a   5.55295745
_cell_length_b   9.90794988
_cell_length_c   13.09894283
_cell_angle_alpha   90.00000000
_cell_angle_beta   90.00000000
_cell_angle_gamma   90.00000000
_symmetry_Int_Tables_number   1
_chemical_formula_structural   PClOF2
_chemical_formula_sum   'P8 Cl8 O8 F16'
_cell_volume   720.68319189
_cell_formula_units_Z   8
loop_
 _symmetry_equiv_pos_site_id
 _symmetry_equiv_pos_as_xyz
  1  'x, y, z'
loop_
 _atom_site_type_symbol
 _atom_site_label
 _atom_site_symmetry_multiplicity
 _atom_site_fract_x
 _atom_site_fract_y
 _atom_site_fract_z
 _atom_site_occupancy
  P  P0  1  0.75000000  0.28038780  0.57336692  1
  P  P1  1  0.75000000  0.21961220  0.07336692  1
  P  P2  1  0.25000000  0.34963420  0.25525771  1
  P  P3  1  0.75000000  0.65036580  0.74474229  1
  P  P4  1  0.75000000  0.84963420  0.24474229  1
  P  P5  1  0.25000000  0.71961220  0.42663308  1
  P  P6  1  0.25000000  0.78038780  0.92663308  1
  P  P7  1  0.25000000  0.15036580  0.75525771  1
  Cl  Cl0  1  0.25000000  0.61303435  0.00560942  1
  Cl  Cl1  1  0.75000000  0.66602258  0.18973249  1
  Cl  Cl2  1  0.75000000  0.11303435  0.49439058  1
  Cl  Cl3  1  0.25000000  0.33397742  0.81026751  1
  Cl  Cl4  1  0.75000000  0.83397742  0.68973249  1
  Cl  Cl5  1  0.25000000  0.88696565  0.50560942  1
  Cl  Cl6  1  0.25000000  0.16602258  0.31026751  1
  Cl  Cl7  1  0.75000000  0.38696565  0.99439058  1
  O  O0  1  0.75000000  0.63380022  0.85449450  1
  O  O1  1  0.75000000  0.22833351  0.18358153  1
  O  O2  1  0.25000000  0.13380022  0.64550550  1
  O  O3  1  0.75000000  0.86619978  0.35449450  1
  O  O4  1  0.25000000  0.72833351  0.31641847  1
  O  O5  1  0.25000000  0.77166649  0.81641847  1
  O  O6  1  0.75000000  0.27166649  0.68358153  1
  O  O7  1  0.25000000  0.36619978  0.14550550  1
  F  F0  1  0.03777807  0.63954066  0.47198114  1
  F  F1  1  0.96222193  0.13954066  0.02801886  1
  F  F2  1  0.03860510  0.41800801  0.31102993  1
  F  F3  1  0.96139490  0.91800801  0.18897007  1
  F  F4  1  0.53777807  0.36045934  0.52801886  1
  F  F5  1  0.46222193  0.63954066  0.47198114  1
  F  F6  1  0.46222193  0.86045934  0.97198114  1
  F  F7  1  0.53860510  0.58199199  0.68897007  1
  F  F8  1  0.53860510  0.91800801  0.18897007  1
  F  F9  1  0.96139490  0.58199199  0.68897007  1
  F  F10  1  0.03860510  0.08199199  0.81102993  1
  F  F11  1  0.46139490  0.41800801  0.31102993  1
  F  F12  1  0.03777807  0.86045934  0.97198114  1
  F  F13  1  0.53777807  0.13954066  0.02801886  1
  F  F14  1  0.96222193  0.36045934  0.52801886  1
  F  F15  1  0.46139490  0.08199199  0.81102993  1
loop_
_geom_bond_atom_site_label_1
_geom_bond_atom_site_label_2
_geom_bond_distance
_geom_bond_site_symmetry_2
Cl0 P6 1.954379 1_554
Cl1 P4 1.956723 1_555
Cl2 P0 1.954379 1_555
Cl3 P7 1.956723 1_555
Cl4 P3 1.956723 1_555
Cl5 P5 1.954379 1_555
Cl6 P2 1.956723 1_555
Cl7 P1 1.954379 1_556
O0 P3 1.446977 1_555
O1 P1 1.446279 1_555
O2 P7 1.446977 1_555
O3 P4 1.446977 1_555
O4 P5 1.446279 1_555
O5 P6 1.446279 1_555
O6 P0 1.446279 1_555
O7 P2 1.446977 1_555
F0 P5 1.539809 1_555
F1 P1 1.539809 1_555
F2 P2 1.539678 1_555
F3 P4 1.539678 1_555
F4 P0 1.539809 1_555
F5 P5 1.539809 1_555
F6 P6 1.539809 1_555
F7 P3 1.539678 1_555
F8 P4 1.539678 1_555
F9 P3 1.539678 1_555
F10 P7 1.539678 1_555
F11 P2 1.539678 1_555
F12 P6 1.539809 1_555
F13 P1 1.539809 1_555
F14 P0 1.539809 1_555
F15 P7 1.539678 1_555
