# generated using pymatgen
data_CaMg2(SO4)3
_symmetry_space_group_name_H-M   'P 1'
_cell_length_a   8.46958495
_cell_length_b   8.46958495
_cell_length_c   7.44717600
_cell_angle_alpha   90.00000000
_cell_angle_beta   90.00000000
_cell_angle_gamma   120.00000742
_symmetry_Int_Tables_number   1
_chemical_formula_structural   CaMg2(SO4)3
_chemical_formula_sum   'Ca2 Mg4 S6 O24'
_cell_volume   462.64350933
_cell_formula_units_Z   2
loop_
 _symmetry_equiv_pos_site_id
 _symmetry_equiv_pos_as_xyz
  1  'x, y, z'
loop_
 _atom_site_type_symbol
 _atom_site_label
 _atom_site_symmetry_multiplicity
 _atom_site_fract_x
 _atom_site_fract_y
 _atom_site_fract_z
 _atom_site_occupancy
  Ca  Ca0  1  0.00000000  0.00000000  0.00000000  1
  Ca  Ca1  1  0.00000000  0.00000000  0.50000000  1
  Mg  Mg0  1  0.66666700  0.33333300  0.95283900  1
  Mg  Mg1  1  0.33333300  0.66666700  0.04716100  1
  Mg  Mg2  1  0.33333300  0.66666700  0.45283900  1
  Mg  Mg3  1  0.66666700  0.33333300  0.54716100  1
  S  S0  1  0.03349900  0.67006400  0.75000000  1
  S  S1  1  0.67006400  0.63656500  0.25000000  1
  S  S2  1  0.63656500  0.96650100  0.75000000  1
  S  S3  1  0.36343500  0.03349900  0.25000000  1
  S  S4  1  0.96650100  0.32993600  0.25000000  1
  S  S5  1  0.32993600  0.36343500  0.75000000  1
  O  O0  1  0.87239200  0.48022300  0.75000000  1
  O  O1  1  0.16277700  0.96333700  0.25000000  1
  O  O2  1  0.44152700  0.14234500  0.08580200  1
  O  O3  1  0.19943900  0.16277700  0.75000000  1
  O  O4  1  0.60783000  0.12760800  0.75000000  1
  O  O5  1  0.51977700  0.39217000  0.75000000  1
  O  O6  1  0.85765500  0.29918200  0.08580200  1
  O  O7  1  0.14234500  0.70081800  0.58580200  1
  O  O8  1  0.29918200  0.44152700  0.58580200  1
  O  O9  1  0.12760800  0.51977700  0.25000000  1
  O  O10  1  0.03666300  0.19943900  0.25000000  1
  O  O11  1  0.96333700  0.80056100  0.75000000  1
  O  O12  1  0.80056100  0.83722300  0.25000000  1
  O  O13  1  0.29918200  0.44152700  0.91419800  1
  O  O14  1  0.14234500  0.70081800  0.91419800  1
  O  O15  1  0.48022300  0.60783000  0.25000000  1
  O  O16  1  0.70081800  0.55847300  0.08580200  1
  O  O17  1  0.44152700  0.14234500  0.41419800  1
  O  O18  1  0.39217000  0.87239200  0.25000000  1
  O  O19  1  0.85765500  0.29918200  0.41419800  1
  O  O20  1  0.70081800  0.55847300  0.41419800  1
  O  O21  1  0.83722300  0.03666300  0.75000000  1
  O  O22  1  0.55847300  0.85765500  0.58580200  1
  O  O23  1  0.55847300  0.85765500  0.91419800  1
loop_
_geom_bond_atom_site_label_1
_geom_bond_atom_site_label_2
_geom_bond_distance
_geom_bond_site_symmetry_2
Ca0 O11 2.427233 1_444
Ca0 O10 2.427233 1_555
Ca0 O3 2.427235 1_554
Ca0 O12 2.427235 1_445
Ca0 O21 2.427238 1_454
Ca0 O1 2.427238 1_545
Ca1 O11 2.427233 1_445
Ca1 O10 2.427233 1_555
Ca1 O3 2.427235 1_555
Ca1 O12 2.427235 1_445
Ca1 O21 2.427238 1_455
Ca1 O1 2.427238 1_545
Mg0 O6 2.036819 1_556
Mg0 O2 2.036823 1_556
Mg0 O16 2.036826 1_556
Mg0 O4 2.167456 1_555
Mg0 O0 2.167459 1_555
Mg0 O5 2.167468 1_555
Mg1 O14 2.036819 1_554
Mg1 O23 2.036823 1_554
Mg1 O13 2.036826 1_554
Mg1 O18 2.167456 1_555
Mg1 O9 2.167459 1_555
Mg1 O15 2.167468 1_555
Mg2 O7 2.036819 1_555
Mg2 O22 2.036823 1_555
Mg2 O8 2.036826 1_555
Mg2 O18 2.167456 1_555
Mg2 O9 2.167459 1_555
Mg2 O15 2.167468 1_555
Mg3 O19 2.036819 1_555
Mg3 O17 2.036823 1_555
Mg3 O20 2.036826 1_555
Mg3 O4 2.167456 1_555
Mg3 O0 2.167459 1_555
Mg3 O5 2.167468 1_555
O0 S0 1.501062 1_655
O1 S3 1.493814 1_565
O2 S3 1.474060 1_555
O3 S5 1.493816 1_555
O4 S2 1.501067 1_545
O5 S5 1.501059 1_555
O6 S4 1.474060 1_555
O7 S0 1.474060 1_555
O8 S5 1.474060 1_555
O9 S4 1.501062 1_455
O10 S4 1.493822 1_455
O11 S0 1.493822 1_655
O12 S1 1.493816 1_555
O13 S5 1.474060 1_555
O14 S0 1.474060 1_555
O15 S1 1.501059 1_555
O16 S1 1.474060 1_555
O17 S3 1.474060 1_555
O18 S3 1.501067 1_565
O19 S4 1.474060 1_555
O20 S1 1.474060 1_555
O21 S2 1.493814 1_545
O22 S2 1.474060 1_555
O23 S2 1.474060 1_555
