# generated using pymatgen
data_Sc2B6Rh
_symmetry_space_group_name_H-M   'P 1'
_cell_length_a   3.45879158
_cell_length_b   8.90858351
_cell_length_c   11.19175446
_cell_angle_alpha   90.00000000
_cell_angle_beta   90.00000000
_cell_angle_gamma   90.00000000
_symmetry_Int_Tables_number   1
_chemical_formula_structural   Sc2B6Rh
_chemical_formula_sum   'Sc8 B24 Rh4'
_cell_volume   344.85078743
_cell_formula_units_Z   4
loop_
 _symmetry_equiv_pos_site_id
 _symmetry_equiv_pos_as_xyz
  1  'x, y, z'
loop_
 _atom_site_type_symbol
 _atom_site_label
 _atom_site_symmetry_multiplicity
 _atom_site_fract_x
 _atom_site_fract_y
 _atom_site_fract_z
 _atom_site_occupancy
  Sc  Sc0  1  0.00000000  0.94439708  0.37385012  1
  Sc  Sc1  1  -0.00000000  0.05560292  0.62614988  1
  Sc  Sc2  1  -0.00000000  0.55560292  0.87385012  1
  Sc  Sc3  1  0.00000000  0.18112813  0.91442408  1
  Sc  Sc4  1  -0.00000000  0.81887187  0.08557592  1
  Sc  Sc5  1  0.00000000  0.68112813  0.58557592  1
  Sc  Sc6  1  -0.00000000  0.31887187  0.41442408  1
  Sc  Sc7  1  0.00000000  0.44439708  0.12614988  1
  B  B0  1  0.50000000  0.36836787  0.81863325  1
  B  B1  1  0.50000000  0.98026100  0.21293760  1
  B  B2  1  0.50000000  0.55402540  0.43628170  1
  B  B3  1  0.50000000  0.29622264  0.23773273  1
  B  B4  1  0.50000000  0.20377736  0.73773273  1
  B  B5  1  0.50000000  0.10361312  0.47199746  1
  B  B6  1  0.50000000  0.79622264  0.26226727  1
  B  B7  1  0.50000000  0.44597460  0.56371830  1
  B  B8  1  0.50000000  0.24769761  0.57844545  1
  B  B9  1  0.50000000  0.48026100  0.28706240  1
  B  B10  1  0.50000000  0.70377736  0.76226727  1
  B  B11  1  0.50000000  0.75230239  0.42155455  1
  B  B12  1  0.50000000  0.51973900  0.71293760  1
  B  B13  1  0.50000000  0.89638688  0.52800254  1
  B  B14  1  0.50000000  0.05402540  0.06371830  1
  B  B15  1  0.50000000  0.60361312  0.02800254  1
  B  B16  1  0.50000000  0.74769761  0.92155455  1
  B  B17  1  0.50000000  0.01973900  0.78706240  1
  B  B18  1  0.50000000  0.39638688  0.97199746  1
  B  B19  1  0.50000000  0.94597460  0.93628170  1
  B  B20  1  0.50000000  0.63163213  0.18136675  1
  B  B21  1  0.50000000  0.25230239  0.07844545  1
  B  B22  1  0.50000000  0.86836787  0.68136675  1
  B  B23  1  0.50000000  0.13163213  0.31863325  1
  Rh  Rh0  1  -0.00000000  0.14077396  0.18021618  1
  Rh  Rh1  1  0.00000000  0.35922604  0.68021618  1
  Rh  Rh2  1  0.00000000  0.85922604  0.81978382  1
  Rh  Rh3  1  0.00000000  0.64077396  0.31978382  1
loop_
_geom_bond_atom_site_label_1
_geom_bond_atom_site_label_2
_geom_bond_distance
_geom_bond_site_symmetry_2
B0 B4 1.723289 1_555
B0 B18 1.734469 1_555
B0 B12 1.793811 1_555
B0 Rh1 2.323197 1_655
B0 Rh1 2.323197 1_555
B0 Sc2 2.480912 1_555
B0 Sc2 2.480912 1_655
B0 Sc3 2.631064 1_555
B0 Sc3 2.631064 1_655
B1 B6 1.729979 1_555
B1 B23 1.793811 1_565
B1 B14 1.794663 1_565
B1 Rh0 2.273688 1_565
B1 Rh0 2.273688 1_665
B1 Sc0 2.517162 1_655
B1 Sc0 2.517162 1_555
B1 Sc4 2.662649 1_655
B1 Sc4 2.662649 1_555
B2 B7 1.720674 1_555
B2 B9 1.794663 1_555
B2 Rh3 2.299560 1_555
B2 Rh3 2.299560 1_655
B2 Sc5 2.657953 1_555
B2 Sc5 2.657953 1_655
B2 Sc6 2.727489 1_655
B2 Sc6 2.727489 1_555
B3 B9 1.729979 1_555
B3 Rh0 2.307146 1_555
B3 Rh0 2.307146 1_655
B3 Sc7 2.508544 1_555
B3 Sc7 2.508544 1_655
B3 Sc6 2.634763 1_555
B3 Sc6 2.634763 1_655
B4 B8 1.825137 1_555
B4 Rh1 2.307146 1_555
B4 Rh1 2.307146 1_655
B4 Sc1 2.508544 1_655
B4 Sc1 2.508544 1_555
B4 Sc3 2.634763 1_555
B4 Sc3 2.634763 1_655
B5 B8 1.751254 1_555
B5 Sc1 2.479955 1_655
B5 Sc1 2.479955 1_555
B5 Sc0 2.491829 1_645
B5 Sc0 2.491829 1_545
B5 Sc6 2.661461 1_655
B5 Sc6 2.661461 1_555
B6 Rh3 2.307146 1_655
B6 Rh3 2.307146 1_555
B6 Sc0 2.508544 1_655
B6 Sc0 2.508544 1_555
B6 Sc4 2.634763 1_655
B6 Sc4 2.634763 1_555
B7 B8 1.774040 1_555
B7 Rh1 2.299560 1_555
B7 Rh1 2.299560 1_655
B7 Sc6 2.657953 1_655
B7 Sc6 2.657953 1_555
B7 Sc5 2.727489 1_555
B7 Sc5 2.727489 1_655
B8 Rh1 2.296797 1_555
B8 Rh1 2.296797 1_655
B8 Sc1 2.490858 1_555
B8 Sc1 2.490858 1_655
B8 Sc6 2.600498 1_555
B8 Sc6 2.600498 1_655
B9 Rh3 2.273688 1_555
B9 Rh3 2.273688 1_655
B9 Sc7 2.517162 1_555
B9 Sc7 2.517162 1_655
B9 Sc6 2.662649 1_555
B9 Sc6 2.662649 1_655
B10 B22 1.723289 1_555
B10 B12 1.729979 1_555
B10 B16 1.825137 1_555
B10 Rh2 2.307146 1_655
B10 Rh2 2.307146 1_555
B10 Sc2 2.508544 1_555
B10 Sc2 2.508544 1_655
B10 Sc5 2.634763 1_555
B10 Sc5 2.634763 1_655
B11 B13 1.751254 1_555
B11 B2 1.774040 1_555
B11 B6 1.825137 1_555
B11 Rh3 2.296797 1_555
B11 Rh3 2.296797 1_655
B11 Sc0 2.490858 1_555
B11 Sc0 2.490858 1_655
B11 Sc5 2.600498 1_655
B11 Sc5 2.600498 1_555
B12 B7 1.794663 1_555
B12 Rh1 2.273688 1_655
B12 Rh1 2.273688 1_555
B12 Sc2 2.517162 1_555
B12 Sc2 2.517162 1_655
B12 Sc5 2.662649 1_555
B12 Sc5 2.662649 1_655
B13 B22 1.734469 1_555
B13 B5 1.949597 1_565
B13 Sc0 2.479955 1_555
B13 Sc0 2.479955 1_655
B13 Sc1 2.491829 1_565
B13 Sc1 2.491829 1_665
B13 Sc5 2.661461 1_555
B13 Sc5 2.661461 1_655
B14 B19 1.720674 1_544
B14 B21 1.774040 1_555
B14 Rh0 2.299560 1_555
B14 Rh0 2.299560 1_655
B14 Sc3 2.657953 1_654
B14 Sc3 2.657953 1_554
B14 Sc4 2.727489 1_645
B14 Sc4 2.727489 1_545
B15 B20 1.734469 1_555
B15 B16 1.751254 1_554
B15 B18 1.949597 1_554
B15 Sc2 2.479955 1_554
B15 Sc2 2.479955 1_654
B15 Sc7 2.491829 1_655
B15 Sc7 2.491829 1_555
B15 Sc4 2.661461 1_655
B15 Sc4 2.661461 1_555
B16 B19 1.774040 1_555
B16 Rh2 2.296797 1_655
B16 Rh2 2.296797 1_555
B16 Sc2 2.490858 1_655
B16 Sc2 2.490858 1_555
B16 Sc4 2.600498 1_656
B16 Sc4 2.600498 1_556
B17 B4 1.729979 1_555
B17 B22 1.793811 1_545
B17 B19 1.794663 1_545
B17 Rh2 2.273688 1_645
B17 Rh2 2.273688 1_545
B17 Sc1 2.517162 1_555
B17 Sc1 2.517162 1_655
B17 Sc3 2.662649 1_555
B17 Sc3 2.662649 1_655
B18 B21 1.751254 1_556
B18 Sc7 2.479955 1_556
B18 Sc7 2.479955 1_656
B18 Sc2 2.491829 1_555
B18 Sc2 2.491829 1_655
B18 Sc3 2.661461 1_555
B18 Sc3 2.661461 1_655
B19 Rh2 2.299560 1_655
B19 Rh2 2.299560 1_555
B19 Sc4 2.657953 1_656
B19 Sc4 2.657953 1_556
B19 Sc3 2.727489 1_565
B19 Sc3 2.727489 1_665
B20 B6 1.723289 1_555
B20 B9 1.793811 1_555
B20 Rh3 2.323197 1_655
B20 Rh3 2.323197 1_555
B20 Sc7 2.480912 1_655
B20 Sc7 2.480912 1_555
B20 Sc4 2.631064 1_655
B20 Sc4 2.631064 1_555
B21 B3 1.825137 1_555
B21 Rh0 2.296797 1_555
B21 Rh0 2.296797 1_655
B21 Sc7 2.490858 1_655
B21 Sc7 2.490858 1_555
B21 Sc3 2.600498 1_654
B21 Sc3 2.600498 1_554
B22 Rh2 2.323197 1_655
B22 Rh2 2.323197 1_555
B22 Sc1 2.480912 1_565
B22 Sc1 2.480912 1_665
B22 Sc5 2.631064 1_555
B22 Sc5 2.631064 1_655
B23 B3 1.723289 1_555
B23 B5 1.734469 1_555
B23 Rh0 2.323197 1_655
B23 Rh0 2.323197 1_555
B23 Sc0 2.480912 1_545
B23 Sc0 2.480912 1_645
B23 Sc6 2.631064 1_555
B23 Sc6 2.631064 1_655
Rh0 Sc7 2.771708 1_555
Rh0 Sc0 2.785117 1_545
Rh0 Sc3 2.996324 1_554
Rh0 Sc4 3.057048 1_545
Rh0 Sc6 3.063980 1_555
Rh1 Sc1 2.771708 1_555
Rh1 Sc2 2.785117 1_555
Rh1 Sc6 2.996324 1_555
Rh1 Sc5 3.057048 1_555
Rh1 Sc3 3.063980 1_555
Rh2 Sc2 2.771708 1_555
Rh2 Sc1 2.785117 1_565
Rh2 Sc4 2.996324 1_556
Rh2 Sc3 3.057048 1_565
Rh2 Sc5 3.063980 1_555
Rh3 Sc0 2.771708 1_555
Rh3 Sc7 2.785117 1_555
Rh3 Sc5 2.996324 1_555
Rh3 Sc6 3.057048 1_555
Rh3 Sc4 3.063980 1_555
