# generated using pymatgen
data_CsPH3O4F
_symmetry_space_group_name_H-M   'P 1'
_cell_length_a   7.84959285
_cell_length_b   9.44635626
_cell_length_c   14.68450278
_cell_angle_alpha   90.00000000
_cell_angle_beta   90.00000000
_cell_angle_gamma   90.00000000
_symmetry_Int_Tables_number   1
_chemical_formula_structural   CsPH3O4F
_chemical_formula_sum   'Cs8 P8 H24 O32 F8'
_cell_volume   1088.85662354
_cell_formula_units_Z   8
loop_
 _symmetry_equiv_pos_site_id
 _symmetry_equiv_pos_as_xyz
  1  'x, y, z'
loop_
 _atom_site_type_symbol
 _atom_site_label
 _atom_site_symmetry_multiplicity
 _atom_site_fract_x
 _atom_site_fract_y
 _atom_site_fract_z
 _atom_site_occupancy
  Cs  Cs0  1  0.70012954  0.57139806  0.33425649  1
  Cs  Cs1  1  0.79987046  0.42860194  0.83425649  1
  Cs  Cs2  1  0.20012954  0.57139806  0.16574351  1
  Cs  Cs3  1  0.70012954  0.92860194  0.83425649  1
  Cs  Cs4  1  0.29987046  0.07139806  0.16574351  1
  Cs  Cs5  1  0.79987046  0.07139806  0.33425649  1
  Cs  Cs6  1  0.29987046  0.42860194  0.66574351  1
  Cs  Cs7  1  0.20012954  0.92860194  0.66574351  1
  P  P0  1  0.80959168  0.20135264  0.06003351  1
  P  P1  1  0.30959168  0.20135264  0.43996649  1
  P  P2  1  0.19040832  0.79864736  0.93996649  1
  P  P3  1  0.80959168  0.29864736  0.56003351  1
  P  P4  1  0.19040832  0.70135264  0.43996649  1
  P  P5  1  0.69040832  0.70135264  0.06003351  1
  P  P6  1  0.30959168  0.29864736  0.93996649  1
  P  P7  1  0.69040832  0.79864736  0.56003351  1
  H  H0  1  0.72075276  0.51724949  0.57361855  1
  H  H1  1  0.55389058  0.79866147  0.19896631  1
  H  H2  1  0.77924724  0.01724949  0.57361855  1
  H  H3  1  0.72075276  0.98275051  0.07361855  1
  H  H4  1  0.44610942  0.29866147  0.30103369  1
  H  H5  1  0.55389058  0.70133853  0.69896631  1
  H  H6  1  0.01664088  0.34009676  0.46045705  1
  H  H7  1  0.44610942  0.20133853  0.80103369  1
  H  H8  1  0.27924724  0.01724949  0.92638145  1
  H  H9  1  0.05389058  0.79866147  0.30103369  1
  H  H10  1  0.94610942  0.20133853  0.69896631  1
  H  H11  1  0.01664088  0.15990324  0.96045705  1
  H  H12  1  0.22075276  0.51724949  0.92638145  1
  H  H13  1  0.94610942  0.29866147  0.19896631  1
  H  H14  1  0.98335912  0.84009676  0.03954295  1
  H  H15  1  0.77924724  0.48275051  0.07361855  1
  H  H16  1  0.22075276  0.98275051  0.42638145  1
  H  H17  1  0.98335912  0.65990324  0.53954295  1
  H  H18  1  0.48335912  0.84009676  0.46045705  1
  H  H19  1  0.05389058  0.70133853  0.80103369  1
  H  H20  1  0.48335912  0.65990324  0.96045705  1
  H  H21  1  0.51664088  0.15990324  0.53954295  1
  H  H22  1  0.27924724  0.48275051  0.42638145  1
  H  H23  1  0.51664088  0.34009676  0.03954295  1
  O  O0  1  0.32325863  0.91687121  0.91609525  1
  O  O1  1  0.32325863  0.58312879  0.41609525  1
  O  O2  1  0.88726797  0.34477337  0.46639881  1
  O  O3  1  0.04938115  0.78989541  0.86997537  1
  O  O4  1  0.20924914  0.16272734  0.95026817  1
  O  O5  1  0.54938115  0.78989541  0.63002463  1
  O  O6  1  0.70924914  0.16272734  0.54973183  1
  O  O7  1  0.20924914  0.33727266  0.45026817  1
  O  O8  1  0.17674137  0.41687121  0.91609525  1
  O  O9  1  0.11273203  0.84477337  0.03360119  1
  O  O10  1  0.82325863  0.58312879  0.08390475  1
  O  O11  1  0.67674137  0.08312879  0.08390475  1
  O  O12  1  0.67674137  0.41687121  0.58390475  1
  O  O13  1  0.88726797  0.15522663  0.96639881  1
  O  O14  1  0.79075086  0.66272734  0.54973183  1
  O  O15  1  0.45061885  0.21010459  0.36997537  1
  O  O16  1  0.61273203  0.65522663  0.96639881  1
  O  O17  1  0.29075086  0.83727266  0.45026817  1
  O  O18  1  0.11273203  0.65522663  0.53360119  1
  O  O19  1  0.95061885  0.21010459  0.13002463  1
  O  O20  1  0.17674137  0.08312879  0.41609525  1
  O  O21  1  0.04938115  0.71010459  0.36997537  1
  O  O22  1  0.61273203  0.84477337  0.46639881  1
  O  O23  1  0.95061885  0.28989541  0.63002463  1
  O  O24  1  0.54938115  0.71010459  0.13002463  1
  O  O25  1  0.38726797  0.15522663  0.53360119  1
  O  O26  1  0.45061885  0.28989541  0.86997537  1
  O  O27  1  0.29075086  0.66272734  0.95026817  1
  O  O28  1  0.79075086  0.83727266  0.04973183  1
  O  O29  1  0.82325863  0.91687121  0.58390475  1
  O  O30  1  0.38726797  0.34477337  0.03360119  1
  O  O31  1  0.70924914  0.33727266  0.04973183  1
  F  F0  1  0.05024408  0.63576460  0.74383314  1
  F  F1  1  0.55024408  0.86423540  0.25616686  1
  F  F2  1  0.94975592  0.13576460  0.75616686  1
  F  F3  1  0.44975592  0.36423540  0.24383314  1
  F  F4  1  0.55024408  0.63576460  0.75616686  1
  F  F5  1  0.94975592  0.36423540  0.25616686  1
  F  F6  1  0.44975592  0.13576460  0.74383314  1
  F  F7  1  0.05024408  0.86423540  0.24383314  1
loop_
_geom_bond_atom_site_label_1
_geom_bond_atom_site_label_2
_geom_bond_distance
_geom_bond_site_symmetry_2
Cs0 F5 2.997337 1_555
Cs0 F3 3.074934 1_555
Cs0 O21 3.083448 1_655
Cs0 H1 3.142191 1_555
Cs0 O1 3.194988 1_555
Cs0 F1 3.217344 1_555
Cs0 O2 3.241311 1_555
Cs0 O22 3.302236 1_555
Cs0 O14 3.355911 1_555
Cs1 F4 2.997337 1_555
Cs1 F0 3.074934 1_655
Cs1 O26 3.083448 1_555
Cs1 H10 3.142191 1_555
Cs1 O8 3.194988 1_655
Cs1 F2 3.217344 1_555
Cs1 O16 3.241311 1_555
Cs1 O13 3.302236 1_555
Cs1 O31 3.355911 1_556
Cs2 F3 2.997337 1_555
Cs2 F5 3.074934 1_455
Cs2 O24 3.083448 1_555
Cs2 H9 3.142191 1_555
Cs2 O10 3.194988 1_455
Cs2 F7 3.217344 1_555
Cs2 O30 3.241311 1_555
Cs2 O9 3.302236 1_555
Cs2 O27 3.355911 1_554
Cs3 F2 2.997337 1_565
Cs3 F6 3.074934 1_565
Cs3 O3 3.083448 1_655
Cs3 H5 3.142191 1_555
Cs3 O0 3.194988 1_555
Cs3 F4 3.217344 1_555
Cs3 O13 3.241311 1_565
Cs3 O16 3.302236 1_555
Cs3 O28 3.355911 1_556
Cs4 F7 2.997337 1_545
Cs4 F1 3.074934 1_545
Cs4 O19 3.083448 1_455
Cs4 H4 3.142191 1_555
Cs4 O11 3.194988 1_555
Cs4 F3 3.217344 1_555
Cs4 O9 3.241311 1_545
Cs4 O30 3.302236 1_555
Cs4 O4 3.355911 1_554
Cs5 F1 2.997337 1_545
Cs5 F7 3.074934 1_645
Cs5 O15 3.083448 1_555
Cs5 H13 3.142191 1_555
Cs5 O20 3.194988 1_655
Cs5 F5 3.217344 1_555
Cs5 O22 3.241311 1_545
Cs5 O2 3.302236 1_555
Cs5 O6 3.355911 1_555
Cs6 F0 2.997337 1_555
Cs6 F4 3.074934 1_555
Cs6 O23 3.083448 1_455
Cs6 H7 3.142191 1_555
Cs6 O12 3.194988 1_555
Cs6 F6 3.217344 1_555
Cs6 O18 3.241311 1_555
Cs6 O25 3.302236 1_555
Cs6 O7 3.355911 1_555
Cs7 F6 2.997337 1_565
Cs7 F2 3.074934 1_465
Cs7 O5 3.083448 1_555
Cs7 H19 3.142191 1_555
Cs7 O29 3.194988 1_455
Cs7 F0 3.217344 1_555
Cs7 O25 3.241311 1_565
Cs7 O18 3.302236 1_555
Cs7 O17 3.355911 1_555
H0 O12 1.020425 1_555
H0 O14 1.521007 1_555
H1 O24 1.313756 1_555
H2 O29 1.020425 1_545
H2 O6 1.521007 1_555
H3 O11 1.020425 1_565
H3 O28 1.521007 1_555
H4 O15 1.313756 1_555
H5 O5 1.313756 1_555
H6 O2 1.020223 1_455
H6 O7 1.519516 1_555
H7 O26 1.313756 1_555
H8 O0 1.020425 1_545
H8 O4 1.521007 1_555
H9 O21 1.313756 1_555
H10 O23 1.313756 1_555
H11 O13 1.020223 1_455
H11 O4 1.519516 1_555
H12 O8 1.020425 1_555
H12 O27 1.521007 1_555
H13 O19 1.313756 1_555
H14 O9 1.020223 1_655
H14 O28 1.519516 1_555
H15 O10 1.020425 1_555
H15 O31 1.521007 1_555
H16 O20 1.020425 1_565
H16 O17 1.521007 1_555
H17 O18 1.020223 1_655
H17 O14 1.519516 1_555
H18 O22 1.020223 1_555
H18 O17 1.519516 1_555
H19 O3 1.313756 1_555
H20 O16 1.020223 1_555
H20 O27 1.519516 1_555
H21 O25 1.020223 1_555
H21 O6 1.519516 1_555
H22 O1 1.020425 1_555
H22 O7 1.521007 1_555
H23 O30 1.020223 1_555
H23 O31 1.519516 1_555
O0 P2 1.567661 1_555
O1 P4 1.567661 1_555
O2 P3 1.565947 1_555
O3 P2 1.512825 1_555
O4 P6 1.513869 1_555
O5 P7 1.512825 1_555
O6 P3 1.513869 1_555
O7 P1 1.513869 1_555
O8 P6 1.567661 1_555
O9 P2 1.565947 1_554
O10 P5 1.567661 1_555
O11 P0 1.567661 1_555
O12 P3 1.567661 1_555
O13 P0 1.565947 1_556
O14 P7 1.513869 1_555
O15 P1 1.512825 1_555
O16 P5 1.565947 1_556
O17 P4 1.513869 1_555
O18 P4 1.565947 1_555
O19 P0 1.512825 1_555
O20 P1 1.567661 1_555
O21 P4 1.512825 1_555
O22 P7 1.565947 1_555
O23 P3 1.512825 1_555
O24 P5 1.512825 1_555
O25 P1 1.565947 1_555
O26 P6 1.512825 1_555
O27 P2 1.513869 1_555
O28 P5 1.513869 1_555
O29 P7 1.567661 1_555
O30 P6 1.565947 1_554
O31 P0 1.513869 1_555
F0 H19 1.044057 1_555
F1 H1 1.044057 1_555
F2 H10 1.044057 1_555
F3 H4 1.044057 1_555
F4 H5 1.044057 1_555
F5 H13 1.044057 1_555
F6 H7 1.044057 1_555
F7 H9 1.044057 1_555
