# generated using pymatgen
data_Cs8Ta6O19
_symmetry_space_group_name_H-M   'P 1'
_cell_length_a   9.93969279
_cell_length_b   9.93953285
_cell_length_c   9.93975837
_cell_angle_alpha   119.79992747
_cell_angle_beta   119.80098699
_cell_angle_gamma   90.34695835
_symmetry_Int_Tables_number   1
_chemical_formula_structural   Cs8Ta6O19
_chemical_formula_sum   'Cs8 Ta6 O19'
_cell_volume   696.45860584
_cell_formula_units_Z   1
loop_
 _symmetry_equiv_pos_site_id
 _symmetry_equiv_pos_as_xyz
  1  'x, y, z'
loop_
 _atom_site_type_symbol
 _atom_site_label
 _atom_site_symmetry_multiplicity
 _atom_site_fract_x
 _atom_site_fract_y
 _atom_site_fract_z
 _atom_site_occupancy
  Cs  Cs0  1  0.43434729  0.06663573  0.79945706  1
  Cs  Cs1  1  0.06663403  0.26717693  0.63228651  1
  Cs  Cs2  1  0.63489593  0.43434413  0.36772021  1
  Cs  Cs3  1  0.26717424  0.63489614  0.20054877  1
  Cs  Cs4  1  0.56565342  0.93336458  0.20054367  1
  Cs  Cs5  1  0.93336544  0.73282278  0.36771333  1
  Cs  Cs6  1  0.36510376  0.56565639  0.63227963  1
  Cs  Cs7  1  0.73282539  0.36510362  0.79945089  1
  Ta  Ta0  1  0.21403864  0.10516607  0.31921137  1
  Ta  Ta1  1  0.10515593  0.78594934  0.89109617  1
  Ta  Ta2  1  0.89484381  0.21405028  0.10890216  1
  Ta  Ta3  1  0.78596189  0.89483459  0.68078850  1
  Ta  Ta4  1  0.83269827  0.83270092  0.00000447  1
  Ta  Ta5  1  0.16730203  0.16729902  -0.00000434  1
  O  O0  1  0.37019673  0.19908227  0.56927972  1
  O  O1  1  0.19907975  0.62981187  0.82888872  1
  O  O2  1  0.80092028  0.37018843  0.17111155  1
  O  O3  1  0.62980331  0.80091783  0.43072039  1
  O  O4  1  0.70275967  0.70275631  0.99999596  1
  O  O5  1  0.29724031  0.29724363  0.00000430  1
  O  O6  1  0.26100495  0.91375214  0.17475821  1
  O  O7  1  0.91375350  0.73899812  0.65275197  1
  O  O8  1  0.08624652  0.26100157  0.34724756  1
  O  O9  1  0.73899493  0.08624804  0.82524206  1
  O  O10  1  0.31588223  0.22857508  0.26478440  1
  O  O11  1  0.22856719  0.96378662  0.91268632  1
  O  O12  1  0.05110334  0.31588381  0.08731391  1
  O  O13  1  0.96378659  0.05110285  0.73521949  1
  O  O14  1  0.68411743  0.77142491  0.73521513  1
  O  O15  1  0.77143338  0.03621318  0.08731404  1
  O  O16  1  0.94889689  0.68411659  0.91268689  1
  O  O17  1  0.03621370  0.94889814  0.26478234  1
  O  O18  1  0.00000022  0.00000008  0.00000062  1
loop_
_geom_bond_atom_site_label_1
_geom_bond_atom_site_label_2
_geom_bond_distance
_geom_bond_site_symmetry_2
Cs0 O9 2.906007 1_555
Cs0 O0 2.987968 1_555
Cs0 O5 3.046527 1_556
Cs0 O11 3.146707 1_545
Cs0 O15 3.293547 1_556
Cs0 O2 3.381639 1_556
Cs1 O8 2.906059 1_555
Cs1 O1 2.987998 1_555
Cs1 O5 3.046487 1_556
Cs1 O13 3.146651 1_455
Cs1 O17 3.293557 1_545
Cs1 O0 3.381751 1_555
Cs2 O7 2.905950 1_555
Cs2 O2 2.988077 1_555
Cs2 O5 3.046489 1_555
Cs2 O10 3.146619 1_555
Cs2 O14 3.293501 1_555
Cs2 O3 3.381750 1_555
Cs3 O6 2.905934 1_555
Cs3 O3 2.987967 1_555
Cs3 O5 3.046490 1_555
Cs3 O12 3.146598 1_555
Cs3 O16 3.293510 1_454
Cs3 O1 3.381799 1_554
Cs4 O6 2.906013 1_555
Cs4 O3 2.987965 1_555
Cs4 O4 3.046525 1_554
Cs4 O15 3.146706 1_565
Cs4 O11 3.293547 1_554
Cs4 O1 3.381644 1_554
Cs5 O7 2.906053 1_555
Cs5 O2 2.987993 1_555
Cs5 O4 3.046484 1_554
Cs5 O17 3.146650 1_655
Cs5 O13 3.293570 1_565
Cs5 O3 3.381747 1_555
Cs6 O8 2.905953 1_555
Cs6 O1 2.988077 1_555
Cs6 O4 3.046493 1_555
Cs6 O14 3.146618 1_555
Cs6 O10 3.293505 1_555
Cs6 O0 3.381756 1_555
Cs7 O9 2.905933 1_555
Cs7 O0 2.987964 1_555
Cs7 O4 3.046491 1_555
Cs7 O16 3.146601 1_555
Cs7 O12 3.293515 1_656
Cs7 O2 3.381800 1_556
O0 Ta0 1.816664 1_555
O1 Ta1 1.816568 1_555
O2 Ta2 1.816574 1_555
O3 Ta3 1.816662 1_555
O4 Ta4 1.820956 1_556
O5 Ta5 1.820953 1_555
O6 Ta0 1.964963 1_565
O6 Ta1 2.009452 1_554
O7 Ta1 1.964723 1_655
O7 Ta3 2.009215 1_555
O8 Ta2 1.964731 1_455
O8 Ta0 2.009212 1_555
O9 Ta3 1.964966 1_545
O9 Ta2 2.009439 1_556
O10 Ta0 2.002725 1_555
O10 Ta5 2.002840 1_555
O11 Ta1 2.002572 1_555
O11 Ta5 2.002779 1_566
O12 Ta2 2.002750 1_455
O12 Ta5 2.002849 1_555
O13 Ta3 2.002586 1_545
O13 Ta5 2.002775 1_656
O14 Ta3 2.002733 1_555
O14 Ta4 2.002846 1_556
O15 Ta2 2.002579 1_555
O15 Ta4 2.002777 1_545
O16 Ta1 2.002760 1_655
O16 Ta4 2.002843 1_556
O17 Ta0 2.002597 1_565
O17 Ta4 2.002783 1_455
O18 Ta4 2.344595 1_445
O18 Ta5 2.344601 1_555
O18 Ta0 2.377588 1_555
O18 Ta3 2.377598 1_444
O18 Ta2 2.377643 1_455
O18 Ta1 2.377649 1_544
