# generated using pymatgen
data_LuAlSi
_symmetry_space_group_name_H-M   'P 1'
_cell_length_a   3.94494845
_cell_length_b   5.38789836
_cell_length_c   5.58551987
_cell_angle_alpha   90.00000000
_cell_angle_beta   90.00000000
_cell_angle_gamma   111.47487838
_symmetry_Int_Tables_number   1
_chemical_formula_structural   LuAlSi
_chemical_formula_sum   'Lu2 Al2 Si2'
_cell_volume   110.47835271
_cell_formula_units_Z   2
loop_
 _symmetry_equiv_pos_site_id
 _symmetry_equiv_pos_as_xyz
  1  'x, y, z'
loop_
 _atom_site_type_symbol
 _atom_site_label
 _atom_site_symmetry_multiplicity
 _atom_site_fract_x
 _atom_site_fract_y
 _atom_site_fract_z
 _atom_site_occupancy
  Lu  Lu0  1  0.30459081  0.60918062  0.75000000  1
  Lu  Lu1  1  0.69540919  0.39081938  0.25000000  1
  Al  Al0  1  -0.00000000  0.00000000  0.50000000  1
  Al  Al1  1  -0.00000000  -0.00000000  0.00000000  1
  Si  Si0  1  0.60115444  0.20230788  0.75000000  1
  Si  Si1  1  0.39884556  0.79769212  0.25000000  1
loop_
_geom_bond_atom_site_label_1
_geom_bond_atom_site_label_2
_geom_bond_distance
_geom_bond_site_symmetry_2
Lu0 Si0 2.837651 1_555
Lu0 Si0 2.837652 1_455
Lu0 Si1 2.948365 1_556
Lu0 Si1 2.948365 1_555
Lu0 Si0 2.973857 1_565
Lu1 Si1 2.837651 1_555
Lu1 Si1 2.837652 1_655
Lu1 Si0 2.948365 1_555
Lu1 Si0 2.948365 1_554
Lu1 Si1 2.973857 1_545
Al0 Si0 2.620957 1_455
Al0 Si1 2.620957 1_545
Al0 Si1 2.620960 1_445
Al0 Si0 2.620960 1_555
Al0 Lu0 3.111305 1_445
Al0 Lu1 3.111305 1_555
Al0 Lu0 3.111307 1_545
Al0 Lu1 3.111307 1_455
Al1 Si0 2.620957 1_454
Al1 Si1 2.620957 1_545
Al1 Si1 2.620960 1_445
Al1 Si0 2.620960 1_554
Al1 Lu0 3.111305 1_444
Al1 Lu1 3.111305 1_555
Al1 Lu0 3.111307 1_544
Al1 Lu1 3.111307 1_455
