# generated using pymatgen
data_TiZn2O4
_symmetry_space_group_name_H-M   'P 1'
_cell_length_a   10.40996783
_cell_length_b   10.40996783
_cell_length_c   6.11163925
_cell_angle_alpha   89.86391624
_cell_angle_beta   89.86391624
_cell_angle_gamma   71.74855437
_symmetry_Int_Tables_number   1
_chemical_formula_structural   TiZn2O4
_chemical_formula_sum   'Ti8 Zn16 O32'
_cell_volume   628.98030379
_cell_formula_units_Z   8
loop_
 _symmetry_equiv_pos_site_id
 _symmetry_equiv_pos_as_xyz
  1  'x, y, z'
loop_
 _atom_site_type_symbol
 _atom_site_label
 _atom_site_symmetry_multiplicity
 _atom_site_fract_x
 _atom_site_fract_y
 _atom_site_fract_z
 _atom_site_occupancy
  Ti  Ti0  1  0.62434800  0.62669400  0.23658000  1
  Ti  Ti1  1  0.12600600  0.12270400  0.25052700  1
  Ti  Ti2  1  0.36809500  0.63190500  0.50000000  1
  Ti  Ti3  1  0.87843000  0.61754800  0.50197600  1
  Ti  Ti4  1  0.38245200  0.12157000  0.49802400  1
  Ti  Ti5  1  0.87729600  0.87399400  0.74947300  1
  Ti  Ti6  1  0.37330600  0.37565200  0.76342000  1
  Ti  Ti7  1  0.86880000  0.13120000  0.00000000  1
  Zn  Zn0  1  0.87948400  0.62118300  0.00096500  1
  Zn  Zn1  1  0.37881700  0.12051600  0.99903500  1
  Zn  Zn2  1  0.87531200  0.37431500  0.25032000  1
  Zn  Zn3  1  0.37599100  0.87525100  0.24265000  1
  Zn  Zn4  1  0.69128400  0.93715200  0.26189400  1
  Zn  Zn5  1  0.18860300  0.43548400  0.25627400  1
  Zn  Zn6  1  0.56013300  0.31499600  0.24688700  1
  Zn  Zn7  1  0.06010000  0.81321300  0.24380900  1
  Zn  Zn8  1  0.87194700  0.12805300  0.50000000  1
  Zn  Zn9  1  0.68500400  0.43986700  0.75311300  1
  Zn  Zn10  1  0.56451600  0.81139700  0.74372600  1
  Zn  Zn11  1  0.06284800  0.30871600  0.73810600  1
  Zn  Zn12  1  0.18678700  0.93990000  0.75619100  1
  Zn  Zn13  1  0.62568500  0.12468800  0.74968000  1
  Zn  Zn14  1  0.12474900  0.62400900  0.75735000  1
  Zn  Zn15  1  0.37128400  0.62871600  0.00000000  1
  O  O0  1  0.74378300  0.50742100  0.03092500  1
  O  O1  1  0.50977200  0.74224900  0.02400300  1
  O  O2  1  0.24612500  0.00769700  0.02803300  1
  O  O3  1  0.00387700  0.23340300  0.01175000  1
  O  O4  1  0.49933900  0.51709400  0.26597800  1
  O  O5  1  0.99969500  0.01611000  0.23415100  1
  O  O6  1  0.25112500  0.23309100  0.26205900  1
  O  O7  1  0.74922000  0.73399200  0.27033300  1
  O  O8  1  0.48870600  0.01321600  0.26803400  1
  O  O9  1  0.98752400  0.51507700  0.26793600  1
  O  O10  1  0.76123000  0.23545300  0.23125800  1
  O  O11  1  0.26188500  0.73656800  0.26571900  1
  O  O12  1  0.74893600  0.51610700  0.48750400  1
  O  O13  1  0.24573200  0.01737700  0.48436000  1
  O  O14  1  0.49926100  0.73447900  0.48207500  1
  O  O15  1  0.00273200  0.24088700  0.46619200  1
  O  O16  1  0.98262300  0.75426800  0.51564000  1
  O  O17  1  0.48389300  0.25106400  0.51249600  1
  O  O18  1  0.26552100  0.50073900  0.51792500  1
  O  O19  1  0.75911300  0.99726800  0.53380800  1
  O  O20  1  0.98678400  0.51129400  0.73196600  1
  O  O21  1  0.76454700  0.23877000  0.76874200  1
  O  O22  1  0.48492300  0.01247600  0.73206400  1
  O  O23  1  0.26343200  0.73811500  0.73428100  1
  O  O24  1  0.98389000  0.00030500  0.76584900  1
  O  O25  1  0.48290600  0.50066100  0.73402200  1
  O  O26  1  0.76690900  0.74887500  0.73794100  1
  O  O27  1  0.26600800  0.25078000  0.72966700  1
  O  O28  1  0.99230300  0.75387500  0.97196700  1
  O  O29  1  0.76659700  0.99612300  0.98825000  1
  O  O30  1  0.49257900  0.25621700  0.96907500  1
  O  O31  1  0.25775100  0.49022800  0.97599700  1
loop_
_geom_bond_atom_site_label_1
_geom_bond_atom_site_label_2
_geom_bond_distance
_geom_bond_site_symmetry_2
O0 Ti0 1.923610 1_555
O0 Zn9 2.007960 1_554
O0 Zn2 2.098606 1_555
O0 Zn0 2.115936 1_555
O1 Ti0 1.912793 1_555
O1 Zn10 2.005886 1_554
O1 Zn3 2.105780 1_555
O1 Zn15 2.136774 1_555
O2 Ti1 1.976848 1_555
O2 Zn12 1.980766 1_544
O2 Zn3 2.069147 1_545
O2 Zn1 2.081531 1_554
O3 Ti7 2.013028 1_455
O3 Zn11 2.019617 1_554
O3 Ti1 2.038888 1_555
O3 Zn2 2.200014 1_455
O4 Ti0 1.988822 1_555
O4 Zn6 2.001769 1_555
O4 Ti2 2.077677 1_555
O4 Zn15 2.191061 1_555
O5 Ti1 1.971125 1_655
O5 Zn7 2.006922 1_645
O5 Ti7 2.078114 1_555
O5 Zn8 2.189613 1_555
O6 Ti1 1.990038 1_555
O6 Zn5 2.001180 1_555
O6 Ti4 2.074554 1_555
O6 Zn1 2.178862 1_554
O7 Ti0 1.972762 1_555
O7 Zn4 2.009935 1_555
O7 Ti3 2.064573 1_555
O7 Zn0 2.220195 1_555
O8 Ti4 1.920981 1_555
O8 Zn4 2.007334 1_545
O8 Zn1 2.111618 1_554
O8 Zn3 2.126271 1_545
O9 Ti3 1.927251 1_555
O9 Zn5 1.996596 1_655
O9 Zn0 2.090268 1_555
O9 Zn2 2.144013 1_555
O10 Ti7 1.915179 1_555
O10 Zn6 1.997699 1_555
O10 Zn8 2.114040 1_555
O10 Zn2 2.142504 1_555
O11 Ti2 1.924905 1_555
O11 Zn7 2.004489 1_555
O11 Zn15 2.096135 1_555
O11 Zn3 2.141835 1_555
O12 Ti3 1.957754 1_555
O12 Zn9 2.006874 1_555
O12 Ti0 2.103572 1_555
O12 Zn2 2.189867 1_555
O13 Ti1 1.985687 1_555
O13 Zn12 2.021345 1_545
O13 Ti4 2.043775 1_555
O13 Zn3 2.225799 1_545
O14 Ti2 1.982065 1_555
O14 Zn10 2.002926 1_555
O14 Ti0 2.071048 1_555
O14 Zn3 2.180874 1_555
O15 Ti1 1.976979 1_555
O15 Zn11 1.984746 1_555
O15 Zn2 2.067588 1_455
O15 Zn8 2.067647 1_455
O16 Ti5 1.985687 1_555
O16 Zn7 2.021345 1_655
O16 Ti3 2.043775 1_555
O16 Zn14 2.225799 1_655
O17 Ti4 1.957754 1_555
O17 Zn6 2.006874 1_555
O17 Ti6 2.103572 1_555
O17 Zn13 2.189867 1_555
O18 Ti2 1.982065 1_555
O18 Zn5 2.002926 1_555
O18 Ti6 2.071048 1_555
O18 Zn14 2.180874 1_555
O19 Ti5 1.976979 1_555
O19 Zn4 1.984746 1_555
O19 Zn13 2.067588 1_565
O19 Zn8 2.067647 1_565
O20 Ti3 1.920981 1_555
O20 Zn11 2.007334 1_655
O20 Zn0 2.111618 1_556
O20 Zn14 2.126271 1_655
O21 Ti7 1.915179 1_556
O21 Zn9 1.997699 1_555
O21 Zn8 2.114040 1_555
O21 Zn13 2.142504 1_555
O22 Ti4 1.927251 1_555
O22 Zn10 1.996596 1_545
O22 Zn1 2.090268 1_555
O22 Zn13 2.144013 1_555
O23 Ti2 1.924905 1_555
O23 Zn12 2.004489 1_555
O23 Zn15 2.096135 1_556
O23 Zn14 2.141835 1_555
O24 Ti5 1.971125 1_545
O24 Zn12 2.006922 1_645
O24 Ti7 2.078114 1_556
O24 Zn8 2.189613 1_555
O25 Ti6 1.988822 1_555
O25 Zn9 2.001769 1_555
O25 Ti2 2.077677 1_555
O25 Zn15 2.191061 1_556
O26 Ti5 1.990038 1_555
O26 Zn10 2.001180 1_555
O26 Ti3 2.074554 1_555
O26 Zn0 2.178862 1_556
O27 Ti6 1.972762 1_555
O27 Zn11 2.009935 1_555
O27 Ti4 2.064573 1_555
O27 Zn1 2.220195 1_555
O28 Ti5 1.976848 1_555
O28 Zn7 1.980766 1_656
O28 Zn14 2.069147 1_655
O28 Zn0 2.081531 1_556
O29 Ti7 2.013028 1_566
O29 Zn4 2.019617 1_556
O29 Ti5 2.038888 1_555
O29 Zn13 2.200014 1_565
O30 Ti6 1.923610 1_555
O30 Zn6 2.007960 1_556
O30 Zn13 2.098606 1_555
O30 Zn1 2.115936 1_555
O31 Ti6 1.912793 1_555
O31 Zn5 2.005886 1_556
O31 Zn14 2.105780 1_555
O31 Zn15 2.136774 1_556
