# generated using pymatgen
data_K3Cu11Te16
_symmetry_space_group_name_H-M   'P 1'
_cell_length_a   15.87074294
_cell_length_b   15.87074294
_cell_length_c   15.87074294
_cell_angle_alpha   154.59447555
_cell_angle_beta   103.17934950
_cell_angle_gamma   82.45563237
_symmetry_Int_Tables_number   1
_chemical_formula_structural   K3Cu11Te16
_chemical_formula_sum   'K6 Cu22 Te32'
_cell_volume   1642.97145482
_cell_formula_units_Z   2
loop_
 _symmetry_equiv_pos_site_id
 _symmetry_equiv_pos_as_xyz
  1  'x, y, z'
loop_
 _atom_site_type_symbol
 _atom_site_label
 _atom_site_symmetry_multiplicity
 _atom_site_fract_x
 _atom_site_fract_y
 _atom_site_fract_z
 _atom_site_occupancy
  K  K0  1  0.40224100  0.82294500  0.72518600  1
  K  K1  1  0.09775900  0.82294500  0.42070400  1
  K  K2  1  0.00000000  0.50000000  0.50000000  1
  K  K3  1  0.59775900  0.17705500  0.27481400  1
  K  K4  1  0.50000000  0.00000000  0.50000000  1
  K  K5  1  0.90224100  0.17705500  0.57929600  1
  Cu  Cu0  1  0.47638000  0.38598400  0.68391800  1
  Cu  Cu1  1  0.79793400  0.70753800  0.68391800  1
  Cu  Cu2  1  0.98743400  0.90447700  0.70620200  1
  Cu  Cu3  1  0.70206600  0.38598400  0.90960400  1
  Cu  Cu4  1  0.75000000  0.89881800  0.14881800  1
  Cu  Cu5  1  0.80172500  0.09552300  0.08295600  1
  Cu  Cu6  1  0.01256600  0.09552300  0.29379800  1
  Cu  Cu7  1  0.51256600  0.21876800  0.91704400  1
  Cu  Cu8  1  0.29793400  0.61401600  0.09039600  1
  Cu  Cu9  1  0.69827500  0.78123200  0.29379800  1
  Cu  Cu10  1  0.97638000  0.29246200  0.09039600  1
  Cu  Cu11  1  0.20206600  0.29246200  0.31608200  1
  Cu  Cu12  1  0.25000000  0.10118200  0.85118200  1
  Cu  Cu13  1  0.30172500  0.21876800  0.70620200  1
  Cu  Cu14  1  0.85629400  0.35629400  0.00000000  1
  Cu  Cu15  1  0.48743400  0.78123200  0.08295600  1
  Cu  Cu16  1  0.52362000  0.61401600  0.31608200  1
  Cu  Cu17  1  0.64370600  0.64370600  0.50000000  1
  Cu  Cu18  1  0.19827500  0.90447700  0.91704400  1
  Cu  Cu19  1  0.02362000  0.70753800  0.90960400  1
  Cu  Cu20  1  0.35629400  0.35629400  0.50000000  1
  Cu  Cu21  1  0.14370600  0.64370600  0.00000000  1
  Te  Te0  1  0.73566000  0.04526300  0.66160600  1
  Te  Te1  1  0.88365600  0.57405400  0.33839400  1
  Te  Te2  1  0.15167100  0.32118700  0.79486100  1
  Te  Te3  1  0.64169300  0.34980300  0.70811000  1
  Te  Te4  1  0.47367400  0.67881300  0.83048400  1
  Te  Te5  1  0.34764500  0.35345800  0.20110300  1
  Te  Te6  1  0.85830700  0.56641700  0.70811000  1
  Te  Te7  1  0.84832900  0.67881300  0.20513900  1
  Te  Te8  1  0.35830700  0.65019700  0.29189000  1
  Te  Te9  1  0.76434000  0.42594600  0.30960300  1
  Te  Te10  1  0.14169300  0.43358300  0.29189000  1
  Te  Te11  1  0.38365600  0.04526300  0.30960300  1
  Te  Te12  1  0.35029300  0.05426100  0.70396800  1
  Te  Te13  1  0.65167100  0.85681000  0.83048400  1
  Te  Te14  1  0.84764500  0.64654200  0.99418700  1
  Te  Te15  1  0.42568200  0.50000000  0.92568200  1
  Te  Te16  1  0.64970700  0.94573900  0.29603200  1
  Te  Te17  1  0.57431800  0.50000000  0.07431800  1
  Te  Te18  1  0.11634400  0.42594600  0.66160600  1
  Te  Te19  1  0.34832900  0.14319000  0.16951600  1
  Te  Te20  1  0.15235500  0.35345800  0.00581300  1
  Te  Te21  1  0.65235500  0.64654200  0.79889700  1
  Te  Te22  1  0.85029300  0.14632400  0.29603200  1
  Te  Te23  1  0.92568200  0.00000000  0.92568200  1
  Te  Te24  1  0.52632600  0.32118700  0.16951600  1
  Te  Te25  1  0.14970700  0.85367600  0.70396800  1
  Te  Te26  1  0.02632600  0.85681000  0.20513900  1
  Te  Te27  1  0.97367400  0.14319000  0.79486100  1
  Te  Te28  1  0.61634400  0.95473700  0.69039700  1
  Te  Te29  1  0.26434000  0.95473700  0.33839400  1
  Te  Te30  1  0.07431800  0.00000000  0.07431800  1
  Te  Te31  1  0.23566000  0.57405400  0.69039700  1
loop_
_geom_bond_atom_site_label_1
_geom_bond_atom_site_label_2
_geom_bond_distance
_geom_bond_site_symmetry_2
K0 Te5 3.449241 1_555
K0 Te24 3.626554 1_566
K0 Te19 3.626554 1_566
K0 Te13 3.830382 1_555
K0 Te4 3.830382 1_555
K0 Te5 3.856196 1_566
K0 Te12 3.947471 1_565
K0 Te25 3.947472 1_555
K1 Te20 3.449241 1_555
K1 Te27 3.626554 1_465
K1 Te2 3.626554 1_565
K1 Te26 3.830382 1_555
K1 Te7 3.830382 1_455
K1 Te20 3.856196 1_566
K1 Te25 3.947457 1_555
K1 Te12 3.947471 1_565
K2 Te6 3.681273 1_455
K2 Te10 3.681273 1_555
K2 Te9 3.753043 1_455
K2 Te31 3.753043 1_555
K2 Te1 3.753048 1_455
K2 Te18 3.753048 1_555
K2 Te30 3.785124 1_566
K2 Te23 3.785124 1_465
K2 Te23 3.785124 1_454
K2 Te30 3.785124 1_555
K2 Te25 3.847025 1_555
K2 Te22 3.847025 1_455
K3 Te21 3.449241 1_555
K3 Te13 3.626554 1_544
K3 Te4 3.626554 1_544
K3 Te24 3.830382 1_555
K3 Te19 3.830382 1_555
K3 Te21 3.856196 1_544
K3 Te16 3.947471 1_545
K3 Te22 3.947472 1_555
K4 Te3 3.681273 1_555
K4 Te8 3.681273 1_545
K4 Te29 3.753043 1_545
K4 Te0 3.753043 1_555
K4 Te11 3.753048 1_555
K4 Te28 3.753048 1_545
K4 Te17 3.785124 1_556
K4 Te17 3.785124 1_545
K4 Te15 3.785124 1_544
K4 Te15 3.785124 1_555
K4 Te16 3.847012 1_545
K4 Te12 3.847012 1_555
K5 Te14 3.449241 1_555
K5 Te7 3.626554 1_545
K5 Te26 3.626554 1_645
K5 Te2 3.830382 1_655
K5 Te27 3.830382 1_555
K5 Te14 3.856196 1_544
K5 Te22 3.947457 1_555
K5 Te16 3.947471 1_545
Cu0 Te11 2.601185 1_555
Cu0 Te3 2.627543 1_555
Cu0 Te15 2.669521 1_555
Cu0 Te4 2.733916 1_555
Cu0 Cu15 2.738666 1_556
Cu0 Cu20 2.754755 1_555
Cu0 K4 3.712048 1_555
Cu1 Te9 2.601180 1_555
Cu1 Te6 2.627543 1_555
Cu1 Te23 2.669521 1_565
Cu1 Te13 2.733916 1_555
Cu1 Cu5 2.738665 1_566
Cu1 Cu17 2.754755 1_555
Cu1 K2 3.712048 1_655
Cu2 Te27 2.583214 1_565
Cu2 Te25 2.593974 1_655
Cu2 Te1 2.620929 1_555
Cu2 Te23 2.649273 1_565
Cu2 K2 3.737185 1_655
Cu3 Te0 2.601180 1_555
Cu3 Te3 2.627543 1_555
Cu3 Te17 2.669521 1_556
Cu3 Te7 2.733916 1_556
Cu3 Cu9 2.738670 1_556
Cu3 K4 3.712048 1_555
Cu4 Te22 2.605415 1_565
Cu4 Te16 2.605427 1_555
Cu4 Te21 2.609312 1_554
Cu4 Te14 2.609312 1_554
Cu4 K3 3.575638 1_565
Cu4 K5 3.575638 1_565
Cu5 Te13 2.583214 1_544
Cu5 Te22 2.594005 1_555
Cu5 Te9 2.620917 1_555
Cu5 Te23 2.649263 1_554
Cu5 K2 3.737186 1_655
Cu6 Te26 2.583214 1_545
Cu6 Te22 2.593974 1_455
Cu6 Te18 2.620929 1_555
Cu6 Te30 2.649273 1_555
Cu6 K2 3.737185 1_555
Cu7 Te24 2.583199 1_556
Cu7 Te12 2.593979 1_555
Cu7 Te28 2.620935 1_545
Cu7 Te17 2.649283 1_556
Cu7 K4 3.737200 1_555
Cu8 Te29 2.601180 1_555
Cu8 Te8 2.627543 1_555
Cu8 Te15 2.669521 1_554
Cu8 Te2 2.733916 1_554
Cu8 K4 3.712048 1_565
Cu9 Te7 2.583214 1_555
Cu9 Te16 2.593977 1_555
Cu9 Te0 2.620923 1_565
Cu9 Te17 2.649273 1_555
Cu9 K4 3.737185 1_565
Cu10 Te1 2.601191 1_555
Cu10 Te10 2.627543 1_655
Cu10 Te23 2.669521 1_554
Cu10 Te27 2.733916 1_554
Cu10 Cu2 2.738670 1_544
Cu10 Cu14 2.754755 1_555
Cu10 K2 3.712048 1_655
Cu11 Te31 2.601180 1_555
Cu11 Te10 2.627543 1_555
Cu11 Te30 2.669521 1_555
Cu11 Te19 2.733916 1_555
Cu11 Cu18 2.738665 1_544
Cu11 Cu20 2.754755 1_555
Cu11 K2 3.712048 1_555
Cu12 Te25 2.605415 1_545
Cu12 Te12 2.605427 1_555
Cu12 Te20 2.609312 1_556
Cu12 Te5 2.609312 1_556
Cu12 K1 3.575638 1_545
Cu12 K0 3.575638 1_545
Cu13 Te2 2.583214 1_555
Cu13 Te12 2.593977 1_555
Cu13 Te29 2.620923 1_545
Cu13 Te15 2.649273 1_555
Cu13 Cu8 2.738670 1_556
Cu13 K4 3.737185 1_555
Cu14 Te7 2.593709 1_555
Cu14 Te27 2.593709 1_554
Cu14 Te0 2.602797 1_554
Cu14 Te1 2.602799 1_555
Cu14 Cu3 2.754755 1_554
Cu15 Te4 2.583199 1_554
Cu15 Te16 2.593979 1_555
Cu15 Te11 2.620935 1_565
Cu15 Te15 2.649283 1_554
Cu15 K4 3.737200 1_565
Cu16 Te28 2.601185 1_555
Cu16 Te8 2.627543 1_555
Cu16 Te17 2.669521 1_555
Cu16 Te24 2.733916 1_555
Cu16 Cu7 2.738666 1_554
Cu16 Cu17 2.754755 1_555
Cu16 K4 3.712048 1_565
Cu17 Te24 2.593709 1_555
Cu17 Te13 2.593709 1_555
Cu17 Te28 2.602794 1_555
Cu17 Te9 2.602797 1_555
Cu18 Te19 2.583214 1_566
Cu18 Te25 2.594005 1_555
Cu18 Te31 2.620917 1_555
Cu18 Te30 2.649263 1_566
Cu18 K2 3.737186 1_555
Cu19 Te18 2.601191 1_555
Cu19 Te6 2.627543 1_455
Cu19 Te30 2.669521 1_566
Cu19 Te26 2.733916 1_556
Cu19 Cu6 2.738670 1_566
Cu19 Cu21 2.754755 1_556
Cu19 K2 3.712048 1_555
Cu20 Te4 2.593709 1_555
Cu20 Te19 2.593709 1_555
Cu20 Te11 2.602794 1_555
Cu20 Te31 2.602797 1_555
Cu21 Te26 2.593709 1_555
Cu21 Te2 2.593709 1_554
Cu21 Te29 2.602797 1_555
Cu21 Te18 2.602799 1_554
Cu21 Cu8 2.754755 1_555
Te0 Te28 2.855476 1_545
Te1 Te9 2.855477 1_555
Te2 Te20 2.891092 1_556
Te11 Te29 2.855476 1_545
Te13 Te21 2.891092 1_555
Te14 Te7 2.891092 1_556
Te14 Te26 2.891092 1_656
Te15 Te17 2.931196 1_556
Te18 Te31 2.855477 1_555
Te19 Te5 2.891092 1_555
Te20 Te27 2.891092 1_454
Te21 Te4 2.891092 1_555
Te23 Te30 2.931196 1_656
Te24 Te5 2.891092 1_555
