# generated using pymatgen
data_CaSiO3
_symmetry_space_group_name_H-M   'P 1'
_cell_length_a   5.10169400
_cell_length_b   5.11574900
_cell_length_c   7.20644700
_cell_angle_alpha   90.00000000
_cell_angle_beta   90.00000000
_cell_angle_gamma   90.00000000
_symmetry_Int_Tables_number   1
_chemical_formula_structural   CaSiO3
_chemical_formula_sum   'Ca4 Si4 O12'
_cell_volume   188.08095921
_cell_formula_units_Z   4
loop_
 _symmetry_equiv_pos_site_id
 _symmetry_equiv_pos_as_xyz
  1  'x, y, z'
loop_
 _atom_site_type_symbol
 _atom_site_label
 _atom_site_symmetry_multiplicity
 _atom_site_fract_x
 _atom_site_fract_y
 _atom_site_fract_z
 _atom_site_occupancy
  Ca  Ca0  1  0.49280000  0.99894200  0.25000000  1
  Ca  Ca1  1  0.50720000  0.00105800  0.75000000  1
  Ca  Ca2  1  0.99280000  0.50105800  0.25000000  1
  Ca  Ca3  1  0.00720000  0.49894200  0.75000000  1
  Si  Si0  1  0.00000000  0.00000000  0.50000000  1
  Si  Si1  1  0.00000000  0.00000000  0.00000000  1
  Si  Si2  1  0.50000000  0.50000000  0.00000000  1
  Si  Si3  1  0.50000000  0.50000000  0.50000000  1
  O  O0  1  0.73789100  0.76211000  0.48190100  1
  O  O1  1  0.26210900  0.23789000  0.98190100  1
  O  O2  1  0.99876400  0.96456800  0.75000000  1
  O  O3  1  0.76210900  0.26211000  0.51809900  1
  O  O4  1  0.00123600  0.03543200  0.25000000  1
  O  O5  1  0.50123600  0.46456800  0.25000000  1
  O  O6  1  0.76210900  0.26211000  0.98190100  1
  O  O7  1  0.49876400  0.53543200  0.75000000  1
  O  O8  1  0.26210900  0.23789000  0.51809900  1
  O  O9  1  0.23789100  0.73789000  0.48190100  1
  O  O10  1  0.73789100  0.76211000  0.01809900  1
  O  O11  1  0.23789100  0.73789000  0.01809900  1
loop_
_geom_bond_atom_site_label_1
_geom_bond_atom_site_label_2
_geom_bond_distance
_geom_bond_site_symmetry_2
Ca0 O5 2.382415 1_565
Ca0 O10 2.413340 1_555
Ca0 O0 2.413340 1_555
Ca0 O11 2.503510 1_555
Ca0 O9 2.503510 1_555
Ca0 O4 2.514747 1_565
Ca0 O1 2.571414 1_564
Ca0 O8 2.571414 1_565
Ca0 O4 2.600593 1_665
Ca0 O3 2.726353 1_565
Ca0 O6 2.726353 1_564
Ca0 O5 2.734062 1_555
Ca1 O7 2.382415 1_545
Ca1 O1 2.413340 1_555
Ca1 O8 2.413340 1_555
Ca1 O3 2.503510 1_555
Ca1 O6 2.503510 1_555
Ca1 O2 2.514747 1_545
Ca1 O0 2.571414 1_545
Ca1 O10 2.571414 1_546
Ca1 O2 2.600593 1_445
Ca1 O9 2.726353 1_545
Ca1 O11 2.726353 1_546
Ca1 O7 2.734062 1_555
Ca2 O4 2.382415 1_655
Ca2 O11 2.413340 1_655
Ca2 O9 2.413340 1_655
Ca2 O10 2.503510 1_555
Ca2 O0 2.503510 1_555
Ca2 O5 2.514747 1_555
Ca2 O3 2.571414 1_555
Ca2 O6 2.571414 1_554
Ca2 O5 2.600593 1_655
Ca2 O8 2.726353 1_655
Ca2 O1 2.726353 1_654
Ca2 O4 2.734062 1_665
Ca3 O2 2.382415 1_455
Ca3 O6 2.413340 1_455
Ca3 O3 2.413340 1_455
Ca3 O8 2.503510 1_555
Ca3 O1 2.503510 1_555
Ca3 O7 2.514747 1_555
Ca3 O9 2.571414 1_555
Ca3 O11 2.571414 1_556
Ca3 O7 2.600593 1_455
Ca3 O0 2.726353 1_455
Ca3 O10 2.726353 1_456
Ca3 O2 2.734062 1_445
O0 Si0 1.812779 1_665
O0 Si3 1.813266 1_555
O1 Si1 1.812779 1_556
O1 Si2 1.813266 1_556
O2 Si1 1.810718 1_666
O2 Si0 1.810718 1_665
O3 Si3 1.812779 1_555
O3 Si0 1.813266 1_655
O4 Si1 1.810718 1_555
O4 Si0 1.810718 1_555
O5 Si3 1.810718 1_555
O5 Si2 1.810718 1_555
O6 Si2 1.812779 1_556
O6 Si1 1.813266 1_656
O7 Si3 1.810718 1_555
O7 Si2 1.810718 1_556
O8 Si0 1.812779 1_555
O8 Si3 1.813266 1_555
O9 Si3 1.812779 1_555
O9 Si0 1.813266 1_565
O10 Si1 1.812779 1_665
O10 Si2 1.813266 1_555
O11 Si2 1.812779 1_555
O11 Si1 1.813266 1_565
