# generated using pymatgen
data_K2HgO2
_symmetry_space_group_name_H-M   'P 1'
_cell_length_a   3.90556726
_cell_length_b   3.90556780
_cell_length_c   7.52594052
_cell_angle_alpha   105.03883467
_cell_angle_beta   105.03885056
_cell_angle_gamma   89.99999926
_symmetry_Int_Tables_number   1
_chemical_formula_structural   K2HgO2
_chemical_formula_sum   'K2 Hg1 O2'
_cell_volume   106.78841725
_cell_formula_units_Z   1
loop_
 _symmetry_equiv_pos_site_id
 _symmetry_equiv_pos_as_xyz
  1  'x, y, z'
loop_
 _atom_site_type_symbol
 _atom_site_label
 _atom_site_symmetry_multiplicity
 _atom_site_fract_x
 _atom_site_fract_y
 _atom_site_fract_z
 _atom_site_occupancy
  K  K0  1  0.66944678  0.66944678  0.33889456  1
  K  K1  1  0.33055322  0.33055322  0.66110544  1
  Hg  Hg0  1  -0.00000000  -0.00000000  -0.00000000  1
  O  O0  1  0.85806562  0.85806562  0.71613225  1
  O  O1  1  0.14193438  0.14193438  0.28386775  1
loop_
_geom_bond_atom_site_label_1
_geom_bond_atom_site_label_2
_geom_bond_distance
_geom_bond_site_symmetry_2
K0 O0 2.641015 1_555
K0 O1 2.788388 1_555
K0 O1 2.788393 1_565
K0 O1 2.788393 1_655
K0 O1 2.788399 1_665
K1 O1 2.641015 1_555
K1 O0 2.788388 1_555
K1 O0 2.788393 1_545
K1 O0 2.788393 1_455
K1 O0 2.788399 1_445
Hg0 O0 1.987339 1_444
Hg0 O1 1.987339 1_555
