# generated using pymatgen
data_BaCeC2O6F
_symmetry_space_group_name_H-M   'P 1'
_cell_length_a   13.22308366
_cell_length_b   13.22308366
_cell_length_c   13.22308287
_cell_angle_alpha   22.37447027
_cell_angle_beta   22.37447027
_cell_angle_gamma   22.37446885
_symmetry_Int_Tables_number   1
_chemical_formula_structural   BaCeC2O6F
_chemical_formula_sum   'Ba2 Ce2 C4 O12 F2'
_cell_volume   293.82009668
_cell_formula_units_Z   2
loop_
 _symmetry_equiv_pos_site_id
 _symmetry_equiv_pos_as_xyz
  1  'x, y, z'
loop_
 _atom_site_type_symbol
 _atom_site_label
 _atom_site_symmetry_multiplicity
 _atom_site_fract_x
 _atom_site_fract_y
 _atom_site_fract_z
 _atom_site_occupancy
  Ba  Ba0  1  0.00000000  0.00000000  0.00000000  1
  Ba  Ba1  1  0.50000000  0.50000000  0.50000000  1
  Ce  Ce0  1  0.24485600  0.24485600  0.24485600  1
  Ce  Ce1  1  0.75514400  0.75514400  0.75514400  1
  C  C0  1  0.10748500  0.10748500  0.10748500  1
  C  C1  1  0.89251500  0.89251500  0.89251500  1
  C  C2  1  0.37372000  0.37372000  0.37372000  1
  C  C3  1  0.62628000  0.62628000  0.62628000  1
  O  O0  1  0.81525400  0.25230800  0.25230800  1
  O  O1  1  0.25230800  0.25230800  0.81525400  1
  O  O2  1  0.25230800  0.81525400  0.25230800  1
  O  O3  1  0.74769200  0.18474600  0.74769200  1
  O  O4  1  0.18474600  0.74769200  0.74769200  1
  O  O5  1  0.74769200  0.74769200  0.18474600  1
  O  O6  1  0.08100900  0.51890800  0.51890800  1
  O  O7  1  0.51890800  0.51890800  0.08100900  1
  O  O8  1  0.51890800  0.08100900  0.51890800  1
  O  O9  1  0.48109200  0.91899100  0.48109200  1
  O  O10  1  0.91899100  0.48109200  0.48109200  1
  O  O11  1  0.48109200  0.48109200  0.91899100  1
  F  F0  1  0.18459200  0.18459200  0.18459200  1
  F  F1  1  0.81540800  0.81540800  0.81540800  1
loop_
_geom_bond_atom_site_label_1
_geom_bond_atom_site_label_2
_geom_bond_distance
_geom_bond_site_symmetry_2
Ba0 O9 2.993398 1_544
Ba0 O10 2.993398 1_454
Ba0 O8 2.993398 1_455
Ba0 O6 2.993398 1_545
Ba0 O11 2.993398 1_454
Ba0 O11 2.993398 1_544
Ba0 O7 2.993398 1_455
Ba0 O7 2.993398 1_545
Ba0 O10 2.993399 1_445
Ba0 O9 2.993399 1_445
Ba0 O6 2.993399 1_554
Ba0 O8 2.993399 1_554
Ba1 O3 2.858260 1_555
Ba1 O0 2.858260 1_555
Ba1 O4 2.858260 1_555
Ba1 O2 2.858260 1_555
Ba1 O1 2.858261 1_555
Ba1 O5 2.858261 1_555
Ba1 F1 3.042350 1_554
Ba1 F0 3.042350 1_556
Ba1 F1 3.042350 1_455
Ba1 F0 3.042350 1_655
Ba1 F1 3.042350 1_545
Ba1 F0 3.042350 1_565
Ce0 F0 2.329863 1_555
Ce0 O9 2.518385 1_545
Ce0 O10 2.518385 1_455
Ce0 O11 2.518385 1_554
Ce0 O3 2.666206 1_554
Ce0 O4 2.666206 1_554
Ce0 O5 2.666206 1_455
Ce0 O5 2.666206 1_545
Ce0 O4 2.666206 1_545
Ce0 O3 2.666206 1_455
Ce1 F1 2.329863 1_555
Ce1 O6 2.518385 1_655
Ce1 O8 2.518385 1_565
Ce1 O7 2.518385 1_556
Ce1 O2 2.666206 1_556
Ce1 O0 2.666206 1_556
Ce1 O1 2.666206 1_655
Ce1 O1 2.666206 1_565
Ce1 O0 2.666206 1_565
Ce1 O2 2.666206 1_655
C0 O0 1.295144 1_455
C0 O2 1.295144 1_545
C0 O1 1.295144 1_554
C1 O4 1.295144 1_655
C1 O3 1.295144 1_565
C1 O5 1.295144 1_556
C2 O6 1.297567 1_555
C2 O8 1.297567 1_555
C2 O7 1.297568 1_555
C3 O9 1.297567 1_555
C3 O10 1.297567 1_555
C3 O11 1.297568 1_555
