# generated using pymatgen
data_K8Tl11
_symmetry_space_group_name_H-M   'P 1'
_cell_length_a   18.34230806
_cell_length_b   18.34230806
_cell_length_c   18.34230852
_cell_angle_alpha   32.57254799
_cell_angle_beta   32.57254799
_cell_angle_gamma   32.57255089
_symmetry_Int_Tables_number   1
_chemical_formula_structural   K8Tl11
_chemical_formula_sum   'K16 Tl22'
_cell_volume   1590.62594121
_cell_formula_units_Z   2
loop_
 _symmetry_equiv_pos_site_id
 _symmetry_equiv_pos_as_xyz
  1  'x, y, z'
loop_
 _atom_site_type_symbol
 _atom_site_label
 _atom_site_symmetry_multiplicity
 _atom_site_fract_x
 _atom_site_fract_y
 _atom_site_fract_z
 _atom_site_occupancy
  K  K0  1  0.32595800  0.08966200  0.64979900  1
  K  K1  1  0.07881800  0.07881800  0.07881800  1
  K  K2  1  0.92118200  0.92118200  0.92118200  1
  K  K3  1  0.91033800  0.35020100  0.67404200  1
  K  K4  1  0.35020100  0.67404200  0.91033800  1
  K  K5  1  0.17404200  0.85020100  0.41033800  1
  K  K6  1  0.58966200  0.82595800  0.14979900  1
  K  K7  1  0.08966200  0.64979900  0.32595800  1
  K  K8  1  0.85020100  0.41033800  0.17404200  1
  K  K9  1  0.14979900  0.58966200  0.82595800  1
  K  K10  1  0.82595800  0.14979900  0.58966200  1
  K  K11  1  0.64979900  0.32595800  0.08966200  1
  K  K12  1  0.41033800  0.17404200  0.85020100  1
  K  K13  1  0.42118200  0.42118200  0.42118200  1
  K  K14  1  0.67404200  0.91033800  0.35020100  1
  K  K15  1  0.57881800  0.57881800  0.57881800  1
  Tl  Tl0  1  0.22803100  0.91634000  0.51089500  1
  Tl  Tl1  1  0.58366000  0.27196900  0.98910500  1
  Tl  Tl2  1  0.46756600  0.03243400  0.25000000  1
  Tl  Tl3  1  0.19796100  0.19796100  0.19796100  1
  Tl  Tl4  1  0.08366000  0.48910500  0.77196900  1
  Tl  Tl5  1  0.77196900  0.08366000  0.48910500  1
  Tl  Tl6  1  0.96756600  0.75000000  0.53243400  1
  Tl  Tl7  1  0.53243400  0.96756600  0.75000000  1
  Tl  Tl8  1  0.27196900  0.98910500  0.58366000  1
  Tl  Tl9  1  0.41634000  0.72803100  0.01089500  1
  Tl  Tl10  1  0.30203900  0.30203900  0.30203900  1
  Tl  Tl11  1  0.03243400  0.25000000  0.46756600  1
  Tl  Tl12  1  0.75000000  0.53243400  0.96756600  1
  Tl  Tl13  1  0.69796100  0.69796100  0.69796100  1
  Tl  Tl14  1  0.48910500  0.77196900  0.08366000  1
  Tl  Tl15  1  0.51089500  0.22803100  0.91634000  1
  Tl  Tl16  1  0.25000000  0.46756600  0.03243400  1
  Tl  Tl17  1  0.91634000  0.51089500  0.22803100  1
  Tl  Tl18  1  0.80203900  0.80203900  0.80203900  1
  Tl  Tl19  1  0.01089500  0.41634000  0.72803100  1
  Tl  Tl20  1  0.72803100  0.01089500  0.41634000  1
  Tl  Tl21  1  0.98910500  0.58366000  0.27196900  1
loop_
_geom_bond_atom_site_label_1
_geom_bond_atom_site_label_2
_geom_bond_distance
_geom_bond_site_symmetry_2
K0 Tl7 3.638113 1_545
K0 Tl19 3.675994 1_555
K0 Tl20 3.749163 1_555
K0 Tl8 3.837821 1_545
K0 Tl13 3.974284 1_545
K0 Tl10 4.001486 1_555
K0 Tl9 4.067137 1_546
K1 Tl20 3.827952 1_455
K1 Tl19 3.827952 1_554
K1 Tl9 3.827952 1_545
K1 Tl4 4.149227 1_554
K1 Tl5 4.149227 1_455
K1 Tl14 4.149228 1_545
K1 Tl6 4.161434 1_445
K1 Tl7 4.161434 1_544
K1 Tl12 4.161434 1_454
K2 Tl8 3.827952 1_655
K2 Tl21 3.827952 1_556
K2 Tl1 3.827952 1_565
K2 Tl17 4.149227 1_556
K2 Tl0 4.149227 1_655
K2 Tl15 4.149228 1_565
K2 Tl11 4.161434 1_665
K2 Tl2 4.161434 1_566
K2 Tl16 4.161434 1_656
K3 Tl11 3.638113 1_655
K3 Tl1 3.675994 1_555
K3 Tl21 3.749163 1_555
K3 Tl19 3.837821 1_655
K3 Tl10 3.974284 1_655
K3 Tl13 4.001486 1_555
K3 Tl8 4.067137 1_645
K4 Tl16 3.638112 1_556
K4 Tl8 3.675994 1_555
K4 Tl1 3.749163 1_555
K4 Tl9 3.837821 1_556
K4 Tl10 3.974284 1_556
K4 Tl13 4.001486 1_555
K4 Tl21 4.067137 1_456
K5 Tl6 3.638112 1_455
K5 Tl14 3.675994 1_555
K5 Tl5 3.749163 1_465
K5 Tl0 3.837821 1_555
K5 Tl18 3.974284 1_455
K5 Tl3 4.001486 1_565
K5 Tl4 4.067137 1_555
K6 Tl2 3.638113 1_565
K6 Tl17 3.675994 1_555
K6 Tl15 3.749163 1_564
K6 Tl14 3.837821 1_555
K6 Tl3 3.974284 1_565
K6 Tl18 4.001486 1_554
K6 Tl0 4.067137 1_555
K7 Tl6 3.638113 1_455
K7 Tl9 3.675994 1_555
K7 Tl19 3.749163 1_555
K7 Tl21 3.837821 1_455
K7 Tl13 3.974284 1_455
K7 Tl10 4.001486 1_555
K7 Tl20 4.067137 1_465
K8 Tl12 3.638113 1_554
K8 Tl5 3.675994 1_555
K8 Tl4 3.749163 1_654
K8 Tl17 3.837821 1_555
K8 Tl18 3.974284 1_554
K8 Tl3 4.001486 1_655
K8 Tl14 4.067137 1_555
K9 Tl16 3.638113 1_556
K9 Tl0 3.675994 1_555
K9 Tl17 3.749163 1_456
K9 Tl4 3.837821 1_555
K9 Tl3 3.974284 1_556
K9 Tl18 4.001486 1_455
K9 Tl15 4.067137 1_555
K10 Tl11 3.638112 1_655
K10 Tl15 3.675994 1_555
K10 Tl0 3.749163 1_645
K10 Tl5 3.837821 1_555
K10 Tl3 3.974284 1_655
K10 Tl18 4.001486 1_545
K10 Tl17 4.067137 1_555
K11 Tl12 3.638112 1_554
K11 Tl20 3.675994 1_555
K11 Tl9 3.749163 1_555
K11 Tl1 3.837821 1_554
K11 Tl13 3.974284 1_554
K11 Tl10 4.001486 1_555
K11 Tl19 4.067137 1_654
K12 Tl7 3.638113 1_545
K12 Tl4 3.675994 1_555
K12 Tl14 3.749163 1_546
K12 Tl15 3.837821 1_555
K12 Tl18 3.974284 1_545
K12 Tl3 4.001486 1_556
K12 Tl5 4.067137 1_555
K13 Tl14 3.827952 1_555
K13 Tl4 3.827952 1_555
K13 Tl5 3.827952 1_555
K13 Tl19 4.149227 1_555
K13 Tl9 4.149227 1_555
K13 Tl20 4.149228 1_555
K13 Tl12 4.161434 1_554
K13 Tl7 4.161434 1_545
K13 Tl6 4.161434 1_455
K14 Tl2 3.638113 1_565
K14 Tl21 3.675994 1_555
K14 Tl8 3.749163 1_555
K14 Tl20 3.837821 1_565
K14 Tl10 3.974284 1_565
K14 Tl13 4.001486 1_555
K14 Tl1 4.067137 1_564
K15 Tl15 3.827952 1_555
K15 Tl17 3.827952 1_555
K15 Tl0 3.827952 1_555
K15 Tl21 4.149227 1_555
K15 Tl1 4.149227 1_555
K15 Tl8 4.149228 1_555
K15 Tl16 4.161434 1_556
K15 Tl2 4.161434 1_565
K15 Tl11 4.161434 1_655
Tl0 Tl2 3.145786 1_565
Tl0 Tl3 3.239646 1_565
Tl0 Tl11 3.249578 1_565
Tl0 Tl8 3.292482 1_555
Tl1 Tl2 3.145786 1_556
Tl1 Tl10 3.239646 1_556
Tl1 Tl16 3.249578 1_556
Tl1 Tl15 3.292482 1_555
Tl2 Tl8 3.249578 1_545
Tl2 Tl3 3.514236 1_555
Tl4 Tl6 3.145787 1_455
Tl5 Tl7 3.145786 1_545
Tl5 Tl6 3.249578 1_545
Tl7 Tl9 3.145786 1_556
Tl10 Tl8 3.239646 1_545
Tl10 Tl21 3.239646 1_455
Tl10 Tl11 3.514236 1_555
Tl10 Tl2 3.514236 1_555
Tl10 Tl16 3.514236 1_555
Tl11 Tl17 3.145787 1_455
Tl11 Tl8 3.145787 1_545
Tl11 Tl21 3.249578 1_455
Tl11 Tl3 3.514236 1_555
Tl12 Tl19 3.145787 1_655
Tl12 Tl14 3.145787 1_556
Tl12 Tl4 3.249578 1_655
Tl12 Tl9 3.249578 1_556
Tl12 Tl18 3.514236 1_555
Tl12 Tl13 3.514236 1_555
Tl13 Tl20 3.239646 1_565
Tl13 Tl9 3.239646 1_556
Tl13 Tl19 3.239646 1_655
Tl13 Tl6 3.514236 1_555
Tl13 Tl7 3.514236 1_555
Tl14 Tl18 3.239646 1_554
Tl14 Tl7 3.249578 1_554
Tl14 Tl9 3.292482 1_555
Tl15 Tl16 3.145787 1_556
Tl15 Tl3 3.239646 1_556
Tl15 Tl2 3.249578 1_556
Tl16 Tl21 3.145787 1_455
Tl16 Tl17 3.249578 1_455
Tl16 Tl3 3.514236 1_555
Tl17 Tl3 3.239646 1_655
Tl17 Tl21 3.292482 1_555
Tl18 Tl5 3.239646 1_565
Tl18 Tl4 3.239646 1_655
Tl18 Tl7 3.514236 1_555
Tl18 Tl6 3.514236 1_555
Tl19 Tl6 3.249578 1_455
Tl19 Tl4 3.292482 1_555
Tl20 Tl6 3.145787 1_545
Tl20 Tl7 3.249578 1_545
Tl20 Tl5 3.292482 1_555
