# generated using pymatgen
data_Co2P2H4O9
_symmetry_space_group_name_H-M   'P 1'
_cell_length_a   14.19529600
_cell_length_b   6.40931900
_cell_length_c   9.31273697
_cell_angle_alpha   52.49886828
_cell_angle_beta   90.00000000
_cell_angle_gamma   90.00000000
_symmetry_Int_Tables_number   1
_chemical_formula_structural   Co2P2H4O9
_chemical_formula_sum   'Co8 P8 H16 O36'
_cell_volume   672.19263434
_cell_formula_units_Z   4
loop_
 _symmetry_equiv_pos_site_id
 _symmetry_equiv_pos_as_xyz
  1  'x, y, z'
loop_
 _atom_site_type_symbol
 _atom_site_label
 _atom_site_symmetry_multiplicity
 _atom_site_fract_x
 _atom_site_fract_y
 _atom_site_fract_z
 _atom_site_occupancy
  Co  Co0  1  0.38908000  0.81607100  0.41827300  1
  Co  Co1  1  0.88908000  0.18392900  0.08172700  1
  Co  Co2  1  0.61092000  0.18392900  0.58172700  1
  Co  Co3  1  0.11092000  0.81607100  0.91827300  1
  Co  Co4  1  0.24822800  0.29720800  0.15089800  1
  Co  Co5  1  0.74822800  0.70279200  0.34910200  1
  Co  Co6  1  0.75177200  0.70279200  0.84910200  1
  Co  Co7  1  0.25177200  0.29720800  0.65089800  1
  P  P0  1  0.08471900  0.38870300  0.85002800  1
  P  P1  1  0.58471900  0.61129700  0.64997200  1
  P  P2  1  0.91528100  0.61129700  0.14997200  1
  P  P3  1  0.41528100  0.38870300  0.35002800  1
  P  P4  1  0.18732500  0.85954400  0.57324700  1
  P  P5  1  0.68732500  0.14045600  0.92675300  1
  P  P6  1  0.81267500  0.14045600  0.42675300  1
  P  P7  1  0.31267500  0.85954400  0.07324700  1
  H  H0  1  0.05228500  0.04431000  0.30324200  1
  H  H1  1  0.55228500  0.95569000  0.19675800  1
  H  H2  1  0.94771500  0.95569000  0.69675800  1
  H  H3  1  0.44771500  0.04431000  0.80324200  1
  H  H4  1  0.02400100  0.84906400  0.26145000  1
  H  H5  1  0.52400100  0.15093600  0.23855000  1
  H  H6  1  0.97599900  0.15093600  0.73855000  1
  H  H7  1  0.47599900  0.84906400  0.76145000  1
  H  H8  1  0.18053400  0.57193500  0.31226800  1
  H  H9  1  0.68053400  0.42806500  0.18773200  1
  H  H10  1  0.81946600  0.42806500  0.68773200  1
  H  H11  1  0.31946600  0.57193500  0.81226800  1
  H  H12  1  0.10875800  0.36401000  0.45537400  1
  H  H13  1  0.60875800  0.63599000  0.04462600  1
  H  H14  1  0.89124200  0.63599000  0.54462600  1
  H  H15  1  0.39124200  0.36401000  0.95537400  1
  O  O0  1  0.98037600  0.32297600  0.87055600  1
  O  O1  1  0.48037600  0.67702400  0.62944400  1
  O  O2  1  0.01962400  0.67702400  0.12944400  1
  O  O3  1  0.51962400  0.32297600  0.37055600  1
  O  O4  1  0.14377300  0.19429500  0.84242000  1
  O  O5  1  0.64377300  0.80570500  0.65758000  1
  O  O6  1  0.85622700  0.80570500  0.15758000  1
  O  O7  1  0.35622700  0.19429500  0.34242000  1
  O  O8  1  0.12562600  0.43234100  0.98354000  1
  O  O9  1  0.62562600  0.56765900  0.51646000  1
  O  O10  1  0.87437400  0.56765900  0.01646000  1
  O  O11  1  0.37437400  0.43234100  0.48354000  1
  O  O12  1  0.16137100  0.08082600  0.37724500  1
  O  O13  1  0.66137100  0.91917400  0.12275500  1
  O  O14  1  0.83862900  0.91917400  0.62275500  1
  O  O15  1  0.33862900  0.08082600  0.87724500  1
  O  O16  1  0.20272700  0.94853700  0.69262500  1
  O  O17  1  0.70272700  0.05146300  0.80737500  1
  O  O18  1  0.79727300  0.05146300  0.30737500  1
  O  O19  1  0.29727300  0.94853700  0.19262500  1
  O  O20  1  0.27041900  0.67995300  0.60006500  1
  O  O21  1  0.77041900  0.32004700  0.89993500  1
  O  O22  1  0.72958100  0.32004700  0.39993500  1
  O  O23  1  0.22958100  0.67995300  0.10006500  1
  O  O24  1  0.09423700  0.67374000  0.65188500  1
  O  O25  1  0.59423700  0.32626000  0.84811500  1
  O  O26  1  0.90576300  0.32626000  0.34811500  1
  O  O27  1  0.40576300  0.67374000  0.15188500  1
  O  O28  1  0.99743200  0.97530100  0.27746300  1
  O  O29  1  0.49743200  0.02469900  0.22253700  1
  O  O30  1  0.00256800  0.02469900  0.72253700  1
  O  O31  1  0.50256800  0.97530100  0.77746300  1
  O  O32  1  0.15550700  0.49142900  0.43541300  1
  O  O33  1  0.65550700  0.50857100  0.06458700  1
  O  O34  1  0.84449300  0.50857100  0.56458700  1
  O  O35  1  0.34449300  0.49142900  0.93541300  1
loop_
_geom_bond_atom_site_label_1
_geom_bond_atom_site_label_2
_geom_bond_distance
_geom_bond_site_symmetry_2
Co0 O1 2.051175 1_555
Co0 O7 2.123220 1_565
Co0 O29 2.123383 1_565
Co0 O11 2.154482 1_555
Co0 O19 2.159363 1_555
Co0 O20 2.160158 1_555
Co1 O0 2.051175 1_554
Co1 O6 2.123220 1_545
Co1 O28 2.123383 1_545
Co1 O10 2.154482 1_555
Co1 O18 2.159363 1_555
Co1 O21 2.160158 1_554
Co2 O3 2.051175 1_555
Co2 O5 2.123220 1_545
Co2 O31 2.123383 1_545
Co2 O9 2.154482 1_555
Co2 O17 2.159363 1_555
Co2 O22 2.160158 1_555
Co3 O2 2.051175 1_556
Co3 O4 2.123220 1_565
Co3 O30 2.123383 1_565
Co3 O8 2.154482 1_555
Co3 O16 2.159363 1_555
Co3 O23 2.160158 1_556
Co4 O12 2.080262 1_555
Co4 O35 2.098210 1_554
Co4 O7 2.129367 1_555
Co4 O8 2.136491 1_554
Co4 O19 2.138331 1_545
Co4 O23 2.213163 1_555
Co5 O13 2.080262 1_555
Co5 O34 2.098210 1_555
Co5 O6 2.129367 1_555
Co5 O9 2.136491 1_555
Co5 O18 2.138331 1_565
Co5 O22 2.213163 1_555
Co6 O14 2.080262 1_555
Co6 O33 2.098210 1_556
Co6 O5 2.129367 1_555
Co6 O10 2.136491 1_556
Co6 O17 2.138331 1_565
Co6 O21 2.213163 1_555
Co7 O15 2.080262 1_555
Co7 O32 2.098210 1_555
Co7 O4 2.129367 1_555
Co7 O11 2.136491 1_555
Co7 O16 2.138331 1_545
Co7 O20 2.213163 1_555
H0 O28 0.994411 1_445
H1 O29 0.994411 1_565
H2 O30 0.994411 1_665
H3 O31 0.994411 1_545
H4 O28 0.982864 1_455
H5 O29 0.982864 1_555
H6 O30 0.982864 1_655
H7 O31 0.982864 1_555
H8 O32 0.993562 1_555
H9 O33 0.993562 1_555
H10 O34 0.993562 1_555
H11 O35 0.993562 1_555
H12 O32 0.978290 1_555
H13 O33 0.978290 1_555
H14 O34 0.978290 1_555
H15 O35 0.978290 1_555
O0 P0 1.519819 1_655
O1 P1 1.519819 1_555
O2 P2 1.519819 1_455
O3 P3 1.519819 1_555
O4 P0 1.538769 1_555
O5 P1 1.538769 1_555
O6 P2 1.538769 1_555
O7 P3 1.538769 1_555
O8 P0 1.544275 1_555
O9 P1 1.544275 1_555
O10 P2 1.544275 1_555
O11 P3 1.544275 1_555
O12 P4 1.525453 1_545
O13 P5 1.525453 1_564
O14 P6 1.525453 1_565
O15 P7 1.525453 1_546
O16 P4 1.543104 1_555
O17 P5 1.543104 1_555
O18 P6 1.543104 1_555
O19 P7 1.543104 1_555
O20 P4 1.558400 1_555
O21 P5 1.558400 1_555
O22 P6 1.558400 1_555
O23 P7 1.558400 1_555
O24 P4 1.624431 1_555
O24 P0 1.629810 1_555
O25 P5 1.624431 1_555
O25 P1 1.629810 1_555
O26 P6 1.624431 1_555
O26 P2 1.629810 1_555
O27 P7 1.624431 1_555
O27 P3 1.629810 1_555
