# generated using pymatgen
data_YF3
_symmetry_space_group_name_H-M   'P 1'
_cell_length_a   5.38534300
_cell_length_b   5.38534300
_cell_length_c   5.38534300
_cell_angle_alpha   90.00000000
_cell_angle_beta   90.00000000
_cell_angle_gamma   90.00000000
_symmetry_Int_Tables_number   1
_chemical_formula_structural   YF3
_chemical_formula_sum   'Y3 F9'
_cell_volume   156.18528270
_cell_formula_units_Z   3
loop_
 _symmetry_equiv_pos_site_id
 _symmetry_equiv_pos_as_xyz
  1  'x, y, z'
loop_
 _atom_site_type_symbol
 _atom_site_label
 _atom_site_symmetry_multiplicity
 _atom_site_fract_x
 _atom_site_fract_y
 _atom_site_fract_z
 _atom_site_occupancy
  Y  Y0  1  0.00000000  0.50000000  0.50000000  1
  Y  Y1  1  0.50000000  0.50000000  0.00000000  1
  Y  Y2  1  0.50000000  0.00000000  0.50000000  1
  F  F0  1  0.24247900  0.75752100  0.75752100  1
  F  F1  1  0.75752100  0.75752100  0.24247900  1
  F  F2  1  0.75752100  0.24247900  0.24247900  1
  F  F3  1  0.75752100  0.24247900  0.75752100  1
  F  F4  1  0.50000000  0.50000000  0.50000000  1
  F  F5  1  0.24247900  0.75752100  0.24247900  1
  F  F6  1  0.24247900  0.24247900  0.75752100  1
  F  F7  1  0.75752100  0.75752100  0.75752100  1
  F  F8  1  0.24247900  0.24247900  0.24247900  1
loop_
_geom_bond_atom_site_label_1
_geom_bond_atom_site_label_2
_geom_bond_distance
_geom_bond_site_symmetry_2
F0 Y1 2.356235 1_556
F0 Y2 2.356235 1_565
F0 Y0 2.356235 1_555
F1 Y2 2.356235 1_565
F1 Y1 2.356235 1_555
F1 Y0 2.356235 1_655
F2 Y2 2.356235 1_555
F2 Y1 2.356235 1_555
F2 Y0 2.356235 1_655
F3 Y2 2.356235 1_555
F3 Y1 2.356235 1_556
F3 Y0 2.356235 1_655
F4 Y0 2.692671 1_555
F4 Y2 2.692671 1_565
F4 Y1 2.692671 1_556
F4 Y1 2.692671 1_555
F4 Y0 2.692671 1_655
F4 Y2 2.692671 1_555
F5 Y2 2.356235 1_565
F5 Y1 2.356235 1_555
F5 Y0 2.356235 1_555
F6 Y2 2.356235 1_555
F6 Y1 2.356235 1_556
F6 Y0 2.356235 1_555
F7 Y1 2.356235 1_556
F7 Y2 2.356235 1_565
F7 Y0 2.356235 1_655
F8 Y2 2.356235 1_555
F8 Y1 2.356235 1_555
F8 Y0 2.356235 1_555
