# generated using pymatgen
data_B8Ru11
_symmetry_space_group_name_H-M   'P 1'
_cell_length_a   2.87569100
_cell_length_b   11.67620200
_cell_length_c   11.96586300
_cell_angle_alpha   90.00000000
_cell_angle_beta   90.00000000
_cell_angle_gamma   90.00000000
_symmetry_Int_Tables_number   1
_chemical_formula_structural   B8Ru11
_chemical_formula_sum   'B16 Ru22'
_cell_volume   401.77956493
_cell_formula_units_Z   2
loop_
 _symmetry_equiv_pos_site_id
 _symmetry_equiv_pos_as_xyz
  1  'x, y, z'
loop_
 _atom_site_type_symbol
 _atom_site_label
 _atom_site_symmetry_multiplicity
 _atom_site_fract_x
 _atom_site_fract_y
 _atom_site_fract_z
 _atom_site_occupancy
  B  B0  1  0.50000000  0.14668700  0.02078500  1
  B  B1  1  0.50000000  0.85331300  0.97921500  1
  B  B2  1  0.50000000  0.35331300  0.52078500  1
  B  B3  1  0.50000000  0.64668700  0.47921500  1
  B  B4  1  0.00000000  0.37808600  0.18737000  1
  B  B5  1  0.00000000  0.62191400  0.81263000  1
  B  B6  1  0.00000000  0.12191400  0.68737000  1
  B  B7  1  0.00000000  0.87808600  0.31263000  1
  B  B8  1  0.50000000  0.14895600  0.31721400  1
  B  B9  1  0.50000000  0.85104400  0.68278600  1
  B  B10  1  0.50000000  0.35104400  0.81721400  1
  B  B11  1  0.50000000  0.64895600  0.18278600  1
  B  B12  1  0.50000000  0.29739900  0.23286700  1
  B  B13  1  0.50000000  0.70260100  0.76713300  1
  B  B14  1  0.50000000  0.20260100  0.73286700  1
  B  B15  1  0.50000000  0.79739900  0.26713300  1
  Ru  Ru0  1  0.00000000  0.00000000  0.00000000  1
  Ru  Ru1  1  0.00000000  0.50000000  0.50000000  1
  Ru  Ru2  1  0.00000000  0.28485100  0.38443300  1
  Ru  Ru3  1  0.00000000  0.71514900  0.61556700  1
  Ru  Ru4  1  0.00000000  0.21514900  0.88443300  1
  Ru  Ru5  1  0.00000000  0.78485100  0.11556700  1
  Ru  Ru6  1  0.00000000  0.04428300  0.39717100  1
  Ru  Ru7  1  0.00000000  0.95571700  0.60282900  1
  Ru  Ru8  1  0.00000000  0.45571700  0.89717100  1
  Ru  Ru9  1  0.00000000  0.54428300  0.10282900  1
  Ru  Ru10  1  0.00000000  0.16846100  0.17129100  1
  Ru  Ru11  1  0.00000000  0.83153900  0.82870900  1
  Ru  Ru12  1  0.00000000  0.33153900  0.67129100  1
  Ru  Ru13  1  0.00000000  0.66846100  0.32870900  1
  Ru  Ru14  1  0.50000000  0.46815900  0.29964000  1
  Ru  Ru15  1  0.50000000  0.53184100  0.70036000  1
  Ru  Ru16  1  0.50000000  0.03184100  0.79964000  1
  Ru  Ru17  1  0.50000000  0.96815900  0.20036000  1
  Ru  Ru18  1  0.50000000  0.33587400  0.04712000  1
  Ru  Ru19  1  0.50000000  0.66412600  0.95288000  1
  Ru  Ru20  1  0.50000000  0.16412600  0.54712000  1
  Ru  Ru21  1  0.50000000  0.83587400  0.45288000  1
loop_
_geom_bond_atom_site_label_1
_geom_bond_atom_site_label_2
_geom_bond_distance
_geom_bond_site_symmetry_2
B0 Ru18 2.231349 1_555
B0 Ru0 2.250058 1_655
B0 Ru0 2.250058 1_555
B0 Ru4 2.316985 1_554
B0 Ru4 2.316985 1_654
B0 Ru10 2.318491 1_655
B0 Ru10 2.318491 1_555
B1 Ru19 2.231349 1_555
B1 Ru0 2.250058 1_666
B1 Ru0 2.250058 1_566
B1 Ru5 2.316985 1_656
B1 Ru5 2.316985 1_556
B1 Ru11 2.318491 1_555
B1 Ru11 2.318491 1_655
B2 Ru20 2.231349 1_555
B2 Ru1 2.250058 1_655
B2 Ru1 2.250058 1_555
B2 Ru2 2.316985 1_555
B2 Ru2 2.316985 1_655
B2 Ru12 2.318491 1_555
B2 Ru12 2.318491 1_655
B3 Ru21 2.231349 1_555
B3 Ru1 2.250058 1_555
B3 Ru1 2.250058 1_655
B3 Ru3 2.316985 1_655
B3 Ru3 2.316985 1_555
B3 Ru13 2.318491 1_655
B3 Ru13 2.318491 1_555
B4 Ru9 2.188397 1_555
B4 Ru14 2.231197 1_455
B4 Ru14 2.231197 1_555
B4 Ru18 2.264227 1_555
B4 Ru18 2.264227 1_455
B5 Ru8 2.188397 1_555
B5 Ru15 2.231197 1_455
B5 Ru15 2.231197 1_555
B5 Ru19 2.264227 1_455
B5 Ru19 2.264227 1_555
B6 Ru7 2.188397 1_545
B6 Ru16 2.231197 1_555
B6 Ru16 2.231197 1_455
B6 Ru20 2.264227 1_555
B6 Ru20 2.264227 1_455
B7 Ru6 2.188397 1_565
B7 Ru17 2.231197 1_455
B7 Ru17 2.231197 1_555
B7 Ru21 2.264227 1_555
B7 Ru21 2.264227 1_455
B8 Ru6 2.115777 1_555
B8 Ru6 2.115777 1_655
B8 Ru10 2.273349 1_655
B8 Ru10 2.273349 1_555
B8 Ru2 2.287376 1_655
B8 Ru2 2.287376 1_555
B8 Ru17 2.532103 1_545
B8 Ru20 2.756720 1_555
B9 Ru7 2.115777 1_655
B9 Ru7 2.115777 1_555
B9 Ru11 2.273349 1_655
B9 Ru11 2.273349 1_555
B9 Ru3 2.287376 1_655
B9 Ru3 2.287376 1_555
B9 Ru16 2.532103 1_565
B9 Ru21 2.756720 1_555
B10 B14 2.005695 1_555
B10 Ru8 2.115777 1_655
B10 Ru8 2.115777 1_555
B10 Ru12 2.273349 1_555
B10 Ru12 2.273349 1_655
B10 Ru4 2.287376 1_655
B10 Ru4 2.287376 1_555
B10 Ru15 2.532103 1_555
B10 Ru18 2.756720 1_556
B11 B15 2.005695 1_555
B11 Ru9 2.115777 1_555
B11 Ru9 2.115777 1_655
B11 Ru13 2.273349 1_555
B11 Ru13 2.273349 1_655
B11 Ru5 2.287376 1_655
B11 Ru5 2.287376 1_555
B11 Ru14 2.532103 1_555
B11 Ru19 2.756720 1_554
B12 B4 1.803155 1_555
B12 B4 1.803155 1_655
B12 B8 2.005695 1_555
B12 Ru14 2.147963 1_555
B12 Ru10 2.208356 1_655
B12 Ru10 2.208356 1_555
B12 Ru18 2.267570 1_555
B12 Ru2 2.319068 1_655
B12 Ru2 2.319068 1_555
B13 B5 1.803155 1_555
B13 B5 1.803155 1_655
B13 B9 2.005695 1_555
B13 Ru15 2.147963 1_555
B13 Ru11 2.208356 1_655
B13 Ru11 2.208356 1_555
B13 Ru19 2.267570 1_555
B13 Ru3 2.319068 1_655
B13 Ru3 2.319068 1_555
B14 B6 1.803155 1_555
B14 B6 1.803155 1_655
B14 Ru16 2.147963 1_555
B14 Ru12 2.208356 1_655
B14 Ru12 2.208356 1_555
B14 Ru20 2.267570 1_555
B14 Ru4 2.319068 1_555
B14 Ru4 2.319068 1_655
B15 B7 1.803155 1_555
B15 B7 1.803155 1_655
B15 Ru17 2.147963 1_555
B15 Ru13 2.208356 1_555
B15 Ru13 2.208356 1_655
B15 Ru21 2.267570 1_555
B15 Ru5 2.319068 1_555
B15 Ru5 2.319068 1_655
