# generated using pymatgen
data_LiAlSiH2O5
_symmetry_space_group_name_H-M   'P 1'
_cell_length_a   4.79655600
_cell_length_b   9.02801600
_cell_length_c   11.74449600
_cell_angle_alpha   90.00000000
_cell_angle_beta   90.00000000
_cell_angle_gamma   90.00000000
_symmetry_Int_Tables_number   1
_chemical_formula_structural   LiAlSiH2O5
_chemical_formula_sum   'Li4 Al4 Si4 H8 O20'
_cell_volume   508.57642385
_cell_formula_units_Z   4
loop_
 _symmetry_equiv_pos_site_id
 _symmetry_equiv_pos_as_xyz
  1  'x, y, z'
loop_
 _atom_site_type_symbol
 _atom_site_label
 _atom_site_symmetry_multiplicity
 _atom_site_fract_x
 _atom_site_fract_y
 _atom_site_fract_z
 _atom_site_occupancy
  Li  Li0  1  0.37976800  0.58749000  0.80982200  1
  Li  Li1  1  0.37976800  0.91251000  0.30982200  1
  Li  Li2  1  0.87976800  0.08749000  0.69017800  1
  Li  Li3  1  0.87976800  0.41251000  0.19017800  1
  Al  Al0  1  0.35571900  0.04394900  0.85918300  1
  Al  Al1  1  0.85571900  0.95605100  0.14081700  1
  Al  Al2  1  0.35571900  0.45605100  0.35918300  1
  Al  Al3  1  0.85571900  0.54394900  0.64081700  1
  Si  Si0  1  0.76825700  0.88097300  0.88592500  1
  Si  Si1  1  0.26825700  0.38097300  0.61407500  1
  Si  Si2  1  0.26825700  0.11902700  0.11407500  1
  Si  Si3  1  0.76825700  0.61902700  0.38592500  1
  H  H0  1  0.88518700  0.85377700  0.55153800  1
  H  H1  1  0.20947100  0.48924600  0.99018700  1
  H  H2  1  0.70947100  0.98924600  0.50981300  1
  H  H3  1  0.38518700  0.14622300  0.44846200  1
  H  H4  1  0.70947100  0.51075400  0.00981300  1
  H  H5  1  0.38518700  0.35377700  0.94846200  1
  H  H6  1  0.88518700  0.64622300  0.05153800  1
  H  H7  1  0.20947100  0.01075400  0.49018700  1
  O  O0  1  0.97275000  0.63408000  0.76857400  1
  O  O1  1  0.52335800  0.47438600  0.67386800  1
  O  O2  1  0.88367900  0.96397700  0.55218100  1
  O  O3  1  0.47275000  0.36592000  0.23142600  1
  O  O4  1  0.71231900  0.77436300  0.30791100  1
  O  O5  1  0.47275000  0.13408000  0.73142600  1
  O  O6  1  0.21231900  0.27436300  0.19208900  1
  O  O7  1  0.35039200  0.16122300  0.98105700  1
  O  O8  1  0.38367900  0.03602300  0.44781900  1
  O  O9  1  0.35039200  0.33877700  0.48105700  1
  O  O10  1  0.85039200  0.66122300  0.51894300  1
  O  O11  1  0.85039200  0.83877700  0.01894300  1
  O  O12  1  0.88367900  0.53602300  0.05218100  1
  O  O13  1  0.97275000  0.86592000  0.26857400  1
  O  O14  1  0.71231900  0.72563700  0.80791100  1
  O  O15  1  0.21231900  0.22563700  0.69208900  1
  O  O16  1  0.02335800  0.97438600  0.82613200  1
  O  O17  1  0.02335800  0.52561400  0.32613200  1
  O  O18  1  0.52335800  0.02561400  0.17386800  1
  O  O19  1  0.38367900  0.46397700  0.94781900  1
loop_
_geom_bond_atom_site_label_1
_geom_bond_atom_site_label_2
_geom_bond_distance
_geom_bond_site_symmetry_2
Li0 O19 1.967342 1_555
Li0 O1 2.016557 1_555
Li0 O14 2.024929 1_555
Li0 O0 2.054997 1_455
Li1 O8 1.967342 1_565
Li1 O18 2.016557 1_565
Li1 O4 2.024929 1_555
Li1 O13 2.054997 1_455
Li2 O2 1.967342 1_545
Li2 O16 2.016557 1_645
Li2 O15 2.024929 1_655
Li2 O5 2.054997 1_555
Li3 O12 1.967342 1_555
Li3 O17 2.016557 1_655
Li3 O6 2.024929 1_655
Li3 O3 2.054997 1_555
Al0 O16 1.756848 1_545
Al0 O7 1.780552 1_555
Al0 O5 1.796816 1_555
Al1 O18 1.756848 1_565
Al1 O11 1.780552 1_555
Al1 O13 1.796816 1_555
Al2 O17 1.756848 1_555
Al2 O9 1.780552 1_555
Al2 O3 1.796816 1_555
Al3 O1 1.756848 1_555
Al3 O10 1.780552 1_555
Al3 O0 1.796816 1_555
H0 O2 0.994942 1_555
H1 O19 0.998932 1_555
H2 O2 0.998932 1_555
H3 O8 0.994942 1_555
H4 O12 0.998932 1_555
H5 O19 0.994942 1_555
H6 O12 0.994942 1_555
H7 O8 0.998932 1_555
O0 O14 1.567514 1_555
O1 Si1 1.643643 1_555
O3 O6 1.567514 1_555
O4 Si3 1.696507 1_555
O6 Si2 1.696507 1_555
O7 Si2 1.655563 1_556
O9 Si1 1.655563 1_555
O10 Si3 1.655563 1_555
O11 Si0 1.655563 1_554
O13 O4 1.567514 1_555
O14 Si0 1.696507 1_555
O15 O5 1.567514 1_555
O15 Si1 1.696507 1_555
O16 Si0 1.643643 1_455
O17 Si3 1.643643 1_455
O18 Si2 1.643643 1_555
