# generated using pymatgen
data_Ba3Ti20O40
_symmetry_space_group_name_H-M   'P 1'
_cell_length_a   10.27568035
_cell_length_b   10.27568035
_cell_length_c   10.03228949
_cell_angle_alpha   61.29334600
_cell_angle_beta   61.29334600
_cell_angle_gamma   92.23572160
_symmetry_Int_Tables_number   1
_chemical_formula_structural   Ba3Ti20O40
_chemical_formula_sum   'Ba3 Ti20 O40'
_cell_volume   763.17995304
_cell_formula_units_Z   1
loop_
 _symmetry_equiv_pos_site_id
 _symmetry_equiv_pos_as_xyz
  1  'x, y, z'
loop_
 _atom_site_type_symbol
 _atom_site_label
 _atom_site_symmetry_multiplicity
 _atom_site_fract_x
 _atom_site_fract_y
 _atom_site_fract_z
 _atom_site_occupancy
  Ba  Ba0  1  0.36699854  0.63300146  0.00000000  1
  Ba  Ba1  1  0.63300146  0.36699854  0.00000000  1
  Ba  Ba2  1  -0.00000000  -0.00000000  0.00000000  1
  Ti  Ti0  1  0.26134664  0.06766932  0.18309791  1
  Ti  Ti1  1  0.06766932  0.26134664  0.18309791  1
  Ti  Ti2  1  0.15395464  0.15395464  0.50658873  1
  Ti  Ti3  1  0.65531712  0.05966965  0.46668560  1
  Ti  Ti4  1  0.05966965  0.65531712  0.46668560  1
  Ti  Ti5  1  0.65578612  0.65578612  0.18509484  1
  Ti  Ti6  1  0.44887382  0.25447114  0.48158249  1
  Ti  Ti7  1  0.25447114  0.44887382  0.48158249  1
  Ti  Ti8  1  0.87348484  0.46989493  0.18176839  1
  Ti  Ti9  1  0.46989493  0.87348484  0.18176839  1
  Ti  Ti10  1  0.53010507  0.12651516  0.81823161  1
  Ti  Ti11  1  0.12651516  0.53010507  0.81823161  1
  Ti  Ti12  1  0.74552886  0.55112618  0.51841751  1
  Ti  Ti13  1  0.55112618  0.74552886  0.51841751  1
  Ti  Ti14  1  0.34421388  0.34421388  0.81490516  1
  Ti  Ti15  1  0.94033035  0.34468288  0.53331440  1
  Ti  Ti16  1  0.34468288  0.94033035  0.53331440  1
  Ti  Ti17  1  0.84604536  0.84604536  0.49341127  1
  Ti  Ti18  1  0.93233068  0.73865336  0.81690209  1
  Ti  Ti19  1  0.73865336  0.93233068  0.81690209  1
  O  O0  1  0.03559433  0.03559433  0.28611315  1
  O  O1  1  0.09557467  0.49799426  0.05140614  1
  O  O2  1  0.49799426  0.09557467  0.05140614  1
  O  O3  1  0.30465739  0.30465739  0.05071465  1
  O  O4  1  0.05761887  0.26127966  0.38131418  1
  O  O5  1  0.26127966  0.05761887  0.38131418  1
  O  O6  1  0.34637286  0.34637286  0.34349378  1
  O  O7  1  0.54237790  0.13972653  0.35494896  1
  O  O8  1  0.13972653  0.54237790  0.35494896  1
  O  O9  1  0.06244091  0.25727250  0.64125027  1
  O  O10  1  0.25727250  0.06244091  0.64125027  1
  O  O11  1  0.43746572  0.64408712  0.27832551  1
  O  O12  1  0.64408712  0.43746572  0.27832551  1
  O  O13  1  0.84137322  0.24271219  0.28615543  1
  O  O14  1  0.24271219  0.84137322  0.28615543  1
  O  O15  1  0.89080508  0.69636449  0.05309067  1
  O  O16  1  0.69636449  0.89080508  0.05309067  1
  O  O17  1  0.14343227  0.54511110  0.61424492  1
  O  O18  1  0.54511110  0.14343227  0.61424492  1
  O  O19  1  0.34533570  0.34533570  0.62058166  1
  O  O20  1  0.65466430  0.65466430  0.37941834  1
  O  O21  1  0.45488890  0.85656773  0.38575508  1
  O  O22  1  0.85656773  0.45488890  0.38575508  1
  O  O23  1  0.30363551  0.10919492  0.94690933  1
  O  O24  1  0.10919492  0.30363551  0.94690933  1
  O  O25  1  0.75728781  0.15862678  0.71384457  1
  O  O26  1  0.15862678  0.75728781  0.71384457  1
  O  O27  1  0.56253428  0.35591288  0.72167449  1
  O  O28  1  0.35591288  0.56253428  0.72167449  1
  O  O29  1  0.74272750  0.93755909  0.35874973  1
  O  O30  1  0.93755909  0.74272750  0.35874973  1
  O  O31  1  0.86027347  0.45762210  0.64505104  1
  O  O32  1  0.45762210  0.86027347  0.64505104  1
  O  O33  1  0.65362714  0.65362714  0.65650622  1
  O  O34  1  0.73872034  0.94238113  0.61868582  1
  O  O35  1  0.94238113  0.73872034  0.61868582  1
  O  O36  1  0.69534261  0.69534261  0.94928535  1
  O  O37  1  0.50200574  0.90442533  0.94859386  1
  O  O38  1  0.90442533  0.50200574  0.94859386  1
  O  O39  1  0.96440567  0.96440567  0.71388685  1
loop_
_geom_bond_atom_site_label_1
_geom_bond_atom_site_label_2
_geom_bond_distance
_geom_bond_site_symmetry_2
Ba0 O1 2.756530 1_555
Ba0 O37 2.756530 1_554
Ba0 O8 2.767196 1_555
Ba0 O32 2.767196 1_554
Ba0 O3 3.149924 1_555
Ba0 O36 3.149924 1_554
Ba0 O33 3.177153 1_554
Ba0 O6 3.177153 1_555
Ba0 O28 3.251973 1_554
Ba0 O11 3.251973 1_555
Ba1 O2 2.756530 1_555
Ba1 O38 2.756530 1_554
Ba1 O7 2.767196 1_555
Ba1 O31 2.767196 1_554
Ba1 O3 3.149924 1_555
Ba1 O36 3.149924 1_554
Ba1 O33 3.177153 1_554
Ba1 O6 3.177153 1_555
Ba1 O27 3.251973 1_554
Ba1 O12 3.251973 1_555
Ba2 O15 2.972170 1_445
Ba2 O23 2.972170 1_554
Ba2 O24 2.972170 1_554
Ba2 O16 2.972170 1_445
Ba2 O10 2.977064 1_554
Ba2 O9 2.977064 1_554
Ba2 O30 2.977064 1_445
Ba2 O29 2.977064 1_445
Ba2 O0 3.242411 1_555
Ba2 O39 3.242411 1_444
O0 Ti17 1.958036 1_445
O0 Ti1 1.966730 1_555
O0 Ti0 1.966730 1_555
O1 Ti8 1.928865 1_455
O1 Ti11 2.053779 1_554
O1 Ti1 2.058233 1_555
O2 Ti9 1.928865 1_545
O2 Ti10 2.053779 1_554
O2 Ti0 2.058233 1_555
O3 Ti14 2.016587 1_554
O3 Ti0 2.032946 1_555
O3 Ti1 2.032946 1_555
O4 Ti2 1.929909 1_555
O4 Ti1 1.940732 1_555
O4 Ti15 2.020622 1_455
O5 Ti2 1.929909 1_555
O5 Ti0 1.940732 1_555
O5 Ti16 2.020622 1_545
O6 Ti2 1.993816 1_555
O6 Ti7 2.035414 1_555
O6 Ti6 2.035414 1_555
O7 Ti3 1.928338 1_555
O7 Ti16 2.046456 1_545
O7 Ti6 2.069333 1_555
O8 Ti4 1.928338 1_555
O8 Ti15 2.046456 1_455
O8 Ti7 2.069333 1_555
O9 Ti7 1.991650 1_555
O9 Ti15 2.003150 1_455
O9 Ti2 2.017877 1_555
O10 Ti6 1.991650 1_555
O10 Ti16 2.003150 1_545
O10 Ti2 2.017877 1_555
O11 Ti5 1.943527 1_555
O11 Ti7 1.952062 1_555
O11 Ti9 2.010208 1_555
O12 Ti5 1.943527 1_555
O12 Ti6 1.952062 1_555
O12 Ti8 2.010208 1_555
O13 Ti3 1.895705 1_555
O13 Ti8 1.978556 1_555
O13 Ti1 1.994581 1_655
O14 Ti4 1.895705 1_555
O14 Ti9 1.978556 1_555
O14 Ti0 1.994581 1_565
O15 Ti8 1.993672 1_555
O15 Ti18 2.002645 1_554
O15 Ti5 2.019509 1_555
O16 Ti9 1.993672 1_555
O16 Ti19 2.002645 1_554
O16 Ti5 2.019509 1_555
O17 Ti11 1.896046 1_555
O17 Ti4 1.975942 1_555
O17 Ti7 1.986127 1_555
O18 Ti10 1.896046 1_555
O18 Ti3 1.975942 1_555
O18 Ti6 1.986127 1_555
O19 Ti14 1.938470 1_555
O19 Ti6 1.962484 1_555
O19 Ti7 1.962484 1_555
O20 Ti5 1.938470 1_555
O20 Ti12 1.962484 1_555
O20 Ti13 1.962484 1_555
O21 Ti9 1.896046 1_555
O21 Ti16 1.975942 1_555
O21 Ti13 1.986127 1_555
O22 Ti8 1.896046 1_555
O22 Ti15 1.975942 1_555
O22 Ti12 1.986127 1_555
O23 Ti10 1.993672 1_555
O23 Ti0 2.002645 1_556
O23 Ti14 2.019509 1_555
O24 Ti11 1.993672 1_555
O24 Ti1 2.002645 1_556
O24 Ti14 2.019509 1_555
O25 Ti15 1.895705 1_555
O25 Ti10 1.978556 1_555
O25 Ti19 1.994581 1_545
O26 Ti16 1.895705 1_555
O26 Ti11 1.978556 1_555
O26 Ti18 1.994581 1_455
O27 Ti14 1.943527 1_555
O27 Ti12 1.952062 1_555
O27 Ti10 2.010208 1_555
O28 Ti14 1.943527 1_555
O28 Ti13 1.952062 1_555
O28 Ti11 2.010208 1_555
O29 Ti13 1.991650 1_555
O29 Ti3 2.003150 1_565
O29 Ti17 2.017877 1_555
O30 Ti12 1.991650 1_555
O30 Ti4 2.003150 1_655
O30 Ti17 2.017877 1_555
O31 Ti15 1.928338 1_555
O31 Ti4 2.046456 1_655
O31 Ti12 2.069333 1_555
O32 Ti16 1.928338 1_555
O32 Ti3 2.046456 1_565
O32 Ti13 2.069333 1_555
O33 Ti17 1.993816 1_555
O33 Ti13 2.035414 1_555
O33 Ti12 2.035414 1_555
O34 Ti17 1.929909 1_555
O34 Ti19 1.940732 1_555
O34 Ti3 2.020622 1_565
O35 Ti17 1.929909 1_555
O35 Ti18 1.940732 1_555
O35 Ti4 2.020622 1_655
O36 Ti5 2.016587 1_556
O36 Ti19 2.032946 1_555
O36 Ti18 2.032946 1_555
O37 Ti10 1.928865 1_565
O37 Ti9 2.053779 1_556
O37 Ti19 2.058233 1_555
O38 Ti11 1.928865 1_655
O38 Ti8 2.053779 1_556
O38 Ti18 2.058233 1_555
O39 Ti2 1.958036 1_665
O39 Ti18 1.966730 1_555
O39 Ti19 1.966730 1_555
