# generated using pymatgen
data_TaNO
_symmetry_space_group_name_H-M   'P 1'
_cell_length_a   6.69025630
_cell_length_b   6.69025630
_cell_length_c   3.92248200
_cell_angle_alpha   90.00000000
_cell_angle_beta   90.00000000
_cell_angle_gamma   120.00000296
_symmetry_Int_Tables_number   1
_chemical_formula_structural   TaNO
_chemical_formula_sum   'Ta3 N3 O3'
_cell_volume   152.04673173
_cell_formula_units_Z   3
loop_
 _symmetry_equiv_pos_site_id
 _symmetry_equiv_pos_as_xyz
  1  'x, y, z'
loop_
 _atom_site_type_symbol
 _atom_site_label
 _atom_site_symmetry_multiplicity
 _atom_site_fract_x
 _atom_site_fract_y
 _atom_site_fract_z
 _atom_site_occupancy
  Ta  Ta0  1  0.33333300  0.66666700  0.00000000  1
  Ta  Ta1  1  0.00000000  0.00000000  0.00000000  1
  Ta  Ta2  1  0.66666700  0.33333300  0.00000000  1
  N  N0  1  0.00000000  0.50000000  0.00000000  1
  N  N1  1  0.50000000  0.50000000  0.00000000  1
  N  N2  1  0.50000000  0.00000000  0.00000000  1
  O  O0  1  0.66666700  0.33333300  0.50000000  1
  O  O1  1  0.33333300  0.66666700  0.50000000  1
  O  O2  1  0.00000000  0.00000000  0.50000000  1
loop_
_geom_bond_atom_site_label_1
_geom_bond_atom_site_label_2
_geom_bond_distance
_geom_bond_site_symmetry_2
N0 Ta2 1.931309 1_455
N0 Ta0 1.931309 1_555
N1 Ta2 1.931315 1_555
N1 Ta0 1.931315 1_555
N2 Ta2 1.931309 1_555
N2 Ta0 1.931309 1_545
O0 Ta2 1.961241 1_556
O0 Ta2 1.961241 1_555
O1 Ta0 1.961241 1_556
O1 Ta0 1.961241 1_555
O2 Ta1 1.961241 1_555
O2 Ta1 1.961241 1_556
