# generated using pymatgen
data_HgNO2
_symmetry_space_group_name_H-M   'P 1'
_cell_length_a   10.74107000
_cell_length_b   4.66116700
_cell_length_c   6.58884548
_cell_angle_alpha   70.26154916
_cell_angle_beta   90.00000000
_cell_angle_gamma   90.00000000
_symmetry_Int_Tables_number   1
_chemical_formula_structural   HgNO2
_chemical_formula_sum   'Hg4 N4 O8'
_cell_volume   310.49442323
_cell_formula_units_Z   4
loop_
 _symmetry_equiv_pos_site_id
 _symmetry_equiv_pos_as_xyz
  1  'x, y, z'
loop_
 _atom_site_type_symbol
 _atom_site_label
 _atom_site_symmetry_multiplicity
 _atom_site_fract_x
 _atom_site_fract_y
 _atom_site_fract_z
 _atom_site_occupancy
  Hg  Hg0  1  0.91826800  0.15141500  0.85493100  1
  Hg  Hg1  1  0.41826800  0.84858500  0.64506900  1
  Hg  Hg2  1  0.08173200  0.84858500  0.14506900  1
  Hg  Hg3  1  0.58173200  0.15141500  0.35493100  1
  N  N0  1  0.79539100  0.65331300  0.51979400  1
  N  N1  1  0.29539100  0.34668700  0.98020600  1
  N  N2  1  0.20460900  0.34668700  0.48020600  1
  N  N3  1  0.70460900  0.65331300  0.01979400  1
  O  O0  1  0.76234100  0.37456800  0.60626600  1
  O  O1  1  0.26234100  0.62543200  0.89373400  1
  O  O2  1  0.23765900  0.62543200  0.39373400  1
  O  O3  1  0.73765900  0.37456800  0.10626600  1
  O  O4  1  0.89694200  0.72354500  0.58101200  1
  O  O5  1  0.39694200  0.27645500  0.91898800  1
  O  O6  1  0.10305800  0.27645500  0.41898800  1
  O  O7  1  0.60305800  0.72354500  0.08101200  1
loop_
_geom_bond_atom_site_label_1
_geom_bond_atom_site_label_2
_geom_bond_distance
_geom_bond_site_symmetry_2
Hg0 O0 2.328142 1_555
Hg1 O1 2.328142 1_555
Hg2 O2 2.328142 1_555
Hg3 O3 2.328142 1_555
N0 O4 1.244517 1_555
N0 O0 1.280134 1_555
N1 O5 1.244517 1_555
N1 O1 1.280134 1_555
N2 O6 1.244517 1_555
N2 O2 1.280134 1_555
N3 O7 1.244517 1_555
N3 O3 1.280134 1_555
