# generated using pymatgen
data_Li
_symmetry_space_group_name_H-M   'P 1'
_cell_length_a   6.12872788
_cell_length_b   6.12872641
_cell_length_c   6.12872800
_cell_angle_alpha   59.99999143
_cell_angle_beta   59.99999934
_cell_angle_gamma   60.00000411
_symmetry_Int_Tables_number   1
_chemical_formula_structural   Li
_chemical_formula_sum   Li8
_cell_volume   162.77807417
_cell_formula_units_Z   8
loop_
 _symmetry_equiv_pos_site_id
 _symmetry_equiv_pos_as_xyz
  1  'x, y, z'
loop_
 _atom_site_type_symbol
 _atom_site_label
 _atom_site_symmetry_multiplicity
 _atom_site_fract_x
 _atom_site_fract_y
 _atom_site_fract_z
 _atom_site_occupancy
  Li  Li0_0  1  0.00000000  0.00000000  0.00000000  1
  Li  Li0_1  1  0.00000000  0.00000000  0.50000000  1
  Li  Li0_2  1  0.00000000  0.50000000  0.00000000  1
  Li  Li0_3  1  0.00000000  0.50000000  0.50000000  1
  Li  Li0_4  1  0.50000000  0.00000000  0.00000000  1
  Li  Li0_5  1  0.50000000  0.00000000  0.50000000  1
  Li  Li0_6  1  0.50000000  0.50000000  0.00000000  1
  Li  Li0_7  1  0.50000000  0.50000000  0.50000000  1
loop_
_geom_bond_atom_site_label_1
_geom_bond_atom_site_label_2
_geom_bond_distance
_geom_bond_site_symmetry_2
Li0_0 Li0_3 3.064363 1_554
Li0_0 Li0_2 3.064363 1_545
Li0_0 Li0_2 3.064363 1_555
Li0_0 Li0_3 3.064363 1_545
Li0_0 Li0_6 3.064364 1_455
Li0_0 Li0_6 3.064364 1_545
Li0_0 Li0_5 3.064364 1_455
Li0_0 Li0_5 3.064364 1_554
Li0_0 Li0_4 3.064364 1_555
Li0_0 Li0_4 3.064364 1_455
Li0_0 Li0_1 3.064364 1_554
Li0_0 Li0_1 3.064364 1_555
Li0_1 Li0_2 3.064363 1_546
Li0_1 Li0_3 3.064363 1_555
Li0_1 Li0_2 3.064363 1_555
Li0_1 Li0_3 3.064363 1_545
Li0_1 Li0_7 3.064364 1_545
Li0_1 Li0_7 3.064364 1_455
Li0_1 Li0_5 3.064364 1_455
Li0_1 Li0_4 3.064364 1_555
Li0_1 Li0_5 3.064364 1_555
Li0_1 Li0_4 3.064364 1_456
Li0_2 Li0_4 3.064364 1_465
Li0_2 Li0_4 3.064364 1_555
Li0_2 Li0_6 3.064364 1_555
Li0_2 Li0_7 3.064364 1_554
Li0_2 Li0_6 3.064364 1_455
Li0_2 Li0_7 3.064364 1_455
Li0_2 Li0_3 3.064364 1_554
Li0_2 Li0_3 3.064364 1_555
Li0_3 Li0_5 3.064364 1_555
Li0_3 Li0_5 3.064364 1_465
Li0_3 Li0_7 3.064364 1_555
Li0_3 Li0_6 3.064364 1_456
Li0_3 Li0_7 3.064364 1_455
Li0_3 Li0_6 3.064364 1_555
Li0_4 Li0_6 3.064363 1_555
Li0_4 Li0_7 3.064363 1_545
Li0_4 Li0_7 3.064363 1_554
Li0_4 Li0_6 3.064363 1_545
Li0_4 Li0_5 3.064364 1_555
Li0_4 Li0_5 3.064364 1_554
Li0_5 Li0_7 3.064363 1_555
Li0_5 Li0_6 3.064363 1_546
Li0_5 Li0_6 3.064363 1_555
Li0_5 Li0_7 3.064363 1_545
Li0_6 Li0_7 3.064364 1_554
Li0_6 Li0_7 3.064364 1_555
