# generated using pymatgen
data_HoTeClO3
_symmetry_space_group_name_H-M   'P 1'
_cell_length_a   7.01111700
_cell_length_b   7.39180200
_cell_length_c   9.13794000
_cell_angle_alpha   90.00000000
_cell_angle_beta   90.00000000
_cell_angle_gamma   90.00000000
_symmetry_Int_Tables_number   1
_chemical_formula_structural   HoTeClO3
_chemical_formula_sum   'Ho4 Te4 Cl4 O12'
_cell_volume   473.57180931
_cell_formula_units_Z   4
loop_
 _symmetry_equiv_pos_site_id
 _symmetry_equiv_pos_as_xyz
  1  'x, y, z'
loop_
 _atom_site_type_symbol
 _atom_site_label
 _atom_site_symmetry_multiplicity
 _atom_site_fract_x
 _atom_site_fract_y
 _atom_site_fract_z
 _atom_site_occupancy
  Ho  Ho0  1  0.25000000  0.59308000  0.96373900  1
  Ho  Ho1  1  0.75000000  0.40692000  0.03626100  1
  Ho  Ho2  1  0.75000000  0.90692000  0.46373900  1
  Ho  Ho3  1  0.25000000  0.09308000  0.53626100  1
  Te  Te0  1  0.75000000  0.81672800  0.86922800  1
  Te  Te1  1  0.25000000  0.68327200  0.36922800  1
  Te  Te2  1  0.75000000  0.31672800  0.63077200  1
  Te  Te3  1  0.25000000  0.18327200  0.13077200  1
  Cl  Cl0  1  0.25000000  0.93153100  0.81312800  1
  Cl  Cl1  1  0.25000000  0.43153100  0.68687200  1
  Cl  Cl2  1  0.75000000  0.56846900  0.31312800  1
  Cl  Cl3  1  0.75000000  0.06846900  0.18687200  1
  O  O0  1  0.25000000  0.74206600  0.16982700  1
  O  O1  1  0.75000000  0.75793400  0.66982700  1
  O  O2  1  0.56598900  0.64453200  0.93537200  1
  O  O3  1  0.93401100  0.64453200  0.93537200  1
  O  O4  1  0.43401100  0.35546800  0.06462800  1
  O  O5  1  0.06598900  0.35546800  0.06462800  1
  O  O6  1  0.43401100  0.85546800  0.43537200  1
  O  O7  1  0.56598900  0.14453200  0.56462800  1
  O  O8  1  0.93401100  0.14453200  0.56462800  1
  O  O9  1  0.75000000  0.25793400  0.83017300  1
  O  O10  1  0.25000000  0.24206600  0.33017300  1
  O  O11  1  0.06598900  0.85546800  0.43537200  1
loop_
_geom_bond_atom_site_label_1
_geom_bond_atom_site_label_2
_geom_bond_distance
_geom_bond_site_symmetry_2
Ho0 O0 2.181587 1_556
Ho0 O2 2.262740 1_555
Ho0 O3 2.262740 1_455
Ho0 O4 2.366268 1_556
Ho0 O5 2.366268 1_556
Ho1 O9 2.181587 1_554
Ho1 O5 2.262740 1_655
Ho1 O4 2.262740 1_555
Ho1 O3 2.366268 1_554
Ho1 O2 2.366268 1_554
Ho2 O1 2.181587 1_555
Ho2 O11 2.262740 1_655
Ho2 O6 2.262740 1_555
Ho2 O8 2.366268 1_565
Ho2 O7 2.366268 1_565
Ho3 O10 2.181587 1_555
Ho3 O7 2.262740 1_555
Ho3 O8 2.262740 1_455
Ho3 O6 2.366268 1_545
Ho3 O11 2.366268 1_545
Cl0 Ho3 2.797648 1_565
Cl0 Ho0 2.855337 1_555
Cl1 Ho0 2.797648 1_555
Cl1 Ho3 2.855337 1_555
Cl2 Ho1 2.797648 1_555
Cl2 Ho2 2.855337 1_555
Cl3 Ho2 2.797648 1_545
Cl3 Ho1 2.855337 1_555
O0 Te1 1.873225 1_555
O1 Te0 1.873225 1_555
O2 Te0 1.910460 1_555
O3 Te0 1.910460 1_555
O4 Te3 1.910460 1_555
O5 Te3 1.910460 1_555
O6 Te1 1.910460 1_555
O7 Te2 1.910460 1_555
O8 Te2 1.910460 1_555
O9 Te2 1.873225 1_555
O10 Te3 1.873225 1_555
O11 Te1 1.910460 1_555
