# generated using pymatgen
data_TiSiNi
_symmetry_space_group_name_H-M   'P 1'
_cell_length_a   3.64325589
_cell_length_b   6.12949212
_cell_length_c   6.96799383
_cell_angle_alpha   90.00000000
_cell_angle_beta   90.00000000
_cell_angle_gamma   90.00000000
_symmetry_Int_Tables_number   1
_chemical_formula_structural   TiSiNi
_chemical_formula_sum   'Ti4 Si4 Ni4'
_cell_volume   155.60441823
_cell_formula_units_Z   4
loop_
 _symmetry_equiv_pos_site_id
 _symmetry_equiv_pos_as_xyz
  1  'x, y, z'
loop_
 _atom_site_type_symbol
 _atom_site_label
 _atom_site_symmetry_multiplicity
 _atom_site_fract_x
 _atom_site_fract_y
 _atom_site_fract_z
 _atom_site_occupancy
  Ti  Ti0  1  0.75000000  0.97798654  0.18114543  1
  Ti  Ti1  1  0.25000000  0.02201346  0.81885457  1
  Ti  Ti2  1  0.75000000  0.47798654  0.31885457  1
  Ti  Ti3  1  0.25000000  0.52201346  0.68114543  1
  Si  Si0  1  0.75000000  0.23336618  0.62173274  1
  Si  Si1  1  0.25000000  0.76663382  0.37826726  1
  Si  Si2  1  0.75000000  0.73336618  0.87826726  1
  Si  Si3  1  0.25000000  0.26663382  0.12173274  1
  Ni  Ni0  1  0.75000000  0.85998018  0.56003107  1
  Ni  Ni1  1  0.25000000  0.14001982  0.43996893  1
  Ni  Ni2  1  0.75000000  0.35998018  0.93996893  1
  Ni  Ni3  1  0.25000000  0.64001982  0.06003107  1
loop_
_geom_bond_atom_site_label_1
_geom_bond_atom_site_label_2
_geom_bond_distance
_geom_bond_site_symmetry_2
Si0 Ti3 2.572936 1_555
Si0 Ti3 2.572936 1_655
Si0 Ti2 2.588862 1_555
Si0 Ti1 2.623591 1_555
Si0 Ti1 2.623591 1_655
Si1 Ti2 2.572936 1_555
Si1 Ti2 2.572936 1_455
Si1 Ti3 2.588862 1_555
Si1 Ti0 2.623591 1_455
Si1 Ti0 2.623591 1_555
Si2 Ti1 2.572936 1_565
Si2 Ti1 2.572936 1_665
Si2 Ti0 2.588862 1_556
Si2 Ti3 2.623591 1_555
Si2 Ti3 2.623591 1_655
Si3 Ti0 2.572936 1_545
Si3 Ti0 2.572936 1_445
Si3 Ti1 2.588862 1_554
Si3 Ti2 2.623591 1_555
Si3 Ti2 2.623591 1_455
Ni0 Si1 2.291244 1_555
Ni0 Si1 2.291244 1_655
Ni0 Si0 2.328699 1_565
Ni0 Si2 2.349354 1_555
Ni0 Ni1 2.639051 1_565
Ni0 Ni1 2.639051 1_665
Ni0 Ti0 2.737366 1_555
Ni0 Ti1 2.749051 1_565
Ni0 Ti1 2.749051 1_665
Ni0 Ti2 2.882085 1_555
Ni0 Ti3 2.884773 1_655
Ni0 Ti3 2.884773 1_555
Ni1 Si0 2.291244 1_555
Ni1 Si0 2.291244 1_455
Ni1 Si1 2.328699 1_545
Ni1 Si3 2.349354 1_555
Ni1 Ti1 2.737366 1_555
Ni1 Ti0 2.749051 1_545
Ni1 Ti0 2.749051 1_445
Ni1 Ti3 2.882085 1_555
Ni1 Ti2 2.884773 1_455
Ni1 Ti2 2.884773 1_555
Ni2 Si3 2.291244 1_556
Ni2 Si3 2.291244 1_656
Ni2 Si2 2.328699 1_555
Ni2 Si0 2.349354 1_555
Ni2 Ni3 2.639051 1_656
Ni2 Ni3 2.639051 1_556
Ni2 Ti2 2.737366 1_556
Ni2 Ti3 2.749051 1_555
Ni2 Ti3 2.749051 1_655
Ni2 Ti0 2.882085 1_546
Ni2 Ti1 2.884773 1_655
Ni2 Ti1 2.884773 1_555
Ni3 Si2 2.291244 1_454
Ni3 Si2 2.291244 1_554
Ni3 Si3 2.328699 1_555
Ni3 Si1 2.349354 1_555
Ni3 Ti3 2.737366 1_554
Ni3 Ti2 2.749051 1_455
Ni3 Ti2 2.749051 1_555
Ni3 Ti1 2.882085 1_564
Ni3 Ti0 2.884773 1_455
Ni3 Ti0 2.884773 1_555
