# generated using pymatgen
data_EuC10
_symmetry_space_group_name_H-M   'P 1'
_cell_length_a   9.51237973
_cell_length_b   9.51237973
_cell_length_c   9.51237973
_cell_angle_alpha   109.47122063
_cell_angle_beta   109.47122063
_cell_angle_gamma   109.47122063
_symmetry_Int_Tables_number   1
_chemical_formula_structural   EuC10
_chemical_formula_sum   'Eu6 C60'
_cell_volume   662.59117337
_cell_formula_units_Z   6
loop_
 _symmetry_equiv_pos_site_id
 _symmetry_equiv_pos_as_xyz
  1  'x, y, z'
loop_
 _atom_site_type_symbol
 _atom_site_label
 _atom_site_symmetry_multiplicity
 _atom_site_fract_x
 _atom_site_fract_y
 _atom_site_fract_z
 _atom_site_occupancy
  Eu  Eu0  1  0.26929100  0.50000000  0.76929100  1
  Eu  Eu1  1  0.73070900  0.50000000  0.23070900  1
  Eu  Eu2  1  0.76929100  0.26929100  0.50000000  1
  Eu  Eu3  1  0.50000000  0.23070900  0.73070900  1
  Eu  Eu4  1  0.23070900  0.73070900  0.50000000  1
  Eu  Eu5  1  0.50000000  0.76929100  0.26929100  1
  C  C0  1  0.82873700  0.27714300  0.97542200  1
  C  C1  1  0.17302400  0.41122800  0.02479200  1
  C  C2  1  0.72285700  0.02457800  0.17126300  1
  C  C3  1  0.72285700  0.55159400  0.69827900  1
  C  C4  1  0.25465200  0.93397000  0.32068300  1
  C  C5  1  0.61356400  0.58877200  0.76179600  1
  C  C6  1  0.55159400  0.82873700  0.85331500  1
  C  C7  1  0.61356400  0.85176800  0.02479200  1
  C  C8  1  0.06603000  0.67931700  0.74534800  1
  C  C9  1  0.17302400  0.14823200  0.76179600  1
  C  C10  1  0.02479200  0.17302400  0.41122800  1
  C  C11  1  0.61328700  0.93397000  0.67931700  1
  C  C12  1  0.97520800  0.82697600  0.58877200  1
  C  C13  1  0.38643600  0.14823200  0.97520800  1
  C  C14  1  0.02457800  0.30172100  0.85331500  1
  C  C15  1  0.14823200  0.76179600  0.17302400  1
  C  C16  1  0.85176800  0.02479200  0.61356400  1
  C  C17  1  0.97520800  0.38643600  0.14823200  1
  C  C18  1  0.41122800  0.02479200  0.17302400  1
  C  C19  1  0.58877200  0.97520800  0.82697600  1
  C  C20  1  0.76179600  0.61356400  0.58877200  1
  C  C21  1  0.82873700  0.85331500  0.55159400  1
  C  C22  1  0.44840600  0.30172100  0.27714300  1
  C  C23  1  0.02457800  0.17126300  0.72285700  1
  C  C24  1  0.30172100  0.27714300  0.44840600  1
  C  C25  1  0.82697600  0.58877200  0.97520800  1
  C  C26  1  0.32068300  0.38671300  0.06603000  1
  C  C27  1  0.14668500  0.97542200  0.69827900  1
  C  C28  1  0.02479200  0.61356400  0.85176800  1
  C  C29  1  0.82697600  0.85176800  0.23820400  1
  C  C30  1  0.55159400  0.69827900  0.72285700  1
  C  C31  1  0.97542200  0.69827900  0.14668500  1
  C  C32  1  0.23820400  0.38643600  0.41122800  1
  C  C33  1  0.44840600  0.17126300  0.14668500  1
  C  C34  1  0.67931700  0.74534700  0.06603000  1
  C  C35  1  0.14668500  0.44840600  0.17126300  1
  C  C36  1  0.67931700  0.61328700  0.93397000  1
  C  C37  1  0.85331500  0.55159400  0.82873700  1
  C  C38  1  0.14823200  0.97520800  0.38643600  1
  C  C39  1  0.32068300  0.25465200  0.93397000  1
  C  C40  1  0.06603000  0.32068300  0.38671300  1
  C  C41  1  0.69827900  0.72285700  0.55159400  1
  C  C42  1  0.17126300  0.72285700  0.02457800  1
  C  C43  1  0.27714300  0.44840600  0.30172100  1
  C  C44  1  0.85331500  0.02457800  0.30172100  1
  C  C45  1  0.58877200  0.76179600  0.61356400  1
  C  C46  1  0.38671300  0.06603000  0.32068300  1
  C  C47  1  0.69827900  0.14668500  0.97542200  1
  C  C48  1  0.30172100  0.85331500  0.02457800  1
  C  C49  1  0.23820400  0.82697600  0.85176800  1
  C  C50  1  0.93397000  0.32068300  0.25465200  1
  C  C51  1  0.41122800  0.23820400  0.38643600  1
  C  C52  1  0.27714300  0.97542200  0.82873700  1
  C  C53  1  0.74534700  0.06603000  0.67931700  1
  C  C54  1  0.76179600  0.17302400  0.14823200  1
  C  C55  1  0.38643600  0.41122800  0.23820400  1
  C  C56  1  0.85176800  0.23820400  0.82697600  1
  C  C57  1  0.93397000  0.67931700  0.61328700  1
  C  C58  1  0.97542200  0.82873700  0.27714300  1
  C  C59  1  0.17126300  0.14668500  0.44840600  1
loop_
_geom_bond_atom_site_label_1
_geom_bond_atom_site_label_2
_geom_bond_distance
_geom_bond_site_symmetry_2
C0 C47 1.432944 1_555
C0 C56 1.445958 1_555
C0 C17 1.446511 1_556
C0 Eu3 2.988857 1_555
C0 Eu1 3.264362 1_556
C1 C14 1.445958 1_554
C1 C35 1.446511 1_555
C1 C26 1.446773 1_555
C1 Eu5 3.085140 1_555
C1 Eu0 3.129700 1_554
C2 C44 1.432944 1_555
C2 C54 1.445958 1_555
C2 C7 1.446511 1_545
C2 Eu2 2.988857 1_555
C2 Eu5 3.264362 1_545
C3 C37 1.432944 1_555
C3 C5 1.446511 1_555
C3 Eu2 2.988857 1_555
C3 Eu3 3.264362 1_555
C4 C46 1.450546 1_565
C4 Eu4 2.977230 1_555
C4 Eu3 3.290444 1_565
C4 Eu5 3.290452 1_555
C5 Eu3 3.085140 1_555
C5 Eu0 3.129700 1_555
C6 C7 1.445958 1_556
C6 Eu0 2.988857 1_555
C6 Eu4 3.264362 1_555
C7 Eu5 3.085140 1_555
C7 Eu0 3.129700 1_554
C8 Eu0 2.977230 1_555
C8 Eu2 3.290444 1_455
C8 Eu4 3.290452 1_555
C9 Eu3 3.085140 1_555
C9 Eu0 3.129700 1_555
C10 C44 1.445958 1_455
C10 C59 1.446511 1_555
C10 C40 1.446773 1_555
C10 Eu0 3.085140 1_555
C10 Eu2 3.129700 1_455
C11 C19 1.446773 1_555
C11 C45 1.446773 1_555
C11 C53 1.450540 1_565
C11 Eu4 2.977230 1_555
C11 Eu5 3.290444 1_555
C11 Eu3 3.290444 1_565
C12 C27 1.445958 1_655
C12 C21 1.446511 1_555
C12 C57 1.446773 1_555
C12 Eu1 3.085140 1_555
C12 Eu4 3.129700 1_655
C13 C33 1.445958 1_556
C13 C52 1.446511 1_545
C13 C39 1.446764 1_555
C13 Eu3 3.085140 1_555
C13 Eu1 3.129700 1_556
C14 C23 1.432944 1_555
C14 C56 1.446511 1_455
C14 Eu0 2.988857 1_555
C14 Eu2 3.264362 1_455
C15 C42 1.445958 1_555
C15 C31 1.446511 1_455
C15 C4 1.446773 1_555
C15 Eu4 3.085140 1_555
C15 Eu5 3.129700 1_555
C16 C21 1.445958 1_545
C16 C23 1.446511 1_655
C16 C53 1.446773 1_555
C16 Eu2 3.085140 1_555
C16 Eu5 3.129700 1_545
C17 C35 1.445958 1_655
C17 C50 1.446764 1_555
C17 Eu1 3.085140 1_555
C17 Eu4 3.129700 1_655
C18 C48 1.445958 1_545
C18 C33 1.446511 1_555
C18 C46 1.446773 1_555
C18 Eu2 3.085140 1_555
C18 Eu5 3.129700 1_545
C19 C47 1.445958 1_565
C19 C6 1.446511 1_555
C19 Eu4 3.085140 1_555
C19 Eu3 3.129700 1_565
C20 C3 1.445958 1_555
C20 C41 1.446511 1_555
C20 C57 1.446773 1_555
C20 Eu1 3.085140 1_555
C20 Eu2 3.129700 1_555
C21 C41 1.432944 1_555
C21 Eu5 2.988857 1_555
C21 Eu1 3.264362 1_555
C22 C33 1.432944 1_555
C22 C55 1.445958 1_555
C22 C51 1.446511 1_555
C22 Eu1 2.988857 1_555
C22 Eu2 3.264362 1_555
C23 C9 1.445958 1_555
C23 Eu0 2.988857 1_555
C23 Eu2 3.264362 1_455
C24 C59 1.432944 1_555
C24 C51 1.445958 1_555
C24 C32 1.446511 1_555
C24 Eu3 2.988857 1_555
C24 Eu0 3.264362 1_555
C25 C31 1.445958 1_556
C25 C37 1.446511 1_555
C25 C36 1.446773 1_555
C25 Eu3 3.085140 1_555
C25 Eu1 3.129700 1_556
C26 C55 1.446773 1_555
C26 C39 1.450546 1_554
C26 Eu5 2.977230 1_555
C26 Eu1 3.290444 1_555
C26 Eu0 3.290444 1_554
C27 C52 1.432944 1_555
C27 C9 1.446511 1_565
C27 Eu4 2.988857 1_555
C27 Eu3 3.264362 1_565
C28 C37 1.445958 1_455
C28 C42 1.446511 1_556
C28 C8 1.446764 1_555
C28 Eu0 3.085140 1_555
C28 Eu2 3.129700 1_455
C29 C58 1.445958 1_555
C29 C44 1.446511 1_565
C29 C34 1.446773 1_555
C29 Eu5 3.085140 1_555
C29 Eu1 3.129700 1_555
C30 C6 1.432944 1_555
C30 C5 1.445958 1_555
C30 C45 1.446511 1_555
C30 Eu0 2.988857 1_555
C30 Eu4 3.264362 1_555
C31 C58 1.432944 1_555
C31 Eu1 2.988857 1_555
C31 Eu4 3.264362 1_655
C32 C43 1.445958 1_555
C32 C40 1.446773 1_555
C32 Eu0 3.085140 1_555
C32 Eu4 3.129700 1_555
C33 Eu1 2.988857 1_555
C33 Eu2 3.264362 1_555
C34 C7 1.446773 1_555
C34 C36 1.450540 1_554
C34 Eu5 2.977230 1_555
C34 Eu1 3.290444 1_555
C34 Eu0 3.290444 1_554
C35 C43 1.432944 1_555
C35 Eu4 2.988857 1_555
C35 Eu5 3.264362 1_555
C36 C5 1.446773 1_555
C36 Eu3 2.977230 1_555
C36 Eu0 3.290444 1_555
C36 Eu1 3.290444 1_556
C37 Eu2 2.988857 1_555
C37 Eu3 3.264362 1_555
C38 C59 1.445958 1_565
C38 C58 1.446511 1_455
C38 C4 1.446764 1_555
C38 Eu4 3.085140 1_555
C38 Eu3 3.129700 1_565
C39 C9 1.446773 1_555
C39 Eu3 2.977230 1_555
C39 Eu1 3.290444 1_556
C39 Eu0 3.290452 1_555
C40 C50 1.450546 1_455
C40 Eu0 2.977230 1_555
C40 Eu4 3.290444 1_555
C40 Eu2 3.290444 1_455
C41 C45 1.445958 1_555
C41 Eu5 2.988857 1_555
C41 Eu1 3.264362 1_555
C42 C48 1.432944 1_555
C42 Eu5 2.988857 1_555
C42 Eu0 3.264362 1_554
C43 C55 1.446511 1_555
C43 Eu4 2.988857 1_555
C43 Eu5 3.264362 1_555
C44 Eu2 2.988857 1_555
C44 Eu5 3.264362 1_545
C45 Eu4 3.085140 1_555
C45 Eu5 3.129700 1_555
C46 C51 1.446773 1_555
C46 Eu2 2.977230 1_555
C46 Eu3 3.290444 1_555
C46 Eu5 3.290444 1_545
C47 C54 1.446511 1_556
C47 Eu3 2.988857 1_555
C47 Eu1 3.264362 1_556
C48 C49 1.446511 1_554
C48 Eu5 2.988857 1_555
C48 Eu0 3.264362 1_554
C49 C52 1.445958 1_555
C49 C8 1.446773 1_555
C49 Eu0 3.085140 1_555
C49 Eu4 3.129700 1_555
C50 C54 1.446773 1_555
C50 Eu1 2.977230 1_555
C50 Eu4 3.290444 1_655
C50 Eu2 3.290452 1_555
C51 Eu2 3.085140 1_555
C51 Eu3 3.129700 1_555
C52 Eu4 2.988857 1_555
C52 Eu3 3.264362 1_565
C53 C56 1.446773 1_555
C53 Eu2 2.977230 1_555
C53 Eu3 3.290444 1_555
C53 Eu5 3.290444 1_545
C54 Eu1 3.085140 1_555
C54 Eu2 3.129700 1_555
C55 Eu5 3.085140 1_555
C55 Eu1 3.129700 1_555
C56 Eu2 3.085140 1_555
C56 Eu3 3.129700 1_555
C57 C8 1.450546 1_655
C57 Eu1 2.977230 1_555
C57 Eu2 3.290444 1_555
C57 Eu4 3.290444 1_655
C58 Eu1 2.988857 1_555
C58 Eu4 3.264362 1_655
C59 Eu3 2.988857 1_555
C59 Eu0 3.264362 1_555
