# generated using pymatgen
data_Li4Be3P3ClO12
_symmetry_space_group_name_H-M   'P 1'
_cell_length_a   8.11474400
_cell_length_b   8.11474400
_cell_length_c   8.11474400
_cell_angle_alpha   90.00000000
_cell_angle_beta   90.00000000
_cell_angle_gamma   90.00000000
_symmetry_Int_Tables_number   1
_chemical_formula_structural   Li4Be3P3ClO12
_chemical_formula_sum   'Li8 Be6 P6 Cl2 O24'
_cell_volume   534.34834719
_cell_formula_units_Z   2
loop_
 _symmetry_equiv_pos_site_id
 _symmetry_equiv_pos_as_xyz
  1  'x, y, z'
loop_
 _atom_site_type_symbol
 _atom_site_label
 _atom_site_symmetry_multiplicity
 _atom_site_fract_x
 _atom_site_fract_y
 _atom_site_fract_z
 _atom_site_occupancy
  Li  Li0  1  0.32479500  0.32479500  0.67520500  1
  Li  Li1  1  0.67520500  0.32479500  0.32479500  1
  Li  Li2  1  0.17520500  0.82479500  0.82479500  1
  Li  Li3  1  0.82479500  0.17520500  0.82479500  1
  Li  Li4  1  0.17520500  0.17520500  0.17520500  1
  Li  Li5  1  0.82479500  0.82479500  0.17520500  1
  Li  Li6  1  0.67520500  0.67520500  0.67520500  1
  Li  Li7  1  0.32479500  0.67520500  0.32479500  1
  Be  Be0  1  0.50000000  0.75000000  0.00000000  1
  Be  Be1  1  0.25000000  0.00000000  0.50000000  1
  Be  Be2  1  0.00000000  0.50000000  0.25000000  1
  Be  Be3  1  0.50000000  0.25000000  0.00000000  1
  Be  Be4  1  0.00000000  0.50000000  0.75000000  1
  Be  Be5  1  0.75000000  0.00000000  0.50000000  1
  P  P0  1  0.50000000  0.00000000  0.25000000  1
  P  P1  1  0.00000000  0.25000000  0.50000000  1
  P  P2  1  0.25000000  0.50000000  0.00000000  1
  P  P3  1  0.00000000  0.75000000  0.50000000  1
  P  P4  1  0.50000000  0.00000000  0.75000000  1
  P  P5  1  0.75000000  0.50000000  0.00000000  1
  Cl  Cl0  1  0.50000000  0.50000000  0.50000000  1
  Cl  Cl1  1  0.00000000  0.00000000  0.00000000  1
  O  O0  1  0.36411300  0.08257600  0.64402900  1
  O  O1  1  0.63588700  0.91742400  0.64402900  1
  O  O2  1  0.08257600  0.64402900  0.36411300  1
  O  O3  1  0.36411300  0.91742400  0.35597100  1
  O  O4  1  0.63588700  0.08257600  0.35597100  1
  O  O5  1  0.64402900  0.36411300  0.08257600  1
  O  O6  1  0.41742400  0.86411300  0.85597100  1
  O  O7  1  0.91742400  0.35597100  0.36411300  1
  O  O8  1  0.85597100  0.58257600  0.13588700  1
  O  O9  1  0.64402900  0.63588700  0.91742400  1
  O  O10  1  0.13588700  0.85597100  0.58257600  1
  O  O11  1  0.58257600  0.13588700  0.85597100  1
  O  O12  1  0.91742400  0.64402900  0.63588700  1
  O  O13  1  0.13588700  0.14402900  0.41742400  1
  O  O14  1  0.35597100  0.63588700  0.08257600  1
  O  O15  1  0.14402900  0.58257600  0.86411300  1
  O  O16  1  0.08257600  0.35597100  0.63588700  1
  O  O17  1  0.85597100  0.41742400  0.86411300  1
  O  O18  1  0.86411300  0.14402900  0.58257600  1
  O  O19  1  0.14402900  0.41742400  0.13588700  1
  O  O20  1  0.58257600  0.86411300  0.14402900  1
  O  O21  1  0.35597100  0.36411300  0.91742400  1
  O  O22  1  0.86411300  0.85597100  0.41742400  1
  O  O23  1  0.41742400  0.13588700  0.14402900  1
loop_
_geom_bond_atom_site_label_1
_geom_bond_atom_site_label_2
_geom_bond_distance
_geom_bond_site_symmetry_2
Li0 O21 2.007278 1_555
Li0 O16 2.007278 1_555
Li0 O0 2.007278 1_555
Li1 O7 2.007278 1_555
Li1 O4 2.007278 1_555
Li1 O5 2.007278 1_555
Li2 O10 2.007278 1_555
Li2 O15 2.007278 1_555
Li2 O6 2.007278 1_555
Li3 O18 2.007278 1_555
Li3 O11 2.007278 1_555
Li3 O17 2.007278 1_555
Li4 O19 2.007278 1_555
Li4 O13 2.007278 1_555
Li4 O23 2.007278 1_555
Li5 O20 2.007278 1_555
Li5 O8 2.007278 1_555
Li5 O22 2.007278 1_555
Li6 O9 2.007278 1_555
Li6 O1 2.007278 1_555
Li6 O12 2.007278 1_555
Li7 O3 2.007278 1_555
Li7 O2 2.007278 1_555
Li7 O14 2.007278 1_555
Be0 O9 1.634772 1_554
Be0 O6 1.634772 1_554
Be0 O20 1.634772 1_555
Be0 O14 1.634772 1_555
Be1 O10 1.634772 1_545
Be1 O13 1.634772 1_555
Be1 O0 1.634772 1_555
Be1 O3 1.634772 1_545
Be2 O8 1.634772 1_455
Be2 O2 1.634772 1_555
Be2 O19 1.634772 1_555
Be2 O7 1.634772 1_455
Be3 O11 1.634772 1_554
Be3 O5 1.634772 1_555
Be3 O23 1.634772 1_555
Be3 O21 1.634772 1_554
Be4 O15 1.634772 1_555
Be4 O12 1.634772 1_455
Be4 O17 1.634772 1_455
Be4 O16 1.634772 1_555
Be5 O22 1.634772 1_545
Be5 O18 1.634772 1_555
Be5 O1 1.634772 1_545
Be5 O4 1.634772 1_555
Cl0 Li1 2.462532 1_555
Cl0 Li0 2.462532 1_555
Cl0 Li7 2.462532 1_555
Cl0 Li6 2.462532 1_555
Cl1 Li4 2.462532 1_555
Cl1 Li5 2.462532 1_445
Cl1 Li3 2.462532 1_454
Cl1 Li2 2.462532 1_544
O0 P4 1.550615 1_555
O1 P4 1.550615 1_565
O2 P3 1.550615 1_555
O3 P0 1.550615 1_565
O4 P0 1.550615 1_555
O5 P5 1.550615 1_555
O6 P4 1.550615 1_565
O7 P1 1.550615 1_655
O8 P5 1.550615 1_555
O9 P5 1.550615 1_556
O10 P3 1.550615 1_555
O11 P4 1.550615 1_555
O12 P3 1.550615 1_655
O13 P1 1.550615 1_555
O14 P2 1.550615 1_555
O15 P2 1.550615 1_556
O16 P1 1.550615 1_555
O17 P5 1.550615 1_556
O18 P1 1.550615 1_655
O19 P2 1.550615 1_555
O20 P0 1.550615 1_565
O21 P2 1.550615 1_556
O22 P3 1.550615 1_655
O23 P0 1.550615 1_555
