# generated using pymatgen
data_Dy2MgSi2
_symmetry_space_group_name_H-M   'P 1'
_cell_length_a   4.20468176
_cell_length_b   7.15729824
_cell_length_c   7.15729824
_cell_angle_alpha   90.00000000
_cell_angle_beta   90.00000000
_cell_angle_gamma   90.00000000
_symmetry_Int_Tables_number   1
_chemical_formula_structural   Dy2MgSi2
_chemical_formula_sum   'Dy4 Mg2 Si4'
_cell_volume   215.39288814
_cell_formula_units_Z   2
loop_
 _symmetry_equiv_pos_site_id
 _symmetry_equiv_pos_as_xyz
  1  'x, y, z'
loop_
 _atom_site_type_symbol
 _atom_site_label
 _atom_site_symmetry_multiplicity
 _atom_site_fract_x
 _atom_site_fract_y
 _atom_site_fract_z
 _atom_site_occupancy
  Dy  Dy0  1  0.50000000  0.67834088  0.82165912  1
  Dy  Dy1  1  0.50000000  0.32165912  0.17834088  1
  Dy  Dy2  1  0.50000000  0.82165912  0.32165912  1
  Dy  Dy3  1  0.50000000  0.17834088  0.67834088  1
  Mg  Mg0  1  0.00000000  -0.00000000  0.00000000  1
  Mg  Mg1  1  0.00000000  0.50000000  0.50000000  1
  Si  Si0  1  -0.00000000  0.38251438  0.88251438  1
  Si  Si1  1  0.00000000  0.61748562  0.11748562  1
  Si  Si2  1  0.00000000  0.11748562  0.38251438  1
  Si  Si3  1  -0.00000000  0.88251438  0.61748562  1
loop_
_geom_bond_atom_site_label_1
_geom_bond_atom_site_label_2
_geom_bond_distance
_geom_bond_site_symmetry_2
Dy0 Si3 2.948018 1_555
Dy0 Si3 2.948018 1_655
Dy0 Si0 3.015392 1_555
Dy0 Si0 3.015392 1_655
Dy0 Si1 3.015392 1_656
Dy0 Si1 3.015392 1_556
Dy1 Si2 2.948018 1_655
Dy1 Si2 2.948018 1_555
Dy1 Si0 3.015392 1_654
Dy1 Si0 3.015392 1_554
Dy1 Si1 3.015392 1_555
Dy1 Si1 3.015392 1_655
Dy2 Si1 2.948018 1_655
Dy2 Si1 2.948018 1_555
Dy2 Si3 3.015392 1_655
Dy2 Si3 3.015392 1_555
Dy2 Si2 3.015392 1_565
Dy2 Si2 3.015392 1_665
Dy3 Si0 2.948018 1_555
Dy3 Si0 2.948018 1_655
Dy3 Si3 3.015392 1_645
Dy3 Si3 3.015392 1_545
Dy3 Si2 3.015392 1_655
Dy3 Si2 3.015392 1_555
Mg0 Si1 2.863994 1_545
Mg0 Si3 2.863994 1_544
Mg0 Si0 2.863994 1_554
Mg0 Si2 2.863994 1_555
Mg1 Si1 2.863994 1_555
Mg1 Si2 2.863994 1_555
Mg1 Si3 2.863994 1_555
Mg1 Si0 2.863994 1_555
Si0 Si1 2.378367 1_556
Si2 Si3 2.378367 1_545
