# generated using pymatgen
data_Sr21(Cd2Bi9)2
_symmetry_space_group_name_H-M   'P 1'
_cell_length_a   13.02176358
_cell_length_b   13.02176358
_cell_length_c   18.48110478
_cell_angle_alpha   88.58583080
_cell_angle_beta   88.58583080
_cell_angle_gamma   87.50420873
_symmetry_Int_Tables_number   1
_chemical_formula_structural   Sr21(Cd2Bi9)2
_chemical_formula_sum   'Sr42 Cd8 Bi36'
_cell_volume   3128.97257862
_cell_formula_units_Z   2
loop_
 _symmetry_equiv_pos_site_id
 _symmetry_equiv_pos_as_xyz
  1  'x, y, z'
loop_
 _atom_site_type_symbol
 _atom_site_label
 _atom_site_symmetry_multiplicity
 _atom_site_fract_x
 _atom_site_fract_y
 _atom_site_fract_z
 _atom_site_occupancy
  Sr  Sr0  1  0.74128200  0.40297700  0.15630900  1
  Sr  Sr1  1  0.00307900  0.26003900  0.06140800  1
  Sr  Sr2  1  0.00798900  0.76938800  0.57586400  1
  Sr  Sr3  1  0.57887500  0.92793500  0.75766300  1
  Sr  Sr4  1  0.75852500  0.07040800  0.35124100  1
  Sr  Sr5  1  0.42845800  0.67912200  0.38163800  1
  Sr  Sr6  1  0.92959200  0.24147500  0.64875900  1
  Sr  Sr7  1  0.59347600  0.59347600  0.74585600  1
  Sr  Sr8  1  0.23061200  0.99201100  0.42413600  1
  Sr  Sr9  1  0.50496000  0.18110600  0.43541000  1
  Sr  Sr10  1  0.18110600  0.50496000  0.43541000  1
  Sr  Sr11  1  0.73996100  0.99692100  0.93859200  1
  Sr  Sr12  1  0.42112500  0.07206500  0.24233700  1
  Sr  Sr13  1  0.25051700  0.92410900  0.85441400  1
  Sr  Sr14  1  0.49107100  0.74518100  0.94405300  1
  Sr  Sr15  1  0.40297700  0.74128200  0.15630900  1
  Sr  Sr16  1  0.49504000  0.81889400  0.56459000  1
  Sr  Sr17  1  0.99201100  0.23061200  0.42413600  1
  Sr  Sr18  1  0.92410900  0.25051700  0.85441400  1
  Sr  Sr19  1  0.24147500  0.92959200  0.64875900  1
  Sr  Sr20  1  0.50892900  0.25481900  0.05594700  1
  Sr  Sr21  1  0.25434600  0.25434600  0.58226100  1
  Sr  Sr22  1  0.07040800  0.75852500  0.35124100  1
  Sr  Sr23  1  0.59702300  0.25871800  0.84369100  1
  Sr  Sr24  1  0.74565400  0.74565400  0.41773900  1
  Sr  Sr25  1  0.76938800  0.00798900  0.57586400  1
  Sr  Sr26  1  0.73610600  0.73610600  0.09405700  1
  Sr  Sr27  1  0.25481900  0.50892900  0.05594700  1
  Sr  Sr28  1  0.26003900  0.00307900  0.06140800  1
  Sr  Sr29  1  0.26389400  0.26389400  0.90594300  1
  Sr  Sr30  1  0.40652400  0.40652400  0.25414400  1
  Sr  Sr31  1  0.92793500  0.57887500  0.75766300  1
  Sr  Sr32  1  0.07589100  0.74948300  0.14558600  1
  Sr  Sr33  1  0.67912200  0.42845800  0.38163800  1
  Sr  Sr34  1  0.74518100  0.49107100  0.94405300  1
  Sr  Sr35  1  0.74948300  0.07589100  0.14558600  1
  Sr  Sr36  1  0.32087800  0.57154200  0.61836200  1
  Sr  Sr37  1  0.81889400  0.49504000  0.56459000  1
  Sr  Sr38  1  0.57154200  0.32087800  0.61836200  1
  Sr  Sr39  1  0.25871800  0.59702300  0.84369100  1
  Sr  Sr40  1  0.07206500  0.42112500  0.24233700  1
  Sr  Sr41  1  0.99692100  0.73996100  0.93859200  1
  Cd  Cd0  1  0.61010500  0.85699300  0.24678000  1
  Cd  Cd1  1  0.99782700  0.99782700  0.79063100  1
  Cd  Cd2  1  0.84496000  0.84496000  0.75321400  1
  Cd  Cd3  1  0.00217300  0.00217300  0.20936900  1
  Cd  Cd4  1  0.85699300  0.61010500  0.24678000  1
  Cd  Cd5  1  0.38989500  0.14300700  0.75322000  1
  Cd  Cd6  1  0.15504000  0.15504000  0.24678600  1
  Cd  Cd7  1  0.14300700  0.38989500  0.75322000  1
  Bi  Bi0  1  0.61800300  0.61800300  0.25619600  1
  Bi  Bi1  1  0.76082500  0.39664200  0.74366600  1
  Bi  Bi2  1  0.93961500  0.93961500  0.05929700  1
  Bi  Bi3  1  0.39664200  0.76082500  0.74366600  1
  Bi  Bi4  1  0.73943300  0.73943300  0.88331800  1
  Bi  Bi5  1  0.75578600  0.24421400  0.00000000  1
  Bi  Bi6  1  0.94354500  0.54247500  0.09265100  1
  Bi  Bi7  1  0.74854800  0.74854800  0.62380700  1
  Bi  Bi8  1  0.04925200  0.04925200  0.56553100  1
  Bi  Bi9  1  0.78271000  0.07938700  0.75659900  1
  Bi  Bi10  1  0.46348200  0.46348200  0.92360100  1
  Bi  Bi11  1  0.15282700  0.15282700  0.74691800  1
  Bi  Bi12  1  0.24494300  0.75505700  0.50000000  1
  Bi  Bi13  1  0.92061300  0.21729000  0.24340100  1
  Bi  Bi14  1  0.25145200  0.25145200  0.37619300  1
  Bi  Bi15  1  0.84717300  0.84717300  0.25308200  1
  Bi  Bi16  1  0.53281500  0.92830500  0.39281200  1
  Bi  Bi17  1  0.38199700  0.38199700  0.74380400  1
  Bi  Bi18  1  0.60335800  0.23917500  0.25633400  1
  Bi  Bi19  1  0.23917500  0.60335800  0.25633400  1
  Bi  Bi20  1  0.06038500  0.06038500  0.94070300  1
  Bi  Bi21  1  0.05645500  0.45752500  0.90734900  1
  Bi  Bi22  1  0.53651800  0.53651800  0.07639900  1
  Bi  Bi23  1  0.07169500  0.46718500  0.60718800  1
  Bi  Bi24  1  0.26056700  0.26056700  0.11668200  1
  Bi  Bi25  1  0.57470200  0.57470200  0.53563800  1
  Bi  Bi26  1  0.92830500  0.53281500  0.39281200  1
  Bi  Bi27  1  0.45752500  0.05645500  0.90734900  1
  Bi  Bi28  1  0.75505700  0.24494300  0.50000000  1
  Bi  Bi29  1  0.24421400  0.75578600  0.00000000  1
  Bi  Bi30  1  0.54247500  0.94354500  0.09265100  1
  Bi  Bi31  1  0.21729000  0.92061300  0.24340100  1
  Bi  Bi32  1  0.42529800  0.42529800  0.46436200  1
  Bi  Bi33  1  0.46718500  0.07169500  0.60718800  1
  Bi  Bi34  1  0.07938700  0.78271000  0.75659900  1
  Bi  Bi35  1  0.95074800  0.95074800  0.43446900  1
loop_
_geom_bond_atom_site_label_1
_geom_bond_atom_site_label_2
_geom_bond_distance
_geom_bond_site_symmetry_2
Sr1 Sr40 4.128724 1_555
Sr2 Sr31 4.262704 1_455
Sr2 Sr24 4.575398 1_455
Sr3 Sr7 4.361728 1_555
Sr10 Sr40 4.064150 1_555
Sr10 Sr21 4.283076 1_555
Sr11 Sr3 4.128724 1_555
Sr12 Sr9 4.064150 1_555
Sr12 Sr28 4.128724 1_555
Sr12 Sr8 4.262704 1_545
Sr12 Sr20 4.298196 1_555
Sr12 Sr30 4.361728 1_555
Sr14 Sr3 4.298196 1_555
Sr16 Sr3 4.064150 1_555
Sr16 Sr24 4.283076 1_555
Sr17 Sr40 4.262704 1_655
Sr17 Sr21 4.575398 1_655
Sr19 Sr21 4.383698 1_565
Sr21 Sr9 4.283076 1_555
Sr21 Sr36 4.328113 1_555
Sr21 Sr38 4.328113 1_555
Sr21 Sr6 4.383698 1_455
Sr21 Sr8 4.575398 1_545
Sr22 Sr24 4.383698 1_455
Sr24 Sr37 4.283076 1_555
Sr24 Sr33 4.328113 1_555
Sr24 Sr5 4.328113 1_555
Sr24 Sr4 4.383698 1_565
Sr24 Sr25 4.575398 1_565
Sr25 Sr3 4.262704 1_545
Sr27 Sr40 4.298196 1_555
Sr30 Sr40 4.361728 1_555
Sr31 Sr37 4.064150 1_555
Sr31 Sr41 4.128724 1_555
Sr31 Sr34 4.298196 1_555
Sr31 Sr7 4.361728 1_555
Cd0 Sr26 3.591976 1_555
Cd0 Sr15 3.611308 1_555
Cd0 Sr12 3.647518 1_565
Cd0 Sr24 3.876382 1_555
Cd1 Cd2 2.980626 1_555
Cd2 Sr31 3.583849 1_555
Cd2 Sr3 3.583849 1_555
Cd3 Cd6 2.980626 1_555
Cd4 Sr26 3.591976 1_555
Cd4 Sr0 3.611308 1_555
Cd4 Sr40 3.647518 1_655
Cd4 Sr24 3.876382 1_555
Cd5 Sr29 3.591976 1_555
Cd5 Sr23 3.611308 1_555
Cd5 Sr3 3.647518 1_545
Cd5 Sr21 3.876382 1_555
Cd6 Sr40 3.583849 1_555
Cd6 Sr12 3.583849 1_555
Cd7 Sr29 3.591976 1_555
Cd7 Sr39 3.611308 1_555
Cd7 Sr31 3.647518 1_455
Cd7 Sr21 3.876382 1_555
Bi0 Cd0 3.110004 1_555
Bi0 Cd4 3.110004 1_555
Bi0 Sr5 3.426015 1_555
Bi0 Sr33 3.426015 1_555
Bi0 Sr26 3.668849 1_555
Bi0 Sr15 3.679987 1_555
Bi0 Sr0 3.679987 1_555
Bi0 Bi22 3.706643 1_555
Bi0 Sr24 3.894842 1_555
Bi0 Sr30 3.979871 1_555
Bi1 Sr7 3.291563 1_555
Bi1 Sr31 3.307733 1_555
Bi1 Sr23 3.341808 1_555
Bi1 Sr6 3.403919 1_555
Bi1 Sr18 3.464241 1_555
Bi1 Sr37 3.594167 1_555
Bi1 Sr38 3.607989 1_555
Bi1 Sr34 3.928636 1_555
Bi2 Cd3 3.049641 1_665
Bi2 Bi20 3.102463 1_664
Bi2 Sr32 3.374044 1_655
Bi2 Sr35 3.374044 1_565
Bi2 Sr11 3.511052 1_554
Bi2 Sr41 3.511052 1_554
Bi2 Sr26 3.860277 1_555
Bi3 Sr7 3.291563 1_555
Bi3 Sr3 3.307733 1_555
Bi3 Sr39 3.341808 1_555
Bi3 Sr19 3.403919 1_555
Bi3 Sr13 3.464241 1_555
Bi3 Sr16 3.594167 1_555
Bi3 Sr36 3.607989 1_555
Bi3 Sr14 3.928636 1_555
Bi4 Cd2 3.065339 1_555
Bi4 Sr14 3.395417 1_555
Bi4 Sr34 3.395417 1_555
Bi4 Sr11 3.529481 1_555
Bi4 Sr41 3.529481 1_555
Bi4 Sr7 3.803924 1_555
Bi4 Sr26 3.893054 1_556
Bi4 Sr31 3.911595 1_555
Bi4 Sr3 3.911595 1_555
Bi5 Sr20 3.350460 1_555
Bi5 Sr34 3.350460 1_554
Bi5 Sr35 3.429862 1_555
Bi5 Sr18 3.429862 1_554
Bi5 Sr1 3.456846 1_655
Bi5 Sr11 3.456846 1_544
Bi5 Sr0 3.590056 1_555
Bi5 Sr23 3.590056 1_554
Bi6 Cd4 3.168367 1_555
Bi6 Sr0 3.432063 1_555
Bi6 Sr32 3.436769 1_655
Bi6 Sr40 3.568331 1_655
Bi6 Sr26 3.614057 1_555
Bi6 Sr1 3.780889 1_655
Bi6 Sr41 3.859965 1_554
Bi6 Sr34 3.905582 1_554
Bi6 Sr27 4.099414 1_655
Bi7 Cd2 3.050521 1_555
Bi7 Sr25 3.491760 1_565
Bi7 Sr2 3.491760 1_655
Bi7 Sr16 3.577666 1_555
Bi7 Sr37 3.577666 1_555
Bi7 Sr7 3.626080 1_555
Bi7 Sr24 3.810613 1_555
Bi7 Sr31 4.002986 1_555
Bi7 Sr3 4.002986 1_555
Bi8 Sr6 3.285012 1_455
Bi8 Sr19 3.285012 1_545
Bi8 Sr17 3.549588 1_455
Bi8 Sr8 3.549588 1_545
Bi8 Sr2 3.706399 1_545
Bi8 Sr25 3.706399 1_455
Bi8 Sr21 3.881163 1_555
Bi9 Cd1 3.027402 1_545
Bi9 Cd2 3.125876 1_545
Bi9 Sr3 3.374392 1_545
Bi9 Sr6 3.470026 1_555
Bi9 Sr25 3.499605 1_555
Bi9 Sr18 3.513466 1_555
Bi9 Sr11 3.543597 1_545
Bi9 Sr23 3.659523 1_555
Bi10 Bi22 3.182325 1_556
Bi10 Sr23 3.460973 1_555
Bi10 Sr39 3.460973 1_555
Bi10 Sr27 3.649518 1_556
Bi10 Sr20 3.649518 1_556
Bi10 Bi17 3.706643 1_555
Bi10 Sr14 3.730639 1_555
Bi10 Sr34 3.730639 1_555
Bi10 Sr29 3.779945 1_555
Bi10 Sr7 4.027675 1_555
Bi11 Cd1 2.999023 1_445
Bi11 Cd7 3.089075 1_555
Bi11 Cd5 3.089075 1_555
Bi11 Sr21 3.536995 1_555
Bi11 Sr6 3.596980 1_455
Bi11 Sr19 3.596980 1_545
Bi11 Sr29 3.663708 1_555
Bi11 Sr18 3.733370 1_455
Bi11 Sr13 3.733370 1_545
Bi12 Sr36 3.334110 1_555
Bi12 Sr5 3.334110 1_555
Bi12 Sr2 3.357153 1_555
Bi12 Sr8 3.357153 1_555
Bi12 Sr19 3.608193 1_555
Bi12 Sr22 3.608193 1_555
Bi12 Sr10 3.632998 1_555
Bi12 Sr16 3.632998 1_555
Bi13 Cd3 3.027402 1_655
Bi13 Cd6 3.125876 1_655
Bi13 Sr40 3.374392 1_655
Bi13 Sr4 3.470026 1_555
Bi13 Sr17 3.499605 1_555
Bi13 Sr35 3.513466 1_555
Bi13 Sr1 3.543597 1_655
Bi13 Sr0 3.659523 1_555
Bi14 Cd6 3.050521 1_555
Bi14 Sr17 3.491760 1_455
Bi14 Sr8 3.491760 1_545
Bi14 Sr9 3.577666 1_555
Bi14 Sr10 3.577666 1_555
Bi14 Sr30 3.626080 1_555
Bi14 Bi32 3.703380 1_555
Bi14 Sr21 3.810613 1_555
Bi14 Sr12 4.002986 1_555
Bi14 Sr40 4.002986 1_555
Bi15 Cd3 2.999023 1_665
Bi15 Cd4 3.089075 1_555
Bi15 Cd0 3.089075 1_555
Bi15 Sr24 3.536995 1_555
Bi15 Sr22 3.596980 1_655
Bi15 Sr4 3.596980 1_565
Bi15 Sr26 3.663708 1_555
Bi15 Sr35 3.733370 1_565
Bi15 Sr32 3.733370 1_655
Bi16 Cd0 3.011178 1_555
Bi16 Sr9 3.405566 1_565
Bi16 Sr16 3.480071 1_555
Bi16 Sr5 3.584547 1_555
Bi16 Sr4 3.597908 1_565
Bi16 Sr24 3.603534 1_555
Bi16 Sr12 3.613711 1_565
Bi16 Sr8 4.016986 1_555
Bi17 Cd7 3.110004 1_555
Bi17 Cd5 3.110004 1_555
Bi17 Sr36 3.426015 1_555
Bi17 Sr38 3.426015 1_555
Bi17 Sr29 3.668849 1_555
Bi17 Sr23 3.679987 1_555
Bi17 Sr39 3.679987 1_555
Bi17 Sr21 3.894842 1_555
Bi17 Sr7 3.979871 1_555
Bi18 Sr30 3.291563 1_555
Bi18 Sr12 3.307733 1_555
Bi18 Sr0 3.341808 1_555
Bi18 Sr4 3.403919 1_555
Bi18 Sr35 3.464241 1_555
Bi18 Sr9 3.594167 1_555
Bi18 Sr33 3.607989 1_555
Bi18 Sr20 3.928636 1_555
Bi19 Sr30 3.291563 1_555
Bi19 Sr40 3.307733 1_555
Bi19 Sr15 3.341808 1_555
Bi19 Sr22 3.403919 1_555
Bi19 Sr32 3.464241 1_555
Bi19 Sr10 3.594167 1_555
Bi19 Sr5 3.607989 1_555
Bi19 Sr27 3.928636 1_555
Bi20 Cd1 3.049641 1_445
Bi20 Sr18 3.374044 1_455
Bi20 Sr13 3.374044 1_545
Bi20 Sr1 3.511052 1_556
Bi20 Sr28 3.511052 1_556
Bi20 Sr29 3.860277 1_555
Bi21 Cd7 3.168367 1_555
Bi21 Sr39 3.432063 1_555
Bi21 Sr18 3.436769 1_455
Bi21 Sr31 3.568331 1_455
Bi21 Sr29 3.614057 1_555
Bi21 Sr41 3.780889 1_455
Bi21 Sr1 3.859965 1_556
Bi21 Sr27 3.905582 1_556
Bi21 Sr34 4.099414 1_455
Bi22 Sr0 3.460973 1_555
Bi22 Sr15 3.460973 1_555
Bi22 Sr34 3.649518 1_554
Bi22 Sr14 3.649518 1_554
Bi22 Sr27 3.730639 1_555
Bi22 Sr20 3.730639 1_555
Bi22 Sr26 3.779945 1_555
Bi22 Sr30 4.027675 1_555
Bi23 Cd7 3.011178 1_555
Bi23 Sr37 3.405566 1_455
Bi23 Sr10 3.480071 1_555
Bi23 Sr36 3.584547 1_555
Bi23 Sr6 3.597908 1_455
Bi23 Sr21 3.603534 1_555
Bi23 Sr31 3.613711 1_455
Bi23 Sr2 4.016986 1_555
Bi24 Cd6 3.065339 1_555
Bi24 Sr20 3.395417 1_555
Bi24 Sr27 3.395417 1_555
Bi24 Sr1 3.529481 1_555
Bi24 Sr28 3.529481 1_555
Bi24 Sr30 3.803924 1_555
Bi24 Sr29 3.893054 1_554
Bi24 Sr12 3.911595 1_555
Bi24 Sr40 3.911595 1_555
Bi25 Bi32 3.144482 1_555
Bi25 Sr37 3.353039 1_555
Bi25 Sr16 3.353039 1_555
Bi25 Sr38 3.608729 1_555
Bi25 Sr36 3.608729 1_555
Bi25 Sr33 3.664241 1_555
Bi25 Sr5 3.664241 1_555
Bi25 Bi7 3.703380 1_555
Bi25 Sr24 3.822485 1_555
Bi25 Sr7 3.913080 1_555
Bi26 Cd4 3.011178 1_555
Bi26 Sr10 3.405566 1_655
Bi26 Sr37 3.480071 1_555
Bi26 Sr33 3.584547 1_555
Bi26 Sr22 3.597908 1_655
Bi26 Sr24 3.603534 1_555
Bi26 Sr40 3.613711 1_655
Bi26 Sr17 4.016986 1_555
Bi27 Cd5 3.168367 1_555
Bi27 Sr23 3.432063 1_555
Bi27 Sr13 3.436769 1_545
Bi27 Sr3 3.568331 1_545
Bi27 Sr29 3.614057 1_555
Bi27 Sr11 3.780889 1_545
Bi27 Sr28 3.859965 1_556
Bi27 Sr20 3.905582 1_556
Bi27 Sr14 4.099414 1_545
Bi28 Sr38 3.334110 1_555
Bi28 Sr33 3.334110 1_555
Bi28 Sr25 3.357153 1_555
Bi28 Sr17 3.357153 1_555
Bi28 Sr6 3.608193 1_555
Bi28 Sr4 3.608193 1_555
Bi28 Sr9 3.632998 1_555
Bi28 Sr37 3.632998 1_555
Bi29 Sr27 3.350460 1_555
Bi29 Sr14 3.350460 1_554
Bi29 Sr32 3.429862 1_555
Bi29 Sr13 3.429862 1_554
Bi29 Sr28 3.456846 1_565
Bi29 Sr41 3.456846 1_454
Bi29 Sr15 3.590056 1_555
Bi29 Sr39 3.590056 1_554
Bi30 Cd0 3.168367 1_555
Bi30 Sr15 3.432063 1_555
Bi30 Sr35 3.436769 1_565
Bi30 Sr12 3.568331 1_565
Bi30 Sr26 3.614057 1_555
Bi30 Sr28 3.780889 1_565
Bi30 Sr11 3.859965 1_554
Bi30 Sr14 3.905582 1_554
Bi30 Sr20 4.099414 1_565
Bi31 Cd3 3.027402 1_565
Bi31 Cd6 3.125876 1_565
Bi31 Sr12 3.374392 1_565
Bi31 Sr22 3.470026 1_555
Bi31 Sr8 3.499605 1_555
Bi31 Sr32 3.513466 1_555
Bi31 Sr28 3.543597 1_565
Bi31 Sr15 3.659523 1_555
Bi32 Sr9 3.353039 1_555
Bi32 Sr10 3.353039 1_555
Bi32 Sr33 3.608729 1_555
Bi32 Sr5 3.608729 1_555
Bi32 Sr38 3.664241 1_555
Bi32 Sr36 3.664241 1_555
Bi32 Sr21 3.822485 1_555
Bi32 Sr30 3.913080 1_555
Bi33 Cd5 3.011178 1_555
Bi33 Sr16 3.405566 1_545
Bi33 Sr9 3.480071 1_555
Bi33 Sr38 3.584547 1_555
Bi33 Sr19 3.597908 1_545
Bi33 Sr21 3.603534 1_555
Bi33 Sr3 3.613711 1_545
Bi33 Sr25 4.016986 1_555
Bi34 Cd1 3.027402 1_455
Bi34 Cd2 3.125876 1_455
Bi34 Sr31 3.374392 1_455
Bi34 Sr19 3.470026 1_555
Bi34 Sr2 3.499605 1_555
Bi34 Sr13 3.513466 1_555
Bi34 Sr41 3.543597 1_455
Bi34 Sr39 3.659523 1_555
Bi35 Bi8 3.099601 1_665
Bi35 Sr22 3.285012 1_655
Bi35 Sr4 3.285012 1_565
Bi35 Sr2 3.549588 1_655
Bi35 Sr25 3.549588 1_565
Bi35 Sr17 3.706399 1_565
Bi35 Sr8 3.706399 1_655
Bi35 Sr24 3.881163 1_555
