# generated using pymatgen
data_Li4Al3Ge3IO12
_symmetry_space_group_name_H-M   'P 1'
_cell_length_a   8.71841577
_cell_length_b   8.71841577
_cell_length_c   8.71841577
_cell_angle_alpha   90.00000000
_cell_angle_beta   90.00000000
_cell_angle_gamma   90.00000000
_symmetry_Int_Tables_number   1
_chemical_formula_structural   Li4Al3Ge3IO12
_chemical_formula_sum   'Li8 Al6 Ge6 I2 O24'
_cell_volume   662.69352671
_cell_formula_units_Z   2
loop_
 _symmetry_equiv_pos_site_id
 _symmetry_equiv_pos_as_xyz
  1  'x, y, z'
loop_
 _atom_site_type_symbol
 _atom_site_label
 _atom_site_symmetry_multiplicity
 _atom_site_fract_x
 _atom_site_fract_y
 _atom_site_fract_z
 _atom_site_occupancy
  Li  Li0  1  0.69022268  0.30977732  0.30977732  1
  Li  Li1  1  0.80977732  0.19022268  0.80977732  1
  Li  Li2  1  0.30977732  0.30977732  0.69022268  1
  Li  Li3  1  0.69022268  0.69022268  0.69022268  1
  Li  Li4  1  0.19022268  0.80977732  0.80977732  1
  Li  Li5  1  0.19022268  0.19022268  0.19022268  1
  Li  Li6  1  0.30977732  0.69022268  0.30977732  1
  Li  Li7  1  0.80977732  0.80977732  0.19022268  1
  Al  Al0  1  -0.00000000  0.75000000  0.50000000  1
  Al  Al1  1  0.25000000  0.50000000  -0.00000000  1
  Al  Al2  1  0.50000000  -0.00000000  0.75000000  1
  Al  Al3  1  0.50000000  -0.00000000  0.25000000  1
  Al  Al4  1  -0.00000000  0.25000000  0.50000000  1
  Al  Al5  1  0.75000000  0.50000000  -0.00000000  1
  Ge  Ge0  1  -0.00000000  0.50000000  0.25000000  1
  Ge  Ge1  1  0.50000000  0.75000000  -0.00000000  1
  Ge  Ge2  1  0.50000000  0.25000000  -0.00000000  1
  Ge  Ge3  1  -0.00000000  0.50000000  0.75000000  1
  Ge  Ge4  1  0.75000000  -0.00000000  0.50000000  1
  Ge  Ge5  1  0.25000000  -0.00000000  0.50000000  1
  I  I0  1  -0.00000000  -0.00000000  -0.00000000  1
  I  I1  1  0.50000000  0.50000000  0.50000000  1
  O  O0  1  0.59309560  0.85975800  0.14007425  1
  O  O1  1  0.64024200  0.09309560  0.35992575  1
  O  O2  1  0.40690440  0.85975800  0.85992575  1
  O  O3  1  0.14024200  0.85992575  0.59309560  1
  O  O4  1  0.85975800  0.85992575  0.40690440  1
  O  O5  1  0.09309560  0.35992575  0.64024200  1
  O  O6  1  0.85992575  0.40690440  0.85975800  1
  O  O7  1  0.09309560  0.64007425  0.35975800  1
  O  O8  1  0.35975800  0.90690440  0.35992575  1
  O  O9  1  0.14007425  0.40690440  0.14024200  1
  O  O10  1  0.14007425  0.59309560  0.85975800  1
  O  O11  1  0.14024200  0.14007425  0.40690440  1
  O  O12  1  0.85975800  0.14007425  0.59309560  1
  O  O13  1  0.90690440  0.35992575  0.35975800  1
  O  O14  1  0.90690440  0.64007425  0.64024200  1
  O  O15  1  0.40690440  0.14024200  0.14007425  1
  O  O16  1  0.35992575  0.64024200  0.09309560  1
  O  O17  1  0.64024200  0.90690440  0.64007425  1
  O  O18  1  0.35975800  0.09309560  0.64007425  1
  O  O19  1  0.59309560  0.14024200  0.85992575  1
  O  O20  1  0.85992575  0.59309560  0.14024200  1
  O  O21  1  0.64007425  0.35975800  0.09309560  1
  O  O22  1  0.64007425  0.64024200  0.90690440  1
  O  O23  1  0.35992575  0.35975800  0.90690440  1
loop_
_geom_bond_atom_site_label_1
_geom_bond_atom_site_label_2
_geom_bond_distance
_geom_bond_site_symmetry_2
Li0 O13 1.987414 1_555
Li0 O21 1.987414 1_555
Li0 O1 1.987414 1_555
Li1 O6 1.987414 1_555
Li1 O12 1.987414 1_555
Li1 O19 1.987414 1_555
Li2 O23 1.987414 1_555
Li2 O18 1.987414 1_555
Li2 O5 1.987414 1_555
Li3 O22 1.987414 1_555
Li3 O14 1.987414 1_555
Li3 O17 1.987414 1_555
Li4 O2 1.987414 1_555
Li4 O10 1.987414 1_555
Li4 O3 1.987414 1_555
Li5 O11 1.987414 1_555
Li5 O9 1.987414 1_555
Li5 O15 1.987414 1_555
Li6 O8 1.987414 1_555
Li6 O7 1.987414 1_555
Li6 O16 1.987414 1_555
Li7 O4 1.987414 1_555
Li7 O0 1.987414 1_555
Li7 O20 1.987414 1_555
Al0 O3 1.752776 1_555
Al0 O14 1.752776 1_455
Al0 O7 1.752776 1_555
Al0 O4 1.752776 1_455
Al1 O16 1.752776 1_555
Al1 O9 1.752776 1_555
Al1 O10 1.752776 1_554
Al1 O23 1.752776 1_554
Al2 O19 1.752776 1_555
Al2 O17 1.752776 1_545
Al2 O18 1.752776 1_555
Al2 O2 1.752776 1_545
Al3 O1 1.752776 1_555
Al3 O15 1.752776 1_555
Al3 O0 1.752776 1_545
Al3 O8 1.752776 1_545
Al4 O5 1.752776 1_555
Al4 O11 1.752776 1_555
Al4 O12 1.752776 1_455
Al4 O13 1.752776 1_455
Al5 O20 1.752776 1_555
Al5 O22 1.752776 1_554
Al5 O21 1.752776 1_555
Al5 O6 1.752776 1_554
Ge0 O7 1.750957 1_555
Ge0 O13 1.750957 1_455
Ge0 O20 1.750957 1_455
Ge0 O9 1.750957 1_555
Ge1 O2 1.750957 1_554
Ge1 O0 1.750957 1_555
Ge1 O16 1.750957 1_555
Ge1 O22 1.750957 1_554
Ge2 O21 1.750957 1_555
Ge2 O23 1.750957 1_554
Ge2 O19 1.750957 1_554
Ge2 O15 1.750957 1_555
Ge3 O10 1.750957 1_555
Ge3 O6 1.750957 1_455
Ge3 O5 1.750957 1_555
Ge3 O14 1.750957 1_455
Ge4 O12 1.750957 1_555
Ge4 O4 1.750957 1_545
Ge4 O1 1.750957 1_555
Ge4 O17 1.750957 1_545
Ge5 O18 1.750957 1_555
Ge5 O8 1.750957 1_545
Ge5 O3 1.750957 1_545
Ge5 O11 1.750957 1_555
I0 Li7 2.872503 1_445
I0 Li1 2.872503 1_454
I0 Li5 2.872503 1_555
I0 Li4 2.872503 1_544
I1 Li6 2.872503 1_555
I1 Li2 2.872503 1_555
I1 Li3 2.872503 1_555
I1 Li0 2.872503 1_555
