# generated using pymatgen
data_Gd2WO6
_symmetry_space_group_name_H-M   'P 1'
_cell_length_a   5.29226211
_cell_length_b   9.16306733
_cell_length_c   10.02371148
_cell_angle_alpha   90.00000000
_cell_angle_beta   90.00000000
_cell_angle_gamma   90.00000000
_symmetry_Int_Tables_number   1
_chemical_formula_structural   Gd2WO6
_chemical_formula_sum   'Gd8 W4 O24'
_cell_volume   486.08338961
_cell_formula_units_Z   4
loop_
 _symmetry_equiv_pos_site_id
 _symmetry_equiv_pos_as_xyz
  1  'x, y, z'
loop_
 _atom_site_type_symbol
 _atom_site_label
 _atom_site_symmetry_multiplicity
 _atom_site_fract_x
 _atom_site_fract_y
 _atom_site_fract_z
 _atom_site_occupancy
  Gd  Gd0  1  0.47883984  0.60363175  0.53512846  1
  Gd  Gd1  1  0.97883984  0.89636825  0.46487154  1
  Gd  Gd2  1  0.52116016  0.10363175  0.96487154  1
  Gd  Gd3  1  0.02116016  0.39636825  0.03512846  1
  Gd  Gd4  1  0.96534745  0.78093678  0.87042379  1
  Gd  Gd5  1  0.46534745  0.71906322  0.12957621  1
  Gd  Gd6  1  0.03465255  0.28093678  0.62957621  1
  Gd  Gd7  1  0.53465255  0.21906322  0.37042379  1
  W  W0  1  0.45986674  0.99577604  0.65142454  1
  W  W1  1  0.95986674  0.50422396  0.34857546  1
  W  W2  1  0.54013326  0.49577604  0.84857546  1
  W  W3  1  0.04013326  0.00422396  0.15142454  1
  O  O0  1  0.25115790  0.08979673  0.50769203  1
  O  O1  1  0.75115790  0.41020327  0.49230797  1
  O  O2  1  0.74884210  0.58979673  0.99230797  1
  O  O3  1  0.24884210  0.91020327  0.00769203  1
  O  O4  1  0.72725629  0.11228557  0.56698545  1
  O  O5  1  0.22725629  0.38771443  0.43301455  1
  O  O6  1  0.27274371  0.61228557  0.93301455  1
  O  O7  1  0.77274371  0.88771443  0.06698545  1
  O  O8  1  0.18626579  0.86349960  0.67996313  1
  O  O9  1  0.68626579  0.63650040  0.32003687  1
  O  O10  1  0.81373421  0.36349960  0.82003687  1
  O  O11  1  0.31373421  0.13650040  0.17996313  1
  O  O12  1  0.19011106  0.86119487  0.26244240  1
  O  O13  1  0.69011106  0.63880513  0.73755760  1
  O  O14  1  0.80988894  0.36119487  0.23755760  1
  O  O15  1  0.30988894  0.13880513  0.76244240  1
  O  O16  1  0.82675524  0.04801373  0.29323708  1
  O  O17  1  0.32675524  0.45198627  0.70676292  1
  O  O18  1  0.17324476  0.54801373  0.20676292  1
  O  O19  1  0.67324476  0.95198627  0.79323708  1
  O  O20  1  0.92216596  0.15379749  0.02901174  1
  O  O21  1  0.42216596  0.34620251  0.97098826  1
  O  O22  1  0.07783404  0.65379749  0.47098826  1
  O  O23  1  0.57783404  0.84620251  0.52901174  1
loop_
_geom_bond_atom_site_label_1
_geom_bond_atom_site_label_2
_geom_bond_distance
_geom_bond_site_symmetry_2
Gd0 O22 2.264619 1_555
Gd0 O23 2.284424 1_555
Gd0 O1 2.324354 1_555
Gd0 O13 2.339068 1_555
Gd0 O17 2.353393 1_555
Gd0 O9 2.438068 1_555
Gd0 O5 2.595139 1_555
Gd1 O23 2.264619 1_555
Gd1 O22 2.284424 1_655
Gd1 O0 2.324354 1_665
Gd1 O12 2.339068 1_655
Gd1 O16 2.353393 1_565
Gd1 O8 2.438068 1_655
Gd1 O4 2.595139 1_565
Gd2 O20 2.264619 1_556
Gd2 O21 2.284424 1_555
Gd2 O3 2.324354 1_546
Gd2 O15 2.339068 1_555
Gd2 O19 2.353393 1_545
Gd2 O11 2.438068 1_556
Gd2 O7 2.595139 1_546
Gd3 O21 2.264619 1_554
Gd3 O20 2.284424 1_455
Gd3 O2 2.324354 1_454
Gd3 O14 2.339068 1_455
Gd3 O18 2.353393 1_555
Gd3 O10 2.438068 1_454
Gd3 O6 2.595139 1_554
Gd4 O6 2.329874 1_655
Gd4 O19 2.333434 1_555
Gd4 O3 2.355244 1_656
Gd4 O8 2.363052 1_655
Gd4 O13 2.364661 1_555
Gd4 O2 2.423427 1_555
Gd4 O7 2.424515 1_556
Gd5 O7 2.329874 1_555
Gd5 O18 2.333434 1_555
Gd5 O2 2.355244 1_554
Gd5 O9 2.363052 1_555
Gd5 O12 2.364661 1_555
Gd5 O3 2.423427 1_555
Gd5 O6 2.424515 1_554
Gd6 O4 2.329874 1_455
Gd6 O17 2.333434 1_555
Gd6 O1 2.355244 1_455
Gd6 O10 2.363052 1_455
Gd6 O15 2.364661 1_555
Gd6 O0 2.423427 1_555
Gd6 O5 2.424515 1_555
Gd7 O5 2.329874 1_555
Gd7 O16 2.333434 1_555
Gd7 O0 2.355244 1_555
Gd7 O11 2.363052 1_555
Gd7 O14 2.364661 1_555
Gd7 O1 2.423427 1_555
Gd7 O4 2.424515 1_555
O0 W0 2.009462 1_545
O1 W1 2.009462 1_555
O2 W2 2.009462 1_555
O3 W3 2.009462 1_565
O4 W0 1.964335 1_545
O5 W1 1.964335 1_455
O6 W2 1.964335 1_555
O7 W3 1.964335 1_665
O8 W0 1.909850 1_555
O9 W1 1.909850 1_555
O10 W2 1.909850 1_555
O11 W3 1.909850 1_555
O12 W3 1.893667 1_565
O13 W2 1.893667 1_555
O14 W1 1.893667 1_555
O15 W0 1.893667 1_545
O16 W3 1.859258 1_655
O17 W2 1.859258 1_555
O18 W1 1.859258 1_455
O19 W0 1.859258 1_555
O20 W3 1.942623 1_655
O21 W2 1.942623 1_555
O22 W1 1.942623 1_455
O23 W0 1.942623 1_555
