# generated using pymatgen
data_Yb7Al5Ge8
_symmetry_space_group_name_H-M   'P 1'
_cell_length_a   8.31129487
_cell_length_b   8.31129487
_cell_length_c   12.85658863
_cell_angle_alpha   84.50687553
_cell_angle_beta   84.50687553
_cell_angle_gamma   29.68377442
_symmetry_Int_Tables_number   1
_chemical_formula_structural   Yb7Al5Ge8
_chemical_formula_sum   'Yb7 Al5 Ge8'
_cell_volume   437.63776769
_cell_formula_units_Z   1
loop_
 _symmetry_equiv_pos_site_id
 _symmetry_equiv_pos_as_xyz
  1  'x, y, z'
loop_
 _atom_site_type_symbol
 _atom_site_label
 _atom_site_symmetry_multiplicity
 _atom_site_fract_x
 _atom_site_fract_y
 _atom_site_fract_z
 _atom_site_occupancy
  Yb  Yb0  1  0.15991200  0.15991200  0.45758200  1
  Yb  Yb1  1  0.18874800  0.18874800  0.13366300  1
  Yb  Yb2  1  0.01747300  0.01747300  0.70156900  1
  Yb  Yb3  1  0.98252700  0.98252700  0.29843100  1
  Yb  Yb4  1  0.00000000  0.00000000  0.00000000  1
  Yb  Yb5  1  0.84008800  0.84008800  0.54241800  1
  Yb  Yb6  1  0.81125200  0.81125200  0.86633700  1
  Al  Al0  1  0.22402100  0.22402100  0.69835300  1
  Al  Al1  1  0.77597900  0.77597900  0.30164700  1
  Al  Al2  1  0.60892200  0.60892200  0.82899300  1
  Al  Al3  1  0.39107800  0.39107800  0.17100700  1
  Al  Al4  1  0.50000000  0.50000000  0.50000000  1
  Ge  Ge0  1  0.82404300  0.82404300  0.10543100  1
  Ge  Ge1  1  0.34818900  0.34818900  0.37996000  1
  Ge  Ge2  1  0.17595700  0.17595700  0.89456900  1
  Ge  Ge3  1  0.44650000  0.44650000  0.85916800  1
  Ge  Ge4  1  0.55350000  0.55350000  0.14083200  1
  Ge  Ge5  1  0.38714700  0.38714700  0.68413000  1
  Ge  Ge6  1  0.61285300  0.61285300  0.31587000  1
  Ge  Ge7  1  0.65181100  0.65181100  0.62004000  1
loop_
_geom_bond_atom_site_label_1
_geom_bond_atom_site_label_2
_geom_bond_distance
_geom_bond_site_symmetry_2
Al0 Ge2 2.564064 1_555
Al0 Ge5 2.609352 1_555
Al0 Ge7 2.669043 1_545
Al0 Ge7 2.669043 1_455
Al0 Yb2 3.314974 1_555
Al0 Yb6 3.429415 1_545
Al0 Yb6 3.429415 1_455
Al1 Ge0 2.564064 1_555
Al1 Ge6 2.609352 1_555
Al1 Ge1 2.669043 1_655
Al1 Ge1 2.669043 1_565
Al1 Yb3 3.314974 1_555
Al1 Yb1 3.429415 1_565
Al1 Yb1 3.429415 1_655
Al2 Ge2 2.565794 1_565
Al2 Ge2 2.565794 1_655
Al2 Ge3 2.600195 1_555
Al2 Ge7 2.706494 1_555
Al2 Yb2 3.138823 1_655
Al2 Yb2 3.138823 1_565
Al2 Yb6 3.333003 1_555
Al3 Ge0 2.565794 1_545
Al3 Ge0 2.565794 1_455
Al3 Ge4 2.600195 1_555
Al3 Ge1 2.706494 1_555
Al3 Yb3 3.138823 1_455
Al3 Yb3 3.138823 1_545
Al3 Yb1 3.333003 1_555
Al4 Ge6 2.835836 1_555
Al4 Ge5 2.835836 1_555
Al4 Ge1 3.012903 1_555
Al4 Ge7 3.012903 1_555
Al4 Yb0 3.339835 1_565
Al4 Yb5 3.339835 1_545
Al4 Yb5 3.339835 1_455
Al4 Yb0 3.339835 1_655
Al4 Yb3 3.386918 1_545
Al4 Yb3 3.386918 1_455
Al4 Yb2 3.386918 1_565
Al4 Yb2 3.386918 1_655
Ge0 Yb4 3.011942 1_665
Ge0 Yb1 3.038726 1_565
Ge0 Yb1 3.038726 1_655
Ge0 Yb6 3.101038 1_554
Ge1 Yb5 2.976247 1_455
Ge1 Yb5 2.976247 1_545
Ge1 Yb0 3.090308 1_555
Ge1 Yb3 3.137251 1_545
Ge1 Yb3 3.137251 1_455
Ge2 Yb4 3.011942 1_556
Ge2 Yb6 3.038726 1_545
Ge2 Yb6 3.038726 1_455
Ge2 Yb1 3.101038 1_556
Ge3 Ge5 2.529594 1_555
Ge3 Yb4 2.976250 1_656
Ge3 Yb4 2.976250 1_566
Ge3 Yb6 3.037093 1_455
Ge3 Yb6 3.037093 1_545
Ge3 Yb2 3.079082 1_565
Ge3 Yb2 3.079082 1_655
Ge4 Ge6 2.529594 1_555
Ge4 Yb4 2.976250 1_655
Ge4 Yb4 2.976250 1_565
Ge4 Yb1 3.037093 1_565
Ge4 Yb1 3.037093 1_655
Ge4 Yb3 3.079082 1_455
Ge4 Yb3 3.079082 1_545
Ge5 Yb5 2.948986 1_545
Ge5 Yb5 2.948986 1_455
Ge5 Yb2 3.010131 1_565
Ge5 Yb2 3.010131 1_655
Ge5 Yb6 3.307777 1_545
Ge5 Yb6 3.307777 1_455
Ge6 Yb0 2.948986 1_655
Ge6 Yb0 2.948986 1_565
Ge6 Yb3 3.010131 1_455
Ge6 Yb3 3.010131 1_545
Ge6 Yb1 3.307777 1_565
Ge6 Yb1 3.307777 1_655
Ge7 Yb0 2.976247 1_655
Ge7 Yb0 2.976247 1_565
Ge7 Yb5 3.090308 1_555
Ge7 Yb2 3.137251 1_565
Ge7 Yb2 3.137251 1_655
