# generated using pymatgen
data_Ca5P3ClO12
_symmetry_space_group_name_H-M   'P 1'
_cell_length_a   6.71245551
_cell_length_b   9.65980976
_cell_length_c   16.73582630
_cell_angle_alpha   89.94643530
_cell_angle_beta   90.00000000
_cell_angle_gamma   90.00000000
_symmetry_Int_Tables_number   1
_chemical_formula_structural   Ca5P3ClO12
_chemical_formula_sum   'Ca20 P12 Cl4 O48'
_cell_volume   1085.16796315
_cell_formula_units_Z   4
loop_
 _symmetry_equiv_pos_site_id
 _symmetry_equiv_pos_as_xyz
  1  'x, y, z'
loop_
 _atom_site_type_symbol
 _atom_site_label
 _atom_site_symmetry_multiplicity
 _atom_site_fract_x
 _atom_site_fract_y
 _atom_site_fract_z
 _atom_site_occupancy
  Ca  Ca0  1  0.24921994  0.12987574  0.61899258  1
  Ca  Ca1  1  0.74888720  0.38607774  0.62473491  1
  Ca  Ca2  1  0.00496903  0.74657289  0.58102083  1
  Ca  Ca3  1  0.24888720  0.11392226  0.87526509  1
  Ca  Ca4  1  0.25289009  0.50596845  0.75531491  1
  Ca  Ca5  1  0.50496903  0.75342711  0.91897917  1
  Ca  Ca6  1  0.49503097  0.24657289  0.08102083  1
  Ca  Ca7  1  0.74921994  0.37012426  0.88100742  1
  Ca  Ca8  1  0.50396471  0.24692938  0.41382571  1
  Ca  Ca9  1  0.75111280  0.88607774  0.12473491  1
  Ca  Ca10  1  0.99603529  0.74692938  0.91382571  1
  Ca  Ca11  1  0.24710991  0.00596845  0.25531491  1
  Ca  Ca12  1  0.00396471  0.25307062  0.08617429  1
  Ca  Ca13  1  0.25111280  0.61392226  0.37526509  1
  Ca  Ca14  1  0.75078006  0.87012426  0.38100742  1
  Ca  Ca15  1  0.99503097  0.25342711  0.41897917  1
  Ca  Ca16  1  0.75289009  0.99403155  0.74468509  1
  Ca  Ca17  1  0.25078006  0.62987574  0.11899258  1
  Ca  Ca18  1  0.49603529  0.75307062  0.58617429  1
  Ca  Ca19  1  0.74710991  0.49403155  0.24468509  1
  P  P0  1  0.24881639  0.42167968  0.54520529  1
  P  P1  1  0.75118361  0.57831932  0.45479471  1
  P  P2  1  0.74881639  0.07832032  0.95479471  1
  P  P3  1  0.75161016  0.14322964  0.23320354  1
  P  P4  1  0.25161016  0.35677036  0.26679746  1
  P  P5  1  0.25118361  0.92168068  0.04520529  1
  P  P6  1  0.24705452  0.47110999  0.93810576  1
  P  P7  1  0.25294548  0.97110999  0.43810576  1
  P  P8  1  0.74838984  0.64322964  0.73320354  1
  P  P9  1  0.75294548  0.52889001  0.06189424  1
  P  P10  1  0.24838984  0.85677036  0.76679646  1
  P  P11  1  0.74705452  0.02889001  0.56189424  1
  Cl  Cl0  1  0.05216564  0.25104557  0.74933784  1
  Cl  Cl1  1  0.94783436  0.74895443  0.25066216  1
  Cl  Cl2  1  0.55216564  0.24895443  0.75066216  1
  Cl  Cl3  1  0.44783436  0.75104557  0.24933784  1
  O  O0  1  0.07034691  0.44362835  0.29193081  1
  O  O1  1  0.75587363  0.64992389  0.00298877  1
  O  O2  1  0.05805553  0.34249283  0.56741265  1
  O  O3  1  0.74481282  0.67096224  0.82308658  1
  O  O4  1  0.92965309  0.55637165  0.70806919  1
  O  O5  1  0.73861838  0.58175974  0.54703971  1
  O  O6  1  0.74878176  0.92966470  0.92359711  1
  O  O7  1  0.07417982  0.83849351  0.07801503  1
  O  O8  1  0.05891488  0.47782611  0.88589655  1
  O  O9  1  0.92582018  0.16150649  0.92198497  1
  O  O10  1  0.42665303  0.46311535  0.88145771  1
  O  O11  1  0.06148083  0.93352255  0.79561896  1
  O  O12  1  0.25696112  0.71989249  0.81469347  1
  O  O13  1  0.25121824  0.07033530  0.07640289  1
  O  O14  1  0.44108512  0.97782611  0.38589655  1
  O  O15  1  0.24878176  0.57033530  0.57640289  1
  O  O16  1  0.25835729  0.61128689  0.98247379  1
  O  O17  1  0.57034691  0.05637165  0.20806919  1
  O  O18  1  0.75835729  0.88871311  0.51752621  1
  O  O19  1  0.93851917  0.06647845  0.20438104  1
  O  O20  1  0.75518718  0.17096224  0.32308658  1
  O  O21  1  0.56148083  0.56647745  0.70438104  1
  O  O22  1  0.25518718  0.32903776  0.17691342  1
  O  O23  1  0.57334697  0.53688465  0.11854229  1
  O  O24  1  0.57417982  0.66150649  0.42198497  1
  O  O25  1  0.24412637  0.35007611  0.99701123  1
  O  O26  1  0.55805553  0.15750717  0.93258735  1
  O  O27  1  0.25587363  0.85007611  0.49701123  1
  O  O28  1  0.24303888  0.21989249  0.31469347  1
  O  O29  1  0.24481282  0.82903776  0.67691342  1
  O  O30  1  0.42582018  0.33849351  0.57801503  1
  O  O31  1  0.55891488  0.02217389  0.61410345  1
  O  O32  1  0.92665303  0.03688465  0.61854229  1
  O  O33  1  0.76138162  0.08175974  0.04703971  1
  O  O34  1  0.44194447  0.84249283  0.06741265  1
  O  O35  1  0.74412637  0.14992389  0.50298877  1
  O  O36  1  0.94108512  0.52217389  0.11410345  1
  O  O37  1  0.74303888  0.28010751  0.18530653  1
  O  O38  1  0.07334697  0.96311535  0.38145771  1
  O  O39  1  0.26138162  0.41824026  0.45296029  1
  O  O40  1  0.23861838  0.91824026  0.95296029  1
  O  O41  1  0.75696112  0.78010751  0.68530653  1
  O  O42  1  0.94194447  0.65750717  0.43258735  1
  O  O43  1  0.75121824  0.42966470  0.42359711  1
  O  O44  1  0.42965309  0.94362835  0.79193081  1
  O  O45  1  0.74164271  0.38871311  0.01752621  1
  O  O46  1  0.43851917  0.43352155  0.29561896  1
  O  O47  1  0.24164271  0.11128689  0.48247379  1
loop_
_geom_bond_atom_site_label_1
_geom_bond_atom_site_label_2
_geom_bond_distance
_geom_bond_site_symmetry_2
Ca0 O47 2.292532 1_555
Ca0 O31 2.326093 1_555
Ca0 O32 2.344169 1_455
Ca0 O30 2.435983 1_555
Ca0 O2 2.570345 1_555
Ca0 Cl0 2.807675 1_555
Ca0 O29 3.062729 1_545
Ca0 Cl2 3.212303 1_555
Ca1 O5 2.294334 1_555
Ca1 O2 2.324892 1_655
Ca1 O30 2.350750 1_555
Ca1 O4 2.475426 1_555
Ca1 O21 2.529879 1_555
Ca1 Cl2 2.816829 1_555
Ca1 O35 3.060243 1_555
Ca1 Cl0 3.192052 1_655
Ca2 O15 2.362807 1_555
Ca2 O18 2.398328 1_455
Ca2 O29 2.409228 1_555
Ca2 O27 2.410446 1_555
Ca2 O41 2.433815 1_455
Ca2 O5 2.460945 1_455
Ca2 O42 2.663497 1_455
Ca2 O4 2.853938 1_455
Ca2 O32 2.922051 1_465
Ca3 O40 2.294334 1_545
Ca3 O26 2.324892 1_555
Ca3 O9 2.350750 1_455
Ca3 O44 2.475426 1_545
Ca3 O11 2.529879 1_545
Ca3 Cl0 2.816829 1_555
Ca3 O25 3.060243 1_555
Ca3 Cl2 3.192052 1_555
Ca4 O12 2.293993 1_555
Ca4 O21 2.314744 1_555
Ca4 O4 2.359915 1_455
Ca4 O10 2.446818 1_555
Ca4 O8 2.558136 1_555
Ca4 Cl0 2.808873 1_555
Ca4 O15 3.057672 1_555
Ca4 Cl2 3.194657 1_555
Ca5 O6 2.362807 1_555
Ca5 O16 2.398328 1_555
Ca5 O3 2.409228 1_555
Ca5 O1 2.410446 1_556
Ca5 O12 2.433815 1_555
Ca5 O40 2.460945 1_555
Ca5 O34 2.663497 1_556
Ca5 O44 2.853938 1_555
Ca5 O10 2.922051 1_555
Ca6 O13 2.362807 1_555
Ca6 O45 2.398328 1_555
Ca6 O22 2.409228 1_555
Ca6 O25 2.410446 1_554
Ca6 O37 2.433815 1_555
Ca6 O33 2.460945 1_555
Ca6 O26 2.663497 1_554
Ca6 O17 2.853938 1_555
Ca6 O23 2.922051 1_555
Ca7 O45 2.292532 1_556
Ca7 O8 2.326093 1_655
Ca7 O10 2.344169 1_555
Ca7 O9 2.435983 1_555
Ca7 O26 2.570345 1_555
Ca7 Cl2 2.807675 1_555
Ca7 O3 3.062729 1_555
Ca7 Cl0 3.212303 1_655
Ca8 O20 2.385454 1_555
Ca8 O35 2.387667 1_555
Ca8 O39 2.412655 1_555
Ca8 O28 2.426744 1_555
Ca8 O43 2.428519 1_555
Ca8 O47 2.476783 1_555
Ca8 O14 2.675113 1_545
Ca8 O46 2.710857 1_555
Ca8 O30 2.934734 1_555
Ca9 O33 2.294334 1_565
Ca9 O34 2.324892 1_555
Ca9 O7 2.350750 1_655
Ca9 O17 2.475426 1_565
Ca9 O19 2.529885 1_565
Ca9 Cl1 2.816829 1_555
Ca9 O1 3.060243 1_555
Ca9 Cl3 3.192052 1_555
Ca10 O3 2.385454 1_555
Ca10 O1 2.387667 1_556
Ca10 O40 2.412655 1_655
Ca10 O12 2.426744 1_655
Ca10 O6 2.428519 1_555
Ca10 O16 2.476783 1_655
Ca10 O8 2.675113 1_655
Ca10 O11 2.710864 1_655
Ca10 O7 2.934734 1_656
Ca11 O28 2.293993 1_555
Ca11 O19 2.314747 1_455
Ca11 O17 2.359915 1_555
Ca11 O38 2.446818 1_545
Ca11 O14 2.558136 1_545
Ca11 Cl3 2.808873 1_545
Ca11 O13 3.057672 1_555
Ca11 Cl1 3.194657 1_445
Ca12 O22 2.385454 1_555
Ca12 O25 2.387667 1_554
Ca12 O33 2.412655 1_455
Ca12 O37 2.426744 1_455
Ca12 O13 2.428519 1_555
Ca12 O45 2.476783 1_455
Ca12 O36 2.675113 1_455
Ca12 O19 2.710857 1_455
Ca12 O9 2.934734 1_454
Ca13 O39 2.294334 1_555
Ca13 O42 2.324892 1_455
Ca13 O24 2.350750 1_555
Ca13 O0 2.475426 1_555
Ca13 O46 2.529885 1_555
Ca13 Cl3 2.816829 1_555
Ca13 O27 3.060243 1_555
Ca13 Cl1 3.192052 1_455
Ca14 O18 2.292532 1_555
Ca14 O14 2.326093 1_555
Ca14 O38 2.344169 1_655
Ca14 O24 2.435983 1_555
Ca14 O42 2.570345 1_555
Ca14 Cl1 2.807675 1_555
Ca14 O20 3.062729 1_565
Ca14 Cl3 3.212303 1_555
Ca15 O43 2.362807 1_555
Ca15 O47 2.398328 1_655
Ca15 O20 2.409228 1_555
Ca15 O35 2.410446 1_555
Ca15 O28 2.433815 1_655
Ca15 O39 2.460945 1_655
Ca15 O2 2.663497 1_655
Ca15 O0 2.853938 1_655
Ca15 O38 2.922051 1_645
Ca16 O41 2.293993 1_555
Ca16 O11 2.314744 1_655
Ca16 O44 2.359915 1_555
Ca16 O32 2.446818 1_565
Ca16 O31 2.558136 1_565
Ca16 Cl2 2.808873 1_565
Ca16 O6 3.057672 1_555
Ca16 Cl0 3.194657 1_665
Ca17 O16 2.292532 1_554
Ca17 O36 2.326093 1_455
Ca17 O23 2.344169 1_555
Ca17 O7 2.435983 1_555
Ca17 O34 2.570345 1_555
Ca17 Cl3 2.807675 1_555
Ca17 O22 3.062729 1_555
Ca17 Cl1 3.212303 1_455
Ca18 O29 2.385454 1_555
Ca18 O27 2.387667 1_555
Ca18 O5 2.412655 1_555
Ca18 O41 2.426744 1_555
Ca18 O15 2.428519 1_555
Ca18 O18 2.476783 1_555
Ca18 O31 2.675113 1_565
Ca18 O21 2.710864 1_555
Ca18 O24 2.934734 1_555
Ca19 O37 2.293993 1_555
Ca19 O46 2.314747 1_555
Ca19 O0 2.359915 1_655
Ca19 O23 2.446818 1_555
Ca19 O36 2.558136 1_555
Ca19 Cl1 2.808873 1_555
Ca19 O43 3.057672 1_555
Ca19 Cl3 3.194657 1_555
O0 P4 1.536871 1_555
O1 P9 1.528738 1_555
O2 P0 1.536987 1_555
O3 P8 1.528370 1_555
O4 P8 1.536876 1_555
O5 P1 1.546487 1_555
O6 P2 1.528418 1_565
O7 P5 1.535599 1_555
O8 P6 1.537020 1_555
O9 P2 1.535594 1_555
O10 P6 1.535658 1_555
O11 P10 1.535287 1_555
O12 P10 1.546653 1_555
O13 P5 1.528409 1_545
O14 P7 1.537020 1_555
O15 P0 1.528418 1_555
O16 P6 1.546782 1_555
O17 P3 1.536876 1_555
O18 P11 1.546782 1_565
O19 P3 1.535282 1_555
O20 P3 1.528370 1_555
O21 P8 1.535287 1_555
O22 P4 1.528387 1_555
O23 P9 1.535658 1_555
O24 P1 1.535599 1_555
O25 P6 1.528738 1_555
O26 P2 1.536987 1_555
O27 P7 1.528738 1_555
O28 P4 1.546644 1_555
O29 P10 1.528370 1_555
O30 P0 1.535594 1_555
O31 P11 1.537020 1_555
O32 P11 1.535658 1_555
O33 P2 1.546487 1_554
O34 P5 1.536992 1_555
O35 P11 1.528738 1_555
O36 P9 1.537020 1_555
O37 P3 1.546653 1_555
O38 P7 1.535658 1_555
O39 P0 1.546487 1_555
O40 P5 1.546487 1_556
O41 P8 1.546653 1_555
O42 P1 1.536992 1_555
O43 P1 1.528409 1_555
O44 P10 1.536876 1_555
O45 P9 1.546782 1_555
O46 P4 1.535277 1_555
O47 P7 1.546782 1_545
