# generated using pymatgen
data_Ba3Cr2WO9
_symmetry_space_group_name_H-M   'P 1'
_cell_length_a   5.80816537
_cell_length_b   14.29720400
_cell_length_c   5.80815400
_cell_angle_alpha   89.99992047
_cell_angle_beta   120.00010376
_cell_angle_gamma   89.99999574
_symmetry_Int_Tables_number   1
_chemical_formula_structural   Ba3Cr2WO9
_chemical_formula_sum   'Ba6 Cr4 W2 O18'
_cell_volume   417.69414493
_cell_formula_units_Z   2
loop_
 _symmetry_equiv_pos_site_id
 _symmetry_equiv_pos_as_xyz
  1  'x, y, z'
loop_
 _atom_site_type_symbol
 _atom_site_label
 _atom_site_symmetry_multiplicity
 _atom_site_fract_x
 _atom_site_fract_y
 _atom_site_fract_z
 _atom_site_occupancy
  Ba  Ba0  1  0.99999700  0.24999500  0.99999700  1
  Ba  Ba1  1  0.00000200  0.74999600  0.00000000  1
  Ba  Ba2  1  0.66666400  0.10359800  0.33333200  1
  Ba  Ba3  1  0.66666500  0.39640100  0.33332800  1
  Ba  Ba4  1  0.33333000  0.89637500  0.66666900  1
  Ba  Ba5  1  0.33333500  0.60360800  0.66666900  1
  Cr  Cr0  1  0.66668900  0.65966300  0.33335600  1
  Cr  Cr1  1  0.33333300  0.15964200  0.66667300  1
  Cr  Cr2  1  0.66667600  0.84039100  0.33333800  1
  Cr  Cr3  1  0.33332200  0.34036800  0.66664900  1
  W  W0  1  0.00000200  0.50000400  0.00000000  1
  W  W1  1  0.00000100  0.99999800  0.00000200  1
  O  O0  1  0.03146600  0.24999700  0.51470200  1
  O  O1  1  0.48529000  0.24999800  0.51676200  1
  O  O2  1  0.48323100  0.24999900  0.96852800  1
  O  O3  1  0.96852900  0.75001400  0.48323400  1
  O  O4  1  0.51677500  0.75001500  0.48529000  1
  O  O5  1  0.51471700  0.75001300  0.03149200  1
  O  O6  1  0.32051600  0.92170500  0.16056600  1
  O  O7  1  0.83942800  0.57828500  0.15995100  1
  O  O8  1  0.84004600  0.57828600  0.67947500  1
  O  O9  1  0.84004800  0.92170500  0.67948000  1
  O  O10  1  0.83943200  0.92170500  0.15994900  1
  O  O11  1  0.67948500  0.07827400  0.84005000  1
  O  O12  1  0.15994500  0.07827400  0.83943200  1
  O  O13  1  0.16056300  0.07827400  0.32051400  1
  O  O14  1  0.32052100  0.57828600  0.16057000  1
  O  O15  1  0.16056800  0.42171000  0.32052100  1
  O  O16  1  0.67947500  0.42171100  0.84004400  1
  O  O17  1  0.15994900  0.42171100  0.83942600  1
loop_
_geom_bond_atom_site_label_1
_geom_bond_atom_site_label_2
_geom_bond_distance
_geom_bond_site_symmetry_2
Ba0 O2 2.902411 1_655
Ba0 O0 2.902417 1_656
Ba0 O1 2.902419 1_555
Ba0 O1 2.914354 1_656
Ba0 O0 2.914359 1_655
Ba0 O2 2.914375 1_555
Ba0 O15 2.937102 1_656
Ba0 O16 2.937107 1_555
Ba0 O17 2.937110 1_655
Ba0 O11 2.937141 1_555
Ba0 O12 2.937144 1_655
Ba0 O13 2.937150 1_656
Ba1 O4 2.902407 1_454
Ba1 O3 2.902419 1_455
Ba1 O5 2.902420 1_555
Ba1 O3 2.914359 1_454
Ba1 O4 2.914372 1_555
Ba1 O5 2.914379 1_455
Ba1 O6 2.937003 1_555
Ba1 O9 2.937015 1_454
Ba1 O10 2.937017 1_455
Ba1 O14 2.937027 1_555
Ba1 O8 2.937045 1_454
Ba1 O7 2.937056 1_455
Ba2 O0 2.783553 1_655
Ba2 O1 2.783571 1_555
Ba2 O2 2.783576 1_554
Ba2 O12 2.925484 1_655
Ba2 O11 2.925499 1_554
Ba2 O13 2.925501 1_555
Ba2 O11 2.929041 1_555
Ba2 O13 2.929050 1_655
Ba2 O12 2.929052 1_554
Ba2 O9 3.129605 1_545
Ba2 O6 3.129610 1_545
Ba2 O10 3.129619 1_545
Ba3 O2 2.783578 1_554
Ba3 O0 2.783601 1_655
Ba3 O1 2.783618 1_555
Ba3 O16 2.925452 1_554
Ba3 O17 2.925463 1_655
Ba3 O15 2.925482 1_555
Ba3 O15 2.929014 1_655
Ba3 O17 2.929023 1_554
Ba3 O16 2.929037 1_555
Ba3 O7 3.129479 1_555
Ba3 O14 3.129502 1_555
Ba3 O8 3.129512 1_555
Ba4 O3 2.783142 1_455
Ba4 O4 2.783208 1_555
Ba4 O5 2.783219 1_556
Ba4 O9 2.925485 1_455
Ba4 O10 2.925499 1_556
Ba4 O6 2.925528 1_555
Ba4 O6 2.929032 1_556
Ba4 O10 2.929059 1_455
Ba4 O9 2.929086 1_555
Ba4 O12 3.129682 1_565
Ba4 O13 3.129696 1_565
Ba4 O11 3.129701 1_565
Ba5 O3 2.783639 1_455
Ba5 O5 2.783686 1_556
Ba5 O4 2.783694 1_555
Ba5 O7 2.925465 1_556
Ba5 O14 2.925492 1_555
Ba5 O8 2.925496 1_455
Ba5 O14 2.929040 1_556
Ba5 O8 2.929045 1_555
Ba5 O7 2.929067 1_455
Ba5 O16 3.129633 1_555
Ba5 O17 3.129642 1_555
Ba5 O15 3.129669 1_555
Cr0 O3 1.993442 1_555
Cr0 O4 1.993482 1_555
Cr0 O5 1.993520 1_555
Cr0 O8 2.093957 1_555
Cr0 O7 2.094075 1_555
Cr0 O14 2.094167 1_555
Cr1 O2 1.993554 1_555
Cr1 O0 1.993581 1_555
Cr1 O1 1.993595 1_555
Cr1 O12 2.094007 1_555
Cr1 O11 2.094027 1_555
Cr1 O13 2.094056 1_555
Cr2 O5 1.993714 1_555
Cr2 O4 1.993723 1_555
Cr2 O3 1.993731 1_555
Cr2 O9 2.093556 1_555
Cr2 O10 2.093570 1_555
Cr2 O6 2.093631 1_555
Cr3 O1 1.993676 1_555
Cr3 O0 1.993689 1_555
Cr3 O2 1.993754 1_555
Cr3 O15 2.093716 1_555
Cr3 O17 2.093822 1_555
Cr3 O16 2.093834 1_555
O6 W1 1.962693 1_555
O7 W0 1.962639 1_655
O8 W0 1.962641 1_656
O9 W1 1.962722 1_656
O10 W1 1.962698 1_655
O11 W1 1.962558 1_646
O12 W1 1.962551 1_546
O13 W1 1.962542 1_545
O14 W0 1.962621 1_555
O15 W0 1.962723 1_555
O16 W0 1.962744 1_656
O17 W0 1.962720 1_556
