# generated using pymatgen
data_NaMn2O4
_symmetry_space_group_name_H-M   'P 1'
_cell_length_a   2.85641495
_cell_length_b   8.85115454
_cell_length_c   11.02147153
_cell_angle_alpha   90.00000000
_cell_angle_beta   90.00000000
_cell_angle_gamma   90.00000000
_symmetry_Int_Tables_number   1
_chemical_formula_structural   NaMn2O4
_chemical_formula_sum   'Na4 Mn8 O16'
_cell_volume   278.65112714
_cell_formula_units_Z   4
loop_
 _symmetry_equiv_pos_site_id
 _symmetry_equiv_pos_as_xyz
  1  'x, y, z'
loop_
 _atom_site_type_symbol
 _atom_site_label
 _atom_site_symmetry_multiplicity
 _atom_site_fract_x
 _atom_site_fract_y
 _atom_site_fract_z
 _atom_site_occupancy
  Na  Na0  1  0.25000000  0.74642122  0.83745569  1
  Na  Na1  1  0.25000000  0.24642122  0.66254431  1
  Na  Na2  1  0.75000000  0.25357878  0.16254431  1
  Na  Na3  1  0.75000000  0.75357878  0.33745569  1
  Mn  Mn0  1  0.25000000  0.56885127  0.61224792  1
  Mn  Mn1  1  0.25000000  0.06885127  0.88775208  1
  Mn  Mn2  1  0.75000000  0.43114873  0.38775208  1
  Mn  Mn3  1  0.75000000  0.93114873  0.11224792  1
  Mn  Mn4  1  0.25000000  0.58172940  0.09677810  1
  Mn  Mn5  1  0.25000000  0.08172940  0.40322190  1
  Mn  Mn6  1  0.75000000  0.41827060  0.90322190  1
  Mn  Mn7  1  0.75000000  0.91827060  0.59677810  1
  O  O0  1  0.25000000  0.78848506  0.15225074  1
  O  O1  1  0.25000000  0.28848506  0.34774926  1
  O  O2  1  0.75000000  0.21151494  0.84774926  1
  O  O3  1  0.75000000  0.71151494  0.65225074  1
  O  O4  1  0.25000000  0.88352179  0.47973552  1
  O  O5  1  0.25000000  0.38352179  0.02026448  1
  O  O6  1  0.75000000  0.11647821  0.52026448  1
  O  O7  1  0.75000000  0.61647821  0.97973552  1
  O  O8  1  0.25000000  0.97299162  0.69947428  1
  O  O9  1  0.25000000  0.47299162  0.80052572  1
  O  O10  1  0.75000000  0.02700838  0.30052572  1
  O  O11  1  0.75000000  0.52700838  0.19947428  1
  O  O12  1  0.25000000  0.56944946  0.41545588  1
  O  O13  1  0.25000000  0.06944946  0.08454412  1
  O  O14  1  0.75000000  0.43055054  0.58454412  1
  O  O15  1  0.75000000  0.93055054  0.91545588  1
loop_
_geom_bond_atom_site_label_1
_geom_bond_atom_site_label_2
_geom_bond_distance
_geom_bond_site_symmetry_2
Na0 O15 2.331293 1_455
Na0 O15 2.331293 1_555
Na0 O7 2.412810 1_455
Na0 O7 2.412810 1_555
Na0 O9 2.454155 1_555
Na0 O3 2.510350 1_455
Na0 O3 2.510350 1_555
Na0 O8 2.516818 1_555
Na1 O14 2.331293 1_455
Na1 O14 2.331293 1_555
Na1 O6 2.412810 1_555
Na1 O6 2.412810 1_455
Na1 O8 2.454155 1_545
Na1 O2 2.510350 1_455
Na1 O2 2.510350 1_555
Na1 O9 2.516818 1_555
Na2 O13 2.331293 1_555
Na2 O13 2.331293 1_655
Na2 O5 2.412810 1_655
Na2 O5 2.412810 1_555
Na2 O11 2.454155 1_555
Na2 O1 2.510350 1_655
Na2 O1 2.510350 1_555
Na2 O10 2.516818 1_555
Na3 O12 2.331293 1_555
Na3 O12 2.331293 1_655
Na3 O4 2.412810 1_555
Na3 O4 2.412810 1_655
Na3 O10 2.454155 1_565
Na3 O0 2.510350 1_555
Na3 O0 2.510350 1_655
Na3 O11 2.516818 1_555
Mn0 O14 1.905644 1_555
Mn0 O14 1.905644 1_455
Mn0 O3 1.956698 1_455
Mn0 O3 1.956698 1_555
Mn0 O12 2.168944 1_555
Mn0 O9 2.241859 1_555
Mn1 O15 1.905644 1_445
Mn1 O15 1.905644 1_545
Mn1 O2 1.956698 1_455
Mn1 O2 1.956698 1_555
Mn1 O13 2.168944 1_556
Mn1 O8 2.241859 1_545
Mn2 O12 1.905644 1_555
Mn2 O12 1.905644 1_655
Mn2 O1 1.956698 1_555
Mn2 O1 1.956698 1_655
Mn2 O14 2.168944 1_555
Mn2 O11 2.241859 1_555
Mn3 O13 1.905644 1_665
Mn3 O13 1.905644 1_565
Mn3 O0 1.956698 1_555
Mn3 O0 1.956698 1_655
Mn3 O15 2.168944 1_554
Mn3 O10 2.241859 1_565
Mn4 O11 1.885598 1_555
Mn4 O11 1.885598 1_455
Mn4 O0 1.929454 1_555
Mn4 O5 1.946521 1_555
Mn4 O7 1.948955 1_554
Mn4 O7 1.948955 1_454
Mn5 O10 1.885598 1_555
Mn5 O10 1.885598 1_455
Mn5 O1 1.929454 1_555
Mn5 O4 1.946521 1_545
Mn5 O6 1.948955 1_555
Mn5 O6 1.948955 1_455
Mn6 O9 1.885598 1_555
Mn6 O9 1.885598 1_655
Mn6 O2 1.929454 1_555
Mn6 O7 1.946521 1_555
Mn6 O5 1.948955 1_656
Mn6 O5 1.948955 1_556
Mn7 O8 1.885598 1_555
Mn7 O8 1.885598 1_655
Mn7 O3 1.929454 1_555
Mn7 O6 1.946521 1_565
Mn7 O4 1.948955 1_555
Mn7 O4 1.948955 1_655
