# generated using pymatgen
data_RbYbBr3
_symmetry_space_group_name_H-M   'P 1'
_cell_length_a   7.81896900
_cell_length_b   8.09213800
_cell_length_c   11.28297200
_cell_angle_alpha   90.00000000
_cell_angle_beta   90.00000000
_cell_angle_gamma   90.00000000
_symmetry_Int_Tables_number   1
_chemical_formula_structural   RbYbBr3
_chemical_formula_sum   'Rb4 Yb4 Br12'
_cell_volume   713.89819206
_cell_formula_units_Z   4
loop_
 _symmetry_equiv_pos_site_id
 _symmetry_equiv_pos_as_xyz
  1  'x, y, z'
loop_
 _atom_site_type_symbol
 _atom_site_label
 _atom_site_symmetry_multiplicity
 _atom_site_fract_x
 _atom_site_fract_y
 _atom_site_fract_z
 _atom_site_occupancy
  Rb  Rb0  1  0.48437900  0.55940400  0.75000000  1
  Rb  Rb1  1  0.51562100  0.44059600  0.25000000  1
  Rb  Rb2  1  0.98437900  0.94059600  0.25000000  1
  Rb  Rb3  1  0.01562100  0.05940400  0.75000000  1
  Yb  Yb0  1  0.50000000  0.00000000  0.50000000  1
  Yb  Yb1  1  0.50000000  0.00000000  0.00000000  1
  Yb  Yb2  1  0.00000000  0.50000000  0.50000000  1
  Yb  Yb3  1  0.00000000  0.50000000  0.00000000  1
  Br  Br0  1  0.29901200  0.29616000  0.96052300  1
  Br  Br1  1  0.42432200  0.01598400  0.25000000  1
  Br  Br2  1  0.57567800  0.98401600  0.75000000  1
  Br  Br3  1  0.07567800  0.51598400  0.25000000  1
  Br  Br4  1  0.70098800  0.70384000  0.03947700  1
  Br  Br5  1  0.79901200  0.20384000  0.03947700  1
  Br  Br6  1  0.92432200  0.48401600  0.75000000  1
  Br  Br7  1  0.20098800  0.79616000  0.53947700  1
  Br  Br8  1  0.70098800  0.70384000  0.46052300  1
  Br  Br9  1  0.79901200  0.20384000  0.46052300  1
  Br  Br10  1  0.29901200  0.29616000  0.53947700  1
  Br  Br11  1  0.20098800  0.79616000  0.96052300  1
loop_
_geom_bond_atom_site_label_1
_geom_bond_atom_site_label_2
_geom_bond_distance
_geom_bond_site_symmetry_2
Br0 Yb3 2.895744 1_556
Br0 Yb1 2.900277 1_556
Br0 Rb0 3.504376 1_555
Br0 Rb3 3.771284 1_555
Br0 Rb1 3.860359 1_556
Br1 Yb1 2.885040 1_555
Br1 Yb0 2.885040 1_555
Br1 Rb2 3.493577 1_445
Br1 Rb1 3.509391 1_555
Br2 Yb0 2.885040 1_565
Br2 Yb1 2.885040 1_566
Br2 Rb3 3.493577 1_665
Br2 Rb0 3.509391 1_555
Br3 Yb2 2.885040 1_555
Br3 Yb3 2.885040 1_555
Br3 Rb1 3.493577 1_555
Br3 Rb2 3.509391 1_455
Br4 Yb3 2.895744 1_655
Br4 Yb1 2.900277 1_565
Br4 Rb1 3.504376 1_555
Br4 Rb2 3.771284 1_555
Br4 Rb0 3.860359 1_554
Br5 Yb1 2.895744 1_555
Br5 Yb3 2.900277 1_655
Br5 Rb2 3.504376 1_545
Br5 Rb1 3.771284 1_555
Br5 Rb3 3.860359 1_654
Br6 Yb3 2.885040 1_656
Br6 Yb2 2.885040 1_655
Br6 Rb0 3.493577 1_555
Br6 Rb3 3.509391 1_655
Br7 Yb0 2.895744 1_565
Br7 Yb2 2.900277 1_555
Br7 Rb3 3.504376 1_565
Br7 Rb0 3.771284 1_555
Br7 Rb2 3.860359 1_455
Br8 Yb2 2.895744 1_655
Br8 Yb0 2.900277 1_565
Br8 Rb1 3.504376 1_555
Br8 Rb2 3.771284 1_555
Br8 Rb0 3.860359 1_555
Br9 Yb0 2.895744 1_555
Br9 Yb2 2.900277 1_655
Br9 Rb2 3.504376 1_545
Br9 Rb1 3.771284 1_555
Br9 Rb3 3.860359 1_655
Br10 Yb2 2.895744 1_555
Br10 Yb0 2.900277 1_555
Br10 Rb0 3.504376 1_555
Br10 Rb3 3.771284 1_555
Br10 Rb1 3.860359 1_555
Br11 Yb1 2.895744 1_566
Br11 Yb3 2.900277 1_556
Br11 Rb3 3.504376 1_565
Br11 Rb0 3.771284 1_555
Br11 Rb2 3.860359 1_456
