# generated using pymatgen
data_Ca3V2O8
_symmetry_space_group_name_H-M   'P 1'
_cell_length_a   14.24419207
_cell_length_b   14.24419207
_cell_length_c   14.24419201
_cell_angle_alpha   45.14381671
_cell_angle_beta   45.14381671
_cell_angle_gamma   45.14381493
_symmetry_Int_Tables_number   1
_chemical_formula_structural   Ca3V2O8
_chemical_formula_sum   'Ca21 V14 O56'
_cell_volume   1322.26283042
_cell_formula_units_Z   7
loop_
 _symmetry_equiv_pos_site_id
 _symmetry_equiv_pos_as_xyz
  1  'x, y, z'
loop_
 _atom_site_type_symbol
 _atom_site_label
 _atom_site_symmetry_multiplicity
 _atom_site_fract_x
 _atom_site_fract_y
 _atom_site_fract_z
 _atom_site_occupancy
  Ca  Ca0  1  0.26615700  0.26615700  0.26615700  1
  Ca  Ca1  1  0.61188200  0.20080300  0.19585700  1
  Ca  Ca2  1  0.20080300  0.19585700  0.61188200  1
  Ca  Ca3  1  0.19585700  0.61188200  0.20080300  1
  Ca  Ca4  1  0.72149800  0.27561200  0.32122900  1
  Ca  Ca5  1  0.27561200  0.32122900  0.72149800  1
  Ca  Ca6  1  0.70065600  0.11032000  0.69815700  1
  Ca  Ca7  1  0.32122900  0.72149800  0.27561200  1
  Ca  Ca8  1  0.36092000  0.31909300  0.92015700  1
  Ca  Ca9  1  0.92015700  0.36092000  0.31909300  1
  Ca  Ca10  1  0.69815700  0.70065600  0.11032000  1
  Ca  Ca11  1  0.11032000  0.69815700  0.70065600  1
  Ca  Ca12  1  0.80006100  0.20260700  0.82836800  1
  Ca  Ca13  1  0.57537000  0.57537000  0.57537000  1
  Ca  Ca14  1  0.31909300  0.92015700  0.36092000  1
  Ca  Ca15  1  0.82836800  0.80006100  0.20260700  1
  Ca  Ca16  1  0.20260700  0.82836800  0.80006100  1
  Ca  Ca17  1  0.85916200  0.42010500  0.82616900  1
  Ca  Ca18  1  0.42010500  0.82616900  0.85916200  1
  Ca  Ca19  1  0.82616900  0.85916200  0.42010500  1
  Ca  Ca20  1  0.76721000  0.76721000  0.76721000  1
  V  V0  1  0.00024700  0.00024700  0.00024700  1
  V  V1  1  0.58421000  0.03656500  0.08576100  1
  V  V2  1  0.03656500  0.08576100  0.58421000  1
  V  V3  1  0.08576100  0.58421000  0.03656500  1
  V  V4  1  0.53771900  0.08449000  0.58423400  1
  V  V5  1  0.58423400  0.53771900  0.08449000  1
  V  V6  1  0.08449000  0.58423400  0.53771900  1
  V  V7  1  0.49859800  0.49859800  0.49859800  1
  V  V8  1  0.50163700  0.46271700  0.93283400  1
  V  V9  1  0.93283400  0.50163700  0.46271700  1
  V  V10  1  0.46271700  0.93283400  0.50163700  1
  V  V11  1  0.99507900  0.44535900  0.96009300  1
  V  V12  1  0.44535900  0.96009300  0.99507900  1
  V  V13  1  0.96009300  0.99507900  0.44535900  1
  O  O0  1  0.39594000  0.12473900  0.15020600  1
  O  O1  1  0.12473900  0.15020600  0.39594000  1
  O  O2  1  0.15020600  0.39594000  0.12473900  1
  O  O3  1  0.65452700  0.08749300  0.09690400  1
  O  O4  1  0.08749300  0.09690400  0.65452700  1
  O  O5  1  0.40333300  0.11767300  0.39038300  1
  O  O6  1  0.86243000  0.00189500  0.16964000  1
  O  O7  1  0.11767300  0.39038300  0.40333300  1
  O  O8  1  0.39038300  0.40333300  0.11767300  1
  O  O9  1  0.09690400  0.65452700  0.08749300  1
  O  O10  1  0.00189500  0.16964000  0.86243000  1
  O  O11  1  0.59033400  0.15161300  0.40268900  1
  O  O12  1  0.35307700  0.12914100  0.69058900  1
  O  O13  1  0.88994500  0.00715300  0.37560500  1
  O  O14  1  0.15161300  0.40268900  0.59033400  1
  O  O15  1  0.69058900  0.35307700  0.12914100  1
  O  O16  1  0.40268900  0.59033400  0.15161300  1
  O  O17  1  0.16964000  0.86243000  0.00189500  1
  O  O18  1  0.58847100  0.15403700  0.59606500  1
  O  O19  1  0.00715300  0.37560500  0.88994500  1
  O  O20  1  0.12914100  0.69058900  0.35307700  1
  O  O21  1  0.37298900  0.14774600  0.91522900  1
  O  O22  1  0.86823600  0.17083700  0.43143100  1
  O  O23  1  0.45405900  0.45405900  0.45405900  1
  O  O24  1  0.59606500  0.58847100  0.15403700  1
  O  O25  1  0.15403700  0.59606500  0.58847100  1
  O  O26  1  0.91522900  0.37298900  0.14774600  1
  O  O27  1  0.37560500  0.88994500  0.00715300  1
  O  O28  1  0.17083700  0.43143100  0.86823600  1
  O  O29  1  0.65115100  0.09125300  0.90454200  1
  O  O30  1  0.51430600  0.37015200  0.66415300  1
  O  O31  1  0.66415300  0.51430600  0.37015200  1
  O  O32  1  0.85163700  0.19272500  0.63256900  1
  O  O33  1  0.37015200  0.66415300  0.51430600  1
  O  O34  1  0.14774600  0.91522900  0.37298900  1
  O  O35  1  0.43143100  0.86823600  0.17083700  1
  O  O36  1  0.90454200  0.65115100  0.09125300  1
  O  O37  1  0.19272500  0.63256900  0.85163700  1
  O  O38  1  0.52469500  0.41700500  0.82904900  1
  O  O39  1  0.82904900  0.52469500  0.41700500  1
  O  O40  1  0.09125300  0.90454200  0.65115100  1
  O  O41  1  0.63256900  0.85163700  0.19272500  1
  O  O42  1  0.86092700  0.43221900  0.64734500  1
  O  O43  1  0.67093200  0.36432200  0.93328700  1
  O  O44  1  0.41700500  0.82904900  0.52469500  1
  O  O45  1  0.43221900  0.64734500  0.86092700  1
  O  O46  1  0.93328700  0.67093200  0.36432200  1
  O  O47  1  0.64734500  0.86092700  0.43221900  1
  O  O48  1  0.36432200  0.93328700  0.67093200  1
  O  O49  1  0.65092200  0.62526200  0.89638700  1
  O  O50  1  0.89638700  0.65092200  0.62526200  1
  O  O51  1  0.62526200  0.89638700  0.65092200  1
  O  O52  1  0.89298300  0.63256800  0.90060500  1
  O  O53  1  0.90060500  0.89298300  0.63256800  1
  O  O54  1  0.63256800  0.90060500  0.89298300  1
  O  O55  1  0.95460100  0.95460100  0.95460100  1
loop_
_geom_bond_atom_site_label_1
_geom_bond_atom_site_label_2
_geom_bond_distance
_geom_bond_site_symmetry_2
Ca0 O5 2.278283 1_555
Ca0 O7 2.278283 1_555
Ca0 O8 2.278283 1_555
Ca0 O0 2.310005 1_555
Ca0 O2 2.310005 1_555
Ca0 O1 2.310005 1_555
Ca1 O11 2.319639 1_555
Ca1 O3 2.362005 1_555
Ca1 O15 2.425763 1_555
Ca1 O43 2.481539 1_554
Ca1 O6 2.500437 1_555
Ca1 O5 2.574229 1_555
Ca1 O8 2.664943 1_555
Ca2 O14 2.319639 1_555
Ca2 O4 2.362005 1_555
Ca2 O12 2.425763 1_555
Ca2 O48 2.481539 1_545
Ca2 O10 2.500438 1_555
Ca2 O7 2.574229 1_555
Ca2 O5 2.664944 1_555
Ca3 O16 2.319639 1_555
Ca3 O9 2.362005 1_555
Ca3 O20 2.425763 1_555
Ca3 O46 2.481539 1_455
Ca3 O17 2.500437 1_555
Ca3 O8 2.574229 1_555
Ca3 O7 2.664944 1_555
Ca4 O15 2.377588 1_555
Ca4 O22 2.446091 1_555
Ca4 O13 2.545620 1_555
Ca4 O18 2.552715 1_555
Ca4 O26 2.567150 1_555
Ca4 O11 2.581202 1_555
Ca4 O23 2.740434 1_555
Ca4 O24 2.919346 1_555
Ca5 O12 2.377588 1_555
Ca5 O28 2.446091 1_555
Ca5 O19 2.545620 1_555
Ca5 O25 2.552715 1_555
Ca5 O21 2.567150 1_555
Ca5 O14 2.581202 1_555
Ca5 O23 2.740435 1_555
Ca5 O18 2.919346 1_555
Ca6 O29 2.330858 1_555
Ca6 O18 2.377609 1_555
Ca6 O32 2.460787 1_555
Ca6 O54 2.482210 1_545
Ca6 O22 2.522894 1_555
Ca6 O30 2.530772 1_555
Ca6 O53 2.541047 1_545
Ca7 O20 2.377588 1_555
Ca7 O35 2.446091 1_555
Ca7 O27 2.545620 1_555
Ca7 O24 2.552715 1_555
Ca7 O34 2.567150 1_555
Ca7 O16 2.581202 1_555
Ca7 O23 2.740435 1_555
Ca7 O25 2.919346 1_555
Ca8 O28 2.341377 1_555
Ca8 O21 2.371552 1_555
Ca8 O30 2.421015 1_555
Ca8 O0 2.492281 1_556
Ca8 O2 2.495125 1_556
Ca8 O38 2.614798 1_555
Ca8 O29 2.909898 1_555
Ca8 O37 2.947962 1_555
Ca9 O22 2.341377 1_555
Ca9 O26 2.371552 1_555
Ca9 O31 2.421015 1_555
Ca9 O2 2.492281 1_655
Ca9 O1 2.495125 1_655
Ca9 O39 2.614798 1_555
Ca9 O36 2.909898 1_555
Ca9 O32 2.947962 1_555
Ca10 O36 2.330857 1_555
Ca10 O24 2.377610 1_555
Ca10 O41 2.460787 1_555
Ca10 O52 2.482210 1_554
Ca10 O35 2.522894 1_555
Ca10 O31 2.530772 1_555
Ca10 O54 2.541047 1_554
Ca11 O40 2.330858 1_555
Ca11 O25 2.377609 1_555
Ca11 O37 2.460787 1_555
Ca11 O53 2.482210 1_455
Ca11 O28 2.522894 1_555
Ca11 O33 2.530772 1_555
Ca11 O52 2.541047 1_455
Ca12 O32 2.419832 1_555
Ca12 O43 2.434024 1_555
Ca12 O55 2.492309 1_545
Ca12 O3 2.525642 1_556
Ca12 O42 2.654677 1_555
Ca12 O29 2.695155 1_555
Ca12 O4 2.724562 1_655
Ca12 O38 2.793185 1_555
Ca12 O10 2.909155 1_655
Ca13 O44 2.405341 1_555
Ca13 O39 2.405341 1_555
Ca13 O38 2.405341 1_555
Ca13 O33 2.778655 1_555
Ca13 O31 2.778655 1_555
Ca13 O30 2.778655 1_555
Ca14 O35 2.341377 1_555
Ca14 O34 2.371552 1_555
Ca14 O33 2.421015 1_555
Ca14 O1 2.492281 1_565
Ca14 O0 2.495125 1_565
Ca14 O44 2.614798 1_555
Ca14 O40 2.909898 1_555
Ca14 O41 2.947962 1_555
Ca15 O41 2.419832 1_555
Ca15 O46 2.434024 1_555
Ca15 O55 2.492309 1_554
Ca15 O9 2.525642 1_655
Ca15 O47 2.654677 1_555
Ca15 O36 2.695155 1_555
Ca15 O3 2.724562 1_565
Ca15 O39 2.793185 1_555
Ca15 O6 2.909155 1_565
Ca16 O37 2.419832 1_555
Ca16 O48 2.434024 1_555
Ca16 O55 2.492309 1_455
Ca16 O4 2.525642 1_565
Ca16 O45 2.654677 1_555
Ca16 O40 2.695155 1_555
Ca16 O9 2.724562 1_556
Ca16 O44 2.793185 1_555
Ca16 O17 2.909155 1_556
Ca17 O43 2.381654 1_555
Ca17 O19 2.382216 1_655
Ca17 O10 2.403812 1_655
Ca17 O42 2.411308 1_555
Ca17 O49 2.459442 1_555
Ca17 O50 2.515231 1_555
Ca17 O15 2.846960 1_556
Ca17 O14 2.945645 1_655
Ca18 O48 2.381654 1_555
Ca18 O27 2.382216 1_556
Ca18 O17 2.403812 1_556
Ca18 O45 2.411308 1_555
Ca18 O51 2.459442 1_555
Ca18 O49 2.515231 1_555
Ca18 O12 2.846960 1_565
Ca18 O16 2.945645 1_556
Ca19 O46 2.381654 1_555
Ca19 O13 2.382216 1_565
Ca19 O6 2.403812 1_565
Ca19 O47 2.411308 1_555
Ca19 O50 2.459442 1_555
Ca19 O51 2.515231 1_555
Ca19 O20 2.846960 1_655
Ca19 O11 2.945645 1_565
Ca20 O54 2.304922 1_555
Ca20 O52 2.304922 1_555
Ca20 O53 2.304922 1_555
Ca20 O51 2.322606 1_555
Ca20 O50 2.322606 1_555
Ca20 O49 2.322606 1_555
O0 V1 1.736156 1_555
O1 V2 1.736156 1_555
O2 V3 1.736156 1_555
O3 V1 1.722303 1_555
O4 V2 1.722303 1_555
O5 V10 1.738503 1_545
O6 V0 1.734722 1_655
O7 V9 1.738503 1_455
O8 V8 1.738504 1_554
O9 V3 1.722303 1_555
O10 V0 1.734722 1_556
O11 V4 1.718167 1_555
O12 V4 1.730814 1_555
O13 V13 1.712374 1_545
O14 V6 1.718167 1_555
O15 V5 1.730814 1_555
O16 V5 1.718167 1_555
O17 V0 1.734722 1_565
O18 V4 1.717556 1_555
O19 V11 1.712374 1_455
O20 V6 1.730814 1_555
O21 V12 1.726082 1_545
O22 V13 1.750331 1_545
O23 V7 1.706109 1_555
O24 V5 1.717556 1_555
O25 V6 1.717556 1_555
O26 V11 1.726082 1_554
O27 V12 1.712374 1_554
O28 V11 1.750331 1_455
O29 V1 1.708318 1_556
O30 V7 1.743291 1_555
O31 V7 1.743291 1_555
O32 V2 1.730300 1_655
O33 V7 1.743291 1_555
O34 V13 1.726082 1_455
O35 V12 1.750331 1_554
O36 V3 1.708318 1_655
O37 V3 1.730301 1_556
O38 V8 1.757434 1_555
O39 V9 1.757434 1_555
O40 V2 1.708318 1_565
O41 V1 1.730301 1_565
O42 V9 1.703999 1_555
O43 V8 1.738108 1_555
O44 V10 1.757434 1_555
O45 V8 1.703999 1_555
O46 V9 1.738108 1_555
O47 V10 1.703999 1_555
O48 V10 1.738108 1_555
O49 V5 1.733129 1_556
O50 V6 1.733129 1_655
O51 V4 1.733129 1_565
O52 V11 1.739007 1_555
O53 V13 1.739007 1_555
O54 V12 1.739007 1_555
O55 V0 1.748514 1_666
