# generated using pymatgen
data_CsNa3PbO4
_symmetry_space_group_name_H-M   'P 1'
_cell_length_a   6.86515200
_cell_length_b   8.85020904
_cell_length_c   11.80225311
_cell_angle_alpha   82.59846468
_cell_angle_beta   76.29642099
_cell_angle_gamma   79.42313632
_symmetry_Int_Tables_number   1
_chemical_formula_structural   CsNa3PbO4
_chemical_formula_sum   'Cs4 Na12 Pb4 O16'
_cell_volume   682.09315123
_cell_formula_units_Z   4
loop_
 _symmetry_equiv_pos_site_id
 _symmetry_equiv_pos_as_xyz
  1  'x, y, z'
loop_
 _atom_site_type_symbol
 _atom_site_label
 _atom_site_symmetry_multiplicity
 _atom_site_fract_x
 _atom_site_fract_y
 _atom_site_fract_z
 _atom_site_occupancy
  Cs  Cs0  1  0.99281100  0.61748100  0.12004300  1
  Cs  Cs1  1  0.00718900  0.38251900  0.87995700  1
  Cs  Cs2  1  0.95765600  0.85811600  0.37436100  1
  Cs  Cs3  1  0.04234400  0.14188400  0.62563900  1
  Na  Na0  1  0.42925500  0.04287400  0.37608200  1
  Na  Na1  1  0.57074500  0.95712600  0.62391800  1
  Na  Na2  1  0.81498400  0.05218500  0.10583600  1
  Na  Na3  1  0.18501600  0.94781500  0.89416400  1
  Na  Na4  1  0.54021300  0.43009200  0.12586900  1
  Na  Na5  1  0.45978700  0.56990800  0.87413100  1
  Na  Na6  1  0.18727300  0.44339600  0.39727200  1
  Na  Na7  1  0.81272700  0.55660400  0.60272800  1
  Na  Na8  1  0.19534800  0.17778100  0.14624100  1
  Na  Na9  1  0.80465200  0.82221900  0.85375900  1
  Na  Na10  1  0.51939900  0.67354000  0.38627600  1
  Na  Na11  1  0.48060100  0.32646000  0.61372400  1
  Pb  Pb0  1  0.82580800  0.29202200  0.35210200  1
  Pb  Pb1  1  0.17419200  0.70797800  0.64789800  1
  Pb  Pb2  1  0.43869500  0.79552000  0.13193500  1
  Pb  Pb3  1  0.56130500  0.20448000  0.86806500  1
  O  O0  1  0.13517500  0.20042600  0.35162600  1
  O  O1  1  0.86482500  0.79957400  0.64837400  1
  O  O2  1  0.38147900  0.33254900  0.00494000  1
  O  O3  1  0.61852100  0.66745100  0.99506000  1
  O  O4  1  0.33794400  0.61214600  0.25545700  1
  O  O5  1  0.66205600  0.38785400  0.74454300  1
  O  O6  1  0.81128300  0.50950200  0.41170400  1
  O  O7  1  0.18871700  0.49049800  0.58829600  1
  O  O8  1  0.17632000  0.93675700  0.09407000  1
  O  O9  1  0.82368000  0.06324300  0.90593000  1
  O  O10  1  0.83107200  0.28770500  0.17333300  1
  O  O11  1  0.16892800  0.71229500  0.82666700  1
  O  O12  1  0.60679700  0.88808500  0.22607500  1
  O  O13  1  0.39320300  0.11191500  0.77392500  1
  O  O14  1  0.62574500  0.15921900  0.46691100  1
  O  O15  1  0.37425500  0.84078100  0.53308900  1
loop_
_geom_bond_atom_site_label_1
_geom_bond_atom_site_label_2
_geom_bond_distance
_geom_bond_site_symmetry_2
Cs0 O4 3.147076 1_655
Cs0 O3 3.191342 1_554
Cs0 O10 3.245380 1_555
Cs0 O8 3.250563 1_655
Cs0 O12 3.345945 1_555
Cs0 O11 3.434420 1_654
Cs0 O6 3.445664 1_555
Cs0 O2 3.466868 1_655
Cs1 O5 3.147076 1_455
Cs1 O2 3.191342 1_556
Cs1 O11 3.245380 1_555
Cs1 O9 3.250563 1_455
Cs1 O13 3.345945 1_555
Cs1 O10 3.434420 1_456
Cs1 O7 3.445664 1_555
Cs1 O3 3.466868 1_455
Cs2 O1 3.137861 1_555
Cs2 O4 3.238664 1_655
Cs2 O12 3.252419 1_555
Cs2 O14 3.290605 1_565
Cs2 O8 3.334470 1_655
Cs2 O6 3.361713 1_555
Cs2 O0 3.424353 1_665
Cs3 O0 3.137861 1_555
Cs3 O5 3.238664 1_455
Cs3 O13 3.252419 1_555
Cs3 O15 3.290605 1_545
Cs3 O9 3.334470 1_455
Cs3 O7 3.361713 1_555
Cs3 O1 3.424353 1_445
Na0 O0 2.289651 1_555
Na0 O12 2.342255 1_545
Na0 O14 2.347005 1_555
Na0 O15 2.416152 1_545
Na1 O1 2.289651 1_555
Na1 O13 2.342255 1_565
Na1 O15 2.347005 1_555
Na1 O14 2.416152 1_565
Na2 O12 2.331483 1_545
Na2 O9 2.335712 1_554
Na2 O10 2.354896 1_555
Na2 O8 2.481819 1_645
Na3 O13 2.331483 1_565
Na3 O8 2.335712 1_556
Na3 O11 2.354896 1_555
Na3 O9 2.481819 1_465
Na4 O10 2.305065 1_555
Na4 O2 2.317209 1_555
Na4 O4 2.381326 1_555
Na4 O3 2.504212 1_554
Na5 O11 2.305065 1_555
Na5 O3 2.317209 1_555
Na5 O5 2.381326 1_555
Na5 O2 2.504212 1_556
Na6 O4 2.281361 1_555
Na6 O7 2.347541 1_555
Na6 O0 2.390436 1_555
Na6 O6 2.509385 1_455
Na7 O5 2.281361 1_555
Na7 O6 2.347541 1_555
Na7 O1 2.390436 1_555
Na7 O7 2.509385 1_655
Na8 O2 2.309645 1_555
Na8 O8 2.329199 1_545
Na8 O0 2.388923 1_555
Na8 O10 2.472017 1_455
Na9 O3 2.309645 1_555
Na9 O9 2.329199 1_565
Na9 O1 2.388923 1_555
Na9 O11 2.472017 1_655
Na10 O6 2.306024 1_555
Na10 O15 2.342492 1_555
Na10 O4 2.367856 1_555
Na10 O12 2.548719 1_555
Na11 O7 2.306024 1_555
Na11 O14 2.342492 1_555
Na11 O5 2.367856 1_555
Na11 O13 2.548719 1_555
O0 Pb0 2.128707 1_455
O1 Pb1 2.128707 1_655
O2 Pb3 2.105123 1_554
O3 Pb2 2.105123 1_556
O4 Pb2 2.135946 1_555
O5 Pb3 2.135946 1_555
O6 Pb0 2.110580 1_555
O7 Pb1 2.110580 1_555
O8 Pb2 2.101798 1_555
O9 Pb3 2.101798 1_555
O10 Pb0 2.106771 1_555
O11 Pb1 2.106771 1_555
O12 Pb2 2.103925 1_555
O13 Pb3 2.103925 1_555
O14 Pb0 2.098662 1_555
O15 Pb1 2.098662 1_555
