# generated using pymatgen
data_EuCd(BO2)5
_symmetry_space_group_name_H-M   'P 1'
_cell_length_a   7.98597500
_cell_length_b   8.75818500
_cell_length_c   12.92630848
_cell_angle_alpha   48.71464318
_cell_angle_beta   90.00000000
_cell_angle_gamma   90.00000000
_symmetry_Int_Tables_number   1
_chemical_formula_structural   EuCd(BO2)5
_chemical_formula_sum   'Eu4 Cd4 B20 O40'
_cell_volume   679.37055057
_cell_formula_units_Z   4
loop_
 _symmetry_equiv_pos_site_id
 _symmetry_equiv_pos_as_xyz
  1  'x, y, z'
loop_
 _atom_site_type_symbol
 _atom_site_label
 _atom_site_symmetry_multiplicity
 _atom_site_fract_x
 _atom_site_fract_y
 _atom_site_fract_z
 _atom_site_occupancy
  Eu  Eu0  1  0.17618100  0.95856100  0.23764700  1
  Eu  Eu1  1  0.67618100  0.04143900  0.26235300  1
  Eu  Eu2  1  0.82381900  0.04143900  0.76235300  1
  Eu  Eu3  1  0.32381900  0.95856100  0.73764700  1
  Cd  Cd0  1  0.40403500  0.47139900  0.12731700  1
  Cd  Cd1  1  0.90403500  0.52860100  0.37268300  1
  Cd  Cd2  1  0.59596500  0.52860100  0.87268300  1
  Cd  Cd3  1  0.09596500  0.47139900  0.62731700  1
  B  B0  1  0.57303700  0.66743500  0.24557500  1
  B  B1  1  0.07303700  0.33256500  0.25442500  1
  B  B2  1  0.42696300  0.33256500  0.75442500  1
  B  B3  1  0.92696300  0.66743500  0.74557500  1
  B  B4  1  0.32204800  0.07744600  0.40668700  1
  B  B5  1  0.82204800  0.92255400  0.09331300  1
  B  B6  1  0.67795200  0.92255400  0.59331300  1
  B  B7  1  0.17795200  0.07744600  0.90668700  1
  B  B8  1  0.53027500  0.28040700  0.43990500  1
  B  B9  1  0.03027500  0.71959300  0.06009500  1
  B  B10  1  0.46972500  0.71959300  0.56009500  1
  B  B11  1  0.96972500  0.28040700  0.93990500  1
  B  B12  1  0.60736100  0.85261800  0.98963400  1
  B  B13  1  0.10736100  0.14738200  0.51036600  1
  B  B14  1  0.39263900  0.14738200  0.01036600  1
  B  B15  1  0.89263900  0.85261800  0.48963400  1
  B  B16  1  0.32647200  0.53148700  0.40308400  1
  B  B17  1  0.82647200  0.46851300  0.09691600  1
  B  B18  1  0.67352800  0.46851300  0.59691600  1
  B  B19  1  0.17352800  0.53148700  0.90308400  1
  O  O0  1  0.70500700  0.81418400  0.21529500  1
  O  O1  1  0.20500700  0.18581600  0.28470500  1
  O  O2  1  0.29499300  0.18581600  0.78470500  1
  O  O3  1  0.79499300  0.81418400  0.71529500  1
  O  O4  1  0.53246400  0.70988700  0.11593600  1
  O  O5  1  0.03246400  0.29011300  0.38406400  1
  O  O6  1  0.46753600  0.29011300  0.88406400  1
  O  O7  1  0.96753600  0.70988700  0.61593600  1
  O  O8  1  0.41931800  0.69326700  0.29462000  1
  O  O9  1  0.91931800  0.30673300  0.20538000  1
  O  O10  1  0.58068200  0.30673300  0.70538000  1
  O  O11  1  0.08068200  0.69326700  0.79462000  1
  O  O12  1  0.63856400  0.45877800  0.34830700  1
  O  O13  1  0.13856400  0.54122200  0.15169300  1
  O  O14  1  0.36143600  0.54122200  0.65169300  1
  O  O15  1  0.86143600  0.45877800  0.84830700  1
  O  O16  1  0.46395300  0.22019300  0.36225200  1
  O  O17  1  0.96395300  0.77980700  0.13774800  1
  O  O18  1  0.53604700  0.77980700  0.63774800  1
  O  O19  1  0.03604700  0.22019300  0.86225200  1
  O  O20  1  0.38515800  0.89724400  0.43059400  1
  O  O21  1  0.88515800  0.10275600  0.06940600  1
  O  O22  1  0.61484200  0.10275600  0.56940600  1
  O  O23  1  0.11484200  0.89724400  0.93059400  1
  O  O24  1  0.23328500  0.02342900  0.52638100  1
  O  O25  1  0.73328500  0.97657100  0.97361900  1
  O  O26  1  0.76671500  0.97657100  0.47361900  1
  O  O27  1  0.26671500  0.02342900  0.02638100  1
  O  O28  1  0.38472200  0.33451700  0.48534100  1
  O  O29  1  0.88472200  0.66548300  0.01465900  1
  O  O30  1  0.61527800  0.66548300  0.51465900  1
  O  O31  1  0.11527800  0.33451700  0.98534100  1
  O  O32  1  0.67266400  0.41411400  0.08007000  1
  O  O33  1  0.17266400  0.58588600  0.41993000  1
  O  O34  1  0.32733600  0.58588600  0.91993000  1
  O  O35  1  0.82733600  0.41411400  0.58007000  1
  O  O36  1  0.43588300  0.12625200  0.12138700  1
  O  O37  1  0.93588300  0.87374800  0.37861300  1
  O  O38  1  0.56411700  0.87374800  0.87861300  1
  O  O39  1  0.06411700  0.12625200  0.62138700  1
loop_
_geom_bond_atom_site_label_1
_geom_bond_atom_site_label_2
_geom_bond_distance
_geom_bond_site_symmetry_2
Eu0 O37 2.401780 1_455
Eu0 O36 2.409196 1_565
Eu0 O1 2.445838 1_565
Eu0 O33 2.461163 1_555
Eu0 O27 2.501176 1_565
Eu0 O8 2.730032 1_555
Eu0 O20 2.743462 1_555
Eu0 O31 2.746628 1_564
Eu0 O21 2.846322 1_465
Eu0 O17 3.107863 1_455
Eu1 O36 2.401780 1_555
Eu1 O37 2.409196 1_545
Eu1 O0 2.445838 1_545
Eu1 O32 2.461163 1_555
Eu1 O26 2.501176 1_545
Eu1 O9 2.730032 1_555
Eu1 O21 2.743462 1_555
Eu1 O30 2.746628 1_545
Eu1 O20 2.846322 1_545
Eu1 O16 3.107863 1_555
Eu2 O39 2.401780 1_655
Eu2 O38 2.409196 1_545
Eu2 O3 2.445838 1_545
Eu2 O35 2.461163 1_555
Eu2 O25 2.501176 1_545
Eu2 O10 2.730032 1_555
Eu2 O22 2.743462 1_555
Eu2 O29 2.746628 1_546
Eu2 O23 2.846322 1_645
Eu2 O19 3.107863 1_655
Eu3 O38 2.401780 1_555
Eu3 O39 2.409196 1_565
Eu3 O2 2.445838 1_565
Eu3 O34 2.461163 1_555
Eu3 O24 2.501176 1_565
Eu3 O11 2.730032 1_555
Eu3 O23 2.743462 1_555
Eu3 O28 2.746628 1_565
Eu3 O22 2.846322 1_565
Eu3 O18 3.107863 1_555
Cd0 O34 2.240509 1_554
Cd0 O4 2.242951 1_555
Cd0 O13 2.285192 1_555
Cd0 O16 2.339866 1_555
Cd0 O32 2.373017 1_555
Cd0 O1 2.491242 1_555
Cd1 O35 2.240509 1_555
Cd1 O5 2.242951 1_655
Cd1 O12 2.285192 1_555
Cd1 O17 2.339866 1_555
Cd1 O33 2.373017 1_655
Cd1 O0 2.491242 1_555
Cd2 O32 2.240509 1_556
Cd2 O6 2.242951 1_555
Cd2 O15 2.285192 1_555
Cd2 O18 2.339866 1_555
Cd2 O34 2.373017 1_555
Cd2 O3 2.491242 1_555
Cd3 O33 2.240509 1_555
Cd3 O7 2.242951 1_455
Cd3 O14 2.285192 1_555
Cd3 O19 2.339866 1_555
Cd3 O35 2.373017 1_455
Cd3 O2 2.491242 1_555
B0 O8 1.466073 1_555
B0 O12 1.474610 1_555
B0 O4 1.493046 1_555
B0 O0 1.500652 1_555
B1 O9 1.466073 1_455
B1 O13 1.474610 1_555
B1 O5 1.493046 1_555
B1 O1 1.500652 1_555
B2 O10 1.466073 1_555
B2 O14 1.474610 1_555
B2 O6 1.493046 1_555
B2 O2 1.500652 1_555
B3 O11 1.466073 1_655
B3 O15 1.474610 1_555
B3 O7 1.493046 1_555
B3 O3 1.500652 1_555
B4 O24 1.467723 1_555
B4 O20 1.482144 1_545
B4 O16 1.493174 1_555
B4 O1 1.511891 1_555
B5 O25 1.467723 1_554
B5 O21 1.482144 1_565
B5 O17 1.493174 1_555
B5 O0 1.511891 1_555
B6 O26 1.467723 1_555
B6 O22 1.482144 1_565
B6 O18 1.493174 1_555
B6 O3 1.511891 1_555
B7 O27 1.467723 1_556
B7 O23 1.482144 1_545
B7 O19 1.493174 1_555
B7 O2 1.511891 1_555
B8 O12 1.466077 1_555
B8 O22 1.497368 1_555
B8 O16 1.504902 1_555
B8 O28 1.512600 1_555
B9 O13 1.466077 1_555
B9 O23 1.497368 1_554
B9 O17 1.504902 1_455
B9 O29 1.512600 1_455
B10 O14 1.466077 1_555
B10 O20 1.497368 1_555
B10 O18 1.504902 1_555
B10 O30 1.512600 1_555
B11 O15 1.466077 1_555
B11 O21 1.497368 1_556
B11 O19 1.504902 1_655
B11 O31 1.512600 1_655
B12 O38 1.364748 1_555
B12 O4 1.375746 1_556
B12 O25 1.391441 1_555
B13 O39 1.364748 1_555
B13 O5 1.375746 1_555
B13 O24 1.391441 1_555
B14 O36 1.364748 1_555
B14 O6 1.375746 1_554
B14 O27 1.391441 1_555
B15 O37 1.364748 1_555
B15 O7 1.375746 1_555
B15 O26 1.391441 1_555
B16 O8 1.378986 1_555
B16 O28 1.379275 1_555
B16 O33 1.385660 1_555
B17 O9 1.378986 1_555
B17 O29 1.379275 1_555
B17 O32 1.385660 1_555
B18 O10 1.378986 1_555
B18 O30 1.379275 1_555
B18 O35 1.385660 1_555
B19 O11 1.378986 1_555
B19 O31 1.379275 1_555
B19 O34 1.385660 1_555
