# generated using pymatgen
data_K2Zn(SiO3)2
_symmetry_space_group_name_H-M   'P 1'
_cell_length_a   5.80523165
_cell_length_b   5.80523165
_cell_length_c   10.56793500
_cell_angle_alpha   90.00000000
_cell_angle_beta   90.00000000
_cell_angle_gamma   113.19364469
_symmetry_Int_Tables_number   1
_chemical_formula_structural   K2Zn(SiO3)2
_chemical_formula_sum   'K4 Zn2 Si4 O12'
_cell_volume   327.36281789
_cell_formula_units_Z   2
loop_
 _symmetry_equiv_pos_site_id
 _symmetry_equiv_pos_as_xyz
  1  'x, y, z'
loop_
 _atom_site_type_symbol
 _atom_site_label
 _atom_site_symmetry_multiplicity
 _atom_site_fract_x
 _atom_site_fract_y
 _atom_site_fract_z
 _atom_site_occupancy
  K  K0  1  0.28098000  0.93471200  0.57541200  1
  K  K1  1  0.06528800  0.71902000  0.92458800  1
  K  K2  1  0.71902000  0.06528800  0.07541200  1
  K  K3  1  0.93471200  0.28098000  0.42458800  1
  Zn  Zn0  1  0.19366300  0.80633700  0.25000000  1
  Zn  Zn1  1  0.80633700  0.19366300  0.75000000  1
  Si  Si0  1  0.36527400  0.33073100  0.86311200  1
  Si  Si1  1  0.33073100  0.36527400  0.13688800  1
  Si  Si2  1  0.66926900  0.63472600  0.63688800  1
  Si  Si3  1  0.63472600  0.66926900  0.36311200  1
  O  O0  1  0.54740100  0.45259900  0.25000000  1
  O  O1  1  0.52019800  0.87879400  0.33652700  1
  O  O2  1  0.51568200  0.51568200  0.50000000  1
  O  O3  1  0.87879400  0.52019800  0.66347300  1
  O  O4  1  0.47980200  0.12120600  0.83652700  1
  O  O5  1  0.06195700  0.21855500  0.87584800  1
  O  O6  1  0.93804300  0.78144600  0.37584800  1
  O  O7  1  0.45259900  0.54740100  0.75000000  1
  O  O8  1  0.12120600  0.47980200  0.16347300  1
  O  O9  1  0.21855400  0.06195700  0.12415200  1
  O  O10  1  0.78144500  0.93804300  0.62415200  1
  O  O11  1  0.48431800  0.48431800  0.00000000  1
loop_
_geom_bond_atom_site_label_1
_geom_bond_atom_site_label_2
_geom_bond_distance
_geom_bond_site_symmetry_2
K0 O3 2.771708 1_455
K0 O6 2.794208 1_455
K0 O10 2.943176 1_555
K0 O10 2.952858 1_455
K0 O1 2.960102 1_555
K0 O4 3.022345 1_565
K0 O2 3.201065 1_565
K1 O4 2.771708 1_565
K1 O9 2.794208 1_566
K1 O5 2.943176 1_555
K1 O5 2.952858 1_565
K1 O8 2.960102 1_556
K1 O3 3.022345 1_455
K1 O11 3.201065 1_456
K2 O8 2.771708 1_655
K2 O5 2.794208 1_654
K2 O9 2.943182 1_555
K2 O9 2.952852 1_655
K2 O4 2.960102 1_554
K2 O1 3.022345 1_545
K2 O11 3.201065 1_545
K3 O1 2.771708 1_545
K3 O10 2.794208 1_545
K3 O6 2.943182 1_555
K3 O6 2.952852 1_545
K3 O3 2.960102 1_555
K3 O8 3.022345 1_655
K3 O2 3.201065 1_655
O0 Si3 1.663048 1_555
O0 Si1 1.663048 1_555
O1 Si3 1.624024 1_555
O1 Zn0 1.994584 1_555
O2 Si3 1.697035 1_555
O2 Si2 1.697035 1_555
O3 Si2 1.624024 1_555
O3 Zn1 1.994584 1_555
O4 Si0 1.624024 1_555
O4 Zn1 1.994584 1_555
O5 Si0 1.624651 1_555
O5 Zn1 1.955201 1_455
O6 Si3 1.624650 1_555
O6 Zn0 1.955202 1_655
O7 Si2 1.663048 1_555
O7 Si0 1.663048 1_555
O8 Si1 1.624024 1_555
O8 Zn0 1.994584 1_555
O9 Si1 1.624650 1_555
O9 Zn0 1.955202 1_545
O10 Si2 1.624651 1_555
O10 Zn1 1.955201 1_565
O11 Si1 1.697035 1_555
O11 Si0 1.697035 1_554
