# generated using pymatgen
data_Rb2SbAuS4
_symmetry_space_group_name_H-M   'P 1'
_cell_length_a   7.03085100
_cell_length_b   7.40093500
_cell_length_c   20.51561200
_cell_angle_alpha   90.00000000
_cell_angle_beta   90.00000000
_cell_angle_gamma   90.00000000
_symmetry_Int_Tables_number   1
_chemical_formula_structural   Rb2SbAuS4
_chemical_formula_sum   'Rb8 Sb4 Au4 S16'
_cell_volume   1067.52722895
_cell_formula_units_Z   4
loop_
 _symmetry_equiv_pos_site_id
 _symmetry_equiv_pos_as_xyz
  1  'x, y, z'
loop_
 _atom_site_type_symbol
 _atom_site_label
 _atom_site_symmetry_multiplicity
 _atom_site_fract_x
 _atom_site_fract_y
 _atom_site_fract_z
 _atom_site_occupancy
  Rb  Rb0  1  0.29592800  0.75000000  0.98785400  1
  Rb  Rb1  1  0.90030000  0.25000000  0.32910800  1
  Rb  Rb2  1  0.70407200  0.25000000  0.01214600  1
  Rb  Rb3  1  0.29592800  0.25000000  0.51214600  1
  Rb  Rb4  1  0.09970000  0.75000000  0.67089200  1
  Rb  Rb5  1  0.09970000  0.25000000  0.82910800  1
  Rb  Rb6  1  0.70407200  0.75000000  0.48785400  1
  Rb  Rb7  1  0.90030000  0.75000000  0.17089200  1
  Sb  Sb0  1  0.79210100  0.75000000  0.88904900  1
  Sb  Sb1  1  0.79210100  0.25000000  0.61095100  1
  Sb  Sb2  1  0.20789900  0.25000000  0.11095100  1
  Sb  Sb3  1  0.20789900  0.75000000  0.38904900  1
  Au  Au0  1  0.60971400  0.00000000  0.75000000  1
  Au  Au1  1  0.39028600  0.00000000  0.25000000  1
  Au  Au2  1  0.60971400  0.50000000  0.75000000  1
  Au  Au3  1  0.39028600  0.50000000  0.25000000  1
  S  S0  1  0.61117800  0.51676900  0.63750600  1
  S  S1  1  0.79805100  0.25000000  0.49694100  1
  S  S2  1  0.38882200  0.01676900  0.36249400  1
  S  S3  1  0.08980700  0.25000000  0.66094700  1
  S  S4  1  0.61117800  0.98323100  0.63750600  1
  S  S5  1  0.61117800  0.48323100  0.86249400  1
  S  S6  1  0.20194900  0.25000000  0.99694100  1
  S  S7  1  0.91019300  0.25000000  0.16094700  1
  S  S8  1  0.20194900  0.75000000  0.50305900  1
  S  S9  1  0.38882200  0.48323100  0.36249400  1
  S  S10  1  0.61117800  0.01676900  0.86249400  1
  S  S11  1  0.38882200  0.51676900  0.13750600  1
  S  S12  1  0.91019300  0.75000000  0.33905300  1
  S  S13  1  0.79805100  0.75000000  0.00305900  1
  S  S14  1  0.08980700  0.75000000  0.83905300  1
  S  S15  1  0.38882200  0.98323100  0.13750600  1
loop_
_geom_bond_atom_site_label_1
_geom_bond_atom_site_label_2
_geom_bond_distance
_geom_bond_site_symmetry_2
Rb0 S14 3.379266 1_555
Rb0 S13 3.514370 1_456
Rb0 S13 3.544107 1_556
Rb0 S11 3.582210 1_556
Rb0 S15 3.582210 1_556
Rb0 S6 3.763616 1_555
Rb0 S6 3.763616 1_565
Rb1 S7 3.450627 1_555
Rb1 S1 3.517445 1_555
Rb1 S12 3.706740 1_545
Rb1 S12 3.706740 1_555
Rb2 S7 3.379266 1_555
Rb2 S6 3.514370 1_654
Rb2 S6 3.544107 1_554
Rb2 S10 3.582210 1_554
Rb2 S5 3.582210 1_554
Rb2 S13 3.763616 1_555
Rb2 S13 3.763616 1_545
Rb3 S3 3.379266 1_555
Rb3 S1 3.514370 1_455
Rb3 S1 3.544107 1_555
Rb3 S2 3.582210 1_555
Rb3 S9 3.582210 1_555
Rb3 S8 3.763616 1_545
Rb3 S8 3.763616 1_555
Rb4 S14 3.450627 1_555
Rb4 S8 3.517445 1_555
Rb4 S3 3.706740 1_555
Rb4 S3 3.706740 1_565
Rb5 S3 3.450627 1_555
Rb5 S6 3.517445 1_555
Rb5 S14 3.706740 1_555
Rb5 S14 3.706740 1_545
Rb6 S12 3.379266 1_555
Rb6 S8 3.514370 1_655
Rb6 S8 3.544107 1_555
Rb6 S4 3.582210 1_555
Rb6 S0 3.582210 1_555
Rb6 S1 3.763616 1_555
Rb6 S1 3.763616 1_565
Rb7 S12 3.450627 1_555
Rb7 S13 3.517445 1_555
Rb7 S7 3.706740 1_555
Rb7 S7 3.706740 1_565
Au0 S4 2.311241 1_545
Au0 S10 2.311241 1_555
Au1 S2 2.311241 1_555
Au1 S15 2.311241 1_545
Au2 S0 2.311241 1_555
Au2 S5 2.311241 1_555
Au3 S9 2.311241 1_555
Au3 S11 2.311241 1_555
S0 Sb1 2.410998 1_555
S1 Sb1 2.339359 1_555
S2 Sb3 2.410998 1_545
S3 Sb1 2.330930 1_455
S4 Sb1 2.410998 1_565
S5 Sb0 2.410998 1_555
S6 Sb2 2.339359 1_556
S7 Sb2 2.330930 1_655
S8 Sb3 2.339359 1_555
S9 Sb3 2.410998 1_555
S10 Sb0 2.410998 1_545
S11 Sb2 2.410998 1_555
S12 Sb3 2.330930 1_655
S13 Sb0 2.339359 1_554
S14 Sb0 2.330930 1_455
S15 Sb2 2.410998 1_565
