# generated using pymatgen
data_Co3Ag2(P2O7)2
_symmetry_space_group_name_H-M   'P 1'
_cell_length_a   5.40577600
_cell_length_b   6.43835145
_cell_length_c   16.77437159
_cell_angle_alpha   93.91942587
_cell_angle_beta   98.89961103
_cell_angle_gamma   106.98578330
_symmetry_Int_Tables_number   1
_chemical_formula_structural   Co3Ag2(P2O7)2
_chemical_formula_sum   'Co6 Ag4 P8 O28'
_cell_volume   547.63241549
_cell_formula_units_Z   2
loop_
 _symmetry_equiv_pos_site_id
 _symmetry_equiv_pos_as_xyz
  1  'x, y, z'
loop_
 _atom_site_type_symbol
 _atom_site_label
 _atom_site_symmetry_multiplicity
 _atom_site_fract_x
 _atom_site_fract_y
 _atom_site_fract_z
 _atom_site_occupancy
  Co  Co0  1  0.41693500  0.95874100  0.65363000  1
  Co  Co1  1  0.58306500  0.04125900  0.34637000  1
  Co  Co2  1  0.78560600  0.71818800  0.59188800  1
  Co  Co3  1  0.21439400  0.28181200  0.40811200  1
  Co  Co4  1  0.83239000  0.36146800  0.79916100  1
  Co  Co5  1  0.16761000  0.63853200  0.20083900  1
  Ag  Ag0  1  0.09142500  0.73365900  0.97952000  1
  Ag  Ag1  1  0.90857500  0.26634100  0.02048000  1
  Ag  Ag2  1  0.47958500  0.74302300  0.87125500  1
  Ag  Ag3  1  0.52041500  0.25697700  0.12874500  1
  P  P0  1  0.33671700  0.24276100  0.91029700  1
  P  P1  1  0.66328300  0.75723900  0.08970300  1
  P  P2  1  0.96188300  0.89954100  0.77837100  1
  P  P3  1  0.03811700  0.10045900  0.22162900  1
  P  P4  1  0.84335300  0.22068000  0.54267400  1
  P  P5  1  0.15664700  0.77932000  0.45732600  1
  P  P6  1  0.30982000  0.42391100  0.67417000  1
  P  P7  1  0.69018000  0.57608900  0.32583000  1
  O  O0  1  0.17072100  0.39913500  0.89344800  1
  O  O1  1  0.82927900  0.60086500  0.10655200  1
  O  O2  1  0.29115300  0.13771500  0.98833400  1
  O  O3  1  0.70884700  0.86228500  0.01166600  1
  O  O4  1  0.62713000  0.34016600  0.90387700  1
  O  O5  1  0.37287000  0.65983400  0.09612300  1
  O  O6  1  0.23508900  0.04344600  0.83595100  1
  O  O7  1  0.76491100  0.95655400  0.16404900  1
  O  O8  1  0.86441200  0.69336800  0.82031400  1
  O  O9  1  0.13558800  0.30663200  0.17968600  1
  O  O10  1  0.76149300  0.02849900  0.77395400  1
  O  O11  1  0.23850700  0.97150100  0.22604600  1
  O  O12  1  0.05205000  0.86056500  0.69793100  1
  O  O13  1  0.94795000  0.13943500  0.30206900  1
  O  O14  1  0.72586500  0.40478100  0.55326800  1
  O  O15  1  0.27413500  0.59521900  0.44673200  1
  O  O16  1  0.70187700  0.01533600  0.57989500  1
  O  O17  1  0.29812300  0.98466400  0.42010500  1
  O  O18  1  0.86658400  0.16063000  0.45400300  1
  O  O19  1  0.13341600  0.83937000  0.54599700  1
  O  O20  1  0.14942800  0.29688900  0.58634300  1
  O  O21  1  0.85057200  0.70311100  0.41365700  1
  O  O22  1  0.12070100  0.44336300  0.72910100  1
  O  O23  1  0.87929900  0.55663700  0.27089900  1
  O  O24  1  0.48878100  0.28398800  0.70227900  1
  O  O25  1  0.51121900  0.71601200  0.29772100  1
  O  O26  1  0.47600800  0.65069200  0.65626900  1
  O  O27  1  0.52399200  0.34930800  0.34373100  1
loop_
_geom_bond_atom_site_label_1
_geom_bond_atom_site_label_2
_geom_bond_distance
_geom_bond_site_symmetry_2
Co0 O16 2.087671 1_565
Co0 O24 2.096424 1_565
Co0 O26 2.101237 1_555
Co0 O19 2.113129 1_555
Co0 O12 2.152151 1_555
Co0 O10 2.443134 1_565
Co1 O17 2.087671 1_545
Co1 O25 2.096424 1_545
Co1 O27 2.101237 1_555
Co1 O18 2.113129 1_555
Co1 O13 2.152151 1_555
Co1 O11 2.443134 1_545
Co2 O14 1.992841 1_555
Co2 O12 2.071701 1_655
Co2 O26 2.086765 1_555
Co2 O19 2.099819 1_655
Co2 O16 2.106141 1_565
Co3 O15 1.992841 1_555
Co3 O13 2.071701 1_455
Co3 O27 2.086765 1_555
Co3 O18 2.099819 1_455
Co3 O17 2.106141 1_545
Co4 O22 2.063853 1_655
Co4 O10 2.065751 1_555
Co4 O8 2.093652 1_555
Co4 O0 2.167653 1_655
Co4 O24 2.180349 1_555
Co4 O4 2.209642 1_555
Co5 O23 2.063853 1_455
Co5 O11 2.065751 1_555
Co5 O9 2.093652 1_555
Co5 O1 2.167653 1_455
Co5 O25 2.180349 1_555
Co5 O5 2.209642 1_555
Ag0 O5 2.448518 1_556
Ag0 O2 2.492410 1_565
Ag0 O3 2.557035 1_456
Ag0 O0 2.685683 1_555
Ag0 O8 2.722232 1_455
Ag0 O1 2.784833 1_456
Ag1 O4 2.448518 1_554
Ag1 O3 2.492410 1_545
Ag1 O2 2.557035 1_654
Ag1 O1 2.685683 1_555
Ag1 O9 2.722232 1_655
Ag1 O0 2.784833 1_654
Ag2 O3 2.442665 1_556
Ag2 O0 2.444084 1_555
Ag2 O8 2.461954 1_555
Ag2 O6 2.692003 1_565
Ag3 O2 2.442665 1_554
Ag3 O1 2.444084 1_555
Ag3 O9 2.461954 1_555
Ag3 O7 2.692003 1_545
O0 P0 1.544991 1_555
O1 P1 1.544991 1_555
O2 P0 1.534626 1_555
O3 P1 1.534626 1_555
O4 P0 1.534864 1_555
O5 P1 1.534864 1_555
O6 P2 1.615345 1_445
O6 P0 1.631311 1_555
O7 P3 1.615345 1_665
O7 P1 1.631311 1_555
O8 P2 1.538958 1_555
O9 P3 1.538958 1_555
O10 P2 1.541876 1_545
O11 P3 1.541876 1_565
O12 P2 1.532943 1_455
O13 P3 1.532943 1_655
O14 P4 1.511909 1_555
O15 P5 1.511909 1_555
O16 P4 1.546751 1_555
O17 P5 1.546751 1_555
O18 P4 1.544395 1_555
O19 P5 1.544395 1_555
O20 P4 1.617553 1_455
O20 P6 1.617652 1_555
O21 P5 1.617553 1_655
O21 P7 1.617652 1_555
O22 P6 1.503459 1_555
O23 P7 1.503459 1_555
O24 P6 1.547883 1_555
O25 P7 1.547883 1_555
O26 P6 1.551172 1_555
O27 P7 1.551172 1_555
