# generated using pymatgen
data_TlIn5Se7
_symmetry_space_group_name_H-M   'P 1'
_cell_length_a   4.14039600
_cell_length_b   9.63180100
_cell_length_c   18.17619212
_cell_angle_alpha   79.01575059
_cell_angle_beta   90.00000000
_cell_angle_gamma   90.00000000
_symmetry_Int_Tables_number   1
_chemical_formula_structural   TlIn5Se7
_chemical_formula_sum   'Tl2 In10 Se14'
_cell_volume   711.57724541
_cell_formula_units_Z   2
loop_
 _symmetry_equiv_pos_site_id
 _symmetry_equiv_pos_as_xyz
  1  'x, y, z'
loop_
 _atom_site_type_symbol
 _atom_site_label
 _atom_site_symmetry_multiplicity
 _atom_site_fract_x
 _atom_site_fract_y
 _atom_site_fract_z
 _atom_site_occupancy
  Tl  Tl0  1  0.75000000  0.02268400  0.27206300  1
  Tl  Tl1  1  0.25000000  0.97731600  0.72793700  1
  In  In0  1  0.25000000  0.82897400  0.53411300  1
  In  In1  1  0.25000000  0.32088100  0.81338800  1
  In  In2  1  0.75000000  0.17102600  0.46588700  1
  In  In3  1  0.75000000  0.67911900  0.18661200  1
  In  In4  1  0.75000000  0.43222700  0.12250600  1
  In  In5  1  0.25000000  0.14760400  0.04663400  1
  In  In6  1  0.25000000  0.51574800  0.39773400  1
  In  In7  1  0.25000000  0.56777300  0.87749400  1
  In  In8  1  0.75000000  0.48425200  0.60226600  1
  In  In9  1  0.75000000  0.85239600  0.95336600  1
  Se  Se0  1  0.75000000  0.26371200  0.72768100  1
  Se  Se1  1  0.25000000  0.62061700  0.65639300  1
  Se  Se2  1  0.75000000  0.66936900  0.46718000  1
  Se  Se3  1  0.25000000  0.66447800  0.00639100  1
  Se  Se4  1  0.25000000  0.33063100  0.53282000  1
  Se  Se5  1  0.75000000  0.94330000  0.09112200  1
  Se  Se6  1  0.75000000  0.33552200  0.99360900  1
  Se  Se7  1  0.25000000  0.25720300  0.17706700  1
  Se  Se8  1  0.25000000  0.73628800  0.27231900  1
  Se  Se9  1  0.75000000  0.37938300  0.34360700  1
  Se  Se10  1  0.25000000  0.02971200  0.40913600  1
  Se  Se11  1  0.25000000  0.05670000  0.90887800  1
  Se  Se12  1  0.75000000  0.97028800  0.59086400  1
  Se  Se13  1  0.75000000  0.74279700  0.82293300  1
loop_
_geom_bond_atom_site_label_1
_geom_bond_atom_site_label_2
_geom_bond_distance
_geom_bond_site_symmetry_2
In0 Se10 2.687893 1_565
In0 Se1 2.695845 1_555
In0 Se12 2.781618 1_455
In0 Se12 2.781618 1_555
In0 Se2 2.973508 1_555
In0 Se2 2.973508 1_455
In1 Se0 2.709730 1_455
In1 Se0 2.709730 1_555
In1 Se11 2.793589 1_555
In2 Se12 2.687893 1_545
In2 Se9 2.695845 1_555
In2 Se10 2.781618 1_655
In2 Se10 2.781618 1_555
In2 Se4 2.973508 1_655
In2 Se4 2.973508 1_555
In3 Se8 2.709730 1_655
In3 Se8 2.709730 1_555
In3 Se5 2.793589 1_555
In4 Se6 2.681076 1_554
In4 Se7 2.733866 1_655
In4 Se7 2.733866 1_555
In5 Se7 2.772843 1_555
In5 Se6 2.797481 1_554
In5 Se6 2.797481 1_454
In5 Se11 2.805616 1_554
In5 Se5 2.864526 1_545
In5 Se5 2.864526 1_445
In6 Se9 2.733346 1_455
In6 Se9 2.733346 1_555
In6 Se4 2.745822 1_555
In6 Se8 2.804169 1_555
In6 Se2 2.963128 1_455
In6 Se2 2.963128 1_555
In7 Se3 2.681076 1_556
In7 Se13 2.733866 1_555
In7 Se13 2.733866 1_455
In8 Se1 2.733346 1_655
In8 Se1 2.733346 1_555
In8 Se2 2.745822 1_555
In8 Se0 2.804169 1_555
In8 Se4 2.963128 1_555
In8 Se4 2.963128 1_655
In9 Se13 2.772843 1_555
In9 Se3 2.797481 1_656
In9 Se3 2.797481 1_556
In9 Se5 2.805616 1_556
In9 Se11 2.864526 1_565
In9 Se11 2.864526 1_665
Se7 Tl0 3.298962 1_455
Se7 Tl0 3.298962 1_555
Se10 Tl0 3.249919 1_455
Se10 Tl0 3.249919 1_555
Se12 Tl1 3.249919 1_655
Se12 Tl1 3.249919 1_555
Se13 Tl1 3.298962 1_555
Se13 Tl1 3.298962 1_655
