# generated using pymatgen
data_Al2AgCl5O
_symmetry_space_group_name_H-M   'P 1'
_cell_length_a   11.54482700
_cell_length_b   12.58842800
_cell_length_c   13.31928400
_cell_angle_alpha   90.00000000
_cell_angle_beta   90.00000000
_cell_angle_gamma   90.00000000
_symmetry_Int_Tables_number   1
_chemical_formula_structural   Al2AgCl5O
_chemical_formula_sum   'Al16 Ag8 Cl40 O8'
_cell_volume   1935.70783936
_cell_formula_units_Z   8
loop_
 _symmetry_equiv_pos_site_id
 _symmetry_equiv_pos_as_xyz
  1  'x, y, z'
loop_
 _atom_site_type_symbol
 _atom_site_label
 _atom_site_symmetry_multiplicity
 _atom_site_fract_x
 _atom_site_fract_y
 _atom_site_fract_z
 _atom_site_occupancy
  Al  Al0  1  0.79427000  0.54097300  0.86453400  1
  Al  Al1  1  0.51467800  0.89519800  0.99754900  1
  Al  Al2  1  0.01467800  0.60480200  0.00245100  1
  Al  Al3  1  0.70573000  0.04097300  0.86453400  1
  Al  Al4  1  0.98532200  0.39519800  0.99754900  1
  Al  Al5  1  0.20573000  0.45902700  0.13546600  1
  Al  Al6  1  0.51467800  0.60480200  0.49754900  1
  Al  Al7  1  0.98532200  0.10480200  0.49754900  1
  Al  Al8  1  0.48532200  0.39519800  0.50245100  1
  Al  Al9  1  0.29427000  0.54097300  0.63546600  1
  Al  Al10  1  0.20573000  0.04097300  0.63546600  1
  Al  Al11  1  0.70573000  0.45902700  0.36453400  1
  Al  Al12  1  0.01467800  0.89519800  0.50245100  1
  Al  Al13  1  0.29427000  0.95902700  0.13546600  1
  Al  Al14  1  0.48532200  0.10480200  0.00245100  1
  Al  Al15  1  0.79427000  0.95902700  0.36453400  1
  Ag  Ag0  1  0.01793200  0.34876000  0.69170000  1
  Ag  Ag1  1  0.98206800  0.65124000  0.30830000  1
  Ag  Ag2  1  0.51793200  0.34876000  0.80830000  1
  Ag  Ag3  1  0.51793200  0.15124000  0.30830000  1
  Ag  Ag4  1  0.48206800  0.65124000  0.19170000  1
  Ag  Ag5  1  0.98206800  0.84876000  0.80830000  1
  Ag  Ag6  1  0.01793200  0.15124000  0.19170000  1
  Ag  Ag7  1  0.48206800  0.84876000  0.69170000  1
  Cl  Cl0  1  0.21235300  0.28848500  0.14318100  1
  Cl  Cl1  1  0.63250800  0.01666100  0.42574900  1
  Cl  Cl2  1  0.61385000  0.68996200  0.60651000  1
  Cl  Cl3  1  0.28764700  0.71151500  0.64318100  1
  Cl  Cl4  1  0.11385000  0.68996200  0.89349000  1
  Cl  Cl5  1  0.13250800  0.01666100  0.07425100  1
  Cl  Cl6  1  0.88615000  0.18996200  0.60651000  1
  Cl  Cl7  1  0.71235300  0.28848500  0.35681900  1
  Cl  Cl8  1  0.71235300  0.21151500  0.85681900  1
  Cl  Cl9  1  0.78764700  0.78848500  0.35681900  1
  Cl  Cl10  1  0.67539900  0.97047200  0.71936500  1
  Cl  Cl11  1  0.28764700  0.78848500  0.14318100  1
  Cl  Cl12  1  0.11385000  0.81003800  0.39349000  1
  Cl  Cl13  1  0.44581200  0.79319100  0.88392300  1
  Cl  Cl14  1  0.88615000  0.31003800  0.10651000  1
  Cl  Cl15  1  0.36749200  0.98333900  0.57425100  1
  Cl  Cl16  1  0.36749200  0.51666100  0.07425100  1
  Cl  Cl17  1  0.82460100  0.47047200  0.71936500  1
  Cl  Cl18  1  0.78764700  0.71151500  0.85681900  1
  Cl  Cl19  1  0.05418800  0.29319100  0.88392300  1
  Cl  Cl20  1  0.55418800  0.20680900  0.11607700  1
  Cl  Cl21  1  0.94581200  0.79319100  0.61607700  1
  Cl  Cl22  1  0.21235300  0.21151500  0.64318100  1
  Cl  Cl23  1  0.61385000  0.81003800  0.10651000  1
  Cl  Cl24  1  0.44581200  0.70680900  0.38392300  1
  Cl  Cl25  1  0.94581200  0.70680900  0.11607700  1
  Cl  Cl26  1  0.13250800  0.48333900  0.57425100  1
  Cl  Cl27  1  0.32460100  0.47047200  0.78063500  1
  Cl  Cl28  1  0.17539900  0.52952800  0.28063500  1
  Cl  Cl29  1  0.38615000  0.31003800  0.39349000  1
  Cl  Cl30  1  0.55418800  0.29319100  0.61607700  1
  Cl  Cl31  1  0.38615000  0.18996200  0.89349000  1
  Cl  Cl32  1  0.86749200  0.98333900  0.92574900  1
  Cl  Cl33  1  0.32460100  0.02952800  0.28063500  1
  Cl  Cl34  1  0.05418800  0.20680900  0.38392300  1
  Cl  Cl35  1  0.17539900  0.97047200  0.78063500  1
  Cl  Cl36  1  0.63250800  0.48333900  0.92574900  1
  Cl  Cl37  1  0.82460100  0.02952800  0.21936500  1
  Cl  Cl38  1  0.86749200  0.51666100  0.42574900  1
  Cl  Cl39  1  0.67539900  0.52952800  0.21936500  1
  O  O0  1  0.41200000  0.98864300  0.05266800  1
  O  O1  1  0.91200000  0.98864300  0.44733200  1
  O  O2  1  0.91200000  0.51135700  0.94733200  1
  O  O3  1  0.08800000  0.48864300  0.05266800  1
  O  O4  1  0.58800000  0.01135700  0.94733200  1
  O  O5  1  0.41200000  0.51135700  0.55266800  1
  O  O6  1  0.08800000  0.01135700  0.55266800  1
  O  O7  1  0.58800000  0.48864300  0.44733200  1
loop_
_geom_bond_atom_site_label_1
_geom_bond_atom_site_label_2
_geom_bond_distance
_geom_bond_site_symmetry_2
Al0 O2 1.789562 1_555
Al0 Cl18 2.150673 1_555
Al0 Cl17 2.156124 1_555
Al0 Cl36 2.163047 1_555
Al1 O4 1.817172 1_565
Al1 O0 1.824249 1_556
Al1 Cl23 2.136895 1_556
Al1 Cl13 2.138098 1_555
Al2 O3 1.817172 1_555
Al2 O2 1.824249 1_454
Al2 Cl4 2.136895 1_554
Al2 Cl25 2.138098 1_455
Al3 O4 1.789562 1_555
Al3 Cl8 2.150673 1_555
Al3 Cl10 2.156124 1_545
Al3 Cl32 2.163047 1_545
Al4 O2 1.817172 1_555
Al4 O3 1.824249 1_656
Al4 Cl14 2.136895 1_556
Al4 Cl19 2.138098 1_655
Al5 O3 1.789562 1_555
Al5 Cl0 2.150673 1_555
Al5 Cl28 2.156124 1_555
Al5 Cl16 2.163047 1_555
Al6 O7 1.817172 1_555
Al6 O5 1.824249 1_555
Al6 Cl2 2.136895 1_555
Al6 Cl24 2.138098 1_555
Al7 O1 1.817172 1_545
Al7 O6 1.824249 1_655
Al7 Cl6 2.136895 1_555
Al7 Cl34 2.138098 1_655
Al8 O5 1.817172 1_555
Al8 O7 1.824249 1_555
Al8 Cl29 2.136895 1_555
Al8 Cl30 2.138098 1_555
Al9 O5 1.789562 1_555
Al9 Cl3 2.150673 1_555
Al9 Cl27 2.156124 1_555
Al9 Cl26 2.163047 1_555
Al10 O6 1.789562 1_555
Al10 Cl22 2.150673 1_555
Al10 Cl35 2.156124 1_545
Al10 Cl15 2.163047 1_545
Al11 O7 1.789562 1_555
Al11 Cl7 2.150673 1_555
Al11 Cl39 2.156124 1_555
Al11 Cl38 2.163047 1_555
Al12 O6 1.817172 1_565
Al12 O1 1.824249 1_455
Al12 Cl12 2.136895 1_555
Al12 Cl21 2.138098 1_455
Al13 O0 1.789562 1_555
Al13 Cl11 2.150673 1_555
Al13 Cl33 2.156124 1_565
Al13 Cl5 2.163047 1_565
Al14 O0 1.817172 1_545
Al14 O4 1.824249 1_554
Al14 Cl31 2.136895 1_554
Al14 Cl20 2.138098 1_555
Al15 O1 1.789562 1_555
Al15 Cl9 2.150673 1_555
Al15 Cl37 2.156124 1_565
Al15 Cl1 2.163047 1_565
Ag0 Cl26 2.658373 1_555
Ag0 Cl19 2.686919 1_555
Ag0 Cl17 2.732216 1_455
Ag0 Cl6 2.756484 1_455
Ag0 Cl22 2.905271 1_555
Ag1 Cl38 2.658373 1_555
Ag1 Cl25 2.686919 1_555
Ag1 Cl28 2.732216 1_655
Ag1 Cl12 2.756484 1_655
Ag1 Cl9 2.905271 1_555
Ag2 Cl36 2.658373 1_555
Ag2 Cl30 2.686919 1_555
Ag2 Cl27 2.732216 1_555
Ag2 Cl31 2.756484 1_555
Ag2 Cl8 2.905271 1_555
Ag3 Cl1 2.658373 1_555
Ag3 Cl20 2.686919 1_555
Ag3 Cl33 2.732216 1_555
Ag3 Cl29 2.756484 1_555
Ag3 Cl7 2.905271 1_555
Ag4 Cl16 2.658373 1_555
Ag4 Cl24 2.686919 1_555
Ag4 Cl39 2.732216 1_555
Ag4 Cl23 2.756484 1_555
Ag4 Cl11 2.905271 1_555
Ag5 Cl32 2.658373 1_555
Ag5 Cl21 2.686919 1_555
Ag5 Cl35 2.732216 1_655
Ag5 Cl4 2.756484 1_655
Ag5 Cl18 2.905271 1_555
Ag6 Cl5 2.658373 1_555
Ag6 Cl34 2.686919 1_555
Ag6 Cl37 2.732216 1_455
Ag6 Cl14 2.756484 1_455
Ag6 Cl0 2.905271 1_555
Ag7 Cl15 2.658373 1_555
Ag7 Cl13 2.686919 1_555
Ag7 Cl10 2.732216 1_555
Ag7 Cl2 2.756484 1_555
Ag7 Cl3 2.905271 1_555
