# generated using pymatgen
data_Ba3SrNb2O9
_symmetry_space_group_name_H-M   'P 1'
_cell_length_a   6.15082191
_cell_length_b   6.15082191
_cell_length_c   15.71980600
_cell_angle_alpha   90.00000000
_cell_angle_beta   90.00000000
_cell_angle_gamma   119.99999901
_symmetry_Int_Tables_number   1
_chemical_formula_structural   Ba3SrNb2O9
_chemical_formula_sum   'Ba6 Sr2 Nb4 O18'
_cell_volume   515.04375213
_cell_formula_units_Z   2
loop_
 _symmetry_equiv_pos_site_id
 _symmetry_equiv_pos_as_xyz
  1  'x, y, z'
loop_
 _atom_site_type_symbol
 _atom_site_label
 _atom_site_symmetry_multiplicity
 _atom_site_fract_x
 _atom_site_fract_y
 _atom_site_fract_z
 _atom_site_occupancy
  Ba  Ba0  1  0.00000000  0.00000000  0.25000000  1
  Ba  Ba1  1  0.00000000  0.00000000  0.75000000  1
  Ba  Ba2  1  0.33333300  0.66666700  0.12297800  1
  Ba  Ba3  1  0.66666700  0.33333300  0.62297800  1
  Ba  Ba4  1  0.66666700  0.33333300  0.87702200  1
  Ba  Ba5  1  0.33333300  0.66666700  0.37702200  1
  Sr  Sr0  1  0.00000000  0.00000000  0.00000000  1
  Sr  Sr1  1  0.00000000  0.00000000  0.50000000  1
  Nb  Nb0  1  0.33333300  0.66666700  0.84603100  1
  Nb  Nb1  1  0.66666700  0.33333300  0.34603100  1
  Nb  Nb2  1  0.66666700  0.33333300  0.15396900  1
  Nb  Nb3  1  0.33333300  0.66666700  0.65396900  1
  O  O0  1  0.56701900  0.04091400  0.25000000  1
  O  O1  1  0.52610400  0.56701900  0.75000000  1
  O  O2  1  0.04091400  0.47389600  0.75000000  1
  O  O3  1  0.95908600  0.52610400  0.25000000  1
  O  O4  1  0.47389600  0.43298100  0.25000000  1
  O  O5  1  0.43298100  0.95908600  0.75000000  1
  O  O6  1  0.76096800  0.64660000  0.09887800  1
  O  O7  1  0.11436800  0.76096800  0.59887800  1
  O  O8  1  0.64660000  0.88563200  0.59887800  1
  O  O9  1  0.35340000  0.11436800  0.09887800  1
  O  O10  1  0.88563200  0.23903200  0.09887800  1
  O  O11  1  0.23903200  0.35340000  0.59887800  1
  O  O12  1  0.23903200  0.35340000  0.90112200  1
  O  O13  1  0.88563200  0.23903200  0.40112200  1
  O  O14  1  0.35340000  0.11436800  0.40112200  1
  O  O15  1  0.64660000  0.88563200  0.90112200  1
  O  O16  1  0.11436800  0.76096800  0.90112200  1
  O  O17  1  0.76096800  0.64660000  0.40112200  1
loop_
_geom_bond_atom_site_label_1
_geom_bond_atom_site_label_2
_geom_bond_distance
_geom_bond_site_symmetry_2
Ba0 O0 2.797519 1_455
Ba0 O4 2.797522 1_555
Ba0 O3 2.797525 1_445
Ba0 O13 3.055198 1_455
Ba0 O10 3.055198 1_455
Ba0 O14 3.055198 1_555
Ba0 O9 3.055198 1_555
Ba0 O17 3.055198 1_445
Ba0 O6 3.055198 1_445
Ba1 O5 2.797519 1_545
Ba1 O1 2.797522 1_445
Ba1 O2 2.797525 1_555
Ba1 O16 3.055198 1_545
Ba1 O7 3.055198 1_545
Ba1 O8 3.055198 1_445
Ba1 O15 3.055198 1_445
Ba1 O12 3.055198 1_555
Ba1 O11 3.055198 1_555
Ba2 O9 2.720642 1_565
Ba2 O10 2.720645 1_455
Ba2 O6 2.720649 1_555
Ba2 O3 2.836057 1_455
Ba2 O0 2.836059 1_565
Ba2 O4 2.836066 1_555
Ba3 O8 2.720642 1_545
Ba3 O7 2.720645 1_655
Ba3 O11 2.720649 1_555
Ba3 O2 2.836057 1_655
Ba3 O5 2.836059 1_545
Ba3 O1 2.836066 1_555
Ba4 O15 2.720642 1_545
Ba4 O16 2.720645 1_655
Ba4 O12 2.720649 1_555
Ba4 O2 2.836057 1_655
Ba4 O5 2.836059 1_545
Ba4 O1 2.836066 1_555
Ba5 O14 2.720642 1_565
Ba5 O13 2.720645 1_455
Ba5 O17 2.720649 1_555
Ba5 O3 2.836057 1_455
Ba5 O0 2.836059 1_565
Ba5 O4 2.836066 1_555
Nb0 O16 1.918730 1_555
Nb0 O15 1.918734 1_555
Nb0 O12 1.918735 1_555
Nb0 O1 2.187955 1_555
Nb0 O5 2.187955 1_555
Nb0 O2 2.187955 1_555
Nb1 O13 1.918730 1_555
Nb1 O14 1.918734 1_555
Nb1 O17 1.918735 1_555
Nb1 O4 2.187955 1_555
Nb1 O0 2.187955 1_555
Nb1 O3 2.187955 1_555
Nb2 O10 1.918730 1_555
Nb2 O9 1.918734 1_555
Nb2 O6 1.918735 1_555
Nb2 O4 2.187955 1_555
Nb2 O0 2.187955 1_555
Nb2 O3 2.187955 1_555
Nb3 O7 1.918730 1_555
Nb3 O8 1.918734 1_555
Nb3 O11 1.918735 1_555
Nb3 O1 2.187955 1_555
Nb3 O5 2.187955 1_555
Nb3 O2 2.187955 1_555
O6 Sr0 2.471174 1_665
O7 Sr1 2.471174 1_565
O8 Sr1 2.471174 1_665
O9 Sr0 2.471174 1_555
O10 Sr0 2.471174 1_655
O11 Sr1 2.471174 1_555
O12 Sr0 2.471174 1_556
O13 Sr1 2.471174 1_655
O14 Sr1 2.471174 1_555
O15 Sr0 2.471174 1_666
O16 Sr0 2.471174 1_566
O17 Sr1 2.471174 1_665
