# generated using pymatgen
data_LiMnP2O7
_symmetry_space_group_name_H-M   'P 1'
_cell_length_a   5.18307300
_cell_length_b   8.44698600
_cell_length_c   13.46310058
_cell_angle_alpha   62.18206892
_cell_angle_beta   90.00000000
_cell_angle_gamma   90.00000000
_symmetry_Int_Tables_number   1
_chemical_formula_structural   LiMnP2O7
_chemical_formula_sum   'Li4 Mn4 P8 O28'
_cell_volume   521.31485190
_cell_formula_units_Z   4
loop_
 _symmetry_equiv_pos_site_id
 _symmetry_equiv_pos_as_xyz
  1  'x, y, z'
loop_
 _atom_site_type_symbol
 _atom_site_label
 _atom_site_symmetry_multiplicity
 _atom_site_fract_x
 _atom_site_fract_y
 _atom_site_fract_z
 _atom_site_occupancy
  Li  Li0  1  0.26015900  0.55823500  0.29921800  1
  Li  Li1  1  0.76015900  0.44176500  0.20078200  1
  Li  Li2  1  0.73984100  0.44176500  0.70078200  1
  Li  Li3  1  0.23984100  0.55823500  0.79921800  1
  Mn  Mn0  1  0.26109900  0.73147800  0.52923300  1
  Mn  Mn1  1  0.73890100  0.26852200  0.47076700  1
  Mn  Mn2  1  0.76109900  0.26852200  0.97076700  1
  Mn  Mn3  1  0.23890100  0.73147800  0.02923300  1
  P  P0  1  0.76301500  0.82872300  0.14705200  1
  P  P1  1  0.26301500  0.17127700  0.35294800  1
  P  P2  1  0.71344800  0.68743100  0.88572500  1
  P  P3  1  0.78655200  0.68743100  0.38572500  1
  P  P4  1  0.23698500  0.17127700  0.85294800  1
  P  P5  1  0.21344800  0.31256900  0.61427500  1
  P  P6  1  0.28655200  0.31256900  0.11427500  1
  P  P7  1  0.73698500  0.82872300  0.64705200  1
  O  O0  1  0.77514800  0.84701000  0.76137100  1
  O  O1  1  0.79386300  0.52142000  0.87169000  1
  O  O2  1  0.29386300  0.47858000  0.62831000  1
  O  O3  1  0.42201300  0.68361000  0.90821100  1
  O  O4  1  0.23114000  0.98395000  0.44806400  1
  O  O5  1  0.62208800  0.71790100  0.46655500  1
  O  O6  1  0.05466700  0.29931900  0.35453400  1
  O  O7  1  0.20613700  0.47858000  0.12831000  1
  O  O8  1  0.37791200  0.28209900  0.53344500  1
  O  O9  1  0.27514800  0.15299000  0.73862900  1
  O  O10  1  0.73114000  0.01605000  0.05193600  1
  O  O11  1  0.22485200  0.15299000  0.23862900  1
  O  O12  1  0.96700600  0.25417500  0.84099900  1
  O  O13  1  0.92201300  0.31639000  0.59178900  1
  O  O14  1  0.12208800  0.28209900  0.03344500  1
  O  O15  1  0.70613700  0.52142000  0.37169000  1
  O  O16  1  0.87791200  0.71790100  0.96655500  1
  O  O17  1  0.72485200  0.84701000  0.26137100  1
  O  O18  1  0.44533300  0.29931900  0.85453400  1
  O  O19  1  0.03299400  0.74582500  0.15900100  1
  O  O20  1  0.55466700  0.70068100  0.14546600  1
  O  O21  1  0.53299400  0.25417500  0.34099900  1
  O  O22  1  0.57798700  0.31639000  0.09178900  1
  O  O23  1  0.94533300  0.70068100  0.64546600  1
  O  O24  1  0.46700600  0.74582500  0.65900100  1
  O  O25  1  0.07798700  0.68361000  0.40821100  1
  O  O26  1  0.26886000  0.98395000  0.94806400  1
  O  O27  1  0.76886000  0.01605000  0.55193600  1
loop_
_geom_bond_atom_site_label_1
_geom_bond_atom_site_label_2
_geom_bond_distance
_geom_bond_site_symmetry_2
Li0 O19 2.160773 1_555
Li0 O6 2.225326 1_555
Li0 O25 2.369963 1_555
Li0 O20 2.395422 1_555
Li0 O15 2.471579 1_555
Li1 O21 2.160773 1_555
Li1 O20 2.225326 1_555
Li1 O22 2.369963 1_555
Li1 O6 2.395422 1_655
Li1 O7 2.471579 1_655
Li2 O12 2.160773 1_555
Li2 O23 2.225326 1_555
Li2 O13 2.369963 1_555
Li2 O18 2.395422 1_555
Li2 O2 2.471579 1_555
Li3 O24 2.160773 1_555
Li3 O18 2.225326 1_555
Li3 O3 2.369963 1_555
Li3 O23 2.395422 1_455
Li3 O1 2.471579 1_455
Mn0 O4 1.895065 1_555
Mn0 O2 1.926668 1_555
Mn0 O5 2.077572 1_555
Mn0 O25 2.081790 1_555
Mn0 O24 2.098468 1_555
Mn0 O23 2.194332 1_455
Mn1 O27 1.895065 1_555
Mn1 O15 1.926668 1_555
Mn1 O8 2.077572 1_555
Mn1 O13 2.081790 1_555
Mn1 O21 2.098468 1_555
Mn1 O6 2.194332 1_655
Mn2 O10 1.895065 1_556
Mn2 O1 1.926668 1_555
Mn2 O14 2.077572 1_656
Mn2 O22 2.081790 1_556
Mn2 O12 2.098468 1_555
Mn2 O18 2.194332 1_555
Mn3 O26 1.895065 1_554
Mn3 O7 1.926668 1_555
Mn3 O16 2.077572 1_454
Mn3 O3 2.081790 1_554
Mn3 O19 2.098468 1_555
Mn3 O20 2.194332 1_555
O0 P2 1.617375 1_555
O0 P7 1.629009 1_555
O1 P2 1.556647 1_555
O2 P5 1.556647 1_555
O3 P2 1.537942 1_555
O4 P1 1.509887 1_565
O5 P3 1.496168 1_555
O6 P1 1.535561 1_555
O7 P6 1.556647 1_555
O8 P5 1.496168 1_555
O9 P5 1.617375 1_555
O9 P4 1.629009 1_555
O10 P0 1.509887 1_545
O11 P6 1.617375 1_555
O11 P1 1.629009 1_555
O12 P4 1.539212 1_655
O13 P5 1.537942 1_655
O14 P6 1.496168 1_555
O15 P3 1.556647 1_555
O16 P2 1.496168 1_555
O17 P3 1.617375 1_555
O17 P0 1.629009 1_555
O18 P4 1.535561 1_555
O19 P0 1.539212 1_455
O20 P0 1.535561 1_555
O21 P1 1.539212 1_555
O22 P6 1.537942 1_555
O23 P7 1.535561 1_555
O24 P7 1.539212 1_555
O25 P3 1.537942 1_455
O26 P4 1.509887 1_565
O27 P7 1.509887 1_545
