# generated using pymatgen
data_Na4U(MoO4)4
_symmetry_space_group_name_H-M   'P 1'
_cell_length_a   10.09910587
_cell_length_b   10.09910587
_cell_length_c   10.09910587
_cell_angle_alpha   110.89635622
_cell_angle_beta   110.89635622
_cell_angle_gamma   106.65707325
_symmetry_Int_Tables_number   1
_chemical_formula_structural   Na4U(MoO4)4
_chemical_formula_sum   'Na8 U2 Mo8 O32'
_cell_volume   791.48975387
_cell_formula_units_Z   2
loop_
 _symmetry_equiv_pos_site_id
 _symmetry_equiv_pos_as_xyz
  1  'x, y, z'
loop_
 _atom_site_type_symbol
 _atom_site_label
 _atom_site_symmetry_multiplicity
 _atom_site_fract_x
 _atom_site_fract_y
 _atom_site_fract_z
 _atom_site_occupancy
  Na  Na0  1  0.05740400  0.16466800  0.66114100  1
  Na  Na1  1  0.50352800  0.39626400  0.33885900  1
  Na  Na2  1  0.24647200  0.85373600  0.16114100  1
  Na  Na3  1  0.83533200  0.49647200  0.89273600  1
  Na  Na4  1  0.14626400  0.30740400  0.39273600  1
  Na  Na5  1  0.60373600  0.94259600  0.10726400  1
  Na  Na6  1  0.91466800  0.75352800  0.60726400  1
  Na  Na7  1  0.69259600  0.08533200  0.83885900  1
  U  U0  1  0.50000000  0.50000000  0.00000000  1
  U  U1  1  0.25000000  0.75000000  0.50000000  1
  Mo  Mo0  1  0.15507800  0.42472300  0.08988700  1
  Mo  Mo1  1  0.81519100  0.40507800  0.23035500  1
  Mo  Mo2  1  0.17472300  0.58483600  0.76964500  1
  Mo  Mo3  1  0.41516400  0.18480900  0.58988700  1
  Mo  Mo4  1  0.57527700  0.66516400  0.73035500  1
  Mo  Mo5  1  0.93480900  0.84492200  0.26964500  1
  Mo  Mo6  1  0.33483600  0.06519100  0.91011300  1
  Mo  Mo7  1  0.59492200  0.82527700  0.41011300  1
  O  O0  1  0.72762100  0.19222600  0.12009400  1
  O  O1  1  0.45589400  0.28324400  0.05163700  1
  O  O2  1  0.23160700  0.40425800  0.94836300  1
  O  O3  1  0.67786800  0.64247300  0.62009400  1
  O  O4  1  0.22664300  0.63813700  0.24005200  1
  O  O5  1  0.73659200  0.47664300  0.08850600  1
  O  O6  1  0.67238100  0.86803900  0.88863600  1
  O  O7  1  0.39808500  0.98659200  0.75994800  1
  O  O8  1  0.07213200  0.60752700  0.87990600  1
  O  O9  1  0.02237900  0.05777400  0.37990600  1
  O  O10  1  0.80777400  0.92786800  0.53539500  1
  O  O11  1  0.07761900  0.38196100  0.61136400  1
  O  O12  1  0.39247300  0.27237900  0.46460500  1
  O  O13  1  0.52335700  0.61186300  0.25994800  1
  O  O14  1  0.13196100  0.02059700  0.80434200  1
  O  O15  1  0.61803900  0.22940300  0.69565800  1
  O  O16  1  0.35752700  0.97762100  0.03539500  1
  O  O17  1  0.15425800  0.70589400  0.67265000  1
  O  O18  1  0.97940300  0.78374500  0.11136400  1
  O  O19  1  0.53374500  0.92238100  0.30434200  1
  O  O20  1  0.01340800  0.77335700  0.41149400  1
  O  O21  1  0.38813700  0.64808500  0.91149400  1
  O  O22  1  0.36186300  0.60191500  0.58850600  1
  O  O23  1  0.51839300  0.84574200  0.55163700  1
  O  O24  1  0.59574200  0.54410600  0.82735000  1
  O  O25  1  0.21625500  0.32761900  0.19565800  1
  O  O26  1  0.35191500  0.26340800  0.74005200  1
  O  O27  1  0.77059700  0.46625500  0.38863600  1
  O  O28  1  0.03324400  0.48160700  0.32735000  1
  O  O29  1  0.94222600  0.32213200  0.96460500  1
  O  O30  1  0.29410600  0.96675600  0.44836300  1
  O  O31  1  0.71675600  0.76839300  0.17265000  1
loop_
_geom_bond_atom_site_label_1
_geom_bond_atom_site_label_2
_geom_bond_distance
_geom_bond_site_symmetry_2
Na0 O11 2.390270 1_555
Na0 O10 2.404340 1_445
Na0 O14 2.475430 1_555
Na0 O9 2.496909 1_555
Na0 O2 2.505236 1_555
Na0 O26 2.553004 1_555
Na1 O27 2.390261 1_555
Na1 O12 2.404351 1_555
Na1 O25 2.475436 1_555
Na1 O3 2.496905 1_555
Na1 O1 2.505229 1_555
Na1 O13 2.552994 1_555
Na2 O18 2.390261 1_455
Na2 O16 2.404351 1_555
Na2 O19 2.475436 1_555
Na2 O8 2.496905 1_554
Na2 O30 2.505229 1_555
Na2 O4 2.552994 1_555
Na3 O15 2.390264 1_555
Na3 O8 2.404342 1_655
Na3 O18 2.475437 1_556
Na3 O29 2.496900 1_555
Na3 O24 2.505248 1_555
Na3 O5 2.552994 1_556
Na4 O25 2.390264 1_555
Na4 O9 2.404342 1_555
Na4 O11 2.475437 1_555
Na4 O12 2.496900 1_555
Na4 O28 2.505238 1_555
Na4 O22 2.553001 1_555
Na5 O19 2.390264 1_555
Na5 O0 2.404342 1_565
Na5 O6 2.475437 1_554
Na5 O16 2.496900 1_555
Na5 O31 2.505238 1_555
Na5 O21 2.553001 1_554
Na6 O14 2.390264 1_665
Na6 O3 2.404342 1_555
Na6 O27 2.475437 1_555
Na6 O10 2.496900 1_555
Na6 O17 2.505248 1_655
Na6 O20 2.552994 1_655
Na7 O6 2.390270 1_545
Na7 O29 2.404340 1_555
Na7 O15 2.475430 1_555
Na7 O0 2.496909 1_556
Na7 O23 2.505236 1_545
Na7 O7 2.553004 1_545
Mo0 O25 1.763031 1_555
Mo0 O29 1.772858 1_454
Mo0 O2 1.830767 1_554
Mo0 O4 1.860362 1_555
Mo1 O27 1.763031 1_555
Mo1 O0 1.772858 1_555
Mo1 O28 1.830766 1_655
Mo1 O5 1.860359 1_555
Mo2 O11 1.763031 1_555
Mo2 O8 1.772858 1_555
Mo2 O17 1.830765 1_555
Mo2 O21 1.860362 1_555
Mo3 O15 1.763031 1_555
Mo3 O12 1.772858 1_555
Mo3 O30 1.830766 1_545
Mo3 O26 1.860359 1_555
Mo4 O6 1.763031 1_555
Mo4 O3 1.772858 1_555
Mo4 O24 1.830765 1_555
Mo4 O22 1.860362 1_555
Mo5 O18 1.763031 1_555
Mo5 O9 1.772858 1_665
Mo5 O31 1.830766 1_555
Mo5 O20 1.860359 1_655
Mo6 O14 1.763031 1_555
Mo6 O16 1.772858 1_546
Mo6 O1 1.830766 1_556
Mo6 O7 1.860359 1_545
Mo7 O19 1.763031 1_555
Mo7 O10 1.772858 1_555
Mo7 O23 1.830767 1_555
Mo7 O13 1.860362 1_555
O1 U0 2.383970 1_555
O2 U0 2.383970 1_556
O4 U1 2.348109 1_555
O5 U0 2.348119 1_555
O7 U1 2.348114 1_555
O13 U0 2.348109 1_555
O17 U1 2.383964 1_555
O20 U1 2.348119 1_555
O21 U0 2.348109 1_556
O22 U1 2.348109 1_555
O23 U1 2.383970 1_555
O24 U0 2.383964 1_556
O26 U0 2.348114 1_556
O28 U1 2.383970 1_555
O30 U1 2.383970 1_555
O31 U0 2.383970 1_555
