# generated using pymatgen
data_RbIn(MoO4)2
_symmetry_space_group_name_H-M   'P 1'
_cell_length_a   5.95956100
_cell_length_b   9.12396200
_cell_length_c   15.63512200
_cell_angle_alpha   90.00000000
_cell_angle_beta   90.00000000
_cell_angle_gamma   90.00000000
_symmetry_Int_Tables_number   1
_chemical_formula_structural   RbIn(MoO4)2
_chemical_formula_sum   'Rb4 In4 Mo8 O32'
_cell_volume   850.15675838
_cell_formula_units_Z   4
loop_
 _symmetry_equiv_pos_site_id
 _symmetry_equiv_pos_as_xyz
  1  'x, y, z'
loop_
 _atom_site_type_symbol
 _atom_site_label
 _atom_site_symmetry_multiplicity
 _atom_site_fract_x
 _atom_site_fract_y
 _atom_site_fract_z
 _atom_site_occupancy
  Rb  Rb0  1  0.75000000  0.44999000  0.87575500  1
  Rb  Rb1  1  0.25000000  0.55001000  0.12424500  1
  Rb  Rb2  1  0.25000000  0.94999000  0.62424500  1
  Rb  Rb3  1  0.75000000  0.05001000  0.37575500  1
  In  In0  1  0.25000000  0.81212600  0.88604300  1
  In  In1  1  0.75000000  0.18787400  0.11395700  1
  In  In2  1  0.75000000  0.31212600  0.61395700  1
  In  In3  1  0.25000000  0.68787400  0.38604300  1
  Mo  Mo0  1  0.25000000  0.50871900  0.71629000  1
  Mo  Mo1  1  0.75000000  0.49128100  0.28371000  1
  Mo  Mo2  1  0.75000000  0.00871900  0.78371000  1
  Mo  Mo3  1  0.25000000  0.99128100  0.21629000  1
  Mo  Mo4  1  0.25000000  0.21156500  0.96895700  1
  Mo  Mo5  1  0.75000000  0.78843500  0.03104300  1
  Mo  Mo6  1  0.75000000  0.71156500  0.53104300  1
  Mo  Mo7  1  0.25000000  0.28843500  0.46895700  1
  O  O0  1  0.75000000  0.14002200  0.86428000  1
  O  O1  1  0.25000000  0.85997800  0.13572000  1
  O  O2  1  0.25000000  0.64002200  0.63572000  1
  O  O3  1  0.75000000  0.35997800  0.36428000  1
  O  O4  1  0.00211300  0.89898400  0.79717800  1
  O  O5  1  0.50211300  0.10101600  0.20282200  1
  O  O6  1  0.99788700  0.39898400  0.70282200  1
  O  O7  1  0.49788700  0.60101600  0.29717800  1
  O  O8  1  0.99788700  0.10101600  0.20282200  1
  O  O9  1  0.49788700  0.89898400  0.79717800  1
  O  O10  1  0.00211300  0.60101600  0.29717800  1
  O  O11  1  0.50211300  0.39898400  0.70282200  1
  O  O12  1  0.25000000  0.60463900  0.81854200  1
  O  O13  1  0.75000000  0.39536100  0.18145800  1
  O  O14  1  0.75000000  0.10463900  0.68145800  1
  O  O15  1  0.25000000  0.89536100  0.31854200  1
  O  O16  1  0.25000000  0.29927300  0.86969100  1
  O  O17  1  0.75000000  0.70072700  0.13030900  1
  O  O18  1  0.75000000  0.79927300  0.63030900  1
  O  O19  1  0.25000000  0.20072700  0.36969100  1
  O  O20  1  0.25000000  0.01624700  0.95674900  1
  O  O21  1  0.75000000  0.98375300  0.04325100  1
  O  O22  1  0.75000000  0.51624700  0.54325100  1
  O  O23  1  0.25000000  0.48375300  0.45674900  1
  O  O24  1  0.50594800  0.72303300  0.97122300  1
  O  O25  1  0.00594800  0.27696700  0.02877700  1
  O  O26  1  0.49405200  0.22303300  0.52877700  1
  O  O27  1  0.99405200  0.77696700  0.47122300  1
  O  O28  1  0.49405200  0.27696700  0.02877700  1
  O  O29  1  0.99405200  0.72303300  0.97122300  1
  O  O30  1  0.50594800  0.77696700  0.47122300  1
  O  O31  1  0.00594800  0.22303300  0.52877700  1
loop_
_geom_bond_atom_site_label_1
_geom_bond_atom_site_label_2
_geom_bond_distance
_geom_bond_site_symmetry_2
In0 O20 2.165786 1_565
In0 O12 2.167413 1_555
In0 O4 2.177366 1_555
In0 O9 2.177366 1_555
In0 O24 2.181999 1_555
In0 O29 2.181999 1_455
In1 O21 2.165786 1_545
In1 O13 2.167413 1_555
In1 O8 2.177366 1_555
In1 O5 2.177366 1_555
In1 O28 2.181999 1_555
In1 O25 2.181999 1_655
In2 O22 2.165786 1_555
In2 O14 2.167413 1_555
In2 O11 2.177366 1_555
In2 O6 2.177366 1_555
In2 O26 2.181999 1_555
In2 O31 2.181999 1_655
In3 O23 2.165786 1_555
In3 O15 2.167413 1_555
In3 O7 2.177366 1_555
In3 O10 2.177366 1_555
In3 O27 2.181999 1_455
In3 O30 2.181999 1_555
Mo0 O2 1.738422 1_555
Mo0 O6 1.817755 1_455
Mo0 O11 1.817755 1_555
Mo0 O12 1.822591 1_555
Mo1 O3 1.738422 1_555
Mo1 O7 1.817755 1_555
Mo1 O10 1.817755 1_655
Mo1 O13 1.822591 1_555
Mo2 O0 1.738422 1_555
Mo2 O9 1.817755 1_545
Mo2 O4 1.817755 1_645
Mo2 O14 1.822591 1_555
Mo3 O1 1.738422 1_555
Mo3 O8 1.817755 1_465
Mo3 O5 1.817755 1_565
Mo3 O15 1.822591 1_555
Mo4 O16 1.746198 1_555
Mo4 O20 1.792267 1_555
Mo4 O25 1.829278 1_556
Mo4 O28 1.829278 1_556
Mo5 O17 1.746198 1_555
Mo5 O21 1.792267 1_555
Mo5 O24 1.829278 1_554
Mo5 O29 1.829278 1_554
Mo6 O18 1.746198 1_555
Mo6 O22 1.792267 1_555
Mo6 O30 1.829278 1_555
Mo6 O27 1.829278 1_555
Mo7 O19 1.746198 1_555
Mo7 O23 1.792267 1_555
Mo7 O31 1.829278 1_555
Mo7 O26 1.829278 1_555
O0 Rb0 2.833821 1_555
O1 Rb1 2.833821 1_555
O2 Rb2 2.833821 1_555
O3 Rb3 2.833821 1_555
O4 Rb2 3.116035 1_555
O5 Rb3 3.116035 1_555
O6 Rb0 3.116035 1_555
O7 Rb1 3.116035 1_555
O8 Rb3 3.116035 1_555
O9 Rb2 3.116035 1_555
O10 Rb1 3.116035 1_555
O11 Rb0 3.116035 1_555
O12 Rb0 3.416172 1_455
O12 Rb0 3.416172 1_555
O13 Rb1 3.416172 1_655
O13 Rb1 3.416172 1_555
O14 Rb2 3.416172 1_545
O14 Rb2 3.416172 1_645
O15 Rb3 3.416172 1_565
O15 Rb3 3.416172 1_465
O16 Rb0 3.283151 1_455
O16 Rb0 3.283151 1_555
O17 Rb1 3.283151 1_555
O17 Rb1 3.283151 1_655
O18 Rb2 3.283151 1_655
O18 Rb2 3.283151 1_555
O19 Rb3 3.283151 1_555
O19 Rb3 3.283151 1_455
O24 Rb1 3.246991 1_556
O24 Rb0 3.248025 1_555
O25 Rb0 3.246991 1_454
O25 Rb1 3.248025 1_555
O26 Rb3 3.246991 1_555
O26 Rb2 3.248025 1_545
O27 Rb2 3.246991 1_655
O27 Rb3 3.248025 1_565
O28 Rb0 3.246991 1_554
O28 Rb1 3.248025 1_555
O29 Rb1 3.246991 1_656
O29 Rb0 3.248025 1_555
O30 Rb2 3.246991 1_555
O30 Rb3 3.248025 1_565
O31 Rb3 3.246991 1_455
O31 Rb2 3.248025 1_545
