# generated using pymatgen
data_SbH6C2I
_symmetry_space_group_name_H-M   'P 1'
_cell_length_a   7.02305700
_cell_length_b   11.09532900
_cell_length_c   17.61680100
_cell_angle_alpha   90.00000000
_cell_angle_beta   90.00000000
_cell_angle_gamma   90.00000000
_symmetry_Int_Tables_number   1
_chemical_formula_structural   SbH6C2I
_chemical_formula_sum   'Sb8 H48 C16 I8'
_cell_volume   1372.75623929
_cell_formula_units_Z   8
loop_
 _symmetry_equiv_pos_site_id
 _symmetry_equiv_pos_as_xyz
  1  'x, y, z'
loop_
 _atom_site_type_symbol
 _atom_site_label
 _atom_site_symmetry_multiplicity
 _atom_site_fract_x
 _atom_site_fract_y
 _atom_site_fract_z
 _atom_site_occupancy
  Sb  Sb0  1  0.20594300  0.86762900  0.67570400  1
  Sb  Sb1  1  0.79405700  0.36762900  0.82429600  1
  Sb  Sb2  1  0.20594300  0.63237100  0.17570400  1
  Sb  Sb3  1  0.29405700  0.36762900  0.67570400  1
  Sb  Sb4  1  0.29405700  0.13237100  0.17570400  1
  Sb  Sb5  1  0.70594300  0.63237100  0.32429600  1
  Sb  Sb6  1  0.79405700  0.13237100  0.32429600  1
  Sb  Sb7  1  0.70594300  0.86762900  0.82429600  1
  H  H0  1  0.99914200  0.65372400  0.42475000  1
  H  H1  1  0.51475800  0.65053700  0.46061300  1
  H  H2  1  0.52635800  0.98527400  0.62628000  1
  H  H3  1  0.08779000  0.70287500  0.57170600  1
  H  H4  1  0.61803200  0.27284100  0.61243700  1
  H  H5  1  0.49914200  0.84627600  0.57525000  1
  H  H6  1  0.02635800  0.51472600  0.37372000  1
  H  H7  1  0.11803200  0.22715900  0.38756300  1
  H  H8  1  0.49914200  0.65372400  0.07525000  1
  H  H9  1  0.98524200  0.15053700  0.46061300  1
  H  H10  1  0.61803200  0.22715900  0.11243700  1
  H  H11  1  0.01475800  0.65053700  0.03938700  1
  H  H12  1  0.41221000  0.20287500  0.57170600  1
  H  H13  1  0.11803200  0.27284100  0.88756300  1
  H  H14  1  0.97364200  0.48527400  0.62628000  1
  H  H15  1  0.88196800  0.77284100  0.61243700  1
  H  H16  1  0.85846100  0.52533600  0.45089800  1
  H  H17  1  0.14153900  0.02533600  0.04910200  1
  H  H18  1  0.64153900  0.02533600  0.45089800  1
  H  H19  1  0.47364200  0.48527400  0.87372000  1
  H  H20  1  0.58779000  0.70287500  0.92829400  1
  H  H21  1  0.88196800  0.72715900  0.11243700  1
  H  H22  1  0.08779000  0.79712500  0.07170600  1
  H  H23  1  0.91221000  0.29712500  0.42829400  1
  H  H24  1  0.98524200  0.34946300  0.96061300  1
  H  H25  1  0.97364200  0.01472600  0.12628000  1
  H  H26  1  0.58779000  0.79712500  0.42829400  1
  H  H27  1  0.00085800  0.34627600  0.57525000  1
  H  H28  1  0.41221000  0.29712500  0.07170600  1
  H  H29  1  0.48524200  0.34946300  0.53938700  1
  H  H30  1  0.00085800  0.15372400  0.07525000  1
  H  H31  1  0.48524200  0.15053700  0.03938700  1
  H  H32  1  0.99914200  0.84627600  0.92475000  1
  H  H33  1  0.91221000  0.20287500  0.92829400  1
  H  H34  1  0.35846100  0.52533600  0.04910200  1
  H  H35  1  0.02635800  0.98527400  0.87372000  1
  H  H36  1  0.01475800  0.84946300  0.53938700  1
  H  H37  1  0.14153900  0.47466400  0.54910200  1
  H  H38  1  0.50085800  0.15372400  0.42475000  1
  H  H39  1  0.47364200  0.01472600  0.37372000  1
  H  H40  1  0.52635800  0.51472600  0.12628000  1
  H  H41  1  0.51475800  0.84946300  0.96061300  1
  H  H42  1  0.38196800  0.77284100  0.88756300  1
  H  H43  1  0.85846100  0.97466400  0.95089800  1
  H  H44  1  0.64153900  0.47466400  0.95089800  1
  H  H45  1  0.50085800  0.34627600  0.92475000  1
  H  H46  1  0.38196800  0.72715900  0.38756300  1
  H  H47  1  0.35846100  0.97466400  0.54910200  1
  C  C0  1  0.47628400  0.21098100  0.08844600  1
  C  C1  1  0.92540700  0.92668300  0.90355700  1
  C  C2  1  0.52371600  0.71098100  0.41155400  1
  C  C3  1  0.07459300  0.42668300  0.59644300  1
  C  C4  1  0.07459300  0.07331700  0.09644300  1
  C  C5  1  0.47628400  0.28901900  0.58844600  1
  C  C6  1  0.02371600  0.71098100  0.08844600  1
  C  C7  1  0.42540700  0.92668300  0.59644300  1
  C  C8  1  0.52371600  0.78901900  0.91155400  1
  C  C9  1  0.02371600  0.78901900  0.58844600  1
  C  C10  1  0.42540700  0.57331700  0.09644300  1
  C  C11  1  0.97628400  0.21098100  0.41155400  1
  C  C12  1  0.57459300  0.42668300  0.90355700  1
  C  C13  1  0.92540700  0.57331700  0.40355700  1
  C  C14  1  0.97628400  0.28901900  0.91155400  1
  C  C15  1  0.57459300  0.07331700  0.40355700  1
  I  I0  1  0.50990600  0.09374300  0.83052800  1
  I  I1  1  0.49009400  0.59374300  0.66947200  1
  I  I2  1  0.00990600  0.40625700  0.16947200  1
  I  I3  1  0.50990600  0.40625700  0.33052800  1
  I  I4  1  0.49009400  0.90625700  0.16947200  1
  I  I5  1  0.99009400  0.59374300  0.83052800  1
  I  I6  1  0.99009400  0.90625700  0.33052800  1
  I  I7  1  0.00990600  0.09374300  0.66947200  1
loop_
_geom_bond_atom_site_label_1
_geom_bond_atom_site_label_2
_geom_bond_distance
_geom_bond_site_symmetry_2
C0 H31 1.095753 1_555
C0 H10 1.096302 1_555
C0 H28 1.096819 1_555
C0 Sb4 2.182111 1_555
C1 H43 1.095454 1_555
C1 H35 1.096157 1_655
C1 H32 1.097029 1_555
C1 Sb7 2.180521 1_555
C2 H1 1.095753 1_555
C2 H46 1.096302 1_555
C2 H26 1.096819 1_555
C2 Sb5 2.182111 1_555
C3 H37 1.095454 1_555
C3 H14 1.096157 1_455
C3 H27 1.097029 1_555
C3 Sb3 2.180521 1_555
C4 H17 1.095454 1_555
C4 H25 1.096157 1_455
C4 H30 1.097029 1_555
C4 Sb4 2.180521 1_555
C5 H29 1.095753 1_555
C5 H4 1.096302 1_555
C5 H12 1.096819 1_555
C5 Sb3 2.182111 1_555
C6 H11 1.095753 1_555
C6 H21 1.096302 1_455
C6 H22 1.096819 1_555
C6 Sb2 2.182111 1_555
C7 H47 1.095454 1_555
C7 H2 1.096157 1_555
C7 H5 1.097029 1_555
C7 Sb0 2.180521 1_555
C8 H41 1.095753 1_555
C8 H42 1.096302 1_555
C8 H20 1.096819 1_555
C8 Sb7 2.182111 1_555
C9 H36 1.095753 1_555
C9 H15 1.096302 1_455
C9 H3 1.096819 1_555
C9 Sb0 2.182111 1_555
C10 H34 1.095454 1_555
C10 H40 1.096157 1_555
C10 H8 1.097029 1_555
C10 Sb2 2.180521 1_555
C11 H9 1.095753 1_555
C11 H7 1.096302 1_655
C11 H23 1.096819 1_555
C11 Sb6 2.182111 1_555
C12 H44 1.095454 1_555
C12 H19 1.096157 1_555
C12 H45 1.097029 1_555
C12 Sb1 2.180521 1_555
C13 H16 1.095454 1_555
C13 H6 1.096157 1_655
C13 H0 1.097029 1_555
C13 Sb5 2.180521 1_555
C14 H24 1.095753 1_555
C14 H13 1.096302 1_655
C14 H33 1.096819 1_555
C14 Sb1 2.182111 1_555
C15 H18 1.095454 1_555
C15 H39 1.096157 1_555
C15 H38 1.097029 1_555
C15 Sb6 2.180521 1_555
I0 Sb7 2.863861 1_545
I1 Sb3 2.863861 1_555
I2 Sb2 2.863861 1_555
I3 Sb5 2.863861 1_555
I4 Sb4 2.863861 1_565
I5 Sb1 2.863861 1_555
I6 Sb6 2.863861 1_565
I7 Sb0 2.863861 1_545
