# generated using pymatgen
data_LiLa5Ti8O24
_symmetry_space_group_name_H-M   'P 1'
_cell_length_a   7.79476400
_cell_length_b   7.82501100
_cell_length_c   7.87643123
_cell_angle_alpha   89.75804771
_cell_angle_beta   90.00000000
_cell_angle_gamma   90.00000000
_symmetry_Int_Tables_number   1
_chemical_formula_structural   LiLa5Ti8O24
_chemical_formula_sum   'Li1 La5 Ti8 O24'
_cell_volume   480.41166107
_cell_formula_units_Z   1
loop_
 _symmetry_equiv_pos_site_id
 _symmetry_equiv_pos_as_xyz
  1  'x, y, z'
loop_
 _atom_site_type_symbol
 _atom_site_label
 _atom_site_symmetry_multiplicity
 _atom_site_fract_x
 _atom_site_fract_y
 _atom_site_fract_z
 _atom_site_occupancy
  Li  Li0  1  0.00000000  0.75532100  0.24415100  1
  La  La0  1  0.50000000  0.02832800  0.75696400  1
  La  La1  1  0.50000000  0.49909200  0.25365600  1
  La  La2  1  0.50000000  0.00448600  0.25777800  1
  La  La3  1  0.00000000  0.50476700  0.74186700  1
  La  La4  1  0.00000000  0.00543800  0.75470900  1
  Ti  Ti0  1  0.74857000  0.75175900  0.99845600  1
  Ti  Ti1  1  0.24426800  0.26011500  0.49787200  1
  Ti  Ti2  1  0.75573200  0.26011500  0.49787200  1
  Ti  Ti3  1  0.24560200  0.26119000  0.00815300  1
  Ti  Ti4  1  0.75439800  0.26119000  0.00815300  1
  Ti  Ti5  1  0.25077100  0.75100300  0.50139600  1
  Ti  Ti6  1  0.74922900  0.75100300  0.50139600  1
  Ti  Ti7  1  0.25143000  0.75175900  0.99845600  1
  O  O0  1  0.22568500  0.73962300  0.74200300  1
  O  O1  1  0.00000000  0.27249500  0.96211700  1
  O  O2  1  0.50000000  0.26530600  0.47892600  1
  O  O3  1  0.23081600  0.99564800  0.96999300  1
  O  O4  1  0.50000000  0.78698300  0.98994200  1
  O  O5  1  0.28044300  0.49638000  0.00654000  1
  O  O6  1  0.25466400  0.24315500  0.74189800  1
  O  O7  1  0.73832300  0.75752900  0.24113300  1
  O  O8  1  0.00000000  0.72304200  0.99361400  1
  O  O9  1  0.73329900  0.23569800  0.24385200  1
  O  O10  1  0.74533600  0.24315500  0.74189800  1
  O  O11  1  0.77791400  0.49599500  0.48870500  1
  O  O12  1  0.26670100  0.23569800  0.24385200  1
  O  O13  1  0.22208600  0.49599500  0.48870500  1
  O  O14  1  0.00000000  0.77548100  0.49053800  1
  O  O15  1  0.50000000  0.71867900  0.47767500  1
  O  O16  1  0.70772500  0.99245900  0.51037100  1
  O  O17  1  0.77431500  0.73962300  0.74200300  1
  O  O18  1  0.00000000  0.21871100  0.52155400  1
  O  O19  1  0.29227500  0.99245900  0.51037100  1
  O  O20  1  0.71955700  0.49638000  0.00654000  1
  O  O21  1  0.50000000  0.20957400  0.00263500  1
  O  O22  1  0.26167700  0.75752900  0.24113300  1
  O  O23  1  0.76918400  0.99564800  0.96999300  1
loop_
_geom_bond_atom_site_label_1
_geom_bond_atom_site_label_2
_geom_bond_distance
_geom_bond_site_symmetry_2
Li0 O14 1.947715 1_555
Li0 O8 1.990495 1_554
Li0 O22 2.039921 1_555
Li0 O7 2.039921 1_455
La0 O21 2.403931 1_556
La0 O19 2.545095 1_545
La0 O16 2.545095 1_545
La0 O6 2.548581 1_555
La0 O10 2.548581 1_555
La0 O4 2.627665 1_545
La0 O23 2.698091 1_545
La0 O3 2.698091 1_545
La0 O2 2.863600 1_555
La0 O0 3.113157 1_545
La0 O17 3.113157 1_545
La0 O15 3.279497 1_545
La1 O15 2.468079 1_555
La1 O2 2.543115 1_555
La1 O5 2.591933 1_555
La1 O20 2.591933 1_555
La1 O7 2.747467 1_555
La1 O22 2.747467 1_555
La1 O12 2.749956 1_555
La1 O9 2.749956 1_555
La1 O13 2.849638 1_555
La1 O11 2.849638 1_555
La1 O21 3.013197 1_555
La1 O4 3.057746 1_554
La2 O21 2.566467 1_555
La2 O19 2.566557 1_545
La2 O16 2.566557 1_545
La2 O9 2.567231 1_555
La2 O12 2.567231 1_555
La2 O7 2.684139 1_545
La2 O22 2.684139 1_545
La2 O2 2.688762 1_555
La2 O4 2.716133 1_544
La2 O15 2.822906 1_545
La2 O23 3.089769 1_544
La2 O3 3.089769 1_544
La3 O1 2.507242 1_555
La3 O0 2.544011 1_555
La3 O17 2.544011 1_455
La3 O8 2.622527 1_555
La3 O13 2.641721 1_555
La3 O11 2.641721 1_455
La3 O18 2.838027 1_555
La3 O10 2.851507 1_455
La3 O6 2.851507 1_555
La3 O14 2.893211 1_555
La3 O5 3.021188 1_556
La3 O20 3.021188 1_456
La4 O3 2.473263 1_545
La4 O23 2.473263 1_445
La4 O18 2.476226 1_555
La4 O1 2.657921 1_555
La4 O6 2.721969 1_555
La4 O10 2.721969 1_455
La4 O17 2.726324 1_445
La4 O0 2.726324 1_545
La4 O14 2.756617 1_545
La4 O8 2.896334 1_545
La4 O16 2.984287 1_445
La4 O19 2.984287 1_545
O0 Ti5 1.906892 1_555
O0 Ti7 2.032497 1_555
O1 Ti3 1.950384 1_556
O1 Ti4 1.950384 1_456
O2 Ti2 1.999348 1_555
O2 Ti1 1.999348 1_555
O3 Ti7 1.927326 1_555
O3 Ti3 2.103910 1_566
O4 Ti0 1.958160 1_555
O4 Ti7 1.958160 1_555
O5 Ti3 1.860285 1_555
O5 Ti7 2.011840 1_554
O6 Ti1 1.927775 1_555
O6 Ti3 2.103663 1_556
O7 Ti0 1.913820 1_554
O7 Ti6 2.052126 1_555
O8 Ti7 1.973065 1_555
O8 Ti0 1.973065 1_455
O9 Ti4 1.873547 1_555
O9 Ti2 2.018265 1_555
O10 Ti2 1.927775 1_555
O10 Ti4 2.103663 1_556
O11 Ti2 1.854947 1_555
O11 Ti6 2.010834 1_555
O12 Ti3 1.873547 1_555
O12 Ti1 2.018265 1_555
O13 Ti1 1.854947 1_555
O13 Ti5 2.010834 1_555
O14 Ti6 1.965889 1_455
O14 Ti5 1.965889 1_555
O15 Ti5 1.968069 1_555
O15 Ti6 1.968069 1_555
O16 Ti6 1.918490 1_555
O16 Ti2 2.129445 1_565
O17 Ti6 1.906892 1_555
O17 Ti0 2.032497 1_555
O18 Ti1 1.940234 1_555
O18 Ti2 1.940234 1_455
O19 Ti5 1.918490 1_555
O19 Ti1 2.129445 1_565
O20 Ti4 1.860285 1_555
O20 Ti0 2.011840 1_554
O21 Ti4 2.024191 1_555
O21 Ti3 2.024191 1_555
O22 Ti7 1.913820 1_554
O22 Ti5 2.052126 1_555
O23 Ti0 1.927326 1_555
O23 Ti4 2.103910 1_566
