# generated using pymatgen
data_K3LiSiO4
_symmetry_space_group_name_H-M   'P 1'
_cell_length_a   9.66668751
_cell_length_b   11.26771762
_cell_length_c   11.77011821
_cell_angle_alpha   58.55540085
_cell_angle_beta   90.00000000
_cell_angle_gamma   90.00000000
_symmetry_Int_Tables_number   1
_chemical_formula_structural   K3LiSiO4
_chemical_formula_sum   'K24 Li8 Si8 O32'
_cell_volume   1093.74807134
_cell_formula_units_Z   8
loop_
 _symmetry_equiv_pos_site_id
 _symmetry_equiv_pos_as_xyz
  1  'x, y, z'
loop_
 _atom_site_type_symbol
 _atom_site_label
 _atom_site_symmetry_multiplicity
 _atom_site_fract_x
 _atom_site_fract_y
 _atom_site_fract_z
 _atom_site_occupancy
  K  K0  1  0.91836495  0.14284155  0.89142444  1
  K  K1  1  0.08112484  0.64554238  0.94084477  1
  K  K2  1  0.58112484  0.35445762  0.55915523  1
  K  K3  1  0.76966966  0.68844785  0.34143619  1
  K  K4  1  0.26966966  0.31155215  0.15856381  1
  K  K5  1  0.08889503  0.65370278  0.45689786  1
  K  K6  1  0.25838102  0.18687847  0.47065043  1
  K  K7  1  0.75838102  0.81312153  0.02934957  1
  K  K8  1  0.91110497  0.34629722  0.54310214  1
  K  K9  1  0.08865795  0.83719296  0.59255908  1
  K  K10  1  0.41110497  0.65370278  0.95689786  1
  K  K11  1  0.58889503  0.34629722  0.04310214  1
  K  K12  1  0.41134205  0.83719296  0.09255908  1
  K  K13  1  0.41836495  0.85715845  0.60857556  1
  K  K14  1  0.58163505  0.14284155  0.39142444  1
  K  K15  1  0.91887516  0.35445762  0.05915523  1
  K  K16  1  0.73033034  0.68844785  0.84143619  1
  K  K17  1  0.74161898  0.81312153  0.52934957  1
  K  K18  1  0.24161898  0.18687847  0.97065043  1
  K  K19  1  0.08163505  0.85715845  0.10857556  1
  K  K20  1  0.58865795  0.16280704  0.90744092  1
  K  K21  1  0.41887516  0.64554238  0.44084477  1
  K  K22  1  0.23033034  0.31155215  0.65856381  1
  K  K23  1  0.91134205  0.16280704  0.40744092  1
  Li  Li0  1  0.86414297  0.01325578  0.71589667  1
  Li  Li1  1  0.12103398  0.51668293  0.76439913  1
  Li  Li2  1  0.37896602  0.51668293  0.26439913  1
  Li  Li3  1  0.63585703  0.01325578  0.21589667  1
  Li  Li4  1  0.36414297  0.98674422  0.78410333  1
  Li  Li5  1  0.13585703  0.98674422  0.28410333  1
  Li  Li6  1  0.62103398  0.48331707  0.73560087  1
  Li  Li7  1  0.87896602  0.48331707  0.23560087  1
  Si  Si0  1  0.87378986  0.48056472  0.73457978  1
  Si  Si1  1  0.38866463  0.97610514  0.28280992  1
  Si  Si2  1  0.61133537  0.02389486  0.71719008  1
  Si  Si3  1  0.37378986  0.51943528  0.76542022  1
  Si  Si4  1  0.11133537  0.97610514  0.78280992  1
  Si  Si5  1  0.62621014  0.48056472  0.23457978  1
  Si  Si6  1  0.88866463  0.02389486  0.21719008  1
  Si  Si7  1  0.12621014  0.51943528  0.26542022  1
  O  O0  1  0.05833303  0.39780961  0.24337585  1
  O  O1  1  0.27834962  0.87686019  0.26340481  1
  O  O2  1  0.52387396  0.89007962  0.37340948  1
  O  O3  1  0.95603907  0.90493937  0.36210335  1
  O  O4  1  0.77834962  0.12313981  0.23659519  1
  O  O5  1  0.04396093  0.09506063  0.63789665  1
  O  O6  1  0.27407735  0.45544709  0.89842229  1
  O  O7  1  0.45603907  0.09506063  0.13789665  1
  O  O8  1  0.94166697  0.60219039  0.75662415  1
  O  O9  1  0.50974404  0.60055235  0.77665410  1
  O  O10  1  0.77050301  0.37763378  0.85873071  1
  O  O11  1  0.44166697  0.39780961  0.74337585  1
  O  O12  1  0.79720464  0.95523297  0.14725782  1
  O  O13  1  0.22949699  0.62236622  0.14126929  1
  O  O14  1  0.27050301  0.62236622  0.64126929  1
  O  O15  1  0.54396093  0.90493937  0.86210335  1
  O  O16  1  0.29720464  0.04476703  0.35274218  1
  O  O17  1  0.02387396  0.10992038  0.12659052  1
  O  O18  1  0.77407735  0.54455291  0.60157771  1
  O  O19  1  0.72592265  0.54455291  0.10157771  1
  O  O20  1  0.20279536  0.04476703  0.85274218  1
  O  O21  1  0.22165038  0.87686019  0.76340481  1
  O  O22  1  0.72165038  0.12313981  0.73659519  1
  O  O23  1  0.97612604  0.89007962  0.87340948  1
  O  O24  1  0.49025596  0.39944765  0.22334590  1
  O  O25  1  0.99025596  0.60055235  0.27665410  1
  O  O26  1  0.47612604  0.10992038  0.62659052  1
  O  O27  1  0.22592265  0.45544709  0.39842229  1
  O  O28  1  0.55833303  0.60219039  0.25662415  1
  O  O29  1  0.00974404  0.39944765  0.72334590  1
  O  O30  1  0.72949699  0.37763378  0.35873071  1
  O  O31  1  0.70279536  0.95523297  0.64725782  1
loop_
_geom_bond_atom_site_label_1
_geom_bond_atom_site_label_2
_geom_bond_distance
_geom_bond_site_symmetry_2
K0 O29 2.661956 1_655
K0 O22 2.721830 1_555
K0 O17 2.787119 1_656
K0 O10 2.850958 1_555
K0 O12 2.875123 1_546
K0 O23 3.016320 1_545
K0 O20 3.084345 1_655
K1 O23 2.640170 1_455
K1 O13 2.654722 1_556
K1 O21 2.705749 1_555
K1 O8 2.804027 1_455
K1 O6 3.071174 1_555
K1 O0 3.185805 1_556
K2 O26 2.640170 1_555
K2 O30 2.654722 1_555
K2 O22 2.705749 1_555
K2 O11 2.804027 1_555
K2 O18 3.071174 1_555
K2 O28 3.185805 1_555
K3 O18 2.612700 1_555
K3 O25 2.626217 1_555
K3 O28 2.669636 1_555
K3 O12 2.676302 1_555
K4 O6 2.612700 1_554
K4 O24 2.626217 1_555
K4 O0 2.669636 1_555
K4 O16 2.676302 1_555
K5 O25 2.663489 1_455
K5 O14 2.667656 1_555
K5 O3 2.759095 1_455
K5 O27 2.970302 1_555
K5 O1 2.981364 1_555
K5 O29 3.042062 1_555
K6 O26 2.625008 1_555
K6 O16 2.636182 1_555
K6 O5 2.667721 1_555
K6 O27 2.700859 1_555
K7 O23 2.625008 1_554
K7 O12 2.636182 1_555
K7 O15 2.667721 1_554
K7 O19 2.700859 1_555
K8 O29 2.663489 1_655
K8 O30 2.667656 1_555
K8 O5 2.759095 1_655
K8 O18 2.970302 1_555
K8 O22 2.981364 1_555
K8 O25 3.042062 1_555
K9 O21 2.614170 1_555
K9 O3 2.724604 1_455
K9 O8 2.724814 1_455
K9 O14 2.798229 1_555
K10 O9 2.663489 1_555
K10 O13 2.667656 1_556
K10 O15 2.759095 1_555
K10 O6 2.970302 1_555
K10 O21 2.981364 1_555
K10 O24 3.042062 1_556
K11 O24 2.663489 1_555
K11 O10 2.667656 1_554
K11 O7 2.759095 1_555
K11 O19 2.970302 1_555
K11 O4 2.981364 1_555
K11 O9 3.042062 1_554
K12 O1 2.614170 1_555
K12 O15 2.724604 1_554
K12 O28 2.724814 1_555
K12 O13 2.798229 1_555
K13 O9 2.661956 1_555
K13 O21 2.721830 1_555
K13 O2 2.787119 1_555
K13 O14 2.850958 1_555
K13 O16 2.875123 1_565
K13 O26 3.016320 1_565
K13 O31 3.084345 1_555
K14 O24 2.661956 1_555
K14 O4 2.721830 1_555
K14 O26 2.787119 1_555
K14 O30 2.850958 1_555
K14 O31 2.875123 1_545
K14 O2 3.016320 1_545
K14 O16 3.084345 1_555
K15 O17 2.640170 1_655
K15 O10 2.654722 1_554
K15 O4 2.705749 1_555
K15 O0 2.804027 1_655
K15 O19 3.071174 1_555
K15 O8 3.185805 1_554
K16 O19 2.612700 1_556
K16 O9 2.626217 1_555
K16 O8 2.669636 1_555
K16 O31 2.676302 1_555
K17 O2 2.625008 1_555
K17 O31 2.636182 1_555
K17 O3 2.667721 1_555
K17 O18 2.700859 1_555
K18 O17 2.625008 1_556
K18 O20 2.636182 1_555
K18 O7 2.667721 1_556
K18 O6 2.700859 1_555
K19 O25 2.661956 1_455
K19 O1 2.721830 1_555
K19 O23 2.787119 1_454
K19 O13 2.850958 1_555
K19 O20 2.875123 1_564
K19 O17 3.016320 1_565
K19 O12 3.084345 1_455
K20 O22 2.614170 1_555
K20 O7 2.724604 1_556
K20 O11 2.724814 1_555
K20 O10 2.798229 1_555
K21 O2 2.640170 1_555
K21 O14 2.654722 1_555
K21 O1 2.705749 1_555
K21 O28 2.804027 1_555
K21 O27 3.071174 1_555
K21 O11 3.185805 1_555
K22 O27 2.612700 1_555
K22 O29 2.626217 1_555
K22 O11 2.669636 1_555
K22 O20 2.676302 1_555
K23 O4 2.614170 1_555
K23 O5 2.724604 1_655
K23 O0 2.724814 1_655
K23 O30 2.798229 1_555
Li0 O22 1.950483 1_555
Li0 O5 1.957309 1_655
Li0 O23 1.962289 1_545
Li0 O31 2.015900 1_545
Li1 O29 1.949815 1_555
Li1 O14 1.950748 1_555
Li1 O8 1.962402 1_455
Li1 O6 2.004387 1_555
Li2 O24 1.949815 1_555
Li2 O13 1.950748 1_555
Li2 O28 1.962402 1_555
Li2 O27 2.004387 1_555
Li3 O4 1.950483 1_555
Li3 O7 1.957309 1_555
Li3 O2 1.962289 1_545
Li3 O12 2.015900 1_545
Li4 O21 1.950483 1_555
Li4 O15 1.957309 1_555
Li4 O26 1.962289 1_565
Li4 O20 2.015900 1_565
Li5 O1 1.950483 1_555
Li5 O3 1.957309 1_455
Li5 O17 1.962289 1_565
Li5 O16 2.015900 1_565
Li6 O9 1.949815 1_555
Li6 O10 1.950748 1_555
Li6 O11 1.962402 1_555
Li6 O18 2.004387 1_555
Li7 O25 1.949815 1_555
Li7 O30 1.950748 1_555
Li7 O0 1.962402 1_655
Li7 O19 2.004387 1_555
O0 Si7 1.657396 1_555
O1 Si1 1.645094 1_555
O2 Si1 1.645167 1_555
O3 Si6 1.656709 1_565
O4 Si6 1.645094 1_555
O5 Si4 1.656709 1_545
O6 Si3 1.649831 1_555
O7 Si1 1.656709 1_545
O8 Si0 1.657396 1_555
O9 Si3 1.645044 1_555
O10 Si0 1.645930 1_555
O11 Si3 1.657396 1_555
O12 Si6 1.649891 1_565
O13 Si7 1.645930 1_555
O14 Si3 1.645930 1_555
O15 Si2 1.656709 1_565
O16 Si1 1.649891 1_545
O17 Si6 1.645167 1_455
O18 Si0 1.649831 1_555
O19 Si5 1.649831 1_555
O20 Si4 1.649891 1_545
O21 Si4 1.645094 1_555
O22 Si2 1.645094 1_555
O23 Si4 1.645167 1_655
O24 Si5 1.645044 1_555
O25 Si7 1.645044 1_655
O26 Si2 1.645167 1_555
O27 Si7 1.649831 1_555
O28 Si5 1.657396 1_555
O29 Si0 1.645044 1_455
O30 Si5 1.645930 1_555
O31 Si2 1.649891 1_565
