# generated using pymatgen
data_Ba2NiOsO6
_symmetry_space_group_name_H-M   'P 1'
_cell_length_a   5.80591204
_cell_length_b   5.81435076
_cell_length_c   14.26329389
_cell_angle_alpha   90.09192405
_cell_angle_beta   90.01187322
_cell_angle_gamma   119.94746472
_symmetry_Int_Tables_number   1
_chemical_formula_structural   Ba2NiOsO6
_chemical_formula_sum   'Ba6 Ni3 Os3 O18'
_cell_volume   417.20639088
_cell_formula_units_Z   3
loop_
 _symmetry_equiv_pos_site_id
 _symmetry_equiv_pos_as_xyz
  1  'x, y, z'
loop_
 _atom_site_type_symbol
 _atom_site_label
 _atom_site_symmetry_multiplicity
 _atom_site_fract_x
 _atom_site_fract_y
 _atom_site_fract_z
 _atom_site_occupancy
  Ba  Ba0  1  0.99971100  0.99931100  0.24960700  1
  Ba  Ba1  1  0.99998700  0.99986100  0.75045700  1
  Ba  Ba2  1  0.33347200  0.66706300  0.09034600  1
  Ba  Ba3  1  0.66677700  0.33360100  0.91010800  1
  Ba  Ba4  1  0.33350200  0.66706000  0.40324900  1
  Ba  Ba5  1  0.66653100  0.33308400  0.59645200  1
  Ni  Ni0  1  0.99978000  0.99952000  0.00007100  1
  Ni  Ni1  1  0.33333000  0.66653500  0.65130500  1
  Ni  Ni2  1  0.66602100  0.33175600  0.34858600  1
  Os  Os0  1  0.99993800  0.99988500  0.50010100  1
  Os  Os1  1  0.33328800  0.66644600  0.84110500  1
  Os  Os2  1  0.66665100  0.33331900  0.15891600  1
  O  O0  1  0.51486400  0.48588600  0.24520500  1
  O  O1  1  0.51324400  0.02663800  0.24517200  1
  O  O2  1  0.97145700  0.48635000  0.24522800  1
  O  O3  1  0.02787000  0.51405700  0.75472000  1
  O  O4  1  0.48561200  0.97107500  0.75519900  1
  O  O5  1  0.48623400  0.51408700  0.75473400  1
  O  O6  1  0.82742700  0.17269100  0.08371700  1
  O  O7  1  0.82846700  0.65709600  0.08356300  1
  O  O8  1  0.34478700  0.17223700  0.08368700  1
  O  O9  1  0.65578600  0.82811900  0.91649800  1
  O  O10  1  0.17254800  0.34495500  0.91625800  1
  O  O11  1  0.17227100  0.82804100  0.91640900  1
  O  O12  1  0.84049700  0.15840400  0.42222300  1
  O  O13  1  0.84198600  0.68411100  0.42137400  1
  O  O14  1  0.31759700  0.15823100  0.42215600  1
  O  O15  1  0.68202400  0.84151300  0.57778700  1
  O  O16  1  0.15876900  0.31748300  0.57795500  1
  O  O17  1  0.15957100  0.84158700  0.57781100  1
loop_
_geom_bond_atom_site_label_1
_geom_bond_atom_site_label_2
_geom_bond_distance
_geom_bond_site_symmetry_2
Ba0 O2 2.904694 1_555
Ba0 O1 2.906180 1_665
Ba0 O0 2.906711 1_555
Ba0 O1 2.907646 1_565
Ba0 O0 2.916491 1_665
Ba0 O2 2.917935 1_565
Ba0 O13 2.922220 1_555
Ba0 O7 2.926672 1_555
Ba0 O14 2.933489 1_665
Ba0 O12 2.935865 1_565
Ba0 O8 2.936648 1_665
Ba0 O6 2.937485 1_565
Ba1 O4 2.907291 1_555
Ba1 O4 2.907449 1_655
Ba1 O3 2.909563 1_655
Ba1 O5 2.909918 1_555
Ba1 O3 2.912815 1_665
Ba1 O5 2.912915 1_665
Ba1 O10 2.932425 1_665
Ba1 O11 2.933543 1_655
Ba1 O17 2.934999 1_655
Ba1 O15 2.935150 1_555
Ba1 O9 2.935427 1_555
Ba1 O16 2.937675 1_665
Ba2 O1 2.853536 1_565
Ba2 O2 2.864679 1_455
Ba2 O0 2.865619 1_555
Ba2 O7 2.904890 1_555
Ba2 O7 2.905107 1_455
Ba2 O8 2.906728 1_565
Ba2 O6 2.908564 1_565
Ba2 O6 2.910448 1_455
Ba2 O8 2.911843 1_555
Ba2 O10 2.963647 1_554
Ba2 O9 2.964321 1_554
Ba2 O11 2.964464 1_554
Ba3 O4 2.863887 1_545
Ba3 O5 2.866370 1_555
Ba3 O3 2.867311 1_655
Ba3 O10 2.904309 1_555
Ba3 O10 2.905373 1_655
Ba3 O11 2.908849 1_655
Ba3 O9 2.908967 1_555
Ba3 O9 2.909296 1_545
Ba3 O11 2.909744 1_545
Ba3 O6 2.958845 1_556
Ba3 O7 2.959926 1_556
Ba3 O8 2.960222 1_556
Ba4 O1 2.895090 1_565
Ba4 O2 2.896173 1_455
Ba4 O0 2.898409 1_555
Ba4 O14 2.915118 1_565
Ba4 O13 2.915409 1_555
Ba4 O12 2.915584 1_565
Ba4 O13 2.915982 1_455
Ba4 O14 2.926404 1_555
Ba4 O12 2.926436 1_455
Ba4 O15 3.043271 1_555
Ba4 O17 3.043811 1_555
Ba4 O16 3.054267 1_555
Ba5 O3 2.896686 1_655
Ba5 O5 2.897148 1_555
Ba5 O4 2.910229 1_545
Ba5 O17 2.915473 1_545
Ba5 O16 2.915695 1_555
Ba5 O15 2.915876 1_545
Ba5 O16 2.916236 1_655
Ba5 O15 2.924900 1_555
Ba5 O17 2.925624 1_655
Ba5 O12 3.040474 1_555
Ba5 O14 3.041645 1_555
Ba5 O13 3.062827 1_555
Ni0 O7 2.098190 1_555
Ni0 O9 2.100213 1_554
Ni0 O11 2.101088 1_654
Ni0 O8 2.104758 1_665
Ni0 O6 2.107399 1_565
Ni0 O10 2.113291 1_664
Ni1 O16 2.044447 1_555
Ni1 O17 2.044676 1_555
Ni1 O15 2.044772 1_555
Ni1 O5 2.130585 1_555
Ni1 O4 2.130964 1_555
Ni1 O3 2.131296 1_555
Ni2 O12 2.041464 1_555
Ni2 O14 2.043970 1_555
Ni2 O13 2.054713 1_555
Ni2 O1 2.128317 1_555
Ni2 O0 2.129916 1_555
Ni2 O2 2.130703 1_555
O0 Os2 1.963610 1_555
O1 Os2 1.976958 1_555
O2 Os2 1.965328 1_555
O3 Os1 1.968375 1_555
O4 Os1 1.965753 1_555
O5 Os1 1.968070 1_555
O6 Os2 1.939495 1_555
O7 Os2 1.955220 1_555
O8 Os2 1.941432 1_555
O9 Os1 1.945382 1_555
O10 Os1 1.944030 1_555
O11 Os1 1.945387 1_555
O12 Os0 1.948076 1_545
O13 Os0 1.945451 1_555
O14 Os0 1.947796 1_445
O15 Os0 1.946741 1_555
O16 Os0 1.945850 1_445
O17 Os0 1.946589 1_455
