# generated using pymatgen
data_V5Si3
_symmetry_space_group_name_H-M   'P 1'
_cell_length_a   4.69927424
_cell_length_b   7.02183733
_cell_length_c   7.02183701
_cell_angle_alpha   83.57109271
_cell_angle_beta   70.45201450
_cell_angle_gamma   70.45201551
_symmetry_Int_Tables_number   1
_chemical_formula_structural   V5Si3
_chemical_formula_sum   'V10 Si6'
_cell_volume   205.76308345
_cell_formula_units_Z   2
loop_
 _symmetry_equiv_pos_site_id
 _symmetry_equiv_pos_as_xyz
  1  'x, y, z'
loop_
 _atom_site_type_symbol
 _atom_site_label
 _atom_site_symmetry_multiplicity
 _atom_site_fract_x
 _atom_site_fract_y
 _atom_site_fract_z
 _atom_site_occupancy
  V  V0  1  0.57428506  0.70087771  0.15033927  1
  V  V1  1  0.25000000  0.50001241  0.49998759  1
  V  V2  1  0.07428506  0.15033927  0.70087771  1
  V  V3  1  0.92571494  0.84966073  0.29912229  1
  V  V4  1  0.75000000  0.49998759  0.50001241  1
  V  V5  1  0.72472737  0.84969761  0.70086767  1
  V  V6  1  0.42571494  0.29912229  0.84966073  1
  V  V7  1  0.77527263  0.29913233  0.15030239  1
  V  V8  1  0.27527263  0.15030239  0.29913233  1
  V  V9  1  0.22472737  0.70086767  0.84969761  1
  Si  Si0  1  0.16607566  0.49997703  0.16791351  1
  Si  Si1  1  0.25000000  0.00001906  0.99998094  1
  Si  Si2  1  0.66607566  0.16791351  0.49997703  1
  Si  Si3  1  0.83392434  0.50002297  0.83208649  1
  Si  Si4  1  0.75000000  0.99998094  0.00001906  1
  Si  Si5  1  0.33392434  0.83208649  0.50002297  1
loop_
_geom_bond_atom_site_label_1
_geom_bond_atom_site_label_2
_geom_bond_distance
_geom_bond_site_symmetry_2
V1 V4 2.349637 1_455
V1 V4 2.349637 1_555
Si0 V8 2.471374 1_555
Si0 V3 2.471436 1_455
Si0 V9 2.490145 1_554
Si0 V6 2.490265 1_554
Si0 V1 2.491643 1_555
Si0 V4 2.491929 1_455
Si0 V0 2.701596 1_555
Si0 V7 2.701875 1_555
Si0 V7 2.702068 1_455
Si0 V0 2.702687 1_455
Si1 Si4 2.349637 1_446
Si1 Si4 2.349637 1_546
Si1 V3 2.507416 1_446
Si1 V0 2.507416 1_546
Si1 V8 2.507468 1_556
Si1 V9 2.507468 1_545
Si1 V5 2.507479 1_545
Si1 V7 2.507479 1_456
Si1 V2 2.507564 1_555
Si1 V6 2.507564 1_555
Si2 V7 2.471374 1_555
Si2 V6 2.471436 1_555
Si2 V5 2.490146 1_545
Si2 V3 2.490265 1_545
Si2 V4 2.491643 1_555
Si2 V1 2.491929 1_555
Si2 V2 2.701596 1_655
Si2 V8 2.701875 1_655
Si2 V8 2.702068 1_555
Si2 V2 2.702687 1_555
Si3 V5 2.471374 1_555
Si3 V2 2.471436 1_655
Si3 V7 2.490145 1_556
Si3 V0 2.490265 1_556
Si3 V4 2.491643 1_555
Si3 V1 2.491929 1_655
Si3 V6 2.701596 1_555
Si3 V9 2.701875 1_555
Si3 V9 2.702068 1_655
Si3 V6 2.702687 1_655
Si4 V2 2.507416 1_664
Si4 V6 2.507416 1_564
Si4 V5 2.507468 1_554
Si4 V7 2.507468 1_565
Si4 V8 2.507479 1_565
Si4 V9 2.507479 1_654
Si4 V3 2.507564 1_555
Si4 V0 2.507564 1_555
Si5 V9 2.471374 1_555
Si5 V0 2.471436 1_555
Si5 V8 2.490146 1_565
Si5 V2 2.490265 1_565
Si5 V1 2.491643 1_555
Si5 V4 2.491929 1_555
Si5 V3 2.701596 1_455
Si5 V5 2.701875 1_455
Si5 V5 2.702068 1_555
Si5 V3 2.702687 1_555
