# generated using pymatgen
data_Sr(AlCl4)2
_symmetry_space_group_name_H-M   'P 1'
_cell_length_a   11.41093838
_cell_length_b   11.41093864
_cell_length_c   13.06239836
_cell_angle_alpha   115.89897785
_cell_angle_beta   115.89897429
_cell_angle_gamma   89.99999955
_symmetry_Int_Tables_number   1
_chemical_formula_structural   Sr(AlCl4)2
_chemical_formula_sum   'Sr4 Al8 Cl32'
_cell_volume   1337.55979564
_cell_formula_units_Z   4
loop_
 _symmetry_equiv_pos_site_id
 _symmetry_equiv_pos_as_xyz
  1  'x, y, z'
loop_
 _atom_site_type_symbol
 _atom_site_label
 _atom_site_symmetry_multiplicity
 _atom_site_fract_x
 _atom_site_fract_y
 _atom_site_fract_z
 _atom_site_occupancy
  Sr  Sr0  1  0.37500000  0.12500000  0.75000000  1
  Sr  Sr1  1  0.62500000  0.87500000  0.25000000  1
  Sr  Sr2  1  0.12500000  0.37500000  0.25000000  1
  Sr  Sr3  1  0.87500000  0.62500000  0.75000000  1
  Al  Al0  1  0.71362710  0.75000000  0.50000000  1
  Al  Al1  1  0.28637290  0.25000000  0.50000000  1
  Al  Al2  1  0.75000000  0.28637290  0.00000000  1
  Al  Al3  1  0.78637290  0.25000000  0.50000000  1
  Al  Al4  1  0.25000000  0.21362710  -0.00000000  1
  Al  Al5  1  0.25000000  0.71362710  -0.00000000  1
  Al  Al6  1  0.75000000  0.78637290  0.00000000  1
  Al  Al7  1  0.21362710  0.75000000  0.50000000  1
  Cl  Cl0  1  0.59558332  0.16548864  0.32746596  1
  Cl  Cl1  1  0.66197732  0.59558332  0.82746596  1
  Cl  Cl2  1  0.33451136  0.90441668  0.17253404  1
  Cl  Cl3  1  0.83451136  0.26811735  0.17253404  1
  Cl  Cl4  1  0.90109330  0.41623020  0.52193539  1
  Cl  Cl5  1  0.76811735  0.33451136  0.67253404  1
  Cl  Cl6  1  0.09890670  0.58376980  0.47806461  1
  Cl  Cl7  1  0.37915791  0.39429380  0.47806461  1
  Cl  Cl8  1  0.60570520  0.90109330  0.02193539  1
  Cl  Cl9  1  0.08376980  0.59890670  0.97806461  1
  Cl  Cl10  1  0.16548864  0.73188265  0.82746596  1
  Cl  Cl11  1  0.41623020  0.62084209  0.02193539  1
  Cl  Cl12  1  0.12084209  0.91623020  0.52193539  1
  Cl  Cl13  1  0.23188265  0.66548864  0.32746596  1
  Cl  Cl14  1  0.66548864  0.09558332  0.82746596  1
  Cl  Cl15  1  0.33802268  0.40441668  0.17253404  1
  Cl  Cl16  1  0.87915791  0.08376980  0.47806461  1
  Cl  Cl17  1  0.40109330  0.10570520  0.52193539  1
  Cl  Cl18  1  0.39429380  0.09890670  0.97806461  1
  Cl  Cl19  1  0.90441668  0.83802268  0.67253404  1
  Cl  Cl20  1  0.26811735  0.33802268  0.67253404  1
  Cl  Cl21  1  0.89429480  0.87915791  0.97806461  1
  Cl  Cl22  1  0.16197732  0.23188265  0.82746596  1
  Cl  Cl23  1  0.58376980  0.37915791  0.97806461  1
  Cl  Cl24  1  0.10570520  0.12084209  0.02193539  1
  Cl  Cl25  1  0.73188265  0.66197732  0.32746596  1
  Cl  Cl26  1  0.09558332  0.16197732  0.32746596  1
  Cl  Cl27  1  0.59890670  0.89429480  0.47806461  1
  Cl  Cl28  1  0.83802268  0.76811735  0.17253404  1
  Cl  Cl29  1  0.91623020  0.40109330  0.02193539  1
  Cl  Cl30  1  0.40441668  0.83451136  0.67253404  1
  Cl  Cl31  1  0.62084209  0.60570520  0.52193539  1
loop_
_geom_bond_atom_site_label_1
_geom_bond_atom_site_label_2
_geom_bond_distance
_geom_bond_site_symmetry_2
Al0 Cl25 2.136375 1_555
Al0 Cl19 2.136375 1_555
Al0 Cl27 2.142736 1_555
Al0 Cl31 2.142736 1_555
Al1 Cl20 2.136375 1_555
Al1 Cl26 2.136375 1_555
Al1 Cl7 2.142727 1_555
Al1 Cl17 2.142736 1_555
Al2 Cl14 2.136375 1_554
Al2 Cl3 2.136375 1_555
Al2 Cl23 2.142736 1_554
Al2 Cl29 2.142736 1_555
Al3 Cl5 2.136375 1_555
Al3 Cl0 2.136375 1_555
Al3 Cl16 2.142736 1_555
Al3 Cl4 2.142736 1_555
Al4 Cl15 2.136375 1_555
Al4 Cl22 2.136375 1_554
Al4 Cl18 2.142727 1_554
Al4 Cl24 2.142736 1_555
Al5 Cl2 2.136375 1_555
Al5 Cl10 2.136375 1_554
Al5 Cl11 2.142736 1_555
Al5 Cl9 2.142736 1_554
Al6 Cl1 2.136375 1_554
Al6 Cl28 2.136375 1_555
Al6 Cl8 2.142736 1_555
Al6 Cl21 2.142736 1_554
Al7 Cl13 2.136375 1_555
Al7 Cl30 2.136375 1_555
Al7 Cl12 2.142736 1_555
Al7 Cl6 2.142736 1_555
Cl0 Sr1 3.080710 1_545
Cl1 Sr3 3.080710 1_555
Cl2 Sr1 3.080710 1_555
Cl3 Sr2 3.080710 1_655
Cl4 Sr3 3.035438 1_555
Cl5 Sr3 3.080710 1_555
Cl6 Sr2 3.035438 1_555
Cl7 Sr2 3.035442 1_555
Cl8 Sr1 3.035438 1_555
Cl9 Sr3 3.035438 1_455
Cl10 Sr3 3.080710 1_455
Cl11 Sr1 3.035438 1_555
Cl12 Sr0 3.035438 1_565
Cl13 Sr2 3.080710 1_555
Cl14 Sr0 3.080710 1_555
Cl15 Sr2 3.080710 1_555
Cl16 Sr1 3.035438 1_545
Cl17 Sr0 3.035438 1_555
Cl18 Sr0 3.035442 1_555
Cl19 Sr3 3.080710 1_555
Cl20 Sr0 3.080710 1_555
Cl21 Sr3 3.035438 1_555
Cl22 Sr0 3.080710 1_555
Cl23 Sr0 3.035438 1_555
Cl24 Sr2 3.035438 1_555
Cl25 Sr1 3.080710 1_555
Cl26 Sr2 3.080710 1_555
Cl27 Sr1 3.035438 1_555
Cl28 Sr1 3.080710 1_555
Cl29 Sr2 3.035438 1_655
Cl30 Sr0 3.080710 1_565
Cl31 Sr3 3.035438 1_555
