# generated using pymatgen
data_K2PbO3
_symmetry_space_group_name_H-M   'P 1'
_cell_length_a   6.02353639
_cell_length_b   6.96996876
_cell_length_c   10.57764246
_cell_angle_alpha   90.00000000
_cell_angle_beta   90.00000000
_cell_angle_gamma   90.00000000
_symmetry_Int_Tables_number   1
_chemical_formula_structural   K2PbO3
_chemical_formula_sum   'K8 Pb4 O12'
_cell_volume   444.09026507
_cell_formula_units_Z   4
loop_
 _symmetry_equiv_pos_site_id
 _symmetry_equiv_pos_as_xyz
  1  'x, y, z'
loop_
 _atom_site_type_symbol
 _atom_site_label
 _atom_site_symmetry_multiplicity
 _atom_site_fract_x
 _atom_site_fract_y
 _atom_site_fract_z
 _atom_site_occupancy
  K  K0  1  0.76845731  0.38799934  0.08581365  1
  K  K1  1  0.26845731  0.11200066  0.41418635  1
  K  K2  1  0.73154269  0.88799934  0.91418635  1
  K  K3  1  0.23154269  0.61200066  0.58581365  1
  K  K4  1  0.23154269  0.61200066  0.91418635  1
  K  K5  1  0.73154269  0.88799934  0.58581365  1
  K  K6  1  0.26845731  0.11200066  0.08581365  1
  K  K7  1  0.76845731  0.38799934  0.41418635  1
  Pb  Pb0  1  0.73222509  0.84914058  0.25000000  1
  Pb  Pb1  1  0.23222509  0.65085942  0.25000000  1
  Pb  Pb2  1  0.76777491  0.34914058  0.75000000  1
  Pb  Pb3  1  0.26777491  0.15085942  0.75000000  1
  O  O0  1  0.99472295  0.78157345  0.11542240  1
  O  O1  1  0.49472295  0.71842655  0.38457760  1
  O  O2  1  0.50527705  0.28157345  0.88457760  1
  O  O3  1  0.00527705  0.21842655  0.61542240  1
  O  O4  1  0.00527705  0.21842655  0.88457760  1
  O  O5  1  0.50527705  0.28157345  0.61542240  1
  O  O6  1  0.49472295  0.71842655  0.11542240  1
  O  O7  1  0.99472295  0.78157345  0.38457760  1
  O  O8  1  0.12596670  0.37381503  0.25000000  1
  O  O9  1  0.62596670  0.12618497  0.25000000  1
  O  O10  1  0.37403330  0.87381503  0.75000000  1
  O  O11  1  0.87403330  0.62618497  0.75000000  1
loop_
_geom_bond_atom_site_label_1
_geom_bond_atom_site_label_2
_geom_bond_distance
_geom_bond_site_symmetry_2
K0 O9 2.661363 1_555
K0 O2 2.755775 1_554
K0 O8 2.768276 1_655
K0 O4 2.821836 1_654
K0 O6 2.849721 1_555
K0 O0 3.079087 1_555
K1 O8 2.661363 1_555
K1 O3 2.755775 1_555
K1 O9 2.768276 1_555
K1 O5 2.821836 1_555
K1 O7 2.849721 1_445
K1 O1 3.079087 1_545
K2 O11 2.661363 1_555
K2 O0 2.755775 1_556
K2 O10 2.768276 1_555
K2 O6 2.821836 1_556
K2 O4 2.849721 1_665
K2 O2 3.079087 1_565
K3 O10 2.661363 1_555
K3 O1 2.755775 1_555
K3 O11 2.768276 1_455
K3 O7 2.821836 1_455
K3 O5 2.849721 1_555
K3 O3 3.079087 1_555
K4 O10 2.661363 1_555
K4 O6 2.755775 1_556
K4 O11 2.768276 1_455
K4 O0 2.821836 1_456
K4 O2 2.849721 1_555
K4 O4 3.079087 1_555
K5 O11 2.661363 1_555
K5 O7 2.755775 1_555
K5 O10 2.768276 1_555
K5 O1 2.821836 1_555
K5 O3 2.849721 1_665
K5 O5 3.079087 1_565
K6 O8 2.661363 1_555
K6 O4 2.755775 1_554
K6 O9 2.768276 1_555
K6 O2 2.821836 1_554
K6 O0 2.849721 1_445
K6 O6 3.079087 1_545
K7 O9 2.661363 1_555
K7 O5 2.755775 1_555
K7 O8 2.768276 1_655
K7 O3 2.821836 1_655
K7 O1 2.849721 1_555
K7 O7 3.079087 1_555
O0 Pb0 2.179050 1_555
O0 Pb1 2.214288 1_655
O1 Pb1 2.179050 1_555
O1 Pb0 2.214288 1_555
O2 Pb2 2.179050 1_555
O2 Pb3 2.214288 1_555
O3 Pb3 2.179050 1_555
O3 Pb2 2.214288 1_455
O4 Pb3 2.179050 1_555
O4 Pb2 2.214288 1_455
O5 Pb2 2.179050 1_555
O5 Pb3 2.214288 1_555
O6 Pb1 2.179050 1_555
O6 Pb0 2.214288 1_555
O7 Pb0 2.179050 1_555
O7 Pb1 2.214288 1_655
O8 Pb1 2.034304 1_555
O9 Pb0 2.034304 1_545
O10 Pb3 2.034304 1_565
O11 Pb2 2.034304 1_555
