# generated using pymatgen
data_NaMg4V3O12
_symmetry_space_group_name_H-M   'P 1'
_cell_length_a   10.92927811
_cell_length_b   10.92927811
_cell_length_c   10.92927811
_cell_angle_alpha   142.79590676
_cell_angle_beta   142.79590676
_cell_angle_gamma   53.63170189
_symmetry_Int_Tables_number   1
_chemical_formula_structural   NaMg4V3O12
_chemical_formula_sum   'Na2 Mg8 V6 O24'
_cell_volume   474.22718362
_cell_formula_units_Z   2
loop_
 _symmetry_equiv_pos_site_id
 _symmetry_equiv_pos_as_xyz
  1  'x, y, z'
loop_
 _atom_site_type_symbol
 _atom_site_label
 _atom_site_symmetry_multiplicity
 _atom_site_fract_x
 _atom_site_fract_y
 _atom_site_fract_z
 _atom_site_occupancy
  Na  Na0  1  0.25000000  0.75000000  0.50000000  1
  Na  Na1  1  0.50000000  0.50000000  0.00000000  1
  Mg  Mg0  1  0.97573800  0.47573800  0.50000000  1
  Mg  Mg1  1  0.52426200  0.02426200  0.50000000  1
  Mg  Mg2  1  0.77426200  0.77426200  0.00000000  1
  Mg  Mg3  1  0.22573800  0.22573800  0.00000000  1
  Mg  Mg4  1  0.11652000  0.12500000  0.49152000  1
  Mg  Mg5  1  0.87500000  0.36652000  0.99152000  1
  Mg  Mg6  1  0.37500000  0.88348000  0.00848000  1
  Mg  Mg7  1  0.63348000  0.62500000  0.50848000  1
  V  V0  1  0.75000000  0.25000000  0.50000000  1
  V  V1  1  0.00000000  0.00000000  0.00000000  1
  V  V2  1  0.22352500  0.62500000  0.09852500  1
  V  V3  1  0.37500000  0.47352500  0.59852500  1
  V  V4  1  0.87500000  0.77647500  0.40147500  1
  V  V5  1  0.52647500  0.12500000  0.90147500  1
  O  O0  1  0.85076300  0.08746500  0.34686600  1
  O  O1  1  0.91253500  0.25940200  0.76329900  1
  O  O2  1  0.49610300  0.14923700  0.23670100  1
  O  O3  1  0.89923700  0.74610300  0.73670100  1
  O  O4  1  0.00940200  0.16253500  0.26329900  1
  O  O5  1  0.74059800  0.50389700  0.65313400  1
  O  O6  1  0.25389700  0.99059800  0.15313400  1
  O  O7  1  0.83746500  0.10076300  0.84686600  1
  O  O8  1  0.07617500  0.80648400  0.18651400  1
  O  O9  1  0.19351600  0.38003100  0.26969200  1
  O  O10  1  0.11033900  0.92382500  0.73030800  1
  O  O11  1  0.67382500  0.36033900  0.23030800  1
  O  O12  1  0.13003100  0.44351600  0.76969200  1
  O  O13  1  0.61996900  0.88966100  0.81348600  1
  O  O14  1  0.63966100  0.86996900  0.31348600  1
  O  O15  1  0.55648400  0.32617500  0.68651400  1
  O  O16  1  0.29932800  0.10974000  0.79149500  1
  O  O17  1  0.89026000  0.68175500  0.18958800  1
  O  O18  1  0.49216700  0.70067200  0.81041200  1
  O  O19  1  0.45067200  0.74216700  0.31041200  1
  O  O20  1  0.43175500  0.14026000  0.68958800  1
  O  O21  1  0.31824500  0.50783300  0.20850500  1
  O  O22  1  0.25783300  0.56824500  0.70850500  1
  O  O23  1  0.85974000  0.54932800  0.29149500  1
loop_
_geom_bond_atom_site_label_1
_geom_bond_atom_site_label_2
_geom_bond_distance
_geom_bond_site_symmetry_2
Na0 O17 2.392294 1_455
Na0 O16 2.392294 1_565
Na0 O21 2.392294 1_555
Na0 O18 2.392294 1_555
Na0 O10 2.708995 1_555
Na0 O13 2.708995 1_555
Na0 O9 2.708999 1_555
Na0 O8 2.709004 1_555
Na1 O22 2.392294 1_554
Na1 O23 2.392294 1_555
Na1 O20 2.392294 1_554
Na1 O19 2.392294 1_555
Na1 O11 2.708995 1_555
Na1 O14 2.708995 1_555
Na1 O12 2.708999 1_554
Na1 O15 2.709004 1_554
Mg0 O3 2.112202 1_555
Mg0 O4 2.112208 1_655
Mg0 O22 2.134325 1_655
Mg0 O23 2.134325 1_555
Mg0 O11 2.164957 1_555
Mg0 O12 2.164965 1_655
Mg1 O6 2.112202 1_545
Mg1 O7 2.112207 1_555
Mg1 O20 2.134325 1_555
Mg1 O19 2.134325 1_545
Mg1 O14 2.164957 1_545
Mg1 O15 2.164960 1_555
Mg2 O5 2.112202 1_554
Mg2 O0 2.112207 1_565
Mg2 O17 2.134325 1_555
Mg2 O18 2.134325 1_554
Mg2 O13 2.164957 1_554
Mg2 O8 2.164960 1_655
Mg3 O2 2.112202 1_555
Mg3 O1 2.112208 1_454
Mg3 O21 2.134325 1_555
Mg3 O16 2.134325 1_554
Mg3 O10 2.164957 1_544
Mg3 O9 2.164965 1_555
Mg4 O4 2.041838 1_555
Mg4 O0 2.041843 1_455
Mg4 O12 2.102014 1_555
Mg4 O8 2.102014 1_545
Mg4 O16 2.193086 1_555
Mg4 O20 2.193086 1_555
Mg5 O1 2.041838 1_555
Mg5 O7 2.041843 1_555
Mg5 O9 2.102014 1_656
Mg5 O15 2.102014 1_555
Mg5 O17 2.193086 1_556
Mg5 O23 2.193086 1_556
Mg6 O2 2.041848 1_565
Mg6 O6 2.041848 1_555
Mg6 O14 2.102020 1_555
Mg6 O10 2.102020 1_554
Mg6 O18 2.193086 1_554
Mg6 O22 2.193086 1_554
Mg7 O3 2.041848 1_555
Mg7 O5 2.041848 1_555
Mg7 O11 2.102020 1_555
Mg7 O13 2.102020 1_555
Mg7 O21 2.193086 1_555
Mg7 O19 2.193086 1_555
O0 V0 1.746272 1_555
O1 V0 1.746273 1_555
O2 V0 1.746270 1_555
O3 V1 1.746270 1_666
O4 V1 1.746273 1_555
O5 V0 1.746270 1_555
O6 V1 1.746270 1_565
O7 V1 1.746272 1_656
O8 V2 1.758628 1_555
O9 V3 1.758625 1_555
O10 V4 1.758626 1_455
O11 V5 1.758626 1_554
O12 V2 1.758625 1_556
O13 V5 1.758626 1_565
O14 V4 1.758626 1_555
O15 V3 1.758628 1_555
O16 V5 1.747539 1_555
O17 V4 1.747539 1_555
O18 V3 1.747539 1_555
O19 V2 1.747539 1_555
O20 V5 1.747539 1_555
O21 V2 1.747539 1_555
O22 V3 1.747539 1_555
O23 V4 1.747539 1_555
