# generated using pymatgen
data_SrFe2(PO4)2
_symmetry_space_group_name_H-M   'P 1'
_cell_length_a   6.95984600
_cell_length_b   9.53211400
_cell_length_c   10.69631585
_cell_angle_alpha   70.20809994
_cell_angle_beta   90.00000000
_cell_angle_gamma   90.00000000
_symmetry_Int_Tables_number   1
_chemical_formula_structural   SrFe2(PO4)2
_chemical_formula_sum   'Sr4 Fe8 P8 O32'
_cell_volume   667.69752662
_cell_formula_units_Z   4
loop_
 _symmetry_equiv_pos_site_id
 _symmetry_equiv_pos_as_xyz
  1  'x, y, z'
loop_
 _atom_site_type_symbol
 _atom_site_label
 _atom_site_symmetry_multiplicity
 _atom_site_fract_x
 _atom_site_fract_y
 _atom_site_fract_z
 _atom_site_occupancy
  Sr  Sr0  1  0.88025900  0.30499700  0.98246000  1
  Sr  Sr1  1  0.38025900  0.69500300  0.51754000  1
  Sr  Sr2  1  0.11974100  0.69500300  0.01754000  1
  Sr  Sr3  1  0.61974100  0.30499700  0.48246000  1
  Fe  Fe0  1  0.34847200  0.07949600  0.88216500  1
  Fe  Fe1  1  0.84847200  0.92050400  0.61783500  1
  Fe  Fe2  1  0.65152800  0.92050400  0.11783500  1
  Fe  Fe3  1  0.15152800  0.07949600  0.38216500  1
  Fe  Fe4  1  0.10725000  0.28791400  0.66654900  1
  Fe  Fe5  1  0.60725000  0.71208600  0.83345100  1
  Fe  Fe6  1  0.89275000  0.71208600  0.33345100  1
  Fe  Fe7  1  0.39275000  0.28791400  0.16654900  1
  P  P0  1  0.82589100  0.03536200  0.82725500  1
  P  P1  1  0.32589100  0.96463800  0.67274500  1
  P  P2  1  0.17410900  0.96463800  0.17274500  1
  P  P3  1  0.67410900  0.03536200  0.32725500  1
  P  P4  1  0.14520200  0.42209600  0.38030800  1
  P  P5  1  0.64520200  0.57790400  0.11969200  1
  P  P6  1  0.85479800  0.57790400  0.61969200  1
  P  P7  1  0.35479800  0.42209600  0.88030800  1
  O  O0  1  0.78719900  0.10711100  0.67564100  1
  O  O1  1  0.28719900  0.89288900  0.82435900  1
  O  O2  1  0.21280100  0.89288900  0.32435900  1
  O  O3  1  0.71280100  0.10711100  0.17564100  1
  O  O4  1  0.00793400  0.11141600  0.85911700  1
  O  O5  1  0.50793400  0.88858400  0.64088300  1
  O  O6  1  0.99206600  0.88858400  0.14088300  1
  O  O7  1  0.49206600  0.11141600  0.35911700  1
  O  O8  1  0.34676700  0.13533500  0.64496700  1
  O  O9  1  0.84676700  0.86466500  0.85503300  1
  O  O10  1  0.65323300  0.86466500  0.35503300  1
  O  O11  1  0.15323300  0.13533500  0.14496700  1
  O  O12  1  0.65640400  0.06152400  0.91376500  1
  O  O13  1  0.15640400  0.93847600  0.58623500  1
  O  O14  1  0.34359600  0.93847600  0.08623500  1
  O  O15  1  0.84359600  0.06152400  0.41376500  1
  O  O16  1  0.91952500  0.43159600  0.72612500  1
  O  O17  1  0.41952500  0.56840400  0.77387500  1
  O  O18  1  0.08047500  0.56840400  0.27387500  1
  O  O19  1  0.58047500  0.43159600  0.22612500  1
  O  O20  1  0.31427800  0.44866100  0.46379600  1
  O  O21  1  0.81427800  0.55133900  0.03620400  1
  O  O22  1  0.68572200  0.55133900  0.53620400  1
  O  O23  1  0.18572200  0.44866100  0.96379600  1
  O  O24  1  0.98347500  0.34521000  0.48136600  1
  O  O25  1  0.48347500  0.65479000  0.01863400  1
  O  O26  1  0.01652500  0.65479000  0.51863400  1
  O  O27  1  0.51652500  0.34521000  0.98136600  1
  O  O28  1  0.30289300  0.30651700  0.80953500  1
  O  O29  1  0.80289300  0.69348300  0.69046500  1
  O  O30  1  0.69710700  0.69348300  0.19046500  1
  O  O31  1  0.19710700  0.30651700  0.30953500  1
loop_
_geom_bond_atom_site_label_1
_geom_bond_atom_site_label_2
_geom_bond_distance
_geom_bond_site_symmetry_2
Fe0 O28 2.061195 1_555
Fe0 O1 2.114939 1_545
Fe0 O14 2.141411 1_546
Fe0 O12 2.167375 1_555
Fe0 O4 2.391630 1_555
Fe0 O8 2.409569 1_555
Fe1 O29 2.061195 1_555
Fe1 O0 2.114939 1_565
Fe1 O15 2.141411 1_565
Fe1 O13 2.167375 1_655
Fe1 O5 2.391630 1_555
Fe1 O9 2.409569 1_555
Fe2 O30 2.061195 1_555
Fe2 O3 2.114939 1_565
Fe2 O12 2.141411 1_564
Fe2 O14 2.167375 1_555
Fe2 O6 2.391630 1_555
Fe2 O10 2.409569 1_555
Fe3 O31 2.061195 1_555
Fe3 O2 2.114939 1_545
Fe3 O13 2.141411 1_545
Fe3 O15 2.167375 1_455
Fe3 O7 2.391630 1_555
Fe3 O11 2.409569 1_555
Fe4 O24 2.057000 1_455
Fe4 O28 2.099600 1_555
Fe4 O16 2.140082 1_455
Fe4 O8 2.274826 1_555
Fe4 O4 2.281257 1_555
Fe5 O25 2.057000 1_556
Fe5 O29 2.099600 1_555
Fe5 O17 2.140082 1_555
Fe5 O9 2.274826 1_555
Fe5 O5 2.281257 1_555
Fe6 O26 2.057000 1_655
Fe6 O30 2.099600 1_555
Fe6 O18 2.140082 1_655
Fe6 O10 2.274826 1_555
Fe6 O6 2.281257 1_555
Fe7 O27 2.057000 1_554
Fe7 O31 2.099600 1_555
Fe7 O19 2.140082 1_555
Fe7 O11 2.274826 1_555
Fe7 O7 2.281257 1_555
O0 P0 1.555347 1_555
O0 Sr3 2.558621 1_555
O1 P1 1.555347 1_555
O1 Sr2 2.558621 1_556
O2 P2 1.555347 1_555
O2 Sr1 2.558621 1_555
O3 P3 1.555347 1_555
O3 Sr0 2.558621 1_554
O4 P0 1.553800 1_455
O4 Sr0 2.753857 1_455
O5 P1 1.553800 1_555
O5 Sr1 2.753857 1_555
O6 P2 1.553800 1_655
O6 Sr2 2.753857 1_655
O7 P3 1.553800 1_555
O7 Sr3 2.753857 1_555
O8 P1 1.558673 1_545
O8 Sr3 2.709727 1_555
O9 P0 1.558673 1_565
O9 Sr2 2.709727 1_656
O10 P3 1.558673 1_565
O10 Sr1 2.709727 1_555
O11 P2 1.558673 1_545
O11 Sr0 2.709727 1_454
O12 P0 1.570407 1_555
O12 Sr0 3.083549 1_555
O13 P1 1.570407 1_555
O13 Sr1 3.083549 1_555
O14 P2 1.570407 1_555
O14 Sr2 3.083549 1_555
O15 P3 1.570407 1_555
O15 Sr3 3.083549 1_555
O16 P6 1.539078 1_555
O16 Sr0 2.609200 1_555
O17 P7 1.539078 1_555
O17 Sr1 2.609200 1_555
O18 P4 1.539078 1_555
O18 Sr2 2.609200 1_555
O19 P5 1.539078 1_555
O19 Sr3 2.609200 1_555
O20 P4 1.549018 1_555
O20 Sr3 2.499960 1_555
O20 Sr1 2.639952 1_555
O21 P5 1.549018 1_555
O21 Sr2 2.499960 1_655
O21 Sr0 2.639952 1_554
O22 P6 1.549018 1_555
O22 Sr1 2.499960 1_555
O22 Sr3 2.639952 1_555
O23 P7 1.549018 1_555
O23 Sr0 2.499960 1_455
O23 Sr2 2.639952 1_556
O24 P4 1.560782 1_655
O24 Sr3 2.559822 1_555
O25 P5 1.560782 1_555
O25 Sr2 2.559822 1_555
O26 P6 1.560782 1_455
O26 Sr1 2.559822 1_555
O27 P7 1.560782 1_555
O27 Sr0 2.559822 1_555
O28 P7 1.575479 1_555
O29 P6 1.575479 1_555
O30 P5 1.575479 1_555
O31 P4 1.575479 1_555
