# generated using pymatgen
data_Ba7Ca2Mn3V2O20
_symmetry_space_group_name_H-M   'P 1'
_cell_length_a   17.70297470
_cell_length_b   17.70297491
_cell_length_c   17.70297502
_cell_angle_alpha   19.23036361
_cell_angle_beta   19.23036214
_cell_angle_gamma   19.23036466
_symmetry_Int_Tables_number   1
_chemical_formula_structural   Ba7Ca2Mn3V2O20
_chemical_formula_sum   'Ba7 Ca2 Mn3 V2 O20'
_cell_volume   526.12227227
_cell_formula_units_Z   1
loop_
 _symmetry_equiv_pos_site_id
 _symmetry_equiv_pos_as_xyz
  1  'x, y, z'
loop_
 _atom_site_type_symbol
 _atom_site_label
 _atom_site_symmetry_multiplicity
 _atom_site_fract_x
 _atom_site_fract_y
 _atom_site_fract_z
 _atom_site_occupancy
  Ba  Ba0  1  0.61166900  0.61166900  0.61166900  1
  Ba  Ba1  1  0.38833100  0.38833100  0.38833100  1
  Ba  Ba2  1  0.85410300  0.85410300  0.85410300  1
  Ba  Ba3  1  0.00000000  0.00000000  0.00000000  1
  Ba  Ba4  1  0.14589700  0.14589700  0.14589700  1
  Ba  Ba5  1  0.77389600  0.77389600  0.77389600  1
  Ba  Ba6  1  0.22610400  0.22610400  0.22610400  1
  Ca  Ca0  1  0.07465000  0.07465000  0.07465000  1
  Ca  Ca1  1  0.92535000  0.92535000  0.92535000  1
  Mn  Mn0  1  0.45055600  0.45055600  0.45055600  1
  Mn  Mn1  1  0.54944400  0.54944400  0.54944400  1
  Mn  Mn2  1  0.50000000  0.50000000  0.50000000  1
  V  V0  1  0.69705200  0.69705200  0.69705200  1
  V  V1  1  0.30294800  0.30294800  0.30294800  1
  O  O0  1  0.18500300  0.62255300  0.62255300  1
  O  O1  1  0.26333100  0.72190500  0.72190500  1
  O  O2  1  0.66435800  0.66435800  0.66435800  1
  O  O3  1  0.27809500  0.27809500  0.73666900  1
  O  O4  1  0.38954100  0.86827400  0.86827400  1
  O  O5  1  0.61045900  0.13172600  0.13172600  1
  O  O6  1  0.62255300  0.62255300  0.18500300  1
  O  O7  1  0.13172600  0.61045900  0.13172600  1
  O  O8  1  0.33564200  0.33564200  0.33564200  1
  O  O9  1  0.86827400  0.86827400  0.38954100  1
  O  O10  1  0.27809500  0.73666900  0.27809500  1
  O  O11  1  0.72190500  0.26333100  0.72190500  1
  O  O12  1  0.73666900  0.27809500  0.27809500  1
  O  O13  1  0.13172600  0.13172600  0.61045900  1
  O  O14  1  0.37744700  0.81499700  0.37744700  1
  O  O15  1  0.81499700  0.37744700  0.37744700  1
  O  O16  1  0.37744700  0.37744700  0.81499700  1
  O  O17  1  0.72190500  0.72190500  0.26333100  1
  O  O18  1  0.86827400  0.38954100  0.86827400  1
  O  O19  1  0.62255300  0.18500300  0.62255300  1
loop_
_geom_bond_atom_site_label_1
_geom_bond_atom_site_label_2
_geom_bond_distance
_geom_bond_site_symmetry_2
Ba0 O1 2.717510 1_555
Ba0 O17 2.717510 1_555
Ba0 O11 2.717510 1_555
Ba0 O2 2.745717 1_555
Ba0 O7 3.034037 1_655
Ba0 O7 3.034037 1_556
Ba0 O5 3.034037 1_565
Ba0 O5 3.034037 1_556
Ba0 O13 3.034037 1_655
Ba0 O13 3.034037 1_565
Ba1 O12 2.717510 1_555
Ba1 O3 2.717510 1_555
Ba1 O10 2.717510 1_555
Ba1 O8 2.745717 1_555
Ba1 O18 3.034037 1_455
Ba1 O18 3.034037 1_554
Ba1 O4 3.034037 1_545
Ba1 O4 3.034037 1_554
Ba1 O9 3.034037 1_455
Ba1 O9 3.034037 1_545
Ba2 O14 2.967530 1_556
Ba2 O14 2.967530 1_655
Ba2 O15 2.967530 1_556
Ba2 O15 2.967530 1_565
Ba2 O16 2.967530 1_655
Ba2 O16 2.967530 1_565
Ba2 O6 2.993558 1_556
Ba2 O0 2.993559 1_655
Ba2 O19 2.993559 1_565
Ba2 O1 3.121980 1_655
Ba2 O17 3.121980 1_556
Ba2 O11 3.121980 1_565
Ba3 O4 2.822203 1_544
Ba3 O5 2.822203 1_455
Ba3 O9 2.822203 1_445
Ba3 O13 2.822203 1_554
Ba3 O18 2.822203 1_454
Ba3 O7 2.822203 1_545
Ba4 O19 2.967530 1_554
Ba4 O19 2.967530 1_455
Ba4 O0 2.967530 1_554
Ba4 O0 2.967530 1_545
Ba4 O6 2.967530 1_455
Ba4 O6 2.967530 1_545
Ba4 O16 2.993558 1_554
Ba4 O15 2.993559 1_455
Ba4 O14 2.993559 1_545
Ba4 O12 3.121980 1_455
Ba4 O3 3.121980 1_554
Ba4 O10 3.121980 1_545
Ba5 O0 2.689783 1_655
Ba5 O6 2.689783 1_556
Ba5 O19 2.689783 1_565
Ba5 O10 3.002367 1_556
Ba5 O10 3.002367 1_655
Ba5 O12 3.002367 1_556
Ba5 O12 3.002367 1_565
Ba5 O3 3.002367 1_565
Ba5 O3 3.002367 1_655
Ba6 O15 2.689783 1_455
Ba6 O16 2.689783 1_554
Ba6 O14 2.689783 1_545
Ba6 O11 3.002367 1_554
Ba6 O11 3.002367 1_455
Ba6 O1 3.002367 1_554
Ba6 O1 3.002367 1_545
Ba6 O17 3.002367 1_545
Ba6 O17 3.002367 1_455
Ca0 O3 2.202318 1_554
Ca0 O12 2.202318 1_455
Ca0 O10 2.202318 1_545
Ca0 O9 2.461168 1_445
Ca0 O4 2.461168 1_544
Ca0 O18 2.461168 1_454
Ca1 O17 2.202318 1_556
Ca1 O1 2.202318 1_655
Ca1 O11 2.202318 1_565
Ca1 O13 2.461168 1_665
Ca1 O5 2.461168 1_566
Ca1 O7 2.461168 1_656
Mn0 O3 1.869518 1_555
Mn0 O12 1.869518 1_555
Mn0 O10 1.869518 1_555
Mn0 O6 2.022002 1_555
Mn0 O0 2.022002 1_555
Mn0 O19 2.022002 1_555
Mn1 O17 1.869518 1_555
Mn1 O1 1.869518 1_555
Mn1 O11 1.869518 1_555
Mn1 O16 2.022002 1_555
Mn1 O15 2.022002 1_555
Mn1 O14 2.022002 1_555
Mn2 O0 1.925050 1_555
Mn2 O15 1.925050 1_555
Mn2 O16 1.925050 1_555
Mn2 O6 1.925050 1_555
Mn2 O14 1.925050 1_555
Mn2 O19 1.925050 1_555
O2 V0 1.703742 1_555
O4 V0 1.743569 1_555
O5 V1 1.743569 1_555
O7 V1 1.743569 1_555
O8 V1 1.703742 1_555
O9 V0 1.743569 1_555
O13 V1 1.743569 1_555
O18 V0 1.743569 1_555
