# generated using pymatgen
data_NaSiBO4
_symmetry_space_group_name_H-M   'P 1'
_cell_length_a   7.66444981
_cell_length_b   7.94917185
_cell_length_c   13.89137874
_cell_angle_alpha   90.07743021
_cell_angle_beta   90.00000000
_cell_angle_gamma   90.00000000
_symmetry_Int_Tables_number   1
_chemical_formula_structural   NaSiBO4
_chemical_formula_sum   'Na12 Si12 B12 O48'
_cell_volume   846.34576633
_cell_formula_units_Z   12
loop_
 _symmetry_equiv_pos_site_id
 _symmetry_equiv_pos_as_xyz
  1  'x, y, z'
loop_
 _atom_site_type_symbol
 _atom_site_label
 _atom_site_symmetry_multiplicity
 _atom_site_fract_x
 _atom_site_fract_y
 _atom_site_fract_z
 _atom_site_occupancy
  Na  Na0  1  0.98719125  0.75256366  0.75002901  1
  Na  Na1  1  0.48719125  0.74743634  0.74997099  1
  Na  Na2  1  0.53109423  0.27020921  0.91185211  1
  Na  Na3  1  0.03109423  0.22979079  0.58814789  1
  Na  Na4  1  0.46286585  0.27144669  0.56754853  1
  Na  Na5  1  0.53713415  0.72855331  0.43245147  1
  Na  Na6  1  0.51280875  0.25256366  0.25002901  1
  Na  Na7  1  0.96286585  0.22855331  0.93245147  1
  Na  Na8  1  0.03713415  0.77144669  0.06754853  1
  Na  Na9  1  0.46890577  0.72979079  0.08814789  1
  Na  Na10  1  0.01280875  0.24743634  0.24997099  1
  Na  Na11  1  0.96890577  0.77020921  0.41185211  1
  Si  Si0  1  0.20981990  0.07961619  0.76224498  1
  Si  Si1  1  0.70434584  0.93214065  0.59335953  1
  Si  Si2  1  0.70981990  0.42038381  0.73775502  1
  Si  Si3  1  0.79018010  0.92038381  0.23775502  1
  Si  Si4  1  0.29671456  0.10764856  0.08105399  1
  Si  Si5  1  0.29018010  0.57961619  0.26224498  1
  Si  Si6  1  0.79565416  0.43214065  0.09335953  1
  Si  Si7  1  0.70328544  0.89235144  0.91894601  1
  Si  Si8  1  0.20328544  0.60764856  0.58105399  1
  Si  Si9  1  0.29565416  0.06785935  0.40664047  1
  Si  Si10  1  0.79671456  0.39235144  0.41894601  1
  Si  Si11  1  0.20434584  0.56785935  0.90664047  1
  B  B0  1  0.67233008  0.10095378  0.08125687  1
  B  B1  1  0.17070611  0.92133486  0.23883146  1
  B  B2  1  0.17233008  0.39904622  0.41874313  1
  B  B3  1  0.32681179  0.93331683  0.59073787  1
  B  B4  1  0.82766992  0.60095378  0.58125687  1
  B  B5  1  0.32929389  0.42133486  0.73883146  1
  B  B6  1  0.32766992  0.89904622  0.91874313  1
  B  B7  1  0.82929389  0.07866514  0.76116854  1
  B  B8  1  0.17318821  0.43331683  0.09073787  1
  B  B9  1  0.82681179  0.56668317  0.90926213  1
  B  B10  1  0.67070611  0.57866514  0.26116854  1
  B  B11  1  0.67318821  0.06668317  0.40926213  1
  O  O0  1  0.33138240  0.44769421  0.84337825  1
  O  O1  1  0.72178086  0.73525929  0.62411404  1
  O  O2  1  0.25367269  0.25828272  0.71226326  1
  O  O3  1  0.74871628  0.44843792  0.97945138  1
  O  O4  1  0.50947091  0.42823360  0.70071281  1
  O  O5  1  0.66861760  0.55230579  0.15662175  1
  O  O6  1  0.99457763  0.49010057  0.11333111  1
  O  O7  1  0.75128372  0.94843792  0.47945138  1
  O  O8  1  0.49457763  0.00989943  0.38666889  1
  O  O9  1  0.16490458  0.54539060  0.35445780  1
  O  O10  1  0.50417427  0.83031090  0.93340478  1
  O  O11  1  0.49582573  0.16968910  0.06659522  1
  O  O12  1  0.49052909  0.57176640  0.29928719  1
  O  O13  1  0.50542237  0.99010057  0.61333111  1
  O  O14  1  0.25377669  0.94596871  0.01342707  1
  O  O15  1  0.22178086  0.76474071  0.87588596  1
  O  O16  1  0.00417427  0.66968910  0.56659522  1
  O  O17  1  0.83041319  0.73788277  0.94938153  1
  O  O18  1  0.77821914  0.23525929  0.12411404  1
  O  O19  1  0.75377669  0.55403129  0.48657293  1
  O  O20  1  0.00542237  0.50989943  0.88666889  1
  O  O21  1  0.77327222  0.06569968  0.31982663  1
  O  O22  1  0.33041319  0.76211723  0.55061847  1
  O  O23  1  0.83138240  0.05230579  0.65662175  1
  O  O24  1  0.75367269  0.24171728  0.78773674  1
  O  O25  1  0.99582573  0.33031090  0.43340478  1
  O  O26  1  0.24632731  0.75828272  0.21226326  1
  O  O27  1  0.76911105  0.44206185  0.30679514  1
  O  O28  1  0.26911105  0.05793815  0.19320486  1
  O  O29  1  0.22672778  0.93430032  0.68017337  1
  O  O30  1  0.00947091  0.07176640  0.79928719  1
  O  O31  1  0.99052909  0.92823360  0.20071281  1
  O  O32  1  0.27821914  0.26474071  0.37588596  1
  O  O33  1  0.66490458  0.95460940  0.14554220  1
  O  O34  1  0.27327222  0.43430032  0.18017337  1
  O  O35  1  0.66958681  0.23788277  0.44938153  1
  O  O36  1  0.24622331  0.44596871  0.51342707  1
  O  O37  1  0.25128372  0.55156208  0.02054862  1
  O  O38  1  0.83509542  0.45460940  0.64554220  1
  O  O39  1  0.72672778  0.56569968  0.81982663  1
  O  O40  1  0.74622331  0.05403129  0.98657293  1
  O  O41  1  0.74632731  0.74171728  0.28773674  1
  O  O42  1  0.16861760  0.94769421  0.34337825  1
  O  O43  1  0.24871628  0.05156208  0.52054862  1
  O  O44  1  0.33509542  0.04539060  0.85445780  1
  O  O45  1  0.23088895  0.55793815  0.69320486  1
  O  O46  1  0.73088895  0.94206185  0.80679514  1
  O  O47  1  0.16958681  0.26211723  0.05061847  1
loop_
_geom_bond_atom_site_label_1
_geom_bond_atom_site_label_2
_geom_bond_distance
_geom_bond_site_symmetry_2
Na0 O15 2.509654 1_655
Na0 O29 2.530428 1_655
Na0 O45 2.549914 1_655
Na0 O46 2.597431 1_555
Na0 O30 2.632692 1_665
Na0 O16 2.634286 1_655
Na0 O39 2.671272 1_555
Na0 O1 2.686225 1_555
Na0 O20 2.711684 1_655
Na1 O1 2.509654 1_555
Na1 O39 2.530428 1_555
Na1 O46 2.549914 1_555
Na1 O45 2.597431 1_555
Na1 O4 2.632692 1_555
Na1 O10 2.634286 1_555
Na1 O29 2.671272 1_555
Na1 O15 2.686225 1_555
Na1 O13 2.711684 1_555
Na2 O0 2.289522 1_555
Na2 O11 2.310185 1_556
Na2 O3 2.380656 1_555
Na2 O24 2.435798 1_555
Na2 O44 2.466230 1_555
Na2 O40 2.598832 1_555
Na3 O23 2.289522 1_455
Na3 O25 2.310185 1_455
Na3 O43 2.380656 1_555
Na3 O2 2.435798 1_555
Na3 O38 2.466230 1_455
Na3 O36 2.598832 1_555
Na4 O4 2.257561 1_555
Na4 O36 2.291234 1_555
Na4 O35 2.296707 1_555
Na4 O13 2.348723 1_545
Na4 O43 2.484418 1_555
Na4 O2 2.573617 1_555
Na5 O12 2.257561 1_555
Na5 O19 2.291234 1_555
Na5 O22 2.296707 1_555
Na5 O8 2.348723 1_565
Na5 O7 2.484418 1_555
Na5 O41 2.573617 1_555
Na6 O32 2.509654 1_555
Na6 O34 2.530428 1_555
Na6 O28 2.549914 1_555
Na6 O27 2.597431 1_555
Na6 O12 2.632692 1_555
Na6 O11 2.634286 1_555
Na6 O21 2.671272 1_555
Na6 O18 2.686225 1_555
Na6 O8 2.711684 1_555
Na7 O30 2.257561 1_655
Na7 O40 2.291234 1_555
Na7 O47 2.296707 1_656
Na7 O20 2.348723 1_655
Na7 O3 2.484418 1_555
Na7 O24 2.573617 1_555
Na8 O31 2.257561 1_455
Na8 O14 2.291234 1_555
Na8 O17 2.296707 1_454
Na8 O6 2.348723 1_455
Na8 O37 2.484418 1_555
Na8 O26 2.573617 1_555
Na9 O5 2.289522 1_555
Na9 O10 2.310185 1_554
Na9 O37 2.380656 1_555
Na9 O26 2.435798 1_555
Na9 O33 2.466230 1_555
Na9 O14 2.598832 1_555
Na10 O18 2.509654 1_455
Na10 O21 2.530428 1_455
Na10 O27 2.549914 1_455
Na10 O28 2.597431 1_555
Na10 O31 2.632692 1_445
Na10 O25 2.634286 1_455
Na10 O34 2.671272 1_555
Na10 O32 2.686225 1_555
Na10 O6 2.711684 1_455
Na11 O42 2.289522 1_655
Na11 O16 2.310185 1_655
Na11 O7 2.380656 1_555
Na11 O41 2.435798 1_555
Na11 O9 2.466230 1_655
Na11 O19 2.598832 1_555
B0 O18 1.466693 1_555
B0 O33 1.468612 1_545
B0 O11 1.473233 1_555
B0 O40 1.479372 1_554
B1 O26 1.466561 1_555
B1 O28 1.466824 1_565
B1 O42 1.467144 1_555
B1 O31 1.480041 1_455
B2 O32 1.466693 1_555
B2 O9 1.468612 1_555
B2 O25 1.473233 1_455
B2 O36 1.479372 1_555
B3 O29 1.460128 1_555
B3 O22 1.470152 1_555
B3 O13 1.475092 1_555
B3 O43 1.481531 1_565
B4 O1 1.466693 1_555
B4 O38 1.468612 1_555
B4 O16 1.473233 1_655
B4 O19 1.479372 1_555
B5 O2 1.466561 1_555
B5 O45 1.466824 1_555
B5 O0 1.467144 1_555
B5 O4 1.480041 1_555
B6 O15 1.466693 1_555
B6 O44 1.468612 1_565
B6 O10 1.473233 1_555
B6 O14 1.479372 1_556
B7 O24 1.466561 1_555
B7 O46 1.466824 1_545
B7 O23 1.467144 1_555
B7 O30 1.480041 1_655
B8 O34 1.460128 1_555
B8 O47 1.470152 1_555
B8 O6 1.475092 1_455
B8 O37 1.481531 1_555
B9 O39 1.460128 1_555
B9 O17 1.470152 1_555
B9 O20 1.475092 1_655
B9 O3 1.481531 1_555
B10 O41 1.466561 1_555
B10 O27 1.466824 1_555
B10 O5 1.467144 1_555
B10 O12 1.480041 1_555
B11 O21 1.460128 1_555
B11 O35 1.470152 1_555
B11 O8 1.475092 1_555
B11 O7 1.481531 1_545
O0 Si11 1.621874 1_555
O1 Si1 1.628357 1_555
O2 Si0 1.617040 1_555
O3 Si6 1.628055 1_556
O4 Si2 1.620716 1_555
O5 Si6 1.621874 1_555
O6 Si6 1.616608 1_555
O7 Si1 1.628055 1_555
O8 Si9 1.616608 1_555
O9 Si5 1.624115 1_555
O10 Si7 1.616397 1_555
O11 Si4 1.616397 1_555
O12 Si5 1.620716 1_555
O13 Si1 1.616608 1_555
O14 Si4 1.624612 1_565
O15 Si11 1.628357 1_555
O16 Si8 1.616397 1_555
O17 Si7 1.623969 1_555
O18 Si6 1.628357 1_555
O19 Si10 1.624612 1_555
O20 Si11 1.616608 1_555
O21 Si3 1.627079 1_545
O22 Si8 1.623969 1_555
O23 Si1 1.621874 1_545
O24 Si2 1.617040 1_555
O25 Si10 1.616397 1_555
O26 Si5 1.617040 1_555
O27 Si10 1.621641 1_555
O28 Si4 1.621641 1_555
O29 Si0 1.627079 1_565
O30 Si0 1.620716 1_555
O31 Si3 1.620716 1_555
O32 Si9 1.628357 1_555
O33 Si3 1.624115 1_555
O34 Si5 1.627079 1_555
O35 Si10 1.623969 1_555
O36 Si8 1.624612 1_555
O37 Si11 1.628055 1_554
O38 Si2 1.624115 1_555
O39 Si2 1.627079 1_555
O40 Si7 1.624612 1_545
O41 Si3 1.617040 1_555
O42 Si9 1.621874 1_565
O43 Si9 1.628055 1_555
O44 Si0 1.624115 1_555
O45 Si8 1.621641 1_555
O46 Si7 1.621641 1_555
O47 Si4 1.623969 1_555
