# generated using pymatgen
data_K2OsCBr5O
_symmetry_space_group_name_H-M   'P 1'
_cell_length_a   7.51728700
_cell_length_b   10.87060300
_cell_length_c   14.83268400
_cell_angle_alpha   90.00000000
_cell_angle_beta   90.00000000
_cell_angle_gamma   90.00000000
_symmetry_Int_Tables_number   1
_chemical_formula_structural   K2OsCBr5O
_chemical_formula_sum   'K8 Os4 C4 Br20 O4'
_cell_volume   1212.08900358
_cell_formula_units_Z   4
loop_
 _symmetry_equiv_pos_site_id
 _symmetry_equiv_pos_as_xyz
  1  'x, y, z'
loop_
 _atom_site_type_symbol
 _atom_site_label
 _atom_site_symmetry_multiplicity
 _atom_site_fract_x
 _atom_site_fract_y
 _atom_site_fract_z
 _atom_site_occupancy
  K  K0  1  0.67138700  0.49985300  0.85291400  1
  K  K1  1  0.32861300  0.50014700  0.14708600  1
  K  K2  1  0.17138700  0.50014700  0.64708600  1
  K  K3  1  0.17138700  0.99985300  0.64708600  1
  K  K4  1  0.82861300  0.00014700  0.35291400  1
  K  K5  1  0.67138700  0.00014700  0.85291400  1
  K  K6  1  0.32861300  0.99985300  0.14708600  1
  K  K7  1  0.82861300  0.49985300  0.35291400  1
  Os  Os0  1  0.80976900  0.25000000  0.11362600  1
  Os  Os1  1  0.19023100  0.75000000  0.88637400  1
  Os  Os2  1  0.30976900  0.75000000  0.38637400  1
  Os  Os3  1  0.69023100  0.25000000  0.61362600  1
  C  C0  1  0.97431400  0.25000000  0.02276700  1
  C  C1  1  0.52568600  0.25000000  0.52276700  1
  C  C2  1  0.02568600  0.75000000  0.97723300  1
  C  C3  1  0.47431400  0.75000000  0.47723300  1
  Br  Br0  1  0.58589600  0.25000000  0.25042000  1
  Br  Br1  1  0.29687800  0.51840800  0.38333000  1
  Br  Br2  1  0.95397200  0.25000000  0.50631500  1
  Br  Br3  1  0.45397200  0.75000000  0.99368500  1
  Br  Br4  1  0.70312200  0.01840800  0.61667000  1
  Br  Br5  1  0.93991900  0.75000000  0.77199900  1
  Br  Br6  1  0.20312200  0.98159200  0.88333000  1
  Br  Br7  1  0.08589600  0.75000000  0.24958000  1
  Br  Br8  1  0.79687800  0.48159200  0.11667000  1
  Br  Br9  1  0.70312200  0.48159200  0.61667000  1
  Br  Br10  1  0.20312200  0.51840800  0.88333000  1
  Br  Br11  1  0.43991900  0.25000000  0.72800100  1
  Br  Br12  1  0.79687800  0.01840800  0.11667000  1
  Br  Br13  1  0.41410400  0.75000000  0.74958000  1
  Br  Br14  1  0.04602800  0.75000000  0.49368500  1
  Br  Br15  1  0.91410400  0.25000000  0.75042000  1
  Br  Br16  1  0.29687800  0.98159200  0.38333000  1
  Br  Br17  1  0.06008100  0.25000000  0.22800100  1
  Br  Br18  1  0.54602800  0.25000000  0.00631500  1
  Br  Br19  1  0.56008100  0.75000000  0.27199900  1
  O  O0  1  0.91450200  0.75000000  0.03268000  1
  O  O1  1  0.41450200  0.25000000  0.46732000  1
  O  O2  1  0.58549800  0.75000000  0.53268000  1
  O  O3  1  0.08549800  0.25000000  0.96732000  1
loop_
_geom_bond_atom_site_label_1
_geom_bond_atom_site_label_2
_geom_bond_distance
_geom_bond_site_symmetry_2
C0 O3 1.172584 1_654
C0 Os0 1.829276 1_555
C1 O1 1.172584 1_555
C1 Os3 1.829276 1_555
C2 O0 1.172584 1_456
C2 Os1 1.829276 1_555
C3 O2 1.172584 1_555
C3 Os2 1.829276 1_555
Br0 Os0 2.636123 1_555
Br0 K4 3.607936 1_555
Br0 K7 3.607936 1_555
Br0 K6 3.672080 1_545
Br0 K1 3.672080 1_555
Br1 Os2 2.519814 1_555
Br1 K1 3.517849 1_555
Br1 K7 3.554603 1_455
Br2 Os3 2.542501 1_555
Br2 K7 3.666360 1_555
Br2 K4 3.666360 1_555
Br2 K3 3.798062 1_645
Br2 K2 3.798062 1_655
Br3 Os1 2.542501 1_555
Br3 K1 3.666360 1_556
Br3 K6 3.666360 1_556
Br3 K5 3.798062 1_565
Br3 K0 3.798062 1_555
Br4 Os3 2.519814 1_555
Br4 K5 3.517849 1_555
Br4 K3 3.554603 1_645
Br5 Os1 2.533524 1_655
Br5 K5 3.592998 1_565
Br5 K0 3.592998 1_555
Br5 K2 3.719870 1_655
Br5 K3 3.719870 1_655
Br6 Os1 2.519814 1_555
Br6 K3 3.517849 1_555
Br6 K5 3.554603 1_565
Br7 Os2 2.636123 1_555
Br7 K1 3.607936 1_555
Br7 K6 3.607936 1_555
Br7 K4 3.672080 1_465
Br7 K7 3.672080 1_455
Br8 Os0 2.519814 1_555
Br8 K7 3.517849 1_555
Br8 K1 3.554603 1_555
Br9 Os3 2.519814 1_555
Br9 K0 3.517849 1_555
Br9 K2 3.554603 1_655
Br10 Os1 2.519814 1_555
Br10 K2 3.517849 1_555
Br10 K0 3.554603 1_555
Br11 Os3 2.533524 1_555
Br11 K3 3.592998 1_545
Br11 K2 3.592998 1_555
Br11 K5 3.719870 1_555
Br11 K0 3.719870 1_555
Br12 Os0 2.519814 1_555
Br12 K4 3.517849 1_555
Br12 K6 3.554603 1_545
Br13 Os1 2.636123 1_555
Br13 K3 3.607936 1_555
Br13 K2 3.607936 1_555
Br13 K5 3.672080 1_565
Br13 K0 3.672080 1_555
Br14 Os2 2.542501 1_555
Br14 K2 3.666360 1_555
Br14 K3 3.666360 1_555
Br14 K4 3.798062 1_465
Br14 K7 3.798062 1_455
Br15 Os3 2.636123 1_555
Br15 K0 3.607936 1_555
Br15 K5 3.607936 1_555
Br15 K3 3.672080 1_645
Br15 K2 3.672080 1_655
Br16 Os2 2.519814 1_555
Br16 K6 3.517849 1_555
Br16 K4 3.554603 1_465
Br17 Os0 2.533524 1_455
Br17 K6 3.592998 1_545
Br17 K1 3.592998 1_555
Br17 K7 3.719870 1_455
Br17 K4 3.719870 1_455
Br18 Os0 2.542501 1_555
Br18 K5 3.666360 1_554
Br18 K0 3.666360 1_554
Br18 K6 3.798062 1_545
Br18 K1 3.798062 1_555
Br19 Os2 2.533524 1_555
Br19 K4 3.592998 1_565
Br19 K7 3.592998 1_555
Br19 K6 3.719870 1_555
Br19 K1 3.719870 1_555
