# generated using pymatgen
data_Nd2Tl(MoO4)4
_symmetry_space_group_name_H-M   'P 1'
_cell_length_a   6.92141226
_cell_length_b   6.92141226
_cell_length_c   19.84510769
_cell_angle_alpha   88.94784148
_cell_angle_beta   88.94784148
_cell_angle_gamma   133.79000894
_symmetry_Int_Tables_number   1
_chemical_formula_structural   Nd2Tl(MoO4)4
_chemical_formula_sum   'Nd4 Tl2 Mo8 O32'
_cell_volume   685.53946053
_cell_formula_units_Z   2
loop_
 _symmetry_equiv_pos_site_id
 _symmetry_equiv_pos_as_xyz
  1  'x, y, z'
loop_
 _atom_site_type_symbol
 _atom_site_label
 _atom_site_symmetry_multiplicity
 _atom_site_fract_x
 _atom_site_fract_y
 _atom_site_fract_z
 _atom_site_occupancy
  Nd  Nd0  1  0.85381700  0.14865100  0.46674400  1
  Nd  Nd1  1  0.85134900  0.14618300  0.03325600  1
  Nd  Nd2  1  0.14865100  0.85381700  0.96674400  1
  Nd  Nd3  1  0.14618300  0.85134900  0.53325600  1
  Tl  Tl0  1  0.97498500  0.02501500  0.25000000  1
  Tl  Tl1  1  0.02501500  0.97498500  0.75000000  1
  Mo  Mo0  1  0.57228200  0.45298600  0.40787000  1
  Mo  Mo1  1  0.27341800  0.75519500  0.34806100  1
  Mo  Mo2  1  0.24480500  0.72658200  0.15193900  1
  Mo  Mo3  1  0.54701400  0.42771800  0.09213000  1
  Mo  Mo4  1  0.45298600  0.57228200  0.90787000  1
  Mo  Mo5  1  0.75519500  0.27341800  0.84806100  1
  Mo  Mo6  1  0.72658200  0.24480500  0.65193900  1
  Mo  Mo7  1  0.42771800  0.54701400  0.59213000  1
  O  O0  1  0.53284900  0.91424500  0.28492800  1
  O  O1  1  0.68026200  0.77420700  0.39692900  1
  O  O2  1  0.59127600  0.89642100  0.13567200  1
  O  O3  1  0.40870900  0.92765000  0.42959500  1
  O  O4  1  0.77332800  0.73783000  0.03741800  1
  O  O5  1  0.82587200  0.48669500  0.45414000  1
  O  O6  1  0.91424500  0.53284900  0.78492800  1
  O  O7  1  0.77420700  0.68026200  0.89692900  1
  O  O8  1  0.89642100  0.59127600  0.63567200  1
  O  O9  1  0.92765000  0.40870900  0.92959500  1
  O  O10  1  0.73783000  0.77332800  0.53741800  1
  O  O11  1  0.24059600  0.97149000  0.17580500  1
  O  O12  1  0.48669500  0.82587200  0.95414000  1
  O  O13  1  0.69360800  0.51459700  0.16979400  1
  O  O14  1  0.97149000  0.24059600  0.67580500  1
  O  O15  1  0.51459700  0.69360800  0.66979400  1
  O  O16  1  0.48540300  0.30639200  0.33020600  1
  O  O17  1  0.02851000  0.75940400  0.32419500  1
  O  O18  1  0.30639200  0.48540300  0.83020600  1
  O  O19  1  0.51330500  0.17412800  0.04586000  1
  O  O20  1  0.75940400  0.02851000  0.82419500  1
  O  O21  1  0.26217000  0.22667200  0.46258200  1
  O  O22  1  0.07235000  0.59129100  0.07040500  1
  O  O23  1  0.10357900  0.40872400  0.36432800  1
  O  O24  1  0.22579300  0.31973800  0.10307100  1
  O  O25  1  0.08575500  0.46715100  0.21507200  1
  O  O26  1  0.17412800  0.51330500  0.54586000  1
  O  O27  1  0.22667200  0.26217000  0.96258200  1
  O  O28  1  0.59129100  0.07235000  0.57040500  1
  O  O29  1  0.40872400  0.10357900  0.86432800  1
  O  O30  1  0.31973800  0.22579300  0.60307100  1
  O  O31  1  0.46715100  0.08575500  0.71507200  1
loop_
_geom_bond_atom_site_label_1
_geom_bond_atom_site_label_2
_geom_bond_distance
_geom_bond_site_symmetry_2
Nd0 O23 2.406104 1_655
Nd0 O1 2.442033 1_545
Nd0 O3 2.444806 1_545
Nd0 O21 2.482783 1_655
Nd0 O5 2.486161 1_555
Nd0 O26 2.505859 1_655
Nd0 O10 2.509670 1_545
Nd0 O28 2.511413 1_555
Nd1 O2 2.406104 1_545
Nd1 O24 2.442033 1_655
Nd1 O22 2.444806 1_655
Nd1 O4 2.482783 1_545
Nd1 O19 2.486161 1_555
Nd1 O12 2.505859 1_544
Nd1 O27 2.509670 1_654
Nd1 O9 2.511413 1_554
Nd2 O29 2.406104 1_565
Nd2 O7 2.442033 1_455
Nd2 O9 2.444806 1_455
Nd2 O27 2.482783 1_565
Nd2 O12 2.486161 1_555
Nd2 O19 2.505859 1_566
Nd2 O4 2.509670 1_456
Nd2 O22 2.511413 1_556
Nd3 O8 2.406104 1_455
Nd3 O30 2.442033 1_565
Nd3 O28 2.444806 1_565
Nd3 O10 2.482783 1_455
Nd3 O26 2.486161 1_555
Nd3 O5 2.505859 1_455
Nd3 O21 2.509670 1_565
Nd3 O3 2.511413 1_555
Mo0 O16 1.735962 1_555
Mo0 O1 1.795921 1_555
Mo0 O21 1.854243 1_555
Mo0 O5 1.865099 1_555
Mo1 O0 1.771086 1_555
Mo1 O17 1.787705 1_555
Mo1 O23 1.814623 1_555
Mo1 O3 1.870644 1_555
Mo2 O25 1.771086 1_555
Mo2 O11 1.787705 1_555
Mo2 O2 1.814623 1_555
Mo2 O22 1.870644 1_555
Mo3 O13 1.735962 1_555
Mo3 O24 1.795921 1_555
Mo3 O4 1.854243 1_555
Mo3 O19 1.865099 1_555
Mo4 O18 1.735962 1_555
Mo4 O7 1.795921 1_555
Mo4 O27 1.854243 1_555
Mo4 O12 1.865099 1_555
Mo5 O6 1.771086 1_555
Mo5 O20 1.787705 1_555
Mo5 O29 1.814623 1_555
Mo5 O9 1.870644 1_555
Mo6 O31 1.771086 1_555
Mo6 O14 1.787705 1_555
Mo6 O8 1.814623 1_555
Mo6 O28 1.870644 1_555
Mo7 O15 1.735962 1_555
Mo7 O30 1.795921 1_555
Mo7 O10 1.854243 1_555
Mo7 O26 1.865099 1_555
O0 Tl0 2.662417 1_565
O6 Tl1 2.662417 1_655
O11 Tl0 2.558946 1_465
O14 Tl1 2.558946 1_645
O17 Tl0 2.558946 1_465
O20 Tl1 2.558946 1_645
O25 Tl0 2.662417 1_455
O31 Tl1 2.662417 1_545
