# generated using pymatgen
data_Li2GeF6
_symmetry_space_group_name_H-M   'P 1'
_cell_length_a   8.33342178
_cell_length_b   8.33341965
_cell_length_c   4.53554700
_cell_angle_alpha   90.00071438
_cell_angle_beta   89.99931692
_cell_angle_gamma   120.00052634
_symmetry_Int_Tables_number   1
_chemical_formula_structural   Li2GeF6
_chemical_formula_sum   'Li6 Ge3 F18'
_cell_volume   272.77503234
_cell_formula_units_Z   3
loop_
 _symmetry_equiv_pos_site_id
 _symmetry_equiv_pos_as_xyz
  1  'x, y, z'
loop_
 _atom_site_type_symbol
 _atom_site_label
 _atom_site_symmetry_multiplicity
 _atom_site_fract_x
 _atom_site_fract_y
 _atom_site_fract_z
 _atom_site_occupancy
  Li  Li0  1  0.70016651  0.00002253  0.50000526  1
  Li  Li1  1  0.63450144  0.63450269  -0.00000056  1
  Li  Li2  1  -0.00001739  0.36549328  -0.00001424  1
  Li  Li3  1  0.36549404  -0.00001681  0.00001495  1
  Li  Li4  1  0.00002163  0.70016602  0.49999526  1
  Li  Li5  1  0.29985126  0.29985242  0.50000039  1
  Ge  Ge0  1  0.66667389  0.33332565  0.51002798  1
  Ge  Ge1  1  0.33333417  0.66667755  0.48997137  1
  Ge  Ge2  1  -0.00000879  -0.00000526  -0.00000055  1
  F  F0  1  0.09724082  0.20692145  0.22331461  1
  F  F1  1  0.10968835  0.90276019  0.22328507  1
  F  F2  1  0.79308552  0.89031521  0.22330109  1
  F  F3  1  0.45951507  0.22239055  0.28580766  1
  F  F4  1  0.77760337  0.23711687  0.28583256  1
  F  F5  1  0.76288418  0.54047908  0.28581336  1
  F  F6  1  0.23711653  0.77760548  0.71417036  1
  F  F7  1  0.54047760  0.76288203  0.71418138  1
  F  F8  1  0.22239248  0.45951666  0.71419512  1
  F  F9  1  0.42174203  0.54885822  0.26487202  1
  F  F10  1  0.45113038  0.87287007  0.26488510  1
  F  F11  1  0.12711987  0.57825677  0.26487518  1
  F  F12  1  0.87287236  0.45113224  0.73511593  1
  F  F13  1  0.57825820  0.12712462  0.73512102  1
  F  F14  1  0.54885728  0.42174485  0.73512303  1
  F  F15  1  0.20692371  0.09724151  0.77668360  1
  F  F16  1  0.90276334  0.10968608  0.77672172  1
  F  F17  1  0.89031415  0.79308004  0.77669834  1
loop_
_geom_bond_atom_site_label_1
_geom_bond_atom_site_label_2
_geom_bond_distance
_geom_bond_site_symmetry_2
F0 Ge2 1.805186 1_555
F0 Li5 1.928165 1_555
F0 Li2 2.121371 1_555
F1 Ge2 1.805173 1_565
F1 Li4 1.928145 1_555
F1 Li3 2.121084 1_565
F2 Ge2 1.805031 1_665
F2 Li0 1.928300 1_565
F2 Li1 2.121191 1_555
F3 Ge0 1.809186 1_555
F3 Li5 1.997421 1_555
F3 Li3 2.068092 1_555
F4 Ge0 1.808994 1_555
F4 Li0 1.997208 1_555
F4 Li2 2.068092 1_655
F5 Ge0 1.809145 1_555
F5 Li4 1.997496 1_655
F5 Li1 2.068177 1_555
F6 Ge1 1.809046 1_555
F6 Li4 1.997213 1_555
F6 Li3 2.068077 1_566
F7 Ge1 1.809073 1_555
F7 Li0 1.997503 1_565
F7 Li1 2.068170 1_556
F8 Ge1 1.809209 1_555
F8 Li5 1.997411 1_555
F8 Li2 2.068101 1_556
F9 Ge1 1.808993 1_555
F9 Li1 1.957221 1_555
F9 Li5 2.089783 1_555
F10 Ge1 1.808757 1_555
F10 Li3 1.957189 1_565
F10 Li0 2.089953 1_565
F11 Ge1 1.808907 1_555
F11 Li2 1.957305 1_555
F11 Li4 2.089765 1_555
F12 Ge0 1.808800 1_555
F12 Li2 1.957185 1_656
F12 Li4 2.089940 1_655
F13 Ge0 1.808820 1_555
F13 Li3 1.957325 1_556
F13 Li0 2.089773 1_555
F14 Ge0 1.809029 1_555
F14 Li1 1.957222 1_556
F14 Li5 2.089770 1_555
F15 Ge2 1.805225 1_556
F15 Li5 1.928162 1_555
F15 Li3 2.121367 1_556
F16 Ge2 1.805079 1_656
F16 Li0 1.928176 1_555
F16 Li2 2.121084 1_656
F17 Ge2 1.805080 1_666
F17 Li4 1.928272 1_655
F17 Li1 2.121185 1_556
