# generated using pymatgen
data_EuCu2SnS4
_symmetry_space_group_name_H-M   'P 1'
_cell_length_a   6.09129027
_cell_length_b   6.09129027
_cell_length_c   10.50652300
_cell_angle_alpha   90.00000000
_cell_angle_beta   90.00000000
_cell_angle_gamma   116.07323532
_symmetry_Int_Tables_number   1
_chemical_formula_structural   EuCu2SnS4
_chemical_formula_sum   'Eu2 Cu4 Sn2 S8'
_cell_volume   350.16005875
_cell_formula_units_Z   2
loop_
 _symmetry_equiv_pos_site_id
 _symmetry_equiv_pos_as_xyz
  1  'x, y, z'
loop_
 _atom_site_type_symbol
 _atom_site_label
 _atom_site_symmetry_multiplicity
 _atom_site_fract_x
 _atom_site_fract_y
 _atom_site_fract_z
 _atom_site_occupancy
  Eu  Eu0  1  0.47791700  0.47791700  0.50000000  1
  Eu  Eu1  1  0.47791700  0.47791700  0.00000000  1
  Cu  Cu0  1  0.85278600  0.28116200  0.87395700  1
  Cu  Cu1  1  0.28116200  0.85278600  0.37395700  1
  Cu  Cu2  1  0.28116200  0.85278600  0.12604300  1
  Cu  Cu3  1  0.85278600  0.28116200  0.62604300  1
  Sn  Sn0  1  0.90514000  0.20878700  0.25000000  1
  Sn  Sn1  1  0.20878700  0.90514000  0.75000000  1
  S  S0  1  0.48416400  0.96633600  0.93205500  1
  S  S1  1  0.96633600  0.48416400  0.06794500  1
  S  S2  1  0.78701900  0.58633600  0.75000000  1
  S  S3  1  0.96633600  0.48416400  0.43205500  1
  S  S4  1  0.17684100  0.29428600  0.75000000  1
  S  S5  1  0.48416400  0.96633600  0.56794500  1
  S  S6  1  0.58633600  0.78701900  0.25000000  1
  S  S7  1  0.29428600  0.17684100  0.25000000  1
loop_
_geom_bond_atom_site_label_1
_geom_bond_atom_site_label_2
_geom_bond_distance
_geom_bond_site_symmetry_2
Eu0 S3 3.043480 1_555
Eu0 S5 3.043480 1_555
Eu0 S4 3.116161 1_555
Eu0 S7 3.116161 1_555
Eu0 S2 3.128473 1_555
Eu0 S6 3.128473 1_555
Eu0 S3 3.213396 1_455
Eu0 S5 3.213396 1_545
Eu1 S0 3.043480 1_554
Eu1 S1 3.043480 1_555
Eu1 S7 3.116161 1_555
Eu1 S4 3.116161 1_554
Eu1 S2 3.128473 1_554
Eu1 S6 3.128473 1_555
Eu1 S1 3.213396 1_455
Eu1 S0 3.213396 1_544
Cu0 S0 2.303648 1_545
Cu0 S1 2.325862 1_556
Cu0 S4 2.336696 1_655
Cu0 S2 2.442693 1_555
Cu1 S3 2.303648 1_455
Cu1 S5 2.325862 1_555
Cu1 S7 2.336696 1_565
Cu1 S6 2.442693 1_555
Cu2 S1 2.303648 1_455
Cu2 S0 2.325862 1_554
Cu2 S7 2.336696 1_565
Cu2 S6 2.442693 1_555
Cu3 S5 2.303648 1_545
Cu3 S3 2.325862 1_555
Cu3 S4 2.336696 1_655
Cu3 S2 2.442693 1_555
S0 Sn1 2.462043 1_555
S1 Sn0 2.462043 1_555
S2 Sn1 2.446603 1_655
S3 Sn0 2.462043 1_555
S4 Sn1 2.462140 1_545
S5 Sn1 2.462043 1_555
S6 Sn0 2.446603 1_565
S7 Sn0 2.462140 1_455
