# generated using pymatgen
data_EuZr3F15
_symmetry_space_group_name_H-M   'P 1'
_cell_length_a   8.28444404
_cell_length_b   8.28138520
_cell_length_c   16.57330707
_cell_angle_alpha   100.19426803
_cell_angle_beta   100.17774255
_cell_angle_gamma   100.13519881
_symmetry_Int_Tables_number   1
_chemical_formula_structural   EuZr3F15
_chemical_formula_sum   'Eu4 Zr12 F60'
_cell_volume   1075.97792155
_cell_formula_units_Z   4
loop_
 _symmetry_equiv_pos_site_id
 _symmetry_equiv_pos_as_xyz
  1  'x, y, z'
loop_
 _atom_site_type_symbol
 _atom_site_label
 _atom_site_symmetry_multiplicity
 _atom_site_fract_x
 _atom_site_fract_y
 _atom_site_fract_z
 _atom_site_occupancy
  Eu  Eu0  1  0.32395889  0.17841666  0.87484988  1
  Eu  Eu1  1  0.25092829  0.67849887  0.41158433  1
  Eu  Eu2  1  0.74907171  0.32150113  0.58841567  1
  Eu  Eu3  1  0.67604111  0.82158334  0.12515012  1
  F  F0  1  0.03499005  0.46497454  0.88068510  1
  F  F1  1  0.03463441  0.15182950  0.84007596  1
  F  F2  1  0.99732619  0.21529050  0.61000142  1
  F  F3  1  0.18948400  0.65209011  0.77956324  1
  F  F4  1  0.24343622  0.95076042  0.76197241  1
  F  F5  1  0.02309013  0.45257012  0.36566634  1
  F  F6  1  0.30962028  0.93125422  0.92424282  1
  F  F7  1  0.14826502  0.68691141  0.53504248  1
  F  F8  1  0.05408636  0.15474039  0.34333635  1
  F  F9  1  0.99637005  0.22934352  0.11409912  1
  F  F10  1  0.34492190  0.46507585  0.90770606  1
  F  F11  1  0.27331924  0.28054696  0.74886254  1
  F  F12  1  0.27627252  0.50666015  0.63967741  1
  F  F13  1  0.17645339  0.65482803  0.26520066  1
  F  F14  1  0.25221473  0.96760428  0.26780848  1
  F  F15  1  0.31757252  0.96536255  0.42284441  1
  F  F16  1  0.22289209  0.22678468  0.49568183  1
  F  F17  1  0.22448465  0.99308147  0.61230164  1
  F  F18  1  0.15057066  0.68743944  0.02643393  1
  F  F19  1  0.44702593  0.81104367  0.67431666  1
  F  F20  1  0.49573988  0.72547866  0.86050688  1
  F  F21  1  0.34897456  0.43241198  0.40545737  1
  F  F22  1  0.27495684  0.27461566  0.25350929  1
  F  F23  1  0.54959005  0.25438900  0.98781299  1
  F  F24  1  0.27550121  0.50495761  0.13606342  1
  F  F25  1  0.47462205  0.75397482  0.52491671  1
  F  F26  1  0.21721319  0.22317500  0.00054181  1
  F  F27  1  0.22340173  0.99569841  0.11190507  1
  F  F28  1  0.50148397  0.27396154  0.64081169  1
  F  F29  1  0.56918033  0.18427644  0.82463854  1
  F  F30  1  0.43081967  0.81572356  0.17536146  1
  F  F31  1  0.49851603  0.72603846  0.35918831  1
  F  F32  1  0.77659827  0.00430159  0.88809493  1
  F  F33  1  0.78278681  0.77682500  0.99945819  1
  F  F34  1  0.52537795  0.24602518  0.47508329  1
  F  F35  1  0.72449879  0.49504239  0.86393658  1
  F  F36  1  0.45040995  0.74561100  0.01218701  1
  F  F37  1  0.72504316  0.72538434  0.74649071  1
  F  F38  1  0.65102544  0.56758802  0.59454263  1
  F  F39  1  0.50426012  0.27452134  0.13949312  1
  F  F40  1  0.55297407  0.18895633  0.32568334  1
  F  F41  1  0.84942934  0.31256056  0.97356607  1
  F  F42  1  0.77551535  0.00691853  0.38769836  1
  F  F43  1  0.77710791  0.77321532  0.50431817  1
  F  F44  1  0.68242748  0.03463745  0.57715559  1
  F  F45  1  0.74778527  0.03239572  0.73219152  1
  F  F46  1  0.82354661  0.34517197  0.73479934  1
  F  F47  1  0.72372748  0.49333985  0.36032259  1
  F  F48  1  0.72668076  0.71945304  0.25113746  1
  F  F49  1  0.65507810  0.53492415  0.09229394  1
  F  F50  1  0.00362995  0.77065648  0.88590088  1
  F  F51  1  0.94591364  0.84525961  0.65666365  1
  F  F52  1  0.85173498  0.31308859  0.46495752  1
  F  F53  1  0.69037972  0.06874578  0.07575718  1
  F  F54  1  0.97690987  0.54742988  0.63433366  1
  F  F55  1  0.75656378  0.04923958  0.23802759  1
  F  F56  1  0.81051600  0.34790989  0.22043676  1
  F  F57  1  0.00267381  0.78470950  0.38999858  1
  F  F58  1  0.96536559  0.84817050  0.15992404  1
  F  F59  1  0.96500995  0.53502546  0.11931490  1
  Zr  Zr0  1  0.24343561  0.67569115  0.91169586  1
  Zr  Zr1  1  0.17845685  0.74783971  0.66284402  1
  Zr  Zr2  1  0.24889693  0.24811437  0.62287121  1
  Zr  Zr3  1  0.17553133  0.75049299  0.16008483  1
  Zr  Zr4  1  0.32087405  0.17580842  0.37228587  1
  Zr  Zr5  1  0.25260219  0.25117722  0.12604519  1
  Zr  Zr6  1  0.74739781  0.74882278  0.87395481  1
  Zr  Zr7  1  0.67912595  0.82419158  0.62771413  1
  Zr  Zr8  1  0.82446867  0.24950701  0.83991517  1
  Zr  Zr9  1  0.75110307  0.75188563  0.37712879  1
  Zr  Zr10  1  0.82154315  0.25216029  0.33715598  1
  Zr  Zr11  1  0.75656439  0.32430885  0.08830414  1
loop_
_geom_bond_atom_site_label_1
_geom_bond_atom_site_label_2
_geom_bond_distance
_geom_bond_site_symmetry_2
Eu0 F10 2.307846 1_555
Eu0 F23 2.308094 1_555
Eu0 F4 2.316681 1_545
Eu0 F29 2.323575 1_555
Eu0 F1 2.325270 1_555
Eu0 F6 2.327166 1_545
Eu0 F11 2.385712 1_555
Eu0 F26 2.398321 1_556
Eu1 F25 2.302079 1_555
Eu1 F15 2.308314 1_555
Eu1 F21 2.315547 1_555
Eu1 F5 2.321196 1_555
Eu1 F7 2.345247 1_555
Eu1 F13 2.359020 1_555
Eu1 F31 2.362726 1_555
Eu1 F57 2.370539 1_555
Eu2 F34 2.302079 1_555
Eu2 F44 2.308314 1_555
Eu2 F38 2.315547 1_555
Eu2 F54 2.321196 1_555
Eu2 F52 2.345247 1_555
Eu2 F46 2.359020 1_555
Eu2 F28 2.362726 1_555
Eu2 F2 2.370539 1_555
Eu3 F49 2.307846 1_555
Eu3 F36 2.308094 1_555
Eu3 F55 2.316681 1_565
Eu3 F30 2.323575 1_555
Eu3 F58 2.325270 1_555
Eu3 F53 2.327166 1_565
Eu3 F48 2.385712 1_555
Eu3 F33 2.398321 1_554
F0 Zr0 2.144674 1_555
F0 Zr8 2.178015 1_455
F1 Zr8 2.044647 1_455
F2 Zr2 2.021373 1_655
F3 Zr0 2.122585 1_555
F3 Zr1 2.210223 1_555
F4 Zr1 2.050523 1_555
F5 Zr10 2.057666 1_455
F6 Zr0 2.053926 1_555
F7 Zr1 2.047811 1_555
F8 Zr4 2.146034 1_555
F8 Zr10 2.208904 1_455
F9 Zr5 2.069212 1_655
F9 Zr11 2.262033 1_555
F10 Zr0 2.061154 1_555
F11 Zr2 2.026390 1_555
F12 Zr2 2.075831 1_555
F12 Zr1 2.280663 1_555
F13 Zr3 2.036821 1_555
F14 Zr4 2.131818 1_565
F14 Zr3 2.210129 1_555
F15 Zr4 2.061162 1_565
F16 Zr2 2.053138 1_555
F16 Zr4 2.328333 1_555
F17 Zr2 2.058745 1_565
F17 Zr1 2.326866 1_555
F18 Zr3 2.147679 1_555
F18 Zr0 2.166854 1_554
F19 Zr1 2.160070 1_555
F19 Zr7 2.187820 1_555
F20 Zr6 2.027884 1_555
F20 Zr0 2.388694 1_555
F21 Zr4 2.058963 1_555
F22 Zr5 2.058781 1_555
F22 Zr4 2.259293 1_555
F23 Zr11 2.085460 1_556
F24 Zr5 2.050740 1_555
F24 Zr3 2.324149 1_555
F25 Zr7 2.096081 1_555
F26 Zr5 2.013946 1_555
F27 Zr5 2.052812 1_565
F27 Zr3 2.306690 1_555
F28 Zr2 2.028032 1_555
F29 Zr8 2.046723 1_555
F30 Zr3 2.046723 1_555
F31 Zr9 2.028032 1_555
F32 Zr6 2.052812 1_545
F32 Zr8 2.306690 1_555
F33 Zr6 2.013946 1_555
F34 Zr4 2.096081 1_555
F35 Zr6 2.050740 1_555
F35 Zr8 2.324149 1_555
F36 Zr0 2.085460 1_554
F37 Zr6 2.058781 1_555
F37 Zr7 2.259293 1_555
F38 Zr7 2.058963 1_555
F39 Zr5 2.027884 1_555
F39 Zr11 2.388694 1_555
F40 Zr10 2.160070 1_555
F40 Zr4 2.187820 1_555
F41 Zr8 2.147679 1_555
F41 Zr11 2.166854 1_556
F42 Zr9 2.058745 1_545
F42 Zr10 2.326866 1_555
F43 Zr9 2.053138 1_555
F43 Zr7 2.328333 1_555
F44 Zr7 2.061162 1_545
F45 Zr7 2.131818 1_545
F45 Zr8 2.210129 1_555
F46 Zr8 2.036821 1_555
F47 Zr9 2.075831 1_555
F47 Zr10 2.280663 1_555
F48 Zr9 2.026390 1_555
F49 Zr11 2.061154 1_555
F50 Zr6 2.069212 1_455
F50 Zr0 2.262033 1_555
F51 Zr7 2.146034 1_555
F51 Zr1 2.208904 1_655
F52 Zr10 2.047811 1_555
F53 Zr11 2.053926 1_555
F54 Zr1 2.057666 1_655
F55 Zr10 2.050523 1_555
F56 Zr11 2.122585 1_555
F56 Zr10 2.210223 1_555
F57 Zr9 2.021373 1_455
F58 Zr3 2.044647 1_655
F59 Zr11 2.144674 1_555
F59 Zr3 2.178015 1_655
