# generated using pymatgen
data_SrCo2As2(H2O5)2
_symmetry_space_group_name_H-M   'P 1'
_cell_length_a   13.10928800
_cell_length_b   7.59070100
_cell_length_c   9.23395044
_cell_angle_alpha   65.46186892
_cell_angle_beta   90.00000000
_cell_angle_gamma   90.00000000
_symmetry_Int_Tables_number   1
_chemical_formula_structural   SrCo2As2(H2O5)2
_chemical_formula_sum   'Sr4 Co8 As8 H16 O40'
_cell_volume   835.87166485
_cell_formula_units_Z   4
loop_
 _symmetry_equiv_pos_site_id
 _symmetry_equiv_pos_as_xyz
  1  'x, y, z'
loop_
 _atom_site_type_symbol
 _atom_site_label
 _atom_site_symmetry_multiplicity
 _atom_site_fract_x
 _atom_site_fract_y
 _atom_site_fract_z
 _atom_site_occupancy
  Sr  Sr0  1  0.12985900  0.99478300  0.25630200  1
  Sr  Sr1  1  0.87014100  0.00521700  0.74369800  1
  Sr  Sr2  1  0.37014100  0.99478300  0.75630200  1
  Sr  Sr3  1  0.62985900  0.00521700  0.24369800  1
  Co  Co0  1  0.25110400  0.50749800  0.99625200  1
  Co  Co1  1  0.74889600  0.49250200  0.00374800  1
  Co  Co2  1  0.50000000  0.50000000  0.00000000  1
  Co  Co3  1  0.24889600  0.50749800  0.49625200  1
  Co  Co4  1  0.75110400  0.49250200  0.50374800  1
  Co  Co5  1  0.00000000  0.50000000  0.50000000  1
  Co  Co6  1  0.50000000  0.50000000  0.50000000  1
  Co  Co7  1  0.00000000  0.50000000  0.00000000  1
  As  As0  1  0.13266200  0.21880300  0.83032800  1
  As  As1  1  0.63266200  0.78119700  0.66967200  1
  As  As2  1  0.88152400  0.22122000  0.31842500  1
  As  As3  1  0.36733800  0.21880300  0.33032800  1
  As  As4  1  0.11847600  0.77878000  0.68157500  1
  As  As5  1  0.86733800  0.78119700  0.16967200  1
  As  As6  1  0.61847600  0.22122000  0.81842500  1
  As  As7  1  0.38152400  0.77878000  0.18157500  1
  H  H0  1  0.41508600  0.10720800  0.10281600  1
  H  H1  1  0.87489400  0.44218000  0.79059300  1
  H  H2  1  0.91508600  0.89279200  0.39718400  1
  H  H3  1  0.87255400  0.67842400  0.60670300  1
  H  H4  1  0.87226600  0.24189700  0.96179400  1
  H  H5  1  0.58491400  0.89279200  0.89718400  1
  H  H6  1  0.12773400  0.75810300  0.03820600  1
  H  H7  1  0.12510600  0.55782000  0.20940700  1
  H  H8  1  0.37255400  0.32157600  0.89329700  1
  H  H9  1  0.62773400  0.24189700  0.46179400  1
  H  H10  1  0.62744600  0.67842400  0.10670300  1
  H  H11  1  0.37226600  0.75810300  0.53820600  1
  H  H12  1  0.08491400  0.10720800  0.60281600  1
  H  H13  1  0.37489400  0.55782000  0.70940700  1
  H  H14  1  0.62510600  0.44218000  0.29059300  1
  H  H15  1  0.12744600  0.32157600  0.39329700  1
  O  O0  1  0.86153700  0.00364200  0.01437800  1
  O  O1  1  0.13846300  0.99635800  0.98562200  1
  O  O2  1  0.27242800  0.75677400  0.28809000  1
  O  O3  1  0.37656800  0.45239800  0.88801000  1
  O  O4  1  0.62343200  0.54760200  0.11199000  1
  O  O5  1  0.25821800  0.26718800  0.21385700  1
  O  O6  1  0.88798900  0.97099500  0.45518500  1
  O  O7  1  0.63846300  0.00364200  0.51437800  1
  O  O8  1  0.96837600  0.77004700  0.29635000  1
  O  O9  1  0.99277200  0.25644300  0.21235700  1
  O  O10  1  0.12279900  0.67714200  0.54635000  1
  O  O11  1  0.37687000  0.38646100  0.41328400  1
  O  O12  1  0.37720100  0.67714200  0.04635000  1
  O  O13  1  0.62279900  0.32285800  0.95365000  1
  O  O14  1  0.12480900  0.61226500  0.08503200  1
  O  O15  1  0.24178200  0.26718800  0.71385700  1
  O  O16  1  0.49277200  0.74355700  0.28764300  1
  O  O17  1  0.87656800  0.54760200  0.61199000  1
  O  O18  1  0.62480900  0.38773500  0.41496800  1
  O  O19  1  0.87519100  0.38773500  0.91496800  1
  O  O20  1  0.11201100  0.02900500  0.54481500  1
  O  O21  1  0.12313000  0.38646100  0.91328400  1
  O  O22  1  0.75821800  0.73281200  0.28614300  1
  O  O23  1  0.61201100  0.97099500  0.95518500  1
  O  O24  1  0.87720100  0.32285800  0.45365000  1
  O  O25  1  0.38798900  0.02900500  0.04481500  1
  O  O26  1  0.37519100  0.61226500  0.58503200  1
  O  O27  1  0.00722800  0.74355700  0.78764300  1
  O  O28  1  0.77242800  0.24322600  0.21191000  1
  O  O29  1  0.87687000  0.61353900  0.08671600  1
  O  O30  1  0.72757200  0.24322600  0.71191000  1
  O  O31  1  0.22757200  0.75677400  0.78809000  1
  O  O32  1  0.36153700  0.99635800  0.48562200  1
  O  O33  1  0.74178200  0.73281200  0.78614300  1
  O  O34  1  0.62313000  0.61353900  0.58671600  1
  O  O35  1  0.03162400  0.22995300  0.70365000  1
  O  O36  1  0.50722800  0.25644300  0.71235700  1
  O  O37  1  0.12343200  0.45239800  0.38801000  1
  O  O38  1  0.53162400  0.77004700  0.79635000  1
  O  O39  1  0.46837600  0.22995300  0.20365000  1
loop_
_geom_bond_atom_site_label_1
_geom_bond_atom_site_label_2
_geom_bond_distance
_geom_bond_site_symmetry_2
Co0 O3 2.055806 1_555
Co0 O5 2.080679 1_556
Co0 O31 2.085488 1_555
Co0 O14 2.141757 1_556
Co0 O21 2.197771 1_555
Co0 O12 2.258219 1_556
Co1 O4 2.055806 1_555
Co1 O33 2.080679 1_554
Co1 O28 2.085488 1_555
Co1 O19 2.141757 1_554
Co1 O29 2.197771 1_555
Co1 O13 2.258219 1_554
Co2 O4 2.031888 1_555
Co2 O3 2.031888 1_554
Co2 O38 2.169855 1_554
Co2 O39 2.169855 1_555
Co2 O13 2.249599 1_554
Co2 O12 2.249599 1_555
Co3 O37 2.055806 1_555
Co3 O15 2.080679 1_555
Co3 O2 2.085488 1_555
Co3 O26 2.141757 1_555
Co3 O11 2.197771 1_555
Co3 O10 2.258219 1_555
Co4 O17 2.055806 1_555
Co4 O22 2.080679 1_555
Co4 O30 2.085488 1_555
Co4 O18 2.141757 1_555
Co4 O34 2.197771 1_555
Co4 O24 2.258219 1_555
Co5 O17 2.031888 1_455
Co5 O37 2.031888 1_555
Co5 O8 2.169855 1_455
Co5 O35 2.169855 1_555
Co5 O10 2.249599 1_555
Co5 O24 2.249599 1_455
Co6 O16 2.064198 1_555
Co6 O36 2.064198 1_555
Co6 O11 2.136026 1_555
Co6 O34 2.136026 1_555
Co6 O18 2.139036 1_555
Co6 O26 2.139036 1_555
Co7 O27 2.064198 1_554
Co7 O9 2.064198 1_455
Co7 O29 2.136026 1_455
Co7 O21 2.136026 1_554
Co7 O14 2.139036 1_555
Co7 O19 2.139036 1_454
As0 O1 1.703536 1_545
As0 O15 1.734868 1_555
As0 O21 1.741184 1_555
As0 O35 1.745742 1_555
As1 O7 1.703536 1_565
As1 O33 1.734868 1_555
As1 O34 1.741184 1_555
As1 O38 1.745742 1_555
As2 O28 1.704174 1_555
As2 O9 1.714682 1_555
As2 O24 1.719807 1_555
As2 O6 1.793687 1_545
As3 O32 1.703536 1_545
As3 O5 1.734868 1_555
As3 O11 1.741184 1_555
As3 O39 1.745742 1_555
As4 O31 1.704174 1_555
As4 O27 1.714682 1_555
As4 O10 1.719807 1_555
As4 O20 1.793687 1_565
As5 O0 1.703536 1_565
As5 O22 1.734868 1_555
As5 O29 1.741184 1_555
As5 O8 1.745742 1_555
As6 O30 1.704174 1_555
As6 O36 1.714682 1_555
As6 O13 1.719807 1_555
As6 O23 1.793687 1_545
As7 O2 1.704174 1_555
As7 O16 1.714682 1_555
As7 O12 1.719807 1_555
As7 O25 1.793687 1_565
H0 O25 1.014631 1_555
H0 O39 1.715703 1_555
H1 O19 1.046695 1_555
H1 O17 1.504848 1_555
H2 O6 1.014631 1_555
H2 O8 1.715703 1_555
H3 O17 0.975190 1_555
H4 O19 1.008134 1_555
H4 O0 1.672399 1_556
H5 O23 1.014631 1_555
H5 O38 1.715703 1_555
H6 O14 1.008134 1_555
H6 O1 1.672399 1_554
H7 O14 1.046695 1_555
H7 O37 1.504848 1_555
H8 O3 0.975190 1_555
H9 O18 1.008134 1_555
H9 O7 1.672399 1_555
H10 O4 0.975190 1_555
H11 O26 1.008134 1_555
H11 O32 1.672399 1_555
H12 O20 1.014631 1_555
H12 O35 1.715703 1_555
H13 O26 1.046695 1_555
H13 O3 1.504848 1_555
H14 O18 1.046695 1_555
H14 O4 1.504848 1_555
H15 O37 0.975190 1_555
O0 Sr1 2.497053 1_554
O1 Sr0 2.497053 1_556
O2 Sr0 2.530370 1_555
O5 Sr0 2.566615 1_545
O6 Sr1 2.791872 1_565
O7 Sr3 2.497053 1_555
O8 Sr0 2.646557 1_655
O9 Sr0 2.582589 1_645
O10 Sr0 2.762528 1_555
O12 Sr2 2.762528 1_554
O13 Sr3 2.762528 1_556
O15 Sr2 2.566615 1_545
O16 Sr3 2.582589 1_565
O20 Sr0 2.791872 1_545
O22 Sr3 2.566615 1_565
O23 Sr3 2.791872 1_566
O24 Sr1 2.762528 1_555
O25 Sr2 2.791872 1_544
O27 Sr1 2.582589 1_465
O28 Sr3 2.530370 1_555
O30 Sr1 2.530370 1_555
O31 Sr2 2.530370 1_555
O32 Sr2 2.497053 1_555
O33 Sr1 2.566615 1_565
O35 Sr1 2.646557 1_455
O36 Sr2 2.582589 1_545
O38 Sr2 2.646557 1_555
O39 Sr3 2.646557 1_555
