# generated using pymatgen
data_TiS4(NCl)4
_symmetry_space_group_name_H-M   'P 1'
_cell_length_a   8.73813400
_cell_length_b   11.39658800
_cell_length_c   15.10215225
_cell_angle_alpha   52.62775790
_cell_angle_beta   90.00000000
_cell_angle_gamma   90.00000000
_symmetry_Int_Tables_number   1
_chemical_formula_structural   TiS4(NCl)4
_chemical_formula_sum   'Ti4 S16 N16 Cl16'
_cell_volume   1195.19950449
_cell_formula_units_Z   4
loop_
 _symmetry_equiv_pos_site_id
 _symmetry_equiv_pos_as_xyz
  1  'x, y, z'
loop_
 _atom_site_type_symbol
 _atom_site_label
 _atom_site_symmetry_multiplicity
 _atom_site_fract_x
 _atom_site_fract_y
 _atom_site_fract_z
 _atom_site_occupancy
  Ti  Ti0  1  0.27182500  0.24274000  0.85109900  1
  Ti  Ti1  1  0.77182500  0.75726000  0.64890100  1
  Ti  Ti2  1  0.72817500  0.75726000  0.14890100  1
  Ti  Ti3  1  0.22817500  0.24274000  0.35109900  1
  S  S0  1  0.51160900  0.72501300  0.97387600  1
  S  S1  1  0.69921200  0.28724400  0.51845200  1
  S  S2  1  0.64439800  0.03373100  0.17369100  1
  S  S3  1  0.65812500  0.14493800  0.95201100  1
  S  S4  1  0.15812500  0.85506200  0.54798900  1
  S  S5  1  0.34187500  0.85506200  0.04798900  1
  S  S6  1  0.14439800  0.96626900  0.32630900  1
  S  S7  1  0.19921200  0.71275600  0.98154800  1
  S  S8  1  0.80078800  0.28724400  0.01845200  1
  S  S9  1  0.35560200  0.96626900  0.82630900  1
  S  S10  1  0.85560200  0.03373100  0.67369100  1
  S  S11  1  0.48839100  0.27498700  0.02612400  1
  S  S12  1  0.84187500  0.14493800  0.45201100  1
  S  S13  1  0.98839100  0.72501300  0.47387600  1
  S  S14  1  0.30078800  0.71275600  0.48154800  1
  S  S15  1  0.01160900  0.27498700  0.52612400  1
  N  N0  1  0.65471700  0.99578000  0.08345400  1
  N  N1  1  0.99994600  0.22984000  0.44032900  1
  N  N2  1  0.63977600  0.37035000  0.00052200  1
  N  N3  1  0.34528300  0.00422000  0.91654600  1
  N  N4  1  0.70675900  0.13533800  0.64463600  1
  N  N5  1  0.29324100  0.86466200  0.35536400  1
  N  N6  1  0.86022400  0.37035000  0.50052200  1
  N  N7  1  0.79324100  0.13533800  0.14463600  1
  N  N8  1  0.50005400  0.22984000  0.94032900  1
  N  N9  1  0.49994600  0.77016000  0.05967100  1
  N  N10  1  0.84528300  0.99578000  0.58345400  1
  N  N11  1  0.20675900  0.86466200  0.85536400  1
  N  N12  1  0.13977600  0.62965000  0.49947800  1
  N  N13  1  0.36022400  0.62965000  0.99947800  1
  N  N14  1  0.00005400  0.77016000  0.55967100  1
  N  N15  1  0.15471700  0.00422000  0.41654600  1
  Cl  Cl0  1  0.73996600  0.53119000  0.69656600  1
  Cl  Cl1  1  0.57298900  0.69020000  0.29424400  1
  Cl  Cl2  1  0.42701100  0.30980000  0.70575600  1
  Cl  Cl3  1  0.55493000  0.77153900  0.72072000  1
  Cl  Cl4  1  0.76003400  0.53119000  0.19656600  1
  Cl  Cl5  1  0.05493000  0.22846100  0.77928000  1
  Cl  Cl6  1  0.67456900  0.88042400  0.47017900  1
  Cl  Cl7  1  0.23996600  0.46881000  0.80343400  1
  Cl  Cl8  1  0.92701100  0.69020000  0.79424400  1
  Cl  Cl9  1  0.07298900  0.30980000  0.20575600  1
  Cl  Cl10  1  0.32543100  0.11957600  0.52982100  1
  Cl  Cl11  1  0.26003400  0.46881000  0.30343400  1
  Cl  Cl12  1  0.82543100  0.88042400  0.97017900  1
  Cl  Cl13  1  0.44507000  0.22846100  0.27928000  1
  Cl  Cl14  1  0.94507000  0.77153900  0.22072000  1
  Cl  Cl15  1  0.17456900  0.11957600  0.02982100  1
loop_
_geom_bond_atom_site_label_1
_geom_bond_atom_site_label_2
_geom_bond_distance
_geom_bond_site_symmetry_2
N0 S3 1.653651 1_564
N0 S2 1.663697 1_565
N0 Ti2 2.348721 1_555
N1 S12 1.633391 1_555
N1 S15 1.662300 1_655
N1 Ti3 2.360986 1_655
N2 S11 1.603243 1_555
N2 S8 1.624352 1_555
N3 S5 1.653651 1_546
N3 S9 1.663697 1_545
N3 Ti0 2.348721 1_555
N4 S10 1.614989 1_555
N4 S1 1.621085 1_555
N5 S6 1.614989 1_555
N5 S14 1.621085 1_555
N6 S15 1.603243 1_655
N6 S1 1.624352 1_555
N7 S2 1.614989 1_555
N7 S8 1.621085 1_555
N8 S3 1.633391 1_555
N8 S11 1.662300 1_556
N8 Ti0 2.360986 1_555
N9 S5 1.633391 1_555
N9 S0 1.662300 1_554
N9 Ti2 2.360986 1_555
N10 S12 1.653651 1_565
N10 S10 1.663697 1_565
N10 Ti1 2.348721 1_555
N11 S9 1.614989 1_555
N11 S7 1.621085 1_555
N12 S13 1.603243 1_455
N12 S14 1.624352 1_555
N13 S0 1.603243 1_555
N13 S7 1.624352 1_555
N14 S4 1.633391 1_555
N14 S13 1.662300 1_455
N14 Ti1 2.360986 1_455
N15 S4 1.653651 1_545
N15 S6 1.663697 1_545
N15 Ti3 2.348721 1_555
Cl0 Ti1 2.232077 1_555
Cl1 Ti2 2.281319 1_555
Cl2 Ti0 2.281319 1_555
Cl3 Ti1 2.238115 1_555
Cl4 Ti2 2.232077 1_555
Cl5 Ti0 2.238115 1_555
Cl6 Ti1 2.319109 1_555
Cl7 Ti0 2.232077 1_555
Cl8 Ti1 2.281319 1_555
Cl9 Ti3 2.281319 1_555
Cl10 Ti3 2.319109 1_555
Cl11 Ti3 2.232077 1_555
Cl12 Ti2 2.319109 1_556
Cl13 Ti3 2.238115 1_555
Cl14 Ti2 2.238115 1_555
Cl15 Ti0 2.319109 1_554
