# generated using pymatgen
data_K3Mo12PO40
_symmetry_space_group_name_H-M   'P 1'
_cell_length_a   11.58943449
_cell_length_b   11.58943449
_cell_length_c   11.58943449
_cell_angle_alpha   90.00000000
_cell_angle_beta   90.00000000
_cell_angle_gamma   90.00000000
_symmetry_Int_Tables_number   1
_chemical_formula_structural   K3Mo12PO40
_chemical_formula_sum   'K6 Mo24 P2 O80'
_cell_volume   1556.63479847
_cell_formula_units_Z   2
loop_
 _symmetry_equiv_pos_site_id
 _symmetry_equiv_pos_as_xyz
  1  'x, y, z'
loop_
 _atom_site_type_symbol
 _atom_site_label
 _atom_site_symmetry_multiplicity
 _atom_site_fract_x
 _atom_site_fract_y
 _atom_site_fract_z
 _atom_site_occupancy
  K  K0  1  0.50000000  0.50000000  0.00000000  1
  K  K1  1  0.50000000  -0.00000000  0.00000000  1
  K  K2  1  0.50000000  -0.00000000  0.50000000  1
  K  K3  1  -0.00000000  0.50000000  0.50000000  1
  K  K4  1  -0.00000000  0.50000000  0.00000000  1
  K  K5  1  -0.00000000  -0.00000000  0.50000000  1
  Mo  Mo0  1  0.50831426  0.71735821  0.28264179  1
  Mo  Mo1  1  0.21735821  0.99168574  0.78264179  1
  Mo  Mo2  1  0.78264179  0.78264179  0.00831426  1
  Mo  Mo3  1  0.49168574  0.71735821  0.71735821  1
  Mo  Mo4  1  0.21735821  0.00831426  0.21735821  1
  Mo  Mo5  1  0.28264179  0.71735821  0.50831426  1
  Mo  Mo6  1  0.28264179  0.28264179  0.49168574  1
  Mo  Mo7  1  0.78264179  0.21735821  0.99168574  1
  Mo  Mo8  1  0.71735821  0.71735821  0.49168574  1
  Mo  Mo9  1  0.50831426  0.28264179  0.71735821  1
  Mo  Mo10  1  0.71735821  0.49168574  0.71735821  1
  Mo  Mo11  1  0.71735821  0.50831426  0.28264179  1
  Mo  Mo12  1  0.21735821  0.78264179  0.99168574  1
  Mo  Mo13  1  0.49168574  0.28264179  0.28264179  1
  Mo  Mo14  1  0.99168574  0.21735821  0.78264179  1
  Mo  Mo15  1  0.78264179  0.99168574  0.21735821  1
  Mo  Mo16  1  0.00831426  0.21735821  0.21735821  1
  Mo  Mo17  1  0.00831426  0.78264179  0.78264179  1
  Mo  Mo18  1  0.28264179  0.50831426  0.71735821  1
  Mo  Mo19  1  0.78264179  0.00831426  0.78264179  1
  Mo  Mo20  1  0.71735821  0.28264179  0.50831426  1
  Mo  Mo21  1  0.28264179  0.49168574  0.28264179  1
  Mo  Mo22  1  0.21735821  0.21735821  0.00831426  1
  Mo  Mo23  1  0.99168574  0.78264179  0.21735821  1
  P  P0  1  0.50000000  0.50000000  0.50000000  1
  P  P1  1  -0.00000000  -0.00000000  0.00000000  1
  O  O0  1  0.37345147  0.21182367  0.37345147  1
  O  O1  1  0.28817633  0.87345147  0.87345147  1
  O  O2  1  0.48134377  0.18207337  0.81792663  1
  O  O3  1  0.37345147  0.78817633  0.62654853  1
  O  O4  1  0.87345147  0.87345147  0.28817633  1
  O  O5  1  0.18207337  0.18207337  0.51865623  1
  O  O6  1  0.24427195  0.40174687  0.59825313  1
  O  O7  1  0.90174687  0.74427195  0.90174687  1
  O  O8  1  0.21182367  0.62654853  0.62654853  1
  O  O9  1  0.31792663  0.98134377  0.31792663  1
  O  O10  1  0.68207337  0.01865623  0.31792663  1
  O  O11  1  0.12654853  0.71182367  0.87345147  1
  O  O12  1  0.62654853  0.78817633  0.37345147  1
  O  O13  1  0.40174687  0.24427195  0.59825313  1
  O  O14  1  0.42381228  0.42381228  0.42381228  1
  O  O15  1  0.25572805  0.09825313  0.90174687  1
  O  O16  1  0.40174687  0.59825313  0.24427195  1
  O  O17  1  0.92381228  0.92381228  0.07618772  1
  O  O18  1  0.51865623  0.18207337  0.18207337  1
  O  O19  1  0.01865623  0.68207337  0.31792663  1
  O  O20  1  0.37345147  0.37345147  0.21182367  1
  O  O21  1  0.09825313  0.74427195  0.09825313  1
  O  O22  1  0.78817633  0.37345147  0.62654853  1
  O  O23  1  0.57618772  0.57618772  0.42381228  1
  O  O24  1  0.09825313  0.25572805  0.90174687  1
  O  O25  1  0.42381228  0.57618772  0.57618772  1
  O  O26  1  0.71182367  0.87345147  0.12654853  1
  O  O27  1  0.81792663  0.81792663  0.51865623  1
  O  O28  1  0.21182367  0.37345147  0.37345147  1
  O  O29  1  0.57618772  0.42381228  0.57618772  1
  O  O30  1  0.90174687  0.25572805  0.09825313  1
  O  O31  1  0.87345147  0.28817633  0.87345147  1
  O  O32  1  0.09825313  0.09825313  0.74427195  1
  O  O33  1  0.37345147  0.62654853  0.78817633  1
  O  O34  1  0.59825313  0.75572805  0.59825313  1
  O  O35  1  0.18207337  0.81792663  0.48134377  1
  O  O36  1  0.81792663  0.51865623  0.81792663  1
  O  O37  1  0.40174687  0.40174687  0.75572805  1
  O  O38  1  0.59825313  0.40174687  0.24427195  1
  O  O39  1  0.18207337  0.51865623  0.18207337  1
  O  O40  1  0.24427195  0.59825313  0.40174687  1
  O  O41  1  0.90174687  0.09825313  0.25572805  1
  O  O42  1  0.12654853  0.28817633  0.12654853  1
  O  O43  1  0.78817633  0.62654853  0.37345147  1
  O  O44  1  0.68207337  0.31792663  0.01865623  1
  O  O45  1  0.71182367  0.12654853  0.87345147  1
  O  O46  1  0.48134377  0.81792663  0.18207337  1
  O  O47  1  0.87345147  0.71182367  0.12654853  1
  O  O48  1  0.98134377  0.68207337  0.68207337  1
  O  O49  1  0.18207337  0.48134377  0.81792663  1
  O  O50  1  0.01865623  0.31792663  0.68207337  1
  O  O51  1  0.12654853  0.87345147  0.71182367  1
  O  O52  1  0.62654853  0.62654853  0.21182367  1
  O  O53  1  0.90174687  0.90174687  0.74427195  1
  O  O54  1  0.12654853  0.12654853  0.28817633  1
  O  O55  1  0.51865623  0.81792663  0.81792663  1
  O  O56  1  0.07618772  0.07618772  0.07618772  1
  O  O57  1  0.07618772  0.92381228  0.92381228  1
  O  O58  1  0.81792663  0.48134377  0.18207337  1
  O  O59  1  0.62654853  0.21182367  0.62654853  1
  O  O60  1  0.09825313  0.90174687  0.25572805  1
  O  O61  1  0.87345147  0.12654853  0.71182367  1
  O  O62  1  0.75572805  0.59825313  0.59825313  1
  O  O63  1  0.98134377  0.31792663  0.31792663  1
  O  O64  1  0.31792663  0.68207337  0.01865623  1
  O  O65  1  0.74427195  0.09825313  0.09825313  1
  O  O66  1  0.40174687  0.75572805  0.40174687  1
  O  O67  1  0.28817633  0.12654853  0.12654853  1
  O  O68  1  0.59825313  0.24427195  0.40174687  1
  O  O69  1  0.62654853  0.37345147  0.78817633  1
  O  O70  1  0.59825313  0.59825313  0.75572805  1
  O  O71  1  0.68207337  0.98134377  0.68207337  1
  O  O72  1  0.68207337  0.68207337  0.98134377  1
  O  O73  1  0.81792663  0.18207337  0.48134377  1
  O  O74  1  0.25572805  0.90174687  0.09825313  1
  O  O75  1  0.75572805  0.40174687  0.40174687  1
  O  O76  1  0.74427195  0.90174687  0.90174687  1
  O  O77  1  0.92381228  0.07618772  0.92381228  1
  O  O78  1  0.31792663  0.31792663  0.98134377  1
  O  O79  1  0.31792663  0.01865623  0.68207337  1
loop_
_geom_bond_atom_site_label_1
_geom_bond_atom_site_label_2
_geom_bond_distance
_geom_bond_site_symmetry_2
K0 O78 2.991993 1_554
K0 O44 2.991993 1_555
K0 O64 2.991993 1_555
K0 O72 2.991993 1_554
K0 O52 3.213814 1_555
K0 O33 3.213814 1_554
K0 O20 3.213814 1_555
K0 O69 3.213814 1_554
K0 O16 3.256943 1_555
K0 O38 3.256943 1_555
K0 O37 3.256943 1_554
K0 O70 3.256943 1_554
K1 O46 2.991993 1_545
K1 O18 2.991993 1_555
K1 O2 2.991993 1_554
K1 O55 2.991993 1_544
K1 O45 3.213814 1_554
K1 O1 3.213814 1_544
K1 O26 3.213814 1_545
K1 O67 3.213814 1_555
K1 O15 3.256943 1_554
K1 O76 3.256943 1_544
K1 O65 3.256943 1_555
K1 O74 3.256943 1_545
K2 O79 2.991993 1_555
K2 O10 2.991993 1_555
K2 O9 2.991993 1_545
K2 O71 2.991993 1_545
K2 O12 3.213814 1_545
K2 O59 3.213814 1_555
K2 O0 3.213814 1_555
K2 O3 3.213814 1_545
K2 O66 3.256943 1_545
K2 O68 3.256943 1_555
K2 O34 3.256943 1_545
K2 O13 3.256943 1_555
K3 O50 2.991993 1_555
K3 O19 2.991993 1_555
K3 O48 2.991993 1_455
K3 O63 2.991993 1_455
K3 O22 3.213814 1_455
K3 O8 3.213814 1_555
K3 O43 3.213814 1_455
K3 O28 3.213814 1_555
K3 O75 3.256943 1_455
K3 O62 3.256943 1_455
K3 O40 3.256943 1_555
K3 O6 3.256943 1_555
K4 O36 2.991993 1_454
K4 O58 2.991993 1_455
K4 O39 2.991993 1_555
K4 O49 2.991993 1_554
K4 O42 3.213814 1_555
K4 O11 3.213814 1_554
K4 O47 3.213814 1_455
K4 O31 3.213814 1_454
K4 O30 3.256943 1_455
K4 O21 3.256943 1_555
K4 O24 3.256943 1_554
K4 O7 3.256943 1_454
K5 O27 2.991993 1_445
K5 O73 2.991993 1_455
K5 O5 2.991993 1_555
K5 O35 2.991993 1_545
K5 O4 3.213814 1_445
K5 O51 3.213814 1_545
K5 O54 3.213814 1_555
K5 O61 3.213814 1_455
K5 O53 3.256943 1_445
K5 O41 3.256943 1_455
K5 O32 3.256943 1_555
K5 O60 3.256943 1_545
Mo0 O46 1.677685 1_555
Mo0 O16 1.904863 1_555
Mo0 O66 1.904863 1_555
Mo0 O12 1.912817 1_555
Mo0 O52 1.912817 1_555
Mo1 O79 1.677685 1_565
Mo1 O15 1.904863 1_565
Mo1 O32 1.904863 1_565
Mo1 O1 1.912817 1_555
Mo1 O51 1.912817 1_555
Mo2 O72 1.677685 1_554
Mo2 O76 1.904863 1_554
Mo2 O7 1.904863 1_554
Mo2 O47 1.912817 1_555
Mo2 O26 1.912817 1_555
Mo3 O55 1.677685 1_555
Mo3 O34 1.904863 1_555
Mo3 O70 1.904863 1_555
Mo3 O33 1.912817 1_555
Mo3 O3 1.912817 1_555
Mo4 O9 1.677685 1_545
Mo4 O60 1.904863 1_545
Mo4 O74 1.904863 1_545
Mo4 O67 1.912817 1_555
Mo4 O54 1.912817 1_555
Mo5 O35 1.677685 1_555
Mo5 O40 1.904863 1_555
Mo5 O66 1.904863 1_555
Mo5 O3 1.912817 1_555
Mo5 O8 1.912817 1_555
Mo6 O5 1.677685 1_555
Mo6 O13 1.904863 1_555
Mo6 O6 1.904863 1_555
Mo6 O0 1.912817 1_555
Mo6 O28 1.912817 1_555
Mo7 O44 1.677685 1_556
Mo7 O30 1.904863 1_556
Mo7 O65 1.904863 1_556
Mo7 O45 1.912817 1_555
Mo7 O31 1.912817 1_555
Mo8 O27 1.677685 1_555
Mo8 O62 1.904863 1_555
Mo8 O34 1.904863 1_555
Mo8 O43 1.912817 1_555
Mo8 O12 1.912817 1_555
Mo9 O2 1.677685 1_555
Mo9 O13 1.904863 1_555
Mo9 O37 1.904863 1_555
Mo9 O69 1.912817 1_555
Mo9 O59 1.912817 1_555
Mo10 O36 1.677685 1_555
Mo10 O62 1.904863 1_555
Mo10 O70 1.904863 1_555
Mo10 O69 1.912817 1_555
Mo10 O22 1.912817 1_555
Mo11 O58 1.677685 1_555
Mo11 O38 1.904863 1_555
Mo11 O75 1.904863 1_555
Mo11 O43 1.912817 1_555
Mo11 O52 1.912817 1_555
Mo12 O64 1.677685 1_556
Mo12 O21 1.904863 1_556
Mo12 O74 1.904863 1_556
Mo12 O1 1.912817 1_555
Mo12 O11 1.912817 1_555
Mo13 O18 1.677685 1_555
Mo13 O68 1.904863 1_555
Mo13 O38 1.904863 1_555
Mo13 O0 1.912817 1_555
Mo13 O20 1.912817 1_555
Mo14 O50 1.677685 1_655
Mo14 O24 1.904863 1_655
Mo14 O32 1.904863 1_655
Mo14 O61 1.912817 1_555
Mo14 O31 1.912817 1_555
Mo15 O10 1.677685 1_565
Mo15 O41 1.904863 1_565
Mo15 O65 1.904863 1_565
Mo15 O26 1.912817 1_555
Mo15 O4 1.912817 1_555
Mo16 O63 1.677685 1_455
Mo16 O30 1.904863 1_455
Mo16 O41 1.904863 1_455
Mo16 O42 1.912817 1_555
Mo16 O54 1.912817 1_555
Mo17 O48 1.677685 1_455
Mo17 O7 1.904863 1_455
Mo17 O53 1.904863 1_455
Mo17 O51 1.912817 1_555
Mo17 O11 1.912817 1_555
Mo18 O49 1.677685 1_555
Mo18 O6 1.904863 1_555
Mo18 O37 1.904863 1_555
Mo18 O33 1.912817 1_555
Mo18 O8 1.912817 1_555
Mo19 O71 1.677685 1_545
Mo19 O53 1.904863 1_545
Mo19 O76 1.904863 1_545
Mo19 O61 1.912817 1_555
Mo19 O45 1.912817 1_555
Mo20 O73 1.677685 1_555
Mo20 O68 1.904863 1_555
Mo20 O75 1.904863 1_555
Mo20 O22 1.912817 1_555
Mo20 O59 1.912817 1_555
Mo21 O39 1.677685 1_555
Mo21 O40 1.904863 1_555
Mo21 O16 1.904863 1_555
Mo21 O28 1.912817 1_555
Mo21 O20 1.912817 1_555
Mo22 O78 1.677685 1_554
Mo22 O24 1.904863 1_554
Mo22 O15 1.904863 1_554
Mo22 O67 1.912817 1_555
Mo22 O42 1.912817 1_555
Mo23 O19 1.677685 1_655
Mo23 O21 1.904863 1_655
Mo23 O60 1.904863 1_655
Mo23 O4 1.912817 1_555
Mo23 O47 1.912817 1_555
O14 P0 1.529353 1_555
O17 P1 1.529353 1_665
O23 P0 1.529353 1_555
O25 P0 1.529353 1_555
O29 P0 1.529353 1_555
O56 P1 1.529353 1_555
O57 P1 1.529353 1_566
O77 P1 1.529353 1_656
