# generated using pymatgen
data_Al24Zn3O40
_symmetry_space_group_name_H-M   'P 1'
_cell_length_a   5.69424555
_cell_length_b   5.69424555
_cell_length_c   23.28801217
_cell_angle_alpha   82.94895954
_cell_angle_beta   82.94895954
_cell_angle_gamma   60.34456558
_symmetry_Int_Tables_number   1
_chemical_formula_structural   Al24Zn3O40
_chemical_formula_sum   'Al24 Zn3 O40'
_cell_volume   649.54638706
_cell_formula_units_Z   1
loop_
 _symmetry_equiv_pos_site_id
 _symmetry_equiv_pos_as_xyz
  1  'x, y, z'
loop_
 _atom_site_type_symbol
 _atom_site_label
 _atom_site_symmetry_multiplicity
 _atom_site_fract_x
 _atom_site_fract_y
 _atom_site_fract_z
 _atom_site_occupancy
  Al  Al0  1  0.50040300  0.50040300  0.99933000  1
  Al  Al1  1  0.70209700  0.19924900  0.89778400  1
  Al  Al2  1  0.19924900  0.70209700  0.89778400  1
  Al  Al3  1  0.96907000  0.96907000  0.57286700  1
  Al  Al4  1  0.70228000  0.70228000  0.89760700  1
  Al  Al5  1  0.09670100  0.60565100  0.70215800  1
  Al  Al6  1  0.22423700  0.22423700  0.82971900  1
  Al  Al7  1  0.60565100  0.09670100  0.70215800  1
  Al  Al8  1  0.31128100  0.31128100  0.59605800  1
  Al  Al9  1  0.09783300  0.09783300  0.70151600  1
  Al  Al10  1  0.50146500  0.98987000  0.50146900  1
  Al  Al11  1  0.39769500  0.90334900  0.29574100  1
  Al  Al12  1  0.98987000  0.50146500  0.50146900  1
  Al  Al13  1  0.69558800  0.69558800  0.39895600  1
  Al  Al14  1  0.63008900  0.63008900  0.62558700  1
  Al  Al15  1  0.77522900  0.77522900  0.17210200  1
  Al  Al16  1  0.90334900  0.39769500  0.29574100  1
  Al  Al17  1  0.03050400  0.03050400  0.42374900  1
  Al  Al18  1  0.90259100  0.90259100  0.29584700  1
  Al  Al19  1  0.29251500  0.80829600  0.10535600  1
  Al  Al20  1  0.42334400  0.42334400  0.22974900  1
  Al  Al21  1  0.80829600  0.29251500  0.10535600  1
  Al  Al22  1  0.29269300  0.29269300  0.10562900  1
  Al  Al23  1  0.82463900  0.82463900  0.02721900  1
  Zn  Zn0  1  0.17471200  0.17471200  0.97415400  1
  Zn  Zn1  1  0.57471400  0.57471400  0.77479700  1
  Zn  Zn2  1  0.37357700  0.37357700  0.37265300  1
  O  O0  1  0.37154200  0.81019200  0.94832800  1
  O  O1  1  0.54774200  0.54774200  0.85734700  1
  O  O2  1  0.81019200  0.37154200  0.94832800  1
  O  O3  1  0.37070900  0.37070900  0.94832500  1
  O  O4  1  0.76501300  0.23353000  0.74010400  1
  O  O5  1  0.04641200  0.04641200  0.85804000  1
  O  O6  1  0.85117000  0.85117000  0.94773100  1
  O  O7  1  0.95034500  0.95034500  0.65124100  1
  O  O8  1  0.23353000  0.76501300  0.74010400  1
  O  O9  1  0.55053700  0.04641700  0.85786100  1
  O  O10  1  0.04641700  0.55053700  0.85786100  1
  O  O11  1  0.76371500  0.76371500  0.74024200  1
  O  O12  1  0.13518300  0.63085600  0.55147100  1
  O  O13  1  0.44133300  0.44133300  0.65019700  1
  O  O14  1  0.32834200  0.32834200  0.45779200  1
  O  O15  1  0.97882900  0.43601800  0.65148400  1
  O  O16  1  0.25301500  0.25301500  0.74667300  1
  O  O17  1  0.63085600  0.13518300  0.55147100  1
  O  O18  1  0.43601800  0.97882900  0.65148400  1
  O  O19  1  0.15508500  0.15508500  0.54993900  1
  O  O20  1  0.57465500  0.00713100  0.34506800  1
  O  O21  1  0.84298000  0.84298000  0.45149200  1
  O  O22  1  0.74873300  0.74873300  0.25040700  1
  O  O23  1  0.66029200  0.66029200  0.54858500  1
  O  O24  1  0.00713100  0.57465500  0.34506800  1
  O  O25  1  0.36955600  0.86698200  0.44710900  1
  O  O26  1  0.57025700  0.57025700  0.34572200  1
  O  O27  1  0.86698200  0.36955600  0.44710900  1
  O  O28  1  0.95098100  0.45298300  0.14412900  1
  O  O29  1  0.24597100  0.24597100  0.25651400  1
  O  O30  1  0.45298300  0.95098100  0.14412900  1
  O  O31  1  0.05085400  0.05085400  0.34471400  1
  O  O32  1  0.75052500  0.24612200  0.25637700  1
  O  O33  1  0.14629400  0.14629400  0.06096000  1
  O  O34  1  0.95099000  0.95099000  0.14403800  1
  O  O35  1  0.24612200  0.75052500  0.25637700  1
  O  O36  1  0.63719600  0.63719600  0.05196500  1
  O  O37  1  0.45052700  0.45052700  0.14777100  1
  O  O38  1  0.17418400  0.63713100  0.05194600  1
  O  O39  1  0.63713100  0.17418400  0.05194600  1
loop_
_geom_bond_atom_site_label_1
_geom_bond_atom_site_label_2
_geom_bond_distance
_geom_bond_site_symmetry_2
Al0 O3 1.863357 1_555
Al0 O0 1.865366 1_555
Al0 O2 1.865366 1_555
Al0 O36 1.945557 1_556
Al0 O38 1.949976 1_556
Al0 O39 1.949976 1_556
Al1 O9 1.872272 1_555
Al1 O5 1.876650 1_655
Al1 O1 1.901484 1_555
Al1 O2 1.945720 1_555
Al1 O3 1.952709 1_555
Al1 O6 2.003374 1_545
Al2 O10 1.872272 1_555
Al2 O5 1.876650 1_565
Al2 O1 1.901484 1_555
Al2 O0 1.945720 1_555
Al2 O3 1.952709 1_555
Al2 O6 2.003374 1_455
Al3 O17 1.780223 1_565
Al3 O12 1.780223 1_655
Al3 O7 1.808230 1_555
Al3 O19 1.833440 1_665
Al4 O10 1.875868 1_655
Al4 O9 1.875868 1_565
Al4 O1 1.897144 1_555
Al4 O2 1.951027 1_555
Al4 O0 1.951027 1_555
Al4 O6 1.999342 1_555
Al5 O8 1.810241 1_555
Al5 O11 1.812797 1_455
Al5 O16 1.961076 1_555
Al5 O15 1.972821 1_455
Al5 O7 2.001391 1_455
Al5 O13 2.017124 1_555
Al6 O5 1.781103 1_555
Al6 O10 1.783639 1_555
Al6 O9 1.783639 1_555
Al6 O16 1.914401 1_555
Al7 O4 1.810241 1_555
Al7 O11 1.812797 1_545
Al7 O16 1.961076 1_555
Al7 O18 1.972821 1_545
Al7 O7 2.001391 1_545
Al7 O13 2.017124 1_555
Al8 O12 1.838787 1_555
Al8 O17 1.838787 1_555
Al8 O13 1.920299 1_555
Al8 O19 1.996873 1_555
Al8 O18 2.012179 1_545
Al8 O15 2.012179 1_455
Al9 O4 1.816451 1_455
Al9 O8 1.816451 1_545
Al9 O15 1.968954 1_455
Al9 O18 1.968954 1_545
Al9 O16 1.973958 1_555
Al9 O7 1.990524 1_445
Al10 O23 1.897992 1_555
Al10 O14 1.898889 1_565
Al10 O25 1.904594 1_555
Al10 O17 1.906287 1_565
Al10 O21 1.977287 1_555
Al10 O19 1.981756 1_565
Al11 O29 1.864263 1_565
Al11 O35 1.864378 1_555
Al11 O20 1.929841 1_565
Al11 O26 1.952519 1_555
Al11 O22 1.963137 1_555
Al11 O31 1.986816 1_565
Al12 O23 1.897992 1_555
Al12 O14 1.898889 1_655
Al12 O27 1.904594 1_555
Al12 O12 1.906287 1_655
Al12 O21 1.977287 1_555
Al12 O19 1.981756 1_655
Al13 O26 1.869212 1_555
Al13 O25 1.902953 1_555
Al13 O27 1.902953 1_555
Al13 O20 1.911255 1_565
Al13 O24 1.911255 1_655
Al13 O21 2.026548 1_555
Al14 O23 1.775569 1_555
Al14 O13 1.865390 1_555
Al14 O15 1.867401 1_555
Al14 O18 1.867401 1_555
Al15 O34 1.760816 1_555
Al15 O30 1.763279 1_555
Al15 O28 1.763279 1_555
Al15 O22 1.805092 1_555
Al16 O29 1.864263 1_655
Al16 O32 1.864378 1_555
Al16 O24 1.929841 1_655
Al16 O26 1.952519 1_555
Al16 O22 1.963137 1_555
Al16 O31 1.986816 1_655
Al17 O27 1.801363 1_455
Al17 O25 1.801363 1_545
Al17 O31 1.822940 1_555
Al17 O21 1.867463 1_445
Al18 O35 1.870563 1_655
Al18 O32 1.870563 1_565
Al18 O20 1.922832 1_565
Al18 O24 1.922832 1_655
Al18 O22 1.967154 1_555
Al18 O31 1.974245 1_665
Al19 O30 1.851403 1_555
Al19 O34 1.854616 1_455
Al19 O33 1.898285 1_565
Al19 O37 1.961071 1_555
Al19 O38 2.025906 1_555
Al19 O36 2.037987 1_555
Al20 O29 1.768921 1_555
Al20 O35 1.772963 1_555
Al20 O32 1.772963 1_555
Al20 O37 1.889765 1_555
Al21 O28 1.851403 1_555
Al21 O34 1.854616 1_545
Al21 O33 1.898285 1_655
Al21 O37 1.961071 1_555
Al21 O39 2.025906 1_555
Al21 O36 2.037987 1_555
Al22 O30 1.854240 1_545
Al22 O28 1.854240 1_455
Al22 O33 1.893542 1_555
Al22 O37 1.952190 1_555
Al22 O38 2.039726 1_555
Al22 O39 2.039726 1_555
Al23 O6 1.832363 1_554
Al23 O36 1.853613 1_555
Al23 O38 1.860302 1_655
Al23 O39 1.860302 1_565
O0 Zn0 1.940404 1_565
O1 Zn1 1.902962 1_555
O2 Zn0 1.940404 1_655
O3 Zn0 1.938021 1_555
O4 Zn1 1.920558 1_555
O8 Zn1 1.920558 1_555
O11 Zn1 1.919630 1_555
O14 Zn2 1.969456 1_555
O20 Zn2 1.965193 1_555
O24 Zn2 1.965193 1_555
O26 Zn2 1.948895 1_555
O33 Zn0 2.001070 1_554
