# generated using pymatgen
data_SrCoO3
_symmetry_space_group_name_H-M   'P 1'
_cell_length_a   5.49434343
_cell_length_b   5.49429747
_cell_length_c   5.49433283
_cell_angle_alpha   60.00007663
_cell_angle_beta   89.99943222
_cell_angle_gamma   119.99999574
_symmetry_Int_Tables_number   1
_chemical_formula_structural   SrCoO3
_chemical_formula_sum   'Sr2 Co2 O6'
_cell_volume   117.28063714
_cell_formula_units_Z   2
loop_
 _symmetry_equiv_pos_site_id
 _symmetry_equiv_pos_as_xyz
  1  'x, y, z'
loop_
 _atom_site_type_symbol
 _atom_site_label
 _atom_site_symmetry_multiplicity
 _atom_site_fract_x
 _atom_site_fract_y
 _atom_site_fract_z
 _atom_site_occupancy
  Sr  Sr0  1  0.75000000  0.50000000  0.75000000  1
  Sr  Sr1  1  0.25000000  0.50000000  0.25000000  1
  Co  Co0  1  0.50000000  0.00000000  0.50000000  1
  Co  Co1  1  0.00000000  0.00000000  0.00000000  1
  O  O0  1  0.24999400  0.00000000  0.24999400  1
  O  O1  1  0.75000600  0.00000000  0.75000600  1
  O  O2  1  0.24999500  0.49999100  0.75000400  1
  O  O3  1  0.75000500  0.50000900  0.24999600  1
  O  O4  1  0.24999600  0.00000000  0.75000400  1
  O  O5  1  0.75000400  0.00000000  0.24999600  1
loop_
_geom_bond_atom_site_label_1
_geom_bond_atom_site_label_2
_geom_bond_distance
_geom_bond_site_symmetry_2
Co0 O2 1.942555 1_545
Co0 O3 1.942555 1_555
Co0 O5 1.942563 1_555
Co0 O4 1.942563 1_555
Co0 O1 1.942598 1_555
Co0 O0 1.942598 1_555
Co1 O3 1.942485 1_445
Co1 O2 1.942485 1_554
Co1 O5 1.942501 1_455
Co1 O4 1.942501 1_554
Co1 O0 1.942505 1_555
Co1 O1 1.942505 1_454
O0 Sr0 2.747145 1_445
O0 Sr0 2.747145 1_554
O0 Sr1 2.747149 1_555
O0 Sr1 2.747149 1_545
O1 Sr1 2.747145 1_655
O1 Sr1 2.747145 1_546
O1 Sr0 2.747149 1_545
O1 Sr0 2.747149 1_555
O2 Sr1 2.747164 1_555
O2 Sr0 2.747169 1_455
O2 Sr1 2.747169 1_556
O2 Sr0 2.747174 1_555
O3 Sr0 2.747164 1_555
O3 Sr1 2.747169 1_655
O3 Sr0 2.747169 1_554
O3 Sr1 2.747174 1_555
O4 Sr0 2.747160 1_445
O4 Sr0 2.747160 1_555
O4 Sr1 2.747161 1_555
O4 Sr1 2.747161 1_546
O5 Sr1 2.747160 1_655
O5 Sr1 2.747160 1_545
O5 Sr0 2.747161 1_545
O5 Sr0 2.747161 1_554
