# generated using pymatgen
data_SiO2
_symmetry_space_group_name_H-M   'P 1'
_cell_length_a   17.78282535
_cell_length_b   17.78282535
_cell_length_c   17.78282535
_cell_angle_alpha   109.47122063
_cell_angle_beta   109.47122063
_cell_angle_gamma   109.47122063
_symmetry_Int_Tables_number   1
_chemical_formula_structural   SiO2
_chemical_formula_sum   'Si48 O96'
_cell_volume   4328.92835769
_cell_formula_units_Z   48
loop_
 _symmetry_equiv_pos_site_id
 _symmetry_equiv_pos_as_xyz
  1  'x, y, z'
loop_
 _atom_site_type_symbol
 _atom_site_label
 _atom_site_symmetry_multiplicity
 _atom_site_fract_x
 _atom_site_fract_y
 _atom_site_fract_z
 _atom_site_occupancy
  Si  Si0  1  0.65248700  0.89618900  0.40159700  1
  Si  Si1  1  0.74911000  0.34751300  0.24370200  1
  Si  Si2  1  0.24370200  0.34751300  0.74911000  1
  Si  Si3  1  0.10381100  0.34751300  0.59840300  1
  Si  Si4  1  0.75629800  0.50540900  0.10381100  1
  Si  Si5  1  0.49459100  0.24370200  0.89618900  1
  Si  Si6  1  0.50540900  0.10381100  0.75629800  1
  Si  Si7  1  0.50540900  0.40159700  0.74911000  1
  Si  Si8  1  0.40159700  0.50540900  0.74911000  1
  Si  Si9  1  0.50540900  0.75629800  0.10381100  1
  Si  Si10  1  0.74911000  0.50540900  0.40159700  1
  Si  Si11  1  0.50540900  0.74911000  0.40159700  1
  Si  Si12  1  0.59840300  0.49459100  0.25089000  1
  Si  Si13  1  0.25089000  0.49459100  0.59840300  1
  Si  Si14  1  0.34751300  0.59840300  0.10381100  1
  Si  Si15  1  0.34751300  0.74911000  0.24370200  1
  Si  Si16  1  0.10381100  0.50540900  0.75629800  1
  Si  Si17  1  0.59840300  0.10381100  0.34751300  1
  Si  Si18  1  0.89618900  0.40159700  0.65248700  1
  Si  Si19  1  0.34751300  0.10381100  0.59840300  1
  Si  Si20  1  0.89618900  0.24370200  0.49459100  1
  Si  Si21  1  0.74911000  0.24370200  0.34751300  1
  Si  Si22  1  0.89618900  0.65248700  0.40159700  1
  Si  Si23  1  0.65248700  0.25089000  0.75629800  1
  Si  Si24  1  0.24370200  0.74911000  0.34751300  1
  Si  Si25  1  0.40159700  0.74911000  0.50540900  1
  Si  Si26  1  0.40159700  0.65248700  0.89618900  1
  Si  Si27  1  0.25089000  0.65248700  0.75629800  1
  Si  Si28  1  0.34751300  0.24370200  0.74911000  1
  Si  Si29  1  0.40159700  0.89618900  0.65248700  1
  Si  Si30  1  0.24370200  0.89618900  0.49459100  1
  Si  Si31  1  0.49459100  0.89618900  0.24370200  1
  Si  Si32  1  0.89618900  0.49459100  0.24370200  1
  Si  Si33  1  0.49459100  0.59840300  0.25089000  1
  Si  Si34  1  0.75629800  0.65248700  0.25089000  1
  Si  Si35  1  0.25089000  0.59840300  0.49459100  1
  Si  Si36  1  0.74911000  0.40159700  0.50540900  1
  Si  Si37  1  0.59840300  0.25089000  0.49459100  1
  Si  Si38  1  0.25089000  0.75629800  0.65248700  1
  Si  Si39  1  0.24370200  0.49459100  0.89618900  1
  Si  Si40  1  0.49459100  0.25089000  0.59840300  1
  Si  Si41  1  0.65248700  0.40159700  0.89618900  1
  Si  Si42  1  0.75629800  0.25089000  0.65248700  1
  Si  Si43  1  0.75629800  0.10381100  0.50540900  1
  Si  Si44  1  0.59840300  0.34751300  0.10381100  1
  Si  Si45  1  0.10381100  0.59840300  0.34751300  1
  Si  Si46  1  0.65248700  0.75629800  0.25089000  1
  Si  Si47  1  0.10381100  0.75629800  0.50540900  1
  O  O0  1  0.51432300  0.24567700  0.51432300  1
  O  O1  1  0.83528700  0.39321400  0.22850100  1
  O  O2  1  0.75588600  0.32779500  0.42809100  1
  O  O3  1  0.34916000  0.84916000  0.69832100  1
  O  O4  1  0.42809100  0.10029600  0.67220500  1
  O  O5  1  0.57190900  0.24411400  0.67220500  1
  O  O6  1  0.32779500  0.57190900  0.89970400  1
  O  O7  1  0.16471300  0.55792700  0.39321400  1
  O  O8  1  0.50000000  0.65084000  0.34916000  1
  O  O9  1  0.24411400  0.67220500  0.57190900  1
  O  O10  1  0.34916000  0.69832100  0.84916000  1
  O  O11  1  0.50000000  0.15084000  0.84916000  1
  O  O12  1  0.26864600  0.75432300  0.26864600  1
  O  O13  1  0.83528700  0.22850100  0.39321400  1
  O  O14  1  0.00000000  0.51432300  0.26864600  1
  O  O15  1  0.73135400  0.73135400  0.24567700  1
  O  O16  1  0.57190900  0.89970400  0.32779500  1
  O  O17  1  0.44207300  0.83528700  0.60678600  1
  O  O18  1  0.50000000  0.84916000  0.15084000  1
  O  O19  1  0.32779500  0.75588600  0.42809100  1
  O  O20  1  0.73135400  0.48567700  0.00000000  1
  O  O21  1  0.34916000  0.65084000  0.50000000  1
  O  O22  1  0.39321400  0.55792700  0.16471300  1
  O  O23  1  0.22850100  0.83528700  0.39321400  1
  O  O24  1  0.89970400  0.57190900  0.32779500  1
  O  O25  1  0.26864600  0.00000000  0.51432300  1
  O  O26  1  0.83528700  0.44207300  0.60678600  1
  O  O27  1  0.42809100  0.75588600  0.32779500  1
  O  O28  1  0.84916000  0.34916000  0.69832100  1
  O  O29  1  0.84916000  0.15084000  0.50000000  1
  O  O30  1  0.24411400  0.57190900  0.67220500  1
  O  O31  1  0.48567700  0.48567700  0.75432300  1
  O  O32  1  0.84916000  0.69832100  0.34916000  1
  O  O33  1  0.10029600  0.42809100  0.67220500  1
  O  O34  1  0.34916000  0.50000000  0.65084000  1
  O  O35  1  0.26864600  0.26864600  0.75432300  1
  O  O36  1  0.65084000  0.15084000  0.30167900  1
  O  O37  1  0.83528700  0.60678600  0.44207300  1
  O  O38  1  0.42809100  0.32779500  0.75588600  1
  O  O39  1  0.75432300  0.48567700  0.48567700  1
  O  O40  1  0.00000000  0.26864600  0.51432300  1
  O  O41  1  0.60678600  0.44207300  0.83528700  1
  O  O42  1  0.60678600  0.77149900  0.16471300  1
  O  O43  1  0.67220500  0.42809100  0.10029600  1
  O  O44  1  0.77149900  0.16471300  0.60678600  1
  O  O45  1  0.50000000  0.34916000  0.65084000  1
  O  O46  1  0.26864600  0.51432300  0.00000000  1
  O  O47  1  0.10029600  0.67220500  0.42809100  1
  O  O48  1  0.51432300  0.26864600  0.00000000  1
  O  O49  1  0.48567700  0.75432300  0.48567700  1
  O  O50  1  0.69832100  0.34916000  0.84916000  1
  O  O51  1  0.60678600  0.16471300  0.77149900  1
  O  O52  1  0.77149900  0.60678600  0.16471300  1
  O  O53  1  0.15084000  0.50000000  0.84916000  1
  O  O54  1  0.55792700  0.16471300  0.39321400  1
  O  O55  1  0.48567700  0.73135400  0.00000000  1
  O  O56  1  0.39321400  0.83528700  0.22850100  1
  O  O57  1  0.65084000  0.50000000  0.34916000  1
  O  O58  1  0.57190900  0.67220500  0.24411400  1
  O  O59  1  0.15084000  0.30167900  0.65084000  1
  O  O60  1  0.44207300  0.60678600  0.83528700  1
  O  O61  1  0.30167900  0.15084000  0.65084000  1
  O  O62  1  0.51432300  0.51432300  0.24567700  1
  O  O63  1  0.30167900  0.65084000  0.15084000  1
  O  O64  1  0.57190900  0.32779500  0.89970400  1
  O  O65  1  0.32779500  0.89970400  0.57190900  1
  O  O66  1  0.16471300  0.77149900  0.60678600  1
  O  O67  1  0.16471300  0.39321400  0.55792700  1
  O  O68  1  0.73135400  0.24567700  0.73135400  1
  O  O69  1  0.84916000  0.50000000  0.15084000  1
  O  O70  1  0.60678600  0.83528700  0.44207300  1
  O  O71  1  0.39321400  0.16471300  0.55792700  1
  O  O72  1  0.73135400  0.00000000  0.48567700  1
  O  O73  1  0.55792700  0.39321400  0.16471300  1
  O  O74  1  0.67220500  0.24411400  0.57190900  1
  O  O75  1  0.75588600  0.42809100  0.32779500  1
  O  O76  1  0.42809100  0.67220500  0.10029600  1
  O  O77  1  0.69832100  0.84916000  0.34916000  1
  O  O78  1  0.32779500  0.42809100  0.75588600  1
  O  O79  1  0.65084000  0.34916000  0.50000000  1
  O  O80  1  0.00000000  0.73135400  0.48567700  1
  O  O81  1  0.24567700  0.73135400  0.73135400  1
  O  O82  1  0.16471300  0.60678600  0.77149900  1
  O  O83  1  0.75432300  0.26864600  0.26864600  1
  O  O84  1  0.00000000  0.48567700  0.73135400  1
  O  O85  1  0.39321400  0.22850100  0.83528700  1
  O  O86  1  0.89970400  0.32779500  0.57190900  1
  O  O87  1  0.67220500  0.10029600  0.42809100  1
  O  O88  1  0.65084000  0.30167900  0.15084000  1
  O  O89  1  0.22850100  0.39321400  0.83528700  1
  O  O90  1  0.15084000  0.84916000  0.50000000  1
  O  O91  1  0.24567700  0.51432300  0.51432300  1
  O  O92  1  0.48567700  0.00000000  0.73135400  1
  O  O93  1  0.15084000  0.65084000  0.30167900  1
  O  O94  1  0.51432300  0.00000000  0.26864600  1
  O  O95  1  0.67220500  0.57190900  0.24411400  1
loop_
_geom_bond_atom_site_label_1
_geom_bond_atom_site_label_2
_geom_bond_distance
_geom_bond_site_symmetry_2
O0 Si37 1.626753 1_555
O0 Si40 1.626753 1_555
O1 Si32 1.635328 1_555
O1 Si1 1.635343 1_555
O2 Si21 1.624880 1_555
O2 Si36 1.624890 1_555
O3 Si38 1.635360 1_555
O3 Si29 1.635379 1_555
O4 Si19 1.624880 1_555
O4 Si6 1.624889 1_555
O5 Si23 1.624880 1_555
O5 Si40 1.624890 1_555
O6 Si26 1.624880 1_555
O6 Si39 1.624889 1_555
O7 Si35 1.635331 1_555
O7 Si45 1.635343 1_555
O8 Si33 1.635355 1_555
O8 Si11 1.635355 1_555
O9 Si38 1.624880 1_555
O9 Si35 1.624890 1_555
O10 Si27 1.635360 1_555
O10 Si26 1.635379 1_555
O11 Si5 1.635373 1_555
O11 Si6 1.635373 1_555
O12 Si24 1.626743 1_555
O12 Si15 1.626743 1_555
O13 Si20 1.635328 1_555
O13 Si21 1.635343 1_555
O14 Si32 1.626739 1_455
O14 Si45 1.626743 1_555
O15 Si34 1.626743 1_555
O15 Si46 1.626743 1_555
O16 Si0 1.624880 1_555
O16 Si31 1.624889 1_555
O17 Si25 1.635331 1_555
O17 Si29 1.635343 1_555
O18 Si9 1.635373 1_555
O18 Si31 1.635373 1_555
O19 Si24 1.624880 1_555
O19 Si25 1.624890 1_555
O20 Si4 1.626739 1_555
O20 Si41 1.626743 1_554
O21 Si35 1.635355 1_555
O21 Si25 1.635355 1_555
O22 Si33 1.635331 1_555
O22 Si14 1.635343 1_555
O23 Si30 1.635328 1_555
O23 Si24 1.635343 1_555
O24 Si22 1.624880 1_555
O24 Si32 1.624889 1_555
O25 Si30 1.626739 1_545
O25 Si19 1.626743 1_555
O26 Si36 1.635331 1_555
O26 Si18 1.635343 1_555
O27 Si15 1.624880 1_555
O27 Si11 1.624890 1_555
O28 Si42 1.635360 1_555
O28 Si18 1.635379 1_555
O29 Si20 1.635373 1_555
O29 Si43 1.635373 1_555
O30 Si27 1.624880 1_555
O30 Si13 1.624890 1_555
O31 Si7 1.626753 1_555
O31 Si8 1.626753 1_555
O32 Si34 1.635360 1_555
O32 Si22 1.635379 1_555
O33 Si3 1.624880 1_555
O33 Si16 1.624889 1_555
O34 Si13 1.635355 1_555
O34 Si8 1.635355 1_555
O35 Si2 1.626743 1_555
O35 Si28 1.626743 1_555
O36 Si21 1.635360 1_555
O36 Si17 1.635379 1_555
O37 Si10 1.635331 1_555
O37 Si22 1.635343 1_555
O38 Si28 1.624880 1_555
O38 Si7 1.624890 1_555
O39 Si36 1.626753 1_555
O39 Si10 1.626753 1_555
O40 Si20 1.626739 1_455
O40 Si3 1.626743 1_555
O41 Si7 1.635331 1_555
O41 Si41 1.635343 1_555
O42 Si9 1.635328 1_555
O42 Si46 1.635343 1_555
O43 Si44 1.624880 1_555
O43 Si4 1.624889 1_555
O44 Si43 1.635328 1_555
O44 Si42 1.635343 1_555
O45 Si40 1.635355 1_555
O45 Si7 1.635355 1_555
O46 Si39 1.626739 1_554
O46 Si14 1.626743 1_555
O47 Si45 1.624880 1_555
O47 Si47 1.624889 1_555
O48 Si5 1.626739 1_554
O48 Si44 1.626743 1_555
O49 Si11 1.626753 1_555
O49 Si25 1.626753 1_555
O50 Si23 1.635360 1_555
O50 Si41 1.635379 1_555
O51 Si6 1.635328 1_555
O51 Si23 1.635343 1_555
O52 Si4 1.635328 1_555
O52 Si34 1.635343 1_555
O53 Si39 1.635373 1_555
O53 Si16 1.635373 1_555
O54 Si37 1.635331 1_555
O54 Si17 1.635343 1_555
O55 Si9 1.626739 1_555
O55 Si26 1.626743 1_554
O56 Si31 1.635328 1_555
O56 Si15 1.635343 1_555
O57 Si12 1.635355 1_555
O57 Si10 1.635355 1_555
O58 Si46 1.624880 1_555
O58 Si33 1.624890 1_555
O59 Si2 1.635360 1_555
O59 Si3 1.635379 1_555
O60 Si8 1.635331 1_555
O60 Si26 1.635343 1_555
O61 Si28 1.635360 1_555
O61 Si19 1.635379 1_555
O62 Si33 1.626753 1_555
O62 Si12 1.626753 1_555
O63 Si15 1.635360 1_555
O63 Si14 1.635379 1_555
O64 Si41 1.624880 1_555
O64 Si5 1.624889 1_555
O65 Si29 1.624880 1_555
O65 Si30 1.624889 1_555
O66 Si47 1.635328 1_555
O66 Si38 1.635343 1_555
O67 Si13 1.635331 1_555
O67 Si3 1.635343 1_555
O68 Si42 1.626743 1_555
O68 Si23 1.626743 1_555
O69 Si32 1.635373 1_555
O69 Si4 1.635373 1_555
O70 Si11 1.635331 1_555
O70 Si0 1.635343 1_555
O71 Si40 1.635331 1_555
O71 Si19 1.635343 1_555
O72 Si43 1.626739 1_555
O72 Si0 1.626743 1_545
O73 Si12 1.635331 1_555
O73 Si44 1.635343 1_555
O74 Si42 1.624880 1_555
O74 Si37 1.624890 1_555
O75 Si1 1.624880 1_555
O75 Si10 1.624890 1_555
O76 Si14 1.624880 1_555
O76 Si9 1.624889 1_555
O77 Si46 1.635360 1_555
O77 Si0 1.635379 1_555
O78 Si2 1.624880 1_555
O78 Si8 1.624890 1_555
O79 Si37 1.635355 1_555
O79 Si36 1.635355 1_555
O80 Si47 1.626739 1_555
O80 Si22 1.626743 1_455
O81 Si38 1.626743 1_555
O81 Si27 1.626743 1_555
O82 Si16 1.635328 1_555
O82 Si27 1.635343 1_555
O83 Si1 1.626743 1_555
O83 Si21 1.626743 1_555
O84 Si16 1.626739 1_555
O84 Si18 1.626743 1_455
O85 Si5 1.635328 1_555
O85 Si28 1.635343 1_555
O86 Si18 1.624880 1_555
O86 Si20 1.624889 1_555
O87 Si17 1.624880 1_555
O87 Si43 1.624889 1_555
O88 Si1 1.635360 1_555
O88 Si44 1.635379 1_555
O89 Si39 1.635328 1_555
O89 Si2 1.635343 1_555
O90 Si30 1.635373 1_555
O90 Si47 1.635373 1_555
O91 Si35 1.626753 1_555
O91 Si13 1.626753 1_555
O92 Si6 1.626739 1_555
O92 Si29 1.626743 1_545
O93 Si24 1.635360 1_555
O93 Si45 1.635379 1_555
O94 Si31 1.626739 1_545
O94 Si17 1.626743 1_555
O95 Si34 1.624880 1_555
O95 Si12 1.624890 1_555
