# generated using pymatgen
data_Sc2GaB2Rh5
_symmetry_space_group_name_H-M   'P 1'
_cell_length_a   9.34747600
_cell_length_b   9.34747600
_cell_length_c   3.08165800
_cell_angle_alpha   90.00000000
_cell_angle_beta   90.00000000
_cell_angle_gamma   90.00000000
_symmetry_Int_Tables_number   1
_chemical_formula_structural   Sc2GaB2Rh5
_chemical_formula_sum   'Sc4 Ga2 B4 Rh10'
_cell_volume   269.26081558
_cell_formula_units_Z   2
loop_
 _symmetry_equiv_pos_site_id
 _symmetry_equiv_pos_as_xyz
  1  'x, y, z'
loop_
 _atom_site_type_symbol
 _atom_site_label
 _atom_site_symmetry_multiplicity
 _atom_site_fract_x
 _atom_site_fract_y
 _atom_site_fract_z
 _atom_site_occupancy
  Sc  Sc0  1  0.82514600  0.32514600  0.00000000  1
  Sc  Sc1  1  0.32514600  0.17485400  0.00000000  1
  Sc  Sc2  1  0.67485400  0.82514600  0.00000000  1
  Sc  Sc3  1  0.17485400  0.67485400  0.00000000  1
  Ga  Ga0  1  0.00000000  0.00000000  0.00000000  1
  Ga  Ga1  1  0.50000000  0.50000000  0.00000000  1
  B  B0  1  0.62465900  0.12465900  0.00000000  1
  B  B1  1  0.12465900  0.37534100  0.00000000  1
  B  B2  1  0.87534100  0.62465900  0.00000000  1
  B  B3  1  0.37534100  0.87534100  0.00000000  1
  Rh  Rh0  1  0.07096800  0.21657000  0.50000000  1
  Rh  Rh1  1  0.21657000  0.92903200  0.50000000  1
  Rh  Rh2  1  0.78343000  0.07096800  0.50000000  1
  Rh  Rh3  1  0.92903200  0.78343000  0.50000000  1
  Rh  Rh4  1  0.42903200  0.71657000  0.50000000  1
  Rh  Rh5  1  0.57096800  0.28343000  0.50000000  1
  Rh  Rh6  1  0.71657000  0.57096800  0.50000000  1
  Rh  Rh7  1  0.28343000  0.42903200  0.50000000  1
  Rh  Rh8  1  0.50000000  0.00000000  0.50000000  1
  Rh  Rh9  1  0.00000000  0.50000000  0.50000000  1
loop_
_geom_bond_atom_site_label_1
_geom_bond_atom_site_label_2
_geom_bond_distance
_geom_bond_site_symmetry_2
Ga0 Rh3 2.629133 1_444
Ga0 Rh3 2.629133 1_445
Ga0 Rh2 2.629133 1_455
Ga0 Rh2 2.629133 1_454
Ga0 Rh0 2.629133 1_555
Ga0 Rh0 2.629133 1_554
Ga0 Rh1 2.629133 1_544
Ga0 Rh1 2.629133 1_545
Ga1 Rh5 2.629133 1_554
Ga1 Rh5 2.629133 1_555
Ga1 Rh6 2.629133 1_555
Ga1 Rh6 2.629133 1_554
Ga1 Rh7 2.629133 1_554
Ga1 Rh7 2.629133 1_555
Ga1 Rh4 2.629133 1_554
Ga1 Rh4 2.629133 1_555
B0 Rh2 2.197410 1_555
B0 Rh2 2.197410 1_554
B0 Rh5 2.197410 1_554
B0 Rh5 2.197410 1_555
B0 Rh8 2.256049 1_555
B0 Rh8 2.256049 1_554
B0 Sc0 2.650303 1_555
B0 Sc2 2.838734 1_545
B0 Sc1 2.838734 1_555
B1 Rh0 2.197410 1_555
B1 Rh0 2.197410 1_554
B1 Rh7 2.197410 1_554
B1 Rh7 2.197410 1_555
B1 Rh9 2.256049 1_554
B1 Rh9 2.256049 1_555
B1 Sc1 2.650303 1_555
B1 Sc0 2.838734 1_455
B1 Sc3 2.838734 1_555
B2 Rh6 2.197410 1_555
B2 Rh6 2.197410 1_554
B2 Rh3 2.197410 1_555
B2 Rh3 2.197410 1_554
B2 Rh9 2.256049 1_655
B2 Rh9 2.256049 1_654
B2 Sc2 2.650303 1_555
B2 Sc3 2.838734 1_655
B2 Sc0 2.838734 1_555
B3 Rh4 2.197410 1_555
B3 Rh4 2.197410 1_554
B3 Rh1 2.197410 1_554
B3 Rh1 2.197410 1_555
B3 Rh8 2.256049 1_565
B3 Rh8 2.256049 1_564
B3 Sc3 2.650303 1_555
B3 Sc2 2.838734 1_555
B3 Sc1 2.838734 1_565
Rh0 Sc1 2.858534 1_555
Rh0 Sc1 2.858534 1_556
Rh0 Sc0 2.946889 1_455
Rh0 Sc0 2.946889 1_456
Rh1 Sc3 2.858534 1_556
Rh1 Sc3 2.858534 1_555
Rh1 Sc1 2.946889 1_565
Rh1 Sc1 2.946889 1_566
Rh2 Sc0 2.858534 1_555
Rh2 Sc0 2.858534 1_556
Rh2 Sc2 2.946889 1_546
Rh2 Sc2 2.946889 1_545
Rh3 Sc2 2.858534 1_556
Rh3 Sc2 2.858534 1_555
Rh3 Sc3 2.946889 1_656
Rh3 Sc3 2.946889 1_655
Rh4 Sc3 2.858534 1_556
Rh4 Sc3 2.858534 1_555
Rh4 Sc2 2.946889 1_555
Rh4 Sc2 2.946889 1_556
Rh5 Sc0 2.858534 1_556
Rh5 Sc0 2.858534 1_555
Rh5 Sc1 2.946889 1_556
Rh5 Sc1 2.946889 1_555
Rh6 Sc2 2.858534 1_556
Rh6 Sc2 2.858534 1_555
Rh6 Sc0 2.946889 1_555
Rh6 Sc0 2.946889 1_556
Rh7 Sc1 2.858534 1_555
Rh7 Sc1 2.858534 1_556
Rh7 Sc3 2.946889 1_556
Rh7 Sc3 2.946889 1_555
Rh8 Sc1 2.777943 1_555
Rh8 Sc1 2.777943 1_556
Rh8 Sc2 2.777943 1_546
Rh8 Sc2 2.777943 1_545
Rh9 Sc3 2.777943 1_555
Rh9 Sc3 2.777943 1_556
Rh9 Sc0 2.777943 1_455
Rh9 Sc0 2.777943 1_456
