# generated using pymatgen
data_KNd(SO4)2
_symmetry_space_group_name_H-M   'P 1'
_cell_length_a   6.88912610
_cell_length_b   5.37991426
_cell_length_c   8.56336495
_cell_angle_alpha   90.84038266
_cell_angle_beta   94.16530737
_cell_angle_gamma   88.59273422
_symmetry_Int_Tables_number   1
_chemical_formula_structural   KNd(SO4)2
_chemical_formula_sum   'K2 Nd2 S4 O16'
_cell_volume   316.42298932
_cell_formula_units_Z   2
loop_
 _symmetry_equiv_pos_site_id
 _symmetry_equiv_pos_as_xyz
  1  'x, y, z'
loop_
 _atom_site_type_symbol
 _atom_site_label
 _atom_site_symmetry_multiplicity
 _atom_site_fract_x
 _atom_site_fract_y
 _atom_site_fract_z
 _atom_site_occupancy
  K  K0  1  0.84737947  0.25935946  0.80750375  1
  K  K1  1  0.15262006  0.74063982  0.19249666  1
  Nd  Nd0  1  0.68298447  0.30337044  0.28957781  1
  Nd  Nd1  1  0.31701079  0.69662044  0.71041823  1
  S  S0  1  0.20424747  0.22067551  0.45108964  1
  S  S1  1  0.79575483  0.77933277  0.54889105  1
  S  S2  1  0.32448199  0.24308526  0.93155359  1
  S  S3  1  0.67552203  0.75691830  0.06847551  1
  O  O0  1  0.46198748  0.27909620  0.80998180  1
  O  O1  1  0.53802581  0.72090185  0.19002545  1
  O  O2  1  0.42155082  0.22170551  0.08767028  1
  O  O3  1  0.57844087  0.77829256  0.91233529  1
  O  O4  1  0.04895269  0.21155963  0.32511689  1
  O  O5  1  0.95105720  0.78845587  0.67487236  1
  O  O6  1  0.19222394  0.46521005  0.92554771  1
  O  O7  1  0.80778039  0.53479834  0.07446296  1
  O  O8  1  0.20989021  0.01907434  0.89412842  1
  O  O9  1  0.79010972  0.98090806  0.10588301  1
  O  O10  1  0.36816692  0.36443295  0.40112873  1
  O  O11  1  0.63183115  0.63557328  0.59886291  1
  O  O12  1  0.72744249  0.03544369  0.51183424  1
  O  O13  1  0.27255852  0.96454589  0.48815041  1
  O  O14  1  0.13559473  0.34503015  0.59157326  1
  O  O15  1  0.86439497  0.65497664  0.40842205  1
loop_
_geom_bond_atom_site_label_1
_geom_bond_atom_site_label_2
_geom_bond_distance
_geom_bond_site_symmetry_2
K0 O0 2.656143 1_555
K0 O7 2.732718 1_556
K0 O6 2.763994 1_655
K0 O8 2.838790 1_655
K0 O5 2.857081 1_545
K0 O14 2.859595 1_655
K0 O12 2.863572 1_555
K0 O11 3.011119 1_555
K0 O9 3.035827 1_546
K0 O5 3.196122 1_555
K1 O1 2.656233 1_555
K1 O6 2.732623 1_554
K1 O7 2.763920 1_455
K1 O9 2.838729 1_455
K1 O4 2.857100 1_565
K1 O15 2.859607 1_455
K1 O13 2.863437 1_555
K1 O10 3.011047 1_555
K1 O8 3.035701 1_564
K1 O4 3.195987 1_555
Nd0 O12 2.401671 1_555
Nd0 O10 2.445599 1_555
Nd0 O2 2.447547 1_555
Nd0 O7 2.456136 1_555
Nd0 O15 2.459817 1_555
Nd0 O9 2.460574 1_545
Nd0 O4 2.554374 1_655
Nd0 O1 2.567517 1_555
Nd1 O13 2.401742 1_555
Nd1 O11 2.445625 1_555
Nd1 O3 2.447591 1_555
Nd1 O6 2.456158 1_555
Nd1 O14 2.459772 1_555
Nd1 O8 2.460618 1_565
Nd1 O5 2.554301 1_455
Nd1 O0 2.567557 1_555
O0 S2 1.475433 1_555
O1 S3 1.475253 1_555
O2 S2 1.455520 1_554
O3 S3 1.455729 1_556
O4 S0 1.464257 1_555
O5 S1 1.464344 1_555
O6 S2 1.484047 1_555
O7 S3 1.484027 1_555
O8 S2 1.475459 1_555
O9 S3 1.475324 1_555
O10 S0 1.476216 1_555
O11 S1 1.476279 1_555
O12 S1 1.476462 1_545
O13 S0 1.476560 1_565
O14 S0 1.470379 1_555
O15 S1 1.470246 1_555
