# generated using pymatgen
data_Ba3Sb4O
_symmetry_space_group_name_H-M   'P 1'
_cell_length_a   13.03622118
_cell_length_b   7.09595194
_cell_length_c   13.10800241
_cell_angle_alpha   67.64168474
_cell_angle_beta   90.00000000
_cell_angle_gamma   90.00000000
_symmetry_Int_Tables_number   1
_chemical_formula_structural   Ba3Sb4O
_chemical_formula_sum   'Ba12 Sb16 O4'
_cell_volume   1121.39221016
_cell_formula_units_Z   4
loop_
 _symmetry_equiv_pos_site_id
 _symmetry_equiv_pos_as_xyz
  1  'x, y, z'
loop_
 _atom_site_type_symbol
 _atom_site_label
 _atom_site_symmetry_multiplicity
 _atom_site_fract_x
 _atom_site_fract_y
 _atom_site_fract_z
 _atom_site_occupancy
  Ba  Ba0  1  0.23454119  0.81049853  0.51998503  1
  Ba  Ba1  1  0.44175092  0.20374356  0.54713393  1
  Ba  Ba2  1  0.76545881  0.18950147  0.48001497  1
  Ba  Ba3  1  0.94744471  0.38883222  0.72141991  1
  Ba  Ba4  1  0.05824908  0.20374356  0.04713393  1
  Ba  Ba5  1  0.26545881  0.81049853  0.01998503  1
  Ba  Ba6  1  0.94175092  0.79625644  0.95286607  1
  Ba  Ba7  1  0.05255529  0.61116778  0.27858009  1
  Ba  Ba8  1  0.55255529  0.38883222  0.22141991  1
  Ba  Ba9  1  0.73454119  0.18950147  0.98001497  1
  Ba  Ba10  1  0.44744471  0.61116778  0.77858009  1
  Ba  Ba11  1  0.55824908  0.79625644  0.45286607  1
  Sb  Sb0  1  0.97968977  0.06946354  0.34196119  1
  Sb  Sb1  1  0.47968977  0.93053646  0.15803881  1
  Sb  Sb2  1  0.65599469  0.72538578  0.93495965  1
  Sb  Sb3  1  0.34424554  0.64843687  0.31436860  1
  Sb  Sb4  1  0.02031023  0.93053646  0.65803881  1
  Sb  Sb5  1  0.15599469  0.27461422  0.56504035  1
  Sb  Sb6  1  0.65575446  0.35156313  0.68563140  1
  Sb  Sb7  1  0.76861394  0.70114458  0.23645554  1
  Sb  Sb8  1  0.84424554  0.35156313  0.18563140  1
  Sb  Sb9  1  0.34400531  0.27461422  0.06504035  1
  Sb  Sb10  1  0.73138606  0.70114458  0.73645554  1
  Sb  Sb11  1  0.84400531  0.72538578  0.43495965  1
  Sb  Sb12  1  0.52031023  0.06946354  0.84196119  1
  Sb  Sb13  1  0.26861394  0.29885542  0.26354446  1
  Sb  Sb14  1  0.23138606  0.29885542  0.76354446  1
  Sb  Sb15  1  0.15575446  0.64843687  0.81436860  1
  O  O0  1  0.91402335  0.16702608  0.92067671  1
  O  O1  1  0.08597665  0.83297392  0.07932329  1
  O  O2  1  0.41402335  0.83297392  0.57932329  1
  O  O3  1  0.58597665  0.16702608  0.42067671  1
loop_
_geom_bond_atom_site_label_1
_geom_bond_atom_site_label_2
_geom_bond_distance
_geom_bond_site_symmetry_2
Ba0 O2 2.489842 1_555
Ba0 Sb4 3.601726 1_555
Ba0 Sb3 3.604164 1_555
Ba0 Sb5 3.704472 1_565
Ba0 Sb15 3.727129 1_555
Ba0 Sb5 3.761454 1_555
Ba0 Sb14 3.815379 1_555
Ba0 Sb13 3.826619 1_565
Ba0 Sb0 4.074000 1_465
Ba1 O2 2.527072 1_545
Ba1 O3 2.584395 1_555
Ba1 Sb3 3.682037 1_555
Ba1 Sb6 3.691572 1_555
Ba1 Sb12 3.753706 1_555
Ba1 Sb5 3.778197 1_555
Ba1 Sb13 4.178437 1_555
Ba1 Sb14 4.180854 1_555
Ba2 O3 2.489842 1_555
Ba2 Sb0 3.601726 1_555
Ba2 Sb6 3.604164 1_555
Ba2 Sb11 3.704472 1_545
Ba2 Sb8 3.727129 1_555
Ba2 Sb11 3.761454 1_555
Ba2 Sb7 3.815379 1_555
Ba2 Sb10 3.826619 1_545
Ba2 Sb4 4.074000 1_645
Ba3 O0 2.522170 1_555
Ba3 Sb10 3.635333 1_555
Ba3 Sb5 3.676134 1_655
Ba3 Sb4 3.733434 1_655
Ba3 Sb15 3.736280 1_655
Ba3 Sb14 3.761062 1_655
Ba3 Sb4 3.771449 1_645
Ba3 Sb11 3.846918 1_555
Ba3 Sb6 3.852752 1_555
Ba4 O1 2.527072 1_545
Ba4 O0 2.584395 1_454
Ba4 Sb15 3.682037 1_554
Ba4 Sb8 3.691572 1_455
Ba4 Sb0 3.753706 1_455
Ba4 Sb9 3.778197 1_555
Ba4 Sb14 4.178437 1_554
Ba4 Sb13 4.180854 1_555
Ba5 O1 2.489842 1_555
Ba5 Sb1 3.601726 1_555
Ba5 Sb15 3.604164 1_554
Ba5 Sb9 3.704472 1_565
Ba5 Sb3 3.727129 1_555
Ba5 Sb9 3.761454 1_555
Ba5 Sb13 3.815379 1_555
Ba5 Sb14 3.826619 1_564
Ba5 Sb12 4.074000 1_564
Ba6 O0 2.527072 1_565
Ba6 O1 2.584395 1_656
Ba6 Sb8 3.682037 1_556
Ba6 Sb15 3.691572 1_655
Ba6 Sb4 3.753706 1_655
Ba6 Sb2 3.778197 1_555
Ba6 Sb7 4.178437 1_556
Ba6 Sb10 4.180854 1_555
Ba7 O1 2.522170 1_555
Ba7 Sb13 3.635333 1_555
Ba7 Sb11 3.676134 1_455
Ba7 Sb0 3.733434 1_455
Ba7 Sb8 3.736280 1_455
Ba7 Sb7 3.761062 1_455
Ba7 Sb0 3.771449 1_465
Ba7 Sb5 3.846918 1_555
Ba7 Sb3 3.852752 1_555
Ba8 O3 2.522170 1_555
Ba8 Sb7 3.635333 1_555
Ba8 Sb9 3.676134 1_555
Ba8 Sb1 3.733434 1_555
Ba8 Sb3 3.736280 1_555
Ba8 Sb13 3.761062 1_555
Ba8 Sb1 3.771449 1_545
Ba8 Sb2 3.846918 1_554
Ba8 Sb8 3.852752 1_555
Ba9 O0 2.489842 1_555
Ba9 Sb12 3.601726 1_555
Ba9 Sb8 3.604164 1_556
Ba9 Sb2 3.704472 1_545
Ba9 Sb6 3.727129 1_555
Ba9 Sb2 3.761454 1_555
Ba9 Sb10 3.815379 1_555
Ba9 Sb7 3.826619 1_546
Ba9 Sb1 4.074000 1_546
Ba10 O2 2.522170 1_555
Ba10 Sb14 3.635333 1_555
Ba10 Sb2 3.676134 1_555
Ba10 Sb12 3.733434 1_555
Ba10 Sb6 3.736280 1_555
Ba10 Sb10 3.761062 1_555
Ba10 Sb12 3.771449 1_565
Ba10 Sb9 3.846918 1_556
Ba10 Sb15 3.852752 1_555
Ba11 O3 2.527072 1_565
Ba11 O2 2.584395 1_555
Ba11 Sb6 3.682037 1_555
Ba11 Sb3 3.691572 1_555
Ba11 Sb1 3.753706 1_555
Ba11 Sb11 3.778197 1_555
Ba11 Sb10 4.178437 1_555
Ba11 Sb7 4.180854 1_555
Sb0 Sb8 2.864096 1_555
Sb0 Sb11 2.882978 1_545
Sb1 Sb3 2.864096 1_555
Sb1 Sb9 2.882978 1_565
Sb4 Sb5 2.882978 1_565
Sb7 Sb8 2.970968 1_555
Sb10 Sb2 2.847174 1_555
Sb10 Sb6 2.970968 1_555
Sb11 Sb7 2.847174 1_555
Sb12 Sb6 2.864096 1_555
Sb12 Sb2 2.882978 1_545
Sb13 Sb9 2.847174 1_555
Sb13 Sb3 2.970968 1_555
Sb14 Sb5 2.847174 1_555
Sb14 Sb15 2.970968 1_555
Sb15 Sb4 2.864096 1_555
