# generated using pymatgen
data_FeS4N4Cl3
_symmetry_space_group_name_H-M   'P 1'
_cell_length_a   11.79893300
_cell_length_b   7.10244400
_cell_length_c   14.49995990
_cell_angle_alpha   84.68260944
_cell_angle_beta   90.00000000
_cell_angle_gamma   90.00000000
_symmetry_Int_Tables_number   1
_chemical_formula_structural   FeS4N4Cl3
_chemical_formula_sum   'Fe4 S16 N16 Cl12'
_cell_volume   1209.88581601
_cell_formula_units_Z   4
loop_
 _symmetry_equiv_pos_site_id
 _symmetry_equiv_pos_as_xyz
  1  'x, y, z'
loop_
 _atom_site_type_symbol
 _atom_site_label
 _atom_site_symmetry_multiplicity
 _atom_site_fract_x
 _atom_site_fract_y
 _atom_site_fract_z
 _atom_site_occupancy
  Fe  Fe0  1  0.40370700  0.23052400  0.23874100  1
  Fe  Fe1  1  0.09629300  0.23052400  0.73874100  1
  Fe  Fe2  1  0.59629300  0.76947600  0.76125900  1
  Fe  Fe3  1  0.90370700  0.76947600  0.26125900  1
  S  S0  1  0.64629200  0.73362700  0.17580400  1
  S  S1  1  0.38144000  0.20834100  0.53738700  1
  S  S2  1  0.14629200  0.26637300  0.32419600  1
  S  S3  1  0.19205100  0.50061700  0.89073500  1
  S  S4  1  0.29898300  0.96219700  0.97160000  1
  S  S5  1  0.70101700  0.03780300  0.02840000  1
  S  S6  1  0.79898300  0.03780300  0.52840000  1
  S  S7  1  0.88144000  0.79165900  0.96261300  1
  S  S8  1  0.11856000  0.20834100  0.03738700  1
  S  S9  1  0.69205100  0.49938300  0.60926500  1
  S  S10  1  0.20101700  0.96219700  0.47160000  1
  S  S11  1  0.35370800  0.26637300  0.82419600  1
  S  S12  1  0.30794900  0.50061700  0.39073500  1
  S  S13  1  0.85370800  0.73362700  0.67580400  1
  S  S14  1  0.80794900  0.49938300  0.10926500  1
  S  S15  1  0.61856000  0.79165900  0.46261300  1
  N  N0  1  0.86021000  0.59150600  0.01443100  1
  N  N1  1  0.86814900  0.91429800  0.60329500  1
  N  N2  1  0.82545100  0.97329800  0.00106000  1
  N  N3  1  0.63185100  0.91429800  0.10329500  1
  N  N4  1  0.36814900  0.08570200  0.89670500  1
  N  N5  1  0.71771800  0.66423100  0.68193400  1
  N  N6  1  0.17454900  0.02670200  0.99894000  1
  N  N7  1  0.32545100  0.02670200  0.49894000  1
  N  N8  1  0.67454900  0.97329800  0.50106000  1
  N  N9  1  0.13185100  0.08570200  0.39670500  1
  N  N10  1  0.36021000  0.40849400  0.48556900  1
  N  N11  1  0.78228200  0.66423100  0.18193400  1
  N  N12  1  0.21771800  0.33576900  0.81806600  1
  N  N13  1  0.13979000  0.40849400  0.98556900  1
  N  N14  1  0.63979000  0.59150600  0.51443100  1
  N  N15  1  0.28228200  0.33576900  0.31806600  1
  Cl  Cl0  1  0.59905800  0.62132500  0.90057900  1
  Cl  Cl1  1  0.09905800  0.37867500  0.59942100  1
  Cl  Cl2  1  0.86265800  0.06983900  0.26409900  1
  Cl  Cl3  1  0.90094200  0.62132500  0.40057900  1
  Cl  Cl4  1  0.40094200  0.37867500  0.09942100  1
  Cl  Cl5  1  0.43649900  0.71731300  0.69171200  1
  Cl  Cl6  1  0.93649900  0.28268700  0.80828800  1
  Cl  Cl7  1  0.13734200  0.93016100  0.73590100  1
  Cl  Cl8  1  0.63734200  0.06983900  0.76409900  1
  Cl  Cl9  1  0.56350100  0.28268700  0.30828800  1
  Cl  Cl10  1  0.36265800  0.93016100  0.23590100  1
  Cl  Cl11  1  0.06350100  0.71731300  0.19171200  1
loop_
_geom_bond_atom_site_label_1
_geom_bond_atom_site_label_2
_geom_bond_distance
_geom_bond_site_symmetry_2
Fe0 N15 2.023284 1_555
Fe1 N12 2.023284 1_555
Fe2 N5 2.023284 1_555
Fe3 N11 2.023284 1_555
N0 S7 1.565309 1_554
N0 S14 1.591365 1_555
N1 S6 1.561484 1_565
N1 S13 1.590908 1_555
N2 S7 1.595242 1_554
N2 S5 1.598841 1_565
N3 S5 1.561484 1_565
N3 S0 1.590908 1_555
N4 S4 1.561484 1_545
N4 S11 1.590908 1_555
N5 S9 1.673762 1_555
N5 S13 1.678467 1_555
N6 S8 1.595242 1_556
N6 S4 1.598841 1_545
N7 S1 1.595242 1_555
N7 S10 1.598841 1_545
N8 S15 1.595242 1_555
N8 S6 1.598841 1_565
N9 S10 1.561484 1_545
N9 S2 1.590908 1_555
N10 S1 1.565309 1_555
N10 S12 1.591365 1_555
N11 S14 1.673762 1_555
N11 S0 1.678467 1_555
N12 S3 1.673762 1_555
N12 S11 1.678467 1_555
N13 S8 1.565309 1_556
N13 S3 1.591365 1_555
N14 S15 1.565309 1_555
N14 S9 1.591365 1_555
N15 S12 1.673762 1_555
N15 S2 1.678467 1_555
Cl0 Fe2 2.189800 1_555
Cl1 Fe1 2.189800 1_555
Cl2 Fe3 2.191706 1_545
Cl3 Fe3 2.189800 1_555
Cl4 Fe0 2.189800 1_555
Cl5 Fe2 2.185901 1_555
Cl6 Fe1 2.185901 1_655
Cl7 Fe1 2.191706 1_565
Cl8 Fe2 2.191706 1_545
Cl9 Fe0 2.185901 1_555
Cl10 Fe0 2.191706 1_565
Cl11 Fe3 2.185901 1_455
