# generated using pymatgen
data_Rb6In2Co2Si9O26
_symmetry_space_group_name_H-M   'P 1'
_cell_length_a   8.22821012
_cell_length_b   8.22821012
_cell_length_c   21.15627300
_cell_angle_alpha   90.00000000
_cell_angle_beta   90.00000000
_cell_angle_gamma   96.31804044
_symmetry_Int_Tables_number   1
_chemical_formula_structural   Rb6In2Co2Si9O26
_chemical_formula_sum   'Rb12 In4 Co4 Si18 O52'
_cell_volume   1423.65289650
_cell_formula_units_Z   2
loop_
 _symmetry_equiv_pos_site_id
 _symmetry_equiv_pos_as_xyz
  1  'x, y, z'
loop_
 _atom_site_type_symbol
 _atom_site_label
 _atom_site_symmetry_multiplicity
 _atom_site_fract_x
 _atom_site_fract_y
 _atom_site_fract_z
 _atom_site_occupancy
  Rb  Rb0  1  0.01131800  0.01131800  0.00000000  1
  Rb  Rb1  1  0.21773000  0.90485100  0.36676100  1
  Rb  Rb2  1  0.70827800  0.78772700  0.66462200  1
  Rb  Rb3  1  0.51131800  0.51131800  0.50000000  1
  Rb  Rb4  1  0.71773000  0.40485100  0.13323900  1
  Rb  Rb5  1  0.20827800  0.28772700  0.83537800  1
  Rb  Rb6  1  0.40485100  0.71773000  0.86676100  1
  Rb  Rb7  1  0.90485100  0.21773000  0.63323900  1
  Rb  Rb8  1  0.78772700  0.70827800  0.33537800  1
  Rb  Rb9  1  0.67360600  0.67360600  0.00000000  1
  Rb  Rb10  1  0.28772700  0.20827800  0.16462200  1
  Rb  Rb11  1  0.17360600  0.17360600  0.50000000  1
  In  In0  1  0.27180000  0.68541700  0.08960000  1
  In  In1  1  0.18541700  0.77180000  0.58960000  1
  In  In2  1  0.77180000  0.18541700  0.41040000  1
  In  In3  1  0.68541700  0.27180000  0.91040000  1
  Co  Co0  1  0.94177100  0.16157900  0.27081900  1
  Co  Co1  1  0.66157900  0.44177100  0.77081900  1
  Co  Co2  1  0.44177100  0.66157900  0.22918100  1
  Co  Co3  1  0.16157900  0.94177100  0.72918100  1
  Si  Si0  1  0.35747000  0.49627600  0.67753100  1
  Si  Si1  1  0.49627600  0.35747000  0.32246900  1
  Si  Si2  1  0.13589700  0.43008300  0.35912300  1
  Si  Si3  1  0.97690800  0.51481500  0.48659500  1
  Si  Si4  1  0.51481500  0.97690800  0.51340500  1
  Si  Si5  1  0.93008300  0.63589700  0.85912300  1
  Si  Si6  1  0.43008300  0.13589700  0.64087700  1
  Si  Si7  1  0.47690800  0.01481500  0.01340500  1
  Si  Si8  1  0.06852000  0.52600900  0.22296200  1
  Si  Si9  1  0.52600900  0.06852000  0.77703800  1
  Si  Si10  1  0.63589700  0.93008300  0.14087700  1
  Si  Si11  1  0.85554200  0.85554200  0.50000000  1
  Si  Si12  1  0.01481500  0.47690800  0.98659500  1
  Si  Si13  1  0.35554200  0.35554200  0.00000000  1
  Si  Si14  1  0.02600900  0.56852000  0.72296200  1
  Si  Si15  1  0.99627600  0.85747000  0.17753100  1
  Si  Si16  1  0.56852000  0.02600900  0.27703800  1
  Si  Si17  1  0.85747000  0.99627600  0.82246900  1
  O  O0  1  0.03093800  0.97034900  0.23987100  1
  O  O1  1  0.84255800  0.48313600  0.71109600  1
  O  O2  1  0.82964500  0.90070300  0.13812700  1
  O  O3  1  0.88008700  0.14747300  0.87172900  1
  O  O4  1  0.55609800  0.10580200  0.69979400  1
  O  O5  1  0.56579500  0.24083400  0.81524000  1
  O  O6  1  0.08782400  0.54164300  0.54939200  1
  O  O7  1  0.44622200  0.16355300  0.29816900  1
  O  O8  1  0.54164300  0.08782400  0.45060800  1
  O  O9  1  0.10144200  0.53253000  0.42332100  1
  O  O10  1  0.37132800  0.83628200  0.01250600  1
  O  O11  1  0.04164300  0.58782400  0.04939200  1
  O  O12  1  0.03253000  0.60144200  0.92332100  1
  O  O13  1  0.10580200  0.55609800  0.30020600  1
  O  O14  1  0.16184700  0.35564800  0.97625600  1
  O  O15  1  0.40070300  0.32964500  0.63812700  1
  O  O16  1  0.05609800  0.60580200  0.80020600  1
  O  O17  1  0.33628200  0.87132800  0.51250600  1
  O  O18  1  0.66355300  0.94622200  0.79816900  1
  O  O19  1  0.01793400  0.25871500  0.35577200  1
  O  O20  1  0.51793400  0.75871500  0.14422800  1
  O  O21  1  0.39656000  0.47615800  0.05997600  1
  O  O22  1  0.53253000  0.10144200  0.57667900  1
  O  O23  1  0.75871500  0.51793400  0.85577200  1
  O  O24  1  0.25871500  0.01793400  0.64422800  1
  O  O25  1  0.60144200  0.03253000  0.07667900  1
  O  O26  1  0.16355300  0.44622200  0.70183100  1
  O  O27  1  0.48313600  0.84255800  0.28890400  1
  O  O28  1  0.83628200  0.37132800  0.98749400  1
  O  O29  1  0.32964500  0.40070300  0.36187300  1
  O  O30  1  0.66184700  0.85564800  0.52374400  1
  O  O31  1  0.74083400  0.06579500  0.31524000  1
  O  O32  1  0.06579500  0.74083400  0.68476000  1
  O  O33  1  0.24083400  0.56579500  0.18476000  1
  O  O34  1  0.60580200  0.05609800  0.19979400  1
  O  O35  1  0.34255800  0.98313600  0.78890400  1
  O  O36  1  0.47034900  0.53093800  0.73987100  1
  O  O37  1  0.90070300  0.82964500  0.86187300  1
  O  O38  1  0.97034900  0.03093800  0.76012900  1
  O  O39  1  0.38008700  0.64747300  0.62827100  1
  O  O40  1  0.14747300  0.88008700  0.12827100  1
  O  O41  1  0.53093800  0.47034900  0.26012900  1
  O  O42  1  0.85564800  0.66184700  0.47625600  1
  O  O43  1  0.35564800  0.16184700  0.02374400  1
  O  O44  1  0.94622200  0.66355300  0.20183100  1
  O  O45  1  0.87132800  0.33628200  0.48749400  1
  O  O46  1  0.58782400  0.04164300  0.95060800  1
  O  O47  1  0.89656000  0.97615800  0.44002400  1
  O  O48  1  0.64747300  0.38008700  0.37172900  1
  O  O49  1  0.47615800  0.39656000  0.94002400  1
  O  O50  1  0.98313600  0.34255800  0.21109600  1
  O  O51  1  0.97615800  0.89656000  0.55997600  1
loop_
_geom_bond_atom_site_label_1
_geom_bond_atom_site_label_2
_geom_bond_distance
_geom_bond_site_symmetry_2
In0 O11 2.149451 1_555
In0 O40 2.154580 1_555
In0 O10 2.155943 1_555
In0 O21 2.190963 1_555
In0 O33 2.243127 1_555
In0 O20 2.352066 1_555
In1 O6 2.149451 1_555
In1 O39 2.154580 1_555
In1 O17 2.155943 1_555
In1 O51 2.190963 1_455
In1 O32 2.243127 1_555
In1 O24 2.352066 1_565
In2 O8 2.149451 1_555
In2 O48 2.154580 1_555
In2 O45 2.155943 1_555
In2 O47 2.190963 1_545
In2 O31 2.243127 1_555
In2 O19 2.352066 1_655
In3 O46 2.149451 1_555
In3 O3 2.154580 1_555
In3 O28 2.155943 1_555
In3 O49 2.190963 1_555
In3 O5 2.243127 1_555
In3 O23 2.352066 1_555
Co0 O0 1.922735 1_645
Co0 O50 1.954043 1_555
Co0 O31 1.987742 1_555
Co0 O19 2.037535 1_655
Co1 O36 1.922735 1_555
Co1 O1 1.954043 1_555
Co1 O5 1.987742 1_555
Co1 O23 2.037535 1_555
Co2 O41 1.922735 1_555
Co2 O27 1.954043 1_555
Co2 O33 1.987742 1_555
Co2 O20 2.037535 1_555
Co3 O38 1.922735 1_465
Co3 O35 1.954043 1_555
Co3 O32 1.987742 1_555
Co3 O24 2.037535 1_565
O0 Si15 1.620230 1_455
O0 Rb10 3.149780 1_565
O0 Rb1 3.168857 1_555
O0 Rb8 3.433315 1_455
O1 Si14 1.612982 1_655
O1 Rb7 2.826885 1_555
O1 Rb2 3.013002 1_555
O2 Si10 1.639548 1_555
O2 Si15 1.675917 1_555
O2 Rb0 3.362003 1_665
O3 Si17 1.617871 1_545
O3 Rb5 2.920554 1_655
O3 Rb0 3.170437 1_656
O4 Si6 1.657293 1_555
O4 Si9 1.676090 1_555
O4 Rb2 3.113291 1_545
O4 Rb7 3.237871 1_555
O5 Si9 1.633547 1_555
O5 Rb5 3.038742 1_555
O6 Si3 1.613179 1_455
O6 Rb7 3.410807 1_455
O7 Si16 1.656496 1_555
O7 Si1 1.683803 1_555
O7 Rb1 3.048095 1_545
O7 Rb10 3.150310 1_555
O8 Si4 1.613179 1_545
O8 Rb1 3.410807 1_545
O9 Si2 1.639581 1_555
O9 Si3 1.682358 1_455
O9 Rb1 3.329786 1_555
O10 Si7 1.622394 1_565
O10 Rb9 2.963209 1_555
O10 Rb6 3.254894 1_554
O10 Rb0 3.443562 1_565
O11 Si12 1.613179 1_554
O11 Rb4 3.410807 1_455
O12 Si5 1.639581 1_455
O12 Si12 1.682358 1_555
O12 Rb6 3.329786 1_555
O13 Si2 1.657293 1_555
O13 Si8 1.676090 1_555
O13 Rb8 3.113291 1_455
O13 Rb1 3.237871 1_555
O14 Si12 1.665134 1_555
O14 Si13 1.671146 1_556
O14 Rb0 3.006861 1_556
O14 Rb5 3.064047 1_555
O15 Si6 1.639548 1_555
O15 Si0 1.675917 1_555
O15 Rb3 3.362003 1_555
O16 Si5 1.657293 1_455
O16 Si14 1.676090 1_555
O16 Rb5 3.113291 1_555
O16 Rb6 3.237871 1_555
O17 Si4 1.622394 1_555
O17 Rb11 2.963209 1_565
O17 Rb1 3.254894 1_555
O17 Rb3 3.443562 1_555
O18 Si9 1.656496 1_565
O18 Si17 1.683803 1_555
O18 Rb6 3.048095 1_555
O18 Rb2 3.150310 1_555
O19 Si2 1.623008 1_555
O19 Rb1 3.505423 1_545
O20 Si10 1.623008 1_555
O20 Rb4 3.505423 1_555
O21 Si13 1.623323 1_555
O21 Rb9 2.937841 1_555
O21 Rb4 3.173570 1_555
O21 Rb10 3.182343 1_555
O22 Si6 1.639581 1_555
O22 Si4 1.682358 1_545
O22 Rb7 3.329786 1_555
O23 Si5 1.623008 1_555
O23 Rb6 3.505423 1_555
O24 Si6 1.623008 1_555
O24 Rb7 3.505423 1_455
O25 Si10 1.639581 1_545
O25 Si7 1.682358 1_555
O25 Rb4 3.329786 1_555
O26 Si14 1.656496 1_555
O26 Si0 1.683803 1_555
O26 Rb7 3.048095 1_455
O26 Rb5 3.150310 1_555
O27 Si16 1.612982 1_565
O27 Rb1 2.826885 1_555
O27 Rb8 3.013002 1_555
O28 Si12 1.622394 1_655
O28 Rb9 2.963209 1_556
O28 Rb4 3.254894 1_556
O28 Rb0 3.443562 1_656
O29 Si2 1.639548 1_555
O29 Si1 1.675917 1_555
O29 Rb3 3.362003 1_555
O30 Si4 1.665134 1_555
O30 Si11 1.671146 1_555
O30 Rb3 3.006861 1_555
O30 Rb2 3.064047 1_555
O31 Si16 1.633547 1_555
O31 Rb8 3.038742 1_545
O32 Si14 1.633547 1_555
O32 Rb2 3.038742 1_455
O33 Si8 1.633547 1_555
O33 Rb10 3.038742 1_555
O34 Si10 1.657293 1_545
O34 Si16 1.676090 1_555
O34 Rb10 3.113291 1_555
O34 Rb4 3.237871 1_555
O35 Si9 1.612982 1_565
O35 Rb6 2.826885 1_555
O35 Rb5 3.013002 1_565
O36 Si0 1.620230 1_555
O36 Rb2 3.149780 1_555
O36 Rb6 3.168857 1_555
O36 Rb5 3.433315 1_555
O37 Si5 1.639548 1_555
O37 Si17 1.675917 1_555
O37 Rb0 3.362003 1_666
O38 Si17 1.620230 1_545
O38 Rb5 3.149780 1_655
O38 Rb7 3.168857 1_555
O38 Rb2 3.433315 1_545
O39 Si0 1.617871 1_555
O39 Rb2 2.920554 1_555
O39 Rb3 3.170437 1_555
O40 Si15 1.617871 1_455
O40 Rb10 2.920554 1_565
O40 Rb0 3.170437 1_565
O41 Si1 1.620230 1_555
O41 Rb8 3.149780 1_555
O41 Rb4 3.168857 1_555
O41 Rb10 3.433315 1_555
O42 Si3 1.665134 1_555
O42 Si11 1.671146 1_555
O42 Rb3 3.006861 1_555
O42 Rb8 3.064047 1_555
O43 Si7 1.665134 1_555
O43 Si13 1.671146 1_555
O43 Rb0 3.006861 1_555
O43 Rb10 3.064047 1_555
O44 Si8 1.656496 1_655
O44 Si15 1.683803 1_555
O44 Rb4 3.048095 1_555
O44 Rb8 3.150310 1_555
O45 Si3 1.622394 1_555
O45 Rb11 2.963209 1_655
O45 Rb7 3.254894 1_555
O45 Rb3 3.443562 1_555
O46 Si7 1.613179 1_556
O46 Rb6 3.410807 1_545
O47 Si11 1.623323 1_555
O47 Rb11 2.937841 1_665
O47 Rb1 3.173570 1_655
O47 Rb8 3.182343 1_555
O48 Si1 1.617871 1_555
O48 Rb8 2.920554 1_555
O48 Rb3 3.170437 1_555
O49 Si13 1.623323 1_556
O49 Rb9 2.937841 1_556
O49 Rb6 3.173570 1_555
O49 Rb5 3.182343 1_555
O50 Si8 1.612982 1_655
O50 Rb4 2.826885 1_555
O50 Rb10 3.013002 1_655
O51 Si11 1.623323 1_555
O51 Rb11 2.937841 1_665
O51 Rb7 3.173570 1_565
O51 Rb2 3.182343 1_555
