# generated using pymatgen
data_MnSiO3
_symmetry_space_group_name_H-M   'P 1'
_cell_length_a   6.69162285
_cell_length_b   7.61089527
_cell_length_c   11.85264433
_cell_angle_alpha   105.50403504
_cell_angle_beta   92.44071505
_cell_angle_gamma   94.38126199
_symmetry_Int_Tables_number   1
_chemical_formula_structural   MnSiO3
_chemical_formula_sum   'Mn10 Si10 O30'
_cell_volume   578.73228732
_cell_formula_units_Z   10
loop_
 _symmetry_equiv_pos_site_id
 _symmetry_equiv_pos_as_xyz
  1  'x, y, z'
loop_
 _atom_site_type_symbol
 _atom_site_label
 _atom_site_symmetry_multiplicity
 _atom_site_fract_x
 _atom_site_fract_y
 _atom_site_fract_z
 _atom_site_occupancy
  Mn  Mn0  1  0.12832656  0.31674218  0.44509596  1
  Mn  Mn1  1  0.65518239  0.03359565  0.70590181  1
  Mn  Mn2  1  0.02843218  0.12195800  0.14716273  1
  Mn  Mn3  1  0.34481761  0.96640435  0.29409819  1
  Mn  Mn4  1  0.20424624  0.70053155  0.02811023  1
  Mn  Mn5  1  0.79575376  0.29946845  0.97188977  1
  Mn  Mn6  1  0.81511405  0.49022712  0.27034997  1
  Mn  Mn7  1  0.18488595  0.50977288  0.72965003  1
  Mn  Mn8  1  0.97156782  0.87804200  0.85283727  1
  Mn  Mn9  1  0.87167344  0.68325782  0.55490404  1
  Si  Si0  1  0.49644765  0.22178518  0.12315412  1
  Si  Si1  1  0.24474993  0.25561286  0.90975312  1
  Si  Si2  1  0.70088064  0.45171103  0.73357394  1
  Si  Si3  1  0.29911936  0.54828897  0.26642606  1
  Si  Si4  1  0.75525007  0.74438714  0.09024688  1
  Si  Si5  1  0.36339222  0.74030551  0.53375517  1
  Si  Si6  1  0.15083494  0.07695398  0.65369284  1
  Si  Si7  1  0.63660778  0.25969449  0.46624483  1
  Si  Si8  1  0.50355235  0.77821482  0.87684588  1
  Si  Si9  1  0.84916506  0.92304602  0.34630716  1
  O  O0  1  0.89059511  0.59578868  0.73133129  1
  O  O1  1  0.41787177  0.23062734  0.39947456  1
  O  O2  1  0.48439099  0.42535958  0.21663343  1
  O  O3  1  0.94270847  0.84422289  0.04026695  1
  O  O4  1  0.33759021  0.06705183  0.14399501  1
  O  O5  1  0.19545003  0.59883177  0.56621079  1
  O  O6  1  0.26603082  0.80074710  0.86987278  1
  O  O7  1  0.26087059  0.69712841  0.19543908  1
  O  O8  1  0.70306082  0.85866513  0.22295898  1
  O  O9  1  0.66240979  0.93294817  0.85600499  1
  O  O10  1  0.29693918  0.14133487  0.77704102  1
  O  O11  1  0.10940489  0.40421132  0.26866871  1
  O  O12  1  0.89465684  0.74700694  0.38978514  1
  O  O13  1  0.28399140  0.94590823  0.55957164  1
  O  O14  1  0.71600860  0.05409177  0.44042836  1
  O  O15  1  0.05729153  0.15577711  0.95973305  1
  O  O16  1  0.10534316  0.25299306  0.61021486  1
  O  O17  1  0.95710513  0.95523326  0.68039442  1
  O  O18  1  0.38956444  0.67607962  0.39354409  1
  O  O19  1  0.44779068  0.25772676  0.99326254  1
  O  O20  1  0.61043556  0.32392038  0.60645591  1
  O  O21  1  0.18716488  0.45377947  0.90364296  1
  O  O22  1  0.73396918  0.19925290  0.13012722  1
  O  O23  1  0.73912941  0.30287159  0.80456092  1
  O  O24  1  0.55220932  0.74227324  0.00673746  1
  O  O25  1  0.81283512  0.54622053  0.09635704  1
  O  O26  1  0.04289487  0.04476674  0.31960558  1
  O  O27  1  0.51560901  0.57464042  0.78336657  1
  O  O28  1  0.80454997  0.40116823  0.43378921  1
  O  O29  1  0.58212823  0.76937266  0.60052544  1
loop_
_geom_bond_atom_site_label_1
_geom_bond_atom_site_label_2
_geom_bond_distance
_geom_bond_site_symmetry_2
Mn0 O1 2.137698 1_555
Mn0 O16 2.147362 1_555
Mn0 O26 2.219174 1_555
Mn0 O5 2.240975 1_555
Mn0 O28 2.314944 1_455
Mn0 O11 2.359364 1_555
Mn1 O29 2.073158 1_545
Mn1 O23 2.090475 1_555
Mn1 O9 2.116910 1_545
Mn1 O17 2.160708 1_545
Mn2 O22 2.115700 1_455
Mn2 O4 2.141531 1_555
Mn2 O3 2.173380 1_445
Mn2 O11 2.254810 1_555
Mn2 O26 2.272851 1_555
Mn2 O15 2.318063 1_554
Mn3 O1 2.073158 1_565
Mn3 O7 2.090475 1_555
Mn3 O4 2.116910 1_565
Mn3 O26 2.160708 1_565
Mn4 O7 2.010631 1_555
Mn4 O21 2.046471 1_554
Mn4 O3 2.123516 1_455
Mn4 O6 2.247877 1_554
Mn4 O24 2.359442 1_555
Mn5 O23 2.010631 1_555
Mn5 O25 2.046471 1_556
Mn5 O15 2.123516 1_655
Mn5 O22 2.247877 1_556
Mn5 O19 2.359442 1_555
Mn6 O12 2.098696 1_555
Mn6 O11 2.121412 1_655
Mn6 O25 2.214270 1_555
Mn6 O28 2.218885 1_555
Mn6 O2 2.256505 1_555
Mn6 O22 2.394400 1_555
Mn7 O16 2.098696 1_555
Mn7 O0 2.121412 1_455
Mn7 O21 2.214270 1_555
Mn7 O5 2.218885 1_555
Mn7 O27 2.256505 1_555
Mn7 O6 2.394400 1_555
Mn8 O6 2.115700 1_655
Mn8 O9 2.141531 1_555
Mn8 O15 2.173380 1_665
Mn8 O0 2.254810 1_555
Mn8 O17 2.272851 1_555
Mn8 O3 2.318063 1_556
Mn9 O29 2.137698 1_555
Mn9 O12 2.147362 1_555
Mn9 O17 2.219174 1_555
Mn9 O28 2.240975 1_555
Mn9 O5 2.314944 1_655
Mn9 O0 2.359364 1_555
O0 Si2 1.618809 1_555
O1 Si7 1.604974 1_555
O2 Si3 1.644696 1_555
O2 Si0 1.656401 1_555
O3 Si4 1.630986 1_555
O4 Si0 1.601411 1_555
O5 Si5 1.625939 1_555
O6 Si8 1.612600 1_555
O7 Si3 1.610025 1_555
O8 Si4 1.647579 1_555
O8 Si9 1.659963 1_555
O9 Si8 1.601411 1_555
O10 Si1 1.647579 1_555
O10 Si6 1.659963 1_555
O11 Si3 1.618809 1_555
O12 Si9 1.603562 1_555
O13 Si6 1.630592 1_565
O13 Si5 1.646052 1_555
O14 Si9 1.630592 1_545
O14 Si7 1.646052 1_555
O15 Si1 1.630986 1_555
O16 Si6 1.603562 1_555
O17 Si6 1.627007 1_665
O18 Si3 1.622135 1_555
O18 Si5 1.623271 1_555
O19 Si1 1.643038 1_555
O19 Si0 1.657451 1_556
O20 Si2 1.622135 1_555
O20 Si7 1.623271 1_555
O21 Si1 1.604147 1_555
O22 Si0 1.612600 1_555
O23 Si2 1.610025 1_555
O24 Si4 1.643038 1_555
O24 Si8 1.657451 1_554
O25 Si4 1.604147 1_555
O26 Si9 1.627007 1_445
O27 Si2 1.644696 1_555
O27 Si8 1.656401 1_555
O28 Si7 1.625939 1_555
O29 Si5 1.604974 1_555
