# generated using pymatgen
data_LaPb6BrO7
_symmetry_space_group_name_H-M   'P 1'
_cell_length_a   9.70373959
_cell_length_b   9.70373959
_cell_length_c   8.27108200
_cell_angle_alpha   90.00000000
_cell_angle_beta   90.00000000
_cell_angle_gamma   118.81560317
_symmetry_Int_Tables_number   1
_chemical_formula_structural   LaPb6BrO7
_chemical_formula_sum   'La2 Pb12 Br2 O14'
_cell_volume   682.38846168
_cell_formula_units_Z   2
loop_
 _symmetry_equiv_pos_site_id
 _symmetry_equiv_pos_as_xyz
  1  'x, y, z'
loop_
 _atom_site_type_symbol
 _atom_site_label
 _atom_site_symmetry_multiplicity
 _atom_site_fract_x
 _atom_site_fract_y
 _atom_site_fract_z
 _atom_site_occupancy
  La  La0  1  0.00000000  0.00000000  0.50000000  1
  La  La1  1  0.00000000  0.00000000  0.00000000  1
  Pb  Pb0  1  0.61434400  0.81267300  0.75000000  1
  Pb  Pb1  1  0.81267300  0.61434400  0.25000000  1
  Pb  Pb2  1  0.38565600  0.18732700  0.25000000  1
  Pb  Pb3  1  0.18732700  0.38565600  0.75000000  1
  Pb  Pb4  1  0.36627400  0.10462800  0.75000000  1
  Pb  Pb5  1  0.22767000  0.77233000  0.01426300  1
  Pb  Pb6  1  0.22767000  0.77233000  0.48573700  1
  Pb  Pb7  1  0.89537200  0.63372600  0.75000000  1
  Pb  Pb8  1  0.77233000  0.22767000  0.51426300  1
  Pb  Pb9  1  0.63372600  0.89537200  0.25000000  1
  Pb  Pb10  1  0.77233000  0.22767000  0.98573700  1
  Pb  Pb11  1  0.10462800  0.36627400  0.25000000  1
  Br  Br0  1  0.50000000  0.50000000  0.50000000  1
  Br  Br1  1  0.50000000  0.50000000  0.00000000  1
  O  O0  1  0.86043000  0.84204400  0.75000000  1
  O  O1  1  0.02073500  0.27907900  0.52881700  1
  O  O2  1  0.02073500  0.27907900  0.97118300  1
  O  O3  1  0.13957000  0.15795600  0.25000000  1
  O  O4  1  0.72092100  0.97926500  0.52881700  1
  O  O5  1  0.19293500  0.80706500  0.75000000  1
  O  O6  1  0.97926500  0.72092100  0.47118300  1
  O  O7  1  0.84204400  0.86043000  0.25000000  1
  O  O8  1  0.15795600  0.13957000  0.75000000  1
  O  O9  1  0.72092100  0.97926500  0.97118300  1
  O  O10  1  0.97926500  0.72092100  0.02881700  1
  O  O11  1  0.27907900  0.02073500  0.02881700  1
  O  O12  1  0.80706500  0.19293500  0.25000000  1
  O  O13  1  0.27907900  0.02073500  0.47118300  1
loop_
_geom_bond_atom_site_label_1
_geom_bond_atom_site_label_2
_geom_bond_distance
_geom_bond_site_symmetry_2
La0 O7 2.541293 1_445
La0 O0 2.541293 1_445
La0 O8 2.541293 1_555
La0 O3 2.541293 1_555
La0 O4 2.627905 1_445
La0 O13 2.627905 1_555
La0 O6 2.627905 1_445
La0 O1 2.627905 1_555
La1 O7 2.541293 1_445
La1 O8 2.541293 1_554
La1 O3 2.541293 1_555
La1 O0 2.541293 1_444
La1 O2 2.627905 1_554
La1 O9 2.627905 1_444
La1 O10 2.627905 1_445
La1 O11 2.627905 1_555
Br0 Pb3 3.386337 1_555
Br0 Pb2 3.386337 1_555
Br0 Pb1 3.386337 1_555
Br0 Pb0 3.386337 1_555
Br1 Pb0 3.386337 1_554
Br1 Pb3 3.386337 1_554
Br1 Pb1 3.386337 1_555
Br1 Pb2 3.386337 1_555
O0 Pb7 2.204997 1_555
O0 Pb0 2.264394 1_555
O1 Pb8 2.216864 1_455
O1 Pb3 2.327660 1_555
O1 Pb11 2.456180 1_555
O2 Pb10 2.216864 1_455
O2 Pb3 2.327660 1_555
O2 Pb11 2.456180 1_556
O3 Pb11 2.204997 1_555
O3 Pb2 2.264394 1_555
O4 Pb8 2.216864 1_565
O4 Pb0 2.327660 1_555
O4 Pb9 2.456180 1_555
O5 Pb5 2.261459 1_556
O5 Pb6 2.261459 1_555
O5 Pb4 2.546534 1_565
O5 Pb7 2.546534 1_455
O6 Pb6 2.216864 1_655
O6 Pb1 2.327660 1_555
O6 Pb7 2.456180 1_555
O7 Pb9 2.204997 1_555
O7 Pb1 2.264394 1_555
O8 Pb4 2.204997 1_555
O8 Pb3 2.264394 1_555
O9 Pb10 2.216864 1_565
O9 Pb0 2.327660 1_555
O9 Pb9 2.456180 1_556
O10 Pb5 2.216864 1_655
O10 Pb1 2.327660 1_555
O10 Pb7 2.456180 1_554
O11 Pb5 2.216864 1_545
O11 Pb2 2.327660 1_555
O11 Pb4 2.456180 1_554
O12 Pb8 2.261459 1_555
O12 Pb10 2.261459 1_554
O12 Pb11 2.546534 1_655
O12 Pb9 2.546534 1_545
O13 Pb6 2.216864 1_545
O13 Pb2 2.327660 1_555
O13 Pb4 2.456180 1_555
