# generated using pymatgen
data_K2Cr3(ClF3)2
_symmetry_space_group_name_H-M   'P 1'
_cell_length_a   11.45185700
_cell_length_b   6.65914900
_cell_length_c   7.60233014
_cell_angle_alpha   57.26136663
_cell_angle_beta   90.00000000
_cell_angle_gamma   90.00000000
_symmetry_Int_Tables_number   1
_chemical_formula_structural   K2Cr3(ClF3)2
_chemical_formula_sum   'K4 Cr6 Cl4 F12'
_cell_volume   487.65527011
_cell_formula_units_Z   2
loop_
 _symmetry_equiv_pos_site_id
 _symmetry_equiv_pos_as_xyz
  1  'x, y, z'
loop_
 _atom_site_type_symbol
 _atom_site_label
 _atom_site_symmetry_multiplicity
 _atom_site_fract_x
 _atom_site_fract_y
 _atom_site_fract_z
 _atom_site_occupancy
  K  K0  1  0.05017700  0.30341900  0.35831000  1
  K  K1  1  0.94982300  0.69658100  0.64169000  1
  K  K2  1  0.44982300  0.30341900  0.85831000  1
  K  K3  1  0.55017700  0.69658100  0.14169000  1
  Cr  Cr0  1  0.24676600  0.83883100  0.77823800  1
  Cr  Cr1  1  0.74676600  0.16116900  0.72176200  1
  Cr  Cr2  1  0.00000000  0.00000000  0.00000000  1
  Cr  Cr3  1  0.25323400  0.83883100  0.27823800  1
  Cr  Cr4  1  0.75323400  0.16116900  0.22176200  1
  Cr  Cr5  1  0.50000000  0.00000000  0.50000000  1
  Cl  Cl0  1  0.32982500  0.33163700  0.47435600  1
  Cl  Cl1  1  0.17017500  0.33163700  0.97435600  1
  Cl  Cl2  1  0.82982500  0.66836300  0.02564400  1
  Cl  Cl3  1  0.67017500  0.66836300  0.52564400  1
  F  F0  1  0.68743400  0.14338600  0.98277200  1
  F  F1  1  0.09112100  0.73979000  0.24747800  1
  F  F2  1  0.08390700  0.94337400  0.79405800  1
  F  F3  1  0.90887900  0.26021000  0.75252200  1
  F  F4  1  0.91609300  0.05662600  0.20594200  1
  F  F5  1  0.58390700  0.05662600  0.70594200  1
  F  F6  1  0.59112100  0.26021000  0.25252200  1
  F  F7  1  0.40887900  0.73979000  0.74747800  1
  F  F8  1  0.81256600  0.14338600  0.48277200  1
  F  F9  1  0.41609300  0.94337400  0.29405800  1
  F  F10  1  0.18743400  0.85661400  0.51722800  1
  F  F11  1  0.31256600  0.85661400  0.01722800  1
loop_
_geom_bond_atom_site_label_1
_geom_bond_atom_site_label_2
_geom_bond_distance
_geom_bond_site_symmetry_2
Cr0 F2 2.016939 1_555
Cr0 F7 2.025599 1_555
Cr0 F11 2.028695 1_556
Cr0 F10 2.039343 1_555
Cr1 F5 2.016939 1_555
Cr1 F3 2.025599 1_555
Cr1 F8 2.028695 1_555
Cr1 F0 2.039343 1_555
Cr2 F1 2.026077 1_545
Cr2 F3 2.026077 1_454
Cr2 F4 2.038451 1_455
Cr2 F2 2.038451 1_544
Cr3 F9 2.016939 1_555
Cr3 F1 2.025599 1_555
Cr3 F10 2.028695 1_555
Cr3 F11 2.039343 1_555
Cr4 F4 2.016939 1_555
Cr4 F6 2.025599 1_555
Cr4 F0 2.028695 1_554
Cr4 F8 2.039343 1_555
Cr5 F7 2.026077 1_545
Cr5 F6 2.026077 1_555
Cr5 F5 2.038451 1_555
Cr5 F9 2.038451 1_545
Cl0 Cr5 2.871819 1_555
Cl0 Cr0 2.968344 1_545
Cl0 Cr3 2.992154 1_555
Cl0 K2 3.138585 1_555
Cl0 K0 3.353932 1_555
Cl0 K3 3.467276 1_555
Cl1 Cr2 2.871819 1_556
Cl1 Cr3 2.968344 1_546
Cl1 Cr0 2.992154 1_555
Cl1 K0 3.138585 1_556
Cl1 K2 3.353932 1_555
Cl1 K1 3.467276 1_455
Cl2 Cr2 2.871819 1_665
Cl2 Cr1 2.968344 1_564
Cl2 Cr4 2.992154 1_555
Cl2 K1 3.138585 1_554
Cl2 K3 3.353932 1_555
Cl2 K0 3.467276 1_655
Cl3 Cr5 2.871819 1_565
Cl3 Cr4 2.968344 1_565
Cl3 Cr1 2.992154 1_555
Cl3 K3 3.138585 1_555
Cl3 K1 3.353932 1_555
Cl3 K2 3.467276 1_555
F0 K2 2.888710 1_555
F0 K3 2.982440 1_546
F1 K0 2.593369 1_555
F1 K1 3.278720 1_455
F2 K0 2.877656 1_565
F2 K1 2.908518 1_455
F3 K1 2.593369 1_555
F3 K0 3.278720 1_655
F4 K1 2.877656 1_545
F4 K0 2.908518 1_655
F5 K3 2.877656 1_546
F5 K2 2.908518 1_555
F6 K3 2.593369 1_555
F6 K2 3.278720 1_554
F7 K2 2.593369 1_555
F7 K3 3.278720 1_556
F8 K0 2.888710 1_655
F8 K1 2.982440 1_545
F9 K2 2.877656 1_564
F9 K3 2.908518 1_555
F10 K1 2.888710 1_455
F10 K0 2.982440 1_565
F11 K3 2.888710 1_555
F11 K2 2.982440 1_564
