# generated using pymatgen
data_RbCeH2S2O9
_symmetry_space_group_name_H-M   'P 1'
_cell_length_a   8.90895900
_cell_length_b   10.28832200
_cell_length_c   10.62586497
_cell_angle_alpha   61.48871323
_cell_angle_beta   90.00000000
_cell_angle_gamma   90.00000000
_symmetry_Int_Tables_number   1
_chemical_formula_structural   RbCeH2S2O9
_chemical_formula_sum   'Rb4 Ce4 H8 S8 O36'
_cell_volume   855.83066643
_cell_formula_units_Z   4
loop_
 _symmetry_equiv_pos_site_id
 _symmetry_equiv_pos_as_xyz
  1  'x, y, z'
loop_
 _atom_site_type_symbol
 _atom_site_label
 _atom_site_symmetry_multiplicity
 _atom_site_fract_x
 _atom_site_fract_y
 _atom_site_fract_z
 _atom_site_occupancy
  Rb  Rb0  1  0.18652000  0.21854100  0.30683900  1
  Rb  Rb1  1  0.68652000  0.78145900  0.19316100  1
  Rb  Rb2  1  0.81348000  0.78145900  0.69316100  1
  Rb  Rb3  1  0.31348000  0.21854100  0.80683900  1
  Ce  Ce0  1  0.84701200  0.26351500  0.97052300  1
  Ce  Ce1  1  0.34701200  0.73648500  0.52947700  1
  Ce  Ce2  1  0.15298800  0.73648500  0.02947700  1
  Ce  Ce3  1  0.65298800  0.26351500  0.47052300  1
  H  H0  1  0.51931500  0.27132600  0.06497600  1
  H  H1  1  0.01931500  0.72867400  0.43502400  1
  H  H2  1  0.48068500  0.72867400  0.93502400  1
  H  H3  1  0.98068500  0.27132600  0.56497600  1
  H  H4  1  0.53425200  0.41824900  0.92056400  1
  H  H5  1  0.03425200  0.58175100  0.57943600  1
  H  H6  1  0.46574800  0.58175100  0.07943600  1
  H  H7  1  0.96574800  0.41824900  0.42056400  1
  S  S0  1  0.81757100  0.47740500  0.11456000  1
  S  S1  1  0.31757100  0.52259500  0.38544000  1
  S  S2  1  0.18242900  0.52259500  0.88544000  1
  S  S3  1  0.68242900  0.47740500  0.61456000  1
  S  S4  1  0.86907900  0.05351400  0.82375700  1
  S  S5  1  0.36907900  0.94648600  0.67624300  1
  S  S6  1  0.13092100  0.94648600  0.17624300  1
  S  S7  1  0.63092100  0.05351400  0.32375700  1
  O  O0  1  0.89523800  0.33192400  0.16347200  1
  O  O1  1  0.39523800  0.66807600  0.33652800  1
  O  O2  1  0.10476200  0.66807600  0.83652800  1
  O  O3  1  0.60476200  0.33192400  0.66347200  1
  O  O4  1  0.75468700  0.52035400  0.97037900  1
  O  O5  1  0.25468700  0.47964600  0.52962100  1
  O  O6  1  0.24531300  0.47964600  0.02962100  1
  O  O7  1  0.74531300  0.52035400  0.47037900  1
  O  O8  1  0.92389800  0.59151000  0.10945600  1
  O  O9  1  0.42389800  0.40849000  0.39054400  1
  O  O10  1  0.07610200  0.40849000  0.89054400  1
  O  O11  1  0.57610200  0.59151000  0.60945600  1
  O  O12  1  0.69662000  0.46148000  0.21813600  1
  O  O13  1  0.19662000  0.53852000  0.28186400  1
  O  O14  1  0.30338000  0.53852000  0.78186400  1
  O  O15  1  0.80338000  0.46148000  0.71813600  1
  O  O16  1  0.97477600  0.17969700  0.78778700  1
  O  O17  1  0.47477600  0.82030300  0.71221300  1
  O  O18  1  0.02522400  0.82030300  0.21221300  1
  O  O19  1  0.52522400  0.17969700  0.28778700  1
  O  O20  1  0.76000200  0.05512600  0.93092200  1
  O  O21  1  0.26000200  0.94487400  0.56907800  1
  O  O22  1  0.23999800  0.94487400  0.06907800  1
  O  O23  1  0.73999800  0.05512600  0.43092200  1
  O  O24  1  0.94910400  0.90902500  0.88766900  1
  O  O25  1  0.44910400  0.09097500  0.61233100  1
  O  O26  1  0.05089600  0.09097500  0.11233100  1
  O  O27  1  0.55089600  0.90902500  0.38766900  1
  O  O28  1  0.79000800  0.07142800  0.69335300  1
  O  O29  1  0.29000800  0.92857200  0.80664700  1
  O  O30  1  0.20999200  0.92857200  0.30664700  1
  O  O31  1  0.70999200  0.07142800  0.19335300  1
  O  O32  1  0.55232200  0.31143800  0.96476900  1
  O  O33  1  0.05232200  0.68856200  0.53523100  1
  O  O34  1  0.44767800  0.68856200  0.03523100  1
  O  O35  1  0.94767800  0.31143800  0.46476900  1
loop_
_geom_bond_atom_site_label_1
_geom_bond_atom_site_label_2
_geom_bond_distance
_geom_bond_site_symmetry_2
Ce0 O10 2.429471 1_655
Ce0 O26 2.483425 1_656
Ce0 O20 2.497168 1_555
Ce0 O0 2.502208 1_556
Ce0 O15 2.505404 1_555
Ce0 O31 2.556333 1_556
Ce0 O32 2.666586 1_555
Ce0 O16 2.721779 1_555
Ce0 O4 2.766800 1_555
Ce1 O11 2.429471 1_555
Ce1 O27 2.483425 1_555
Ce1 O21 2.497168 1_555
Ce1 O1 2.502208 1_555
Ce1 O14 2.505404 1_555
Ce1 O30 2.556333 1_555
Ce1 O33 2.666586 1_555
Ce1 O17 2.721779 1_555
Ce1 O5 2.766800 1_555
Ce2 O8 2.429471 1_455
Ce2 O24 2.483425 1_454
Ce2 O22 2.497168 1_555
Ce2 O2 2.502208 1_554
Ce2 O13 2.505404 1_555
Ce2 O29 2.556333 1_554
Ce2 O34 2.666586 1_555
Ce2 O18 2.721779 1_555
Ce2 O6 2.766800 1_555
Ce3 O9 2.429471 1_555
Ce3 O25 2.483425 1_555
Ce3 O23 2.497168 1_555
Ce3 O3 2.502208 1_555
Ce3 O12 2.505404 1_555
Ce3 O28 2.556333 1_555
Ce3 O35 2.666586 1_555
Ce3 O19 2.721779 1_555
Ce3 O7 2.766800 1_555
H0 O32 0.985418 1_554
H1 O33 0.985418 1_555
H2 O34 0.985418 1_556
H3 O35 0.985418 1_555
H4 O32 0.980495 1_555
H5 O33 0.980495 1_555
H6 O34 0.980495 1_555
H7 O35 0.980495 1_555
O0 S0 1.498841 1_555
O0 Rb0 2.952817 1_655
O1 S1 1.498841 1_555
O1 Rb1 2.952817 1_555
O2 S2 1.498841 1_555
O2 Rb2 2.952817 1_455
O3 S3 1.498841 1_555
O3 Rb3 2.952817 1_555
O4 S0 1.486607 1_556
O4 Rb2 2.934866 1_555
O5 S1 1.486607 1_555
O5 Rb3 2.934866 1_555
O6 S2 1.486607 1_554
O6 Rb0 2.934866 1_555
O7 S3 1.486607 1_555
O7 Rb1 2.934866 1_555
O8 S0 1.489168 1_555
O8 Rb1 3.277491 1_555
O9 S1 1.489168 1_555
O9 Rb0 3.277491 1_555
O10 S2 1.489168 1_555
O10 Rb3 3.277491 1_555
O11 S3 1.489168 1_555
O11 Rb2 3.277491 1_555
O12 S0 1.492345 1_555
O12 Rb1 3.175226 1_555
O13 S1 1.492345 1_555
O13 Rb0 3.175226 1_555
O14 S2 1.492345 1_555
O14 Rb3 3.175226 1_555
O15 S3 1.492345 1_555
O15 Rb2 3.175226 1_555
O16 S4 1.498148 1_555
O16 Rb3 3.063207 1_655
O17 S5 1.498148 1_555
O17 Rb2 3.063207 1_555
O18 S6 1.498148 1_555
O18 Rb1 3.063207 1_455
O19 S7 1.498148 1_555
O19 Rb0 3.063207 1_555
O20 S4 1.503101 1_555
O20 Rb1 2.937813 1_546
O21 S5 1.503101 1_555
O21 Rb0 2.937813 1_565
O22 S6 1.503101 1_555
O22 Rb3 2.937813 1_564
O23 S7 1.503101 1_555
O23 Rb2 2.937813 1_545
O24 S4 1.488469 1_565
O24 Rb2 3.169185 1_555
O25 S5 1.488469 1_545
O25 Rb3 3.169185 1_555
O26 S6 1.488469 1_545
O26 Rb0 3.169185 1_555
O27 S7 1.488469 1_565
O27 Rb1 3.169185 1_555
O28 S4 1.485409 1_555
O28 Rb2 2.991586 1_545
O29 S5 1.485409 1_555
O29 Rb3 2.991586 1_565
O30 S6 1.485409 1_555
O30 Rb0 2.991586 1_565
O31 S7 1.485409 1_555
O31 Rb1 2.991586 1_545
O32 Rb3 3.128655 1_555
O33 Rb2 3.128655 1_455
O34 Rb1 3.128655 1_555
O35 Rb0 3.128655 1_655
