# generated using pymatgen
data_Zr3P3Pd4
_symmetry_space_group_name_H-M   'P 1'
_cell_length_a   3.83391638
_cell_length_b   10.02958618
_cell_length_c   16.46148160
_cell_angle_alpha   90.00000000
_cell_angle_beta   90.00000000
_cell_angle_gamma   90.00000000
_symmetry_Int_Tables_number   1
_chemical_formula_structural   Zr3P3Pd4
_chemical_formula_sum   'Zr12 P12 Pd16'
_cell_volume   632.98668079
_cell_formula_units_Z   4
loop_
 _symmetry_equiv_pos_site_id
 _symmetry_equiv_pos_as_xyz
  1  'x, y, z'
loop_
 _atom_site_type_symbol
 _atom_site_label
 _atom_site_symmetry_multiplicity
 _atom_site_fract_x
 _atom_site_fract_y
 _atom_site_fract_z
 _atom_site_occupancy
  Zr  Zr0  1  0.25000000  0.02413059  0.26057758  1
  Zr  Zr1  1  0.75000000  0.97586941  0.73942242  1
  Zr  Zr2  1  0.75000000  0.52413059  0.23942242  1
  Zr  Zr3  1  0.25000000  0.47586941  0.76057758  1
  Zr  Zr4  1  0.25000000  0.88315671  0.45148511  1
  Zr  Zr5  1  0.75000000  0.11684329  0.54851489  1
  Zr  Zr6  1  0.75000000  0.38315671  0.04851489  1
  Zr  Zr7  1  0.25000000  0.61684329  0.95148511  1
  Zr  Zr8  1  0.25000000  0.58916472  0.56070497  1
  Zr  Zr9  1  0.75000000  0.41083528  0.43929503  1
  Zr  Zr10  1  0.75000000  0.08916472  0.93929503  1
  Zr  Zr11  1  0.25000000  0.91083528  0.06070497  1
  P  P0  1  0.25000000  0.18054017  0.04529645  1
  P  P1  1  0.75000000  0.81945983  0.95470355  1
  P  P2  1  0.75000000  0.68054017  0.45470355  1
  P  P3  1  0.25000000  0.31945983  0.54529645  1
  P  P4  1  0.25000000  0.53737096  0.11418470  1
  P  P5  1  0.75000000  0.46262904  0.88581530  1
  P  P6  1  0.75000000  0.03737096  0.38581530  1
  P  P7  1  0.25000000  0.96262904  0.61418470  1
  P  P8  1  0.25000000  0.38935536  0.32256560  1
  P  P9  1  0.75000000  0.61064464  0.67743440  1
  P  P10  1  0.75000000  0.88935536  0.17743440  1
  P  P11  1  0.25000000  0.11064464  0.82256560  1
  Pd  Pd0  1  0.25000000  0.31119223  0.17614982  1
  Pd  Pd1  1  0.75000000  0.68880777  0.82385018  1
  Pd  Pd2  1  0.75000000  0.81119223  0.32385018  1
  Pd  Pd3  1  0.25000000  0.18880777  0.67614982  1
  Pd  Pd4  1  0.25000000  0.73510542  0.20637093  1
  Pd  Pd5  1  0.75000000  0.26489458  0.79362907  1
  Pd  Pd6  1  0.75000000  0.23510542  0.29362907  1
  Pd  Pd7  1  0.25000000  0.76489458  0.70637093  1
  Pd  Pd8  1  0.25000000  0.61728794  0.37161249  1
  Pd  Pd9  1  0.75000000  0.38271206  0.62838751  1
  Pd  Pd10  1  0.75000000  0.11728794  0.12838751  1
  Pd  Pd11  1  0.25000000  0.88271206  0.87161249  1
  Pd  Pd12  1  0.25000000  0.18282650  0.41898165  1
  Pd  Pd13  1  0.75000000  0.81717350  0.58101835  1
  Pd  Pd14  1  0.75000000  0.68282650  0.08101835  1
  Pd  Pd15  1  0.25000000  0.31717350  0.91898165  1
loop_
_geom_bond_atom_site_label_1
_geom_bond_atom_site_label_2
_geom_bond_distance
_geom_bond_site_symmetry_2
P0 Pd10 2.438866 1_455
P0 Pd10 2.438866 1_555
P0 Pd15 2.490289 1_554
P0 Pd0 2.521309 1_555
P0 Zr11 2.716894 1_545
P0 Zr10 2.749444 1_454
P0 Zr10 2.749444 1_554
P0 Zr6 2.794139 1_555
P0 Zr6 2.794139 1_455
P1 Pd11 2.438866 1_655
P1 Pd11 2.438866 1_555
P1 Pd14 2.490289 1_556
P1 Pd1 2.521309 1_555
P1 Zr10 2.716894 1_565
P1 Zr11 2.749444 1_656
P1 Zr11 2.749444 1_556
P1 Zr7 2.794139 1_655
P1 Zr7 2.794139 1_555
P2 Pd8 2.438866 1_555
P2 Pd8 2.438866 1_655
P2 Pd13 2.490289 1_555
P2 Pd2 2.521309 1_555
P2 Zr9 2.716894 1_555
P2 Zr8 2.749444 1_555
P2 Zr8 2.749444 1_655
P2 Zr4 2.794139 1_555
P2 Zr4 2.794139 1_655
P3 Pd9 2.438866 1_455
P3 Pd9 2.438866 1_555
P3 Pd12 2.490289 1_555
P3 Pd3 2.521309 1_555
P3 Zr8 2.716894 1_555
P3 Zr9 2.749444 1_455
P3 Zr9 2.749444 1_555
P3 Zr5 2.794139 1_455
P3 Zr5 2.794139 1_555
P4 Pd14 2.470036 1_455
P4 Pd14 2.470036 1_555
P4 Pd0 2.487262 1_555
P4 Pd4 2.497185 1_555
P4 Zr6 2.689914 1_555
P4 Zr6 2.689914 1_455
P4 Zr7 2.794368 1_554
P4 Zr2 2.818253 1_455
P4 Zr2 2.818253 1_555
P5 Pd15 2.470036 1_555
P5 Pd15 2.470036 1_655
P5 Pd1 2.487262 1_555
P5 Pd5 2.497185 1_555
P5 Zr7 2.689914 1_655
P5 Zr7 2.689914 1_555
P5 Zr6 2.794368 1_556
P5 Zr3 2.818253 1_655
P5 Zr3 2.818253 1_555
P6 Pd12 2.470036 1_555
P6 Pd12 2.470036 1_655
P6 Pd2 2.487262 1_545
P6 Pd6 2.497185 1_555
P6 Zr4 2.689914 1_545
P6 Zr4 2.689914 1_645
P6 Zr5 2.794368 1_555
P6 Zr0 2.818253 1_655
P6 Zr0 2.818253 1_555
P7 Pd13 2.470036 1_555
P7 Pd13 2.470036 1_455
P7 Pd3 2.487262 1_565
P7 Pd7 2.497185 1_555
P7 Zr5 2.689914 1_465
P7 Zr5 2.689914 1_565
P7 Zr4 2.794368 1_555
P7 Zr1 2.818253 1_555
P7 Zr1 2.818253 1_455
P8 Pd8 2.424455 1_555
P8 Pd6 2.508990 1_455
P8 Pd6 2.508990 1_555
P8 Pd0 2.534508 1_555
P8 Pd12 2.609548 1_555
P8 Zr2 2.715724 1_455
P8 Zr2 2.715724 1_555
P8 Zr9 2.722766 1_555
P8 Zr9 2.722766 1_455
P9 Pd9 2.424455 1_555
P9 Pd7 2.508990 1_555
P9 Pd7 2.508990 1_655
P9 Pd1 2.534508 1_555
P9 Pd13 2.609548 1_555
P9 Zr3 2.715724 1_655
P9 Zr3 2.715724 1_555
P9 Zr8 2.722766 1_555
P9 Zr8 2.722766 1_655
P10 Pd10 2.424455 1_565
P10 Pd4 2.508990 1_555
P10 Pd4 2.508990 1_655
P10 Pd2 2.534508 1_555
P10 Pd14 2.609548 1_555
P10 Zr0 2.715724 1_565
P10 Zr0 2.715724 1_665
P10 Zr11 2.722766 1_555
P10 Zr11 2.722766 1_655
P11 Pd11 2.424455 1_545
P11 Pd5 2.508990 1_555
P11 Pd5 2.508990 1_455
P11 Pd3 2.534508 1_555
P11 Pd15 2.609548 1_555
P11 Zr1 2.715724 1_445
P11 Zr1 2.715724 1_545
P11 Zr10 2.722766 1_455
P11 Zr10 2.722766 1_555
Pd0 Pd6 2.827893 1_455
Pd0 Pd6 2.827893 1_555
Pd0 Pd10 2.841666 1_555
Pd0 Pd10 2.841666 1_455
Pd0 Zr6 2.934304 1_555
Pd0 Zr6 2.934304 1_455
Pd0 Zr2 3.052986 1_455
Pd0 Zr2 3.052986 1_555
Pd0 Zr0 3.197004 1_555
Pd1 Pd7 2.827893 1_555
Pd1 Pd7 2.827893 1_655
Pd1 Pd11 2.841666 1_555
Pd1 Pd11 2.841666 1_655
Pd1 Zr7 2.934304 1_555
Pd1 Zr7 2.934304 1_655
Pd1 Zr3 3.052986 1_655
Pd1 Zr3 3.052986 1_555
Pd1 Zr1 3.197004 1_555
Pd2 Pd4 2.827893 1_555
Pd2 Pd4 2.827893 1_655
Pd2 Pd8 2.841666 1_555
Pd2 Pd8 2.841666 1_655
Pd2 Zr4 2.934304 1_555
Pd2 Zr4 2.934304 1_655
Pd2 Zr0 3.052986 1_665
Pd2 Zr0 3.052986 1_565
Pd2 Zr2 3.197004 1_555
Pd3 Pd5 2.827893 1_455
Pd3 Pd5 2.827893 1_555
Pd3 Pd9 2.841666 1_555
Pd3 Pd9 2.841666 1_455
Pd3 Zr5 2.934304 1_555
Pd3 Zr5 2.934304 1_455
Pd3 Zr1 3.052986 1_445
Pd3 Zr1 3.052986 1_545
Pd3 Zr3 3.197004 1_555
Pd4 Zr2 2.906572 1_555
Pd4 Zr2 2.906572 1_455
Pd4 Pd8 2.965700 1_555
Pd4 Zr11 2.975939 1_555
Pd4 Zr0 3.033034 1_565
Pd5 Zr3 2.906572 1_655
Pd5 Zr3 2.906572 1_555
Pd5 Pd9 2.965700 1_555
Pd5 Zr10 2.975939 1_555
Pd5 Zr1 3.033034 1_545
Pd6 Zr0 2.906572 1_555
Pd6 Zr0 2.906572 1_655
Pd6 Zr9 2.975939 1_555
Pd6 Zr2 3.033034 1_555
Pd7 Zr1 2.906572 1_555
Pd7 Zr1 2.906572 1_455
Pd7 Zr8 2.975939 1_555
Pd7 Zr3 3.033034 1_555
Pd8 Zr4 2.973090 1_555
Pd8 Zr9 3.033743 1_555
Pd8 Zr9 3.033743 1_455
Pd8 Zr2 3.046780 1_555
Pd8 Zr2 3.046780 1_455
Pd8 Zr8 3.125496 1_555
Pd9 Zr5 2.973090 1_555
Pd9 Zr8 3.033743 1_555
Pd9 Zr8 3.033743 1_655
Pd9 Zr3 3.046780 1_655
Pd9 Zr3 3.046780 1_555
Pd9 Zr9 3.125496 1_555
Pd10 Pd6 2.965700 1_555
Pd10 Zr6 2.973090 1_555
Pd10 Zr11 3.033743 1_545
Pd10 Zr11 3.033743 1_645
Pd10 Zr0 3.046780 1_655
Pd10 Zr0 3.046780 1_555
Pd10 Zr10 3.125496 1_554
Pd11 Pd7 2.965700 1_555
Pd11 Zr7 2.973090 1_555
Pd11 Zr10 3.033743 1_465
Pd11 Zr10 3.033743 1_565
Pd11 Zr1 3.046780 1_555
Pd11 Zr1 3.046780 1_455
Pd11 Zr11 3.125496 1_556
Pd12 Pd6 2.864899 1_455
Pd12 Pd6 2.864899 1_555
Pd12 Zr5 2.942691 1_555
Pd12 Zr5 2.942691 1_455
Pd12 Zr9 3.002691 1_455
Pd12 Zr9 3.002691 1_555
Pd12 Zr4 3.052818 1_545
Pd12 Zr0 3.054957 1_555
Pd13 Pd7 2.864899 1_655
Pd13 Pd7 2.864899 1_555
Pd13 Zr4 2.942691 1_655
Pd13 Zr4 2.942691 1_555
Pd13 Zr8 3.002691 1_555
Pd13 Zr8 3.002691 1_655
Pd13 Zr5 3.052818 1_565
Pd13 Zr1 3.054957 1_555
Pd14 Pd4 2.864899 1_555
Pd14 Pd4 2.864899 1_655
Pd14 Zr7 2.942691 1_654
Pd14 Zr7 2.942691 1_554
Pd14 Zr11 3.002691 1_555
Pd14 Zr11 3.002691 1_655
Pd14 Zr6 3.052818 1_555
Pd14 Zr2 3.054957 1_555
Pd15 Pd5 2.864899 1_455
Pd15 Pd5 2.864899 1_555
Pd15 Zr6 2.942691 1_456
Pd15 Zr6 2.942691 1_556
Pd15 Zr10 3.002691 1_555
Pd15 Zr10 3.002691 1_455
Pd15 Zr7 3.052818 1_555
Pd15 Zr3 3.054957 1_555
