# generated using pymatgen
data_Nb2CrSe4
_symmetry_space_group_name_H-M   'P 1'
_cell_length_a   7.21504453
_cell_length_b   7.21504453
_cell_length_c   12.48240500
_cell_angle_alpha   90.00000000
_cell_angle_beta   90.00000000
_cell_angle_gamma   120.00000482
_symmetry_Int_Tables_number   1
_chemical_formula_structural   Nb2CrSe4
_chemical_formula_sum   'Nb8 Cr4 Se16'
_cell_volume   562.73886610
_cell_formula_units_Z   4
loop_
 _symmetry_equiv_pos_site_id
 _symmetry_equiv_pos_as_xyz
  1  'x, y, z'
loop_
 _atom_site_type_symbol
 _atom_site_label
 _atom_site_symmetry_multiplicity
 _atom_site_fract_x
 _atom_site_fract_y
 _atom_site_fract_z
 _atom_site_occupancy
  Nb  Nb0  1  0.47239600  0.52760400  0.75000000  1
  Nb  Nb1  1  0.94479200  0.47239600  0.25000000  1
  Nb  Nb2  1  0.00000000  0.00000000  0.25000000  1
  Nb  Nb3  1  0.47239600  0.94479200  0.75000000  1
  Nb  Nb4  1  0.00000000  0.00000000  0.75000000  1
  Nb  Nb5  1  0.52760400  0.47239600  0.25000000  1
  Nb  Nb6  1  0.05520800  0.52760400  0.75000000  1
  Nb  Nb7  1  0.52760400  0.05520800  0.25000000  1
  Cr  Cr0  1  0.00000000  0.00000000  0.50000000  1
  Cr  Cr1  1  0.00000000  0.00000000  0.00000000  1
  Cr  Cr2  1  0.66666700  0.33333300  0.75000000  1
  Cr  Cr3  1  0.33333300  0.66666700  0.25000000  1
  Se  Se0  1  0.83443900  0.16556100  0.87884700  1
  Se  Se1  1  0.33333300  0.66666700  0.90376200  1
  Se  Se2  1  0.66887800  0.83443900  0.12115300  1
  Se  Se3  1  0.66887800  0.83443900  0.37884700  1
  Se  Se4  1  0.33112200  0.16556100  0.87884700  1
  Se  Se5  1  0.16556100  0.33112200  0.12115300  1
  Se  Se6  1  0.16556100  0.83443900  0.12115300  1
  Se  Se7  1  0.66666700  0.33333300  0.09623800  1
  Se  Se8  1  0.16556100  0.83443900  0.37884700  1
  Se  Se9  1  0.83443900  0.16556100  0.62115300  1
  Se  Se10  1  0.83443900  0.66887800  0.62115300  1
  Se  Se11  1  0.16556100  0.33112200  0.37884700  1
  Se  Se12  1  0.83443900  0.66887800  0.87884700  1
  Se  Se13  1  0.33112200  0.16556100  0.62115300  1
  Se  Se14  1  0.33333300  0.66666700  0.59623800  1
  Se  Se15  1  0.66666700  0.33333300  0.40376200  1
loop_
_geom_bond_atom_site_label_1
_geom_bond_atom_site_label_2
_geom_bond_distance
_geom_bond_site_symmetry_2
Nb0 Se1 2.589188 1_555
Nb0 Se14 2.589188 1_555
Nb0 Se12 2.790422 1_555
Nb0 Se10 2.790422 1_555
Nb0 Se4 2.790422 1_555
Nb0 Se13 2.790422 1_555
Nb1 Se15 2.589184 1_555
Nb1 Se7 2.589184 1_555
Nb1 Se6 2.790422 1_655
Nb1 Se8 2.790422 1_655
Nb1 Se5 2.790423 1_655
Nb1 Se11 2.790423 1_655
Nb2 Se11 2.620572 1_555
Nb2 Se5 2.620572 1_555
Nb2 Se2 2.620572 1_445
Nb2 Se3 2.620572 1_445
Nb2 Se8 2.620573 1_545
Nb2 Se6 2.620573 1_545
Nb3 Se1 2.589184 1_555
Nb3 Se14 2.589184 1_555
Nb3 Se0 2.790422 1_565
Nb3 Se9 2.790422 1_565
Nb3 Se4 2.790423 1_565
Nb3 Se13 2.790423 1_565
Nb4 Se4 2.620572 1_555
Nb4 Se12 2.620572 1_445
Nb4 Se13 2.620572 1_555
Nb4 Se10 2.620572 1_445
Nb4 Se0 2.620573 1_455
Nb4 Se9 2.620573 1_455
Nb5 Se15 2.589188 1_555
Nb5 Se7 2.589188 1_555
Nb5 Se3 2.790422 1_555
Nb5 Se2 2.790422 1_555
Nb5 Se5 2.790422 1_555
Nb5 Se11 2.790422 1_555
Nb6 Se1 2.589184 1_555
Nb6 Se14 2.589184 1_555
Nb6 Se0 2.790422 1_455
Nb6 Se9 2.790422 1_455
Nb6 Se12 2.790423 1_455
Nb6 Se10 2.790423 1_455
Nb7 Se15 2.589184 1_555
Nb7 Se7 2.589184 1_555
Nb7 Se6 2.790422 1_545
Nb7 Se8 2.790422 1_545
Nb7 Se2 2.790423 1_545
Nb7 Se3 2.790423 1_545
Cr0 Se13 2.562752 1_555
Cr0 Se11 2.562752 1_555
Cr0 Se10 2.562752 1_445
Cr0 Se3 2.562752 1_445
Cr0 Se9 2.562752 1_455
Cr0 Se8 2.562752 1_545
Cr1 Se5 2.562752 1_555
Cr1 Se2 2.562752 1_445
Cr1 Se4 2.562752 1_554
Cr1 Se12 2.562752 1_444
Cr1 Se6 2.562752 1_545
Cr1 Se0 2.562752 1_454
Cr2 Nb6 2.427764 1_655
Cr2 Nb3 2.427764 1_545
Cr2 Nb0 2.427770 1_555
Cr2 Se0 2.642442 1_555
Cr2 Se9 2.642442 1_555
Cr2 Se12 2.642447 1_555
Cr2 Se4 2.642447 1_555
Cr2 Se10 2.642447 1_555
Cr2 Se13 2.642447 1_555
Cr3 Nb7 2.427764 1_565
Cr3 Nb1 2.427764 1_455
Cr3 Nb5 2.427770 1_555
Cr3 Se8 2.642442 1_555
Cr3 Se6 2.642442 1_555
Cr3 Se2 2.642447 1_555
Cr3 Se3 2.642447 1_555
Cr3 Se11 2.642447 1_555
Cr3 Se5 2.642447 1_555
