# generated using pymatgen
data_Ba3SnP3
_symmetry_space_group_name_H-M   'P 1'
_cell_length_a   12.86928000
_cell_length_b   8.70391300
_cell_length_c   8.92463189
_cell_angle_alpha   65.73006862
_cell_angle_beta   90.00000000
_cell_angle_gamma   90.00000000
_symmetry_Int_Tables_number   1
_chemical_formula_structural   Ba3SnP3
_chemical_formula_sum   'Ba12 Sn4 P12'
_cell_volume   911.32340689
_cell_formula_units_Z   4
loop_
 _symmetry_equiv_pos_site_id
 _symmetry_equiv_pos_as_xyz
  1  'x, y, z'
loop_
 _atom_site_type_symbol
 _atom_site_label
 _atom_site_symmetry_multiplicity
 _atom_site_fract_x
 _atom_site_fract_y
 _atom_site_fract_z
 _atom_site_occupancy
  Ba  Ba0  1  0.93062900  0.79894000  0.73051800  1
  Ba  Ba1  1  0.43062900  0.70106000  0.26948200  1
  Ba  Ba2  1  0.06937100  0.20106000  0.26948200  1
  Ba  Ba3  1  0.56937100  0.29894000  0.73051800  1
  Ba  Ba4  1  0.79371200  0.32200300  0.05761800  1
  Ba  Ba5  1  0.29371200  0.17799700  0.94238200  1
  Ba  Ba6  1  0.20628800  0.67799700  0.94238200  1
  Ba  Ba7  1  0.70628800  0.82200300  0.05761800  1
  Ba  Ba8  1  0.33442000  0.99195000  0.50171300  1
  Ba  Ba9  1  0.83442000  0.50805000  0.49828700  1
  Ba  Ba10  1  0.66558000  0.00805000  0.49828700  1
  Ba  Ba11  1  0.16558000  0.49195000  0.50171300  1
  Sn  Sn0  1  0.00625000  0.86139900  0.16563800  1
  Sn  Sn1  1  0.50625000  0.63860100  0.83436200  1
  Sn  Sn2  1  0.99375000  0.13860100  0.83436200  1
  Sn  Sn3  1  0.49375000  0.36139900  0.16563800  1
  P  P0  1  0.80298000  0.12457200  0.75577700  1
  P  P1  1  0.30298000  0.37542800  0.24422300  1
  P  P2  1  0.19702000  0.87542800  0.24422300  1
  P  P3  1  0.69702000  0.62457200  0.75577700  1
  P  P4  1  0.03085700  0.41938500  0.84154100  1
  P  P5  1  0.53085700  0.08061500  0.15845900  1
  P  P6  1  0.96914300  0.58061500  0.15845900  1
  P  P7  1  0.46914300  0.91938500  0.84154100  1
  P  P8  1  0.63228800  0.43348100  0.33289200  1
  P  P9  1  0.13228800  0.06651900  0.66710800  1
  P  P10  1  0.36771200  0.56651900  0.66710800  1
  P  P11  1  0.86771200  0.93348100  0.33289200  1
loop_
_geom_bond_atom_site_label_1
_geom_bond_atom_site_label_2
_geom_bond_distance
_geom_bond_site_symmetry_2
Ba0 P4 3.296732 1_655
Ba0 P3 3.333354 1_555
Ba0 P11 3.347200 1_555
Ba0 P0 3.362706 1_565
Ba0 P9 3.375801 1_665
Ba0 P6 3.532264 1_556
Ba0 Sn2 3.537136 1_565
Ba1 P5 3.296732 1_565
Ba1 P2 3.333354 1_555
Ba1 P10 3.347200 1_555
Ba1 P1 3.362706 1_555
Ba1 P8 3.375801 1_555
Ba1 P7 3.532264 1_554
Ba1 Sn3 3.537136 1_555
Ba2 P6 3.296732 1_455
Ba2 P1 3.333354 1_555
Ba2 P9 3.347200 1_555
Ba2 P2 3.362706 1_545
Ba2 P11 3.375801 1_445
Ba2 P4 3.532264 1_554
Ba2 Sn0 3.537136 1_545
Ba3 P7 3.296732 1_545
Ba3 P0 3.333354 1_555
Ba3 P8 3.347200 1_555
Ba3 P3 3.362706 1_555
Ba3 P10 3.375801 1_555
Ba3 P5 3.532264 1_556
Ba3 Sn1 3.537136 1_555
Ba4 P3 3.147792 1_554
Ba4 P11 3.398298 1_545
Ba4 P4 3.522427 1_654
Ba4 P6 3.555146 1_555
Ba4 P8 3.640355 1_555
Ba4 P0 3.745576 1_554
Ba4 P5 3.887524 1_555
Ba5 P2 3.147792 1_546
Ba5 P10 3.398298 1_555
Ba5 P5 3.522427 1_556
Ba5 P7 3.555146 1_545
Ba5 P9 3.640355 1_555
Ba5 P1 3.745576 1_556
Ba5 P4 3.887524 1_555
Ba6 P1 3.147792 1_556
Ba6 P9 3.398298 1_565
Ba6 P6 3.522427 1_456
Ba6 P4 3.555146 1_555
Ba6 P10 3.640355 1_555
Ba6 P2 3.745576 1_556
Ba6 P7 3.887524 1_555
Ba7 P0 3.147792 1_564
Ba7 P8 3.398298 1_555
Ba7 P7 3.522427 1_554
Ba7 P5 3.555146 1_565
Ba7 P11 3.640355 1_555
Ba7 P3 3.745576 1_554
Ba7 P6 3.887524 1_555
Ba8 P9 3.186598 1_565
Ba8 P1 3.206201 1_565
Ba8 P7 3.320895 1_555
Ba8 P2 3.369277 1_555
Ba8 P10 3.403039 1_555
Ba8 P5 3.798341 1_565
Ba9 P8 3.186598 1_555
Ba9 P0 3.206201 1_555
Ba9 P6 3.320895 1_555
Ba9 P3 3.369277 1_555
Ba9 P11 3.403039 1_555
Ba9 P4 3.798341 1_655
Ba10 P11 3.186598 1_545
Ba10 P3 3.206201 1_545
Ba10 P5 3.320895 1_555
Ba10 P0 3.369277 1_555
Ba10 P8 3.403039 1_555
Ba10 P7 3.798341 1_545
Ba11 P10 3.186598 1_555
Ba11 P2 3.206201 1_555
Ba11 P4 3.320895 1_555
Ba11 P1 3.369277 1_555
Ba11 P9 3.403039 1_555
Ba11 P6 3.798341 1_455
P0 Sn2 2.569937 1_555
P1 Sn3 2.569937 1_555
P2 Sn0 2.569937 1_555
P3 Sn1 2.569937 1_555
P4 Sn2 2.516667 1_455
P5 Sn3 2.516667 1_555
P6 Sn0 2.516667 1_655
P7 Sn1 2.516667 1_555
P8 Sn3 2.563253 1_555
P9 Sn2 2.563253 1_455
P10 Sn1 2.563253 1_555
P11 Sn0 2.563253 1_655
