# generated using pymatgen
data_RbCrCl3
_symmetry_space_group_name_H-M   'P 1'
_cell_length_a   6.31259966
_cell_length_b   7.10133200
_cell_length_c   7.13548588
_cell_angle_alpha   60.15820964
_cell_angle_beta   88.02101880
_cell_angle_gamma   90.00000000
_symmetry_Int_Tables_number   1
_chemical_formula_structural   RbCrCl3
_chemical_formula_sum   'Rb2 Cr2 Cl6'
_cell_volume   277.23493635
_cell_formula_units_Z   2
loop_
 _symmetry_equiv_pos_site_id
 _symmetry_equiv_pos_as_xyz
  1  'x, y, z'
loop_
 _atom_site_type_symbol
 _atom_site_label
 _atom_site_symmetry_multiplicity
 _atom_site_fract_x
 _atom_site_fract_y
 _atom_site_fract_z
 _atom_site_occupancy
  Rb  Rb0  1  0.75480600  0.33417900  0.33164200  1
  Rb  Rb1  1  0.24519400  0.66582100  0.66835800  1
  Cr  Cr0  1  0.50000000  0.00000000  0.00000000  1
  Cr  Cr1  1  0.00000000  0.00000000  0.00000000  1
  Cl  Cl0  1  0.21984800  0.68230500  0.16010900  1
  Cl  Cl1  1  0.21984800  0.15758600  0.16010900  1
  Cl  Cl2  1  0.30954500  0.16321200  0.67357600  1
  Cl  Cl3  1  0.78015200  0.31769500  0.83989100  1
  Cl  Cl4  1  0.78015200  0.84241400  0.83989100  1
  Cl  Cl5  1  0.69045500  0.83678800  0.32642400  1
loop_
_geom_bond_atom_site_label_1
_geom_bond_atom_site_label_2
_geom_bond_distance
_geom_bond_site_symmetry_2
Cl0 Cr1 2.421863 1_565
Cl0 Cr0 2.611111 1_565
Cl0 Rb1 3.566730 1_554
Cl0 Rb1 3.578986 1_555
Cl0 Rb0 3.601115 1_455
Cl1 Cr1 2.421863 1_555
Cl1 Cr0 2.611111 1_555
Cl1 Rb1 3.566730 1_554
Cl1 Rb1 3.578986 1_545
Cl1 Rb0 3.601115 1_455
Cl2 Cr0 2.391790 1_556
Cl2 Cr1 2.754218 1_556
Cl2 Rb0 3.450452 1_555
Cl2 Rb1 3.574120 1_545
Cl2 Rb1 3.574120 1_555
Cl3 Cr1 2.421863 1_656
Cl3 Cr0 2.611111 1_556
Cl3 Rb0 3.566730 1_556
Cl3 Rb0 3.578986 1_555
Cl3 Rb1 3.601115 1_655
Cl4 Cr1 2.421863 1_666
Cl4 Cr0 2.611111 1_566
Cl4 Rb0 3.566730 1_556
Cl4 Rb0 3.578986 1_565
Cl4 Rb1 3.601115 1_655
Cl5 Cr0 2.391790 1_565
Cl5 Cr1 2.754218 1_665
Cl5 Rb1 3.450452 1_555
Cl5 Rb0 3.574120 1_565
Cl5 Rb0 3.574120 1_555
