# generated using pymatgen
data_BaNaZrF7
_symmetry_space_group_name_H-M   'P 1'
_cell_length_a   5.62076600
_cell_length_b   9.26578800
_cell_length_c   11.41228700
_cell_angle_alpha   90.00000000
_cell_angle_beta   90.00000000
_cell_angle_gamma   90.00000000
_symmetry_Int_Tables_number   1
_chemical_formula_structural   BaNaZrF7
_chemical_formula_sum   'Ba4 Na4 Zr4 F28'
_cell_volume   594.36133526
_cell_formula_units_Z   4
loop_
 _symmetry_equiv_pos_site_id
 _symmetry_equiv_pos_as_xyz
  1  'x, y, z'
loop_
 _atom_site_type_symbol
 _atom_site_label
 _atom_site_symmetry_multiplicity
 _atom_site_fract_x
 _atom_site_fract_y
 _atom_site_fract_z
 _atom_site_occupancy
  Ba  Ba0  1  0.25000000  0.03051200  0.82780200  1
  Ba  Ba1  1  0.75000000  0.96948800  0.17219800  1
  Ba  Ba2  1  0.25000000  0.53051200  0.67219800  1
  Ba  Ba3  1  0.75000000  0.46948800  0.32780200  1
  Na  Na0  1  0.25000000  0.13452700  0.44527000  1
  Na  Na1  1  0.75000000  0.86547300  0.55473000  1
  Na  Na2  1  0.75000000  0.36547300  0.94527000  1
  Na  Na3  1  0.25000000  0.63452700  0.05473000  1
  Zr  Zr0  1  0.25000000  0.75119900  0.36033200  1
  Zr  Zr1  1  0.25000000  0.25119900  0.13966800  1
  Zr  Zr2  1  0.75000000  0.24880100  0.63966800  1
  Zr  Zr3  1  0.75000000  0.74880100  0.86033200  1
  F  F0  1  0.50364000  0.77790400  0.72533900  1
  F  F1  1  0.98149800  0.07543300  0.61349600  1
  F  F2  1  0.98149800  0.57543300  0.88650400  1
  F  F3  1  0.50990000  0.82758700  0.98455700  1
  F  F4  1  0.49636000  0.72209600  0.22533900  1
  F  F5  1  0.00364000  0.72209600  0.22533900  1
  F  F6  1  0.48149800  0.92456700  0.38650400  1
  F  F7  1  0.49010000  0.67241300  0.48455700  1
  F  F8  1  0.99636000  0.77790400  0.72533900  1
  F  F9  1  0.99636000  0.27790400  0.77466100  1
  F  F10  1  0.99010000  0.82758700  0.98455700  1
  F  F11  1  0.75000000  0.97724900  0.83211200  1
  F  F12  1  0.99010000  0.32758700  0.51544300  1
  F  F13  1  0.49010000  0.17241300  0.01544300  1
  F  F14  1  0.00364000  0.22209600  0.27466100  1
  F  F15  1  0.50990000  0.32758700  0.51544300  1
  F  F16  1  0.51850200  0.57543300  0.88650400  1
  F  F17  1  0.75000000  0.47724900  0.66788800  1
  F  F18  1  0.01850200  0.92456700  0.38650400  1
  F  F19  1  0.25000000  0.52275100  0.33211200  1
  F  F20  1  0.01850200  0.42456700  0.11349600  1
  F  F21  1  0.48149800  0.42456700  0.11349600  1
  F  F22  1  0.50364000  0.27790400  0.77466100  1
  F  F23  1  0.00990000  0.17241300  0.01544300  1
  F  F24  1  0.00990000  0.67241300  0.48455700  1
  F  F25  1  0.51850200  0.07543300  0.61349600  1
  F  F26  1  0.25000000  0.02275100  0.16788800  1
  F  F27  1  0.49636000  0.22209600  0.27466100  1
loop_
_geom_bond_atom_site_label_1
_geom_bond_atom_site_label_2
_geom_bond_distance
_geom_bond_site_symmetry_2
Ba0 F9 2.766737 1_455
Ba0 F22 2.766737 1_555
Ba0 F13 2.852313 1_556
Ba0 F23 2.852313 1_556
Ba0 F11 2.853811 1_445
Ba0 F11 2.853811 1_545
Ba0 F25 2.903867 1_555
Ba0 F1 2.903867 1_455
Ba0 F10 2.978205 1_445
Ba0 F3 2.978205 1_545
Ba0 F0 2.979647 1_545
Ba0 F8 2.979647 1_445
Ba1 F4 2.766737 1_555
Ba1 F5 2.766737 1_655
Ba1 F10 2.852313 1_554
Ba1 F3 2.852313 1_554
Ba1 F26 2.853811 1_565
Ba1 F26 2.853811 1_665
Ba1 F18 2.903867 1_655
Ba1 F6 2.903867 1_555
Ba1 F13 2.978205 1_565
Ba1 F23 2.978205 1_665
Ba1 F27 2.979647 1_565
Ba1 F14 2.979647 1_665
Ba2 F8 2.766737 1_455
Ba2 F0 2.766737 1_555
Ba2 F24 2.852313 1_555
Ba2 F7 2.852313 1_555
Ba2 F17 2.853811 1_455
Ba2 F17 2.853811 1_555
Ba2 F16 2.903867 1_555
Ba2 F2 2.903867 1_455
Ba2 F12 2.978205 1_455
Ba2 F15 2.978205 1_555
Ba2 F9 2.979647 1_455
Ba2 F22 2.979647 1_555
Ba3 F27 2.766737 1_555
Ba3 F14 2.766737 1_655
Ba3 F12 2.852313 1_555
Ba3 F15 2.852313 1_555
Ba3 F19 2.853811 1_655
Ba3 F19 2.853811 1_555
Ba3 F20 2.903867 1_655
Ba3 F21 2.903867 1_555
Ba3 F24 2.978205 1_655
Ba3 F7 2.978205 1_555
Ba3 F4 2.979647 1_555
Ba3 F5 2.979647 1_655
F0 Zr3 2.088919 1_555
F0 Na1 2.523253 1_555
F1 Zr2 2.088735 1_555
F1 Na1 2.434675 1_545
F1 Na0 2.502650 1_655
F2 Zr3 2.088735 1_555
F2 Na2 2.434675 1_555
F2 Na3 2.502650 1_656
F3 Zr3 2.089029 1_555
F3 Na3 2.444458 1_556
F4 Zr0 2.088919 1_555
F4 Na3 2.523253 1_555
F5 Zr0 2.088919 1_555
F5 Na3 2.523253 1_555
F6 Zr0 2.088735 1_555
F6 Na0 2.434675 1_565
F6 Na1 2.502650 1_555
F7 Zr0 2.089029 1_555
F7 Na1 2.444458 1_555
F8 Zr3 2.088919 1_555
F8 Na1 2.523253 1_555
F9 Zr2 2.088919 1_555
F9 Na2 2.523253 1_555
F10 Zr3 2.089029 1_555
F10 Na3 2.444458 1_656
F11 Zr3 2.141110 1_555
F12 Zr2 2.089029 1_555
F12 Na0 2.444458 1_655
F13 Zr1 2.089029 1_555
F13 Na2 2.444458 1_554
F14 Zr1 2.088919 1_555
F14 Na0 2.523253 1_555
F15 Zr2 2.089029 1_555
F15 Na0 2.444458 1_555
F16 Zr3 2.088735 1_555
F16 Na2 2.434675 1_555
F16 Na3 2.502650 1_556
F17 Zr2 2.141110 1_555
F18 Zr0 2.088735 1_555
F18 Na0 2.434675 1_565
F18 Na1 2.502650 1_455
F19 Zr0 2.141110 1_555
F20 Zr1 2.088735 1_555
F20 Na3 2.434675 1_555
F20 Na2 2.502650 1_454
F21 Zr1 2.088735 1_555
F21 Na3 2.434675 1_555
F21 Na2 2.502650 1_554
F22 Zr2 2.088919 1_555
F22 Na2 2.523253 1_555
F23 Zr1 2.089029 1_555
F23 Na2 2.444458 1_454
F24 Zr0 2.089029 1_555
F24 Na1 2.444458 1_455
F25 Zr2 2.088735 1_555
F25 Na1 2.434675 1_545
F25 Na0 2.502650 1_555
F26 Zr1 2.141110 1_555
F27 Zr1 2.088919 1_555
F27 Na0 2.523253 1_555
