# generated using pymatgen
data_CsPr(MoO4)2
_symmetry_space_group_name_H-M   'P 1'
_cell_length_a   5.18621500
_cell_length_b   8.49194200
_cell_length_c   9.79531200
_cell_angle_alpha   90.00000000
_cell_angle_beta   90.00000000
_cell_angle_gamma   90.00000000
_symmetry_Int_Tables_number   1
_chemical_formula_structural   CsPr(MoO4)2
_chemical_formula_sum   'Cs2 Pr2 Mo4 O16'
_cell_volume   431.39569802
_cell_formula_units_Z   2
loop_
 _symmetry_equiv_pos_site_id
 _symmetry_equiv_pos_as_xyz
  1  'x, y, z'
loop_
 _atom_site_type_symbol
 _atom_site_label
 _atom_site_symmetry_multiplicity
 _atom_site_fract_x
 _atom_site_fract_y
 _atom_site_fract_z
 _atom_site_occupancy
  Cs  Cs0  1  0.00000000  0.75000000  0.50000000  1
  Cs  Cs1  1  0.00000000  0.25000000  0.50000000  1
  Pr  Pr0  1  0.00000000  0.25000000  0.00000000  1
  Pr  Pr1  1  0.00000000  0.75000000  0.00000000  1
  Mo  Mo0  1  0.51926000  0.00000000  0.19993900  1
  Mo  Mo1  1  0.51926000  0.50000000  0.80006100  1
  Mo  Mo2  1  0.48074000  0.00000000  0.80006100  1
  Mo  Mo3  1  0.48074000  0.50000000  0.19993900  1
  O  O0  1  0.25416000  0.50000000  0.92829900  1
  O  O1  1  0.26804500  0.83163300  0.81007900  1
  O  O2  1  0.73195500  0.66836700  0.81007900  1
  O  O3  1  0.73195500  0.83163300  0.18992100  1
  O  O4  1  0.37829500  0.50000000  0.63753000  1
  O  O5  1  0.62170500  0.50000000  0.36247000  1
  O  O6  1  0.62170500  0.00000000  0.63753000  1
  O  O7  1  0.73195500  0.16836700  0.18992100  1
  O  O8  1  0.37829500  0.00000000  0.36247000  1
  O  O9  1  0.26804500  0.16836700  0.81007900  1
  O  O10  1  0.26804500  0.33163300  0.18992100  1
  O  O11  1  0.73195500  0.33163300  0.81007900  1
  O  O12  1  0.74584000  0.50000000  0.07170100  1
  O  O13  1  0.26804500  0.66836700  0.18992100  1
  O  O14  1  0.25416000  0.00000000  0.07170100  1
  O  O15  1  0.74584000  0.00000000  0.92829900  1
loop_
_geom_bond_atom_site_label_1
_geom_bond_atom_site_label_2
_geom_bond_distance
_geom_bond_site_symmetry_2
Cs0 O8 3.189201 1_565
Cs0 O5 3.189201 1_455
Cs0 O4 3.189201 1_555
Cs0 O6 3.189201 1_465
Cs0 O13 3.411504 1_555
Cs0 O1 3.411504 1_555
Cs0 O2 3.411504 1_455
Cs0 O3 3.411504 1_455
Cs1 O5 3.189201 1_455
Cs1 O8 3.189201 1_555
Cs1 O4 3.189201 1_555
Cs1 O6 3.189201 1_455
Cs1 O11 3.411504 1_455
Cs1 O10 3.411504 1_555
Cs1 O9 3.411504 1_555
Cs1 O7 3.411504 1_455
Mo0 O8 1.751875 1_555
Mo0 O7 1.808491 1_555
Mo0 O3 1.808491 1_545
Mo0 O14 1.862289 1_555
Mo1 O4 1.751875 1_555
Mo1 O11 1.808491 1_555
Mo1 O2 1.808491 1_555
Mo1 O0 1.862289 1_555
Mo2 O6 1.751875 1_555
Mo2 O9 1.808491 1_555
Mo2 O1 1.808491 1_545
Mo2 O15 1.862289 1_555
Mo3 O5 1.751875 1_555
Mo3 O10 1.808491 1_555
Mo3 O13 1.808491 1_555
Mo3 O12 1.862289 1_555
O0 Pr0 2.595728 1_556
O0 Pr1 2.595728 1_556
O1 Pr1 2.423611 1_556
O2 Pr1 2.423611 1_656
O3 Pr1 2.423611 1_655
O7 Pr0 2.423611 1_655
O9 Pr0 2.423611 1_556
O10 Pr0 2.423611 1_555
O11 Pr0 2.423611 1_656
O12 Pr0 2.595728 1_655
O12 Pr1 2.595728 1_655
O13 Pr1 2.423611 1_555
O14 Pr0 2.595728 1_555
O14 Pr1 2.595728 1_545
O15 Pr0 2.595728 1_656
O15 Pr1 2.595728 1_646
