# generated using pymatgen
data_LiZnPO4
_symmetry_space_group_name_H-M   'P 1'
_cell_length_a   10.05474518
_cell_length_b   10.05474518
_cell_length_c   16.41402029
_cell_angle_alpha   82.31185714
_cell_angle_beta   82.31185714
_cell_angle_gamma   58.90120848
_symmetry_Int_Tables_number   1
_chemical_formula_structural   LiZnPO4
_chemical_formula_sum   'Li16 Zn16 P16 O64'
_cell_volume   1404.05793914
_cell_formula_units_Z   16
loop_
 _symmetry_equiv_pos_site_id
 _symmetry_equiv_pos_as_xyz
  1  'x, y, z'
loop_
 _atom_site_type_symbol
 _atom_site_label
 _atom_site_symmetry_multiplicity
 _atom_site_fract_x
 _atom_site_fract_y
 _atom_site_fract_z
 _atom_site_occupancy
  Li  Li0  1  0.68681200  0.85979300  0.49866500  1
  Li  Li1  1  0.18721400  0.80043300  0.49721300  1
  Li  Li2  1  0.24034000  0.91917100  0.74689200  1
  Li  Li3  1  0.79619200  0.43116600  0.74757800  1
  Li  Li4  1  0.18869300  0.29840200  0.49657200  1
  Li  Li5  1  0.29840200  0.18869300  0.99657200  1
  Li  Li6  1  0.29806000  0.42329100  0.74725800  1
  Li  Li7  1  0.42329100  0.29806000  0.24725800  1
  Li  Li8  1  0.43116600  0.79619200  0.24757800  1
  Li  Li9  1  0.80043300  0.18721400  0.99721300  1
  Li  Li10  1  0.85979300  0.68681200  0.99866500  1
  Li  Li11  1  0.92572300  0.74005400  0.24848900  1
  Li  Li12  1  0.91917100  0.24034000  0.24689200  1
  Li  Li13  1  0.36061600  0.68733400  0.99743900  1
  Li  Li14  1  0.68733400  0.36061600  0.49743900  1
  Li  Li15  1  0.74005400  0.92572300  0.74848900  1
  Zn  Zn0  1  0.23255700  0.05424900  0.37080700  1
  Zn  Zn1  1  0.99572400  0.67450400  0.62223100  1
  Zn  Zn2  1  0.61936600  0.49473100  0.12142200  1
  Zn  Zn3  1  0.48869500  0.12042300  0.62133700  1
  Zn  Zn4  1  0.61799900  0.72942800  0.87274700  1
  Zn  Zn5  1  0.72942800  0.61799900  0.37274700  1
  Zn  Zn6  1  0.12042300  0.48869500  0.12133700  1
  Zn  Zn7  1  0.49473100  0.61936600  0.62142200  1
  Zn  Zn8  1  0.17395300  0.99101300  0.12086100  1
  Zn  Zn9  1  0.05424900  0.23255700  0.87080700  1
  Zn  Zn10  1  0.23072700  0.55449100  0.37257900  1
  Zn  Zn11  1  0.11550000  0.73300700  0.87189400  1
  Zn  Zn12  1  0.55449100  0.23072700  0.87257900  1
  Zn  Zn13  1  0.73300700  0.11550000  0.37189400  1
  Zn  Zn14  1  0.99101300  0.17395300  0.62086100  1
  Zn  Zn15  1  0.67450400  0.99572400  0.12223100  1
  P  P0  1  0.95642800  0.58318300  0.81107400  1
  P  P1  1  0.08187200  0.39793600  0.30914100  1
  P  P2  1  0.51811600  0.83468600  0.06017300  1
  P  P3  1  0.89840500  0.08534900  0.80906500  1
  P  P4  1  0.45506700  0.58160400  0.81079600  1
  P  P5  1  0.58160400  0.45506700  0.31079600  1
  P  P6  1  0.01743500  0.83151900  0.06017900  1
  P  P7  1  0.96121800  0.33337600  0.05821800  1
  P  P8  1  0.46294200  0.33479500  0.05871900  1
  P  P9  1  0.33337600  0.96121800  0.55821800  1
  P  P10  1  0.39793600  0.08187200  0.80914100  1
  P  P11  1  0.83468600  0.51811600  0.56017300  1
  P  P12  1  0.33479500  0.46294200  0.55871900  1
  P  P13  1  0.83151900  0.01743500  0.56017900  1
  P  P14  1  0.58318300  0.95642800  0.31107400  1
  P  P15  1  0.08534900  0.89840500  0.30906500  1
  O  O0  1  0.86091800  0.65900500  0.54846700  1
  O  O1  1  0.99374900  0.36615100  0.57288600  1
  O  O2  1  0.99255200  0.86868500  0.57385900  1
  O  O3  1  0.55783000  0.11732300  0.32654600  1
  O  O4  1  0.15591800  0.40351400  0.38534900  1
  O  O5  1  0.58099800  0.25763000  0.98433900  1
  O  O6  1  0.19301200  0.39168200  0.23192800  1
  O  O7  1  0.21407900  0.02353200  0.63454300  1
  O  O8  1  0.52984600  0.71989400  0.13670800  1
  O  O9  1  0.06785400  0.75222000  0.32042700  1
  O  O10  1  0.25763000  0.58099800  0.48433900  1
  O  O11  1  0.33695600  0.66069300  0.88496500  1
  O  O12  1  0.89137500  0.20159300  0.73465300  1
  O  O13  1  0.40351400  0.15591800  0.88534900  1
  O  O14  1  0.47196700  0.42319600  0.79796200  1
  O  O15  1  0.75222000  0.06785400  0.82042700  1
  O  O16  1  0.25257200  0.06308800  0.82116300  1
  O  O17  1  0.49130300  0.44869400  0.57350500  1
  O  O18  1  0.79755800  0.36691800  0.04204700  1
  O  O19  1  0.36615100  0.99374900  0.07288600  1
  O  O20  1  0.75984600  0.51390900  0.48414600  1
  O  O21  1  0.88956700  0.69986800  0.73451600  1
  O  O22  1  0.30037700  0.36539400  0.04240000  1
  O  O23  1  0.61533300  0.55760300  0.82658200  1
  O  O24  1  0.06308800  0.25257200  0.32116300  1
  O  O25  1  0.92287200  0.04502000  0.29497200  1
  O  O26  1  0.90707500  0.15289000  0.88709800  1
  O  O27  1  0.36539400  0.30037700  0.54240000  1
  O  O28  1  0.54702800  0.92033100  0.79696800  1
  O  O29  1  0.97369600  0.42557500  0.79573100  1
  O  O30  1  0.65601100  0.83929700  0.38666700  1
  O  O31  1  0.39168200  0.19301200  0.73192800  1
  O  O32  1  0.42557500  0.97369600  0.29573100  1
  O  O33  1  0.69156200  0.39081800  0.23161600  1
  O  O34  1  0.07881300  0.25982500  0.98311500  1
  O  O35  1  0.39081800  0.69156200  0.73161600  1
  O  O36  1  0.85351100  0.16099500  0.54925900  1
  O  O37  1  0.42319600  0.47196700  0.29796200  1
  O  O38  1  0.36691800  0.79755800  0.54204700  1
  O  O39  1  0.52528900  0.21985400  0.13665000  1
  O  O40  1  0.44869400  0.49130300  0.07350500  1
  O  O41  1  0.02353200  0.21407900  0.13454300  1
  O  O42  1  0.20159300  0.89137500  0.23465300  1
  O  O43  1  0.04502000  0.92287200  0.79497200  1
  O  O44  1  0.71490200  0.02657600  0.63510700  1
  O  O45  1  0.66069300  0.33695600  0.38496500  1
  O  O46  1  0.69986800  0.88956700  0.23451600  1
  O  O47  1  0.83929700  0.65601100  0.88666700  1
  O  O48  1  0.71989400  0.52984600  0.63670800  1
  O  O49  1  0.11732300  0.55783000  0.82654600  1
  O  O50  1  0.21985400  0.52528900  0.63665000  1
  O  O51  1  0.86868500  0.99255200  0.07385900  1
  O  O52  1  0.48852900  0.94804000  0.57484000  1
  O  O53  1  0.16099500  0.85351100  0.04925900  1
  O  O54  1  0.65900500  0.86091800  0.04846700  1
  O  O55  1  0.15289000  0.90707500  0.38709800  1
  O  O56  1  0.55760300  0.61533300  0.32658200  1
  O  O57  1  0.92033100  0.54702800  0.29696800  1
  O  O58  1  0.25982500  0.07881300  0.48311500  1
  O  O59  1  0.02657600  0.71490200  0.13510700  1
  O  O60  1  0.01058500  0.76171400  0.98283300  1
  O  O61  1  0.76171400  0.01058500  0.48283300  1
  O  O62  1  0.51390900  0.75984600  0.98414600  1
  O  O63  1  0.94804000  0.48852900  0.07484000  1
loop_
_geom_bond_atom_site_label_1
_geom_bond_atom_site_label_2
_geom_bond_distance
_geom_bond_site_symmetry_2
Li0 O30 1.958952 1_555
Li0 O61 1.988794 1_565
Li0 O0 2.024600 1_555
Li0 O52 2.031715 1_555
Li1 O55 1.949801 1_555
Li1 O10 1.971029 1_555
Li1 O2 2.017230 1_455
Li1 O38 2.025667 1_555
Li2 O7 1.974288 1_565
Li2 O43 1.999687 1_555
Li2 O35 2.016085 1_555
Li2 O16 2.071525 1_565
Li3 O48 1.997212 1_555
Li3 O23 2.006654 1_555
Li3 O29 2.018695 1_555
Li3 O12 2.020835 1_555
Li4 O4 1.960457 1_555
Li4 O58 1.972846 1_555
Li4 O1 2.016722 1_455
Li4 O27 2.029992 1_555
Li5 O13 1.960457 1_555
Li5 O34 1.972846 1_555
Li5 O19 2.016722 1_546
Li5 O22 2.029992 1_556
Li6 O50 2.004232 1_555
Li6 O49 2.030977 1_555
Li6 O14 2.034124 1_555
Li6 O31 2.037508 1_555
Li7 O39 2.004232 1_555
Li7 O3 2.030977 1_555
Li7 O37 2.034124 1_555
Li7 O6 2.037508 1_555
Li8 O8 1.997212 1_555
Li8 O56 2.006654 1_555
Li8 O32 2.018695 1_555
Li8 O42 2.020835 1_555
Li9 O26 1.949801 1_555
Li9 O5 1.971029 1_555
Li9 O51 2.017230 1_546
Li9 O18 2.025667 1_556
Li10 O47 1.958952 1_555
Li10 O60 1.988794 1_655
Li10 O54 2.024600 1_556
Li10 O63 2.031715 1_556
Li11 O59 1.977838 1_655
Li11 O46 1.997512 1_555
Li11 O57 2.021603 1_555
Li11 O9 2.030338 1_655
Li12 O41 1.974288 1_655
Li12 O25 1.999687 1_555
Li12 O33 2.016085 1_555
Li12 O24 2.071525 1_655
Li13 O11 1.962722 1_555
Li13 O62 1.995792 1_555
Li13 O53 2.000729 1_556
Li13 O40 2.015527 1_556
Li14 O45 1.962722 1_555
Li14 O20 1.995792 1_555
Li14 O36 2.000729 1_555
Li14 O17 2.015527 1_555
Li15 O44 1.977838 1_565
Li15 O21 1.997512 1_555
Li15 O28 2.021603 1_555
Li15 O15 2.030338 1_565
O0 P11 1.553332 1_555
O0 Zn1 2.008792 1_555
O1 P11 1.554234 1_555
O1 Zn14 1.999343 1_555
O2 P13 1.553953 1_565
O2 Zn1 1.992766 1_555
O3 P14 1.553450 1_545
O3 Zn13 1.992626 1_555
O4 P1 1.559882 1_555
O4 Zn10 1.991579 1_555
O5 P8 1.554295 1_556
O5 Zn12 1.961480 1_555
O6 P1 1.558447 1_555
O6 Zn6 1.981051 1_555
O7 P9 1.559631 1_545
O7 Zn14 1.976872 1_455
O8 P2 1.560550 1_555
O8 Zn2 1.996270 1_555
O9 P15 1.552794 1_555
O9 Zn10 1.980813 1_555
O10 P12 1.554295 1_555
O10 Zn10 1.961480 1_555
O11 P4 1.556092 1_555
O11 Zn11 1.986558 1_555
O12 P3 1.555219 1_555
O12 Zn14 1.979931 1_555
O13 P10 1.559882 1_555
O13 Zn12 1.991579 1_555
O14 P4 1.552649 1_555
O14 Zn12 1.978024 1_555
O15 P3 1.552794 1_555
O15 Zn12 1.980813 1_555
O16 P10 1.552065 1_555
O16 Zn9 1.992620 1_555
O17 P12 1.554282 1_555
O17 Zn7 1.998536 1_555
O18 P7 1.552955 1_555
O18 Zn2 2.000984 1_555
O19 P2 1.554234 1_555
O19 Zn8 1.999343 1_555
O20 P11 1.556784 1_555
O20 Zn5 1.959405 1_555
O21 P0 1.557022 1_555
O21 Zn1 1.979740 1_555
O22 P8 1.553625 1_555
O22 Zn6 1.993713 1_555
O23 P4 1.554143 1_555
O23 Zn4 1.990793 1_555
O24 P1 1.552065 1_555
O24 Zn0 1.992620 1_555
O25 P15 1.554857 1_645
O25 Zn13 1.984374 1_555
O26 P3 1.559836 1_555
O26 Zn9 1.991051 1_655
O27 P12 1.553625 1_555
O27 Zn3 1.993713 1_555
O28 P10 1.554589 1_565
O28 Zn4 1.981025 1_555
O29 P0 1.554258 1_555
O29 Zn9 1.986053 1_655
O30 P14 1.556925 1_555
O30 Zn5 1.985518 1_555
O31 P10 1.558447 1_555
O31 Zn3 1.981051 1_555
O32 P14 1.554258 1_555
O32 Zn0 1.986053 1_565
O33 P5 1.559218 1_555
O33 Zn2 1.988028 1_555
O34 P7 1.554104 1_456
O34 Zn9 1.965043 1_555
O35 P4 1.559218 1_555
O35 Zn7 1.988028 1_555
O36 P13 1.553864 1_555
O36 Zn14 1.992861 1_555
O37 P5 1.552649 1_555
O37 Zn10 1.978024 1_555
O38 P9 1.552955 1_555
O38 Zn7 2.000984 1_555
O39 P8 1.560600 1_555
O39 Zn15 1.985068 1_545
O40 P8 1.554282 1_555
O40 Zn2 1.998536 1_555
O41 P7 1.559631 1_455
O41 Zn8 1.976872 1_545
O42 P15 1.555219 1_555
O42 Zn8 1.979931 1_555
O43 P3 1.554857 1_465
O43 Zn11 1.984374 1_555
O44 P13 1.558518 1_555
O44 Zn3 1.994498 1_555
O45 P5 1.556092 1_555
O45 Zn13 1.986558 1_555
O46 P14 1.557022 1_555
O46 Zn15 1.979740 1_555
O47 P0 1.556925 1_555
O47 Zn4 1.985518 1_555
O48 P11 1.560550 1_555
O48 Zn7 1.996270 1_555
O49 P0 1.553450 1_455
O49 Zn11 1.992626 1_555
O50 P12 1.560600 1_555
O50 Zn1 1.985068 1_455
O51 P6 1.553953 1_655
O51 Zn15 1.992766 1_555
O52 P9 1.554460 1_555
O52 Zn3 1.985942 1_565
O53 P6 1.553864 1_555
O53 Zn8 1.992861 1_555
O54 P2 1.553332 1_555
O54 Zn15 2.008792 1_555
O55 P15 1.559836 1_555
O55 Zn0 1.991051 1_565
O56 P5 1.554143 1_555
O56 Zn5 1.990793 1_555
O57 P1 1.554589 1_655
O57 Zn5 1.981025 1_555
O58 P9 1.554104 1_545
O58 Zn0 1.965043 1_555
O59 P6 1.558518 1_555
O59 Zn6 1.994498 1_555
O60 P6 1.555923 1_556
O60 Zn11 1.955535 1_555
O61 P13 1.555923 1_555
O61 Zn13 1.955535 1_555
O62 P2 1.556784 1_556
O62 Zn4 1.959405 1_555
O63 P7 1.554460 1_555
O63 Zn6 1.985942 1_655
