# generated using pymatgen
data_GdRuC2
_symmetry_space_group_name_H-M   'P 1'
_cell_length_a   4.36734855
_cell_length_b   5.13837441
_cell_length_c   5.19954309
_cell_angle_alpha   89.98553069
_cell_angle_beta   90.00236600
_cell_angle_gamma   115.15119805
_symmetry_Int_Tables_number   1
_chemical_formula_structural   GdRuC2
_chemical_formula_sum   'Gd2 Ru2 C4'
_cell_volume   105.62049976
_cell_formula_units_Z   2
loop_
 _symmetry_equiv_pos_site_id
 _symmetry_equiv_pos_as_xyz
  1  'x, y, z'
loop_
 _atom_site_type_symbol
 _atom_site_label
 _atom_site_symmetry_multiplicity
 _atom_site_fract_x
 _atom_site_fract_y
 _atom_site_fract_z
 _atom_site_occupancy
  Gd  Gd0  1  0.81701202  0.63403772  0.25002442  1
  Gd  Gd1  1  0.18298798  0.36596228  0.74997558  1
  Ru  Ru0  1  0.50000000  0.00000000  0.00000000  1
  Ru  Ru1  1  0.50000000  0.00000000  0.50000000  1
  C  C0  1  0.75790839  0.82997542  0.74996798  1
  C  C1  1  0.92798320  0.17007155  0.24975101  1
  C  C2  1  0.24209161  0.17002458  0.25003202  1
  C  C3  1  0.07201680  0.82992845  0.75024899  1
loop_
_geom_bond_atom_site_label_1
_geom_bond_atom_site_label_2
_geom_bond_distance
_geom_bond_site_symmetry_2
C0 C3 1.371924 1_655
C0 Ru1 2.134720 1_565
C0 Ru0 2.135248 1_566
C0 Gd1 2.585633 1_665
C0 Gd1 2.626888 1_555
C0 Gd0 2.838987 1_555
C0 Gd0 2.839039 1_556
C1 C2 1.371924 1_655
C1 Ru0 2.134404 1_555
C1 Ru1 2.135805 1_555
C1 Gd0 2.585848 1_545
C1 Gd0 2.626904 1_555
C1 Gd1 2.837652 1_654
C1 Gd1 2.840172 1_655
C2 Ru1 2.134720 1_555
C2 Ru0 2.135248 1_555
C2 Gd0 2.585633 1_445
C2 Gd0 2.626888 1_555
C2 Gd1 2.838987 1_555
C2 Gd1 2.839039 1_554
C3 Ru0 2.134404 1_566
C3 Ru1 2.135805 1_565
C3 Gd1 2.585848 1_565
C3 Gd1 2.626904 1_555
C3 Gd0 2.837652 1_456
C3 Gd0 2.840172 1_455
