# generated using pymatgen
data_La2Si2O7
_symmetry_space_group_name_H-M   'P 1'
_cell_length_a   6.82970456
_cell_length_b   6.82970456
_cell_length_c   24.87659261
_cell_angle_alpha   90.00000000
_cell_angle_beta   90.00000000
_cell_angle_gamma   90.00000000
_symmetry_Int_Tables_number   1
_chemical_formula_structural   La2Si2O7
_chemical_formula_sum   'La16 Si16 O56'
_cell_volume   1160.36528929
_cell_formula_units_Z   8
loop_
 _symmetry_equiv_pos_site_id
 _symmetry_equiv_pos_as_xyz
  1  'x, y, z'
loop_
 _atom_site_type_symbol
 _atom_site_label
 _atom_site_symmetry_multiplicity
 _atom_site_fract_x
 _atom_site_fract_y
 _atom_site_fract_z
 _atom_site_occupancy
  La  La0  1  0.82584702  0.47445251  0.10170732  1
  La  La1  1  0.52554749  0.82584702  0.35170732  1
  La  La2  1  0.47445251  0.17415298  0.85170732  1
  La  La3  1  0.17415298  0.52554749  0.60170732  1
  La  La4  1  0.23579792  0.30176658  0.00005667  1
  La  La5  1  0.69823342  0.23579792  0.25005667  1
  La  La6  1  0.30176658  0.76420208  0.75005667  1
  La  La7  1  0.76420208  0.69823342  0.50005667  1
  La  La8  1  0.22885973  0.87946088  0.10958367  1
  La  La9  1  0.12053912  0.22885973  0.35958367  1
  La  La10  1  0.87946088  0.77114027  0.85958367  1
  La  La11  1  0.77114027  0.12053912  0.60958367  1
  La  La12  1  0.33929998  0.08240297  0.49936595  1
  La  La13  1  0.91759703  0.33929998  0.74936595  1
  La  La14  1  0.08240297  0.66070002  0.24936595  1
  La  La15  1  0.66070002  0.91759703  0.99936595  1
  Si  Si0  1  0.29743162  0.39922949  0.13589297  1
  Si  Si1  1  0.60077051  0.29743162  0.38589297  1
  Si  Si2  1  0.39922949  0.70256838  0.88589297  1
  Si  Si3  1  0.70256838  0.60077051  0.63589297  1
  Si  Si4  1  0.14661529  0.76780794  0.98359138  1
  Si  Si5  1  0.23219206  0.14661529  0.23359138  1
  Si  Si6  1  0.76780794  0.85338471  0.73359138  1
  Si  Si7  1  0.85338471  0.23219206  0.48359138  1
  Si  Si8  1  0.73544629  0.37833285  0.97691264  1
  Si  Si9  1  0.62166715  0.73544629  0.22691264  1
  Si  Si10  1  0.37833285  0.26455371  0.72691264  1
  Si  Si11  1  0.26455371  0.62166715  0.47691264  1
  Si  Si12  1  0.98822779  0.29871219  0.87895914  1
  Si  Si13  1  0.70128781  0.98822779  0.12895914  1
  Si  Si14  1  0.29871219  0.01177221  0.62895914  1
  Si  Si15  1  0.01177221  0.70128781  0.37895914  1
  O  O0  1  0.13702955  0.56488102  0.15465183  1
  O  O1  1  0.43511898  0.13702955  0.40465183  1
  O  O2  1  0.56488102  0.86297045  0.90465183  1
  O  O3  1  0.86297045  0.43511898  0.65465183  1
  O  O4  1  0.17951742  0.24760652  0.09710370  1
  O  O5  1  0.75239348  0.17951742  0.34710370  1
  O  O6  1  0.24760652  0.82048258  0.84710370  1
  O  O7  1  0.82048258  0.75239348  0.59710370  1
  O  O8  1  0.47775654  0.50981497  0.10871166  1
  O  O9  1  0.49018503  0.47775654  0.35871166  1
  O  O10  1  0.50981497  0.52224346  0.85871166  1
  O  O11  1  0.52224346  0.49018503  0.60871166  1
  O  O12  1  0.27899297  0.63501068  0.94115080  1
  O  O13  1  0.36498932  0.27899297  0.19115080  1
  O  O14  1  0.63501068  0.72100703  0.69115080  1
  O  O15  1  0.72100703  0.36498932  0.44115080  1
  O  O16  1  0.10557426  0.61866141  0.03323471  1
  O  O17  1  0.38133859  0.10557426  0.28323471  1
  O  O18  1  0.61866141  0.89442574  0.78323471  1
  O  O19  1  0.89442574  0.38133859  0.53323471  1
  O  O20  1  0.27740652  0.94426726  0.00841021  1
  O  O21  1  0.87092085  0.24547929  0.01694835  1
  O  O22  1  0.05573274  0.27740652  0.25841021  1
  O  O23  1  0.72259348  0.05573274  0.50841021  1
  O  O24  1  0.15219696  0.95693072  0.20240872  1
  O  O25  1  0.04306928  0.15219696  0.45240872  1
  O  O26  1  0.95693072  0.84780304  0.95240872  1
  O  O27  1  0.84780304  0.04306928  0.70240872  1
  O  O28  1  0.55549157  0.23922037  0.95770138  1
  O  O29  1  0.76077963  0.55549157  0.20770138  1
  O  O30  1  0.23922037  0.44450843  0.70770138  1
  O  O31  1  0.44450843  0.76077963  0.45770138  1
  O  O32  1  0.21257375  0.81856600  0.65684198  1
  O  O33  1  0.18143400  0.21257375  0.90684198  1
  O  O34  1  0.81856600  0.78742625  0.40684198  1
  O  O35  1  0.78742625  0.18143400  0.15684198  1
  O  O36  1  0.46049611  0.96485332  0.58336347  1
  O  O37  1  0.03514668  0.46049611  0.83336347  1
  O  O38  1  0.96485332  0.53950389  0.33336347  1
  O  O39  1  0.53950389  0.03514668  0.08336347  1
  O  O40  1  0.13751695  0.15532327  0.60189888  1
  O  O41  1  0.84467673  0.13751695  0.85189888  1
  O  O42  1  0.15532327  0.86248305  0.35189888  1
  O  O43  1  0.86248305  0.84467673  0.10189888  1
  O  O44  1  0.12800271  0.56563237  0.42451294  1
  O  O45  1  0.43436763  0.12800271  0.67451294  1
  O  O46  1  0.56563237  0.87199729  0.17451294  1
  O  O47  1  0.87199729  0.43436763  0.92451294  1
  O  O48  1  0.33507723  0.43008621  0.50862963  1
  O  O49  1  0.56991379  0.33507723  0.75862963  1
  O  O50  1  0.43008621  0.66492277  0.25862963  1
  O  O51  1  0.66492277  0.56991379  0.00862963  1
  O  O52  1  0.12907915  0.75452071  0.51694835  1
  O  O53  1  0.24547929  0.12907915  0.76694835  1
  O  O54  1  0.75452071  0.87092085  0.26694835  1
  O  O55  1  0.94426726  0.72259348  0.75841021  1
loop_
_geom_bond_atom_site_label_1
_geom_bond_atom_site_label_2
_geom_bond_distance
_geom_bond_site_symmetry_2
La0 O8 2.395936 1_555
La0 O35 2.440279 1_555
La0 O43 2.540876 1_555
La0 O0 2.575454 1_655
La0 O21 2.643129 1_555
La0 O51 2.644683 1_555
La0 O29 2.730637 1_555
La0 O16 2.742503 1_655
La0 O4 2.871913 1_655
La1 O9 2.395936 1_555
La1 O34 2.440279 1_555
La1 O42 2.540876 1_555
La1 O1 2.575454 1_565
La1 O54 2.643129 1_555
La1 O50 2.644683 1_555
La1 O31 2.730637 1_555
La1 O17 2.742503 1_565
La1 O5 2.871913 1_565
La2 O10 2.395936 1_555
La2 O33 2.440279 1_555
La2 O41 2.540876 1_555
La2 O2 2.575454 1_545
La2 O53 2.643129 1_555
La2 O49 2.644683 1_555
La2 O28 2.730637 1_555
La2 O18 2.742503 1_545
La2 O6 2.871913 1_545
La3 O11 2.395936 1_555
La3 O32 2.440279 1_555
La3 O40 2.540876 1_555
La3 O3 2.575454 1_455
La3 O52 2.643129 1_555
La3 O48 2.644683 1_555
La3 O30 2.730637 1_555
La3 O19 2.742503 1_455
La3 O7 2.871913 1_455
La4 O33 2.426121 1_554
La4 O28 2.461698 1_554
La4 O20 2.466865 1_545
La4 O4 2.472434 1_555
La4 O16 2.481212 1_555
La4 O21 2.556254 1_455
La4 O12 2.722930 1_554
La5 O35 2.426121 1_555
La5 O29 2.461698 1_555
La5 O22 2.466865 1_655
La5 O5 2.472434 1_555
La5 O17 2.481212 1_555
La5 O54 2.556254 1_545
La5 O13 2.722930 1_555
La6 O32 2.426121 1_555
La6 O30 2.461698 1_555
La6 O55 2.466865 1_455
La6 O6 2.472434 1_555
La6 O18 2.481212 1_555
La6 O53 2.556254 1_565
La6 O14 2.722930 1_555
La7 O34 2.426121 1_555
La7 O31 2.461698 1_555
La7 O23 2.466865 1_565
La7 O7 2.472434 1_555
La7 O19 2.481212 1_555
La7 O52 2.556254 1_655
La7 O15 2.722930 1_555
La8 O24 2.426181 1_555
La8 O39 2.461149 1_565
La8 O0 2.503259 1_555
La8 O43 2.520756 1_455
La8 O4 2.555736 1_565
La8 O20 2.576892 1_555
La8 O16 2.736591 1_555
La8 O46 2.811013 1_555
La8 O8 3.043611 1_555
La9 O25 2.426181 1_555
La9 O38 2.461149 1_455
La9 O1 2.503259 1_555
La9 O42 2.520756 1_545
La9 O5 2.555736 1_455
La9 O22 2.576892 1_555
La9 O17 2.736591 1_555
La9 O44 2.811013 1_555
La9 O9 3.043611 1_555
La10 O26 2.426181 1_555
La10 O37 2.461149 1_655
La10 O2 2.503259 1_555
La10 O41 2.520756 1_565
La10 O6 2.555736 1_655
La10 O55 2.576892 1_555
La10 O18 2.736591 1_555
La10 O47 2.811013 1_555
La10 O10 3.043611 1_555
La11 O27 2.426181 1_555
La11 O36 2.461149 1_545
La11 O3 2.503259 1_555
La11 O40 2.520756 1_655
La11 O7 2.555736 1_545
La11 O23 2.576892 1_555
La11 O19 2.736591 1_555
La11 O45 2.811013 1_555
La11 O11 3.043611 1_555
La12 O25 2.384317 1_555
La12 O48 2.385904 1_555
La12 O36 2.386627 1_545
La12 O1 2.473654 1_555
La12 O31 2.532903 1_545
La12 O23 2.633739 1_555
La12 O52 2.695796 1_545
La12 O40 2.941625 1_555
La13 O27 2.384317 1_555
La13 O49 2.385904 1_555
La13 O37 2.386627 1_655
La13 O3 2.473654 1_555
La13 O30 2.532903 1_655
La13 O55 2.633739 1_555
La13 O53 2.695796 1_655
La13 O41 2.941625 1_555
La14 O24 2.384317 1_555
La14 O50 2.385904 1_555
La14 O38 2.386627 1_455
La14 O0 2.473654 1_555
La14 O29 2.532903 1_455
La14 O22 2.633739 1_555
La14 O54 2.695796 1_455
La14 O42 2.941625 1_555
La15 O26 2.384317 1_555
La15 O51 2.385904 1_556
La15 O39 2.386627 1_566
La15 O2 2.473654 1_555
La15 O28 2.532903 1_565
La15 O20 2.633739 1_556
La15 O21 2.695796 1_566
La15 O43 2.941625 1_556
O0 Si0 1.642511 1_555
O1 Si1 1.642511 1_555
O2 Si2 1.642511 1_555
O3 Si3 1.642511 1_555
O4 Si0 1.628496 1_555
O5 Si1 1.628496 1_555
O6 Si2 1.628496 1_555
O7 Si3 1.628496 1_555
O8 Si0 1.595117 1_555
O9 Si1 1.595117 1_555
O10 Si2 1.595117 1_555
O11 Si3 1.595117 1_555
O12 Si4 1.659714 1_555
O12 Si2 1.666380 1_555
O13 Si5 1.659714 1_555
O13 Si0 1.666380 1_555
O14 Si6 1.659714 1_555
O14 Si3 1.666380 1_555
O15 Si7 1.659714 1_555
O15 Si1 1.666380 1_555
O16 Si4 1.625203 1_554
O17 Si5 1.625203 1_555
O18 Si6 1.625203 1_555
O19 Si7 1.625203 1_555
O20 Si4 1.622202 1_554
O21 Si8 1.634410 1_554
O22 Si5 1.622202 1_555
O23 Si7 1.622202 1_555
O24 Si5 1.605778 1_565
O25 Si7 1.605778 1_455
O26 Si4 1.605778 1_655
O27 Si6 1.605778 1_545
O28 Si8 1.625305 1_555
O29 Si9 1.625305 1_555
O30 Si10 1.625305 1_555
O31 Si11 1.625305 1_555
O32 Si14 1.602626 1_565
O33 Si12 1.602626 1_455
O34 Si15 1.602626 1_655
O35 Si13 1.602626 1_545
O36 Si14 1.615588 1_565
O37 Si12 1.615588 1_455
O38 Si15 1.615588 1_655
O39 Si13 1.615588 1_545
O40 Si14 1.620610 1_555
O41 Si12 1.620610 1_555
O42 Si15 1.620610 1_555
O43 Si13 1.620610 1_555
O44 Si11 1.647844 1_555
O44 Si15 1.665149 1_555
O45 Si10 1.647844 1_555
O45 Si14 1.665149 1_555
O46 Si9 1.647844 1_555
O46 Si13 1.665149 1_555
O47 Si8 1.647844 1_555
O47 Si12 1.665149 1_555
O48 Si11 1.602045 1_555
O49 Si10 1.602045 1_555
O50 Si9 1.602045 1_555
O51 Si8 1.602045 1_554
O52 Si11 1.634410 1_555
O53 Si10 1.634410 1_555
O54 Si9 1.634410 1_555
O55 Si6 1.622202 1_555
