# generated using pymatgen
data_K2Ca(NO2)4
_symmetry_space_group_name_H-M   'P 1'
_cell_length_a   5.47113253
_cell_length_b   5.47113253
_cell_length_c   11.44038345
_cell_angle_alpha   87.49738857
_cell_angle_beta   87.49738857
_cell_angle_gamma   67.59243784
_symmetry_Int_Tables_number   1
_chemical_formula_structural   K2Ca(NO2)4
_chemical_formula_sum   'K2 Ca1 N4 O8'
_cell_volume   316.15468521
_cell_formula_units_Z   1
loop_
 _symmetry_equiv_pos_site_id
 _symmetry_equiv_pos_as_xyz
  1  'x, y, z'
loop_
 _atom_site_type_symbol
 _atom_site_label
 _atom_site_symmetry_multiplicity
 _atom_site_fract_x
 _atom_site_fract_y
 _atom_site_fract_z
 _atom_site_occupancy
  K  K0  1  0.63145000  0.63145000  0.30175800  1
  K  K1  1  0.36855000  0.36855000  0.69824200  1
  Ca  Ca0  1  0.00000000  0.00000000  0.00000000  1
  N  N0  1  0.55468400  0.55468400  0.03531100  1
  N  N1  1  0.26921800  0.26921800  0.27412000  1
  N  N2  1  0.73078200  0.73078200  0.72588000  1
  N  N3  1  0.44531600  0.44531600  0.96468900  1
  O  O0  1  0.79311300  0.41979800  0.07117900  1
  O  O1  1  0.41979800  0.79311300  0.07117900  1
  O  O2  1  0.20688700  0.58020200  0.92882100  1
  O  O3  1  0.16369300  0.51723600  0.29059900  1
  O  O4  1  0.48276400  0.83630700  0.70940100  1
  O  O5  1  0.51723600  0.16369300  0.29059900  1
  O  O6  1  0.58020200  0.20688700  0.92882100  1
  O  O7  1  0.83630700  0.48276400  0.70940100  1
loop_
_geom_bond_atom_site_label_1
_geom_bond_atom_site_label_2
_geom_bond_distance
_geom_bond_site_symmetry_2
K0 O5 2.733788 1_565
K0 O3 2.733788 1_655
K0 O5 2.865442 1_555
K0 O3 2.865442 1_555
K0 O0 2.892051 1_555
K0 O1 2.892051 1_555
K1 O7 2.733788 1_455
K1 O4 2.733788 1_545
K1 O4 2.865442 1_555
K1 O7 2.865442 1_555
K1 O2 2.892051 1_555
K1 O6 2.892051 1_555
Ca0 O2 2.306582 1_544
Ca0 O1 2.306582 1_545
Ca0 O0 2.306582 1_455
Ca0 O6 2.306582 1_454
N0 O0 1.304234 1_555
N0 O1 1.304234 1_555
N0 N3 1.313873 1_554
N1 O5 1.275037 1_555
N1 O3 1.275037 1_555
N2 O4 1.275037 1_555
N2 O7 1.275037 1_555
N3 O6 1.304234 1_555
N3 O2 1.304234 1_555
