# generated using pymatgen
data_Ho(GeRh)2
_symmetry_space_group_name_H-M   'P 1'
_cell_length_a   4.10113212
_cell_length_b   4.10113230
_cell_length_c   5.89261601
_cell_angle_alpha   110.36435843
_cell_angle_beta   110.36436066
_cell_angle_gamma   89.99998559
_symmetry_Int_Tables_number   1
_chemical_formula_structural   Ho(GeRh)2
_chemical_formula_sum   'Ho1 Ge2 Rh2'
_cell_volume   86.27701568
_cell_formula_units_Z   1
loop_
 _symmetry_equiv_pos_site_id
 _symmetry_equiv_pos_as_xyz
  1  'x, y, z'
loop_
 _atom_site_type_symbol
 _atom_site_label
 _atom_site_symmetry_multiplicity
 _atom_site_fract_x
 _atom_site_fract_y
 _atom_site_fract_z
 _atom_site_occupancy
  Ho  Ho0  1  -0.00000000  -0.00000000  0.00000000  1
  Ge  Ge0  1  0.37870582  0.37870582  0.75741264  1
  Ge  Ge1  1  0.62129418  0.62129418  0.24258736  1
  Rh  Rh0  1  0.25000000  0.75000000  0.50000000  1
  Rh  Rh1  1  0.75000000  0.25000000  0.50000000  1
loop_
_geom_bond_atom_site_label_1
_geom_bond_atom_site_label_2
_geom_bond_distance
_geom_bond_site_symmetry_2
Ho0 Rh0 3.283769 1_545
Ho0 Rh1 3.283769 1_454
Ho0 Rh1 3.283769 1_455
Ho0 Rh0 3.283769 1_544
Ho0 Rh1 3.283770 1_555
Ho0 Rh0 3.283770 1_444
Ho0 Rh1 3.283770 1_444
Ho0 Rh0 3.283770 1_555
Ge0 Rh1 2.438927 1_455
Ge0 Rh0 2.438927 1_545
Ge0 Rh1 2.438930 1_555
Ge0 Rh0 2.438930 1_555
Ge0 Ge1 2.488776 1_556
Ge0 Ho0 3.155650 1_556
Ge0 Ho0 3.155652 1_656
Ge0 Ho0 3.155652 1_566
Ge0 Ho0 3.155656 1_666
Ge1 Rh0 2.438927 1_655
Ge1 Rh1 2.438927 1_565
Ge1 Rh0 2.438930 1_555
Ge1 Rh1 2.438930 1_555
Ge1 Ho0 3.155650 1_665
Ge1 Ho0 3.155652 1_565
Ge1 Ho0 3.155652 1_655
Ge1 Ho0 3.155656 1_555
