# generated using pymatgen
data_Nb5Si3
_symmetry_space_group_name_H-M   'P 1'
_cell_length_a   7.58333856
_cell_length_b   7.58333856
_cell_length_c   5.30642400
_cell_angle_alpha   90.00000000
_cell_angle_beta   90.00000000
_cell_angle_gamma   120.00000488
_symmetry_Int_Tables_number   1
_chemical_formula_structural   Nb5Si3
_chemical_formula_sum   'Nb10 Si6'
_cell_volume   264.27339872
_cell_formula_units_Z   2
loop_
 _symmetry_equiv_pos_site_id
 _symmetry_equiv_pos_as_xyz
  1  'x, y, z'
loop_
 _atom_site_type_symbol
 _atom_site_label
 _atom_site_symmetry_multiplicity
 _atom_site_fract_x
 _atom_site_fract_y
 _atom_site_fract_z
 _atom_site_occupancy
  Nb  Nb0  1  0.74919000  0.74919000  0.25000000  1
  Nb  Nb1  1  0.00000000  0.25081000  0.25000000  1
  Nb  Nb2  1  0.74919000  0.00000000  0.75000000  1
  Nb  Nb3  1  0.33333300  0.66666700  0.00000000  1
  Nb  Nb4  1  0.25081000  0.00000000  0.25000000  1
  Nb  Nb5  1  0.66666700  0.33333300  0.00000000  1
  Nb  Nb6  1  0.00000000  0.74919000  0.75000000  1
  Nb  Nb7  1  0.33333300  0.66666700  0.50000000  1
  Nb  Nb8  1  0.25081000  0.25081000  0.75000000  1
  Nb  Nb9  1  0.66666700  0.33333300  0.50000000  1
  Si  Si0  1  0.60743100  0.60743100  0.75000000  1
  Si  Si1  1  0.39256900  0.00000000  0.75000000  1
  Si  Si2  1  0.60743100  0.00000000  0.25000000  1
  Si  Si3  1  0.00000000  0.39256900  0.75000000  1
  Si  Si4  1  0.39256900  0.39256900  0.25000000  1
  Si  Si5  1  0.00000000  0.60743100  0.25000000  1
loop_
_geom_bond_atom_site_label_1
_geom_bond_atom_site_label_2
_geom_bond_distance
_geom_bond_site_symmetry_2
Nb0 Si5 2.611091 1_655
Nb0 Si2 2.611091 1_565
Nb0 Si4 2.704378 1_555
Nb0 Si0 2.862721 1_555
Nb0 Si0 2.862721 1_554
Nb1 Si2 2.611090 1_455
Nb1 Si4 2.611090 1_555
Nb1 Si5 2.704378 1_555
Nb1 Si3 2.862721 1_555
Nb1 Si3 2.862721 1_554
Nb2 Si3 2.611090 1_655
Nb2 Si0 2.611090 1_545
Nb2 Si1 2.704378 1_555
Nb2 Si2 2.862721 1_556
Nb2 Si2 2.862721 1_555
Nb3 Nb7 2.653212 1_555
Nb3 Nb7 2.653212 1_554
Nb3 Si5 2.686230 1_555
Nb3 Si1 2.686230 1_564
Nb3 Si2 2.686232 1_565
Nb3 Si3 2.686232 1_554
Nb3 Si0 2.686237 1_554
Nb3 Si4 2.686237 1_555
Nb4 Si5 2.611090 1_545
Nb4 Si4 2.611090 1_555
Nb4 Si2 2.704378 1_555
Nb4 Si1 2.862721 1_554
Nb4 Si1 2.862721 1_555
Nb5 Nb9 2.653212 1_555
Nb5 Nb9 2.653212 1_554
Nb5 Si3 2.686230 1_654
Nb5 Si2 2.686230 1_555
Nb5 Si1 2.686232 1_554
Nb5 Si5 2.686232 1_655
Nb5 Si0 2.686237 1_554
Nb5 Si4 2.686237 1_555
Nb6 Si1 2.611090 1_565
Nb6 Si0 2.611090 1_455
Nb6 Si3 2.704378 1_555
Nb6 Si5 2.862721 1_555
Nb6 Si5 2.862721 1_556
Nb7 Si5 2.686230 1_555
Nb7 Si1 2.686230 1_565
Nb7 Si2 2.686232 1_565
Nb7 Si3 2.686232 1_555
Nb7 Si0 2.686237 1_555
Nb7 Si4 2.686237 1_555
Nb8 Si3 2.611091 1_555
Nb8 Si1 2.611091 1_555
Nb8 Si0 2.704378 1_555
Nb8 Si4 2.862721 1_556
Nb8 Si4 2.862721 1_555
Nb9 Si3 2.686230 1_655
Nb9 Si2 2.686230 1_555
Nb9 Si1 2.686232 1_555
Nb9 Si5 2.686232 1_655
Nb9 Si0 2.686237 1_555
Nb9 Si4 2.686237 1_555
