# generated using pymatgen
data_TaPd3
_symmetry_space_group_name_H-M   'P 1'
_cell_length_a   5.56987950
_cell_length_b   5.56987950
_cell_length_c   23.41284500
_cell_angle_alpha   90.00000000
_cell_angle_beta   90.00000000
_cell_angle_gamma   119.99999407
_symmetry_Int_Tables_number   1
_chemical_formula_structural   TaPd3
_chemical_formula_sum   'Ta10 Pd30'
_cell_volume   629.03737030
_cell_formula_units_Z   10
loop_
 _symmetry_equiv_pos_site_id
 _symmetry_equiv_pos_as_xyz
  1  'x, y, z'
loop_
 _atom_site_type_symbol
 _atom_site_label
 _atom_site_symmetry_multiplicity
 _atom_site_fract_x
 _atom_site_fract_y
 _atom_site_fract_z
 _atom_site_occupancy
  Ta  Ta0  1  0.00000000  0.00000000  0.25000000  1
  Ta  Ta1  1  0.66666700  0.33333300  0.45628100  1
  Ta  Ta2  1  0.66666700  0.33333300  0.04371900  1
  Ta  Ta3  1  0.66666700  0.33333300  0.65119200  1
  Ta  Ta4  1  0.33333300  0.66666700  0.34880800  1
  Ta  Ta5  1  0.33333300  0.66666700  0.95628100  1
  Ta  Ta6  1  0.00000000  0.00000000  0.75000000  1
  Ta  Ta7  1  0.33333300  0.66666700  0.54371900  1
  Ta  Ta8  1  0.66666700  0.33333300  0.84880800  1
  Ta  Ta9  1  0.33333300  0.66666700  0.15119200  1
  Pd  Pd0  1  0.16678600  0.83321400  0.65103300  1
  Pd  Pd1  1  0.33639100  0.16819500  0.94748600  1
  Pd  Pd2  1  0.16819500  0.83180500  0.05251400  1
  Pd  Pd3  1  0.16678600  0.33357100  0.84896700  1
  Pd  Pd4  1  0.00211300  0.50105700  0.25000000  1
  Pd  Pd5  1  0.66360900  0.83180500  0.44748600  1
  Pd  Pd6  1  0.83321400  0.66642900  0.34896700  1
  Pd  Pd7  1  0.83180500  0.16819500  0.55251400  1
  Pd  Pd8  1  0.83180500  0.66360900  0.94748600  1
  Pd  Pd9  1  0.16819500  0.83180500  0.44748600  1
  Pd  Pd10  1  0.83321400  0.16678600  0.15103300  1
  Pd  Pd11  1  0.66642900  0.83321400  0.84896700  1
  Pd  Pd12  1  0.33639100  0.16819500  0.55251400  1
  Pd  Pd13  1  0.33357100  0.16678600  0.34896700  1
  Pd  Pd14  1  0.66642900  0.83321400  0.65103300  1
  Pd  Pd15  1  0.83180500  0.16819500  0.94748600  1
  Pd  Pd16  1  0.49894300  0.99788700  0.25000000  1
  Pd  Pd17  1  0.50105700  0.49894300  0.75000000  1
  Pd  Pd18  1  0.66360900  0.83180500  0.05251400  1
  Pd  Pd19  1  0.83321400  0.16678600  0.34896700  1
  Pd  Pd20  1  0.16819500  0.33639100  0.05251400  1
  Pd  Pd21  1  0.83180500  0.66360900  0.55251400  1
  Pd  Pd22  1  0.16678600  0.33357100  0.65103300  1
  Pd  Pd23  1  0.83321400  0.66642900  0.15103300  1
  Pd  Pd24  1  0.16819500  0.33639100  0.44748600  1
  Pd  Pd25  1  0.99788700  0.49894300  0.75000000  1
  Pd  Pd26  1  0.16678600  0.83321400  0.84896700  1
  Pd  Pd27  1  0.50105700  0.00211300  0.75000000  1
  Pd  Pd28  1  0.49894300  0.50105700  0.25000000  1
  Pd  Pd29  1  0.33357100  0.16678600  0.15103300  1
loop_
_geom_bond_atom_site_label_1
_geom_bond_atom_site_label_2
_geom_bond_distance
_geom_bond_site_symmetry_2
Pd0 Pd22 2.782951 1_555
Pd0 Pd14 2.782951 1_555
Pd0 Ta3 2.784943 1_455
Pd0 Ta3 2.784943 1_565
Pd0 Pd14 2.786928 1_455
Pd0 Pd22 2.786928 1_565
Pd0 Pd21 2.816293 1_455
Pd0 Pd12 2.816293 1_565
Pd0 Ta6 2.820983 1_565
Pd0 Pd25 2.822925 1_455
Pd0 Pd27 2.822925 1_565
Pd0 Ta7 2.982343 1_555
Pd1 Ta2 2.759438 1_556
Pd1 Ta5 2.792575 1_545
Pd1 Ta5 2.792587 1_555
Pd1 Ta8 2.806373 1_555
Pd1 Pd3 2.816293 1_555
Pd1 Pd26 2.816293 1_545
Pd2 Ta5 2.759438 1_554
Pd2 Ta2 2.792581 1_455
Pd2 Ta2 2.792581 1_565
Pd2 Ta9 2.806372 1_555
Pd2 Pd23 2.816293 1_455
Pd2 Pd29 2.816293 1_565
Pd3 Ta8 2.784942 1_555
Pd3 Ta8 2.784942 1_455
Pd3 Ta6 2.820981 1_555
Pd3 Ta5 2.982349 1_555
Pd4 Ta0 2.784956 1_565
Pd4 Ta0 2.784961 1_555
Pd4 Ta4 2.811464 1_555
Pd4 Ta9 2.811464 1_555
Pd4 Pd6 2.822925 1_455
Pd5 Ta7 2.759438 1_555
Pd5 Ta1 2.792575 1_565
Pd5 Ta1 2.792587 1_555
Pd5 Ta4 2.806373 1_555
Pd5 Pd6 2.816293 1_555
Pd6 Ta4 2.784942 1_555
Pd6 Ta4 2.784942 1_655
Pd6 Pd9 2.816293 1_655
Pd6 Ta0 2.820981 1_665
Pd6 Ta1 2.982349 1_555
Pd7 Ta1 2.759438 1_555
Pd7 Ta7 2.792581 1_545
Pd7 Ta7 2.792581 1_655
Pd7 Ta3 2.806372 1_555
Pd8 Ta2 2.759438 1_556
Pd8 Ta5 2.792575 1_655
Pd8 Ta5 2.792587 1_555
Pd8 Ta8 2.806373 1_555
Pd9 Ta7 2.759438 1_555
Pd9 Ta1 2.792581 1_455
Pd9 Ta1 2.792581 1_565
Pd9 Ta4 2.806372 1_555
Pd10 Pd29 2.782951 1_555
Pd10 Pd23 2.782951 1_555
Pd10 Ta9 2.784943 1_545
Pd10 Ta9 2.784943 1_655
Pd10 Pd23 2.786928 1_545
Pd10 Pd29 2.786928 1_655
Pd10 Pd18 2.816293 1_545
Pd10 Pd20 2.816293 1_655
Pd10 Ta0 2.820983 1_655
Pd10 Pd4 2.822925 1_655
Pd10 Pd16 2.822925 1_545
Pd10 Ta2 2.982343 1_555
Pd11 Pd26 2.782951 1_555
Pd11 Pd3 2.782952 1_555
Pd11 Ta8 2.784942 1_555
Pd11 Ta8 2.784942 1_565
Pd11 Pd26 2.786928 1_655
Pd11 Pd3 2.786928 1_665
Pd11 Pd8 2.816293 1_555
Pd11 Pd15 2.816293 1_565
Pd11 Ta6 2.820981 1_665
Pd11 Pd27 2.822925 1_565
Pd11 Pd17 2.822925 1_555
Pd11 Ta5 2.982349 1_555
Pd12 Ta1 2.759438 1_555
Pd12 Ta7 2.792575 1_545
Pd12 Ta7 2.792587 1_555
Pd12 Ta3 2.806373 1_555
Pd12 Pd22 2.816293 1_555
Pd13 Pd19 2.782951 1_555
Pd13 Pd6 2.782952 1_555
Pd13 Ta4 2.784942 1_555
Pd13 Ta4 2.784942 1_545
Pd13 Pd19 2.786928 1_455
Pd13 Pd6 2.786928 1_445
Pd13 Pd24 2.816293 1_555
Pd13 Pd9 2.816293 1_545
Pd13 Ta0 2.820981 1_555
Pd13 Pd16 2.822925 1_545
Pd13 Pd28 2.822925 1_555
Pd13 Ta1 2.982349 1_555
Pd14 Pd22 2.782952 1_555
Pd14 Ta3 2.784942 1_555
Pd14 Ta3 2.784942 1_565
Pd14 Pd22 2.786928 1_665
Pd14 Pd21 2.816293 1_555
Pd14 Pd7 2.816293 1_565
Pd14 Ta6 2.820981 1_665
Pd14 Pd27 2.822925 1_565
Pd14 Pd17 2.822925 1_555
Pd14 Ta7 2.982349 1_555
Pd15 Ta2 2.759438 1_556
Pd15 Ta5 2.792581 1_545
Pd15 Ta5 2.792581 1_655
Pd15 Ta8 2.806372 1_555
Pd15 Pd3 2.816293 1_655
Pd16 Pd28 2.767283 1_555
Pd16 Pd4 2.767283 1_555
Pd16 Ta0 2.784956 1_565
Pd16 Ta0 2.784961 1_665
Pd16 Pd28 2.802596 1_565
Pd16 Pd4 2.802597 1_665
Pd16 Ta4 2.811464 1_555
Pd16 Ta9 2.811464 1_555
Pd16 Pd29 2.822925 1_565
Pd16 Pd19 2.822925 1_565
Pd17 Pd25 2.767283 1_555
Pd17 Pd27 2.767283 1_555
Pd17 Ta6 2.784959 1_555
Pd17 Ta6 2.784959 1_665
Pd17 Pd27 2.802596 1_565
Pd17 Pd25 2.802596 1_455
Pd17 Ta8 2.811464 1_555
Pd17 Ta3 2.811464 1_555
Pd17 Pd22 2.822925 1_555
Pd17 Pd3 2.822925 1_555
Pd18 Ta5 2.759438 1_554
Pd18 Ta2 2.792575 1_565
Pd18 Ta2 2.792587 1_555
Pd18 Ta9 2.806373 1_555
Pd18 Pd23 2.816293 1_555
Pd19 Pd6 2.782951 1_555
Pd19 Ta4 2.784943 1_545
Pd19 Ta4 2.784943 1_655
Pd19 Pd6 2.786928 1_545
Pd19 Pd5 2.816293 1_545
Pd19 Pd24 2.816293 1_655
Pd19 Ta0 2.820983 1_655
Pd19 Pd4 2.822925 1_655
Pd19 Ta1 2.982343 1_555
Pd20 Ta5 2.759438 1_554
Pd20 Ta2 2.792575 1_455
Pd20 Ta2 2.792587 1_555
Pd20 Ta9 2.806373 1_555
Pd20 Pd29 2.816293 1_555
Pd21 Ta1 2.759438 1_555
Pd21 Ta7 2.792575 1_655
Pd21 Ta7 2.792587 1_555
Pd21 Ta3 2.806373 1_555
Pd22 Ta3 2.784942 1_555
Pd22 Ta3 2.784942 1_455
Pd22 Pd7 2.816293 1_455
Pd22 Ta6 2.820981 1_555
Pd22 Pd25 2.822925 1_455
Pd22 Ta7 2.982349 1_555
Pd23 Pd29 2.782952 1_555
Pd23 Ta9 2.784942 1_555
Pd23 Ta9 2.784942 1_655
Pd23 Pd29 2.786928 1_665
Pd23 Ta0 2.820981 1_665
Pd23 Pd4 2.822925 1_655
Pd23 Pd28 2.822925 1_555
Pd23 Ta2 2.982349 1_555
Pd24 Ta7 2.759438 1_555
Pd24 Ta1 2.792575 1_455
Pd24 Ta1 2.792587 1_555
Pd24 Ta4 2.806373 1_555
Pd25 Pd27 2.767283 1_555
Pd25 Ta6 2.784956 1_655
Pd25 Ta6 2.784961 1_665
Pd25 Pd27 2.802597 1_665
Pd25 Ta8 2.811464 1_555
Pd25 Ta3 2.811464 1_555
Pd25 Pd3 2.822925 1_655
Pd25 Pd26 2.822925 1_655
Pd26 Pd3 2.782951 1_555
Pd26 Ta8 2.784943 1_455
Pd26 Ta8 2.784943 1_565
Pd26 Pd3 2.786928 1_565
Pd26 Pd8 2.816293 1_455
Pd26 Ta6 2.820983 1_565
Pd26 Pd27 2.822925 1_565
Pd26 Ta5 2.982343 1_555
Pd27 Ta6 2.784956 1_655
Pd27 Ta6 2.784961 1_555
Pd27 Ta8 2.811464 1_555
Pd27 Ta3 2.811464 1_555
Pd28 Pd4 2.767283 1_555
Pd28 Ta0 2.784959 1_555
Pd28 Ta0 2.784959 1_665
Pd28 Pd4 2.802596 1_655
Pd28 Ta4 2.811464 1_555
Pd28 Ta9 2.811464 1_555
Pd28 Pd29 2.822925 1_555
Pd28 Pd6 2.822925 1_555
Pd29 Ta9 2.784942 1_555
Pd29 Ta9 2.784942 1_545
Pd29 Ta0 2.820981 1_555
Pd29 Ta2 2.982349 1_555
