# generated using pymatgen
data_Na3Hg2
_symmetry_space_group_name_H-M   'P 1'
_cell_length_a   7.18462977
_cell_length_b   8.53375105
_cell_length_c   8.53375105
_cell_angle_alpha   90.00000000
_cell_angle_beta   90.00000000
_cell_angle_gamma   90.00000000
_symmetry_Int_Tables_number   1
_chemical_formula_structural   Na3Hg2
_chemical_formula_sum   'Na12 Hg8'
_cell_volume   523.21999471
_cell_formula_units_Z   4
loop_
 _symmetry_equiv_pos_site_id
 _symmetry_equiv_pos_as_xyz
  1  'x, y, z'
loop_
 _atom_site_type_symbol
 _atom_site_label
 _atom_site_symmetry_multiplicity
 _atom_site_fract_x
 _atom_site_fract_y
 _atom_site_fract_z
 _atom_site_occupancy
  Na  Na0  1  -0.00000000  0.63152734  0.63152734  1
  Na  Na1  1  -0.00000000  0.81620505  0.18379495  1
  Na  Na2  1  0.00000000  0.36847266  0.36847266  1
  Na  Na3  1  0.50000000  0.13152734  0.86847266  1
  Na  Na4  1  -0.00000000  0.50000000  -0.00000000  1
  Na  Na5  1  0.50000000  0.50000000  -0.00000000  1
  Na  Na6  1  0.50000000  0.68379495  0.68379495  1
  Na  Na7  1  0.00000000  0.00000000  0.50000000  1
  Na  Na8  1  0.50000000  0.86847266  0.13152734  1
  Na  Na9  1  0.50000000  0.31620505  0.31620505  1
  Na  Na10  1  0.00000000  0.18379495  0.81620505  1
  Na  Na11  1  0.50000000  0.00000000  0.50000000  1
  Hg  Hg0  1  0.79863766  0.13789012  0.13789012  1
  Hg  Hg1  1  0.70136234  0.36210988  0.63789012  1
  Hg  Hg2  1  0.20136234  0.13789012  0.13789012  1
  Hg  Hg3  1  0.29863766  0.36210988  0.63789012  1
  Hg  Hg4  1  0.20136234  0.86210988  0.86210988  1
  Hg  Hg5  1  0.29863766  0.63789012  0.36210988  1
  Hg  Hg6  1  0.70136234  0.63789012  0.36210988  1
  Hg  Hg7  1  0.79863766  0.86210988  0.86210988  1
loop_
_geom_bond_atom_site_label_1
_geom_bond_atom_site_label_2
_geom_bond_distance
_geom_bond_site_symmetry_2
Na0 Na2 3.174688 1_555
Na0 Na4 3.338775 1_556
Na0 Na7 3.338775 1_565
Na0 Na6 3.647277 1_555
Na0 Na6 3.647277 1_455
Na1 Na4 3.121140 1_555
Na1 Na7 3.121140 1_565
Na1 Na8 3.647277 1_455
Na1 Na8 3.647277 1_555
Na2 Na4 3.338775 1_555
Na2 Na7 3.338775 1_555
Na2 Na9 3.647277 1_455
Na2 Na9 3.647277 1_555
Na3 Na8 3.174688 1_546
Na3 Na5 3.338775 1_556
Na4 Na5 3.592315 1_555
Na4 Na5 3.592315 1_455
Na5 Na9 3.121140 1_555
Na5 Na6 3.121140 1_554
Na5 Na8 3.338775 1_555
Na10 Na7 3.121140 1_555
Na10 Na4 3.121140 1_556
Na10 Na3 3.647277 1_555
Na10 Na3 3.647277 1_455
Na11 Na9 3.121140 1_555
Na11 Na6 3.121140 1_545
Na11 Na3 3.338775 1_555
Na11 Na8 3.338775 1_545
Na11 Na7 3.592315 1_655
Na11 Na7 3.592315 1_555
Hg0 Hg2 2.893428 1_655
Hg0 Na9 3.038868 1_555
Hg0 Na1 3.127692 1_645
Hg0 Na10 3.127692 1_654
Hg0 Na2 3.136389 1_655
Hg0 Na3 3.145251 1_554
Hg0 Na8 3.145251 1_545
Hg0 Na7 3.609254 1_655
Hg0 Na4 3.609254 1_655
Hg1 Hg3 2.893428 1_555
Hg1 Na10 3.038868 1_655
Hg1 Na6 3.127692 1_555
Hg1 Na9 3.127692 1_555
Hg1 Na3 3.136389 1_555
Hg1 Na2 3.145251 1_655
Hg1 Na0 3.145251 1_655
Hg1 Na5 3.609254 1_556
Hg1 Na11 3.609254 1_555
Hg2 Na9 3.038868 1_555
Hg2 Na1 3.127692 1_545
Hg2 Na10 3.127692 1_554
Hg2 Na2 3.136389 1_555
Hg2 Na3 3.145251 1_554
Hg2 Na8 3.145251 1_545
Hg2 Na4 3.609254 1_555
Hg2 Na7 3.609254 1_555
Hg3 Na10 3.038868 1_555
Hg3 Na6 3.127692 1_555
Hg3 Na9 3.127692 1_555
Hg3 Na3 3.136389 1_555
Hg3 Na2 3.145251 1_555
Hg3 Na0 3.145251 1_555
Hg3 Na5 3.609254 1_556
Hg3 Na11 3.609254 1_555
Hg4 Hg7 2.893428 1_455
Hg4 Na6 3.038868 1_555
Hg4 Na1 3.127692 1_556
Hg4 Na10 3.127692 1_565
Hg4 Na0 3.136389 1_555
Hg4 Na8 3.145251 1_556
Hg4 Na3 3.145251 1_565
Hg4 Na4 3.609254 1_556
Hg4 Na7 3.609254 1_565
Hg5 Hg6 2.893428 1_555
Hg5 Na1 3.038868 1_555
Hg5 Na9 3.127692 1_555
Hg5 Na6 3.127692 1_555
Hg5 Na8 3.136389 1_555
Hg5 Na2 3.145251 1_555
Hg5 Na0 3.145251 1_555
Hg5 Na11 3.609254 1_565
Hg5 Na5 3.609254 1_555
Hg6 Na1 3.038868 1_655
Hg6 Na9 3.127692 1_555
Hg6 Na6 3.127692 1_555
Hg6 Na8 3.136389 1_555
Hg6 Na2 3.145251 1_655
Hg6 Na0 3.145251 1_655
Hg6 Na11 3.609254 1_565
Hg6 Na5 3.609254 1_555
Hg7 Na6 3.038868 1_555
Hg7 Na10 3.127692 1_665
Hg7 Na1 3.127692 1_656
Hg7 Na0 3.136389 1_655
Hg7 Na8 3.145251 1_556
Hg7 Na3 3.145251 1_565
Hg7 Na4 3.609254 1_656
Hg7 Na7 3.609254 1_665
