# generated using pymatgen
data_NaCu5C6
_symmetry_space_group_name_H-M   'P 1'
_cell_length_a   7.21222500
_cell_length_b   7.37401500
_cell_length_c   10.88064600
_cell_angle_alpha   90.00000000
_cell_angle_beta   90.00000000
_cell_angle_gamma   90.00000000
_symmetry_Int_Tables_number   1
_chemical_formula_structural   NaCu5C6
_chemical_formula_sum   'Na4 Cu20 C24'
_cell_volume   578.66599828
_cell_formula_units_Z   4
loop_
 _symmetry_equiv_pos_site_id
 _symmetry_equiv_pos_as_xyz
  1  'x, y, z'
loop_
 _atom_site_type_symbol
 _atom_site_label
 _atom_site_symmetry_multiplicity
 _atom_site_fract_x
 _atom_site_fract_y
 _atom_site_fract_z
 _atom_site_occupancy
  Na  Na0  1  0.32132800  0.05984400  0.75000000  1
  Na  Na1  1  0.82132800  0.44015600  0.25000000  1
  Na  Na2  1  0.17867200  0.55984400  0.75000000  1
  Na  Na3  1  0.67867200  0.94015600  0.25000000  1
  Cu  Cu0  1  0.07370000  0.09873900  0.25000000  1
  Cu  Cu1  1  0.57370000  0.40126100  0.75000000  1
  Cu  Cu2  1  0.42630000  0.59873900  0.25000000  1
  Cu  Cu3  1  0.92630000  0.90126100  0.75000000  1
  Cu  Cu4  1  0.18307000  0.05209900  0.46113000  1
  Cu  Cu5  1  0.68307000  0.44790100  0.53887000  1
  Cu  Cu6  1  0.31693000  0.55209900  0.03887000  1
  Cu  Cu7  1  0.81693000  0.94790100  0.96113000  1
  Cu  Cu8  1  0.81693000  0.94790100  0.53887000  1
  Cu  Cu9  1  0.31693000  0.55209900  0.46113000  1
  Cu  Cu10  1  0.68307000  0.44790100  0.96113000  1
  Cu  Cu11  1  0.18307000  0.05209900  0.03887000  1
  Cu  Cu12  1  0.49096800  0.19522800  0.44817900  1
  Cu  Cu13  1  0.99096800  0.30477200  0.55182100  1
  Cu  Cu14  1  0.00903200  0.69522800  0.05182100  1
  Cu  Cu15  1  0.50903200  0.80477200  0.94817900  1
  Cu  Cu16  1  0.50903200  0.80477200  0.55182100  1
  Cu  Cu17  1  0.00903200  0.69522800  0.44817900  1
  Cu  Cu18  1  0.99096800  0.30477200  0.94817900  1
  Cu  Cu19  1  0.49096800  0.19522800  0.05182100  1
  C  C0  1  0.76013500  0.19640500  0.06197300  1
  C  C1  1  0.26013500  0.30359500  0.93802700  1
  C  C2  1  0.73986500  0.69640500  0.43802700  1
  C  C3  1  0.23986500  0.80359500  0.56197300  1
  C  C4  1  0.23986500  0.80359500  0.93802700  1
  C  C5  1  0.73986500  0.69640500  0.06197300  1
  C  C6  1  0.26013500  0.30359500  0.56197300  1
  C  C7  1  0.76013500  0.19640500  0.43802700  1
  C  C8  1  0.91729700  0.13889700  0.10586900  1
  C  C9  1  0.41729700  0.36110300  0.89413100  1
  C  C10  1  0.58270300  0.63889700  0.39413100  1
  C  C11  1  0.08270300  0.86110300  0.60586900  1
  C  C12  1  0.08270300  0.86110300  0.89413100  1
  C  C13  1  0.58270300  0.63889700  0.10586900  1
  C  C14  1  0.41729700  0.36110300  0.60586900  1
  C  C15  1  0.91729700  0.13889700  0.39413100  1
  C  C16  1  0.35368200  0.08541800  0.19086200  1
  C  C17  1  0.85368200  0.41458200  0.80913800  1
  C  C18  1  0.14631800  0.58541800  0.30913800  1
  C  C19  1  0.64631800  0.91458200  0.69086200  1
  C  C20  1  0.64631800  0.91458200  0.80913800  1
  C  C21  1  0.14631800  0.58541800  0.19086200  1
  C  C22  1  0.85368200  0.41458200  0.69086200  1
  C  C23  1  0.35368200  0.08541800  0.30913800  1
loop_
_geom_bond_atom_site_label_1
_geom_bond_atom_site_label_2
_geom_bond_distance
_geom_bond_site_symmetry_2
C0 C8 1.301055 1_555
C0 Cu19 1.944452 1_555
C0 Cu7 2.174781 1_544
C0 Cu18 2.223332 1_554
C0 Cu10 2.225344 1_554
C0 Na1 2.758810 1_555
C0 Na3 2.846268 1_545
C1 C9 1.301055 1_555
C1 Cu18 1.944452 1_455
C1 Cu6 2.174781 1_556
C1 Cu19 2.223332 1_556
C1 Cu11 2.225344 1_556
C1 Na0 2.758810 1_555
C1 Na2 2.846268 1_555
C2 Cu17 1.944452 1_655
C2 Cu5 2.174781 1_555
C2 Cu16 2.223332 1_555
C2 Cu8 2.225344 1_555
C2 Na3 2.758810 1_555
C2 Na1 2.846268 1_555
C3 Cu16 1.944452 1_555
C3 Cu4 2.174781 1_565
C3 Cu17 2.223332 1_555
C3 Cu9 2.225344 1_555
C3 Na2 2.758810 1_555
C3 Na0 2.846268 1_565
C4 Cu15 1.944452 1_555
C4 Cu11 2.174781 1_566
C4 Cu14 2.223332 1_556
C4 Cu6 2.225344 1_556
C4 Na2 2.758810 1_555
C4 Na0 2.846268 1_565
C5 Cu14 1.944452 1_655
C5 Cu10 2.174781 1_554
C5 Cu15 2.223332 1_554
C5 Cu7 2.225344 1_554
C5 Na3 2.758810 1_555
C5 Na1 2.846268 1_555
C6 Cu13 1.944452 1_455
C6 Cu9 2.174781 1_555
C6 Cu12 2.223332 1_555
C6 Cu4 2.225344 1_555
C6 Na0 2.758810 1_555
C6 Na2 2.846268 1_555
C7 Cu12 1.944452 1_555
C7 Cu8 2.174781 1_545
C7 Cu13 2.223332 1_555
C7 Cu5 2.225344 1_555
C7 Na1 2.758810 1_555
C7 Na3 2.846268 1_545
C8 Cu0 1.954348 1_655
C8 Cu11 2.148318 1_655
C8 Cu18 2.173087 1_554
C8 Cu7 2.233330 1_544
C8 Na3 2.751185 1_545
C8 Na1 2.805968 1_555
C9 Cu1 1.954348 1_555
C9 Cu10 2.148318 1_555
C9 Cu19 2.173087 1_556
C9 Cu6 2.233330 1_556
C9 Na2 2.751185 1_555
C9 Na0 2.805968 1_555
C10 C2 1.301055 1_555
C10 Cu2 1.954348 1_555
C10 Cu9 2.148318 1_555
C10 Cu16 2.173087 1_555
C10 Cu5 2.233330 1_555
C10 Na1 2.751185 1_555
C10 Na3 2.805968 1_555
C11 C3 1.301055 1_555
C11 Cu3 1.954348 1_455
C11 Cu8 2.148318 1_455
C11 Cu17 2.173087 1_555
C11 Cu4 2.233330 1_565
C11 Na0 2.751185 1_565
C11 Na2 2.805968 1_555
C12 C4 1.301055 1_555
C12 Cu3 1.954348 1_455
C12 Cu7 2.148318 1_455
C12 Cu14 2.173087 1_556
C12 Cu11 2.233330 1_566
C12 Na0 2.751185 1_565
C12 Na2 2.805968 1_555
C13 C5 1.301055 1_555
C13 Cu2 1.954348 1_555
C13 Cu6 2.148318 1_555
C13 Cu15 2.173087 1_554
C13 Cu10 2.233330 1_554
C13 Na1 2.751185 1_555
C13 Na3 2.805968 1_555
C14 C6 1.301055 1_555
C14 Cu1 1.954348 1_555
C14 Cu5 2.148318 1_555
C14 Cu12 2.173087 1_555
C14 Cu9 2.233330 1_555
C14 Na2 2.751185 1_555
C14 Na0 2.805968 1_555
C15 C7 1.301055 1_555
C15 Cu0 1.954348 1_655
C15 Cu4 2.148318 1_655
C15 Cu13 2.173087 1_555
C15 Cu8 2.233330 1_545
C15 Na3 2.751185 1_545
C15 Na1 2.805968 1_555
C16 C23 1.286919 1_555
C16 Cu19 1.981107 1_555
C16 Cu11 2.075918 1_555
C16 Cu0 2.121611 1_555
C16 Na3 2.656182 1_545
C17 C22 1.286919 1_555
C17 Cu18 1.981107 1_555
C17 Cu10 2.075918 1_555
C17 Cu1 2.121611 1_555
C17 Na2 2.656182 1_655
C18 C21 1.286919 1_555
C18 Cu17 1.981107 1_555
C18 Cu9 2.075918 1_555
C18 Cu2 2.121611 1_555
C18 Na1 2.656182 1_455
C19 C20 1.286919 1_555
C19 Cu16 1.981107 1_555
C19 Cu8 2.075918 1_555
C19 Cu3 2.121611 1_555
C19 Na0 2.656182 1_565
C20 Cu15 1.981107 1_555
C20 Cu7 2.075918 1_555
C20 Cu3 2.121611 1_555
C20 Na0 2.656182 1_565
C21 Cu14 1.981107 1_555
C21 Cu6 2.075918 1_555
C21 Cu2 2.121611 1_555
C21 Na1 2.656182 1_455
C22 Cu13 1.981107 1_555
C22 Cu5 2.075918 1_555
C22 Cu1 2.121611 1_555
C22 Na2 2.656182 1_655
C23 Cu12 1.981107 1_555
C23 Cu4 2.075918 1_555
C23 Cu0 2.121611 1_555
C23 Na3 2.656182 1_545
