# generated using pymatgen
data_KEu2Si4O10F
_symmetry_space_group_name_H-M   'P 1'
_cell_length_a   8.58657000
_cell_length_b   11.58420500
_cell_length_c   13.00844455
_cell_angle_alpha   56.61107420
_cell_angle_beta   90.00000000
_cell_angle_gamma   90.00000000
_symmetry_Int_Tables_number   1
_chemical_formula_structural   KEu2Si4O10F
_chemical_formula_sum   'K4 Eu8 Si16 O40 F4'
_cell_volume   1080.37368246
_cell_formula_units_Z   4
loop_
 _symmetry_equiv_pos_site_id
 _symmetry_equiv_pos_as_xyz
  1  'x, y, z'
loop_
 _atom_site_type_symbol
 _atom_site_label
 _atom_site_symmetry_multiplicity
 _atom_site_fract_x
 _atom_site_fract_y
 _atom_site_fract_z
 _atom_site_occupancy
  K  K0  1  0.21697600  0.89238500  0.57390900  1
  K  K1  1  0.78302400  0.10761500  0.42609100  1
  K  K2  1  0.71697600  0.10761500  0.92609100  1
  K  K3  1  0.28302400  0.89238500  0.07390900  1
  Eu  Eu0  1  0.02092100  0.56593700  0.22027800  1
  Eu  Eu1  1  0.52092100  0.43406300  0.27972200  1
  Eu  Eu2  1  0.71786900  0.41806200  0.03942300  1
  Eu  Eu3  1  0.47907900  0.56593700  0.72027800  1
  Eu  Eu4  1  0.97907900  0.43406300  0.77972200  1
  Eu  Eu5  1  0.21786900  0.58193800  0.46057700  1
  Eu  Eu6  1  0.78213100  0.41806200  0.53942300  1
  Eu  Eu7  1  0.28213100  0.58193800  0.96057700  1
  Si  Si0  1  0.87654600  0.74465000  0.50400700  1
  Si  Si1  1  0.37654600  0.25535000  0.99599300  1
  Si  Si2  1  0.46659900  0.12468600  0.25742200  1
  Si  Si3  1  0.84130500  0.75292200  0.73109700  1
  Si  Si4  1  0.47472800  0.19225300  0.58452600  1
  Si  Si5  1  0.53340100  0.87531400  0.74257800  1
  Si  Si6  1  0.52527200  0.80774700  0.41547400  1
  Si  Si7  1  0.03340100  0.12468600  0.75742200  1
  Si  Si8  1  0.02527200  0.19225300  0.08452600  1
  Si  Si9  1  0.34130500  0.24707800  0.76890300  1
  Si  Si10  1  0.12345400  0.25535000  0.49599300  1
  Si  Si11  1  0.97472800  0.80774700  0.91547400  1
  Si  Si12  1  0.15869500  0.24707800  0.26890300  1
  Si  Si13  1  0.62345400  0.74465000  0.00400700  1
  Si  Si14  1  0.65869500  0.75292200  0.23109700  1
  Si  Si15  1  0.96659900  0.87531400  0.24257800  1
  O  O0  1  0.54244400  0.59962800  0.04695500  1
  O  O1  1  0.62259400  0.26661200  0.49681200  1
  O  O2  1  0.42493800  0.75172200  0.76436700  1
  O  O3  1  0.95755600  0.59962800  0.54695500  1
  O  O4  1  0.04272600  0.02663400  0.13860100  1
  O  O5  1  0.81542400  0.73319300  0.99913600  1
  O  O6  1  0.52071300  0.78731100  0.29939100  1
  O  O7  1  0.71881800  0.59603500  0.31027400  1
  O  O8  1  0.18457600  0.26680700  0.00086400  1
  O  O9  1  0.58146700  0.79643700  0.09683900  1
  O  O10  1  0.28118200  0.40396500  0.68972600  1
  O  O11  1  0.92493800  0.24827800  0.73563300  1
  O  O12  1  0.41853300  0.20356300  0.90316100  1
  O  O13  1  0.47928700  0.21268900  0.70060900  1
  O  O14  1  0.21881800  0.40396500  0.18972600  1
  O  O15  1  0.79362500  0.87317800  0.18808400  1
  O  O16  1  0.20637500  0.12682200  0.81191600  1
  O  O17  1  0.08146700  0.20356300  0.40316100  1
  O  O18  1  0.45727400  0.02663400  0.63860100  1
  O  O19  1  0.70637500  0.87317800  0.68808400  1
  O  O20  1  0.87740600  0.26661200  0.99681200  1
  O  O21  1  0.68457600  0.73319300  0.49913600  1
  O  O22  1  0.07506200  0.75172200  0.26436700  1
  O  O23  1  0.12259400  0.73338800  0.00318800  1
  O  O24  1  0.78118200  0.59603500  0.81027400  1
  O  O25  1  0.57506200  0.24827800  0.23563300  1
  O  O26  1  0.04244400  0.40037200  0.45304500  1
  O  O27  1  0.56131600  0.87447500  0.86930100  1
  O  O28  1  0.37740600  0.73338800  0.50318800  1
  O  O29  1  0.02071300  0.21268900  0.20060900  1
  O  O30  1  0.29362500  0.12682200  0.31191600  1
  O  O31  1  0.45755600  0.40037200  0.95304500  1
  O  O32  1  0.54272600  0.97336600  0.36139900  1
  O  O33  1  0.91853300  0.79643700  0.59683900  1
  O  O34  1  0.06131600  0.12552500  0.63069900  1
  O  O35  1  0.97928700  0.78731100  0.79939100  1
  O  O36  1  0.43868400  0.12552500  0.13069900  1
  O  O37  1  0.95727400  0.97336600  0.86139900  1
  O  O38  1  0.93868400  0.87447500  0.36930100  1
  O  O39  1  0.31542400  0.26680700  0.50086400  1
  F  F0  1  0.31527200  0.57143900  0.28950900  1
  F  F1  1  0.68472800  0.42856100  0.71049100  1
  F  F2  1  0.81527200  0.42856100  0.21049100  1
  F  F3  1  0.18472800  0.57143900  0.78950900  1
loop_
_geom_bond_atom_site_label_1
_geom_bond_atom_site_label_2
_geom_bond_distance
_geom_bond_site_symmetry_2
K0 O33 2.743427 1_455
K0 O2 2.745676 1_555
K0 O28 2.828670 1_555
K0 O18 2.970613 1_565
K0 O30 3.039194 1_565
K0 O35 3.212618 1_455
K0 O17 3.235603 1_565
K1 O17 2.743427 1_655
K1 O25 2.745676 1_555
K1 O1 2.828670 1_555
K1 O32 2.970613 1_545
K1 O19 3.039194 1_545
K1 O29 3.212618 1_655
K1 O33 3.235603 1_545
K2 O12 2.743427 1_555
K2 O11 2.745676 1_555
K2 O20 2.828670 1_555
K2 O37 2.970613 1_545
K2 O15 3.039194 1_546
K2 O13 3.212618 1_555
K2 O9 3.235603 1_546
K3 O9 2.743427 1_555
K3 O22 2.745676 1_555
K3 O23 2.828670 1_555
K3 O4 2.970613 1_565
K3 O16 3.039194 1_564
K3 O6 3.212618 1_555
K3 O12 3.235603 1_564
Eu0 F2 2.426902 1_455
Eu0 O23 2.543752 1_555
Eu0 O26 2.547390 1_555
Eu0 O22 2.556453 1_555
Eu0 F0 2.695622 1_555
Eu0 O14 2.717858 1_555
Eu0 O7 2.944548 1_455
Eu0 O5 3.001393 1_454
Eu1 F0 2.426902 1_555
Eu1 O1 2.543752 1_555
Eu1 O0 2.547390 1_555
Eu1 O25 2.556453 1_555
Eu1 F2 2.695622 1_555
Eu1 O7 2.717858 1_555
Eu1 O14 2.944548 1_555
Eu1 O39 3.001393 1_555
Eu2 F2 2.442184 1_555
Eu2 O20 2.516383 1_554
Eu2 O25 2.522176 1_555
Eu2 O31 2.560099 1_554
Eu2 O24 2.582165 1_554
Eu2 O0 2.632341 1_555
Eu3 F1 2.426902 1_555
Eu3 O28 2.543752 1_555
Eu3 O31 2.547390 1_555
Eu3 O2 2.556453 1_555
Eu3 F3 2.695622 1_555
Eu3 O10 2.717858 1_555
Eu3 O24 2.944548 1_555
Eu3 O21 3.001393 1_555
Eu4 F3 2.426902 1_655
Eu4 O20 2.543752 1_555
Eu4 O3 2.547390 1_555
Eu4 O11 2.556453 1_555
Eu4 F1 2.695622 1_555
Eu4 O24 2.717858 1_555
Eu4 O10 2.944548 1_655
Eu4 O8 3.001393 1_656
Eu5 F0 2.442184 1_555
Eu5 O28 2.516383 1_555
Eu5 O22 2.522176 1_555
Eu5 O3 2.560099 1_455
Eu5 O10 2.582165 1_555
Eu5 O26 2.632341 1_555
Eu6 F1 2.442184 1_555
Eu6 O1 2.516383 1_555
Eu6 O11 2.522176 1_555
Eu6 O26 2.560099 1_655
Eu6 O7 2.582165 1_555
Eu6 O3 2.632341 1_555
Eu7 F3 2.442184 1_555
Eu7 O23 2.516383 1_556
Eu7 O2 2.522176 1_555
Eu7 O0 2.560099 1_556
Eu7 O14 2.582165 1_556
Eu7 O31 2.632341 1_555
O0 Si13 1.607867 1_555
O1 Si4 1.604427 1_555
O2 Si5 1.597143 1_555
O3 Si0 1.607867 1_555
O4 Si8 1.647048 1_555
O4 Si15 1.649216 1_445
O5 Si13 1.657706 1_556
O5 Si11 1.663395 1_555
O6 Si6 1.652669 1_555
O6 Si14 1.655660 1_555
O7 Si14 1.603145 1_555
O8 Si1 1.657706 1_554
O8 Si8 1.663395 1_555
O9 Si13 1.656964 1_555
O9 Si14 1.665855 1_555
O10 Si9 1.603145 1_555
O11 Si7 1.597143 1_655
O12 Si1 1.656964 1_555
O12 Si9 1.665855 1_555
O13 Si4 1.652669 1_555
O13 Si9 1.655660 1_555
O14 Si12 1.603145 1_555
O15 Si15 1.651790 1_555
O15 Si14 1.654730 1_555
O16 Si7 1.651790 1_555
O16 Si9 1.654730 1_555
O17 Si10 1.656964 1_555
O17 Si12 1.665855 1_555
O18 Si4 1.647048 1_555
O18 Si5 1.649216 1_545
O19 Si5 1.651790 1_555
O19 Si3 1.654730 1_555
O20 Si8 1.604427 1_656
O21 Si0 1.657706 1_555
O21 Si6 1.663395 1_555
O22 Si15 1.597143 1_455
O23 Si11 1.604427 1_454
O24 Si3 1.603145 1_555
O25 Si2 1.597143 1_555
O26 Si10 1.607867 1_555
O27 Si13 1.648182 1_556
O27 Si5 1.660531 1_555
O28 Si6 1.604427 1_555
O29 Si8 1.652669 1_555
O29 Si12 1.655660 1_555
O30 Si2 1.651790 1_555
O30 Si12 1.654730 1_555
O31 Si1 1.607867 1_555
O32 Si6 1.647048 1_555
O32 Si2 1.649216 1_565
O33 Si0 1.656964 1_555
O33 Si3 1.665855 1_555
O34 Si10 1.648182 1_555
O34 Si7 1.660531 1_555
O35 Si11 1.652669 1_555
O35 Si3 1.655660 1_555
O36 Si1 1.648182 1_554
O36 Si2 1.660531 1_555
O37 Si11 1.647048 1_555
O37 Si7 1.649216 1_665
O38 Si0 1.648182 1_555
O38 Si15 1.660531 1_555
O39 Si10 1.657706 1_555
O39 Si4 1.663395 1_555
F0 K3 3.207597 1_555
F1 K2 3.207597 1_555
F2 K1 3.207597 1_555
F3 K0 3.207597 1_555
