# generated using pymatgen
data_Ge7Ir3
_symmetry_space_group_name_H-M   'P 1'
_cell_length_a   7.54163839
_cell_length_b   7.54163856
_cell_length_c   7.54163895
_cell_angle_alpha   109.47121629
_cell_angle_beta   109.47121675
_cell_angle_gamma   109.47122410
_symmetry_Int_Tables_number   1
_chemical_formula_structural   Ge7Ir3
_chemical_formula_sum   'Ge14 Ir6'
_cell_volume   330.19864811
_cell_formula_units_Z   2
loop_
 _symmetry_equiv_pos_site_id
 _symmetry_equiv_pos_as_xyz
  1  'x, y, z'
loop_
 _atom_site_type_symbol
 _atom_site_label
 _atom_site_symmetry_multiplicity
 _atom_site_fract_x
 _atom_site_fract_y
 _atom_site_fract_z
 _atom_site_occupancy
  Ge  Ge0  1  0.50000000  0.75000000  0.25000000  1
  Ge  Ge1  1  0.75000000  0.50000000  0.25000000  1
  Ge  Ge2  1  0.25000000  0.50000000  0.75000000  1
  Ge  Ge3  1  0.75000000  0.25000000  0.50000000  1
  Ge  Ge4  1  0.25000000  0.75000000  0.50000000  1
  Ge  Ge5  1  0.50000000  0.25000000  0.75000000  1
  Ge  Ge6  1  0.33461705  0.33461705  0.33461705  1
  Ge  Ge7  1  0.33461705  0.00000000  -0.00000000  1
  Ge  Ge8  1  0.00000000  0.33461705  -0.00000000  1
  Ge  Ge9  1  -0.00000000  -0.00000000  0.33461705  1
  Ge  Ge10  1  -0.00000000  0.66538295  0.00000000  1
  Ge  Ge11  1  0.00000000  0.00000000  0.66538295  1
  Ge  Ge12  1  0.66538295  -0.00000000  0.00000000  1
  Ge  Ge13  1  0.66538295  0.66538295  0.66538295  1
  Ir  Ir0  1  -0.00000000  0.33954680  0.33954680  1
  Ir  Ir1  1  0.33954680  -0.00000000  0.33954680  1
  Ir  Ir2  1  0.66045320  0.00000000  0.66045320  1
  Ir  Ir3  1  0.66045320  0.66045320  0.00000000  1
  Ir  Ir4  1  0.33954680  0.33954680  -0.00000000  1
  Ir  Ir5  1  0.00000000  0.66045320  0.66045320  1
loop_
_geom_bond_atom_site_label_1
_geom_bond_atom_site_label_2
_geom_bond_distance
_geom_bond_site_symmetry_2
Ge0 Ir1 2.586906 1_565
Ge0 Ir3 2.586906 1_555
Ge0 Ir4 2.586906 1_555
Ge0 Ir2 2.586907 1_565
Ge1 Ir0 2.586906 1_655
Ge1 Ir3 2.586906 1_555
Ge1 Ir4 2.586906 1_555
Ge1 Ir5 2.586907 1_655
Ge2 Ir5 2.586906 1_555
Ge2 Ir4 2.586906 1_556
Ge2 Ir3 2.586906 1_556
Ge2 Ir0 2.586907 1_555
Ge3 Ir0 2.586906 1_655
Ge3 Ir2 2.586906 1_555
Ge3 Ir1 2.586906 1_555
Ge3 Ir5 2.586906 1_655
Ge4 Ir5 2.586906 1_555
Ge4 Ir1 2.586906 1_565
Ge4 Ir2 2.586906 1_565
Ge4 Ir0 2.586906 1_555
Ge5 Ir2 2.586906 1_555
Ge5 Ir4 2.586906 1_556
Ge5 Ir3 2.586906 1_556
Ge5 Ir1 2.586907 1_555
Ge6 Ir0 2.548587 1_555
Ge6 Ir1 2.548587 1_555
Ge6 Ir4 2.548588 1_555
Ge7 Ir4 2.548587 1_555
Ge7 Ir1 2.548588 1_555
Ge7 Ir5 2.548588 1_544
Ge8 Ir4 2.548587 1_555
Ge8 Ir0 2.548588 1_555
Ge8 Ir2 2.548588 1_454
Ge9 Ir1 2.548587 1_555
Ge9 Ir0 2.548588 1_555
Ge9 Ir3 2.548588 1_445
Ge10 Ge8 2.494517 1_555
Ge10 Ir3 2.548587 1_455
Ge10 Ir5 2.548588 1_554
Ge10 Ir1 2.548588 1_565
Ge11 Ge9 2.494517 1_555
Ge11 Ir2 2.548587 1_455
Ge11 Ir5 2.548588 1_545
Ge11 Ir4 2.548588 1_556
Ge12 Ge7 2.494517 1_555
Ge12 Ir3 2.548587 1_545
Ge12 Ir2 2.548588 1_554
Ge12 Ir0 2.548588 1_655
Ge13 Ge6 2.494517 1_555
Ge13 Ir5 2.548587 1_655
Ge13 Ir2 2.548587 1_565
Ge13 Ir3 2.548588 1_556
