# generated using pymatgen
data_Li2CoSiO4
_symmetry_space_group_name_H-M   'P 1'
_cell_length_a   5.01353400
_cell_length_b   6.31821900
_cell_length_c   10.78928900
_cell_angle_alpha   90.00160209
_cell_angle_beta   90.00012086
_cell_angle_gamma   90.00020260
_symmetry_Int_Tables_number   1
_chemical_formula_structural   Li2CoSiO4
_chemical_formula_sum   'Li8 Co4 Si4 O16'
_cell_volume   341.76805419
_cell_formula_units_Z   4
loop_
 _symmetry_equiv_pos_site_id
 _symmetry_equiv_pos_as_xyz
  1  'x, y, z'
loop_
 _atom_site_type_symbol
 _atom_site_label
 _atom_site_symmetry_multiplicity
 _atom_site_fract_x
 _atom_site_fract_y
 _atom_site_fract_z
 _atom_site_occupancy
  Li  Li0  1  0.25741900  0.50180400  0.66206700  1
  Li  Li1  1  0.75742000  0.49819600  0.33793200  1
  Li  Li2  1  0.75742900  0.00180300  0.83792900  1
  Li  Li3  1  0.25742900  0.99819900  0.16207100  1
  Li  Li4  1  0.25672600  0.75736500  0.92207300  1
  Li  Li5  1  0.75672700  0.24263500  0.07792700  1
  Li  Li6  1  0.75672400  0.25735800  0.57792800  1
  Li  Li7  1  0.25672400  0.74264200  0.42207100  1
  Co  Co0  1  0.76036300  0.50848800  0.83574400  1
  Co  Co1  1  0.26036100  0.49151600  0.16425300  1
  Co  Co2  1  0.26037700  0.00850000  0.66425300  1
  Co  Co3  1  0.76038000  0.99149800  0.33574600  1
  Si  Si0  1  0.26379300  0.25214000  0.91308800  1
  Si  Si1  1  0.76378600  0.74786700  0.08691400  1
  Si  Si2  1  0.76382600  0.75217800  0.58691900  1
  Si  Si3  1  0.26383600  0.24781600  0.41308000  1
  O  O0  1  0.59360900  0.25405700  0.90968600  1
  O  O1  1  0.09360400  0.74594300  0.09031900  1
  O  O2  1  0.09364900  0.75406700  0.59030400  1
  O  O3  1  0.59366500  0.24593100  0.40970000  1
  O  O4  1  0.15752100  0.24653100  0.05831400  1
  O  O5  1  0.65751800  0.75347800  0.94168400  1
  O  O6  1  0.65754700  0.74655200  0.44169100  1
  O  O7  1  0.15754800  0.25344300  0.55831000  1
  O  O8  1  0.15770100  0.46915900  0.84155200  1
  O  O9  1  0.65769000  0.53084800  0.15844500  1
  O  O10  1  0.65770800  0.96917200  0.65847600  1
  O  O11  1  0.15770900  0.03081800  0.34152300  1
  O  O12  1  0.15556500  0.03664800  0.84144400  1
  O  O13  1  0.65555400  0.96335800  0.15855600  1
  O  O14  1  0.65563600  0.53663100  0.65855100  1
  O  O15  1  0.15565400  0.46336200  0.34144900  1
loop_
_geom_bond_atom_site_label_1
_geom_bond_atom_site_label_2
_geom_bond_distance
_geom_bond_site_symmetry_2
Li0 O2 1.952969 1_555
Li0 O7 1.991529 1_555
Li0 O14 2.008922 1_555
Li0 O8 2.010622 1_555
Li1 O3 1.952966 1_555
Li1 O6 1.991523 1_555
Li1 O15 2.009013 1_655
Li1 O9 2.010660 1_555
Li2 O0 1.952969 1_555
Li2 O5 1.991438 1_545
Li2 O12 2.008530 1_655
Li2 O10 2.010271 1_545
Li3 O1 1.952962 1_555
Li3 O4 1.991483 1_565
Li3 O13 2.008474 1_555
Li3 O11 2.010254 1_565
Li4 O1 1.992284 1_556
Li4 O5 2.020643 1_555
Li4 O12 2.031700 1_565
Li4 O8 2.077736 1_555
Li5 O0 1.992224 1_554
Li5 O4 2.020656 1_655
Li5 O13 2.031680 1_545
Li5 O9 2.077779 1_555
Li6 O3 1.991972 1_555
Li6 O7 2.020813 1_655
Li6 O14 2.031485 1_555
Li6 O10 2.077780 1_545
Li7 O2 1.992057 1_555
Li7 O6 2.020809 1_555
Li7 O15 2.031492 1_555
Li7 O11 2.077725 1_565
Co0 O0 1.979818 1_555
Co0 O14 1.990538 1_555
Co0 O5 1.992048 1_555
Co0 O8 2.008485 1_655
Co1 O1 1.979773 1_555
Co1 O15 1.990550 1_555
Co1 O4 1.992006 1_555
Co1 O9 2.008441 1_555
Co2 O2 1.979766 1_545
Co2 O12 1.990625 1_555
Co2 O7 1.991863 1_555
Co2 O10 2.008439 1_545
Co3 O3 1.979767 1_565
Co3 O13 1.990626 1_555
Co3 O6 1.991894 1_555
Co3 O11 2.008420 1_665
O0 Si0 1.653995 1_555
O1 Si1 1.654006 1_455
O2 Si2 1.654025 1_455
O3 Si3 1.654054 1_555
O4 Si0 1.655375 1_554
O5 Si1 1.655407 1_556
O6 Si2 1.655405 1_555
O7 Si3 1.655442 1_555
O8 Si0 1.660964 1_555
O9 Si1 1.660944 1_555
O10 Si2 1.660947 1_555
O11 Si3 1.660978 1_555
O12 Si0 1.656990 1_555
O13 Si1 1.656986 1_555
O14 Si2 1.657190 1_555
O15 Si3 1.657168 1_555
