# generated using pymatgen
data_NaHf2CuSe5
_symmetry_space_group_name_H-M   'P 1'
_cell_length_a   7.22723206
_cell_length_b   7.22723206
_cell_length_c   16.29189000
_cell_angle_alpha   90.00000000
_cell_angle_beta   90.00000000
_cell_angle_gamma   149.56735233
_symmetry_Int_Tables_number   1
_chemical_formula_structural   NaHf2CuSe5
_chemical_formula_sum   'Na2 Hf4 Cu2 Se10'
_cell_volume   431.03891715
_cell_formula_units_Z   2
loop_
 _symmetry_equiv_pos_site_id
 _symmetry_equiv_pos_as_xyz
  1  'x, y, z'
loop_
 _atom_site_type_symbol
 _atom_site_label
 _atom_site_symmetry_multiplicity
 _atom_site_fract_x
 _atom_site_fract_y
 _atom_site_fract_z
 _atom_site_occupancy
  Na  Na0  1  0.03385000  0.96615000  0.25000000  1
  Na  Na1  1  0.96615000  0.03385000  0.75000000  1
  Hf  Hf0  1  0.20937700  0.79062300  0.90156100  1
  Hf  Hf1  1  0.79062300  0.20937700  0.40156100  1
  Hf  Hf2  1  0.20937700  0.79062300  0.59843900  1
  Hf  Hf3  1  0.79062300  0.20937700  0.09843900  1
  Cu  Cu0  1  0.32254600  0.67745400  0.25000000  1
  Cu  Cu1  1  0.67745400  0.32254600  0.75000000  1
  Se  Se0  1  0.15981700  0.84018300  0.43930400  1
  Se  Se1  1  0.84018300  0.15981700  0.93930400  1
  Se  Se2  1  0.29103600  0.70896400  0.75000000  1
  Se  Se3  1  0.42236200  0.57763800  0.37184800  1
  Se  Se4  1  0.15981700  0.84018300  0.06069600  1
  Se  Se5  1  0.57763800  0.42236200  0.87184800  1
  Se  Se6  1  0.57763800  0.42236200  0.62815200  1
  Se  Se7  1  0.42236200  0.57763800  0.12815200  1
  Se  Se8  1  0.84018300  0.15981700  0.56069600  1
  Se  Se9  1  0.70896400  0.29103600  0.25000000  1
loop_
_geom_bond_atom_site_label_1
_geom_bond_atom_site_label_2
_geom_bond_distance
_geom_bond_site_symmetry_2
Na0 Se9 3.092524 1_565
Na0 Se9 3.092524 1_455
Na0 Se3 3.155468 1_565
Na0 Se3 3.155468 1_455
Na0 Se7 3.155468 1_565
Na0 Se7 3.155468 1_455
Na1 Se2 3.092524 1_655
Na1 Se2 3.092524 1_545
Na1 Se5 3.155468 1_655
Na1 Se5 3.155468 1_545
Na1 Se6 3.155468 1_655
Na1 Se6 3.155468 1_545
Hf0 Se4 2.683179 1_556
Hf0 Se5 2.684916 1_565
Hf0 Se5 2.684916 1_455
Hf0 Se1 2.702757 1_455
Hf0 Se1 2.702757 1_565
Hf0 Se2 2.719236 1_555
Hf1 Se8 2.683179 1_555
Hf1 Se3 2.684916 1_545
Hf1 Se3 2.684916 1_655
Hf1 Se0 2.702757 1_545
Hf1 Se0 2.702757 1_655
Hf1 Se9 2.719236 1_555
Hf2 Se0 2.683179 1_555
Hf2 Se6 2.684916 1_565
Hf2 Se6 2.684916 1_455
Hf2 Se8 2.702757 1_455
Hf2 Se8 2.702757 1_565
Hf2 Se2 2.719236 1_555
Hf3 Se1 2.683179 1_554
Hf3 Se7 2.684916 1_655
Hf3 Se7 2.684916 1_545
Hf3 Se4 2.702757 1_545
Hf3 Se4 2.702757 1_655
Hf3 Se9 2.719236 1_555
Cu0 Se3 2.424664 1_555
Cu0 Se7 2.424664 1_555
Cu0 Se9 2.471418 1_565
Cu0 Se9 2.471418 1_455
Cu1 Se5 2.424664 1_555
Cu1 Se6 2.424664 1_555
Cu1 Se2 2.471418 1_655
Cu1 Se2 2.471418 1_545
