# generated using pymatgen
data_Mn6P7O24
_symmetry_space_group_name_H-M   'P 1'
_cell_length_a   27.07481400
_cell_length_b   5.39374800
_cell_length_c   6.56135365
_cell_angle_alpha   72.64051085
_cell_angle_beta   90.00000000
_cell_angle_gamma   90.00000000
_symmetry_Int_Tables_number   1
_chemical_formula_structural   Mn6P7O24
_chemical_formula_sum   'Mn12 P14 O48'
_cell_volume   914.54158198
_cell_formula_units_Z   2
loop_
 _symmetry_equiv_pos_site_id
 _symmetry_equiv_pos_as_xyz
  1  'x, y, z'
loop_
 _atom_site_type_symbol
 _atom_site_label
 _atom_site_symmetry_multiplicity
 _atom_site_fract_x
 _atom_site_fract_y
 _atom_site_fract_z
 _atom_site_occupancy
  Mn  Mn0  1  0.10060800  0.21137500  0.91271600  1
  Mn  Mn1  1  0.68581300  0.12271100  0.71436800  1
  Mn  Mn2  1  0.54602000  0.18711800  0.31473600  1
  Mn  Mn3  1  0.18581300  0.87728900  0.28563200  1
  Mn  Mn4  1  0.31418700  0.87728900  0.28563200  1
  Mn  Mn5  1  0.39939200  0.21137500  0.91271600  1
  Mn  Mn6  1  0.81418700  0.12271100  0.71436800  1
  Mn  Mn7  1  0.45398000  0.81288200  0.68526400  1
  Mn  Mn8  1  0.04602000  0.81288200  0.68526400  1
  Mn  Mn9  1  0.89939200  0.78862500  0.08728400  1
  Mn  Mn10  1  0.60060800  0.78862500  0.08728400  1
  Mn  Mn11  1  0.95398000  0.18711800  0.31473600  1
  P  P0  1  0.83124100  0.24729000  0.19039600  1
  P  P1  1  0.02422700  0.70908200  0.20452100  1
  P  P2  1  0.75000000  0.54055400  0.90551700  1
  P  P3  1  0.16875900  0.75271000  0.80960400  1
  P  P4  1  0.38998700  0.32208300  0.38262300  1
  P  P5  1  0.33124100  0.75271000  0.80960400  1
  P  P6  1  0.47577300  0.70908200  0.20452100  1
  P  P7  1  0.66875900  0.24729000  0.19039600  1
  P  P8  1  0.11001300  0.32208300  0.38262300  1
  P  P9  1  0.25000000  0.45944600  0.09448300  1
  P  P10  1  0.97577300  0.29091800  0.79547900  1
  P  P11  1  0.61001300  0.67791700  0.61737700  1
  P  P12  1  0.88998700  0.67791700  0.61737700  1
  P  P13  1  0.52422700  0.29091800  0.79547900  1
  O  O0  1  0.20339400  0.50779400  0.93989200  1
  O  O1  1  0.79660600  0.49220600  0.06010800  1
  O  O2  1  0.66443900  0.06808800  0.04536400  1
  O  O3  1  0.25000000  0.17152600  0.21331800  1
  O  O4  1  0.04762900  0.87515400  0.99489800  1
  O  O5  1  0.35188500  0.52210300  0.38528300  1
  O  O6  1  0.47427400  0.41213600  0.82519400  1
  O  O7  1  0.75000000  0.82847400  0.78668200  1
  O  O8  1  0.19322200  0.88479300  0.59749100  1
  O  O9  1  0.14811500  0.52210300  0.38528300  1
  O  O10  1  0.29660600  0.50779400  0.93989200  1
  O  O11  1  0.97427400  0.58786400  0.17480600  1
  O  O12  1  0.88012900  0.38724100  0.20645400  1
  O  O13  1  0.30677800  0.88479300  0.59749100  1
  O  O14  1  0.16443900  0.93191200  0.95463600  1
  O  O15  1  0.83556100  0.06808800  0.04536400  1
  O  O16  1  0.47833000  0.85875500  0.36981600  1
  O  O17  1  0.69322200  0.11520700  0.40250900  1
  O  O18  1  0.37734300  0.15471400  0.23476700  1
  O  O19  1  0.75000000  0.34607800  0.77877600  1
  O  O20  1  0.80677800  0.11520700  0.40250900  1
  O  O21  1  0.61987100  0.38724100  0.20645400  1
  O  O22  1  0.09556500  0.14519600  0.60671400  1
  O  O23  1  0.87734300  0.84528600  0.76523300  1
  O  O24  1  0.54762900  0.12484600  0.00510200  1
  O  O25  1  0.40443500  0.14519600  0.60671400  1
  O  O26  1  0.02572600  0.41213600  0.82519400  1
  O  O27  1  0.05786800  0.45466200  0.29092500  1
  O  O28  1  0.97833000  0.14124500  0.63018400  1
  O  O29  1  0.85188500  0.47789700  0.61471700  1
  O  O30  1  0.95237100  0.12484600  0.00510200  1
  O  O31  1  0.70339400  0.49220600  0.06010800  1
  O  O32  1  0.52167000  0.14124500  0.63018400  1
  O  O33  1  0.38012900  0.61275900  0.79354600  1
  O  O34  1  0.44213200  0.45466200  0.29092500  1
  O  O35  1  0.59556500  0.85480400  0.39328600  1
  O  O36  1  0.25000000  0.65392200  0.22122400  1
  O  O37  1  0.45237100  0.87515400  0.99489800  1
  O  O38  1  0.11987100  0.61275900  0.79354600  1
  O  O39  1  0.64811500  0.47789700  0.61471700  1
  O  O40  1  0.62265700  0.84528600  0.76523300  1
  O  O41  1  0.12265700  0.15471400  0.23476700  1
  O  O42  1  0.55786800  0.54533800  0.70907500  1
  O  O43  1  0.90443500  0.85480400  0.39328600  1
  O  O44  1  0.02167000  0.85875500  0.36981600  1
  O  O45  1  0.52572600  0.58786400  0.17480600  1
  O  O46  1  0.33556100  0.93191200  0.95463600  1
  O  O47  1  0.94213200  0.54533800  0.70907500  1
loop_
_geom_bond_atom_site_label_1
_geom_bond_atom_site_label_2
_geom_bond_distance
_geom_bond_site_symmetry_2
Mn0 O41 2.128277 1_556
Mn0 O38 2.135488 1_555
Mn0 O22 2.145912 1_555
Mn0 O4 2.247994 1_545
Mn0 O14 2.255456 1_545
Mn0 O26 2.289475 1_555
Mn1 O17 2.068406 1_555
Mn1 O39 2.095714 1_555
Mn1 O2 2.180942 1_556
Mn1 O19 2.225770 1_555
Mn1 O40 2.230775 1_545
Mn1 O7 2.305342 1_545
Mn2 O32 2.115229 1_555
Mn2 O45 2.152393 1_555
Mn2 O24 2.156243 1_555
Mn2 O35 2.174061 1_545
Mn2 O21 2.282605 1_555
Mn2 O16 2.498849 1_545
Mn3 O8 2.068406 1_555
Mn3 O9 2.095714 1_555
Mn3 O14 2.180942 1_554
Mn3 O36 2.225770 1_555
Mn3 O41 2.230775 1_565
Mn3 O3 2.305342 1_565
Mn4 O13 2.068406 1_555
Mn4 O5 2.095714 1_555
Mn4 O46 2.180942 1_554
Mn4 O36 2.225770 1_555
Mn4 O18 2.230775 1_565
Mn4 O3 2.305342 1_565
Mn5 O18 2.128277 1_556
Mn5 O33 2.135488 1_555
Mn5 O25 2.145912 1_555
Mn5 O37 2.247994 1_545
Mn5 O46 2.255456 1_545
Mn5 O6 2.289475 1_555
Mn6 O20 2.068406 1_555
Mn6 O29 2.095714 1_555
Mn6 O15 2.180942 1_556
Mn6 O19 2.225770 1_555
Mn6 O23 2.230775 1_545
Mn6 O7 2.305342 1_545
Mn7 O16 2.115229 1_555
Mn7 O6 2.152393 1_555
Mn7 O37 2.156243 1_555
Mn7 O25 2.174061 1_565
Mn7 O33 2.282605 1_555
Mn7 O32 2.498849 1_565
Mn8 O44 2.115229 1_555
Mn8 O26 2.152393 1_555
Mn8 O4 2.156243 1_555
Mn8 O22 2.174061 1_565
Mn8 O38 2.282605 1_555
Mn8 O28 2.498849 1_465
Mn9 O23 2.128277 1_554
Mn9 O12 2.135488 1_555
Mn9 O43 2.145912 1_555
Mn9 O30 2.247994 1_565
Mn9 O15 2.255456 1_565
Mn9 O11 2.289475 1_555
Mn10 O40 2.128277 1_554
Mn10 O21 2.135488 1_555
Mn10 O35 2.145912 1_555
Mn10 O24 2.247994 1_565
Mn10 O2 2.255456 1_565
Mn10 O45 2.289475 1_555
Mn11 O28 2.115229 1_555
Mn11 O11 2.152393 1_555
Mn11 O30 2.156243 1_555
Mn11 O43 2.174061 1_545
Mn11 O12 2.282605 1_555
Mn11 O44 2.498849 1_645
O0 P9 1.591000 1_556
O0 P3 1.637480 1_555
O1 P2 1.591000 1_554
O1 P0 1.637480 1_555
O2 P7 1.549956 1_555
O3 P9 1.515619 1_555
O4 P1 1.536356 1_556
O5 P4 1.496557 1_555
O6 P13 1.539718 1_555
O7 P2 1.515619 1_555
O8 P3 1.513778 1_555
O9 P8 1.496557 1_555
O10 P9 1.591000 1_556
O10 P5 1.637480 1_555
O11 P1 1.539718 1_655
O12 P0 1.542848 1_555
O13 P5 1.513778 1_555
O14 P3 1.549956 1_555
O15 P0 1.549956 1_555
O16 P6 1.534688 1_555
O17 P7 1.513778 1_555
O18 P4 1.547875 1_555
O19 P2 1.520652 1_555
O20 P0 1.513778 1_555
O21 P7 1.542848 1_555
O22 P8 1.545343 1_555
O23 P12 1.547875 1_555
O24 P13 1.536356 1_554
O25 P4 1.545343 1_555
O26 P10 1.539718 1_455
O27 P1 1.603092 1_555
O27 P8 1.615502 1_555
O28 P10 1.534688 1_555
O29 P12 1.496557 1_555
O30 P10 1.536356 1_554
O31 P2 1.591000 1_554
O31 P7 1.637480 1_555
O32 P13 1.534688 1_555
O33 P5 1.542848 1_555
O34 P6 1.603092 1_555
O34 P4 1.615502 1_555
O35 P11 1.545343 1_555
O36 P9 1.520652 1_555
O37 P6 1.536356 1_556
O38 P3 1.542848 1_555
O39 P11 1.496557 1_555
O40 P11 1.547875 1_555
O41 P8 1.547875 1_555
O42 P13 1.603092 1_555
O42 P11 1.615502 1_555
O43 P12 1.545343 1_555
O44 P1 1.534688 1_555
O45 P6 1.539718 1_555
O46 P5 1.549956 1_555
O47 P10 1.603092 1_555
O47 P12 1.615502 1_555
