# generated using pymatgen
data_Cr6Si7Ni16
_symmetry_space_group_name_H-M   'P 1'
_cell_length_a   7.81529770
_cell_length_b   7.81529770
_cell_length_c   7.81529770
_cell_angle_alpha   60.00000000
_cell_angle_beta   60.00000000
_cell_angle_gamma   60.00000000
_symmetry_Int_Tables_number   1
_chemical_formula_structural   Cr6Si7Ni16
_chemical_formula_sum   'Cr6 Si7 Ni16'
_cell_volume   337.53715024
_cell_formula_units_Z   1
loop_
 _symmetry_equiv_pos_site_id
 _symmetry_equiv_pos_as_xyz
  1  'x, y, z'
loop_
 _atom_site_type_symbol
 _atom_site_label
 _atom_site_symmetry_multiplicity
 _atom_site_fract_x
 _atom_site_fract_y
 _atom_site_fract_z
 _atom_site_occupancy
  Cr  Cr0  1  0.18802800  0.18802800  0.81197200  1
  Cr  Cr1  1  0.18802800  0.81197200  0.81197200  1
  Cr  Cr2  1  0.81197200  0.18802800  0.18802800  1
  Cr  Cr3  1  0.18802800  0.81197200  0.18802800  1
  Cr  Cr4  1  0.81197200  0.18802800  0.81197200  1
  Cr  Cr5  1  0.81197200  0.81197200  0.18802800  1
  Si  Si0  1  0.50000000  0.50000000  0.50000000  1
  Si  Si1  1  0.50000000  0.50000000  0.00000000  1
  Si  Si2  1  0.00000000  0.50000000  0.50000000  1
  Si  Si3  1  0.50000000  0.00000000  0.00000000  1
  Si  Si4  1  0.00000000  0.00000000  0.50000000  1
  Si  Si5  1  0.00000000  0.50000000  0.00000000  1
  Si  Si6  1  0.50000000  0.00000000  0.50000000  1
  Ni  Ni0  1  0.83439200  0.49682400  0.83439200  1
  Ni  Ni1  1  0.16560800  0.16560800  0.50317600  1
  Ni  Ni2  1  0.50317600  0.16560800  0.16560800  1
  Ni  Ni3  1  0.16560800  0.16560800  0.16560800  1
  Ni  Ni4  1  0.49682400  0.83439200  0.83439200  1
  Ni  Ni5  1  0.83439200  0.83439200  0.83439200  1
  Ni  Ni6  1  0.83439200  0.83439200  0.49682400  1
  Ni  Ni7  1  0.16560800  0.50317600  0.16560800  1
  Ni  Ni8  1  0.61755000  0.14735100  0.61755000  1
  Ni  Ni9  1  0.38245000  0.38245000  0.85264900  1
  Ni  Ni10  1  0.85264900  0.38245000  0.38245000  1
  Ni  Ni11  1  0.38245000  0.38245000  0.38245000  1
  Ni  Ni12  1  0.14735100  0.61755000  0.61755000  1
  Ni  Ni13  1  0.61755000  0.61755000  0.61755000  1
  Ni  Ni14  1  0.61755000  0.61755000  0.14735100  1
  Ni  Ni15  1  0.38245000  0.85264900  0.38245000  1
loop_
_geom_bond_atom_site_label_1
_geom_bond_atom_site_label_2
_geom_bond_distance
_geom_bond_site_symmetry_2
Cr0 Ni1 2.600385 1_555
Cr0 Ni0 2.600385 1_455
Cr0 Ni4 2.600385 1_545
Cr0 Ni3 2.600385 1_556
Cr0 Ni9 2.827274 1_555
Cr0 Ni11 2.827279 1_555
Cr0 Ni12 2.827280 1_555
Cr0 Ni8 2.827280 1_555
Cr0 Si2 2.846754 1_555
Cr0 Si6 2.846754 1_555
Cr0 Si3 2.846754 1_556
Cr0 Si5 2.846754 1_556
Cr0 Cr1 2.938990 1_545
Cr0 Cr4 2.938990 1_455
Cr0 Cr3 2.938990 1_546
Cr0 Cr2 2.938990 1_456
Cr1 Ni4 2.600385 1_555
Cr1 Ni1 2.600385 1_565
Cr1 Ni7 2.600385 1_556
Cr1 Ni5 2.600385 1_455
Cr1 Ni12 2.827274 1_555
Cr1 Ni13 2.827279 1_555
Cr1 Ni9 2.827280 1_555
Cr1 Ni15 2.827280 1_555
Cr1 Si4 2.846754 1_565
Cr1 Si5 2.846754 1_556
Cr1 Si1 2.846754 1_556
Cr1 Si6 2.846754 1_565
Cr1 Cr5 2.938990 1_456
Cr1 Cr4 2.938990 1_465
Cr1 Cr3 2.938990 1_556
Cr2 Ni2 2.600385 1_555
Cr2 Ni0 2.600385 1_554
Cr2 Ni6 2.600385 1_545
Cr2 Ni3 2.600385 1_655
Cr2 Ni10 2.827274 1_555
Cr2 Ni11 2.827279 1_555
Cr2 Ni14 2.827280 1_555
Cr2 Ni8 2.827280 1_555
Cr2 Si6 2.846754 1_555
Cr2 Si1 2.846754 1_555
Cr2 Si4 2.846754 1_655
Cr2 Si5 2.846754 1_655
Cr2 Cr4 2.938990 1_554
Cr2 Cr5 2.938990 1_545
Cr2 Cr3 2.938990 1_645
Cr3 Ni7 2.600385 1_555
Cr3 Ni4 2.600385 1_554
Cr3 Ni6 2.600385 1_455
Cr3 Ni3 2.600385 1_565
Cr3 Ni15 2.827274 1_555
Cr3 Ni11 2.827279 1_555
Cr3 Ni12 2.827280 1_555
Cr3 Ni14 2.827280 1_555
Cr3 Si2 2.846754 1_555
Cr3 Si1 2.846754 1_555
Cr3 Si3 2.846754 1_565
Cr3 Si4 2.846754 1_565
Cr3 Cr5 2.938990 1_455
Cr4 Ni0 2.600385 1_555
Cr4 Ni2 2.600385 1_556
Cr4 Ni1 2.600385 1_655
Cr4 Ni5 2.600385 1_545
Cr4 Ni8 2.827274 1_555
Cr4 Ni13 2.827279 1_555
Cr4 Ni9 2.827280 1_555
Cr4 Ni10 2.827280 1_555
Cr4 Si3 2.846754 1_556
Cr4 Si4 2.846754 1_655
Cr4 Si1 2.846754 1_556
Cr4 Si2 2.846754 1_655
Cr4 Cr5 2.938990 1_546
Cr5 Ni6 2.600385 1_555
Cr5 Ni7 2.600385 1_655
Cr5 Ni2 2.600385 1_565
Cr5 Ni5 2.600385 1_554
Cr5 Ni14 2.827274 1_555
Cr5 Ni13 2.827279 1_555
Cr5 Ni15 2.827280 1_555
Cr5 Ni10 2.827280 1_555
Cr5 Si3 2.846754 1_565
Cr5 Si5 2.846754 1_655
Cr5 Si2 2.846754 1_655
Cr5 Si6 2.846754 1_565
Ni0 Si1 2.256173 1_556
Ni0 Si2 2.256173 1_655
Ni0 Si5 2.256173 1_656
Ni0 Ni13 2.511608 1_555
Ni0 Ni14 2.511615 1_556
Ni0 Ni12 2.511615 1_655
Ni0 Ni4 2.638194 1_555
Ni0 Ni5 2.638194 1_555
Ni0 Ni6 2.638194 1_555
Ni1 Si4 2.256173 1_555
Ni1 Si2 2.256173 1_555
Ni1 Si6 2.256173 1_555
Ni1 Ni11 2.511608 1_555
Ni1 Ni15 2.511615 1_545
Ni1 Ni10 2.511615 1_455
Ni1 Ni3 2.638194 1_555
Ni1 Ni7 2.638194 1_555
Ni1 Ni2 2.638194 1_555
Ni2 Si3 2.256173 1_555
Ni2 Si6 2.256173 1_555
Ni2 Si1 2.256173 1_555
Ni2 Ni9 2.511615 1_554
Ni2 Ni3 2.638194 1_555
Ni2 Ni7 2.638194 1_555
Ni3 Si4 2.256173 1_555
Ni3 Si3 2.256173 1_555
Ni3 Si5 2.256173 1_555
Ni3 Ni9 2.511611 1_554
Ni3 Ni7 2.638194 1_555
Ni4 Si1 2.256173 1_556
Ni4 Si6 2.256173 1_565
Ni4 Si3 2.256173 1_566
Ni4 Ni8 2.511615 1_565
Ni4 Ni5 2.638194 1_555
Ni4 Ni6 2.638194 1_555
Ni5 Si3 2.256173 1_566
Ni5 Si4 2.256173 1_665
Ni5 Si5 2.256173 1_656
Ni5 Ni8 2.511611 1_565
Ni5 Ni6 2.638194 1_555
Ni6 Si6 2.256173 1_565
Ni6 Si2 2.256173 1_655
Ni6 Si4 2.256173 1_665
Ni6 Ni8 2.511615 1_565
Ni7 Si5 2.256173 1_555
Ni7 Si1 2.256173 1_555
Ni7 Si2 2.256173 1_555
Ni7 Ni9 2.511615 1_554
Ni8 Si0 2.250311 1_555
Ni8 Si4 2.444178 1_655
Ni8 Si3 2.444178 1_556
Ni8 Si6 2.444184 1_555
Ni8 Ni9 2.598432 1_555
Ni9 Si0 2.250311 1_555
Ni9 Si3 2.444178 1_556
Ni9 Si5 2.444178 1_556
Ni9 Si1 2.444184 1_556
Ni10 Si0 2.250311 1_555
Ni10 Si5 2.444178 1_655
Ni10 Si4 2.444178 1_655
Ni10 Si2 2.444184 1_655
Ni10 Ni3 2.511611 1_655
Ni10 Ni7 2.511615 1_655
Ni10 Ni14 2.598432 1_555
Ni10 Ni8 2.598432 1_555
Ni10 Ni13 2.598443 1_555
Ni11 Si0 2.250317 1_555
Ni11 Si6 2.444178 1_555
Ni11 Si1 2.444178 1_555
Ni11 Si2 2.444178 1_555
Ni11 Ni2 2.511608 1_555
Ni11 Ni7 2.511608 1_555
Ni11 Ni8 2.598443 1_555
Ni11 Ni12 2.598443 1_555
Ni11 Ni14 2.598443 1_555
Ni12 Si0 2.250311 1_555
Ni12 Si4 2.444178 1_565
Ni12 Si5 2.444178 1_556
Ni12 Si2 2.444184 1_555
Ni12 Ni5 2.511611 1_455
Ni12 Ni6 2.511615 1_455
Ni12 Ni9 2.598432 1_555
Ni12 Ni15 2.598432 1_555
Ni13 Si0 2.250317 1_555
Ni13 Si1 2.444178 1_556
Ni13 Si6 2.444178 1_565
Ni13 Si2 2.444178 1_655
Ni13 Ni4 2.511608 1_555
Ni13 Ni6 2.511608 1_555
Ni13 Ni15 2.598443 1_555
Ni13 Ni9 2.598443 1_555
Ni14 Si0 2.250311 1_555
Ni14 Si3 2.444178 1_565
Ni14 Si5 2.444178 1_655
Ni14 Si1 2.444184 1_555
Ni14 Ni5 2.511611 1_554
Ni14 Ni4 2.511615 1_554
Ni14 Ni15 2.598432 1_555
Ni15 Si0 2.250311 1_555
Ni15 Si4 2.444178 1_565
Ni15 Si3 2.444178 1_565
Ni15 Si6 2.444184 1_565
Ni15 Ni3 2.511611 1_565
Ni15 Ni2 2.511615 1_565
