# generated using pymatgen
data_YNi3
_symmetry_space_group_name_H-M   'P 1'
_cell_length_a   8.52210874
_cell_length_b   8.52210471
_cell_length_c   8.52210700
_cell_angle_alpha   33.66990947
_cell_angle_beta   33.66990709
_cell_angle_gamma   33.66990348
_symmetry_Int_Tables_number   1
_chemical_formula_structural   YNi3
_chemical_formula_sum   'Y3 Ni9'
_cell_volume   169.48154135
_cell_formula_units_Z   3
loop_
 _symmetry_equiv_pos_site_id
 _symmetry_equiv_pos_as_xyz
  1  'x, y, z'
loop_
 _atom_site_type_symbol
 _atom_site_label
 _atom_site_symmetry_multiplicity
 _atom_site_fract_x
 _atom_site_fract_y
 _atom_site_fract_z
 _atom_site_occupancy
  Y  Y0  1  0.86119329  0.86119329  0.86119329  1
  Y  Y1  1  0.13880671  0.13880671  0.13880671  1
  Y  Y2  1  0.00000000  0.00000000  -0.00000000  1
  Ni  Ni0  1  0.41826318  0.41826318  0.91987797  1
  Ni  Ni1  1  0.91987797  0.41826318  0.41826318  1
  Ni  Ni2  1  0.50000000  0.50000000  0.50000000  1
  Ni  Ni3  1  0.58173682  0.08012103  0.58173682  1
  Ni  Ni4  1  0.58173682  0.58173682  0.08012203  1
  Ni  Ni5  1  0.33322180  0.33321880  0.33321880  1
  Ni  Ni6  1  0.41826318  0.91987897  0.41826318  1
  Ni  Ni7  1  0.66677820  0.66678120  0.66678120  1
  Ni  Ni8  1  0.08012203  0.58173682  0.58173682  1
loop_
_geom_bond_atom_site_label_1
_geom_bond_atom_site_label_2
_geom_bond_distance
_geom_bond_site_symmetry_2
Y0 Y1 3.150342 1_656
Y0 Y1 3.150343 1_665
Y0 Y1 3.150344 1_566
Y0 Y2 3.344454 1_666
Y1 Y2 3.344454 1_555
Ni0 Ni5 2.415442 1_556
Ni0 Ni7 2.425283 1_555
Ni0 Ni6 2.460163 1_546
Ni0 Ni1 2.460166 1_456
Ni0 Ni1 2.476108 1_555
Ni0 Ni6 2.476110 1_555
Ni0 Ni2 2.506871 1_555
Ni0 Y0 2.831667 1_545
Ni0 Y0 2.831669 1_455
Ni0 Y1 3.077896 1_556
Ni0 Y2 3.149493 1_566
Ni0 Y2 3.149495 1_656
Ni1 Ni5 2.415450 1_655
Ni1 Ni7 2.425290 1_555
Ni1 Ni6 2.460163 1_645
Ni1 Ni6 2.476110 1_555
Ni1 Ni2 2.506872 1_555
Ni1 Y0 2.831667 1_545
Ni1 Y0 2.831669 1_554
Ni1 Y1 3.077895 1_655
Ni1 Y2 3.149494 1_665
Ni1 Y2 3.149495 1_656
Ni2 Ni4 2.506871 1_555
Ni2 Ni8 2.506872 1_555
Ni2 Ni3 2.506879 1_555
Ni2 Ni6 2.506879 1_555
Ni2 Y1 2.927945 1_655
Ni2 Y0 2.927945 1_455
Ni2 Y0 2.927945 1_545
Ni2 Y1 2.927945 1_565
Ni2 Y1 2.927945 1_556
Ni2 Y0 2.927945 1_554
Ni3 Ni7 2.415433 1_545
Ni3 Ni5 2.425279 1_555
Ni3 Ni8 2.460163 1_645
Ni3 Ni4 2.460163 1_546
Ni3 Ni8 2.476110 1_555
Ni3 Ni4 2.476110 1_555
Ni3 Y1 2.831672 1_556
Ni3 Y1 2.831673 1_655
Ni3 Y0 3.077903 1_545
Ni3 Y2 3.149489 1_655
Ni3 Y2 3.149490 1_556
Ni4 Ni7 2.415442 1_554
Ni4 Ni5 2.425283 1_555
Ni4 Ni8 2.460166 1_654
Ni4 Ni8 2.476108 1_555
Ni4 Y1 2.831667 1_565
Ni4 Y1 2.831669 1_655
Ni4 Y0 3.077896 1_554
Ni4 Y2 3.149493 1_655
Ni4 Y2 3.149495 1_565
Ni5 Ni6 2.415433 1_545
Ni5 Ni8 2.425290 1_555
Ni5 Y2 2.849951 1_655
Ni5 Ni7 2.849955 1_545
Ni5 Ni7 2.849955 1_554
Ni5 Y2 2.849964 1_565
Ni5 Y2 2.849964 1_556
Ni5 Ni7 2.849981 1_455
Ni6 Ni7 2.425279 1_555
Ni6 Y0 2.831672 1_554
Ni6 Y0 2.831673 1_455
Ni6 Y1 3.077903 1_565
Ni6 Y2 3.149489 1_566
Ni6 Y2 3.149490 1_665
Ni7 Ni8 2.415450 1_655
Ni7 Y2 2.849951 1_566
Ni7 Y2 2.849964 1_656
Ni7 Y2 2.849964 1_665
Ni8 Y1 2.831667 1_565
Ni8 Y1 2.831669 1_556
Ni8 Y0 3.077895 1_455
Ni8 Y2 3.149494 1_556
Ni8 Y2 3.149495 1_565
