# generated using pymatgen
data_Ca21(Zn18Ni)2
_symmetry_space_group_name_H-M   'P 1'
_cell_length_a   15.30984469
_cell_length_b   15.30984469
_cell_length_c   15.30984469
_cell_angle_alpha   60.00000000
_cell_angle_beta   60.00000000
_cell_angle_gamma   60.00000000
_symmetry_Int_Tables_number   1
_chemical_formula_structural   Ca21(Zn18Ni)2
_chemical_formula_sum   'Ca42 Zn72 Ni4'
_cell_volume   2537.44920583
_cell_formula_units_Z   2
loop_
 _symmetry_equiv_pos_site_id
 _symmetry_equiv_pos_as_xyz
  1  'x, y, z'
loop_
 _atom_site_type_symbol
 _atom_site_label
 _atom_site_symmetry_multiplicity
 _atom_site_fract_x
 _atom_site_fract_y
 _atom_site_fract_z
 _atom_site_occupancy
  Ca  Ca0  1  0.79598200  0.06800600  0.06800600  1
  Ca  Ca1  1  0.39075600  0.99686400  0.61551600  1
  Ca  Ca2  1  0.84354500  0.84354500  0.46936600  1
  Ca  Ca3  1  0.84354500  0.46936600  0.84354500  1
  Ca  Ca4  1  0.99686400  0.61551600  0.99686400  1
  Ca  Ca5  1  0.75000000  0.75000000  0.75000000  1
  Ca  Ca6  1  0.84354500  0.84354500  0.84354500  1
  Ca  Ca7  1  0.18199400  0.18199400  0.18199400  1
  Ca  Ca8  1  0.06800600  0.06800600  0.06800600  1
  Ca  Ca9  1  0.99686400  0.39075600  0.99686400  1
  Ca  Ca10  1  0.25313600  0.85924400  0.25313600  1
  Ca  Ca11  1  0.63448400  0.25313600  0.25313600  1
  Ca  Ca12  1  0.40645500  0.78063400  0.40645500  1
  Ca  Ca13  1  0.61551600  0.99686400  0.39075600  1
  Ca  Ca14  1  0.85924400  0.25313600  0.63448400  1
  Ca  Ca15  1  0.99686400  0.99686400  0.39075600  1
  Ca  Ca16  1  0.18199400  0.45401800  0.18199400  1
  Ca  Ca17  1  0.06800600  0.06800600  0.79598200  1
  Ca  Ca18  1  0.45401800  0.18199400  0.18199400  1
  Ca  Ca19  1  0.25313600  0.63448400  0.85924400  1
  Ca  Ca20  1  0.99686400  0.99686400  0.61551600  1
  Ca  Ca21  1  0.63448400  0.25313600  0.85924400  1
  Ca  Ca22  1  0.85924400  0.63448400  0.25313600  1
  Ca  Ca23  1  0.78063400  0.40645500  0.40645500  1
  Ca  Ca24  1  0.40645500  0.40645500  0.78063400  1
  Ca  Ca25  1  0.40645500  0.40645500  0.40645500  1
  Ca  Ca26  1  0.46936600  0.84354500  0.84354500  1
  Ca  Ca27  1  0.39075600  0.99686400  0.99686400  1
  Ca  Ca28  1  0.39075600  0.61551600  0.99686400  1
  Ca  Ca29  1  0.25313600  0.63448400  0.25313600  1
  Ca  Ca30  1  0.99686400  0.61551600  0.39075600  1
  Ca  Ca31  1  0.18199400  0.18199400  0.45401800  1
  Ca  Ca32  1  0.50000000  0.50000000  0.50000000  1
  Ca  Ca33  1  0.25313600  0.25313600  0.85924400  1
  Ca  Ca34  1  0.99686400  0.39075600  0.61551600  1
  Ca  Ca35  1  0.61551600  0.99686400  0.99686400  1
  Ca  Ca36  1  0.61551600  0.39075600  0.99686400  1
  Ca  Ca37  1  0.25313600  0.25313600  0.63448400  1
  Ca  Ca38  1  0.63448400  0.85924400  0.25313600  1
  Ca  Ca39  1  0.85924400  0.25313600  0.25313600  1
  Ca  Ca40  1  0.06800600  0.79598200  0.06800600  1
  Ca  Ca41  1  0.25313600  0.85924400  0.63448400  1
  Zn  Zn0  1  0.99433200  0.39859400  0.20847900  1
  Zn  Zn1  1  0.85140600  0.25566800  0.04152100  1
  Zn  Zn2  1  0.73582500  0.08710300  0.73582500  1
  Zn  Zn3  1  0.04152100  0.85140600  0.85140600  1
  Zn  Zn4  1  0.73582500  0.08710300  0.44124600  1
  Zn  Zn5  1  0.85140600  0.85140600  0.25566800  1
  Zn  Zn6  1  0.80875400  0.16289700  0.51417500  1
  Zn  Zn7  1  0.99433200  0.20847900  0.39859400  1
  Zn  Zn8  1  0.61732200  0.61732200  0.96651900  1
  Zn  Zn9  1  0.73582500  0.73582500  0.44124600  1
  Zn  Zn10  1  0.04152100  0.25566800  0.85140600  1
  Zn  Zn11  1  0.51417500  0.80875400  0.51417500  1
  Zn  Zn12  1  0.08710300  0.73582500  0.73582500  1
  Zn  Zn13  1  0.45116400  0.28348100  0.63267800  1
  Zn  Zn14  1  0.85140600  0.04152100  0.25566800  1
  Zn  Zn15  1  0.45116400  0.63267800  0.28348100  1
  Zn  Zn16  1  0.08710300  0.44124600  0.73582500  1
  Zn  Zn17  1  0.96651900  0.79883600  0.61732200  1
  Zn  Zn18  1  0.51417500  0.16289700  0.51417500  1
  Zn  Zn19  1  0.63267800  0.45116400  0.63267800  1
  Zn  Zn20  1  0.25566800  0.85140600  0.85140600  1
  Zn  Zn21  1  0.08710300  0.73582500  0.44124600  1
  Zn  Zn22  1  0.20847900  0.39859400  0.39859400  1
  Zn  Zn23  1  0.28348100  0.63267800  0.63267800  1
  Zn  Zn24  1  0.63267800  0.63267800  0.45116400  1
  Zn  Zn25  1  0.73582500  0.73582500  0.08710300  1
  Zn  Zn26  1  0.39859400  0.39859400  0.99433200  1
  Zn  Zn27  1  0.44124600  0.73582500  0.73582500  1
  Zn  Zn28  1  0.63267800  0.45116400  0.28348100  1
  Zn  Zn29  1  0.61732200  0.79883600  0.96651900  1
  Zn  Zn30  1  0.51417500  0.51417500  0.16289700  1
  Zn  Zn31  1  0.96651900  0.61732200  0.61732200  1
  Zn  Zn32  1  0.51417500  0.80875400  0.16289700  1
  Zn  Zn33  1  0.61732200  0.79883600  0.61732200  1
  Zn  Zn34  1  0.04152100  0.85140600  0.25566800  1
  Zn  Zn35  1  0.61732200  0.96651900  0.61732200  1
  Zn  Zn36  1  0.80875400  0.51417500  0.51417500  1
  Zn  Zn37  1  0.51417500  0.51417500  0.80875400  1
  Zn  Zn38  1  0.39859400  0.20847900  0.99433200  1
  Zn  Zn39  1  0.80875400  0.51417500  0.16289700  1
  Zn  Zn40  1  0.39859400  0.20847900  0.39859400  1
  Zn  Zn41  1  0.73582500  0.44124600  0.73582500  1
  Zn  Zn42  1  0.28348100  0.63267800  0.45116400  1
  Zn  Zn43  1  0.61732200  0.61732200  0.79883600  1
  Zn  Zn44  1  0.39859400  0.39859400  0.20847900  1
  Zn  Zn45  1  0.73582500  0.44124600  0.08710300  1
  Zn  Zn46  1  0.16289700  0.51417500  0.80875400  1
  Zn  Zn47  1  0.99433200  0.39859400  0.39859400  1
  Zn  Zn48  1  0.61732200  0.96651900  0.79883600  1
  Zn  Zn49  1  0.25566800  0.85140600  0.04152100  1
  Zn  Zn50  1  0.79883600  0.61732200  0.96651900  1
  Zn  Zn51  1  0.85140600  0.25566800  0.85140600  1
  Zn  Zn52  1  0.20847900  0.99433200  0.39859400  1
  Zn  Zn53  1  0.45116400  0.63267800  0.63267800  1
  Zn  Zn54  1  0.16289700  0.80875400  0.51417500  1
  Zn  Zn55  1  0.51417500  0.16289700  0.80875400  1
  Zn  Zn56  1  0.39859400  0.99433200  0.20847900  1
  Zn  Zn57  1  0.96651900  0.61732200  0.79883600  1
  Zn  Zn58  1  0.28348100  0.45116400  0.63267800  1
  Zn  Zn59  1  0.39859400  0.99433200  0.39859400  1
  Zn  Zn60  1  0.79883600  0.61732200  0.61732200  1
  Zn  Zn61  1  0.44124600  0.08710300  0.73582500  1
  Zn  Zn62  1  0.63267800  0.28348100  0.45116400  1
  Zn  Zn63  1  0.79883600  0.96651900  0.61732200  1
  Zn  Zn64  1  0.63267800  0.28348100  0.63267800  1
  Zn  Zn65  1  0.85140600  0.85140600  0.04152100  1
  Zn  Zn66  1  0.25566800  0.04152100  0.85140600  1
  Zn  Zn67  1  0.85140600  0.04152100  0.85140600  1
  Zn  Zn68  1  0.20847900  0.39859400  0.99433200  1
  Zn  Zn69  1  0.16289700  0.51417500  0.51417500  1
  Zn  Zn70  1  0.63267800  0.63267800  0.28348100  1
  Zn  Zn71  1  0.44124600  0.73582500  0.08710300  1
  Ni  Ni0  1  0.12500000  0.62500000  0.62500000  1
  Ni  Ni1  1  0.62500000  0.62500000  0.12500000  1
  Ni  Ni2  1  0.62500000  0.62500000  0.62500000  1
  Ni  Ni3  1  0.62500000  0.12500000  0.62500000  1
loop_
_geom_bond_atom_site_label_1
_geom_bond_atom_site_label_2
_geom_bond_distance
_geom_bond_site_symmetry_2
Ca0 Zn65 3.172972 1_545
Ca0 Zn67 3.172972 1_554
Ca0 Zn5 3.172980 1_545
Ca0 Zn51 3.172980 1_554
Ca0 Zn1 3.172987 1_555
Ca0 Zn14 3.172987 1_555
Ca1 Zn11 3.219698 1_555
Ca1 Zn18 3.219711 1_565
Ca1 Zn35 3.274141 1_555
Ca1 Zn33 3.274147 1_555
Ca1 Zn40 3.281881 1_565
Ca1 Zn59 3.281888 1_555
Ca1 Zn61 3.306845 1_565
Ca1 Zn27 3.306858 1_555
Ca1 Zn20 3.372426 1_555
Ca1 Zn66 3.372433 1_565
Ca2 Zn21 3.124821 1_655
Ca2 Zn4 3.124821 1_565
Ca2 Zn9 3.124848 1_555
Ca2 Zn34 3.155925 1_655
Ca2 Zn14 3.155925 1_565
Ca2 Zn5 3.155925 1_555
Ca2 Zn17 3.251106 1_555
Ca2 Zn63 3.251106 1_555
Ca2 Zn31 3.251119 1_555
Ca2 Zn35 3.251119 1_555
Ca2 Zn33 3.251131 1_555
Ca2 Zn60 3.251131 1_555
Ca3 Zn45 3.124821 1_556
Ca3 Zn16 3.124821 1_655
Ca3 Zn41 3.124848 1_555
Ca3 Zn10 3.155925 1_655
Ca3 Zn1 3.155925 1_556
Ca3 Zn51 3.155925 1_555
Ca3 Zn57 3.251106 1_555
Ca3 Zn50 3.251106 1_555
Ca3 Zn31 3.251119 1_555
Ca3 Zn8 3.251119 1_555
Ca3 Zn43 3.251131 1_555
Ca3 Zn60 3.251131 1_555
Ca4 Zn39 3.219699 1_556
Ca4 Zn46 3.219699 1_655
Ca4 Zn50 3.274156 1_555
Ca4 Zn57 3.274156 1_555
Ca4 Zn68 3.281881 1_655
Ca4 Zn0 3.281881 1_556
Ca4 Zn12 3.306856 1_655
Ca4 Zn25 3.306856 1_556
Ca4 Zn65 3.372433 1_556
Ca4 Zn3 3.372433 1_655
Ca5 Zn48 3.146389 1_555
Ca5 Zn29 3.146389 1_555
Ca5 Zn57 3.146389 1_555
Ca5 Zn17 3.146389 1_555
Ca5 Zn63 3.146389 1_555
Ca5 Zn50 3.146389 1_555
Ca5 Zn31 3.146395 1_555
Ca5 Zn8 3.146395 1_555
Ca5 Zn35 3.146395 1_555
Ca5 Zn43 3.146402 1_555
Ca5 Zn33 3.146402 1_555
Ca5 Zn60 3.146402 1_555
Ca6 Zn2 3.124827 1_565
Ca6 Zn12 3.124827 1_655
Ca6 Zn25 3.124827 1_556
Ca6 Zn65 3.155925 1_556
Ca6 Zn67 3.155925 1_565
Ca6 Zn3 3.155925 1_655
Ca6 Zn57 3.251133 1_555
Ca6 Zn48 3.251133 1_555
Ca6 Zn29 3.251133 1_555
Ca6 Zn50 3.251133 1_555
Ca6 Zn63 3.251133 1_555
Ca6 Zn17 3.251133 1_555
Ca7 Zn56 3.172977 1_545
Ca7 Zn7 3.172977 1_455
Ca7 Zn68 3.172977 1_554
Ca7 Zn0 3.172977 1_455
Ca7 Zn38 3.172977 1_554
Ca7 Zn52 3.172977 1_545
Ca8 Zn34 3.172977 1_545
Ca8 Zn14 3.172977 1_455
Ca8 Zn10 3.172977 1_554
Ca8 Zn66 3.172977 1_554
Ca8 Zn1 3.172977 1_455
Ca8 Zn49 3.172977 1_545
Ca9 Zn46 3.219708 1_655
Ca9 Zn39 3.219708 1_556
Ca9 Zn57 3.274148 1_555
Ca9 Zn50 3.274148 1_555
Ca9 Zn0 3.281873 1_556
Ca9 Zn68 3.281873 1_655
Ca9 Zn16 3.306859 1_655
Ca9 Zn45 3.306859 1_556
Ca9 Zn1 3.372420 1_556
Ca9 Zn10 3.372420 1_655
Ca10 Zn21 3.219708 1_555
Ca10 Zn71 3.219708 1_555
Ca10 Zn42 3.274148 1_555
Ca10 Zn15 3.274148 1_555
Ca10 Zn34 3.281873 1_555
Ca10 Zn49 3.281873 1_555
Ca10 Zn54 3.306859 1_555
Ca10 Zn32 3.306859 1_555
Ca10 Zn52 3.372420 1_555
Ca10 Zn56 3.372420 1_555
Ca11 Zn45 3.219699 1_555
Ca11 Zn4 3.219699 1_555
Ca11 Zn28 3.274156 1_555
Ca11 Zn62 3.274156 1_555
Ca11 Zn1 3.281881 1_555
Ca11 Zn14 3.281881 1_555
Ca11 Zn18 3.306856 1_555
Ca11 Zn30 3.306856 1_555
Ca11 Zn40 3.372433 1_555
Ca11 Zn44 3.372433 1_555
Ca12 Zn54 3.124821 1_555
Ca12 Zn32 3.124821 1_555
Ca12 Zn11 3.124848 1_555
Ca12 Zn52 3.155925 1_555
Ca12 Zn56 3.155925 1_555
Ca12 Zn59 3.155925 1_555
Ca12 Zn42 3.251106 1_555
Ca12 Zn15 3.251106 1_555
Ca12 Zn70 3.251119 1_555
Ca12 Zn23 3.251119 1_555
Ca12 Zn24 3.251131 1_555
Ca12 Zn53 3.251131 1_555
Ca13 Zn11 3.219698 1_555
Ca13 Zn18 3.219711 1_565
Ca13 Zn35 3.274141 1_555
Ca13 Zn33 3.274147 1_555
Ca13 Zn40 3.281881 1_565
Ca13 Zn59 3.281888 1_555
Ca13 Zn4 3.306845 1_565
Ca13 Zn9 3.306858 1_555
Ca13 Zn5 3.372426 1_555
Ca13 Zn14 3.372433 1_565
Ca14 Zn41 3.219698 1_555
Ca14 Zn2 3.219711 1_555
Ca14 Zn64 3.274141 1_555
Ca14 Zn19 3.274147 1_555
Ca14 Zn67 3.281881 1_555
Ca14 Zn51 3.281888 1_555
Ca14 Zn6 3.306845 1_555
Ca14 Zn36 3.306858 1_555
Ca14 Zn47 3.372426 1_555
Ca14 Zn7 3.372433 1_555
Ca15 Zn54 3.219708 1_655
Ca15 Zn6 3.219708 1_565
Ca15 Zn63 3.274148 1_555
Ca15 Zn17 3.274148 1_555
Ca15 Zn7 3.281873 1_565
Ca15 Zn52 3.281873 1_655
Ca15 Zn4 3.306859 1_565
Ca15 Zn21 3.306859 1_655
Ca15 Zn14 3.372420 1_565
Ca15 Zn34 3.372420 1_655
Ca16 Zn22 3.172972 1_555
Ca16 Zn44 3.172972 1_555
Ca16 Zn26 3.172980 1_554
Ca16 Zn47 3.172980 1_455
Ca16 Zn68 3.172987 1_554
Ca16 Zn0 3.172987 1_455
Ca17 Zn67 3.172972 1_455
Ca17 Zn3 3.172972 1_545
Ca17 Zn20 3.172980 1_545
Ca17 Zn51 3.172980 1_455
Ca17 Zn10 3.172987 1_555
Ca17 Zn66 3.172987 1_555
Ca18 Zn40 3.172972 1_555
Ca18 Zn44 3.172972 1_555
Ca18 Zn26 3.172980 1_554
Ca18 Zn59 3.172980 1_545
Ca18 Zn38 3.172987 1_554
Ca18 Zn56 3.172987 1_545
Ca19 Zn27 3.219698 1_555
Ca19 Zn12 3.219711 1_555
Ca19 Zn23 3.274141 1_555
Ca19 Zn53 3.274147 1_555
Ca19 Zn3 3.281881 1_555
Ca19 Zn20 3.281888 1_555
Ca19 Zn46 3.306845 1_555
Ca19 Zn37 3.306858 1_555
Ca19 Zn26 3.372426 1_555
Ca19 Zn68 3.372433 1_555
Ca20 Zn6 3.219699 1_565
Ca20 Zn54 3.219699 1_655
Ca20 Zn17 3.274156 1_555
Ca20 Zn63 3.274156 1_555
Ca20 Zn7 3.281881 1_565
Ca20 Zn52 3.281881 1_655
Ca20 Zn12 3.306856 1_655
Ca20 Zn2 3.306856 1_565
Ca20 Zn67 3.372433 1_565
Ca20 Zn3 3.372433 1_655
Ca21 Zn41 3.219698 1_555
Ca21 Zn2 3.219711 1_555
Ca21 Zn64 3.274141 1_555
Ca21 Zn19 3.274147 1_555
Ca21 Zn67 3.281881 1_555
Ca21 Zn51 3.281888 1_555
Ca21 Zn55 3.306845 1_555
Ca21 Zn37 3.306858 1_555
Ca21 Zn26 3.372426 1_555
Ca21 Zn38 3.372433 1_555
Ca22 Zn9 3.219698 1_555
Ca22 Zn25 3.219711 1_555
Ca22 Zn70 3.274141 1_555
Ca22 Zn24 3.274147 1_555
Ca22 Zn65 3.281881 1_555
Ca22 Zn5 3.281888 1_555
Ca22 Zn39 3.306845 1_555
Ca22 Zn36 3.306858 1_555
Ca22 Zn47 3.372426 1_555
Ca22 Zn0 3.372433 1_555
Ca23 Zn39 3.124821 1_555
Ca23 Zn6 3.124821 1_555
Ca23 Zn36 3.124848 1_555
Ca23 Zn0 3.155925 1_555
Ca23 Zn7 3.155925 1_555
Ca23 Zn47 3.155925 1_555
Ca23 Zn28 3.251106 1_555
Ca23 Zn62 3.251106 1_555
Ca23 Zn70 3.251119 1_555
Ca23 Zn64 3.251119 1_555
Ca23 Zn24 3.251131 1_555
Ca23 Zn19 3.251131 1_555
Ca24 Zn46 3.124821 1_555
Ca24 Zn55 3.124821 1_555
Ca24 Zn37 3.124848 1_555
Ca24 Zn68 3.155925 1_555
Ca24 Zn38 3.155925 1_555
Ca24 Zn26 3.155925 1_555
Ca24 Zn13 3.251106 1_555
Ca24 Zn58 3.251106 1_555
Ca24 Zn64 3.251119 1_555
Ca24 Zn23 3.251119 1_555
Ca24 Zn19 3.251131 1_555
Ca24 Zn53 3.251131 1_555
Ca25 Zn30 3.124827 1_555
Ca25 Zn18 3.124827 1_555
Ca25 Zn69 3.124827 1_555
Ca25 Zn40 3.155925 1_555
Ca25 Zn44 3.155925 1_555
Ca25 Zn22 3.155925 1_555
Ca25 Zn28 3.251133 1_555
Ca25 Zn62 3.251133 1_555
Ca25 Zn42 3.251133 1_555
Ca25 Zn15 3.251133 1_555
Ca25 Zn13 3.251133 1_555
Ca25 Zn58 3.251133 1_555
Ca26 Zn71 3.124821 1_556
Ca26 Zn61 3.124821 1_565
Ca26 Zn27 3.124848 1_555
Ca26 Zn49 3.155925 1_556
Ca26 Zn66 3.155925 1_565
Ca26 Zn20 3.155925 1_555
Ca26 Zn29 3.251106 1_555
Ca26 Zn48 3.251106 1_555
Ca26 Zn8 3.251119 1_555
Ca26 Zn35 3.251119 1_555
Ca26 Zn43 3.251131 1_555
Ca26 Zn33 3.251131 1_555
Ca27 Zn32 3.219708 1_556
Ca27 Zn55 3.219708 1_565
Ca27 Zn29 3.274148 1_555
Ca27 Zn48 3.274148 1_555
Ca27 Zn38 3.281873 1_565
Ca27 Zn56 3.281873 1_556
Ca27 Zn71 3.306859 1_556
Ca27 Zn61 3.306859 1_565
Ca27 Zn49 3.372420 1_556
Ca27 Zn66 3.372420 1_565
Ca28 Zn37 3.219698 1_555
Ca28 Zn30 3.219711 1_556
Ca28 Zn8 3.274141 1_555
Ca28 Zn43 3.274147 1_555
Ca28 Zn44 3.281881 1_556
Ca28 Zn26 3.281888 1_555
Ca28 Zn71 3.306845 1_556
Ca28 Zn27 3.306858 1_555
Ca28 Zn20 3.372426 1_555
Ca28 Zn49 3.372433 1_556
Ca29 Zn71 3.219699 1_555
Ca29 Zn21 3.219699 1_555
Ca29 Zn15 3.274156 1_555
Ca29 Zn42 3.274156 1_555
Ca29 Zn34 3.281881 1_555
Ca29 Zn49 3.281881 1_555
Ca29 Zn69 3.306856 1_555
Ca29 Zn30 3.306856 1_555
Ca29 Zn22 3.372433 1_555
Ca29 Zn44 3.372433 1_555
Ca30 Zn36 3.219698 1_555
Ca30 Zn69 3.219711 1_655
Ca30 Zn31 3.274141 1_555
Ca30 Zn60 3.274147 1_555
Ca30 Zn22 3.281881 1_655
Ca30 Zn47 3.281888 1_555
Ca30 Zn21 3.306845 1_655
Ca30 Zn9 3.306858 1_555
Ca30 Zn5 3.372426 1_555
Ca30 Zn34 3.372433 1_655
Ca31 Zn40 3.172972 1_555
Ca31 Zn22 3.172972 1_555
Ca31 Zn59 3.172980 1_545
Ca31 Zn47 3.172980 1_455
Ca31 Zn52 3.172987 1_545
Ca31 Zn7 3.172987 1_455
Ca32 Zn15 3.146389 1_555
Ca32 Zn13 3.146389 1_555
Ca32 Zn42 3.146389 1_555
Ca32 Zn58 3.146389 1_555
Ca32 Zn28 3.146389 1_555
Ca32 Zn62 3.146389 1_555
Ca32 Zn23 3.146395 1_555
Ca32 Zn64 3.146395 1_555
Ca32 Zn70 3.146395 1_555
Ca32 Zn53 3.146402 1_555
Ca32 Zn24 3.146402 1_555
Ca32 Zn19 3.146402 1_555
Ca33 Zn16 3.219708 1_555
Ca33 Zn61 3.219708 1_555
Ca33 Zn13 3.274148 1_555
Ca33 Zn58 3.274148 1_555
Ca33 Zn66 3.281873 1_555
Ca33 Zn10 3.281873 1_555
Ca33 Zn46 3.306859 1_555
Ca33 Zn55 3.306859 1_555
Ca33 Zn68 3.372420 1_555
Ca33 Zn38 3.372420 1_555
Ca34 Zn36 3.219698 1_555
Ca34 Zn69 3.219711 1_655
Ca34 Zn31 3.274141 1_555
Ca34 Zn60 3.274147 1_555
Ca34 Zn22 3.281881 1_655
Ca34 Zn47 3.281888 1_555
Ca34 Zn16 3.306845 1_655
Ca34 Zn41 3.306858 1_555
Ca34 Zn51 3.372426 1_555
Ca34 Zn10 3.372433 1_655
Ca35 Zn55 3.219699 1_565
Ca35 Zn32 3.219699 1_556
Ca35 Zn48 3.274156 1_555
Ca35 Zn29 3.274156 1_555
Ca35 Zn38 3.281881 1_565
Ca35 Zn56 3.281881 1_556
Ca35 Zn25 3.306856 1_556
Ca35 Zn2 3.306856 1_565
Ca35 Zn65 3.372433 1_556
Ca35 Zn67 3.372433 1_565
Ca36 Zn37 3.219698 1_555
Ca36 Zn30 3.219711 1_556
Ca36 Zn8 3.274141 1_555
Ca36 Zn43 3.274147 1_555
Ca36 Zn44 3.281881 1_556
Ca36 Zn26 3.281888 1_555
Ca36 Zn45 3.306845 1_556
Ca36 Zn41 3.306858 1_555
Ca36 Zn51 3.372426 1_555
Ca36 Zn1 3.372433 1_556
Ca37 Zn61 3.219699 1_555
Ca37 Zn16 3.219699 1_555
Ca37 Zn13 3.274156 1_555
Ca37 Zn58 3.274156 1_555
Ca37 Zn66 3.281881 1_555
Ca37 Zn10 3.281881 1_555
Ca37 Zn69 3.306856 1_555
Ca37 Zn18 3.306856 1_555
Ca37 Zn40 3.372433 1_555
Ca37 Zn22 3.372433 1_555
Ca38 Zn9 3.219698 1_555
Ca38 Zn25 3.219711 1_555
Ca38 Zn70 3.274141 1_555
Ca38 Zn24 3.274147 1_555
Ca38 Zn65 3.281881 1_555
Ca38 Zn5 3.281888 1_555
Ca38 Zn32 3.306845 1_555
Ca38 Zn11 3.306858 1_555
Ca38 Zn59 3.372426 1_555
Ca38 Zn56 3.372433 1_555
Ca39 Zn45 3.219708 1_555
Ca39 Zn4 3.219708 1_555
Ca39 Zn28 3.274148 1_555
Ca39 Zn62 3.274148 1_555
Ca39 Zn14 3.281873 1_555
Ca39 Zn1 3.281873 1_555
Ca39 Zn39 3.306859 1_555
Ca39 Zn6 3.306859 1_555
Ca39 Zn0 3.372420 1_555
Ca39 Zn7 3.372420 1_555
Ca40 Zn3 3.172972 1_554
Ca40 Zn65 3.172972 1_455
Ca40 Zn20 3.172980 1_554
Ca40 Zn5 3.172980 1_455
Ca40 Zn49 3.172987 1_555
Ca40 Zn34 3.172987 1_555
Ca41 Zn27 3.219698 1_555
Ca41 Zn12 3.219711 1_555
Ca41 Zn23 3.274141 1_555
Ca41 Zn53 3.274147 1_555
Ca41 Zn3 3.281881 1_555
Ca41 Zn20 3.281888 1_555
Ca41 Zn54 3.306845 1_555
Ca41 Zn11 3.306858 1_555
Ca41 Zn59 3.372426 1_555
Ca41 Zn52 3.372433 1_555
Zn0 Zn39 2.722278 1_555
Zn0 Zn7 2.910631 1_555
Zn0 Zn47 2.910631 1_555
Zn1 Zn45 2.722278 1_555
Zn1 Zn51 2.910631 1_554
Zn1 Zn10 2.910631 1_654
Zn2 Zn64 2.650444 1_555
Zn2 Zn67 2.722304 1_555
Zn2 Zn48 2.729205 1_545
Zn2 Zn63 2.729205 1_545
Zn2 Zn6 2.770837 1_555
Zn2 Zn55 2.770837 1_555
Zn3 Zn65 2.910631 1_456
Zn3 Zn67 2.910631 1_465
Zn4 Zn62 2.650454 1_555
Zn4 Zn63 2.729205 1_545
Zn4 Zn6 2.770862 1_555
Zn5 Zn9 2.722292 1_555
Zn6 Zn63 2.650454 1_545
Zn6 Zn7 2.722278 1_555
Zn6 Zn62 2.729205 1_555
Zn6 Zn64 2.729205 1_555
Zn10 Zn16 2.722278 1_555
Zn10 Zn51 2.910631 1_455
Zn11 Zn33 2.650428 1_555
Zn11 Zn59 2.722292 1_555
Zn11 Zn24 2.729205 1_555
Zn11 Zn53 2.729205 1_555
Zn11 Zn9 2.770837 1_555
Zn11 Zn27 2.770837 1_555
Zn12 Zn23 2.650444 1_555
Zn12 Zn3 2.722304 1_555
Zn12 Zn57 2.729205 1_455
Zn12 Zn17 2.729205 1_455
Zn12 Zn54 2.770837 1_555
Zn12 Zn46 2.770837 1_555
Zn13 Zn58 2.567201 1_555
Zn13 Zn61 2.650454 1_555
Zn13 Zn55 2.729205 1_555
Zn13 Zn18 2.729205 1_555
Zn13 Zn62 2.778951 1_555
Zn13 Zn64 2.778951 1_555
Zn14 Zn4 2.722278 1_555
Zn14 Zn5 2.910631 1_545
Zn14 Zn34 2.910631 1_645
Zn15 Zn42 2.567201 1_555
Zn15 Zn71 2.650454 1_555
Zn15 Zn32 2.729205 1_555
Zn15 Zn30 2.729205 1_555
Zn15 Zn28 2.778951 1_555
Zn15 Zn70 2.778951 1_555
Zn16 Zn58 2.650454 1_555
Zn16 Zn57 2.729205 1_455
Zn16 Zn31 2.729205 1_455
Zn16 Zn69 2.770837 1_555
Zn16 Zn46 2.770862 1_555
Zn17 Zn63 2.567201 1_555
Zn17 Zn54 2.650454 1_655
Zn17 Zn21 2.729205 1_655
Zn17 Zn31 2.778951 1_555
Zn17 Zn57 2.778951 1_555
Zn18 Zn35 2.650444 1_545
Zn18 Zn40 2.722304 1_555
Zn18 Zn62 2.729205 1_555
Zn18 Zn61 2.770837 1_555
Zn18 Zn4 2.770837 1_555
Zn19 Zn64 2.567201 1_555
Zn19 Zn41 2.650428 1_555
Zn19 Zn37 2.729205 1_555
Zn19 Zn36 2.729205 1_555
Zn19 Zn24 2.778951 1_555
Zn19 Zn53 2.778951 1_555
Zn20 Zn27 2.722292 1_555
Zn20 Zn49 2.910631 1_556
Zn20 Zn66 2.910631 1_565
Zn21 Zn42 2.650454 1_555
Zn21 Zn34 2.722278 1_555
Zn21 Zn31 2.729205 1_455
Zn21 Zn69 2.770837 1_555
Zn21 Zn54 2.770862 1_555
Zn22 Zn69 2.722304 1_555
Zn22 Zn40 2.910631 1_555
Zn22 Zn44 2.910631 1_555
Zn23 Zn53 2.567201 1_555
Zn23 Zn46 2.729205 1_555
Zn23 Zn54 2.729205 1_555
Zn23 Zn42 2.778951 1_555
Zn23 Zn58 2.778951 1_555
Zn24 Zn70 2.567201 1_555
Zn24 Zn9 2.650428 1_555
Zn24 Zn36 2.729205 1_555
Zn24 Zn53 2.778951 1_555
Zn25 Zn70 2.650444 1_555
Zn25 Zn65 2.722304 1_555
Zn25 Zn50 2.729205 1_554
Zn25 Zn29 2.729205 1_554
Zn25 Zn39 2.770837 1_555
Zn25 Zn32 2.770837 1_555
Zn26 Zn37 2.722292 1_555
Zn26 Zn68 2.910631 1_555
Zn26 Zn38 2.910631 1_555
Zn27 Zn53 2.650428 1_555
Zn27 Zn43 2.729205 1_555
Zn27 Zn33 2.729205 1_555
Zn27 Zn37 2.770837 1_555
Zn28 Zn62 2.567201 1_555
Zn28 Zn45 2.650454 1_555
Zn28 Zn39 2.729205 1_555
Zn28 Zn30 2.729205 1_555
Zn28 Zn70 2.778951 1_555
Zn29 Zn48 2.567201 1_555
Zn29 Zn32 2.650454 1_556
Zn29 Zn71 2.729205 1_556
Zn29 Zn50 2.778951 1_555
Zn29 Zn8 2.778951 1_555
Zn30 Zn8 2.650444 1_554
Zn30 Zn44 2.722304 1_555
Zn30 Zn45 2.770837 1_555
Zn30 Zn71 2.770837 1_555
Zn31 Zn60 2.567201 1_555
Zn31 Zn69 2.650444 1_655
Zn31 Zn57 2.778951 1_555
Zn32 Zn56 2.722278 1_555
Zn32 Zn70 2.729205 1_555
Zn32 Zn71 2.770862 1_555
Zn33 Zn35 2.567201 1_555
Zn33 Zn9 2.729205 1_555
Zn33 Zn43 2.778951 1_555
Zn33 Zn60 2.778951 1_555
Zn34 Zn5 2.910631 1_455
Zn35 Zn61 2.729205 1_565
Zn35 Zn4 2.729205 1_565
Zn35 Zn63 2.778951 1_555
Zn35 Zn48 2.778951 1_555
Zn36 Zn60 2.650428 1_555
Zn36 Zn47 2.722292 1_555
Zn36 Zn9 2.770837 1_555
Zn36 Zn41 2.770837 1_555
Zn37 Zn43 2.650428 1_555
Zn37 Zn53 2.729205 1_555
Zn37 Zn41 2.770837 1_555
Zn38 Zn55 2.722278 1_555
Zn38 Zn68 2.910631 1_555
Zn39 Zn50 2.650454 1_554
Zn39 Zn70 2.729205 1_555
Zn39 Zn45 2.770862 1_555
Zn40 Zn44 2.910631 1_555
Zn41 Zn51 2.722292 1_555
Zn41 Zn43 2.729205 1_555
Zn41 Zn60 2.729205 1_555
Zn42 Zn54 2.729205 1_555
Zn42 Zn69 2.729205 1_555
Zn42 Zn58 2.778951 1_555
Zn43 Zn8 2.567201 1_555
Zn43 Zn60 2.778951 1_555
Zn45 Zn50 2.729205 1_554
Zn45 Zn8 2.729205 1_554
Zn46 Zn57 2.650454 1_455
Zn46 Zn68 2.722278 1_555
Zn46 Zn58 2.729205 1_555
Zn47 Zn7 2.910631 1_555
Zn48 Zn55 2.650454 1_565
Zn48 Zn61 2.729205 1_565
Zn48 Zn63 2.778951 1_555
Zn49 Zn71 2.722278 1_555
Zn49 Zn66 2.910631 1_564
Zn50 Zn57 2.567201 1_555
Zn50 Zn8 2.778951 1_555
Zn52 Zn54 2.722278 1_555
Zn52 Zn56 2.910631 1_555
Zn52 Zn59 2.910631 1_555
Zn55 Zn64 2.729205 1_555
Zn55 Zn61 2.770862 1_555
Zn56 Zn59 2.910631 1_555
Zn58 Zn69 2.729205 1_555
Zn60 Zn9 2.729205 1_555
Zn61 Zn66 2.722278 1_555
Zn62 Zn64 2.778951 1_555
Zn65 Zn67 2.910631 1_564
Zn71 Zn8 2.729205 1_554
Ni0 Zn17 2.549286 1_455
Ni0 Zn57 2.549286 1_455
Ni0 Zn42 2.549286 1_555
Ni0 Zn58 2.549286 1_555
Ni0 Zn23 2.549294 1_555
Ni0 Zn31 2.549294 1_455
Ni0 Zn12 2.646560 1_555
Ni0 Zn69 2.646560 1_555
Ni0 Zn46 2.646574 1_555
Ni0 Zn54 2.646574 1_555
Ni0 Zn21 2.646574 1_555
Ni0 Zn16 2.646574 1_555
Ni1 Zn29 2.549286 1_554
Ni1 Zn50 2.549286 1_554
Ni1 Zn15 2.549286 1_555
Ni1 Zn28 2.549286 1_555
Ni1 Zn70 2.549294 1_555
Ni1 Zn8 2.549294 1_554
Ni1 Zn25 2.646560 1_555
Ni1 Zn30 2.646560 1_555
Ni1 Zn32 2.646574 1_555
Ni1 Zn39 2.646574 1_555
Ni1 Zn71 2.646574 1_555
Ni1 Zn45 2.646574 1_555
Ni2 Zn43 2.549279 1_555
Ni2 Zn33 2.549279 1_555
Ni2 Zn60 2.549279 1_555
Ni2 Zn24 2.549279 1_555
Ni2 Zn53 2.549279 1_555
Ni2 Zn19 2.549279 1_555
Ni2 Zn41 2.646567 1_555
Ni2 Zn27 2.646567 1_555
Ni2 Zn9 2.646567 1_555
Ni2 Zn36 2.646567 1_555
Ni2 Zn11 2.646567 1_555
Ni2 Zn37 2.646567 1_555
Ni3 Zn63 2.549286 1_545
Ni3 Zn48 2.549286 1_545
Ni3 Zn62 2.549286 1_555
Ni3 Zn13 2.549286 1_555
Ni3 Zn64 2.549294 1_555
Ni3 Zn35 2.549294 1_545
Ni3 Zn2 2.646560 1_555
Ni3 Zn18 2.646560 1_555
Ni3 Zn55 2.646574 1_555
Ni3 Zn6 2.646574 1_555
Ni3 Zn61 2.646574 1_555
Ni3 Zn4 2.646574 1_555
