# generated using pymatgen
data_Ca6Cu2Sn7
_symmetry_space_group_name_H-M   'P 1'
_cell_length_a   4.58270435
_cell_length_b   7.45900617
_cell_length_c   12.37547500
_cell_angle_alpha   93.68924073
_cell_angle_beta   90.02378772
_cell_angle_gamma   108.02330945
_symmetry_Int_Tables_number   1
_chemical_formula_structural   Ca6Cu2Sn7
_chemical_formula_sum   'Ca6 Cu2 Sn7'
_cell_volume   401.34053330
_cell_formula_units_Z   1
loop_
 _symmetry_equiv_pos_site_id
 _symmetry_equiv_pos_as_xyz
  1  'x, y, z'
loop_
 _atom_site_type_symbol
 _atom_site_label
 _atom_site_symmetry_multiplicity
 _atom_site_fract_x
 _atom_site_fract_y
 _atom_site_fract_z
 _atom_site_occupancy
  Ca  Ca0  1  0.53881444  0.07837194  0.70126967  1
  Ca  Ca1  1  0.19572131  0.39193572  0.29431779  1
  Ca  Ca2  1  0.80427869  0.60806428  0.70568221  1
  Ca  Ca3  1  0.63708271  0.27353148  0.00145976  1
  Ca  Ca4  1  0.46118556  0.92162806  0.29873033  1
  Ca  Ca5  1  0.36291729  0.72646852  0.99854024  1
  Cu  Cu0  1  0.83123524  0.65985162  0.38954465  1
  Cu  Cu1  1  0.16876476  0.34014838  0.61045535  1
  Sn  Sn0  1  0.65940182  0.31890294  0.48170465  1
  Sn  Sn1  1  0.81745193  0.63480679  0.17663678  1
  Sn  Sn2  1  0.01084824  0.02150115  0.11778209  1
  Sn  Sn3  1  0.18254807  0.36519321  0.82336322  1
  Sn  Sn4  1  -0.00000000  -0.00000000  0.50000000  1
  Sn  Sn5  1  0.98915176  0.97849885  0.88221791  1
  Sn  Sn6  1  0.34059818  0.68109706  0.51829535  1
loop_
_geom_bond_atom_site_label_1
_geom_bond_atom_site_label_2
_geom_bond_distance
_geom_bond_site_symmetry_2
Ca0 Cu1 3.194793 1_655
Ca0 Cu1 3.206461 1_555
Ca0 Sn0 3.304942 1_555
Ca0 Sn5 3.312514 1_445
Ca0 Sn5 3.315242 1_545
Ca0 Sn3 3.352254 1_655
Ca0 Sn3 3.357550 1_555
Ca0 Sn4 3.399592 1_555
Ca0 Sn4 3.405020 1_655
Ca0 Sn6 3.493240 1_545
Ca1 Cu0 3.152220 1_455
Ca1 Cu0 3.155449 1_555
Ca1 Sn1 3.266455 1_555
Ca1 Sn1 3.269328 1_455
Ca1 Sn2 3.301268 1_555
Ca1 Sn0 3.324765 1_455
Ca1 Sn0 3.326342 1_555
Ca1 Sn6 3.334493 1_555
Ca2 Cu1 3.152220 1_655
Ca2 Cu1 3.155449 1_555
Ca2 Sn3 3.266455 1_555
Ca2 Sn3 3.269328 1_655
Ca2 Sn5 3.301268 1_555
Ca2 Sn6 3.324765 1_655
Ca2 Sn6 3.326342 1_555
Ca2 Sn0 3.334493 1_555
Ca3 Sn1 3.242389 1_555
Ca3 Sn3 3.273324 1_654
Ca3 Sn3 3.276503 1_554
Ca3 Sn2 3.294774 1_555
Ca3 Sn2 3.298324 1_655
Ca3 Sn5 3.372244 1_444
Ca3 Sn5 3.377103 1_544
Ca4 Cu0 3.194793 1_455
Ca4 Cu0 3.206461 1_555
Ca4 Sn6 3.304942 1_555
Ca4 Sn2 3.312514 1_665
Ca4 Sn2 3.315242 1_565
Ca4 Sn1 3.352254 1_455
Ca4 Sn1 3.357550 1_555
Ca4 Sn4 3.399592 1_665
Ca4 Sn4 3.405020 1_565
Ca4 Sn0 3.493240 1_565
Ca5 Sn3 3.242389 1_555
Ca5 Sn1 3.273324 1_456
Ca5 Sn1 3.276503 1_556
Ca5 Sn5 3.294774 1_555
Ca5 Sn5 3.298324 1_455
Ca5 Sn2 3.372244 1_666
Ca5 Sn2 3.377103 1_566
Cu0 Sn1 2.628776 1_555
Cu0 Sn4 2.691179 1_665
Cu0 Sn0 2.742848 1_555
Cu0 Sn6 2.783552 1_655
Cu0 Sn6 2.794701 1_555
Cu1 Sn3 2.628776 1_555
Cu1 Sn4 2.691179 1_555
Cu1 Sn6 2.742848 1_555
Cu1 Sn0 2.783552 1_455
Cu1 Sn0 2.794701 1_555
Sn1 Sn2 2.885222 1_665
Sn2 Sn5 2.910491 1_444
Sn3 Sn5 2.885222 1_445
