# generated using pymatgen
data_FeBiO3
_symmetry_space_group_name_H-M   'P 1'
_cell_length_a   5.43064400
_cell_length_b   5.45852841
_cell_length_c   5.52404333
_cell_angle_alpha   66.90638249
_cell_angle_beta   67.50512894
_cell_angle_gamma   65.21539056
_symmetry_Int_Tables_number   1
_chemical_formula_structural   FeBiO3
_chemical_formula_sum   'Fe1 Bi1 O3'
_cell_volume   132.00542268
_cell_formula_units_Z   1
loop_
 _symmetry_equiv_pos_site_id
 _symmetry_equiv_pos_as_xyz
  1  'x, y, z'
loop_
 _atom_site_type_symbol
 _atom_site_label
 _atom_site_symmetry_multiplicity
 _atom_site_fract_x
 _atom_site_fract_y
 _atom_site_fract_z
 _atom_site_occupancy
  Fe  Fe0  1  0.27175100  0.27353300  0.28330900  1
  Bi  Bi0  1  0.00820400  0.03912400  0.01062500  1
  O  O0  1  0.00968400  0.18180000  0.59889600  1
  O  O1  1  0.60429900  0.00412800  0.18785700  1
  O  O2  1  0.22006100  0.61541600  0.03331400  1
loop_
_geom_bond_atom_site_label_1
_geom_bond_atom_site_label_2
_geom_bond_distance
_geom_bond_site_symmetry_2
Fe0 O2 1.817761 1_555
Fe0 O0 1.824701 1_555
Fe0 O1 1.831667 1_555
Bi0 O2 2.083389 1_545
Bi0 O1 2.089886 1_455
Bi0 O0 2.093144 1_554
