# generated using pymatgen
data_AgC2N3
_symmetry_space_group_name_H-M   'P 1'
_cell_length_a   3.80325400
_cell_length_b   6.23355600
_cell_length_c   16.13919100
_cell_angle_alpha   90.00000000
_cell_angle_beta   90.00000000
_cell_angle_gamma   90.00000000
_symmetry_Int_Tables_number   1
_chemical_formula_structural   AgC2N3
_chemical_formula_sum   'Ag4 C8 N12'
_cell_volume   382.62466060
_cell_formula_units_Z   4
loop_
 _symmetry_equiv_pos_site_id
 _symmetry_equiv_pos_as_xyz
  1  'x, y, z'
loop_
 _atom_site_type_symbol
 _atom_site_label
 _atom_site_symmetry_multiplicity
 _atom_site_fract_x
 _atom_site_fract_y
 _atom_site_fract_z
 _atom_site_occupancy
  Ag  Ag0  1  0.25000000  0.10915600  0.08716000  1
  Ag  Ag1  1  0.75000000  0.89084400  0.91284000  1
  Ag  Ag2  1  0.75000000  0.60915600  0.41284000  1
  Ag  Ag3  1  0.25000000  0.39084400  0.58716000  1
  C  C0  1  0.25000000  0.11915800  0.41510500  1
  C  C1  1  0.25000000  0.38084200  0.91510500  1
  C  C2  1  0.25000000  0.99230500  0.28035500  1
  C  C3  1  0.75000000  0.49230500  0.21964500  1
  C  C4  1  0.75000000  0.00769500  0.71964500  1
  C  C5  1  0.25000000  0.50769500  0.78035500  1
  C  C6  1  0.75000000  0.88084200  0.58489500  1
  C  C7  1  0.75000000  0.61915800  0.08489500  1
  N  N0  1  0.75000000  0.01481400  0.79248200  1
  N  N1  1  0.25000000  0.98518600  0.20751800  1
  N  N2  1  0.25000000  0.24349400  0.47023500  1
  N  N3  1  0.75000000  0.46911700  0.14018800  1
  N  N4  1  0.25000000  0.53088300  0.85981200  1
  N  N5  1  0.75000000  0.75650600  0.52976500  1
  N  N6  1  0.75000000  0.74349400  0.02976500  1
  N  N7  1  0.25000000  0.25650600  0.97023500  1
  N  N8  1  0.25000000  0.51481400  0.70751800  1
  N  N9  1  0.25000000  0.96911700  0.35981200  1
  N  N10  1  0.75000000  0.48518600  0.29248200  1
  N  N11  1  0.75000000  0.03088300  0.64018800  1
loop_
_geom_bond_atom_site_label_1
_geom_bond_atom_site_label_2
_geom_bond_distance
_geom_bond_site_symmetry_2
Ag0 N1 2.090553 1_545
Ag0 N7 2.098743 1_554
Ag1 N0 2.090553 1_565
Ag1 N6 2.098743 1_556
Ag2 N10 2.090553 1_555
Ag2 N5 2.098743 1_555
Ag3 N8 2.090553 1_555
Ag3 N2 2.098743 1_555
C0 N2 1.179988 1_555
C0 N9 1.292716 1_545
C1 N7 1.179988 1_555
C1 N4 1.292716 1_555
C2 N1 1.176368 1_555
C2 N9 1.290492 1_555
C3 N10 1.176368 1_555
C3 N3 1.290492 1_555
C4 N0 1.176368 1_555
C4 N11 1.290492 1_555
C5 N8 1.176368 1_555
C5 N4 1.290492 1_555
C6 N5 1.179988 1_555
C6 N11 1.292716 1_565
C7 N6 1.179988 1_555
C7 N3 1.292716 1_555
