# generated using pymatgen
data_Na2MgH8(SO6)2
_symmetry_space_group_name_H-M   'P 1'
_cell_length_a   8.36560600
_cell_length_b   5.56310600
_cell_length_c   11.22432551
_cell_angle_alpha   79.68730555
_cell_angle_beta   90.00000000
_cell_angle_gamma   90.00000000
_symmetry_Int_Tables_number   1
_chemical_formula_structural   Na2MgH8(SO6)2
_chemical_formula_sum   'Na4 Mg2 H16 S4 O24'
_cell_volume   513.92749517
_cell_formula_units_Z   2
loop_
 _symmetry_equiv_pos_site_id
 _symmetry_equiv_pos_as_xyz
  1  'x, y, z'
loop_
 _atom_site_type_symbol
 _atom_site_label
 _atom_site_symmetry_multiplicity
 _atom_site_fract_x
 _atom_site_fract_y
 _atom_site_fract_z
 _atom_site_occupancy
  Na  Na0  1  0.42755000  0.12338000  0.13871100  1
  Na  Na1  1  0.07245000  0.12338000  0.63871100  1
  Na  Na2  1  0.92755000  0.87662000  0.36128900  1
  Na  Na3  1  0.57245000  0.87662000  0.86128900  1
  Mg  Mg0  1  0.00000000  0.00000000  0.00000000  1
  Mg  Mg1  1  0.50000000  0.00000000  0.50000000  1
  H  H0  1  0.44767700  0.23578500  0.68247600  1
  H  H1  1  0.77614300  0.23868900  0.48442300  1
  H  H2  1  0.86346500  0.22752000  0.15521000  1
  H  H3  1  0.72385700  0.23868900  0.98442300  1
  H  H4  1  0.36346500  0.77248000  0.34479000  1
  H  H5  1  0.69819500  0.33047300  0.35942600  1
  H  H6  1  0.55232300  0.76421500  0.31752400  1
  H  H7  1  0.94767700  0.76421500  0.81752400  1
  H  H8  1  0.22385700  0.76131100  0.51557700  1
  H  H9  1  0.05232300  0.23578500  0.18247600  1
  H  H10  1  0.80180500  0.33047300  0.85942600  1
  H  H11  1  0.19819500  0.66952700  0.14057400  1
  H  H12  1  0.30180500  0.66952700  0.64057400  1
  H  H13  1  0.27614300  0.76131100  0.01557700  1
  H  H14  1  0.63653500  0.22752000  0.65521000  1
  H  H15  1  0.13653500  0.77248000  0.84479000  1
  S  S0  1  0.20926900  0.37624400  0.36428400  1
  S  S1  1  0.79073100  0.62375600  0.63571600  1
  S  S2  1  0.29073100  0.37624400  0.86428400  1
  S  S3  1  0.70926900  0.62375600  0.13571600  1
  O  O0  1  0.42186600  0.21882500  0.92120800  1
  O  O1  1  0.17737800  0.63922300  0.37267000  1
  O  O2  1  0.46396800  0.87044000  0.33828700  1
  O  O3  1  0.92186600  0.78117500  0.57879200  1
  O  O4  1  0.96396800  0.12956000  0.16171300  1
  O  O5  1  0.22121600  0.36150700  0.23160100  1
  O  O6  1  0.77878400  0.63849300  0.76839900  1
  O  O7  1  0.67737800  0.36077700  0.12733000  1
  O  O8  1  0.82262200  0.36077700  0.62733000  1
  O  O9  1  0.72121600  0.63849300  0.26839900  1
  O  O10  1  0.03603200  0.87044000  0.83828700  1
  O  O11  1  0.32262200  0.63922300  0.87267000  1
  O  O12  1  0.57813400  0.78117500  0.07879200  1
  O  O13  1  0.07813400  0.21882500  0.42120800  1
  O  O14  1  0.86421000  0.69541200  0.07493500  1
  O  O15  1  0.53603200  0.12956000  0.66171300  1
  O  O16  1  0.71063600  0.18072900  0.42184600  1
  O  O17  1  0.27878400  0.36150700  0.73160100  1
  O  O18  1  0.21063600  0.81927100  0.07815400  1
  O  O19  1  0.28936400  0.81927100  0.57815400  1
  O  O20  1  0.63579000  0.69541200  0.57493500  1
  O  O21  1  0.36421000  0.30458800  0.42506500  1
  O  O22  1  0.13579000  0.30458800  0.92506500  1
  O  O23  1  0.78936400  0.18072900  0.92184600  1
loop_
_geom_bond_atom_site_label_1
_geom_bond_atom_site_label_2
_geom_bond_distance
_geom_bond_site_symmetry_2
Na0 O0 2.404192 1_554
Na0 O2 2.441787 1_545
Na0 O7 2.463334 1_555
Na0 O12 2.474229 1_545
Na0 O5 2.513155 1_555
Na0 O18 2.651173 1_545
Na1 O13 2.404192 1_555
Na1 O10 2.441787 1_545
Na1 O8 2.463334 1_455
Na1 O3 2.474229 1_445
Na1 O17 2.513155 1_555
Na1 O19 2.651173 1_545
Na2 O3 2.404192 1_555
Na2 O4 2.441787 1_565
Na2 O1 2.463334 1_655
Na2 O13 2.474229 1_665
Na2 O9 2.513155 1_555
Na2 O16 2.651173 1_565
Na3 O12 2.404192 1_556
Na3 O15 2.441787 1_565
Na3 O11 2.463334 1_555
Na3 O0 2.474229 1_565
Na3 O6 2.513155 1_555
Na3 O23 2.651173 1_565
Mg0 O22 2.087764 1_554
Mg0 O14 2.087764 1_445
Mg0 O10 2.091272 1_544
Mg0 O4 2.091272 1_455
Mg0 O18 2.137660 1_545
Mg0 O23 2.137660 1_454
Mg1 O21 2.087764 1_555
Mg1 O20 2.087764 1_545
Mg1 O15 2.091272 1_555
Mg1 O2 2.091272 1_545
Mg1 O16 2.137660 1_555
Mg1 O19 2.137660 1_545
H0 O15 0.999583 1_555
H0 O17 1.711007 1_555
H1 O16 0.989297 1_555
H2 O4 0.997477 1_555
H2 O7 1.728536 1_555
H3 O23 0.989297 1_555
H4 O2 0.997477 1_555
H4 O1 1.728536 1_555
H5 O16 0.993324 1_555
H6 O2 0.999583 1_555
H6 O9 1.711007 1_555
H7 O10 0.999583 1_655
H7 O6 1.711007 1_555
H8 O19 0.989297 1_555
H9 O4 0.999583 1_455
H9 O5 1.711007 1_555
H10 O23 0.993324 1_555
H11 O18 0.993324 1_555
H12 O19 0.993324 1_555
H13 O18 0.989297 1_555
H14 O15 0.997477 1_555
H14 O8 1.728536 1_555
H15 O10 0.997477 1_555
H15 O11 1.728536 1_555
O0 S2 1.475899 1_555
O1 S0 1.506536 1_555
O3 S1 1.475899 1_555
O5 S0 1.509428 1_555
O6 S1 1.509428 1_555
O7 S3 1.506536 1_555
O8 S1 1.506536 1_555
O9 S3 1.509428 1_555
O11 S2 1.506536 1_555
O12 S3 1.475899 1_555
O13 S0 1.475899 1_555
O14 S3 1.485610 1_555
O17 S2 1.509428 1_555
O20 S1 1.485610 1_555
O21 S0 1.485610 1_555
O22 S2 1.485610 1_555
