# generated using pymatgen
data_PbI2
_symmetry_space_group_name_H-M   'P 1'
_cell_length_a   4.66878935
_cell_length_b   4.66878935
_cell_length_c   75.08176200
_cell_angle_alpha   90.00000000
_cell_angle_beta   90.00000000
_cell_angle_gamma   119.99999086
_symmetry_Int_Tables_number   1
_chemical_formula_structural   PbI2
_chemical_formula_sum   'Pb10 I20'
_cell_volume   1417.33883744
_cell_formula_units_Z   10
loop_
 _symmetry_equiv_pos_site_id
 _symmetry_equiv_pos_as_xyz
  1  'x, y, z'
loop_
 _atom_site_type_symbol
 _atom_site_label
 _atom_site_symmetry_multiplicity
 _atom_site_fract_x
 _atom_site_fract_y
 _atom_site_fract_z
 _atom_site_occupancy
  Pb  Pb0  1  0.00000000  0.00000000  0.82681300  1
  Pb  Pb1  1  0.33333300  0.66666700  0.32677300  1
  Pb  Pb2  1  0.33333300  0.66666700  0.52674900  1
  Pb  Pb3  1  0.33333300  0.66666700  0.12651800  1
  Pb  Pb4  1  0.00000000  0.00000000  0.92663300  1
  Pb  Pb5  1  0.33333300  0.66666700  0.42665800  1
  Pb  Pb6  1  0.33333300  0.66666700  0.72675100  1
  Pb  Pb7  1  0.33333300  0.66666700  0.22661300  1
  Pb  Pb8  1  0.33333300  0.66666700  0.02667600  1
  Pb  Pb9  1  0.33333300  0.66666700  0.62650300  1
  I  I0  1  0.00000000  0.00000000  0.10162800  1
  I  I1  1  0.33333300  0.66666700  0.90174300  1
  I  I2  1  0.00000000  0.00000000  0.60160500  1
  I  I3  1  0.66666700  0.33333300  0.85168300  1
  I  I4  1  0.00000000  0.00000000  0.30189000  1
  I  I5  1  0.00000000  0.00000000  0.20171700  1
  I  I6  1  0.00000000  0.00000000  0.40177400  1
  I  I7  1  0.66666700  0.33333300  0.15139600  1
  I  I8  1  0.66666700  0.33333300  0.35163500  1
  I  I9  1  0.33333300  0.66666700  0.80193500  1
  I  I10  1  0.00000000  0.00000000  0.00181900  1
  I  I11  1  0.66666700  0.33333300  0.55162400  1
  I  I12  1  0.66666700  0.33333300  0.05155600  1
  I  I13  1  0.66666700  0.33333300  0.65138900  1
  I  I14  1  0.66666700  0.33333300  0.75162400  1
  I  I15  1  0.66666700  0.33333300  0.95149700  1
  I  I16  1  0.66666700  0.33333300  0.25150400  1
  I  I17  1  0.00000000  0.00000000  0.50187700  1
  I  I18  1  0.00000000  0.00000000  0.70187700  1
  I  I19  1  0.66666700  0.33333300  0.45154000  1
loop_
_geom_bond_atom_site_label_1
_geom_bond_atom_site_label_2
_geom_bond_distance
_geom_bond_site_symmetry_2
I0 Pb3 3.279971 1_545
I0 Pb3 3.279974 1_555
I0 Pb3 3.279974 1_445
I1 Pb4 3.279971 1_565
I1 Pb4 3.279974 1_665
I1 Pb4 3.279974 1_555
I2 Pb9 3.280313 1_545
I2 Pb9 3.280316 1_445
I2 Pb9 3.280316 1_555
I3 Pb0 3.279115 1_655
I3 Pb0 3.279119 1_665
I3 Pb0 3.279119 1_555
I4 Pb1 3.279671 1_545
I4 Pb1 3.279675 1_555
I4 Pb1 3.279675 1_445
I5 Pb7 3.280227 1_545
I5 Pb7 3.280231 1_555
I5 Pb7 3.280231 1_445
I6 Pb5 3.279714 1_545
I6 Pb5 3.279718 1_445
I6 Pb5 3.279718 1_555
I7 Pb3 3.279458 1_545
I7 Pb3 3.279458 1_655
I7 Pb3 3.279464 1_555
I8 Pb1 3.278774 1_545
I8 Pb1 3.278774 1_655
I8 Pb1 3.278780 1_555
I9 Pb0 3.279457 1_565
I9 Pb0 3.279461 1_665
I9 Pb0 3.279461 1_555
I10 Pb8 3.278560 1_545
I10 Pb8 3.278563 1_445
I10 Pb8 3.278563 1_555
I11 Pb2 3.279329 1_545
I11 Pb2 3.279329 1_655
I11 Pb2 3.279336 1_555
I12 Pb8 3.279543 1_545
I12 Pb8 3.279543 1_655
I12 Pb8 3.279550 1_555
I13 Pb9 3.279800 1_545
I13 Pb9 3.279800 1_655
I13 Pb9 3.279806 1_555
I14 Pb6 3.279244 1_545
I14 Pb6 3.279244 1_655
I14 Pb6 3.279250 1_555
I15 Pb4 3.278859 1_655
I15 Pb4 3.278862 1_665
I15 Pb4 3.278862 1_555
I16 Pb7 3.280014 1_545
I16 Pb7 3.280014 1_655
I16 Pb7 3.280020 1_555
I17 Pb2 3.279201 1_545
I17 Pb2 3.279204 1_555
I17 Pb2 3.279204 1_445
I18 Pb6 3.279286 1_545
I18 Pb6 3.279290 1_555
I18 Pb6 3.279290 1_445
I19 Pb5 3.279629 1_545
I19 Pb5 3.279629 1_655
I19 Pb5 3.279635 1_555
