# generated using pymatgen
data_Cs2NaAl(PO4)2
_symmetry_space_group_name_H-M   'P 1'
_cell_length_a   9.35255800
_cell_length_b   11.20211900
_cell_length_c   19.23402637
_cell_angle_alpha   89.94050290
_cell_angle_beta   90.00000000
_cell_angle_gamma   90.00000000
_symmetry_Int_Tables_number   1
_chemical_formula_structural   Cs2NaAl(PO4)2
_chemical_formula_sum   'Cs16 Na8 Al8 P16 O64'
_cell_volume   2015.11838347
_cell_formula_units_Z   8
loop_
 _symmetry_equiv_pos_site_id
 _symmetry_equiv_pos_as_xyz
  1  'x, y, z'
loop_
 _atom_site_type_symbol
 _atom_site_label
 _atom_site_symmetry_multiplicity
 _atom_site_fract_x
 _atom_site_fract_y
 _atom_site_fract_z
 _atom_site_occupancy
  Cs  Cs0  1  0.00021500  0.08495600  0.88125300  1
  Cs  Cs1  1  0.00522900  0.59271800  0.39769100  1
  Cs  Cs2  1  0.45893900  0.18469100  0.85376600  1
  Cs  Cs3  1  0.04106100  0.18469100  0.35376600  1
  Cs  Cs4  1  0.95893900  0.81530900  0.64623400  1
  Cs  Cs5  1  0.54106100  0.81530900  0.14623400  1
  Cs  Cs6  1  0.99477100  0.40728200  0.60230900  1
  Cs  Cs7  1  0.03401900  0.31345200  0.13328100  1
  Cs  Cs8  1  0.50522900  0.40728200  0.10230900  1
  Cs  Cs9  1  0.99978500  0.91504400  0.11874700  1
  Cs  Cs10  1  0.50021500  0.91504400  0.61874700  1
  Cs  Cs11  1  0.49477100  0.59271800  0.89769100  1
  Cs  Cs12  1  0.96598100  0.68654800  0.86671900  1
  Cs  Cs13  1  0.49978500  0.08495600  0.38125300  1
  Cs  Cs14  1  0.46598100  0.31345200  0.63328100  1
  Cs  Cs15  1  0.53401900  0.68654800  0.36671900  1
  Na  Na0  1  0.64697400  0.91057200  0.79143300  1
  Na  Na1  1  0.83034200  0.60274500  0.03940500  1
  Na  Na2  1  0.16965800  0.39725500  0.96059500  1
  Na  Na3  1  0.66965800  0.60274500  0.53940500  1
  Na  Na4  1  0.14697400  0.08942800  0.70856700  1
  Na  Na5  1  0.35302600  0.08942800  0.20856700  1
  Na  Na6  1  0.33034200  0.39725500  0.46059500  1
  Na  Na7  1  0.85302600  0.91057200  0.29143300  1
  Al  Al0  1  0.82647300  0.38431100  0.78956100  1
  Al  Al1  1  0.16008900  0.88192000  0.45873300  1
  Al  Al2  1  0.66008900  0.11808000  0.04126700  1
  Al  Al3  1  0.17352700  0.61568900  0.21043900  1
  Al  Al4  1  0.83991100  0.11808000  0.54126700  1
  Al  Al5  1  0.32647300  0.61568900  0.71043900  1
  Al  Al6  1  0.33991100  0.88192000  0.95873300  1
  Al  Al7  1  0.67352700  0.38431100  0.28956100  1
  P  P0  1  0.22905800  0.85301700  0.29904100  1
  P  P1  1  0.68750700  0.87857800  0.96093200  1
  P  P2  1  0.18750700  0.12142200  0.53906800  1
  P  P3  1  0.82539400  0.60332700  0.21799600  1
  P  P4  1  0.21126900  0.66319300  0.04763100  1
  P  P5  1  0.17460600  0.39667300  0.78200400  1
  P  P6  1  0.31249300  0.12142200  0.03906800  1
  P  P7  1  0.71126900  0.33680700  0.45236900  1
  P  P8  1  0.27094200  0.85301700  0.79904100  1
  P  P9  1  0.72905800  0.14698300  0.20095900  1
  P  P10  1  0.81249300  0.87857800  0.46093200  1
  P  P11  1  0.78873100  0.33680700  0.95236900  1
  P  P12  1  0.32539400  0.39667300  0.28200400  1
  P  P13  1  0.67460600  0.60332700  0.71799600  1
  P  P14  1  0.28873100  0.66319300  0.54763100  1
  P  P15  1  0.77094200  0.14698300  0.70095900  1
  O  O0  1  0.22830500  0.09869700  0.10572100  1
  O  O1  1  0.50826500  0.57672600  0.71336200  1
  O  O2  1  0.72286900  0.32210900  0.37025200  1
  O  O3  1  0.77125800  0.97774600  0.51679900  1
  O  O4  1  0.77169500  0.90130300  0.89427900  1
  O  O5  1  0.52367200  0.89829200  0.94385400  1
  O  O6  1  0.79109900  0.75661100  0.49373900  1
  O  O7  1  0.71781500  0.28265100  0.22390800  1
  O  O8  1  0.70890100  0.75661100  0.99373900  1
  O  O9  1  0.77713100  0.32210900  0.87025200  1
  O  O10  1  0.99173500  0.57672600  0.21336200  1
  O  O11  1  0.02367200  0.10170800  0.55614600  1
  O  O12  1  0.74572100  0.56868700  0.64961600  1
  O  O13  1  0.25376600  0.84111900  0.88125900  1
  O  O14  1  0.69274700  0.22835700  0.97833700  1
  O  O15  1  0.24623400  0.84111900  0.38125900  1
  O  O16  1  0.22286900  0.67789100  0.12974800  1
  O  O17  1  0.86717800  0.09374300  0.22952100  1
  O  O18  1  0.29872200  0.26802400  0.25957700  1
  O  O19  1  0.13282200  0.90625700  0.77047900  1
  O  O20  1  0.09494500  0.92227700  0.28050800  1
  O  O21  1  0.21781500  0.71734900  0.27609200  1
  O  O22  1  0.55663400  0.32024900  0.47542000  1
  O  O23  1  0.70127800  0.73197600  0.74042300  1
  O  O24  1  0.74623400  0.15888100  0.11874100  1
  O  O25  1  0.47632800  0.10170800  0.05614600  1
  O  O26  1  0.77278600  0.51718500  0.27879000  1
  O  O27  1  0.77959300  0.45396900  0.47508700  1
  O  O28  1  0.97632800  0.89829200  0.44385400  1
  O  O29  1  0.90505500  0.07772300  0.71949200  1
  O  O30  1  0.27278600  0.48281500  0.22121000  1
  O  O31  1  0.44336600  0.67975100  0.52458000  1
  O  O32  1  0.36717800  0.90625700  0.27047900  1
  O  O33  1  0.19274700  0.77164300  0.52166300  1
  O  O34  1  0.27125800  0.02225400  0.98320100  1
  O  O35  1  0.20127800  0.26802400  0.75957700  1
  O  O36  1  0.59494500  0.07772300  0.21949200  1
  O  O37  1  0.05663400  0.67975100  0.02458000  1
  O  O38  1  0.80725300  0.22835700  0.47833700  1
  O  O39  1  0.49173500  0.42327400  0.28663800  1
  O  O40  1  0.22040700  0.54603100  0.52491300  1
  O  O41  1  0.72830500  0.90130300  0.39427900  1
  O  O42  1  0.78218500  0.28265100  0.72390800  1
  O  O43  1  0.28218500  0.71734900  0.77609200  1
  O  O44  1  0.22721400  0.48281500  0.72121000  1
  O  O45  1  0.22874200  0.02225400  0.48320100  1
  O  O46  1  0.75427900  0.56868700  0.14961600  1
  O  O47  1  0.72040700  0.45396900  0.97508700  1
  O  O48  1  0.30725300  0.77164300  0.02166300  1
  O  O49  1  0.25427900  0.43131300  0.35038400  1
  O  O50  1  0.72721400  0.51718500  0.77879000  1
  O  O51  1  0.79872200  0.73197600  0.24042300  1
  O  O52  1  0.29109900  0.24338900  0.00626100  1
  O  O53  1  0.75376600  0.15888100  0.61874100  1
  O  O54  1  0.27959300  0.54603100  0.02491300  1
  O  O55  1  0.40505500  0.92227700  0.78050800  1
  O  O56  1  0.27169500  0.09869700  0.60572100  1
  O  O57  1  0.27713100  0.67789100  0.62974800  1
  O  O58  1  0.00826500  0.42327400  0.78663800  1
  O  O59  1  0.24572100  0.43131300  0.85038400  1
  O  O60  1  0.94336600  0.32024900  0.97542000  1
  O  O61  1  0.20890100  0.24338900  0.50626100  1
  O  O62  1  0.63282200  0.09374300  0.72952100  1
  O  O63  1  0.72874200  0.97774600  0.01679900  1
loop_
_geom_bond_atom_site_label_1
_geom_bond_atom_site_label_2
_geom_bond_distance
_geom_bond_site_symmetry_2
Cs0 O4 2.976914 1_445
Cs0 O19 3.177075 1_545
Cs0 O29 3.237198 1_455
Cs0 O60 3.243520 1_455
Cs0 O34 3.280466 1_555
Cs0 O9 3.384421 1_455
Cs0 O13 3.617229 1_545
Cs0 O35 3.634392 1_555
Cs1 O27 3.013351 1_455
Cs1 O49 3.086408 1_555
Cs1 O40 3.210708 1_555
Cs1 O26 3.267426 1_455
Cs1 O6 3.286527 1_455
Cs1 O21 3.371290 1_555
Cs1 O28 3.547561 1_455
Cs1 O10 3.552340 1_455
Cs1 O33 3.576139 1_555
Cs1 O15 3.594663 1_555
Cs2 O62 3.065704 1_555
Cs2 O35 3.155475 1_555
Cs2 O14 3.280884 1_555
Cs2 O55 3.299877 1_545
Cs2 O9 3.365600 1_555
Cs2 O52 3.391676 1_556
Cs2 O59 3.407767 1_555
Cs2 O34 3.546919 1_555
Cs2 O5 3.694653 1_545
Cs3 O17 3.065704 1_455
Cs3 O18 3.155475 1_555
Cs3 O38 3.280884 1_455
Cs3 O20 3.299877 1_545
Cs3 O2 3.365600 1_455
Cs3 O61 3.391676 1_555
Cs3 O49 3.407767 1_555
Cs3 O45 3.546919 1_555
Cs3 O28 3.694653 1_445
Cs4 O19 3.065704 1_655
Cs4 O23 3.155475 1_555
Cs4 O33 3.280884 1_655
Cs4 O29 3.299877 1_565
Cs4 O57 3.365600 1_655
Cs4 O6 3.391676 1_555
Cs4 O12 3.407767 1_555
Cs4 O3 3.546919 1_555
Cs4 O11 3.694653 1_665
Cs5 O32 3.065704 1_555
Cs5 O51 3.155475 1_555
Cs5 O48 3.280884 1_555
Cs5 O36 3.299877 1_565
Cs5 O16 3.365600 1_555
Cs5 O8 3.391676 1_554
Cs5 O46 3.407767 1_555
Cs5 O63 3.546919 1_555
Cs5 O25 3.694653 1_565
Cs6 O40 3.013351 1_655
Cs6 O12 3.086408 1_555
Cs6 O27 3.210708 1_555
Cs6 O44 3.267426 1_655
Cs6 O61 3.286527 1_655
Cs6 O42 3.371290 1_555
Cs6 O11 3.547561 1_655
Cs6 O58 3.552340 1_655
Cs6 O38 3.576139 1_555
Cs6 O53 3.594663 1_555
Cs7 O0 3.061509 1_555
Cs7 O60 3.153297 1_454
Cs7 O24 3.212740 1_455
Cs7 O10 3.352048 1_455
Cs7 O30 3.384233 1_555
Cs7 O7 3.449927 1_455
Cs7 O17 3.451000 1_455
Cs7 O18 3.505162 1_555
Cs7 O52 3.517054 1_555
Cs8 O54 3.013351 1_555
Cs8 O46 3.086408 1_555
Cs8 O47 3.210708 1_554
Cs8 O30 3.267426 1_555
Cs8 O52 3.286527 1_555
Cs8 O7 3.371290 1_555
Cs8 O25 3.547561 1_555
Cs8 O39 3.552340 1_555
Cs8 O14 3.576139 1_554
Cs8 O24 3.594663 1_555
Cs9 O0 2.976914 1_665
Cs9 O17 3.177075 1_565
Cs9 O20 3.237198 1_655
Cs9 O37 3.243520 1_655
Cs9 O63 3.280466 1_555
Cs9 O16 3.384421 1_655
Cs9 O24 3.617229 1_565
Cs9 O51 3.634392 1_555
Cs10 O56 2.976914 1_565
Cs10 O62 3.177075 1_565
Cs10 O55 3.237198 1_555
Cs10 O31 3.243520 1_555
Cs10 O3 3.280466 1_555
Cs10 O57 3.384421 1_555
Cs10 O53 3.617229 1_565
Cs10 O23 3.634392 1_555
Cs11 O47 3.013351 1_555
Cs11 O59 3.086408 1_555
Cs11 O54 3.210708 1_556
Cs11 O50 3.267426 1_555
Cs11 O8 3.286527 1_555
Cs11 O43 3.371290 1_555
Cs11 O5 3.547561 1_555
Cs11 O1 3.552340 1_555
Cs11 O48 3.576139 1_556
Cs11 O13 3.594663 1_555
Cs12 O4 3.061509 1_555
Cs12 O37 3.153297 1_656
Cs12 O13 3.212740 1_655
Cs12 O58 3.352048 1_655
Cs12 O50 3.384233 1_555
Cs12 O43 3.449927 1_655
Cs12 O19 3.451000 1_655
Cs12 O23 3.505162 1_555
Cs12 O8 3.517054 1_555
Cs13 O41 2.976914 1_545
Cs13 O32 3.177075 1_545
Cs13 O36 3.237198 1_555
Cs13 O22 3.243520 1_555
Cs13 O45 3.280466 1_555
Cs13 O2 3.384421 1_555
Cs13 O15 3.617229 1_545
Cs13 O18 3.634392 1_555
Cs14 O56 3.061509 1_555
Cs14 O22 3.153297 1_555
Cs14 O53 3.212740 1_555
Cs14 O1 3.352048 1_555
Cs14 O44 3.384233 1_555
Cs14 O42 3.449927 1_555
Cs14 O62 3.451000 1_555
Cs14 O35 3.505162 1_555
Cs14 O61 3.517054 1_555
Cs15 O41 3.061509 1_555
Cs15 O31 3.153297 1_555
Cs15 O15 3.212740 1_555
Cs15 O39 3.352048 1_555
Cs15 O26 3.384233 1_555
Cs15 O21 3.449927 1_555
Cs15 O32 3.451000 1_555
Cs15 O51 3.505162 1_555
Cs15 O6 3.517054 1_555
Na0 O55 2.276066 1_555
Na0 O23 2.286317 1_555
Na0 O4 2.298702 1_555
Na0 O62 2.375036 1_565
Na1 O8 2.242594 1_554
Na1 O46 2.267929 1_555
Na1 O37 2.303066 1_655
Na1 O47 2.317197 1_554
Na2 O52 2.242594 1_556
Na2 O59 2.267929 1_555
Na2 O60 2.303066 1_455
Na2 O54 2.317197 1_556
Na3 O6 2.242594 1_555
Na3 O12 2.267929 1_555
Na3 O31 2.303066 1_555
Na3 O27 2.317197 1_555
Na4 O29 2.276066 1_455
Na4 O35 2.286317 1_555
Na4 O56 2.298702 1_555
Na4 O19 2.375036 1_545
Na5 O36 2.276066 1_555
Na5 O18 2.286317 1_555
Na5 O0 2.298702 1_555
Na5 O32 2.375036 1_545
Na6 O61 2.242594 1_555
Na6 O49 2.267929 1_555
Na6 O22 2.303066 1_555
Na6 O40 2.317197 1_555
Na7 O20 2.276066 1_655
Na7 O51 2.286317 1_555
Na7 O41 2.298702 1_555
Na7 O17 2.375036 1_565
Al0 O42 1.751008 1_555
Al0 O58 1.756235 1_655
Al0 O9 1.762095 1_555
Al0 O50 1.766242 1_555
Al1 O28 1.751895 1_455
Al1 O15 1.754975 1_555
Al1 O33 1.755364 1_555
Al1 O45 1.762552 1_565
Al2 O25 1.751895 1_555
Al2 O24 1.754975 1_555
Al2 O14 1.755364 1_554
Al2 O63 1.762552 1_545
Al3 O21 1.751008 1_555
Al3 O10 1.756235 1_455
Al3 O16 1.762095 1_555
Al3 O30 1.766242 1_555
Al4 O11 1.751895 1_655
Al4 O53 1.754975 1_555
Al4 O38 1.755364 1_555
Al4 O3 1.762552 1_545
Al5 O43 1.751008 1_555
Al5 O1 1.756235 1_555
Al5 O57 1.762095 1_555
Al5 O44 1.766242 1_555
Al6 O5 1.751895 1_555
Al6 O13 1.754975 1_555
Al6 O48 1.755364 1_556
Al6 O34 1.762552 1_565
Al7 O7 1.751008 1_555
Al7 O39 1.756235 1_555
Al7 O2 1.762095 1_555
Al7 O26 1.766242 1_555
O0 P6 1.525655 1_555
O1 P13 1.586519 1_555
O2 P7 1.591871 1_555
O3 P10 1.593719 1_555
O4 P1 1.525655 1_555
O5 P1 1.582526 1_555
O6 P10 1.517618 1_555
O7 P9 1.586500 1_555
O8 P1 1.517618 1_555
O9 P11 1.591871 1_555
O10 P3 1.586519 1_555
O11 P2 1.582526 1_555
O12 P13 1.524406 1_555
O13 P8 1.594962 1_555
O14 P11 1.590590 1_555
O15 P0 1.594962 1_555
O16 P4 1.591871 1_555
O17 P9 1.524958 1_555
O18 P12 1.525280 1_555
O19 P8 1.524958 1_555
O20 P0 1.517141 1_555
O21 P0 1.586500 1_555
O22 P7 1.523940 1_555
O23 P13 1.525280 1_555
O24 P9 1.594962 1_555
O25 P6 1.582526 1_555
O26 P3 1.593175 1_555
O27 P7 1.524142 1_555
O28 P10 1.582526 1_555
O29 P15 1.517141 1_555
O30 P12 1.593175 1_555
O31 P14 1.523940 1_555
O32 P0 1.524958 1_555
O33 P14 1.590590 1_555
O34 P6 1.593719 1_556
O35 P5 1.525280 1_555
O36 P9 1.517141 1_555
O37 P4 1.523940 1_555
O38 P7 1.590590 1_555
O39 P12 1.586519 1_555
O40 P14 1.524142 1_555
O41 P10 1.525655 1_555
O42 P15 1.586500 1_555
O43 P8 1.586500 1_555
O44 P5 1.593175 1_555
O45 P2 1.593719 1_555
O46 P3 1.524406 1_555
O47 P11 1.524142 1_555
O48 P4 1.590590 1_555
O49 P12 1.524406 1_555
O50 P13 1.593175 1_555
O51 P3 1.525280 1_555
O52 P6 1.517618 1_555
O53 P15 1.594962 1_555
O54 P4 1.524142 1_555
O55 P8 1.517141 1_555
O56 P2 1.525655 1_555
O57 P14 1.591871 1_555
O58 P5 1.586519 1_555
O59 P5 1.524406 1_555
O60 P11 1.523940 1_555
O61 P2 1.517618 1_555
O62 P15 1.524958 1_555
O63 P1 1.593719 1_554
