# generated using pymatgen
data_NaH4ClO2
_symmetry_space_group_name_H-M   'P 1'
_cell_length_a   10.18512100
_cell_length_b   6.46173500
_cell_length_c   6.60376315
_cell_angle_alpha   65.20114887
_cell_angle_beta   90.00000000
_cell_angle_gamma   90.00000000
_symmetry_Int_Tables_number   1
_chemical_formula_structural   NaH4ClO2
_chemical_formula_sum   'Na4 H16 Cl4 O8'
_cell_volume   394.53928404
_cell_formula_units_Z   4
loop_
 _symmetry_equiv_pos_site_id
 _symmetry_equiv_pos_as_xyz
  1  'x, y, z'
loop_
 _atom_site_type_symbol
 _atom_site_label
 _atom_site_symmetry_multiplicity
 _atom_site_fract_x
 _atom_site_fract_y
 _atom_site_fract_z
 _atom_site_occupancy
  Na  Na0  1  0.83177400  0.02774200  0.54537800  1
  Na  Na1  1  0.33177400  0.97225800  0.95462200  1
  Na  Na2  1  0.16822600  0.97225800  0.45462200  1
  Na  Na3  1  0.66822600  0.02774200  0.04537800  1
  H  H0  1  0.59045900  0.77599000  0.77854000  1
  H  H1  1  0.09045900  0.22401000  0.72146000  1
  H  H2  1  0.40954100  0.22401000  0.22146000  1
  H  H3  1  0.90954100  0.77599000  0.27854000  1
  H  H4  1  0.70211800  0.63733600  0.93552000  1
  H  H5  1  0.20211800  0.36266400  0.56448000  1
  H  H6  1  0.29788200  0.36266400  0.06448000  1
  H  H7  1  0.79788200  0.63733600  0.43552000  1
  H  H8  1  0.47631700  0.38138200  0.75140200  1
  H  H9  1  0.97631700  0.61861800  0.74859800  1
  H  H10  1  0.52368300  0.61861800  0.24859800  1
  H  H11  1  0.02368300  0.38138200  0.25140200  1
  H  H12  1  0.53920900  0.25333100  0.61819000  1
  H  H13  1  0.03920900  0.74666900  0.88181000  1
  H  H14  1  0.46079100  0.74666900  0.38181000  1
  H  H15  1  0.96079100  0.25333100  0.11819000  1
  Cl  Cl0  1  0.88537800  0.29502300  0.79090800  1
  Cl  Cl1  1  0.38537800  0.70497700  0.70909200  1
  Cl  Cl2  1  0.11462200  0.70497700  0.20909200  1
  Cl  Cl3  1  0.61462200  0.29502300  0.29090800  1
  O  O0  1  0.68036500  0.79179600  0.82706000  1
  O  O1  1  0.18036500  0.20820400  0.67294000  1
  O  O2  1  0.31963500  0.20820400  0.17294000  1
  O  O3  1  0.81963500  0.79179600  0.32706000  1
  O  O4  1  0.50885800  0.23109100  0.76797500  1
  O  O5  1  0.00885800  0.76890900  0.73202500  1
  O  O6  1  0.49114200  0.76890900  0.23202500  1
  O  O7  1  0.99114200  0.23109100  0.26797500  1
loop_
_geom_bond_atom_site_label_1
_geom_bond_atom_site_label_2
_geom_bond_distance
_geom_bond_site_symmetry_2
Na0 O7 2.387031 1_555
Na0 O0 2.404940 1_545
Na0 O5 2.416663 1_645
Na0 O3 2.502440 1_545
Na1 O6 2.387031 1_556
Na1 O1 2.404940 1_565
Na1 O4 2.416663 1_565
Na1 O2 2.502440 1_566
Na2 O5 2.387031 1_555
Na2 O2 2.404940 1_565
Na2 O7 2.416663 1_465
Na2 O1 2.502440 1_565
Na3 O4 2.387031 1_554
Na3 O3 2.404940 1_545
Na3 O6 2.416663 1_545
Na3 O0 2.502440 1_544
H0 O0 0.989476 1_555
H1 O1 0.989476 1_555
H2 O2 0.989476 1_555
H3 O3 0.989476 1_555
H4 O0 0.979069 1_555
H5 O1 0.979069 1_555
H6 O2 0.979069 1_555
H7 O3 0.979069 1_555
H8 O4 0.987816 1_555
H9 O5 0.987816 1_655
H10 O6 0.987816 1_555
H11 O7 0.987816 1_455
H12 O4 0.987611 1_555
H13 O5 0.987611 1_555
H14 O6 0.987611 1_555
H15 O7 0.987611 1_555
Cl0 Na0 2.873862 1_555
Cl0 Na3 2.874692 1_556
Cl1 Na1 2.873862 1_555
Cl1 Na2 2.874692 1_555
Cl2 Na2 2.873862 1_555
Cl2 Na1 2.874692 1_554
Cl3 Na3 2.873862 1_555
Cl3 Na0 2.874692 1_555
