# generated using pymatgen
data_CrHg6As4Br7
_symmetry_space_group_name_H-M   'P 1'
_cell_length_a   12.61122500
_cell_length_b   12.61122500
_cell_length_c   12.61122500
_cell_angle_alpha   90.00000000
_cell_angle_beta   90.00000000
_cell_angle_gamma   90.00000000
_symmetry_Int_Tables_number   1
_chemical_formula_structural   CrHg6As4Br7
_chemical_formula_sum   'Cr4 Hg24 As16 Br28'
_cell_volume   2005.72700724
_cell_formula_units_Z   4
loop_
 _symmetry_equiv_pos_site_id
 _symmetry_equiv_pos_as_xyz
  1  'x, y, z'
loop_
 _atom_site_type_symbol
 _atom_site_label
 _atom_site_symmetry_multiplicity
 _atom_site_fract_x
 _atom_site_fract_y
 _atom_site_fract_z
 _atom_site_occupancy
  Cr  Cr0  1  0.00000000  0.00000000  0.50000000  1
  Cr  Cr1  1  0.50000000  0.00000000  0.00000000  1
  Cr  Cr2  1  0.00000000  0.50000000  0.00000000  1
  Cr  Cr3  1  0.50000000  0.50000000  0.50000000  1
  Hg  Hg0  1  0.79921400  0.45966800  0.30675100  1
  Hg  Hg1  1  0.20078600  0.54033200  0.69324900  1
  Hg  Hg2  1  0.54033200  0.80675100  0.70078600  1
  Hg  Hg3  1  0.69324900  0.20078600  0.54033200  1
  Hg  Hg4  1  0.30675100  0.70078600  0.95966800  1
  Hg  Hg5  1  0.69324900  0.29921400  0.04033200  1
  Hg  Hg6  1  0.19324900  0.20078600  0.95966800  1
  Hg  Hg7  1  0.70078600  0.54033200  0.80675100  1
  Hg  Hg8  1  0.80675100  0.70078600  0.54033200  1
  Hg  Hg9  1  0.30675100  0.79921400  0.45966800  1
  Hg  Hg10  1  0.80675100  0.79921400  0.04033200  1
  Hg  Hg11  1  0.29921400  0.04033200  0.69324900  1
  Hg  Hg12  1  0.20078600  0.95966800  0.19324900  1
  Hg  Hg13  1  0.45966800  0.30675100  0.79921400  1
  Hg  Hg14  1  0.04033200  0.80675100  0.79921400  1
  Hg  Hg15  1  0.04033200  0.69324900  0.29921400  1
  Hg  Hg16  1  0.70078600  0.95966800  0.30675100  1
  Hg  Hg17  1  0.95966800  0.19324900  0.20078600  1
  Hg  Hg18  1  0.95966800  0.30675100  0.70078600  1
  Hg  Hg19  1  0.45966800  0.19324900  0.29921400  1
  Hg  Hg20  1  0.79921400  0.04033200  0.80675100  1
  Hg  Hg21  1  0.29921400  0.45966800  0.19324900  1
  Hg  Hg22  1  0.54033200  0.69324900  0.20078600  1
  Hg  Hg23  1  0.19324900  0.29921400  0.45966800  1
  As  As0  1  0.22877800  0.72877800  0.77122200  1
  As  As1  1  0.72877800  0.77122200  0.22877800  1
  As  As2  1  0.15708600  0.15708600  0.15708600  1
  As  As3  1  0.15708600  0.34291400  0.65708600  1
  As  As4  1  0.27122200  0.27122200  0.27122200  1
  As  As5  1  0.22877800  0.77122200  0.27122200  1
  As  As6  1  0.77122200  0.27122200  0.22877800  1
  As  As7  1  0.65708600  0.34291400  0.84291400  1
  As  As8  1  0.84291400  0.84291400  0.84291400  1
  As  As9  1  0.34291400  0.84291400  0.65708600  1
  As  As10  1  0.34291400  0.65708600  0.15708600  1
  As  As11  1  0.27122200  0.22877800  0.77122200  1
  As  As12  1  0.72877800  0.72877800  0.72877800  1
  As  As13  1  0.77122200  0.22877800  0.72877800  1
  As  As14  1  0.65708600  0.15708600  0.34291400  1
  As  As15  1  0.84291400  0.65708600  0.34291400  1
  Br  Br0  1  0.95652700  0.30817600  0.96198700  1
  Br  Br1  1  0.53801300  0.04347300  0.80817600  1
  Br  Br2  1  0.96198700  0.54347300  0.80817600  1
  Br  Br3  1  0.00000000  0.50000000  0.50000000  1
  Br  Br4  1  0.96198700  0.95652700  0.30817600  1
  Br  Br5  1  0.80817600  0.53801300  0.04347300  1
  Br  Br6  1  0.46198700  0.54347300  0.69182400  1
  Br  Br7  1  0.54347300  0.80817600  0.96198700  1
  Br  Br8  1  0.45652700  0.19182400  0.03801300  1
  Br  Br9  1  0.69182400  0.46198700  0.54347300  1
  Br  Br10  1  0.45652700  0.30817600  0.53801300  1
  Br  Br11  1  0.03801300  0.04347300  0.69182400  1
  Br  Br12  1  0.19182400  0.46198700  0.95652700  1
  Br  Br13  1  0.53801300  0.45652700  0.30817600  1
  Br  Br14  1  0.95652700  0.19182400  0.46198700  1
  Br  Br15  1  0.19182400  0.03801300  0.45652700  1
  Br  Br16  1  0.46198700  0.95652700  0.19182400  1
  Br  Br17  1  0.00000000  0.00000000  0.00000000  1
  Br  Br18  1  0.04347300  0.80817600  0.53801300  1
  Br  Br19  1  0.80817600  0.96198700  0.54347300  1
  Br  Br20  1  0.69182400  0.03801300  0.04347300  1
  Br  Br21  1  0.30817600  0.96198700  0.95652700  1
  Br  Br22  1  0.30817600  0.53801300  0.45652700  1
  Br  Br23  1  0.50000000  0.00000000  0.50000000  1
  Br  Br24  1  0.54347300  0.69182400  0.46198700  1
  Br  Br25  1  0.04347300  0.69182400  0.03801300  1
  Br  Br26  1  0.03801300  0.45652700  0.19182400  1
  Br  Br27  1  0.50000000  0.50000000  0.00000000  1
loop_
_geom_bond_atom_site_label_1
_geom_bond_atom_site_label_2
_geom_bond_distance
_geom_bond_site_symmetry_2
As0 As9 2.493105 1_555
As0 Hg14 2.596052 1_555
As0 Hg1 2.596052 1_555
As0 Hg4 2.596052 1_555
As1 As15 2.493105 1_555
As1 Hg10 2.596052 1_555
As1 Hg22 2.596052 1_555
As1 Hg16 2.596052 1_555
As2 As4 2.493105 1_555
As2 Hg12 2.590412 1_545
As2 Hg6 2.590412 1_554
As2 Hg17 2.590412 1_455
As3 Hg1 2.590412 1_555
As3 Hg18 2.590412 1_455
As3 Hg23 2.590412 1_555
As4 Hg19 2.596052 1_555
As4 Hg23 2.596052 1_555
As4 Hg21 2.596052 1_555
As5 Hg15 2.596052 1_555
As5 Hg12 2.596052 1_555
As5 Hg9 2.596052 1_555
As6 Hg5 2.596052 1_555
As6 Hg17 2.596052 1_555
As6 Hg0 2.596052 1_555
As7 Hg7 2.590412 1_555
As7 Hg13 2.590412 1_555
As7 Hg5 2.590412 1_556
As8 Hg20 2.590412 1_565
As8 Hg10 2.590412 1_556
As8 Hg14 2.590412 1_655
As9 Hg2 2.590412 1_555
As9 Hg9 2.590412 1_555
As9 Hg11 2.590412 1_565
As10 As5 2.493105 1_555
As10 Hg22 2.590412 1_555
As10 Hg4 2.590412 1_554
As10 Hg21 2.590412 1_555
As11 As3 2.493105 1_555
As11 Hg11 2.596052 1_555
As11 Hg6 2.596052 1_555
As11 Hg13 2.596052 1_555
As12 As8 2.493105 1_555
As12 Hg8 2.596052 1_555
As12 Hg7 2.596052 1_555
As12 Hg2 2.596052 1_555
As13 As7 2.493105 1_555
As13 Hg20 2.596052 1_555
As13 Hg3 2.596052 1_555
As13 Hg18 2.596052 1_555
As14 As6 2.493105 1_555
As14 Hg3 2.590412 1_555
As14 Hg16 2.590412 1_545
As14 Hg19 2.590412 1_555
As15 Hg8 2.590412 1_555
As15 Hg0 2.590412 1_555
As15 Hg15 2.590412 1_655
Br0 Cr2 2.526382 1_656
Br1 Cr1 2.526382 1_556
Br2 Cr2 2.526382 1_656
Br4 Cr0 2.526382 1_665
Br5 Cr2 2.526382 1_655
Br6 Cr3 2.526382 1_555
Br7 Cr1 2.526382 1_566
Br8 Cr1 2.526382 1_555
Br9 Cr3 2.526382 1_555
Br10 Cr3 2.526382 1_555
Br11 Cr0 2.526382 1_555
Br12 Cr2 2.526382 1_556
Br13 Cr3 2.526382 1_555
Br14 Cr0 2.526382 1_655
Br15 Cr0 2.526382 1_555
Br16 Cr1 2.526382 1_565
Br18 Cr0 2.526382 1_565
Br19 Cr0 2.526382 1_665
Br20 Cr1 2.526382 1_555
Br21 Cr1 2.526382 1_566
Br22 Cr3 2.526382 1_555
Br24 Cr3 2.526382 1_555
Br25 Cr2 2.526382 1_555
Br26 Cr2 2.526382 1_555
