# generated using pymatgen
data_BaZn2Si2O7
_symmetry_space_group_name_H-M   'P 1'
_cell_length_a   7.66786608
_cell_length_b   7.66786608
_cell_length_c   6.71167100
_cell_angle_alpha   90.00000000
_cell_angle_beta   90.00000000
_cell_angle_gamma   117.12688928
_symmetry_Int_Tables_number   1
_chemical_formula_structural   BaZn2Si2O7
_chemical_formula_sum   'Ba2 Zn4 Si4 O14'
_cell_volume   351.21186259
_cell_formula_units_Z   2
loop_
 _symmetry_equiv_pos_site_id
 _symmetry_equiv_pos_as_xyz
  1  'x, y, z'
loop_
 _atom_site_type_symbol
 _atom_site_label
 _atom_site_symmetry_multiplicity
 _atom_site_fract_x
 _atom_site_fract_y
 _atom_site_fract_z
 _atom_site_occupancy
  Ba  Ba0  1  0.22883500  0.22883500  0.25000000  1
  Ba  Ba1  1  0.77116500  0.77116500  0.75000000  1
  Zn  Zn0  1  0.27576800  0.72423200  0.50000000  1
  Zn  Zn1  1  0.72423200  0.27576800  0.50000000  1
  Zn  Zn2  1  0.27576800  0.72423200  0.00000000  1
  Zn  Zn3  1  0.72423200  0.27576800  0.00000000  1
  Si  Si0  1  0.08679900  0.32418000  0.75000000  1
  Si  Si1  1  0.32418000  0.08679900  0.75000000  1
  Si  Si2  1  0.67582000  0.91320100  0.25000000  1
  Si  Si3  1  0.91320100  0.67582000  0.25000000  1
  O  O0  1  0.77001400  0.15642700  0.25000000  1
  O  O1  1  0.82031900  0.55860100  0.45545300  1
  O  O2  1  0.84357300  0.22998600  0.75000000  1
  O  O3  1  0.82031900  0.55860100  0.04454700  1
  O  O4  1  0.22998600  0.84357300  0.75000000  1
  O  O5  1  0.11949900  0.11949900  0.75000000  1
  O  O6  1  0.17968100  0.44139900  0.54454700  1
  O  O7  1  0.55860100  0.82031900  0.45545300  1
  O  O8  1  0.17968100  0.44139900  0.95545300  1
  O  O9  1  0.44139900  0.17968100  0.95545300  1
  O  O10  1  0.88050100  0.88050100  0.25000000  1
  O  O11  1  0.55860100  0.82031900  0.04454700  1
  O  O12  1  0.44139900  0.17968100  0.54454700  1
  O  O13  1  0.15642700  0.77001400  0.25000000  1
loop_
_geom_bond_atom_site_label_1
_geom_bond_atom_site_label_2
_geom_bond_distance
_geom_bond_site_symmetry_2
Ba0 O9 2.695744 1_554
Ba0 O8 2.695744 1_554
Ba0 O12 2.695744 1_555
Ba0 O6 2.695744 1_555
Ba0 O10 2.786120 1_445
Ba1 O11 2.695744 1_556
Ba1 O3 2.695744 1_556
Ba1 O7 2.695744 1_555
Ba1 O1 2.695744 1_555
Ba1 O5 2.786120 1_665
O0 Si2 1.664807 1_545
O0 Zn3 2.017173 1_555
O0 Zn1 2.017173 1_555
O1 Si3 1.622592 1_555
O1 Zn1 1.969382 1_555
O2 Si0 1.664807 1_655
O2 Zn3 2.017173 1_556
O2 Zn1 2.017173 1_555
O3 Si3 1.622592 1_555
O3 Zn3 1.969382 1_555
O4 Si1 1.664807 1_565
O4 Zn2 2.017173 1_556
O4 Zn0 2.017173 1_555
O5 Si0 1.698518 1_555
O5 Si1 1.698518 1_555
O6 Si0 1.622592 1_555
O6 Zn0 1.969382 1_555
O7 Si2 1.622592 1_555
O7 Zn0 1.969382 1_555
O8 Si0 1.622592 1_555
O8 Zn2 1.969382 1_556
O9 Si1 1.622592 1_555
O9 Zn3 1.969382 1_556
O10 Si3 1.698518 1_555
O10 Si2 1.698518 1_555
O11 Si2 1.622592 1_555
O11 Zn2 1.969382 1_555
O12 Si1 1.622592 1_555
O12 Zn1 1.969382 1_555
O13 Si3 1.664807 1_455
O13 Zn0 2.017173 1_555
O13 Zn2 2.017173 1_555
