# generated using pymatgen
data_NaMgAs
_symmetry_space_group_name_H-M   'P 1'
_cell_length_a   4.38585587
_cell_length_b   4.38585587
_cell_length_c   7.09374208
_cell_angle_alpha   90.00000000
_cell_angle_beta   90.00000000
_cell_angle_gamma   90.00000000
_symmetry_Int_Tables_number   1
_chemical_formula_structural   NaMgAs
_chemical_formula_sum   'Na2 Mg2 As2'
_cell_volume   136.45331949
_cell_formula_units_Z   2
loop_
 _symmetry_equiv_pos_site_id
 _symmetry_equiv_pos_as_xyz
  1  'x, y, z'
loop_
 _atom_site_type_symbol
 _atom_site_label
 _atom_site_symmetry_multiplicity
 _atom_site_fract_x
 _atom_site_fract_y
 _atom_site_fract_z
 _atom_site_occupancy
  Na  Na0  1  0.25000000  0.25000000  0.36627454  1
  Na  Na1  1  0.75000000  0.75000000  0.63372546  1
  Mg  Mg0  1  0.25000000  0.75000000  0.00000000  1
  Mg  Mg1  1  0.75000000  0.25000000  0.00000000  1
  As  As0  1  0.25000000  0.25000000  0.78348844  1
  As  As1  1  0.75000000  0.75000000  0.21651156  1
loop_
_geom_bond_atom_site_label_1
_geom_bond_atom_site_label_2
_geom_bond_distance
_geom_bond_site_symmetry_2
As0 Mg0 2.677284 1_556
As0 Mg1 2.677284 1_456
As0 Mg1 2.677284 1_556
As0 Mg0 2.677284 1_546
As0 Na0 2.959608 1_555
As0 Na1 3.278188 1_545
As0 Na1 3.278188 1_555
As0 Na1 3.278188 1_445
As0 Na1 3.278188 1_455
As1 Mg1 2.677284 1_555
As1 Mg1 2.677284 1_565
As1 Mg0 2.677284 1_555
As1 Mg0 2.677284 1_655
As1 Na1 2.959608 1_555
As1 Na0 3.278188 1_555
As1 Na0 3.278188 1_565
As1 Na0 3.278188 1_655
As1 Na0 3.278188 1_665
