# generated using pymatgen
data_Cs2Si2O5
_symmetry_space_group_name_H-M   'P 1'
_cell_length_a   8.67376012
_cell_length_b   10.10213619
_cell_length_c   18.54051276
_cell_angle_alpha   57.27222337
_cell_angle_beta   90.00000000
_cell_angle_gamma   90.00000000
_symmetry_Int_Tables_number   1
_chemical_formula_structural   Cs2Si2O5
_chemical_formula_sum   'Cs16 Si16 O40'
_cell_volume   1366.67992035
_cell_formula_units_Z   8
loop_
 _symmetry_equiv_pos_site_id
 _symmetry_equiv_pos_as_xyz
  1  'x, y, z'
loop_
 _atom_site_type_symbol
 _atom_site_label
 _atom_site_symmetry_multiplicity
 _atom_site_fract_x
 _atom_site_fract_y
 _atom_site_fract_z
 _atom_site_occupancy
  Cs  Cs0  1  0.13250304  0.18073315  0.41036611  1
  Cs  Cs1  1  0.09812622  0.73496672  0.41791203  1
  Cs  Cs2  1  0.87271265  0.24182424  0.91561320  1
  Cs  Cs3  1  0.59812622  0.26503328  0.08208797  1
  Cs  Cs4  1  0.90187378  0.26503328  0.58208797  1
  Cs  Cs5  1  0.88034266  0.68251699  0.90916586  1
  Cs  Cs6  1  0.40187378  0.73496672  0.91791203  1
  Cs  Cs7  1  0.11965734  0.31748301  0.09083414  1
  Cs  Cs8  1  0.37271265  0.75817576  0.58438680  1
  Cs  Cs9  1  0.36749696  0.18073315  0.91036611  1
  Cs  Cs10  1  0.86749696  0.81926685  0.58963389  1
  Cs  Cs11  1  0.63250304  0.81926685  0.08963389  1
  Cs  Cs12  1  0.61965734  0.68251699  0.40916586  1
  Cs  Cs13  1  0.38034266  0.31748301  0.59083414  1
  Cs  Cs14  1  0.62728735  0.24182424  0.41561320  1
  Cs  Cs15  1  0.12728735  0.75817576  0.08438680  1
  Si  Si0  1  0.44032974  0.43899646  0.19820026  1
  Si  Si1  1  0.94032974  0.56100354  0.30179974  1
  Si  Si2  1  0.57713664  0.92570491  0.69660535  1
  Si  Si3  1  0.68449192  0.42483228  0.69252847  1
  Si  Si4  1  0.07713664  0.07429509  0.80339465  1
  Si  Si5  1  0.70090374  0.06233782  0.80401641  1
  Si  Si6  1  0.42286336  0.07429509  0.30339465  1
  Si  Si7  1  0.79909626  0.06233782  0.30401641  1
  Si  Si8  1  0.05967026  0.43899646  0.69820026  1
  Si  Si9  1  0.55967026  0.56100354  0.80179974  1
  Si  Si10  1  0.29909626  0.93766218  0.19598359  1
  Si  Si11  1  0.31550808  0.57516772  0.30747153  1
  Si  Si12  1  0.20090374  0.93766218  0.69598359  1
  Si  Si13  1  0.18449192  0.57516772  0.80747153  1
  Si  Si14  1  0.81550808  0.42483228  0.19252847  1
  Si  Si15  1  0.92286336  0.92570491  0.19660535  1
  O  O0  1  0.12478956  0.50679377  0.60515481  1
  O  O1  1  0.85515976  0.94483506  0.27327113  1
  O  O2  1  0.64484024  0.94483506  0.77327113  1
  O  O3  1  0.14484024  0.05516494  0.72672887  1
  O  O4  1  0.87556710  0.53955345  0.09820034  1
  O  O5  1  0.37521044  0.50679377  0.10515481  1
  O  O6  1  0.12902215  0.56629016  0.29717147  1
  O  O7  1  0.64479556  0.23984289  0.72737272  1
  O  O8  1  0.88963598  0.06404569  0.79748056  1
  O  O9  1  0.62902215  0.43370984  0.20282853  1
  O  O10  1  0.85520444  0.23984289  0.22737272  1
  O  O11  1  0.85527467  0.04405479  0.10452201  1
  O  O12  1  0.35520444  0.76015711  0.27262728  1
  O  O13  1  0.61658595  0.74137230  0.72913044  1
  O  O14  1  0.62478956  0.49320623  0.89484519  1
  O  O15  1  0.14472533  0.95594521  0.89547799  1
  O  O16  1  0.87097785  0.43370984  0.70282853  1
  O  O17  1  0.61036402  0.06404569  0.29748056  1
  O  O18  1  0.37097785  0.56629016  0.79717147  1
  O  O19  1  0.12443290  0.46044655  0.90179966  1
  O  O20  1  0.38963598  0.93595431  0.70251944  1
  O  O21  1  0.60883326  0.45235932  0.76453744  1
  O  O22  1  0.35527467  0.95594521  0.39547799  1
  O  O23  1  0.38341405  0.25862770  0.27086956  1
  O  O24  1  0.37556710  0.46044655  0.40179966  1
  O  O25  1  0.35515976  0.05516494  0.22672887  1
  O  O26  1  0.39116674  0.54764068  0.23546256  1
  O  O27  1  0.36038400  0.99568792  0.10335794  1
  O  O28  1  0.89116674  0.45235932  0.26453744  1
  O  O29  1  0.11036402  0.93595431  0.20251944  1
  O  O30  1  0.87521044  0.49320623  0.39484519  1
  O  O31  1  0.14479556  0.76015711  0.77262728  1
  O  O32  1  0.63961600  0.00431208  0.89664206  1
  O  O33  1  0.10883326  0.54764068  0.73546256  1
  O  O34  1  0.62443290  0.53955345  0.59820034  1
  O  O35  1  0.64472533  0.04405479  0.60452201  1
  O  O36  1  0.88341405  0.74137230  0.22913044  1
  O  O37  1  0.11658595  0.25862770  0.77086956  1
  O  O38  1  0.13961600  0.99568792  0.60335794  1
  O  O39  1  0.86038400  0.00431208  0.39664206  1
loop_
_geom_bond_atom_site_label_1
_geom_bond_atom_site_label_2
_geom_bond_distance
_geom_bond_site_symmetry_2
Cs0 O38 3.011467 1_545
Cs0 O39 3.049990 1_455
Cs0 O22 3.105535 1_545
Cs0 O23 3.137543 1_555
Cs0 O6 3.276768 1_555
Cs0 O28 3.346554 1_455
Cs0 O24 3.459680 1_555
Cs1 O0 2.960721 1_555
Cs1 O22 3.021140 1_555
Cs2 O11 2.952168 1_556
Cs2 O19 3.016413 1_655
Cs2 O14 3.188150 1_555
Cs2 O32 3.298647 1_555
Cs2 O16 3.324569 1_555
Cs2 O21 3.341599 1_555
Cs2 O37 3.348514 1_655
Cs2 O8 3.506770 1_555
Cs3 O14 2.960721 1_554
Cs3 O11 3.021140 1_555
Cs4 O30 2.960721 1_555
Cs4 O35 3.021140 1_555
Cs5 O4 2.982930 1_556
Cs5 O14 3.031557 1_555
Cs5 O19 3.140888 1_655
Cs5 O31 3.184057 1_655
Cs5 O2 3.213030 1_555
Cs5 O8 3.243415 1_565
Cs5 O15 3.492127 1_655
Cs6 O5 2.960721 1_556
Cs6 O15 3.021140 1_555
Cs7 O19 2.982930 1_554
Cs7 O5 3.031557 1_555
Cs7 O4 3.140888 1_455
Cs7 O10 3.184057 1_455
Cs7 O25 3.213030 1_555
Cs7 O29 3.243415 1_545
Cs7 O11 3.492127 1_455
Cs8 O22 2.952168 1_555
Cs8 O34 3.016413 1_555
Cs8 O0 3.188150 1_555
Cs8 O38 3.298647 1_555
Cs8 O18 3.324569 1_555
Cs8 O33 3.341599 1_555
Cs8 O13 3.348514 1_555
Cs8 O20 3.506770 1_555
Cs9 O27 3.011467 1_546
Cs9 O32 3.049990 1_555
Cs9 O15 3.105535 1_545
Cs9 O37 3.137543 1_555
Cs9 O18 3.276768 1_555
Cs9 O21 3.346554 1_555
Cs9 O19 3.459680 1_555
Cs10 O39 3.011467 1_565
Cs10 O38 3.049990 1_655
Cs10 O35 3.105535 1_565
Cs10 O13 3.137543 1_555
Cs10 O16 3.276768 1_555
Cs10 O33 3.346554 1_655
Cs10 O34 3.459680 1_555
Cs11 O32 3.011467 1_564
Cs11 O27 3.049990 1_555
Cs11 O11 3.105535 1_565
Cs11 O36 3.137543 1_555
Cs11 O9 3.276768 1_555
Cs11 O26 3.346554 1_555
Cs11 O4 3.459680 1_555
Cs12 O34 2.982930 1_555
Cs12 O30 3.031557 1_555
Cs12 O24 3.140888 1_555
Cs12 O12 3.184057 1_555
Cs12 O1 3.213030 1_555
Cs12 O17 3.243415 1_565
Cs12 O22 3.492127 1_555
Cs13 O24 2.982930 1_555
Cs13 O0 3.031557 1_555
Cs13 O34 3.140888 1_555
Cs13 O7 3.184057 1_555
Cs13 O3 3.213030 1_555
Cs13 O20 3.243415 1_545
Cs13 O35 3.492127 1_555
Cs14 O35 2.952168 1_555
Cs14 O24 3.016413 1_555
Cs14 O30 3.188150 1_555
Cs14 O39 3.298647 1_555
Cs14 O9 3.324569 1_555
Cs14 O28 3.341599 1_555
Cs14 O23 3.348514 1_555
Cs14 O17 3.506770 1_555
Cs15 O15 2.952168 1_554
Cs15 O4 3.016413 1_455
Cs15 O5 3.188150 1_555
Cs15 O27 3.298647 1_555
Cs15 O6 3.324569 1_555
Cs15 O26 3.341599 1_555
Cs15 O36 3.348514 1_455
Cs15 O29 3.506770 1_555
O0 Si8 1.576878 1_555
O1 Si15 1.643069 1_555
O1 Si7 1.643807 1_565
O2 Si2 1.643069 1_555
O2 Si5 1.643807 1_565
O3 Si4 1.643069 1_555
O3 Si12 1.643807 1_545
O4 Si14 1.575277 1_555
O5 Si0 1.576878 1_555
O6 Si11 1.636902 1_555
O6 Si1 1.638279 1_455
O7 Si5 1.648130 1_555
O7 Si3 1.650102 1_555
O8 Si4 1.637067 1_655
O8 Si5 1.640899 1_555
O9 Si14 1.636902 1_555
O9 Si0 1.638279 1_555
O10 Si7 1.648130 1_555
O10 Si14 1.650102 1_555
O11 Si15 1.575043 1_545
O12 Si10 1.648130 1_555
O12 Si11 1.650102 1_555
O13 Si9 1.650614 1_555
O13 Si2 1.653516 1_555
O14 Si9 1.576878 1_555
O15 Si4 1.575043 1_565
O16 Si3 1.636902 1_555
O16 Si8 1.638279 1_655
O17 Si6 1.637067 1_555
O17 Si7 1.640899 1_555
O18 Si13 1.636902 1_555
O18 Si9 1.638279 1_555
O19 Si13 1.575277 1_555
O20 Si2 1.637067 1_555
O20 Si12 1.640899 1_555
O21 Si9 1.638174 1_555
O21 Si3 1.640695 1_555
O22 Si6 1.575043 1_565
O23 Si0 1.650614 1_555
O23 Si6 1.653516 1_555
O24 Si11 1.575277 1_555
O25 Si6 1.643069 1_555
O25 Si10 1.643807 1_545
O26 Si0 1.638174 1_555
O26 Si11 1.640695 1_555
O27 Si10 1.576994 1_555
O28 Si1 1.638174 1_555
O28 Si14 1.640695 1_555
O29 Si15 1.637067 1_455
O29 Si10 1.640899 1_555
O30 Si1 1.576878 1_555
O31 Si12 1.648130 1_555
O31 Si13 1.650102 1_555
O32 Si5 1.576994 1_555
O33 Si8 1.638174 1_555
O33 Si13 1.640695 1_555
O34 Si3 1.575277 1_555
O35 Si2 1.575043 1_545
O36 Si1 1.650614 1_555
O36 Si15 1.653516 1_555
O37 Si8 1.650614 1_555
O37 Si4 1.653516 1_555
O38 Si12 1.576994 1_555
O39 Si7 1.576994 1_555
