# generated using pymatgen
data_KW3Br7
_symmetry_space_group_name_H-M   'P 1'
_cell_length_a   14.13441400
_cell_length_b   14.39811700
_cell_length_c   14.41957700
_cell_angle_alpha   90.00000000
_cell_angle_beta   90.00000000
_cell_angle_gamma   90.00000000
_symmetry_Int_Tables_number   1
_chemical_formula_structural   KW3Br7
_chemical_formula_sum   'K8 W24 Br56'
_cell_volume   2934.51292422
_cell_formula_units_Z   8
loop_
 _symmetry_equiv_pos_site_id
 _symmetry_equiv_pos_as_xyz
  1  'x, y, z'
loop_
 _atom_site_type_symbol
 _atom_site_label
 _atom_site_symmetry_multiplicity
 _atom_site_fract_x
 _atom_site_fract_y
 _atom_site_fract_z
 _atom_site_occupancy
  K  K0  1  0.50000000  0.00000000  0.00000000  1
  K  K1  1  0.00000000  0.50000000  0.00000000  1
  K  K2  1  0.25000000  0.75000000  0.25000000  1
  K  K3  1  0.75000000  0.25000000  0.25000000  1
  K  K4  1  0.50000000  0.50000000  0.50000000  1
  K  K5  1  0.00000000  0.00000000  0.50000000  1
  K  K6  1  0.75000000  0.25000000  0.75000000  1
  K  K7  1  0.25000000  0.75000000  0.75000000  1
  W  W0  1  0.62252000  0.54003000  0.02935000  1
  W  W1  1  0.87748000  0.95997000  0.02935000  1
  W  W2  1  0.53052400  0.37953200  0.04094500  1
  W  W3  1  0.96947600  0.12046800  0.04094500  1
  W  W4  1  0.04089000  0.96832700  0.12007000  1
  W  W5  1  0.45911000  0.53167300  0.12007000  1
  W  W6  1  0.45911000  0.96832700  0.37993000  1
  W  W7  1  0.04089000  0.53167300  0.37993000  1
  W  W8  1  0.53052400  0.12046800  0.45905500  1
  W  W9  1  0.96947600  0.37953200  0.45905500  1
  W  W10  1  0.87748000  0.54003000  0.47065000  1
  W  W11  1  0.62252000  0.95997000  0.47065000  1
  W  W12  1  0.37748000  0.04003000  0.52935000  1
  W  W13  1  0.12252000  0.45997000  0.52935000  1
  W  W14  1  0.03052400  0.62046800  0.54094500  1
  W  W15  1  0.46947600  0.87953200  0.54094500  1
  W  W16  1  0.95911000  0.46832700  0.62007000  1
  W  W17  1  0.54089000  0.03167300  0.62007000  1
  W  W18  1  0.54089000  0.46832700  0.87993000  1
  W  W19  1  0.95911000  0.03167300  0.87993000  1
  W  W20  1  0.46947600  0.62046800  0.95905500  1
  W  W21  1  0.03052400  0.87953200  0.95905500  1
  W  W22  1  0.12252000  0.04003000  0.97065000  1
  W  W23  1  0.37748000  0.45997000  0.97065000  1
  Br  Br0  1  0.19392400  0.88766100  0.04912000  1
  Br  Br1  1  0.30607600  0.61233900  0.04912000  1
  Br  Br2  1  0.79380700  0.59281900  0.07121300  1
  Br  Br3  1  0.70619300  0.90718100  0.07121300  1
  Br  Br4  1  0.57618800  0.20966800  0.09637300  1
  Br  Br5  1  0.92381200  0.29033200  0.09637300  1
  Br  Br6  1  0.55197100  0.69115200  0.10820800  1
  Br  Br7  1  0.94802900  0.80884800  0.10820800  1
  Br  Br8  1  0.36786800  0.37063000  0.13194400  1
  Br  Br9  1  0.13213200  0.12937000  0.13194400  1
  Br  Br10  1  0.88823600  0.04783200  0.19140900  1
  Br  Br11  1  0.61176400  0.45216800  0.19140900  1
  Br  Br12  1  0.09644800  0.57707500  0.21035300  1
  Br  Br13  1  0.40355200  0.92292500  0.21035300  1
  Br  Br14  1  0.40355200  0.57707500  0.28964700  1
  Br  Br15  1  0.09644800  0.92292500  0.28964700  1
  Br  Br16  1  0.61176400  0.04783200  0.30859100  1
  Br  Br17  1  0.88823600  0.45216800  0.30859100  1
  Br  Br18  1  0.36786800  0.12937000  0.36805600  1
  Br  Br19  1  0.13213200  0.37063000  0.36805600  1
  Br  Br20  1  0.94802900  0.69115200  0.39179200  1
  Br  Br21  1  0.55197100  0.80884800  0.39179200  1
  Br  Br22  1  0.92381200  0.20966800  0.40362700  1
  Br  Br23  1  0.57618800  0.29033200  0.40362700  1
  Br  Br24  1  0.70619300  0.59281900  0.42878700  1
  Br  Br25  1  0.79380700  0.90718100  0.42878700  1
  Br  Br26  1  0.19392400  0.61233900  0.45088000  1
  Br  Br27  1  0.30607600  0.88766100  0.45088000  1
  Br  Br28  1  0.69392400  0.11233900  0.54912000  1
  Br  Br29  1  0.80607600  0.38766100  0.54912000  1
  Br  Br30  1  0.20619300  0.09281900  0.57121300  1
  Br  Br31  1  0.29380700  0.40718100  0.57121300  1
  Br  Br32  1  0.42381200  0.70966800  0.59637300  1
  Br  Br33  1  0.07618800  0.79033200  0.59637300  1
  Br  Br34  1  0.44802900  0.19115200  0.60820800  1
  Br  Br35  1  0.05197100  0.30884800  0.60820800  1
  Br  Br36  1  0.86786800  0.62937000  0.63194400  1
  Br  Br37  1  0.63213200  0.87063000  0.63194400  1
  Br  Br38  1  0.38823600  0.95216800  0.69140900  1
  Br  Br39  1  0.11176400  0.54783200  0.69140900  1
  Br  Br40  1  0.90355200  0.07707500  0.71035300  1
  Br  Br41  1  0.59644800  0.42292500  0.71035300  1
  Br  Br42  1  0.59644800  0.07707500  0.78964700  1
  Br  Br43  1  0.90355200  0.42292500  0.78964700  1
  Br  Br44  1  0.38823600  0.54783200  0.80859100  1
  Br  Br45  1  0.11176400  0.95216800  0.80859100  1
  Br  Br46  1  0.86786800  0.87063000  0.86805600  1
  Br  Br47  1  0.63213200  0.62937000  0.86805600  1
  Br  Br48  1  0.05197100  0.19115200  0.89179200  1
  Br  Br49  1  0.44802900  0.30884800  0.89179200  1
  Br  Br50  1  0.07618800  0.70966800  0.90362700  1
  Br  Br51  1  0.42381200  0.79033200  0.90362700  1
  Br  Br52  1  0.29380700  0.09281900  0.92878700  1
  Br  Br53  1  0.20619300  0.40718100  0.92878700  1
  Br  Br54  1  0.69392400  0.38766100  0.95088000  1
  Br  Br55  1  0.80607600  0.11233900  0.95088000  1
loop_
_geom_bond_atom_site_label_1
_geom_bond_atom_site_label_2
_geom_bond_distance
_geom_bond_site_symmetry_2
Br0 W21 2.652245 1_554
Br0 W4 2.659770 1_555
Br0 W22 2.666790 1_564
Br0 K2 3.598207 1_555
Br1 W20 2.652245 1_554
Br1 W5 2.659770 1_555
Br1 W23 2.666790 1_554
Br1 K2 3.598207 1_555
Br2 W0 2.608357 1_555
Br2 K1 3.366643 1_655
Br3 W1 2.608357 1_555
Br3 K0 3.366643 1_565
Br4 W2 2.652723 1_555
Br4 K3 3.358574 1_555
Br4 K0 3.493437 1_555
Br5 W3 2.652723 1_555
Br5 K3 3.358574 1_555
Br5 K1 3.493437 1_655
Br6 W20 2.649709 1_554
Br6 W0 2.649860 1_555
Br6 W5 2.650383 1_555
Br7 W21 2.649709 1_654
Br7 W1 2.649860 1_555
Br7 W4 2.650383 1_655
Br8 W2 2.650251 1_555
Br8 W5 2.658752 1_555
Br8 W23 2.661278 1_554
Br9 W3 2.650251 1_455
Br9 W4 2.658752 1_545
Br9 W22 2.661278 1_554
Br10 W4 2.650307 1_645
Br10 W1 2.661615 1_545
Br10 W3 2.668253 1_555
Br10 K3 3.606166 1_555
Br11 W5 2.650307 1_555
Br11 W0 2.661615 1_555
Br11 W2 2.668253 1_555
Br11 K3 3.606166 1_555
Br12 W7 2.650120 1_555
Br12 K2 3.352075 1_555
Br12 K1 3.505743 1_555
Br13 W6 2.650120 1_555
Br13 K2 3.352075 1_555
Br13 K0 3.505743 1_565
Br14 W5 2.650120 1_555
Br14 K2 3.352075 1_555
Br14 K4 3.505743 1_555
Br15 W4 2.650120 1_555
Br15 K2 3.352075 1_555
Br15 K5 3.505743 1_565
Br16 W6 2.650307 1_545
Br16 W11 2.661615 1_545
Br16 W8 2.668253 1_555
Br16 K3 3.606166 1_555
Br17 W7 2.650307 1_655
Br17 W10 2.661615 1_555
Br17 W9 2.668253 1_555
Br17 K3 3.606166 1_555
Br18 W8 2.650251 1_555
Br18 W6 2.658752 1_545
Br18 W12 2.661278 1_555
Br19 W9 2.650251 1_455
Br19 W7 2.658752 1_555
Br19 W13 2.661278 1_555
Br20 W14 2.649709 1_655
Br20 W10 2.649860 1_555
Br20 W7 2.650383 1_655
Br21 W15 2.649709 1_555
Br21 W11 2.649860 1_555
Br21 W6 2.650383 1_555
Br22 W9 2.652723 1_555
Br22 K3 3.358574 1_555
Br22 K5 3.493437 1_655
Br23 W8 2.652723 1_555
Br23 K3 3.358574 1_555
Br23 K4 3.493437 1_555
Br24 W10 2.608357 1_555
Br24 K4 3.366643 1_555
Br25 W11 2.608357 1_555
Br25 K5 3.366643 1_665
Br26 W14 2.652245 1_555
Br26 W7 2.659770 1_555
Br26 W13 2.666790 1_555
Br26 K2 3.598207 1_555
Br27 W15 2.652245 1_555
Br27 W6 2.659770 1_555
Br27 W12 2.666790 1_565
Br27 K2 3.598207 1_555
Br28 W8 2.652245 1_555
Br28 W17 2.659770 1_555
Br28 W11 2.666790 1_545
Br28 K6 3.598207 1_555
Br29 W9 2.652245 1_555
Br29 W16 2.659770 1_555
Br29 W10 2.666790 1_555
Br29 K6 3.598207 1_555
Br30 W12 2.608357 1_555
Br30 K5 3.366643 1_555
Br31 W13 2.608357 1_555
Br31 K4 3.366643 1_555
Br32 W15 2.652723 1_555
Br32 K7 3.358574 1_555
Br32 K4 3.493437 1_555
Br33 W14 2.652723 1_555
Br33 K7 3.358574 1_555
Br33 K5 3.493437 1_565
Br34 W8 2.649709 1_555
Br34 W12 2.649860 1_555
Br34 W17 2.650383 1_555
Br35 W9 2.649709 1_455
Br35 W13 2.649860 1_555
Br35 W16 2.650383 1_455
Br36 W14 2.650251 1_655
Br36 W16 2.658752 1_555
Br36 W10 2.661278 1_555
Br37 W15 2.650251 1_555
Br37 W17 2.658752 1_565
Br37 W11 2.661278 1_555
Br38 W17 2.650307 1_565
Br38 W12 2.661615 1_565
Br38 W15 2.668253 1_555
Br38 K7 3.606166 1_555
Br39 W16 2.650307 1_455
Br39 W13 2.661615 1_555
Br39 W14 2.668253 1_555
Br39 K7 3.606166 1_555
Br40 W19 2.650120 1_555
Br40 K6 3.352075 1_555
Br40 K5 3.505743 1_655
Br41 W18 2.650120 1_555
Br41 K6 3.352075 1_555
Br41 K4 3.505743 1_555
Br42 W17 2.650120 1_555
Br42 K6 3.352075 1_555
Br42 K0 3.505743 1_556
Br43 W16 2.650120 1_555
Br43 K6 3.352075 1_555
Br43 K1 3.505743 1_656
Br44 W18 2.650307 1_555
Br44 W23 2.661615 1_555
Br44 W20 2.668253 1_555
Br44 K7 3.606166 1_555
Br45 W19 2.650307 1_465
Br45 W22 2.661615 1_565
Br45 W21 2.668253 1_555
Br45 K7 3.606166 1_555
Br46 W21 2.650251 1_655
Br46 W19 2.658752 1_565
Br46 W1 2.661278 1_556
Br47 W20 2.650251 1_555
Br47 W18 2.658752 1_555
Br47 W0 2.661278 1_556
Br48 W3 2.649709 1_456
Br48 W22 2.649860 1_555
Br48 W19 2.650383 1_455
Br49 W2 2.649709 1_556
Br49 W23 2.649860 1_555
Br49 W18 2.650383 1_555
Br50 W21 2.652723 1_555
Br50 K7 3.358574 1_555
Br50 K1 3.493437 1_556
Br51 W20 2.652723 1_555
Br51 K7 3.358574 1_555
Br51 K0 3.493437 1_566
Br52 W22 2.608357 1_555
Br52 K0 3.366643 1_556
Br53 W23 2.608357 1_555
Br53 K1 3.366643 1_556
Br54 W2 2.652245 1_556
Br54 W18 2.659770 1_555
Br54 W0 2.666790 1_556
Br54 K6 3.598207 1_555
Br55 W3 2.652245 1_556
Br55 W19 2.659770 1_555
Br55 W1 2.666790 1_546
Br55 K6 3.598207 1_555
