# generated using pymatgen
data_Ho2(Ni2B)5
_symmetry_space_group_name_H-M   'P 1'
_cell_length_a   8.96260600
_cell_length_b   9.46946600
_cell_length_c   17.56575500
_cell_angle_alpha   90.00000000
_cell_angle_beta   90.00000000
_cell_angle_gamma   90.00000000
_symmetry_Int_Tables_number   1
_chemical_formula_structural   Ho2(Ni2B)5
_chemical_formula_sum   'Ho16 Ni80 B40'
_cell_volume   1490.82482250
_cell_formula_units_Z   8
loop_
 _symmetry_equiv_pos_site_id
 _symmetry_equiv_pos_as_xyz
  1  'x, y, z'
loop_
 _atom_site_type_symbol
 _atom_site_label
 _atom_site_symmetry_multiplicity
 _atom_site_fract_x
 _atom_site_fract_y
 _atom_site_fract_z
 _atom_site_occupancy
  Ho  Ho0  1  0.78049600  0.38711000  0.02001400  1
  Ho  Ho1  1  0.71950400  0.61289000  0.52001400  1
  Ho  Ho2  1  0.62377200  0.85885000  0.22203800  1
  Ho  Ho3  1  0.21950400  0.88711000  0.47998600  1
  Ho  Ho4  1  0.21950400  0.61289000  0.97998600  1
  Ho  Ho5  1  0.78049600  0.11289000  0.52001400  1
  Ho  Ho6  1  0.37622800  0.14115000  0.77796200  1
  Ho  Ho7  1  0.37622800  0.35885000  0.27796200  1
  Ho  Ho8  1  0.87622800  0.35885000  0.22203800  1
  Ho  Ho9  1  0.12377200  0.64115000  0.77796200  1
  Ho  Ho10  1  0.28049600  0.11289000  0.97998600  1
  Ho  Ho11  1  0.87622800  0.14115000  0.72203800  1
  Ho  Ho12  1  0.71950400  0.88711000  0.02001400  1
  Ho  Ho13  1  0.12377200  0.85885000  0.27796200  1
  Ho  Ho14  1  0.28049600  0.38711000  0.47998600  1
  Ho  Ho15  1  0.62377200  0.64115000  0.72203800  1
  Ni  Ni0  1  0.83756300  0.28144400  0.87235600  1
  Ni  Ni1  1  0.37894500  0.46145800  0.72699200  1
  Ni  Ni2  1  0.04243200  0.02194300  0.59646800  1
  Ni  Ni3  1  0.09119900  0.14696200  0.84960200  1
  Ni  Ni4  1  0.41905400  0.66704400  0.46858100  1
  Ni  Ni5  1  0.23114500  0.89307500  0.86522800  1
  Ni  Ni6  1  0.62105500  0.96145800  0.77300800  1
  Ni  Ni7  1  0.37894500  0.03854200  0.22699200  1
  Ni  Ni8  1  0.04243200  0.47805700  0.09646800  1
  Ni  Ni9  1  0.07877800  0.61372000  0.51537500  1
  Ni  Ni10  1  0.62662400  0.17620100  0.26296300  1
  Ni  Ni11  1  0.26885500  0.10692500  0.36522800  1
  Ni  Ni12  1  0.32235500  0.49408700  0.13070000  1
  Ni  Ni13  1  0.67764500  0.50591300  0.86930000  1
  Ni  Ni14  1  0.40880100  0.85303800  0.34960200  1
  Ni  Ni15  1  0.59119900  0.14696200  0.65039800  1
  Ni  Ni16  1  0.08094600  0.33295600  0.96858100  1
  Ni  Ni17  1  0.16243700  0.78144400  0.62764400  1
  Ni  Ni18  1  0.66243700  0.71855600  0.37235600  1
  Ni  Ni19  1  0.76885500  0.39307500  0.63477200  1
  Ni  Ni20  1  0.12105500  0.53854200  0.22699200  1
  Ni  Ni21  1  0.17764500  0.50591300  0.63070000  1
  Ni  Ni22  1  0.66243700  0.78144400  0.87235600  1
  Ni  Ni23  1  0.91905400  0.83295600  0.53141900  1
  Ni  Ni24  1  0.57877800  0.88628000  0.48462500  1
  Ni  Ni25  1  0.95644300  0.71846900  0.40144100  1
  Ni  Ni26  1  0.04355700  0.21846900  0.09855900  1
  Ni  Ni27  1  0.37337600  0.82379900  0.73703700  1
  Ni  Ni28  1  0.23114500  0.60692500  0.36522800  1
  Ni  Ni29  1  0.54355700  0.21846900  0.40144100  1
  Ni  Ni30  1  0.45756800  0.97805700  0.09646800  1
  Ni  Ni31  1  0.45644300  0.71846900  0.09855900  1
  Ni  Ni32  1  0.45756800  0.52194300  0.59646800  1
  Ni  Ni33  1  0.33756300  0.28144400  0.62764400  1
  Ni  Ni34  1  0.40880100  0.64696200  0.84960200  1
  Ni  Ni35  1  0.82235500  0.00591300  0.86930000  1
  Ni  Ni36  1  0.07877800  0.88628000  0.01537500  1
  Ni  Ni37  1  0.87337600  0.67620100  0.26296300  1
  Ni  Ni38  1  0.54243200  0.02194300  0.90353200  1
  Ni  Ni39  1  0.16243700  0.71855600  0.12764400  1
  Ni  Ni40  1  0.12105500  0.96145800  0.72699200  1
  Ni  Ni41  1  0.32235500  0.00591300  0.63070000  1
  Ni  Ni42  1  0.87894500  0.03854200  0.27300800  1
  Ni  Ni43  1  0.91905400  0.66704400  0.03141900  1
  Ni  Ni44  1  0.58094600  0.16704400  0.03141900  1
  Ni  Ni45  1  0.54355700  0.28153100  0.90144100  1
  Ni  Ni46  1  0.12662400  0.32379900  0.73703700  1
  Ni  Ni47  1  0.62105500  0.53854200  0.27300800  1
  Ni  Ni48  1  0.08094600  0.16704400  0.46858100  1
  Ni  Ni49  1  0.76885500  0.10692500  0.13477200  1
  Ni  Ni50  1  0.67764500  0.99408700  0.36930000  1
  Ni  Ni51  1  0.37337600  0.67620100  0.23703700  1
  Ni  Ni52  1  0.95644300  0.78153100  0.90144100  1
  Ni  Ni53  1  0.17764500  0.99408700  0.13070000  1
  Ni  Ni54  1  0.33756300  0.21855600  0.12764400  1
  Ni  Ni55  1  0.92122200  0.11372000  0.98462500  1
  Ni  Ni56  1  0.54243200  0.47805700  0.40353200  1
  Ni  Ni57  1  0.58094600  0.33295600  0.53141900  1
  Ni  Ni58  1  0.90880100  0.85303800  0.15039800  1
  Ni  Ni59  1  0.62662400  0.32379900  0.76296300  1
  Ni  Ni60  1  0.42122200  0.38628000  0.01537500  1
  Ni  Ni61  1  0.73114500  0.89307500  0.63477200  1
  Ni  Ni62  1  0.45644300  0.78153100  0.59855900  1
  Ni  Ni63  1  0.92122200  0.38628000  0.48462500  1
  Ni  Ni64  1  0.87337600  0.82379900  0.76296300  1
  Ni  Ni65  1  0.90880100  0.64696200  0.65039800  1
  Ni  Ni66  1  0.57877800  0.61372000  0.98462500  1
  Ni  Ni67  1  0.09119900  0.35303800  0.34960200  1
  Ni  Ni68  1  0.95756800  0.97805700  0.40353200  1
  Ni  Ni69  1  0.87894500  0.46145800  0.77300800  1
  Ni  Ni70  1  0.82235500  0.49408700  0.36930000  1
  Ni  Ni71  1  0.73114500  0.60692500  0.13477200  1
  Ni  Ni72  1  0.95756800  0.52194300  0.90353200  1
  Ni  Ni73  1  0.42122200  0.11372000  0.51537500  1
  Ni  Ni74  1  0.83756300  0.21855600  0.37235600  1
  Ni  Ni75  1  0.59119900  0.35303800  0.15039800  1
  Ni  Ni76  1  0.04355700  0.28153100  0.59855900  1
  Ni  Ni77  1  0.41905400  0.83295600  0.96858100  1
  Ni  Ni78  1  0.12662400  0.17620100  0.23703700  1
  Ni  Ni79  1  0.26885500  0.39307500  0.86522800  1
  B  B0  1  0.66656200  0.35081900  0.33294200  1
  B  B1  1  0.52324100  0.56336200  0.17663600  1
  B  B2  1  0.04635400  0.35764600  0.84440700  1
  B  B3  1  0.78721700  0.85223200  0.43905000  1
  B  B4  1  0.03866500  0.98199900  0.91806600  1
  B  B5  1  0.97675900  0.06336200  0.17663600  1
  B  B6  1  0.16656200  0.35081900  0.16705800  1
  B  B7  1  0.03866500  0.51800100  0.41806600  1
  B  B8  1  0.54635400  0.35764600  0.65559300  1
  B  B9  1  0.21278300  0.35223200  0.06095000  1
  B  B10  1  0.16656200  0.14918100  0.66705800  1
  B  B11  1  0.78721700  0.64776800  0.93905000  1
  B  B12  1  0.53866500  0.98199900  0.58193400  1
  B  B13  1  0.21278300  0.14776800  0.56095000  1
  B  B14  1  0.66656200  0.14918100  0.83294200  1
  B  B15  1  0.95364600  0.85764600  0.65559300  1
  B  B16  1  0.02324100  0.93663800  0.82336400  1
  B  B17  1  0.83343800  0.85081900  0.33294200  1
  B  B18  1  0.45364600  0.85764600  0.84440700  1
  B  B19  1  0.46133500  0.01800100  0.41806600  1
  B  B20  1  0.71278300  0.35223200  0.43905000  1
  B  B21  1  0.96133500  0.48199900  0.58193400  1
  B  B22  1  0.33343800  0.85081900  0.16705800  1
  B  B23  1  0.95364600  0.64235400  0.15559300  1
  B  B24  1  0.47675900  0.06336200  0.32336400  1
  B  B25  1  0.46133500  0.48199900  0.91806600  1
  B  B26  1  0.28721700  0.85223200  0.06095000  1
  B  B27  1  0.83343800  0.64918100  0.83294200  1
  B  B28  1  0.04635400  0.14235400  0.34440700  1
  B  B29  1  0.54635400  0.14235400  0.15559300  1
  B  B30  1  0.47675900  0.43663800  0.82336400  1
  B  B31  1  0.53866500  0.51800100  0.08193400  1
  B  B32  1  0.52324100  0.93663800  0.67663600  1
  B  B33  1  0.96133500  0.01800100  0.08193400  1
  B  B34  1  0.97675900  0.43663800  0.67663600  1
  B  B35  1  0.45364600  0.64235400  0.34440700  1
  B  B36  1  0.28721700  0.64776800  0.56095000  1
  B  B37  1  0.33343800  0.64918100  0.66705800  1
  B  B38  1  0.02324100  0.56336200  0.32336400  1
  B  B39  1  0.71278300  0.14776800  0.93905000  1
loop_
_geom_bond_atom_site_label_1
_geom_bond_atom_site_label_2
_geom_bond_distance
_geom_bond_site_symmetry_2
Ho0 Ni44 2.753451 1_555
Ho0 Ni0 2.826696 1_554
Ho0 Ni8 2.838421 1_655
Ho0 Ni75 2.868445 1_555
Ho0 Ni66 2.873984 1_554
Ho0 Ni16 2.886255 1_654
Ho0 Ni72 2.887103 1_554
Ho0 Ni71 2.931195 1_555
Ho0 Ni43 2.934140 1_555
Ho0 Ni55 2.946085 1_554
Ho0 Ni13 3.020616 1_554
Ho0 Ni45 3.138049 1_554
Ho0 Ni26 3.164270 1_655
Ho0 Ni60 3.221072 1_555
Ho0 Ni49 3.333746 1_555
Ho1 Ni23 2.753451 1_555
Ho1 Ni18 2.826696 1_555
Ho1 Ni32 2.838421 1_555
Ho1 Ni65 2.868445 1_555
Ho1 Ni63 2.873984 1_555
Ho1 Ni4 2.886255 1_555
Ho1 Ni56 2.887103 1_555
Ho1 Ni19 2.931195 1_555
Ho1 Ni57 2.934140 1_555
Ho1 Ni24 2.946085 1_555
Ho1 Ni70 3.020616 1_555
Ho1 Ni25 3.138049 1_555
Ho1 Ni62 3.164270 1_555
Ho1 Ni9 3.221072 1_655
Ho1 Ni61 3.333746 1_555
Ho2 Ni7 2.778106 1_565
Ho2 Ni51 2.845581 1_555
Ho2 Ni58 2.848266 1_555
Ho2 Ni30 2.891102 1_555
Ho2 Ni37 2.917686 1_555
Ho2 Ni50 2.926517 1_555
Ho2 Ni31 2.953101 1_555
Ho2 Ni14 2.955706 1_555
Ho2 Ni18 2.976071 1_555
Ho2 Ni42 2.987883 1_565
Ho2 Ni71 2.994483 1_555
Ho2 Ni10 3.090038 1_565
Ho2 Ni49 3.091771 1_565
Ho2 Ni47 3.162622 1_555
Ho3 Ni4 2.753451 1_555
Ho3 Ni17 2.826696 1_555
Ho3 Ni68 2.838421 1_455
Ho3 Ni14 2.868445 1_555
Ho3 Ni73 2.873984 1_565
Ho3 Ni23 2.886255 1_455
Ho3 Ni2 2.887103 1_565
Ho3 Ni11 2.931195 1_565
Ho3 Ni48 2.934140 1_565
Ho3 Ni9 2.946085 1_555
Ho3 Ni41 3.020616 1_565
Ho3 Ni62 3.138049 1_555
Ho3 Ni25 3.164270 1_455
Ho3 Ni24 3.221072 1_555
Ho3 Ni28 3.333746 1_555
Ho4 Ni77 2.753451 1_555
Ho4 Ni39 2.826696 1_556
Ho4 Ni72 2.838421 1_455
Ho4 Ni34 2.868445 1_555
Ho4 Ni60 2.873984 1_556
Ho4 Ni43 2.886255 1_456
Ho4 Ni8 2.887103 1_556
Ho4 Ni79 2.931195 1_555
Ho4 Ni16 2.934140 1_555
Ho4 Ni36 2.946085 1_556
Ho4 Ni12 3.020616 1_556
Ho4 Ni31 3.138049 1_556
Ho4 Ni52 3.164270 1_455
Ho4 Ni66 3.221072 1_555
Ho4 Ni5 3.333746 1_555
Ho5 Ni57 2.753451 1_555
Ho5 Ni74 2.826696 1_555
Ho5 Ni2 2.838421 1_655
Ho5 Ni15 2.868445 1_555
Ho5 Ni24 2.873984 1_545
Ho5 Ni48 2.886255 1_655
Ho5 Ni68 2.887103 1_545
Ho5 Ni61 2.931195 1_545
Ho5 Ni23 2.934140 1_545
Ho5 Ni63 2.946085 1_555
Ho5 Ni50 3.020616 1_545
Ho5 Ni29 3.138049 1_555
Ho5 Ni76 3.164270 1_655
Ho5 Ni73 3.221072 1_555
Ho5 Ni19 3.333746 1_555
Ho6 Ni6 2.778106 1_545
Ho6 Ni59 2.845581 1_555
Ho6 Ni3 2.848266 1_555
Ho6 Ni38 2.891102 1_555
Ho6 Ni46 2.917686 1_555
Ho6 Ni41 2.926517 1_555
Ho6 Ni45 2.953101 1_555
Ho6 Ni15 2.955706 1_555
Ho6 Ni33 2.976071 1_555
Ho6 Ni40 2.987883 1_545
Ho6 Ni79 2.994483 1_555
Ho6 Ni27 3.090038 1_545
Ho6 Ni5 3.091771 1_545
Ho6 Ni1 3.162622 1_555
Ho7 Ni47 2.778106 1_555
Ho7 Ni10 2.845581 1_555
Ho7 Ni67 2.848266 1_555
Ho7 Ni56 2.891102 1_555
Ho7 Ni78 2.917686 1_555
Ho7 Ni12 2.926517 1_555
Ho7 Ni29 2.953101 1_555
Ho7 Ni75 2.955706 1_555
Ho7 Ni54 2.976071 1_555
Ho7 Ni20 2.987883 1_555
Ho7 Ni11 2.994483 1_555
Ho7 Ni51 3.090038 1_555
Ho7 Ni28 3.091771 1_555
Ho7 Ni7 3.162622 1_555
Ho8 Ni20 2.778106 1_655
Ho8 Ni78 2.845581 1_655
Ho8 Ni75 2.848266 1_555
Ho8 Ni8 2.891102 1_655
Ho8 Ni10 2.917686 1_555
Ho8 Ni70 2.926517 1_555
Ho8 Ni26 2.953101 1_655
Ho8 Ni67 2.955706 1_655
Ho8 Ni74 2.976071 1_555
Ho8 Ni47 2.987883 1_555
Ho8 Ni49 2.994483 1_555
Ho8 Ni37 3.090038 1_555
Ho8 Ni71 3.091771 1_555
Ho8 Ni42 3.162622 1_555
Ho9 Ni69 2.778106 1_455
Ho9 Ni64 2.845581 1_455
Ho9 Ni34 2.848266 1_555
Ho9 Ni72 2.891102 1_455
Ho9 Ni27 2.917686 1_555
Ho9 Ni21 2.926517 1_555
Ho9 Ni52 2.953101 1_455
Ho9 Ni65 2.955706 1_455
Ho9 Ni17 2.976071 1_555
Ho9 Ni1 2.987883 1_555
Ho9 Ni5 2.994483 1_555
Ho9 Ni46 3.090038 1_555
Ho9 Ni79 3.091771 1_555
Ho9 Ni40 3.162622 1_555
Ho10 Ni16 2.753451 1_555
Ho10 Ni54 2.826696 1_556
Ho10 Ni38 2.838421 1_555
Ho10 Ni3 2.868445 1_555
Ho10 Ni36 2.873984 1_546
Ho10 Ni44 2.886255 1_556
Ho10 Ni30 2.887103 1_546
Ho10 Ni5 2.931195 1_545
Ho10 Ni77 2.934140 1_545
Ho10 Ni60 2.946085 1_556
Ho10 Ni53 3.020616 1_546
Ho10 Ni26 3.138049 1_556
Ho10 Ni45 3.164270 1_555
Ho10 Ni55 3.221072 1_455
Ho10 Ni79 3.333746 1_555
Ho11 Ni40 2.778106 1_645
Ho11 Ni46 2.845581 1_655
Ho11 Ni15 2.848266 1_555
Ho11 Ni2 2.891102 1_655
Ho11 Ni59 2.917686 1_555
Ho11 Ni35 2.926517 1_555
Ho11 Ni76 2.953101 1_655
Ho11 Ni3 2.955706 1_655
Ho11 Ni0 2.976071 1_555
Ho11 Ni6 2.987883 1_545
Ho11 Ni19 2.994483 1_555
Ho11 Ni64 3.090038 1_545
Ho11 Ni61 3.091771 1_545
Ho11 Ni69 3.162622 1_555
Ho12 Ni43 2.753451 1_555
Ho12 Ni22 2.826696 1_554
Ho12 Ni30 2.838421 1_555
Ho12 Ni58 2.868445 1_555
Ho12 Ni55 2.873984 1_564
Ho12 Ni77 2.886255 1_554
Ho12 Ni38 2.887103 1_564
Ho12 Ni49 2.931195 1_565
Ho12 Ni44 2.934140 1_565
Ho12 Ni66 2.946085 1_554
Ho12 Ni35 3.020616 1_564
Ho12 Ni52 3.138049 1_554
Ho12 Ni31 3.164270 1_555
Ho12 Ni36 3.221072 1_655
Ho12 Ni71 3.333746 1_555
Ho13 Ni42 2.778106 1_465
Ho13 Ni37 2.845581 1_455
Ho13 Ni14 2.848266 1_555
Ho13 Ni68 2.891102 1_455
Ho13 Ni51 2.917686 1_555
Ho13 Ni53 2.926517 1_555
Ho13 Ni25 2.953101 1_455
Ho13 Ni58 2.955706 1_455
Ho13 Ni39 2.976071 1_555
Ho13 Ni7 2.987883 1_565
Ho13 Ni28 2.994483 1_555
Ho13 Ni78 3.090038 1_565
Ho13 Ni11 3.091771 1_565
Ho13 Ni20 3.162622 1_555
Ho14 Ni48 2.753451 1_555
Ho14 Ni33 2.826696 1_555
Ho14 Ni56 2.838421 1_555
Ho14 Ni67 2.868445 1_555
Ho14 Ni9 2.873984 1_555
Ho14 Ni57 2.886255 1_555
Ho14 Ni32 2.887103 1_555
Ho14 Ni28 2.931195 1_555
Ho14 Ni4 2.934140 1_555
Ho14 Ni73 2.946085 1_555
Ho14 Ni21 3.020616 1_555
Ho14 Ni76 3.138049 1_555
Ho14 Ni29 3.164270 1_555
Ho14 Ni63 3.221072 1_455
Ho14 Ni11 3.333746 1_555
Ho15 Ni1 2.778106 1_555
Ho15 Ni27 2.845581 1_555
Ho15 Ni65 2.848266 1_555
Ho15 Ni32 2.891102 1_555
Ho15 Ni64 2.917686 1_555
Ho15 Ni13 2.926517 1_555
Ho15 Ni62 2.953101 1_555
Ho15 Ni34 2.955706 1_555
Ho15 Ni22 2.976071 1_555
Ho15 Ni69 2.987883 1_555
Ho15 Ni61 2.994483 1_555
Ho15 Ni59 3.090038 1_555
Ho15 Ni19 3.091771 1_555
Ho15 Ni6 3.162622 1_555
B0 B20 1.909396 1_555
B0 Ni70 2.048932 1_555
B0 Ni56 2.055958 1_555
B0 Ni29 2.057641 1_555
B0 Ni10 2.091252 1_555
B0 Ni74 2.096877 1_555
B0 Ni47 2.105873 1_555
B0 Ho8 2.707793 1_555
B0 Ho7 2.776629 1_555
B1 B31 1.723627 1_555
B1 Ni47 1.920812 1_555
B1 Ni51 2.017815 1_555
B1 Ni71 2.045253 1_555
B1 Ni12 2.079203 1_555
B1 Ni31 2.096831 1_555
B1 Ni75 2.133095 1_555
B1 Ho7 2.941861 1_555
B1 Ho2 3.045869 1_555
B2 Ni72 2.032828 1_455
B2 Ni3 2.037194 1_555
B2 Ni46 2.043877 1_555
B2 Ni79 2.055020 1_555
B2 Ni0 2.064832 1_455
B2 Ni69 2.188744 1_455
B2 Ni16 2.215505 1_555
B2 Ho9 3.008480 1_555
B3 Ni23 2.015468 1_555
B3 Ni68 2.034698 1_555
B3 Ni18 2.055615 1_555
B3 Ni24 2.057877 1_555
B3 Ni50 2.066397 1_555
B3 Ni25 2.083571 1_555
B3 Ho1 2.743665 1_555
B3 Ho5 2.849338 1_565
B4 Ni36 1.967881 1_556
B4 Ni55 2.007664 1_465
B4 Ni3 2.026865 1_565
B4 Ni52 2.057177 1_455
B4 Ni35 2.131579 1_465
B4 Ni5 2.132266 1_555
B4 Ho10 2.723433 1_565
B5 Ni42 1.920812 1_555
B5 Ni78 2.017815 1_655
B5 Ni49 2.045253 1_555
B5 Ni53 2.079203 1_645
B5 Ni26 2.096831 1_655
B5 Ni58 2.133095 1_545
B5 Ho13 2.941861 1_645
B5 Ho8 3.045869 1_555
B6 B9 1.909396 1_555
B6 Ni12 2.048932 1_555
B6 Ni8 2.055958 1_555
B6 Ni26 2.057641 1_555
B6 Ni78 2.091252 1_555
B6 Ni54 2.096877 1_555
B6 Ni20 2.105873 1_555
B6 Ho7 2.707793 1_555
B6 Ho8 2.776629 1_455
B7 Ni9 1.967881 1_555
B7 Ni63 2.007664 1_455
B7 Ni67 2.026865 1_555
B7 Ni25 2.057177 1_455
B7 Ni70 2.131579 1_455
B7 Ni28 2.132266 1_555
B7 Ho14 2.723433 1_555
B8 Ni32 2.032828 1_555
B8 Ni15 2.037194 1_555
B8 Ni59 2.043877 1_555
B8 Ni19 2.055020 1_555
B8 Ni33 2.064832 1_555
B8 Ni1 2.188744 1_555
B8 Ni57 2.215505 1_555
B8 Ho15 3.008480 1_555
B9 Ni16 2.015468 1_554
B9 Ni8 2.034698 1_555
B9 Ni54 2.055615 1_555
B9 Ni60 2.057877 1_555
B9 Ni12 2.066397 1_555
B9 Ni26 2.083571 1_555
B9 Ho10 2.743665 1_554
B9 Ho4 2.849338 1_554
B10 B13 1.909396 1_555
B10 Ni41 2.048932 1_555
B10 Ni2 2.055958 1_555
B10 Ni76 2.057641 1_555
B10 Ni46 2.091252 1_555
B10 Ni33 2.096877 1_555
B10 Ni40 2.105873 1_545
B10 Ho6 2.707793 1_555
B10 Ho11 2.776629 1_455
B11 B27 1.909396 1_555
B11 Ni43 2.015468 1_556
B11 Ni72 2.034698 1_555
B11 Ni22 2.055615 1_555
B11 Ni66 2.057877 1_555
B11 Ni13 2.066397 1_555
B11 Ni52 2.083571 1_555
B11 Ho12 2.743665 1_556
B11 Ho0 2.849338 1_556
B12 B32 1.723627 1_555
B12 Ni24 1.967881 1_555
B12 Ni73 2.007664 1_565
B12 Ni15 2.026865 1_565
B12 Ni62 2.057177 1_555
B12 Ni41 2.131579 1_565
B12 Ni61 2.132266 1_555
B12 Ho5 2.723433 1_565
B13 Ni48 2.015468 1_555
B13 Ni2 2.034698 1_555
B13 Ni33 2.055615 1_555
B13 Ni73 2.057877 1_555
B13 Ni41 2.066397 1_555
B13 Ni76 2.083571 1_555
B13 Ho14 2.743665 1_555
B13 Ho3 2.849338 1_545
B14 B39 1.909396 1_555
B14 Ni35 2.048932 1_555
B14 Ni38 2.055958 1_555
B14 Ni45 2.057641 1_555
B14 Ni59 2.091252 1_555
B14 Ni0 2.096877 1_555
B14 Ni6 2.105873 1_545
B14 Ho11 2.707793 1_555
B14 Ho6 2.776629 1_555
B15 Ni2 2.032828 1_665
B15 Ni65 2.037194 1_555
B15 Ni64 2.043877 1_555
B15 Ni61 2.055020 1_555
B15 Ni17 2.064832 1_655
B15 Ni40 2.188744 1_655
B15 Ni23 2.215505 1_555
B15 Ho11 3.008480 1_565
B16 B4 1.723627 1_555
B16 Ni40 1.920812 1_555
B16 Ni64 2.017815 1_455
B16 Ni5 2.045253 1_555
B16 Ni35 2.079203 1_465
B16 Ni52 2.096831 1_455
B16 Ni3 2.133095 1_565
B16 Ho11 2.941861 1_465
B16 Ho9 3.045869 1_555
B17 B3 1.909396 1_555
B17 Ni50 2.048932 1_555
B17 Ni68 2.055958 1_555
B17 Ni25 2.057641 1_555
B17 Ni37 2.091252 1_555
B17 Ni18 2.096877 1_555
B17 Ni42 2.105873 1_565
B17 Ho2 2.707793 1_555
B17 Ho13 2.776629 1_655
B18 Ni38 2.032828 1_565
B18 Ni34 2.037194 1_555
B18 Ni27 2.043877 1_555
B18 Ni5 2.055020 1_555
B18 Ni22 2.064832 1_555
B18 Ni6 2.188744 1_555
B18 Ni77 2.215505 1_555
B18 Ho6 3.008480 1_565
B19 B24 1.723627 1_555
B19 Ni73 1.967881 1_555
B19 Ni24 2.007664 1_545
B19 Ni14 2.026865 1_545
B19 Ni29 2.057177 1_555
B19 Ni50 2.131579 1_545
B19 Ni11 2.132266 1_555
B19 Ho3 2.723433 1_545
B20 Ni57 2.015468 1_555
B20 Ni56 2.034698 1_555
B20 Ni74 2.055615 1_555
B20 Ni63 2.057877 1_555
B20 Ni70 2.066397 1_555
B20 Ni29 2.083571 1_555
B20 Ho5 2.743665 1_555
B20 Ho1 2.849338 1_555
B21 B34 1.723627 1_555
B21 Ni63 1.967881 1_555
B21 Ni9 2.007664 1_655
B21 Ni65 2.026865 1_555
B21 Ni76 2.057177 1_655
B21 Ni21 2.131579 1_655
B21 Ni19 2.132266 1_555
B21 Ho1 2.723433 1_555
B22 B26 1.909396 1_555
B22 Ni53 2.048932 1_555
B22 Ni30 2.055958 1_555
B22 Ni31 2.057641 1_555
B22 Ni51 2.091252 1_555
B22 Ni39 2.096877 1_555
B22 Ni7 2.105873 1_565
B22 Ho13 2.707793 1_555
B22 Ho2 2.776629 1_555
B23 Ni8 2.032828 1_655
B23 Ni58 2.037194 1_555
B23 Ni37 2.043877 1_555
B23 Ni71 2.055020 1_555
B23 Ni39 2.064832 1_655
B23 Ni20 2.188744 1_655
B23 Ni43 2.215505 1_555
B23 Ho8 3.008480 1_555
B24 Ni7 1.920812 1_555
B24 Ni10 2.017815 1_555
B24 Ni11 2.045253 1_555
B24 Ni50 2.079203 1_545
B24 Ni29 2.096831 1_555
B24 Ni14 2.133095 1_545
B24 Ho2 2.941861 1_545
B24 Ho7 3.045869 1_555
B25 B30 1.723627 1_555
B25 Ni60 1.967881 1_556
B25 Ni66 2.007664 1_555
B25 Ni34 2.026865 1_555
B25 Ni45 2.057177 1_555
B25 Ni13 2.131579 1_555
B25 Ni79 2.132266 1_555
B25 Ho4 2.723433 1_555
B26 Ni77 2.015468 1_554
B26 Ni30 2.034698 1_555
B26 Ni39 2.055615 1_555
B26 Ni36 2.057877 1_555
B26 Ni53 2.066397 1_555
B26 Ni31 2.083571 1_555
B26 Ho4 2.743665 1_554
B26 Ho10 2.849338 1_564
B27 Ni13 2.048932 1_555
B27 Ni72 2.055958 1_555
B27 Ni52 2.057641 1_555
B27 Ni64 2.091252 1_555
B27 Ni22 2.096877 1_555
B27 Ni69 2.105873 1_555
B27 Ho15 2.707793 1_555
B27 Ho9 2.776629 1_655
B28 Ni68 2.032828 1_445
B28 Ni67 2.037194 1_555
B28 Ni78 2.043877 1_555
B28 Ni11 2.055020 1_555
B28 Ni74 2.064832 1_455
B28 Ni42 2.188744 1_455
B28 Ni48 2.215505 1_555
B28 Ho13 3.008480 1_545
B29 Ni30 2.032828 1_545
B29 Ni75 2.037194 1_555
B29 Ni10 2.043877 1_555
B29 Ni49 2.055020 1_555
B29 Ni54 2.064832 1_555
B29 Ni7 2.188744 1_555
B29 Ni44 2.215505 1_555
B29 Ho2 3.008480 1_545
B30 Ni1 1.920812 1_555
B30 Ni59 2.017815 1_555
B30 Ni79 2.045253 1_555
B30 Ni13 2.079203 1_555
B30 Ni45 2.096831 1_555
B30 Ni34 2.133095 1_555
B30 Ho15 2.941861 1_555
B30 Ho6 3.045869 1_555
B31 Ni66 1.967881 1_554
B31 Ni60 2.007664 1_555
B31 Ni75 2.026865 1_555
B31 Ni31 2.057177 1_555
B31 Ni12 2.131579 1_555
B31 Ni71 2.132266 1_555
B31 Ho0 2.723433 1_555
B32 Ni6 1.920812 1_555
B32 Ni27 2.017815 1_555
B32 Ni61 2.045253 1_555
B32 Ni41 2.079203 1_565
B32 Ni62 2.096831 1_555
B32 Ni15 2.133095 1_565
B32 Ho6 2.941861 1_565
B32 Ho15 3.045869 1_555
B33 B5 1.723627 1_555
B33 Ni55 1.967881 1_554
B33 Ni36 2.007664 1_645
B33 Ni58 2.026865 1_545
B33 Ni26 2.057177 1_655
B33 Ni53 2.131579 1_645
B33 Ni49 2.132266 1_555
B33 Ho12 2.723433 1_545
B34 Ni69 1.920812 1_555
B34 Ni46 2.017815 1_655
B34 Ni19 2.045253 1_555
B34 Ni21 2.079203 1_655
B34 Ni76 2.096831 1_655
B34 Ni65 2.133095 1_555
B34 Ho9 2.941861 1_655
B34 Ho11 3.045869 1_555
B35 Ni56 2.032828 1_555
B35 Ni14 2.037194 1_555
B35 Ni51 2.043877 1_555
B35 Ni28 2.055020 1_555
B35 Ni18 2.064832 1_555
B35 Ni47 2.188744 1_555
B35 Ni4 2.215505 1_555
B35 Ho7 3.008480 1_555
B36 B37 1.909396 1_555
B36 Ni4 2.015468 1_555
B36 Ni32 2.034698 1_555
B36 Ni17 2.055615 1_555
B36 Ni9 2.057877 1_555
B36 Ni21 2.066397 1_555
B36 Ni62 2.083571 1_555
B36 Ho3 2.743665 1_555
B36 Ho14 2.849338 1_555
B37 Ni21 2.048932 1_555
B37 Ni32 2.055958 1_555
B37 Ni62 2.057641 1_555
B37 Ni27 2.091252 1_555
B37 Ni17 2.096877 1_555
B37 Ni1 2.105873 1_555
B37 Ho9 2.707793 1_555
B37 Ho15 2.776629 1_555
B38 B7 1.723627 1_555
B38 Ni20 1.920812 1_555
B38 Ni37 2.017815 1_455
B38 Ni28 2.045253 1_555
B38 Ni70 2.079203 1_455
B38 Ni25 2.096831 1_455
B38 Ni67 2.133095 1_555
B38 Ho8 2.941861 1_455
B38 Ho13 3.045869 1_555
B39 Ni44 2.015468 1_556
B39 Ni38 2.034698 1_555
B39 Ni0 2.055615 1_555
B39 Ni55 2.057877 1_555
B39 Ni35 2.066397 1_555
B39 Ni45 2.083571 1_555
B39 Ho0 2.743665 1_556
B39 Ho12 2.849338 1_546
