# generated using pymatgen
data_NaSmSe2O7
_symmetry_space_group_name_H-M   'P 1'
_cell_length_a   6.91836787
_cell_length_b   8.25051766
_cell_length_c   10.60305083
_cell_angle_alpha   88.84208222
_cell_angle_beta   90.00000000
_cell_angle_gamma   90.00000000
_symmetry_Int_Tables_number   1
_chemical_formula_structural   NaSmSe2O7
_chemical_formula_sum   'Na4 Sm4 Se8 O28'
_cell_volume   605.09978497
_cell_formula_units_Z   4
loop_
 _symmetry_equiv_pos_site_id
 _symmetry_equiv_pos_as_xyz
  1  'x, y, z'
loop_
 _atom_site_type_symbol
 _atom_site_label
 _atom_site_symmetry_multiplicity
 _atom_site_fract_x
 _atom_site_fract_y
 _atom_site_fract_z
 _atom_site_occupancy
  Na  Na0  1  0.37276827  0.81141258  0.93557110  1
  Na  Na1  1  0.87276827  0.68858742  0.06442890  1
  Na  Na2  1  0.62723173  0.18858742  0.06442890  1
  Na  Na3  1  0.12723173  0.31141258  0.93557110  1
  Sm  Sm0  1  0.84860264  0.19450789  0.58370841  1
  Sm  Sm1  1  0.34860264  0.30549211  0.41629159  1
  Sm  Sm2  1  0.15139736  0.80549211  0.41629159  1
  Sm  Sm3  1  0.65139736  0.69450789  0.58370841  1
  Se  Se0  1  0.32758067  0.05516038  0.67339626  1
  Se  Se1  1  0.17241933  0.55516038  0.67339626  1
  Se  Se2  1  0.67241933  0.94483962  0.32660374  1
  Se  Se3  1  0.14307205  0.04317286  0.15920592  1
  Se  Se4  1  0.82758067  0.44483962  0.32660374  1
  Se  Se5  1  0.35692795  0.54317286  0.15920592  1
  Se  Se6  1  0.64307205  0.45682714  0.84079408  1
  Se  Se7  1  0.85692795  0.95682714  0.84079408  1
  O  O0  1  0.22339352  0.07866018  0.30488296  1
  O  O1  1  0.84176048  0.93494416  0.44755324  1
  O  O2  1  0.88219375  0.64239245  0.33967870  1
  O  O3  1  0.72339352  0.42133982  0.69511704  1
  O  O4  1  0.00307829  0.33934590  0.40832359  1
  O  O5  1  0.56376008  0.64456060  0.81307713  1
  O  O6  1  0.47165873  0.33041059  0.88365516  1
  O  O7  1  0.49692171  0.83934590  0.40832359  1
  O  O8  1  0.43623992  0.35543940  0.18692287  1
  O  O9  1  0.61780625  0.14239245  0.33967870  1
  O  O10  1  0.15823952  0.06505584  0.55244676  1
  O  O11  1  0.27660648  0.57866018  0.30488296  1
  O  O12  1  0.93623992  0.14456060  0.81307713  1
  O  O13  1  0.31770916  0.04806802  0.05458212  1
  O  O14  1  0.11780625  0.35760755  0.66032130  1
  O  O15  1  0.38219375  0.85760755  0.66032130  1
  O  O16  1  0.02834127  0.83041059  0.88365516  1
  O  O17  1  0.50307829  0.16065410  0.59167641  1
  O  O18  1  0.65823952  0.43494416  0.44755324  1
  O  O19  1  0.06376008  0.85543940  0.18692287  1
  O  O20  1  0.34176048  0.56505584  0.55244676  1
  O  O21  1  0.81770916  0.45193198  0.94541788  1
  O  O22  1  0.97165873  0.16958941  0.11634484  1
  O  O23  1  0.18229084  0.54806802  0.05458212  1
  O  O24  1  0.52834127  0.66958941  0.11634484  1
  O  O25  1  0.99692171  0.66065410  0.59167641  1
  O  O26  1  0.77660648  0.92133982  0.69511704  1
  O  O27  1  0.68229084  0.95193198  0.94541788  1
loop_
_geom_bond_atom_site_label_1
_geom_bond_atom_site_label_2
_geom_bond_distance
_geom_bond_site_symmetry_2
Na0 O5 2.323835 1_555
Na0 O13 2.376845 1_566
Na0 O27 2.438331 1_555
Na0 O16 2.449934 1_555
Na0 O24 2.472026 1_556
Na0 O23 2.817598 1_556
Na0 O15 2.936346 1_555
Na1 O19 2.323835 1_655
Na1 O21 2.376845 1_554
Na1 O23 2.438331 1_655
Na1 O24 2.449934 1_555
Na1 O16 2.472026 1_654
Na1 O27 2.817598 1_554
Na1 O2 2.936346 1_555
Na2 O8 2.323835 1_555
Na2 O27 2.376845 1_544
Na2 O13 2.438331 1_555
Na2 O22 2.449934 1_555
Na2 O6 2.472026 1_554
Na2 O21 2.817598 1_554
Na2 O9 2.936346 1_555
Na3 O12 2.323835 1_455
Na3 O23 2.376845 1_556
Na3 O21 2.438331 1_455
Na3 O6 2.449934 1_555
Na3 O22 2.472026 1_456
Na3 O13 2.817598 1_556
Na3 O14 2.936346 1_555
O0 Se3 1.672917 1_555
O0 Sm1 2.395322 1_555
O0 Sm2 2.572045 1_545
O1 Se2 1.737709 1_555
O1 Sm2 2.419472 1_655
O1 Sm0 2.607206 1_565
O1 Sm3 2.763705 1_555
O2 Se4 1.681585 1_555
O2 Sm2 2.446134 1_655
O2 Sm3 3.078044 1_555
O3 Se6 1.672917 1_555
O3 Sm0 2.395322 1_555
O3 Sm3 2.572045 1_555
O4 Se4 1.718151 1_455
O4 Sm1 2.408012 1_555
O4 Sm0 2.436906 1_455
O5 Se6 1.663772 1_555
O5 Sm3 2.532111 1_555
O6 Se6 1.637555 1_555
O7 Se2 1.718151 1_555
O7 Sm2 2.408012 1_555
O7 Sm3 2.436906 1_555
O8 Se5 1.663772 1_555
O8 Sm1 2.532111 1_555
O9 Se2 1.681585 1_545
O9 Sm1 2.446134 1_555
O9 Sm0 3.078044 1_555
O10 Se0 1.737709 1_555
O10 Sm0 2.419472 1_455
O10 Sm2 2.607206 1_545
O10 Sm1 2.763705 1_555
O11 Se5 1.672917 1_555
O11 Sm2 2.395322 1_555
O11 Sm1 2.572045 1_555
O12 Se7 1.663772 1_545
O12 Sm0 2.532111 1_555
O13 Se3 1.640181 1_555
O14 Se1 1.681585 1_555
O14 Sm0 2.446134 1_455
O14 Sm1 3.078044 1_555
O15 Se0 1.681585 1_565
O15 Sm3 2.446134 1_555
O15 Sm2 3.078044 1_555
O16 Se7 1.637555 1_455
O17 Se0 1.718151 1_555
O17 Sm0 2.408012 1_555
O17 Sm1 2.436906 1_555
O18 Se4 1.737709 1_555
O18 Sm1 2.419472 1_555
O18 Sm3 2.607206 1_555
O18 Sm0 2.763705 1_555
O19 Se3 1.663772 1_565
O19 Sm2 2.532111 1_555
O20 Se1 1.737709 1_555
O20 Sm3 2.419472 1_555
O20 Sm1 2.607206 1_555
O20 Sm2 2.763705 1_555
O21 Se6 1.640181 1_555
O22 Se3 1.637555 1_655
O23 Se5 1.640181 1_555
O24 Se5 1.637555 1_555
O25 Se1 1.718151 1_655
O25 Sm3 2.408012 1_555
O25 Sm2 2.436906 1_655
O26 Se7 1.672917 1_555
O26 Sm3 2.395322 1_555
O26 Sm0 2.572045 1_565
O27 Se7 1.640181 1_555
