# generated using pymatgen
data_Cs3AlO3
_symmetry_space_group_name_H-M   'P 1'
_cell_length_a   12.78262266
_cell_length_b   7.21032597
_cell_length_c   7.91844959
_cell_angle_alpha   65.46093375
_cell_angle_beta   90.00000000
_cell_angle_gamma   90.00000000
_symmetry_Int_Tables_number   1
_chemical_formula_structural   Cs3AlO3
_chemical_formula_sum   'Cs12 Al4 O12'
_cell_volume   663.90029665
_cell_formula_units_Z   4
loop_
 _symmetry_equiv_pos_site_id
 _symmetry_equiv_pos_as_xyz
  1  'x, y, z'
loop_
 _atom_site_type_symbol
 _atom_site_label
 _atom_site_symmetry_multiplicity
 _atom_site_fract_x
 _atom_site_fract_y
 _atom_site_fract_z
 _atom_site_occupancy
  Cs  Cs0  1  0.69644494  0.86944933  0.92629014  1
  Cs  Cs1  1  0.34817805  0.56136417  0.52087237  1
  Cs  Cs2  1  0.30355506  0.13055067  0.07370986  1
  Cs  Cs3  1  0.84817805  0.93863583  0.47912763  1
  Cs  Cs4  1  0.19644494  0.63055067  0.07370986  1
  Cs  Cs5  1  0.56173569  0.01447191  0.27395446  1
  Cs  Cs6  1  0.80355506  0.36944933  0.92629014  1
  Cs  Cs7  1  0.65182195  0.43863583  0.47912763  1
  Cs  Cs8  1  0.06173569  0.48552809  0.72604554  1
  Cs  Cs9  1  0.93826431  0.51447191  0.27395446  1
  Cs  Cs10  1  0.43826431  0.98552809  0.72604554  1
  Cs  Cs11  1  0.15182195  0.06136417  0.52087237  1
  Al  Al0  1  0.45517066  0.51348850  0.14085065  1
  Al  Al1  1  0.54482934  0.48651150  0.85914935  1
  Al  Al2  1  0.04482934  0.01348850  0.14085065  1
  Al  Al3  1  0.95517066  0.98651150  0.85914935  1
  O  O0  1  0.90085769  0.19758905  0.67304495  1
  O  O1  1  0.41111286  0.53116308  0.91433466  1
  O  O2  1  0.08888714  0.03116308  0.91433466  1
  O  O3  1  0.06251454  0.24162478  0.16546407  1
  O  O4  1  0.09914231  0.80241095  0.32695505  1
  O  O5  1  0.40085769  0.30241095  0.32695505  1
  O  O6  1  0.59914231  0.69758905  0.67304495  1
  O  O7  1  0.91111286  0.96883692  0.08566534  1
  O  O8  1  0.56251454  0.25837522  0.83453593  1
  O  O9  1  0.43748546  0.74162478  0.16546407  1
  O  O10  1  0.58888714  0.46883692  0.08566534  1
  O  O11  1  0.93748546  0.75837522  0.83453593  1
loop_
_geom_bond_atom_site_label_1
_geom_bond_atom_site_label_2
_geom_bond_distance
_geom_bond_site_symmetry_2
Cs0 O10 2.966259 1_556
Cs0 O6 3.027844 1_555
Cs0 O8 3.103287 1_565
Cs0 O7 3.222892 1_556
Cs0 O11 3.338559 1_555
Cs0 O0 3.536333 1_565
Cs1 O9 2.806140 1_555
Cs1 O5 2.946001 1_555
Cs1 O1 3.136572 1_555
Cs2 O1 2.966259 1_554
Cs2 O5 3.027844 1_555
Cs2 O9 3.103287 1_545
Cs2 O2 3.222892 1_554
Cs2 O3 3.338559 1_555
Cs2 O4 3.536333 1_545
Cs3 O11 2.806140 1_555
Cs3 O0 2.946001 1_565
Cs3 O7 3.136572 1_555
Cs4 O2 2.966259 1_564
Cs4 O4 3.027844 1_555
Cs4 O3 3.103287 1_555
Cs4 O1 3.222892 1_554
Cs4 O9 3.338559 1_555
Cs4 O5 3.536333 1_555
Cs5 O9 2.921418 1_545
Cs5 O10 3.003186 1_555
Cs5 O6 3.072179 1_545
Cs5 O5 3.072322 1_555
Cs5 O8 3.180744 1_554
Cs6 O7 2.966259 1_546
Cs6 O0 3.027844 1_555
Cs6 O11 3.103287 1_555
Cs6 O10 3.222892 1_556
Cs6 O8 3.338559 1_555
Cs6 O6 3.536333 1_555
Cs7 O8 2.806140 1_555
Cs7 O6 2.946001 1_555
Cs7 O10 3.136572 1_555
Cs8 O11 2.921418 1_455
Cs8 O2 3.003186 1_555
Cs8 O4 3.072179 1_555
Cs8 O0 3.072322 1_455
Cs8 O3 3.180744 1_556
Cs9 O3 2.921418 1_655
Cs9 O7 3.003186 1_555
Cs9 O0 3.072179 1_555
Cs9 O4 3.072322 1_655
Cs9 O11 3.180744 1_554
Cs10 O8 2.921418 1_565
Cs10 O1 3.003186 1_555
Cs10 O5 3.072179 1_565
Cs10 O6 3.072322 1_555
Cs10 O9 3.180744 1_556
Cs11 O3 2.806140 1_555
Cs11 O4 2.946001 1_545
Cs11 O2 3.136572 1_555
Al0 O9 1.749630 1_555
Al0 O5 1.762674 1_555
Al0 O10 1.825648 1_555
Al0 O1 1.833232 1_554
Al1 O8 1.749630 1_555
Al1 O6 1.762674 1_555
Al1 O1 1.825648 1_555
Al1 O10 1.833232 1_556
Al2 O3 1.749630 1_555
Al2 O4 1.762674 1_545
Al2 O7 1.825648 1_445
Al2 O2 1.833232 1_554
Al3 O11 1.749630 1_555
Al3 O0 1.762674 1_565
Al3 O2 1.825648 1_665
Al3 O7 1.833232 1_556
