# generated using pymatgen
data_RbEr3F10
_symmetry_space_group_name_H-M   'P 1'
_cell_length_a   8.21214595
_cell_length_b   8.21214595
_cell_length_c   13.41046400
_cell_angle_alpha   90.00000000
_cell_angle_beta   90.00000000
_cell_angle_gamma   119.99999961
_symmetry_Int_Tables_number   1
_chemical_formula_structural   RbEr3F10
_chemical_formula_sum   'Rb4 Er12 F40'
_cell_volume   783.22719177
_cell_formula_units_Z   4
loop_
 _symmetry_equiv_pos_site_id
 _symmetry_equiv_pos_as_xyz
  1  'x, y, z'
loop_
 _atom_site_type_symbol
 _atom_site_label
 _atom_site_symmetry_multiplicity
 _atom_site_fract_x
 _atom_site_fract_y
 _atom_site_fract_z
 _atom_site_occupancy
  Rb  Rb0  1  0.66666700  0.33333300  0.25860200  1
  Rb  Rb1  1  0.00000000  0.00000000  0.49959200  1
  Rb  Rb2  1  0.33333300  0.66666700  0.75860200  1
  Rb  Rb3  1  0.00000000  0.00000000  0.99959200  1
  Er  Er0  1  0.50557000  0.01113900  0.51276100  1
  Er  Er1  1  0.49443000  0.98886100  0.01276100  1
  Er  Er2  1  0.49443000  0.50557000  0.01276100  1
  Er  Er3  1  0.17433900  0.82566100  0.25264700  1
  Er  Er4  1  0.01113900  0.50557000  0.01276100  1
  Er  Er5  1  0.82566100  0.17433900  0.75264700  1
  Er  Er6  1  0.34867900  0.17433900  0.75264700  1
  Er  Er7  1  0.17433900  0.34867900  0.25264700  1
  Er  Er8  1  0.98886100  0.49443000  0.51276100  1
  Er  Er9  1  0.50557000  0.49443000  0.51276100  1
  Er  Er10  1  0.65132100  0.82566100  0.25264700  1
  Er  Er11  1  0.82566100  0.65132100  0.75264700  1
  F  F0  1  0.77706400  0.22293600  0.04928400  1
  F  F1  1  0.10978900  0.21957800  0.72259000  1
  F  F2  1  0.34108200  0.33496100  0.88265100  1
  F  F3  1  0.66503900  0.65891800  0.88265100  1
  F  F4  1  0.95943000  0.47971500  0.68695800  1
  F  F5  1  0.22293600  0.77706400  0.54928400  1
  F  F6  1  0.33333300  0.66666700  0.29916900  1
  F  F7  1  0.00612100  0.66503900  0.38265100  1
  F  F8  1  0.33333300  0.66666700  0.96909100  1
  F  F9  1  0.65891800  0.99387900  0.38265100  1
  F  F10  1  0.00612100  0.34108200  0.38265100  1
  F  F11  1  0.52028500  0.04057000  0.68695800  1
  F  F12  1  0.77706400  0.55412700  0.04928400  1
  F  F13  1  0.99387900  0.33496100  0.88265100  1
  F  F14  1  0.81577700  0.18422300  0.57698600  1
  F  F15  1  0.22293600  0.44587300  0.54928400  1
  F  F16  1  0.78042200  0.89021100  0.72259000  1
  F  F17  1  0.66503900  0.00612100  0.88265100  1
  F  F18  1  0.55412700  0.77706400  0.54928400  1
  F  F19  1  0.10978900  0.89021100  0.72259000  1
  F  F20  1  0.18422300  0.81577700  0.07698600  1
  F  F21  1  0.89021100  0.78042200  0.22259000  1
  F  F22  1  0.52028500  0.47971500  0.68695800  1
  F  F23  1  0.21957800  0.10978900  0.22259000  1
  F  F24  1  0.18422300  0.36844600  0.07698600  1
  F  F25  1  0.33496100  0.34108200  0.38265100  1
  F  F26  1  0.44587300  0.22293600  0.04928400  1
  F  F27  1  0.65891800  0.66503900  0.38265100  1
  F  F28  1  0.47971500  0.52028500  0.18695800  1
  F  F29  1  0.04057000  0.52028500  0.18695800  1
  F  F30  1  0.33496100  0.99387900  0.38265100  1
  F  F31  1  0.81577700  0.63155400  0.57698600  1
  F  F32  1  0.66666700  0.33333300  0.46909100  1
  F  F33  1  0.34108200  0.00612100  0.88265100  1
  F  F34  1  0.99387900  0.65891800  0.88265100  1
  F  F35  1  0.36844600  0.18422300  0.57698600  1
  F  F36  1  0.66666700  0.33333300  0.79916900  1
  F  F37  1  0.89021100  0.10978900  0.22259000  1
  F  F38  1  0.63155400  0.81577700  0.07698600  1
  F  F39  1  0.47971500  0.95943000  0.18695800  1
loop_
_geom_bond_atom_site_label_1
_geom_bond_atom_site_label_2
_geom_bond_distance
_geom_bond_site_symmetry_2
Er0 F9 2.197480 1_545
Er0 F30 2.197484 1_545
Er0 F18 2.204652 1_545
Er0 F5 2.204663 1_545
Er0 F11 2.345421 1_555
Er0 F32 2.365074 1_555
Er0 F14 2.372931 1_555
Er0 F35 2.372938 1_555
Er1 F33 2.197480 1_564
Er1 F17 2.197484 1_564
Er1 F26 2.204652 1_565
Er1 F0 2.204663 1_565
Er1 F39 2.345421 1_555
Er1 F8 2.365074 1_554
Er1 F20 2.372931 1_555
Er1 F38 2.372938 1_555
Er2 F2 2.197482 1_554
Er2 F3 2.197482 1_554
Er2 F12 2.204668 1_555
Er2 F26 2.204668 1_555
Er2 F28 2.345420 1_555
Er2 F8 2.365074 1_554
Er2 F24 2.372931 1_555
Er2 F38 2.372931 1_555
Er3 F30 2.205802 1_555
Er3 F7 2.205802 1_555
Er3 F23 2.208606 1_565
Er3 F21 2.208606 1_455
Er3 F6 2.345985 1_555
Er3 F29 2.348814 1_555
Er3 F39 2.348814 1_555
Er3 F20 2.359887 1_555
Er4 F34 2.197480 1_454
Er4 F13 2.197484 1_454
Er4 F12 2.204652 1_455
Er4 F0 2.204663 1_455
Er4 F29 2.345421 1_555
Er4 F8 2.365074 1_554
Er4 F20 2.372931 1_555
Er4 F24 2.372938 1_555
Er5 F13 2.205802 1_555
Er5 F17 2.205802 1_555
Er5 F1 2.208606 1_655
Er5 F16 2.208606 1_545
Er5 F36 2.345985 1_555
Er5 F11 2.348814 1_555
Er5 F4 2.348814 1_555
Er5 F14 2.359887 1_555
Er6 F33 2.205799 1_555
Er6 F2 2.205804 1_555
Er6 F19 2.208609 1_545
Er6 F1 2.208614 1_555
Er6 F36 2.345985 1_555
Er6 F11 2.348807 1_555
Er6 F22 2.348813 1_555
Er6 F35 2.359887 1_555
Er7 F10 2.205799 1_555
Er7 F25 2.205804 1_555
Er7 F37 2.208609 1_455
Er7 F23 2.208614 1_555
Er7 F6 2.345985 1_555
Er7 F29 2.348807 1_555
Er7 F28 2.348813 1_555
Er7 F24 2.359887 1_555
Er8 F10 2.197480 1_655
Er8 F7 2.197484 1_655
Er8 F15 2.204652 1_655
Er8 F5 2.204663 1_655
Er8 F4 2.345421 1_555
Er8 F32 2.365074 1_555
Er8 F14 2.372931 1_555
Er8 F31 2.372938 1_555
Er9 F25 2.197482 1_555
Er9 F27 2.197482 1_555
Er9 F15 2.204668 1_555
Er9 F18 2.204668 1_555
Er9 F22 2.345420 1_555
Er9 F32 2.365074 1_555
Er9 F35 2.372931 1_555
Er9 F31 2.372931 1_555
Er10 F9 2.205799 1_555
Er10 F27 2.205804 1_555
Er10 F37 2.208609 1_565
Er10 F21 2.208614 1_555
Er10 F6 2.345985 1_555
Er10 F39 2.348807 1_555
Er10 F28 2.348813 1_555
Er10 F38 2.359887 1_555
Er11 F34 2.205799 1_555
Er11 F3 2.205804 1_555
Er11 F19 2.208609 1_655
Er11 F16 2.208614 1_555
Er11 F36 2.345985 1_555
Er11 F4 2.348807 1_555
Er11 F22 2.348813 1_555
Er11 F31 2.359887 1_555
F0 Rb0 3.216409 1_555
F0 Rb3 3.240274 1_654
F1 Rb2 3.216130 1_555
F1 Rb1 3.373692 1_555
F2 Rb3 3.188537 1_555
F2 Rb2 3.219485 1_555
F3 Rb3 3.188537 1_665
F3 Rb2 3.219485 1_555
F4 Rb2 2.827417 1_655
F5 Rb2 3.216409 1_555
F5 Rb1 3.240274 1_565
F7 Rb1 3.188537 1_565
F7 Rb0 3.219481 1_455
F8 Rb2 2.822755 1_555
F9 Rb1 3.188537 1_665
F9 Rb0 3.219478 1_565
F10 Rb1 3.188537 1_555
F10 Rb0 3.219478 1_455
F11 Rb2 2.827417 1_545
F12 Rb0 3.216409 1_555
F12 Rb3 3.240281 1_664
F13 Rb3 3.188537 1_655
F13 Rb2 3.219481 1_655
F14 Rb1 2.818423 1_655
F15 Rb2 3.216409 1_555
F15 Rb1 3.240281 1_555
F16 Rb2 3.216130 1_555
F16 Rb1 3.373692 1_665
F17 Rb3 3.188537 1_655
F17 Rb2 3.219481 1_545
F18 Rb2 3.216409 1_555
F18 Rb1 3.240281 1_665
F19 Rb2 3.216123 1_555
F19 Rb1 3.373692 1_565
F20 Rb3 2.818423 1_564
F21 Rb0 3.216130 1_555
F21 Rb3 3.373692 1_664
F22 Rb2 2.827424 1_555
F23 Rb0 3.216130 1_555
F23 Rb3 3.373692 1_554
F24 Rb3 2.818423 1_554
F25 Rb1 3.188537 1_555
F25 Rb0 3.219485 1_555
F26 Rb0 3.216409 1_555
F26 Rb3 3.240281 1_554
F27 Rb1 3.188537 1_665
F27 Rb0 3.219485 1_555
F28 Rb0 2.827424 1_555
F29 Rb0 2.827417 1_455
F30 Rb1 3.188537 1_565
F30 Rb0 3.219481 1_565
F31 Rb1 2.818423 1_665
F32 Rb0 2.822755 1_555
F33 Rb3 3.188537 1_555
F33 Rb2 3.219478 1_545
F34 Rb3 3.188537 1_665
F34 Rb2 3.219478 1_655
F35 Rb1 2.818423 1_555
F37 Rb0 3.216123 1_555
F37 Rb3 3.373692 1_654
F38 Rb3 2.818423 1_664
F39 Rb0 2.827417 1_565
