# generated using pymatgen
data_Ba8Ce3(SbO6)4
_symmetry_space_group_name_H-M   'P 1'
_cell_length_a   10.53582047
_cell_length_b   10.53582047
_cell_length_c   10.53582047
_cell_angle_alpha   131.97451165
_cell_angle_beta   131.97451165
_cell_angle_gamma   70.26928594
_symmetry_Int_Tables_number   1
_chemical_formula_structural   Ba8Ce3(SbO6)4
_chemical_formula_sum   'Ba8 Ce3 Sb4 O24'
_cell_volume   633.53934617
_cell_formula_units_Z   1
loop_
 _symmetry_equiv_pos_site_id
 _symmetry_equiv_pos_as_xyz
  1  'x, y, z'
loop_
 _atom_site_type_symbol
 _atom_site_label
 _atom_site_symmetry_multiplicity
 _atom_site_fract_x
 _atom_site_fract_y
 _atom_site_fract_z
 _atom_site_occupancy
  Ba  Ba0  1  0.34579200  0.34579200  0.45925600  1
  Ba  Ba1  1  0.88653600  0.34579200  0.00000000  1
  Ba  Ba2  1  0.11346400  0.11346400  0.45925600  1
  Ba  Ba3  1  0.11346400  0.65420800  0.00000000  1
  Ba  Ba4  1  0.34579200  0.88653600  0.00000000  1
  Ba  Ba5  1  0.65420800  0.65420800  0.54074400  1
  Ba  Ba6  1  0.65420800  0.11346400  0.00000000  1
  Ba  Ba7  1  0.88653600  0.88653600  0.54074400  1
  Ce  Ce0  1  0.75000000  0.25000000  0.50000000  1
  Ce  Ce1  1  0.25000000  0.75000000  0.50000000  1
  Ce  Ce2  1  0.50000000  0.50000000  0.00000000  1
  Sb  Sb0  1  0.74471900  0.74471900  0.00000000  1
  Sb  Sb1  1  0.25528100  0.25528100  0.00000000  1
  Sb  Sb2  1  0.00000000  0.50000000  0.50000000  1
  Sb  Sb3  1  0.50000000  0.00000000  0.50000000  1
  O  O0  1  0.50000000  0.23953900  0.73953900  1
  O  O1  1  0.37090800  0.37090800  0.00000000  1
  O  O2  1  0.74624500  0.98509300  0.23884700  1
  O  O3  1  0.25375500  0.01490700  0.76115300  1
  O  O4  1  0.50739800  0.74624500  0.76115300  1
  O  O5  1  0.50000000  0.76046100  0.26046100  1
  O  O6  1  0.38025200  0.88025200  0.50000000  1
  O  O7  1  0.27254100  0.00000000  0.27254100  1
  O  O8  1  0.49260200  0.25375500  0.23884700  1
  O  O9  1  0.76046100  0.50000000  0.26046100  1
  O  O10  1  0.61974800  0.11974800  0.50000000  1
  O  O11  1  0.01490700  0.25375500  0.76115300  1
  O  O12  1  0.74624500  0.50739800  0.76115300  1
  O  O13  1  0.62909200  0.62909200  0.00000000  1
  O  O14  1  0.72745900  0.00000000  0.72745900  1
  O  O15  1  0.23953900  0.50000000  0.73953900  1
  O  O16  1  0.00000000  0.72745900  0.72745900  1
  O  O17  1  0.98509300  0.74624500  0.23884700  1
  O  O18  1  0.14100700  0.14100700  0.00000000  1
  O  O19  1  0.11974800  0.61974800  0.50000000  1
  O  O20  1  0.85899300  0.85899300  0.00000000  1
  O  O21  1  0.00000000  0.27254100  0.27254100  1
  O  O22  1  0.25375500  0.49260200  0.23884700  1
  O  O23  1  0.88025200  0.38025200  0.50000000  1
loop_
_geom_bond_atom_site_label_1
_geom_bond_atom_site_label_2
_geom_bond_distance
_geom_bond_site_symmetry_2
Ba0 O18 2.817352 1_555
Ba0 O21 2.831900 1_555
Ba0 O7 2.831900 1_555
Ba0 O19 3.042357 1_555
Ba0 O10 3.042357 1_555
Ba0 O0 3.064213 1_555
Ba0 O15 3.064213 1_555
Ba0 O8 3.083037 1_555
Ba0 O22 3.083037 1_555
Ba0 O4 3.236189 1_555
Ba0 O12 3.236189 1_555
Ba0 O13 3.286287 1_556
Ba1 O18 2.817352 1_655
Ba1 O21 2.831900 1_655
Ba1 O14 2.831900 1_554
Ba1 O10 3.042357 1_554
Ba1 O19 3.042357 1_655
Ba1 O0 3.064213 1_554
Ba1 O9 3.064213 1_555
Ba1 O11 3.083028 1_654
Ba1 O22 3.083037 1_655
Ba1 O12 3.236189 1_554
Ba1 O17 3.236192 1_555
Ba1 O13 3.286287 1_555
Ba2 O20 2.817352 1_445
Ba2 O7 2.831900 1_555
Ba2 O21 2.831900 1_555
Ba2 O23 3.042357 1_455
Ba2 O6 3.042357 1_545
Ba2 O15 3.064213 1_555
Ba2 O0 3.064213 1_555
Ba2 O17 3.083033 1_445
Ba2 O2 3.083033 1_445
Ba2 O11 3.236198 1_555
Ba2 O3 3.236198 1_555
Ba2 O1 3.286287 1_556
Ba3 O20 2.817352 1_455
Ba3 O7 2.831900 1_565
Ba3 O16 2.831900 1_554
Ba3 O23 3.042357 1_454
Ba3 O6 3.042357 1_555
Ba3 O5 3.064213 1_555
Ba3 O15 3.064213 1_554
Ba3 O17 3.083028 1_455
Ba3 O12 3.083037 1_454
Ba3 O22 3.236189 1_555
Ba3 O11 3.236192 1_554
Ba3 O1 3.286287 1_555
Ba4 O18 2.817352 1_565
Ba4 O16 2.831900 1_554
Ba4 O7 2.831900 1_565
Ba4 O19 3.042357 1_554
Ba4 O10 3.042357 1_565
Ba4 O15 3.064213 1_554
Ba4 O5 3.064213 1_555
Ba4 O3 3.083028 1_564
Ba4 O8 3.083037 1_565
Ba4 O4 3.236189 1_554
Ba4 O2 3.236192 1_555
Ba4 O13 3.286287 1_555
Ba5 O20 2.817352 1_556
Ba5 O16 2.831900 1_655
Ba5 O14 2.831900 1_565
Ba5 O6 3.042357 1_555
Ba5 O23 3.042357 1_555
Ba5 O9 3.064213 1_555
Ba5 O5 3.064213 1_555
Ba5 O12 3.083037 1_555
Ba5 O4 3.083037 1_555
Ba5 O8 3.236189 1_555
Ba5 O22 3.236189 1_555
Ba5 O1 3.286287 1_555
Ba6 O20 2.817352 1_545
Ba6 O21 2.831900 1_655
Ba6 O14 2.831900 1_554
Ba6 O6 3.042357 1_544
Ba6 O23 3.042357 1_555
Ba6 O9 3.064213 1_555
Ba6 O0 3.064213 1_554
Ba6 O2 3.083028 1_545
Ba6 O4 3.083037 1_544
Ba6 O8 3.236189 1_555
Ba6 O3 3.236192 1_554
Ba6 O1 3.286287 1_555
Ba7 O18 2.817352 1_666
Ba7 O14 2.831900 1_565
Ba7 O16 2.831900 1_655
Ba7 O19 3.042357 1_655
Ba7 O10 3.042357 1_565
Ba7 O9 3.064213 1_555
Ba7 O5 3.064213 1_555
Ba7 O11 3.083033 1_665
Ba7 O3 3.083033 1_665
Ba7 O17 3.236198 1_555
Ba7 O2 3.236198 1_555
Ba7 O13 3.286287 1_555
Ce0 O2 2.240288 1_545
Ce0 O11 2.240288 1_655
Ce0 O12 2.240293 1_555
Ce0 O8 2.240293 1_555
Ce0 O23 2.244558 1_555
Ce0 O10 2.244558 1_555
Ce1 O3 2.240288 1_565
Ce1 O17 2.240288 1_455
Ce1 O4 2.240293 1_555
Ce1 O22 2.240293 1_555
Ce1 O6 2.244558 1_555
Ce1 O19 2.244558 1_555
Ce2 O13 2.224569 1_555
Ce2 O1 2.224569 1_555
Ce2 O5 2.233424 1_555
Ce2 O9 2.233424 1_555
Ce2 O0 2.233424 1_554
Ce2 O15 2.233424 1_554
O0 Sb3 2.054021 1_555
O1 Sb1 1.992534 1_555
O2 Sb0 2.048260 1_555
O3 Sb1 2.048260 1_556
O4 Sb0 2.048256 1_556
O5 Sb3 2.054021 1_565
O6 Sb3 2.063549 1_565
O7 Sb3 1.950436 1_555
O8 Sb1 2.048256 1_555
O9 Sb2 2.054021 1_655
O10 Sb3 2.063549 1_555
O11 Sb1 2.048260 1_556
O12 Sb0 2.048256 1_556
O13 Sb0 1.992534 1_555
O14 Sb3 1.950436 1_555
O15 Sb2 2.054021 1_555
O16 Sb2 1.950436 1_555
O17 Sb0 2.048260 1_555
O18 Sb1 1.969218 1_555
O19 Sb2 2.063549 1_555
O20 Sb0 1.969218 1_555
O21 Sb2 1.950436 1_555
O22 Sb1 2.048256 1_555
O23 Sb2 2.063549 1_655
