# generated using pymatgen
data_CsAu(SO4)2
_symmetry_space_group_name_H-M   'P 1'
_cell_length_a   9.30700500
_cell_length_b   9.24685600
_cell_length_c   10.55066449
_cell_angle_alpha   68.58945725
_cell_angle_beta   90.00000000
_cell_angle_gamma   90.00000000
_symmetry_Int_Tables_number   1
_chemical_formula_structural   CsAu(SO4)2
_chemical_formula_sum   'Cs4 Au4 S8 O32'
_cell_volume   845.33382226
_cell_formula_units_Z   4
loop_
 _symmetry_equiv_pos_site_id
 _symmetry_equiv_pos_as_xyz
  1  'x, y, z'
loop_
 _atom_site_type_symbol
 _atom_site_label
 _atom_site_symmetry_multiplicity
 _atom_site_fract_x
 _atom_site_fract_y
 _atom_site_fract_z
 _atom_site_occupancy
  Cs  Cs0  1  0.14057800  0.61232900  0.24394400  1
  Cs  Cs1  1  0.64057800  0.88767100  0.75605600  1
  Cs  Cs2  1  0.85942200  0.38767100  0.75605600  1
  Cs  Cs3  1  0.35942200  0.11232900  0.24394400  1
  Au  Au0  1  0.35552200  0.36691600  0.71103700  1
  Au  Au1  1  0.14447800  0.86691600  0.71103700  1
  Au  Au2  1  0.85552200  0.13308400  0.28896300  1
  Au  Au3  1  0.64447800  0.63308400  0.28896300  1
  S  S0  1  0.74285600  0.45990700  0.09835200  1
  S  S1  1  0.47131900  0.69543300  0.52633400  1
  S  S2  1  0.75714400  0.95990700  0.09835200  1
  S  S3  1  0.25714400  0.54009300  0.90164800  1
  S  S4  1  0.97131900  0.80456700  0.47366600  1
  S  S5  1  0.02868100  0.19543300  0.52633400  1
  S  S6  1  0.24285600  0.04009300  0.90164800  1
  S  S7  1  0.52868100  0.30456700  0.47366600  1
  O  O0  1  0.70633400  0.03790000  0.19961400  1
  O  O1  1  0.49400600  0.25327800  0.62870000  1
  O  O2  1  0.35443700  0.56882200  0.54561100  1
  O  O3  1  0.50599400  0.74672200  0.37130000  1
  O  O4  1  0.99400600  0.24672200  0.37130000  1
  O  O5  1  0.23321800  0.43470700  0.04067300  1
  O  O6  1  0.20633400  0.46210000  0.80038600  1
  O  O7  1  0.39907300  0.60486300  0.86546000  1
  O  O8  1  0.90524800  0.66753700  0.46233500  1
  O  O9  1  0.85443700  0.93117800  0.45438900  1
  O  O10  1  0.29366600  0.96210000  0.80038600  1
  O  O11  1  0.40524800  0.83246300  0.53766500  1
  O  O12  1  0.73321800  0.06529300  0.95932700  1
  O  O13  1  0.64556300  0.43117800  0.45438900  1
  O  O14  1  0.89907300  0.89513700  0.13454000  1
  O  O15  1  0.90510200  0.13241900  0.61180200  1
  O  O16  1  0.10092700  0.10486300  0.86546000  1
  O  O17  1  0.79366600  0.53790000  0.19961400  1
  O  O18  1  0.35967800  0.16812000  0.88001300  1
  O  O19  1  0.00599400  0.75327800  0.62870000  1
  O  O20  1  0.59489800  0.63241900  0.61180200  1
  O  O21  1  0.40510200  0.36758100  0.38819800  1
  O  O22  1  0.14556300  0.06882200  0.54561100  1
  O  O23  1  0.64032200  0.83188000  0.11998700  1
  O  O24  1  0.59475200  0.16753700  0.46233500  1
  O  O25  1  0.76678200  0.56529300  0.95932700  1
  O  O26  1  0.60092700  0.39513700  0.13454000  1
  O  O27  1  0.26678200  0.93470700  0.04067300  1
  O  O28  1  0.09475200  0.33246300  0.53766500  1
  O  O29  1  0.14032200  0.66812000  0.88001300  1
  O  O30  1  0.85967800  0.33188000  0.11998700  1
  O  O31  1  0.09489800  0.86758100  0.38819800  1
loop_
_geom_bond_atom_site_label_1
_geom_bond_atom_site_label_2
_geom_bond_distance
_geom_bond_site_symmetry_2
Cs0 O27 3.193397 1_555
Cs0 O5 3.257645 1_555
Cs0 O28 3.259964 1_555
Cs0 O31 3.269677 1_555
Cs0 O21 3.314295 1_555
Cs0 O14 3.319535 1_455
Cs0 O8 3.350472 1_455
Cs0 O17 3.369275 1_455
Cs0 O4 3.432066 1_455
Cs0 O2 3.649490 1_555
Cs0 O29 3.682842 1_554
Cs1 O25 3.193397 1_555
Cs1 O12 3.257645 1_565
Cs1 O24 3.259964 1_565
Cs1 O20 3.269677 1_555
Cs1 O15 3.314295 1_565
Cs1 O7 3.319535 1_555
Cs1 O11 3.350472 1_555
Cs1 O10 3.369275 1_555
Cs1 O1 3.432066 1_565
Cs1 O9 3.649490 1_555
Cs1 O23 3.682842 1_556
Cs2 O12 3.193397 1_555
Cs2 O25 3.257645 1_555
Cs2 O8 3.259964 1_555
Cs2 O15 3.269677 1_555
Cs2 O20 3.314295 1_555
Cs2 O16 3.319535 1_655
Cs2 O28 3.350472 1_655
Cs2 O6 3.369275 1_655
Cs2 O19 3.432066 1_655
Cs2 O13 3.649490 1_555
Cs2 O30 3.682842 1_556
Cs3 O5 3.193397 1_555
Cs3 O27 3.257645 1_545
Cs3 O11 3.259964 1_545
Cs3 O21 3.269677 1_555
Cs3 O31 3.314295 1_545
Cs3 O26 3.319535 1_555
Cs3 O24 3.350472 1_555
Cs3 O0 3.369275 1_555
Cs3 O3 3.432066 1_545
Cs3 O22 3.649490 1_555
Cs3 O18 3.682842 1_554
Au0 O2 2.037883 1_555
Au0 O18 2.041159 1_555
Au0 O1 2.046087 1_555
Au0 O6 2.048663 1_555
Au1 O22 2.037883 1_565
Au1 O29 2.041159 1_555
Au1 O19 2.046087 1_555
Au1 O10 2.048663 1_555
Au2 O9 2.037883 1_545
Au2 O30 2.041159 1_555
Au2 O4 2.046087 1_555
Au2 O0 2.048663 1_555
Au3 O13 2.037883 1_555
Au3 O23 2.041159 1_555
Au3 O3 2.046087 1_555
Au3 O17 2.048663 1_555
O0 S2 1.564520 1_545
O1 S7 1.561489 1_555
O2 S1 1.556129 1_555
O3 S1 1.561489 1_555
O4 S5 1.561489 1_655
O5 S3 1.451601 1_554
O6 S3 1.564520 1_555
O7 S3 1.443051 1_555
O8 S4 1.452085 1_555
O9 S4 1.556129 1_555
O10 S6 1.564520 1_565
O11 S1 1.452085 1_555
O12 S2 1.451601 1_546
O13 S7 1.556129 1_555
O14 S2 1.443051 1_555
O15 S5 1.446337 1_655
O16 S6 1.443051 1_555
O17 S0 1.564520 1_555
O18 S6 1.561552 1_555
O19 S4 1.561489 1_455
O20 S1 1.446337 1_555
O21 S7 1.446337 1_555
O22 S5 1.556129 1_555
O23 S2 1.561552 1_555
O24 S7 1.452085 1_555
O25 S0 1.451601 1_556
O26 S0 1.443051 1_555
O27 S6 1.451601 1_564
O28 S5 1.452085 1_555
O29 S3 1.561552 1_555
O30 S0 1.561552 1_555
O31 S4 1.446337 1_455
