# generated using pymatgen
data_Co2AsClO4
_symmetry_space_group_name_H-M   'P 1'
_cell_length_a   6.71263200
_cell_length_b   4.99458800
_cell_length_c   6.95958971
_cell_angle_alpha   88.50540921
_cell_angle_beta   90.00000000
_cell_angle_gamma   90.00000000
_symmetry_Int_Tables_number   1
_chemical_formula_structural   Co2AsClO4
_chemical_formula_sum   'Co4 As2 Cl2 O8'
_cell_volume   233.25360786
_cell_formula_units_Z   2
loop_
 _symmetry_equiv_pos_site_id
 _symmetry_equiv_pos_as_xyz
  1  'x, y, z'
loop_
 _atom_site_type_symbol
 _atom_site_label
 _atom_site_symmetry_multiplicity
 _atom_site_fract_x
 _atom_site_fract_y
 _atom_site_fract_z
 _atom_site_occupancy
  Co  Co0  1  0.00000000  0.00000000  0.00000000  1
  Co  Co1  1  0.25000000  0.34968400  0.73091900  1
  Co  Co2  1  0.50000000  0.00000000  0.00000000  1
  Co  Co3  1  0.75000000  0.65031600  0.26908100  1
  As  As0  1  0.75000000  0.51007900  0.76008100  1
  As  As1  1  0.25000000  0.48992100  0.23991900  1
  Cl  Cl0  1  0.25000000  0.83432600  0.76745500  1
  Cl  Cl1  1  0.75000000  0.16567400  0.23254500  1
  O  O0  1  0.04387100  0.69446600  0.20137700  1
  O  O1  1  0.25000000  0.32354500  0.45324400  1
  O  O2  1  0.45612900  0.69446600  0.20137700  1
  O  O3  1  0.95612900  0.30553400  0.79862300  1
  O  O4  1  0.75000000  0.67645500  0.54675600  1
  O  O5  1  0.25000000  0.24008600  0.06445900  1
  O  O6  1  0.54387100  0.30553400  0.79862300  1
  O  O7  1  0.75000000  0.75991400  0.93554100  1
loop_
_geom_bond_atom_site_label_1
_geom_bond_atom_site_label_2
_geom_bond_distance
_geom_bond_site_symmetry_2
Co0 O3 2.065936 1_454
Co0 O0 2.065936 1_545
Co0 O7 2.117413 1_444
Co0 O5 2.117413 1_555
Co1 O1 1.940303 1_555
Co1 O3 2.038766 1_455
Co1 O6 2.038766 1_555
Co1 O5 2.371033 1_556
Co2 O2 2.065936 1_545
Co2 O6 2.065936 1_554
Co2 O5 2.117413 1_555
Co2 O7 2.117413 1_544
Co3 O4 1.940303 1_555
Co3 O0 2.038766 1_655
Co3 O2 2.038766 1_555
Co3 O7 2.371033 1_554
As0 O4 1.682370 1_555
As0 O3 1.736634 1_555
As0 O6 1.736634 1_555
As0 O7 1.768532 1_555
As1 O1 1.682370 1_555
As1 O2 1.736634 1_555
As1 O0 1.736634 1_555
As1 O5 1.768532 1_555
Cl0 Co1 2.440493 1_555
Cl0 Co2 2.487984 1_566
Cl0 Co0 2.487984 1_566
Cl0 Co1 2.579921 1_565
Cl1 Co3 2.440493 1_555
Cl1 Co2 2.487984 1_555
Cl1 Co0 2.487984 1_655
Cl1 Co3 2.579921 1_545
