# generated using pymatgen
data_Ba3V4PbO14
_symmetry_space_group_name_H-M   'P 1'
_cell_length_a   7.45353500
_cell_length_b   7.50747807
_cell_length_c   13.56790259
_cell_angle_alpha   99.41202205
_cell_angle_beta   93.24025814
_cell_angle_gamma   92.09228028
_symmetry_Int_Tables_number   1
_chemical_formula_structural   Ba3V4PbO14
_chemical_formula_sum   'Ba6 V8 Pb2 O28'
_cell_volume   746.99713604
_cell_formula_units_Z   2
loop_
 _symmetry_equiv_pos_site_id
 _symmetry_equiv_pos_as_xyz
  1  'x, y, z'
loop_
 _atom_site_type_symbol
 _atom_site_label
 _atom_site_symmetry_multiplicity
 _atom_site_fract_x
 _atom_site_fract_y
 _atom_site_fract_z
 _atom_site_occupancy
  Ba  Ba0  1  0.77039300  0.74294900  0.34100000  1
  Ba  Ba1  1  0.92097400  0.16478200  0.15916600  1
  Ba  Ba2  1  0.33825700  0.79244800  0.13857800  1
  Ba  Ba3  1  0.07902600  0.83521800  0.84083400  1
  Ba  Ba4  1  0.66174300  0.20755200  0.86142200  1
  Ba  Ba5  1  0.22960700  0.25705100  0.65900000  1
  V  V0  1  0.56497000  0.68749100  0.88178900  1
  V  V1  1  0.15656500  0.31360800  0.92078000  1
  V  V2  1  0.84343500  0.68639200  0.07922000  1
  V  V3  1  0.17693700  0.70622200  0.58431900  1
  V  V4  1  0.23456400  0.91822300  0.39233500  1
  V  V5  1  0.76543600  0.08177700  0.60766500  1
  V  V6  1  0.82306300  0.29377800  0.41568100  1
  V  V7  1  0.43503000  0.31250900  0.11821100  1
  Pb  Pb0  1  0.65040200  0.61532500  0.62789200  1
  Pb  Pb1  1  0.34959800  0.38467500  0.37210800  1
  O  O0  1  0.40535200  0.79017800  0.34605800  1
  O  O1  1  0.99498900  0.38512400  0.35782700  1
  O  O2  1  0.47666900  0.51896000  0.78894900  1
  O  O3  1  0.60046500  0.19552500  0.05800600  1
  O  O4  1  0.28706500  0.16942000  0.84600600  1
  O  O5  1  0.29861000  0.17091200  0.17375300  1
  O  O6  1  0.67018700  0.46406100  0.44923000  1
  O  O7  1  0.70134900  0.57346500  0.96857200  1
  O  O8  1  0.09085600  0.93411100  0.29185800  1
  O  O9  1  0.70139000  0.82908800  0.82624700  1
  O  O10  1  0.29865100  0.42653500  0.03142800  1
  O  O11  1  0.01170700  0.82276000  0.04373400  1
  O  O12  1  0.68743700  0.86922000  0.54684100  1
  O  O13  1  0.52333100  0.48104000  0.21105100  1
  O  O14  1  0.59464800  0.20982200  0.65394200  1
  O  O15  1  0.31256300  0.13078000  0.45315900  1
  O  O16  1  0.00501100  0.61487600  0.64217300  1
  O  O17  1  0.06372500  0.45685100  0.84956700  1
  O  O18  1  0.32981300  0.53593900  0.55077000  1
  O  O19  1  0.71293500  0.83058000  0.15399400  1
  O  O20  1  0.09903700  0.79991600  0.47363500  1
  O  O21  1  0.71543200  0.13034800  0.33052600  1
  O  O22  1  0.93627500  0.54314900  0.15043300  1
  O  O23  1  0.39953500  0.80447500  0.94199400  1
  O  O24  1  0.98829300  0.17724000  0.95626600  1
  O  O25  1  0.90914400  0.06588900  0.70814200  1
  O  O26  1  0.90096300  0.20008400  0.52636500  1
  O  O27  1  0.28456800  0.86965200  0.66947400  1
loop_
_geom_bond_atom_site_label_1
_geom_bond_atom_site_label_2
_geom_bond_distance
_geom_bond_site_symmetry_2
Ba0 O19 2.738193 1_555
Ba0 O0 2.759896 1_555
Ba0 O6 2.848396 1_555
Ba0 O8 2.907271 1_655
Ba0 O12 2.907399 1_555
Ba0 O20 2.931755 1_655
Ba0 O13 2.932687 1_555
Ba0 O21 2.976968 1_565
Ba0 O22 3.113248 1_555
Ba0 O1 3.249126 1_555
Ba1 O3 2.723467 1_555
Ba1 O5 2.808655 1_655
Ba1 O24 2.841841 1_554
Ba1 O22 2.860753 1_555
Ba1 O19 2.889732 1_545
Ba1 O21 2.896520 1_555
Ba1 O11 2.904253 1_645
Ba1 O1 2.934785 1_555
Ba1 O8 2.960692 1_645
Ba2 O11 2.722866 1_555
Ba2 O23 2.746700 1_554
Ba2 O19 2.789399 1_555
Ba2 O5 2.832293 1_565
Ba2 O0 2.834107 1_555
Ba2 O10 2.886731 1_555
Ba2 O8 2.951254 1_555
Ba2 O13 3.028125 1_555
Ba3 O23 2.723467 1_555
Ba3 O9 2.808655 1_455
Ba3 O11 2.841841 1_556
Ba3 O17 2.860753 1_555
Ba3 O4 2.889732 1_565
Ba3 O27 2.896520 1_555
Ba3 O24 2.904253 1_465
Ba3 O16 2.934785 1_555
Ba3 O25 2.960692 1_465
Ba4 O24 2.722866 1_555
Ba4 O3 2.746700 1_556
Ba4 O4 2.789399 1_555
Ba4 O9 2.832293 1_545
Ba4 O14 2.834107 1_555
Ba4 O7 2.886731 1_555
Ba4 O25 2.951254 1_555
Ba4 O2 3.028125 1_555
Ba5 O4 2.738193 1_555
Ba5 O14 2.759896 1_555
Ba5 O18 2.848396 1_555
Ba5 O25 2.907271 1_455
Ba5 O15 2.907399 1_555
Ba5 O26 2.931755 1_455
Ba5 O2 2.932687 1_555
Ba5 O27 2.976968 1_545
Ba5 O17 3.113248 1_555
Ba5 O16 3.249126 1_555
O0 V4 1.709118 1_555
O1 V6 1.718775 1_555
O1 Pb1 2.639404 1_655
O2 V0 1.716078 1_555
O3 V7 1.708028 1_555
O4 V1 1.725228 1_555
O5 V7 1.732499 1_555
O6 V6 1.764810 1_555
O6 Pb0 2.517888 1_555
O6 Pb1 2.563069 1_555
O7 V0 1.846734 1_555
O7 V2 1.852714 1_556
O8 V4 1.708062 1_555
O9 V0 1.732499 1_555
O10 V7 1.846734 1_555
O10 V1 1.852714 1_554
O11 V2 1.728795 1_455
O12 V5 1.735745 1_565
O12 Pb0 2.366485 1_555
O13 V7 1.716078 1_555
O14 V5 1.709118 1_555
O15 V4 1.735745 1_545
O15 Pb1 2.366485 1_555
O16 V3 1.718775 1_555
O16 Pb0 2.639404 1_455
O17 V1 1.699257 1_555
O18 V3 1.764810 1_555
O18 Pb1 2.517888 1_555
O18 Pb0 2.563069 1_555
O19 V2 1.725228 1_555
O20 V3 1.834095 1_555
O20 V4 1.845791 1_555
O21 V6 1.686289 1_555
O22 V2 1.699257 1_555
O23 V0 1.708028 1_555
O24 V1 1.728795 1_655
O25 V5 1.708062 1_555
O26 V6 1.834095 1_555
O26 V5 1.845791 1_555
O27 V3 1.686289 1_555
