# generated using pymatgen
data_Rb(SnSe2)2
_symmetry_space_group_name_H-M   'P 1'
_cell_length_a   20.04669200
_cell_length_b   7.79091500
_cell_length_c   14.61823277
_cell_angle_alpha   62.73255519
_cell_angle_beta   90.00000000
_cell_angle_gamma   90.00000000
_symmetry_Int_Tables_number   1
_chemical_formula_structural   Rb(SnSe2)2
_chemical_formula_sum   'Rb8 Sn16 Se32'
_cell_volume   2029.40190521
_cell_formula_units_Z   8
loop_
 _symmetry_equiv_pos_site_id
 _symmetry_equiv_pos_as_xyz
  1  'x, y, z'
loop_
 _atom_site_type_symbol
 _atom_site_label
 _atom_site_symmetry_multiplicity
 _atom_site_fract_x
 _atom_site_fract_y
 _atom_site_fract_z
 _atom_site_occupancy
  Rb  Rb0  1  0.55872900  0.66239400  0.58079900  1
  Rb  Rb1  1  0.44127100  0.33760600  0.41920100  1
  Rb  Rb2  1  0.19981000  0.58984900  0.58350700  1
  Rb  Rb3  1  0.69981000  0.41015100  0.91649300  1
  Rb  Rb4  1  0.30019000  0.58984900  0.08350700  1
  Rb  Rb5  1  0.94127100  0.66239400  0.08079900  1
  Rb  Rb6  1  0.80019000  0.41015100  0.41649300  1
  Rb  Rb7  1  0.05872900  0.33760600  0.91920100  1
  Sn  Sn0  1  0.53576000  0.85553900  0.82524300  1
  Sn  Sn1  1  0.63870100  0.89482600  0.24246600  1
  Sn  Sn2  1  0.67892900  0.12088200  0.71021200  1
  Sn  Sn3  1  0.87582100  0.44656900  0.69268100  1
  Sn  Sn4  1  0.13870100  0.10517400  0.25753400  1
  Sn  Sn5  1  0.62417900  0.44656900  0.19268100  1
  Sn  Sn6  1  0.03576000  0.14446100  0.67475700  1
  Sn  Sn7  1  0.36129900  0.10517400  0.75753400  1
  Sn  Sn8  1  0.12417900  0.55343100  0.30731900  1
  Sn  Sn9  1  0.46424000  0.14446100  0.17475700  1
  Sn  Sn10  1  0.37582100  0.55343100  0.80731900  1
  Sn  Sn11  1  0.17892900  0.87911800  0.78978800  1
  Sn  Sn12  1  0.96424000  0.85553900  0.32524300  1
  Sn  Sn13  1  0.82107100  0.12088200  0.21021200  1
  Sn  Sn14  1  0.86129900  0.89482600  0.74246600  1
  Sn  Sn15  1  0.32107100  0.87911800  0.28978800  1
  Se  Se0  1  0.71659400  0.45354500  0.66386400  1
  Se  Se1  1  0.97843700  0.52721800  0.33718400  1
  Se  Se2  1  0.93946300  0.11143900  0.13574100  1
  Se  Se3  1  0.13343900  0.92656400  0.14977400  1
  Se  Se4  1  0.12200800  0.46702500  0.14339200  1
  Se  Se5  1  0.55776900  0.04162400  0.08773400  1
  Se  Se6  1  0.24820400  0.06482500  0.36232500  1
  Se  Se7  1  0.21659400  0.54645500  0.83613600  1
  Se  Se8  1  0.56053700  0.11143900  0.63574100  1
  Se  Se9  1  0.63343900  0.07343600  0.35022600  1
  Se  Se10  1  0.94223100  0.04162400  0.58773400  1
  Se  Se11  1  0.47843700  0.47278200  0.16281600  1
  Se  Se12  1  0.28340600  0.54645500  0.33613600  1
  Se  Se13  1  0.36656100  0.92656400  0.64977400  1
  Se  Se14  1  0.85022000  0.88900000  0.40225900  1
  Se  Se15  1  0.06053700  0.88856100  0.86425900  1
  Se  Se16  1  0.44223100  0.95837600  0.91226600  1
  Se  Se17  1  0.74820400  0.93517500  0.13767500  1
  Se  Se18  1  0.52156300  0.52721800  0.83718400  1
  Se  Se19  1  0.14978000  0.11100000  0.59774100  1
  Se  Se20  1  0.64978000  0.88900000  0.90225900  1
  Se  Se21  1  0.02156300  0.47278200  0.66281600  1
  Se  Se22  1  0.43946300  0.88856100  0.36425900  1
  Se  Se23  1  0.05776900  0.95837600  0.41226600  1
  Se  Se24  1  0.35022000  0.11100000  0.09774100  1
  Se  Se25  1  0.25179600  0.06482500  0.86232500  1
  Se  Se26  1  0.75179600  0.93517500  0.63767500  1
  Se  Se27  1  0.86656100  0.07343600  0.85022600  1
  Se  Se28  1  0.78340600  0.45354500  0.16386400  1
  Se  Se29  1  0.37799200  0.46702500  0.64339200  1
  Se  Se30  1  0.87799200  0.53297500  0.85660800  1
  Se  Se31  1  0.62200800  0.53297500  0.35660800  1
loop_
_geom_bond_atom_site_label_1
_geom_bond_atom_site_label_2
_geom_bond_distance
_geom_bond_site_symmetry_2
Rb0 Se18 3.477683 1_555
Rb0 Se0 3.510947 1_555
Rb0 Se22 3.705454 1_555
Rb0 Se9 3.737487 1_565
Rb0 Se29 3.873669 1_555
Rb0 Se8 3.931956 1_565
Rb0 Se8 3.989052 1_555
Rb0 Se31 4.048976 1_555
Rb1 Se11 3.477683 1_555
Rb1 Se12 3.510947 1_555
Rb1 Se8 3.705454 1_555
Rb1 Se13 3.737487 1_545
Rb1 Se31 3.873669 1_555
Rb1 Se22 3.931956 1_545
Rb1 Se22 3.989052 1_555
Rb1 Se29 4.048976 1_555
Rb2 Se7 3.566745 1_555
Rb2 Se29 3.697750 1_555
Rb2 Se21 3.738353 1_555
Rb2 Se6 3.758433 1_565
Rb2 Se19 3.775686 1_555
Rb2 Se23 4.004024 1_555
Rb3 Se0 3.566745 1_555
Rb3 Se30 3.697750 1_555
Rb3 Se18 3.738353 1_555
Rb3 Se17 3.758433 1_546
Rb3 Se20 3.775686 1_555
Rb3 Se5 4.004024 1_556
Rb4 Se12 3.566745 1_555
Rb4 Se4 3.697750 1_555
Rb4 Se11 3.738353 1_555
Rb4 Se25 3.758433 1_564
Rb4 Se24 3.775686 1_555
Rb4 Se16 4.004024 1_554
Rb5 Se1 3.477683 1_555
Rb5 Se28 3.510947 1_555
Rb5 Se15 3.705454 1_654
Rb5 Se27 3.737487 1_564
Rb5 Se4 3.873669 1_655
Rb5 Se2 3.931956 1_565
Rb5 Se2 3.989052 1_555
Rb5 Se30 4.048976 1_554
Rb6 Se28 3.566745 1_555
Rb6 Se31 3.697750 1_555
Rb6 Se1 3.738353 1_555
Rb6 Se26 3.758433 1_545
Rb6 Se14 3.775686 1_555
Rb6 Se10 4.004024 1_555
Rb7 Se21 3.477683 1_555
Rb7 Se7 3.510947 1_555
Rb7 Se2 3.705454 1_456
Rb7 Se3 3.737487 1_546
Rb7 Se30 3.873669 1_455
Rb7 Se15 3.931956 1_545
Rb7 Se15 3.989052 1_555
Rb7 Se4 4.048976 1_556
Se0 Sn2 2.477365 1_555
Se0 Sn3 3.216851 1_555
Se1 Sn12 2.499061 1_555
Se1 Sn8 2.947307 1_655
Se2 Sn12 2.614359 1_545
Se2 Sn13 2.626176 1_555
Se3 Sn4 2.537219 1_565
Se3 Sn8 2.766723 1_555
Se4 Sn4 2.556077 1_555
Se4 Sn8 2.770479 1_555
Se5 Sn1 2.585755 1_545
Se5 Sn9 2.590276 1_555
Se6 Sn15 2.599458 1_545
Se6 Sn4 2.612079 1_555
Se7 Sn11 2.477365 1_555
Se7 Sn10 3.216851 1_555
Se8 Sn0 2.614359 1_545
Se8 Sn2 2.626176 1_555
Se9 Sn1 2.537219 1_545
Se9 Sn5 2.766723 1_555
Se10 Sn14 2.585755 1_545
Se10 Sn6 2.590276 1_655
Se11 Sn9 2.499061 1_555
Se11 Sn5 2.947307 1_555
Se12 Sn15 2.477365 1_555
Se12 Sn8 3.216851 1_555
Se13 Sn7 2.537219 1_565
Se13 Sn10 2.766723 1_555
Se14 Sn12 2.613223 1_555
Se14 Sn13 2.615224 1_565
Se15 Sn6 2.614359 1_565
Se15 Sn11 2.626176 1_555
Se16 Sn7 2.585755 1_565
Se16 Sn0 2.590276 1_555
Se17 Sn13 2.599458 1_565
Se17 Sn1 2.612079 1_555
Se18 Sn0 2.499061 1_555
Se18 Sn10 2.947307 1_555
Se19 Sn6 2.613223 1_555
Se19 Sn11 2.615224 1_545
Se20 Sn0 2.613223 1_555
Se20 Sn2 2.615224 1_565
Se21 Sn6 2.499061 1_555
Se21 Sn3 2.947307 1_455
Se22 Sn9 2.614359 1_565
Se22 Sn15 2.626176 1_555
Se23 Sn4 2.585755 1_565
Se23 Sn12 2.590276 1_455
Se24 Sn9 2.613223 1_555
Se24 Sn15 2.615224 1_545
Se25 Sn11 2.599458 1_545
Se25 Sn7 2.612079 1_555
Se26 Sn2 2.599458 1_565
Se26 Sn14 2.612079 1_555
Se27 Sn14 2.537219 1_545
Se27 Sn3 2.766723 1_555
Se28 Sn13 2.477365 1_555
Se28 Sn5 3.216851 1_555
Se29 Sn7 2.556077 1_555
Se29 Sn10 2.770479 1_555
Se30 Sn14 2.556077 1_555
Se30 Sn3 2.770479 1_555
Se31 Sn1 2.556077 1_555
Se31 Sn5 2.770479 1_555
