# generated using pymatgen
data_U2SN2
_symmetry_space_group_name_H-M   'P 1'
_cell_length_a   3.82002110
_cell_length_b   3.82002110
_cell_length_c   6.71359940
_cell_angle_alpha   90.00000000
_cell_angle_beta   90.00000000
_cell_angle_gamma   120.00000892
_symmetry_Int_Tables_number   1
_chemical_formula_structural   U2SN2
_chemical_formula_sum   'U2 S1 N2'
_cell_volume   84.84329731
_cell_formula_units_Z   1
loop_
 _symmetry_equiv_pos_site_id
 _symmetry_equiv_pos_as_xyz
  1  'x, y, z'
loop_
 _atom_site_type_symbol
 _atom_site_label
 _atom_site_symmetry_multiplicity
 _atom_site_fract_x
 _atom_site_fract_y
 _atom_site_fract_z
 _atom_site_occupancy
  U  U0  1  0.66666700  0.33333300  0.71249910  1
  U  U1  1  0.33333300  0.66666700  0.28750090  1
  S  S0  1  0.00000000  -0.00000000  0.00000000  1
  N  N0  1  0.33333300  0.66666700  0.63091112  1
  N  N1  1  0.66666700  0.33333300  0.36908888  1
loop_
_geom_bond_atom_site_label_1
_geom_bond_atom_site_label_2
_geom_bond_distance
_geom_bond_site_symmetry_2
S0 U1 2.930822 1_545
S0 U0 2.930822 1_454
S0 U0 2.930824 1_444
S0 U1 2.930824 1_445
S0 U1 2.930824 1_555
S0 U0 2.930824 1_554
N0 U0 2.272489 1_455
N0 U0 2.272489 1_565
N0 U0 2.272496 1_555
N0 U1 2.305519 1_555
N1 U1 2.272489 1_545
N1 U1 2.272489 1_655
N1 U1 2.272496 1_555
N1 U0 2.305519 1_555
