# generated using pymatgen
data_MnFeH4O2F5
_symmetry_space_group_name_H-M   'P 1'
_cell_length_a   6.67308749
_cell_length_b   7.53931157
_cell_length_c   7.53923549
_cell_angle_alpha   61.21129373
_cell_angle_beta   63.73850768
_cell_angle_gamma   63.73605697
_symmetry_Int_Tables_number   1
_chemical_formula_structural   MnFeH4O2F5
_chemical_formula_sum   'Mn2 Fe2 H8 O4 F10'
_cell_volume   285.12649806
_cell_formula_units_Z   2
loop_
 _symmetry_equiv_pos_site_id
 _symmetry_equiv_pos_as_xyz
  1  'x, y, z'
loop_
 _atom_site_type_symbol
 _atom_site_label
 _atom_site_symmetry_multiplicity
 _atom_site_fract_x
 _atom_site_fract_y
 _atom_site_fract_z
 _atom_site_occupancy
  Mn  Mn0  1  0.99979100  0.99991000  0.99972300  1
  Mn  Mn1  1  0.50042700  0.50028100  0.50015900  1
  Fe  Fe0  1  0.50027900  0.99976100  0.50017900  1
  Fe  Fe1  1  0.49990900  0.49967900  0.00044900  1
  H  H0  1  0.29170200  0.98895300  0.19389800  1
  H  H1  1  0.97647100  0.51089600  0.30563100  1
  H  H2  1  0.70808600  0.80605700  0.01094600  1
  H  H3  1  0.02397000  0.69406900  0.48919100  1
  H  H4  1  0.70807800  0.01102700  0.80596500  1
  H  H5  1  0.02381400  0.48913900  0.69417100  1
  H  H6  1  0.29171400  0.19401300  0.98886500  1
  H  H7  1  0.97638700  0.30585200  0.51071500  1
  O  O0  1  0.23308400  0.06966400  0.06947100  1
  O  O1  1  0.87422800  0.43035800  0.43009700  1
  O  O2  1  0.76659000  0.93047700  0.93038900  1
  O  O3  1  0.12624600  0.56972400  0.56985600  1
  F  F0  1  0.42977300  0.24814800  0.24833600  1
  F  F1  1  0.57001000  0.75172400  0.75185300  1
  F  F2  1  0.42436200  0.83523100  0.41452700  1
  F  F3  1  0.17486200  0.66459800  0.08620800  1
  F  F4  1  0.57531900  0.58557400  0.16498400  1
  F  F5  1  0.82509900  0.91375700  0.33534300  1
  F  F6  1  0.57534000  0.16498300  0.58552600  1
  F  F7  1  0.82501800  0.33541100  0.91375300  1
  F  F8  1  0.42450800  0.41451000  0.83522300  1
  F  F9  1  0.17493300  0.08620400  0.66454200  1
loop_
_geom_bond_atom_site_label_1
_geom_bond_atom_site_label_2
_geom_bond_distance
_geom_bond_site_symmetry_2
Mn0 O2 2.161780 1_555
Mn0 O0 2.166107 1_666
Mn1 O1 2.171966 1_555
Mn1 O3 2.175286 1_555
H0 O0 0.983644 1_565
H1 O1 0.982868 1_555
H2 O2 0.983236 1_554
H3 O3 0.983075 1_555
H4 O2 0.983260 1_545
H5 O3 0.983325 1_555
H6 O0 0.983244 1_556
H7 O1 0.982908 1_555
F0 Fe1 1.976335 1_555
F0 Fe0 1.979757 1_545
F1 Fe0 1.976727 1_555
F1 Fe1 1.980664 1_556
F2 Fe0 1.956909 1_555
F2 Mn1 2.153335 1_555
F3 Fe1 1.953269 1_555
F3 Mn0 2.157209 1_454
F4 Fe1 1.955988 1_555
F4 Mn1 2.156517 1_555
F5 Fe0 1.952339 1_555
F5 Mn0 2.158749 1_554
F6 Fe0 1.956013 1_545
F6 Mn1 2.157259 1_555
F7 Fe1 1.953100 1_556
F7 Mn0 2.158114 1_545
F8 Fe1 1.956575 1_556
F8 Mn1 2.154112 1_555
F9 Fe0 1.954136 1_545
F9 Mn0 2.156585 1_445
