# generated using pymatgen
data_La2Zr2O7
_symmetry_space_group_name_H-M   'P 1'
_cell_length_a   7.60194378
_cell_length_b   7.60194378
_cell_length_c   7.60194378
_cell_angle_alpha   60.00000000
_cell_angle_beta   60.00000000
_cell_angle_gamma   60.00000000
_symmetry_Int_Tables_number   1
_chemical_formula_structural   La2Zr2O7
_chemical_formula_sum   'La4 Zr4 O14'
_cell_volume   310.64113424
_cell_formula_units_Z   2
loop_
 _symmetry_equiv_pos_site_id
 _symmetry_equiv_pos_as_xyz
  1  'x, y, z'
loop_
 _atom_site_type_symbol
 _atom_site_label
 _atom_site_symmetry_multiplicity
 _atom_site_fract_x
 _atom_site_fract_y
 _atom_site_fract_z
 _atom_site_occupancy
  La  La0  1  0.12500000  0.12500000  0.62500000  1
  La  La1  1  0.12500000  0.12500000  0.12500000  1
  La  La2  1  0.62500000  0.12500000  0.12500000  1
  La  La3  1  0.12500000  0.62500000  0.12500000  1
  Zr  Zr0  1  0.62500000  0.62500000  0.62500000  1
  Zr  Zr1  1  0.12500000  0.62500000  0.62500000  1
  Zr  Zr2  1  0.62500000  0.12500000  0.62500000  1
  Zr  Zr3  1  0.62500000  0.62500000  0.12500000  1
  O  O0  1  0.50835000  0.99165000  0.99165000  1
  O  O1  1  0.25835000  0.74165000  0.74165000  1
  O  O2  1  0.99165000  0.99165000  0.50835000  1
  O  O3  1  0.50835000  0.50835000  0.99165000  1
  O  O4  1  0.74165000  0.74165000  0.25835000  1
  O  O5  1  0.99165000  0.50835000  0.50835000  1
  O  O6  1  0.75000000  0.75000000  0.75000000  1
  O  O7  1  0.25835000  0.25835000  0.74165000  1
  O  O8  1  0.50835000  0.99165000  0.50835000  1
  O  O9  1  0.74165000  0.25835000  0.74165000  1
  O  O10  1  0.74165000  0.25835000  0.25835000  1
  O  O11  1  0.25835000  0.74165000  0.25835000  1
  O  O12  1  0.50000000  0.50000000  0.50000000  1
  O  O13  1  0.99165000  0.50835000  0.99165000  1
loop_
_geom_bond_atom_site_label_1
_geom_bond_atom_site_label_2
_geom_bond_distance
_geom_bond_site_symmetry_2
La0 O2 2.380567 1_445
La0 O9 2.380567 1_455
La0 O1 2.380567 1_545
La0 O5 2.380567 1_455
La0 O8 2.380567 1_545
La0 O7 2.380567 1_555
La1 O10 2.380567 1_455
La1 O11 2.380567 1_545
La1 O7 2.380567 1_554
La1 O2 2.380567 1_445
La1 O13 2.380567 1_454
La1 O0 2.380567 1_544
La2 O0 2.380567 1_544
La2 O9 2.380567 1_554
La2 O4 2.380567 1_545
La2 O10 2.380567 1_555
La2 O3 2.380567 1_554
La2 O8 2.380567 1_545
La3 O13 2.380567 1_454
La3 O4 2.380567 1_455
La3 O1 2.380567 1_554
La3 O3 2.380567 1_554
La3 O5 2.380567 1_455
La3 O11 2.380567 1_555
O0 Zr3 2.276962 1_556
O0 Zr2 2.276962 1_565
O1 Zr0 2.276962 1_555
O1 Zr1 2.276962 1_555
O2 Zr2 2.276962 1_565
O2 Zr1 2.276962 1_655
O3 Zr3 2.276962 1_556
O3 Zr0 2.276962 1_555
O4 Zr0 2.276962 1_555
O4 Zr3 2.276962 1_555
O5 Zr1 2.276962 1_655
O5 Zr0 2.276962 1_555
O6 Zr3 2.327610 1_556
O6 Zr2 2.327610 1_565
O6 Zr1 2.327610 1_655
O6 Zr0 2.327610 1_555
O7 Zr1 2.276962 1_555
O7 Zr2 2.276962 1_555
O8 Zr2 2.276962 1_565
O8 Zr0 2.276962 1_555
O9 Zr0 2.276962 1_555
O9 Zr2 2.276962 1_555
O10 Zr3 2.276962 1_555
O10 Zr2 2.276962 1_555
O11 Zr3 2.276962 1_555
O11 Zr1 2.276962 1_555
O12 Zr1 2.327610 1_555
O12 Zr2 2.327610 1_555
O12 Zr3 2.327610 1_555
O12 Zr0 2.327610 1_555
O13 Zr3 2.276962 1_556
O13 Zr1 2.276962 1_655
