# generated using pymatgen
data_AgTeO3
_symmetry_space_group_name_H-M   'P 1'
_cell_length_a   6.92440761
_cell_length_b   6.51862949
_cell_length_c   13.29551785
_cell_angle_alpha   88.99666929
_cell_angle_beta   90.00000000
_cell_angle_gamma   90.00000000
_symmetry_Int_Tables_number   1
_chemical_formula_structural   AgTeO3
_chemical_formula_sum   'Ag8 Te8 O24'
_cell_volume   600.03638801
_cell_formula_units_Z   8
loop_
 _symmetry_equiv_pos_site_id
 _symmetry_equiv_pos_as_xyz
  1  'x, y, z'
loop_
 _atom_site_type_symbol
 _atom_site_label
 _atom_site_symmetry_multiplicity
 _atom_site_fract_x
 _atom_site_fract_y
 _atom_site_fract_z
 _atom_site_occupancy
  Ag  Ag0  1  0.17091818  0.48242182  0.92696000  1
  Ag  Ag1  1  0.32908182  0.48242182  0.42696000  1
  Ag  Ag2  1  0.45307570  0.52880807  0.18969229  1
  Ag  Ag3  1  0.67091818  0.51757818  0.57304000  1
  Ag  Ag4  1  0.54692430  0.47119193  0.81030771  1
  Ag  Ag5  1  0.04692430  0.52880807  0.68969229  1
  Ag  Ag6  1  0.82908182  0.51757818  0.07304000  1
  Ag  Ag7  1  0.95307570  0.47119193  0.31030771  1
  Te  Te0  1  0.13700132  0.99395852  0.41048967  1
  Te  Te1  1  0.84348838  0.86611856  0.85655375  1
  Te  Te2  1  0.65651162  0.86611856  0.35655375  1
  Te  Te3  1  0.36299868  0.99395852  0.91048967  1
  Te  Te4  1  0.34348838  0.13388144  0.64344625  1
  Te  Te5  1  0.63700132  0.00604148  0.08951033  1
  Te  Te6  1  0.86299868  0.00604148  0.58951033  1
  Te  Te7  1  0.15651162  0.13388144  0.14344625  1
  O  O0  1  0.91875445  0.15990148  0.46434380  1
  O  O1  1  0.68299883  0.83977387  0.51447594  1
  O  O2  1  0.08124555  0.84009852  0.53565620  1
  O  O3  1  0.64776646  0.58153980  0.35951692  1
  O  O4  1  0.85223354  0.58153980  0.85951692  1
  O  O5  1  0.34555200  0.19083111  0.80374831  1
  O  O6  1  0.66993542  0.19123323  0.63019723  1
  O  O7  1  0.33006458  0.80876677  0.36980277  1
  O  O8  1  0.05251395  0.16594444  0.66112280  1
  O  O9  1  0.65444800  0.80916889  0.19625169  1
  O  O10  1  0.55251395  0.83405556  0.83887720  1
  O  O11  1  0.44748605  0.16594444  0.16112280  1
  O  O12  1  0.84555200  0.80916889  0.69625169  1
  O  O13  1  0.14776646  0.41846020  0.14048308  1
  O  O14  1  0.41875445  0.84009852  0.03565620  1
  O  O15  1  0.18299883  0.16022613  0.98552406  1
  O  O16  1  0.81700117  0.83977387  0.01447594  1
  O  O17  1  0.83006458  0.19123323  0.13019723  1
  O  O18  1  0.94748605  0.83405556  0.33887720  1
  O  O19  1  0.15444800  0.19083111  0.30374831  1
  O  O20  1  0.31700117  0.16022613  0.48552406  1
  O  O21  1  0.35223354  0.41846020  0.64048308  1
  O  O22  1  0.16993542  0.80876677  0.86980277  1
  O  O23  1  0.58124555  0.15990148  0.96434380  1
loop_
_geom_bond_atom_site_label_1
_geom_bond_atom_site_label_2
_geom_bond_distance
_geom_bond_site_symmetry_2
Ag0 O15 2.228712 1_555
Ag0 O22 2.246426 1_555
Ag0 O4 2.463892 1_455
Ag1 O20 2.228712 1_555
Ag1 O7 2.246426 1_555
Ag1 O3 2.463892 1_555
Ag2 O9 2.301630 1_555
Ag2 O13 2.330518 1_555
Ag2 O11 2.402548 1_555
Ag2 O3 2.657236 1_555
Ag3 O1 2.228712 1_555
Ag3 O6 2.246426 1_555
Ag3 O21 2.463892 1_555
Ag4 O5 2.301630 1_555
Ag4 O4 2.330518 1_555
Ag4 O10 2.402548 1_555
Ag4 O21 2.657236 1_555
Ag5 O12 2.301630 1_455
Ag5 O21 2.330518 1_555
Ag5 O8 2.402548 1_555
Ag5 O4 2.657236 1_455
Ag6 O16 2.228712 1_555
Ag6 O17 2.246426 1_555
Ag6 O13 2.463892 1_655
Ag7 O19 2.301630 1_655
Ag7 O3 2.330518 1_555
Ag7 O18 2.402548 1_555
Ag7 O13 2.657236 1_655
O0 Te6 1.966197 1_555
O0 Te0 1.998435 1_645
O1 Te6 1.939410 1_565
O1 Te2 2.111649 1_555
O2 Te0 1.966197 1_555
O2 Te6 1.998435 1_465
O3 Te2 1.855780 1_555
O4 Te1 1.855780 1_555
O5 Te3 1.900486 1_545
O5 Te4 2.169830 1_555
O6 Te6 1.886793 1_555
O6 Te4 2.297419 1_555
O7 Te0 1.886793 1_555
O7 Te2 2.297419 1_555
O8 Te6 1.936458 1_455
O8 Te4 2.039647 1_555
O9 Te5 1.900486 1_565
O9 Te2 2.169830 1_555
O10 Te3 1.936458 1_555
O10 Te1 2.039647 1_555
O11 Te5 1.936458 1_555
O11 Te7 2.039647 1_555
O12 Te6 1.900486 1_565
O12 Te1 2.169830 1_555
O13 Te7 1.855780 1_555
O14 Te3 1.966197 1_554
O14 Te5 1.998435 1_565
O15 Te3 1.939410 1_545
O15 Te7 2.111649 1_556
O16 Te5 1.939410 1_565
O16 Te1 2.111649 1_554
O17 Te5 1.886793 1_555
O17 Te7 2.297419 1_655
O18 Te0 1.936458 1_655
O18 Te2 2.039647 1_555
O19 Te0 1.900486 1_545
O19 Te7 2.169830 1_555
O20 Te0 1.939410 1_545
O20 Te4 2.111649 1_555
O21 Te4 1.855780 1_555
O22 Te3 1.886793 1_555
O22 Te1 2.297419 1_455
O23 Te5 1.966197 1_556
O23 Te3 1.998435 1_545
