# generated using pymatgen
data_K(WCl3)3
_symmetry_space_group_name_H-M   'P 1'
_cell_length_a   9.33559102
_cell_length_b   9.33570453
_cell_length_c   8.57144878
_cell_angle_alpha   89.80899799
_cell_angle_beta   89.80960549
_cell_angle_gamma   119.94197812
_symmetry_Int_Tables_number   1
_chemical_formula_structural   K(WCl3)3
_chemical_formula_sum   'K2 W6 Cl18'
_cell_volume   647.31816913
_cell_formula_units_Z   2
loop_
 _symmetry_equiv_pos_site_id
 _symmetry_equiv_pos_as_xyz
  1  'x, y, z'
loop_
 _atom_site_type_symbol
 _atom_site_label
 _atom_site_symmetry_multiplicity
 _atom_site_fract_x
 _atom_site_fract_y
 _atom_site_fract_z
 _atom_site_occupancy
  K  K0  1  0.33351816  0.66647101  0.49978210  1
  K  K1  1  0.66652572  0.33332474  0.50013841  1
  W  W0  1  0.81999111  0.81999212  0.86140527  1
  W  W1  1  0.18102276  0.00034395  0.86034423  1
  W  W2  1  0.81893679  0.99963982  0.13957643  1
  W  W3  1  0.18005251  0.17996512  0.13859315  1
  W  W4  1  0.00043893  0.18109966  0.86042732  1
  W  W5  1  0.99958133  0.81896027  0.13966923  1
  Cl  Cl0  1  0.39815151  0.00072054  0.69259143  1
  Cl  Cl1  1  0.60416054  0.60400513  0.69474826  1
  Cl  Cl2  1  0.41530425  0.20921465  0.99742090  1
  Cl  Cl3  1  0.79067849  0.58471077  0.00258407  1
  Cl  Cl4  1  0.20773290  0.79216185  0.00002807  1
  Cl  Cl5  1  0.58465994  0.79403788  -0.00009654  1
  Cl  Cl6  1  0.79473797  0.00121464  0.67883793  1
  Cl  Cl7  1  0.20815152  0.99879103  0.31904767  1
  Cl  Cl8  1  0.99910939  0.60178562  0.30743090  1
  Cl  Cl9  1  0.60187469  0.99926864  0.30728379  1
  Cl  Cl10  1  0.00086322  0.39816968  0.69270741  1
  Cl  Cl11  1  0.39610401  0.39577527  0.30522501  1
  Cl  Cl12  1  0.00114147  0.79179244  0.68098572  1
  Cl  Cl13  1  0.20611408  0.41534157  1.00008628  1
  Cl  Cl14  1  0.79228947  0.20791247  0.00002009  1
  Cl  Cl15  1  0.20851578  0.20846599  0.67839312  1
  Cl  Cl16  1  0.99887380  0.20531776  0.32116903  1
  Cl  Cl17  1  0.79146967  0.79151736  0.32160071  1
loop_
_geom_bond_atom_site_label_1
_geom_bond_atom_site_label_2
_geom_bond_distance
_geom_bond_site_symmetry_2
Cl0 W1 2.479887 1_555
Cl0 K1 3.288223 1_555
Cl0 K0 3.315728 1_545
Cl1 W0 2.479696 1_555
Cl1 K1 3.316249 1_555
Cl1 K0 3.317972 1_555
Cl2 W1 2.396133 1_555
Cl2 W3 2.396585 1_556
Cl3 W5 2.396132 1_555
Cl3 W0 2.396661 1_554
Cl4 W5 2.396490 1_455
Cl4 W1 2.396504 1_564
Cl5 W2 2.396467 1_555
Cl5 W0 2.396656 1_554
Cl6 W4 2.397623 1_655
Cl6 W0 2.397846 1_545
Cl7 W5 2.397447 1_455
Cl7 W3 2.397962 1_565
Cl8 W5 2.479924 1_555
Cl8 K1 3.289423 1_555
Cl8 K0 3.314838 1_655
Cl9 W2 2.479175 1_555
Cl9 K0 3.289384 1_555
Cl9 K1 3.314337 1_565
Cl10 W4 2.479103 1_555
Cl10 K0 3.290294 1_555
Cl10 K1 3.314781 1_455
Cl11 W3 2.479739 1_555
Cl11 K1 3.315911 1_555
Cl11 K0 3.317285 1_555
Cl12 W1 2.397402 1_565
Cl12 W0 2.398037 1_455
Cl13 W4 2.396483 1_555
Cl13 W3 2.396713 1_556
Cl14 W4 2.396336 1_654
Cl14 W2 2.396390 1_545
Cl15 W1 2.398462 1_555
Cl15 W4 2.398952 1_555
Cl16 W2 2.397697 1_545
Cl16 W3 2.398006 1_655
Cl17 W5 2.398413 1_555
Cl17 W2 2.398943 1_555
