# generated using pymatgen
data_SnH16C4(Br3N)2
_symmetry_space_group_name_H-M   'P 1'
_cell_length_a   7.74246800
_cell_length_b   7.77723600
_cell_length_c   15.13976000
_cell_angle_alpha   90.00000000
_cell_angle_beta   90.00000000
_cell_angle_gamma   90.00000000
_symmetry_Int_Tables_number   1
_chemical_formula_structural   SnH16C4(Br3N)2
_chemical_formula_sum   'Sn2 H32 C8 Br12 N4'
_cell_volume   911.64066140
_cell_formula_units_Z   2
loop_
 _symmetry_equiv_pos_site_id
 _symmetry_equiv_pos_as_xyz
  1  'x, y, z'
loop_
 _atom_site_type_symbol
 _atom_site_label
 _atom_site_symmetry_multiplicity
 _atom_site_fract_x
 _atom_site_fract_y
 _atom_site_fract_z
 _atom_site_occupancy
  Sn  Sn0  1  0.50000000  0.50000000  0.50000000  1
  Sn  Sn1  1  0.00000000  0.00000000  0.00000000  1
  H  H0  1  0.61552800  0.85442300  0.73906500  1
  H  H1  1  0.60632400  0.13843300  0.10047200  1
  H  H2  1  0.61552800  0.14557700  0.26093500  1
  H  H3  1  0.00000000  0.91903100  0.43203500  1
  H  H4  1  0.89367600  0.36156700  0.60047200  1
  H  H5  1  0.88400300  0.08136100  0.67054800  1
  H  H6  1  0.50000000  0.03707300  0.78187500  1
  H  H7  1  0.50000000  0.96292700  0.21812500  1
  H  H8  1  0.50000000  0.41903100  0.06796500  1
  H  H9  1  0.11599700  0.91863900  0.32945200  1
  H  H10  1  0.38400300  0.41863900  0.17054800  1
  H  H11  1  0.89367600  0.63843300  0.39952800  1
  H  H12  1  0.11552800  0.64557700  0.23906500  1
  H  H13  1  0.39367600  0.86156700  0.89952800  1
  H  H14  1  0.00000000  0.46292700  0.28187500  1
  H  H15  1  0.61599700  0.41863900  0.17054800  1
  H  H16  1  0.38447200  0.14557700  0.26093500  1
  H  H17  1  0.11599700  0.08136100  0.67054800  1
  H  H18  1  0.10632400  0.63843300  0.39952800  1
  H  H19  1  0.50000000  0.58096900  0.93203500  1
  H  H20  1  0.61599700  0.58136100  0.82945200  1
  H  H21  1  0.38447200  0.85442300  0.73906500  1
  H  H22  1  0.00000000  0.08096900  0.56796500  1
  H  H23  1  0.88447200  0.35442300  0.76093500  1
  H  H24  1  0.39367600  0.13843300  0.10047200  1
  H  H25  1  0.10632400  0.36156700  0.60047200  1
  H  H26  1  0.88400300  0.91863900  0.32945200  1
  H  H27  1  0.11552800  0.35442300  0.76093500  1
  H  H28  1  0.00000000  0.53707300  0.71812500  1
  H  H29  1  0.38400300  0.58136100  0.82945200  1
  H  H30  1  0.60632400  0.86156700  0.89952800  1
  H  H31  1  0.88447200  0.64557700  0.23906500  1
  C  C0  1  0.50000000  0.89711100  0.77455100  1
  C  C1  1  0.00000000  0.87370400  0.36369000  1
  C  C2  1  0.00000000  0.12629600  0.63631000  1
  C  C3  1  0.00000000  0.39711100  0.72544900  1
  C  C4  1  0.50000000  0.37370400  0.13631000  1
  C  C5  1  0.50000000  0.62629600  0.86369000  1
  C  C6  1  0.50000000  0.10288900  0.22544900  1
  C  C7  1  0.00000000  0.60288900  0.27455100  1
  Br  Br0  1  0.00000000  0.18327100  0.14789700  1
  Br  Br1  1  0.25302700  0.69947700  0.56593200  1
  Br  Br2  1  0.74697300  0.30052300  0.43406800  1
  Br  Br3  1  0.50000000  0.31672900  0.64789700  1
  Br  Br4  1  0.24697300  0.19947700  0.93406800  1
  Br  Br5  1  0.50000000  0.68327100  0.35210300  1
  Br  Br6  1  0.75302700  0.19947700  0.93406800  1
  Br  Br7  1  0.24697300  0.80052300  0.06593200  1
  Br  Br8  1  0.75302700  0.80052300  0.06593200  1
  Br  Br9  1  0.00000000  0.81672900  0.85210300  1
  Br  Br10  1  0.25302700  0.30052300  0.43406800  1
  Br  Br11  1  0.74697300  0.69947700  0.56593200  1
  N  N0  1  0.00000000  0.68187100  0.36435000  1
  N  N1  1  0.00000000  0.31812900  0.63565000  1
  N  N2  1  0.50000000  0.81812900  0.86435000  1
  N  N3  1  0.50000000  0.18187100  0.13565000  1
loop_
_geom_bond_atom_site_label_1
_geom_bond_atom_site_label_2
_geom_bond_distance
_geom_bond_site_symmetry_2
H1 N3 1.037039 1_555
H4 N1 1.037039 1_655
H11 N0 1.037039 1_655
H13 N2 1.037039 1_555
H18 N0 1.037039 1_555
H24 N3 1.037039 1_555
H25 N1 1.037039 1_555
H30 N2 1.037039 1_555
C0 H6 1.094151 1_565
C0 H0 1.094960 1_555
C0 H21 1.094960 1_555
C0 N2 1.491862 1_555
C1 H3 1.093128 1_555
C1 H9 1.094263 1_555
C1 H26 1.094263 1_455
C1 N0 1.491964 1_555
C2 H22 1.093128 1_555
C2 H5 1.094263 1_455
C2 H17 1.094263 1_555
C2 N1 1.491964 1_555
C3 H28 1.094151 1_555
C3 H23 1.094960 1_455
C3 H27 1.094960 1_555
C3 N1 1.491862 1_555
C4 H8 1.093128 1_555
C4 H15 1.094263 1_555
C4 H10 1.094263 1_555
C4 N3 1.491964 1_555
C5 H19 1.093128 1_555
C5 H20 1.094263 1_555
C5 H29 1.094263 1_555
C5 N2 1.491964 1_555
C6 H7 1.094151 1_545
C6 H2 1.094960 1_555
C6 H16 1.094960 1_555
C6 N3 1.491862 1_555
C7 H14 1.094151 1_555
C7 H31 1.094960 1_455
C7 H12 1.094960 1_555
C7 N0 1.491862 1_555
Br0 Sn1 2.654295 1_555
Br1 Sn0 2.656992 1_555
Br2 Sn0 2.656992 1_555
Br3 Sn0 2.654295 1_555
Br4 Sn1 2.656992 1_556
Br5 Sn0 2.654295 1_555
Br6 Sn1 2.656992 1_656
Br7 Sn1 2.656992 1_565
Br8 Sn1 2.656992 1_665
Br9 Sn1 2.654295 1_566
Br10 Sn0 2.656992 1_555
Br11 Sn0 2.656992 1_555
