# generated using pymatgen
data_CaAlB3O7
_symmetry_space_group_name_H-M   'P 1'
_cell_length_a   7.14232107
_cell_length_b   7.14232107
_cell_length_c   4.41193800
_cell_angle_alpha   90.00000000
_cell_angle_beta   90.00000000
_cell_angle_gamma   111.53086852
_symmetry_Int_Tables_number   1
_chemical_formula_structural   CaAlB3O7
_chemical_formula_sum   'Ca2 Al2 B6 O14'
_cell_volume   209.36004449
_cell_formula_units_Z   2
loop_
 _symmetry_equiv_pos_site_id
 _symmetry_equiv_pos_as_xyz
  1  'x, y, z'
loop_
 _atom_site_type_symbol
 _atom_site_label
 _atom_site_symmetry_multiplicity
 _atom_site_fract_x
 _atom_site_fract_y
 _atom_site_fract_z
 _atom_site_occupancy
  Ca  Ca0  1  0.00000000  0.50000000  0.00000000  1
  Ca  Ca1  1  0.50000000  0.00000000  0.00000000  1
  Al  Al0  1  0.50000000  0.50000000  0.00000000  1
  Al  Al1  1  0.00000000  0.00000000  0.00000000  1
  B  B0  1  0.86326100  0.13673900  0.45903900  1
  B  B1  1  0.36326100  0.63673900  0.54096100  1
  B  B2  1  0.25000000  0.25000000  0.50000000  1
  B  B3  1  0.63673900  0.36326100  0.45903900  1
  B  B4  1  0.13673900  0.86326100  0.54096100  1
  B  B5  1  0.75000000  0.75000000  0.50000000  1
  O  O0  1  0.13146900  0.86853100  0.22365000  1
  O  O1  1  0.63146900  0.36853100  0.77635000  1
  O  O2  1  0.28054200  0.42667100  0.69914700  1
  O  O3  1  0.57332900  0.71945800  0.69914700  1
  O  O4  1  0.21945800  0.07332900  0.69914700  1
  O  O5  1  0.71945800  0.57332900  0.30085300  1
  O  O6  1  0.92667100  0.78054200  0.69914700  1
  O  O7  1  0.86853100  0.13146900  0.77635000  1
  O  O8  1  0.42667100  0.28054200  0.30085300  1
  O  O9  1  0.75000000  0.25000000  0.32983000  1
  O  O10  1  0.25000000  0.75000000  0.67017000  1
  O  O11  1  0.78054200  0.92667100  0.30085300  1
  O  O12  1  0.07332900  0.21945800  0.30085300  1
  O  O13  1  0.36853100  0.63146900  0.22365000  1
loop_
_geom_bond_atom_site_label_1
_geom_bond_atom_site_label_2
_geom_bond_distance
_geom_bond_site_symmetry_2
Ca0 O10 2.480715 1_554
Ca0 O9 2.480715 1_455
Ca0 O12 2.611768 1_555
Ca0 O6 2.611768 1_454
Ca0 O2 2.611768 1_554
Ca0 O5 2.611768 1_455
Ca0 O0 2.639979 1_555
Ca0 O13 2.639979 1_555
Ca0 O7 2.639979 1_454
Ca0 O1 2.639979 1_454
Ca1 O9 2.480715 1_555
Ca1 O10 2.480715 1_544
Ca1 O4 2.611768 1_554
Ca1 O11 2.611768 1_545
Ca1 O8 2.611768 1_555
Ca1 O3 2.611768 1_544
Ca1 O7 2.639979 1_554
Ca1 O1 2.639979 1_554
Ca1 O0 2.639979 1_545
Ca1 O13 2.639979 1_545
Al0 O1 1.839629 1_554
Al0 O13 1.839629 1_555
Al0 O5 1.972422 1_555
Al0 O3 1.972422 1_554
Al0 O2 1.972422 1_554
Al0 O8 1.972422 1_555
Al1 O7 1.839629 1_454
Al1 O0 1.839629 1_545
Al1 O11 1.972422 1_445
Al1 O6 1.972422 1_444
Al1 O4 1.972422 1_554
Al1 O12 1.972422 1_555
B0 O7 1.401339 1_555
B0 O9 1.453990 1_555
B0 O12 1.560962 1_655
B0 O11 1.560962 1_545
B1 O13 1.401339 1_555
B1 O10 1.453990 1_555
B1 O3 1.560962 1_555
B1 O2 1.560962 1_555
B2 O2 1.486529 1_555
B2 O8 1.486529 1_555
B2 O4 1.486529 1_555
B2 O12 1.486529 1_555
B3 O1 1.401339 1_555
B3 O9 1.453990 1_555
B3 O5 1.560962 1_555
B3 O8 1.560962 1_555
B4 O0 1.401339 1_555
B4 O10 1.453990 1_555
B4 O4 1.560962 1_565
B4 O6 1.560962 1_455
B5 O6 1.486529 1_555
B5 O11 1.486529 1_555
B5 O5 1.486529 1_555
B5 O3 1.486529 1_555
