# generated using pymatgen
data_UTe4Br5
_symmetry_space_group_name_H-M   'P 1'
_cell_length_a   9.10822509
_cell_length_b   12.33334825
_cell_length_c   13.91476260
_cell_angle_alpha   81.12699755
_cell_angle_beta   76.54771545
_cell_angle_gamma   79.15316277
_symmetry_Int_Tables_number   1
_chemical_formula_structural   UTe4Br5
_chemical_formula_sum   'U4 Te16 Br20'
_cell_volume   1483.04899088
_cell_formula_units_Z   4
loop_
 _symmetry_equiv_pos_site_id
 _symmetry_equiv_pos_as_xyz
  1  'x, y, z'
loop_
 _atom_site_type_symbol
 _atom_site_label
 _atom_site_symmetry_multiplicity
 _atom_site_fract_x
 _atom_site_fract_y
 _atom_site_fract_z
 _atom_site_occupancy
  U  U0  1  0.41548385  0.71785388  0.23797841  1
  U  U1  1  0.58451615  0.28214612  0.76202159  1
  U  U2  1  0.87039487  0.80247138  0.30449368  1
  U  U3  1  0.12960513  0.19752862  0.69550632  1
  Te  Te0  1  0.26723110  0.32403685  0.11789858  1
  Te  Te1  1  0.73276890  0.67596315  0.88210142  1
  Te  Te2  1  0.12049035  0.39179716  0.30374164  1
  Te  Te3  1  0.87950965  0.60820284  0.69625836  1
  Te  Te4  1  0.95856313  0.22336605  0.37812949  1
  Te  Te5  1  0.04143687  0.77663395  0.62187051  1
  Te  Te6  1  0.72595451  0.35609181  0.29723038  1
  Te  Te7  1  0.27404549  0.64390819  0.70276962  1
  Te  Te8  1  0.83544930  0.32481357  0.09275128  1
  Te  Te9  1  0.16455070  0.67518643  0.90724872  1
  Te  Te10  1  0.08050852  0.17080475  0.11018428  1
  Te  Te11  1  0.91949148  0.82919525  0.88981572  1
  Te  Te12  1  0.49857823  0.20876328  0.36022465  1
  Te  Te13  1  0.50142177  0.79123672  0.63977535  1
  Te  Te14  1  0.49720973  0.15111785  0.18615551  1
  Te  Te15  1  0.50279027  0.84888215  0.81384449  1
  Br  Br0  1  0.49753088  0.51694420  0.14194267  1
  Br  Br1  1  0.50246912  0.48305580  0.85805733  1
  Br  Br2  1  0.37139555  0.58175093  0.41003395  1
  Br  Br3  1  0.62860445  0.41824907  0.58996605  1
  Br  Br4  1  0.45514661  0.86333769  0.06845463  1
  Br  Br5  1  0.54485339  0.13666231  0.93154537  1
  Br  Br6  1  0.85326759  0.97353529  0.15253266  1
  Br  Br7  1  0.14673241  0.02646471  0.84746734  1
  Br  Br8  1  0.87726193  0.61700945  0.43587146  1
  Br  Br9  1  0.12273807  0.38299055  0.56412854  1
  Br  Br10  1  0.79266399  0.92634989  0.46869546  1
  Br  Br11  1  0.20733601  0.07365011  0.53130454  1
  Br  Br12  1  0.53136340  0.85512389  0.34809606  1
  Br  Br13  1  0.46863660  0.14487611  0.65190394  1
  Br  Br14  1  0.15623250  0.87905503  0.31822121  1
  Br  Br15  1  0.84376750  0.12094497  0.68177879  1
  Br  Br16  1  0.75489998  0.67171927  0.18672024  1
  Br  Br17  1  0.24510002  0.32828073  0.81327976  1
  Br  Br18  1  0.13615054  0.68050173  0.17573559  1
  Br  Br19  1  0.86384946  0.31949827  0.82426441  1
loop_
_geom_bond_atom_site_label_1
_geom_bond_atom_site_label_2
_geom_bond_distance
_geom_bond_site_symmetry_2
Te0 Te2 2.794667 1_555
Te0 Te10 2.798704 1_555
Te0 Te14 2.908188 1_555
Te1 Te3 2.794667 1_555
Te1 Te11 2.798704 1_555
Te1 Te15 2.908188 1_555
Te2 Te4 2.709503 1_455
Te3 Te5 2.709503 1_655
Te4 Te6 2.769725 1_555
Te5 Te7 2.769725 1_555
Te6 Te8 2.848260 1_555
Te7 Te9 2.848260 1_555
Te10 Te8 2.676360 1_455
Te11 Te9 2.676360 1_655
Te12 Te14 2.630770 1_555
Te12 Te6 2.905064 1_555
Te13 Te15 2.630770 1_555
Te13 Te7 2.905064 1_555
Br0 U0 2.888606 1_555
Br1 U1 2.888606 1_555
Br2 U0 2.697663 1_555
Br3 U1 2.697663 1_555
Br4 U0 2.730593 1_555
Br5 U1 2.730593 1_555
Br6 U2 2.756819 1_555
Br6 Te10 3.381737 1_665
Br7 U3 2.756819 1_555
Br7 Te11 3.381737 1_445
Br8 U2 2.699495 1_555
Br9 U3 2.699495 1_555
Br10 U2 2.823670 1_555
Br11 U3 2.823670 1_555
Br12 U0 2.924602 1_555
Br12 U2 2.969935 1_555
Br13 U1 2.924602 1_555
Br13 U3 2.969935 1_555
Br14 U0 2.909717 1_555
Br14 U2 2.986512 1_455
Br15 U1 2.909717 1_555
Br15 U3 2.986512 1_655
Br16 U2 2.940845 1_555
Br16 U0 2.971018 1_555
Br17 U3 2.940845 1_555
Br17 U1 2.971018 1_555
Br18 U2 2.962296 1_455
Br18 U0 3.004149 1_555
Br19 U3 2.962296 1_655
Br19 U1 3.004149 1_555
