# generated using pymatgen
data_PNF2
_symmetry_space_group_name_H-M   'P 1'
_cell_length_a   14.95402200
_cell_length_b   7.62277900
_cell_length_c   12.11648789
_cell_angle_alpha   66.29266324
_cell_angle_beta   90.00000000
_cell_angle_gamma   90.00000000
_symmetry_Int_Tables_number   1
_chemical_formula_structural   PNF2
_chemical_formula_sum   'P20 N20 F40'
_cell_volume   1264.61740088
_cell_formula_units_Z   20
loop_
 _symmetry_equiv_pos_site_id
 _symmetry_equiv_pos_as_xyz
  1  'x, y, z'
loop_
 _atom_site_type_symbol
 _atom_site_label
 _atom_site_symmetry_multiplicity
 _atom_site_fract_x
 _atom_site_fract_y
 _atom_site_fract_z
 _atom_site_occupancy
  P  P0  1  0.63876300  0.53867400  0.05575600  1
  P  P1  1  0.76146100  0.01001800  0.17261400  1
  P  P2  1  0.56206400  0.40125600  0.29756100  1
  P  P3  1  0.39249700  0.98904100  0.67733600  1
  P  P4  1  0.43793600  0.59874400  0.70243900  1
  P  P5  1  0.26146100  0.98998200  0.32738600  1
  P  P6  1  0.06206400  0.59874400  0.20243900  1
  P  P7  1  0.93793600  0.40125600  0.79756100  1
  P  P8  1  0.10750300  0.98904100  0.17733600  1
  P  P9  1  0.15751700  0.76136100  0.53458900  1
  P  P10  1  0.65751700  0.23863900  0.96541100  1
  P  P11  1  0.34248300  0.76136100  0.03458900  1
  P  P12  1  0.23853900  0.98998200  0.82738600  1
  P  P13  1  0.60750300  0.01095900  0.32266400  1
  P  P14  1  0.36123700  0.46132600  0.94424400  1
  P  P15  1  0.13876300  0.46132600  0.44424400  1
  P  P16  1  0.73853900  0.01001800  0.67261400  1
  P  P17  1  0.86123700  0.53867400  0.55575600  1
  P  P18  1  0.89249700  0.01095900  0.82266400  1
  P  P19  1  0.84248300  0.23863900  0.46541100  1
  N  N0  1  0.27226300  0.91684200  0.96091000  1
  N  N1  1  0.88870400  0.37111900  0.51933300  1
  N  N2  1  0.29458300  0.96472400  0.72611300  1
  N  N3  1  0.77226300  0.08315800  0.53909000  1
  N  N4  1  0.10318500  0.45778800  0.32445000  1
  N  N5  1  0.60318500  0.54221200  0.17555000  1
  N  N6  1  0.44072600  0.82029800  0.66097700  1
  N  N7  1  0.79458300  0.03527600  0.77388700  1
  N  N8  1  0.39681500  0.45778800  0.82445000  1
  N  N9  1  0.38870400  0.62888100  0.98066700  1
  N  N10  1  0.55927400  0.17970200  0.33902300  1
  N  N11  1  0.89681500  0.54221200  0.67555000  1
  N  N12  1  0.72773700  0.08315800  0.03909000  1
  N  N13  1  0.61129600  0.37111900  0.01933300  1
  N  N14  1  0.05927400  0.82029800  0.16097700  1
  N  N15  1  0.70541700  0.03527600  0.27388700  1
  N  N16  1  0.20541700  0.96472400  0.22611300  1
  N  N17  1  0.11129600  0.62888100  0.48066700  1
  N  N18  1  0.22773700  0.91684200  0.46091000  1
  N  N19  1  0.94072600  0.17970200  0.83902300  1
  F  F0  1  0.14481700  0.90153200  0.82564100  1
  F  F1  1  0.11220000  0.26647100  0.54751600  1
  F  F2  1  0.53544400  0.53266600  0.69412200  1
  F  F3  1  0.61220000  0.73352900  0.95248400  1
  F  F4  1  0.60546200  0.45031200  0.39908900  1
  F  F5  1  0.39598800  0.16336300  0.55301300  1
  F  F6  1  0.70051600  0.35959700  0.84004900  1
  F  F7  1  0.10401200  0.16336300  0.05301300  1
  F  F8  1  0.46455600  0.46733400  0.30587800  1
  F  F9  1  0.25708300  0.43556100  0.94922100  1
  F  F10  1  0.95462200  0.93223700  0.74867200  1
  F  F11  1  0.71036600  0.79656400  0.71017500  1
  F  F12  1  0.10546200  0.54968800  0.10091100  1
  F  F13  1  0.28963400  0.20343600  0.28982500  1
  F  F14  1  0.08109900  0.86054000  0.57497600  1
  F  F15  1  0.60401200  0.83663700  0.44698700  1
  F  F16  1  0.58109900  0.13946000  0.92502400  1
  F  F17  1  0.29948400  0.64040300  0.15995100  1
  F  F18  1  0.91890100  0.13946000  0.42502400  1
  F  F19  1  0.35518300  0.90153200  0.32564100  1
  F  F20  1  0.38780000  0.26647100  0.04751600  1
  F  F21  1  0.04537800  0.06776300  0.25132800  1
  F  F22  1  0.89453800  0.45031200  0.89908900  1
  F  F23  1  0.21036600  0.20343600  0.78982500  1
  F  F24  1  0.54537800  0.93223700  0.24867200  1
  F  F25  1  0.96455600  0.53266600  0.19412200  1
  F  F26  1  0.78963400  0.79656400  0.21017500  1
  F  F27  1  0.89598800  0.83663700  0.94698700  1
  F  F28  1  0.39453800  0.54968800  0.60091100  1
  F  F29  1  0.75708300  0.56443900  0.55077900  1
  F  F30  1  0.20051600  0.64040300  0.65995100  1
  F  F31  1  0.74291700  0.56443900  0.05077900  1
  F  F32  1  0.24291700  0.43556100  0.44922100  1
  F  F33  1  0.88780000  0.73352900  0.45248400  1
  F  F34  1  0.85518300  0.09846800  0.17435900  1
  F  F35  1  0.03544400  0.46733400  0.80587800  1
  F  F36  1  0.45462200  0.06776300  0.75132800  1
  F  F37  1  0.64481700  0.09846800  0.67435900  1
  F  F38  1  0.79948400  0.35959700  0.34004900  1
  F  F39  1  0.41890100  0.86054000  0.07497600  1
loop_
_geom_bond_atom_site_label_1
_geom_bond_atom_site_label_2
_geom_bond_distance
_geom_bond_site_symmetry_2
N0 P11 1.566362 1_556
N0 P12 1.567565 1_555
N1 P17 1.564628 1_555
N1 P19 1.566841 1_555
N2 P12 1.560494 1_555
N2 P3 1.561877 1_555
N3 P19 1.566362 1_555
N3 P16 1.567565 1_555
N4 P15 1.556299 1_555
N4 P6 1.562312 1_555
N5 P0 1.556299 1_555
N5 P2 1.562312 1_555
N6 P3 1.555316 1_555
N6 P4 1.556954 1_555
N7 P16 1.560494 1_555
N7 P18 1.561877 1_555
N8 P14 1.556299 1_555
N8 P4 1.562312 1_555
N9 P14 1.564628 1_555
N9 P11 1.566841 1_556
N10 P13 1.555316 1_555
N10 P2 1.556954 1_555
N11 P17 1.556299 1_555
N11 P7 1.562312 1_555
N12 P10 1.566362 1_554
N12 P1 1.567565 1_555
N13 P0 1.564628 1_555
N13 P10 1.566841 1_554
N14 P8 1.555316 1_555
N14 P6 1.556954 1_555
N15 P1 1.560494 1_555
N15 P13 1.561877 1_555
N16 P5 1.560494 1_555
N16 P8 1.561877 1_555
N17 P15 1.564628 1_555
N17 P9 1.566841 1_555
N18 P9 1.566362 1_555
N18 P5 1.567565 1_555
N19 P18 1.555316 1_555
N19 P7 1.556954 1_555
F0 P12 1.559091 1_555
F1 P15 1.560512 1_555
F2 P4 1.559117 1_555
F3 P0 1.560512 1_556
F4 P2 1.563397 1_555
F5 P3 1.558201 1_545
F6 P10 1.563524 1_555
F7 P8 1.558201 1_545
F8 P2 1.559117 1_555
F9 P14 1.567979 1_555
F10 P18 1.568291 1_565
F11 P16 1.560976 1_565
F12 P6 1.563397 1_555
F13 P5 1.560976 1_545
F14 P9 1.553838 1_555
F15 P13 1.558201 1_565
F16 P10 1.553838 1_555
F17 P11 1.563524 1_555
F18 P19 1.553838 1_555
F19 P5 1.559091 1_555
F20 P14 1.560512 1_554
F21 P8 1.568291 1_545
F22 P7 1.563397 1_555
F23 P12 1.560976 1_545
F24 P13 1.568291 1_565
F25 P6 1.559117 1_655
F26 P1 1.560976 1_565
F27 P18 1.558201 1_565
F28 P4 1.563397 1_555
F29 P17 1.567979 1_555
F30 P9 1.563524 1_555
F31 P0 1.567979 1_555
F32 P15 1.567979 1_555
F33 P17 1.560512 1_555
F34 P1 1.559091 1_555
F35 P7 1.559117 1_455
F36 P3 1.568291 1_545
F37 P16 1.559091 1_555
F38 P19 1.563524 1_555
F39 P11 1.553838 1_555
