# generated using pymatgen
data_LiCu2Ge
_symmetry_space_group_name_H-M   'P 1'
_cell_length_a   4.12118344
_cell_length_b   4.12118369
_cell_length_c   4.12118333
_cell_angle_alpha   59.99999477
_cell_angle_beta   59.99999276
_cell_angle_gamma   59.99999255
_symmetry_Int_Tables_number   1
_chemical_formula_structural   LiCu2Ge
_chemical_formula_sum   'Li1 Cu2 Ge1'
_cell_volume   49.49379888
_cell_formula_units_Z   1
loop_
 _symmetry_equiv_pos_site_id
 _symmetry_equiv_pos_as_xyz
  1  'x, y, z'
loop_
 _atom_site_type_symbol
 _atom_site_label
 _atom_site_symmetry_multiplicity
 _atom_site_fract_x
 _atom_site_fract_y
 _atom_site_fract_z
 _atom_site_occupancy
  Li  Li0  1  0.50000000  0.50000000  0.50000000  1
  Cu  Cu0  1  0.25000000  0.25000000  0.25000000  1
  Cu  Cu1  1  0.75000000  0.75000000  0.75000000  1
  Ge  Ge0  1  0.00000000  -0.00000000  0.00000000  1
loop_
_geom_bond_atom_site_label_1
_geom_bond_atom_site_label_2
_geom_bond_distance
_geom_bond_site_symmetry_2
Cu0 Ge0 2.523699 1_556
Cu0 Li0 2.523699 1_554
Cu0 Li0 2.523699 1_455
Cu0 Ge0 2.523699 1_655
Cu0 Ge0 2.523699 1_565
Cu0 Li0 2.523699 1_545
Cu0 Ge0 2.523699 1_555
Cu0 Li0 2.523699 1_555
Cu1 Li0 2.523699 1_556
Cu1 Ge0 2.523699 1_665
Cu1 Ge0 2.523699 1_566
Cu1 Li0 2.523699 1_655
Cu1 Ge0 2.523699 1_656
Cu1 Li0 2.523699 1_565
Cu1 Li0 2.523699 1_555
Cu1 Ge0 2.523699 1_666
Ge0 Li0 2.914117 1_454
Ge0 Li0 2.914117 1_455
Ge0 Li0 2.914117 1_545
Ge0 Li0 2.914117 1_544
Ge0 Li0 2.914117 1_554
Ge0 Li0 2.914117 1_445
