# generated using pymatgen
data_Cu6Mo5O18
_symmetry_space_group_name_H-M   'P 1'
_cell_length_a   10.01742327
_cell_length_b   10.01742327
_cell_length_c   14.96913383
_cell_angle_alpha   54.29898573
_cell_angle_beta   54.29898573
_cell_angle_gamma   36.76681257
_symmetry_Int_Tables_number   1
_chemical_formula_structural   Cu6Mo5O18
_chemical_formula_sum   'Cu12 Mo10 O36'
_cell_volume   709.02194962
_cell_formula_units_Z   2
loop_
 _symmetry_equiv_pos_site_id
 _symmetry_equiv_pos_as_xyz
  1  'x, y, z'
loop_
 _atom_site_type_symbol
 _atom_site_label
 _atom_site_symmetry_multiplicity
 _atom_site_fract_x
 _atom_site_fract_y
 _atom_site_fract_z
 _atom_site_occupancy
  Cu  Cu0  1  0.24993200  0.51253900  0.66067200  1
  Cu  Cu1  1  0.48746100  0.75006800  0.83932800  1
  Cu  Cu2  1  0.75006800  0.48746100  0.33932800  1
  Cu  Cu3  1  0.51253900  0.24993200  0.16067200  1
  Cu  Cu4  1  0.28965200  0.39256400  0.41219500  1
  Cu  Cu5  1  0.60743600  0.71034800  0.08780500  1
  Cu  Cu6  1  0.71034800  0.60743600  0.58780500  1
  Cu  Cu7  1  0.39256400  0.28965200  0.91219500  1
  Cu  Cu8  1  0.09135400  0.33476500  0.64944900  1
  Cu  Cu9  1  0.66523500  0.90864600  0.85055100  1
  Cu  Cu10  1  0.33476500  0.09135400  0.14944900  1
  Cu  Cu11  1  0.90864600  0.66523500  0.35055100  1
  Mo  Mo0  1  0.84122800  0.17020600  0.90444800  1
  Mo  Mo1  1  0.82979400  0.15877200  0.59555200  1
  Mo  Mo2  1  0.15877200  0.82979400  0.09555200  1
  Mo  Mo3  1  0.17020600  0.84122800  0.40444800  1
  Mo  Mo4  1  0.04942100  0.30863800  0.90923500  1
  Mo  Mo5  1  0.69136200  0.95057900  0.59076500  1
  Mo  Mo6  1  0.95057900  0.69136200  0.09076500  1
  Mo  Mo7  1  0.30863800  0.04942100  0.40923500  1
  Mo  Mo8  1  0.81848900  0.18151100  0.25000000  1
  Mo  Mo9  1  0.18151100  0.81848900  0.75000000  1
  O  O0  1  0.16028600  0.99872100  0.25164200  1
  O  O1  1  0.00127900  0.83971400  0.24835800  1
  O  O2  1  0.83971400  0.00127900  0.74835800  1
  O  O3  1  0.99872100  0.16028600  0.75164200  1
  O  O4  1  0.58109500  0.29117200  0.90888900  1
  O  O5  1  0.70882800  0.41890500  0.59111100  1
  O  O6  1  0.41890500  0.70882800  0.09111100  1
  O  O7  1  0.29117200  0.58109500  0.40888900  1
  O  O8  1  0.56088600  0.27584800  0.26499200  1
  O  O9  1  0.72415200  0.43911400  0.23500800  1
  O  O10  1  0.43911400  0.72415200  0.73500800  1
  O  O11  1  0.27584800  0.56088600  0.76499200  1
  O  O12  1  0.00780300  0.83135100  0.57232800  1
  O  O13  1  0.16864900  0.99219700  0.92767200  1
  O  O14  1  0.99219700  0.16864900  0.42767200  1
  O  O15  1  0.83135100  0.00780300  0.07232800  1
  O  O16  1  0.85294400  0.67460400  0.57689000  1
  O  O17  1  0.32539600  0.14705600  0.92311000  1
  O  O18  1  0.14705600  0.32539600  0.42311000  1
  O  O19  1  0.67460400  0.85294400  0.07689000  1
  O  O20  1  0.85758900  0.57955800  0.93751400  1
  O  O21  1  0.42044200  0.14241100  0.56248600  1
  O  O22  1  0.11545400  0.37920500  0.75511000  1
  O  O23  1  0.62079500  0.88454600  0.74489000  1
  O  O24  1  0.88454600  0.62079500  0.24489000  1
  O  O25  1  0.37920500  0.11545400  0.25511000  1
  O  O26  1  0.41904200  0.75309100  0.40616900  1
  O  O27  1  0.24690900  0.58095800  0.09383100  1
  O  O28  1  0.58095800  0.24690900  0.59383100  1
  O  O29  1  0.75309100  0.41904200  0.90616900  1
  O  O30  1  0.96235400  0.16780700  0.08967700  1
  O  O31  1  0.83219300  0.03764600  0.41032300  1
  O  O32  1  0.03764600  0.83219300  0.91032300  1
  O  O33  1  0.16780700  0.96235400  0.58967700  1
  O  O34  1  0.57955800  0.85758900  0.43751400  1
  O  O35  1  0.14241100  0.42044200  0.06248600  1
loop_
_geom_bond_atom_site_label_1
_geom_bond_atom_site_label_2
_geom_bond_distance
_geom_bond_site_symmetry_2
Cu0 O22 2.013358 1_555
Cu0 O28 2.043458 1_555
Cu0 O12 2.057938 1_555
Cu0 O11 2.073104 1_555
Cu1 O23 2.013358 1_555
Cu1 O29 2.043458 1_555
Cu1 O13 2.057938 1_555
Cu1 O10 2.073104 1_555
Cu2 O24 2.013358 1_555
Cu2 O26 2.043458 1_555
Cu2 O14 2.057938 1_555
Cu2 O9 2.073104 1_555
Cu3 O25 2.013358 1_555
Cu3 O27 2.043458 1_555
Cu3 O15 2.057938 1_555
Cu3 O8 2.073104 1_555
Cu4 O7 1.872320 1_555
Cu4 O18 1.912866 1_555
Cu4 O8 2.129431 1_555
Cu4 O21 2.158153 1_555
Cu5 O6 1.872320 1_555
Cu5 O19 1.912866 1_555
Cu5 O9 2.129431 1_555
Cu5 O20 2.158153 1_554
Cu6 O5 1.872320 1_555
Cu6 O16 1.912866 1_555
Cu6 O10 2.129431 1_555
Cu6 O34 2.158153 1_555
Cu7 O4 1.872320 1_555
Cu7 O17 1.912866 1_555
Cu7 O11 2.129431 1_555
Cu7 O35 2.158153 1_556
Cu8 O21 2.004218 1_555
Cu8 O3 2.019245 1_455
Cu8 O16 2.039286 1_455
Cu8 O22 2.048832 1_555
Cu9 O20 2.004218 1_555
Cu9 O2 2.019245 1_565
Cu9 O17 2.039286 1_565
Cu9 O23 2.048832 1_555
Cu10 O35 2.004218 1_555
Cu10 O0 2.019245 1_545
Cu10 O19 2.039286 1_545
Cu10 O25 2.048832 1_555
Cu11 O34 2.004218 1_555
Cu11 O1 2.019245 1_655
Cu11 O18 2.039286 1_655
Cu11 O24 2.048832 1_555
Mo0 O4 1.759553 1_555
Mo0 O29 1.875118 1_555
Mo0 O3 1.879714 1_555
Mo0 O15 2.041540 1_556
Mo0 O32 2.127116 1_645
Mo0 O13 2.301128 1_645
Mo1 O5 1.759553 1_555
Mo1 O28 1.875118 1_555
Mo1 O2 1.879714 1_555
Mo1 O14 2.041540 1_555
Mo1 O33 2.127116 1_645
Mo1 O12 2.301128 1_645
Mo2 O6 1.759553 1_555
Mo2 O27 1.875118 1_555
Mo2 O1 1.879714 1_555
Mo2 O13 2.041540 1_554
Mo2 O30 2.127116 1_465
Mo2 O15 2.301128 1_465
Mo3 O7 1.759553 1_555
Mo3 O26 1.875118 1_555
Mo3 O0 1.879714 1_555
Mo3 O12 2.041540 1_555
Mo3 O31 2.127116 1_465
Mo3 O14 2.301128 1_465
Mo4 O20 1.809180 1_455
Mo4 O22 1.823359 1_555
Mo4 O17 1.847791 1_555
Mo4 O30 2.195724 1_456
Mo4 O13 2.202029 1_545
Mo4 O29 2.208371 1_455
Mo5 O21 1.809180 1_565
Mo5 O23 1.823359 1_555
Mo5 O16 1.847791 1_555
Mo5 O31 2.195724 1_565
Mo5 O12 2.202029 1_655
Mo5 O28 2.208371 1_565
Mo6 O35 1.809180 1_655
Mo6 O24 1.823359 1_555
Mo6 O19 1.847791 1_555
Mo6 O32 2.195724 1_654
Mo6 O15 2.202029 1_565
Mo6 O27 2.208371 1_655
Mo7 O34 1.809180 1_545
Mo7 O25 1.823359 1_555
Mo7 O18 1.847791 1_555
Mo7 O33 2.195724 1_545
Mo7 O14 2.202029 1_455
Mo7 O26 2.208371 1_545
Mo8 O8 1.807501 1_555
Mo8 O9 1.807501 1_555
Mo8 O31 1.971349 1_555
Mo8 O30 1.971349 1_555
Mo8 O1 2.253379 1_645
Mo8 O0 2.253379 1_645
Mo9 O11 1.807501 1_555
Mo9 O10 1.807501 1_555
Mo9 O33 1.971349 1_555
Mo9 O32 1.971349 1_555
Mo9 O2 2.253379 1_465
Mo9 O3 2.253379 1_465
