# generated using pymatgen
data_KTi2(PO4)3
_symmetry_space_group_name_H-M   'P 1'
_cell_length_a   9.20171076
_cell_length_b   9.20171076
_cell_length_c   9.20171105
_cell_angle_alpha   54.97645340
_cell_angle_beta   54.97645340
_cell_angle_gamma   54.97645423
_symmetry_Int_Tables_number   1
_chemical_formula_structural   KTi2(PO4)3
_chemical_formula_sum   'K2 Ti4 P6 O24'
_cell_volume   486.52320269
_cell_formula_units_Z   2
loop_
 _symmetry_equiv_pos_site_id
 _symmetry_equiv_pos_as_xyz
  1  'x, y, z'
loop_
 _atom_site_type_symbol
 _atom_site_label
 _atom_site_symmetry_multiplicity
 _atom_site_fract_x
 _atom_site_fract_y
 _atom_site_fract_z
 _atom_site_occupancy
  K  K0  1  0.00000000  0.00000000  0.00000000  1
  K  K1  1  0.50000000  0.50000000  0.50000000  1
  Ti  Ti0  1  0.14950000  0.14950000  0.14950000  1
  Ti  Ti1  1  0.35050000  0.35050000  0.35050000  1
  Ti  Ti2  1  0.85050000  0.85050000  0.85050000  1
  Ti  Ti3  1  0.64950000  0.64950000  0.64950000  1
  P  P0  1  0.53186200  0.96813800  0.25000000  1
  P  P1  1  0.96813800  0.25000000  0.53186200  1
  P  P2  1  0.25000000  0.53186200  0.96813800  1
  P  P3  1  0.46813800  0.03186200  0.75000000  1
  P  P4  1  0.03186200  0.75000000  0.46813800  1
  P  P5  1  0.75000000  0.46813800  0.03186200  1
  O  O0  1  0.24913700  0.51069200  0.14771100  1
  O  O1  1  0.51069200  0.14771100  0.24913700  1
  O  O2  1  0.14771100  0.24913700  0.51069200  1
  O  O3  1  0.98930800  0.25086300  0.35228900  1
  O  O4  1  0.25086300  0.35228900  0.98930800  1
  O  O5  1  0.35228900  0.98930800  0.25086300  1
  O  O6  1  0.75086300  0.48930800  0.85228900  1
  O  O7  1  0.48930800  0.85228900  0.75086300  1
  O  O8  1  0.85228900  0.75086300  0.48930800  1
  O  O9  1  0.01069200  0.74913700  0.64771100  1
  O  O10  1  0.74913700  0.64771100  0.01069200  1
  O  O11  1  0.64771100  0.01069200  0.74913700  1
  O  O12  1  0.06957100  0.70331900  0.93196900  1
  O  O13  1  0.70331900  0.93196900  0.06957100  1
  O  O14  1  0.93196900  0.06957100  0.70331900  1
  O  O15  1  0.79668100  0.43042900  0.56803100  1
  O  O16  1  0.43042900  0.56803100  0.79668100  1
  O  O17  1  0.56803100  0.79668100  0.43042900  1
  O  O18  1  0.93042900  0.29668100  0.06803100  1
  O  O19  1  0.29668100  0.06803100  0.93042900  1
  O  O20  1  0.06803100  0.93042900  0.29668100  1
  O  O21  1  0.20331900  0.56957100  0.43196900  1
  O  O22  1  0.56957100  0.43196900  0.20331900  1
  O  O23  1  0.43196900  0.20331900  0.56957100  1
loop_
_geom_bond_atom_site_label_1
_geom_bond_atom_site_label_2
_geom_bond_distance
_geom_bond_site_symmetry_2
K0 O19 2.783892 1_554
K0 O13 2.783892 1_445
K0 O18 2.783892 1_455
K0 O12 2.783892 1_544
K0 O20 2.783892 1_545
K0 O14 2.783892 1_454
K1 O17 2.783892 1_555
K1 O23 2.783892 1_555
K1 O15 2.783892 1_555
K1 O21 2.783892 1_555
K1 O16 2.783892 1_555
K1 O22 2.783892 1_555
O0 P2 1.544543 1_554
O0 Ti1 1.946070 1_555
O1 P0 1.544543 1_545
O1 Ti1 1.946070 1_555
O2 P1 1.544543 1_455
O2 Ti1 1.946070 1_555
O3 P1 1.544543 1_555
O3 Ti0 1.946070 1_655
O4 P2 1.544543 1_555
O4 Ti0 1.946070 1_556
O5 P0 1.544543 1_555
O5 Ti0 1.946070 1_565
O6 P5 1.544543 1_556
O6 Ti3 1.946070 1_555
O7 P3 1.544543 1_565
O7 Ti3 1.946070 1_555
O8 P4 1.544543 1_655
O8 Ti3 1.946070 1_555
O9 P4 1.544543 1_555
O9 Ti2 1.946070 1_455
O10 P5 1.544543 1_555
O10 Ti2 1.946070 1_554
O11 P3 1.544543 1_555
O11 Ti2 1.946070 1_545
O12 P2 1.543143 1_555
O12 Ti2 1.973648 1_455
O13 P0 1.543143 1_555
O13 Ti2 1.973648 1_554
O14 P1 1.543143 1_555
O14 Ti2 1.973648 1_545
O15 P1 1.543143 1_555
O15 Ti3 1.973648 1_555
O16 P2 1.543143 1_555
O16 Ti3 1.973648 1_555
O17 P0 1.543143 1_555
O17 Ti3 1.973648 1_555
O18 P5 1.543143 1_555
O18 Ti0 1.973648 1_655
O19 P3 1.543143 1_555
O19 Ti0 1.973648 1_556
O20 P4 1.543143 1_555
O20 Ti0 1.973648 1_565
O21 P4 1.543143 1_555
O21 Ti1 1.973648 1_555
O22 P5 1.543143 1_555
O22 Ti1 1.973648 1_555
O23 P3 1.543143 1_555
O23 Ti1 1.973648 1_555
