# generated using pymatgen
data_Sc2MnB2Rh5
_symmetry_space_group_name_H-M   'P 1'
_cell_length_a   9.40727900
_cell_length_b   9.40727900
_cell_length_c   3.06533600
_cell_angle_alpha   90.00000000
_cell_angle_beta   90.00000000
_cell_angle_gamma   90.00000000
_symmetry_Int_Tables_number   1
_chemical_formula_structural   Sc2MnB2Rh5
_chemical_formula_sum   'Sc4 Mn2 B4 Rh10'
_cell_volume   271.27272789
_cell_formula_units_Z   2
loop_
 _symmetry_equiv_pos_site_id
 _symmetry_equiv_pos_as_xyz
  1  'x, y, z'
loop_
 _atom_site_type_symbol
 _atom_site_label
 _atom_site_symmetry_multiplicity
 _atom_site_fract_x
 _atom_site_fract_y
 _atom_site_fract_z
 _atom_site_occupancy
  Sc  Sc0  1  0.82403200  0.32403200  0.00000000  1
  Sc  Sc1  1  0.32403200  0.17596800  0.00000000  1
  Sc  Sc2  1  0.67596800  0.82403200  0.00000000  1
  Sc  Sc3  1  0.17596800  0.67596800  0.00000000  1
  Mn  Mn0  1  0.00000000  0.00000000  0.00000000  1
  Mn  Mn1  1  0.50000000  0.50000000  0.00000000  1
  B  B0  1  0.62447700  0.12447700  0.00000000  1
  B  B1  1  0.12447700  0.37552300  0.00000000  1
  B  B2  1  0.87552300  0.62447700  0.00000000  1
  B  B3  1  0.37552300  0.87552300  0.00000000  1
  Rh  Rh0  1  0.07052900  0.21835700  0.50000000  1
  Rh  Rh1  1  0.21835700  0.92947100  0.50000000  1
  Rh  Rh2  1  0.78164300  0.07052900  0.50000000  1
  Rh  Rh3  1  0.92947100  0.78164300  0.50000000  1
  Rh  Rh4  1  0.42947100  0.71835700  0.50000000  1
  Rh  Rh5  1  0.57052900  0.28164300  0.50000000  1
  Rh  Rh6  1  0.71835700  0.57052900  0.50000000  1
  Rh  Rh7  1  0.28164300  0.42947100  0.50000000  1
  Rh  Rh8  1  0.50000000  0.00000000  0.50000000  1
  Rh  Rh9  1  0.00000000  0.50000000  0.50000000  1
loop_
_geom_bond_atom_site_label_1
_geom_bond_atom_site_label_2
_geom_bond_distance
_geom_bond_site_symmetry_2
Mn0 Rh1 2.647413 1_545
Mn0 Rh0 2.647413 1_555
Mn0 Rh0 2.647413 1_554
Mn0 Rh1 2.647413 1_544
Mn0 Rh2 2.647413 1_454
Mn0 Rh3 2.647413 1_444
Mn0 Rh2 2.647413 1_455
Mn0 Rh3 2.647413 1_445
Mn1 Rh7 2.647413 1_554
Mn1 Rh6 2.647413 1_555
Mn1 Rh5 2.647413 1_554
Mn1 Rh6 2.647413 1_554
Mn1 Rh5 2.647413 1_555
Mn1 Rh4 2.647413 1_555
Mn1 Rh4 2.647413 1_554
Mn1 Rh7 2.647413 1_555
B0 Rh5 2.189202 1_554
B0 Rh5 2.189202 1_555
B0 Rh2 2.189202 1_554
B0 Rh2 2.189202 1_555
B0 Rh8 2.256437 1_555
B0 Rh8 2.256437 1_554
B0 Sc0 2.654860 1_555
B0 Sc1 2.867578 1_555
B0 Sc2 2.867578 1_545
B1 Rh0 2.189202 1_555
B1 Rh7 2.189202 1_555
B1 Rh0 2.189202 1_554
B1 Rh7 2.189202 1_554
B1 Rh9 2.256437 1_554
B1 Rh9 2.256437 1_555
B1 Sc1 2.654860 1_555
B1 Sc3 2.867578 1_555
B1 Sc0 2.867578 1_455
B2 Rh3 2.189202 1_554
B2 Rh6 2.189202 1_555
B2 Rh3 2.189202 1_555
B2 Rh6 2.189202 1_554
B2 Rh9 2.256437 1_654
B2 Rh9 2.256437 1_655
B2 Sc2 2.654860 1_555
B2 Sc0 2.867578 1_555
B2 Sc3 2.867578 1_655
B3 Rh1 2.189202 1_555
B3 Rh1 2.189202 1_554
B3 Rh4 2.189202 1_554
B3 Rh4 2.189202 1_555
B3 Rh8 2.256437 1_565
B3 Rh8 2.256437 1_564
B3 Sc3 2.654860 1_555
B3 Sc2 2.867578 1_555
B3 Sc1 2.867578 1_565
Rh0 Sc1 2.862731 1_555
Rh0 Sc1 2.862731 1_556
Rh0 Sc0 2.952029 1_455
Rh0 Sc0 2.952029 1_456
Rh1 Sc3 2.862731 1_555
Rh1 Sc3 2.862731 1_556
Rh1 Sc1 2.952029 1_566
Rh1 Sc1 2.952029 1_565
Rh2 Sc0 2.862731 1_555
Rh2 Sc0 2.862731 1_556
Rh2 Sc2 2.952029 1_546
Rh2 Sc2 2.952029 1_545
Rh3 Sc2 2.862731 1_556
Rh3 Sc2 2.862731 1_555
Rh3 Sc3 2.952029 1_656
Rh3 Sc3 2.952029 1_655
Rh4 Sc3 2.862731 1_555
Rh4 Sc3 2.862731 1_556
Rh4 Sc2 2.952029 1_556
Rh4 Sc2 2.952029 1_555
Rh5 Sc0 2.862731 1_555
Rh5 Sc0 2.862731 1_556
Rh5 Sc1 2.952029 1_555
Rh5 Sc1 2.952029 1_556
Rh6 Sc2 2.862731 1_556
Rh6 Sc2 2.862731 1_555
Rh6 Sc0 2.952029 1_556
Rh6 Sc0 2.952029 1_555
Rh7 Sc1 2.862731 1_555
Rh7 Sc1 2.862731 1_556
Rh7 Sc3 2.952029 1_555
Rh7 Sc3 2.952029 1_556
Rh8 Sc2 2.798149 1_546
Rh8 Sc2 2.798149 1_545
Rh8 Sc1 2.798149 1_555
Rh8 Sc1 2.798149 1_556
Rh9 Sc0 2.798149 1_455
Rh9 Sc0 2.798149 1_456
Rh9 Sc3 2.798149 1_556
Rh9 Sc3 2.798149 1_555
