# generated using pymatgen
data_Li3Fe2(AsO4)3
_symmetry_space_group_name_H-M   'P 1'
_cell_length_a   9.09356800
_cell_length_b   8.76483400
_cell_length_c   15.13379885
_cell_angle_alpha   55.38220762
_cell_angle_beta   90.00000000
_cell_angle_gamma   90.00000000
_symmetry_Int_Tables_number   1
_chemical_formula_structural   Li3Fe2(AsO4)3
_chemical_formula_sum   'Li12 Fe8 As12 O48'
_cell_volume   992.66953715
_cell_formula_units_Z   4
loop_
 _symmetry_equiv_pos_site_id
 _symmetry_equiv_pos_as_xyz
  1  'x, y, z'
loop_
 _atom_site_type_symbol
 _atom_site_label
 _atom_site_symmetry_multiplicity
 _atom_site_fract_x
 _atom_site_fract_y
 _atom_site_fract_z
 _atom_site_occupancy
  Li  Li0  1  0.72065100  0.99954700  0.31875200  1
  Li  Li1  1  0.22065100  0.00045300  0.18124800  1
  Li  Li2  1  0.27934900  0.00045300  0.68124800  1
  Li  Li3  1  0.77934900  0.99954700  0.81875200  1
  Li  Li4  1  0.58715100  0.37665200  0.19659800  1
  Li  Li5  1  0.08715100  0.62334800  0.30340200  1
  Li  Li6  1  0.41284900  0.62334800  0.80340200  1
  Li  Li7  1  0.91284900  0.37665200  0.69659800  1
  Li  Li8  1  0.49134200  0.72032900  0.34309700  1
  Li  Li9  1  0.99134200  0.27967100  0.15690300  1
  Li  Li10  1  0.50865800  0.27967100  0.65690300  1
  Li  Li11  1  0.00865800  0.72032900  0.84309700  1
  Fe  Fe0  1  0.53276000  0.13446300  0.11151100  1
  Fe  Fe1  1  0.03276000  0.86553700  0.38848900  1
  Fe  Fe2  1  0.46724000  0.86553700  0.88848900  1
  Fe  Fe3  1  0.96724000  0.13446300  0.61151100  1
  Fe  Fe4  1  0.52341100  0.34967700  0.39548600  1
  Fe  Fe5  1  0.02341100  0.65032300  0.10451400  1
  Fe  Fe6  1  0.47658900  0.65032300  0.60451400  1
  Fe  Fe7  1  0.97658900  0.34967700  0.89548600  1
  As  As0  1  0.88496600  0.96977100  0.14332000  1
  As  As1  1  0.38496600  0.03022900  0.35668000  1
  As  As2  1  0.11503400  0.03022900  0.85668000  1
  As  As3  1  0.61503400  0.96977100  0.64332000  1
  As  As4  1  0.87923900  0.26485000  0.35070100  1
  As  As5  1  0.37923900  0.73515000  0.14929900  1
  As  As6  1  0.12076100  0.73515000  0.64929900  1
  As  As7  1  0.62076100  0.26485000  0.85070100  1
  As  As8  1  0.75180600  0.54751900  0.49106500  1
  As  As9  1  0.25180600  0.45248100  0.00893500  1
  As  As10  1  0.24819400  0.45248100  0.50893500  1
  As  As11  1  0.74819400  0.54751900  0.99106500  1
  O  O0  1  0.92047200  0.12105200  0.30861000  1
  O  O1  1  0.42047200  0.87894800  0.19139000  1
  O  O2  1  0.07952800  0.87894800  0.69139000  1
  O  O3  1  0.57952800  0.12105200  0.80861000  1
  O  O4  1  0.88667700  0.84207400  0.09103600  1
  O  O5  1  0.38667700  0.15792600  0.40896400  1
  O  O6  1  0.11332300  0.15792600  0.90896400  1
  O  O7  1  0.61332300  0.84207400  0.59103600  1
  O  O8  1  0.51376800  0.11836800  0.25402200  1
  O  O9  1  0.01376800  0.88163200  0.24597800  1
  O  O10  1  0.48623200  0.88163200  0.74597800  1
  O  O11  1  0.98623200  0.11836800  0.75402200  1
  O  O12  1  0.47720900  0.53347400  0.22636000  1
  O  O13  1  0.97720900  0.46652600  0.27364000  1
  O  O14  1  0.52279100  0.46652600  0.77364000  1
  O  O15  1  0.02279100  0.53347400  0.72636000  1
  O  O16  1  0.94835700  0.19559900  0.05635200  1
  O  O17  1  0.44835700  0.80440100  0.44364800  1
  O  O18  1  0.05164300  0.80440100  0.94364800  1
  O  O19  1  0.55164300  0.19559900  0.55635200  1
  O  O20  1  0.91279200  0.15340200  0.48368400  1
  O  O21  1  0.41279200  0.84659800  0.01631600  1
  O  O22  1  0.08720800  0.84659800  0.51631600  1
  O  O23  1  0.58720800  0.15340200  0.98368400  1
  O  O24  1  0.61653800  0.38248500  0.06489700  1
  O  O25  1  0.11653800  0.61751500  0.43510300  1
  O  O26  1  0.38346200  0.61751500  0.93510300  1
  O  O27  1  0.88346200  0.38248500  0.56489700  1
  O  O28  1  0.66363800  0.54528600  0.39141500  1
  O  O29  1  0.16363800  0.45471400  0.10858500  1
  O  O30  1  0.33636200  0.45471400  0.60858500  1
  O  O31  1  0.83636200  0.54528600  0.89141500  1
  O  O32  1  0.82430700  0.76618700  0.43109100  1
  O  O33  1  0.32430700  0.23381300  0.06890900  1
  O  O34  1  0.17569300  0.23381300  0.56890900  1
  O  O35  1  0.67569300  0.76618700  0.93109100  1
  O  O36  1  0.86542500  0.50437500  0.09283800  1
  O  O37  1  0.36542500  0.49562500  0.40716200  1
  O  O38  1  0.13457500  0.49562500  0.90716200  1
  O  O39  1  0.63457500  0.50437500  0.59283800  1
  O  O40  1  0.71805200  0.98261200  0.19189200  1
  O  O41  1  0.21805200  0.01738800  0.30810800  1
  O  O42  1  0.28194800  0.01738800  0.80810800  1
  O  O43  1  0.78194800  0.98261200  0.69189200  1
  O  O44  1  0.69021500  0.28285300  0.33472300  1
  O  O45  1  0.19021500  0.71714700  0.16527700  1
  O  O46  1  0.30978500  0.71714700  0.66527700  1
  O  O47  1  0.80978500  0.28285300  0.83472300  1
loop_
_geom_bond_atom_site_label_1
_geom_bond_atom_site_label_2
_geom_bond_distance
_geom_bond_site_symmetry_2
Li0 O32 2.002857 1_555
Li0 O40 2.008056 1_555
Li0 O0 2.067317 1_565
Li0 O8 2.103424 1_565
Li1 O33 2.002857 1_555
Li1 O41 2.008056 1_555
Li1 O1 2.067317 1_545
Li1 O9 2.103424 1_545
Li2 O34 2.002857 1_555
Li2 O42 2.008056 1_555
Li2 O2 2.067317 1_545
Li2 O10 2.103424 1_545
Li3 O35 2.002857 1_555
Li3 O43 2.008056 1_555
Li3 O3 2.067317 1_565
Li3 O11 2.103424 1_565
Li4 O12 1.948108 1_555
Li4 O24 1.982635 1_555
Li4 O44 1.992801 1_555
Li4 O8 2.022400 1_555
Li5 O13 1.948108 1_455
Li5 O25 1.982635 1_555
Li5 O45 1.992801 1_555
Li5 O9 2.022400 1_555
Li6 O14 1.948108 1_555
Li6 O26 1.982635 1_555
Li6 O46 1.992801 1_555
Li6 O10 2.022400 1_555
Li7 O15 1.948108 1_655
Li7 O27 1.982635 1_555
Li7 O47 1.992801 1_555
Li7 O11 2.022400 1_555
Li8 O37 1.990085 1_555
Li8 O1 1.998172 1_555
Li8 O28 2.017098 1_555
Li8 O17 2.070133 1_555
Li9 O36 1.990085 1_555
Li9 O0 1.998172 1_555
Li9 O29 2.017098 1_655
Li9 O16 2.070133 1_555
Li10 O39 1.990085 1_555
Li10 O3 1.998172 1_555
Li10 O30 2.017098 1_555
Li10 O19 2.070133 1_555
Li11 O38 1.990085 1_555
Li11 O2 1.998172 1_555
Li11 O31 2.017098 1_455
Li11 O18 2.070133 1_555
Fe0 O23 1.910541 1_554
Fe0 O24 2.015281 1_555
Fe0 O33 2.032065 1_555
Fe0 O40 2.061737 1_545
Fe0 O8 2.086992 1_555
Fe0 O1 2.107967 1_545
Fe1 O22 1.910541 1_555
Fe1 O25 2.015281 1_555
Fe1 O32 2.032065 1_455
Fe1 O41 2.061737 1_565
Fe1 O9 2.086992 1_555
Fe1 O0 2.107967 1_465
Fe2 O21 1.910541 1_556
Fe2 O26 2.015281 1_555
Fe2 O35 2.032065 1_555
Fe2 O42 2.061737 1_565
Fe2 O10 2.086992 1_555
Fe2 O3 2.107967 1_565
Fe3 O20 1.910541 1_555
Fe3 O27 2.015281 1_555
Fe3 O34 2.032065 1_655
Fe3 O43 2.061737 1_545
Fe3 O11 2.086992 1_555
Fe3 O2 2.107967 1_645
Fe4 O37 1.997100 1_555
Fe4 O5 2.005688 1_555
Fe4 O19 2.020152 1_555
Fe4 O44 2.025199 1_555
Fe4 O28 2.109328 1_555
Fe4 O12 2.153596 1_555
Fe5 O36 1.997100 1_455
Fe5 O4 2.005688 1_455
Fe5 O18 2.020152 1_554
Fe5 O45 2.025199 1_555
Fe5 O29 2.109328 1_555
Fe5 O13 2.153596 1_455
Fe6 O39 1.997100 1_555
Fe6 O7 2.005688 1_555
Fe6 O17 2.020152 1_555
Fe6 O46 2.025199 1_555
Fe6 O30 2.109328 1_555
Fe6 O14 2.153596 1_555
Fe7 O38 1.997100 1_655
Fe7 O6 2.005688 1_655
Fe7 O16 2.020152 1_556
Fe7 O47 2.025199 1_555
Fe7 O31 2.109328 1_555
Fe7 O15 2.153596 1_655
As0 O4 1.698605 1_555
As0 O40 1.717806 1_555
As0 O9 1.737439 1_655
As0 O16 1.738513 1_565
As1 O5 1.698605 1_555
As1 O41 1.717806 1_555
As1 O8 1.737439 1_555
As1 O17 1.738513 1_545
As2 O6 1.698605 1_555
As2 O42 1.717806 1_555
As2 O11 1.737439 1_455
As2 O18 1.738513 1_545
As3 O7 1.698605 1_555
As3 O43 1.717806 1_555
As3 O10 1.737439 1_555
As3 O19 1.738513 1_565
As4 O20 1.692319 1_555
As4 O13 1.713514 1_555
As4 O44 1.730504 1_555
As4 O0 1.745587 1_555
As5 O21 1.692319 1_555
As5 O12 1.713514 1_555
As5 O45 1.730504 1_555
As5 O1 1.745587 1_555
As6 O22 1.692319 1_555
As6 O15 1.713514 1_555
As6 O46 1.730504 1_555
As6 O2 1.745587 1_555
As7 O23 1.692319 1_555
As7 O14 1.713514 1_555
As7 O47 1.730504 1_555
As7 O3 1.745587 1_555
As8 O27 1.714000 1_555
As8 O28 1.717864 1_555
As8 O32 1.719096 1_555
As8 O39 1.729148 1_555
As9 O26 1.714000 1_554
As9 O29 1.717864 1_555
As9 O33 1.719096 1_555
As9 O38 1.729148 1_554
As10 O25 1.714000 1_555
As10 O30 1.717864 1_555
As10 O34 1.719096 1_555
As10 O37 1.729148 1_555
As11 O24 1.714000 1_556
As11 O31 1.717864 1_555
As11 O35 1.719096 1_555
As11 O36 1.729148 1_556
