# generated using pymatgen
data_Bi2Rh2O7
_symmetry_space_group_name_H-M   'P 1'
_cell_length_a   7.26293764
_cell_length_b   7.26291371
_cell_length_c   7.26283898
_cell_angle_alpha   59.99971108
_cell_angle_beta   59.99981439
_cell_angle_gamma   60.00016315
_symmetry_Int_Tables_number   1
_chemical_formula_structural   Bi2Rh2O7
_chemical_formula_sum   'Bi4 Rh4 O14'
_cell_volume   270.90286321
_cell_formula_units_Z   2
loop_
 _symmetry_equiv_pos_site_id
 _symmetry_equiv_pos_as_xyz
  1  'x, y, z'
loop_
 _atom_site_type_symbol
 _atom_site_label
 _atom_site_symmetry_multiplicity
 _atom_site_fract_x
 _atom_site_fract_y
 _atom_site_fract_z
 _atom_site_occupancy
  Bi  Bi0  1  0.12500001  0.12499997  0.12499995  1
  Bi  Bi1  1  0.12500006  0.62499994  0.12499990  1
  Bi  Bi2  1  0.62500005  0.12499998  0.12499994  1
  Bi  Bi3  1  0.12500003  0.12499994  0.62499992  1
  Rh  Rh0  1  0.62500005  0.62499998  0.62500005  1
  Rh  Rh1  1  0.62499996  0.62500006  0.12500007  1
  Rh  Rh2  1  0.12499996  0.62499999  0.62500002  1
  Rh  Rh3  1  0.62499998  0.12500004  0.62500002  1
  O  O0  1  0.25000440  0.25000223  0.24999328  1
  O  O1  1  0.29331719  0.70669541  0.29329053  1
  O  O2  1  0.95670173  0.95670194  0.54329526  1
  O  O3  1  0.54330421  0.95669650  0.54329547  1
  O  O4  1  0.70669368  0.70669485  0.29329624  1
  O  O5  1  0.95669683  0.54330300  0.54329549  1
  O  O6  1  0.70669583  0.29330346  0.70670459  1
  O  O7  1  0.29329830  0.29329799  0.70670482  1
  O  O8  1  0.70669415  0.29331799  0.29329158  1
  O  O9  1  0.29330310  0.70669703  0.70670460  1
  O  O10  1  0.95668277  0.54330463  0.95670950  1
  O  O11  1  0.54330632  0.54330520  0.95670367  1
  O  O12  1  0.99999560  0.99999778  0.00000663  1
  O  O13  1  0.54330579  0.95668210  0.95670848  1
loop_
_geom_bond_atom_site_label_1
_geom_bond_atom_site_label_2
_geom_bond_distance
_geom_bond_site_symmetry_2
Bi0 O12 2.223800 1_445
Bi0 O0 2.223801 1_555
Bi0 O7 2.506955 1_554
Bi0 O2 2.506956 1_445
Bi0 O1 2.507047 1_545
Bi0 O10 2.507048 1_454
Bi0 O13 2.507065 1_544
Bi0 O8 2.507066 1_455
Bi1 O0 2.223789 1_555
Bi1 O12 2.223790 1_455
Bi1 O9 2.506957 1_554
Bi1 O5 2.506959 1_455
Bi1 O10 2.507036 1_454
Bi1 O1 2.507037 1_555
Bi1 O11 2.507069 1_554
Bi1 O4 2.507070 1_455
Bi2 O12 2.223786 1_545
Bi2 O0 2.223787 1_555
Bi2 O6 2.506957 1_554
Bi2 O3 2.506959 1_545
Bi2 O13 2.507039 1_544
Bi2 O8 2.507040 1_555
Bi2 O4 2.507052 1_545
Bi2 O11 2.507052 1_554
Bi3 O0 2.223812 1_555
Bi3 O12 2.223812 1_446
Bi3 O2 2.507020 1_445
Bi3 O7 2.507021 1_555
Bi3 O9 2.507034 1_545
Bi3 O5 2.507035 1_455
Bi3 O6 2.507052 1_455
Bi3 O3 2.507052 1_545
O1 Rh1 2.000166 1_555
O1 Rh2 2.000313 1_555
O2 Rh2 2.000278 1_655
O2 Rh3 2.000284 1_565
O3 Rh0 2.000244 1_555
O3 Rh3 2.000291 1_565
O4 Rh1 2.000172 1_555
O4 Rh0 2.000277 1_555
O5 Rh0 2.000253 1_555
O5 Rh2 2.000296 1_655
O6 Rh0 2.000244 1_555
O6 Rh3 2.000290 1_555
O7 Rh2 2.000279 1_555
O7 Rh3 2.000283 1_555
O8 Rh1 2.000154 1_555
O8 Rh3 2.000306 1_555
O9 Rh0 2.000254 1_555
O9 Rh2 2.000297 1_555
O10 Rh1 2.000166 1_556
O10 Rh2 2.000313 1_655
O11 Rh1 2.000173 1_556
O11 Rh0 2.000276 1_555
O13 Rh1 2.000154 1_556
O13 Rh3 2.000306 1_565
