# generated using pymatgen
data_CuMo3Cl7
_symmetry_space_group_name_H-M   'P 1'
_cell_length_a   12.91942001
_cell_length_b   12.91942001
_cell_length_c   12.91942001
_cell_angle_alpha   90.00000000
_cell_angle_beta   90.00000000
_cell_angle_gamma   90.00000000
_symmetry_Int_Tables_number   1
_chemical_formula_structural   CuMo3Cl7
_chemical_formula_sum   'Cu8 Mo24 Cl56'
_cell_volume   2156.39865411
_cell_formula_units_Z   8
loop_
 _symmetry_equiv_pos_site_id
 _symmetry_equiv_pos_as_xyz
  1  'x, y, z'
loop_
 _atom_site_type_symbol
 _atom_site_label
 _atom_site_symmetry_multiplicity
 _atom_site_fract_x
 _atom_site_fract_y
 _atom_site_fract_z
 _atom_site_occupancy
  Cu  Cu0  1  0.19019154  0.19019154  0.19019154  1
  Cu  Cu1  1  0.30980846  0.69019154  0.69019154  1
  Cu  Cu2  1  0.69019154  0.30980846  0.69019154  1
  Cu  Cu3  1  0.19019154  0.80980846  0.80980846  1
  Cu  Cu4  1  0.30980846  0.30980846  0.30980846  1
  Cu  Cu5  1  0.69019154  0.69019154  0.30980846  1
  Cu  Cu6  1  0.80980846  0.80980846  0.19019154  1
  Cu  Cu7  1  0.80980846  0.19019154  0.80980846  1
  Mo  Mo0  1  0.61354152  0.77518143  0.71879566  1
  Mo  Mo1  1  0.38645848  0.22481857  0.71879566  1
  Mo  Mo2  1  0.71879566  0.61354152  0.77518143  1
  Mo  Mo3  1  0.78120434  0.11354152  0.27518143  1
  Mo  Mo4  1  0.88645848  0.27518143  0.21879566  1
  Mo  Mo5  1  0.72481857  0.78120434  0.88645848  1
  Mo  Mo6  1  0.22481857  0.71879566  0.38645848  1
  Mo  Mo7  1  0.71879566  0.38645848  0.22481857  1
  Mo  Mo8  1  0.72481857  0.21879566  0.11354152  1
  Mo  Mo9  1  0.21879566  0.88645848  0.27518143  1
  Mo  Mo10  1  0.77518143  0.28120434  0.38645848  1
  Mo  Mo11  1  0.11354152  0.72481857  0.21879566  1
  Mo  Mo12  1  0.27518143  0.21879566  0.88645848  1
  Mo  Mo13  1  0.28120434  0.38645848  0.77518143  1
  Mo  Mo14  1  0.21879566  0.11354152  0.72481857  1
  Mo  Mo15  1  0.88645848  0.72481857  0.78120434  1
  Mo  Mo16  1  0.27518143  0.78120434  0.11354152  1
  Mo  Mo17  1  0.11354152  0.27518143  0.78120434  1
  Mo  Mo18  1  0.78120434  0.88645848  0.72481857  1
  Mo  Mo19  1  0.22481857  0.28120434  0.61354152  1
  Mo  Mo20  1  0.28120434  0.61354152  0.22481857  1
  Mo  Mo21  1  0.77518143  0.71879566  0.61354152  1
  Mo  Mo22  1  0.38645848  0.77518143  0.28120434  1
  Mo  Mo23  1  0.61354152  0.22481857  0.28120434  1
  Cl  Cl0  1  0.43362228  0.67439153  0.12464824  1
  Cl  Cl1  1  0.17439153  0.37535176  0.93362228  1
  Cl  Cl2  1  0.88658174  0.11341826  0.11341826  1
  Cl  Cl3  1  0.32560847  0.87535176  0.43362228  1
  Cl  Cl4  1  0.87535176  0.43362228  0.32560847  1
  Cl  Cl5  1  0.11341826  0.88658174  0.11341826  1
  Cl  Cl6  1  0.06820640  0.31149218  0.17164334  1
  Cl  Cl7  1  0.43179360  0.18850782  0.32835666  1
  Cl  Cl8  1  0.93362228  0.82560847  0.62464824  1
  Cl  Cl9  1  0.31149218  0.82835666  0.93179360  1
  Cl  Cl10  1  0.31149218  0.17164334  0.06820640  1
  Cl  Cl11  1  0.11341826  0.11341826  0.88658174  1
  Cl  Cl12  1  0.67439153  0.87535176  0.56637772  1
  Cl  Cl13  1  0.93179360  0.68850782  0.17164334  1
  Cl  Cl14  1  0.61341826  0.61341826  0.61341826  1
  Cl  Cl15  1  0.12464824  0.56637772  0.32560847  1
  Cl  Cl16  1  0.06820640  0.68850782  0.82835666  1
  Cl  Cl17  1  0.87535176  0.56637772  0.67439153  1
  Cl  Cl18  1  0.56637772  0.32560847  0.12464824  1
  Cl  Cl19  1  0.32835666  0.43179360  0.18850782  1
  Cl  Cl20  1  0.82560847  0.37535176  0.06637772  1
  Cl  Cl21  1  0.17439153  0.62464824  0.06637772  1
  Cl  Cl22  1  0.37535176  0.93362228  0.17439153  1
  Cl  Cl23  1  0.38658174  0.38658174  0.61341826  1
  Cl  Cl24  1  0.12464824  0.43362228  0.67439153  1
  Cl  Cl25  1  0.81149218  0.67164334  0.43179360  1
  Cl  Cl26  1  0.43179360  0.81149218  0.67164334  1
  Cl  Cl27  1  0.38658174  0.61341826  0.38658174  1
  Cl  Cl28  1  0.56820640  0.18850782  0.67164334  1
  Cl  Cl29  1  0.93362228  0.17439153  0.37535176  1
  Cl  Cl30  1  0.43362228  0.32560847  0.87535176  1
  Cl  Cl31  1  0.37535176  0.06637772  0.82560847  1
  Cl  Cl32  1  0.62464824  0.93362228  0.82560847  1
  Cl  Cl33  1  0.17164334  0.06820640  0.31149218  1
  Cl  Cl34  1  0.56820640  0.81149218  0.32835666  1
  Cl  Cl35  1  0.82560847  0.62464824  0.93362228  1
  Cl  Cl36  1  0.93179360  0.31149218  0.82835666  1
  Cl  Cl37  1  0.68850782  0.17164334  0.93179360  1
  Cl  Cl38  1  0.06637772  0.82560847  0.37535176  1
  Cl  Cl39  1  0.32560847  0.12464824  0.56637772  1
  Cl  Cl40  1  0.67439153  0.12464824  0.43362228  1
  Cl  Cl41  1  0.61341826  0.38658174  0.38658174  1
  Cl  Cl42  1  0.88658174  0.88658174  0.88658174  1
  Cl  Cl43  1  0.81149218  0.32835666  0.56820640  1
  Cl  Cl44  1  0.17164334  0.93179360  0.68850782  1
  Cl  Cl45  1  0.18850782  0.67164334  0.56820640  1
  Cl  Cl46  1  0.67164334  0.43179360  0.81149218  1
  Cl  Cl47  1  0.32835666  0.56820640  0.81149218  1
  Cl  Cl48  1  0.67164334  0.56820640  0.18850782  1
  Cl  Cl49  1  0.82835666  0.93179360  0.31149218  1
  Cl  Cl50  1  0.18850782  0.32835666  0.43179360  1
  Cl  Cl51  1  0.68850782  0.82835666  0.06820640  1
  Cl  Cl52  1  0.06637772  0.17439153  0.62464824  1
  Cl  Cl53  1  0.82835666  0.06820640  0.68850782  1
  Cl  Cl54  1  0.62464824  0.06637772  0.17439153  1
  Cl  Cl55  1  0.56637772  0.67439153  0.87535176  1
loop_
_geom_bond_atom_site_label_1
_geom_bond_atom_site_label_2
_geom_bond_distance
_geom_bond_site_symmetry_2
Cl0 Mo16 2.472840 1_555
Cl0 Mo22 2.481499 1_555
Cl0 Mo20 2.484027 1_555
Cl1 Mo13 2.472840 1_555
Cl1 Mo12 2.481499 1_555
Cl1 Mo17 2.484027 1_555
Cl2 Mo3 2.494209 1_555
Cl2 Mo8 2.494209 1_555
Cl2 Mo4 2.494209 1_555
Cl3 Mo9 2.472840 1_555
Cl3 Mo6 2.481499 1_555
Cl3 Mo22 2.484027 1_555
Cl4 Mo4 2.472840 1_555
Cl4 Mo7 2.481499 1_555
Cl4 Mo10 2.484027 1_555
Cl5 Mo11 2.494209 1_555
Cl5 Mo16 2.494209 1_555
Cl5 Mo9 2.494209 1_555
Cl6 Cu0 2.235405 1_555
Cl6 Mo4 2.470757 1_455
Cl7 Cu4 2.235405 1_555
Cl7 Mo23 2.470757 1_555
Cl8 Mo21 2.472840 1_555
Cl8 Mo15 2.481499 1_555
Cl8 Mo18 2.484027 1_555
Cl9 Cu3 2.235405 1_555
Cl9 Mo16 2.470757 1_556
Cl10 Cu0 2.235405 1_555
Cl10 Mo12 2.470757 1_554
Cl11 Mo17 2.494209 1_555
Cl11 Mo14 2.494209 1_555
Cl11 Mo12 2.494209 1_555
Cl12 Mo18 2.472840 1_555
Cl12 Mo21 2.481499 1_555
Cl12 Mo0 2.484027 1_555
Cl13 Cu6 2.235405 1_555
Cl13 Mo11 2.470757 1_655
Cl14 Mo0 2.494209 1_555
Cl14 Mo21 2.494209 1_555
Cl14 Mo2 2.494209 1_555
Cl15 Mo11 2.472840 1_555
Cl15 Mo20 2.481499 1_555
Cl15 Mo6 2.484027 1_555
Cl16 Cu3 2.235405 1_555
Cl16 Mo15 2.470757 1_455
Cl17 Mo15 2.472840 1_555
Cl17 Mo2 2.481499 1_555
Cl17 Mo21 2.484027 1_555
Cl18 Mo8 2.472840 1_555
Cl18 Mo23 2.481499 1_555
Cl18 Mo7 2.484027 1_555
Cl19 Cu4 2.235405 1_555
Cl19 Mo20 2.470757 1_555
Cl20 Mo7 2.472840 1_555
Cl20 Mo8 2.481499 1_555
Cl20 Mo4 2.484027 1_555
Cl21 Mo20 2.472840 1_555
Cl21 Mo16 2.481499 1_555
Cl21 Mo11 2.484027 1_555
Cl22 Mo22 2.472840 1_555
Cl22 Mo9 2.481499 1_555
Cl22 Mo16 2.484027 1_555
Cl23 Mo19 2.494209 1_555
Cl23 Mo1 2.494209 1_555
Cl23 Mo13 2.494209 1_555
Cl24 Mo17 2.472840 1_555
Cl24 Mo13 2.481499 1_555
Cl24 Mo19 2.484027 1_555
Cl25 Cu5 2.235405 1_555
Cl25 Mo21 2.470757 1_555
Cl26 Cu1 2.235405 1_555
Cl26 Mo0 2.470757 1_555
Cl27 Mo20 2.494209 1_555
Cl27 Mo6 2.494209 1_555
Cl27 Mo22 2.494209 1_555
Cl28 Cu2 2.235405 1_555
Cl28 Mo1 2.470757 1_555
Cl29 Mo10 2.472840 1_555
Cl29 Mo4 2.481499 1_555
Cl29 Mo3 2.484027 1_555
Cl30 Mo12 2.472840 1_555
Cl30 Mo1 2.481499 1_555
Cl30 Mo13 2.484027 1_555
Cl31 Mo1 2.472840 1_555
Cl31 Mo14 2.481499 1_555
Cl31 Mo12 2.484027 1_555
Cl32 Mo0 2.472840 1_555
Cl32 Mo18 2.481499 1_555
Cl32 Mo5 2.484027 1_555
Cl33 Cu0 2.235405 1_555
Cl33 Mo9 2.470757 1_545
Cl34 Cu5 2.235405 1_555
Cl34 Mo22 2.470757 1_555
Cl35 Mo2 2.472840 1_555
Cl35 Mo5 2.481499 1_555
Cl35 Mo15 2.484027 1_555
Cl36 Cu7 2.235405 1_555
Cl36 Mo17 2.470757 1_655
Cl37 Cu7 2.235405 1_555
Cl37 Mo8 2.470757 1_556
Cl38 Mo6 2.472840 1_555
Cl38 Mo11 2.481499 1_555
Cl38 Mo9 2.484027 1_555
Cl39 Mo14 2.472840 1_555
Cl39 Mo19 2.481499 1_555
Cl39 Mo1 2.484027 1_555
Cl40 Mo3 2.472840 1_555
Cl40 Mo10 2.481499 1_555
Cl40 Mo23 2.484027 1_555
Cl41 Mo23 2.494209 1_555
Cl41 Mo7 2.494209 1_555
Cl41 Mo10 2.494209 1_555
Cl42 Mo18 2.494209 1_555
Cl42 Mo15 2.494209 1_555
Cl42 Mo5 2.494209 1_555
Cl43 Cu2 2.235405 1_555
Cl43 Mo10 2.470757 1_555
Cl44 Cu3 2.235405 1_555
Cl44 Mo14 2.470757 1_565
Cl45 Cu1 2.235405 1_555
Cl45 Mo6 2.470757 1_555
Cl46 Cu2 2.235405 1_555
Cl46 Mo2 2.470757 1_555
Cl47 Cu1 2.235405 1_555
Cl47 Mo13 2.470757 1_555
Cl48 Cu5 2.235405 1_555
Cl48 Mo7 2.470757 1_555
Cl49 Cu6 2.235405 1_555
Cl49 Mo3 2.470757 1_565
Cl50 Cu4 2.235405 1_555
Cl50 Mo19 2.470757 1_555
Cl51 Cu6 2.235405 1_555
Cl51 Mo5 2.470757 1_554
Cl52 Mo19 2.472840 1_555
Cl52 Mo17 2.481499 1_555
Cl52 Mo14 2.484027 1_555
Cl53 Cu7 2.235405 1_555
Cl53 Mo18 2.470757 1_545
Cl54 Mo23 2.472840 1_555
Cl54 Mo3 2.481499 1_555
Cl54 Mo8 2.484027 1_555
Cl55 Mo5 2.472840 1_555
Cl55 Mo0 2.481499 1_555
Cl55 Mo2 2.484027 1_555
