# generated using pymatgen
data_KNaSmNbO5
_symmetry_space_group_name_H-M   'P 1'
_cell_length_a   5.74662600
_cell_length_b   5.74662600
_cell_length_c   8.36281600
_cell_angle_alpha   90.00000000
_cell_angle_beta   90.00000000
_cell_angle_gamma   90.00000000
_symmetry_Int_Tables_number   1
_chemical_formula_structural   KNaSmNbO5
_chemical_formula_sum   'K2 Na2 Sm2 Nb2 O10'
_cell_volume   276.17121358
_cell_formula_units_Z   2
loop_
 _symmetry_equiv_pos_site_id
 _symmetry_equiv_pos_as_xyz
  1  'x, y, z'
loop_
 _atom_site_type_symbol
 _atom_site_label
 _atom_site_symmetry_multiplicity
 _atom_site_fract_x
 _atom_site_fract_y
 _atom_site_fract_z
 _atom_site_occupancy
  K  K0  1  0.50000000  0.50000000  0.00000000  1
  K  K1  1  0.00000000  0.00000000  0.00000000  1
  Na  Na0  1  0.00000000  0.50000000  0.24128000  1
  Na  Na1  1  0.50000000  0.00000000  0.75872000  1
  Sm  Sm0  1  0.00000000  0.00000000  0.50000000  1
  Sm  Sm1  1  0.50000000  0.50000000  0.50000000  1
  Nb  Nb0  1  0.50000000  0.00000000  0.25942900  1
  Nb  Nb1  1  0.00000000  0.50000000  0.74057100  1
  O  O0  1  0.00000000  0.50000000  0.96456100  1
  O  O1  1  0.76807400  0.73192600  0.66741200  1
  O  O2  1  0.26807400  0.23192600  0.33258800  1
  O  O3  1  0.76807400  0.26807400  0.66741200  1
  O  O4  1  0.23192600  0.26807400  0.66741200  1
  O  O5  1  0.23192600  0.73192600  0.66741200  1
  O  O6  1  0.26807400  0.76807400  0.33258800  1
  O  O7  1  0.73192600  0.23192600  0.33258800  1
  O  O8  1  0.50000000  0.00000000  0.03543900  1
  O  O9  1  0.73192600  0.76807400  0.33258800  1
loop_
_geom_bond_atom_site_label_1
_geom_bond_atom_site_label_2
_geom_bond_distance
_geom_bond_site_symmetry_2
K0 O8 2.888557 1_565
K0 O8 2.888557 1_555
K0 O0 2.888557 1_654
K0 O0 2.888557 1_554
K1 O8 2.888557 1_555
K1 O0 2.888557 1_544
K1 O8 2.888557 1_455
K1 O0 2.888557 1_554
Na0 O7 2.308567 1_455
Na0 O9 2.308567 1_455
Na0 O2 2.308567 1_555
Na0 O6 2.308567 1_555
Na0 O0 2.314150 1_554
Na1 O3 2.308567 1_555
Na1 O4 2.308567 1_555
Na1 O5 2.308567 1_545
Na1 O1 2.308567 1_545
Na1 O8 2.314150 1_556
Nb0 O8 1.873187 1_555
Nb0 O7 1.981663 1_555
Nb0 O9 1.981663 1_545
Nb0 O6 1.981663 1_545
Nb0 O2 1.981663 1_555
Nb1 O0 1.873187 1_555
Nb1 O1 1.981663 1_455
Nb1 O5 1.981663 1_555
Nb1 O3 1.981663 1_455
Nb1 O4 1.981663 1_555
O1 Sm1 2.471769 1_555
O1 Sm0 2.471769 1_665
O2 Sm0 2.471769 1_555
O2 Sm1 2.471769 1_555
O3 Sm0 2.471769 1_655
O3 Sm1 2.471769 1_555
O4 Sm0 2.471769 1_555
O4 Sm1 2.471769 1_555
O5 Sm1 2.471769 1_555
O5 Sm0 2.471769 1_565
O6 Sm1 2.471769 1_555
O6 Sm0 2.471769 1_565
O7 Sm1 2.471769 1_555
O7 Sm0 2.471769 1_655
O9 Sm1 2.471769 1_555
O9 Sm0 2.471769 1_665
