# generated using pymatgen
data_GdFe3(BO3)4
_symmetry_space_group_name_H-M   'P 1'
_cell_length_a   9.65535996
_cell_length_b   9.65535996
_cell_length_c   7.68201000
_cell_angle_alpha   90.00000000
_cell_angle_beta   90.00000000
_cell_angle_gamma   119.99999975
_symmetry_Int_Tables_number   1
_chemical_formula_structural   GdFe3(BO3)4
_chemical_formula_sum   'Gd3 Fe9 B12 O36'
_cell_volume   620.21524892
_cell_formula_units_Z   3
loop_
 _symmetry_equiv_pos_site_id
 _symmetry_equiv_pos_as_xyz
  1  'x, y, z'
loop_
 _atom_site_type_symbol
 _atom_site_label
 _atom_site_symmetry_multiplicity
 _atom_site_fract_x
 _atom_site_fract_y
 _atom_site_fract_z
 _atom_site_occupancy
  Gd  Gd0  1  0.00000000  0.33352300  0.66666700  1
  Gd  Gd1  1  0.66647700  0.66647700  0.00000000  1
  Gd  Gd2  1  0.33352300  0.00000000  0.33333300  1
  Fe  Fe0  1  0.45032500  0.78449200  0.66363700  1
  Fe  Fe1  1  0.66583300  0.21550800  0.00303000  1
  Fe  Fe2  1  0.78449200  0.45032500  0.33636300  1
  Fe  Fe3  1  0.11614100  0.11614100  0.00000000  1
  Fe  Fe4  1  0.88385900  0.00000000  0.33333300  1
  Fe  Fe5  1  0.33416700  0.54967500  0.33030400  1
  Fe  Fe6  1  0.54967500  0.33416700  0.66969600  1
  Fe  Fe7  1  0.21550800  0.66583300  0.99697000  1
  Fe  Fe8  1  0.00000000  0.88385900  0.66666700  1
  B  B0  1  0.66724700  0.66724700  0.50000000  1
  B  B1  1  0.00000000  0.33275300  0.16666700  1
  B  B2  1  0.21951500  0.21951500  0.50000000  1
  B  B3  1  0.44784700  0.33061800  0.17044200  1
  B  B4  1  0.66938200  0.11723000  0.50377500  1
  B  B5  1  0.00000000  0.78048500  0.16666700  1
  B  B6  1  0.55215300  0.88277000  0.16289200  1
  B  B7  1  0.78048500  0.00000000  0.83333300  1
  B  B8  1  0.88277000  0.55215300  0.83710800  1
  B  B9  1  0.11723000  0.66938200  0.49622500  1
  B  B10  1  0.33275300  0.00000000  0.83333300  1
  B  B11  1  0.33061800  0.44784700  0.82955800  1
  O  O0  1  0.47604400  0.14379300  0.83579300  1
  O  O1  1  0.58872100  0.32575400  0.17712500  1
  O  O2  1  0.69216100  0.87836200  0.18163200  1
  O  O3  1  0.14379300  0.47604400  0.16420700  1
  O  O4  1  0.52395600  0.66774900  0.49754100  1
  O  O5  1  0.85620700  0.33225100  0.16912600  1
  O  O6  1  0.21257900  0.35866000  0.48363800  1
  O  O7  1  0.92385700  0.00000000  0.83333300  1
  O  O8  1  0.67424600  0.26296700  0.51045900  1
  O  O9  1  0.47771000  0.45744800  0.81679900  1
  O  O10  1  0.00000000  0.18925600  0.16666700  1
  O  O11  1  0.33225100  0.85620700  0.83087400  1
  O  O12  1  0.66774900  0.52395600  0.50245900  1
  O  O13  1  0.18620000  0.30783900  0.84829900  1
  O  O14  1  0.18925600  0.00000000  0.83333300  1
  O  O15  1  0.87836200  0.69216100  0.81836800  1
  O  O16  1  0.81380000  0.12163800  0.48503500  1
  O  O17  1  0.52229000  0.97973800  0.51653400  1
  O  O18  1  0.97973800  0.52229000  0.48346600  1
  O  O19  1  0.07614300  0.07614300  0.50000000  1
  O  O20  1  0.02026200  0.54255200  0.84986700  1
  O  O21  1  0.32575400  0.58872100  0.82287500  1
  O  O22  1  0.73703300  0.41127900  0.84379200  1
  O  O23  1  0.85391900  0.64134000  0.18302900  1
  O  O24  1  0.14608100  0.78742100  0.15030400  1
  O  O25  1  0.12163800  0.81380000  0.51496500  1
  O  O26  1  0.54255200  0.02026200  0.15013300  1
  O  O27  1  0.81074400  0.81074400  0.50000000  1
  O  O28  1  0.00000000  0.92385700  0.16666700  1
  O  O29  1  0.45744800  0.47771000  0.18320100  1
  O  O30  1  0.26296700  0.67424600  0.48954100  1
  O  O31  1  0.64134000  0.85391900  0.81697100  1
  O  O32  1  0.78742100  0.14608100  0.84969600  1
  O  O33  1  0.41127900  0.73703300  0.15620800  1
  O  O34  1  0.35866000  0.21257900  0.51636200  1
  O  O35  1  0.30783900  0.18620000  0.15170100  1
loop_
_geom_bond_atom_site_label_1
_geom_bond_atom_site_label_2
_geom_bond_distance
_geom_bond_site_symmetry_2
Gd0 O13 2.384614 1_555
Gd0 O16 2.384618 1_455
Gd0 O20 2.386919 1_555
Gd0 O18 2.386923 1_455
Gd0 O6 2.398027 1_555
Gd0 O32 2.398027 1_455
Gd1 O2 2.384622 1_555
Gd1 O15 2.384622 1_554
Gd1 O29 2.386923 1_555
Gd1 O9 2.386923 1_554
Gd1 O23 2.398027 1_555
Gd1 O31 2.398027 1_554
Gd2 O35 2.384614 1_555
Gd2 O25 2.384618 1_545
Gd2 O26 2.386919 1_555
Gd2 O17 2.386923 1_545
Gd2 O34 2.398027 1_555
Gd2 O24 2.398027 1_545
Fe0 O31 2.000506 1_555
Fe0 O17 2.000945 1_555
Fe0 O4 2.050710 1_555
Fe0 O11 2.054039 1_555
Fe0 O21 2.059739 1_555
Fe0 O30 2.066066 1_555
Fe1 O32 2.000506 1_554
Fe1 O26 2.000945 1_555
Fe1 O5 2.050710 1_555
Fe1 O0 2.054039 1_554
Fe1 O22 2.059739 1_554
Fe1 O1 2.066061 1_555
Fe2 O23 2.000506 1_555
Fe2 O18 2.000945 1_555
Fe2 O12 2.050710 1_555
Fe2 O5 2.054039 1_555
Fe2 O1 2.059739 1_555
Fe2 O8 2.066066 1_555
Fe3 O35 1.997373 1_555
Fe3 O13 1.997373 1_554
Fe3 O10 2.046161 1_555
Fe3 O14 2.046161 1_554
Fe3 O28 2.064387 1_545
Fe3 O7 2.064387 1_454
Fe4 O16 1.997371 1_555
Fe4 O2 1.997372 1_545
Fe4 O10 2.046156 1_655
Fe4 O27 2.046161 1_545
Fe4 O28 2.064382 1_645
Fe4 O19 2.064387 1_655
Fe5 O6 2.000506 1_555
Fe5 O29 2.000945 1_555
Fe5 O3 2.050714 1_555
Fe5 O4 2.054039 1_555
Fe5 O30 2.059735 1_555
Fe5 O33 2.066066 1_555
Fe6 O34 2.000506 1_555
Fe6 O9 2.000945 1_555
Fe6 O0 2.050714 1_555
Fe6 O12 2.054039 1_555
Fe6 O8 2.059735 1_555
Fe6 O22 2.066066 1_555
Fe7 O24 2.000506 1_556
Fe7 O20 2.000945 1_555
Fe7 O11 2.050710 1_555
Fe7 O3 2.054039 1_556
Fe7 O33 2.059739 1_556
Fe7 O21 2.066061 1_555
Fe8 O25 1.997371 1_555
Fe8 O15 1.997372 1_455
Fe8 O14 2.046156 1_565
Fe8 O27 2.046161 1_455
Fe8 O7 2.064382 1_465
Fe8 O19 2.064387 1_565
B0 O27 1.385515 1_555
B0 O12 1.386085 1_555
B0 O4 1.386085 1_555
B1 O10 1.385515 1_555
B1 O5 1.386085 1_455
B1 O3 1.386085 1_555
B2 O34 1.383920 1_555
B2 O6 1.383920 1_555
B2 O19 1.384308 1_555
B3 O29 1.379705 1_555
B3 O35 1.381137 1_555
B3 O1 1.385220 1_555
B4 O17 1.379709 1_545
B4 O16 1.381145 1_555
B4 O8 1.385211 1_555
B5 O23 1.383921 1_455
B5 O24 1.383921 1_555
B5 O28 1.384308 1_555
B6 O26 1.379715 1_565
B6 O2 1.381126 1_555
B6 O33 1.385216 1_555
B7 O31 1.383921 1_545
B7 O32 1.383921 1_555
B7 O7 1.384308 1_555
B8 O20 1.379715 1_655
B8 O15 1.381126 1_555
B8 O22 1.385216 1_555
B9 O18 1.379709 1_455
B9 O25 1.381145 1_555
B9 O30 1.385211 1_555
B10 O14 1.385515 1_555
B10 O11 1.386085 1_545
B10 O0 1.386085 1_555
B11 O9 1.379705 1_555
B11 O13 1.381137 1_555
B11 O21 1.385220 1_555
