# generated using pymatgen
data_CsLaZnTe3
_symmetry_space_group_name_H-M   'P 1'
_cell_length_a   8.88004605
_cell_length_b   8.88004605
_cell_length_c   12.26588100
_cell_angle_alpha   90.00000000
_cell_angle_beta   90.00000000
_cell_angle_gamma   149.98271285
_symmetry_Int_Tables_number   1
_chemical_formula_structural   CsLaZnTe3
_chemical_formula_sum   'Cs2 La2 Zn2 Te6'
_cell_volume   483.86706958
_cell_formula_units_Z   2
loop_
 _symmetry_equiv_pos_site_id
 _symmetry_equiv_pos_as_xyz
  1  'x, y, z'
loop_
 _atom_site_type_symbol
 _atom_site_label
 _atom_site_symmetry_multiplicity
 _atom_site_fract_x
 _atom_site_fract_y
 _atom_site_fract_z
 _atom_site_occupancy
  Cs  Cs0  1  0.25677900  0.74322100  0.75000000  1
  Cs  Cs1  1  0.74322100  0.25677900  0.25000000  1
  La  La0  1  0.00000000  0.00000000  0.00000000  1
  La  La1  1  0.00000000  0.00000000  0.50000000  1
  Zn  Zn0  1  0.45986200  0.54013800  0.25000000  1
  Zn  Zn1  1  0.54013800  0.45986200  0.75000000  1
  Te  Te0  1  0.05669100  0.94330900  0.25000000  1
  Te  Te1  1  0.62370200  0.37629800  0.56690900  1
  Te  Te2  1  0.62370200  0.37629800  0.93309100  1
  Te  Te3  1  0.94330900  0.05669100  0.75000000  1
  Te  Te4  1  0.37629800  0.62370200  0.06690900  1
  Te  Te5  1  0.37629800  0.62370200  0.43309100  1
loop_
_geom_bond_atom_site_label_1
_geom_bond_atom_site_label_2
_geom_bond_distance
_geom_bond_site_symmetry_2
Cs0 Te3 3.940411 1_565
Cs0 Te3 3.940411 1_455
Cs0 Te2 3.942471 1_565
Cs0 Te1 3.942471 1_565
Cs0 Te1 3.942471 1_455
Cs0 Te2 3.942471 1_455
Cs0 Te4 4.394728 1_556
Cs0 Te5 4.394728 1_555
Cs1 Te0 3.940411 1_655
Cs1 Te0 3.940411 1_545
Cs1 Te4 3.942471 1_655
Cs1 Te5 3.942471 1_655
Cs1 Te4 3.942471 1_545
Cs1 Te5 3.942471 1_545
Cs1 Te2 4.394728 1_554
Cs1 Te1 4.394728 1_555
La0 Te0 3.216983 1_545
La0 Te3 3.216983 1_454
La0 Te4 3.234924 1_555
La0 Te2 3.234924 1_554
La0 Te2 3.234924 1_444
La0 Te4 3.234924 1_445
La1 Te0 3.216983 1_545
La1 Te3 3.216983 1_455
La1 Te1 3.234924 1_555
La1 Te5 3.234924 1_555
La1 Te1 3.234924 1_445
La1 Te5 3.234924 1_445
Te0 Zn0 2.836769 1_565
Te0 Zn0 2.836769 1_455
Te1 Zn1 2.664273 1_555
Te2 Zn1 2.664273 1_555
Te3 Zn1 2.836769 1_655
Te3 Zn1 2.836769 1_545
Te4 Zn0 2.664273 1_555
Te5 Zn0 2.664273 1_555
