# generated using pymatgen
data_Ba2CaCr2CuF14
_symmetry_space_group_name_H-M   'P 1'
_cell_length_a   7.39438537
_cell_length_b   7.39438537
_cell_length_c   14.72504377
_cell_angle_alpha   88.56628322
_cell_angle_beta   88.56628322
_cell_angle_gamma   42.27118181
_symmetry_Int_Tables_number   1
_chemical_formula_structural   Ba2CaCr2CuF14
_chemical_formula_sum   'Ba4 Ca2 Cr4 Cu2 F28'
_cell_volume   541.36154422
_cell_formula_units_Z   2
loop_
 _symmetry_equiv_pos_site_id
 _symmetry_equiv_pos_as_xyz
  1  'x, y, z'
loop_
 _atom_site_type_symbol
 _atom_site_label
 _atom_site_symmetry_multiplicity
 _atom_site_fract_x
 _atom_site_fract_y
 _atom_site_fract_z
 _atom_site_occupancy
  Ba  Ba0  1  0.74809299  0.87025455  0.61995166  1
  Ba  Ba1  1  0.87025455  0.74809299  0.11995166  1
  Ba  Ba2  1  0.25190701  0.12974545  0.38004834  1
  Ba  Ba3  1  0.12974545  0.25190701  0.88004834  1
  Ca  Ca0  1  0.57763995  0.42236005  0.25000000  1
  Ca  Ca1  1  0.42236005  0.57763995  0.75000000  1
  Cr  Cr0  1  0.89801337  0.86020211  0.37562723  1
  Cr  Cr1  1  0.86020211  0.89801337  0.87562723  1
  Cr  Cr2  1  0.10198663  0.13979789  0.62437277  1
  Cr  Cr3  1  0.13979789  0.10198663  0.12437277  1
  Cu  Cu0  1  0.50000000  0.50000000  0.00000000  1
  Cu  Cu1  1  0.50000000  0.50000000  0.50000000  1
  F  F0  1  0.32949082  0.17563565  0.09193256  1
  F  F1  1  0.67050918  0.82436435  0.90806744  1
  F  F2  1  0.06035697  0.92146850  0.65589560  1
  F  F3  1  0.07853150  0.93964303  0.84410440  1
  F  F4  1  0.12412596  0.70453995  0.48094893  1
  F  F5  1  0.82689735  0.42124688  0.70632913  1
  F  F6  1  0.57875312  0.17310265  0.79367087  1
  F  F7  1  0.17563565  0.32949082  0.59193256  1
  F  F8  1  0.92146850  0.06035697  0.15589560  1
  F  F9  1  0.59908102  0.13744765  0.45353183  1
  F  F10  1  0.13744765  0.59908102  0.95353183  1
  F  F11  1  0.50792261  0.38343438  0.61554255  1
  F  F12  1  0.93964303  0.07853150  0.34410440  1
  F  F13  1  0.42124688  0.82689735  0.20632913  1
  F  F14  1  0.96200620  0.35643064  0.22223009  1
  F  F15  1  0.82436435  0.67050918  0.40806744  1
  F  F16  1  0.70453995  0.12412596  0.98094893  1
  F  F17  1  0.86255235  0.40091898  0.04646817  1
  F  F18  1  0.64356936  0.03799380  0.27776991  1
  F  F19  1  0.35643064  0.96200620  0.72223009  1
  F  F20  1  0.61656562  0.49207739  0.88445745  1
  F  F21  1  0.38343438  0.50792261  0.11554255  1
  F  F22  1  0.40091898  0.86255235  0.54646817  1
  F  F23  1  0.87587404  0.29546005  0.51905107  1
  F  F24  1  0.29546005  0.87587404  0.01905107  1
  F  F25  1  0.03799380  0.64356936  0.77776991  1
  F  F26  1  0.17310265  0.57875312  0.29367087  1
  F  F27  1  0.49207739  0.61656562  0.38445745  1
loop_
_geom_bond_atom_site_label_1
_geom_bond_atom_site_label_2
_geom_bond_distance
_geom_bond_site_symmetry_2
Ba0 F2 2.668386 1_655
Ba0 F7 2.731785 1_655
Ba0 F25 2.746260 1_655
Ba0 F11 2.752749 1_565
Ba0 F9 2.791737 1_565
Ba0 F19 2.835649 1_555
Ba0 F22 2.850041 1_555
Ba0 F4 2.867173 1_655
Ba0 F7 2.892036 1_565
Ba0 F6 3.017072 1_565
Ba0 F5 3.153281 1_555
Ba0 F15 3.338230 1_555
Ba1 F8 2.668386 1_565
Ba1 F0 2.731785 1_565
Ba1 F18 2.746260 1_565
Ba1 F21 2.752749 1_655
Ba1 F10 2.791737 1_654
Ba1 F14 2.835649 1_555
Ba1 F17 2.850041 1_555
Ba1 F16 2.867173 1_564
Ba1 F0 2.892036 1_655
Ba1 F26 3.017072 1_655
Ba1 F13 3.153281 1_555
Ba1 F1 3.338230 1_554
Ba2 F12 2.668386 1_455
Ba2 F15 2.731785 1_455
Ba2 F14 2.746260 1_455
Ba2 F27 2.752749 1_545
Ba2 F22 2.791737 1_545
Ba2 F18 2.835649 1_555
Ba2 F9 2.850041 1_555
Ba2 F23 2.867173 1_455
Ba2 F15 2.892036 1_545
Ba2 F13 3.017072 1_545
Ba2 F26 3.153281 1_555
Ba2 F7 3.338230 1_555
Ba3 F3 2.668386 1_545
Ba3 F1 2.731785 1_545
Ba3 F19 2.746260 1_545
Ba3 F20 2.752749 1_455
Ba3 F17 2.791737 1_456
Ba3 F25 2.835649 1_555
Ba3 F10 2.850041 1_555
Ba3 F24 2.867173 1_546
Ba3 F1 2.892036 1_455
Ba3 F5 3.017072 1_455
Ba3 F6 3.153281 1_555
Ba3 F0 3.338230 1_556
Ca0 F27 2.262175 1_555
Ca0 F21 2.262175 1_555
Ca0 F12 2.342388 1_555
Ca0 F8 2.342388 1_555
Ca0 F26 2.349522 1_555
Ca0 F13 2.349522 1_555
Ca0 F18 2.526650 1_555
Ca0 F14 2.526650 1_555
Ca1 F20 2.262175 1_555
Ca1 F11 2.262175 1_555
Ca1 F3 2.342388 1_555
Ca1 F2 2.342388 1_555
Ca1 F5 2.349522 1_555
Ca1 F6 2.349522 1_555
Ca1 F25 2.526650 1_555
Ca1 F19 2.526650 1_555
Cr0 F15 1.891075 1_555
Cr0 F12 1.899305 1_565
Cr0 F26 1.913899 1_655
Cr0 F9 1.920707 1_565
Cr0 F4 1.928169 1_655
Cr0 F18 1.929983 1_565
Cr1 F1 1.891075 1_555
Cr1 F3 1.899305 1_655
Cr1 F6 1.913899 1_565
Cr1 F10 1.920707 1_655
Cr1 F16 1.928169 1_565
Cr1 F25 1.929983 1_655
Cr2 F7 1.891075 1_555
Cr2 F2 1.899305 1_545
Cr2 F5 1.913899 1_455
Cr2 F22 1.920707 1_545
Cr2 F23 1.928169 1_455
Cr2 F19 1.929983 1_545
Cr3 F0 1.891075 1_555
Cr3 F8 1.899305 1_455
Cr3 F13 1.913899 1_545
Cr3 F17 1.920707 1_455
Cr3 F24 1.928169 1_545
Cr3 F14 1.929983 1_455
Cu0 F21 1.870265 1_555
Cu0 F20 1.870265 1_554
Cu0 F24 1.971722 1_555
Cu0 F16 1.971722 1_554
Cu0 F17 2.313411 1_555
Cu0 F10 2.313411 1_554
Cu1 F11 1.870265 1_555
Cu1 F27 1.870265 1_555
Cu1 F23 1.971722 1_555
Cu1 F4 1.971722 1_555
Cu1 F9 2.313411 1_555
Cu1 F22 2.313411 1_555
