# generated using pymatgen
data_SrTa2Bi2O9
_symmetry_space_group_name_H-M   'P 1'
_cell_length_a   15.18643992
_cell_length_b   15.18643992
_cell_length_c   5.70105600
_cell_angle_alpha   90.00000000
_cell_angle_beta   90.00000000
_cell_angle_gamma   158.75944395
_symmetry_Int_Tables_number   1
_chemical_formula_structural   SrTa2Bi2O9
_chemical_formula_sum   'Sr2 Ta4 Bi4 O18'
_cell_volume   476.33984202
_cell_formula_units_Z   2
loop_
 _symmetry_equiv_pos_site_id
 _symmetry_equiv_pos_as_xyz
  1  'x, y, z'
loop_
 _atom_site_type_symbol
 _atom_site_label
 _atom_site_symmetry_multiplicity
 _atom_site_fract_x
 _atom_site_fract_y
 _atom_site_fract_z
 _atom_site_occupancy
  Sr  Sr0  1  0.25276400  0.25276400  0.02214100  1
  Sr  Sr1  1  0.74723600  0.74723600  0.52214100  1
  Ta  Ta0  1  0.31795600  0.17870900  0.52226000  1
  Ta  Ta1  1  0.17870900  0.31795600  0.52226000  1
  Ta  Ta2  1  0.82129100  0.68204400  0.02226000  1
  Ta  Ta3  1  0.68204400  0.82129100  0.02226000  1
  Bi  Bi0  1  0.45698300  0.05134400  0.49405300  1
  Bi  Bi1  1  0.54301700  0.94865600  0.99405300  1
  Bi  Bi2  1  0.05134400  0.45698300  0.49405300  1
  Bi  Bi3  1  0.94865600  0.54301700  0.99405300  1
  O  O0  1  0.56650900  0.43303700  0.26942100  1
  O  O1  1  0.07167800  0.33783000  0.51874900  1
  O  O2  1  0.23300800  0.78097900  0.23578200  1
  O  O3  1  0.76699300  0.21902100  0.73578200  1
  O  O4  1  0.92832200  0.66217000  0.01874900  1
  O  O5  1  0.94122800  0.05958900  0.77015100  1
  O  O6  1  0.05877200  0.94041100  0.27015100  1
  O  O7  1  0.21902100  0.76699300  0.73578200  1
  O  O8  1  0.72474000  0.72474000  0.01893000  1
  O  O9  1  0.43303700  0.56650900  0.26942100  1
  O  O10  1  0.66217000  0.92832200  0.01874900  1
  O  O11  1  0.43349100  0.56696300  0.76942100  1
  O  O12  1  0.56696300  0.43349100  0.76942100  1
  O  O13  1  0.78097900  0.23300700  0.23578200  1
  O  O14  1  0.27526000  0.27526000  0.51893000  1
  O  O15  1  0.05958900  0.94122800  0.77015100  1
  O  O16  1  0.33783000  0.07167800  0.51874900  1
  O  O17  1  0.94041100  0.05877200  0.27015100  1
loop_
_geom_bond_atom_site_label_1
_geom_bond_atom_site_label_2
_geom_bond_distance
_geom_bond_site_symmetry_2
Bi0 O16 2.105029 1_555
Bi0 O7 2.125020 1_545
Bi0 O2 2.135831 1_545
Bi1 O10 2.105029 1_556
Bi1 O13 2.125020 1_566
Bi1 O3 2.135828 1_565
Bi2 O1 2.105029 1_555
Bi2 O3 2.125020 1_455
Bi2 O13 2.135828 1_455
Bi3 O4 2.105029 1_556
Bi3 O2 2.125026 1_656
Bi3 O7 2.135828 1_655
O0 Ta2 1.995273 1_555
O0 Ta0 2.016489 1_555
O0 Sr0 2.805041 1_555
O0 Sr1 2.822002 1_555
O1 Ta1 1.909970 1_555
O4 Ta2 1.909970 1_555
O5 Ta1 2.005103 1_655
O5 Ta3 2.025265 1_546
O5 Sr1 2.669976 1_545
O5 Sr0 2.679648 1_656
O6 Ta2 2.005103 1_455
O6 Ta0 2.025265 1_565
O6 Sr0 2.669976 1_565
O6 Sr1 2.679648 1_455
O8 Ta2 2.083987 1_555
O8 Ta3 2.083987 1_555
O8 Sr0 2.642043 1_555
O8 Sr1 2.835020 1_554
O8 Sr1 2.871596 1_555
O8 Sr0 2.955776 1_665
O9 Ta3 1.995273 1_555
O9 Ta1 2.016489 1_555
O9 Sr0 2.805041 1_555
O9 Sr1 2.822002 1_555
O10 Ta3 1.909970 1_555
O11 Ta1 1.995273 1_555
O11 Ta3 2.016489 1_556
O11 Sr1 2.805041 1_555
O11 Sr0 2.822002 1_556
O12 Ta0 1.995273 1_555
O12 Ta2 2.016489 1_556
O12 Sr1 2.805041 1_555
O12 Sr0 2.822002 1_556
O14 Ta0 2.083987 1_555
O14 Ta1 2.083987 1_555
O14 Sr1 2.642043 1_555
O14 Sr0 2.835020 1_555
O14 Sr0 2.871596 1_556
O14 Sr1 2.955776 1_445
O15 Ta0 2.005103 1_565
O15 Ta2 2.025265 1_456
O15 Sr1 2.669976 1_455
O15 Sr0 2.679648 1_566
O16 Ta0 1.909970 1_555
O17 Ta3 2.005103 1_545
O17 Ta1 2.025265 1_655
O17 Sr0 2.669976 1_655
O17 Sr1 2.679648 1_545
