# generated using pymatgen
data_Nd2Ta2Cl2O7
_symmetry_space_group_name_H-M   'P 1'
_cell_length_a   8.02766699
_cell_length_b   8.02766699
_cell_length_c   6.95337202
_cell_angle_alpha   66.96481878
_cell_angle_beta   66.96481878
_cell_angle_gamma   28.52046223
_symmetry_Int_Tables_number   1
_chemical_formula_structural   Nd2Ta2Cl2O7
_chemical_formula_sum   'Nd2 Ta2 Cl2 O7'
_cell_volume   195.74220855
_cell_formula_units_Z   1
loop_
 _symmetry_equiv_pos_site_id
 _symmetry_equiv_pos_as_xyz
  1  'x, y, z'
loop_
 _atom_site_type_symbol
 _atom_site_label
 _atom_site_symmetry_multiplicity
 _atom_site_fract_x
 _atom_site_fract_y
 _atom_site_fract_z
 _atom_site_occupancy
  Nd  Nd0  1  0.30743700  0.30743700  0.16444600  1
  Nd  Nd1  1  0.69256300  0.69256300  0.83555400  1
  Ta  Ta0  1  0.96524400  0.96524400  0.79916700  1
  Ta  Ta1  1  0.03475600  0.03475600  0.20083300  1
  Cl  Cl0  1  0.67879000  0.67879000  0.43446000  1
  Cl  Cl1  1  0.32121000  0.32121000  0.56554000  1
  O  O0  1  0.45445100  0.45445100  0.83687500  1
  O  O1  1  0.54554900  0.54554900  0.16312500  1
  O  O2  1  0.91876800  0.91876800  0.15313900  1
  O  O3  1  0.00000000  0.00000000  0.50000000  1
  O  O4  1  0.82516900  0.82516900  0.93098200  1
  O  O5  1  0.08123200  0.08123200  0.84686100  1
  O  O6  1  0.17483100  0.17483100  0.06901800  1
loop_
_geom_bond_atom_site_label_1
_geom_bond_atom_site_label_2
_geom_bond_distance
_geom_bond_site_symmetry_2
Nd0 O6 2.409071 1_555
Nd0 O0 2.492762 1_554
Nd0 O4 2.501993 1_544
Nd0 O4 2.501993 1_454
Nd0 O2 2.609129 1_455
Nd0 O2 2.609129 1_545
Nd1 O4 2.409071 1_555
Nd1 O1 2.492762 1_556
Nd1 O6 2.501993 1_566
Nd1 O6 2.501993 1_656
Nd1 O5 2.609129 1_655
Nd1 O5 2.609129 1_565
Cl0 Nd1 2.882160 1_555
Cl0 Nd0 2.899606 1_565
Cl0 Nd0 2.899606 1_655
Cl1 Nd0 2.882160 1_555
Cl1 Nd1 2.899606 1_545
Cl1 Nd1 2.899606 1_455
O0 Ta0 1.992890 1_545
O0 Ta0 1.992890 1_455
O1 Ta1 1.992890 1_655
O1 Ta1 1.992890 1_565
O2 Ta1 1.962335 1_665
O2 Ta0 2.267973 1_554
O3 Ta0 1.926491 1_445
O3 Ta1 1.926491 1_555
O4 Ta0 1.994446 1_555
O5 Ta0 1.962335 1_445
O5 Ta1 2.267973 1_556
O6 Ta1 1.994446 1_555
