# generated using pymatgen
data_RbLu(SO4)2
_symmetry_space_group_name_H-M   'P 1'
_cell_length_a   5.11675900
_cell_length_b   7.71479000
_cell_length_c   8.90517213
_cell_angle_alpha   84.72101915
_cell_angle_beta   90.00000000
_cell_angle_gamma   90.00000000
_symmetry_Int_Tables_number   1
_chemical_formula_structural   RbLu(SO4)2
_chemical_formula_sum   'Rb2 Lu2 S4 O16'
_cell_volume   350.03818194
_cell_formula_units_Z   2
loop_
 _symmetry_equiv_pos_site_id
 _symmetry_equiv_pos_as_xyz
  1  'x, y, z'
loop_
 _atom_site_type_symbol
 _atom_site_label
 _atom_site_symmetry_multiplicity
 _atom_site_fract_x
 _atom_site_fract_y
 _atom_site_fract_z
 _atom_site_occupancy
  Rb  Rb0  1  0.81139100  0.75000000  0.50000000  1
  Rb  Rb1  1  0.18860900  0.25000000  0.50000000  1
  Lu  Lu0  1  0.10462900  0.25000000  0.00000000  1
  Lu  Lu1  1  0.89537100  0.75000000  0.00000000  1
  S  S0  1  0.67900600  0.34489900  0.21100900  1
  S  S1  1  0.32099400  0.84489900  0.21100900  1
  S  S2  1  0.32099400  0.65510100  0.78899100  1
  S  S3  1  0.67900600  0.15510100  0.78899100  1
  O  O0  1  0.59300400  0.70067800  0.82971000  1
  O  O1  1  0.31716100  0.92274400  0.35372900  1
  O  O2  1  0.79592500  0.03790900  0.91909800  1
  O  O3  1  0.20407500  0.96209100  0.08090200  1
  O  O4  1  0.68283900  0.07725600  0.64627100  1
  O  O5  1  0.85138700  0.31243500  0.78579500  1
  O  O6  1  0.68283900  0.42274400  0.35372900  1
  O  O7  1  0.14861300  0.68756500  0.21420500  1
  O  O8  1  0.40699600  0.20067800  0.82971000  1
  O  O9  1  0.20407500  0.53790900  0.91909800  1
  O  O10  1  0.79592500  0.46209100  0.08090200  1
  O  O11  1  0.40699600  0.29932200  0.17029000  1
  O  O12  1  0.85138700  0.18756500  0.21420500  1
  O  O13  1  0.14861300  0.81243500  0.78579500  1
  O  O14  1  0.59300400  0.79932200  0.17029000  1
  O  O15  1  0.31716100  0.57725600  0.64627100  1
loop_
_geom_bond_atom_site_label_1
_geom_bond_atom_site_label_2
_geom_bond_distance
_geom_bond_site_symmetry_2
Lu0 O8 2.223570 1_554
Lu0 O11 2.223570 1_555
Lu0 O12 2.319625 1_455
Lu0 O5 2.319625 1_454
Lu0 O9 2.327454 1_554
Lu0 O3 2.327454 1_545
Lu0 O10 2.430690 1_455
Lu0 O2 2.430690 1_454
Lu1 O0 2.223570 1_554
Lu1 O14 2.223570 1_555
Lu1 O7 2.319625 1_655
Lu1 O13 2.319625 1_654
Lu1 O2 2.327454 1_564
Lu1 O10 2.327454 1_555
Lu1 O3 2.430690 1_655
Lu1 O9 2.430690 1_654
O0 S2 1.488528 1_555
O0 Rb0 3.131883 1_555
O1 S1 1.454926 1_555
O1 Rb1 3.018054 1_565
O1 Rb0 3.090051 1_555
O1 Rb0 3.138558 1_455
O2 S3 1.524786 1_555
O3 S1 1.524786 1_555
O4 S3 1.454926 1_555
O4 Rb0 3.018054 1_545
O4 Rb1 3.090051 1_555
O4 Rb1 3.138558 1_655
O5 S3 1.498580 1_555
O5 Rb1 3.148361 1_655
O6 S0 1.454926 1_555
O6 Rb0 3.018054 1_555
O6 Rb1 3.090051 1_555
O6 Rb1 3.138558 1_655
O7 S1 1.498580 1_555
O7 Rb0 3.148361 1_455
O8 S3 1.488528 1_555
O8 Rb1 3.131883 1_555
O9 S2 1.524786 1_555
O10 S0 1.524786 1_555
O11 S0 1.488528 1_555
O11 Rb1 3.131883 1_555
O12 S0 1.498580 1_555
O12 Rb1 3.148361 1_655
O13 S2 1.498580 1_555
O13 Rb0 3.148361 1_455
O14 S1 1.488528 1_555
O14 Rb0 3.131883 1_555
O15 S2 1.454926 1_555
O15 Rb1 3.018054 1_555
O15 Rb0 3.090051 1_555
O15 Rb0 3.138558 1_455
