# generated using pymatgen
data_Mo6PbI14
_symmetry_space_group_name_H-M   'P 1'
_cell_length_a   14.85007800
_cell_length_b   14.85007800
_cell_length_c   14.85007800
_cell_angle_alpha   90.00000000
_cell_angle_beta   90.00000000
_cell_angle_gamma   90.00000000
_symmetry_Int_Tables_number   1
_chemical_formula_structural   Mo6PbI14
_chemical_formula_sum   'Mo24 Pb4 I56'
_cell_volume   3274.81072754
_cell_formula_units_Z   4
loop_
 _symmetry_equiv_pos_site_id
 _symmetry_equiv_pos_as_xyz
  1  'x, y, z'
loop_
 _atom_site_type_symbol
 _atom_site_label
 _atom_site_symmetry_multiplicity
 _atom_site_fract_x
 _atom_site_fract_y
 _atom_site_fract_z
 _atom_site_occupancy
  Mo  Mo0  1  0.78164300  0.87176800  0.72484400  1
  Mo  Mo1  1  0.72484400  0.78164300  0.87176800  1
  Mo  Mo2  1  0.62823200  0.22484400  0.28164300  1
  Mo  Mo3  1  0.27515600  0.21835700  0.87176800  1
  Mo  Mo4  1  0.77515600  0.28164300  0.37176800  1
  Mo  Mo5  1  0.37176800  0.77515600  0.28164300  1
  Mo  Mo6  1  0.77515600  0.71835700  0.62823200  1
  Mo  Mo7  1  0.22484400  0.71835700  0.37176800  1
  Mo  Mo8  1  0.28164300  0.37176800  0.77515600  1
  Mo  Mo9  1  0.28164300  0.62823200  0.22484400  1
  Mo  Mo10  1  0.37176800  0.22484400  0.71835700  1
  Mo  Mo11  1  0.22484400  0.28164300  0.62823200  1
  Mo  Mo12  1  0.87176800  0.72484400  0.78164300  1
  Mo  Mo13  1  0.71835700  0.62823200  0.77515600  1
  Mo  Mo14  1  0.71835700  0.37176800  0.22484400  1
  Mo  Mo15  1  0.87176800  0.27515600  0.21835700  1
  Mo  Mo16  1  0.12823200  0.27515600  0.78164300  1
  Mo  Mo17  1  0.21835700  0.12823200  0.72484400  1
  Mo  Mo18  1  0.12823200  0.72484400  0.21835700  1
  Mo  Mo19  1  0.62823200  0.77515600  0.71835700  1
  Mo  Mo20  1  0.27515600  0.78164300  0.12823200  1
  Mo  Mo21  1  0.21835700  0.87176800  0.27515600  1
  Mo  Mo22  1  0.72484400  0.21835700  0.12823200  1
  Mo  Mo23  1  0.78164300  0.12823200  0.27515600  1
  Pb  Pb0  1  0.75000000  0.75000000  0.25000000  1
  Pb  Pb1  1  0.25000000  0.25000000  0.25000000  1
  Pb  Pb2  1  0.25000000  0.75000000  0.75000000  1
  Pb  Pb3  1  0.75000000  0.25000000  0.75000000  1
  I  I0  1  0.13082400  0.56496200  0.31684900  1
  I  I1  1  0.05598000  0.68197100  0.83293400  1
  I  I2  1  0.63082400  0.93503800  0.81684900  1
  I  I3  1  0.36917600  0.93503800  0.18315100  1
  I  I4  1  0.43503800  0.68315100  0.13082400  1
  I  I5  1  0.18315100  0.36917600  0.93503800  1
  I  I6  1  0.11668400  0.88331600  0.11668400  1
  I  I7  1  0.33293400  0.44402000  0.18197100  1
  I  I8  1  0.31684900  0.86917600  0.43503800  1
  I  I9  1  0.68315100  0.86917600  0.56496200  1
  I  I10  1  0.88331600  0.11668400  0.11668400  1
  I  I11  1  0.18197100  0.33293400  0.44402000  1
  I  I12  1  0.86917600  0.43503800  0.31684900  1
  I  I13  1  0.93503800  0.18315100  0.36917600  1
  I  I14  1  0.66706600  0.44402000  0.81802900  1
  I  I15  1  0.55598000  0.81802900  0.33293400  1
  I  I16  1  0.31802900  0.83293400  0.94402000  1
  I  I17  1  0.38331600  0.38331600  0.61668400  1
  I  I18  1  0.55598000  0.18197100  0.66706600  1
  I  I19  1  0.44402000  0.18197100  0.33293400  1
  I  I20  1  0.11668400  0.11668400  0.88331600  1
  I  I21  1  0.61668400  0.38331600  0.38331600  1
  I  I22  1  0.94402000  0.31802900  0.83293400  1
  I  I23  1  0.38331600  0.61668400  0.38331600  1
  I  I24  1  0.86917600  0.56496200  0.68315100  1
  I  I25  1  0.63082400  0.06496200  0.18315100  1
  I  I26  1  0.94402000  0.68197100  0.16706600  1
  I  I27  1  0.06496200  0.81684900  0.36917600  1
  I  I28  1  0.18315100  0.63082400  0.06496200  1
  I  I29  1  0.68197100  0.83293400  0.05598000  1
  I  I30  1  0.33293400  0.55598000  0.81802900  1
  I  I31  1  0.88331600  0.88331600  0.88331600  1
  I  I32  1  0.81684900  0.36917600  0.06496200  1
  I  I33  1  0.61668400  0.61668400  0.61668400  1
  I  I34  1  0.05598000  0.31802900  0.16706600  1
  I  I35  1  0.31684900  0.13082400  0.56496200  1
  I  I36  1  0.93503800  0.81684900  0.63082400  1
  I  I37  1  0.18197100  0.66706600  0.55598000  1
  I  I38  1  0.83293400  0.05598000  0.68197100  1
  I  I39  1  0.06496200  0.18315100  0.63082400  1
  I  I40  1  0.44402000  0.81802900  0.66706600  1
  I  I41  1  0.66706600  0.55598000  0.18197100  1
  I  I42  1  0.81684900  0.63082400  0.93503800  1
  I  I43  1  0.81802900  0.66706600  0.44402000  1
  I  I44  1  0.56496200  0.31684900  0.13082400  1
  I  I45  1  0.16706600  0.05598000  0.31802900  1
  I  I46  1  0.31802900  0.16706600  0.05598000  1
  I  I47  1  0.13082400  0.43503800  0.68315100  1
  I  I48  1  0.81802900  0.33293400  0.55598000  1
  I  I49  1  0.68197100  0.16706600  0.94402000  1
  I  I50  1  0.43503800  0.31684900  0.86917600  1
  I  I51  1  0.83293400  0.94402000  0.31802900  1
  I  I52  1  0.56496200  0.68315100  0.86917600  1
  I  I53  1  0.36917600  0.06496200  0.81684900  1
  I  I54  1  0.16706600  0.94402000  0.68197100  1
  I  I55  1  0.68315100  0.13082400  0.43503800  1
loop_
_geom_bond_atom_site_label_1
_geom_bond_atom_site_label_2
_geom_bond_distance
_geom_bond_site_symmetry_2
Mo0 Mo19 2.694006 1_555
Mo0 Mo6 2.694006 1_555
Mo0 Mo12 2.695005 1_555
Mo0 Mo1 2.695005 1_555
Mo1 Mo13 2.694006 1_555
Mo1 Mo19 2.694006 1_555
Mo1 Mo12 2.695005 1_555
Mo2 Mo23 2.694006 1_555
Mo2 Mo22 2.694006 1_555
Mo2 Mo4 2.695005 1_555
Mo3 Mo8 2.694006 1_555
Mo5 Mo9 2.695005 1_555
Mo5 Mo7 2.695005 1_555
Mo7 Mo9 2.695005 1_555
Mo10 Mo3 2.694006 1_555
Mo10 Mo17 2.694006 1_555
Mo10 Mo11 2.695005 1_555
Mo10 Mo8 2.695005 1_555
Mo11 Mo16 2.694006 1_555
Mo11 Mo17 2.694006 1_555
Mo11 Mo8 2.695005 1_555
Mo12 Mo13 2.694006 1_555
Mo12 Mo6 2.694006 1_555
Mo13 Mo6 2.695005 1_555
Mo13 Mo19 2.695005 1_555
Mo14 Mo15 2.694006 1_555
Mo14 Mo22 2.694006 1_555
Mo14 Mo4 2.695005 1_555
Mo14 Mo2 2.695005 1_555
Mo15 Mo4 2.694006 1_555
Mo15 Mo22 2.695005 1_555
Mo15 Mo23 2.695005 1_555
Mo16 Mo8 2.694006 1_555
Mo16 Mo17 2.695005 1_555
Mo16 Mo3 2.695005 1_555
Mo17 Mo3 2.695005 1_555
Mo18 Mo7 2.694006 1_555
Mo18 Mo9 2.694006 1_555
Mo18 Mo21 2.695005 1_555
Mo18 Mo20 2.695005 1_555
Mo19 Mo6 2.695005 1_555
Mo20 Mo5 2.694006 1_555
Mo20 Mo9 2.694006 1_555
Mo20 Mo21 2.695005 1_555
Mo21 Mo7 2.694006 1_555
Mo21 Mo5 2.694006 1_555
Mo22 Mo23 2.695005 1_555
Mo23 Mo4 2.694006 1_555
I0 Mo9 2.786691 1_555
I0 Mo18 2.788877 1_555
I0 Mo7 2.793468 1_555
I1 Mo12 2.910120 1_455
I1 Pb2 3.292224 1_555
I2 Mo0 2.786691 1_555
I2 Mo19 2.788877 1_555
I2 Mo1 2.793468 1_555
I3 Mo21 2.786691 1_555
I3 Mo5 2.788877 1_555
I3 Mo20 2.793468 1_555
I4 Mo5 2.786691 1_555
I4 Mo20 2.788877 1_555
I4 Mo9 2.793468 1_555
I5 Mo3 2.786691 1_555
I5 Mo8 2.788877 1_555
I5 Mo16 2.793468 1_555
I6 Mo18 2.801283 1_555
I6 Mo20 2.801283 1_555
I6 Mo21 2.801283 1_555
I7 Mo9 2.910120 1_555
I7 Pb1 3.292224 1_555
I8 Mo7 2.786691 1_555
I8 Mo21 2.788877 1_555
I8 Mo5 2.793468 1_555
I9 Mo6 2.786691 1_555
I9 Mo0 2.788877 1_555
I9 Mo19 2.793468 1_555
I10 Mo22 2.801283 1_555
I10 Mo15 2.801283 1_555
I10 Mo23 2.801283 1_555
I11 Mo11 2.910120 1_555
I11 Pb1 3.292224 1_555
I12 Mo14 2.786691 1_555
I12 Mo15 2.788877 1_555
I12 Mo4 2.793468 1_555
I13 Mo15 2.786691 1_555
I13 Mo4 2.788877 1_555
I13 Mo23 2.793468 1_555
I14 Mo13 2.910120 1_555
I14 Pb3 3.292224 1_555
I15 Mo5 2.910120 1_555
I15 Pb0 3.292224 1_555
I16 Mo20 2.910120 1_556
I16 Pb2 3.292224 1_555
I17 Mo8 2.801283 1_555
I17 Mo10 2.801283 1_555
I17 Mo11 2.801283 1_555
I18 Mo10 2.910120 1_555
I18 Pb3 3.292224 1_555
I19 Mo2 2.910120 1_555
I19 Pb1 3.292224 1_555
I20 Mo17 2.801283 1_555
I20 Mo3 2.801283 1_555
I20 Mo16 2.801283 1_555
I21 Mo4 2.801283 1_555
I21 Mo14 2.801283 1_555
I21 Mo2 2.801283 1_555
I22 Mo16 2.910120 1_655
I22 Pb3 3.292224 1_555
I23 Mo5 2.801283 1_555
I23 Mo9 2.801283 1_555
I23 Mo7 2.801283 1_555
I24 Mo13 2.786691 1_555
I24 Mo12 2.788877 1_555
I24 Mo6 2.793468 1_555
I25 Mo23 2.786691 1_555
I25 Mo2 2.788877 1_555
I25 Mo22 2.793468 1_555
I26 Mo18 2.910120 1_655
I26 Pb0 3.292224 1_555
I27 Mo18 2.786691 1_555
I27 Mo7 2.788877 1_555
I27 Mo21 2.793468 1_555
I28 Mo20 2.786691 1_555
I28 Mo9 2.788877 1_555
I28 Mo18 2.793468 1_555
I29 Mo1 2.910120 1_554
I29 Pb0 3.292224 1_555
I30 Mo8 2.910120 1_555
I30 Pb2 3.292224 1_555
I31 Mo0 2.801283 1_555
I31 Mo12 2.801283 1_555
I31 Mo1 2.801283 1_555
I32 Mo22 2.786691 1_555
I32 Mo14 2.788877 1_555
I32 Mo15 2.793468 1_555
I33 Mo19 2.801283 1_555
I33 Mo6 2.801283 1_555
I33 Mo13 2.801283 1_555
I34 Mo15 2.910120 1_455
I34 Pb1 3.292224 1_555
I35 Mo11 2.786691 1_555
I35 Mo17 2.788877 1_555
I35 Mo10 2.793468 1_555
I36 Mo12 2.786691 1_555
I36 Mo6 2.788877 1_555
I36 Mo0 2.793468 1_555
I37 Mo7 2.910120 1_555
I37 Pb2 3.292224 1_555
I38 Mo0 2.910120 1_545
I38 Pb3 3.292224 1_555
I39 Mo16 2.786691 1_555
I39 Mo11 2.788877 1_555
I39 Mo17 2.793468 1_555
I40 Mo19 2.910120 1_555
I40 Pb2 3.292224 1_555
I41 Mo14 2.910120 1_555
I41 Pb0 3.292224 1_555
I42 Mo1 2.786691 1_555
I42 Mo13 2.788877 1_555
I42 Mo12 2.793468 1_555
I43 Mo6 2.910120 1_555
I43 Pb0 3.292224 1_555
I44 Mo2 2.786691 1_555
I44 Mo22 2.788877 1_555
I44 Mo14 2.793468 1_555
I45 Mo21 2.910120 1_545
I45 Pb1 3.292224 1_555
I46 Mo3 2.910120 1_554
I46 Pb1 3.292224 1_555
I47 Mo8 2.786691 1_555
I47 Mo16 2.788877 1_555
I47 Mo11 2.793468 1_555
I48 Mo4 2.910120 1_555
I48 Pb3 3.292224 1_555
I49 Mo22 2.910120 1_556
I49 Pb3 3.292224 1_555
I50 Mo10 2.786691 1_555
I50 Mo3 2.788877 1_555
I50 Mo8 2.793468 1_555
I51 Mo23 2.910120 1_565
I51 Pb0 3.292224 1_555
I52 Mo19 2.786691 1_555
I52 Mo1 2.788877 1_555
I52 Mo13 2.793468 1_555
I53 Mo17 2.786691 1_555
I53 Mo10 2.788877 1_555
I53 Mo3 2.793468 1_555
I54 Mo17 2.910120 1_565
I54 Pb2 3.292224 1_555
I55 Mo4 2.786691 1_555
I55 Mo23 2.788877 1_555
I55 Mo2 2.793468 1_555
