# generated using pymatgen
data_Sm3SiS6Cl
_symmetry_space_group_name_H-M   'P 1'
_cell_length_a   10.37551700
_cell_length_b   12.48409000
_cell_length_c   16.23512900
_cell_angle_alpha   90.00000000
_cell_angle_beta   90.00000000
_cell_angle_gamma   90.00000000
_symmetry_Int_Tables_number   1
_chemical_formula_structural   Sm3SiS6Cl
_chemical_formula_sum   'Sm24 Si8 S48 Cl8'
_cell_volume   2102.91820630
_cell_formula_units_Z   8
loop_
 _symmetry_equiv_pos_site_id
 _symmetry_equiv_pos_as_xyz
  1  'x, y, z'
loop_
 _atom_site_type_symbol
 _atom_site_label
 _atom_site_symmetry_multiplicity
 _atom_site_fract_x
 _atom_site_fract_y
 _atom_site_fract_z
 _atom_site_occupancy
  Sm  Sm0  1  0.75000000  0.88404100  0.12351700  1
  Sm  Sm1  1  0.75000000  0.38404100  0.37648300  1
  Sm  Sm2  1  0.95635200  0.31247100  0.59527200  1
  Sm  Sm3  1  0.96403200  0.61835400  0.11171700  1
  Sm  Sm4  1  0.75000000  0.12318900  0.86175000  1
  Sm  Sm5  1  0.25000000  0.11595900  0.87648300  1
  Sm  Sm6  1  0.45635200  0.18752900  0.09527200  1
  Sm  Sm7  1  0.53596800  0.11835400  0.38828300  1
  Sm  Sm8  1  0.04364800  0.68752900  0.40472800  1
  Sm  Sm9  1  0.45635200  0.68752900  0.40472800  1
  Sm  Sm10  1  0.54364800  0.31247100  0.59527200  1
  Sm  Sm11  1  0.03596800  0.88164600  0.61171700  1
  Sm  Sm12  1  0.54364800  0.81247100  0.90472800  1
  Sm  Sm13  1  0.95635200  0.81247100  0.90472800  1
  Sm  Sm14  1  0.04364800  0.18752900  0.09527200  1
  Sm  Sm15  1  0.53596800  0.61835400  0.11171700  1
  Sm  Sm16  1  0.96403200  0.11835400  0.38828300  1
  Sm  Sm17  1  0.03596800  0.38164600  0.88828300  1
  Sm  Sm18  1  0.75000000  0.62318900  0.63825000  1
  Sm  Sm19  1  0.25000000  0.37681100  0.36175000  1
  Sm  Sm20  1  0.46403200  0.88164600  0.61171700  1
  Sm  Sm21  1  0.46403200  0.38164600  0.88828300  1
  Sm  Sm22  1  0.25000000  0.61595900  0.62351700  1
  Sm  Sm23  1  0.25000000  0.87681100  0.13825000  1
  Si  Si0  1  0.25000000  0.11636200  0.25936200  1
  Si  Si1  1  0.25000000  0.61636200  0.24063800  1
  Si  Si2  1  0.75000000  0.88363800  0.74063800  1
  Si  Si3  1  0.25000000  0.33607900  0.72280000  1
  Si  Si4  1  0.75000000  0.66392100  0.27720000  1
  Si  Si5  1  0.25000000  0.83607900  0.77720000  1
  Si  Si6  1  0.75000000  0.16392100  0.22280000  1
  Si  Si7  1  0.75000000  0.38363800  0.75936200  1
  S  S0  1  0.25000000  0.38193000  0.59699600  1
  S  S1  1  0.41863800  0.02788900  0.22946100  1
  S  S2  1  0.98997400  0.65763400  0.56839300  1
  S  S3  1  0.51002600  0.65763400  0.56839300  1
  S  S4  1  0.75000000  0.72949600  0.80136200  1
  S  S5  1  0.75000000  0.11807000  0.09699600  1
  S  S6  1  0.91045100  0.76134300  0.24564400  1
  S  S7  1  0.25000000  0.47946200  0.79289300  1
  S  S8  1  0.48997400  0.34236600  0.43160700  1
  S  S9  1  0.08136200  0.52788900  0.27053900  1
  S  S10  1  0.25000000  0.64442400  0.11154900  1
  S  S11  1  0.25000000  0.14442400  0.38845100  1
  S  S12  1  0.01002600  0.34236600  0.43160700  1
  S  S13  1  0.41045100  0.23865700  0.75435600  1
  S  S14  1  0.08954900  0.73865700  0.74564400  1
  S  S15  1  0.75000000  0.52053800  0.20710700  1
  S  S16  1  0.75000000  0.85557600  0.61154900  1
  S  S17  1  0.08136200  0.02788900  0.22946100  1
  S  S18  1  0.75000000  0.68610200  0.02859500  1
  S  S19  1  0.25000000  0.97946200  0.70710700  1
  S  S20  1  0.41863800  0.52788900  0.27053900  1
  S  S21  1  0.58954900  0.26134300  0.25435600  1
  S  S22  1  0.58954900  0.76134300  0.24564400  1
  S  S23  1  0.58136200  0.47211100  0.72946100  1
  S  S24  1  0.25000000  0.56341800  0.45286400  1
  S  S25  1  0.75000000  0.18610200  0.47140500  1
  S  S26  1  0.08954900  0.23865700  0.75435600  1
  S  S27  1  0.75000000  0.93658200  0.95286400  1
  S  S28  1  0.75000000  0.35557600  0.88845100  1
  S  S29  1  0.48997400  0.84236600  0.06839300  1
  S  S30  1  0.41045100  0.73865700  0.74564400  1
  S  S31  1  0.25000000  0.27050400  0.19863800  1
  S  S32  1  0.75000000  0.02053800  0.29289300  1
  S  S33  1  0.75000000  0.43658200  0.54713600  1
  S  S34  1  0.98997400  0.15763400  0.93160700  1
  S  S35  1  0.25000000  0.81389800  0.52859500  1
  S  S36  1  0.75000000  0.61807000  0.40300400  1
  S  S37  1  0.25000000  0.31389800  0.97140500  1
  S  S38  1  0.01002600  0.84236600  0.06839300  1
  S  S39  1  0.91863800  0.97211100  0.77053900  1
  S  S40  1  0.58136200  0.97211100  0.77053900  1
  S  S41  1  0.91863800  0.47211100  0.72946100  1
  S  S42  1  0.25000000  0.06341800  0.04713600  1
  S  S43  1  0.75000000  0.22949600  0.69863800  1
  S  S44  1  0.25000000  0.77050400  0.30136200  1
  S  S45  1  0.25000000  0.88193000  0.90300400  1
  S  S46  1  0.51002600  0.15763400  0.93160700  1
  S  S47  1  0.91045100  0.26134300  0.25435600  1
  Cl  Cl0  1  0.45719500  0.10351200  0.56003200  1
  Cl  Cl1  1  0.45719500  0.60351200  0.93996800  1
  Cl  Cl2  1  0.95719500  0.39648800  0.06003200  1
  Cl  Cl3  1  0.04280500  0.60351200  0.93996800  1
  Cl  Cl4  1  0.95719500  0.89648800  0.43996800  1
  Cl  Cl5  1  0.54280500  0.89648800  0.43996800  1
  Cl  Cl6  1  0.54280500  0.39648800  0.06003200  1
  Cl  Cl7  1  0.04280500  0.10351200  0.56003200  1
loop_
_geom_bond_atom_site_label_1
_geom_bond_atom_site_label_2
_geom_bond_distance
_geom_bond_site_symmetry_2
S0 Si3 2.121139 1_555
S0 Sm22 2.953196 1_555
S0 Sm2 3.167868 1_455
S0 Sm10 3.167868 1_555
S1 Si0 2.125338 1_555
S1 Sm23 2.968429 1_545
S1 Sm6 2.978456 1_555
S1 Sm7 3.066935 1_555
S2 Sm8 2.740387 1_655
S2 Sm18 2.769577 1_555
S2 Sm22 2.889688 1_655
S2 Sm11 2.922902 1_655
S3 Sm9 2.740387 1_555
S3 Sm18 2.769577 1_555
S3 Sm22 2.889688 1_555
S3 Sm20 2.922902 1_555
S4 Si2 2.162161 1_555
S4 Sm13 2.910870 1_555
S4 Sm12 2.910870 1_555
S4 Sm18 2.962091 1_555
S5 Si6 2.121139 1_555
S5 Sm0 2.953196 1_545
S5 Sm14 3.167868 1_655
S5 Sm6 3.167868 1_555
S6 Si4 2.124407 1_555
S6 Sm3 2.867625 1_555
S6 Sm0 3.008164 1_555
S6 Sm8 3.070773 1_655
S7 Si3 2.121107 1_555
S7 Sm17 2.970024 1_555
S7 Sm21 2.970024 1_555
S7 Sm22 3.235024 1_555
S8 Sm10 2.740387 1_555
S8 Sm19 2.769577 1_555
S8 Sm1 2.889688 1_555
S8 Sm7 2.922902 1_555
S9 Si1 2.125338 1_555
S9 Sm19 2.968429 1_555
S9 Sm8 2.978456 1_555
S9 Sm3 3.066935 1_455
S10 Si1 2.124855 1_555
S10 Sm23 2.933348 1_555
S10 Sm3 2.984864 1_455
S10 Sm15 2.984864 1_555
S11 Si0 2.124855 1_555
S11 Sm19 2.933348 1_555
S11 Sm7 2.984864 1_555
S11 Sm16 2.984864 1_455
S12 Sm2 2.740387 1_455
S12 Sm19 2.769577 1_555
S12 Sm1 2.889688 1_455
S12 Sm16 2.922902 1_455
S13 Si3 2.124407 1_555
S13 Sm21 2.867625 1_555
S13 Sm5 3.008164 1_555
S13 Sm10 3.070773 1_555
S14 Si5 2.124407 1_555
S14 Sm11 2.867625 1_555
S14 Sm22 3.008164 1_555
S14 Sm13 3.070773 1_455
S15 Si4 2.121107 1_555
S15 Sm15 2.970024 1_555
S15 Sm3 2.970024 1_555
S15 Sm1 3.235024 1_555
S16 Si2 2.124855 1_555
S16 Sm18 2.933348 1_555
S16 Sm20 2.984864 1_555
S16 Sm11 2.984864 1_655
S17 Si0 2.125338 1_555
S17 Sm23 2.968429 1_545
S17 Sm14 2.978456 1_555
S17 Sm16 3.066935 1_455
S18 Sm3 2.732754 1_555
S18 Sm15 2.732754 1_555
S18 Sm0 2.912246 1_555
S18 Sm12 3.334195 1_554
S18 Sm13 3.334195 1_554
S19 Si5 2.121107 1_555
S19 Sm11 2.970024 1_555
S19 Sm20 2.970024 1_555
S19 Sm5 3.235024 1_565
S20 Si1 2.125338 1_555
S20 Sm19 2.968429 1_555
S20 Sm9 2.978456 1_555
S20 Sm15 3.066935 1_555
S21 Si6 2.124407 1_555
S21 Sm7 2.867625 1_555
S21 Sm1 3.008164 1_555
S21 Sm6 3.070773 1_555
S22 Si4 2.124407 1_555
S22 Sm15 2.867625 1_555
S22 Sm0 3.008164 1_555
S22 Sm9 3.070773 1_555
S23 Si7 2.125338 1_555
S23 Sm18 2.968429 1_555
S23 Sm10 2.978456 1_555
S23 Sm21 3.066935 1_555
S24 Sm9 2.755963 1_555
S24 Sm8 2.755963 1_555
S24 Sm19 2.759583 1_555
S24 Sm22 2.847159 1_555
S25 Sm16 2.732754 1_555
S25 Sm7 2.732754 1_555
S25 Sm1 2.912246 1_555
S25 Sm10 3.334195 1_555
S25 Sm2 3.334195 1_555
S26 Si3 2.124407 1_555
S26 Sm17 2.867625 1_555
S26 Sm5 3.008164 1_555
S26 Sm2 3.070773 1_455
S27 Sm12 2.755963 1_555
S27 Sm13 2.755963 1_555
S27 Sm4 2.759583 1_565
S27 Sm0 2.847159 1_556
S28 Si7 2.124855 1_555
S28 Sm4 2.933348 1_555
S28 Sm17 2.984864 1_655
S28 Sm21 2.984864 1_555
S29 Sm12 2.740387 1_554
S29 Sm23 2.769577 1_555
S29 Sm0 2.889688 1_555
S29 Sm15 2.922902 1_555
S30 Si5 2.124407 1_555
S30 Sm20 2.867625 1_555
S30 Sm22 3.008164 1_555
S30 Sm12 3.070773 1_555
S31 Si0 2.162161 1_555
S31 Sm6 2.910870 1_555
S31 Sm14 2.910870 1_555
S31 Sm19 2.962091 1_555
S32 Si6 2.121107 1_555
S32 Sm7 2.970024 1_555
S32 Sm16 2.970024 1_555
S32 Sm0 3.235024 1_545
S33 Sm2 2.755963 1_555
S33 Sm10 2.755963 1_555
S33 Sm18 2.759583 1_555
S33 Sm1 2.847159 1_555
S34 Sm14 2.740387 1_656
S34 Sm4 2.769577 1_555
S34 Sm5 2.889688 1_655
S34 Sm17 2.922902 1_655
S35 Sm20 2.732754 1_555
S35 Sm11 2.732754 1_555
S35 Sm22 2.912246 1_555
S35 Sm9 3.334195 1_555
S35 Sm8 3.334195 1_555
S36 Si4 2.121139 1_555
S36 Sm1 2.953196 1_555
S36 Sm8 3.167868 1_655
S36 Sm9 3.167868 1_555
S37 Sm17 2.732754 1_555
S37 Sm21 2.732754 1_555
S37 Sm5 2.912246 1_555
S37 Sm14 3.334195 1_556
S37 Sm6 3.334195 1_556
S38 Sm13 2.740387 1_454
S38 Sm23 2.769577 1_555
S38 Sm0 2.889688 1_455
S38 Sm3 2.922902 1_455
S39 Si2 2.125338 1_555
S39 Sm4 2.968429 1_565
S39 Sm13 2.978456 1_555
S39 Sm11 3.066935 1_655
S40 Si2 2.125338 1_555
S40 Sm4 2.968429 1_565
S40 Sm12 2.978456 1_555
S40 Sm20 3.066935 1_555
S41 Si7 2.125338 1_555
S41 Sm18 2.968429 1_555
S41 Sm2 2.978456 1_555
S41 Sm17 3.066935 1_655
S42 Sm6 2.755963 1_555
S42 Sm14 2.755963 1_555
S42 Sm23 2.759583 1_545
S42 Sm5 2.847159 1_554
S43 Si7 2.162161 1_555
S43 Sm2 2.910870 1_555
S43 Sm10 2.910870 1_555
S43 Sm4 2.962091 1_555
S44 Si1 2.162161 1_555
S44 Sm9 2.910870 1_555
S44 Sm8 2.910870 1_555
S44 Sm23 2.962091 1_555
S45 Si5 2.121139 1_555
S45 Sm5 2.953196 1_565
S45 Sm13 3.167868 1_455
S45 Sm12 3.167868 1_555
S46 Sm6 2.740387 1_556
S46 Sm4 2.769577 1_555
S46 Sm5 2.889688 1_555
S46 Sm21 2.922902 1_555
S47 Si6 2.124407 1_555
S47 Sm16 2.867625 1_555
S47 Sm1 3.008164 1_555
S47 Sm14 3.070773 1_655
Cl0 Sm10 2.817277 1_555
Cl0 Sm20 2.894980 1_545
Cl0 Sm7 2.911584 1_555
Cl1 Sm12 2.817277 1_555
Cl1 Sm21 2.894980 1_555
Cl1 Sm15 2.911584 1_556
Cl2 Sm14 2.817277 1_655
Cl2 Sm3 2.894980 1_555
Cl2 Sm17 2.911584 1_654
Cl3 Sm13 2.817277 1_455
Cl3 Sm17 2.894980 1_555
Cl3 Sm3 2.911584 1_456
Cl4 Sm8 2.817277 1_655
Cl4 Sm16 2.894980 1_565
Cl4 Sm11 2.911584 1_655
Cl5 Sm9 2.817277 1_555
Cl5 Sm7 2.894980 1_565
Cl5 Sm20 2.911584 1_555
Cl6 Sm6 2.817277 1_555
Cl6 Sm15 2.894980 1_555
Cl6 Sm21 2.911584 1_554
Cl7 Sm2 2.817277 1_455
Cl7 Sm11 2.894980 1_545
Cl7 Sm16 2.911584 1_455
