# generated using pymatgen
data_Na3ZrNi(PO4)3
_symmetry_space_group_name_H-M   'P 1'
_cell_length_a   9.03069400
_cell_length_b   9.03153325
_cell_length_c   15.62017325
_cell_angle_alpha   89.90478883
_cell_angle_beta   106.76844274
_cell_angle_gamma   119.86830631
_symmetry_Int_Tables_number   1
_chemical_formula_structural   Na3ZrNi(PO4)3
_chemical_formula_sum   'Na12 Zr4 Ni4 P12 O48'
_cell_volume   1042.21051363
_cell_formula_units_Z   4
loop_
 _symmetry_equiv_pos_site_id
 _symmetry_equiv_pos_as_xyz
  1  'x, y, z'
loop_
 _atom_site_type_symbol
 _atom_site_label
 _atom_site_symmetry_multiplicity
 _atom_site_fract_x
 _atom_site_fract_y
 _atom_site_fract_z
 _atom_site_occupancy
  Na  Na0  1  0.02680200  0.01045000  0.98581900  1
  Na  Na1  1  0.01338400  0.49547900  0.51582700  1
  Na  Na2  1  0.75386000  0.54951100  0.95654100  1
  Na  Na3  1  0.49815100  0.25283000  0.75023300  1
  Na  Na4  1  0.25531000  0.93690500  0.55069400  1
  Na  Na5  1  0.79312000  0.03312500  0.13666200  1
  Na  Na6  1  0.75892300  0.05192300  0.43795100  1
  Na  Na7  1  0.79048800  0.58038100  0.31022500  1
  Na  Na8  1  0.50287700  0.75127300  0.24937000  1
  Na  Na9  1  0.24063400  0.93730800  0.18572500  1
  Na  Na10  1  0.25919200  0.44412800  0.06699800  1
  Na  Na11  1  0.23436600  0.49075600  0.37197000  1
  Zr  Zr0  1  0.56481600  0.78893900  0.92290700  1
  Zr  Zr1  1  0.93992300  0.47056500  0.81953500  1
  Zr  Zr2  1  0.55672700  0.27859500  0.42882600  1
  Zr  Zr3  1  0.05700000  0.02590600  0.68025500  1
  Ni  Ni0  1  0.94348200  0.97351000  0.32465100  1
  Ni  Ni1  1  0.43683000  0.71163800  0.57538300  1
  Ni  Ni2  1  0.05807900  0.53042200  0.17612100  1
  Ni  Ni3  1  0.45013700  0.22862800  0.07478500  1
  P  P0  1  0.73773900  0.71857700  0.76910400  1
  P  P1  1  0.73060900  0.15380200  0.62517700  1
  P  P2  1  0.76194500  0.23880400  0.98451800  1
  P  P3  1  0.23358100  0.26785100  0.52040500  1
  P  P4  1  0.26673700  0.33831500  0.87727100  1
  P  P5  1  0.74802200  0.22885100  0.26978400  1
  P  P6  1  0.25077400  0.77260700  0.72225500  1
  P  P7  1  0.75108800  0.67107300  0.12685600  1
  P  P8  1  0.74126000  0.72395800  0.47662900  1
  P  P9  1  0.24593700  0.77564000  0.02157700  1
  P  P10  1  0.24168300  0.82272000  0.37305100  1
  P  P11  1  0.24389600  0.27026100  0.22614200  1
  O  O0  1  0.08152000  0.63923500  0.74547600  1
  O  O1  1  0.06797400  0.64870100  0.94241200  1
  O  O2  1  0.75235500  0.79763100  0.86315300  1
  O  O3  1  0.10970200  0.37582200  0.85219900  1
  O  O4  1  0.56771000  0.67227800  0.69309800  1
  O  O5  1  0.74771800  0.55249400  0.78820100  1
  O  O6  1  0.74265700  0.25195000  0.54205500  1
  O  O7  1  0.75291200  0.27252100  0.70558700  1
  O  O8  1  0.39795200  0.27791400  0.49926800  1
  O  O9  1  0.77346700  0.30704700  0.89266200  1
  O  O10  1  0.25139900  0.44502900  0.52869800  1
  O  O11  1  0.44664100  0.51510600  0.89584800  1
  O  O12  1  0.55262300  0.98196800  0.60224900  1
  O  O13  1  0.07396800  0.12785000  0.24337000  1
  O  O14  1  0.73819900  0.05440600  0.97250700  1
  O  O15  1  0.23676800  0.19200000  0.61068400  1
  O  O16  1  0.60109600  0.23655900  0.99873500  1
  O  O17  1  0.05776600  0.14385200  0.44329800  1
  O  O18  1  0.24482300  0.22368800  0.79542400  1
  O  O19  1  0.73982400  0.29121100  0.36304600  1
  O  O20  1  0.07505300  0.84018200  0.35580300  1
  O  O21  1  0.26092100  0.25163100  0.96128100  1
  O  O22  1  0.57320700  0.17869500  0.19200200  1
  O  O23  1  0.75456800  0.06057400  0.28110700  1
  O  O24  1  0.25034100  0.94461900  0.71227700  1
  O  O25  1  0.41963200  0.81480300  0.80350700  1
  O  O26  1  0.74037600  0.77304100  0.04403300  1
  O  O27  1  0.89559400  0.12923600  0.64826500  1
  O  O28  1  0.24664800  0.70196000  0.63257800  1
  O  O29  1  0.76233100  0.77759600  0.20887100  1
  O  O30  1  0.91678300  0.85009200  0.55747200  1
  O  O31  1  0.40500400  0.78783100  0.99415200  1
  O  O32  1  0.74941900  0.79615000  0.38677400  1
  O  O33  1  0.25834700  0.95000100  0.03415300  1
  O  O34  1  0.91320000  0.85536100  0.75125100  1
  O  O35  1  0.41725300  0.00949700  0.39886900  1
  O  O36  1  0.57536700  0.49343100  0.10610500  1
  O  O37  1  0.74306700  0.55138300  0.46615000  1
  O  O38  1  0.25250700  0.69842800  0.11029700  1
  O  O39  1  0.57089700  0.69669400  0.49237800  1
  O  O40  1  0.24522200  0.73458200  0.28907700  1
  O  O41  1  0.24661500  0.72165800  0.45306200  1
  O  O42  1  0.25319300  0.44660600  0.22276100  1
  O  O43  1  0.41517400  0.30908200  0.30886900  1
  O  O44  1  0.92116600  0.66105100  0.13772100  1
  O  O45  1  0.25107400  0.20263200  0.13719800  1
  O  O46  1  0.94184700  0.34720700  0.06289200  1
  O  O47  1  0.92074700  0.38398600  0.25987900  1
loop_
_geom_bond_atom_site_label_1
_geom_bond_atom_site_label_2
_geom_bond_distance
_geom_bond_site_symmetry_2
Na0 O21 2.288998 1_555
Na0 O33 2.337764 1_546
Na0 O2 2.456767 1_445
Na0 O45 2.540621 1_556
Na0 O14 2.776892 1_455
Na0 O26 2.818075 1_446
Na1 O28 2.263370 1_555
Na1 O10 2.365152 1_555
Na1 O6 2.490331 1_455
Na1 O41 2.543561 1_555
Na1 O37 2.636206 1_455
Na1 O19 2.697246 1_455
Na2 O26 2.511614 1_556
Na2 O11 2.513420 1_555
Na2 O9 2.513499 1_555
Na2 O1 2.593727 1_655
Na2 O5 2.614416 1_555
Na2 O16 2.638381 1_555
Na2 O2 2.675403 1_555
Na2 O44 2.707973 1_556
Na3 O5 2.432007 1_555
Na3 O18 2.476432 1_555
Na3 O24 2.478607 1_545
Na3 O7 2.515727 1_555
Na3 O15 2.523595 1_555
Na3 O9 2.640143 1_555
Na4 O12 2.384988 1_555
Na4 O41 2.428945 1_555
Na4 O28 2.455193 1_555
Na4 O24 2.538949 1_555
Na4 O15 2.587666 1_565
Na4 O30 2.787668 1_455
Na4 O20 2.900590 1_555
Na4 O8 2.902986 1_565
Na5 O13 2.312363 1_655
Na5 O23 2.411314 1_555
Na5 O29 2.491730 1_545
Na5 O14 2.493430 1_554
Na5 O26 2.517378 1_545
Na5 O46 2.875011 1_555
Na6 O17 2.370240 1_655
Na6 O32 2.398265 1_545
Na6 O23 2.440623 1_555
Na6 O19 2.513095 1_555
Na6 O6 2.518210 1_555
Na6 O35 2.788593 1_555
Na7 O20 2.358072 1_655
Na7 O29 2.439884 1_555
Na7 O32 2.519583 1_555
Na7 O37 2.583024 1_555
Na7 O19 2.594474 1_555
Na7 O47 2.786574 1_555
Na8 O32 2.464679 1_555
Na8 O42 2.472184 1_555
Na8 O38 2.480642 1_555
Na8 O23 2.499162 1_565
Na8 O29 2.499305 1_555
Na8 O40 2.510870 1_555
Na9 O33 2.417339 1_555
Na9 O40 2.446908 1_555
Na9 O45 2.477055 1_565
Na9 O38 2.523092 1_555
Na9 O44 2.588280 1_455
Na9 O22 2.663060 1_565
Na10 O21 2.408544 1_554
Na10 O45 2.417447 1_555
Na10 O38 2.429572 1_555
Na10 O42 2.449610 1_555
Na10 O46 2.525655 1_455
Na10 O36 2.540120 1_555
Na11 O41 2.379864 1_555
Na11 O42 2.432938 1_555
Na11 O10 2.455632 1_555
Na11 O40 2.526699 1_555
Na11 O47 2.537895 1_455
Na11 O39 2.704880 1_555
Ni0 O13 2.040809 1_665
Ni0 O20 2.046469 1_655
Ni0 O17 2.047200 1_665
Ni0 O29 2.120885 1_555
Ni0 O23 2.157837 1_565
Ni0 O32 2.181481 1_555
Ni1 O4 2.016577 1_555
Ni1 O39 2.057719 1_555
Ni1 O10 2.102140 1_555
Ni1 O12 2.106607 1_555
Ni1 O28 2.119219 1_555
Ni1 O41 2.206823 1_555
Ni2 O46 2.043663 1_455
Ni2 O47 2.072610 1_455
Ni2 O44 2.074370 1_455
Ni2 O40 2.134389 1_555
Ni2 O42 2.189626 1_555
Ni2 O38 2.196663 1_555
Ni3 O16 2.027720 1_554
Ni3 O22 2.028122 1_555
Ni3 O36 2.056381 1_555
Ni3 O21 2.170402 1_554
Ni3 O33 2.182885 1_545
Ni3 O45 2.197111 1_555
O0 P6 1.550293 1_555
O0 Zr1 2.049741 1_455
O1 P9 1.564984 1_556
O1 Zr1 2.118039 1_455
O2 P0 1.575775 1_555
O2 Zr0 2.127226 1_555
O3 P4 1.561025 1_555
O3 Zr1 2.048695 1_455
O4 P0 1.500778 1_555
O5 P0 1.569934 1_555
O5 Zr1 2.141896 1_555
O6 P1 1.570034 1_555
O6 Zr2 2.166297 1_555
O7 P1 1.552805 1_555
O7 Zr1 2.118217 1_555
O8 P3 1.571299 1_555
O8 Zr2 2.041614 1_555
O9 P2 1.571210 1_555
O9 Zr1 2.125891 1_555
O10 P3 1.528228 1_555
O11 P4 1.555287 1_555
O11 Zr0 2.132682 1_555
O12 P1 1.518364 1_565
O13 P11 1.533899 1_555
O14 P2 1.573800 1_555
O14 Zr0 2.089823 1_545
O15 P3 1.565797 1_555
O15 Zr3 2.157238 1_555
O16 P2 1.522002 1_555
O17 P3 1.534847 1_555
O18 P4 1.549111 1_555
O18 Zr3 2.129859 1_555
O19 P5 1.597293 1_555
O19 Zr2 2.143604 1_555
O20 P10 1.537575 1_555
O21 P4 1.527441 1_555
O22 P5 1.535072 1_555
O23 P5 1.557923 1_555
O24 P6 1.562902 1_555
O24 Zr3 2.146919 1_565
O25 P6 1.545131 1_555
O25 Zr0 2.035837 1_555
O26 P7 1.594901 1_555
O26 Zr0 2.146837 1_554
O27 P1 1.555030 1_555
O27 Zr3 2.044083 1_655
O28 P6 1.523099 1_555
O29 P7 1.552037 1_555
O30 P8 1.567222 1_555
O30 Zr3 2.099818 1_665
O31 P9 1.567325 1_556
O31 Zr0 2.057603 1_555
O32 P8 1.552184 1_555
O33 P9 1.530857 1_555
O34 P0 1.555245 1_555
O34 Zr3 2.030199 1_665
O35 P10 1.578438 1_545
O35 Zr2 2.080106 1_555
O36 P7 1.538314 1_555
O37 P8 1.576092 1_555
O37 Zr2 2.133256 1_555
O38 P9 1.549472 1_555
O39 P8 1.526099 1_555
O40 P10 1.551836 1_555
O41 P10 1.549720 1_555
O42 P11 1.554193 1_555
O43 P11 1.579007 1_555
O43 Zr2 2.046371 1_555
O44 P7 1.544041 1_555
O45 P11 1.549743 1_555
O46 P2 1.539088 1_554
O47 P5 1.543325 1_555
