# generated using pymatgen
data_Li2Fe5(PO4)4
_symmetry_space_group_name_H-M   'P 1'
_cell_length_a   5.32968471
_cell_length_b   8.12471200
_cell_length_c   8.31249404
_cell_angle_alpha   111.19257313
_cell_angle_beta   91.33295184
_cell_angle_gamma   101.44500771
_symmetry_Int_Tables_number   1
_chemical_formula_structural   Li2Fe5(PO4)4
_chemical_formula_sum   'Li2 Fe5 P4 O16'
_cell_volume   327.15041990
_cell_formula_units_Z   1
loop_
 _symmetry_equiv_pos_site_id
 _symmetry_equiv_pos_as_xyz
  1  'x, y, z'
loop_
 _atom_site_type_symbol
 _atom_site_label
 _atom_site_symmetry_multiplicity
 _atom_site_fract_x
 _atom_site_fract_y
 _atom_site_fract_z
 _atom_site_occupancy
  Li  Li0  1  0.34539900  0.92772200  0.73090700  1
  Li  Li1  1  0.65470800  0.07226500  0.26912500  1
  Fe  Fe0  1  0.36434300  0.59101600  0.33555100  1
  Fe  Fe1  1  0.63567800  0.40900500  0.66446100  1
  Fe  Fe2  1  0.00000600  0.99998000  0.99996800  1
  Fe  Fe3  1  0.90453300  0.74714000  0.21567000  1
  Fe  Fe4  1  0.09543700  0.25285500  0.78430100  1
  P  P0  1  0.86729000  0.78834500  0.57262800  1
  P  P1  1  0.13273100  0.21166200  0.42737200  1
  P  P2  1  0.62813400  0.29831500  0.01937600  1
  P  P3  1  0.37183600  0.70168300  0.98063500  1
  O  O0  1  0.12833500  0.75916100  0.50127900  1
  O  O1  1  0.87173900  0.24088400  0.49878500  1
  O  O2  1  0.07683100  0.03233900  0.26338600  1
  O  O3  1  0.92306700  0.96765100  0.73661800  1
  O  O4  1  0.23159800  0.67273900  0.13676400  1
  O  O5  1  0.76839100  0.32726000  0.86325500  1
  O  O6  1  0.71984500  0.63377900  0.61946700  1
  O  O7  1  0.28014400  0.36618700  0.38047000  1
  O  O8  1  0.65521500  0.80684200  0.05548300  1
  O  O9  1  0.34477100  0.19314700  0.94449300  1
  O  O10  1  0.69098100  0.81245600  0.43193100  1
  O  O11  1  0.30906600  0.18755300  0.56804700  1
  O  O12  1  0.64342300  0.48497000  0.16270000  1
  O  O13  1  0.35654500  0.51503500  0.83729000  1
  O  O14  1  0.24042000  0.82012600  0.91207500  1
  O  O15  1  0.75953500  0.17988200  0.08796200  1
loop_
_geom_bond_atom_site_label_1
_geom_bond_atom_site_label_2
_geom_bond_distance
_geom_bond_site_symmetry_2
Li0 O14 2.035211 1_555
Li0 O0 2.058123 1_555
Li0 O9 2.244464 1_565
Li0 O3 2.336163 1_455
Li1 O15 2.035115 1_555
Li1 O1 2.058334 1_555
Li1 O8 2.244523 1_545
Li1 O2 2.335049 1_655
Fe0 O7 1.962942 1_555
Fe0 O10 2.135274 1_555
Fe0 O4 2.144102 1_555
Fe0 O12 2.175351 1_555
Fe0 O0 2.179032 1_555
Fe1 O6 1.962840 1_555
Fe1 O11 2.135253 1_555
Fe1 O5 2.144206 1_555
Fe1 O13 2.175435 1_555
Fe1 O1 2.178953 1_555
Fe2 O14 2.079808 1_555
Fe2 O15 2.080406 1_466
Fe2 O3 2.128156 1_455
Fe2 O2 2.128552 1_566
Fe2 O9 2.338875 1_565
Fe2 O8 2.338980 1_456
Fe3 O4 2.004720 1_655
Fe3 O8 2.101058 1_555
Fe3 O10 2.110404 1_555
Fe3 O12 2.187388 1_555
Fe3 O2 2.200893 1_665
Fe3 O0 2.592900 1_655
Fe4 O5 2.004732 1_455
Fe4 O9 2.101172 1_555
Fe4 O11 2.110603 1_555
Fe4 O13 2.187421 1_555
Fe4 O3 2.201066 1_445
Fe4 O1 2.592128 1_455
O0 P0 1.552833 1_455
O1 P1 1.552813 1_655
O2 P1 1.562860 1_555
O3 P0 1.562807 1_555
O4 P3 1.579342 1_554
O5 P2 1.579333 1_556
O6 P0 1.523904 1_555
O7 P1 1.523868 1_555
O8 P3 1.567799 1_554
O9 P2 1.567794 1_556
O10 P0 1.573771 1_555
O11 P1 1.573705 1_555
O12 P2 1.538182 1_555
O13 P3 1.538213 1_555
O14 P3 1.544941 1_555
O15 P2 1.544952 1_555
