# generated using pymatgen
data_Zn2In2S5
_symmetry_space_group_name_H-M   'P 1'
_cell_length_a   3.92201235
_cell_length_b   3.92201235
_cell_length_c   15.79556578
_cell_angle_alpha   82.86838436
_cell_angle_beta   82.86838436
_cell_angle_gamma   59.99999413
_symmetry_Int_Tables_number   1
_chemical_formula_structural   Zn2In2S5
_chemical_formula_sum   'Zn2 In2 S5'
_cell_volume   208.24505605
_cell_formula_units_Z   1
loop_
 _symmetry_equiv_pos_site_id
 _symmetry_equiv_pos_as_xyz
  1  'x, y, z'
loop_
 _atom_site_type_symbol
 _atom_site_label
 _atom_site_symmetry_multiplicity
 _atom_site_fract_x
 _atom_site_fract_y
 _atom_site_fract_z
 _atom_site_occupancy
  Zn  Zn0  1  0.68819600  0.68819600  0.93541200  1
  Zn  Zn1  1  0.51713300  0.51713300  0.44860100  1
  In  In0  1  0.10390400  0.10390400  0.68828800  1
  In  In1  1  0.92226500  0.92226500  0.23320500  1
  S  S0  1  0.00824000  0.00824000  0.97528000  1
  S  S1  1  0.46922600  0.46922600  0.59232200  1
  S  S2  1  0.61117400  0.61117400  0.16647800  1
  S  S3  1  0.74298400  0.74298400  0.77104800  1
  S  S4  1  0.86887800  0.86887800  0.39336600  1
loop_
_geom_bond_atom_site_label_1
_geom_bond_atom_site_label_2
_geom_bond_distance
_geom_bond_site_symmetry_2
In0 S3 2.607902 1_545
In0 S3 2.607902 1_455
In0 S3 2.607902 1_445
In0 S1 2.716235 1_545
In0 S1 2.716235 1_455
In0 S1 2.716236 1_555
In1 S2 2.493082 1_555
In1 S2 2.493082 1_655
In1 S2 2.493082 1_565
In1 S4 2.503704 1_555
S0 Zn0 2.348577 1_455
S0 Zn0 2.348577 1_545
S0 Zn0 2.348577 1_445
S1 Zn1 2.246707 1_555
S3 Zn0 2.569407 1_555
S4 Zn1 2.423417 1_565
S4 Zn1 2.423417 1_655
S4 Zn1 2.423417 1_555
