# generated using pymatgen
data_ZrAlPt
_symmetry_space_group_name_H-M   'P 1'
_cell_length_a   7.03991380
_cell_length_b   7.03991504
_cell_length_c   7.43459906
_cell_angle_alpha   89.99996961
_cell_angle_beta   90.00002907
_cell_angle_gamma   120.00000031
_symmetry_Int_Tables_number   1
_chemical_formula_structural   ZrAlPt
_chemical_formula_sum   'Zr6 Al6 Pt6'
_cell_volume   319.09716267
_cell_formula_units_Z   6
loop_
 _symmetry_equiv_pos_site_id
 _symmetry_equiv_pos_as_xyz
  1  'x, y, z'
loop_
 _atom_site_type_symbol
 _atom_site_label
 _atom_site_symmetry_multiplicity
 _atom_site_fract_x
 _atom_site_fract_y
 _atom_site_fract_z
 _atom_site_occupancy
  Zr  Zr0  1  0.01616575  0.60218151  0.74997877  1
  Zr  Zr1  1  0.98386310  0.58605748  0.25002219  1
  Zr  Zr2  1  0.60219493  0.01613663  0.25002213  1
  Zr  Zr3  1  0.58601567  0.98383417  0.74997874  1
  Zr  Zr4  1  0.41394290  0.39780564  0.25002245  1
  Zr  Zr5  1  0.39781848  0.41398421  0.74997897  1
  Al  Al0  1  0.00001920  0.25420131  0.50000081  1
  Al  Al1  1  0.74582906  0.74585006  -0.00000073  1
  Al  Al2  1  0.00002065  0.25417040  -0.00000087  1
  Al  Al3  1  0.25418260  -0.00001868  0.50000016  1
  Al  Al4  1  0.25415020  -0.00002028  -0.00000023  1
  Al  Al5  1  0.74579825  0.74581741  0.50000075  1
  Pt  Pt0  1  0.33333366  0.66666681  0.47757295  1
  Pt  Pt1  1  0.66666696  0.33333393  0.52236487  1
  Pt  Pt2  1  0.66666696  0.33333426  0.97764649  1
  Pt  Pt3  1  -0.00000062  -0.00000050  0.25006428  1
  Pt  Pt4  1  -0.00000039  -0.00000113  0.74993573  1
  Pt  Pt5  1  0.33333363  0.66666677  0.02241254  1
loop_
_geom_bond_atom_site_label_1
_geom_bond_atom_site_label_2
_geom_bond_distance
_geom_bond_site_symmetry_2
Al0 Pt4 2.579742 1_555
Al0 Pt3 2.579748 1_555
Al0 Pt0 2.674302 1_555
Al0 Pt1 2.674450 1_455
Al0 Zr0 3.031454 1_555
Al0 Zr1 3.031609 1_455
Al0 Zr5 3.067864 1_555
Al0 Zr2 3.068010 1_455
Al0 Zr4 3.165663 1_555
Al0 Zr3 3.166056 1_445
Al1 Pt4 2.580270 1_664
Al1 Pt3 2.580279 1_665
Al1 Pt5 2.674426 1_555
Al1 Pt2 2.674589 1_554
Al1 Zr5 3.031819 1_554
Al1 Zr4 3.031985 1_555
Al1 Zr3 3.068026 1_554
Al1 Zr1 3.068200 1_555
Al1 Zr2 3.165812 1_565
Al1 Zr0 3.166220 1_654
Al2 Pt4 2.580277 1_554
Al2 Pt3 2.580281 1_555
Al2 Pt5 2.674433 1_555
Al2 Pt2 2.674597 1_454
Al2 Zr0 3.031821 1_554
Al2 Zr1 3.031989 1_455
Al2 Zr5 3.068027 1_554
Al2 Zr2 3.068197 1_455
Al2 Zr4 3.165819 1_555
Al2 Zr3 3.166217 1_444
Al3 Pt4 2.579742 1_555
Al3 Pt3 2.579745 1_555
Al3 Pt0 2.674303 1_545
Al3 Pt1 2.674449 1_555
Al3 Zr3 3.031453 1_545
Al3 Zr2 3.031610 1_555
Al3 Zr0 3.067869 1_545
Al3 Zr4 3.068005 1_555
Al3 Zr1 3.165662 1_445
Al3 Zr5 3.166058 1_555
Al4 Pt4 2.580275 1_554
Al4 Pt3 2.580281 1_555
Al4 Pt5 2.674432 1_545
Al4 Pt2 2.674595 1_554
Al4 Zr3 3.031824 1_544
Al4 Zr2 3.031986 1_555
Al4 Zr0 3.068033 1_544
Al4 Zr4 3.068197 1_555
Al4 Zr1 3.165816 1_445
Al4 Zr5 3.166216 1_554
Al5 Pt4 2.579737 1_665
Al5 Pt3 2.579746 1_665
Al5 Pt0 2.674296 1_555
Al5 Pt1 2.674444 1_555
Al5 Zr5 3.031451 1_555
Al5 Zr4 3.031604 1_555
Al5 Zr3 3.067866 1_555
Al5 Zr1 3.068013 1_555
Al5 Zr2 3.165657 1_565
Al5 Zr0 3.166055 1_655
Pt0 Zr2 2.800122 1_565
Pt0 Zr4 2.800124 1_555
Pt0 Zr1 2.800124 1_455
Pt0 Zr3 2.877418 1_555
Pt0 Zr5 2.877419 1_555
Pt0 Zr0 2.877421 1_555
Pt1 Zr0 2.800493 1_655
Pt1 Zr5 2.800496 1_555
Pt1 Zr3 2.800498 1_545
Pt1 Zr4 2.877247 1_555
Pt1 Zr1 2.877249 1_555
Pt1 Zr2 2.877257 1_555
Pt2 Zr5 2.800733 1_555
Pt2 Zr0 2.800735 1_655
Pt2 Zr3 2.800743 1_545
Pt2 Zr1 2.877421 1_556
Pt2 Zr4 2.877423 1_556
Pt2 Zr2 2.877429 1_556
Pt3 Zr2 2.859004 1_455
Pt3 Zr1 2.859011 1_445
Pt3 Zr4 2.859017 1_555
Pt4 Zr0 2.859204 1_545
Pt4 Zr3 2.859211 1_445
Pt4 Zr5 2.859215 1_555
Pt5 Zr2 2.800387 1_565
Pt5 Zr4 2.800389 1_555
Pt5 Zr1 2.800390 1_455
Pt5 Zr3 2.877564 1_554
Pt5 Zr5 2.877565 1_554
Pt5 Zr0 2.877566 1_554
