# generated using pymatgen
data_Hg3PO4
_symmetry_space_group_name_H-M   'P 1'
_cell_length_a   8.19436751
_cell_length_b   7.96230089
_cell_length_c   9.99480033
_cell_angle_alpha   60.88897590
_cell_angle_beta   90.00000000
_cell_angle_gamma   90.00000000
_symmetry_Int_Tables_number   1
_chemical_formula_structural   Hg3PO4
_chemical_formula_sum   'Hg12 P4 O16'
_cell_volume   569.74413106
_cell_formula_units_Z   4
loop_
 _symmetry_equiv_pos_site_id
 _symmetry_equiv_pos_as_xyz
  1  'x, y, z'
loop_
 _atom_site_type_symbol
 _atom_site_label
 _atom_site_symmetry_multiplicity
 _atom_site_fract_x
 _atom_site_fract_y
 _atom_site_fract_z
 _atom_site_occupancy
  Hg  Hg0  1  0.22294500  0.43889472  0.56909040  1
  Hg  Hg1  1  0.39382543  0.86742853  0.53195368  1
  Hg  Hg2  1  0.94869618  0.85146251  0.38609242  1
  Hg  Hg3  1  0.60617457  0.13257147  0.46804632  1
  Hg  Hg4  1  0.55130382  0.85146251  0.88609242  1
  Hg  Hg5  1  0.89382543  0.13257147  0.96804632  1
  Hg  Hg6  1  0.27705500  0.43889472  0.06909040  1
  Hg  Hg7  1  0.05130382  0.14853749  0.61390758  1
  Hg  Hg8  1  0.72294500  0.56110528  0.93090960  1
  Hg  Hg9  1  0.77705500  0.56110528  0.43090960  1
  Hg  Hg10  1  0.10617457  0.86742853  0.03195368  1
  Hg  Hg11  1  0.44869618  0.14853749  0.11390758  1
  P  P0  1  0.06548142  0.70225343  0.75284000  1
  P  P1  1  0.43451858  0.70225343  0.25284000  1
  P  P2  1  0.93451858  0.29774657  0.24716000  1
  P  P3  1  0.56548142  0.29774657  0.74716000  1
  O  O0  1  0.81626754  0.26650033  0.14121350  1
  O  O1  1  0.31626754  0.73349967  0.35878650  1
  O  O2  1  0.68373246  0.26650033  0.64121350  1
  O  O3  1  0.02946279  0.48561635  0.16615951  1
  O  O4  1  0.52946279  0.51438365  0.33384049  1
  O  O5  1  0.83282105  0.29767651  0.37976568  1
  O  O6  1  0.97053721  0.51438365  0.83384049  1
  O  O7  1  0.55677871  0.87320756  0.17880949  1
  O  O8  1  0.33282105  0.70232349  0.12023432  1
  O  O9  1  0.18373246  0.73349967  0.85878650  1
  O  O10  1  0.16717895  0.70232349  0.62023432  1
  O  O11  1  0.47053721  0.48561635  0.66615951  1
  O  O12  1  0.94322129  0.87320756  0.67880949  1
  O  O13  1  0.05677871  0.12679244  0.32119051  1
  O  O14  1  0.66717895  0.29767651  0.87976568  1
  O  O15  1  0.44322129  0.12679244  0.82119051  1
loop_
_geom_bond_atom_site_label_1
_geom_bond_atom_site_label_2
_geom_bond_distance
_geom_bond_site_symmetry_2
Hg0 O11 2.355231 1_555
Hg0 O1 2.389126 1_555
Hg0 O10 2.431638 1_555
Hg1 O10 2.197134 1_555
Hg1 O1 2.516444 1_555
Hg2 O13 2.151164 1_665
Hg3 O5 2.197134 1_555
Hg3 O2 2.516444 1_555
Hg4 O15 2.151164 1_565
Hg5 O14 2.197134 1_555
Hg5 O0 2.516444 1_556
Hg6 O3 2.355231 1_555
Hg6 O9 2.389126 1_554
Hg6 O8 2.431638 1_555
Hg7 O12 2.151164 1_445
Hg8 O6 2.355231 1_555
Hg8 O0 2.389126 1_556
Hg8 O14 2.431638 1_555
Hg9 O4 2.355231 1_555
Hg9 O2 2.389126 1_555
Hg9 O5 2.431638 1_555
Hg10 O8 2.197134 1_555
Hg10 O9 2.516444 1_554
Hg11 O7 2.151164 1_545
O0 P2 1.542232 1_555
O1 P1 1.542232 1_555
O2 P3 1.542232 1_555
O3 P2 1.523161 1_455
O4 P1 1.523161 1_555
O5 P2 1.565358 1_555
O6 P0 1.523161 1_655
O7 P1 1.556928 1_555
O8 P1 1.565358 1_555
O9 P0 1.542232 1_555
O10 P0 1.565358 1_555
O11 P3 1.523161 1_555
O12 P0 1.556928 1_655
O13 P2 1.556928 1_455
O14 P3 1.565358 1_555
O15 P3 1.556928 1_555
