# generated using pymatgen
data_Cs4IrO4
_symmetry_space_group_name_H-M   'P 1'
_cell_length_a   6.21015556
_cell_length_b   6.21016071
_cell_length_c   6.72494851
_cell_angle_alpha   74.39715299
_cell_angle_beta   74.39680481
_cell_angle_gamma   65.75394336
_symmetry_Int_Tables_number   1
_chemical_formula_structural   Cs4IrO4
_chemical_formula_sum   'Cs4 Ir1 O4'
_cell_volume   224.02147475
_cell_formula_units_Z   1
loop_
 _symmetry_equiv_pos_site_id
 _symmetry_equiv_pos_as_xyz
  1  'x, y, z'
loop_
 _atom_site_type_symbol
 _atom_site_label
 _atom_site_symmetry_multiplicity
 _atom_site_fract_x
 _atom_site_fract_y
 _atom_site_fract_z
 _atom_site_occupancy
  Cs  Cs0  1  0.19011698  0.19011739  0.41009686  1
  Cs  Cs1  1  0.38407193  0.38407191  0.84277120  1
  Cs  Cs2  1  0.61592807  0.61592809  0.15722880  1
  Cs  Cs3  1  0.80988302  0.80988261  0.58990314  1
  Ir  Ir0  1  0.00000000  0.00000000  -0.00000000  1
  O  O0  1  0.09541987  0.69136639  0.18187665  1
  O  O1  1  0.90458013  0.30863361  0.81812335  1
  O  O2  1  0.69136736  0.09541717  0.18187809  1
  O  O3  1  0.30863264  0.90458283  0.81812191  1
loop_
_geom_bond_atom_site_label_1
_geom_bond_atom_site_label_2
_geom_bond_distance
_geom_bond_site_symmetry_2
Cs0 O1 2.934684 1_455
Cs0 O3 2.934686 1_545
Cs0 O2 2.967003 1_555
Cs0 O0 2.967013 1_555
Cs1 O1 3.034039 1_555
Cs1 O3 3.034056 1_555
Cs1 O0 3.063989 1_556
Cs1 O2 3.064017 1_556
Cs1 O3 3.250651 1_545
Cs1 O1 3.250660 1_455
Cs2 O0 3.034039 1_555
Cs2 O2 3.034056 1_555
Cs2 O1 3.063989 1_554
Cs2 O3 3.064017 1_554
Cs2 O2 3.250651 1_565
Cs2 O0 3.250660 1_655
Cs3 O0 2.934684 1_655
Cs3 O2 2.934686 1_565
Cs3 O3 2.967003 1_555
Cs3 O1 2.967013 1_555
Ir0 O3 1.927875 1_544
Ir0 O2 1.927875 1_455
Ir0 O1 1.927886 1_454
Ir0 O0 1.927886 1_545
