# generated using pymatgen
data_U3Ni3Sb4
_symmetry_space_group_name_H-M   'P 1'
_cell_length_a   8.15724996
_cell_length_b   8.15724996
_cell_length_c   8.15724996
_cell_angle_alpha   109.47122063
_cell_angle_beta   109.47122063
_cell_angle_gamma   109.47122063
_symmetry_Int_Tables_number   1
_chemical_formula_structural   U3Ni3Sb4
_chemical_formula_sum   'U6 Ni6 Sb8'
_cell_volume   417.83943016
_cell_formula_units_Z   2
loop_
 _symmetry_equiv_pos_site_id
 _symmetry_equiv_pos_as_xyz
  1  'x, y, z'
loop_
 _atom_site_type_symbol
 _atom_site_label
 _atom_site_symmetry_multiplicity
 _atom_site_fract_x
 _atom_site_fract_y
 _atom_site_fract_z
 _atom_site_occupancy
  U  U0  1  0.87500000  0.25000000  0.12500000  1
  U  U1  1  0.62500000  0.75000000  0.37500000  1
  U  U2  1  0.25000000  0.12500000  0.87500000  1
  U  U3  1  0.75000000  0.37500000  0.62500000  1
  U  U4  1  0.12500000  0.87500000  0.25000000  1
  U  U5  1  0.37500000  0.62500000  0.75000000  1
  Ni  Ni0  1  0.37500000  0.25000000  0.62500000  1
  Ni  Ni1  1  0.12500000  0.75000000  0.87500000  1
  Ni  Ni2  1  0.25000000  0.62500000  0.37500000  1
  Ni  Ni3  1  0.75000000  0.87500000  0.12500000  1
  Ni  Ni4  1  0.62500000  0.37500000  0.25000000  1
  Ni  Ni5  1  0.87500000  0.12500000  0.75000000  1
  Sb  Sb0  1  0.66364958  0.50000000  0.00000000  1
  Sb  Sb1  1  0.50000000  0.00000000  0.66364958  1
  Sb  Sb2  1  -0.00000000  0.66364958  0.50000000  1
  Sb  Sb3  1  0.83635042  0.83635042  0.83635042  1
  Sb  Sb4  1  0.50000000  0.00000000  0.16364958  1
  Sb  Sb5  1  0.16364958  0.50000000  0.00000000  1
  Sb  Sb6  1  -0.00000000  0.16364958  0.50000000  1
  Sb  Sb7  1  0.33635042  0.33635042  0.33635042  1
loop_
_geom_bond_atom_site_label_1
_geom_bond_atom_site_label_2
_geom_bond_distance
_geom_bond_site_symmetry_2
Ni0 Sb6 2.626494 1_555
Ni0 Sb1 2.626494 1_555
Ni0 Sb0 2.626494 1_556
Ni0 Sb7 2.626494 1_555
Ni0 U5 2.884023 1_555
Ni0 U2 2.884023 1_555
Ni0 U3 2.884023 1_555
Ni0 U4 2.884023 1_545
Ni1 Sb2 2.626494 1_555
Ni1 Sb5 2.626494 1_556
Ni1 Sb4 2.626494 1_566
Ni1 Sb3 2.626494 1_455
Ni1 U3 2.884023 1_455
Ni1 U4 2.884023 1_556
Ni1 U5 2.884023 1_555
Ni1 U2 2.884023 1_565
Ni2 Sb1 2.626494 1_565
Ni2 Sb5 2.626494 1_555
Ni2 Sb2 2.626494 1_555
Ni2 Sb7 2.626494 1_555
Ni2 U0 2.884023 1_455
Ni2 U4 2.884023 1_555
Ni2 U5 2.884023 1_555
Ni2 U1 2.884023 1_555
Ni3 Sb6 2.626494 1_665
Ni3 Sb4 2.626494 1_565
Ni3 Sb3 2.626494 1_554
Ni3 Sb0 2.626494 1_555
Ni3 U0 2.884023 1_565
Ni3 U5 2.884023 1_554
Ni3 U4 2.884023 1_655
Ni3 U1 2.884023 1_555
Ni4 Sb7 2.626494 1_555
Ni4 Sb2 2.626494 1_655
Ni4 Sb0 2.626494 1_555
Ni4 Sb4 2.626494 1_555
Ni4 U3 2.884023 1_555
Ni4 U2 2.884023 1_554
Ni4 U0 2.884023 1_555
Ni4 U1 2.884023 1_555
Ni5 Sb1 2.626494 1_555
Ni5 Sb5 2.626494 1_656
Ni5 Sb3 2.626494 1_545
Ni5 Sb6 2.626494 1_655
Ni5 U1 2.884023 1_545
Ni5 U2 2.884023 1_655
Ni5 U3 2.884023 1_555
Ni5 U0 2.884023 1_556
Sb0 U2 3.244728 1_554
Sb0 U1 3.244728 1_555
Sb0 U5 3.244728 1_554
Sb0 U3 3.275518 1_554
Sb0 U0 3.275518 1_555
Sb0 U4 3.275518 1_655
Sb1 U4 3.244728 1_545
Sb1 U1 3.244728 1_545
Sb1 U3 3.244728 1_555
Sb1 U5 3.275518 1_545
Sb1 U2 3.275518 1_555
Sb1 U0 3.275518 1_556
Sb2 U5 3.244728 1_555
Sb2 U0 3.244728 1_455
Sb2 U3 3.244728 1_455
Sb2 U1 3.275518 1_455
Sb2 U2 3.275518 1_565
Sb2 U4 3.275518 1_555
Sb3 U2 3.244728 1_665
Sb3 U0 3.244728 1_566
Sb3 U4 3.244728 1_656
Sb3 U1 3.275518 1_555
Sb3 U5 3.275518 1_555
Sb3 U3 3.275518 1_555
Sb4 U2 3.244728 1_554
Sb4 U0 3.244728 1_555
Sb4 U5 3.244728 1_544
Sb4 U1 3.275518 1_545
Sb4 U3 3.275518 1_555
Sb4 U4 3.275518 1_545
Sb5 U3 3.244728 1_454
Sb5 U4 3.244728 1_555
Sb5 U0 3.244728 1_455
Sb5 U5 3.275518 1_554
Sb5 U2 3.275518 1_554
Sb5 U1 3.275518 1_555
Sb6 U2 3.244728 1_555
Sb6 U4 3.244728 1_545
Sb6 U1 3.244728 1_445
Sb6 U0 3.275518 1_455
Sb6 U3 3.275518 1_455
Sb6 U5 3.275518 1_555
Sb7 U1 3.244728 1_555
Sb7 U5 3.244728 1_555
Sb7 U3 3.244728 1_555
Sb7 U4 3.275518 1_545
Sb7 U0 3.275518 1_455
Sb7 U2 3.275518 1_554
