# generated using pymatgen
data_Rb4(Mo7Se8)3
_symmetry_space_group_name_H-M   'P 1'
_cell_length_a   29.99462683
_cell_length_b   29.99462662
_cell_length_c   29.99462749
_cell_angle_alpha   18.71025953
_cell_angle_beta   18.71026075
_cell_angle_gamma   18.71026054
_symmetry_Int_Tables_number   1
_chemical_formula_structural   Rb4(Mo7Se8)3
_chemical_formula_sum   'Rb8 Mo42 Se48'
_cell_volume   2426.18647999
_cell_formula_units_Z   2
loop_
 _symmetry_equiv_pos_site_id
 _symmetry_equiv_pos_as_xyz
  1  'x, y, z'
loop_
 _atom_site_type_symbol
 _atom_site_label
 _atom_site_symmetry_multiplicity
 _atom_site_fract_x
 _atom_site_fract_y
 _atom_site_fract_z
 _atom_site_occupancy
  Rb  Rb0  1  0.34304585  0.34304585  0.34304585  1
  Rb  Rb1  1  0.10702006  0.10702006  0.10702006  1
  Rb  Rb2  1  0.46721713  0.46721713  0.46721713  1
  Rb  Rb3  1  0.89297994  0.89297994  0.89297994  1
  Rb  Rb4  1  0.41299671  0.41299671  0.41299671  1
  Rb  Rb5  1  0.58700329  0.58700329  0.58700329  1
  Rb  Rb6  1  0.65695415  0.65695415  0.65695415  1
  Rb  Rb7  1  0.53278287  0.53278287  0.53278287  1
  Mo  Mo0  1  0.15377625  0.02891198  0.34224589  1
  Mo  Mo1  1  0.20571087  0.01757450  0.89346159  1
  Mo  Mo2  1  0.15382786  0.97202638  0.83642820  1
  Mo  Mo3  1  0.20774146  0.07846863  0.39328313  1
  Mo  Mo4  1  0.73124170  0.59784275  0.91473908  1
  Mo  Mo5  1  0.86861710  0.55433909  0.74296303  1
  Mo  Mo6  1  0.64905661  0.96588801  0.78223331  1
  Mo  Mo7  1  0.96588801  0.78223331  0.64905661  1
  Mo  Mo8  1  0.79225854  0.92153137  0.60671687  1
  Mo  Mo9  1  0.02797362  0.16357180  0.84617214  1
  Mo  Mo10  1  0.39328313  0.20774146  0.07846863  1
  Mo  Mo11  1  0.92153137  0.60671687  0.79225854  1
  Mo  Mo12  1  0.55433909  0.74296303  0.86861710  1
  Mo  Mo13  1  0.59784275  0.91473908  0.73124170  1
  Mo  Mo14  1  0.13138290  0.44566091  0.25703697  1
  Mo  Mo15  1  0.98242550  0.10653841  0.79428913  1
  Mo  Mo16  1  0.74296303  0.86861710  0.55433909  1
  Mo  Mo17  1  0.91473908  0.73124170  0.59784275  1
  Mo  Mo18  1  0.65775411  0.84622375  0.97108802  1
  Mo  Mo19  1  0.84622375  0.97108802  0.65775411  1
  Mo  Mo20  1  0.79428913  0.98242550  0.10653841  1
  Mo  Mo21  1  0.97108802  0.65775411  0.84622375  1
  Mo  Mo22  1  0.07846863  0.39328313  0.20774146  1
  Mo  Mo23  1  0.25703697  0.13138290  0.44566091  1
  Mo  Mo24  1  0.97202638  0.83642820  0.15382786  1
  Mo  Mo25  1  0.02891198  0.34224589  0.15377625  1
  Mo  Mo26  1  0.34224589  0.15377625  0.02891198  1
  Mo  Mo27  1  0.89346159  0.20571087  0.01757450  1
  Mo  Mo28  1  0.78223331  0.64905661  0.96588801  1
  Mo  Mo29  1  0.08526092  0.26875830  0.40215725  1
  Mo  Mo30  1  0.26875830  0.40215725  0.08526092  1
  Mo  Mo31  1  0.44566091  0.25703697  0.13138290  1
  Mo  Mo32  1  0.60671687  0.79225854  0.92153137  1
  Mo  Mo33  1  0.35094339  0.03411199  0.21776669  1
  Mo  Mo34  1  0.21776669  0.35094339  0.03411199  1
  Mo  Mo35  1  0.10653841  0.79428913  0.98242550  1
  Mo  Mo36  1  0.03411199  0.21776669  0.35094339  1
  Mo  Mo37  1  0.16357180  0.84617214  0.02797362  1
  Mo  Mo38  1  0.40215725  0.08526092  0.26875830  1
  Mo  Mo39  1  0.01757450  0.89346159  0.20571087  1
  Mo  Mo40  1  0.83642820  0.15382786  0.97202638  1
  Mo  Mo41  1  0.84617214  0.02797362  0.16357180  1
  Se  Se0  1  0.26460326  0.51871756  0.89623790  1
  Se  Se1  1  0.30094445  0.30094445  0.30094445  1
  Se  Se2  1  0.67343983  0.29127405  0.92521460  1
  Se  Se3  1  0.10376210  0.73539674  0.48128244  1
  Se  Se4  1  0.89623790  0.26460326  0.51871756  1
  Se  Se5  1  0.32656017  0.70872595  0.07478540  1
  Se  Se6  1  0.56531930  0.94821155  0.31480785  1
  Se  Se7  1  0.57748989  0.21823634  0.96122899  1
  Se  Se8  1  0.42251011  0.78176366  0.03877101  1
  Se  Se9  1  0.84874241  0.21583594  0.46604860  1
  Se  Se10  1  0.31480785  0.56531930  0.94821155  1
  Se  Se11  1  0.72090855  0.33704153  0.98207729  1
  Se  Se12  1  0.52596737  0.16628356  0.90981361  1
  Se  Se13  1  0.78176366  0.03877101  0.42251011  1
  Se  Se14  1  0.92521460  0.67343983  0.29127405  1
  Se  Se15  1  0.21583594  0.46604860  0.84874241  1
  Se  Se16  1  0.68519215  0.43468070  0.05178845  1
  Se  Se17  1  0.53395140  0.15125759  0.78416406  1
  Se  Se18  1  0.96122899  0.57748989  0.21823634  1
  Se  Se19  1  0.84797241  0.84797241  0.84797241  1
  Se  Se20  1  0.47403263  0.83371644  0.09018639  1
  Se  Se21  1  0.07478540  0.32656017  0.70872595  1
  Se  Se22  1  0.03877101  0.42251011  0.78176366  1
  Se  Se23  1  0.48128244  0.10376210  0.73539674  1
  Se  Se24  1  0.93813267  0.93813267  0.93813267  1
  Se  Se25  1  0.73539674  0.48128244  0.10376210  1
  Se  Se26  1  0.69905555  0.69905555  0.69905555  1
  Se  Se27  1  0.01792271  0.27909145  0.66295847  1
  Se  Se28  1  0.15125759  0.78416406  0.53395140  1
  Se  Se29  1  0.06186733  0.06186733  0.06186733  1
  Se  Se30  1  0.83371644  0.09018639  0.47403263  1
  Se  Se31  1  0.94821155  0.31480785  0.56531930  1
  Se  Se32  1  0.15202759  0.15202759  0.15202759  1
  Se  Se33  1  0.98207729  0.72090855  0.33704153  1
  Se  Se34  1  0.90981361  0.52596737  0.16628356  1
  Se  Se35  1  0.51871756  0.89623790  0.26460326  1
  Se  Se36  1  0.27909145  0.66295847  0.01792271  1
  Se  Se37  1  0.66295847  0.01792271  0.27909145  1
  Se  Se38  1  0.29127405  0.92521460  0.67343983  1
  Se  Se39  1  0.46604860  0.84874241  0.21583594  1
  Se  Se40  1  0.05178845  0.68519215  0.43468070  1
  Se  Se41  1  0.70872595  0.07478540  0.32656017  1
  Se  Se42  1  0.09018639  0.47403263  0.83371644  1
  Se  Se43  1  0.33704153  0.98207729  0.72090855  1
  Se  Se44  1  0.43468070  0.05178845  0.68519215  1
  Se  Se45  1  0.78416406  0.53395140  0.15125759  1
  Se  Se46  1  0.16628356  0.90981361  0.52596737  1
  Se  Se47  1  0.21823634  0.96122899  0.57748989  1
loop_
_geom_bond_atom_site_label_1
_geom_bond_atom_site_label_2
_geom_bond_distance
_geom_bond_site_symmetry_2
Rb0 Se43 3.617512 1_545
Rb0 Se33 3.617512 1_455
Rb0 Se11 3.617512 1_554
Rb0 Se1 3.721113 1_555
Rb0 Se27 3.763332 1_555
Rb0 Se37 3.763332 1_555
Rb0 Se36 3.763332 1_555
Rb0 Se5 3.920976 1_555
Rb0 Se41 3.920976 1_555
Rb0 Se21 3.920976 1_555
Rb1 Se3 3.636871 1_545
Rb1 Se25 3.636871 1_455
Rb1 Se23 3.636871 1_554
Rb1 Se42 3.873640 1_554
Rb1 Se20 3.873640 1_545
Rb1 Se30 3.873641 1_455
Rb1 Se13 3.894891 1_455
Rb1 Se8 3.894891 1_545
Rb1 Se22 3.894891 1_554
Rb1 Se32 3.977970 1_555
Rb1 Se29 3.990803 1_555
Rb2 Se20 3.627539 1_555
Rb2 Se30 3.627539 1_555
Rb2 Se42 3.627539 1_555
Rb2 Se45 3.693573 1_555
Rb2 Se28 3.693573 1_555
Rb2 Se17 3.693573 1_555
Rb2 Se23 3.915290 1_555
Rb2 Se3 3.915290 1_555
Rb2 Se25 3.915290 1_555
Rb3 Se4 3.636871 1_565
Rb3 Se0 3.636871 1_655
Rb3 Se35 3.636871 1_556
Rb3 Se34 3.873640 1_556
Rb3 Se12 3.873640 1_565
Rb3 Se46 3.873641 1_655
Rb3 Se47 3.894891 1_655
Rb3 Se7 3.894891 1_565
Rb3 Se18 3.894891 1_556
Rb3 Se19 3.977970 1_555
Rb3 Se24 3.990803 1_555
Rb4 Se8 3.625252 1_555
Rb4 Se13 3.625253 1_555
Rb4 Se22 3.625253 1_555
Rb4 Se44 3.689334 1_555
Rb4 Se40 3.689334 1_555
Rb4 Se16 3.689335 1_555
Rb4 Se25 3.919633 1_555
Rb4 Se3 3.919633 1_555
Rb4 Se23 3.919633 1_555
Rb5 Se7 3.625252 1_555
Rb5 Se47 3.625253 1_555
Rb5 Se18 3.625253 1_555
Rb5 Se6 3.689334 1_555
Rb5 Se31 3.689334 1_555
Rb5 Se10 3.689335 1_555
Rb5 Se0 3.919633 1_555
Rb5 Se4 3.919633 1_555
Rb5 Se35 3.919633 1_555
Rb6 Se37 3.617512 1_565
Rb6 Se27 3.617512 1_655
Rb6 Se36 3.617512 1_556
Rb6 Se26 3.721113 1_555
Rb6 Se33 3.763332 1_555
Rb6 Se43 3.763332 1_555
Rb6 Se11 3.763332 1_555
Rb6 Se2 3.920976 1_555
Rb6 Se38 3.920976 1_555
Rb6 Se14 3.920976 1_555
Rb7 Se12 3.627539 1_555
Rb7 Se46 3.627539 1_555
Rb7 Se34 3.627539 1_555
Rb7 Se15 3.693573 1_555
Rb7 Se9 3.693573 1_555
Rb7 Se39 3.693573 1_555
Rb7 Se35 3.915290 1_555
Rb7 Se4 3.915290 1_555
Rb7 Se0 3.915290 1_555
Mo0 Se32 2.545720 1_555
Mo0 Se9 2.615627 1_455
Mo0 Se39 2.639524 1_545
Mo0 Se28 2.688168 1_545
Mo0 Se46 2.712211 1_545
Mo1 Se29 2.542719 1_556
Mo1 Se5 2.613579 1_546
Mo1 Se21 2.648552 1_555
Mo1 Se44 2.679616 1_555
Mo1 Se43 2.703917 1_545
Mo2 Se38 2.593538 1_555
Mo2 Se27 2.607000 1_565
Mo2 Se36 2.618858 1_556
Mo2 Se43 2.717678 1_555
Mo3 Se35 2.638959 1_545
Mo3 Se4 2.647429 1_455
Mo3 Se46 2.716592 1_545
Mo3 Se47 2.717568 1_545
Mo4 Se16 2.587851 1_556
Mo4 Se22 2.607571 1_655
Mo4 Se8 2.621462 1_556
Mo4 Se25 2.710687 1_556
Mo5 Se26 2.546044 1_555
Mo5 Se16 2.615925 1_556
Mo5 Se40 2.637431 1_655
Mo5 Se21 2.683514 1_655
Mo5 Se22 2.709834 1_655
Mo6 Se17 2.589458 1_565
Mo6 Se20 2.607015 1_556
Mo6 Se30 2.621557 1_565
Mo6 Se23 2.713708 1_565
Mo7 Se28 2.589458 1_655
Mo7 Se30 2.607014 1_565
Mo7 Se42 2.621556 1_655
Mo7 Se3 2.713708 1_655
Mo8 Se23 2.638959 1_565
Mo8 Se3 2.647429 1_655
Mo8 Se30 2.716592 1_565
Mo8 Se13 2.717568 1_565
Mo9 Se21 2.593537 1_555
Mo9 Se11 2.607000 1_455
Mo9 Se43 2.618858 1_545
Mo9 Se27 2.717678 1_555
Mo10 Se0 2.638959 1_554
Mo10 Se35 2.647429 1_545
Mo10 Se12 2.716592 1_554
Mo10 Se7 2.717567 1_554
Mo11 Se3 2.638959 1_655
Mo11 Se25 2.647429 1_556
Mo11 Se42 2.716592 1_655
Mo11 Se22 2.717567 1_655
Mo12 Se26 2.546044 1_555
Mo12 Se44 2.615925 1_565
Mo12 Se16 2.637431 1_556
Mo12 Se5 2.683514 1_556
Mo12 Se8 2.709834 1_556
Mo13 Se44 2.587852 1_565
Mo13 Se8 2.607571 1_556
Mo13 Se13 2.621462 1_565
Mo13 Se23 2.710687 1_565
Mo14 Se1 2.546044 1_555
Mo14 Se10 2.615925 1_554
Mo14 Se31 2.637431 1_455
Mo14 Se14 2.683514 1_455
Mo14 Se18 2.709834 1_455
Mo15 Se24 2.542719 1_545
Mo15 Se38 2.613580 1_645
Mo15 Se2 2.648552 1_555
Mo15 Se31 2.679616 1_555
Mo15 Se27 2.703916 1_655
Mo16 Se26 2.546044 1_555
Mo16 Se40 2.615925 1_655
Mo16 Se44 2.637431 1_565
Mo16 Se41 2.683514 1_565
Mo16 Se13 2.709834 1_565
Mo17 Se40 2.587852 1_655
Mo17 Se13 2.607571 1_565
Mo17 Se22 2.621462 1_655
Mo17 Se3 2.710687 1_655
Mo18 Se19 2.545719 1_555
Mo18 Se17 2.615627 1_565
Mo18 Se45 2.639523 1_556
Mo18 Se39 2.688168 1_556
Mo18 Se20 2.712211 1_556
Mo19 Se19 2.545720 1_555
Mo19 Se28 2.615627 1_655
Mo19 Se17 2.639524 1_565
Mo19 Se9 2.688168 1_565
Mo19 Se30 2.712211 1_565
Mo20 Se24 2.542719 1_554
Mo20 Se2 2.613579 1_564
Mo20 Se14 2.648552 1_555
Mo20 Se6 2.679616 1_555
Mo20 Se37 2.703917 1_565
Mo21 Se19 2.545720 1_555
Mo21 Se45 2.615627 1_556
Mo21 Se28 2.639524 1_655
Mo21 Se15 2.688168 1_655
Mo21 Se42 2.712211 1_655
Mo22 Se4 2.638959 1_455
Mo22 Se0 2.647429 1_554
Mo22 Se34 2.716592 1_455
Mo22 Se18 2.717567 1_455
Mo23 Se1 2.546044 1_555
Mo23 Se31 2.615925 1_455
Mo23 Se6 2.637431 1_545
Mo23 Se38 2.683514 1_545
Mo23 Se47 2.709834 1_545
Mo24 Se14 2.593537 1_555
Mo24 Se36 2.607000 1_655
Mo24 Se37 2.618858 1_565
Mo24 Se33 2.717678 1_555
Mo25 Se32 2.545720 1_555
Mo25 Se15 2.615627 1_554
Mo25 Se9 2.639524 1_455
Mo25 Se45 2.688168 1_455
Mo25 Se34 2.712211 1_455
Mo26 Se32 2.545719 1_555
Mo26 Se39 2.615627 1_545
Mo26 Se15 2.639523 1_554
Mo26 Se17 2.688168 1_554
Mo26 Se12 2.712211 1_554
Mo27 Se29 2.542719 1_655
Mo27 Se21 2.613580 1_654
Mo27 Se41 2.648552 1_555
Mo27 Se16 2.679616 1_555
Mo27 Se11 2.703917 1_554
Mo28 Se45 2.589458 1_556
Mo28 Se42 2.607015 1_655
Mo28 Se20 2.621557 1_556
Mo28 Se25 2.713708 1_556
Mo29 Se31 2.587852 1_455
Mo29 Se47 2.607571 1_545
Mo29 Se18 2.621462 1_455
Mo29 Se4 2.710687 1_455
Mo30 Se10 2.587851 1_554
Mo30 Se18 2.607571 1_455
Mo30 Se7 2.621462 1_554
Mo30 Se0 2.710687 1_554
Mo31 Se1 2.546044 1_555
Mo31 Se6 2.615925 1_545
Mo31 Se10 2.637431 1_554
Mo31 Se2 2.683514 1_554
Mo31 Se7 2.709834 1_554
Mo32 Se25 2.638959 1_556
Mo32 Se23 2.647429 1_565
Mo32 Se20 2.716592 1_556
Mo32 Se8 2.717567 1_556
Mo33 Se39 2.589458 1_545
Mo33 Se12 2.607015 1_554
Mo33 Se46 2.621557 1_545
Mo33 Se35 2.713708 1_545
Mo34 Se15 2.589458 1_554
Mo34 Se34 2.607015 1_455
Mo34 Se12 2.621557 1_554
Mo34 Se0 2.713708 1_554
Mo35 Se24 2.542719 1_455
Mo35 Se14 2.613580 1_456
Mo35 Se38 2.648552 1_555
Mo35 Se10 2.679616 1_555
Mo35 Se36 2.703917 1_556
Mo36 Se9 2.589458 1_455
Mo36 Se46 2.607014 1_545
Mo36 Se34 2.621556 1_455
Mo36 Se4 2.713708 1_455
Mo37 Se5 2.593538 1_555
Mo37 Se43 2.607000 1_554
Mo37 Se33 2.618858 1_455
Mo37 Se36 2.717678 1_555
Mo38 Se6 2.587852 1_545
Mo38 Se7 2.607571 1_554
Mo38 Se47 2.621462 1_545
Mo38 Se35 2.710687 1_545
Mo39 Se29 2.542719 1_565
Mo39 Se41 2.613580 1_465
Mo39 Se5 2.648552 1_555
Mo39 Se40 2.679616 1_555
Mo39 Se33 2.703916 1_455
Mo40 Se2 2.593538 1_555
Mo40 Se37 2.607000 1_556
Mo40 Se27 2.618858 1_655
Mo40 Se11 2.717678 1_555
Mo41 Se41 2.593538 1_555
Mo41 Se33 2.607000 1_545
Mo41 Se11 2.618858 1_554
Mo41 Se37 2.717678 1_555
