# generated using pymatgen
data_SrLa6OsI12
_symmetry_space_group_name_H-M   'P 1'
_cell_length_a   10.19542558
_cell_length_b   10.19542558
_cell_length_c   10.19542534
_cell_angle_alpha   106.55433431
_cell_angle_beta   106.55433431
_cell_angle_gamma   106.55433169
_symmetry_Int_Tables_number   1
_chemical_formula_structural   SrLa6OsI12
_chemical_formula_sum   'Sr1 La6 Os1 I12'
_cell_volume   893.10839182
_cell_formula_units_Z   1
loop_
 _symmetry_equiv_pos_site_id
 _symmetry_equiv_pos_as_xyz
  1  'x, y, z'
loop_
 _atom_site_type_symbol
 _atom_site_label
 _atom_site_symmetry_multiplicity
 _atom_site_fract_x
 _atom_site_fract_y
 _atom_site_fract_z
 _atom_site_occupancy
  Sr  Sr0  1  0.50000000  0.50000000  0.50000000  1
  La  La0  1  0.30311800  0.09804300  0.02428200  1
  La  La1  1  0.97571800  0.69688200  0.90195700  1
  La  La2  1  0.69688200  0.90195700  0.97571800  1
  La  La3  1  0.90195700  0.97571800  0.69688200  1
  La  La4  1  0.09804300  0.02428200  0.30311800  1
  La  La5  1  0.02428200  0.30311800  0.09804300  1
  Os  Os0  1  0.00000000  0.00000000  0.00000000  1
  I  I0  1  0.85150800  0.62267300  0.54266600  1
  I  I1  1  0.92545900  0.31952600  0.77292700  1
  I  I2  1  0.31952600  0.77292700  0.92545900  1
  I  I3  1  0.77292700  0.92545900  0.31952600  1
  I  I4  1  0.37732700  0.45733400  0.14849200  1
  I  I5  1  0.54266600  0.85150800  0.62267300  1
  I  I6  1  0.22707300  0.07454100  0.68047400  1
  I  I7  1  0.68047400  0.22707300  0.07454100  1
  I  I8  1  0.07454100  0.68047400  0.22707300  1
  I  I9  1  0.45733400  0.14849200  0.37732700  1
  I  I10  1  0.14849200  0.37732700  0.45733400  1
  I  I11  1  0.62267300  0.54266600  0.85150800  1
loop_
_geom_bond_atom_site_label_1
_geom_bond_atom_site_label_2
_geom_bond_distance
_geom_bond_site_symmetry_2
La0 Os0 2.876421 1_555
La1 Os0 2.876421 1_666
La2 Os0 2.876421 1_666
La3 Os0 2.876421 1_666
La4 Os0 2.876421 1_555
La5 Os0 2.876421 1_555
I0 La1 3.290263 1_555
I0 Sr0 3.293073 1_555
I0 La3 3.309354 1_555
I1 La5 3.246420 1_656
I1 La3 3.288204 1_545
I1 La1 3.521826 1_555
I2 La0 3.246420 1_566
I2 La1 3.288204 1_455
I2 La2 3.521826 1_555
I3 La4 3.246420 1_665
I3 La2 3.288204 1_554
I3 La3 3.521826 1_555
I4 La0 3.290263 1_555
I4 Sr0 3.293073 1_555
I4 La5 3.309354 1_555
I5 La3 3.290263 1_555
I5 Sr0 3.293073 1_555
I5 La2 3.309354 1_555
I6 La3 3.246420 1_445
I6 La0 3.288204 1_556
I6 La4 3.521826 1_555
I7 La2 3.246420 1_544
I7 La5 3.288204 1_655
I7 La0 3.521826 1_555
I8 La1 3.246420 1_454
I8 La4 3.288204 1_565
I8 La5 3.521826 1_555
I9 La4 3.290263 1_555
I9 Sr0 3.293073 1_555
I9 La0 3.309354 1_555
I10 La5 3.290263 1_555
I10 Sr0 3.293073 1_555
I10 La4 3.309354 1_555
I11 La2 3.290263 1_555
I11 Sr0 3.293073 1_555
I11 La1 3.309354 1_555
