# generated using pymatgen
data_Tb3Se2ClO8
_symmetry_space_group_name_H-M   'P 1'
_cell_length_a   5.42856400
_cell_length_b   10.91710300
_cell_length_c   15.30773300
_cell_angle_alpha   90.00000000
_cell_angle_beta   90.00000000
_cell_angle_gamma   90.00000000
_symmetry_Int_Tables_number   1
_chemical_formula_structural   Tb3Se2ClO8
_chemical_formula_sum   'Tb12 Se8 Cl4 O32'
_cell_volume   907.20043265
_cell_formula_units_Z   4
loop_
 _symmetry_equiv_pos_site_id
 _symmetry_equiv_pos_as_xyz
  1  'x, y, z'
loop_
 _atom_site_type_symbol
 _atom_site_label
 _atom_site_symmetry_multiplicity
 _atom_site_fract_x
 _atom_site_fract_y
 _atom_site_fract_z
 _atom_site_occupancy
  Tb  Tb0  1  0.48092600  0.63572700  0.42497700  1
  Tb  Tb1  1  0.02958200  0.35657400  0.75000000  1
  Tb  Tb2  1  0.98092600  0.86427300  0.07502300  1
  Tb  Tb3  1  0.97041800  0.64342600  0.25000000  1
  Tb  Tb4  1  0.47041800  0.85657400  0.25000000  1
  Tb  Tb5  1  0.52958200  0.14342600  0.75000000  1
  Tb  Tb6  1  0.51907400  0.36427300  0.92497700  1
  Tb  Tb7  1  0.01907400  0.13572700  0.92497700  1
  Tb  Tb8  1  0.51907400  0.36427300  0.57502300  1
  Tb  Tb9  1  0.98092600  0.86427300  0.42497700  1
  Tb  Tb10  1  0.01907400  0.13572700  0.57502300  1
  Tb  Tb11  1  0.48092600  0.63572700  0.07502300  1
  Se  Se0  1  0.04960700  0.37512600  0.09979400  1
  Se  Se1  1  0.95039300  0.62487400  0.59979400  1
  Se  Se2  1  0.54960700  0.12487400  0.09979400  1
  Se  Se3  1  0.45039300  0.87512600  0.90020600  1
  Se  Se4  1  0.45039300  0.87512600  0.59979400  1
  Se  Se5  1  0.95039300  0.62487400  0.90020600  1
  Se  Se6  1  0.54960700  0.12487400  0.40020600  1
  Se  Se7  1  0.04960700  0.37512600  0.40020600  1
  Cl  Cl0  1  0.58284700  0.49276500  0.75000000  1
  Cl  Cl1  1  0.41715300  0.50723500  0.25000000  1
  Cl  Cl2  1  0.08284700  0.00723500  0.75000000  1
  Cl  Cl3  1  0.91715300  0.99276500  0.25000000  1
  O  O0  1  0.19277100  0.94122700  0.95123100  1
  O  O1  1  0.11677000  0.49889800  0.63103200  1
  O  O2  1  0.38596300  0.18426300  0.01116700  1
  O  O3  1  0.22642900  0.75049200  0.15738300  1
  O  O4  1  0.38323000  0.99889800  0.13103200  1
  O  O5  1  0.88323000  0.50110200  0.13103200  1
  O  O6  1  0.88596300  0.31573700  0.48883300  1
  O  O7  1  0.11403700  0.68426300  0.98883300  1
  O  O8  1  0.61403700  0.81573700  0.51116700  1
  O  O9  1  0.27357100  0.25049200  0.65738300  1
  O  O10  1  0.80722900  0.05877300  0.04876900  1
  O  O11  1  0.27357100  0.25049200  0.84261700  1
  O  O12  1  0.77357100  0.24950800  0.65738300  1
  O  O13  1  0.72642900  0.74950800  0.34261700  1
  O  O14  1  0.69277100  0.55877300  0.95123100  1
  O  O15  1  0.61677000  0.00110200  0.86896800  1
  O  O16  1  0.61677000  0.00110200  0.63103200  1
  O  O17  1  0.77357100  0.24950800  0.84261700  1
  O  O18  1  0.22642900  0.75049200  0.34261700  1
  O  O19  1  0.61403700  0.81573700  0.98883300  1
  O  O20  1  0.19277100  0.94122700  0.54876900  1
  O  O21  1  0.69277100  0.55877300  0.54876900  1
  O  O22  1  0.72642900  0.74950800  0.15738300  1
  O  O23  1  0.38323000  0.99889800  0.36896800  1
  O  O24  1  0.11677000  0.49889800  0.86896800  1
  O  O25  1  0.80722900  0.05877300  0.45123100  1
  O  O26  1  0.30722900  0.44122700  0.45123100  1
  O  O27  1  0.88596300  0.31573700  0.01116700  1
  O  O28  1  0.88323000  0.50110200  0.36896800  1
  O  O29  1  0.11403700  0.68426300  0.51116700  1
  O  O30  1  0.30722900  0.44122700  0.04876900  1
  O  O31  1  0.38596300  0.18426300  0.48883300  1
loop_
_geom_bond_atom_site_label_1
_geom_bond_atom_site_label_2
_geom_bond_distance
_geom_bond_site_symmetry_2
Cl0 Tb1 2.844620 1_655
Cl0 Tb6 3.043346 1_555
Cl0 Tb8 3.043346 1_555
Cl0 Tb1 3.351302 1_555
Cl1 Tb3 2.844620 1_455
Cl1 Tb0 3.043346 1_555
Cl1 Tb11 3.043346 1_555
Cl1 Tb3 3.351302 1_555
Cl2 Tb5 2.844620 1_555
Cl2 Tb7 3.043346 1_555
Cl2 Tb10 3.043346 1_555
Cl2 Tb5 3.351302 1_455
Cl3 Tb4 2.844620 1_555
Cl3 Tb9 3.043346 1_555
Cl3 Tb2 3.043346 1_555
Cl3 Tb4 3.351302 1_655
O0 Se3 1.756896 1_555
O0 Tb7 2.357828 1_565
O0 Tb2 2.370497 1_456
O1 Se1 1.713429 1_455
O1 Tb1 2.440230 1_555
O1 Tb8 2.768521 1_555
O2 Se2 1.746457 1_555
O2 Tb7 2.447101 1_554
O2 Tb6 2.474846 1_554
O3 Tb2 2.215537 1_455
O3 Tb11 2.251206 1_555
O3 Tb4 2.259552 1_555
O3 Tb3 2.303847 1_455
O4 Se2 1.713429 1_565
O4 Tb4 2.440230 1_555
O4 Tb2 2.768521 1_455
O5 Se0 1.713429 1_655
O5 Tb3 2.440230 1_555
O5 Tb11 2.768521 1_555
O6 Se7 1.746457 1_655
O6 Tb8 2.447101 1_555
O6 Tb10 2.474846 1_655
O7 Se5 1.746457 1_455
O7 Tb11 2.447101 1_556
O7 Tb2 2.474846 1_456
O8 Se4 1.746457 1_555
O8 Tb9 2.447101 1_555
O8 Tb0 2.474846 1_555
O9 Tb8 2.215537 1_555
O9 Tb10 2.251206 1_555
O9 Tb1 2.259552 1_555
O9 Tb5 2.303847 1_555
O10 Se2 1.756896 1_555
O10 Tb2 2.357828 1_545
O10 Tb7 2.370497 1_654
O11 Tb6 2.215537 1_555
O11 Tb7 2.251206 1_555
O11 Tb1 2.259552 1_555
O11 Tb5 2.303847 1_555
O12 Tb10 2.215537 1_655
O12 Tb8 2.251206 1_555
O12 Tb5 2.259552 1_555
O12 Tb1 2.303847 1_655
O13 Tb0 2.215537 1_555
O13 Tb9 2.251206 1_555
O13 Tb3 2.259552 1_555
O13 Tb4 2.303847 1_555
O14 Se5 1.756896 1_555
O14 Tb6 2.357828 1_555
O14 Tb11 2.370497 1_556
O15 Se3 1.713429 1_545
O15 Tb5 2.440230 1_555
O15 Tb7 2.768521 1_655
O16 Se4 1.713429 1_545
O16 Tb5 2.440230 1_555
O16 Tb10 2.768521 1_655
O17 Tb7 2.215537 1_655
O17 Tb6 2.251206 1_555
O17 Tb5 2.259552 1_555
O17 Tb1 2.303847 1_655
O18 Tb9 2.215537 1_455
O18 Tb0 2.251206 1_555
O18 Tb4 2.259552 1_555
O18 Tb3 2.303847 1_455
O19 Se3 1.746457 1_555
O19 Tb2 2.447101 1_556
O19 Tb11 2.474846 1_556
O20 Se4 1.756896 1_555
O20 Tb10 2.357828 1_565
O20 Tb9 2.370497 1_455
O21 Se1 1.756896 1_555
O21 Tb8 2.357828 1_555
O21 Tb0 2.370497 1_555
O22 Tb11 2.215537 1_555
O22 Tb2 2.251206 1_555
O22 Tb3 2.259552 1_555
O22 Tb4 2.303847 1_555
O23 Se6 1.713429 1_565
O23 Tb4 2.440230 1_555
O23 Tb9 2.768521 1_455
O24 Se5 1.713429 1_455
O24 Tb1 2.440230 1_555
O24 Tb6 2.768521 1_555
O25 Se6 1.756896 1_555
O25 Tb9 2.357828 1_545
O25 Tb10 2.370497 1_655
O26 Se7 1.756896 1_555
O26 Tb0 2.357828 1_555
O26 Tb8 2.370497 1_555
O27 Se0 1.746457 1_655
O27 Tb6 2.447101 1_554
O27 Tb7 2.474846 1_654
O28 Se7 1.713429 1_655
O28 Tb3 2.440230 1_555
O28 Tb0 2.768521 1_555
O29 Se1 1.746457 1_455
O29 Tb0 2.447101 1_555
O29 Tb9 2.474846 1_455
O30 Se0 1.756896 1_555
O30 Tb11 2.357828 1_555
O30 Tb6 2.370497 1_554
O31 Se6 1.746457 1_555
O31 Tb10 2.447101 1_555
O31 Tb8 2.474846 1_555
