# generated using pymatgen
data_Cs5In3As4
_symmetry_space_group_name_H-M   'P 1'
_cell_length_a   12.55146800
_cell_length_b   17.35258300
_cell_length_c   18.56816169
_cell_angle_alpha   62.77409554
_cell_angle_beta   90.00000000
_cell_angle_gamma   90.00000000
_symmetry_Int_Tables_number   1
_chemical_formula_structural   Cs5In3As4
_chemical_formula_sum   'Cs40 In24 As32'
_cell_volume   3596.09962968
_cell_formula_units_Z   8
loop_
 _symmetry_equiv_pos_site_id
 _symmetry_equiv_pos_as_xyz
  1  'x, y, z'
loop_
 _atom_site_type_symbol
 _atom_site_label
 _atom_site_symmetry_multiplicity
 _atom_site_fract_x
 _atom_site_fract_y
 _atom_site_fract_z
 _atom_site_occupancy
  Cs  Cs0  1  0.36514000  0.78421600  0.40507500  1
  Cs  Cs1  1  0.63512800  0.44050800  0.13737000  1
  Cs  Cs2  1  0.13512800  0.55949200  0.36263000  1
  Cs  Cs3  1  0.41327800  0.25100300  0.31095500  1
  Cs  Cs4  1  0.38173800  0.20797100  0.10636000  1
  Cs  Cs5  1  0.85466300  0.64683500  0.03736600  1
  Cs  Cs6  1  0.87544500  0.76323700  0.78743100  1
  Cs  Cs7  1  0.61826200  0.79202900  0.89364000  1
  Cs  Cs8  1  0.88173800  0.79202900  0.39364000  1
  Cs  Cs9  1  0.33780700  0.75067600  0.18686700  1
  Cs  Cs10  1  0.86487200  0.44050800  0.63737000  1
  Cs  Cs11  1  0.12776000  0.09876100  0.46146000  1
  Cs  Cs12  1  0.62776000  0.90123900  0.03854000  1
  Cs  Cs13  1  0.37544500  0.23676300  0.71256900  1
  Cs  Cs14  1  0.14533700  0.35316500  0.96263400  1
  Cs  Cs15  1  0.62439900  0.07962100  0.46648900  1
  Cs  Cs16  1  0.39737400  0.64197400  0.03489000  1
  Cs  Cs17  1  0.11826200  0.20797100  0.60636000  1
  Cs  Cs18  1  0.12439900  0.92037900  0.03351100  1
  Cs  Cs19  1  0.83780700  0.24932400  0.31313300  1
  Cs  Cs20  1  0.58672200  0.74899700  0.68904500  1
  Cs  Cs21  1  0.66219300  0.24932400  0.81313300  1
  Cs  Cs22  1  0.64533700  0.64683500  0.53736600  1
  Cs  Cs23  1  0.60262600  0.35802600  0.96511000  1
  Cs  Cs24  1  0.16219300  0.75067600  0.68686700  1
  Cs  Cs25  1  0.87560100  0.07962100  0.96648900  1
  Cs  Cs26  1  0.91327800  0.74899700  0.18904500  1
  Cs  Cs27  1  0.12455500  0.23676300  0.21256900  1
  Cs  Cs28  1  0.37560100  0.92037900  0.53351100  1
  Cs  Cs29  1  0.37224000  0.09876100  0.96146000  1
  Cs  Cs30  1  0.10262600  0.64197400  0.53489000  1
  Cs  Cs31  1  0.13486000  0.78421600  0.90507500  1
  Cs  Cs32  1  0.63486000  0.21578400  0.59492500  1
  Cs  Cs33  1  0.89737400  0.35802600  0.46511000  1
  Cs  Cs34  1  0.36487200  0.55949200  0.86263000  1
  Cs  Cs35  1  0.87224000  0.90123900  0.53854000  1
  Cs  Cs36  1  0.35466300  0.35316500  0.46263400  1
  Cs  Cs37  1  0.86514000  0.21578400  0.09492500  1
  Cs  Cs38  1  0.62455500  0.76323700  0.28743100  1
  Cs  Cs39  1  0.08672200  0.25100300  0.81095500  1
  In  In0  1  0.99391500  0.99624100  0.20091400  1
  In  In1  1  0.50608500  0.99624100  0.70091400  1
  In  In2  1  0.00608500  0.00375900  0.79908600  1
  In  In3  1  0.49391500  0.00375900  0.29908600  1
  In  In4  1  0.12512600  0.91468500  0.39628900  1
  In  In5  1  0.62512600  0.08531500  0.10371100  1
  In  In6  1  0.87658800  0.49505600  0.94814900  1
  In  In7  1  0.76532000  0.53188200  0.27870300  1
  In  In8  1  0.02211500  0.52351100  0.77533100  1
  In  In9  1  0.37487400  0.91468500  0.89628900  1
  In  In10  1  0.97788500  0.47648900  0.22466900  1
  In  In11  1  0.23468000  0.46811800  0.72129700  1
  In  In12  1  0.73468000  0.53188200  0.77870300  1
  In  In13  1  0.74643000  0.00653800  0.79992700  1
  In  In14  1  0.25357000  0.99346200  0.20007300  1
  In  In15  1  0.26532000  0.46811800  0.22129700  1
  In  In16  1  0.37658800  0.50494400  0.55185100  1
  In  In17  1  0.62341200  0.49505600  0.44814900  1
  In  In18  1  0.24643000  0.99346200  0.70007300  1
  In  In19  1  0.87487400  0.08531500  0.60371100  1
  In  In20  1  0.12341200  0.50494400  0.05185100  1
  In  In21  1  0.52211500  0.47648900  0.72466900  1
  In  In22  1  0.47788500  0.52351100  0.27533100  1
  In  In23  1  0.75357000  0.00653800  0.29992700  1
  As  As0  1  0.12729800  0.60936200  0.13174000  1
  As  As1  1  0.81374900  0.57900000  0.39979900  1
  As  As2  1  0.88065500  0.63986000  0.66441700  1
  As  As3  1  0.43766500  0.59022700  0.39022500  1
  As  As4  1  0.62344400  0.15098900  0.22826000  1
  As  As5  1  0.45761400  0.95567800  0.17717600  1
  As  As6  1  0.93766500  0.40977300  0.10977500  1
  As  As7  1  0.31374900  0.42100000  0.10020100  1
  As  As8  1  0.37270200  0.60936200  0.63174000  1
  As  As9  1  0.56233500  0.40977300  0.60977500  1
  As  As10  1  0.62729800  0.39063800  0.36826000  1
  As  As11  1  0.37655600  0.84901100  0.77174000  1
  As  As12  1  0.11934500  0.36014000  0.33558300  1
  As  As13  1  0.12344400  0.84901100  0.27174000  1
  As  As14  1  0.18625100  0.42100000  0.60020100  1
  As  As15  1  0.87655600  0.15098900  0.72826000  1
  As  As16  1  0.04238600  0.95567800  0.67717600  1
  As  As17  1  0.37743300  0.10631600  0.57776900  1
  As  As18  1  0.79054000  0.95505600  0.18017900  1
  As  As19  1  0.95761400  0.04432200  0.32282400  1
  As  As20  1  0.87743300  0.89368400  0.92223100  1
  As  As21  1  0.87270200  0.39063800  0.86826000  1
  As  As22  1  0.61934500  0.63986000  0.16441700  1
  As  As23  1  0.06233500  0.59022700  0.89022500  1
  As  As24  1  0.12256700  0.10631600  0.07776900  1
  As  As25  1  0.70946000  0.95505600  0.68017900  1
  As  As26  1  0.20946000  0.04494400  0.81982100  1
  As  As27  1  0.29054000  0.04494400  0.31982100  1
  As  As28  1  0.38065500  0.36014000  0.83558300  1
  As  As29  1  0.62256700  0.89368400  0.42223100  1
  As  As30  1  0.54238600  0.04432200  0.82282400  1
  As  As31  1  0.68625100  0.57900000  0.89979900  1
loop_
_geom_bond_atom_site_label_1
_geom_bond_atom_site_label_2
_geom_bond_distance
_geom_bond_site_symmetry_2
Cs0 In4 3.726871 1_555
Cs0 In3 3.760154 1_565
Cs0 Cs28 4.055020 1_555
Cs1 In7 3.984794 1_555
Cs1 In22 3.988478 1_555
Cs2 In15 3.984794 1_555
Cs2 In10 3.988478 1_455
Cs3 In15 3.830853 1_555
Cs4 In14 3.680308 1_545
Cs4 In5 3.736384 1_555
Cs5 In6 3.707955 1_554
Cs5 In10 3.717346 1_555
Cs7 In13 3.680308 1_565
Cs7 In9 3.736384 1_555
Cs8 In23 3.680308 1_565
Cs8 In4 3.736384 1_655
Cs9 In22 3.924707 1_555
Cs10 In12 3.984794 1_555
Cs10 In8 3.988478 1_655
Cs11 In4 3.899370 1_545
Cs11 In19 4.067194 1_455
Cs11 Cs28 4.154393 1_545
Cs12 In5 3.899370 1_565
Cs12 In9 4.067194 1_554
Cs12 Cs25 4.154393 1_564
Cs14 In20 3.707955 1_556
Cs14 In8 3.717346 1_555
Cs15 Cs28 3.973609 1_545
Cs15 Cs19 4.035148 1_555
Cs15 Cs3 4.043253 1_555
Cs15 Cs32 4.055020 1_555
Cs15 In19 4.076258 1_555
Cs15 Cs35 4.154393 1_545
Cs15 In23 4.170219 1_555
Cs15 In1 4.181301 1_545
Cs15 In3 4.221514 1_555
Cs16 In9 4.237163 1_554
Cs17 In18 3.680308 1_545
Cs17 In19 3.736384 1_455
Cs18 Cs25 3.973609 1_464
Cs18 Cs9 4.035148 1_555
Cs18 Cs26 4.043253 1_455
Cs18 Cs31 4.055020 1_554
Cs18 In9 4.076258 1_554
Cs18 Cs29 4.154393 1_564
Cs18 In14 4.170219 1_555
Cs18 In2 4.181301 1_564
Cs18 In0 4.221514 1_455
Cs19 In10 3.924707 1_555
Cs20 In12 3.830853 1_555
Cs20 Cs28 4.043253 1_555
Cs21 In21 3.924707 1_555
Cs21 Cs25 4.035148 1_555
Cs22 In17 3.707955 1_555
Cs22 In21 3.717346 1_555
Cs23 In5 4.237163 1_556
Cs24 In8 3.924707 1_555
Cs24 Cs28 4.035148 1_555
Cs25 Cs39 4.043253 1_655
Cs25 Cs37 4.055020 1_556
Cs25 In5 4.076258 1_556
Cs25 In13 4.170219 1_555
Cs25 In0 4.181301 1_546
Cs25 In2 4.221514 1_655
Cs26 In7 3.830853 1_555
Cs28 In4 4.076258 1_555
Cs28 In18 4.170219 1_555
Cs28 In3 4.181301 1_565
Cs28 In1 4.221514 1_555
Cs29 In9 3.899370 1_545
Cs29 In5 4.067194 1_556
Cs30 In4 4.237163 1_555
Cs31 In9 3.726871 1_555
Cs31 In2 3.760154 1_565
Cs32 In19 3.726871 1_555
Cs32 In1 3.760154 1_545
Cs33 In19 4.237163 1_555
Cs34 In11 3.984794 1_555
Cs34 In21 3.988478 1_555
Cs35 In19 3.899370 1_565
Cs35 In4 4.067194 1_655
Cs36 In16 3.707955 1_555
Cs36 In22 3.717346 1_555
Cs37 In5 3.726871 1_555
Cs37 In0 3.760154 1_545
Cs39 In11 3.830853 1_555
As0 In20 2.818727 1_555
As0 In15 2.836244 1_555
As0 In10 2.858362 1_455
As0 Cs16 3.756878 1_555
As0 Cs5 3.763087 1_455
As0 Cs31 3.904379 1_554
As0 Cs2 3.967866 1_555
As0 Cs9 4.042125 1_555
As0 Cs26 4.071653 1_455
As1 In17 2.727379 1_555
As1 In7 2.788557 1_555
As1 Cs33 3.608418 1_555
As1 Cs8 3.744244 1_555
As1 Cs38 3.756284 1_555
As1 Cs26 3.874770 1_555
As1 Cs22 3.889705 1_555
As1 Cs10 3.993276 1_555
As1 Cs2 4.132318 1_655
As2 In8 2.768674 1_655
As2 In12 2.780784 1_555
As2 Cs30 3.669763 1_655
As2 Cs10 3.721243 1_555
As2 Cs22 3.747323 1_555
As2 Cs6 3.778831 1_555
As2 Cs35 4.042998 1_555
As2 Cs24 4.134257 1_655
As2 Cs20 4.266019 1_555
As3 In17 2.773859 1_555
As3 In16 2.778590 1_555
As3 In22 2.899350 1_555
As3 Cs38 3.593814 1_555
As3 Cs0 3.617365 1_555
As3 Cs9 3.736479 1_555
As3 Cs36 3.841141 1_555
As3 Cs2 3.900819 1_555
As3 Cs22 4.204691 1_555
As4 In23 2.769363 1_555
As4 In3 2.797409 1_555
As4 In5 3.009817 1_555
As4 Cs4 3.640994 1_555
As4 Cs37 3.748281 1_555
As4 Cs3 3.842723 1_555
As4 Cs19 3.885225 1_555
As4 Cs15 4.011044 1_555
As5 In14 2.724826 1_555
As5 In3 2.784939 1_565
As5 In5 2.921305 1_565
As5 Cs38 3.671184 1_555
As5 Cs29 3.775822 1_564
As5 Cs12 3.782159 1_555
As5 Cs9 3.789780 1_555
As6 In20 2.773859 1_655
As6 In6 2.778590 1_554
As6 In10 2.899350 1_555
As6 Cs27 3.593814 1_655
As6 Cs37 3.617365 1_555
As6 Cs19 3.736479 1_555
As6 Cs5 3.841141 1_555
As6 Cs1 3.900819 1_555
As6 Cs14 4.204691 1_654
As7 In20 2.727379 1_555
As7 In15 2.788557 1_555
As7 Cs16 3.608418 1_555
As7 Cs4 3.744244 1_555
As7 Cs27 3.756284 1_555
As7 Cs3 3.874770 1_555
As7 Cs14 3.889705 1_554
As7 Cs34 3.993276 1_554
As7 Cs1 4.132318 1_555
As8 In16 2.818727 1_555
As8 In11 2.836244 1_555
As8 In21 2.858362 1_555
As8 Cs30 3.756878 1_555
As8 Cs22 3.763087 1_555
As8 Cs0 3.904379 1_555
As8 Cs34 3.967866 1_555
As8 Cs24 4.042125 1_555
As8 Cs20 4.071653 1_555
As9 In16 2.773859 1_555
As9 In17 2.778590 1_555
As9 In21 2.899350 1_555
As9 Cs13 3.593814 1_555
As9 Cs32 3.617365 1_555
As9 Cs21 3.736479 1_555
As9 Cs22 3.841141 1_555
As9 Cs10 3.900819 1_555
As9 Cs36 4.204691 1_555
As10 In17 2.818727 1_555
As10 In7 2.836244 1_555
As10 In22 2.858362 1_555
As10 Cs33 3.756878 1_555
As10 Cs36 3.763087 1_555
As10 Cs32 3.904379 1_555
As10 Cs1 3.967866 1_555
As10 Cs19 4.042125 1_555
As10 Cs3 4.071653 1_555
As11 In18 2.769363 1_555
As11 In1 2.797409 1_555
As11 In9 3.009817 1_555
As11 Cs7 3.640994 1_555
As11 Cs31 3.748281 1_555
As11 Cs20 3.842723 1_555
As11 Cs24 3.885225 1_555
As11 Cs28 4.011044 1_555
As12 In10 2.768674 1_455
As12 In15 2.780784 1_555
As12 Cs33 3.669763 1_455
As12 Cs2 3.721243 1_555
As12 Cs36 3.747323 1_555
As12 Cs27 3.778831 1_555
As12 Cs11 4.042998 1_555
As12 Cs19 4.134257 1_455
As12 Cs3 4.266019 1_555
As13 In14 2.769363 1_555
As13 In0 2.797409 1_455
As13 In4 3.009817 1_555
As13 Cs8 3.640994 1_455
As13 Cs0 3.748281 1_555
As13 Cs26 3.842723 1_455
As13 Cs9 3.885225 1_555
As13 Cs18 4.011044 1_555
As14 In16 2.727379 1_555
As14 In11 2.788557 1_555
As14 Cs30 3.608418 1_555
As14 Cs17 3.744244 1_555
As14 Cs13 3.756284 1_555
As14 Cs39 3.874770 1_555
As14 Cs36 3.889705 1_555
As14 Cs2 3.993276 1_555
As14 Cs10 4.132318 1_455
As15 In13 2.769363 1_555
As15 In2 2.797409 1_655
As15 In19 3.009817 1_555
As15 Cs17 3.640994 1_655
As15 Cs32 3.748281 1_555
As15 Cs39 3.842723 1_655
As15 Cs21 3.885225 1_555
As15 Cs25 4.011044 1_555
As16 In18 2.724826 1_555
As16 In2 2.784939 1_565
As16 In19 2.921305 1_465
As16 Cs6 3.671184 1_455
As16 Cs11 3.775822 1_565
As16 Cs35 3.782159 1_455
As16 Cs24 3.789780 1_555
As17 In1 2.736427 1_545
As17 In18 2.761642 1_545
As17 Cs28 3.675895 1_545
As17 Cs36 3.823761 1_555
As17 Cs32 3.834498 1_555
As17 Cs11 3.841976 1_555
As17 Cs17 3.851256 1_555
As17 Cs15 3.868914 1_555
As17 Cs13 4.071066 1_555
As18 In0 2.725214 1_555
As18 In23 2.788343 1_565
As18 In5 2.915322 1_565
As18 Cs38 3.649702 1_555
As18 Cs25 3.702454 1_564
As18 Cs12 3.769685 1_555
As18 Cs26 3.827150 1_555
As18 Cs8 3.842327 1_555
As19 In23 2.724826 1_555
As19 In0 2.784939 1_545
As19 In4 2.921305 1_645
As19 Cs27 3.671184 1_655
As19 Cs35 3.775822 1_545
As19 Cs11 3.782159 1_655
As19 Cs19 3.789780 1_555
As20 In2 2.736427 1_665
As20 In13 2.761642 1_565
As20 Cs25 3.675895 1_565
As20 Cs5 3.823761 1_556
As20 Cs31 3.834498 1_655
As20 Cs12 3.841976 1_556
As20 Cs7 3.851256 1_555
As20 Cs18 3.868914 1_656
As20 Cs6 4.071066 1_555
As21 In6 2.818727 1_555
As21 In12 2.836244 1_555
As21 In8 2.858362 1_655
As21 Cs23 3.756878 1_555
As21 Cs14 3.763087 1_655
As21 Cs37 3.904379 1_556
As21 Cs10 3.967866 1_555
As21 Cs21 4.042125 1_555
As21 Cs39 4.071653 1_655
As22 In22 2.768674 1_555
As22 In7 2.780784 1_555
As22 Cs16 3.669763 1_555
As22 Cs1 3.721243 1_555
As22 Cs5 3.747323 1_555
As22 Cs38 3.778831 1_555
As22 Cs12 4.042998 1_555
As22 Cs9 4.134257 1_555
As22 Cs26 4.266019 1_555
As23 In6 2.773859 1_455
As23 In20 2.778590 1_556
As23 In8 2.899350 1_555
As23 Cs6 3.593814 1_455
As23 Cs31 3.617365 1_555
As23 Cs24 3.736479 1_555
As23 Cs14 3.841141 1_555
As23 Cs34 3.900819 1_555
As23 Cs5 4.204691 1_456
As24 In0 2.736427 1_445
As24 In14 2.761642 1_545
As24 Cs18 3.675895 1_545
As24 Cs14 3.823761 1_554
As24 Cs37 3.834498 1_455
As24 Cs29 3.841976 1_554
As24 Cs4 3.851256 1_555
As24 Cs25 3.868914 1_454
As24 Cs27 4.071066 1_555
As25 In1 2.725214 1_555
As25 In13 2.788343 1_565
As25 In19 2.915322 1_565
As25 Cs6 3.649702 1_555
As25 Cs15 3.702454 1_565
As25 Cs35 3.769685 1_555
As25 Cs20 3.827150 1_555
As25 Cs7 3.842327 1_555
As26 In2 2.725214 1_555
As26 In18 2.788343 1_545
As26 In9 2.915322 1_545
As26 Cs13 3.649702 1_555
As26 Cs18 3.702454 1_546
As26 Cs29 3.769685 1_555
As26 Cs39 3.827150 1_555
As26 Cs17 3.842327 1_555
As27 In3 2.725214 1_555
As27 In14 2.788343 1_545
As27 In4 2.915322 1_545
As27 Cs27 3.649702 1_555
As27 Cs28 3.702454 1_545
As27 Cs11 3.769685 1_555
As27 Cs3 3.827150 1_555
As27 Cs4 3.842327 1_555
As28 In21 2.768674 1_555
As28 In11 2.780784 1_555
As28 Cs23 3.669763 1_555
As28 Cs34 3.721243 1_555
As28 Cs14 3.747323 1_555
As28 Cs13 3.778831 1_555
As28 Cs29 4.042998 1_555
As28 Cs21 4.134257 1_555
As28 Cs39 4.266019 1_555
As29 In3 2.736427 1_565
As29 In23 2.761642 1_565
As29 Cs15 3.675895 1_565
As29 Cs22 3.823761 1_555
As29 Cs0 3.834498 1_555
As29 Cs35 3.841976 1_555
As29 Cs8 3.851256 1_555
As29 Cs28 3.868914 1_555
As29 Cs38 4.071066 1_555
As30 In13 2.724826 1_555
As30 In1 2.784939 1_545
As30 In9 2.921305 1_545
As30 Cs13 3.671184 1_555
As30 Cs12 3.775822 1_546
As30 Cs29 3.782159 1_555
As30 Cs21 3.789780 1_555
As31 In6 2.727379 1_555
As31 In12 2.788557 1_555
As31 Cs23 3.608418 1_555
As31 Cs7 3.744244 1_555
As31 Cs6 3.756284 1_555
As31 Cs20 3.874770 1_555
As31 Cs5 3.889705 1_556
As31 Cs1 3.993276 1_556
As31 Cs34 4.132318 1_555
