# generated using pymatgen
data_NaVCdO4
_symmetry_space_group_name_H-M   'P 1'
_cell_length_a   5.68292250
_cell_length_b   5.68292250
_cell_length_c   6.87477300
_cell_angle_alpha   90.00000000
_cell_angle_beta   90.00000000
_cell_angle_gamma   113.68339147
_symmetry_Int_Tables_number   1
_chemical_formula_structural   NaVCdO4
_chemical_formula_sum   'Na2 V2 Cd2 O8'
_cell_volume   203.32582486
_cell_formula_units_Z   2
loop_
 _symmetry_equiv_pos_site_id
 _symmetry_equiv_pos_as_xyz
  1  'x, y, z'
loop_
 _atom_site_type_symbol
 _atom_site_label
 _atom_site_symmetry_multiplicity
 _atom_site_fract_x
 _atom_site_fract_y
 _atom_site_fract_z
 _atom_site_occupancy
  Na  Na0  1  0.50000000  0.50000000  0.50000000  1
  Na  Na1  1  0.50000000  0.50000000  0.00000000  1
  V  V0  1  0.86015900  0.13984100  0.25000000  1
  V  V1  1  0.13984100  0.86015900  0.75000000  1
  Cd  Cd0  1  0.17544800  0.82455200  0.25000000  1
  Cd  Cd1  1  0.82455200  0.17544800  0.75000000  1
  O  O0  1  0.80528200  0.74671500  0.75000000  1
  O  O1  1  0.25328500  0.19471800  0.75000000  1
  O  O2  1  0.24870700  0.75129300  0.95573900  1
  O  O3  1  0.24870700  0.75129300  0.54426100  1
  O  O4  1  0.75129300  0.24870700  0.04426100  1
  O  O5  1  0.75129300  0.24870700  0.45573900  1
  O  O6  1  0.19471800  0.25328500  0.25000000  1
  O  O7  1  0.74671500  0.80528200  0.25000000  1
loop_
_geom_bond_atom_site_label_1
_geom_bond_atom_site_label_2
_geom_bond_distance
_geom_bond_site_symmetry_2
Na0 O3 2.410352 1_555
Na0 O5 2.410352 1_555
Na0 O7 2.444466 1_555
Na0 O0 2.444466 1_555
Na0 O6 2.444466 1_555
Na0 O1 2.444466 1_555
Na1 O4 2.410352 1_555
Na1 O2 2.410352 1_554
Na1 O0 2.444466 1_554
Na1 O7 2.444466 1_555
Na1 O1 2.444466 1_554
Na1 O6 2.444466 1_555
Cd0 O3 2.139705 1_555
Cd0 O2 2.139705 1_554
Cd0 O7 2.394569 1_455
Cd0 O6 2.394569 1_565
Cd1 O4 2.139705 1_556
Cd1 O5 2.139705 1_555
Cd1 O0 2.394569 1_545
Cd1 O1 2.394569 1_655
O0 V1 1.745209 1_655
O1 V1 1.745209 1_545
O2 V1 1.753161 1_555
O3 V1 1.753161 1_555
O4 V0 1.753161 1_555
O5 V0 1.753161 1_555
O6 V0 1.745209 1_455
O7 V0 1.745209 1_565
