# generated using pymatgen
data_CsLi5(BO3)2
_symmetry_space_group_name_H-M   'P 1'
_cell_length_a   7.63089884
_cell_length_b   7.63089884
_cell_length_c   8.18020939
_cell_angle_alpha   58.07111859
_cell_angle_beta   58.07111859
_cell_angle_gamma   77.48729800
_symmetry_Int_Tables_number   1
_chemical_formula_structural   CsLi5(BO3)2
_chemical_formula_sum   'Cs2 Li10 B4 O12'
_cell_volume   341.79027765
_cell_formula_units_Z   2
loop_
 _symmetry_equiv_pos_site_id
 _symmetry_equiv_pos_as_xyz
  1  'x, y, z'
loop_
 _atom_site_type_symbol
 _atom_site_label
 _atom_site_symmetry_multiplicity
 _atom_site_fract_x
 _atom_site_fract_y
 _atom_site_fract_z
 _atom_site_occupancy
  Cs  Cs0  1  0.69172100  0.30827900  0.75000000  1
  Cs  Cs1  1  0.30827900  0.69172100  0.25000000  1
  Li  Li0  1  0.52989900  0.26619700  0.22923000  1
  Li  Li1  1  0.70380000  0.07057000  0.46047100  1
  Li  Li2  1  0.47010100  0.73380300  0.77077000  1
  Li  Li3  1  0.73380300  0.47010100  0.27077000  1
  Li  Li4  1  0.00000000  0.00000000  0.00000000  1
  Li  Li5  1  0.29620000  0.92943000  0.53952900  1
  Li  Li6  1  0.26619700  0.52989900  0.72923000  1
  Li  Li7  1  0.07057000  0.70380000  0.96047100  1
  Li  Li8  1  0.00000000  0.00000000  0.50000000  1
  Li  Li9  1  0.92943000  0.29620000  0.03952900  1
  B  B0  1  0.83146400  0.68813600  0.81136300  1
  B  B1  1  0.68813600  0.83146400  0.31136300  1
  B  B2  1  0.16853600  0.31186400  0.18863700  1
  B  B3  1  0.31186400  0.16853600  0.68863700  1
  O  O0  1  0.16709600  0.27004100  0.79827900  1
  O  O1  1  0.04433100  0.73502400  0.71567900  1
  O  O2  1  0.95566900  0.26497600  0.28432100  1
  O  O3  1  0.27004100  0.16709600  0.29827900  1
  O  O4  1  0.73502400  0.04433100  0.21567900  1
  O  O5  1  0.26497600  0.95566900  0.78432100  1
  O  O6  1  0.50477600  0.73060100  0.50697800  1
  O  O7  1  0.83290400  0.72995900  0.20172100  1
  O  O8  1  0.73060100  0.50477600  0.00697800  1
  O  O9  1  0.26939900  0.49522400  0.99302200  1
  O  O10  1  0.49522400  0.26939900  0.49302200  1
  O  O11  1  0.72995900  0.83290400  0.70172100  1
loop_
_geom_bond_atom_site_label_1
_geom_bond_atom_site_label_2
_geom_bond_distance
_geom_bond_site_symmetry_2
Cs0 O9 3.256373 1_555
Cs0 O6 3.256373 1_555
Cs0 Li0 3.273516 1_556
Cs0 Li3 3.273516 1_555
Cs0 O8 3.307841 1_556
Cs0 O10 3.307841 1_555
Cs0 Li2 3.366434 1_555
Cs0 Li6 3.366434 1_555
Cs0 O4 3.406557 1_556
Cs0 O2 3.406557 1_555
Cs0 O3 3.571634 1_556
Cs0 O7 3.571634 1_555
Cs0 Li4 3.585009 1_656
Cs0 Li8 3.585009 1_655
Cs0 O0 3.786152 1_655
Cs0 O11 3.786152 1_545
Cs1 O8 3.256373 1_555
Cs1 O10 3.256373 1_555
Cs1 Li6 3.273516 1_555
Cs1 Li2 3.273516 1_554
Cs1 O6 3.307841 1_555
Cs1 O9 3.307841 1_554
Cs1 Li3 3.366434 1_555
Cs1 Li0 3.366434 1_555
Cs1 O5 3.406557 1_554
Cs1 O1 3.406557 1_555
Cs1 O0 3.571634 1_555
Cs1 O11 3.571634 1_554
Cs1 Li8 3.585009 1_565
Cs1 Li4 3.585009 1_565
Cs1 O3 3.786152 1_565
Cs1 O7 3.786152 1_455
Li0 O8 1.930660 1_555
Li0 O3 1.958644 1_555
Li0 O10 2.043541 1_555
Li0 O4 2.048280 1_555
Li1 O11 1.922938 1_545
Li1 O10 1.959298 1_555
Li1 O4 2.001356 1_555
Li1 O2 2.004041 1_555
Li2 O9 1.930660 1_555
Li2 O11 1.958644 1_555
Li2 O6 2.043541 1_555
Li2 O5 2.048280 1_555
Li3 O10 1.930660 1_555
Li3 O7 1.958644 1_555
Li3 O8 2.043541 1_555
Li3 O2 2.048280 1_555
Li4 O5 1.969065 1_544
Li4 O4 1.969065 1_455
Li4 O0 1.977734 1_554
Li4 O7 1.977734 1_445
Li5 O3 1.922938 1_565
Li5 O6 1.959298 1_555
Li5 O5 2.001356 1_555
Li5 O1 2.004041 1_555
Li6 O6 1.930660 1_555
Li6 O0 1.958644 1_555
Li6 O9 2.043541 1_555
Li6 O1 2.048280 1_555
Li7 O7 1.922938 1_456
Li7 O9 1.959298 1_555
Li7 O1 2.001356 1_555
Li7 O5 2.004041 1_555
Li8 O1 1.969065 1_545
Li8 O2 1.969065 1_455
Li8 O3 1.977734 1_555
Li8 O11 1.977734 1_445
Li9 O0 1.922938 1_654
Li9 O8 1.959298 1_555
Li9 O2 2.001356 1_555
Li9 O4 2.004041 1_555
B0 O8 1.380732 1_556
B0 O11 1.393127 1_555
B0 O1 1.410683 1_655
B0 Cs0 3.638110 1_555
B1 O6 1.380732 1_555
B1 O7 1.393127 1_555
B1 O4 1.410683 1_565
B1 Cs1 3.638110 1_555
B2 O9 1.380732 1_554
B2 O3 1.393127 1_555
B2 O2 1.410683 1_455
B2 Cs1 3.638110 1_555
B3 O10 1.380732 1_555
B3 O0 1.393127 1_555
B3 O5 1.410683 1_545
B3 Cs0 3.638110 1_555
