# generated using pymatgen
data_BiBPbO4
_symmetry_space_group_name_H-M   'P 1'
_cell_length_a   7.50228763
_cell_length_b   7.51547626
_cell_length_c   10.47591691
_cell_angle_alpha   46.75566896
_cell_angle_beta   90.00000000
_cell_angle_gamma   90.00000000
_symmetry_Int_Tables_number   1
_chemical_formula_structural   BiBPbO4
_chemical_formula_sum   'Bi4 B4 Pb4 O16'
_cell_volume   430.26429607
_cell_formula_units_Z   4
loop_
 _symmetry_equiv_pos_site_id
 _symmetry_equiv_pos_as_xyz
  1  'x, y, z'
loop_
 _atom_site_type_symbol
 _atom_site_label
 _atom_site_symmetry_multiplicity
 _atom_site_fract_x
 _atom_site_fract_y
 _atom_site_fract_z
 _atom_site_occupancy
  Bi  Bi0  1  0.99995195  0.81991590  0.34182227  1
  Bi  Bi1  1  0.50004805  0.81991590  0.84182227  1
  Bi  Bi2  1  0.00004805  0.18008410  0.65817773  1
  Bi  Bi3  1  0.49995195  0.18008410  0.15817773  1
  B  B0  1  0.24381258  0.00038842  0.01159305  1
  B  B1  1  0.75618742  0.99961158  0.98840695  1
  B  B2  1  0.25618742  0.00038842  0.51159305  1
  B  B3  1  0.74381258  0.99961158  0.48840695  1
  Pb  Pb0  1  0.89264924  0.49985265  0.81831375  1
  Pb  Pb1  1  0.60735076  0.49985265  0.31831375  1
  Pb  Pb2  1  0.39264924  0.50014735  0.68168625  1
  Pb  Pb3  1  0.10735076  0.50014735  0.18168625  1
  O  O0  1  0.89784018  0.50132880  0.39555553  1
  O  O1  1  0.79063018  0.78722704  0.52930193  1
  O  O2  1  0.39784018  0.49867120  0.10444447  1
  O  O3  1  0.70936982  0.78722704  0.02930193  1
  O  O4  1  0.70406679  0.20869207  0.31600192  1
  O  O5  1  0.26224300  0.99243376  0.38509390  1
  O  O6  1  0.76224300  0.00756624  0.11490610  1
  O  O7  1  0.10215982  0.49867120  0.60444447  1
  O  O8  1  0.29063018  0.21277296  0.97069807  1
  O  O9  1  0.20936982  0.21277296  0.47069807  1
  O  O10  1  0.23775700  0.99243376  0.88509390  1
  O  O11  1  0.20406679  0.79130793  0.18399808  1
  O  O12  1  0.29593321  0.79130793  0.68399808  1
  O  O13  1  0.73775700  0.00756624  0.61490610  1
  O  O14  1  0.79593321  0.20869207  0.81600192  1
  O  O15  1  0.60215982  0.50132880  0.89555553  1
loop_
_geom_bond_atom_site_label_1
_geom_bond_atom_site_label_2
_geom_bond_distance
_geom_bond_site_symmetry_2
Bi0 O0 2.188561 1_555
Bi0 O7 2.210119 1_655
Bi0 O11 2.368934 1_655
Bi0 O1 2.392222 1_555
Bi0 O6 2.495301 1_565
Bi0 O5 2.562040 1_655
Bi1 O15 2.188561 1_555
Bi1 O2 2.210119 1_556
Bi1 O12 2.368934 1_555
Bi1 O3 2.392222 1_556
Bi1 O13 2.495301 1_565
Bi1 O10 2.562040 1_555
Bi2 O7 2.188561 1_555
Bi2 O0 2.210119 1_455
Bi2 O14 2.368934 1_455
Bi2 O9 2.392222 1_555
Bi2 O10 2.495301 1_545
Bi2 O13 2.562040 1_455
Bi3 O2 2.188561 1_555
Bi3 O15 2.210119 1_554
Bi3 O4 2.368934 1_555
Bi3 O8 2.392222 1_554
Bi3 O5 2.495301 1_545
Bi3 O6 2.562040 1_555
B0 O10 1.367601 1_544
B0 O8 1.384805 1_554
B0 O11 1.389725 1_545
B1 O6 1.367601 1_566
B1 O3 1.384805 1_556
B1 O14 1.389725 1_565
B2 O5 1.367601 1_545
B2 O9 1.384805 1_555
B2 O12 1.389725 1_545
B3 O13 1.367601 1_565
B3 O1 1.384805 1_555
B3 O4 1.389725 1_565
O0 Pb1 2.327379 1_555
O0 Pb3 2.741834 1_655
O1 Pb0 2.336064 1_555
O2 Pb3 2.327379 1_555
O2 Pb1 2.741834 1_555
O3 Pb1 2.336064 1_555
O4 Pb1 2.321196 1_555
O7 Pb2 2.327379 1_555
O7 Pb0 2.741834 1_455
O8 Pb2 2.336064 1_555
O9 Pb3 2.336064 1_555
O11 Pb3 2.321196 1_555
O12 Pb2 2.321196 1_555
O14 Pb0 2.321196 1_555
O15 Pb0 2.327379 1_555
O15 Pb2 2.741834 1_555
