# generated using pymatgen
data_Cs2MnF5
_symmetry_space_group_name_H-M   'P 1'
_cell_length_a   4.26884963
_cell_length_b   6.34379400
_cell_length_c   6.34379400
_cell_angle_alpha   90.00612192
_cell_angle_beta   90.00000000
_cell_angle_gamma   90.00000000
_symmetry_Int_Tables_number   1
_chemical_formula_structural   Cs2MnF5
_chemical_formula_sum   'Cs2 Mn1 F5'
_cell_volume   171.79439808
_cell_formula_units_Z   1
loop_
 _symmetry_equiv_pos_site_id
 _symmetry_equiv_pos_as_xyz
  1  'x, y, z'
loop_
 _atom_site_type_symbol
 _atom_site_label
 _atom_site_symmetry_multiplicity
 _atom_site_fract_x
 _atom_site_fract_y
 _atom_site_fract_z
 _atom_site_occupancy
  Cs  Cs0  1  0.50000000  -0.00000000  0.50000000  1
  Cs  Cs1  1  0.50000000  0.50000000  0.00000000  1
  Mn  Mn0  1  0.00000000  -0.00000000  0.00000000  1
  F  F0  1  0.00000000  0.79200478  0.79200478  1
  F  F1  1  0.00000000  0.20800043  0.79199957  1
  F  F2  1  0.00000000  0.79199957  0.20800043  1
  F  F3  1  0.50000000  -0.00000000  0.00000000  1
  F  F4  1  0.00000000  0.20799522  0.20799522  1
loop_
_geom_bond_atom_site_label_1
_geom_bond_atom_site_label_2
_geom_bond_distance
_geom_bond_site_symmetry_2
Cs0 F2 3.118924 1_645
Cs0 F1 3.118924 1_655
Cs0 F2 3.118924 1_545
Cs0 F1 3.118924 1_555
Cs0 F4 3.119097 1_555
Cs0 F4 3.119097 1_655
Cs0 F0 3.119097 1_545
Cs0 F0 3.119097 1_645
Cs0 F3 3.171897 1_555
Cs0 F3 3.171897 1_556
Cs1 F2 3.118924 1_555
Cs1 F1 3.118924 1_654
Cs1 F2 3.118924 1_655
Cs1 F1 3.118924 1_554
Cs1 F4 3.119097 1_555
Cs1 F4 3.119097 1_655
Cs1 F0 3.119097 1_554
Cs1 F0 3.119097 1_654
Cs1 F3 3.171897 1_565
Cs1 F3 3.171897 1_555
F0 Mn0 1.865925 1_566
F1 Mn0 1.866171 1_556
F2 Mn0 1.866171 1_565
F3 Mn0 2.134425 1_555
F3 Mn0 2.134425 1_655
F4 Mn0 1.865925 1_555
