# generated using pymatgen
data_Nd(CoB)4
_symmetry_space_group_name_H-M   'P 1'
_cell_length_a   3.76907199
_cell_length_b   7.02301302
_cell_length_c   7.02300711
_cell_angle_alpha   89.99982566
_cell_angle_beta   90.00053365
_cell_angle_gamma   90.00015387
_symmetry_Int_Tables_number   1
_chemical_formula_structural   Nd(CoB)4
_chemical_formula_sum   'Nd2 Co8 B8'
_cell_volume   185.90069553
_cell_formula_units_Z   2
loop_
 _symmetry_equiv_pos_site_id
 _symmetry_equiv_pos_as_xyz
  1  'x, y, z'
loop_
 _atom_site_type_symbol
 _atom_site_label
 _atom_site_symmetry_multiplicity
 _atom_site_fract_x
 _atom_site_fract_y
 _atom_site_fract_z
 _atom_site_occupancy
  Nd  Nd0  1  0.24999422  0.25000987  0.24999908  1
  Nd  Nd1  1  0.74999934  0.74998943  0.75000399  1
  Co  Co0  1  0.64384047  0.13453206  0.60768907  1
  Co  Co1  1  0.14383880  0.10768227  0.86547320  1
  Co  Co2  1  0.64384010  0.36546493  0.89232241  1
  Co  Co3  1  0.35615897  0.86548574  0.39231243  1
  Co  Co4  1  0.85616316  0.89232079  0.13450878  1
  Co  Co5  1  0.35615570  0.63451931  0.10767407  1
  Co  Co6  1  0.14384026  0.39231606  0.63453134  1
  Co  Co7  1  0.85615788  0.60767966  0.36548104  1
  B  B0  1  0.85331782  0.54685397  0.08882552  1
  B  B1  1  0.85332419  0.95314243  0.41117381  1
  B  B2  1  0.35331880  0.91117322  0.04685600  1
  B  B3  1  0.14668357  0.04684873  0.58881870  1
  B  B4  1  0.14668106  0.45315476  0.91118446  1
  B  B5  1  0.64667870  0.41118645  0.54684710  1
  B  B6  1  0.64668655  0.08881919  0.95315344  1
  B  B7  1  0.35332041  0.58882213  0.45314657  1
loop_
_geom_bond_atom_site_label_1
_geom_bond_atom_site_label_2
_geom_bond_distance
_geom_bond_site_symmetry_2
Co0 Nd1 2.907324 1_545
Co0 Nd0 3.028471 1_555
Co1 Nd0 2.907244 1_556
Co1 Nd1 3.028468 1_445
Co2 Nd1 2.907215 1_555
Co2 Nd0 3.028371 1_556
Co3 Nd0 2.907203 1_565
Co3 Nd1 3.028504 1_555
Co4 Nd1 2.907120 1_554
Co4 Nd0 3.028470 1_665
Co5 Nd0 2.907134 1_555
Co5 Nd1 3.028357 1_554
Co6 Nd0 2.907241 1_555
Co6 Nd1 3.028378 1_455
Co7 Nd1 2.907191 1_555
Co7 Nd0 3.028366 1_655
B0 B4 1.792232 1_654
B0 Co5 1.976832 1_555
B0 Co7 1.989390 1_555
B0 Co5 1.997116 1_655
B0 Co2 2.037323 1_554
B0 Co4 2.447363 1_555
B0 Nd1 2.801625 1_554
B0 Nd0 2.804049 1_655
B0 Nd0 3.286083 1_555
B1 B3 1.792244 1_665
B1 Co3 1.976825 1_555
B1 Co4 1.989449 1_555
B1 Co3 1.997098 1_655
B1 Co0 2.037405 1_565
B1 Co7 2.447344 1_555
B1 Nd1 2.801748 1_555
B1 Nd0 2.804167 1_665
B1 Nd0 3.286199 1_565
B2 B6 1.792266 1_564
B2 Co4 1.976785 1_455
B2 Co5 1.989366 1_555
B2 Co4 1.997111 1_555
B2 Co1 2.037325 1_564
B2 Co3 2.447291 1_555
B2 Nd0 2.801759 1_565
B2 Nd1 2.804147 1_554
B2 Nd1 3.286116 1_454
B3 Co0 1.976858 1_555
B3 Co1 1.989395 1_555
B3 Co0 1.997189 1_455
B3 Co3 2.037233 1_545
B3 Co6 2.447394 1_555
B3 Nd0 2.801706 1_555
B3 Nd1 2.804183 1_445
B3 Nd1 3.286151 1_545
B4 Co2 1.976881 1_555
B4 Co6 1.989393 1_555
B4 Co2 1.997186 1_455
B4 Co5 2.037147 1_556
B4 Co1 2.447429 1_555
B4 Nd0 2.801614 1_556
B4 Nd1 2.804030 1_455
B4 Nd1 3.286043 1_555
B5 B7 1.792185 1_555
B5 Co6 1.976873 1_655
B5 Co0 1.989405 1_555
B5 Co6 1.997177 1_555
B5 Co7 2.037182 1_555
B5 Co2 2.447454 1_555
B5 Nd1 2.801600 1_555
B5 Nd0 2.804089 1_555
B5 Nd0 3.286102 1_655
B6 Co1 1.976838 1_655
B6 Co2 1.989330 1_555
B6 Co1 1.997188 1_555
B6 Co4 2.037149 1_546
B6 Co0 2.447370 1_555
B6 Nd1 2.801735 1_545
B6 Nd0 2.804156 1_556
B6 Nd0 3.286074 1_656
B7 Co7 1.976830 1_455
B7 Co3 1.989457 1_555
B7 Co7 1.997127 1_555
B7 Co6 2.037326 1_555
B7 Co5 2.447412 1_555
B7 Nd0 2.801625 1_555
B7 Nd1 2.804101 1_555
B7 Nd1 3.286136 1_455
