# generated using pymatgen
data_La3As2ClO7
_symmetry_space_group_name_H-M   'P 1'
_cell_length_a   13.09564600
_cell_length_b   13.09564600
_cell_length_c   5.64513100
_cell_angle_alpha   90.00000000
_cell_angle_beta   90.00000000
_cell_angle_gamma   90.00000000
_symmetry_Int_Tables_number   1
_chemical_formula_structural   La3As2ClO7
_chemical_formula_sum   'La12 As8 Cl4 O28'
_cell_volume   968.11707074
_cell_formula_units_Z   4
loop_
 _symmetry_equiv_pos_site_id
 _symmetry_equiv_pos_as_xyz
  1  'x, y, z'
loop_
 _atom_site_type_symbol
 _atom_site_label
 _atom_site_symmetry_multiplicity
 _atom_site_fract_x
 _atom_site_fract_y
 _atom_site_fract_z
 _atom_site_occupancy
  La  La0  1  0.73101800  0.73101800  0.00000000  1
  La  La1  1  0.36345100  0.05183600  0.50000000  1
  La  La2  1  0.76898200  0.23101800  0.50000000  1
  La  La3  1  0.23101800  0.76898200  0.50000000  1
  La  La4  1  0.94816400  0.63654900  0.50000000  1
  La  La5  1  0.13654900  0.55183600  0.00000000  1
  La  La6  1  0.26898200  0.26898200  0.00000000  1
  La  La7  1  0.44816400  0.86345100  0.00000000  1
  La  La8  1  0.05183600  0.36345100  0.50000000  1
  La  La9  1  0.63654900  0.94816400  0.50000000  1
  La  La10  1  0.55183600  0.13654900  0.00000000  1
  La  La11  1  0.86345100  0.44816400  0.00000000  1
  As  As0  1  0.98004400  0.20861800  0.00000000  1
  As  As1  1  0.51995600  0.70861800  0.50000000  1
  As  As2  1  0.29138200  0.48004400  0.50000000  1
  As  As3  1  0.79138200  0.01995600  0.00000000  1
  As  As4  1  0.01995600  0.79138200  0.00000000  1
  As  As5  1  0.70861800  0.51995600  0.50000000  1
  As  As6  1  0.20861800  0.98004400  0.00000000  1
  As  As7  1  0.48004400  0.29138200  0.50000000  1
  Cl  Cl0  1  0.16734600  0.16734600  0.50000000  1
  Cl  Cl1  1  0.66734600  0.33265400  0.00000000  1
  Cl  Cl2  1  0.83265400  0.83265400  0.50000000  1
  Cl  Cl3  1  0.33265400  0.66734600  0.00000000  1
  O  O0  1  0.77655500  0.58505800  0.26172200  1
  O  O1  1  0.70949000  0.91112700  0.00000000  1
  O  O2  1  0.22344500  0.41494200  0.73827800  1
  O  O3  1  0.41112700  0.79051000  0.50000000  1
  O  O4  1  0.77655500  0.58505800  0.73827800  1
  O  O5  1  0.29051000  0.08887300  0.00000000  1
  O  O6  1  0.58505800  0.77655500  0.73827800  1
  O  O7  1  0.27655500  0.91494200  0.23827800  1
  O  O8  1  0.72344500  0.08505800  0.76172200  1
  O  O9  1  0.08505800  0.72344500  0.23827800  1
  O  O10  1  0.41494200  0.22344500  0.26172200  1
  O  O11  1  0.58505800  0.77655500  0.26172200  1
  O  O12  1  0.72344500  0.08505800  0.23827800  1
  O  O13  1  0.22344500  0.41494200  0.26172200  1
  O  O14  1  0.91494200  0.27655500  0.23827800  1
  O  O15  1  0.79051000  0.41112700  0.50000000  1
  O  O16  1  0.00000000  0.50000000  0.25000000  1
  O  O17  1  0.58887300  0.20949000  0.50000000  1
  O  O18  1  0.27655500  0.91494200  0.76172200  1
  O  O19  1  0.08505800  0.72344500  0.76172200  1
  O  O20  1  0.41494200  0.22344500  0.73827800  1
  O  O21  1  0.20949000  0.58887300  0.50000000  1
  O  O22  1  0.91494200  0.27655500  0.76172200  1
  O  O23  1  0.91112700  0.70949000  0.00000000  1
  O  O24  1  0.08887300  0.29051000  0.00000000  1
  O  O25  1  0.00000000  0.50000000  0.75000000  1
  O  O26  1  0.50000000  0.00000000  0.75000000  1
  O  O27  1  0.50000000  0.00000000  0.25000000  1
loop_
_geom_bond_atom_site_label_1
_geom_bond_atom_site_label_2
_geom_bond_distance
_geom_bond_site_symmetry_2
La0 O23 2.375433 1_555
La0 O1 2.375433 1_555
La0 O11 2.488392 1_555
La0 O6 2.488392 1_554
La0 O0 2.488392 1_555
La0 O4 2.488392 1_554
La1 O27 2.377009 1_555
La1 O26 2.377009 1_555
La1 O7 2.586823 1_545
La1 O18 2.586823 1_545
La1 O20 2.704535 1_555
La1 O10 2.704535 1_555
La1 O5 3.019031 1_555
La1 O5 3.019031 1_556
La2 O15 2.375433 1_555
La2 O17 2.375433 1_555
La2 O14 2.488392 1_555
La2 O22 2.488392 1_555
La2 O8 2.488392 1_555
La2 O12 2.488392 1_555
La3 O3 2.375433 1_555
La3 O21 2.375433 1_555
La3 O18 2.488392 1_555
La3 O7 2.488392 1_555
La3 O19 2.488392 1_555
La3 O9 2.488392 1_555
La4 O25 2.377009 1_655
La4 O16 2.377009 1_655
La4 O19 2.586823 1_655
La4 O9 2.586823 1_655
La4 O0 2.704535 1_555
La4 O4 2.704535 1_555
La4 O23 3.019031 1_556
La4 O23 3.019031 1_555
La5 O25 2.377009 1_554
La5 O16 2.377009 1_555
La5 O13 2.586823 1_555
La5 O2 2.586823 1_554
La5 O19 2.704535 1_554
La5 O9 2.704535 1_555
La5 O21 3.019031 1_554
La5 O21 3.019031 1_555
La6 O24 2.375433 1_555
La6 O5 2.375433 1_555
La6 O2 2.488392 1_554
La6 O20 2.488392 1_554
La6 O13 2.488392 1_555
La6 O10 2.488392 1_555
La7 O26 2.377009 1_564
La7 O27 2.377009 1_565
La7 O11 2.586823 1_555
La7 O6 2.586823 1_554
La7 O7 2.704535 1_555
La7 O18 2.704535 1_554
La7 O3 3.019031 1_554
La7 O3 3.019031 1_555
La8 O25 2.377009 1_555
La8 O16 2.377009 1_555
La8 O22 2.586823 1_455
La8 O14 2.586823 1_455
La8 O13 2.704535 1_555
La8 O2 2.704535 1_555
La8 O24 3.019031 1_556
La8 O24 3.019031 1_555
La9 O27 2.377009 1_565
La9 O26 2.377009 1_565
La9 O12 2.586823 1_565
La9 O8 2.586823 1_565
La9 O6 2.704535 1_555
La9 O11 2.704535 1_555
La9 O1 3.019031 1_556
La9 O1 3.019031 1_555
La10 O26 2.377009 1_554
La10 O27 2.377009 1_555
La10 O10 2.586823 1_555
La10 O20 2.586823 1_554
La10 O8 2.704535 1_554
La10 O12 2.704535 1_555
La10 O17 3.019031 1_554
La10 O17 3.019031 1_555
La11 O16 2.377009 1_655
La11 O25 2.377009 1_654
La11 O4 2.586823 1_554
La11 O0 2.586823 1_555
La11 O22 2.704535 1_554
La11 O14 2.704535 1_555
La11 O15 3.019031 1_554
La11 O15 3.019031 1_555
As0 O24 1.783608 1_655
As0 O14 1.824198 1_555
As0 O22 1.824198 1_554
As1 O3 1.783608 1_555
As1 O6 1.824198 1_555
As1 O11 1.824198 1_555
As2 O21 1.783608 1_555
As2 O13 1.824198 1_555
As2 O2 1.824198 1_555
As3 O1 1.783608 1_545
As3 O12 1.824198 1_555
As3 O8 1.824198 1_554
As4 O23 1.783608 1_455
As4 O19 1.824198 1_554
As4 O9 1.824198 1_555
As5 O15 1.783608 1_555
As5 O0 1.824198 1_555
As5 O4 1.824198 1_555
As6 O5 1.783608 1_565
As6 O7 1.824198 1_555
As6 O18 1.824198 1_554
As7 O17 1.783608 1_555
As7 O10 1.824198 1_555
As7 O20 1.824198 1_555
Cl0 La1 2.980511 1_555
Cl0 La8 2.980511 1_555
Cl0 La6 3.392630 1_556
Cl0 La6 3.392630 1_555
Cl1 La11 2.980511 1_555
Cl1 La10 2.980511 1_555
Cl1 La2 3.392630 1_554
Cl1 La2 3.392630 1_555
Cl2 La9 2.980511 1_555
Cl2 La4 2.980511 1_555
Cl2 La0 3.392630 1_555
Cl2 La0 3.392630 1_556
Cl3 La5 2.980511 1_555
Cl3 La7 2.980511 1_555
Cl3 La3 3.392630 1_554
Cl3 La3 3.392630 1_555
