# generated using pymatgen
data_Dy3CuSiS7
_symmetry_space_group_name_H-M   'P 1'
_cell_length_a   9.88713381
_cell_length_b   9.88713381
_cell_length_c   5.70317100
_cell_angle_alpha   90.00000000
_cell_angle_beta   90.00000000
_cell_angle_gamma   119.99999876
_symmetry_Int_Tables_number   1
_chemical_formula_structural   Dy3CuSiS7
_chemical_formula_sum   'Dy6 Cu2 Si2 S14'
_cell_volume   482.82289365
_cell_formula_units_Z   2
loop_
 _symmetry_equiv_pos_site_id
 _symmetry_equiv_pos_as_xyz
  1  'x, y, z'
loop_
 _atom_site_type_symbol
 _atom_site_label
 _atom_site_symmetry_multiplicity
 _atom_site_fract_x
 _atom_site_fract_y
 _atom_site_fract_z
 _atom_site_occupancy
  Dy  Dy0  1  0.13076300  0.35732400  0.74556000  1
  Dy  Dy1  1  0.64267600  0.77343900  0.74556000  1
  Dy  Dy2  1  0.77343900  0.13076300  0.24556000  1
  Dy  Dy3  1  0.35732400  0.22656100  0.24556000  1
  Dy  Dy4  1  0.22656100  0.86923700  0.74556000  1
  Dy  Dy5  1  0.86923700  0.64267600  0.24556000  1
  Cu  Cu0  1  0.00000000  0.00000000  0.70152000  1
  Cu  Cu1  1  0.00000000  0.00000000  0.20152000  1
  Si  Si0  1  0.66666700  0.33333300  0.83407300  1
  Si  Si1  1  0.33333300  0.66666700  0.33407300  1
  S  S0  1  0.66666700  0.33333300  0.46340000  1
  S  S1  1  0.90413700  0.74154400  0.71856300  1
  S  S2  1  0.16259200  0.90413700  0.21856300  1
  S  S3  1  0.83740800  0.09586300  0.71856300  1
  S  S4  1  0.89420400  0.41781300  0.98332500  1
  S  S5  1  0.74154400  0.83740800  0.21856300  1
  S  S6  1  0.25845600  0.16259200  0.71856300  1
  S  S7  1  0.10579600  0.58218700  0.48332500  1
  S  S8  1  0.47639100  0.89420400  0.48332500  1
  S  S9  1  0.58218700  0.47639100  0.98332500  1
  S  S10  1  0.33333300  0.66666700  0.96340000  1
  S  S11  1  0.09586300  0.25845600  0.21856300  1
  S  S12  1  0.41781300  0.52360900  0.48332500  1
  S  S13  1  0.52360900  0.10579600  0.98332500  1
loop_
_geom_bond_atom_site_label_1
_geom_bond_atom_site_label_2
_geom_bond_distance
_geom_bond_site_symmetry_2
Dy0 S3 2.760629 1_455
Dy0 S6 2.784847 1_555
Dy0 S7 2.790936 1_555
Dy0 S11 2.830980 1_556
Dy0 S12 2.885912 1_555
Dy0 S10 2.963726 1_555
Dy0 S4 3.010925 1_455
Dy0 S11 3.125806 1_555
Dy1 S1 2.760635 1_555
Dy1 S3 2.784839 1_565
Dy1 S12 2.790936 1_555
Dy1 S5 2.830980 1_556
Dy1 S8 2.885912 1_555
Dy1 S10 2.963727 1_555
Dy1 S9 3.010925 1_555
Dy1 S5 3.125807 1_555
Dy2 S5 2.760625 1_545
Dy2 S11 2.784838 1_655
Dy2 S13 2.790936 1_554
Dy2 S3 2.830983 1_555
Dy2 S4 2.885912 1_554
Dy2 S0 2.963719 1_555
Dy2 S8 3.010925 1_545
Dy2 S3 3.125809 1_554
Dy3 S11 2.760635 1_555
Dy3 S2 2.784839 1_545
Dy3 S9 2.790936 1_554
Dy3 S6 2.830980 1_555
Dy3 S13 2.885912 1_554
Dy3 S0 2.963727 1_555
Dy3 S12 3.010925 1_555
Dy3 S6 3.125807 1_554
Dy4 S6 2.760625 1_565
Dy4 S1 2.784838 1_455
Dy4 S8 2.790936 1_555
Dy4 S2 2.830983 1_556
Dy4 S7 2.885912 1_555
Dy4 S10 2.963719 1_555
Dy4 S13 3.010925 1_565
Dy4 S2 3.125809 1_555
Dy5 S2 2.760629 1_655
Dy5 S5 2.784847 1_555
Dy5 S4 2.790936 1_554
Dy5 S1 2.830980 1_555
Dy5 S9 2.885912 1_554
Dy5 S0 2.963726 1_555
Dy5 S7 3.010925 1_655
Dy5 S1 3.125806 1_554
Cu0 S3 2.239585 1_455
Cu0 S6 2.239593 1_555
Cu0 S1 2.239594 1_445
Cu1 S2 2.239585 1_545
Cu1 S5 2.239593 1_445
Cu1 S11 2.239594 1_555
S0 Si0 2.114012 1_555
S4 Si0 2.145749 1_555
S7 Si1 2.145749 1_555
S8 Si1 2.145750 1_555
S9 Si0 2.145757 1_555
S10 Si1 2.114012 1_556
S12 Si1 2.145757 1_555
S13 Si0 2.145750 1_555
