# generated using pymatgen
data_Rb3NaPbO4
_symmetry_space_group_name_H-M   'P 1'
_cell_length_a   6.78048900
_cell_length_b   11.17308900
_cell_length_c   11.29167100
_cell_angle_alpha   68.35069126
_cell_angle_beta   90.00000000
_cell_angle_gamma   90.00000000
_symmetry_Int_Tables_number   1
_chemical_formula_structural   Rb3NaPbO4
_chemical_formula_sum   'Rb12 Na4 Pb4 O16'
_cell_volume   795.10206719
_cell_formula_units_Z   4
loop_
 _symmetry_equiv_pos_site_id
 _symmetry_equiv_pos_as_xyz
  1  'x, y, z'
loop_
 _atom_site_type_symbol
 _atom_site_label
 _atom_site_symmetry_multiplicity
 _atom_site_fract_x
 _atom_site_fract_y
 _atom_site_fract_z
 _atom_site_occupancy
  Rb  Rb0  1  0.62087100  0.68104800  0.89294600  1
  Rb  Rb1  1  0.32373700  0.96627300  0.67165100  1
  Rb  Rb2  1  0.37912900  0.31895200  0.10705400  1
  Rb  Rb3  1  0.12087100  0.31895200  0.60705400  1
  Rb  Rb4  1  0.60717800  0.45584700  0.68789100  1
  Rb  Rb5  1  0.39282200  0.54415300  0.31210900  1
  Rb  Rb6  1  0.10717800  0.54415300  0.81210900  1
  Rb  Rb7  1  0.89282200  0.45584700  0.18789100  1
  Rb  Rb8  1  0.82373700  0.03372700  0.82834900  1
  Rb  Rb9  1  0.87912900  0.68104800  0.39294600  1
  Rb  Rb10  1  0.17626300  0.96627300  0.17165100  1
  Rb  Rb11  1  0.67626300  0.03372700  0.32834900  1
  Na  Na0  1  0.61945000  0.87491500  0.10910900  1
  Na  Na1  1  0.88055000  0.87491500  0.60910900  1
  Na  Na2  1  0.11945000  0.12508500  0.39089100  1
  Na  Na3  1  0.38055000  0.12508500  0.89089100  1
  Pb  Pb0  1  0.64259000  0.24133400  0.50967000  1
  Pb  Pb1  1  0.35741000  0.75866600  0.49033000  1
  Pb  Pb2  1  0.14259000  0.75866600  0.99033000  1
  Pb  Pb3  1  0.85741000  0.24133400  0.00967000  1
  O  O0  1  0.26182200  0.57126400  0.05444500  1
  O  O1  1  0.23817800  0.57126400  0.55444500  1
  O  O2  1  0.12649900  0.89548700  0.45471900  1
  O  O3  1  0.00579200  0.79555200  0.81223000  1
  O  O4  1  0.57548600  0.77096700  0.61876500  1
  O  O5  1  0.92451400  0.77096700  0.11876500  1
  O  O6  1  0.76182200  0.42873600  0.44555500  1
  O  O7  1  0.73817800  0.42873600  0.94555500  1
  O  O8  1  0.87350100  0.10451300  0.54528100  1
  O  O9  1  0.42451400  0.22903300  0.38123500  1
  O  O10  1  0.50579200  0.20444800  0.68777000  1
  O  O11  1  0.07548600  0.22903300  0.88123500  1
  O  O12  1  0.62649900  0.10451300  0.04528100  1
  O  O13  1  0.99420800  0.20444800  0.18777000  1
  O  O14  1  0.37350100  0.89548700  0.95471900  1
  O  O15  1  0.49420800  0.79555200  0.31223000  1
loop_
_geom_bond_atom_site_label_1
_geom_bond_atom_site_label_2
_geom_bond_distance
_geom_bond_site_symmetry_2
Na0 O15 2.295060 1_555
Na0 O5 2.354989 1_555
Na0 O14 2.361654 1_554
Na0 O12 2.395493 1_565
Na1 O3 2.295060 1_655
Na1 O4 2.354989 1_555
Na1 O2 2.361654 1_655
Na1 O8 2.395493 1_565
Na2 O13 2.295060 1_455
Na2 O9 2.354989 1_555
Na2 O8 2.361654 1_455
Na2 O2 2.395493 1_545
Na3 O10 2.295060 1_555
Na3 O11 2.354989 1_555
Na3 O12 2.361654 1_556
Na3 O14 2.395493 1_545
O0 Pb2 2.107955 1_554
O0 Rb2 2.774390 1_555
O0 Rb5 2.948796 1_555
O0 Rb7 2.959689 1_455
O0 Rb0 3.017708 1_554
O0 Rb6 3.048048 1_554
O1 Pb1 2.107955 1_555
O1 Rb3 2.774390 1_555
O1 Rb6 2.948796 1_555
O1 Rb4 2.959689 1_555
O1 Rb9 3.017708 1_455
O1 Rb5 3.048048 1_555
O2 Pb1 2.120490 1_555
O2 Rb10 3.015050 1_555
O2 Rb1 3.137468 1_555
O2 Rb9 3.205230 1_455
O3 Pb2 2.112577 1_555
O3 Rb6 2.892292 1_555
O3 Rb0 2.901542 1_455
O3 Rb1 2.927744 1_555
O3 Rb8 2.999338 1_465
O4 Pb1 2.110832 1_555
O4 Rb0 2.897243 1_555
O4 Rb1 2.998964 1_555
O4 Rb4 3.320264 1_555
O5 Pb2 2.110832 1_654
O5 Rb9 2.897243 1_555
O5 Rb10 2.998964 1_655
O5 Rb7 3.320264 1_555
O6 Pb0 2.107955 1_555
O6 Rb9 2.774390 1_555
O6 Rb7 2.948796 1_555
O6 Rb5 2.959689 1_555
O6 Rb3 3.017708 1_655
O6 Rb4 3.048048 1_555
O7 Pb3 2.107955 1_556
O7 Rb0 2.774390 1_555
O7 Rb4 2.948796 1_555
O7 Rb6 2.959689 1_655
O7 Rb2 3.017708 1_556
O7 Rb7 3.048048 1_556
O8 Pb0 2.120490 1_555
O8 Rb8 3.015050 1_555
O8 Rb11 3.137468 1_555
O8 Rb3 3.205230 1_655
O9 Pb0 2.110832 1_555
O9 Rb2 2.897243 1_555
O9 Rb11 2.998964 1_555
O9 Rb5 3.320264 1_555
O10 Pb0 2.112577 1_555
O10 Rb4 2.892292 1_555
O10 Rb3 2.901542 1_555
O10 Rb8 2.927744 1_555
O10 Rb1 2.999338 1_545
O11 Pb3 2.110832 1_456
O11 Rb3 2.897243 1_555
O11 Rb8 2.998964 1_455
O11 Rb6 3.320264 1_555
O12 Pb3 2.120490 1_555
O12 Rb11 3.015050 1_555
O12 Rb8 3.137468 1_554
O12 Rb2 3.205230 1_555
O13 Pb3 2.112577 1_555
O13 Rb7 2.892292 1_555
O13 Rb2 2.901542 1_655
O13 Rb11 2.927744 1_555
O13 Rb10 2.999338 1_645
O14 Pb2 2.120490 1_555
O14 Rb1 3.015050 1_555
O14 Rb10 3.137468 1_556
O14 Rb0 3.205230 1_555
O15 Pb1 2.112577 1_555
O15 Rb5 2.892292 1_555
O15 Rb9 2.901542 1_555
O15 Rb10 2.927744 1_555
O15 Rb11 2.999338 1_565
