# generated using pymatgen
data_ZrCr2
_symmetry_space_group_name_H-M   'P 1'
_cell_length_a   5.03266454
_cell_length_b   5.03266262
_cell_length_c   16.26750668
_cell_angle_alpha   90.00000000
_cell_angle_beta   90.00000000
_cell_angle_gamma   120.00000616
_symmetry_Int_Tables_number   1
_chemical_formula_structural   ZrCr2
_chemical_formula_sum   'Zr8 Cr16'
_cell_volume   356.81852915
_cell_formula_units_Z   8
loop_
 _symmetry_equiv_pos_site_id
 _symmetry_equiv_pos_as_xyz
  1  'x, y, z'
loop_
 _atom_site_type_symbol
 _atom_site_label
 _atom_site_symmetry_multiplicity
 _atom_site_fract_x
 _atom_site_fract_y
 _atom_site_fract_z
 _atom_site_occupancy
  Zr  Zr0  1  0.33333300  0.66666700  0.84406642  1
  Zr  Zr1  1  0.00000200  0.00000100  0.09470969  1
  Zr  Zr2  1  0.66666700  0.33333300  0.15593358  1
  Zr  Zr3  1  0.99999800  0.99999900  0.90529031  1
  Zr  Zr4  1  0.99999800  0.99999900  0.59470969  1
  Zr  Zr5  1  0.00000200  0.00000100  0.40529031  1
  Zr  Zr6  1  0.66666700  0.33333300  0.34406642  1
  Zr  Zr7  1  0.33333300  0.66666700  0.65593358  1
  Cr  Cr0  1  0.50000000  0.00000000  -0.00000000  1
  Cr  Cr1  1  0.83409403  0.16590597  0.75000000  1
  Cr  Cr2  1  0.66666800  0.33333400  0.87708700  1
  Cr  Cr3  1  0.16590597  0.33181194  0.25000000  1
  Cr  Cr4  1  0.33181194  0.16590597  0.75000000  1
  Cr  Cr5  1  0.83409403  0.66818806  0.75000000  1
  Cr  Cr6  1  0.00000000  0.50000000  -0.00000000  1
  Cr  Cr7  1  0.66818806  0.83409403  0.25000000  1
  Cr  Cr8  1  0.50000000  0.00000000  0.50000000  1
  Cr  Cr9  1  0.16590597  0.83409403  0.25000000  1
  Cr  Cr10  1  0.33333200  0.66666600  0.12291300  1
  Cr  Cr11  1  0.50000000  0.50000000  -0.00000000  1
  Cr  Cr12  1  0.66666800  0.33333400  0.62291300  1
  Cr  Cr13  1  0.00000000  0.50000000  0.50000000  1
  Cr  Cr14  1  0.33333200  0.66666600  0.37708700  1
  Cr  Cr15  1  0.50000000  0.50000000  0.50000000  1
loop_
_geom_bond_atom_site_label_1
_geom_bond_atom_site_label_2
_geom_bond_distance
_geom_bond_site_symmetry_2
Zr0 Zr7 3.060452 1_555
Zr0 Zr3 3.071557 1_555
Zr0 Zr3 3.071565 1_455
Zr0 Zr3 3.071569 1_445
Zr1 Zr2 3.071557 1_555
Zr1 Zr2 3.071565 1_455
Zr1 Zr2 3.071569 1_445
Zr1 Zr3 3.081381 1_444
Zr2 Zr6 3.060452 1_555
Zr4 Zr7 3.071557 1_555
Zr4 Zr7 3.071565 1_655
Zr4 Zr7 3.071569 1_665
Zr4 Zr5 3.081381 1_665
Zr5 Zr6 3.071557 1_555
Zr5 Zr6 3.071565 1_455
Zr5 Zr6 3.071569 1_445
Cr0 Cr10 2.471559 1_545
Cr0 Cr2 2.471559 1_554
Cr0 Cr11 2.516331 1_555
Cr0 Cr11 2.516331 1_545
Cr0 Cr6 2.516332 1_655
Cr0 Cr6 2.516332 1_545
Cr0 Zr2 2.923223 1_555
Cr0 Zr0 2.923223 1_544
Cr0 Zr1 2.950528 1_555
Cr0 Zr3 2.950528 1_544
Cr0 Zr3 2.950541 1_444
Cr0 Zr1 2.950541 1_655
Cr1 Cr5 2.504846 1_545
Cr1 Cr4 2.504847 1_655
Cr1 Cr5 2.527816 1_555
Cr1 Cr4 2.527817 1_555
Cr1 Cr12 2.530620 1_555
Cr1 Cr2 2.530620 1_555
Cr1 Zr3 2.910846 1_545
Cr1 Zr4 2.910846 1_545
Cr1 Zr0 2.945091 1_655
Cr1 Zr7 2.945091 1_655
Cr1 Zr7 2.945091 1_545
Cr1 Zr0 2.945091 1_545
Cr2 Cr6 2.471554 1_656
Cr2 Cr5 2.530620 1_555
Cr2 Cr4 2.530626 1_555
Cr2 Zr3 2.941601 1_555
Cr2 Zr3 2.941602 1_545
Cr2 Zr3 2.941624 1_445
Cr2 Zr0 2.954839 1_655
Cr2 Zr0 2.954846 1_545
Cr2 Zr0 2.954851 1_555
Cr3 Cr9 2.504846 1_545
Cr3 Cr7 2.504847 1_445
Cr3 Cr9 2.527816 1_555
Cr3 Cr7 2.527817 1_555
Cr3 Zr5 2.910846 1_555
Cr3 Zr1 2.910846 1_555
Cr3 Zr2 2.945089 1_455
Cr3 Zr6 2.945089 1_455
Cr3 Zr2 2.945094 1_555
Cr3 Zr6 2.945094 1_555
Cr4 Cr5 2.504847 1_445
Cr4 Cr5 2.527817 1_555
Cr4 Zr3 2.910852 1_445
Cr4 Zr4 2.910852 1_445
Cr4 Zr0 2.945089 1_545
Cr4 Zr7 2.945089 1_545
Cr4 Zr0 2.945093 1_555
Cr4 Zr7 2.945093 1_555
Cr5 Zr4 2.910846 1_555
Cr5 Zr3 2.910846 1_555
Cr5 Zr0 2.945089 1_655
Cr5 Zr7 2.945089 1_655
Cr5 Zr0 2.945094 1_555
Cr5 Zr7 2.945094 1_555
Cr6 Zr2 2.923223 1_455
Cr6 Zr0 2.923223 1_554
Cr6 Zr3 2.950534 1_444
Cr6 Zr1 2.950534 1_565
Cr6 Zr3 2.950534 1_454
Cr6 Zr1 2.950534 1_555
Cr7 Cr9 2.504847 1_655
Cr7 Cr9 2.527817 1_555
Cr7 Zr1 2.910852 1_665
Cr7 Zr5 2.910852 1_665
Cr7 Zr6 2.945089 1_565
Cr7 Zr2 2.945089 1_565
Cr7 Zr2 2.945093 1_555
Cr7 Zr6 2.945093 1_555
Cr8 Zr6 2.923223 1_555
Cr8 Zr7 2.923223 1_545
Cr8 Zr5 2.950528 1_555
Cr8 Zr4 2.950528 1_545
Cr8 Zr4 2.950541 1_445
Cr8 Zr5 2.950541 1_655
Cr9 Zr1 2.910846 1_565
Cr9 Zr5 2.910846 1_565
Cr9 Zr2 2.945091 1_455
Cr9 Zr6 2.945091 1_455
Cr9 Zr2 2.945091 1_565
Cr9 Zr6 2.945091 1_565
Cr10 Cr6 2.471554 1_555
Cr10 Cr11 2.471559 1_555
Cr10 Cr3 2.530620 1_555
Cr10 Cr9 2.530620 1_555
Cr10 Cr7 2.530626 1_555
Cr10 Zr1 2.941601 1_555
Cr10 Zr1 2.941602 1_565
Cr10 Zr1 2.941624 1_665
Cr10 Zr2 2.954839 1_455
Cr10 Zr2 2.954846 1_565
Cr10 Zr2 2.954851 1_555
Cr11 Cr2 2.471559 1_554
Cr11 Cr6 2.516332 1_555
Cr11 Cr6 2.516332 1_655
Cr11 Zr0 2.923225 1_554
Cr11 Zr2 2.923225 1_555
Cr11 Zr3 2.950528 1_554
Cr11 Zr1 2.950528 1_555
Cr11 Zr3 2.950541 1_444
Cr11 Zr1 2.950541 1_665
Cr12 Cr13 2.471554 1_655
Cr12 Cr8 2.471559 1_555
Cr12 Cr15 2.471559 1_555
Cr12 Cr5 2.530620 1_555
Cr12 Cr4 2.530626 1_555
Cr12 Zr4 2.941601 1_555
Cr12 Zr4 2.941602 1_545
Cr12 Zr4 2.941624 1_445
Cr12 Zr7 2.954839 1_655
Cr12 Zr7 2.954846 1_545
Cr12 Zr7 2.954851 1_555
Cr13 Cr14 2.471554 1_555
Cr13 Cr8 2.516332 1_455
Cr13 Cr8 2.516332 1_565
Cr13 Cr15 2.516332 1_555
Cr13 Cr15 2.516332 1_455
Cr13 Zr6 2.923223 1_455
Cr13 Zr7 2.923223 1_555
Cr13 Zr4 2.950534 1_445
Cr13 Zr5 2.950534 1_565
Cr13 Zr4 2.950534 1_455
Cr13 Zr5 2.950534 1_555
Cr14 Cr8 2.471559 1_565
Cr14 Cr15 2.471559 1_555
Cr14 Cr3 2.530620 1_555
Cr14 Cr9 2.530620 1_555
Cr14 Cr7 2.530626 1_555
Cr14 Zr5 2.941601 1_555
Cr14 Zr5 2.941602 1_565
Cr14 Zr5 2.941624 1_665
Cr14 Zr6 2.954839 1_455
Cr14 Zr6 2.954846 1_565
Cr14 Zr6 2.954851 1_555
Cr15 Cr8 2.516331 1_555
Cr15 Cr8 2.516331 1_565
Cr15 Zr6 2.923225 1_555
Cr15 Zr7 2.923225 1_555
Cr15 Zr4 2.950528 1_555
Cr15 Zr5 2.950528 1_555
Cr15 Zr4 2.950541 1_445
Cr15 Zr5 2.950541 1_665
