# generated using pymatgen
data_Cu4GeS4
_symmetry_space_group_name_H-M   'P 1'
_cell_length_a   13.20522400
_cell_length_b   9.82329900
_cell_length_c   10.04083708
_cell_angle_alpha   79.34484162
_cell_angle_beta   90.00000000
_cell_angle_gamma   90.00000000
_symmetry_Int_Tables_number   1
_chemical_formula_structural   Cu4GeS4
_chemical_formula_sum   'Cu32 Ge8 S32'
_cell_volume   1280.02825838
_cell_formula_units_Z   8
loop_
 _symmetry_equiv_pos_site_id
 _symmetry_equiv_pos_as_xyz
  1  'x, y, z'
loop_
 _atom_site_type_symbol
 _atom_site_label
 _atom_site_symmetry_multiplicity
 _atom_site_fract_x
 _atom_site_fract_y
 _atom_site_fract_z
 _atom_site_occupancy
  Cu  Cu0  1  0.36452400  0.66306300  0.07510200  1
  Cu  Cu1  1  0.58835700  0.73035600  0.50929000  1
  Cu  Cu2  1  0.33865400  0.57162000  0.42975800  1
  Cu  Cu3  1  0.45265000  0.88619200  0.97111600  1
  Cu  Cu4  1  0.81318300  0.91816400  0.51235000  1
  Cu  Cu5  1  0.65594300  0.19580000  0.31892400  1
  Cu  Cu6  1  0.18347000  0.16114300  0.21833700  1
  Cu  Cu7  1  0.18681700  0.08183600  0.48765000  1
  Cu  Cu8  1  0.34402400  0.32168000  0.17558300  1
  Cu  Cu9  1  0.66134600  0.42838000  0.57024200  1
  Cu  Cu10  1  0.65597600  0.67832000  0.82441700  1
  Cu  Cu11  1  0.81653000  0.83885700  0.78166300  1
  Cu  Cu12  1  0.15594300  0.80420000  0.18107600  1
  Cu  Cu13  1  0.13547600  0.66306300  0.57510200  1
  Cu  Cu14  1  0.83865400  0.42838000  0.07024200  1
  Cu  Cu15  1  0.84402400  0.67832000  0.32441700  1
  Cu  Cu16  1  0.63547600  0.33693700  0.92489800  1
  Cu  Cu17  1  0.34405700  0.80420000  0.68107600  1
  Cu  Cu18  1  0.95265000  0.11380800  0.52888400  1
  Cu  Cu19  1  0.68347000  0.83885700  0.28166300  1
  Cu  Cu20  1  0.08835700  0.26964400  0.99071000  1
  Cu  Cu21  1  0.15597600  0.32168000  0.67558300  1
  Cu  Cu22  1  0.68681700  0.91816400  0.01235000  1
  Cu  Cu23  1  0.31653000  0.16114300  0.71833700  1
  Cu  Cu24  1  0.86452400  0.33693700  0.42489800  1
  Cu  Cu25  1  0.84405700  0.19580000  0.81892400  1
  Cu  Cu26  1  0.16134600  0.57162000  0.92975800  1
  Cu  Cu27  1  0.91164300  0.73035600  0.00929000  1
  Cu  Cu28  1  0.31318300  0.08183600  0.98765000  1
  Cu  Cu29  1  0.54735000  0.11380800  0.02888400  1
  Cu  Cu30  1  0.41164300  0.26964400  0.49071000  1
  Cu  Cu31  1  0.04735000  0.88619200  0.47111600  1
  Ge  Ge0  1  0.58707900  0.06090600  0.68375300  1
  Ge  Ge1  1  0.08738100  0.44790500  0.30685000  1
  Ge  Ge2  1  0.41261900  0.44790500  0.80685000  1
  Ge  Ge3  1  0.41292100  0.93909400  0.31624700  1
  Ge  Ge4  1  0.91261900  0.55209500  0.69315000  1
  Ge  Ge5  1  0.91292100  0.06090600  0.18375300  1
  Ge  Ge6  1  0.08707900  0.93909400  0.81624700  1
  Ge  Ge7  1  0.58738100  0.55209500  0.19315000  1
  S  S0  1  0.17032800  0.13265800  0.86120100  1
  S  S1  1  0.58453000  0.73562500  0.01088100  1
  S  S2  1  0.82601200  0.37130300  0.63404400  1
  S  S3  1  0.42254900  0.50280100  0.25031800  1
  S  S4  1  0.82491300  0.60521900  0.87695800  1
  S  S5  1  0.82967200  0.86734200  0.13879900  1
  S  S6  1  0.07225400  0.98801000  0.25386500  1
  S  S7  1  0.17537600  0.87915500  0.63458600  1
  S  S8  1  0.42774600  0.98801000  0.75386500  1
  S  S9  1  0.32967200  0.13265800  0.36120100  1
  S  S10  1  0.32462400  0.87915500  0.13458600  1
  S  S11  1  0.32491300  0.39478100  0.62304200  1
  S  S12  1  0.82462400  0.12084500  0.36541400  1
  S  S13  1  0.08181600  0.75740600  0.99178200  1
  S  S14  1  0.67508700  0.60521900  0.37695800  1
  S  S15  1  0.41547000  0.26437500  0.98911900  1
  S  S16  1  0.67032800  0.86734200  0.63879900  1
  S  S17  1  0.57745100  0.49719900  0.74968200  1
  S  S18  1  0.92774600  0.01199000  0.74613500  1
  S  S19  1  0.32601200  0.62869700  0.86595600  1
  S  S20  1  0.67537600  0.12084500  0.86541400  1
  S  S21  1  0.57225400  0.01199000  0.24613500  1
  S  S22  1  0.92254900  0.49719900  0.24968200  1
  S  S23  1  0.08453000  0.26437500  0.48911900  1
  S  S24  1  0.17398800  0.62869700  0.36595600  1
  S  S25  1  0.07745100  0.50280100  0.75031800  1
  S  S26  1  0.17508700  0.39478100  0.12304200  1
  S  S27  1  0.91547000  0.73562500  0.51088100  1
  S  S28  1  0.91818400  0.24259400  0.00821800  1
  S  S29  1  0.41818400  0.75740600  0.49178200  1
  S  S30  1  0.67398800  0.37130300  0.13404400  1
  S  S31  1  0.58181600  0.24259400  0.50821800  1
loop_
_geom_bond_atom_site_label_1
_geom_bond_atom_site_label_2
_geom_bond_distance
_geom_bond_site_symmetry_2
Cu0 S19 2.246055 1_554
Cu0 S3 2.266387 1_555
Cu0 S10 2.368374 1_555
Cu1 S29 2.265838 1_555
Cu1 S14 2.278656 1_555
Cu1 S16 2.306631 1_555
Cu2 S29 2.289505 1_555
Cu2 S24 2.306552 1_555
Cu2 S3 2.319697 1_555
Cu2 S11 2.360155 1_555
Cu3 S8 2.249475 1_555
Cu3 S1 2.271895 1_556
Cu3 S10 2.348426 1_556
Cu4 S27 2.247172 1_555
Cu4 S12 2.253293 1_565
Cu4 S16 2.277167 1_555
Cu5 S31 2.259448 1_555
Cu5 S30 2.300341 1_555
Cu5 S21 2.346006 1_555
Cu5 S12 2.365284 1_555
Cu6 S6 2.225374 1_545
Cu6 S26 2.320168 1_555
Cu6 S9 2.390589 1_555
Cu7 S23 2.247172 1_555
Cu7 S7 2.253293 1_545
Cu7 S9 2.277167 1_555
Cu8 S15 2.258778 1_554
Cu8 S3 2.301661 1_555
Cu8 S26 2.372884 1_555
Cu8 S9 2.382763 1_555
Cu9 S31 2.289505 1_555
Cu9 S2 2.306552 1_555
Cu9 S17 2.319697 1_555
Cu9 S14 2.360155 1_555
Cu10 S1 2.258778 1_556
Cu10 S17 2.301661 1_555
Cu10 S4 2.372884 1_555
Cu10 S16 2.382763 1_555
Cu11 S18 2.225374 1_565
Cu11 S4 2.320168 1_555
Cu11 S16 2.390589 1_555
Cu12 S13 2.259448 1_554
Cu12 S24 2.300341 1_555
Cu12 S6 2.346006 1_555
Cu12 S10 2.365284 1_555
Cu13 S24 2.246055 1_555
Cu13 S25 2.266387 1_555
Cu13 S7 2.368374 1_555
Cu14 S28 2.289505 1_555
Cu14 S30 2.306552 1_555
Cu14 S22 2.319697 1_555
Cu14 S4 2.360155 1_554
Cu15 S27 2.258778 1_555
Cu15 S22 2.301661 1_555
Cu15 S14 2.372884 1_555
Cu15 S5 2.382763 1_555
Cu16 S30 2.246055 1_556
Cu16 S17 2.266387 1_555
Cu16 S20 2.368374 1_555
Cu17 S29 2.259448 1_555
Cu17 S19 2.300341 1_555
Cu17 S8 2.346006 1_555
Cu17 S7 2.365284 1_555
Cu18 S18 2.249475 1_555
Cu18 S23 2.271895 1_655
Cu18 S12 2.348426 1_555
Cu19 S21 2.225374 1_565
Cu19 S14 2.320168 1_555
Cu19 S5 2.390589 1_555
Cu20 S28 2.265838 1_456
Cu20 S26 2.278656 1_556
Cu20 S0 2.306631 1_555
Cu21 S23 2.258778 1_555
Cu21 S25 2.301661 1_555
Cu21 S11 2.372884 1_555
Cu21 S0 2.382763 1_555
Cu22 S1 2.247172 1_555
Cu22 S20 2.253293 1_564
Cu22 S5 2.277167 1_555
Cu23 S8 2.225374 1_545
Cu23 S11 2.320168 1_555
Cu23 S0 2.390589 1_555
Cu24 S2 2.246055 1_555
Cu24 S22 2.266387 1_555
Cu24 S12 2.368374 1_555
Cu25 S28 2.259448 1_556
Cu25 S2 2.300341 1_555
Cu25 S18 2.346006 1_555
Cu25 S20 2.365284 1_555
Cu26 S13 2.289505 1_555
Cu26 S19 2.306552 1_555
Cu26 S25 2.319697 1_555
Cu26 S26 2.360155 1_556
Cu27 S13 2.265838 1_654
Cu27 S4 2.278656 1_554
Cu27 S5 2.306631 1_555
Cu28 S15 2.247172 1_555
Cu28 S10 2.253293 1_546
Cu28 S0 2.277167 1_555
Cu29 S21 2.249475 1_555
Cu29 S15 2.271895 1_554
Cu29 S20 2.348426 1_554
Cu30 S31 2.265838 1_555
Cu30 S11 2.278656 1_555
Cu30 S9 2.306631 1_555
Cu31 S6 2.249475 1_555
Cu31 S27 2.271895 1_455
Cu31 S7 2.348426 1_555
Ge0 S31 2.265714 1_555
Ge0 S8 2.291043 1_545
Ge0 S16 2.311946 1_545
Ge0 S20 2.330329 1_555
Ge1 S22 2.280123 1_455
Ge1 S24 2.281233 1_555
Ge1 S26 2.318632 1_555
Ge1 S23 2.319700 1_555
Ge2 S17 2.280123 1_555
Ge2 S19 2.281233 1_555
Ge2 S11 2.318632 1_555
Ge2 S15 2.319700 1_555
Ge3 S29 2.265714 1_555
Ge3 S21 2.291043 1_565
Ge3 S9 2.311946 1_565
Ge3 S10 2.330329 1_555
Ge4 S25 2.280123 1_655
Ge4 S2 2.281233 1_555
Ge4 S4 2.318632 1_555
Ge4 S27 2.319700 1_555
Ge5 S28 2.265714 1_555
Ge5 S6 2.291043 1_645
Ge5 S5 2.311946 1_545
Ge5 S12 2.330329 1_555
Ge6 S13 2.265714 1_555
Ge6 S18 2.291043 1_465
Ge6 S0 2.311946 1_565
Ge6 S7 2.330329 1_555
Ge7 S3 2.280123 1_555
Ge7 S30 2.281233 1_555
Ge7 S14 2.318632 1_555
Ge7 S1 2.319700 1_555
