# generated using pymatgen
data_CsH5O3
_symmetry_space_group_name_H-M   'P 1'
_cell_length_a   6.71468113
_cell_length_b   9.00112029
_cell_length_c   13.11662147
_cell_angle_alpha   90.00000000
_cell_angle_beta   90.00000000
_cell_angle_gamma   90.00000000
_symmetry_Int_Tables_number   1
_chemical_formula_structural   CsH5O3
_chemical_formula_sum   'Cs8 H40 O24'
_cell_volume   792.76404441
_cell_formula_units_Z   8
loop_
 _symmetry_equiv_pos_site_id
 _symmetry_equiv_pos_as_xyz
  1  'x, y, z'
loop_
 _atom_site_type_symbol
 _atom_site_label
 _atom_site_symmetry_multiplicity
 _atom_site_fract_x
 _atom_site_fract_y
 _atom_site_fract_z
 _atom_site_occupancy
  Cs  Cs0  1  0.40002623  0.50640509  0.15435739  1
  Cs  Cs1  1  0.59997377  0.00640509  0.84564261  1
  Cs  Cs2  1  0.59997377  0.50640509  0.65435739  1
  Cs  Cs3  1  0.40002623  0.00640509  0.34564261  1
  Cs  Cs4  1  0.06556762  0.61985830  0.42153489  1
  Cs  Cs5  1  0.93443238  0.11985830  0.57846511  1
  Cs  Cs6  1  0.93443238  0.61985830  0.92153489  1
  Cs  Cs7  1  0.06556762  0.11985830  0.07846511  1
  H  H0  1  0.70668691  0.20173203  0.22439486  1
  H  H1  1  0.29331309  0.70173203  0.77560514  1
  H  H2  1  0.29331309  0.20173203  0.72439486  1
  H  H3  1  0.70668691  0.70173203  0.27560514  1
  H  H4  1  0.24940227  0.36479902  0.53603362  1
  H  H5  1  0.75059773  0.86479902  0.46396638  1
  H  H6  1  0.75059773  0.36479902  0.03603362  1
  H  H7  1  0.24940227  0.86479902  0.96396638  1
  H  H8  1  0.86626165  0.39584846  0.19759741  1
  H  H9  1  0.13373835  0.89584846  0.80240259  1
  H  H10  1  0.13373835  0.39584846  0.69759741  1
  H  H11  1  0.86626165  0.89584846  0.30240259  1
  H  H12  1  0.86446904  0.57231762  0.17800592  1
  H  H13  1  0.13553096  0.07231762  0.82199408  1
  H  H14  1  0.13553096  0.57231762  0.67800592  1
  H  H15  1  0.86446904  0.07231762  0.32199408  1
  H  H16  1  0.58377512  0.52467036  0.39129277  1
  H  H17  1  0.41622488  0.02467036  0.60870723  1
  H  H18  1  0.41622488  0.52467036  0.89129277  1
  H  H19  1  0.58377512  0.02467036  0.10870723  1
  H  H20  1  0.58852345  0.69044072  0.42837554  1
  H  H21  1  0.41147655  0.19044072  0.57162446  1
  H  H22  1  0.41147655  0.69044072  0.92837554  1
  H  H23  1  0.58852345  0.19044072  0.07162446  1
  H  H24  1  0.72225647  0.30843176  0.37223863  1
  H  H25  1  0.27774353  0.80843176  0.62776137  1
  H  H26  1  0.27774353  0.30843176  0.87223863  1
  H  H27  1  0.72225647  0.80843176  0.12776137  1
  H  H28  1  0.54338838  0.33052467  0.45589817  1
  H  H29  1  0.45661162  0.83052467  0.54410183  1
  H  H30  1  0.45661162  0.33052467  0.95589817  1
  H  H31  1  0.54338838  0.83052467  0.04410183  1
  H  H32  1  0.05034271  0.28152180  0.29571123  1
  H  H33  1  0.94965729  0.78152180  0.70428877  1
  H  H34  1  0.94965729  0.28152180  0.79571123  1
  H  H35  1  0.05034271  0.78152180  0.20428877  1
  H  H36  1  0.22680058  0.30571188  0.37818055  1
  H  H37  1  0.77319942  0.80571188  0.62181945  1
  H  H38  1  0.77319942  0.30571188  0.87818055  1
  H  H39  1  0.22680058  0.80571188  0.12181945  1
  O  O0  1  0.80754201  0.23646470  0.27247436  1
  O  O1  1  0.19245799  0.73646470  0.72752564  1
  O  O2  1  0.19245799  0.23646470  0.77247436  1
  O  O3  1  0.80754201  0.73646470  0.22752564  1
  O  O4  1  0.31336969  0.29339165  0.49108812  1
  O  O5  1  0.68663031  0.79339165  0.50891188  1
  O  O6  1  0.68663031  0.29339165  0.99108812  1
  O  O7  1  0.31336969  0.79339165  0.00891188  1
  O  O8  1  0.89292309  0.47322847  0.14533610  1
  O  O9  1  0.10707691  0.97322847  0.85466390  1
  O  O10  1  0.10707691  0.47322847  0.64533610  1
  O  O11  1  0.89292309  0.97322847  0.35466390  1
  O  O12  1  0.52934347  0.62334042  0.37350782  1
  O  O13  1  0.47065653  0.12334042  0.62649218  1
  O  O14  1  0.47065653  0.62334042  0.87350782  1
  O  O15  1  0.52934347  0.12334042  0.12649218  1
  O  O16  1  0.68382931  0.35932968  0.43865778  1
  O  O17  1  0.31617069  0.85932968  0.56134222  1
  O  O18  1  0.31617069  0.35932968  0.93865778  1
  O  O19  1  0.68382931  0.85932968  0.06134222  1
  O  O20  1  0.18976902  0.31298437  0.30390177  1
  O  O21  1  0.81023098  0.81298437  0.69609823  1
  O  O22  1  0.81023098  0.31298437  0.80390177  1
  O  O23  1  0.18976902  0.81298437  0.19609823  1
loop_
_geom_bond_atom_site_label_1
_geom_bond_atom_site_label_2
_geom_bond_distance
_geom_bond_site_symmetry_2
Cs0 O20 2.978565 1_555
Cs1 O21 2.978565 1_545
Cs2 O22 2.978565 1_555
Cs3 O23 2.978565 1_545
Cs4 H4 3.008325 1_555
Cs4 O12 3.177339 1_555
Cs4 O17 3.292506 1_555
Cs5 H5 3.008325 1_545
Cs5 O13 3.177339 1_555
Cs5 O16 3.292506 1_555
Cs6 H6 3.008325 1_556
Cs6 O14 3.177339 1_555
Cs6 O19 3.292506 1_556
Cs7 H7 3.008325 1_544
Cs7 O15 3.177339 1_555
Cs7 O18 3.292506 1_554
H0 O0 0.976760 1_555
H1 O1 0.976760 1_555
H2 O2 0.976760 1_555
H3 O3 0.976760 1_555
H4 O4 0.972194 1_555
H5 O5 0.972194 1_555
H6 O6 0.972194 1_554
H7 O7 0.972194 1_556
H8 O8 0.993514 1_555
H9 O9 0.993514 1_555
H10 O10 0.993514 1_555
H11 O11 0.993514 1_555
H12 O8 1.007790 1_555
H13 O9 1.007790 1_545
H14 O10 1.007790 1_555
H15 O11 1.007790 1_545
H16 O12 0.988331 1_555
H17 O13 0.988331 1_555
H18 O14 0.988331 1_555
H19 O15 0.988331 1_555
H20 O12 1.020115 1_555
H20 O5 1.551963 1_555
H21 O13 1.020115 1_555
H21 O4 1.551963 1_555
H22 O14 1.020115 1_555
H22 O7 1.551963 1_556
H23 O15 1.020115 1_555
H23 O6 1.551963 1_554
H24 O16 1.017570 1_555
H24 O0 1.568415 1_555
H25 O17 1.017570 1_555
H25 O1 1.568415 1_555
H26 O18 1.017570 1_555
H26 O2 1.568415 1_555
H27 O19 1.017570 1_555
H27 O3 1.568415 1_555
H28 O16 1.003813 1_555
H29 O17 1.003813 1_555
H30 O18 1.003813 1_555
H31 O19 1.003813 1_555
H32 O20 0.983981 1_555
H33 O21 0.983981 1_555
H34 O22 0.983981 1_555
H35 O23 0.983981 1_555
H36 O20 1.007645 1_555
H36 O4 1.594819 1_555
H37 O21 1.007645 1_555
H37 O5 1.594819 1_555
H38 O22 1.007645 1_555
H38 O6 1.594819 1_555
H39 O23 1.007645 1_555
H39 O7 1.594819 1_555
