# generated using pymatgen
data_Ba3Bi2(PO4)4
_symmetry_space_group_name_H-M   'P 1'
_cell_length_a   11.31972441
_cell_length_b   11.31972441
_cell_length_c   8.85910946
_cell_angle_alpha   71.80341612
_cell_angle_beta   71.80341612
_cell_angle_gamma   46.15737833
_symmetry_Int_Tables_number   1
_chemical_formula_structural   Ba3Bi2(PO4)4
_chemical_formula_sum   'Ba6 Bi4 P8 O32'
_cell_volume   770.12571420
_cell_formula_units_Z   2
loop_
 _symmetry_equiv_pos_site_id
 _symmetry_equiv_pos_as_xyz
  1  'x, y, z'
loop_
 _atom_site_type_symbol
 _atom_site_label
 _atom_site_symmetry_multiplicity
 _atom_site_fract_x
 _atom_site_fract_y
 _atom_site_fract_z
 _atom_site_occupancy
  Ba  Ba0  1  0.27757400  0.15498600  0.22674500  1
  Ba  Ba1  1  0.05493900  0.94506100  0.75000000  1
  Ba  Ba2  1  0.94506100  0.05493900  0.25000000  1
  Ba  Ba3  1  0.84501400  0.72242600  0.27325500  1
  Ba  Ba4  1  0.72242600  0.84501400  0.77325500  1
  Ba  Ba5  1  0.15498600  0.27757400  0.72674500  1
  Bi  Bi0  1  0.52509100  0.63928700  0.31261300  1
  Bi  Bi1  1  0.47490900  0.36071300  0.68738700  1
  Bi  Bi2  1  0.36071300  0.47490900  0.18738700  1
  Bi  Bi3  1  0.63928700  0.52509100  0.81261300  1
  P  P0  1  0.45201800  0.83813200  0.54919300  1
  P  P1  1  0.32346100  0.89793700  0.01099900  1
  P  P2  1  0.89793700  0.32346100  0.51099900  1
  P  P3  1  0.16186800  0.54798200  0.95080700  1
  P  P4  1  0.54798200  0.16186800  0.45080700  1
  P  P5  1  0.10206300  0.67653900  0.48900100  1
  P  P6  1  0.83813200  0.45201800  0.04919300  1
  P  P7  1  0.67653900  0.10206300  0.98900100  1
  O  O0  1  0.54996500  0.29486700  0.99745400  1
  O  O1  1  0.71040000  0.09903400  0.80126000  1
  O  O2  1  0.59897900  0.74258100  0.64559700  1
  O  O3  1  0.70513300  0.45003500  0.50254600  1
  O  O4  1  0.81545600  0.53083500  0.86584300  1
  O  O5  1  0.09903400  0.71040000  0.30126000  1
  O  O6  1  0.38638200  0.74585600  0.60035100  1
  O  O7  1  0.02172700  0.32118900  0.06089100  1
  O  O8  1  0.39849200  0.97816500  0.92478200  1
  O  O9  1  0.28960000  0.90096600  0.19874000  1
  O  O10  1  0.67881100  0.97827300  0.43910900  1
  O  O11  1  0.18454400  0.46916500  0.13415700  1
  O  O12  1  0.74585600  0.38638200  0.10035100  1
  O  O13  1  0.01289300  0.83940000  0.54632300  1
  O  O14  1  0.60150800  0.02183500  0.07521800  1
  O  O15  1  0.45003500  0.70513300  0.00254600  1
  O  O16  1  0.61361800  0.25414400  0.39964900  1
  O  O17  1  0.46916500  0.18454400  0.63415700  1
  O  O18  1  0.32118900  0.02172700  0.56089100  1
  O  O19  1  0.40102100  0.25741900  0.35440300  1
  O  O20  1  0.90096600  0.28960000  0.69874000  1
  O  O21  1  0.97816500  0.39849200  0.42478200  1
  O  O22  1  0.16060000  0.98710700  0.95367700  1
  O  O23  1  0.02183500  0.60150800  0.57521800  1
  O  O24  1  0.74258100  0.59897900  0.14559700  1
  O  O25  1  0.25414400  0.61361800  0.89964900  1
  O  O26  1  0.29486700  0.54996500  0.49745400  1
  O  O27  1  0.98710700  0.16060000  0.45367700  1
  O  O28  1  0.25741900  0.40102100  0.85440300  1
  O  O29  1  0.97827300  0.67881100  0.93910900  1
  O  O30  1  0.83940000  0.01289300  0.04632300  1
  O  O31  1  0.53083500  0.81545600  0.36584300  1
loop_
_geom_bond_atom_site_label_1
_geom_bond_atom_site_label_2
_geom_bond_distance
_geom_bond_site_symmetry_2
Ba0 O7 2.732908 1_555
Ba0 O11 2.821177 1_555
Ba0 O14 2.837659 1_555
Ba0 O9 2.868867 1_545
Ba0 O18 2.893848 1_555
Ba0 O31 2.914263 1_545
Ba0 O21 2.920126 1_455
Ba0 O19 2.937155 1_555
Ba0 O8 3.209035 1_544
Ba0 O27 3.243245 1_455
Ba1 O22 2.754235 1_555
Ba1 O13 2.754235 1_555
Ba1 O6 2.821147 1_555
Ba1 O25 2.821147 1_555
Ba1 O27 2.845553 1_465
Ba1 O30 2.845553 1_466
Ba1 O1 2.902721 1_465
Ba1 O20 2.902721 1_465
Ba2 O27 2.754235 1_555
Ba2 O30 2.754235 1_555
Ba2 O12 2.821147 1_555
Ba2 O16 2.821147 1_555
Ba2 O13 2.845553 1_645
Ba2 O22 2.845553 1_644
Ba2 O5 2.902721 1_645
Ba2 O9 2.902721 1_645
Ba3 O10 2.732908 1_555
Ba3 O31 2.821177 1_555
Ba3 O21 2.837659 1_555
Ba3 O5 2.868867 1_655
Ba3 O29 2.893848 1_554
Ba3 O11 2.914263 1_655
Ba3 O14 2.920126 1_565
Ba3 O24 2.937155 1_555
Ba3 O23 3.209035 1_655
Ba3 O30 3.243245 1_565
Ba4 O29 2.732908 1_555
Ba4 O4 2.821177 1_555
Ba4 O8 2.837659 1_555
Ba4 O1 2.868867 1_565
Ba4 O10 2.893848 1_555
Ba4 O17 2.914263 1_565
Ba4 O23 2.920126 1_655
Ba4 O2 2.937155 1_555
Ba4 O14 3.209035 1_566
Ba4 O13 3.243245 1_655
Ba5 O18 2.732908 1_555
Ba5 O17 2.821177 1_555
Ba5 O23 2.837659 1_555
Ba5 O20 2.868867 1_455
Ba5 O7 2.893848 1_556
Ba5 O4 2.914263 1_455
Ba5 O8 2.920126 1_545
Ba5 O28 2.937155 1_555
Ba5 O21 3.209035 1_455
Ba5 O22 3.243245 1_545
Bi0 O31 2.233717 1_555
Bi0 O24 2.246976 1_555
Bi0 O3 2.327254 1_555
Bi0 O9 2.402518 1_555
Bi1 O17 2.233717 1_555
Bi1 O28 2.246976 1_555
Bi1 O26 2.327254 1_555
Bi1 O1 2.402518 1_555
Bi2 O11 2.233717 1_555
Bi2 O19 2.246976 1_555
Bi2 O0 2.327254 1_554
Bi2 O5 2.402518 1_555
Bi3 O4 2.233717 1_555
Bi3 O2 2.246976 1_555
Bi3 O15 2.327254 1_556
Bi3 O20 2.402518 1_555
O0 P7 1.588940 1_555
O1 P7 1.591740 1_555
O2 P0 1.576204 1_555
O3 P2 1.588940 1_555
O4 P6 1.593213 1_556
O5 P5 1.591740 1_555
O6 P0 1.554881 1_555
O7 P6 1.515878 1_455
O8 P1 1.536127 1_556
O9 P1 1.591740 1_555
O10 P4 1.515878 1_565
O11 P3 1.593213 1_554
O12 P6 1.554881 1_555
O13 P5 1.536886 1_555
O14 P7 1.536127 1_554
O15 P1 1.588940 1_555
O16 P4 1.554881 1_555
O17 P4 1.593213 1_555
O18 P0 1.515878 1_545
O19 P4 1.576204 1_555
O20 P2 1.591740 1_555
O21 P2 1.536127 1_555
O22 P1 1.536886 1_556
O23 P5 1.536127 1_555
O24 P6 1.576204 1_555
O25 P3 1.554881 1_555
O26 P5 1.588940 1_555
O27 P2 1.536886 1_555
O28 P3 1.576204 1_555
O29 P3 1.515878 1_655
O30 P7 1.536886 1_554
O31 P0 1.593213 1_555
