# generated using pymatgen
data_Na4Zr2(GeO4)3
_symmetry_space_group_name_H-M   'P 1'
_cell_length_a   9.38760205
_cell_length_b   9.38760205
_cell_length_c   9.38760141
_cell_angle_alpha   61.54124627
_cell_angle_beta   61.54124627
_cell_angle_gamma   61.54125142
_symmetry_Int_Tables_number   1
_chemical_formula_structural   Na4Zr2(GeO4)3
_chemical_formula_sum   'Na8 Zr4 Ge6 O24'
_cell_volume   605.22383710
_cell_formula_units_Z   2
loop_
 _symmetry_equiv_pos_site_id
 _symmetry_equiv_pos_as_xyz
  1  'x, y, z'
loop_
 _atom_site_type_symbol
 _atom_site_label
 _atom_site_symmetry_multiplicity
 _atom_site_fract_x
 _atom_site_fract_y
 _atom_site_fract_z
 _atom_site_occupancy
  Na  Na0  1  0.24982800  0.63139600  0.87547300  1
  Na  Na1  1  0.75017200  0.36860400  0.12452700  1
  Na  Na2  1  0.12452700  0.75017200  0.36860400  1
  Na  Na3  1  0.63139600  0.87547300  0.24982800  1
  Na  Na4  1  0.00000000  0.00000000  0.00000000  1
  Na  Na5  1  0.36860400  0.12452700  0.75017200  1
  Na  Na6  1  0.87547300  0.24982800  0.63139600  1
  Na  Na7  1  0.50000000  0.50000000  0.50000000  1
  Zr  Zr0  1  0.14424400  0.14424400  0.14424400  1
  Zr  Zr1  1  0.35554500  0.35554500  0.35554500  1
  Zr  Zr2  1  0.85575600  0.85575600  0.85575600  1
  Zr  Zr3  1  0.64445500  0.64445500  0.64445500  1
  Ge  Ge0  1  0.95490200  0.54461900  0.24964400  1
  Ge  Ge1  1  0.75035600  0.04509800  0.45538100  1
  Ge  Ge2  1  0.24964400  0.95490200  0.54461900  1
  Ge  Ge3  1  0.04509800  0.45538100  0.75035600  1
  Ge  Ge4  1  0.45538100  0.75035600  0.04509800  1
  Ge  Ge5  1  0.54461900  0.24964400  0.95490200  1
  O  O0  1  0.99131000  0.36938300  0.19861100  1
  O  O1  1  0.36938300  0.19861100  0.99131000  1
  O  O2  1  0.80138900  0.00869000  0.63061700  1
  O  O3  1  0.76404400  0.55555600  0.42590300  1
  O  O4  1  0.74220200  0.08198500  0.93242500  1
  O  O5  1  0.57409700  0.23595600  0.44444400  1
  O  O6  1  0.93242500  0.74220200  0.08198500  1
  O  O7  1  0.48869800  0.70871600  0.86473800  1
  O  O8  1  0.44444400  0.57409700  0.23595600  1
  O  O9  1  0.29128500  0.13526200  0.51130200  1
  O  O10  1  0.25779800  0.91801500  0.06757500  1
  O  O11  1  0.91801500  0.06757500  0.25779800  1
  O  O12  1  0.51130200  0.29128500  0.13526200  1
  O  O13  1  0.63061700  0.80138900  0.00869000  1
  O  O14  1  0.86473800  0.48869800  0.70871500  1
  O  O15  1  0.08198500  0.93242500  0.74220200  1
  O  O16  1  0.06757500  0.25779800  0.91801500  1
  O  O17  1  0.00869000  0.63061700  0.80138900  1
  O  O18  1  0.19861100  0.99131000  0.36938300  1
  O  O19  1  0.13526200  0.51130200  0.29128500  1
  O  O20  1  0.42590300  0.76404400  0.55555600  1
  O  O21  1  0.55555600  0.42590300  0.76404400  1
  O  O22  1  0.70871600  0.86473800  0.48869800  1
  O  O23  1  0.23595600  0.44444400  0.57409700  1
loop_
_geom_bond_atom_site_label_1
_geom_bond_atom_site_label_2
_geom_bond_distance
_geom_bond_site_symmetry_2
Na0 O15 2.509860 1_555
Na0 O7 2.613733 1_555
Na0 O21 2.614969 1_555
Na0 O20 2.639826 1_555
Na0 O17 2.670049 1_555
Na0 O6 2.679813 1_456
Na1 O11 2.509860 1_555
Na1 O12 2.613727 1_555
Na1 O8 2.614969 1_555
Na1 O5 2.639826 1_555
Na1 O0 2.670049 1_555
Na1 O16 2.679813 1_654
Na2 O10 2.509860 1_555
Na2 O19 2.613727 1_555
Na2 O23 2.614969 1_555
Na2 O8 2.639826 1_555
Na2 O18 2.670049 1_555
Na2 O11 2.679813 1_465
Na3 O6 2.509860 1_555
Na3 O22 2.613733 1_555
Na3 O20 2.614969 1_555
Na3 O3 2.639826 1_555
Na3 O13 2.670049 1_555
Na3 O4 2.679813 1_564
Na4 O11 2.464620 1_455
Na4 O15 2.464620 1_544
Na4 O16 2.464621 1_554
Na4 O6 2.464621 1_445
Na4 O10 2.464621 1_545
Na4 O4 2.464621 1_454
Na5 O16 2.509860 1_555
Na5 O9 2.613727 1_555
Na5 O5 2.614969 1_555
Na5 O23 2.639826 1_555
Na5 O1 2.670049 1_555
Na5 O10 2.679813 1_546
Na6 O4 2.509860 1_555
Na6 O14 2.613727 1_555
Na6 O3 2.614969 1_555
Na6 O21 2.639826 1_555
Na6 O2 2.670049 1_555
Na6 O15 2.679813 1_645
Na7 O21 2.478522 1_555
Na7 O8 2.478522 1_555
Na7 O3 2.478522 1_555
Na7 O23 2.478522 1_555
Na7 O20 2.478523 1_555
Na7 O5 2.478523 1_555
Ge0 O0 1.764002 1_555
Ge0 O3 1.766276 1_555
Ge0 O6 1.767300 1_555
Ge0 O19 1.768320 1_655
Ge1 O2 1.764002 1_555
Ge1 O5 1.766276 1_555
Ge1 O11 1.767300 1_555
Ge1 O22 1.768314 1_545
Ge2 O18 1.764002 1_555
Ge2 O20 1.766276 1_555
Ge2 O15 1.767300 1_555
Ge2 O9 1.768320 1_565
Ge3 O17 1.764002 1_555
Ge3 O23 1.766276 1_555
Ge3 O16 1.767300 1_555
Ge3 O14 1.768320 1_455
Ge4 O13 1.764002 1_555
Ge4 O8 1.766276 1_555
Ge4 O10 1.767300 1_555
Ge4 O7 1.768314 1_554
Ge5 O1 1.764002 1_555
Ge5 O21 1.766276 1_555
Ge5 O4 1.767300 1_555
Ge5 O12 1.768320 1_556
O0 Zr0 2.055831 1_655
O1 Zr0 2.055831 1_556
O2 Zr2 2.055831 1_545
O3 Zr3 2.170239 1_555
O4 Zr2 2.175457 1_545
O5 Zr1 2.170239 1_555
O6 Zr2 2.175457 1_554
O7 Zr3 2.060281 1_555
O8 Zr1 2.170239 1_555
O9 Zr1 2.060277 1_555
O10 Zr0 2.175457 1_565
O11 Zr0 2.175457 1_655
O12 Zr1 2.060277 1_555
O13 Zr2 2.055831 1_554
O14 Zr3 2.060277 1_555
O15 Zr2 2.175457 1_455
O16 Zr0 2.175457 1_556
O17 Zr2 2.055831 1_455
O18 Zr0 2.055831 1_565
O19 Zr1 2.060277 1_555
O20 Zr3 2.170239 1_555
O21 Zr3 2.170239 1_555
O22 Zr3 2.060281 1_555
O23 Zr1 2.170239 1_555
