# generated using pymatgen
data_LuMn2O5
_symmetry_space_group_name_H-M   'P 1'
_cell_length_a   5.65348838
_cell_length_b   7.09727523
_cell_length_c   8.36412233
_cell_angle_alpha   90.00000000
_cell_angle_beta   90.00000000
_cell_angle_gamma   90.00000000
_symmetry_Int_Tables_number   1
_chemical_formula_structural   LuMn2O5
_chemical_formula_sum   'Lu4 Mn8 O20'
_cell_volume   335.60508090
_cell_formula_units_Z   4
loop_
 _symmetry_equiv_pos_site_id
 _symmetry_equiv_pos_as_xyz
  1  'x, y, z'
loop_
 _atom_site_type_symbol
 _atom_site_label
 _atom_site_symmetry_multiplicity
 _atom_site_fract_x
 _atom_site_fract_y
 _atom_site_fract_z
 _atom_site_occupancy
  Lu  Lu0  1  0.00000000  0.13596669  0.16993204  1
  Lu  Lu1  1  0.00000000  0.86403331  0.83006796  1
  Lu  Lu2  1  0.00000000  0.63596669  0.33006796  1
  Lu  Lu3  1  0.00000000  0.36403331  0.66993204  1
  Mn  Mn0  1  0.25240194  -0.00000000  0.50000000  1
  Mn  Mn1  1  0.74759806  0.50000000  -0.00000000  1
  Mn  Mn2  1  0.74759806  -0.00000000  0.50000000  1
  Mn  Mn3  1  0.25240194  0.50000000  -0.00000000  1
  Mn  Mn4  1  0.50000000  0.41395507  0.34763480  1
  Mn  Mn5  1  0.50000000  0.58604493  0.65236520  1
  Mn  Mn6  1  0.50000000  0.91395507  0.15236520  1
  Mn  Mn7  1  0.50000000  0.08604493  0.84763480  1
  O  O0  1  0.26700777  -0.00000000  -0.00000000  1
  O  O1  1  0.73299223  0.50000000  0.50000000  1
  O  O2  1  0.73299223  -0.00000000  -0.00000000  1
  O  O3  1  0.26700777  0.50000000  0.50000000  1
  O  O4  1  0.00000000  0.16614224  0.44024210  1
  O  O5  1  0.00000000  0.83385776  0.55975790  1
  O  O6  1  0.00000000  0.66614224  0.05975790  1
  O  O7  1  0.00000000  0.33385776  0.94024210  1
  O  O8  1  0.50000000  0.15248195  0.42958372  1
  O  O9  1  0.50000000  0.84751805  0.57041628  1
  O  O10  1  0.50000000  0.65248195  0.07041628  1
  O  O11  1  0.50000000  0.34751805  0.92958372  1
  O  O12  1  0.23918055  0.38903587  0.20641096  1
  O  O13  1  0.23918055  0.61096413  0.79358904  1
  O  O14  1  0.76081945  0.88903587  0.29358904  1
  O  O15  1  0.76081945  0.11096413  0.70641096  1
  O  O16  1  0.76081945  0.61096413  0.79358904  1
  O  O17  1  0.76081945  0.38903587  0.20641096  1
  O  O18  1  0.23918055  0.11096413  0.70641096  1
  O  O19  1  0.23918055  0.88903587  0.29358904  1
loop_
_geom_bond_atom_site_label_1
_geom_bond_atom_site_label_2
_geom_bond_distance
_geom_bond_site_symmetry_2
Lu0 O12 2.268817 1_555
Lu0 O17 2.268817 1_455
Lu0 O4 2.271027 1_555
Lu0 O2 2.286933 1_455
Lu0 O0 2.286933 1_555
Lu0 O7 2.379794 1_554
Lu0 O14 2.443272 1_445
Lu0 O19 2.443272 1_545
Lu1 O16 2.268817 1_455
Lu1 O13 2.268817 1_555
Lu1 O5 2.271027 1_555
Lu1 O0 2.286933 1_566
Lu1 O2 2.286933 1_466
Lu1 O6 2.379794 1_556
Lu1 O15 2.443272 1_465
Lu1 O18 2.443272 1_565
Lu2 O19 2.268817 1_555
Lu2 O14 2.268817 1_455
Lu2 O6 2.271027 1_555
Lu2 O1 2.286933 1_455
Lu2 O3 2.286933 1_555
Lu2 O5 2.379794 1_555
Lu2 O12 2.443272 1_555
Lu2 O17 2.443272 1_455
Lu3 O18 2.268817 1_555
Lu3 O15 2.268817 1_455
Lu3 O7 2.271027 1_555
Lu3 O1 2.286933 1_455
Lu3 O3 2.286933 1_555
Lu3 O4 2.379794 1_555
Lu3 O16 2.443272 1_455
Lu3 O13 2.443272 1_555
Mn0 O8 1.864799 1_555
Mn0 O9 1.864799 1_545
Mn0 O19 1.899060 1_545
Mn0 O18 1.899060 1_555
Mn0 O5 1.917400 1_545
Mn0 O4 1.917400 1_555
Mn1 O11 1.864799 1_554
Mn1 O10 1.864799 1_555
Mn1 O17 1.899060 1_555
Mn1 O16 1.899060 1_554
Mn1 O7 1.917400 1_654
Mn1 O6 1.917400 1_655
Mn2 O8 1.864799 1_555
Mn2 O9 1.864799 1_545
Mn2 O14 1.899060 1_545
Mn2 O15 1.899060 1_555
Mn2 O5 1.917400 1_645
Mn2 O4 1.917400 1_655
Mn3 O11 1.864799 1_554
Mn3 O10 1.864799 1_555
Mn3 O12 1.899060 1_555
Mn3 O13 1.899060 1_554
Mn3 O6 1.917400 1_555
Mn3 O7 1.917400 1_554
Mn4 O17 1.897580 1_555
Mn4 O12 1.897580 1_555
Mn4 O3 1.931864 1_555
Mn4 O1 1.931864 1_555
Mn4 O8 1.978285 1_555
Mn5 O16 1.897580 1_555
Mn5 O13 1.897580 1_555
Mn5 O1 1.931864 1_555
Mn5 O3 1.931864 1_555
Mn5 O9 1.978285 1_555
Mn6 O14 1.897580 1_555
Mn6 O19 1.897580 1_555
Mn6 O0 1.931864 1_565
Mn6 O2 1.931864 1_565
Mn6 O10 1.978285 1_555
Mn7 O15 1.897580 1_555
Mn7 O18 1.897580 1_555
Mn7 O0 1.931864 1_556
Mn7 O2 1.931864 1_556
Mn7 O11 1.978285 1_555
