# generated using pymatgen
data_Fe3B7ClO13
_symmetry_space_group_name_H-M   'P 1'
_cell_length_a   8.70715970
_cell_length_b   8.70715970
_cell_length_c   8.70715958
_cell_angle_alpha   60.09888573
_cell_angle_beta   60.09888573
_cell_angle_gamma   60.09888060
_symmetry_Int_Tables_number   1
_chemical_formula_structural   Fe3B7ClO13
_chemical_formula_sum   'Fe6 B14 Cl2 O26'
_cell_volume   467.82830500
_cell_formula_units_Z   2
loop_
 _symmetry_equiv_pos_site_id
 _symmetry_equiv_pos_as_xyz
  1  'x, y, z'
loop_
 _atom_site_type_symbol
 _atom_site_label
 _atom_site_symmetry_multiplicity
 _atom_site_fract_x
 _atom_site_fract_y
 _atom_site_fract_z
 _atom_site_occupancy
  Fe  Fe0  1  0.53279900  0.97306300  0.97421900  1
  Fe  Fe1  1  0.47306300  0.03279900  0.47421900  1
  Fe  Fe2  1  0.47421900  0.47306300  0.03279900  1
  Fe  Fe3  1  0.97306300  0.97421900  0.53279900  1
  Fe  Fe4  1  0.97421900  0.53279900  0.97306300  1
  Fe  Fe5  1  0.03279900  0.47421900  0.47306300  1
  B  B0  1  0.57347000  0.57075500  0.26811900  1
  B  B1  1  0.24829500  0.75454800  0.24531500  1
  B  B2  1  0.10300100  0.10300100  0.10300100  1
  B  B3  1  0.24531500  0.24829500  0.75454800  1
  B  B4  1  0.60300100  0.60300100  0.60300100  1
  B  B5  1  0.07075500  0.07347000  0.76811900  1
  B  B6  1  0.76811900  0.07075500  0.07347000  1
  B  B7  1  0.74531500  0.25454800  0.74829500  1
  B  B8  1  0.74829500  0.74531500  0.25454800  1
  B  B9  1  0.57075500  0.26811900  0.57347000  1
  B  B10  1  0.26811900  0.57347000  0.57075500  1
  B  B11  1  0.07347000  0.76811900  0.07075500  1
  B  B12  1  0.75454800  0.24531500  0.24829500  1
  B  B13  1  0.25454800  0.74829500  0.74531500  1
  Cl  Cl0  1  0.76750700  0.76750700  0.76750700  1
  Cl  Cl1  1  0.26750700  0.26750700  0.26750700  1
  O  O0  1  0.60331000  0.74275800  0.21748400  1
  O  O1  1  0.93532600  0.68712200  0.11528400  1
  O  O2  1  0.48639800  0.48639800  0.48639800  1
  O  O3  1  0.74961700  0.43290000  0.20256500  1
  O  O4  1  0.24275800  0.10331000  0.71748400  1
  O  O5  1  0.74275800  0.21748400  0.60331000  1
  O  O6  1  0.44653000  0.76309800  0.60799000  1
  O  O7  1  0.60799000  0.44653000  0.76309800  1
  O  O8  1  0.10799000  0.26309800  0.94653000  1
  O  O9  1  0.18712200  0.43532600  0.61528400  1
  O  O10  1  0.43532600  0.61528400  0.18712200  1
  O  O11  1  0.10331000  0.71748400  0.24275800  1
  O  O12  1  0.43290000  0.20256500  0.74961700  1
  O  O13  1  0.71748400  0.24275800  0.10331000  1
  O  O14  1  0.20256500  0.74961700  0.43290000  1
  O  O15  1  0.11528400  0.93532600  0.68712200  1
  O  O16  1  0.61528400  0.18712200  0.43532600  1
  O  O17  1  0.94653000  0.10799000  0.26309800  1
  O  O18  1  0.98639800  0.98639800  0.98639800  1
  O  O19  1  0.70256500  0.93290000  0.24961700  1
  O  O20  1  0.21748400  0.60331000  0.74275800  1
  O  O21  1  0.24961700  0.70256500  0.93290000  1
  O  O22  1  0.76309800  0.60799000  0.44653000  1
  O  O23  1  0.26309800  0.94653000  0.10799000  1
  O  O24  1  0.68712200  0.11528400  0.93532600  1
  O  O25  1  0.93290000  0.24961700  0.70256500  1
loop_
_geom_bond_atom_site_label_1
_geom_bond_atom_site_label_2
_geom_bond_distance
_geom_bond_site_symmetry_2
Fe0 O24 2.059357 1_565
Fe0 O23 2.114296 1_556
Fe0 O12 2.154324 1_565
Fe0 O0 2.172320 1_556
Fe1 O16 2.059357 1_555
Fe1 O6 2.114296 1_545
Fe1 O19 2.154324 1_545
Fe1 O4 2.172320 1_555
Fe2 O10 2.059357 1_555
Fe2 O7 2.114296 1_554
Fe2 O21 2.154323 1_554
Fe2 O13 2.172319 1_555
Fe3 O15 2.059357 1_655
Fe3 O17 2.114296 1_565
Fe3 O14 2.154323 1_655
Fe3 O5 2.172319 1_565
Fe4 O1 2.059357 1_556
Fe4 O8 2.114296 1_655
Fe4 O3 2.154324 1_556
Fe4 O20 2.172320 1_655
Fe5 O9 2.059357 1_555
Fe5 O22 2.114296 1_455
Fe5 O25 2.154324 1_455
Fe5 O11 2.172320 1_555
B0 O3 1.446969 1_555
B0 O0 1.456123 1_555
B0 O10 1.484154 1_555
B0 O2 1.566299 1_555
B1 O14 1.458382 1_555
B1 O11 1.462769 1_555
B1 O10 1.483320 1_555
B1 O23 1.519542 1_555
B2 O23 1.381712 1_545
B2 O17 1.381712 1_455
B2 O8 1.381712 1_554
B3 O12 1.458382 1_555
B3 O4 1.462769 1_555
B3 O9 1.483320 1_555
B3 O8 1.519542 1_555
B4 O6 1.381712 1_555
B4 O7 1.381712 1_555
B4 O22 1.381712 1_555
B5 O25 1.446969 1_455
B5 O4 1.456123 1_555
B5 O15 1.484154 1_545
B5 O18 1.566299 1_445
B6 O19 1.446969 1_545
B6 O13 1.456123 1_555
B6 O24 1.484154 1_554
B6 O18 1.566299 1_544
B7 O25 1.458382 1_555
B7 O5 1.462769 1_555
B7 O24 1.483320 1_555
B7 O7 1.519542 1_555
B8 O19 1.458382 1_555
B8 O0 1.462769 1_555
B8 O1 1.483320 1_555
B8 O22 1.519542 1_555
B9 O12 1.446969 1_555
B9 O5 1.456123 1_555
B9 O16 1.484154 1_555
B9 O2 1.566299 1_555
B10 O14 1.446969 1_555
B10 O20 1.456123 1_555
B10 O9 1.484155 1_555
B10 O2 1.566299 1_555
B11 O21 1.446969 1_554
B11 O11 1.456123 1_555
B11 O1 1.484155 1_455
B11 O18 1.566299 1_454
B12 O3 1.458382 1_555
B12 O13 1.462769 1_555
B12 O16 1.483320 1_555
B12 O17 1.519542 1_555
B13 O21 1.458382 1_555
B13 O20 1.462769 1_555
B13 O15 1.483320 1_555
B13 O6 1.519542 1_555
Cl0 Fe4 2.552870 1_555
Cl0 Fe0 2.552870 1_555
Cl0 Fe3 2.552870 1_555
Cl1 Fe5 2.552870 1_555
Cl1 Fe1 2.552870 1_555
Cl1 Fe2 2.552870 1_555
