# generated using pymatgen
data_Cr3AgO8
_symmetry_space_group_name_H-M   'P 1'
_cell_length_a   5.02736056
_cell_length_b   5.02732893
_cell_length_c   13.68760469
_cell_angle_alpha   88.22798745
_cell_angle_beta   88.22802476
_cell_angle_gamma   66.24500367
_symmetry_Int_Tables_number   1
_chemical_formula_structural   Cr3AgO8
_chemical_formula_sum   'Cr6 Ag2 O16'
_cell_volume   316.41772987
_cell_formula_units_Z   2
loop_
 _symmetry_equiv_pos_site_id
 _symmetry_equiv_pos_as_xyz
  1  'x, y, z'
loop_
 _atom_site_type_symbol
 _atom_site_label
 _atom_site_symmetry_multiplicity
 _atom_site_fract_x
 _atom_site_fract_y
 _atom_site_fract_z
 _atom_site_occupancy
  Cr  Cr0  1  0.99993855  -0.00007348  0.74997208  1
  Cr  Cr1  1  0.64656273  0.64655914  0.13865988  1
  Cr  Cr2  1  0.35357368  0.35358176  0.36139185  1
  Cr  Cr3  1  0.00006769  0.00006208  0.25002541  1
  Cr  Cr4  1  0.64641351  0.64641675  0.63860698  1
  Cr  Cr5  1  0.35343925  0.35344657  0.86134039  1
  Ag  Ag0  1  0.00000362  -0.00000539  -0.00000180  1
  Ag  Ag1  1  0.00000339  -0.00000176  0.50000122  1
  O  O0  1  0.26162383  0.26161631  0.46681226  1
  O  O1  1  0.26150236  0.26149710  0.96676089  1
  O  O2  1  0.73850371  0.73851396  0.03323732  1
  O  O3  1  0.73837088  0.73839000  0.53319062  1
  O  O4  1  0.22448234  0.22448132  0.27402158  1
  O  O5  1  0.22437341  0.22437114  0.77396355  1
  O  O6  1  0.77563858  0.77564270  0.22604115  1
  O  O7  1  0.77551000  0.77551238  0.72597771  1
  O  O8  1  0.78617919  0.27999700  0.14789219  1
  O  O9  1  0.78608169  0.27986208  0.64784639  1
  O  O10  1  0.27999932  0.78617123  0.14789482  1
  O  O11  1  0.27986503  0.78607150  0.64784848  1
  O  O12  1  0.21391403  0.72014275  0.35215069  1
  O  O13  1  0.21382791  0.71998853  0.85211155  1
  O  O14  1  0.72013538  0.21392417  0.35214999  1
  O  O15  1  0.71999092  0.21383417  0.85210980  1
loop_
_geom_bond_atom_site_label_1
_geom_bond_atom_site_label_2
_geom_bond_distance
_geom_bond_site_symmetry_2
Cr0 O7 1.930053 1_545
Cr0 O5 1.930197 1_655
Cr0 O11 1.960255 1_645
Cr0 O9 1.960296 1_555
Cr0 O13 1.960482 1_645
Cr0 O15 1.960517 1_555
Cr1 O2 1.612204 1_555
Cr1 O6 1.645599 1_555
Cr1 O8 1.689271 1_555
Cr1 O10 1.689290 1_555
Cr2 O0 1.612215 1_555
Cr2 O4 1.645579 1_555
Cr2 O12 1.689267 1_555
Cr2 O14 1.689282 1_555
Cr3 O4 1.930022 1_555
Cr3 O6 1.930049 1_445
Cr3 O12 1.960239 1_545
Cr3 O14 1.960289 1_455
Cr3 O10 1.960386 1_545
Cr3 O8 1.960413 1_455
Cr4 O3 1.612195 1_555
Cr4 O7 1.645585 1_555
Cr4 O11 1.689221 1_555
Cr4 O9 1.689236 1_555
Cr5 O1 1.612162 1_555
Cr5 O5 1.645501 1_555
Cr5 O13 1.689175 1_555
Cr5 O15 1.689232 1_555
Ag0 O2 2.231968 1_445
Ag0 O1 2.232049 1_554
Ag0 O13 2.461118 1_544
Ag0 O15 2.461167 1_454
Ag0 O8 2.461193 1_455
Ag0 O10 2.461209 1_545
Ag1 O0 2.232917 1_555
Ag1 O3 2.232927 1_445
Ag1 O9 2.460436 1_455
Ag1 O11 2.460461 1_545
Ag1 O12 2.460469 1_545
Ag1 O14 2.460518 1_455
