# generated using pymatgen
data_Ag2HgI4
_symmetry_space_group_name_H-M   'P 1'
_cell_length_a   6.47862847
_cell_length_b   6.47862847
_cell_length_c   6.38218304
_cell_angle_alpha   90.00000000
_cell_angle_beta   90.00000000
_cell_angle_gamma   90.00000000
_symmetry_Int_Tables_number   1
_chemical_formula_structural   Ag2HgI4
_chemical_formula_sum   'Ag2 Hg1 I4'
_cell_volume   267.87698724
_cell_formula_units_Z   1
loop_
 _symmetry_equiv_pos_site_id
 _symmetry_equiv_pos_as_xyz
  1  'x, y, z'
loop_
 _atom_site_type_symbol
 _atom_site_label
 _atom_site_symmetry_multiplicity
 _atom_site_fract_x
 _atom_site_fract_y
 _atom_site_fract_z
 _atom_site_occupancy
  Ag  Ag0  1  0.00000000  0.50000000  0.50000000  1
  Ag  Ag1  1  0.50000000  -0.00000000  0.50000000  1
  Hg  Hg0  1  0.00000000  -0.00000000  0.00000000  1
  I  I0  1  0.73704558  0.73704558  0.23763762  1
  I  I1  1  0.26295442  0.73704558  0.76236238  1
  I  I2  1  0.26295442  0.26295442  0.23763762  1
  I  I3  1  0.73704558  0.26295442  0.76236238  1
loop_
_geom_bond_atom_site_label_1
_geom_bond_atom_site_label_2
_geom_bond_distance
_geom_bond_site_symmetry_2
Ag0 I3 2.839794 1_455
Ag0 I2 2.839794 1_555
Ag0 I0 2.839794 1_455
Ag0 I1 2.839794 1_555
Ag1 I2 2.839794 1_555
Ag1 I3 2.839794 1_555
Ag1 I0 2.839794 1_545
Ag1 I1 2.839794 1_545
Hg0 I2 2.846860 1_555
Hg0 I3 2.846860 1_454
Hg0 I1 2.846860 1_544
Hg0 I0 2.846860 1_445
