# generated using pymatgen
data_TlBiS2
_symmetry_space_group_name_H-M   'P 1'
_cell_length_a   7.78042315
_cell_length_b   7.78042315
_cell_length_c   7.78042319
_cell_angle_alpha   30.72949457
_cell_angle_beta   30.72949457
_cell_angle_gamma   30.72949203
_symmetry_Int_Tables_number   1
_chemical_formula_structural   TlBiS2
_chemical_formula_sum   'Tl1 Bi1 S2'
_cell_volume   109.05073116
_cell_formula_units_Z   1
loop_
 _symmetry_equiv_pos_site_id
 _symmetry_equiv_pos_as_xyz
  1  'x, y, z'
loop_
 _atom_site_type_symbol
 _atom_site_label
 _atom_site_symmetry_multiplicity
 _atom_site_fract_x
 _atom_site_fract_y
 _atom_site_fract_z
 _atom_site_occupancy
  Tl  Tl0  1  0.50000000  0.50000000  0.50000000  1
  Bi  Bi0  1  0.00000000  0.00000000  0.00000000  1
  S  S0  1  0.73688763  0.73688763  0.73688763  1
  S  S1  1  0.26311237  0.26311237  0.26311237  1
loop_
_geom_bond_atom_site_label_1
_geom_bond_atom_site_label_2
_geom_bond_distance
_geom_bond_site_symmetry_2
Bi0 S0 2.846314 1_544
Bi0 S1 2.846314 1_455
Bi0 S0 2.846314 1_454
Bi0 S1 2.846314 1_545
Bi0 S0 2.846314 1_445
Bi0 S1 2.846314 1_554
S0 Tl0 3.203103 1_565
S0 Tl0 3.203103 1_655
S0 Tl0 3.203104 1_556
S1 Tl0 3.203103 1_455
S1 Tl0 3.203103 1_545
S1 Tl0 3.203104 1_554
