# generated using pymatgen
data_Cs4Sc6CCl13
_symmetry_space_group_name_H-M   'P 1'
_cell_length_a   12.17820933
_cell_length_b   12.17820933
_cell_length_c   12.17820933
_cell_angle_alpha   100.75655219
_cell_angle_beta   100.75655219
_cell_angle_gamma   128.80907410
_symmetry_Int_Tables_number   1
_chemical_formula_structural   Cs4Sc6CCl13
_chemical_formula_sum   'Cs8 Sc12 C2 Cl26'
_cell_volume   1269.29683830
_cell_formula_units_Z   2
loop_
 _symmetry_equiv_pos_site_id
 _symmetry_equiv_pos_as_xyz
  1  'x, y, z'
loop_
 _atom_site_type_symbol
 _atom_site_label
 _atom_site_symmetry_multiplicity
 _atom_site_fract_x
 _atom_site_fract_y
 _atom_site_fract_z
 _atom_site_occupancy
  Cs  Cs0  1  0.34514200  0.34514200  0.69028300  1
  Cs  Cs1  1  0.65485800  0.34514200  0.00000000  1
  Cs  Cs2  1  0.65485800  0.65485800  0.30971700  1
  Cs  Cs3  1  0.59514200  0.40485800  0.50000000  1
  Cs  Cs4  1  0.90485800  0.09514200  0.50000000  1
  Cs  Cs5  1  0.34514200  0.65485800  0.00000000  1
  Cs  Cs6  1  0.59514200  0.09514200  0.19028300  1
  Cs  Cs7  1  0.90485800  0.40485800  0.80971700  1
  Sc  Sc0  1  0.00175600  0.14629800  0.14454100  1
  Sc  Sc1  1  0.39629800  0.75175600  0.64454100  1
  Sc  Sc2  1  0.10721500  0.75175600  0.35545900  1
  Sc  Sc3  1  0.21374000  0.21374000  0.00000000  1
  Sc  Sc4  1  0.00175600  0.85721500  0.85545900  1
  Sc  Sc5  1  0.03626000  0.53626000  0.50000000  1
  Sc  Sc6  1  0.46374000  0.96374000  0.50000000  1
  Sc  Sc7  1  0.85370200  0.99824400  0.85545900  1
  Sc  Sc8  1  0.78626000  0.78626000  0.00000000  1
  Sc  Sc9  1  0.14278500  0.99824400  0.14454100  1
  Sc  Sc10  1  0.24824400  0.60370200  0.35545900  1
  Sc  Sc11  1  0.24824400  0.89278500  0.64454100  1
  C  C0  1  0.00000000  0.00000000  0.00000000  1
  C  C1  1  0.25000000  0.75000000  0.50000000  1
  Cl  Cl0  1  0.75396700  0.92050100  0.16653400  1
  Cl  Cl1  1  0.83521000  0.16479000  0.00000000  1
  Cl  Cl2  1  0.16479000  0.83521000  0.00000000  1
  Cl  Cl3  1  0.24745200  0.08103200  0.83358000  1
  Cl  Cl4  1  0.49603300  0.82949900  0.33346600  1
  Cl  Cl5  1  0.41256700  0.24603300  0.16653400  1
  Cl  Cl6  1  0.58612800  0.75254800  0.83358000  1
  Cl  Cl7  1  0.91896800  0.75254800  0.16642000  1
  Cl  Cl8  1  0.66387200  0.99745200  0.66642000  1
  Cl  Cl9  1  0.41479000  0.91479000  0.82958000  1
  Cl  Cl10  1  0.24745200  0.41387200  0.16642000  1
  Cl  Cl11  1  0.00254800  0.66896800  0.66642000  1
  Cl  Cl12  1  0.49603300  0.16256700  0.66653400  1
  Cl  Cl13  1  0.83521000  0.83521000  0.67042000  1
  Cl  Cl14  1  0.41479000  0.58521000  0.50000000  1
  Cl  Cl15  1  0.07949900  0.24603300  0.83346600  1
  Cl  Cl16  1  0.75000000  0.25000000  0.50000000  1
  Cl  Cl17  1  0.17050100  0.50396700  0.66653400  1
  Cl  Cl18  1  0.00254800  0.33612800  0.33358000  1
  Cl  Cl19  1  0.16479000  0.16479000  0.32958000  1
  Cl  Cl20  1  0.08521000  0.58521000  0.17042000  1
  Cl  Cl21  1  0.75396700  0.58743300  0.83346600  1
  Cl  Cl22  1  0.08521000  0.91479000  0.50000000  1
  Cl  Cl23  1  0.33103200  0.99745200  0.33358000  1
  Cl  Cl24  1  0.83743300  0.50396700  0.33346600  1
  Cl  Cl25  1  0.50000000  0.50000000  0.00000000  1
loop_
_geom_bond_atom_site_label_1
_geom_bond_atom_site_label_2
_geom_bond_distance
_geom_bond_site_symmetry_2
C0 Sc9 2.245156 1_545
C0 Sc4 2.245156 1_544
C0 Sc0 2.245164 1_555
C0 Sc7 2.245164 1_444
C0 Sc3 2.249041 1_555
C0 Sc8 2.249041 1_445
C1 Sc2 2.245156 1_555
C1 Sc11 2.245156 1_555
C1 Sc10 2.245164 1_555
C1 Sc1 2.245164 1_555
C1 Sc6 2.249041 1_555
C1 Sc5 2.249041 1_555
Cl0 Sc8 2.608909 1_555
Cl0 Sc0 2.629603 1_665
Cl0 Cs5 3.599973 1_555
Cl0 Cs2 3.599982 1_555
Cl0 Cs6 3.672011 1_565
Cl0 Cs4 3.672012 1_565
Cl1 Sc7 2.578906 1_544
Cl1 Sc0 2.578906 1_655
Cl1 Cs7 3.845912 1_554
Cl1 Cs6 3.845912 1_555
Cl1 Cs1 3.961656 1_555
Cl2 Sc4 2.578915 1_554
Cl2 Sc9 2.578915 1_555
Cl2 Cs6 3.845919 1_565
Cl2 Cs7 3.845919 1_454
Cl2 Cs5 3.961656 1_555
Cl3 Sc4 2.607532 1_545
Cl3 Sc3 2.609142 1_556
Cl3 Sc11 2.936256 1_545
Cl3 Cs1 3.588814 1_556
Cl3 Cs0 3.588823 1_555
Cl4 Sc6 2.608909 1_555
Cl4 Sc10 2.629603 1_555
Cl4 Cs4 3.599973 1_565
Cl4 Cs6 3.599982 1_565
Cl4 Cs2 3.672011 1_555
Cl4 Cs5 3.672012 1_555
Cl5 Sc3 2.608909 1_555
Cl5 Sc9 2.629599 1_545
Cl5 Cs1 3.599973 1_555
Cl5 Cs2 3.599974 1_555
Cl5 Cs6 3.672012 1_555
Cl5 Cs3 3.672012 1_555
Cl6 Sc7 2.607526 1_555
Cl6 Sc8 2.609142 1_556
Cl6 Sc1 2.936249 1_555
Cl6 Cs5 3.588814 1_556
Cl6 Cs0 3.588815 1_555
Cl7 Sc9 2.607532 1_655
Cl7 Sc8 2.609142 1_555
Cl7 Sc2 2.936256 1_655
Cl7 Cs1 3.588814 1_555
Cl7 Cs2 3.588823 1_555
Cl8 Sc1 2.607526 1_555
Cl8 Sc6 2.609142 1_555
Cl8 Sc7 2.936249 1_555
Cl8 Cs4 3.588814 1_565
Cl8 Cs7 3.588815 1_565
Cl9 Sc11 2.578915 1_555
Cl9 Sc1 2.578922 1_555
Cl9 Cs5 3.845921 1_556
Cl9 Cs1 3.845921 1_566
Cl9 Cs6 3.961645 1_566
Cl10 Sc0 2.607526 1_555
Cl10 Sc3 2.609142 1_555
Cl10 Sc10 2.936249 1_555
Cl10 Cs5 3.588814 1_555
Cl10 Cs2 3.588815 1_555
Cl11 Sc11 2.607532 1_555
Cl11 Sc5 2.609142 1_555
Cl11 Sc4 2.936256 1_555
Cl11 Cs3 3.588814 1_455
Cl11 Cs7 3.588823 1_455
Cl12 Sc6 2.608909 1_545
Cl12 Sc11 2.629599 1_545
Cl12 Cs3 3.599973 1_555
Cl12 Cs7 3.599974 1_555
Cl12 Cs0 3.672012 1_555
Cl12 Cs1 3.672012 1_556
Cl13 Sc4 2.578915 1_655
Cl13 Sc7 2.578922 1_555
Cl13 Cs3 3.845921 1_555
Cl13 Cs4 3.845921 1_565
Cl13 Cs2 3.961645 1_555
Cl14 Sc10 2.578906 1_555
Cl14 Sc1 2.578906 1_555
Cl14 Cs2 3.845912 1_555
Cl14 Cs0 3.845912 1_555
Cl14 Cs3 3.961656 1_555
Cl15 Sc3 2.608909 1_556
Cl15 Sc7 2.629603 1_445
Cl15 Cs5 3.599973 1_556
Cl15 Cs0 3.599982 1_555
Cl15 Cs7 3.672011 1_455
Cl15 Cs4 3.672012 1_455
Cl16 Sc5 3.012120 1_655
Cl16 Sc6 3.012120 1_545
Cl16 Cs3 3.401649 1_555
Cl16 Cs4 3.401649 1_555
Cl16 Cs6 3.401660 1_555
Cl16 Cs7 3.401660 1_555
Cl17 Sc5 2.608909 1_555
Cl17 Sc1 2.629603 1_555
Cl17 Cs4 3.599973 1_455
Cl17 Cs7 3.599982 1_455
Cl17 Cs0 3.672011 1_555
Cl17 Cs5 3.672012 1_556
Cl18 Sc10 2.607526 1_555
Cl18 Sc5 2.609142 1_555
Cl18 Sc0 2.936249 1_555
Cl18 Cs4 3.588814 1_455
Cl18 Cs6 3.588815 1_455
Cl19 Sc9 2.578915 1_545
Cl19 Sc0 2.578922 1_555
Cl19 Cs4 3.845921 1_455
Cl19 Cs3 3.845921 1_555
Cl19 Cs0 3.961645 1_555
Cl20 Sc2 2.578915 1_555
Cl20 Sc10 2.578922 1_555
Cl20 Cs1 3.845921 1_455
Cl20 Cs5 3.845921 1_555
Cl20 Cs7 3.961645 1_454
Cl21 Sc8 2.608909 1_556
Cl21 Sc4 2.629599 1_655
Cl21 Cs1 3.599973 1_556
Cl21 Cs0 3.599974 1_555
Cl21 Cs7 3.672012 1_555
Cl21 Cs3 3.672012 1_555
Cl22 Sc11 2.578915 1_555
Cl22 Sc2 2.578915 1_555
Cl22 Cs2 3.845919 1_455
Cl22 Cs0 3.845919 1_565
Cl22 Cs4 3.961656 1_465
Cl23 Sc2 2.607532 1_555
Cl23 Sc6 2.609142 1_555
Cl23 Sc9 2.936256 1_555
Cl23 Cs3 3.588814 1_565
Cl23 Cs6 3.588823 1_565
Cl24 Sc5 2.608909 1_655
Cl24 Sc2 2.629599 1_655
Cl24 Cs3 3.599973 1_555
Cl24 Cs6 3.599974 1_555
Cl24 Cs2 3.672012 1_555
Cl24 Cs1 3.672012 1_555
Cl25 Sc3 3.012120 1_555
Cl25 Sc8 3.012120 1_555
Cl25 Cs1 3.401649 1_555
Cl25 Cs5 3.401649 1_555
Cl25 Cs0 3.401660 1_554
Cl25 Cs2 3.401660 1_555
