# generated using pymatgen
data_FePO4
_symmetry_space_group_name_H-M   'P 1'
_cell_length_a   5.26235261
_cell_length_b   8.56230701
_cell_length_c   8.57234021
_cell_angle_alpha   72.33160256
_cell_angle_beta   90.00000000
_cell_angle_gamma   90.00000000
_symmetry_Int_Tables_number   1
_chemical_formula_structural   FePO4
_chemical_formula_sum   'Fe4 P4 O16'
_cell_volume   368.03160918
_cell_formula_units_Z   4
loop_
 _symmetry_equiv_pos_site_id
 _symmetry_equiv_pos_as_xyz
  1  'x, y, z'
loop_
 _atom_site_type_symbol
 _atom_site_label
 _atom_site_symmetry_multiplicity
 _atom_site_fract_x
 _atom_site_fract_y
 _atom_site_fract_z
 _atom_site_occupancy
  Fe  Fe0  1  0.30431075  0.21981587  0.12902480  1
  Fe  Fe1  1  0.80749722  0.37314399  0.62920457  1
  Fe  Fe2  1  0.69568925  0.71981587  0.12902480  1
  Fe  Fe3  1  0.19250278  0.87314399  0.62920457  1
  P  P0  1  0.69335560  0.99701875  0.75788700  1
  P  P1  1  0.80323020  0.34365367  0.25760632  1
  P  P2  1  0.30664440  0.49701875  0.75788700  1
  P  P3  1  0.19676980  0.84365367  0.25760632  1
  O  O0  1  0.22363955  0.00932886  0.12410830  1
  O  O1  1  0.41812384  0.00627181  0.69850292  1
  O  O2  1  0.62782042  0.21887750  0.21678353  1
  O  O3  1  0.07694952  0.28177857  0.26687406  1
  O  O4  1  0.76902097  0.16314600  0.77642848  1
  O  O5  1  0.72802303  0.36409116  0.42257274  1
  O  O6  1  0.77636045  0.50932886  0.12410830  1
  O  O7  1  0.27653708  0.36630487  0.92306278  1
  O  O8  1  0.13437909  0.45403495  0.63245650  1
  O  O9  1  0.58187616  0.50627181  0.69850292  1
  O  O10  1  0.37217958  0.71887750  0.21678353  1
  O  O11  1  0.92305048  0.78177857  0.26687406  1
  O  O12  1  0.23097903  0.66314600  0.77642848  1
  O  O13  1  0.27197697  0.86409116  0.42257274  1
  O  O14  1  0.72346292  0.86630487  0.92306278  1
  O  O15  1  0.86562091  0.95403495  0.63245650  1
loop_
_geom_bond_atom_site_label_1
_geom_bond_atom_site_label_2
_geom_bond_distance
_geom_bond_site_symmetry_2
Fe0 O7 1.835101 1_554
Fe0 O2 1.860266 1_555
Fe0 O0 1.864463 1_555
Fe0 O3 1.868137 1_555
Fe1 O5 1.844405 1_555
Fe1 O8 1.857737 1_655
Fe1 O9 1.863582 1_555
Fe1 O4 1.867980 1_555
Fe2 O14 1.835101 1_554
Fe2 O10 1.860266 1_555
Fe2 O6 1.864463 1_555
Fe2 O11 1.868137 1_555
Fe3 O13 1.844405 1_555
Fe3 O15 1.857737 1_455
Fe3 O1 1.863582 1_565
Fe3 O12 1.867980 1_555
O0 P3 1.535096 1_545
O1 P0 1.529282 1_545
O2 P1 1.530648 1_555
O3 P1 1.528469 1_455
O4 P0 1.531131 1_545
O5 P1 1.528818 1_555
O6 P1 1.535096 1_555
O7 P2 1.523375 1_555
O8 P2 1.534136 1_555
O9 P2 1.529282 1_555
O10 P3 1.530648 1_555
O11 P3 1.528469 1_655
O12 P2 1.531131 1_555
O13 P3 1.528818 1_555
O14 P0 1.523375 1_555
O15 P0 1.534136 1_555
