# generated using pymatgen
data_P4C2Se3N2
_symmetry_space_group_name_H-M   'P 1'
_cell_length_a   6.85375900
_cell_length_b   12.51167900
_cell_length_c   14.24437576
_cell_angle_alpha   72.46563389
_cell_angle_beta   90.00000000
_cell_angle_gamma   90.00000000
_symmetry_Int_Tables_number   1
_chemical_formula_structural   P4C2Se3N2
_chemical_formula_sum   'P16 C8 Se12 N8'
_cell_volume   1164.72964044
_cell_formula_units_Z   4
loop_
 _symmetry_equiv_pos_site_id
 _symmetry_equiv_pos_as_xyz
  1  'x, y, z'
loop_
 _atom_site_type_symbol
 _atom_site_label
 _atom_site_symmetry_multiplicity
 _atom_site_fract_x
 _atom_site_fract_y
 _atom_site_fract_z
 _atom_site_occupancy
  P  P0  1  0.49891900  0.13559500  0.10514400  1
  P  P1  1  0.29318200  0.24896700  0.14895900  1
  P  P2  1  0.46259000  0.11761800  0.39535400  1
  P  P3  1  0.70681800  0.75103300  0.85104100  1
  P  P4  1  0.22869200  0.50649300  0.33986200  1
  P  P5  1  0.96259000  0.38238200  0.60464600  1
  P  P6  1  0.27130800  0.00649300  0.33986200  1
  P  P7  1  0.53741000  0.88238200  0.60464600  1
  P  P8  1  0.20681800  0.74896700  0.14895900  1
  P  P9  1  0.03741000  0.61761800  0.39535400  1
  P  P10  1  0.77130800  0.49350700  0.66013800  1
  P  P11  1  0.50108100  0.86440500  0.89485600  1
  P  P12  1  0.99891900  0.36440500  0.89485600  1
  P  P13  1  0.72869200  0.99350700  0.66013800  1
  P  P14  1  0.79318200  0.25103300  0.85104100  1
  P  P15  1  0.00108100  0.63559500  0.10514400  1
  C  C0  1  0.77915500  0.33786800  0.53532100  1
  C  C1  1  0.16453800  0.59325400  0.02513100  1
  C  C2  1  0.72084500  0.83786800  0.53532100  1
  C  C3  1  0.33546200  0.09325400  0.02513100  1
  C  C4  1  0.27915500  0.16213200  0.46467900  1
  C  C5  1  0.22084500  0.66213200  0.46467900  1
  C  C6  1  0.66453800  0.90674600  0.97486900  1
  C  C7  1  0.83546200  0.40674600  0.97486900  1
  Se  Se0  1  0.49975600  0.27856600  0.26486700  1
  Se  Se1  1  0.50024400  0.72143400  0.73513300  1
  Se  Se2  1  0.50482600  0.97385600  0.23671500  1
  Se  Se3  1  0.56498100  0.37048900  0.76211400  1
  Se  Se4  1  0.99975600  0.22143400  0.73513300  1
  Se  Se5  1  0.99517400  0.47385600  0.23671500  1
  Se  Se6  1  0.06498100  0.12951100  0.23788600  1
  Se  Se7  1  0.93501900  0.87048900  0.76211400  1
  Se  Se8  1  0.49517400  0.02614400  0.76328500  1
  Se  Se9  1  0.00482600  0.52614400  0.76328500  1
  Se  Se10  1  0.43501900  0.62951100  0.23788600  1
  Se  Se11  1  0.00024400  0.77856600  0.26486700  1
  N  N0  1  0.74256100  0.42980200  0.03519300  1
  N  N1  1  0.33152700  0.68656300  0.51748700  1
  N  N2  1  0.24256100  0.07019800  0.96480700  1
  N  N3  1  0.66847300  0.31343700  0.48251300  1
  N  N4  1  0.75743900  0.92980200  0.03519300  1
  N  N5  1  0.83152700  0.81343700  0.48251300  1
  N  N6  1  0.16847300  0.18656300  0.51748700  1
  N  N7  1  0.25743900  0.57019800  0.96480700  1
loop_
_geom_bond_atom_site_label_1
_geom_bond_atom_site_label_2
_geom_bond_distance
_geom_bond_site_symmetry_2
P0 P1 2.218858 1_555
P0 Se2 2.307356 1_545
P1 Se6 2.267995 1_555
P1 Se0 2.288232 1_555
P2 P6 2.222352 1_555
P2 Se0 2.306395 1_555
P3 Se7 2.267995 1_555
P3 Se1 2.288232 1_555
P4 P9 2.222352 1_555
P4 Se10 2.265297 1_555
P4 Se5 2.290965 1_455
P5 Se4 2.306395 1_555
P6 Se6 2.265297 1_555
P6 Se2 2.290965 1_545
P7 Se1 2.306395 1_555
P8 Se10 2.267995 1_555
P8 Se11 2.288232 1_555
P9 Se11 2.306395 1_555
P10 P5 2.222352 1_555
P10 Se3 2.265297 1_555
P10 Se9 2.290965 1_655
P11 P3 2.218858 1_555
P11 Se8 2.307356 1_565
P12 P14 2.218858 1_555
P12 Se9 2.307356 1_655
P13 P7 2.222352 1_555
P13 Se7 2.265297 1_555
P13 Se8 2.290965 1_565
P14 Se3 2.267995 1_555
P14 Se4 2.288232 1_555
P15 P8 2.218858 1_555
P15 Se5 2.307356 1_455
C0 N3 1.171865 1_555
C0 P5 1.788105 1_555
C1 N7 1.173177 1_554
C1 P15 1.788438 1_555
C2 N5 1.171865 1_555
C2 P7 1.788105 1_555
C3 N2 1.173177 1_554
C3 P0 1.788438 1_555
C4 N6 1.171865 1_555
C4 P2 1.788105 1_555
C5 N1 1.171865 1_555
C5 P9 1.788105 1_555
C6 N4 1.173177 1_556
C6 P11 1.788438 1_555
C7 N0 1.173177 1_556
C7 P12 1.788438 1_555
