# generated using pymatgen
data_U2SbN2
_symmetry_space_group_name_H-M   'P 1'
_cell_length_a   6.78256466
_cell_length_b   6.78256466
_cell_length_c   6.78256466
_cell_angle_alpha   146.81873886
_cell_angle_beta   146.81873886
_cell_angle_gamma   47.63224408
_symmetry_Int_Tables_number   1
_chemical_formula_structural   U2SbN2
_chemical_formula_sum   'U2 Sb1 N2'
_cell_volume   93.08900036
_cell_formula_units_Z   1
loop_
 _symmetry_equiv_pos_site_id
 _symmetry_equiv_pos_as_xyz
  1  'x, y, z'
loop_
 _atom_site_type_symbol
 _atom_site_label
 _atom_site_symmetry_multiplicity
 _atom_site_fract_x
 _atom_site_fract_y
 _atom_site_fract_z
 _atom_site_occupancy
  U  U0  1  0.34306432  0.34306432  -0.00000000  1
  U  U1  1  0.65693568  0.65693568  0.00000000  1
  Sb  Sb0  1  -0.00000000  -0.00000000  -0.00000000  1
  N  N0  1  0.75000000  0.25000000  0.50000000  1
  N  N1  1  0.25000000  0.75000000  0.50000000  1
loop_
_geom_bond_atom_site_label_1
_geom_bond_atom_site_label_2
_geom_bond_distance
_geom_bond_site_symmetry_2
Sb0 U0 3.360679 1_545
Sb0 U0 3.360679 1_455
Sb0 U0 3.360679 1_556
Sb0 U0 3.360679 1_444
Sb0 U1 3.360679 1_545
Sb0 U1 3.360679 1_455
Sb0 U1 3.360679 1_444
Sb0 U1 3.360679 1_556
N0 U1 2.254866 1_556
N0 U1 2.254866 1_545
N0 U0 2.254866 1_555
N0 U0 2.254866 1_656
N1 U0 2.254866 1_555
N1 U1 2.254866 1_455
N1 U1 2.254866 1_556
N1 U0 2.254866 1_566
