# generated using pymatgen
data_TlBi(PSe3)2
_symmetry_space_group_name_H-M   'P 1'
_cell_length_a   7.63106253
_cell_length_b   12.54678953
_cell_length_c   23.20138840
_cell_angle_alpha   97.47985430
_cell_angle_beta   90.00000000
_cell_angle_gamma   90.00000000
_symmetry_Int_Tables_number   1
_chemical_formula_structural   TlBi(PSe3)2
_chemical_formula_sum   'Tl8 Bi8 P16 Se48'
_cell_volume   2202.52193332
_cell_formula_units_Z   8
loop_
 _symmetry_equiv_pos_site_id
 _symmetry_equiv_pos_as_xyz
  1  'x, y, z'
loop_
 _atom_site_type_symbol
 _atom_site_label
 _atom_site_symmetry_multiplicity
 _atom_site_fract_x
 _atom_site_fract_y
 _atom_site_fract_z
 _atom_site_occupancy
  Tl  Tl0  1  0.58143226  0.65741866  0.57685093  1
  Tl  Tl1  1  0.41856774  0.34258134  0.42314907  1
  Tl  Tl2  1  0.91856774  0.65741866  0.07685093  1
  Tl  Tl3  1  0.08143226  0.34258134  0.92314907  1
  Tl  Tl4  1  0.09453551  0.58280616  0.67457162  1
  Tl  Tl5  1  0.59453551  0.41719384  0.82542838  1
  Tl  Tl6  1  0.90546449  0.41719384  0.32542838  1
  Tl  Tl7  1  0.40546449  0.58280616  0.17457162  1
  Bi  Bi0  1  0.15131953  0.79628653  0.41937322  1
  Bi  Bi1  1  0.84903645  0.94142273  0.82826852  1
  Bi  Bi2  1  0.65096355  0.94142273  0.32826852  1
  Bi  Bi3  1  0.65131953  0.20371347  0.08062678  1
  Bi  Bi4  1  0.34868047  0.79628653  0.91937322  1
  Bi  Bi5  1  0.34903645  0.05857727  0.67173148  1
  Bi  Bi6  1  0.15096355  0.05857727  0.17173148  1
  Bi  Bi7  1  0.84868047  0.20371347  0.58062678  1
  P  P0  1  0.09543012  0.60018671  0.84737405  1
  P  P1  1  0.90456988  0.39981329  0.15262595  1
  P  P2  1  0.12232169  0.33422482  0.09321845  1
  P  P3  1  0.87417208  0.92051371  0.65562341  1
  P  P4  1  0.90555437  0.13924305  0.40392683  1
  P  P5  1  0.40555437  0.86075695  0.09607317  1
  P  P6  1  0.59543012  0.39981329  0.65262595  1
  P  P7  1  0.87767831  0.66577518  0.90678155  1
  P  P8  1  0.62582792  0.92051371  0.15562341  1
  P  P9  1  0.37417208  0.07948629  0.84437659  1
  P  P10  1  0.12582792  0.07948629  0.34437659  1
  P  P11  1  0.62232169  0.66577518  0.40678155  1
  P  P12  1  0.59444563  0.13924305  0.90392683  1
  P  P13  1  0.40456988  0.60018671  0.34737405  1
  P  P14  1  0.09444563  0.86075695  0.59607317  1
  P  P15  1  0.37767831  0.33422482  0.59321845  1
  Se  Se0  1  0.49276161  0.26848751  0.96582755  1
  Se  Se1  1  0.00604317  0.46413179  0.79026619  1
  Se  Se2  1  0.31160088  0.27280481  0.15317604  1
  Se  Se3  1  0.50242362  0.04944153  0.21802730  1
  Se  Se4  1  0.99757638  0.04944153  0.71802730  1
  Se  Se5  1  0.49754767  0.20272898  0.53255050  1
  Se  Se6  1  0.99276161  0.73151249  0.53417245  1
  Se  Se7  1  0.68984436  0.99579370  0.94052158  1
  Se  Se8  1  0.71807726  0.78989318  0.19996004  1
  Se  Se9  1  0.31794377  0.01644244  0.40207375  1
  Se  Se10  1  0.50604317  0.53586821  0.70973381  1
  Se  Se11  1  0.28192274  0.21010682  0.80003996  1
  Se  Se12  1  0.79921005  0.17971450  0.84462251  1
  Se  Se13  1  0.81214371  0.25812305  0.19220941  1
  Se  Se14  1  0.72979918  0.53686571  0.44876117  1
  Se  Se15  1  0.81794477  0.98355756  0.09792625  1
  Se  Se16  1  0.78192274  0.78989318  0.69996004  1
  Se  Se17  1  0.81015564  0.99579370  0.44052158  1
  Se  Se18  1  0.21807726  0.21010682  0.30003996  1
  Se  Se19  1  0.18984436  0.00420630  0.55947842  1
  Se  Se20  1  0.68205523  0.98355756  0.59792625  1
  Se  Se21  1  0.30406750  0.56761444  0.90852000  1
  Se  Se22  1  0.19593250  0.56761444  0.40852000  1
  Se  Se23  1  0.69593250  0.43238556  0.09148000  1
  Se  Se24  1  0.31214371  0.74187695  0.30779059  1
  Se  Se25  1  0.20078995  0.82028550  0.15537749  1
  Se  Se26  1  0.18785629  0.74187695  0.80779059  1
  Se  Se27  1  0.50723839  0.73151249  0.03417245  1
  Se  Se28  1  0.29921005  0.82028550  0.65537749  1
  Se  Se29  1  0.68785629  0.25812305  0.69220941  1
  Se  Se30  1  0.80406750  0.43238556  0.59148000  1
  Se  Se31  1  0.77020082  0.53686571  0.94876117  1
  Se  Se32  1  0.31015564  0.00420630  0.05947842  1
  Se  Se33  1  0.49757638  0.95055847  0.78197270  1
  Se  Se34  1  0.00242362  0.95055847  0.28197270  1
  Se  Se35  1  0.49395683  0.46413179  0.29026619  1
  Se  Se36  1  0.00245233  0.20272898  0.03255050  1
  Se  Se37  1  0.70078995  0.17971450  0.34462251  1
  Se  Se38  1  0.99395683  0.53586821  0.20973381  1
  Se  Se39  1  0.50245233  0.79727102  0.46744950  1
  Se  Se40  1  0.99754767  0.79727102  0.96744950  1
  Se  Se41  1  0.18839912  0.27280481  0.65317604  1
  Se  Se42  1  0.81160088  0.72719519  0.34682396  1
  Se  Se43  1  0.27020082  0.46313429  0.55123883  1
  Se  Se44  1  0.00723839  0.26848751  0.46582755  1
  Se  Se45  1  0.68839912  0.72719519  0.84682396  1
  Se  Se46  1  0.18205523  0.01644244  0.90207375  1
  Se  Se47  1  0.22979918  0.46313429  0.05123883  1
loop_
_geom_bond_atom_site_label_1
_geom_bond_atom_site_label_2
_geom_bond_distance
_geom_bond_site_symmetry_2
Bi0 Se24 2.866064 1_555
Bi0 Se22 2.867569 1_555
Bi0 Se39 2.901822 1_555
Bi0 Se9 3.113927 1_565
Bi0 Se6 3.127671 1_455
Bi0 Se42 3.150475 1_455
Bi1 Se7 2.874298 1_555
Bi1 Se33 2.896919 1_555
Bi1 Se12 2.988657 1_565
Bi1 Se45 3.035443 1_555
Bi1 Se46 3.139542 1_665
Bi1 Se4 3.250580 1_565
Bi1 Se16 3.356409 1_555
Bi2 Se17 2.874298 1_555
Bi2 Se34 2.896919 1_655
Bi2 Se37 2.988657 1_565
Bi2 Se42 3.035443 1_555
Bi2 Se9 3.139548 1_565
Bi2 Se3 3.250580 1_565
Bi2 Se8 3.356409 1_555
Bi3 Se13 2.866064 1_555
Bi3 Se23 2.867569 1_555
Bi3 Se36 2.901822 1_655
Bi3 Se15 3.113930 1_545
Bi3 Se0 3.127671 1_554
Bi3 Se2 3.150475 1_555
Bi4 Se26 2.866064 1_555
Bi4 Se21 2.867569 1_555
Bi4 Se40 2.901822 1_455
Bi4 Se46 3.113930 1_565
Bi4 Se27 3.127671 1_556
Bi4 Se45 3.150475 1_555
Bi5 Se19 2.874298 1_555
Bi5 Se4 2.896919 1_455
Bi5 Se28 2.988657 1_545
Bi5 Se41 3.035443 1_555
Bi5 Se20 3.139542 1_545
Bi5 Se33 3.250580 1_545
Bi5 Se11 3.356409 1_555
Bi6 Se32 2.874298 1_555
Bi6 Se3 2.896919 1_555
Bi6 Se25 2.988657 1_545
Bi6 Se2 3.035443 1_555
Bi6 Se15 3.139542 1_445
Bi6 Se34 3.250580 1_545
Bi6 Se18 3.356409 1_555
Bi7 Se29 2.866064 1_555
Bi7 Se30 2.867569 1_555
Bi7 Se5 2.901822 1_555
Bi7 Se20 3.113930 1_545
Bi7 Se44 3.127671 1_655
Bi7 Se41 3.150475 1_655
P0 Se1 2.132138 1_555
P0 Se21 2.205778 1_555
P0 Se26 2.219550 1_555
P0 P7 2.245635 1_455
P1 Se38 2.132138 1_555
P1 Se23 2.205778 1_555
P1 Se13 2.219550 1_555
P1 P2 2.245635 1_655
P2 Se47 2.155794 1_555
P2 Se2 2.212333 1_555
P2 Se36 2.221576 1_555
P3 Se16 2.162992 1_555
P3 Se20 2.200608 1_555
P3 Se4 2.233842 1_565
P4 Se44 2.165174 1_655
P4 Se37 2.185085 1_555
P4 Se17 2.210905 1_545
P5 Se27 2.165174 1_555
P5 Se25 2.185085 1_555
P5 Se32 2.210905 1_565
P5 P8 2.242070 1_555
P6 Se10 2.132138 1_555
P6 Se30 2.205778 1_555
P6 Se29 2.219550 1_555
P7 Se31 2.155794 1_555
P7 Se45 2.212333 1_555
P7 Se40 2.221576 1_555
P8 Se8 2.162992 1_555
P8 Se15 2.200608 1_555
P8 Se3 2.233842 1_565
P9 Se11 2.162992 1_555
P9 Se46 2.200608 1_555
P9 Se33 2.233842 1_545
P10 Se18 2.162992 1_555
P10 Se9 2.200603 1_555
P10 Se34 2.233842 1_545
P10 P4 2.242070 1_455
P11 Se14 2.155794 1_555
P11 Se42 2.212333 1_555
P11 Se39 2.221576 1_555
P11 P13 2.245635 1_555
P12 Se0 2.165174 1_555
P12 Se12 2.185085 1_555
P12 Se7 2.210905 1_545
P12 P9 2.242070 1_555
P13 Se35 2.132138 1_555
P13 Se22 2.205778 1_555
P13 Se24 2.219550 1_555
P14 Se6 2.165174 1_455
P14 Se28 2.185085 1_555
P14 Se19 2.210905 1_565
P14 P3 2.242070 1_455
P15 Se43 2.155794 1_555
P15 Se41 2.212333 1_555
P15 Se5 2.221576 1_555
P15 P6 2.245635 1_555
Se0 Tl3 3.454990 1_555
Se1 Tl4 3.304393 1_555
Se1 Tl5 3.316410 1_455
Se5 Tl1 3.323341 1_555
Se6 Tl0 3.454990 1_555
Se8 Tl2 3.467831 1_555
Se10 Tl5 3.304393 1_555
Se10 Tl4 3.316410 1_555
Se11 Tl3 3.467831 1_555
Se12 Tl3 3.341264 1_655
Se14 Tl6 3.334814 1_555
Se14 Tl0 3.351316 1_555
Se14 Tl1 3.399831 1_555
Se16 Tl0 3.467831 1_555
Se18 Tl1 3.467831 1_555
Se21 Tl3 3.350066 1_555
Se21 Tl5 3.353267 1_555
Se22 Tl1 3.350066 1_555
Se22 Tl6 3.353267 1_455
Se23 Tl2 3.350066 1_555
Se23 Tl7 3.353267 1_555
Se25 Tl2 3.341264 1_455
Se27 Tl2 3.454990 1_555
Se28 Tl0 3.341264 1_555
Se30 Tl0 3.350066 1_555
Se30 Tl4 3.353267 1_655
Se31 Tl5 3.334814 1_555
Se31 Tl2 3.351316 1_556
Se31 Tl3 3.399831 1_655
Se35 Tl7 3.304393 1_555
Se35 Tl6 3.316410 1_555
Se36 Tl3 3.323341 1_554
Se37 Tl1 3.341264 1_555
Se38 Tl6 3.304393 1_555
Se38 Tl7 3.316410 1_655
Se39 Tl0 3.323341 1_555
Se40 Tl2 3.323341 1_556
Se43 Tl4 3.334814 1_555
Se43 Tl1 3.351316 1_555
Se43 Tl0 3.399831 1_555
Se44 Tl1 3.454990 1_555
Se47 Tl7 3.334814 1_555
Se47 Tl3 3.351316 1_554
Se47 Tl2 3.399831 1_455
