# generated using pymatgen
data_Rb2LiTaS4
_symmetry_space_group_name_H-M   'P 1'
_cell_length_a   7.20433800
_cell_length_b   11.56634345
_cell_length_c   12.06142651
_cell_angle_alpha   71.52676123
_cell_angle_beta   87.61049372
_cell_angle_gamma   83.52163877
_symmetry_Int_Tables_number   1
_chemical_formula_structural   Rb2LiTaS4
_chemical_formula_sum   'Rb8 Li4 Ta4 S16'
_cell_volume   947.15825094
_cell_formula_units_Z   4
loop_
 _symmetry_equiv_pos_site_id
 _symmetry_equiv_pos_as_xyz
  1  'x, y, z'
loop_
 _atom_site_type_symbol
 _atom_site_label
 _atom_site_symmetry_multiplicity
 _atom_site_fract_x
 _atom_site_fract_y
 _atom_site_fract_z
 _atom_site_occupancy
  Rb  Rb0  1  0.68347500  0.09694100  0.24947200  1
  Rb  Rb1  1  0.73531200  0.62352000  0.72324900  1
  Rb  Rb2  1  0.24889800  0.84516000  0.14252900  1
  Rb  Rb3  1  0.75117200  0.65050700  0.34946400  1
  Rb  Rb4  1  0.31652500  0.90305900  0.75052800  1
  Rb  Rb5  1  0.24882800  0.34949300  0.65053600  1
  Rb  Rb6  1  0.26468800  0.37648000  0.27675100  1
  Rb  Rb7  1  0.75110200  0.15484000  0.85747100  1
  Li  Li0  1  0.78062000  0.47843700  0.07155600  1
  Li  Li1  1  0.82421300  0.98880600  0.58525300  1
  Li  Li2  1  0.17578700  0.01119400  0.41474700  1
  Li  Li3  1  0.21938000  0.52156300  0.92844400  1
  Ta  Ta0  1  0.21617700  0.23076500  0.01454100  1
  Ta  Ta1  1  0.77664500  0.27251200  0.48538600  1
  Ta  Ta2  1  0.22335500  0.72748800  0.51461400  1
  Ta  Ta3  1  0.78382300  0.76923500  0.98545900  1
  S  S0  1  0.53514800  0.66047500  0.99427600  1
  S  S1  1  0.96705000  0.37307000  0.94082700  1
  S  S2  1  0.23728100  0.62124600  0.70988300  1
  S  S3  1  0.05267800  0.14692700  0.53173000  1
  S  S4  1  0.26672400  0.10577200  0.90111500  1
  S  S5  1  0.16963200  0.11779200  0.20494100  1
  S  S6  1  0.46485200  0.33952500  0.00572400  1
  S  S7  1  0.83036800  0.88220800  0.79505900  1
  S  S8  1  0.25202100  0.60020300  0.40318800  1
  S  S9  1  0.03295000  0.62693000  0.05917300  1
  S  S10  1  0.76271900  0.37875400  0.29011700  1
  S  S11  1  0.73327600  0.89422800  0.09888500  1
  S  S12  1  0.54746800  0.14445500  0.53111800  1
  S  S13  1  0.45253200  0.85554500  0.46888200  1
  S  S14  1  0.74797900  0.39979700  0.59681200  1
  S  S15  1  0.94732200  0.85307300  0.46827000  1
loop_
_geom_bond_atom_site_label_1
_geom_bond_atom_site_label_2
_geom_bond_distance
_geom_bond_site_symmetry_2
Rb0 S11 3.373369 1_545
Rb0 S5 3.544769 1_655
Rb0 S10 3.556236 1_555
Rb0 S15 3.608996 1_545
Rb0 S6 3.627388 1_555
Rb0 S13 3.683185 1_545
Rb0 S12 3.685933 1_555
Rb0 S5 3.732686 1_555
Rb1 S14 3.386128 1_555
Rb1 S7 3.510813 1_555
Rb1 S1 3.538652 1_555
Rb1 S2 3.601739 1_555
Rb1 S2 3.610721 1_655
Rb1 S0 3.647149 1_555
Rb1 S15 3.766874 1_555
Rb1 S13 3.851613 1_555
Rb2 S5 3.449428 1_565
Rb2 S4 3.474930 1_564
Rb2 S8 3.501240 1_555
Rb2 S9 3.525222 1_555
Rb2 S11 3.589022 1_555
Rb2 S0 3.623870 1_554
Rb2 S11 3.727775 1_455
Rb3 S11 3.413056 1_555
Rb3 S10 3.429402 1_555
Rb3 S14 3.440455 1_555
Rb3 S15 3.547304 1_555
Rb3 S13 3.617001 1_555
Rb3 S8 3.641488 1_655
Rb3 S8 3.705256 1_555
Rb4 S4 3.373369 1_565
Rb4 S7 3.544769 1_455
Rb4 S2 3.556236 1_555
Rb4 S3 3.608996 1_565
Rb4 S0 3.627388 1_555
Rb4 S12 3.683185 1_565
Rb4 S13 3.685933 1_555
Rb4 S7 3.732686 1_555
Rb5 S4 3.413056 1_555
Rb5 S2 3.429402 1_555
Rb5 S8 3.440455 1_555
Rb5 S3 3.547304 1_555
Rb5 S12 3.617001 1_555
Rb5 S14 3.641488 1_455
Rb5 S14 3.705256 1_555
Rb6 S8 3.386128 1_555
Rb6 S5 3.510813 1_555
Rb6 S9 3.538652 1_555
Rb6 S10 3.601739 1_555
Rb6 S10 3.610721 1_455
Rb6 S6 3.647149 1_555
Rb6 S3 3.766874 1_555
Rb6 S12 3.851613 1_555
Rb7 S7 3.449428 1_545
Rb7 S11 3.474930 1_546
Rb7 S14 3.501240 1_555
Rb7 S1 3.525222 1_555
Rb7 S4 3.589022 1_555
Rb7 S6 3.623870 1_556
Rb7 S4 3.727775 1_655
Li0 S10 2.524749 1_555
Li0 S1 2.539142 1_554
Li0 S0 2.546168 1_554
Li0 S9 2.606949 1_655
Li1 S7 2.438367 1_555
Li1 S12 2.489204 1_565
Li1 S15 2.495481 1_555
Li1 S3 2.512596 1_665
Li2 S5 2.438367 1_555
Li2 S13 2.489204 1_545
Li2 S3 2.495481 1_555
Li2 S15 2.512596 1_445
Li3 S2 2.524749 1_555
Li3 S9 2.539142 1_556
Li3 S6 2.546168 1_556
Li3 S1 2.606949 1_455
S0 Ta3 2.282819 1_555
S1 Ta0 2.293464 1_656
S2 Ta2 2.285814 1_555
S3 Ta1 2.302903 1_455
S4 Ta0 2.277587 1_556
S5 Ta0 2.286208 1_555
S6 Ta0 2.282819 1_555
S7 Ta3 2.286208 1_555
S8 Ta2 2.275619 1_555
S9 Ta3 2.293464 1_454
S10 Ta1 2.285814 1_555
S11 Ta3 2.277587 1_554
S12 Ta1 2.276454 1_555
S13 Ta2 2.276454 1_555
S14 Ta1 2.275619 1_555
S15 Ta2 2.302903 1_655
