# generated using pymatgen
data_PrPH5CO7
_symmetry_space_group_name_H-M   'P 1'
_cell_length_a   6.76178900
_cell_length_b   7.14648375
_cell_length_c   7.84359801
_cell_angle_alpha   110.54253585
_cell_angle_beta   95.79501476
_cell_angle_gamma   89.49575902
_symmetry_Int_Tables_number   1
_chemical_formula_structural   PrPH5CO7
_chemical_formula_sum   'Pr2 P2 H10 C2 O14'
_cell_volume   352.96662762
_cell_formula_units_Z   2
loop_
 _symmetry_equiv_pos_site_id
 _symmetry_equiv_pos_as_xyz
  1  'x, y, z'
loop_
 _atom_site_type_symbol
 _atom_site_label
 _atom_site_symmetry_multiplicity
 _atom_site_fract_x
 _atom_site_fract_y
 _atom_site_fract_z
 _atom_site_occupancy
  Pr  Pr0  1  0.13215100  0.22329000  0.93512500  1
  Pr  Pr1  1  0.86784900  0.77671000  0.06487500  1
  P  P0  1  0.67586100  0.25356500  0.01848200  1
  P  P1  1  0.32413900  0.74643500  0.98151800  1
  H  H0  1  0.55090500  0.15935300  0.43554000  1
  H  H1  1  0.44909500  0.84064700  0.56446000  1
  H  H2  1  0.71378700  0.66678800  0.63653500  1
  H  H3  1  0.28621300  0.33321200  0.36346500  1
  H  H4  1  0.83193300  0.48150000  0.67042400  1
  H  H5  1  0.62845700  0.29075000  0.19788800  1
  H  H6  1  0.16806700  0.51850000  0.32957600  1
  H  H7  1  0.46609700  0.25649600  0.62355700  1
  H  H8  1  0.37154300  0.70925000  0.80211200  1
  H  H9  1  0.53390300  0.74350400  0.37644300  1
  C  C0  1  0.06543200  0.91064200  0.50109700  1
  C  C1  1  0.93456800  0.08935800  0.49890300  1
  O  O0  1  0.81891700  0.42477500  0.02540700  1
  O  O1  1  0.82627000  0.07077200  0.35254300  1
  O  O2  1  0.17373000  0.92922800  0.64745700  1
  O  O3  1  0.43235800  0.22214800  0.49151800  1
  O  O4  1  0.79311600  0.62164000  0.72846900  1
  O  O5  1  0.20688400  0.37836000  0.27153100  1
  O  O6  1  0.19799800  0.93748200  0.03672900  1
  O  O7  1  0.48104300  0.23462200  0.89621600  1
  O  O8  1  0.80200200  0.06251800  0.96327100  1
  O  O9  1  0.94540800  0.24096100  0.64559500  1
  O  O10  1  0.51895700  0.76537800  0.10378400  1
  O  O11  1  0.18108300  0.57522500  0.97459300  1
  O  O12  1  0.56764200  0.77785200  0.50848200  1
  O  O13  1  0.05459200  0.75903900  0.35440500  1
loop_
_geom_bond_atom_site_label_1
_geom_bond_atom_site_label_2
_geom_bond_distance
_geom_bond_site_symmetry_2
H0 O3 0.981415 1_555
H1 O12 0.981415 1_555
H2 O4 0.996963 1_555
H3 O5 0.996963 1_555
H4 O4 0.989290 1_555
H5 P0 1.407369 1_555
H6 O5 0.989290 1_555
H7 O3 0.979670 1_555
H8 P1 1.407369 1_555
H9 O12 0.979670 1_555
C0 O2 1.263608 1_555
C0 O13 1.269866 1_555
C1 O1 1.263608 1_555
C1 O9 1.269866 1_555
O0 P0 1.548968 1_555
O0 Pr1 2.445110 1_555
O0 Pr0 2.567959 1_654
O1 Pr1 2.525160 1_545
O2 Pr0 2.525160 1_565
O4 Pr1 2.476747 1_556
O5 Pr0 2.476747 1_554
O6 P1 1.555079 1_554
O6 Pr0 2.461701 1_564
O6 Pr1 2.583625 1_455
O7 P0 1.526518 1_556
O7 Pr0 2.414811 1_555
O8 P0 1.555079 1_556
O8 Pr1 2.461701 1_546
O8 Pr0 2.583625 1_655
O9 Pr0 2.527258 1_655
O10 P1 1.526518 1_554
O10 Pr1 2.414811 1_555
O11 P1 1.548968 1_555
O11 Pr0 2.445110 1_555
O11 Pr1 2.567959 1_456
O13 Pr1 2.527258 1_455
