# generated using pymatgen
data_YAl3(Si5N8)3
_symmetry_space_group_name_H-M   'P 1'
_cell_length_a   7.87656400
_cell_length_b   7.90463443
_cell_length_c   17.19440140
_cell_angle_alpha   90.19792307
_cell_angle_beta   90.10904744
_cell_angle_gamma   119.82682080
_symmetry_Int_Tables_number   1
_chemical_formula_structural   YAl3(Si5N8)3
_chemical_formula_sum   'Y2 Al6 Si30 N48'
_cell_volume   928.72074152
_cell_formula_units_Z   2
loop_
 _symmetry_equiv_pos_site_id
 _symmetry_equiv_pos_as_xyz
  1  'x, y, z'
loop_
 _atom_site_type_symbol
 _atom_site_label
 _atom_site_symmetry_multiplicity
 _atom_site_fract_x
 _atom_site_fract_y
 _atom_site_fract_z
 _atom_site_occupancy
  Y  Y0  1  0.33216800  0.66921500  0.42238900  1
  Y  Y1  1  0.33360900  0.67186700  0.08461100  1
  Al  Al0  1  0.51122100  0.09538400  0.43415400  1
  Al  Al1  1  0.51322500  0.09785700  0.09817400  1
  Al  Al2  1  0.07073600  0.50204500  0.26327600  1
  Al  Al3  1  0.16531200  0.25102800  0.83083900  1
  Al  Al4  1  0.16578100  0.24450900  0.50133400  1
  Al  Al5  1  0.17003700  0.24844200  0.16463100  1
  Si  Si0  1  0.91335900  0.75047600  0.66855800  1
  Si  Si1  1  0.92134300  0.75418500  0.33408900  1
  Si  Si2  1  0.92377000  0.75864000  0.99871500  1
  Si  Si3  1  0.91542100  0.43084400  0.76268600  1
  Si  Si4  1  0.90875200  0.42640300  0.43312600  1
  Si  Si5  1  0.91331700  0.43078100  0.09494200  1
  Si  Si6  1  0.56709000  0.48535100  0.76159500  1
  Si  Si7  1  0.57587200  0.48597200  0.43118400  1
  Si  Si8  1  0.58013800  0.48968000  0.09506500  1
  Si  Si9  1  0.83466400  0.08637200  0.66781800  1
  Si  Si10  1  0.82983100  0.08049500  0.33743000  1
  Si  Si11  1  0.83139900  0.08383500  0.99910300  1
  Si  Si12  1  0.74607100  0.90999200  0.83206400  1
  Si  Si13  1  0.74523000  0.91076500  0.50243400  1
  Si  Si14  1  0.75145300  0.91945100  0.16739200  1
  Si  Si15  1  0.51263300  0.08329000  0.76242600  1
  Si  Si16  1  0.25824300  0.16878800  0.66675700  1
  Si  Si17  1  0.25738700  0.17184200  0.33198600  1
  Si  Si18  1  0.26081600  0.17255800  0.99624800  1
  Si  Si19  1  0.43061400  0.92282300  0.92613000  1
  Si  Si20  1  0.42871800  0.91189900  0.60007800  1
  Si  Si21  1  0.43346900  0.92160600  0.26419100  1
  Si  Si22  1  0.49173600  0.56585000  0.92713200  1
  Si  Si23  1  0.48233300  0.56105900  0.60065000  1
  Si  Si24  1  0.49083000  0.56635100  0.26498200  1
  Si  Si25  1  0.08247700  0.83068000  0.83200600  1
  Si  Si26  1  0.07613200  0.82508000  0.17037000  1
  Si  Si27  1  0.07641200  0.82447200  0.50477500  1
  Si  Si28  1  0.07225300  0.50872300  0.92560600  1
  Si  Si29  1  0.07945500  0.51271300  0.59939800  1
  N  N0  1  0.99329400  0.67950900  0.75062700  1
  N  N1  1  0.01218500  0.68236800  0.41678900  1
  N  N2  1  0.01327200  0.68650300  0.08123700  1
  N  N3  1  0.95240300  0.34286800  0.67221000  1
  N  N4  1  0.94828900  0.33412200  0.34711800  1
  N  N5  1  0.95096900  0.34573800  0.00435400  1
  N  N6  1  0.65789500  0.61750300  0.67342300  1
  N  N7  1  0.66172100  0.61812300  0.34254600  1
  N  N8  1  0.66277800  0.62273600  0.00706300  1
  N  N9  1  0.00628400  0.00869400  0.99994400  1
  N  N10  1  0.99024700  0.98555600  0.83322500  1
  N  N11  1  0.00298500  0.00268600  0.66633100  1
  N  N12  1  0.98744300  0.98112300  0.50016000  1
  N  N13  1  0.00404600  0.00482700  0.33498400  1
  N  N14  1  0.66550900  0.33317800  0.77908200  1
  N  N15  1  0.99247300  0.98630200  0.16595600  1
  N  N16  1  0.67455300  0.34848000  0.45765700  1
  N  N17  1  0.67930800  0.35163000  0.12114800  1
  N  N18  1  0.68710100  0.00630100  0.75150800  1
  N  N19  1  0.67045900  0.98057800  0.41813300  1
  N  N20  1  0.68050200  0.99220900  0.08310000  1
  N  N21  1  0.67924100  0.99170200  0.91746400  1
  N  N22  1  0.68041100  0.99409000  0.58563600  1
  N  N23  1  0.68614700  0.00243400  0.25148000  1
  N  N24  1  0.32560800  0.31662900  0.74685900  1
  N  N25  1  0.32767300  0.33066700  0.41349100  1
  N  N26  1  0.33373500  0.33028400  0.07842100  1
  N  N27  1  0.38772500  0.03906400  0.67291800  1
  N  N28  1  0.38191200  0.03947600  0.33757000  1
  N  N29  1  0.38111900  0.03556800  0.00283000  1
  N  N30  1  0.34310900  0.95039300  0.83670500  1
  N  N31  1  0.33242000  0.92887600  0.50837900  1
  N  N32  1  0.33462500  0.92634300  0.17264400  1
  N  N33  1  0.60409600  0.65302500  0.83777100  1
  N  N34  1  0.58848400  0.65198600  0.50486900  1
  N  N35  1  0.59105500  0.65754900  0.16999500  1
  N  N36  1  0.33214600  0.66577600  0.94938800  1
  N  N37  1  0.33136600  0.66250000  0.61616500  1
  N  N38  1  0.34497800  0.67308300  0.28865700  1
  N  N39  1  0.00632500  0.68928800  0.91811800  1
  N  N40  1  0.99582200  0.67984600  0.58736400  1
  N  N41  1  0.99020300  0.68419700  0.25188300  1
  N  N42  1  0.32590300  0.32339500  0.91868600  1
  N  N43  1  0.32551300  0.31637000  0.58673700  1
  N  N44  1  0.32517400  0.32291300  0.25302400  1
  N  N45  1  0.03935800  0.39704500  0.83806800  1
  N  N46  1  0.05851000  0.41281700  0.50495000  1
  N  N47  1  0.06698600  0.41565900  0.16218700  1
loop_
_geom_bond_atom_site_label_1
_geom_bond_atom_site_label_2
_geom_bond_distance
_geom_bond_site_symmetry_2
Al0 N16 1.803615 1_555
Al0 N31 1.875929 1_545
Al0 N28 1.879187 1_555
Al0 N19 1.898534 1_545
Al1 N17 1.809270 1_555
Al1 N29 1.868426 1_555
Al1 N32 1.891628 1_545
Al1 N20 1.896028 1_545
Al2 N41 1.850382 1_455
Al2 N47 1.860084 1_555
Al2 N4 1.874932 1_455
Al2 N38 1.942041 1_555
Al3 N24 1.819047 1_555
Al3 N10 1.851754 1_445
Al3 N45 1.862911 1_555
Al3 N42 1.864330 1_555
Al4 N43 1.827079 1_555
Al4 N12 1.843520 1_445
Al4 N25 1.876625 1_555
Al4 N46 1.898844 1_555
Al5 N15 1.835169 1_445
Al5 N44 1.849559 1_555
Al5 N26 1.860765 1_555
Al5 N47 1.864200 1_555
N0 Si25 1.740401 1_655
N0 Si0 1.748087 1_555
N0 Si3 1.756928 1_555
N1 Si4 1.789266 1_455
N1 Si27 1.796251 1_555
N1 Si1 1.806109 1_455
N1 Y0 2.575295 1_555
N2 Si5 1.783895 1_455
N2 Si2 1.799197 1_454
N2 Si26 1.799965 1_555
N2 Y1 2.583201 1_555
N3 Si29 1.746773 1_655
N3 Si9 1.762039 1_555
N3 Si3 1.784477 1_555
N4 Si4 1.742515 1_555
N4 Si10 1.747560 1_555
N5 Si5 1.777310 1_555
N5 Si28 1.788427 1_654
N5 Si11 1.799974 1_554
N6 Si23 1.747229 1_555
N6 Si0 1.748714 1_555
N6 Si6 1.781311 1_555
N7 Si1 1.781572 1_555
N7 Si7 1.784242 1_555
N7 Si24 1.788682 1_555
N8 Si8 1.775729 1_555
N8 Si2 1.790532 1_554
N8 Si22 1.814428 1_554
N9 Si2 1.746853 1_445
N9 Si11 1.750532 1_455
N9 Si18 1.766069 1_555
N10 Si25 1.706315 1_655
N10 Si12 1.706793 1_555
N11 Si9 1.751686 1_455
N11 Si0 1.753565 1_445
N11 Si16 1.772059 1_555
N12 Si27 1.701278 1_655
N12 Si13 1.701623 1_555
N13 Si10 1.749002 1_455
N13 Si1 1.750935 1_445
N13 Si17 1.762864 1_555
N14 Si3 1.744185 1_555
N14 Si15 1.749975 1_555
N14 Si6 1.751412 1_555
N15 Si14 1.698868 1_555
N15 Si26 1.702911 1_655
N16 Si4 1.683639 1_555
N16 Si7 1.683723 1_555
N17 Si5 1.688126 1_555
N17 Si8 1.688799 1_555
N18 Si12 1.752263 1_545
N18 Si9 1.761562 1_555
N18 Si15 1.768095 1_555
N19 Si13 1.754430 1_555
N19 Si10 1.775690 1_565
N19 Y0 2.577039 1_555
N20 Si14 1.751028 1_555
N20 Si11 1.783423 1_564
N20 Y1 2.645083 1_555
N21 Si11 1.747997 1_565
N21 Si19 1.759178 1_555
N21 Si12 1.784674 1_555
N22 Si13 1.752687 1_555
N22 Si9 1.763454 1_565
N22 Si20 1.770795 1_555
N23 Si14 1.765573 1_545
N23 Si10 1.771524 1_555
N23 Si21 1.776149 1_545
N24 Si16 1.706890 1_555
N24 Si6 1.712628 1_555
N25 Si7 1.740473 1_555
N25 Si17 1.772048 1_555
N25 Y0 2.662529 1_555
N26 Si8 1.731765 1_555
N26 Si18 1.775682 1_554
N26 Y1 2.702312 1_555
N27 Si20 1.731755 1_545
N27 Si15 1.762719 1_555
N27 Si16 1.772995 1_555
N28 Si21 1.730644 1_545
N28 Si17 1.757044 1_555
N29 Si19 1.739239 1_544
N29 Si18 1.761939 1_554
N30 Si19 1.741978 1_555
N30 Si15 1.771468 1_565
N30 Si25 1.784019 1_555
N31 Si27 1.759204 1_555
N31 Si20 1.782555 1_555
N31 Y0 2.524665 1_555
N32 Si21 1.763537 1_555
N32 Si26 1.779317 1_555
N32 Y1 2.510074 1_555
N33 Si22 1.739190 1_555
N33 Si12 1.768696 1_555
N33 Si6 1.777492 1_555
N34 Si7 1.787600 1_555
N34 Si13 1.788538 1_555
N34 Si23 1.828540 1_555
N34 Y0 2.523823 1_555
N35 Si24 1.804799 1_555
N35 Si14 1.811929 1_555
N35 Si8 1.817237 1_555
N35 Y1 2.549167 1_555
N36 Si19 1.824580 1_555
N36 Si22 1.826988 1_555
N36 Si28 1.834169 1_555
N36 Y1 2.325299 1_556
N37 Si20 1.746930 1_555
N37 Si23 1.753943 1_555
N37 Si29 1.755132 1_555
N38 Si24 1.777872 1_555
N38 Si21 1.779530 1_555
N38 Y0 2.301488 1_555
N39 Si2 1.731075 1_455
N39 Si28 1.749780 1_555
N39 Si25 1.774591 1_555
N40 Si27 1.737596 1_655
N40 Si0 1.743970 1_555
N40 Si29 1.757616 1_655
N41 Si1 1.701228 1_555
N41 Si26 1.710925 1_655
N42 Si18 1.693677 1_555
N42 Si22 1.705111 1_555
N43 Si16 1.712814 1_555
N43 Si23 1.715544 1_555
N44 Si17 1.712941 1_555
N44 Si24 1.716466 1_555
N45 Si28 1.695213 1_555
N45 Si3 1.720860 1_455
N46 Si4 1.746275 1_455
N46 Si29 1.774425 1_555
N46 Y0 2.540632 1_555
N47 Si5 1.719231 1_455
N47 Y1 2.467704 1_555
