# generated using pymatgen
data_Pb3(BrO)2
_symmetry_space_group_name_H-M   'P 1'
_cell_length_a   5.92250655
_cell_length_b   9.97447514
_cell_length_c   12.36872974
_cell_angle_alpha   90.00000000
_cell_angle_beta   90.00000000
_cell_angle_gamma   90.00000000
_symmetry_Int_Tables_number   1
_chemical_formula_structural   Pb3(BrO)2
_chemical_formula_sum   'Pb12 Br8 O8'
_cell_volume   730.66903390
_cell_formula_units_Z   4
loop_
 _symmetry_equiv_pos_site_id
 _symmetry_equiv_pos_as_xyz
  1  'x, y, z'
loop_
 _atom_site_type_symbol
 _atom_site_label
 _atom_site_symmetry_multiplicity
 _atom_site_fract_x
 _atom_site_fract_y
 _atom_site_fract_z
 _atom_site_occupancy
  Pb  Pb0  1  0.25000000  0.07623430  0.07848683  1
  Pb  Pb1  1  0.75000000  0.92376570  0.92151317  1
  Pb  Pb2  1  0.75000000  0.57623430  0.42151317  1
  Pb  Pb3  1  0.25000000  0.42376570  0.57848683  1
  Pb  Pb4  1  0.25000000  0.36551904  0.29034776  1
  Pb  Pb5  1  0.75000000  0.63448096  0.70965224  1
  Pb  Pb6  1  0.75000000  0.86551904  0.20965224  1
  Pb  Pb7  1  0.25000000  0.13448096  0.79034776  1
  Pb  Pb8  1  0.25000000  0.78585390  0.55647823  1
  Pb  Pb9  1  0.75000000  0.21414610  0.44352177  1
  Pb  Pb10  1  0.75000000  0.28585390  0.94352177  1
  Pb  Pb11  1  0.25000000  0.71414610  0.05647823  1
  Br  Br0  1  0.25000000  0.07835363  0.37153382  1
  Br  Br1  1  0.75000000  0.92164637  0.62846618  1
  Br  Br2  1  0.75000000  0.57835363  0.12846618  1
  Br  Br3  1  0.25000000  0.42164637  0.87153382  1
  Br  Br4  1  0.25000000  0.80563362  0.80982464  1
  Br  Br5  1  0.75000000  0.19436638  0.19017536  1
  Br  Br6  1  0.75000000  0.30563362  0.69017536  1
  Br  Br7  1  0.25000000  0.69436638  0.30982464  1
  O  O0  1  0.99601915  0.38946204  0.42321810  1
  O  O1  1  0.49601915  0.61053796  0.57678190  1
  O  O2  1  0.00398085  0.88946204  0.07678190  1
  O  O3  1  0.50398085  0.11053796  0.92321810  1
  O  O4  1  0.00398085  0.61053796  0.57678190  1
  O  O5  1  0.50398085  0.38946204  0.42321810  1
  O  O6  1  0.99601915  0.11053796  0.92321810  1
  O  O7  1  0.49601915  0.88946204  0.07678190  1
loop_
_geom_bond_atom_site_label_1
_geom_bond_atom_site_label_2
_geom_bond_distance
_geom_bond_site_symmetry_2
Br0 Pb4 3.035244 1_555
Br0 Pb9 3.375854 1_455
Br0 Pb9 3.375854 1_555
Br1 Pb5 3.035244 1_555
Br1 Pb8 3.375854 1_555
Br1 Pb8 3.375854 1_655
Br2 Pb6 3.035244 1_555
Br2 Pb11 3.375854 1_555
Br2 Pb11 3.375854 1_655
Br3 Pb7 3.035244 1_555
Br3 Pb10 3.375854 1_555
Br3 Pb10 3.375854 1_455
Br4 Pb8 3.139778 1_555
Br4 Pb11 3.184346 1_556
Br4 Pb7 3.288914 1_565
Br5 Pb9 3.139778 1_555
Br5 Pb10 3.184346 1_554
Br5 Pb6 3.288914 1_545
Br6 Pb10 3.139778 1_555
Br6 Pb9 3.184346 1_555
Br6 Pb5 3.288914 1_555
Br7 Pb11 3.139778 1_555
Br7 Pb8 3.184346 1_555
Br7 Pb4 3.288914 1_555
O0 Pb4 2.240658 1_655
O0 Pb9 2.289969 1_555
O0 Pb2 2.365173 1_555
O0 Pb3 2.463318 1_655
O1 Pb5 2.240658 1_555
O1 Pb8 2.289969 1_555
O1 Pb3 2.365173 1_555
O1 Pb2 2.463318 1_555
O2 Pb6 2.240658 1_455
O2 Pb11 2.289969 1_555
O2 Pb0 2.365173 1_565
O2 Pb1 2.463318 1_454
O3 Pb7 2.240658 1_555
O3 Pb10 2.289969 1_555
O3 Pb1 2.365173 1_545
O3 Pb0 2.463318 1_556
O4 Pb5 2.240658 1_455
O4 Pb8 2.289969 1_555
O4 Pb3 2.365173 1_555
O4 Pb2 2.463318 1_455
O5 Pb4 2.240658 1_555
O5 Pb9 2.289969 1_555
O5 Pb2 2.365173 1_555
O5 Pb3 2.463318 1_555
O6 Pb7 2.240658 1_655
O6 Pb10 2.289969 1_555
O6 Pb1 2.365173 1_545
O6 Pb0 2.463318 1_656
O7 Pb6 2.240658 1_555
O7 Pb11 2.289969 1_555
O7 Pb0 2.365173 1_565
O7 Pb1 2.463318 1_554
