# generated using pymatgen
data_CsPr(PO3)4
_symmetry_space_group_name_H-M   'P 1'
_cell_length_a   9.08638422
_cell_length_b   10.47999225
_cell_length_c   11.22357864
_cell_angle_alpha   106.33980010
_cell_angle_beta   90.00000000
_cell_angle_gamma   90.00000000
_symmetry_Int_Tables_number   1
_chemical_formula_structural   CsPr(PO3)4
_chemical_formula_sum   'Cs4 Pr4 P16 O48'
_cell_volume   1025.60049407
_cell_formula_units_Z   4
loop_
 _symmetry_equiv_pos_site_id
 _symmetry_equiv_pos_as_xyz
  1  'x, y, z'
loop_
 _atom_site_type_symbol
 _atom_site_label
 _atom_site_symmetry_multiplicity
 _atom_site_fract_x
 _atom_site_fract_y
 _atom_site_fract_z
 _atom_site_occupancy
  Cs  Cs0  1  0.43503198  0.31453691  0.54092457  1
  Cs  Cs1  1  0.93503198  0.18546309  0.95907543  1
  Cs  Cs2  1  0.56496802  0.68546309  0.45907543  1
  Cs  Cs3  1  0.06496802  0.81453691  0.04092457  1
  Pr  Pr0  1  0.27394708  0.49914744  0.18183185  1
  Pr  Pr1  1  0.77394708  0.00085256  0.31816815  1
  Pr  Pr2  1  0.22605292  0.99914744  0.68183185  1
  Pr  Pr3  1  0.72605292  0.50085256  0.81816815  1
  P  P0  1  0.60138681  0.82624873  0.02479832  1
  P  P1  1  0.96980584  0.74714657  0.71636189  1
  P  P2  1  0.53019416  0.24714657  0.21636189  1
  P  P3  1  0.40515359  0.85699987  0.24087030  1
  P  P4  1  0.32422851  0.53957788  0.86321031  1
  P  P5  1  0.90515359  0.64300013  0.25912970  1
  P  P6  1  0.17577149  0.03957788  0.36321031  1
  P  P7  1  0.03019416  0.25285343  0.28363811  1
  P  P8  1  0.59484641  0.14300013  0.75912970  1
  P  P9  1  0.67577149  0.46042212  0.13678969  1
  P  P10  1  0.09484641  0.35699987  0.74087030  1
  P  P11  1  0.89861319  0.32624873  0.52479832  1
  P  P12  1  0.46980584  0.75285343  0.78363811  1
  P  P13  1  0.10138681  0.67375127  0.47520168  1
  P  P14  1  0.39861319  0.17375127  0.97520168  1
  P  P15  1  0.82422851  0.96042212  0.63678969  1
  O  O0  1  0.53824900  0.85853455  0.90298825  1
  O  O1  1  0.31990148  0.74076923  0.25279030  1
  O  O2  1  0.96174076  0.03829646  0.66963121  1
  O  O3  1  0.15779325  0.18471501  0.34353621  1
  O  O4  1  0.46175100  0.14146545  0.09701175  1
  O  O5  1  0.96546210  0.40000776  0.82264664  1
  O  O6  1  0.34220675  0.68471501  0.84353621  1
  O  O7  1  0.44917890  0.83509480  0.09939793  1
  O  O8  1  0.65506578  0.68728913  0.98763219  1
  O  O9  1  0.46174076  0.46170454  0.83036879  1
  O  O10  1  0.20384871  0.56758131  0.40818088  1
  O  O11  1  0.92005053  0.14972691  0.22356403  1
  O  O12  1  0.18009852  0.24076923  0.75279030  1
  O  O13  1  0.29448579  0.97995966  0.25577865  1
  O  O14  1  0.57994947  0.64972691  0.72356403  1
  O  O15  1  0.55082110  0.16490520  0.90060207  1
  O  O16  1  0.79615129  0.43241869  0.59181912  1
  O  O17  1  0.53453790  0.90000776  0.32264664  1
  O  O18  1  0.70384871  0.93241869  0.09181912  1
  O  O19  1  0.68009852  0.25923077  0.74720970  1
  O  O20  1  0.34493422  0.31271087  0.01236781  1
  O  O21  1  0.05082110  0.33509480  0.59939793  1
  O  O22  1  0.03825924  0.96170354  0.33036879  1
  O  O23  1  0.70551421  0.02004034  0.74422135  1
  O  O24  1  0.94917890  0.66490520  0.40060207  1
  O  O25  1  0.53825924  0.53829646  0.16963121  1
  O  O26  1  0.15506578  0.81271087  0.51236781  1
  O  O27  1  0.81990148  0.75923077  0.24720970  1
  O  O28  1  0.40186502  0.82838026  0.70478441  1
  O  O29  1  0.59813498  0.17161974  0.29521559  1
  O  O30  1  0.90186502  0.67161974  0.79521559  1
  O  O31  1  0.74547727  0.43981426  0.01363861  1
  O  O32  1  0.03453790  0.59999224  0.17735336  1
  O  O33  1  0.03824900  0.64146545  0.59701175  1
  O  O34  1  0.84220675  0.81528499  0.65646379  1
  O  O35  1  0.29615129  0.06758131  0.90818088  1
  O  O36  1  0.07994947  0.85027309  0.77643597  1
  O  O37  1  0.09813498  0.32838026  0.20478441  1
  O  O38  1  0.84493422  0.18728913  0.48763219  1
  O  O39  1  0.75452273  0.93981426  0.51363861  1
  O  O40  1  0.65779325  0.31528499  0.15646379  1
  O  O41  1  0.24547727  0.06018574  0.48636139  1
  O  O42  1  0.20551421  0.47995966  0.75577865  1
  O  O43  1  0.42005053  0.35027309  0.27643597  1
  O  O44  1  0.25452273  0.56018574  0.98636139  1
  O  O45  1  0.46546210  0.09999224  0.67735336  1
  O  O46  1  0.79448579  0.52004034  0.24422135  1
  O  O47  1  0.96175100  0.35853455  0.40298825  1
loop_
_geom_bond_atom_site_label_1
_geom_bond_atom_site_label_2
_geom_bond_distance
_geom_bond_site_symmetry_2
Cs0 O45 3.068171 1_555
Cs0 O41 3.086826 1_555
Cs0 O43 3.097803 1_555
Cs0 O29 3.117807 1_555
Cs0 O9 3.189337 1_555
Cs0 O42 3.288994 1_555
Cs0 O3 3.377716 1_555
Cs0 O19 3.377858 1_555
Cs0 O16 3.496021 1_555
Cs0 O21 3.547571 1_555
Cs0 O12 3.556994 1_555
Cs0 O14 3.771461 1_555
Cs1 O5 3.068171 1_555
Cs1 O31 3.086826 1_556
Cs1 O11 3.097803 1_556
Cs1 O37 3.117807 1_656
Cs1 O2 3.189335 1_555
Cs1 O23 3.288994 1_555
Cs1 O40 3.377716 1_556
Cs1 O12 3.377858 1_655
Cs1 O35 3.496021 1_655
Cs1 O15 3.547571 1_555
Cs1 O19 3.556994 1_555
Cs1 O36 3.771461 1_645
Cs2 O17 3.068171 1_555
Cs2 O39 3.086826 1_555
Cs2 O14 3.097803 1_555
Cs2 O28 3.117807 1_555
Cs2 O25 3.189335 1_555
Cs2 O46 3.288994 1_555
Cs2 O34 3.377716 1_555
Cs2 O1 3.377858 1_555
Cs2 O10 3.496021 1_555
Cs2 O24 3.547571 1_555
Cs2 O27 3.556994 1_555
Cs2 O43 3.771461 1_555
Cs3 O32 3.068171 1_555
Cs3 O44 3.086826 1_554
Cs3 O36 3.097803 1_554
Cs3 O30 3.117807 1_454
Cs3 O22 3.189335 1_555
Cs3 O13 3.288994 1_555
Cs3 O6 3.377716 1_554
Cs3 O27 3.377858 1_455
Cs3 O18 3.496021 1_455
Cs3 O7 3.547571 1_555
Cs3 O1 3.556994 1_555
Cs3 O11 3.771461 1_465
O0 P0 1.604049 1_556
O0 P12 1.604055 1_555
O1 P3 1.481016 1_555
O1 Pr0 2.466966 1_555
O2 P15 1.481176 1_545
O2 Pr2 2.446748 1_645
O3 P7 1.605064 1_555
O3 P6 1.605607 1_555
O4 P14 1.604049 1_554
O4 P2 1.604055 1_555
O5 P10 1.481521 1_655
O5 Pr3 2.425193 1_555
O6 P12 1.605064 1_555
O6 P4 1.605607 1_555
O7 P3 1.590226 1_555
O7 P0 1.605831 1_555
O8 P0 1.480166 1_556
O8 Pr3 2.400037 1_555
O9 P4 1.481171 1_555
O9 Pr3 2.446746 1_555
O10 P13 1.483134 1_555
O10 Pr0 2.519673 1_555
O11 P7 1.488039 1_655
O11 Pr1 2.501232 1_555
O12 P10 1.481016 1_555
O12 Pr2 2.466966 1_545
O13 P3 1.605735 1_555
O13 P6 1.607456 1_565
O14 P12 1.488039 1_555
O14 Pr3 2.501232 1_555
O15 P8 1.590226 1_555
O15 P14 1.605831 1_555
O16 P11 1.483134 1_555
O16 Pr3 2.519673 1_555
O17 P3 1.481521 1_555
O17 Pr1 2.425193 1_565
O18 P0 1.483134 1_555
O18 Pr1 2.519673 1_565
O19 P8 1.481016 1_555
O19 Pr3 2.466966 1_555
O20 P14 1.480166 1_554
O20 Pr0 2.400037 1_555
O21 P10 1.590226 1_555
O21 P11 1.605831 1_455
O22 P6 1.481176 1_565
O22 Pr1 2.446748 1_465
O23 P8 1.605735 1_555
O23 P15 1.607456 1_545
O24 P5 1.590226 1_555
O24 P13 1.605831 1_655
O25 P9 1.481176 1_555
O25 Pr0 2.446748 1_555
O26 P13 1.480166 1_555
O26 Pr2 2.400037 1_555
O27 P5 1.481016 1_555
O27 Pr1 2.466966 1_565
O28 P12 1.478183 1_555
O28 Pr2 2.465881 1_555
O29 P2 1.478183 1_555
O29 Pr1 2.465881 1_555
O30 P1 1.478183 1_555
O30 Pr3 2.465881 1_555
O31 P9 1.479969 1_555
O31 Pr3 2.458268 1_554
O32 P5 1.481521 1_455
O32 Pr0 2.425193 1_555
O33 P13 1.604049 1_555
O33 P1 1.604055 1_455
O34 P1 1.605064 1_555
O34 P15 1.605607 1_555
O35 P14 1.483134 1_555
O35 Pr2 2.519673 1_545
O36 P1 1.488039 1_455
O36 Pr2 2.501232 1_555
O37 P7 1.478183 1_555
O37 Pr0 2.465881 1_555
O38 P11 1.480166 1_555
O38 Pr1 2.400037 1_555
O39 P15 1.479969 1_555
O39 Pr1 2.458268 1_565
O40 P2 1.605064 1_555
O40 P9 1.605607 1_555
O41 P6 1.479969 1_555
O41 Pr2 2.458268 1_545
O42 P10 1.605735 1_555
O42 P4 1.607456 1_555
O43 P2 1.488039 1_555
O43 Pr0 2.501232 1_555
O44 P4 1.479969 1_555
O44 Pr0 2.458268 1_556
O45 P8 1.481521 1_555
O45 Pr2 2.425193 1_545
O46 P5 1.605735 1_555
O46 P9 1.607456 1_555
O47 P11 1.604049 1_555
O47 P7 1.604055 1_655
