# generated using pymatgen
data_UCo5Si3
_symmetry_space_group_name_H-M   'P 1'
_cell_length_a   14.68437990
_cell_length_b   14.68437990
_cell_length_c   3.68013100
_cell_angle_alpha   90.00000000
_cell_angle_beta   90.00000000
_cell_angle_gamma   119.99999954
_symmetry_Int_Tables_number   1
_chemical_formula_structural   UCo5Si3
_chemical_formula_sum   'U6 Co30 Si18'
_cell_volume   687.23478746
_cell_formula_units_Z   6
loop_
 _symmetry_equiv_pos_site_id
 _symmetry_equiv_pos_as_xyz
  1  'x, y, z'
loop_
 _atom_site_type_symbol
 _atom_site_label
 _atom_site_symmetry_multiplicity
 _atom_site_fract_x
 _atom_site_fract_y
 _atom_site_fract_z
 _atom_site_occupancy
  U  U0  1  0.38891700  0.10073900  0.25000000  1
  U  U1  1  0.28817800  0.38891700  0.75000000  1
  U  U2  1  0.10073900  0.71182200  0.75000000  1
  U  U3  1  0.89926100  0.28817800  0.25000000  1
  U  U4  1  0.71182200  0.61108300  0.25000000  1
  U  U5  1  0.61108300  0.89926100  0.75000000  1
  Co  Co0  1  0.65241600  0.22506300  0.25000000  1
  Co  Co1  1  0.42735300  0.65241600  0.75000000  1
  Co  Co2  1  0.22506300  0.57264700  0.75000000  1
  Co  Co3  1  0.77493700  0.42735300  0.25000000  1
  Co  Co4  1  0.57264700  0.34758400  0.25000000  1
  Co  Co5  1  0.34758400  0.77493700  0.75000000  1
  Co  Co6  1  0.46186500  0.92505200  0.25000000  1
  Co  Co7  1  0.53681300  0.46186500  0.75000000  1
  Co  Co8  1  0.92505200  0.46318700  0.75000000  1
  Co  Co9  1  0.07494800  0.53681300  0.25000000  1
  Co  Co10  1  0.46318700  0.53813500  0.25000000  1
  Co  Co11  1  0.53813500  0.07494800  0.75000000  1
  Co  Co12  1  0.26836500  0.22803800  0.25000000  1
  Co  Co13  1  0.04032700  0.26836500  0.75000000  1
  Co  Co14  1  0.22803800  0.95967300  0.75000000  1
  Co  Co15  1  0.77196200  0.04032700  0.25000000  1
  Co  Co16  1  0.95967300  0.73163500  0.25000000  1
  Co  Co17  1  0.73163500  0.77196200  0.75000000  1
  Co  Co18  1  0.15058200  0.41346500  0.25000000  1
  Co  Co19  1  0.73711700  0.15058200  0.75000000  1
  Co  Co20  1  0.41346500  0.26288300  0.75000000  1
  Co  Co21  1  0.58653500  0.73711700  0.25000000  1
  Co  Co22  1  0.26288300  0.84941800  0.25000000  1
  Co  Co23  1  0.84941800  0.58653500  0.75000000  1
  Co  Co24  1  0.12783200  0.03343300  0.25000000  1
  Co  Co25  1  0.09440000  0.12783200  0.75000000  1
  Co  Co26  1  0.03343300  0.90560000  0.75000000  1
  Co  Co27  1  0.96656700  0.09440000  0.25000000  1
  Co  Co28  1  0.90560000  0.87216800  0.25000000  1
  Co  Co29  1  0.87216800  0.96656700  0.75000000  1
  Si  Si0  1  0.44286100  0.76136600  0.25000000  1
  Si  Si1  1  0.68149500  0.44286100  0.75000000  1
  Si  Si2  1  0.76136600  0.31850500  0.75000000  1
  Si  Si3  1  0.23863400  0.68149500  0.25000000  1
  Si  Si4  1  0.31850500  0.55713900  0.25000000  1
  Si  Si5  1  0.55713900  0.23863400  0.75000000  1
  Si  Si6  1  0.12229200  0.24417600  0.25000000  1
  Si  Si7  1  0.87811600  0.12229200  0.75000000  1
  Si  Si8  1  0.24417600  0.12188400  0.75000000  1
  Si  Si9  1  0.75582400  0.87811600  0.25000000  1
  Si  Si10  1  0.12188400  0.87770800  0.25000000  1
  Si  Si11  1  0.87770800  0.75582400  0.75000000  1
  Si  Si12  1  0.43345900  0.37143800  0.25000000  1
  Si  Si13  1  0.06202100  0.43345900  0.75000000  1
  Si  Si14  1  0.37143800  0.93797900  0.75000000  1
  Si  Si15  1  0.62856200  0.06202100  0.25000000  1
  Si  Si16  1  0.93797900  0.56654100  0.25000000  1
  Si  Si17  1  0.56654100  0.62856200  0.75000000  1
loop_
_geom_bond_atom_site_label_1
_geom_bond_atom_site_label_2
_geom_bond_distance
_geom_bond_site_symmetry_2
Co0 Si15 2.239669 1_555
Co0 Si2 2.373380 1_555
Co0 Si2 2.373380 1_554
Co0 Si5 2.379454 1_555
Co0 Si5 2.379454 1_554
Co0 Co11 2.713290 1_554
Co0 Co11 2.713290 1_555
Co0 Co19 2.736670 1_554
Co0 Co19 2.736670 1_555
Co1 Si17 2.239669 1_555
Co1 Si0 2.373380 1_555
Co1 Si0 2.373380 1_556
Co1 Si4 2.379454 1_555
Co1 Si4 2.379454 1_556
Co1 Co10 2.713290 1_555
Co1 Co10 2.713290 1_556
Co1 Co21 2.736670 1_555
Co1 Co21 2.736670 1_556
Co2 Si13 2.239669 1_555
Co2 Si4 2.373380 1_555
Co2 Si4 2.373380 1_556
Co2 Si3 2.379454 1_556
Co2 Si3 2.379454 1_555
Co2 Co9 2.713290 1_555
Co2 Co9 2.713290 1_556
Co3 Si16 2.239669 1_555
Co3 Si1 2.373380 1_554
Co3 Si1 2.373380 1_555
Co3 Si2 2.379454 1_555
Co3 Si2 2.379454 1_554
Co3 Co8 2.713290 1_555
Co3 Co8 2.713290 1_554
Co4 Si12 2.239669 1_555
Co4 Si5 2.373380 1_555
Co4 Si5 2.373380 1_554
Co4 Si1 2.379454 1_554
Co4 Si1 2.379454 1_555
Co4 Co7 2.713290 1_555
Co4 Co7 2.713290 1_554
Co5 Si14 2.239669 1_555
Co5 Si3 2.373380 1_555
Co5 Si3 2.373380 1_556
Co5 Si0 2.379454 1_555
Co5 Si0 2.379454 1_556
Co5 Co6 2.713290 1_556
Co5 Co6 2.713290 1_555
Co6 Si15 2.261398 1_565
Co6 Si0 2.276958 1_555
Co6 Si14 2.331772 1_554
Co6 Si14 2.331772 1_555
Co6 U5 3.026610 1_554
Co6 U5 3.026610 1_555
Co6 U0 3.250637 1_565
Co7 Si17 2.261398 1_555
Co7 Si1 2.276958 1_555
Co7 Si12 2.331772 1_556
Co7 Si12 2.331772 1_555
Co7 U4 3.026610 1_555
Co7 U4 3.026610 1_556
Co7 U1 3.250637 1_555
Co8 Si13 2.261398 1_655
Co8 Si2 2.276958 1_555
Co8 Si16 2.331772 1_555
Co8 Si16 2.331772 1_556
Co8 Co9 2.649518 1_655
Co8 Co9 2.649518 1_656
Co8 U3 3.026610 1_555
Co8 U3 3.026610 1_556
Co8 U2 3.250637 1_655
Co9 Si16 2.261398 1_455
Co9 Si3 2.276958 1_555
Co9 Si13 2.331772 1_555
Co9 Si13 2.331772 1_554
Co9 U2 3.026610 1_555
Co9 U2 3.026610 1_554
Co9 U3 3.250637 1_455
Co10 Si12 2.261398 1_555
Co10 Si4 2.276958 1_555
Co10 Si17 2.331772 1_554
Co10 Si17 2.331772 1_555
Co10 Co21 2.554598 1_555
Co10 Co7 2.649518 1_554
Co10 Co7 2.649518 1_555
Co10 U1 3.026610 1_554
Co10 U1 3.026610 1_555
Co10 U4 3.250637 1_555
Co11 Si14 2.261398 1_545
Co11 Si5 2.276958 1_555
Co11 Si15 2.331772 1_555
Co11 Si15 2.331772 1_556
Co11 Co19 2.554598 1_555
Co11 Co6 2.649518 1_545
Co11 Co6 2.649518 1_546
Co11 U0 3.026610 1_556
Co11 U0 3.026610 1_555
Co11 U5 3.250637 1_545
Co12 Si6 2.272765 1_555
Co12 Si12 2.281761 1_555
Co12 Si8 2.321249 1_554
Co12 Si8 2.321249 1_555
Co12 Co24 2.554922 1_555
Co12 Co20 2.664080 1_554
Co12 Co20 2.664080 1_555
Co12 U1 2.892082 1_555
Co12 U1 2.892082 1_554
Co13 Si7 2.272765 1_455
Co13 Si13 2.281761 1_555
Co13 Si6 2.321249 1_556
Co13 Si6 2.321249 1_555
Co13 Co25 2.554932 1_555
Co13 Co18 2.664080 1_556
Co13 Co18 2.664080 1_555
Co13 U3 2.892082 1_455
Co13 U3 2.892082 1_456
Co14 Si8 2.272765 1_565
Co14 Si14 2.281761 1_555
Co14 Si10 2.321249 1_555
Co14 Si10 2.321249 1_556
Co14 Co26 2.554918 1_555
Co14 Co22 2.664080 1_556
Co14 Co22 2.664080 1_555
Co14 U0 2.892082 1_565
Co14 U0 2.892082 1_566
Co15 Si9 2.272765 1_545
Co15 Si15 2.281761 1_555
Co15 Si7 2.321249 1_554
Co15 Si7 2.321249 1_555
Co15 Co27 2.554918 1_555
Co15 Co19 2.664080 1_555
Co15 Co19 2.664080 1_554
Co15 U5 2.892082 1_545
Co15 U5 2.892082 1_544
Co16 Si10 2.272765 1_655
Co16 Si16 2.281761 1_555
Co16 Si11 2.321249 1_554
Co16 Si11 2.321249 1_555
Co16 Co28 2.554932 1_555
Co16 Co23 2.664080 1_554
Co16 Co23 2.664080 1_555
Co16 U2 2.892082 1_654
Co16 U2 2.892082 1_655
Co17 Si11 2.272765 1_555
Co17 Si17 2.281761 1_555
Co17 Si9 2.321249 1_556
Co17 Si9 2.321249 1_555
Co17 Co29 2.554922 1_555
Co17 Co21 2.664080 1_555
Co17 Co21 2.664080 1_556
Co17 U4 2.892082 1_556
Co17 U4 2.892082 1_555
Co18 Si6 2.306425 1_555
Co18 Si4 2.308494 1_555
Co18 Si13 2.354796 1_555
Co18 Si13 2.354796 1_554
Co18 Co9 2.554598 1_555
Co18 Co2 2.736670 1_554
Co18 Co2 2.736670 1_555
Co18 U1 2.885583 1_554
Co18 U1 2.885583 1_555
Co18 U3 3.196065 1_455
Co19 Si7 2.306425 1_555
Co19 Si2 2.308494 1_555
Co19 Si15 2.354796 1_556
Co19 Si15 2.354796 1_555
Co19 U3 2.885583 1_555
Co19 U3 2.885583 1_556
Co19 U5 3.196065 1_545
Co20 Si8 2.306425 1_555
Co20 Si5 2.308494 1_555
Co20 Si12 2.354796 1_555
Co20 Si12 2.354796 1_556
Co20 Co7 2.554598 1_555
Co20 Co4 2.736670 1_555
Co20 Co4 2.736670 1_556
Co20 U0 2.885583 1_555
Co20 U0 2.885583 1_556
Co20 U1 3.196065 1_555
Co21 Si9 2.306425 1_555
Co21 Si0 2.308494 1_555
Co21 Si17 2.354796 1_554
Co21 Si17 2.354796 1_555
Co21 U5 2.885583 1_554
Co21 U5 2.885583 1_555
Co21 U4 3.196065 1_555
Co22 Si10 2.306425 1_555
Co22 Si3 2.308494 1_555
Co22 Si14 2.354796 1_554
Co22 Si14 2.354796 1_555
Co22 Co6 2.554598 1_555
Co22 Co5 2.736670 1_555
Co22 Co5 2.736670 1_554
Co22 U2 2.885583 1_555
Co22 U2 2.885583 1_554
Co22 U0 3.196065 1_565
Co23 Si11 2.306425 1_555
Co23 Si1 2.308494 1_555
Co23 Si16 2.354796 1_555
Co23 Si16 2.354796 1_556
Co23 Co8 2.554598 1_555
Co23 Co3 2.736670 1_556
Co23 Co3 2.736670 1_555
Co23 U4 2.885583 1_555
Co23 U4 2.885583 1_556
Co23 U2 3.196065 1_655
Co24 Si10 2.244329 1_545
Co24 Si8 2.402626 1_555
Co24 Si8 2.402626 1_554
Co24 Co25 2.495776 1_555
Co24 Co25 2.495776 1_554
Co24 Co26 2.495790 1_545
Co24 Co26 2.495790 1_544
Co25 Si8 2.244314 1_555
Co25 Si6 2.402628 1_556
Co25 Si6 2.402628 1_555
Co25 Co27 2.495795 1_455
Co25 Co27 2.495795 1_456
Co26 Si11 2.244322 1_455
Co26 Si10 2.402619 1_555
Co26 Si10 2.402619 1_556
Co26 Co28 2.495795 1_455
Co26 Co28 2.495795 1_456
Co27 Si6 2.244322 1_655
Co27 Si7 2.402619 1_554
Co27 Si7 2.402619 1_555
Co27 Co29 2.495790 1_545
Co27 Co29 2.495790 1_544
Co28 Si9 2.244314 1_555
Co28 Si11 2.402628 1_555
Co28 Si11 2.402628 1_554
Co28 Co29 2.495776 1_554
Co28 Co29 2.495776 1_555
Co29 Si7 2.244329 1_565
Co29 Si9 2.402626 1_556
Co29 Si9 2.402626 1_555
Si0 Si3 2.617621 1_555
Si0 Si4 2.617621 1_555
Si0 U5 2.930213 1_554
Si0 U5 2.930213 1_555
Si1 Si2 2.617621 1_555
Si1 Si5 2.617621 1_555
Si1 U4 2.930213 1_556
Si1 U4 2.930213 1_555
Si2 Si5 2.617621 1_555
Si2 U3 2.930213 1_555
Si2 U3 2.930213 1_556
Si3 Si4 2.617621 1_555
Si3 U2 2.930213 1_555
Si3 U2 2.930213 1_554
Si4 U1 2.930213 1_555
Si4 U1 2.930213 1_554
Si5 U0 2.930213 1_556
Si5 U0 2.930213 1_555
Si6 U1 2.942730 1_555
Si6 U1 2.942730 1_554
Si7 U3 2.942730 1_555
Si7 U3 2.942730 1_556
Si8 U0 2.942730 1_555
Si8 U0 2.942730 1_556
Si9 U5 2.942730 1_554
Si9 U5 2.942730 1_555
Si10 U2 2.942730 1_555
Si10 U2 2.942730 1_554
Si11 U4 2.942730 1_556
Si11 U4 2.942730 1_555
Si12 U1 2.924127 1_555
Si12 U1 2.924127 1_554
Si13 U3 2.924127 1_455
Si13 U3 2.924127 1_456
Si14 U0 2.924127 1_566
Si14 U0 2.924127 1_565
Si15 U5 2.924127 1_545
Si15 U5 2.924127 1_544
Si16 U2 2.924127 1_654
Si16 U2 2.924127 1_655
Si17 U4 2.924127 1_556
Si17 U4 2.924127 1_555
