# generated using pymatgen
data_Nb12O29
_symmetry_space_group_name_H-M   'P 1'
_cell_length_a   10.74089058
_cell_length_b   10.74089058
_cell_length_c   16.01288084
_cell_angle_alpha   67.30599299
_cell_angle_beta   67.30599299
_cell_angle_gamma   20.75933203
_symmetry_Int_Tables_number   1
_chemical_formula_structural   Nb12O29
_chemical_formula_sum   'Nb12 O29'
_cell_volume   602.31318736
_cell_formula_units_Z   1
loop_
 _symmetry_equiv_pos_site_id
 _symmetry_equiv_pos_as_xyz
  1  'x, y, z'
loop_
 _atom_site_type_symbol
 _atom_site_label
 _atom_site_symmetry_multiplicity
 _atom_site_fract_x
 _atom_site_fract_y
 _atom_site_fract_z
 _atom_site_occupancy
  Nb  Nb0  1  0.06703200  0.06703200  0.39872800  1
  Nb  Nb1  1  0.69822700  0.69822700  0.40066800  1
  Nb  Nb2  1  0.88044000  0.88044000  0.40310300  1
  Nb  Nb3  1  0.14376900  0.14376900  0.12916200  1
  Nb  Nb4  1  0.77603700  0.77603700  0.13269500  1
  Nb  Nb5  1  0.96001800  0.96001800  0.13147600  1
  Nb  Nb6  1  0.93296800  0.93296800  0.60127200  1
  Nb  Nb7  1  0.30177300  0.30177300  0.59933200  1
  Nb  Nb8  1  0.11956000  0.11956000  0.59689700  1
  Nb  Nb9  1  0.85623100  0.85623100  0.87083800  1
  Nb  Nb10  1  0.22396300  0.22396300  0.86730500  1
  Nb  Nb11  1  0.03998200  0.03998200  0.86852400  1
  O  O0  1  0.00000000  0.00000000  0.00000000  1
  O  O1  1  0.16563000  0.16563000  0.42838100  1
  O  O2  1  0.36703200  0.36703200  0.44228000  1
  O  O3  1  0.58659100  0.58659100  0.41424100  1
  O  O4  1  0.78144800  0.78144800  0.41608500  1
  O  O5  1  0.96950700  0.96950700  0.43664800  1
  O  O6  1  0.10020400  0.10020400  0.27639400  1
  O  O7  1  0.72939100  0.72939100  0.27771200  1
  O  O8  1  0.92157200  0.92157200  0.28235400  1
  O  O9  1  0.05498500  0.05498500  0.13467200  1
  O  O10  1  0.24821500  0.24821500  0.14098600  1
  O  O11  1  0.45369600  0.45369600  0.14881000  1
  O  O12  1  0.66574000  0.66574000  0.13902600  1
  O  O13  1  0.86146200  0.86146200  0.13886800  1
  O  O14  1  0.18764200  0.18764200  0.99876800  1
  O  O15  1  0.83437000  0.83437000  0.57161900  1
  O  O16  1  0.63296800  0.63296800  0.55772000  1
  O  O17  1  0.41340900  0.41340900  0.58575900  1
  O  O18  1  0.21855200  0.21855200  0.58391500  1
  O  O19  1  0.03049300  0.03049300  0.56335200  1
  O  O20  1  0.89979600  0.89979600  0.72360600  1
  O  O21  1  0.27060900  0.27060900  0.72228800  1
  O  O22  1  0.07842800  0.07842800  0.71764600  1
  O  O23  1  0.94501500  0.94501500  0.86532800  1
  O  O24  1  0.75178500  0.75178500  0.85901400  1
  O  O25  1  0.54630400  0.54630400  0.85119000  1
  O  O26  1  0.33426000  0.33426000  0.86097400  1
  O  O27  1  0.13853800  0.13853800  0.86113200  1
  O  O28  1  0.81235800  0.81235800  0.00123200  1
loop_
_geom_bond_atom_site_label_1
_geom_bond_atom_site_label_2
_geom_bond_distance
_geom_bond_site_symmetry_2
Nb0 O6 1.803208 1_555
Nb0 O5 1.906230 1_445
Nb0 O3 2.014447 1_455
Nb0 O3 2.014447 1_545
Nb0 O1 2.311287 1_555
Nb0 O19 2.438968 1_555
Nb1 O7 1.814678 1_555
Nb1 O4 1.869156 1_555
Nb1 O1 2.043654 1_565
Nb1 O1 2.043654 1_655
Nb1 O3 2.282421 1_555
Nb1 O16 2.346403 1_555
Nb2 O8 1.782045 1_555
Nb2 O4 2.019263 1_555
Nb2 O2 2.019738 1_565
Nb2 O2 2.019738 1_655
Nb2 O5 2.150235 1_555
Nb2 O15 2.483649 1_555
Nb3 O9 1.843208 1_555
Nb3 O14 1.923708 1_554
Nb3 O12 2.010709 1_545
Nb3 O12 2.010709 1_455
Nb3 O6 2.168693 1_555
Nb3 O10 2.287871 1_555
Nb4 O13 1.846062 1_555
Nb4 O28 1.937290 1_555
Nb4 O10 2.011705 1_655
Nb4 O10 2.011705 1_565
Nb4 O7 2.137373 1_555
Nb4 O12 2.292736 1_555
Nb5 O0 1.936701 1_665
Nb5 O11 1.952114 1_565
Nb5 O11 1.952114 1_655
Nb5 O9 2.027295 1_665
Nb5 O13 2.038994 1_555
Nb5 O8 2.226505 1_555
Nb6 O20 1.803208 1_555
Nb6 O19 1.906230 1_665
Nb6 O17 2.014447 1_655
Nb6 O17 2.014447 1_565
Nb6 O15 2.311287 1_555
Nb6 O5 2.438968 1_555
Nb7 O21 1.814678 1_555
Nb7 O18 1.869156 1_555
Nb7 O15 2.043654 1_455
Nb7 O15 2.043654 1_545
Nb7 O17 2.282421 1_555
Nb7 O2 2.346403 1_555
Nb8 O22 1.782045 1_555
Nb8 O18 2.019263 1_555
Nb8 O16 2.019738 1_455
Nb8 O16 2.019738 1_545
Nb8 O19 2.150235 1_555
Nb8 O1 2.483649 1_555
Nb9 O23 1.843208 1_555
Nb9 O28 1.923708 1_556
Nb9 O26 2.010709 1_565
Nb9 O26 2.010709 1_655
Nb9 O20 2.168693 1_555
Nb9 O24 2.287871 1_555
Nb10 O27 1.846062 1_555
Nb10 O14 1.937290 1_555
Nb10 O24 2.011705 1_455
Nb10 O24 2.011705 1_545
Nb10 O21 2.137373 1_555
Nb10 O26 2.292736 1_555
Nb11 O0 1.936701 1_556
Nb11 O25 1.952114 1_545
Nb11 O25 1.952114 1_455
Nb11 O23 2.027295 1_445
Nb11 O27 2.038994 1_555
Nb11 O22 2.226505 1_555
