# generated using pymatgen
data_Rb3Hg2S3ClO12
_symmetry_space_group_name_H-M   'P 1'
_cell_length_a   10.04379600
_cell_length_b   8.08149000
_cell_length_c   10.24350348
_cell_angle_alpha   69.11744565
_cell_angle_beta   90.00000000
_cell_angle_gamma   90.00000000
_symmetry_Int_Tables_number   1
_chemical_formula_structural   Rb3Hg2S3ClO12
_chemical_formula_sum   'Rb6 Hg4 S6 Cl2 O24'
_cell_volume   776.83763636
_cell_formula_units_Z   2
loop_
 _symmetry_equiv_pos_site_id
 _symmetry_equiv_pos_as_xyz
  1  'x, y, z'
loop_
 _atom_site_type_symbol
 _atom_site_label
 _atom_site_symmetry_multiplicity
 _atom_site_fract_x
 _atom_site_fract_y
 _atom_site_fract_z
 _atom_site_occupancy
  Rb  Rb0  1  0.75039700  0.90181100  0.26787400  1
  Rb  Rb1  1  0.44591200  0.32409100  0.30134000  1
  Rb  Rb2  1  0.25039700  0.09818900  0.73212600  1
  Rb  Rb3  1  0.94591200  0.67590900  0.69866000  1
  Rb  Rb4  1  0.11843000  0.68355600  0.13105100  1
  Rb  Rb5  1  0.61843000  0.31644400  0.86894900  1
  Hg  Hg0  1  0.57292300  0.75985400  0.95277300  1
  Hg  Hg1  1  0.85135400  0.26483900  0.50050500  1
  Hg  Hg2  1  0.35135400  0.73516100  0.49949500  1
  Hg  Hg3  1  0.07292300  0.24014600  0.04722700  1
  S  S0  1  0.90296300  0.02933600  0.89163200  1
  S  S1  1  0.60791500  0.90618100  0.60887300  1
  S  S2  1  0.78990400  0.45117900  0.14026700  1
  S  S3  1  0.28990400  0.54882100  0.85973300  1
  S  S4  1  0.10791500  0.09381900  0.39112700  1
  S  S5  1  0.40296300  0.97066400  0.10836800  1
  Cl  Cl0  1  0.19731100  0.52410900  0.47998900  1
  Cl  Cl1  1  0.69731100  0.47589100  0.52001100  1
  O  O0  1  0.75873400  0.98440800  0.90735700  1
  O  O1  1  0.48329600  0.10111000  0.14403300  1
  O  O2  1  0.34445600  0.41184000  0.81142400  1
  O  O3  1  0.36584500  0.56450400  0.97978500  1
  O  O4  1  0.94879500  0.02228300  0.03855500  1
  O  O5  1  0.44879500  0.97771700  0.96144500  1
  O  O6  1  0.74445900  0.96217400  0.55431900  1
  O  O7  1  0.27957800  0.72415600  0.74392300  1
  O  O8  1  0.61685600  0.73475500  0.73176500  1
  O  O9  1  0.53419600  0.04237000  0.64179800  1
  O  O10  1  0.98329600  0.89889000  0.85596700  1
  O  O11  1  0.92293500  0.21222300  0.79039700  1
  O  O12  1  0.86584500  0.43549600  0.02021500  1
  O  O13  1  0.14526400  0.50286800  0.91012200  1
  O  O14  1  0.24445900  0.03782600  0.44568100  1
  O  O15  1  0.53917900  0.86713300  0.48800600  1
  O  O16  1  0.03917900  0.13286700  0.51199400  1
  O  O17  1  0.11685600  0.26524500  0.26823500  1
  O  O18  1  0.64526400  0.49713200  0.08987800  1
  O  O19  1  0.25873400  0.01559200  0.09264300  1
  O  O20  1  0.42293500  0.78777700  0.20960300  1
  O  O21  1  0.03419600  0.95763000  0.35820200  1
  O  O22  1  0.77957800  0.27584400  0.25607700  1
  O  O23  1  0.84445600  0.58816000  0.18857600  1
loop_
_geom_bond_atom_site_label_1
_geom_bond_atom_site_label_2
_geom_bond_distance
_geom_bond_site_symmetry_2
Hg0 O5 2.184859 1_555
Hg0 O18 2.209631 1_556
Hg0 O8 2.385046 1_555
Hg0 O0 2.527981 1_555
Hg0 O3 2.565788 1_555
Hg1 O16 2.149569 1_655
Hg1 O6 2.545222 1_545
Hg1 O22 2.576407 1_555
Hg2 O15 2.149569 1_555
Hg2 O14 2.545222 1_565
Hg2 O7 2.576407 1_555
Hg3 O4 2.184859 1_455
Hg3 O13 2.209631 1_554
Hg3 O17 2.385046 1_555
Hg3 O19 2.527981 1_555
Hg3 O12 2.565788 1_455
Cl0 Hg2 2.363421 1_555
Cl0 Rb4 3.432281 1_555
Cl0 Rb2 3.530583 1_555
Cl0 Rb1 3.782207 1_555
Cl0 Rb3 3.854479 1_455
Cl1 Hg1 2.363421 1_555
Cl1 Rb5 3.432281 1_555
Cl1 Rb0 3.530583 1_555
Cl1 Rb3 3.782207 1_555
Cl1 Rb1 3.854479 1_555
O0 S0 1.488134 1_565
O0 Rb5 2.930581 1_565
O0 Rb0 3.511857 1_556
O1 S5 1.473218 1_545
O1 Rb1 2.838111 1_555
O1 Rb5 3.052018 1_554
O1 Rb0 3.153365 1_545
O2 S3 1.470066 1_555
O2 Rb5 2.861779 1_555
O2 Rb2 3.073302 1_555
O3 S3 1.490381 1_555
O3 Rb4 3.250316 1_556
O3 Rb1 3.272410 1_556
O4 S0 1.555326 1_554
O4 Rb0 2.967514 1_545
O4 Rb4 3.073274 1_645
O5 S5 1.555326 1_556
O5 Rb2 2.967514 1_565
O5 Rb5 3.073274 1_565
O6 S1 1.489149 1_555
O6 Rb3 3.032092 1_555
O6 Rb0 3.141893 1_555
O7 S3 1.492482 1_555
O7 Rb2 2.996177 1_565
O7 Rb3 3.424458 1_455
O8 S1 1.506231 1_555
O8 Rb5 3.164896 1_555
O8 Rb3 3.373272 1_555
O9 S1 1.462170 1_545
O9 Rb2 3.079298 1_555
O9 Rb1 3.531537 1_555
O10 S0 1.473218 1_565
O10 Rb3 2.838111 1_555
O10 Rb4 3.052018 1_656
O10 Rb2 3.153365 1_665
O11 S0 1.485742 1_555
O11 Rb5 3.345705 1_555
O11 Rb2 3.523492 1_655
O11 Rb3 3.531003 1_555
O12 S2 1.490381 1_555
O12 Rb5 3.250316 1_554
O12 Rb3 3.272410 1_554
O13 S3 1.542115 1_555
O13 Rb3 2.914987 1_455
O13 Rb4 3.111649 1_556
O14 S4 1.489149 1_555
O14 Rb1 3.032092 1_555
O14 Rb2 3.141893 1_555
O15 S1 1.545194 1_555
O15 Rb0 3.035320 1_555
O16 S4 1.545194 1_555
O16 Rb2 3.035320 1_555
O17 S4 1.506231 1_555
O17 Rb4 3.164896 1_555
O17 Rb1 3.373272 1_555
O18 S2 1.542115 1_555
O18 Rb1 2.914987 1_555
O18 Rb5 3.111649 1_554
O19 S5 1.488134 1_545
O19 Rb4 2.930581 1_545
O19 Rb2 3.511857 1_554
O20 S5 1.485742 1_555
O20 Rb4 3.345705 1_555
O20 Rb0 3.523492 1_555
O20 Rb1 3.531003 1_555
O21 S4 1.462170 1_565
O21 Rb0 3.079298 1_455
O21 Rb3 3.531537 1_455
O22 S2 1.492482 1_555
O22 Rb0 2.996177 1_545
O22 Rb1 3.424458 1_555
O23 S2 1.470066 1_555
O23 Rb4 2.861779 1_655
O23 Rb0 3.073302 1_555
