# generated using pymatgen
data_CsHCO2
_symmetry_space_group_name_H-M   'P 1'
_cell_length_a   4.92041700
_cell_length_b   8.07341600
_cell_length_c   9.72992100
_cell_angle_alpha   90.00000000
_cell_angle_beta   90.00000000
_cell_angle_gamma   90.00000000
_symmetry_Int_Tables_number   1
_chemical_formula_structural   CsHCO2
_chemical_formula_sum   'Cs4 H4 C4 O8'
_cell_volume   386.51696030
_cell_formula_units_Z   4
loop_
 _symmetry_equiv_pos_site_id
 _symmetry_equiv_pos_as_xyz
  1  'x, y, z'
loop_
 _atom_site_type_symbol
 _atom_site_label
 _atom_site_symmetry_multiplicity
 _atom_site_fract_x
 _atom_site_fract_y
 _atom_site_fract_z
 _atom_site_occupancy
  Cs  Cs0  1  0.95040300  0.00000000  0.25000000  1
  Cs  Cs1  1  0.04959700  0.50000000  0.75000000  1
  Cs  Cs2  1  0.04959700  0.00000000  0.75000000  1
  Cs  Cs3  1  0.95040300  0.50000000  0.25000000  1
  H  H0  1  0.56379400  0.25000000  0.97087400  1
  H  H1  1  0.56379400  0.75000000  0.52912600  1
  H  H2  1  0.43620600  0.75000000  0.02912600  1
  H  H3  1  0.43620600  0.25000000  0.47087400  1
  C  C0  1  0.39348300  0.25000000  0.04774200  1
  C  C1  1  0.39348300  0.75000000  0.45225800  1
  C  C2  1  0.60651700  0.75000000  0.95225800  1
  C  C3  1  0.60651700  0.25000000  0.54774200  1
  O  O0  1  0.46199900  0.25000000  0.17363700  1
  O  O1  1  0.46199900  0.75000000  0.32636300  1
  O  O2  1  0.53800100  0.75000000  0.82636300  1
  O  O3  1  0.53800100  0.25000000  0.67363700  1
  O  O4  1  0.15372300  0.25000000  0.99949800  1
  O  O5  1  0.15372300  0.75000000  0.50050200  1
  O  O6  1  0.84627700  0.75000000  0.00050200  1
  O  O7  1  0.84627700  0.25000000  0.49949800  1
loop_
_geom_bond_atom_site_label_1
_geom_bond_atom_site_label_2
_geom_bond_distance
_geom_bond_site_symmetry_2
Cs0 O7 3.198354 1_555
Cs0 O6 3.198354 1_545
Cs0 O1 3.225050 1_545
Cs0 O0 3.225050 1_555
Cs0 O1 3.310957 1_645
Cs0 O0 3.310957 1_655
Cs0 O5 3.318936 1_645
Cs0 O4 3.318936 1_654
Cs1 O4 3.198354 1_555
Cs1 O5 3.198354 1_555
Cs1 O2 3.225050 1_555
Cs1 O3 3.225050 1_555
Cs1 O2 3.310957 1_455
Cs1 O3 3.310957 1_455
Cs1 O6 3.318936 1_456
Cs1 O7 3.318936 1_455
Cs2 O5 3.198354 1_545
Cs2 O4 3.198354 1_555
Cs2 O3 3.225050 1_555
Cs2 O2 3.225050 1_545
Cs2 O2 3.310957 1_445
Cs2 O3 3.310957 1_455
Cs2 O6 3.318936 1_446
Cs2 O7 3.318936 1_455
Cs3 O6 3.198354 1_555
Cs3 O7 3.198354 1_555
Cs3 O1 3.225050 1_555
Cs3 O0 3.225050 1_555
Cs3 O0 3.310957 1_655
Cs3 O1 3.310957 1_655
Cs3 O5 3.318936 1_655
Cs3 O4 3.318936 1_654
C0 H0 1.123223 1_554
C0 O4 1.269678 1_554
C0 O0 1.270493 1_555
C1 H1 1.123223 1_555
C1 O5 1.269678 1_555
C1 O1 1.270493 1_555
C2 H2 1.123223 1_556
C2 O6 1.269678 1_556
C2 O2 1.270493 1_555
C3 H3 1.123223 1_555
C3 O7 1.269678 1_555
C3 O3 1.270493 1_555
