# generated using pymatgen
data_PtS4N3Cl
_symmetry_space_group_name_H-M   'P 1'
_cell_length_a   5.47800800
_cell_length_b   11.42353500
_cell_length_c   13.82715600
_cell_angle_alpha   90.00000000
_cell_angle_beta   90.00000000
_cell_angle_gamma   90.00000000
_symmetry_Int_Tables_number   1
_chemical_formula_structural   PtS4N3Cl
_chemical_formula_sum   'Pt4 S16 N12 Cl4'
_cell_volume   865.27875647
_cell_formula_units_Z   4
loop_
 _symmetry_equiv_pos_site_id
 _symmetry_equiv_pos_as_xyz
  1  'x, y, z'
loop_
 _atom_site_type_symbol
 _atom_site_label
 _atom_site_symmetry_multiplicity
 _atom_site_fract_x
 _atom_site_fract_y
 _atom_site_fract_z
 _atom_site_occupancy
  Pt  Pt0  1  0.48195400  0.67217900  0.25000000  1
  Pt  Pt1  1  0.51804600  0.32782100  0.75000000  1
  Pt  Pt2  1  0.01804600  0.17217900  0.25000000  1
  Pt  Pt3  1  0.98195400  0.82782100  0.75000000  1
  S  S0  1  0.46719700  0.66850100  0.41319300  1
  S  S1  1  0.90210500  0.49078500  0.64317000  1
  S  S2  1  0.59789500  0.99078500  0.85683000  1
  S  S3  1  0.53280300  0.33149900  0.91319300  1
  S  S4  1  0.03280300  0.16850100  0.08680700  1
  S  S5  1  0.96719700  0.83149900  0.91319300  1
  S  S6  1  0.40210500  0.00921500  0.35683000  1
  S  S7  1  0.09789500  0.50921500  0.35683000  1
  S  S8  1  0.96719700  0.83149900  0.58680700  1
  S  S9  1  0.03280300  0.16850100  0.41319300  1
  S  S10  1  0.46719700  0.66850100  0.08680700  1
  S  S11  1  0.53280300  0.33149900  0.58680700  1
  S  S12  1  0.59789500  0.99078500  0.64317000  1
  S  S13  1  0.90210500  0.49078500  0.85683000  1
  S  S14  1  0.09789500  0.50921500  0.14317000  1
  S  S15  1  0.40210500  0.00921500  0.14317000  1
  N  N0  1  0.25238400  0.07565000  0.06384000  1
  N  N1  1  0.75238400  0.42435000  0.93616000  1
  N  N2  1  0.74761600  0.92435000  0.56384000  1
  N  N3  1  0.24761600  0.57565000  0.43616000  1
  N  N4  1  0.78468300  0.44576400  0.75000000  1
  N  N5  1  0.74761600  0.92435000  0.93616000  1
  N  N6  1  0.75238400  0.42435000  0.56384000  1
  N  N7  1  0.24761600  0.57565000  0.06384000  1
  N  N8  1  0.71531700  0.94576400  0.75000000  1
  N  N9  1  0.28468300  0.05423600  0.25000000  1
  N  N10  1  0.25238400  0.07565000  0.43616000  1
  N  N11  1  0.21531700  0.55423600  0.25000000  1
  Cl  Cl0  1  0.78962900  0.81316400  0.25000000  1
  Cl  Cl1  1  0.21037100  0.18683600  0.75000000  1
  Cl  Cl2  1  0.28962900  0.68683600  0.75000000  1
  Cl  Cl3  1  0.71037100  0.31316400  0.25000000  1
loop_
_geom_bond_atom_site_label_1
_geom_bond_atom_site_label_2
_geom_bond_distance
_geom_bond_site_symmetry_2
Pt0 S0 2.258334 1_555
Pt0 S10 2.258334 1_555
Pt1 S3 2.258334 1_555
Pt1 S11 2.258334 1_555
Pt2 S9 2.258334 1_555
Pt2 S4 2.258334 1_555
Pt3 S5 2.258334 1_555
Pt3 S8 2.258334 1_555
N0 S15 1.565840 1_555
N0 S4 1.634868 1_555
N1 S13 1.565840 1_555
N1 S3 1.634868 1_555
N2 S12 1.565840 1_555
N2 S8 1.634868 1_555
N3 S7 1.565840 1_555
N3 S0 1.634868 1_555
N4 S13 1.691226 1_555
N4 S1 1.691226 1_555
N4 Pt1 1.987148 1_555
N5 S2 1.565840 1_555
N5 S5 1.634868 1_555
N6 S1 1.565840 1_555
N6 S11 1.634868 1_555
N7 S14 1.565840 1_555
N7 S10 1.634868 1_555
N8 S12 1.691226 1_555
N8 S2 1.691226 1_555
N8 Pt3 1.987148 1_555
N9 S6 1.691226 1_555
N9 S15 1.691226 1_555
N9 Pt2 1.987148 1_555
N10 S6 1.565840 1_555
N10 S9 1.634868 1_555
N11 S7 1.691226 1_555
N11 S14 1.691226 1_555
N11 Pt0 1.987148 1_555
Cl0 Pt0 2.331221 1_555
Cl1 Pt1 2.331221 1_555
Cl2 Pt3 2.331221 1_455
Cl3 Pt2 2.331221 1_655
