# generated using pymatgen
data_Tb3Si2S8I
_symmetry_space_group_name_H-M   'P 1'
_cell_length_a   8.77160406
_cell_length_b   8.77160406
_cell_length_c   10.69548107
_cell_angle_alpha   81.83968362
_cell_angle_beta   81.83968362
_cell_angle_gamma   51.95747271
_symmetry_Int_Tables_number   1
_chemical_formula_structural   Tb3Si2S8I
_chemical_formula_sum   'Tb6 Si4 S16 I2'
_cell_volume   639.96463337
_cell_formula_units_Z   2
loop_
 _symmetry_equiv_pos_site_id
 _symmetry_equiv_pos_as_xyz
  1  'x, y, z'
loop_
 _atom_site_type_symbol
 _atom_site_label
 _atom_site_symmetry_multiplicity
 _atom_site_fract_x
 _atom_site_fract_y
 _atom_site_fract_z
 _atom_site_occupancy
  Tb  Tb0  1  0.32782400  0.07554500  0.31910900  1
  Tb  Tb1  1  0.92445500  0.67217600  0.18089100  1
  Tb  Tb2  1  0.67217600  0.92445500  0.68089100  1
  Tb  Tb3  1  0.61168600  0.38831400  0.25000000  1
  Tb  Tb4  1  0.07554500  0.32782400  0.81910900  1
  Tb  Tb5  1  0.38831400  0.61168600  0.75000000  1
  Si  Si0  1  0.62027600  0.69632200  0.97454700  1
  Si  Si1  1  0.69632200  0.62027600  0.47454700  1
  Si  Si2  1  0.30367800  0.37972400  0.52545300  1
  Si  Si3  1  0.37972400  0.30367800  0.02545300  1
  S  S0  1  0.14928400  0.28505800  0.08717000  1
  S  S1  1  0.55016000  0.74476600  0.17046000  1
  S  S2  1  0.71494200  0.85071600  0.41283000  1
  S  S3  1  0.25523400  0.44984000  0.32954000  1
  S  S4  1  0.44984000  0.25523400  0.82954000  1
  S  S5  1  0.26928400  0.59531100  0.03488300  1
  S  S6  1  0.74476600  0.55016000  0.67046000  1
  S  S7  1  0.89502200  0.39179600  0.35410500  1
  S  S8  1  0.39179600  0.89502200  0.85410500  1
  S  S9  1  0.40468900  0.73071600  0.46511700  1
  S  S10  1  0.59531100  0.26928400  0.53488300  1
  S  S11  1  0.85071600  0.71494200  0.91283000  1
  S  S12  1  0.60820400  0.10497800  0.14589500  1
  S  S13  1  0.28505800  0.14928400  0.58717000  1
  S  S14  1  0.73071600  0.40468900  0.96511700  1
  S  S15  1  0.10497800  0.60820400  0.64589500  1
  I  I0  1  0.01781700  0.98218300  0.25000000  1
  I  I1  1  0.98218300  0.01781700  0.75000000  1
loop_
_geom_bond_atom_site_label_1
_geom_bond_atom_site_label_2
_geom_bond_distance
_geom_bond_site_symmetry_2
S0 Si3 2.132059 1_555
S0 Tb0 2.871464 1_555
S0 Tb1 2.928483 1_455
S0 Tb4 2.949761 1_554
S1 Si0 2.124682 1_554
S1 Tb3 2.843673 1_555
S1 Tb0 2.864407 1_565
S1 Tb1 2.950315 1_555
S2 Si1 2.132059 1_555
S2 Tb1 2.871464 1_555
S2 Tb0 2.928483 1_565
S2 Tb2 2.949761 1_555
S3 Si2 2.124682 1_555
S3 Tb3 2.843673 1_555
S3 Tb1 2.864407 1_455
S3 Tb0 2.950315 1_555
S4 Si3 2.124682 1_556
S4 Tb5 2.843673 1_555
S4 Tb2 2.864407 1_545
S4 Tb4 2.950315 1_555
S5 Si3 2.117473 1_555
S5 Tb1 2.913176 1_455
S5 Tb5 3.090660 1_554
S5 Tb3 3.415476 1_555
S6 Si1 2.124682 1_555
S6 Tb5 2.843673 1_555
S6 Tb4 2.864407 1_655
S6 Tb2 2.950315 1_555
S7 Si1 2.122292 1_555
S7 Tb3 2.882063 1_555
S7 Tb1 2.983403 1_555
S7 Tb0 3.026458 1_655
S8 Si0 2.122292 1_555
S8 Tb5 2.882063 1_555
S8 Tb2 2.983403 1_555
S8 Tb4 3.026458 1_565
S9 Si1 2.117473 1_555
S9 Tb0 2.913176 1_565
S9 Tb5 3.090660 1_555
S9 Tb3 3.415476 1_555
S10 Si2 2.117473 1_555
S10 Tb2 2.913176 1_545
S10 Tb3 3.090660 1_555
S10 Tb5 3.415476 1_555
S11 Si0 2.132059 1_555
S11 Tb2 2.871464 1_555
S11 Tb4 2.928483 1_655
S11 Tb1 2.949761 1_556
S12 Si3 2.122292 1_555
S12 Tb3 2.882063 1_555
S12 Tb0 2.983403 1_555
S12 Tb1 3.026458 1_545
S13 Si2 2.132059 1_555
S13 Tb4 2.871464 1_555
S13 Tb2 2.928483 1_545
S13 Tb0 2.949761 1_555
S14 Si0 2.117473 1_555
S14 Tb4 2.913176 1_655
S14 Tb3 3.090660 1_556
S14 Tb5 3.415476 1_555
S15 Si2 2.122292 1_555
S15 Tb5 2.882063 1_555
S15 Tb4 2.983403 1_555
S15 Tb2 3.026458 1_455
I0 Tb3 3.120948 1_465
I0 Tb0 3.478281 1_565
I0 Tb1 3.478281 1_455
I1 Tb5 3.120948 1_645
I1 Tb2 3.478281 1_545
I1 Tb4 3.478281 1_655
