# generated using pymatgen
data_CsFeF3
_symmetry_space_group_name_H-M   'P 1'
_cell_length_a   6.30087318
_cell_length_b   6.30087318
_cell_length_c   14.84748200
_cell_angle_alpha   90.00000000
_cell_angle_beta   90.00000000
_cell_angle_gamma   119.99999136
_symmetry_Int_Tables_number   1
_chemical_formula_structural   CsFeF3
_chemical_formula_sum   'Cs6 Fe6 F18'
_cell_volume   510.48731347
_cell_formula_units_Z   6
loop_
 _symmetry_equiv_pos_site_id
 _symmetry_equiv_pos_as_xyz
  1  'x, y, z'
loop_
 _atom_site_type_symbol
 _atom_site_label
 _atom_site_symmetry_multiplicity
 _atom_site_fract_x
 _atom_site_fract_y
 _atom_site_fract_z
 _atom_site_occupancy
  Cs  Cs0  1  0.00000000  0.00000000  0.25000000  1
  Cs  Cs1  1  0.00000000  0.00000000  0.75000000  1
  Cs  Cs2  1  0.33333300  0.66666700  0.09535500  1
  Cs  Cs3  1  0.66666700  0.33333300  0.59535500  1
  Cs  Cs4  1  0.66666700  0.33333300  0.90464500  1
  Cs  Cs5  1  0.33333300  0.66666700  0.40464500  1
  Fe  Fe0  1  0.00000000  0.00000000  0.00000000  1
  Fe  Fe1  1  0.33333300  0.66666700  0.65296400  1
  Fe  Fe2  1  0.66666700  0.33333300  0.15296400  1
  Fe  Fe3  1  0.66666700  0.33333300  0.34703600  1
  Fe  Fe4  1  0.33333300  0.66666700  0.84703600  1
  Fe  Fe5  1  0.00000000  0.00000000  0.50000000  1
  F  F0  1  0.33191600  0.16595800  0.07892800  1
  F  F1  1  0.83404200  0.16595800  0.42107200  1
  F  F2  1  0.83404200  0.66808400  0.42107200  1
  F  F3  1  0.33191600  0.16595800  0.42107200  1
  F  F4  1  0.66808400  0.83404200  0.92107200  1
  F  F5  1  0.16595800  0.33191600  0.57892800  1
  F  F6  1  0.52208800  0.04417600  0.25000000  1
  F  F7  1  0.47791200  0.52208800  0.75000000  1
  F  F8  1  0.04417600  0.52208800  0.75000000  1
  F  F9  1  0.95582400  0.47791200  0.25000000  1
  F  F10  1  0.52208800  0.47791200  0.25000000  1
  F  F11  1  0.47791200  0.95582400  0.75000000  1
  F  F12  1  0.83404200  0.66808400  0.07892800  1
  F  F13  1  0.16595800  0.83404200  0.57892800  1
  F  F14  1  0.66808400  0.83404200  0.57892800  1
  F  F15  1  0.16595800  0.33191600  0.92107200  1
  F  F16  1  0.83404200  0.16595800  0.07892800  1
  F  F17  1  0.16595800  0.83404200  0.92107200  1
loop_
_geom_bond_atom_site_label_1
_geom_bond_atom_site_label_2
_geom_bond_distance
_geom_bond_site_symmetry_2
Cs0 F16 3.119597 1_455
Cs0 F1 3.119597 1_455
Cs0 F12 3.119597 1_445
Cs0 F0 3.119597 1_555
Cs0 F2 3.119597 1_445
Cs0 F3 3.119597 1_555
Cs0 F6 3.159645 1_455
Cs0 F9 3.159645 1_455
Cs0 F9 3.159645 1_445
Cs0 F6 3.159645 1_555
Cs0 F10 3.159646 1_445
Cs0 F10 3.159646 1_555
Cs1 F17 3.119597 1_545
Cs1 F13 3.119597 1_545
Cs1 F14 3.119597 1_445
Cs1 F4 3.119597 1_445
Cs1 F5 3.119597 1_555
Cs1 F15 3.119597 1_555
Cs1 F11 3.159645 1_545
Cs1 F8 3.159645 1_545
Cs1 F8 3.159645 1_555
Cs1 F11 3.159645 1_445
Cs1 F7 3.159646 1_555
Cs1 F7 3.159646 1_445
Cs2 F6 3.084714 1_565
Cs2 F9 3.084714 1_455
Cs2 F10 3.084717 1_555
Cs2 F12 3.159870 1_455
Cs2 F0 3.159870 1_565
Cs2 F16 3.159873 1_565
Cs2 F16 3.159873 1_455
Cs2 F12 3.159876 1_555
Cs2 F0 3.159876 1_555
Cs2 F17 3.167428 1_554
Cs2 F15 3.167431 1_554
Cs2 F4 3.167431 1_554
Cs3 F11 3.084714 1_545
Cs3 F8 3.084714 1_655
Cs3 F7 3.084717 1_555
Cs3 F5 3.159870 1_655
Cs3 F14 3.159870 1_545
Cs3 F13 3.159873 1_655
Cs3 F13 3.159873 1_545
Cs3 F14 3.159876 1_555
Cs3 F5 3.159876 1_555
Cs3 F1 3.167428 1_555
Cs3 F2 3.167431 1_555
Cs3 F3 3.167431 1_555
Cs4 F11 3.084714 1_545
Cs4 F8 3.084714 1_655
Cs4 F7 3.084717 1_555
Cs4 F4 3.159870 1_545
Cs4 F15 3.159870 1_655
Cs4 F17 3.159873 1_655
Cs4 F17 3.159873 1_545
Cs4 F4 3.159876 1_555
Cs4 F15 3.159876 1_555
Cs4 F16 3.167428 1_556
Cs4 F12 3.167431 1_556
Cs4 F0 3.167431 1_556
Cs5 F6 3.084714 1_565
Cs5 F9 3.084714 1_455
Cs5 F10 3.084717 1_555
Cs5 F3 3.159870 1_565
Cs5 F2 3.159870 1_455
Cs5 F1 3.159873 1_565
Cs5 F1 3.159873 1_455
Cs5 F2 3.159876 1_555
Cs5 F3 3.159876 1_555
Cs5 F13 3.167428 1_555
Cs5 F5 3.167431 1_555
Cs5 F14 3.167431 1_555
F0 Fe2 2.131892 1_555
F0 Fe0 2.157232 1_555
F1 Fe3 2.131888 1_555
F1 Fe5 2.157232 1_655
F2 Fe3 2.131892 1_555
F2 Fe5 2.157232 1_665
F3 Fe3 2.131892 1_555
F3 Fe5 2.157232 1_555
F4 Fe4 2.131892 1_555
F4 Fe0 2.157232 1_666
F5 Fe1 2.131892 1_555
F5 Fe5 2.157232 1_555
F6 Fe3 2.136665 1_555
F6 Fe2 2.136665 1_555
F7 Fe1 2.136669 1_555
F7 Fe4 2.136669 1_555
F8 Fe4 2.136665 1_555
F8 Fe1 2.136665 1_555
F9 Fe3 2.136665 1_555
F9 Fe2 2.136665 1_555
F10 Fe2 2.136669 1_555
F10 Fe3 2.136669 1_555
F11 Fe4 2.136665 1_555
F11 Fe1 2.136665 1_555
F12 Fe2 2.131892 1_555
F12 Fe0 2.157232 1_665
F13 Fe1 2.131888 1_555
F13 Fe5 2.157232 1_565
F14 Fe1 2.131892 1_555
F14 Fe5 2.157232 1_665
F15 Fe4 2.131892 1_555
F15 Fe0 2.157232 1_556
F16 Fe2 2.131888 1_555
F16 Fe0 2.157232 1_655
F17 Fe4 2.131888 1_555
F17 Fe0 2.157232 1_566
