# generated using pymatgen
data_KPr6OsI10
_symmetry_space_group_name_H-M   'P 1'
_cell_length_a   13.86001800
_cell_length_b   14.33486300
_cell_length_c   15.82894100
_cell_angle_alpha   90.00000000
_cell_angle_beta   90.00000000
_cell_angle_gamma   90.00000000
_symmetry_Int_Tables_number   1
_chemical_formula_structural   KPr6OsI10
_chemical_formula_sum   'K4 Pr24 Os4 I40'
_cell_volume   3144.91709559
_cell_formula_units_Z   4
loop_
 _symmetry_equiv_pos_site_id
 _symmetry_equiv_pos_as_xyz
  1  'x, y, z'
loop_
 _atom_site_type_symbol
 _atom_site_label
 _atom_site_symmetry_multiplicity
 _atom_site_fract_x
 _atom_site_fract_y
 _atom_site_fract_z
 _atom_site_occupancy
  K  K0  1  0.75000000  0.48542700  0.44103200  1
  K  K1  1  0.25000000  0.98542700  0.05896800  1
  K  K2  1  0.25000000  0.51457300  0.55896800  1
  K  K3  1  0.75000000  0.01457300  0.94103200  1
  Pr  Pr0  1  0.10644600  0.38070200  0.05807300  1
  Pr  Pr1  1  0.89355400  0.88070200  0.44192700  1
  Pr  Pr2  1  0.25000000  0.61258800  0.98495000  1
  Pr  Pr3  1  0.10644600  0.11929800  0.55807300  1
  Pr  Pr4  1  0.75000000  0.38741200  0.01505000  1
  Pr  Pr5  1  0.39220100  0.61569800  0.20315400  1
  Pr  Pr6  1  0.89355400  0.61929800  0.94192700  1
  Pr  Pr7  1  0.60779900  0.38430200  0.79684600  1
  Pr  Pr8  1  0.89220100  0.11569800  0.29684600  1
  Pr  Pr9  1  0.75000000  0.61158500  0.72395700  1
  Pr  Pr10  1  0.10779900  0.88430200  0.70315400  1
  Pr  Pr11  1  0.75000000  0.11258800  0.51505000  1
  Pr  Pr12  1  0.60644600  0.61929800  0.94192700  1
  Pr  Pr13  1  0.25000000  0.11158500  0.77604300  1
  Pr  Pr14  1  0.39220100  0.88430200  0.70315400  1
  Pr  Pr15  1  0.39355400  0.38070200  0.05807300  1
  Pr  Pr16  1  0.10779900  0.61569800  0.20315400  1
  Pr  Pr17  1  0.39355400  0.11929800  0.55807300  1
  Pr  Pr18  1  0.89220100  0.38430200  0.79684600  1
  Pr  Pr19  1  0.25000000  0.38841500  0.27604300  1
  Pr  Pr20  1  0.75000000  0.88841500  0.22395700  1
  Pr  Pr21  1  0.25000000  0.88741200  0.48495000  1
  Pr  Pr22  1  0.60644600  0.88070200  0.44192700  1
  Pr  Pr23  1  0.60779900  0.11569800  0.29684600  1
  Os  Os0  1  0.75000000  0.50117600  0.87116800  1
  Os  Os1  1  0.25000000  0.00117600  0.62883200  1
  Os  Os2  1  0.25000000  0.49882400  0.12883200  1
  Os  Os3  1  0.75000000  0.99882400  0.37116800  1
  I  I0  1  0.41709900  0.49710000  0.87706800  1
  I  I1  1  0.91077600  0.76378400  0.78748800  1
  I  I2  1  0.07675100  0.75078600  0.03834500  1
  I  I3  1  0.25000000  0.23199900  0.96795800  1
  I  I4  1  0.42324900  0.75078600  0.03834500  1
  I  I5  1  0.25000000  0.77485300  0.28078700  1
  I  I6  1  0.08290100  0.49710000  0.87706800  1
  I  I7  1  0.75000000  0.22514700  0.71921300  1
  I  I8  1  0.75000000  0.27485300  0.21921300  1
  I  I9  1  0.25000000  0.26800100  0.46795800  1
  I  I10  1  0.91077600  0.73621600  0.28748800  1
  I  I11  1  0.41077600  0.23621600  0.21251200  1
  I  I12  1  0.91441300  0.49695700  0.62166200  1
  I  I13  1  0.41709900  0.00290000  0.37706800  1
  I  I14  1  0.58290100  0.99710000  0.62293200  1
  I  I15  1  0.08290100  0.00290000  0.37706800  1
  I  I16  1  0.58558700  0.00304300  0.12166200  1
  I  I17  1  0.08922400  0.23621600  0.21251200  1
  I  I18  1  0.57675100  0.24921400  0.96165500  1
  I  I19  1  0.75000000  0.73199900  0.53204200  1
  I  I20  1  0.91441300  0.00304300  0.12166200  1
  I  I21  1  0.41441300  0.50304300  0.37833800  1
  I  I22  1  0.41077600  0.26378400  0.71251200  1
  I  I23  1  0.91709900  0.50290000  0.12293200  1
  I  I24  1  0.41441300  0.99695700  0.87833800  1
  I  I25  1  0.58558700  0.49695700  0.62166200  1
  I  I26  1  0.75000000  0.76800100  0.03204200  1
  I  I27  1  0.58922400  0.76378400  0.78748800  1
  I  I28  1  0.58922400  0.73621600  0.28748800  1
  I  I29  1  0.07675100  0.74921400  0.53834500  1
  I  I30  1  0.92324900  0.24921400  0.96165500  1
  I  I31  1  0.42324900  0.74921400  0.53834500  1
  I  I32  1  0.91709900  0.99710000  0.62293200  1
  I  I33  1  0.08558700  0.99695700  0.87833800  1
  I  I34  1  0.08922400  0.26378400  0.71251200  1
  I  I35  1  0.25000000  0.72514700  0.78078700  1
  I  I36  1  0.92324900  0.25078600  0.46165500  1
  I  I37  1  0.08558700  0.50304300  0.37833800  1
  I  I38  1  0.58290100  0.50290000  0.12293200  1
  I  I39  1  0.57675100  0.25078600  0.46165500  1
loop_
_geom_bond_atom_site_label_1
_geom_bond_atom_site_label_2
_geom_bond_distance
_geom_bond_site_symmetry_2
Os0 Pr4 2.801158 1_556
Os0 Pr9 2.816867 1_555
Os0 Pr18 2.841718 1_555
Os0 Pr7 2.841718 1_555
Os0 Pr12 2.842601 1_555
Os0 Pr6 2.842601 1_555
Os1 Pr21 2.801158 1_545
Os1 Pr13 2.816867 1_555
Os1 Pr10 2.841718 1_545
Os1 Pr14 2.841718 1_545
Os1 Pr3 2.842601 1_555
Os1 Pr17 2.842601 1_555
Os2 Pr2 2.801158 1_554
Os2 Pr19 2.816867 1_555
Os2 Pr5 2.841718 1_555
Os2 Pr16 2.841718 1_555
Os2 Pr15 2.842601 1_555
Os2 Pr0 2.842601 1_555
Os3 Pr11 2.801158 1_565
Os3 Pr20 2.816867 1_555
Os3 Pr23 2.841718 1_565
Os3 Pr8 2.841718 1_565
Os3 Pr22 2.842601 1_555
Os3 Pr1 2.842601 1_555
I0 Pr12 3.318081 1_555
I0 Pr2 3.319733 1_555
I0 Pr15 3.331584 1_556
I0 Pr7 3.348579 1_555
I1 Pr6 3.212925 1_555
I1 Pr9 3.276722 1_555
I1 Pr10 3.496225 1_655
I2 Pr2 3.225651 1_554
I2 Pr16 3.277297 1_555
I2 Pr6 3.511278 1_454
I2 K1 4.145592 1_555
I3 Pr15 3.246123 1_556
I3 Pr0 3.246123 1_556
I3 Pr13 3.493964 1_555
I3 K1 3.816875 1_546
I4 Pr2 3.225651 1_554
I4 Pr5 3.277297 1_555
I4 Pr12 3.511278 1_554
I4 K1 4.145592 1_555
I5 Pr16 3.255707 1_555
I5 Pr5 3.255707 1_555
I5 Pr21 3.612094 1_555
I6 Pr6 3.318081 1_455
I6 Pr2 3.319733 1_555
I6 Pr0 3.331584 1_556
I6 Pr18 3.348579 1_455
I7 Pr18 3.255707 1_555
I7 Pr7 3.255707 1_555
I7 Pr11 3.612094 1_555
I8 Pr23 3.255707 1_555
I8 Pr8 3.255707 1_555
I8 Pr4 3.612094 1_555
I9 Pr17 3.246123 1_555
I9 Pr3 3.246123 1_555
I9 Pr19 3.493964 1_555
I9 K2 3.816875 1_555
I10 Pr1 3.212925 1_555
I10 Pr20 3.276722 1_555
I10 Pr16 3.496225 1_655
I11 Pr15 3.212925 1_555
I11 Pr19 3.276722 1_555
I11 Pr23 3.496225 1_555
I12 Pr18 3.223672 1_555
I12 Pr9 3.242636 1_555
I12 K0 3.659920 1_555
I13 Pr22 3.318081 1_545
I13 Pr21 3.319733 1_545
I13 Pr17 3.331584 1_555
I13 Pr23 3.348579 1_555
I14 Pr17 3.318081 1_565
I14 Pr11 3.319733 1_565
I14 Pr22 3.331584 1_555
I14 Pr14 3.348579 1_555
I15 Pr1 3.318081 1_445
I15 Pr21 3.319733 1_545
I15 Pr3 3.331584 1_555
I15 Pr8 3.348579 1_455
I16 Pr23 3.223672 1_555
I16 Pr20 3.242636 1_545
I16 K3 3.659920 1_554
I17 Pr0 3.212925 1_555
I17 Pr19 3.276722 1_555
I17 Pr8 3.496225 1_455
I18 Pr4 3.225651 1_556
I18 Pr7 3.277297 1_555
I18 Pr15 3.511278 1_556
I18 K3 4.145592 1_555
I19 Pr1 3.246123 1_555
I19 Pr22 3.246123 1_555
I19 Pr9 3.493964 1_555
I19 K0 3.816875 1_555
I20 Pr8 3.223672 1_555
I20 Pr20 3.242636 1_545
I20 K3 3.659920 1_554
I21 Pr5 3.223672 1_555
I21 Pr19 3.242636 1_555
I21 K2 3.659920 1_555
I22 Pr17 3.212925 1_555
I22 Pr13 3.276722 1_555
I22 Pr7 3.496225 1_555
I23 Pr0 3.318081 1_655
I23 Pr4 3.319733 1_555
I23 Pr6 3.331584 1_554
I23 Pr16 3.348579 1_655
I24 Pr14 3.223672 1_555
I24 Pr13 3.242636 1_565
I24 K1 3.659920 1_556
I25 Pr7 3.223672 1_555
I25 Pr9 3.242636 1_555
I25 K0 3.659920 1_555
I26 Pr12 3.246123 1_554
I26 Pr6 3.246123 1_554
I26 Pr20 3.493964 1_555
I26 K3 3.816875 1_564
I27 Pr12 3.212925 1_555
I27 Pr9 3.276722 1_555
I27 Pr14 3.496225 1_555
I28 Pr22 3.212925 1_555
I28 Pr20 3.276722 1_555
I28 Pr5 3.496225 1_555
I29 Pr21 3.225651 1_555
I29 Pr10 3.277297 1_555
I29 Pr1 3.511278 1_455
I29 K2 4.145592 1_555
I30 Pr4 3.225651 1_556
I30 Pr18 3.277297 1_555
I30 Pr0 3.511278 1_656
I30 K3 4.145592 1_555
I31 Pr21 3.225651 1_555
I31 Pr14 3.277297 1_555
I31 Pr22 3.511278 1_555
I31 K2 4.145592 1_555
I32 Pr3 3.318081 1_665
I32 Pr11 3.319733 1_565
I32 Pr1 3.331584 1_555
I32 Pr10 3.348579 1_655
I33 Pr10 3.223672 1_555
I33 Pr13 3.242636 1_565
I33 K1 3.659920 1_556
I34 Pr3 3.212925 1_555
I34 Pr13 3.276722 1_555
I34 Pr18 3.496225 1_455
I35 Pr14 3.255707 1_555
I35 Pr10 3.255707 1_555
I35 Pr2 3.612094 1_555
I36 Pr11 3.225651 1_555
I36 Pr8 3.277297 1_555
I36 Pr3 3.511278 1_655
I36 K0 4.145592 1_555
I37 Pr16 3.223672 1_555
I37 Pr19 3.242636 1_555
I37 K2 3.659920 1_555
I38 Pr15 3.318081 1_555
I38 Pr4 3.319733 1_555
I38 Pr12 3.331584 1_554
I38 Pr5 3.348579 1_555
I39 Pr11 3.225651 1_555
I39 Pr23 3.277297 1_555
I39 Pr17 3.511278 1_555
I39 K0 4.145592 1_555
