# generated using pymatgen
data_Pr(NiGe)2
_symmetry_space_group_name_H-M   'P 1'
_cell_length_a   4.14527785
_cell_length_b   4.14527829
_cell_length_c   5.71719590
_cell_angle_alpha   111.25547465
_cell_angle_beta   111.25547205
_cell_angle_gamma   90.00000855
_symmetry_Int_Tables_number   1
_chemical_formula_structural   Pr(NiGe)2
_chemical_formula_sum   'Pr1 Ni2 Ge2'
_cell_volume   84.34664605
_cell_formula_units_Z   1
loop_
 _symmetry_equiv_pos_site_id
 _symmetry_equiv_pos_as_xyz
  1  'x, y, z'
loop_
 _atom_site_type_symbol
 _atom_site_label
 _atom_site_symmetry_multiplicity
 _atom_site_fract_x
 _atom_site_fract_y
 _atom_site_fract_z
 _atom_site_occupancy
  Pr  Pr0  1  0.00000000  0.00000000  0.00000000  1
  Ni  Ni0  1  0.75000000  0.25000000  0.50000000  1
  Ni  Ni1  1  0.25000000  0.75000000  0.50000000  1
  Ge  Ge0  1  0.63448802  0.63448802  0.26897705  1
  Ge  Ge1  1  0.36551198  0.36551198  0.73102295  1
loop_
_geom_bond_atom_site_label_1
_geom_bond_atom_site_label_2
_geom_bond_distance
_geom_bond_site_symmetry_2
Ni0 Pr0 3.212398 1_655
Ni0 Pr0 3.212398 1_656
Ni0 Pr0 3.212398 1_555
Ni0 Pr0 3.212398 1_666
Ni1 Pr0 3.212398 1_566
Ni1 Pr0 3.212398 1_565
Ni1 Pr0 3.212398 1_666
Ni1 Pr0 3.212398 1_555
Ge0 Ni1 2.362582 1_555
Ge0 Ni0 2.362582 1_555
Ge0 Ni1 2.362586 1_655
Ge0 Ni0 2.362586 1_565
Ge0 Ge1 2.640619 1_554
Ge0 Pr0 3.214788 1_555
Ge0 Pr0 3.214791 1_655
Ge0 Pr0 3.214791 1_565
Ge0 Pr0 3.214793 1_665
Ge1 Ni0 2.362582 1_555
Ge1 Ni1 2.362582 1_555
Ge1 Ni0 2.362586 1_455
Ge1 Ni1 2.362586 1_545
Ge1 Pr0 3.214788 1_666
Ge1 Pr0 3.214791 1_566
Ge1 Pr0 3.214791 1_656
Ge1 Pr0 3.214793 1_556
