# generated using pymatgen
data_Na2Si3O7
_symmetry_space_group_name_H-M   'P 1'
_cell_length_a   10.73429100
_cell_length_b   7.29481100
_cell_length_c   9.93890713
_cell_angle_alpha   59.71806733
_cell_angle_beta   90.00000000
_cell_angle_gamma   90.00000000
_symmetry_Int_Tables_number   1
_chemical_formula_structural   Na2Si3O7
_chemical_formula_sum   'Na8 Si12 O28'
_cell_volume   672.07206607
_cell_formula_units_Z   4
loop_
 _symmetry_equiv_pos_site_id
 _symmetry_equiv_pos_as_xyz
  1  'x, y, z'
loop_
 _atom_site_type_symbol
 _atom_site_label
 _atom_site_symmetry_multiplicity
 _atom_site_fract_x
 _atom_site_fract_y
 _atom_site_fract_z
 _atom_site_occupancy
  Na  Na0  1  0.30359700  0.78889400  0.62242200  1
  Na  Na1  1  0.93954100  0.74872700  0.57001700  1
  Na  Na2  1  0.56045900  0.74872700  0.07001700  1
  Na  Na3  1  0.43954100  0.25127300  0.92998300  1
  Na  Na4  1  0.19640300  0.78889400  0.12242200  1
  Na  Na5  1  0.06045900  0.25127300  0.42998300  1
  Na  Na6  1  0.69640300  0.21110600  0.37757800  1
  Na  Na7  1  0.80359700  0.21110600  0.87757800  1
  Si  Si0  1  0.81680000  0.62057200  0.97592700  1
  Si  Si1  1  0.43161400  0.83520900  0.31575600  1
  Si  Si2  1  0.18320000  0.37942800  0.02407300  1
  Si  Si3  1  0.39382800  0.27799400  0.27282000  1
  Si  Si4  1  0.89382800  0.72200600  0.22718000  1
  Si  Si5  1  0.10617200  0.27799400  0.77282000  1
  Si  Si6  1  0.68320000  0.62057200  0.47592700  1
  Si  Si7  1  0.06838600  0.83520900  0.81575600  1
  Si  Si8  1  0.31680000  0.37942800  0.52407300  1
  Si  Si9  1  0.60617200  0.72200600  0.72718000  1
  Si  Si10  1  0.56838600  0.16479100  0.68424400  1
  Si  Si11  1  0.93161400  0.16479100  0.18424400  1
  O  O0  1  0.85590800  0.37320900  0.04588800  1
  O  O1  1  0.70449800  0.67254300  0.61723600  1
  O  O2  1  0.10532800  0.89763000  0.64334800  1
  O  O3  1  0.39467200  0.89763000  0.14334800  1
  O  O4  1  0.20449800  0.32745700  0.88276400  1
  O  O5  1  0.97533600  0.38965900  0.74329400  1
  O  O6  1  0.29550200  0.32745700  0.38276400  1
  O  O7  1  0.60183000  0.98590900  0.63369600  1
  O  O8  1  0.14409200  0.62679100  0.95411200  1
  O  O9  1  0.08329100  0.21650100  0.15251500  1
  O  O10  1  0.41670900  0.21650100  0.65251500  1
  O  O11  1  0.10183000  0.01409100  0.86630400  1
  O  O12  1  0.89467200  0.10237000  0.35665200  1
  O  O13  1  0.89817000  0.98590900  0.13369600  1
  O  O14  1  0.02466400  0.61034100  0.25670600  1
  O  O15  1  0.18234300  0.35048200  0.60780700  1
  O  O16  1  0.35590800  0.62679100  0.45411200  1
  O  O17  1  0.58329100  0.78349900  0.34748500  1
  O  O18  1  0.31765700  0.35048200  0.10780700  1
  O  O19  1  0.52466400  0.38965900  0.24329400  1
  O  O20  1  0.91670900  0.78349900  0.84748500  1
  O  O21  1  0.64409200  0.37320900  0.54588800  1
  O  O22  1  0.47533600  0.61034100  0.75670600  1
  O  O23  1  0.79550200  0.67254300  0.11723600  1
  O  O24  1  0.39817000  0.01409100  0.36630400  1
  O  O25  1  0.68234300  0.64951800  0.89219300  1
  O  O26  1  0.81765700  0.64951800  0.39219300  1
  O  O27  1  0.60532800  0.10237000  0.85665200  1
loop_
_geom_bond_atom_site_label_1
_geom_bond_atom_site_label_2
_geom_bond_distance
_geom_bond_site_symmetry_2
Na0 O22 2.263425 1_555
Na0 O2 2.316976 1_555
Na0 O24 2.447794 1_565
Na0 O16 2.550866 1_555
Na1 O5 2.329183 1_555
Na1 O2 2.382534 1_655
Na1 O12 2.422169 1_565
Na1 O1 2.575208 1_555
Na1 O26 2.578581 1_555
Na1 O20 2.904297 1_555
Na2 O19 2.329183 1_555
Na2 O3 2.382534 1_555
Na2 O27 2.422169 1_564
Na2 O23 2.575208 1_555
Na2 O25 2.578581 1_554
Na2 O17 2.904297 1_555
Na3 O22 2.329183 1_555
Na3 O27 2.382534 1_555
Na3 O3 2.422169 1_546
Na3 O4 2.575208 1_555
Na3 O18 2.578581 1_556
Na3 O10 2.904297 1_555
Na4 O14 2.263425 1_555
Na4 O3 2.316976 1_555
Na4 O11 2.447794 1_564
Na4 O8 2.550866 1_554
Na5 O14 2.329183 1_555
Na5 O12 2.382534 1_455
Na5 O2 2.422169 1_545
Na5 O6 2.575208 1_555
Na5 O15 2.578581 1_555
Na5 O9 2.904297 1_555
Na6 O19 2.263425 1_555
Na6 O12 2.316976 1_555
Na6 O7 2.447794 1_545
Na6 O21 2.550866 1_555
Na7 O5 2.263425 1_555
Na7 O27 2.316976 1_555
Na7 O13 2.447794 1_546
Na7 O0 2.550866 1_556
O0 Si0 1.628015 1_554
O0 Si11 1.659633 1_555
O1 Si6 1.644836 1_555
O1 Si9 1.684004 1_555
O2 Si7 1.585539 1_555
O3 Si1 1.585539 1_555
O4 Si2 1.644836 1_556
O4 Si5 1.684004 1_555
O5 Si5 1.575119 1_655
O6 Si8 1.644836 1_555
O6 Si3 1.684004 1_555
O7 Si10 1.656872 1_565
O7 Si9 1.663622 1_555
O8 Si2 1.628015 1_556
O8 Si7 1.659633 1_555
O9 Si2 1.631634 1_555
O9 Si11 1.665120 1_455
O10 Si8 1.631634 1_555
O10 Si10 1.665120 1_555
O11 Si7 1.656872 1_545
O11 Si5 1.663622 1_555
O12 Si11 1.585539 1_555
O13 Si11 1.656872 1_565
O13 Si4 1.663622 1_555
O14 Si4 1.575119 1_455
O15 Si8 1.625754 1_555
O15 Si5 1.662317 1_555
O16 Si8 1.628015 1_555
O16 Si1 1.659633 1_555
O17 Si6 1.631634 1_555
O17 Si1 1.665120 1_555
O18 Si2 1.625754 1_555
O18 Si3 1.662317 1_555
O19 Si3 1.575119 1_555
O20 Si0 1.631634 1_555
O20 Si7 1.665120 1_655
O21 Si6 1.628015 1_555
O21 Si10 1.659633 1_555
O22 Si9 1.575119 1_555
O23 Si0 1.644836 1_554
O23 Si4 1.684004 1_555
O24 Si1 1.656872 1_545
O24 Si3 1.663622 1_555
O25 Si0 1.625754 1_555
O25 Si9 1.662317 1_555
O26 Si6 1.625754 1_555
O26 Si4 1.662317 1_555
O27 Si10 1.585539 1_555
