# generated using pymatgen
data_Er2TiO5
_symmetry_space_group_name_H-M   'P 1'
_cell_length_a   7.38853199
_cell_length_b   7.38853199
_cell_length_c   17.68892712
_cell_angle_alpha   89.53947370
_cell_angle_beta   89.53947370
_cell_angle_gamma   58.70657702
_symmetry_Int_Tables_number   1
_chemical_formula_structural   Er2TiO5
_chemical_formula_sum   'Er16 Ti8 O40'
_cell_volume   825.12698652
_cell_formula_units_Z   8
loop_
 _symmetry_equiv_pos_site_id
 _symmetry_equiv_pos_as_xyz
  1  'x, y, z'
loop_
 _atom_site_type_symbol
 _atom_site_label
 _atom_site_symmetry_multiplicity
 _atom_site_fract_x
 _atom_site_fract_y
 _atom_site_fract_z
 _atom_site_occupancy
  Er  Er0  1  0.34194000  0.34194000  0.17838800  1
  Er  Er1  1  0.51548200  0.51548200  0.99776900  1
  Er  Er2  1  0.82655200  0.82655200  0.15157300  1
  Er  Er3  1  0.82681300  0.33844900  0.16655900  1
  Er  Er4  1  0.01609700  0.01609700  0.51439100  1
  Er  Er5  1  0.98247300  0.98247300  0.99102600  1
  Er  Er6  1  0.33844900  0.82681300  0.16655900  1
  Er  Er7  1  0.49673100  0.49673100  0.50605000  1
  Er  Er8  1  0.50087500  0.01979500  0.50544900  1
  Er  Er9  1  0.68584300  0.68584300  0.32642300  1
  Er  Er10  1  0.18179600  0.18179600  0.34098600  1
  Er  Er11  1  0.01979500  0.50087500  0.50544900  1
  Er  Er12  1  0.17253300  0.17253300  0.84521100  1
  Er  Er13  1  0.19038500  0.68250800  0.82197300  1
  Er  Er14  1  0.34888000  0.34888000  0.67242800  1
  Er  Er15  1  0.68250800  0.19038500  0.82197300  1
  Ti  Ti0  1  0.02453300  0.50017600  0.99954600  1
  Ti  Ti1  1  0.50017600  0.02453300  0.99954600  1
  Ti  Ti2  1  0.16697400  0.67277000  0.33382600  1
  Ti  Ti3  1  0.83734100  0.83734100  0.67266700  1
  Ti  Ti4  1  0.67277000  0.16697400  0.33382600  1
  Ti  Ti5  1  0.84036200  0.34805000  0.66314400  1
  Ti  Ti6  1  0.66618600  0.66618600  0.83705800  1
  Ti  Ti7  1  0.34805000  0.84036200  0.66314400  1
  O  O0  1  0.80990100  0.80990100  0.02406300  1
  O  O1  1  0.69868100  0.13577100  0.20956700  1
  O  O2  1  0.13577100  0.69868100  0.20956700  1
  O  O3  1  0.84994100  0.29464000  0.04253700  1
  O  O4  1  0.33449100  0.78738100  0.31741400  1
  O  O5  1  0.49371900  0.49371900  0.12194300  1
  O  O6  1  0.36217500  0.36217500  0.30972100  1
  O  O7  1  0.37909400  0.81274000  0.54693200  1
  O  O8  1  0.16102200  0.16102200  0.21564800  1
  O  O9  1  0.29464000  0.84994100  0.04253700  1
  O  O10  1  0.78738100  0.33449100  0.31741400  1
  O  O11  1  0.48081700  0.05175400  0.10387800  1
  O  O12  1  0.67876700  0.67876700  0.20514200  1
  O  O13  1  0.81274000  0.37909400  0.54693200  1
  O  O14  1  0.51756900  0.98608100  0.38155600  1
  O  O15  1  0.96925500  0.50791400  0.65312600  1
  O  O16  1  0.16742500  0.16742500  0.46458200  1
  O  O17  1  0.87493400  0.50881600  0.90706300  1
  O  O18  1  0.08348200  0.08348200  0.63700900  1
  O  O19  1  0.88146000  0.88146000  0.32383400  1
  O  O20  1  0.98608100  0.51756900  0.38155600  1
  O  O21  1  0.05175400  0.48081700  0.10387800  1
  O  O22  1  0.84367900  0.84367900  0.55912100  1
  O  O23  1  0.50791400  0.96925500  0.65312600  1
  O  O24  1  0.18688300  0.69079200  0.44309200  1
  O  O25  1  0.50881600  0.87493400  0.90706300  1
  O  O26  1  0.32831400  0.32831400  0.79448400  1
  O  O27  1  0.13162700  0.72519600  0.69371800  1
  O  O28  1  0.34298300  0.34298300  0.55026900  1
  O  O29  1  0.79930200  0.79930200  0.78261900  1
  O  O30  1  0.60765500  0.18203100  0.95630500  1
  O  O31  1  0.52622500  0.52622500  0.65766200  1
  O  O32  1  0.69079200  0.18688300  0.44309200  1
  O  O33  1  0.51871800  0.51871800  0.86266800  1
  O  O34  1  0.72519600  0.13162700  0.69371800  1
  O  O35  1  0.18203100  0.60765500  0.95630500  1
  O  O36  1  0.85827800  0.35545700  0.77259600  1
  O  O37  1  0.00311100  0.00311100  0.87160600  1
  O  O38  1  0.21914700  0.21914700  0.96586000  1
  O  O39  1  0.35545700  0.85827800  0.77259600  1
loop_
_geom_bond_atom_site_label_1
_geom_bond_atom_site_label_2
_geom_bond_distance
_geom_bond_site_symmetry_2
Er0 O5 2.186900 1_555
Er0 O21 2.263886 1_555
Er0 O11 2.263886 1_555
Er0 O1 2.326118 1_555
Er0 O2 2.326118 1_555
Er0 O6 2.340101 1_555
Er0 O8 2.415766 1_555
Er1 O5 2.211753 1_556
Er1 O9 2.284307 1_556
Er1 O3 2.284307 1_556
Er1 O30 2.312927 1_555
Er1 O35 2.312927 1_555
Er1 O33 2.389771 1_555
Er2 O12 2.118438 1_555
Er2 O2 2.223614 1_655
Er2 O1 2.223614 1_565
Er2 O0 2.267656 1_555
Er2 O21 2.366915 1_655
Er2 O11 2.366915 1_565
Er3 O3 2.212404 1_555
Er3 O5 2.253767 1_555
Er3 O12 2.267838 1_555
Er3 O1 2.271644 1_555
Er3 O8 2.285473 1_655
Er3 O21 2.620262 1_655
Er3 O10 2.683567 1_555
Er4 O16 2.131561 1_555
Er4 O18 2.343601 1_555
Er4 O22 2.350586 1_445
Er4 O7 2.367849 1_545
Er4 O13 2.367849 1_455
Er4 O32 2.415014 1_455
Er4 O24 2.415014 1_545
Er5 O37 2.126637 1_665
Er5 O3 2.186787 1_566
Er5 O9 2.186787 1_656
Er5 O0 2.293030 1_556
Er5 O30 2.447744 1_565
Er5 O35 2.447744 1_655
Er6 O9 2.212404 1_555
Er6 O5 2.253767 1_555
Er6 O12 2.267838 1_555
Er6 O2 2.271644 1_555
Er6 O8 2.285473 1_565
Er6 O11 2.620262 1_565
Er6 O4 2.683567 1_555
Er7 O28 2.122421 1_555
Er7 O13 2.153775 1_555
Er7 O7 2.153775 1_555
Er7 O32 2.267690 1_555
Er7 O24 2.267690 1_555
Er7 O31 2.712091 1_555
Er8 O28 2.193893 1_555
Er8 O14 2.202861 1_545
Er8 O16 2.237507 1_555
Er8 O7 2.256051 1_545
Er8 O22 2.367431 1_545
Er8 O32 2.542158 1_555
Er8 O23 2.632928 1_545
Er9 O20 2.137277 1_555
Er9 O14 2.137277 1_555
Er9 O12 2.148105 1_555
Er9 O4 2.304093 1_555
Er9 O10 2.304093 1_555
Er9 O19 2.519520 1_555
Er10 O16 2.192401 1_555
Er10 O8 2.235630 1_555
Er10 O14 2.246311 1_545
Er10 O20 2.246311 1_455
Er10 O6 2.383214 1_555
Er10 O10 2.556459 1_455
Er10 O4 2.556459 1_545
Er11 O28 2.193893 1_555
Er11 O20 2.202861 1_455
Er11 O16 2.237507 1_555
Er11 O13 2.256051 1_455
Er11 O22 2.367431 1_455
Er11 O24 2.542158 1_555
Er11 O15 2.632928 1_455
Er12 O26 2.190380 1_555
Er12 O38 2.222317 1_555
Er12 O37 2.227314 1_555
Er12 O36 2.372282 1_455
Er12 O39 2.372282 1_545
Er12 O17 2.556331 1_455
Er12 O25 2.556331 1_545
Er13 O33 2.198174 1_555
Er13 O37 2.214830 1_565
Er13 O27 2.301523 1_555
Er13 O26 2.316356 1_555
Er13 O39 2.355219 1_555
Er13 O35 2.442935 1_555
Er13 O29 2.647826 1_455
Er14 O28 2.162896 1_555
Er14 O26 2.172802 1_555
Er14 O31 2.296675 1_555
Er14 O27 2.412439 1_555
Er14 O34 2.412439 1_555
Er14 O15 2.439200 1_455
Er14 O23 2.439200 1_545
Er15 O33 2.198174 1_555
Er15 O37 2.214830 1_655
Er15 O34 2.301523 1_555
Er15 O26 2.316356 1_555
Er15 O36 2.355219 1_555
Er15 O30 2.442935 1_555
Er15 O29 2.647826 1_545
O0 Ti1 2.043199 1_564
O0 Ti0 2.043199 1_654
O1 Ti4 2.208296 1_555
O2 Ti2 2.208296 1_555
O3 Ti0 2.559151 1_654
O4 Ti2 1.847256 1_555
O6 Ti2 2.023794 1_555
O6 Ti4 2.023794 1_555
O7 Ti7 2.066533 1_555
O9 Ti1 2.559151 1_564
O10 Ti4 1.847256 1_555
O11 Ti1 1.854372 1_554
O13 Ti5 2.066533 1_555
O14 Ti4 2.317872 1_565
O15 Ti5 1.869744 1_555
O15 Ti3 2.130111 1_555
O17 Ti6 1.846281 1_555
O17 Ti0 1.963706 1_655
O18 Ti5 1.901309 1_455
O18 Ti7 1.901309 1_545
O19 Ti2 1.865854 1_655
O19 Ti4 1.865854 1_565
O20 Ti2 2.317872 1_655
O21 Ti0 1.854372 1_554
O22 Ti3 2.009413 1_555
O23 Ti7 1.869744 1_555
O23 Ti3 2.130111 1_555
O24 Ti2 1.950419 1_555
O25 Ti6 1.846281 1_555
O25 Ti1 1.963706 1_565
O27 Ti3 1.920787 1_455
O27 Ti7 2.228381 1_555
O29 Ti6 1.958682 1_555
O29 Ti3 2.001307 1_555
O30 Ti1 1.872359 1_555
O31 Ti5 1.989202 1_555
O31 Ti7 1.989202 1_555
O32 Ti4 1.950419 1_555
O33 Ti6 1.948580 1_555
O34 Ti3 1.920787 1_545
O34 Ti5 2.228381 1_555
O35 Ti0 1.872359 1_555
O36 Ti5 1.944815 1_555
O36 Ti6 2.283960 1_555
O38 Ti1 1.907493 1_555
O38 Ti0 1.907493 1_555
O39 Ti7 1.944815 1_555
O39 Ti6 2.283960 1_555
