# generated using pymatgen
data_Sr2YCu3(PbO4)2
_symmetry_space_group_name_H-M   'P 1'
_cell_length_a   5.36817100
_cell_length_b   5.41249112
_cell_length_c   15.67757917
_cell_angle_alpha   90.29242523
_cell_angle_beta   90.48270582
_cell_angle_gamma   90.13541423
_symmetry_Int_Tables_number   1
_chemical_formula_structural   Sr2YCu3(PbO4)2
_chemical_formula_sum   'Sr4 Y2 Cu6 Pb4 O16'
_cell_volume   455.49143391
_cell_formula_units_Z   2
loop_
 _symmetry_equiv_pos_site_id
 _symmetry_equiv_pos_as_xyz
  1  'x, y, z'
loop_
 _atom_site_type_symbol
 _atom_site_label
 _atom_site_symmetry_multiplicity
 _atom_site_fract_x
 _atom_site_fract_y
 _atom_site_fract_z
 _atom_site_occupancy
  Sr  Sr0  1  0.99768400  0.99699700  0.77881200  1
  Sr  Sr1  1  0.00231600  0.00300300  0.22118800  1
  Sr  Sr2  1  0.50213300  0.50124500  0.22081800  1
  Sr  Sr3  1  0.49786700  0.49875500  0.77918200  1
  Y  Y0  1  0.00000000  0.00000000  0.00000000  1
  Y  Y1  1  0.50000000  0.50000000  0.00000000  1
  Cu  Cu0  1  0.00043800  0.50082900  0.10403300  1
  Cu  Cu1  1  0.50037100  0.00011900  0.10359900  1
  Cu  Cu2  1  0.50000000  0.50000000  0.50000000  1
  Cu  Cu3  1  0.99956200  0.49917100  0.89596700  1
  Cu  Cu4  1  0.49962900  0.99988100  0.89640100  1
  Cu  Cu5  1  0.00000000  0.00000000  0.50000000  1
  Pb  Pb0  1  0.50504000  0.98795300  0.61049100  1
  Pb  Pb1  1  0.00482000  0.49699100  0.61075100  1
  Pb  Pb2  1  0.99518000  0.50300900  0.38924900  1
  Pb  Pb3  1  0.49496000  0.01204700  0.38950900  1
  O  O0  1  0.00465200  0.51024400  0.24979800  1
  O  O1  1  0.25070300  0.25068800  0.09304900  1
  O  O2  1  0.24951100  0.24924900  0.90785900  1
  O  O3  1  0.75048900  0.75075100  0.09214100  1
  O  O4  1  0.50176800  0.99360300  0.25036100  1
  O  O5  1  0.99534800  0.48975600  0.75020200  1
  O  O6  1  0.74929700  0.74931200  0.90695100  1
  O  O7  1  0.45311400  0.55434600  0.61583300  1
  O  O8  1  0.49823200  0.00639700  0.74963900  1
  O  O9  1  0.24979000  0.74988600  0.90716900  1
  O  O10  1  0.75021000  0.25011400  0.09283100  1
  O  O11  1  0.96866700  0.92863800  0.61524100  1
  O  O12  1  0.54688600  0.44565400  0.38416700  1
  O  O13  1  0.03133300  0.07136200  0.38475900  1
  O  O14  1  0.74970600  0.24985500  0.90862700  1
  O  O15  1  0.25029400  0.75014500  0.09137300  1
loop_
_geom_bond_atom_site_label_1
_geom_bond_atom_site_label_2
_geom_bond_distance
_geom_bond_site_symmetry_2
Cu0 O15 1.912589 1_555
Cu0 O10 1.913534 1_455
Cu0 O3 1.916205 1_455
Cu0 O1 1.917727 1_555
Cu0 O0 2.285471 1_555
Cu1 O15 1.911523 1_545
Cu1 O10 1.911987 1_555
Cu1 O3 1.914915 1_545
Cu1 O1 1.915747 1_555
Cu1 O4 2.301272 1_545
Cu2 O7 1.857487 1_555
Cu2 O12 1.857487 1_555
Cu3 O14 1.912589 1_555
Cu3 O9 1.913534 1_655
Cu3 O2 1.916205 1_655
Cu3 O6 1.917727 1_555
Cu3 O5 2.285471 1_555
Cu4 O14 1.911523 1_565
Cu4 O9 1.911987 1_555
Cu4 O2 1.914915 1_565
Cu4 O6 1.915747 1_555
Cu4 O8 2.301272 1_565
Cu5 O13 1.858381 1_555
Cu5 O11 1.858381 1_445
O0 Pb2 2.187822 1_455
O0 Sr1 2.706805 1_565
O0 Sr2 2.713215 1_555
O0 Sr2 2.732103 1_455
O0 Sr1 2.779558 1_555
O1 Y0 2.391315 1_555
O1 Y1 2.405066 1_555
O1 Sr2 2.755242 1_555
O1 Sr1 2.770378 1_555
O2 Y1 2.382318 1_556
O2 Y0 2.396804 1_556
O2 Sr0 2.775191 1_445
O2 Sr3 2.781272 1_555
O3 Y1 2.382318 1_555
O3 Y0 2.396804 1_665
O3 Sr1 2.775191 1_665
O3 Sr2 2.781272 1_555
O4 Pb3 2.183895 1_565
O4 Sr2 2.702511 1_555
O4 Sr1 2.716711 1_565
O4 Sr1 2.729869 1_665
O4 Sr2 2.788701 1_565
O5 Pb1 2.187822 1_655
O5 Sr0 2.706805 1_545
O5 Sr3 2.713215 1_555
O5 Sr3 2.732103 1_655
O5 Sr0 2.779558 1_555
O6 Y0 2.391315 1_666
O6 Y1 2.405066 1_556
O6 Sr3 2.755242 1_555
O6 Sr0 2.770378 1_555
O7 Pb0 2.364727 1_555
O7 Pb1 2.426321 1_555
O7 Sr3 2.589283 1_555
O8 Pb0 2.183895 1_545
O8 Sr3 2.702511 1_555
O8 Sr0 2.716711 1_545
O8 Sr0 2.729869 1_445
O8 Sr3 2.788701 1_545
O9 Y1 2.397334 1_556
O9 Y0 2.402104 1_566
O9 Sr0 2.767674 1_455
O9 Sr3 2.770002 1_555
O10 Y1 2.397334 1_555
O10 Y0 2.402104 1_655
O10 Sr1 2.767674 1_655
O10 Sr2 2.770002 1_555
O11 Pb1 2.345537 1_655
O11 Pb0 2.510733 1_555
O11 Sr0 2.592413 1_555
O12 Pb3 2.364727 1_555
O12 Pb2 2.426321 1_555
O12 Sr2 2.589283 1_555
O13 Pb2 2.345537 1_455
O13 Pb3 2.510733 1_555
O13 Sr1 2.592413 1_555
O14 Y0 2.383725 1_656
O14 Y1 2.388122 1_556
O14 Sr3 2.784102 1_555
O14 Sr0 2.795159 1_545
O15 Y0 2.383725 1_565
O15 Y1 2.388122 1_555
O15 Sr2 2.784102 1_555
O15 Sr1 2.795159 1_565
