# generated using pymatgen
data_ZnS
_symmetry_space_group_name_H-M   'P 1'
_cell_length_a   3.80791267
_cell_length_b   3.80791340
_cell_length_c   56.04075940
_cell_angle_alpha   89.99966302
_cell_angle_beta   90.00033973
_cell_angle_gamma   119.99938532
_symmetry_Int_Tables_number   1
_chemical_formula_structural   ZnS
_chemical_formula_sum   'Zn18 S18'
_cell_volume   703.73860553
_cell_formula_units_Z   18
loop_
 _symmetry_equiv_pos_site_id
 _symmetry_equiv_pos_as_xyz
  1  'x, y, z'
loop_
 _atom_site_type_symbol
 _atom_site_label
 _atom_site_symmetry_multiplicity
 _atom_site_fract_x
 _atom_site_fract_y
 _atom_site_fract_z
 _atom_site_occupancy
  Zn  Zn0  1  -0.00000048  0.00000048  0.16669311  1
  Zn  Zn1  1  0.33333309  0.66666691  0.72221798  1
  Zn  Zn2  1  0.66666592  0.33333408  0.27779718  1
  Zn  Zn3  1  0.33333317  0.66666683  0.55557086  1
  Zn  Zn4  1  0.33333318  0.66666682  0.05558106  1
  Zn  Zn5  1  0.66666594  0.33333406  0.61111961  1
  Zn  Zn6  1  -0.00000046  0.00000046  0.66667706  1
  Zn  Zn7  1  0.66666590  0.33333410  0.11113125  1
  Zn  Zn8  1  0.66666590  0.33333410  0.44445600  1
  Zn  Zn9  1  0.33333309  0.66666691  0.22224986  1
  Zn  Zn10  1  0.66666587  0.33333413  0.77778754  1
  Zn  Zn11  1  0.66666654  0.33333346  0.94446263  1
  Zn  Zn12  1  0.33333319  0.66666681  0.38890943  1
  Zn  Zn13  1  -0.00000048  0.00000048  0.33335488  1
  Zn  Zn14  1  0.33333231  0.66666769  0.83339018  1
  Zn  Zn15  1  -0.00000045  0.00000045  0.00005169  1
  Zn  Zn16  1  0.99999926  0.00000074  0.88889671  1
  Zn  Zn17  1  -0.00000050  0.00000050  0.50001473  1
  S  S0  1  0.66666811  0.33333189  0.98613581  1
  S  S1  1  0.00000121  -0.00000121  0.04166480  1
  S  S2  1  0.66666817  0.33333183  0.48608473  1
  S  S3  1  0.33333494  0.66666506  0.43053301  1
  S  S4  1  0.66666815  0.33333185  0.65275279  1
  S  S5  1  0.66666815  0.33333185  0.15276181  1
  S  S6  1  0.00000122  -0.00000122  0.54164794  1
  S  S7  1  0.33333495  0.66666505  0.09720964  1
  S  S8  1  0.33333490  0.66666510  0.76382274  1
  S  S9  1  0.00000122  -0.00000122  0.70831018  1
  S  S10  1  0.66666315  0.33333685  0.81946851  1
  S  S11  1  0.00000120  -0.00000120  0.37498218  1
  S  S12  1  0.99999728  0.00000272  0.93049221  1
  S  S13  1  0.33333495  0.66666505  0.59720046  1
  S  S14  1  0.33333495  0.66666505  0.26387084  1
  S  S15  1  0.66666816  0.33333184  0.31942105  1
  S  S16  1  0.00000122  -0.00000122  0.20832135  1
  S  S17  1  0.33333008  0.66666992  0.87499120  1
loop_
_geom_bond_atom_site_label_1
_geom_bond_atom_site_label_2
_geom_bond_distance
_geom_bond_site_symmetry_2
S0 Zn15 2.332696 1_656
S0 Zn15 2.332740 1_556
S0 Zn15 2.332740 1_666
S0 Zn11 2.335397 1_555
S1 Zn15 2.332030 1_555
S1 Zn4 2.332706 1_545
S1 Zn4 2.332745 1_445
S1 Zn4 2.332746 1_555
S2 Zn8 2.332906 1_555
S2 Zn17 2.332960 1_655
S2 Zn17 2.333005 1_555
S2 Zn17 2.333005 1_665
S3 Zn12 2.332617 1_555
S3 Zn8 2.332826 1_555
S3 Zn8 2.332875 1_455
S3 Zn8 2.332875 1_565
S4 Zn6 2.332852 1_655
S4 Zn6 2.332897 1_555
S4 Zn6 2.332898 1_665
S4 Zn5 2.333155 1_555
S5 Zn0 2.332984 1_655
S5 Zn7 2.333008 1_555
S5 Zn0 2.333029 1_555
S5 Zn0 2.333029 1_665
S6 Zn3 2.332831 1_545
S6 Zn3 2.332870 1_445
S6 Zn3 2.332870 1_555
S6 Zn17 2.333157 1_555
S7 Zn7 2.332800 1_555
S7 Zn7 2.332849 1_455
S7 Zn7 2.332849 1_565
S7 Zn4 2.332897 1_555
S8 Zn1 2.331562 1_555
S8 Zn10 2.333611 1_555
S8 Zn10 2.333659 1_455
S8 Zn10 2.333660 1_565
S9 Zn1 2.332547 1_545
S9 Zn1 2.332587 1_445
S9 Zn1 2.332587 1_555
S9 Zn6 2.333152 1_555
S10 Zn14 2.332810 1_555
S10 Zn14 2.332845 1_655
S10 Zn14 2.332846 1_545
S10 Zn10 2.335833 1_555
S11 Zn13 2.332826 1_555
S11 Zn12 2.332912 1_545
S11 Zn12 2.332951 1_445
S11 Zn12 2.332952 1_555
S12 Zn16 2.331043 1_555
S12 Zn11 2.333725 1_555
S12 Zn11 2.333760 1_655
S12 Zn11 2.333761 1_545
S13 Zn5 2.332754 1_555
S13 Zn5 2.332802 1_455
S13 Zn5 2.332803 1_565
S13 Zn3 2.332954 1_555
S14 Zn9 2.332471 1_555
S14 Zn2 2.332889 1_555
S14 Zn2 2.332937 1_455
S14 Zn2 2.332938 1_565
S15 Zn2 2.332633 1_555
S15 Zn13 2.333032 1_655
S15 Zn13 2.333077 1_555
S15 Zn13 2.333077 1_665
S16 Zn0 2.332878 1_555
S16 Zn9 2.332935 1_545
S16 Zn9 2.332975 1_445
S16 Zn9 2.332976 1_555
S17 Zn14 2.331353 1_555
S17 Zn16 2.332507 1_465
S17 Zn16 2.332542 1_565
S17 Zn16 2.332543 1_455
