# generated using pymatgen
data_Na2TbMoPO8
_symmetry_space_group_name_H-M   'P 1'
_cell_length_a   11.48613983
_cell_length_b   11.48613983
_cell_length_c   11.48613983
_cell_angle_alpha   144.45240779
_cell_angle_beta   115.45148623
_cell_angle_gamma   75.91390767
_symmetry_Int_Tables_number   1
_chemical_formula_structural   Na2TbMoPO8
_chemical_formula_sum   'Na8 Tb4 Mo4 P4 O32'
_cell_volume   779.03632431
_cell_formula_units_Z   4
loop_
 _symmetry_equiv_pos_site_id
 _symmetry_equiv_pos_as_xyz
  1  'x, y, z'
loop_
 _atom_site_type_symbol
 _atom_site_label
 _atom_site_symmetry_multiplicity
 _atom_site_fract_x
 _atom_site_fract_y
 _atom_site_fract_z
 _atom_site_occupancy
  Na  Na0  1  0.80211400  0.33473400  0.44644400  1
  Na  Na1  1  0.38829000  0.35567000  0.05355600  1
  Na  Na2  1  0.19788600  0.66526600  0.55355600  1
  Na  Na3  1  0.69788600  0.14433000  0.53262000  1
  Na  Na4  1  0.61171000  0.64433000  0.94644400  1
  Na  Na5  1  0.88829000  0.83473400  0.03262000  1
  Na  Na6  1  0.11171000  0.16526600  0.96738000  1
  Na  Na7  1  0.30211400  0.85567000  0.46738000  1
  Tb  Tb0  1  0.82173200  0.75000000  0.57173200  1
  Tb  Tb1  1  0.17826800  0.25000000  0.42826800  1
  Tb  Tb2  1  0.67826800  0.25000000  0.92826800  1
  Tb  Tb3  1  0.32173200  0.75000000  0.07173200  1
  Mo  Mo0  1  0.42986900  0.17986900  0.25000000  1
  Mo  Mo1  1  0.92986900  0.67986900  0.25000000  1
  Mo  Mo2  1  0.57013100  0.82013100  0.75000000  1
  Mo  Mo3  1  0.07013100  0.32013100  0.75000000  1
  P  P0  1  0.93071900  0.25000000  0.18071900  1
  P  P1  1  0.06928100  0.75000000  0.81928100  1
  P  P2  1  0.56928100  0.75000000  0.31928100  1
  P  P3  1  0.43071900  0.25000000  0.68071900  1
  O  O0  1  0.36261600  0.19611000  0.09205700  1
  O  O1  1  0.65531500  0.93127400  0.57150600  1
  O  O2  1  0.15113300  0.58439500  0.97971300  1
  O  O3  1  0.15531500  0.58380900  0.72404100  1
  O  O4  1  0.84468500  0.41619100  0.27595900  1
  O  O5  1  0.14023200  0.91619100  0.07150600  1
  O  O6  1  0.89594700  0.30389000  0.66650600  1
  O  O7  1  0.10468200  0.17142000  0.52028700  1
  O  O8  1  0.10405300  0.69611000  0.33349400  1
  O  O9  1  0.13738400  0.22944100  0.83349400  1
  O  O10  1  0.85976800  0.08380900  0.92849400  1
  O  O11  1  0.63738400  0.80389000  0.90794300  1
  O  O12  1  0.07491900  0.33049200  0.26865200  1
  O  O13  1  0.64023200  0.56872600  0.22404100  1
  O  O14  1  0.60405300  0.27055900  0.40794300  1
  O  O15  1  0.84886700  0.41560500  0.02028700  1
  O  O16  1  0.56184000  0.80626700  0.23134800  1
  O  O17  1  0.42508100  0.69373300  0.25557300  1
  O  O18  1  0.92508100  0.66950800  0.73134800  1
  O  O19  1  0.06184000  0.83049200  0.75557300  1
  O  O20  1  0.43816000  0.19373300  0.76865200  1
  O  O21  1  0.65113300  0.67142000  0.56673800  1
  O  O22  1  0.34468500  0.06872600  0.42849400  1
  O  O23  1  0.35976800  0.43127400  0.77595900  1
  O  O24  1  0.93816000  0.16950800  0.24442700  1
  O  O25  1  0.39531800  0.91560500  0.06673800  1
  O  O26  1  0.57491900  0.30626700  0.74442700  1
  O  O27  1  0.60468200  0.08439500  0.93326200  1
  O  O28  1  0.34886700  0.32858000  0.43326200  1
  O  O29  1  0.39594700  0.72944100  0.59205700  1
  O  O30  1  0.86261600  0.77055900  0.16650600  1
  O  O31  1  0.89531800  0.82858000  0.47971300  1
loop_
_geom_bond_atom_site_label_1
_geom_bond_atom_site_label_2
_geom_bond_distance
_geom_bond_site_symmetry_2
Na0 O14 2.309861 1_555
Na0 O18 2.384181 1_555
Na0 O24 2.436140 1_555
Na0 O6 2.570227 1_555
Na1 O0 2.309861 1_555
Na1 O20 2.384181 1_554
Na1 O17 2.436140 1_555
Na1 O9 2.570227 1_554
Na2 O29 2.309861 1_555
Na2 O12 2.384181 1_555
Na2 O19 2.436140 1_555
Na2 O8 2.570227 1_555
Na3 O6 2.309861 1_555
Na3 O26 2.384181 1_555
Na3 O16 2.436140 1_545
Na3 O14 2.570227 1_555
Na4 O11 2.309861 1_555
Na4 O16 2.384181 1_556
Na4 O26 2.436140 1_555
Na4 O30 2.570227 1_556
Na5 O30 2.309861 1_555
Na5 O24 2.384181 1_565
Na5 O18 2.436140 1_554
Na5 O11 2.570227 1_554
Na6 O9 2.309861 1_555
Na6 O19 2.384181 1_545
Na6 O12 2.436140 1_556
Na6 O0 2.570227 1_556
Na7 O8 2.309861 1_555
Na7 O17 2.384181 1_555
Na7 O20 2.436140 1_565
Na7 O29 2.570227 1_555
Mo0 O14 1.788506 1_555
Mo0 O0 1.788506 1_555
Mo0 O25 1.809154 1_545
Mo0 O28 1.809154 1_555
Mo1 O8 1.788506 1_655
Mo1 O30 1.788506 1_555
Mo1 O31 1.809154 1_555
Mo1 O15 1.809154 1_555
Mo2 O11 1.788506 1_555
Mo2 O29 1.788506 1_555
Mo2 O21 1.809154 1_555
Mo2 O27 1.809154 1_565
Mo3 O6 1.788506 1_455
Mo3 O9 1.788506 1_555
Mo3 O2 1.809154 1_555
Mo3 O7 1.809154 1_555
O1 P2 1.558835 1_555
O1 Tb2 2.322353 1_565
O1 Tb0 2.460962 1_555
O2 Tb3 2.310350 1_556
O3 P1 1.558835 1_555
O3 Tb1 2.322353 1_555
O3 Tb3 2.460962 1_556
O4 P0 1.558835 1_555
O4 Tb0 2.322353 1_555
O4 Tb2 2.460962 1_554
O5 P1 1.558835 1_554
O5 Tb1 2.322353 1_565
O5 Tb3 2.460962 1_555
O7 Tb1 2.310350 1_555
O10 P0 1.558835 1_556
O10 Tb0 2.322353 1_545
O10 Tb2 2.460962 1_555
O12 P0 1.551209 1_455
O12 Tb1 2.445131 1_555
O13 P2 1.558835 1_555
O13 Tb2 2.322353 1_554
O13 Tb0 2.460962 1_555
O15 Tb2 2.310350 1_554
O16 P2 1.551209 1_555
O16 Tb3 2.445131 1_555
O17 P2 1.551209 1_555
O17 Tb3 2.445131 1_555
O18 P1 1.551209 1_655
O18 Tb0 2.445131 1_555
O19 P1 1.551209 1_555
O19 Tb0 2.445131 1_455
O20 P3 1.551209 1_555
O20 Tb2 2.445131 1_555
O21 Tb0 2.310350 1_555
O22 P3 1.558835 1_555
O22 Tb3 2.322353 1_545
O22 Tb1 2.460962 1_555
O23 P3 1.558835 1_555
O23 Tb3 2.322353 1_556
O23 Tb1 2.460962 1_555
O24 P0 1.551209 1_555
O24 Tb1 2.445131 1_655
O25 Tb3 2.310350 1_555
O26 P3 1.551209 1_555
O26 Tb2 2.445131 1_555
O27 Tb2 2.310350 1_555
O28 Tb1 2.310350 1_555
O31 Tb0 2.310350 1_555
