# generated using pymatgen
data_Ta2Te3
_symmetry_space_group_name_H-M   'P 1'
_cell_length_a   3.53584235
_cell_length_b   7.81793138
_cell_length_c   10.46935364
_cell_angle_alpha   84.06287957
_cell_angle_beta   80.23838336
_cell_angle_gamma   76.96522912
_symmetry_Int_Tables_number   1
_chemical_formula_structural   Ta2Te3
_chemical_formula_sum   'Ta4 Te6'
_cell_volume   277.22362921
_cell_formula_units_Z   2
loop_
 _symmetry_equiv_pos_site_id
 _symmetry_equiv_pos_as_xyz
  1  'x, y, z'
loop_
 _atom_site_type_symbol
 _atom_site_label
 _atom_site_symmetry_multiplicity
 _atom_site_fract_x
 _atom_site_fract_y
 _atom_site_fract_z
 _atom_site_occupancy
  Ta  Ta0  1  0.41664188  0.02163467  0.14545641  1
  Ta  Ta1  1  0.58335812  0.97836533  0.85454359  1
  Ta  Ta2  1  0.22419297  0.93840682  0.61293401  1
  Ta  Ta3  1  0.77580703  0.06159318  0.38706599  1
  Te  Te0  1  0.42718246  0.78257469  0.36285502  1
  Te  Te1  1  0.57281754  0.21742531  0.63714498  1
  Te  Te2  1  0.19767799  0.32010544  0.28564095  1
  Te  Te3  1  0.80232201  0.67989456  0.71435905  1
  Te  Te4  1  0.09715085  0.77523064  0.03019967  1
  Te  Te5  1  0.90284915  0.22476936  0.96980033  1
loop_
_geom_bond_atom_site_label_1
_geom_bond_atom_site_label_2
_geom_bond_distance
_geom_bond_site_symmetry_2
Ta0 Te2 2.776057 1_555
Ta0 Te0 2.791417 1_545
Ta0 Te4 2.891724 1_645
Ta0 Te4 2.892721 1_545
Ta0 Te5 2.900820 1_554
Ta0 Te5 2.903730 1_454
Ta1 Te3 2.776057 1_555
Ta1 Te1 2.791417 1_565
Ta1 Te5 2.891724 1_465
Ta1 Te5 2.892721 1_565
Ta1 Te4 2.900820 1_556
Ta1 Te4 2.903730 1_656
Ta2 Te1 2.788420 1_565
Ta2 Te1 2.788772 1_465
Ta2 Te3 2.795711 1_455
Ta2 Te3 2.796293 1_555
Ta2 Te0 2.912450 1_555
Ta3 Te0 2.788420 1_545
Ta3 Te0 2.788772 1_645
Ta3 Te2 2.795711 1_655
Ta3 Te2 2.796293 1_555
Ta3 Te1 2.912450 1_555
