# generated using pymatgen
data_Cu(BiO2)2
_symmetry_space_group_name_H-M   'P 1'
_cell_length_a   8.43693178
_cell_length_b   8.43693178
_cell_length_c   5.86767279
_cell_angle_alpha   90.00000000
_cell_angle_beta   90.00000000
_cell_angle_gamma   90.00000000
_symmetry_Int_Tables_number   1
_chemical_formula_structural   Cu(BiO2)2
_chemical_formula_sum   'Cu4 Bi8 O16'
_cell_volume   417.67161580
_cell_formula_units_Z   4
loop_
 _symmetry_equiv_pos_site_id
 _symmetry_equiv_pos_as_xyz
  1  'x, y, z'
loop_
 _atom_site_type_symbol
 _atom_site_label
 _atom_site_symmetry_multiplicity
 _atom_site_fract_x
 _atom_site_fract_y
 _atom_site_fract_z
 _atom_site_occupancy
  Cu  Cu0  1  -0.00000000  0.50000000  0.07790006  1
  Cu  Cu1  1  0.50000000  0.00000000  0.42209994  1
  Cu  Cu2  1  0.50000000  0.00000000  0.92209994  1
  Cu  Cu3  1  -0.00000000  0.50000000  0.57790006  1
  Bi  Bi0  1  0.66753967  0.66753967  0.25000000  1
  Bi  Bi1  1  0.16753967  0.83246033  0.25000000  1
  Bi  Bi2  1  0.83246033  0.16753967  0.25000000  1
  Bi  Bi3  1  0.33246033  0.33246033  0.25000000  1
  Bi  Bi4  1  0.83246033  0.83246033  0.75000000  1
  Bi  Bi5  1  0.33246033  0.66753967  0.75000000  1
  Bi  Bi6  1  0.66753967  0.33246033  0.75000000  1
  Bi  Bi7  1  0.16753967  0.16753967  0.75000000  1
  O  O0  1  0.60269891  0.79548690  0.90919065  1
  O  O1  1  0.29548690  0.89730109  0.90919065  1
  O  O2  1  0.70451310  0.10269891  0.90919065  1
  O  O3  1  0.39730109  0.20451310  0.90919065  1
  O  O4  1  0.89730109  0.29548690  0.59080935  1
  O  O5  1  0.10269891  0.70451310  0.59080935  1
  O  O6  1  0.79548690  0.60269891  0.59080935  1
  O  O7  1  0.20451310  0.39730109  0.59080935  1
  O  O8  1  0.89730109  0.70451310  0.09080935  1
  O  O9  1  0.20451310  0.60269891  0.09080935  1
  O  O10  1  0.79548690  0.39730109  0.09080935  1
  O  O11  1  0.10269891  0.29548690  0.09080935  1
  O  O12  1  0.60269891  0.20451310  0.40919065  1
  O  O13  1  0.39730109  0.79548690  0.40919065  1
  O  O14  1  0.70451310  0.89730109  0.40919065  1
  O  O15  1  0.29548690  0.10269891  0.40919065  1
loop_
_geom_bond_atom_site_label_1
_geom_bond_atom_site_label_2
_geom_bond_distance
_geom_bond_site_symmetry_2
Cu0 O8 1.932284 1_455
Cu0 O10 1.932284 1_455
Cu0 O11 1.932284 1_555
Cu0 O9 1.932284 1_555
Cu1 O15 1.932284 1_555
Cu1 O14 1.932284 1_545
Cu1 O12 1.932284 1_555
Cu1 O13 1.932284 1_545
Cu2 O0 1.932284 1_545
Cu2 O1 1.932284 1_545
Cu2 O2 1.932284 1_555
Cu2 O3 1.932284 1_555
Cu3 O4 1.932284 1_455
Cu3 O7 1.932284 1_555
Cu3 O5 1.932284 1_555
Cu3 O6 1.932284 1_455
Bi0 O8 2.174286 1_555
Bi0 O14 2.174286 1_555
Bi0 O0 2.337431 1_554
Bi0 O6 2.337431 1_555
Bi0 O13 2.690003 1_555
Bi0 O10 2.690003 1_555
Bi1 O9 2.174286 1_555
Bi1 O13 2.174286 1_555
Bi1 O5 2.337431 1_555
Bi1 O1 2.337431 1_554
Bi1 O8 2.690003 1_455
Bi1 O15 2.690003 1_565
Bi2 O12 2.174286 1_555
Bi2 O10 2.174286 1_555
Bi2 O2 2.337431 1_554
Bi2 O4 2.337431 1_555
Bi2 O14 2.690003 1_545
Bi2 O11 2.690003 1_655
Bi3 O11 2.174286 1_555
Bi3 O15 2.174286 1_555
Bi3 O3 2.337431 1_554
Bi3 O7 2.337431 1_555
Bi3 O12 2.690003 1_555
Bi3 O9 2.690003 1_555
Bi4 O6 2.174286 1_555
Bi4 O0 2.174286 1_555
Bi4 O14 2.337431 1_555
Bi4 O8 2.337431 1_556
Bi4 O5 2.690003 1_655
Bi4 O2 2.690003 1_565
Bi5 O1 2.174286 1_555
Bi5 O5 2.174286 1_555
Bi5 O9 2.337431 1_556
Bi5 O13 2.337431 1_555
Bi5 O0 2.690003 1_555
Bi5 O7 2.690003 1_555
Bi6 O4 2.174286 1_555
Bi6 O2 2.174286 1_555
Bi6 O10 2.337431 1_556
Bi6 O12 2.337431 1_555
Bi6 O6 2.690003 1_555
Bi6 O3 2.690003 1_555
Bi7 O3 2.174286 1_555
Bi7 O7 2.174286 1_555
Bi7 O11 2.337431 1_556
Bi7 O15 2.337431 1_555
Bi7 O1 2.690003 1_545
Bi7 O4 2.690003 1_455
