# generated using pymatgen
data_NaLiCO3
_symmetry_space_group_name_H-M   'P 1'
_cell_length_a   3.35889900
_cell_length_b   14.47471333
_cell_length_c   14.48366291
_cell_angle_alpha   60.07048762
_cell_angle_beta   88.22806028
_cell_angle_gamma   88.33308768
_symmetry_Int_Tables_number   1
_chemical_formula_structural   NaLiCO3
_chemical_formula_sum   'Na9 Li9 C9 O27'
_cell_volume   609.90508334
_cell_formula_units_Z   9
loop_
 _symmetry_equiv_pos_site_id
 _symmetry_equiv_pos_as_xyz
  1  'x, y, z'
loop_
 _atom_site_type_symbol
 _atom_site_label
 _atom_site_symmetry_multiplicity
 _atom_site_fract_x
 _atom_site_fract_y
 _atom_site_fract_z
 _atom_site_occupancy
  Na  Na0  1  0.52647000  0.22491500  0.86850300  1
  Na  Na1  1  0.56694200  0.87761200  0.54423700  1
  Na  Na2  1  0.47927700  0.55116100  0.19303500  1
  Na  Na3  1  0.53016800  0.86753800  0.90699000  1
  Na  Na4  1  0.51573100  0.19171200  0.25701300  1
  Na  Na5  1  0.48127700  0.57594600  0.87910600  1
  Na  Na6  1  0.46930100  0.90771300  0.22567000  1
  Na  Na7  1  0.44186700  0.54564900  0.57743400  1
  Na  Na8  1  0.49313700  0.25599800  0.55181000  1
  Li  Li0  1  0.00381600  0.43139200  0.82212800  1
  Li  Li1  1  0.01123900  0.12453900  0.10121000  1
  Li  Li2  1  0.98666600  0.41911900  0.10617000  1
  Li  Li3  1  0.01114400  0.10082200  0.77452300  1
  Li  Li4  1  0.05508800  0.82057100  0.74690500  1
  Li  Li5  1  0.97073700  0.47516900  0.42001900  1
  Li  Li6  1  0.02856000  0.10503700  0.47551300  1
  Li  Li7  1  0.98334600  0.77438700  0.12518100  1
  Li  Li8  1  0.95061400  0.74758100  0.43257400  1
  C  C0  1  0.99008700  0.34612000  0.66413700  1
  C  C1  1  0.99842500  0.66710000  0.66713200  1
  C  C2  1  0.52937200  0.01282300  0.66843400  1
  C  C3  1  0.00056200  0.66307500  0.99102400  1
  C  C4  1  0.00713200  0.99971500  0.00032300  1
  C  C5  1  0.46762200  0.66849900  0.31921300  1
  C  C6  1  0.01183400  0.99054500  0.34646700  1
  C  C7  1  0.50319100  0.31815900  0.01406400  1
  C  C8  1  0.99664400  0.33308600  0.33395400  1
  O  O0  1  0.07294200  0.74697000  0.89880900  1
  O  O1  1  0.55135600  0.91153800  0.69906200  1
  O  O2  1  0.46794700  0.56727900  0.34965300  1
  O  O3  1  0.51791600  0.08331300  0.56734800  1
  O  O4  1  0.51891900  0.04280600  0.73976600  1
  O  O5  1  0.91937200  0.89958800  0.35539900  1
  O  O6  1  0.46198100  0.69919400  0.38997100  1
  O  O7  1  0.47276400  0.73988900  0.21818100  1
  O  O8  1  0.49841000  0.38878000  0.91287600  1
  O  O9  1  0.91697400  0.65932000  0.58419300  1
  O  O10  1  0.00336400  0.58250500  0.76080000  1
  O  O11  1  0.00650500  0.91325800  0.99377200  1
  O  O12  1  0.05578900  0.35350600  0.74834200  1
  O  O13  1  0.04654500  0.07445900  0.25278000  1
  O  O14  1  0.02998300  0.09241000  0.91404900  1
  O  O15  1  0.98826800  0.41889400  0.24082700  1
  O  O16  1  0.06810600  0.99709800  0.43146600  1
  O  O17  1  0.95350500  0.43223500  0.57182500  1
  O  O18  1  0.51247100  0.21705000  0.04358200  1
  O  O19  1  0.96122400  0.57068300  0.99779900  1
  O  O20  1  0.99944000  0.23974900  0.34137200  1
  O  O21  1  0.00204500  0.34063300  0.41970900  1
  O  O22  1  0.49880400  0.34871600  0.08480600  1
  O  O23  1  0.96846600  0.67171100  0.07593300  1
  O  O24  1  0.07454200  0.75936900  0.65640400  1
  O  O25  1  0.96230700  0.25298900  0.67246900  1
  O  O26  1  0.98480500  0.99347900  0.09313800  1
loop_
_geom_bond_atom_site_label_1
_geom_bond_atom_site_label_2
_geom_bond_distance
_geom_bond_site_symmetry_2
Na0 O14 2.364710 1_655
Na0 O14 2.397989 1_555
Na0 O12 2.399863 1_555
Na0 O18 2.479969 1_556
Na0 O12 2.534388 1_655
Na0 O8 2.748128 1_555
Na1 O24 2.351170 1_555
Na1 O16 2.376606 1_555
Na1 O16 2.381851 1_655
Na1 O24 2.387990 1_655
Na1 O1 2.522396 1_555
Na1 O5 2.817200 1_555
Na2 O15 2.372299 1_555
Na2 O15 2.378080 1_455
Na2 O23 2.379614 1_555
Na2 O2 2.392440 1_555
Na2 O23 2.432660 1_455
Na3 O11 2.365103 1_655
Na3 O11 2.395254 1_555
Na3 O0 2.406628 1_555
Na3 O4 2.484424 1_565
Na3 O0 2.528118 1_655
Na3 O1 2.748750 1_555
Na4 O20 2.372813 1_455
Na4 O13 2.373455 1_555
Na4 O20 2.377462 1_555
Na4 O22 2.394564 1_555
Na4 O13 2.446262 1_655
Na5 O10 2.349655 1_555
Na5 O19 2.365068 1_555
Na5 O10 2.383669 1_655
Na5 O19 2.388267 1_455
Na5 O8 2.500514 1_555
Na6 O26 2.360489 1_455
Na6 O26 2.401168 1_555
Na6 O5 2.403012 1_555
Na6 O7 2.484782 1_555
Na6 O5 2.556124 1_455
Na6 O6 2.758055 1_555
Na7 O9 2.363603 1_555
Na7 O17 2.369654 1_555
Na7 O17 2.385441 1_455
Na7 O9 2.409659 1_455
Na7 O6 2.508382 1_555
Na8 O21 2.370898 1_555
Na8 O25 2.372712 1_555
Na8 O21 2.379941 1_655
Na8 O3 2.394397 1_555
Na8 O25 2.443546 1_455
Li0 O12 1.903371 1_555
Li0 O10 1.906435 1_555
Li0 O8 2.025790 1_455
Li0 O8 2.033306 1_555
Li1 O13 1.944728 1_555
Li1 O26 1.962685 1_445
Li1 O18 2.033989 1_455
Li1 O18 2.062330 1_555
Li2 O15 1.948877 1_555
Li2 O19 1.960914 1_554
Li2 O22 2.064624 1_555
Li2 O22 2.067158 1_655
Li3 O25 1.951492 1_455
Li3 O14 1.965853 1_555
Li3 O4 2.037890 1_555
Li3 O4 2.060638 1_455
Li4 O0 1.909098 1_555
Li4 O24 1.912401 1_555
Li4 O1 2.027107 1_455
Li4 O1 2.034286 1_555
Li5 O21 1.949387 1_655
Li5 O17 1.963315 1_555
Li5 O2 2.067320 1_655
Li5 O2 2.070732 1_555
Li6 O20 1.951090 1_455
Li6 O16 1.960355 1_545
Li6 O3 2.063391 1_555
Li6 O3 2.069520 1_455
Li7 O23 1.945367 1_555
Li7 O11 1.962495 1_654
Li7 O7 2.045515 1_655
Li7 O7 2.059294 1_555
Li8 O5 1.908203 1_555
Li8 O9 1.913334 1_555
Li8 O6 2.029104 1_655
Li8 O6 2.031210 1_555
C0 O25 1.297992 1_555
C0 O17 1.301796 1_555
C0 O12 1.302181 1_655
C1 O10 1.297191 1_655
C1 O24 1.297528 1_655
C1 O9 1.299101 1_555
C2 O3 1.302555 1_555
C2 O1 1.303211 1_545
C2 O4 1.304330 1_555
C3 O23 1.297713 1_456
C3 O19 1.301582 1_455
C3 O0 1.302409 1_555
C4 O11 1.301446 1_554
C4 O26 1.301535 1_455
C4 O14 1.301769 1_564
C5 O2 1.302440 1_555
C5 O7 1.303833 1_555
C5 O6 1.304118 1_555
C6 O13 1.297683 1_565
C6 O16 1.300876 1_555
C6 O5 1.303038 1_455
C7 O22 1.302524 1_555
C7 O8 1.303323 1_554
C7 O18 1.303633 1_555
C8 O15 1.300528 1_555
C8 O20 1.300532 1_555
C8 O21 1.300709 1_655
