# generated using pymatgen
data_VZn2P2O9
_symmetry_space_group_name_H-M   'P 1'
_cell_length_a   7.88343736
_cell_length_b   7.88343736
_cell_length_c   7.88343736
_cell_angle_alpha   109.98699084
_cell_angle_beta   109.98699084
_cell_angle_gamma   108.44453284
_symmetry_Int_Tables_number   1
_chemical_formula_structural   VZn2P2O9
_chemical_formula_sum   'V2 Zn4 P4 O18'
_cell_volume   377.06880094
_cell_formula_units_Z   2
loop_
 _symmetry_equiv_pos_site_id
 _symmetry_equiv_pos_as_xyz
  1  'x, y, z'
loop_
 _atom_site_type_symbol
 _atom_site_label
 _atom_site_symmetry_multiplicity
 _atom_site_fract_x
 _atom_site_fract_y
 _atom_site_fract_z
 _atom_site_occupancy
  V  V0  1  0.39605800  0.39605800  0.00000000  1
  V  V1  1  0.89605800  0.89605800  0.00000000  1
  Zn  Zn0  1  0.85331400  0.11527500  0.50000000  1
  Zn  Zn1  1  0.11527500  0.61527500  0.26196000  1
  Zn  Zn2  1  0.35331400  0.85331400  0.73804000  1
  Zn  Zn3  1  0.61527500  0.35331400  0.50000000  1
  P  P0  1  0.07282100  0.57282100  0.88572400  1
  P  P1  1  0.57282100  0.68709700  0.50000000  1
  P  P2  1  0.18709700  0.07282100  0.50000000  1
  P  P3  1  0.68709700  0.18709700  0.11427600  1
  O  O0  1  0.07212100  0.07212100  0.00000000  1
  O  O1  1  0.66034200  0.16034100  0.29195000  1
  O  O2  1  0.70855400  0.67408600  0.69049700  1
  O  O3  1  0.51805700  0.48358800  0.30950300  1
  O  O4  1  0.48358800  0.17408600  0.96553100  1
  O  O5  1  0.57212100  0.57212100  0.00000000  1
  O  O6  1  0.17408600  0.20855400  0.69049700  1
  O  O7  1  0.68158400  0.88135200  0.50000000  1
  O  O8  1  0.16034100  0.86839200  0.50000000  1
  O  O9  1  0.98358800  0.01805700  0.30950300  1
  O  O10  1  0.88135200  0.38135200  0.19976700  1
  O  O11  1  0.01805700  0.70855400  0.03446900  1
  O  O12  1  0.20855400  0.51805700  0.03446900  1
  O  O13  1  0.86839200  0.36839200  0.70805000  1
  O  O14  1  0.67408600  0.98358800  0.96553100  1
  O  O15  1  0.36839200  0.66034200  0.50000000  1
  O  O16  1  0.38135200  0.18158400  0.50000000  1
  O  O17  1  0.18158400  0.68158400  0.80023300  1
loop_
_geom_bond_atom_site_label_1
_geom_bond_atom_site_label_2
_geom_bond_distance
_geom_bond_site_symmetry_2
O0 V1 1.622946 1_445
O1 P3 1.557777 1_555
O1 Zn0 2.040894 1_555
O1 Zn3 2.040903 1_555
O2 P1 1.577036 1_555
O2 V1 2.044349 1_556
O2 Zn3 2.159415 1_555
O3 P1 1.577041 1_555
O3 V0 2.044350 1_555
O3 Zn3 2.159408 1_555
O4 P3 1.577045 1_556
O4 V0 2.044343 1_556
O4 Zn2 2.159412 1_545
O5 V0 1.622946 1_555
O6 P2 1.577036 1_555
O6 V0 2.044349 1_556
O6 Zn0 2.159415 1_455
O7 P1 1.499829 1_555
O7 Zn0 1.911496 1_565
O8 P2 1.557772 1_565
O8 Zn1 2.040907 1_555
O8 Zn2 2.040908 1_555
O9 P2 1.577041 1_655
O9 V1 2.044350 1_545
O9 Zn0 2.159408 1_555
O10 P3 1.499831 1_555
O10 Zn1 1.911496 1_655
O11 P0 1.577041 1_554
O11 V1 2.044350 1_455
O11 Zn1 2.159402 1_555
O12 P0 1.577041 1_554
O12 V0 2.044350 1_555
O12 Zn1 2.159402 1_555
O13 P0 1.557774 1_655
O13 Zn3 2.040899 1_555
O13 Zn0 2.040899 1_555
O14 P3 1.577045 1_566
O14 V1 2.044343 1_556
O14 Zn2 2.159412 1_555
O15 P1 1.557774 1_555
O15 Zn1 2.040903 1_555
O15 Zn2 2.040904 1_555
O16 P2 1.499829 1_555
O16 Zn3 1.911496 1_555
O17 P0 1.499823 1_555
O17 Zn2 1.911496 1_555
