# generated using pymatgen
data_Ga2Te3(HO2)6
_symmetry_space_group_name_H-M   'P 1'
_cell_length_a   8.70027440
_cell_length_b   8.70027440
_cell_length_c   8.70027390
_cell_angle_alpha   66.59492476
_cell_angle_beta   66.59492476
_cell_angle_gamma   66.59492323
_symmetry_Int_Tables_number   1
_chemical_formula_structural   Ga2Te3(HO2)6
_chemical_formula_sum   'Ga4 Te6 H12 O24'
_cell_volume   531.76253019
_cell_formula_units_Z   2
loop_
 _symmetry_equiv_pos_site_id
 _symmetry_equiv_pos_as_xyz
  1  'x, y, z'
loop_
 _atom_site_type_symbol
 _atom_site_label
 _atom_site_symmetry_multiplicity
 _atom_site_fract_x
 _atom_site_fract_y
 _atom_site_fract_z
 _atom_site_occupancy
  Ga  Ga0  1  0.09182400  0.09182400  0.09182400  1
  Ga  Ga1  1  0.59182400  0.59182400  0.59182400  1
  Ga  Ga2  1  0.33735800  0.33735800  0.33735800  1
  Ga  Ga3  1  0.83735800  0.83735800  0.83735800  1
  Te  Te0  1  0.90114400  0.44119700  0.81072500  1
  Te  Te1  1  0.44119700  0.81072500  0.90114400  1
  Te  Te2  1  0.81072500  0.90114400  0.44119700  1
  Te  Te3  1  0.94119700  0.40114400  0.31072500  1
  Te  Te4  1  0.40114400  0.31072500  0.94119700  1
  Te  Te5  1  0.31072500  0.94119700  0.40114400  1
  H  H0  1  0.34839200  0.35563800  0.63156800  1
  H  H1  1  0.35563800  0.63156800  0.34839200  1
  H  H2  1  0.63156800  0.34839200  0.35563800  1
  H  H3  1  0.85563800  0.84839200  0.13156800  1
  H  H4  1  0.84839200  0.13156800  0.85563800  1
  H  H5  1  0.13156800  0.85563800  0.84839200  1
  H  H6  1  0.30934900  0.17175700  0.68301100  1
  H  H7  1  0.17175700  0.68301100  0.30934900  1
  H  H8  1  0.68301200  0.30934900  0.17175700  1
  H  H9  1  0.67175700  0.80934900  0.18301100  1
  H  H10  1  0.80934900  0.18301100  0.67175700  1
  H  H11  1  0.18301100  0.67175700  0.80934900  1
  O  O0  1  0.88320300  0.22948200  0.99795000  1
  O  O1  1  0.22948200  0.99795000  0.88320300  1
  O  O2  1  0.99795000  0.88320300  0.22948200  1
  O  O3  1  0.72948200  0.38320300  0.49795000  1
  O  O4  1  0.38320300  0.49795000  0.72948200  1
  O  O5  1  0.49795000  0.72948200  0.38320300  1
  O  O6  1  0.17560500  0.30413600  0.96495900  1
  O  O7  1  0.30413600  0.96495900  0.17560500  1
  O  O8  1  0.96495900  0.17560500  0.30413600  1
  O  O9  1  0.80413600  0.67560500  0.46495900  1
  O  O10  1  0.67560500  0.46495900  0.80413600  1
  O  O11  1  0.46495900  0.80413600  0.67560500  1
  O  O12  1  0.81610100  0.59985900  0.94603900  1
  O  O13  1  0.59985900  0.94603900  0.81610100  1
  O  O14  1  0.94603900  0.81610100  0.59985900  1
  O  O15  1  0.09985900  0.31610100  0.44603900  1
  O  O16  1  0.31610100  0.44603900  0.09985900  1
  O  O17  1  0.44603900  0.09985900  0.31610100  1
  O  O18  1  0.36285500  0.26148300  0.58537300  1
  O  O19  1  0.26148300  0.58537300  0.36285500  1
  O  O20  1  0.58537300  0.36285500  0.26148300  1
  O  O21  1  0.76148300  0.86285500  0.08537300  1
  O  O22  1  0.86285500  0.08537300  0.76148300  1
  O  O23  1  0.08537300  0.76148300  0.86285500  1
loop_
_geom_bond_atom_site_label_1
_geom_bond_atom_site_label_2
_geom_bond_distance
_geom_bond_site_symmetry_2
Ga0 O8 1.993086 1_455
Ga0 O7 1.993086 1_545
Ga0 O6 1.993086 1_554
Ga0 O1 2.017293 1_544
Ga0 O0 2.017293 1_454
Ga0 O2 2.017293 1_445
Ga1 O10 1.993086 1_555
Ga1 O11 1.993086 1_555
Ga1 O9 1.993086 1_555
Ga1 O5 2.017293 1_555
Ga1 O3 2.017293 1_555
Ga1 O4 2.017293 1_555
Ga2 O16 1.952012 1_555
Ga2 O17 1.952012 1_555
Ga2 O15 1.952012 1_555
Ga2 O18 2.067212 1_555
Ga2 O19 2.067212 1_555
Ga2 O20 2.067212 1_555
Ga3 O14 1.952012 1_555
Ga3 O13 1.952012 1_555
Ga3 O12 1.952012 1_555
Ga3 O21 2.067212 1_556
Ga3 O23 2.067212 1_655
Ga3 O22 2.067212 1_565
H0 O18 0.993934 1_555
H1 O19 0.993934 1_555
H2 O20 0.993934 1_555
H3 O21 0.993934 1_555
H4 O22 0.993934 1_555
H5 O23 0.993934 1_555
H6 O18 0.997710 1_555
H7 O19 0.997710 1_555
H8 O20 0.997713 1_555
H9 O21 0.997710 1_555
H10 O22 0.997710 1_555
H11 O23 0.997710 1_555
O0 Te0 1.926995 1_555
O1 Te1 1.926995 1_555
O2 Te2 1.926995 1_555
O3 Te3 1.926995 1_555
O4 Te4 1.926995 1_555
O5 Te5 1.926995 1_555
O6 Te4 1.911576 1_555
O7 Te5 1.911576 1_555
O8 Te3 1.911576 1_555
O9 Te2 1.911576 1_555
O10 Te0 1.911576 1_555
O11 Te1 1.911576 1_555
O12 Te0 1.904352 1_555
O13 Te1 1.904352 1_555
O14 Te2 1.904352 1_555
O15 Te3 1.904352 1_455
O16 Te4 1.904352 1_554
O17 Te5 1.904352 1_545
