# generated using pymatgen
data_ScBRh3
_symmetry_space_group_name_H-M   'P 1'
_cell_length_a   4.09667077
_cell_length_b   4.09667077
_cell_length_c   4.09667077
_cell_angle_alpha   90.00000000
_cell_angle_beta   90.00000000
_cell_angle_gamma   90.00000000
_symmetry_Int_Tables_number   1
_chemical_formula_structural   ScBRh3
_chemical_formula_sum   'Sc1 B1 Rh3'
_cell_volume   68.75324322
_cell_formula_units_Z   1
loop_
 _symmetry_equiv_pos_site_id
 _symmetry_equiv_pos_as_xyz
  1  'x, y, z'
loop_
 _atom_site_type_symbol
 _atom_site_label
 _atom_site_symmetry_multiplicity
 _atom_site_fract_x
 _atom_site_fract_y
 _atom_site_fract_z
 _atom_site_occupancy
  Sc  Sc0  1  0.00000000  0.00000000  0.00000000  1
  B  B0  1  0.50000000  0.50000000  0.50000000  1
  Rh  Rh0  1  -0.00000000  0.50000000  0.50000000  1
  Rh  Rh1  1  0.50000000  -0.00000000  0.50000000  1
  Rh  Rh2  1  0.50000000  0.50000000  -0.00000000  1
loop_
_geom_bond_atom_site_label_1
_geom_bond_atom_site_label_2
_geom_bond_distance
_geom_bond_site_symmetry_2
B0 Rh2 2.048335 1_556
B0 Rh1 2.048335 1_565
B0 Rh0 2.048335 1_555
B0 Rh2 2.048335 1_555
B0 Rh0 2.048335 1_655
B0 Rh1 2.048335 1_555
Rh0 Sc0 2.896784 1_565
Rh0 Sc0 2.896784 1_566
Rh0 Sc0 2.896784 1_555
Rh0 Sc0 2.896784 1_556
Rh1 Sc0 2.896784 1_655
Rh1 Sc0 2.896784 1_555
Rh1 Sc0 2.896784 1_556
Rh1 Sc0 2.896784 1_656
Rh2 Sc0 2.896784 1_665
Rh2 Sc0 2.896784 1_565
Rh2 Sc0 2.896784 1_655
Rh2 Sc0 2.896784 1_555
