# generated using pymatgen
data_Y(BRh)4
_symmetry_space_group_name_H-M   'P 1'
_cell_length_a   5.34709800
_cell_length_b   5.34709800
_cell_length_c   7.47089200
_cell_angle_alpha   90.00000000
_cell_angle_beta   90.00000000
_cell_angle_gamma   90.00000000
_symmetry_Int_Tables_number   1
_chemical_formula_structural   Y(BRh)4
_chemical_formula_sum   'Y2 B8 Rh8'
_cell_volume   213.60368753
_cell_formula_units_Z   2
loop_
 _symmetry_equiv_pos_site_id
 _symmetry_equiv_pos_as_xyz
  1  'x, y, z'
loop_
 _atom_site_type_symbol
 _atom_site_label
 _atom_site_symmetry_multiplicity
 _atom_site_fract_x
 _atom_site_fract_y
 _atom_site_fract_z
 _atom_site_occupancy
  Y  Y0  1  0.00000000  0.00000000  0.50000000  1
  Y  Y1  1  0.50000000  0.50000000  0.00000000  1
  B  B0  1  0.16880800  0.50000000  0.64977800  1
  B  B1  1  0.50000000  0.83119200  0.35022200  1
  B  B2  1  0.83119200  0.50000000  0.64977800  1
  B  B3  1  0.50000000  0.16880800  0.35022200  1
  B  B4  1  0.00000000  0.33119200  0.14977800  1
  B  B5  1  0.00000000  0.66880800  0.14977800  1
  B  B6  1  0.33119200  0.00000000  0.85022200  1
  B  B7  1  0.66880800  0.00000000  0.85022200  1
  Rh  Rh0  1  0.74863500  0.50000000  0.35511700  1
  Rh  Rh1  1  0.50000000  0.25136500  0.64488300  1
  Rh  Rh2  1  0.00000000  0.24863500  0.85511700  1
  Rh  Rh3  1  0.00000000  0.75136500  0.85511700  1
  Rh  Rh4  1  0.24863500  0.00000000  0.14488300  1
  Rh  Rh5  1  0.75136500  0.00000000  0.14488300  1
  Rh  Rh6  1  0.50000000  0.74863500  0.64488300  1
  Rh  Rh7  1  0.25136500  0.50000000  0.35511700  1
loop_
_geom_bond_atom_site_label_1
_geom_bond_atom_site_label_2
_geom_bond_distance
_geom_bond_site_symmetry_2
B0 B2 1.805266 1_455
B0 Rh6 2.214720 1_555
B0 Rh1 2.214720 1_555
B0 Rh3 2.230389 1_555
B0 Rh2 2.230389 1_555
B0 Rh7 2.245205 1_555
B0 Y0 3.035575 1_555
B0 Y0 3.035575 1_565
B0 Y1 3.159440 1_556
B1 B3 1.805266 1_565
B1 Rh7 2.214720 1_555
B1 Rh0 2.214720 1_555
B1 Rh4 2.230389 1_565
B1 Rh5 2.230389 1_565
B1 Rh6 2.245205 1_555
B1 Y0 3.035575 1_665
B1 Y0 3.035575 1_565
B1 Y1 3.159440 1_555
B2 Rh6 2.214720 1_555
B2 Rh1 2.214720 1_555
B2 Rh3 2.230389 1_655
B2 Rh2 2.230389 1_655
B2 Rh0 2.245205 1_555
B2 Y0 3.035575 1_665
B2 Y0 3.035575 1_655
B2 Y1 3.159440 1_556
B3 Rh0 2.214720 1_555
B3 Rh7 2.214720 1_555
B3 Rh5 2.230389 1_555
B3 Rh4 2.230389 1_555
B3 Rh1 2.245205 1_555
B3 Y0 3.035575 1_655
B3 Y0 3.035575 1_555
B3 Y1 3.159440 1_555
B4 B5 1.805266 1_555
B4 Rh5 2.214720 1_455
B4 Rh4 2.214720 1_555
B4 Rh0 2.230389 1_455
B4 Rh7 2.230389 1_555
B4 Rh2 2.245205 1_554
B4 Y1 3.035575 1_555
B4 Y1 3.035575 1_455
B4 Y0 3.159440 1_555
B5 Rh5 2.214720 1_465
B5 Rh4 2.214720 1_565
B5 Rh0 2.230389 1_455
B5 Rh7 2.230389 1_555
B5 Rh3 2.245205 1_554
B5 Y1 3.035575 1_555
B5 Y1 3.035575 1_455
B5 Y0 3.159440 1_565
B6 B7 1.805266 1_555
B6 Rh3 2.214720 1_545
B6 Rh2 2.214720 1_555
B6 Rh6 2.230389 1_545
B6 Rh1 2.230389 1_555
B6 Rh4 2.245205 1_556
B6 Y1 3.035575 1_556
B6 Y1 3.035575 1_546
B6 Y0 3.159440 1_555
B7 Rh3 2.214720 1_645
B7 Rh2 2.214720 1_655
B7 Rh6 2.230389 1_545
B7 Rh1 2.230389 1_555
B7 Rh5 2.245205 1_556
B7 Y1 3.035575 1_556
B7 Y1 3.035575 1_546
B7 Y0 3.159440 1_655
Rh0 Y1 2.967513 1_555
Rh0 Y0 3.182137 1_665
Rh0 Y0 3.182137 1_655
Rh1 Y1 2.967513 1_556
Rh1 Y0 3.182137 1_655
Rh1 Y0 3.182137 1_555
Rh2 Y0 2.967513 1_555
Rh2 Y1 3.182137 1_556
Rh2 Y1 3.182137 1_456
Rh3 Y0 2.967513 1_565
Rh3 Y1 3.182137 1_456
Rh3 Y1 3.182137 1_556
Rh4 Y0 2.967513 1_555
Rh4 Y1 3.182137 1_545
Rh4 Y1 3.182137 1_555
Rh5 Y0 2.967513 1_655
Rh5 Y1 3.182137 1_545
Rh5 Y1 3.182137 1_555
Rh6 Y1 2.967513 1_556
Rh6 Y0 3.182137 1_565
Rh6 Y0 3.182137 1_665
Rh7 Y1 2.967513 1_555
Rh7 Y0 3.182137 1_555
Rh7 Y0 3.182137 1_565
