# generated using pymatgen
data_InSb
_symmetry_space_group_name_H-M   'P 1'
_cell_length_a   6.44499800
_cell_length_b   11.84084000
_cell_length_c   11.87600800
_cell_angle_alpha   90.00000000
_cell_angle_beta   90.00000000
_cell_angle_gamma   90.00000000
_symmetry_Int_Tables_number   1
_chemical_formula_structural   InSb
_chemical_formula_sum   'In16 Sb16'
_cell_volume   906.30793236
_cell_formula_units_Z   16
loop_
 _symmetry_equiv_pos_site_id
 _symmetry_equiv_pos_as_xyz
  1  'x, y, z'
loop_
 _atom_site_type_symbol
 _atom_site_label
 _atom_site_symmetry_multiplicity
 _atom_site_fract_x
 _atom_site_fract_y
 _atom_site_fract_z
 _atom_site_occupancy
  In  In0_0  1  0.00440250  0.00000000  0.00000000  1
  In  In0_1  1  0.00440250  0.00000000  0.50000000  1
  In  In0_2  1  0.00440250  0.50000000  0.00000000  1
  In  In0_3  1  0.00440250  0.50000000  0.50000000  1
  In  In0_4  1  0.50440250  0.00000000  0.00000000  1
  In  In0_5  1  0.50440250  0.00000000  0.50000000  1
  In  In0_6  1  0.50440250  0.50000000  0.00000000  1
  In  In0_7  1  0.50440250  0.50000000  0.50000000  1
  In  In1_0  1  0.49559750  0.25000000  0.25000000  1
  In  In1_1  1  0.49559750  0.25000000  0.75000000  1
  In  In1_2  1  0.49559750  0.75000000  0.25000000  1
  In  In1_3  1  0.49559750  0.75000000  0.75000000  1
  In  In1_4  1  0.99559750  0.25000000  0.25000000  1
  In  In1_5  1  0.99559750  0.25000000  0.75000000  1
  In  In1_6  1  0.99559750  0.75000000  0.25000000  1
  In  In1_7  1  0.99559750  0.75000000  0.75000000  1
  Sb  Sb0_0  1  0.13849850  0.00000000  0.25000000  1
  Sb  Sb0_1  1  0.13849850  0.00000000  0.75000000  1
  Sb  Sb0_2  1  0.13849850  0.50000000  0.25000000  1
  Sb  Sb0_3  1  0.13849850  0.50000000  0.75000000  1
  Sb  Sb0_4  1  0.63849850  0.00000000  0.25000000  1
  Sb  Sb0_5  1  0.63849850  0.00000000  0.75000000  1
  Sb  Sb0_6  1  0.63849850  0.50000000  0.25000000  1
  Sb  Sb0_7  1  0.63849850  0.50000000  0.75000000  1
  Sb  Sb1_0  1  0.36150150  0.25000000  0.00000000  1
  Sb  Sb1_1  1  0.36150150  0.25000000  0.50000000  1
  Sb  Sb1_2  1  0.36150150  0.75000000  0.00000000  1
  Sb  Sb1_3  1  0.36150150  0.75000000  0.50000000  1
  Sb  Sb1_4  1  0.86150150  0.25000000  0.00000000  1
  Sb  Sb1_5  1  0.86150150  0.25000000  0.50000000  1
  Sb  Sb1_6  1  0.86150150  0.75000000  0.00000000  1
  Sb  Sb1_7  1  0.86150150  0.75000000  0.50000000  1
loop_
_geom_bond_atom_site_label_1
_geom_bond_atom_site_label_2
_geom_bond_distance
_geom_bond_site_symmetry_2
In0_0 Sb0_1 3.092232 1_554
In0_0 Sb0_0 3.092232 1_555
In0_0 Sb1_6 3.100174 1_445
In0_0 Sb1_4 3.100174 1_455
In0_0 In0_4 3.222499 1_455
In0_0 In0_4 3.222499 1_555
In0_1 Sb0_1 3.092232 1_555
In0_1 Sb0_0 3.092232 1_555
In0_1 Sb1_5 3.100174 1_455
In0_1 Sb1_7 3.100174 1_445
In0_1 In0_5 3.222499 1_455
In0_1 In0_5 3.222499 1_555
In0_2 Sb0_3 3.092232 1_554
In0_2 Sb0_2 3.092232 1_555
In0_2 Sb1_6 3.100174 1_455
In0_2 Sb1_4 3.100174 1_455
In0_2 In0_6 3.222499 1_555
In0_2 In0_6 3.222499 1_455
In0_3 Sb0_2 3.092232 1_555
In0_3 Sb0_3 3.092232 1_555
In0_3 Sb1_7 3.100174 1_455
In0_3 Sb1_5 3.100174 1_455
In0_3 In0_7 3.222499 1_555
In0_3 In0_7 3.222499 1_455
In0_4 Sb0_4 3.092232 1_555
In0_4 Sb0_5 3.092232 1_554
In0_4 Sb1_2 3.100174 1_545
In0_4 Sb1_0 3.100174 1_555
In0_5 Sb0_5 3.092232 1_555
In0_5 Sb0_4 3.092232 1_555
In0_5 Sb1_1 3.100174 1_555
In0_5 Sb1_3 3.100174 1_545
In0_6 Sb0_6 3.092232 1_555
In0_6 Sb0_7 3.092232 1_554
In0_6 Sb1_2 3.100174 1_555
In0_6 Sb1_0 3.100174 1_555
In0_7 Sb0_6 3.092232 1_555
In0_7 Sb0_7 3.092232 1_555
In0_7 Sb1_1 3.100174 1_555
In0_7 Sb1_3 3.100174 1_555
In1_0 Sb1_0 3.092232 1_555
In1_0 Sb1_1 3.092232 1_555
In1_0 Sb0_6 3.100174 1_555
In1_0 Sb0_4 3.100174 1_555
In1_0 In1_4 3.222499 1_555
In1_0 In1_4 3.222499 1_455
In1_1 Sb1_0 3.092232 1_556
In1_1 Sb1_1 3.092232 1_555
In1_1 Sb0_5 3.100174 1_555
In1_1 Sb0_7 3.100174 1_555
In1_1 In1_5 3.222499 1_555
In1_1 In1_5 3.222499 1_455
In1_2 Sb1_3 3.092232 1_555
In1_2 Sb1_2 3.092232 1_555
In1_2 Sb0_6 3.100174 1_555
In1_2 Sb0_4 3.100174 1_565
In1_2 In1_6 3.222499 1_555
In1_2 In1_6 3.222499 1_455
In1_3 Sb1_3 3.092232 1_555
In1_3 Sb1_2 3.092232 1_556
In1_3 Sb0_5 3.100174 1_565
In1_3 Sb0_7 3.100174 1_555
In1_3 In1_7 3.222499 1_555
In1_3 In1_7 3.222499 1_455
In1_4 Sb1_5 3.092232 1_555
In1_4 Sb1_4 3.092232 1_555
In1_4 Sb0_0 3.100174 1_655
In1_4 Sb0_2 3.100174 1_655
In1_5 Sb1_5 3.092232 1_555
In1_5 Sb1_4 3.092232 1_556
In1_5 Sb0_3 3.100174 1_655
In1_5 Sb0_1 3.100174 1_655
In1_6 Sb1_6 3.092232 1_555
In1_6 Sb1_7 3.092232 1_555
In1_6 Sb0_0 3.100174 1_665
In1_6 Sb0_2 3.100174 1_655
In1_7 Sb1_6 3.092232 1_556
In1_7 Sb1_7 3.092232 1_555
In1_7 Sb0_3 3.100174 1_655
In1_7 Sb0_1 3.100174 1_665
Sb0_0 Sb0_4 3.222499 1_455
Sb0_0 Sb0_4 3.222499 1_555
Sb0_1 Sb0_5 3.222499 1_455
Sb0_1 Sb0_5 3.222499 1_555
Sb0_2 Sb0_6 3.222499 1_455
Sb0_2 Sb0_6 3.222499 1_555
Sb0_3 Sb0_7 3.222499 1_455
Sb0_3 Sb0_7 3.222499 1_555
Sb1_0 Sb1_4 3.222499 1_555
Sb1_0 Sb1_4 3.222499 1_455
Sb1_1 Sb1_5 3.222499 1_555
Sb1_1 Sb1_5 3.222499 1_455
Sb1_2 Sb1_6 3.222499 1_555
Sb1_2 Sb1_6 3.222499 1_455
Sb1_3 Sb1_7 3.222499 1_555
Sb1_3 Sb1_7 3.222499 1_455
