# generated using pymatgen
data_Gd2B(OF)3
_symmetry_space_group_name_H-M   'P 1'
_cell_length_a   6.25208800
_cell_length_b   8.39107800
_cell_length_c   16.74038029
_cell_angle_alpha   86.59998028
_cell_angle_beta   90.00000000
_cell_angle_gamma   90.00000000
_symmetry_Int_Tables_number   1
_chemical_formula_structural   Gd2B(OF)3
_chemical_formula_sum   'Gd16 B8 O24 F24'
_cell_volume   876.68392741
_cell_formula_units_Z   8
loop_
 _symmetry_equiv_pos_site_id
 _symmetry_equiv_pos_as_xyz
  1  'x, y, z'
loop_
 _atom_site_type_symbol
 _atom_site_label
 _atom_site_symmetry_multiplicity
 _atom_site_fract_x
 _atom_site_fract_y
 _atom_site_fract_z
 _atom_site_occupancy
  Gd  Gd0  1  0.14719600  0.31980400  0.80988000  1
  Gd  Gd1  1  0.13957900  0.05823700  0.32581400  1
  Gd  Gd2  1  0.86875500  0.66679800  0.43069200  1
  Gd  Gd3  1  0.63124500  0.16679800  0.43069200  1
  Gd  Gd4  1  0.36875500  0.83320200  0.56930800  1
  Gd  Gd5  1  0.14448500  0.30047500  0.05513900  1
  Gd  Gd6  1  0.85280400  0.68019600  0.19012000  1
  Gd  Gd7  1  0.36042100  0.55823700  0.32581400  1
  Gd  Gd8  1  0.63957900  0.44176300  0.67418600  1
  Gd  Gd9  1  0.13124500  0.33320200  0.56930800  1
  Gd  Gd10  1  0.35551500  0.80047500  0.05513900  1
  Gd  Gd11  1  0.85551500  0.69952500  0.94486100  1
  Gd  Gd12  1  0.35280400  0.81980400  0.80988000  1
  Gd  Gd13  1  0.86042100  0.94176300  0.67418600  1
  Gd  Gd14  1  0.64448500  0.19952500  0.94486100  1
  Gd  Gd15  1  0.64719600  0.18019600  0.19012000  1
  B  B0  1  0.15853600  0.04054500  0.94685900  1
  B  B1  1  0.84797300  0.40121200  0.32791300  1
  B  B2  1  0.15202700  0.59878800  0.67208700  1
  B  B3  1  0.34146400  0.54054500  0.94685900  1
  B  B4  1  0.65202700  0.90121200  0.32791300  1
  B  B5  1  0.65853600  0.45945500  0.05314100  1
  B  B6  1  0.34797300  0.09878800  0.67208700  1
  B  B7  1  0.84146400  0.95945500  0.05314100  1
  O  O0  1  0.69429200  0.43705800  0.38501500  1
  O  O1  1  0.19429200  0.06294200  0.61498500  1
  O  O2  1  0.64813000  0.61467200  0.07693800  1
  O  O3  1  0.85655100  0.24498700  0.30520100  1
  O  O4  1  0.35655100  0.25501300  0.69479900  1
  O  O5  1  0.80570800  0.93705800  0.38501500  1
  O  O6  1  0.69598900  0.92883700  0.99196100  1
  O  O7  1  0.30570800  0.56294200  0.61498500  1
  O  O8  1  0.19598900  0.57116300  0.00803900  1
  O  O9  1  0.01253800  0.47842500  0.69645000  1
  O  O10  1  0.80401100  0.42883700  0.99196100  1
  O  O11  1  0.14344900  0.75501300  0.69479900  1
  O  O12  1  0.51253800  0.02157500  0.30355000  1
  O  O13  1  0.48746200  0.97842500  0.69645000  1
  O  O14  1  0.64344900  0.74498700  0.30520100  1
  O  O15  1  0.85187000  0.11467200  0.07693800  1
  O  O16  1  0.52054600  0.33673200  0.07687700  1
  O  O17  1  0.47945400  0.66326800  0.92312300  1
  O  O18  1  0.02054600  0.16326800  0.92312300  1
  O  O19  1  0.35187000  0.38532800  0.92306200  1
  O  O20  1  0.97945400  0.83673200  0.07687700  1
  O  O21  1  0.30401100  0.07116300  0.00803900  1
  O  O22  1  0.14813000  0.88532800  0.92306200  1
  O  O23  1  0.98746200  0.52157500  0.30355000  1
  F  F0  1  0.17425100  0.50989100  0.45134300  1
  F  F1  1  0.42911100  0.09467700  0.84972000  1
  F  F2  1  0.17222500  0.78484800  0.35337200  1
  F  F3  1  0.92911100  0.40532300  0.15028000  1
  F  F4  1  0.22862600  0.67880100  0.18813200  1
  F  F5  1  0.27137400  0.17880100  0.18813200  1
  F  F6  1  0.72862600  0.82119900  0.81186800  1
  F  F7  1  0.42938100  0.54183500  0.77095400  1
  F  F8  1  0.52379100  0.70352400  0.46710800  1
  F  F9  1  0.07088900  0.59467700  0.84972000  1
  F  F10  1  0.82777500  0.21515200  0.64662800  1
  F  F11  1  0.57088900  0.90532300  0.15028000  1
  F  F12  1  0.67222500  0.71515200  0.64662800  1
  F  F13  1  0.57061900  0.45816500  0.22904600  1
  F  F14  1  0.47620900  0.29647600  0.53289200  1
  F  F15  1  0.32777500  0.28484800  0.35337200  1
  F  F16  1  0.97620900  0.20352400  0.46710800  1
  F  F17  1  0.02379100  0.79647600  0.53289200  1
  F  F18  1  0.92938100  0.95816500  0.22904600  1
  F  F19  1  0.32574900  0.00989100  0.45134300  1
  F  F20  1  0.82574900  0.49010900  0.54865700  1
  F  F21  1  0.07061900  0.04183500  0.77095400  1
  F  F22  1  0.77137400  0.32119900  0.81186800  1
  F  F23  1  0.67425100  0.99010900  0.54865700  1
loop_
_geom_bond_atom_site_label_1
_geom_bond_atom_site_label_2
_geom_bond_distance
_geom_bond_site_symmetry_2
Gd0 O18 2.377126 1_555
Gd0 O19 2.377660 1_555
Gd0 O9 2.405461 1_555
Gd0 O4 2.417528 1_555
Gd1 O3 2.375230 1_455
Gd1 O12 2.384180 1_555
Gd1 O5 2.500755 1_445
Gd2 O0 2.380246 1_555
Gd2 O5 2.382682 1_555
Gd2 O14 2.581557 1_555
Gd2 O23 2.621734 1_555
Gd3 O5 2.380246 1_545
Gd3 O0 2.382682 1_555
Gd3 O3 2.581557 1_555
Gd3 O12 2.621734 1_555
Gd4 O1 2.380246 1_565
Gd4 O7 2.382682 1_555
Gd4 O11 2.581557 1_555
Gd4 O13 2.621734 1_555
Gd5 O21 2.344961 1_555
Gd5 O8 2.381606 1_555
Gd5 O16 2.401270 1_555
Gd5 O15 2.417301 1_455
Gd5 O10 2.583570 1_454
Gd5 O19 2.624876 1_554
Gd5 O18 2.666806 1_554
Gd6 O20 2.377126 1_555
Gd6 O2 2.377660 1_555
Gd6 O23 2.405461 1_555
Gd6 O14 2.417528 1_555
Gd7 O14 2.375230 1_555
Gd7 O23 2.384180 1_455
Gd7 O0 2.500755 1_555
Gd8 O4 2.375230 1_555
Gd8 O9 2.384180 1_655
Gd8 O7 2.500755 1_555
Gd9 O7 2.380246 1_555
Gd9 O1 2.382682 1_555
Gd9 O4 2.581557 1_555
Gd9 O9 2.621734 1_555
Gd10 O8 2.344961 1_555
Gd10 O21 2.381606 1_565
Gd10 O20 2.401270 1_455
Gd10 O2 2.417301 1_555
Gd10 O6 2.583570 1_554
Gd10 O22 2.624876 1_554
Gd10 O17 2.666806 1_554
Gd11 O6 2.344961 1_555
Gd11 O10 2.381606 1_555
Gd11 O17 2.401270 1_555
Gd11 O22 2.417301 1_655
Gd11 O8 2.583570 1_656
Gd11 O2 2.624876 1_556
Gd11 O20 2.666806 1_556
Gd12 O17 2.377126 1_555
Gd12 O22 2.377660 1_555
Gd12 O13 2.405461 1_555
Gd12 O11 2.417528 1_555
Gd13 O11 2.375230 1_655
Gd13 O13 2.384180 1_555
Gd13 O1 2.500755 1_665
Gd14 O10 2.344961 1_555
Gd14 O6 2.381606 1_545
Gd14 O18 2.401270 1_655
Gd14 O19 2.417301 1_555
Gd14 O21 2.583570 1_556
Gd14 O15 2.624876 1_556
Gd14 O16 2.666806 1_556
Gd15 O16 2.377126 1_555
Gd15 O15 2.377660 1_555
Gd15 O12 2.405461 1_555
Gd15 O3 2.417528 1_555
B0 O18 1.383507 1_555
B0 O22 1.385936 1_545
B0 O21 1.404773 1_556
B1 O23 1.377710 1_555
B1 O3 1.387444 1_555
B1 O0 1.400546 1_555
B2 O9 1.377710 1_555
B2 O11 1.387444 1_555
B2 O7 1.400546 1_555
B3 O17 1.383507 1_555
B3 O19 1.385936 1_555
B3 O8 1.404773 1_556
B4 O12 1.377710 1_565
B4 O14 1.387444 1_555
B4 O5 1.400546 1_555
B5 O16 1.383507 1_555
B5 O2 1.385936 1_555
B5 O10 1.404773 1_554
B6 O13 1.377710 1_545
B6 O4 1.387444 1_555
B6 O1 1.400546 1_555
B7 O20 1.383507 1_555
B7 O15 1.385936 1_565
B7 O6 1.404773 1_554
F0 Gd2 2.333894 1_455
F0 Gd9 2.413069 1_555
F0 Gd7 2.415395 1_555
F1 Gd14 2.300017 1_555
F1 Gd12 2.484899 1_545
F1 Gd0 2.640173 1_555
F2 Gd7 2.305873 1_555
F2 Gd1 2.321965 1_565
F2 Gd2 2.470699 1_455
F3 Gd5 2.300017 1_655
F3 Gd6 2.484899 1_555
F3 Gd15 2.640173 1_555
F4 Gd6 2.349947 1_455
F4 Gd10 2.521663 1_555
F4 Gd7 2.595801 1_555
F5 Gd15 2.349947 1_555
F5 Gd5 2.521663 1_555
F5 Gd1 2.595801 1_555
F6 Gd12 2.349947 1_555
F6 Gd11 2.521663 1_555
F6 Gd13 2.595801 1_555
F7 Gd8 2.284230 1_555
F7 Gd12 2.504895 1_555
F7 Gd0 2.619972 1_555
F8 Gd2 2.267253 1_555
F8 Gd4 2.295968 1_555
F8 Gd7 2.909683 1_555
F9 Gd11 2.300017 1_455
F9 Gd0 2.484899 1_555
F9 Gd12 2.640173 1_555
F10 Gd8 2.305873 1_555
F10 Gd13 2.321965 1_545
F10 Gd9 2.470699 1_655
F11 Gd10 2.300017 1_555
F11 Gd15 2.484899 1_565
F11 Gd6 2.640173 1_555
F12 Gd13 2.305873 1_555
F12 Gd8 2.321965 1_555
F12 Gd4 2.470699 1_555
F13 Gd7 2.284230 1_555
F13 Gd15 2.504895 1_555
F13 Gd6 2.619972 1_555
F14 Gd9 2.267253 1_555
F14 Gd3 2.295968 1_555
F14 Gd8 2.909683 1_555
F15 Gd1 2.305873 1_555
F15 Gd7 2.321965 1_555
F15 Gd3 2.470699 1_555
F16 Gd3 2.267253 1_555
F16 Gd9 2.295968 1_655
F16 Gd1 2.909683 1_655
F17 Gd4 2.267253 1_555
F17 Gd2 2.295968 1_455
F17 Gd13 2.909683 1_455
F18 Gd1 2.284230 1_665
F18 Gd6 2.504895 1_555
F18 Gd15 2.619972 1_565
F19 Gd3 2.333894 1_555
F19 Gd4 2.413069 1_545
F19 Gd1 2.415395 1_555
F20 Gd9 2.333894 1_655
F20 Gd2 2.413069 1_555
F20 Gd8 2.415395 1_555
F21 Gd13 2.284230 1_445
F21 Gd0 2.504895 1_555
F21 Gd12 2.619972 1_545
F22 Gd0 2.349947 1_655
F22 Gd14 2.521663 1_555
F22 Gd8 2.595801 1_555
F23 Gd4 2.333894 1_555
F23 Gd3 2.413069 1_565
F23 Gd13 2.415395 1_555
