# generated using pymatgen
data_SiO2
_symmetry_space_group_name_H-M   'P 1'
_cell_length_a   15.94091096
_cell_length_b   15.94091096
_cell_length_c   15.94091096
_cell_angle_alpha   100.50687374
_cell_angle_beta   100.50687374
_cell_angle_gamma   129.44172138
_symmetry_Int_Tables_number   1
_chemical_formula_structural   SiO2
_chemical_formula_sum   'Si48 O96'
_cell_volume   2828.73345678
_cell_formula_units_Z   48
loop_
 _symmetry_equiv_pos_site_id
 _symmetry_equiv_pos_as_xyz
  1  'x, y, z'
loop_
 _atom_site_type_symbol
 _atom_site_label
 _atom_site_symmetry_multiplicity
 _atom_site_fract_x
 _atom_site_fract_y
 _atom_site_fract_z
 _atom_site_occupancy
  Si  Si0  1  0.70801700  0.93840300  0.61840700  1
  Si  Si1  1  0.06159700  0.68000400  0.76961500  1
  Si  Si2  1  0.57218300  0.42429400  0.69940100  1
  Si  Si3  1  0.92390300  0.68939800  0.61459200  1
  Si  Si4  1  0.73964300  0.43546400  0.45549300  1
  Si  Si5  1  0.12950100  0.66432700  0.09333100  1
  Si  Si6  1  0.58967600  0.67526400  0.52766800  1
  Si  Si7  1  0.58769100  0.43949200  0.30281400  1
  Si  Si8  1  0.57099600  0.03617000  0.90666900  1
  Si  Si9  1  0.56050800  0.86332300  0.14819900  1
  Si  Si10  1  0.56453600  0.02002900  0.30417900  1
  Si  Si11  1  0.71512300  0.41230900  0.85180100  1
  Si  Si12  1  0.93799200  0.41032400  0.08558700  1
  Si  Si13  1  0.57188700  0.26941500  0.54506900  1
  Si  Si14  1  0.32156100  0.32945400  0.62193800  1
  Si  Si15  1  0.13667700  0.28487700  0.69718600  1
  Si  Si16  1  0.69069000  0.07609700  0.76549600  1
  Si  Si17  1  0.94935900  0.26080400  0.93242700  1
  Si  Si18  1  0.31060200  0.92519400  0.23450400  1
  Si  Si19  1  0.91038900  0.29198300  0.23038500  1
  Si  Si20  1  0.72434600  0.02681900  0.45493100  1
  Si  Si21  1  0.92746200  0.92762700  0.84606500  1
  Si  Si22  1  0.31999600  0.08961100  0.38159300  1
  Si  Si23  1  0.57570600  0.27510600  0.14788900  1
  Si  Si24  1  0.96410900  0.02861500  0.69338500  1
  Si  Si25  1  0.33523000  0.27072400  0.30661500  1
  Si  Si26  1  0.32473600  0.85240400  0.91441300  1
  Si  Si27  1  0.73919600  0.67162300  0.68855500  1
  Si  Si28  1  0.33567300  0.42900400  0.46517400  1
  Si  Si29  1  0.70751700  0.69962400  0.37806200  1
  Si  Si30  1  0.97318100  0.42811300  0.69752700  1
  Si  Si31  1  0.72489400  0.87278300  0.30059900  1
  Si  Si32  1  0.07237300  0.91843800  0.99983500  1
  Si  Si33  1  0.67054600  0.29248300  0.99210700  1
  Si  Si34  1  0.73058500  0.27565400  0.30247300  1
  Si  Si35  1  0.72927600  0.03589100  0.06450500  1
  Si  Si36  1  0.08156200  0.08139700  0.15393500  1
  Si  Si37  1  0.97997100  0.28415000  0.54450700  1
  Si  Si38  1  0.07480600  0.30931000  0.38540800  1
  Si  Si39  1  0.98306800  0.05064100  0.31144500  1
  Si  Si40  1  0.97138500  0.66477000  0.93549500  1
  Si  Si41  1  0.32837700  0.01693200  0.06757300  1
  Si  Si42  1  0.96383000  0.87049900  0.53482600  1
  Si  Si43  1  0.30037600  0.67843900  0.00789300  1
  Si  Si44  1  0.12721700  0.42781700  0.85211100  1
  Si  Si45  1  0.71585000  0.26035700  0.69582100  1
  Si  Si46  1  0.91860300  0.07253800  0.00016500  1
  Si  Si47  1  0.14759600  0.06200800  0.47233200  1
  O  O0  1  0.85879300  0.56604000  0.53175100  1
  O  O1  1  0.16748500  0.38374700  0.78432500  1
  O  O2  1  0.32677100  0.97980000  0.15571400  1
  O  O3  1  0.82894300  0.67322900  0.65302900  1
  O  O4  1  0.68837700  0.75538000  0.31027300  1
  O  O5  1  0.65316500  0.57239700  0.31224700  1
  O  O6  1  0.59942200  0.38316000  0.21567500  1
  O  O7  1  0.63583100  0.92155100  0.08608400  1
  O  O8  1  0.59053200  0.15238400  0.93622000  1
  O  O9  1  0.20709300  0.98271800  0.01668000  1
  O  O10  1  0.04239400  0.44020600  0.79476900  1
  O  O11  1  0.33106900  0.33854500  0.39263900  1
  O  O12  1  0.22032200  0.20124000  0.21270000  1
  O  O13  1  0.44734900  0.56515400  0.48387000  1
  O  O14  1  0.95375800  0.37845700  0.17458700  1
  O  O15  1  0.79876000  0.01146000  0.01908200  1
  O  O16  1  0.07844900  0.16453300  0.71428000  1
  O  O17  1  0.21781000  0.40425600  0.42303400  1
  O  O18  1  0.67295800  0.14120700  0.70724700  1
  O  O19  1  0.66145500  0.05409400  0.99252400  1
  O  O20  1  0.88674100  0.97637100  0.90941500  1
  O  O21  1  0.22082900  0.04624200  0.42469900  1
  O  O22  1  0.63840100  0.68351900  0.44594300  1
  O  O23  1  0.03018300  0.72588400  0.69840100  1
  O  O24  1  0.95613000  0.35232900  0.00510300  1
  O  O25  1  0.05607500  0.33260000  0.89753900  1
  O  O26  1  0.43396000  0.96571100  0.29275300  1
  O  O27  1  0.55842500  0.95641100  0.20763000  1
  O  O28  1  0.23757600  0.19245900  0.55405700  1
  O  O29  1  0.84761600  0.78383600  0.43814800  1
  O  O30  1  0.66821900  0.96981700  0.69570100  1
  O  O31  1  0.02362900  0.93304400  0.91037100  1
  O  O32  1  0.20522400  0.78219000  0.18644500  1
  O  O33  1  0.03428900  0.32704200  0.46824900  1
  O  O34  1  0.61684000  0.83251500  0.21626200  1
  O  O35  1  0.62154300  0.79613000  0.57530100  1
  O  O36  1  0.84566000  0.00551500  0.66723200  1
  O  O37  1  0.61625300  0.40057800  0.78373800  1
  O  O38  1  0.66740000  0.56493900  0.72347600  1
  O  O39  1  0.42760300  0.73985000  0.08076800  1
  O  O40  1  0.98854000  0.00762200  0.78730000  1
  O  O41  1  0.06157000  0.66893100  0.00747600  1
  O  O42  1  0.64767100  0.65277400  0.60380000  1
  O  O43  1  0.00333500  0.39150500  0.61415200  1
  O  O44  1  0.43506100  0.15853600  0.10246100  1
  O  O45  1  0.80958700  0.79290700  0.77562600  1
  O  O46  1  0.84146400  0.94392500  0.27652400  1
  O  O47  1  0.82408600  0.17105700  0.84428600  1
  O  O48  1  0.61081700  0.99666500  0.38817000  1
  O  O49  1  0.08128400  0.96347900  0.51613000  1
  O  O50  1  0.02020000  0.17591400  0.34697100  1
  O  O51  1  0.04358900  0.25122000  0.60201500  1
  O  O52  1  0.74878000  0.35079500  0.79237000  1
  O  O53  1  0.01578600  0.55442000  0.70982100  1
  O  O54  1  0.83879200  0.16812600  0.49434600  1
  O  O55  1  0.69403500  0.98421400  0.53863400  1
  O  O56  1  0.21616400  0.65431200  0.06378000  1
  O  O57  1  0.60849500  0.22264800  0.61183000  1
  O  O58  1  0.34722600  0.95102700  0.99489700  1
  O  O59  1  0.64920500  0.44157500  0.39798500  1
  O  O60  1  0.44510700  0.37810500  0.68972700  1
  O  O61  1  0.03652100  0.55265100  0.11780500  1
  O  O62  1  0.99237800  0.77967800  0.98091800  1
  O  O63  1  0.99448500  0.66171700  0.84014500  1
  O  O64  1  0.02267300  0.11325900  0.08962900  1
  O  O65  1  0.64543700  0.24762500  0.20523100  1
  O  O66  1  0.65908200  0.34683500  0.91923200  1
  O  O67  1  0.83546700  0.54974700  0.91391600  1
  O  O68  1  0.65555400  0.16120800  0.32933400  1
  O  O69  1  0.31648100  0.76242400  0.95488300  1
  O  O70  1  0.27411600  0.97251800  0.30429900  1
  O  O71  1  0.80754100  0.36159900  0.04511700  1
  O  O72  1  0.20387000  0.77917100  0.82541300  1
  O  O73  1  0.01728200  0.03396100  0.22437400  1
  O  O74  1  0.96603900  0.19041300  0.98332000  1
  O  O75  1  0.83187400  0.32622000  0.67066600  1
  O  O76  1  0.77735200  0.38918300  0.38584800  1
  O  O77  1  0.02748200  0.33178100  0.30159900  1
  O  O78  1  0.82157200  0.15434000  0.15985500  1
  O  O79  1  0.67378000  0.34444600  0.50565400  1
  O  O80  1  0.26015000  0.34091800  0.68775300  1
  O  O81  1  0.44558000  0.15540100  0.46136600  1
  O  O82  1  0.75237500  0.95760600  0.39781200  1
  O  O83  1  0.06695600  0.97732700  0.09058500  1
  O  O84  1  0.34568800  0.40946800  0.56185200  1
  O  O85  1  0.94590600  0.93843000  0.60736100  1
  O  O86  1  0.33828300  0.17842800  0.33276800  1
  O  O87  1  0.59574400  0.01877800  0.81355500  1
  O  O88  1  0.04897300  0.04387000  0.39620000  1
  O  O89  1  0.43484600  0.91871600  0.88219500  1
  O  O90  1  0.98122200  0.79477600  0.57696600  1
  O  O91  1  0.55979400  0.35456300  0.60218800  1
  O  O92  1  0.84459900  0.30596500  0.29017900  1
  O  O93  1  0.62189500  0.31162300  0.06700200  1
  O  O94  1  0.24462000  0.55489300  0.93299800  1
  O  O95  1  0.45025300  0.36416900  0.28572000  1
loop_
_geom_bond_atom_site_label_1
_geom_bond_atom_site_label_2
_geom_bond_distance
_geom_bond_site_symmetry_2
O0 Si4 1.621655 1_555
O0 Si3 1.627213 1_555
O1 Si44 1.619350 1_555
O1 Si15 1.619885 1_555
O2 Si41 1.619371 1_565
O2 Si18 1.622768 1_555
O3 Si27 1.619371 1_555
O3 Si3 1.622782 1_555
O4 Si31 1.618323 1_555
O4 Si29 1.620307 1_555
O5 Si7 1.617879 1_555
O5 Si29 1.620010 1_555
O6 Si23 1.619350 1_555
O6 Si7 1.619892 1_555
O7 Si35 1.620255 1_565
O7 Si9 1.623712 1_555
O8 Si8 1.626667 1_555
O8 Si33 1.627518 1_555
O9 Si41 1.618757 1_565
O9 Si32 1.620931 1_554
O10 Si30 1.629229 1_455
O10 Si44 1.630105 1_555
O11 Si25 1.623975 1_555
O11 Si28 1.627331 1_555
O12 Si25 1.624997 1_555
O12 Si36 1.625545 1_555
O13 Si28 1.621686 1_555
O13 Si6 1.622141 1_555
O14 Si12 1.621439 1_555
O14 Si19 1.621690 1_555
O15 Si35 1.624988 1_555
O15 Si46 1.625545 1_555
O16 Si24 1.620245 1_455
O16 Si15 1.623718 1_555
O17 Si38 1.622825 1_555
O17 Si28 1.624256 1_555
O18 Si45 1.621655 1_555
O18 Si16 1.627231 1_555
O19 Si35 1.623966 1_556
O19 Si8 1.627331 1_555
O20 Si46 1.623179 1_566
O20 Si21 1.624411 1_555
O21 Si47 1.621424 1_555
O21 Si22 1.621701 1_555
O22 Si6 1.618494 1_555
O22 Si29 1.620941 1_555
O23 Si3 1.622521 1_455
O23 Si1 1.623332 1_555
O24 Si17 1.618744 1_554
O24 Si12 1.620706 1_555
O25 Si17 1.617555 1_455
O25 Si44 1.621005 1_555
O26 Si10 1.621655 1_565
O26 Si18 1.627217 1_555
O27 Si10 1.630112 1_565
O27 Si9 1.631559 1_555
O28 Si47 1.618503 1_555
O28 Si14 1.620921 1_555
O29 Si42 1.626667 1_555
O29 Si29 1.627521 1_555
O30 Si16 1.622529 1_565
O30 Si0 1.623308 1_555
O31 Si21 1.623186 1_455
O31 Si32 1.624398 1_555
O32 Si18 1.622826 1_555
O32 Si5 1.624247 1_555
O33 Si37 1.621655 1_455
O33 Si38 1.627217 1_555
O34 Si31 1.619341 1_555
O34 Si9 1.619905 1_555
O35 Si6 1.621424 1_555
O35 Si0 1.621703 1_555
O36 Si24 1.627308 1_555
O36 Si0 1.629597 1_545
O37 Si2 1.619338 1_555
O37 Si11 1.619892 1_555
O38 Si27 1.617566 1_555
O38 Si2 1.621005 1_555
O39 Si9 1.617883 1_555
O39 Si43 1.620015 1_555
O40 Si24 1.624997 1_555
O40 Si21 1.625545 1_545
O41 Si40 1.623967 1_454
O41 Si5 1.627331 1_555
O42 Si27 1.618754 1_555
O42 Si6 1.620706 1_555
O43 Si30 1.626217 1_455
O43 Si37 1.626769 1_455
O44 Si41 1.617555 1_555
O44 Si23 1.621005 1_555
O45 Si27 1.618765 1_555
O45 Si21 1.620927 1_555
O46 Si39 1.617554 1_565
O46 Si31 1.621005 1_555
O47 Si17 1.619371 1_555
O47 Si16 1.622767 1_555
O48 Si20 1.626211 1_565
O48 Si10 1.626769 1_565
O49 Si42 1.621686 1_455
O49 Si47 1.622141 1_565
O50 Si39 1.619371 1_455
O50 Si38 1.622768 1_555
O51 Si37 1.630107 1_455
O51 Si15 1.631559 1_555
O52 Si45 1.630118 1_555
O52 Si11 1.631559 1_555
O53 Si30 1.619789 1_455
O53 Si1 1.625489 1_555
O54 Si37 1.624998 1_555
O54 Si20 1.625248 1_555
O55 Si20 1.619805 1_565
O55 Si0 1.625484 1_555
O56 Si5 1.626667 1_555
O56 Si43 1.627518 1_555
O57 Si13 1.626206 1_555
O57 Si45 1.626777 1_555
O58 Si41 1.618744 1_566
O58 Si26 1.620708 1_555
O59 Si4 1.630118 1_555
O59 Si7 1.631559 1_555
O60 Si2 1.618320 1_555
O60 Si14 1.620306 1_555
O61 Si5 1.621686 1_555
O61 Si12 1.622139 1_455
O62 Si40 1.624993 1_555
O62 Si32 1.625545 1_655
O63 Si40 1.627324 1_555
O63 Si1 1.629583 1_655
O64 Si36 1.623199 1_555
O64 Si46 1.624392 1_455
O65 Si34 1.629221 1_555
O65 Si23 1.630105 1_555
O66 Si11 1.617879 1_555
O66 Si33 1.620015 1_555
O67 Si40 1.620241 1_555
O67 Si11 1.623716 1_555
O68 Si10 1.624998 1_555
O68 Si34 1.625248 1_555
O69 Si26 1.618494 1_555
O69 Si43 1.620917 1_556
O70 Si18 1.622541 1_555
O70 Si22 1.623320 1_565
O71 Si12 1.618509 1_555
O71 Si33 1.620912 1_554
O72 Si26 1.621433 1_555
O72 Si1 1.621701 1_555
O73 Si39 1.618775 1_455
O73 Si36 1.620920 1_555
O74 Si17 1.618765 1_555
O74 Si46 1.620927 1_556
O75 Si45 1.624998 1_555
O75 Si30 1.625249 1_555
O76 Si34 1.626217 1_555
O76 Si4 1.626757 1_555
O77 Si38 1.622529 1_555
O77 Si19 1.623334 1_455
O78 Si35 1.627317 1_555
O78 Si19 1.629594 1_555
O79 Si4 1.624998 1_555
O79 Si13 1.625257 1_555
O80 Si15 1.617893 1_555
O80 Si14 1.620004 1_555
O81 Si13 1.619798 1_555
O81 Si22 1.625489 1_555
O82 Si20 1.629221 1_565
O82 Si31 1.630117 1_555
O83 Si32 1.623186 1_554
O83 Si36 1.624398 1_565
O84 Si28 1.626667 1_555
O84 Si14 1.627530 1_555
O85 Si24 1.623975 1_565
O85 Si42 1.627331 1_555
O86 Si25 1.627308 1_555
O86 Si22 1.629583 1_555
O87 Si16 1.622836 1_555
O87 Si8 1.624241 1_555
O88 Si39 1.618755 1_455
O88 Si47 1.620708 1_555
O89 Si8 1.621686 1_565
O89 Si26 1.622151 1_555
O90 Si3 1.622826 1_555
O90 Si42 1.624256 1_555
O91 Si13 1.629209 1_555
O91 Si2 1.630118 1_555
O92 Si34 1.619805 1_555
O92 Si19 1.625482 1_555
O93 Si23 1.618326 1_555
O93 Si33 1.620317 1_554
O94 Si44 1.618323 1_555
O94 Si43 1.620312 1_556
O95 Si25 1.620245 1_555
O95 Si7 1.623716 1_555
