# generated using pymatgen
data_Ca2Zr(SiO3)4
_symmetry_space_group_name_H-M   'P 1'
_cell_length_a   13.70737831
_cell_length_b   5.32767728
_cell_length_c   7.42584249
_cell_angle_alpha   71.06252750
_cell_angle_beta   90.00000000
_cell_angle_gamma   90.00000000
_symmetry_Int_Tables_number   1
_chemical_formula_structural   Ca2Zr(SiO3)4
_chemical_formula_sum   'Ca4 Zr2 Si8 O24'
_cell_volume   512.94525041
_cell_formula_units_Z   2
loop_
 _symmetry_equiv_pos_site_id
 _symmetry_equiv_pos_as_xyz
  1  'x, y, z'
loop_
 _atom_site_type_symbol
 _atom_site_label
 _atom_site_symmetry_multiplicity
 _atom_site_fract_x
 _atom_site_fract_y
 _atom_site_fract_z
 _atom_site_occupancy
  Ca  Ca0  1  -0.00000000  -0.00000000  0.50000000  1
  Ca  Ca1  1  0.25000000  0.16539514  0.18565339  1
  Ca  Ca2  1  0.75000000  0.83460486  0.81434661  1
  Ca  Ca3  1  0.50000000  -0.00000000  0.50000000  1
  Zr  Zr0  1  0.50000000  -0.00000000  0.00000000  1
  Zr  Zr1  1  -0.00000000  -0.00000000  0.00000000  1
  Si  Si0  1  0.63985019  0.43225567  0.61561300  1
  Si  Si1  1  0.86232034  0.43340263  0.18143594  1
  Si  Si2  1  0.86014981  0.43225567  0.61561300  1
  Si  Si3  1  0.13767966  0.56659737  0.81856406  1
  Si  Si4  1  0.13985019  0.56774433  0.38438700  1
  Si  Si5  1  0.63767966  0.43340263  0.18143594  1
  Si  Si6  1  0.36232034  0.56659737  0.81856406  1
  Si  Si7  1  0.36014981  0.56774433  0.38438700  1
  O  O0  1  0.06700724  0.79261098  0.84276923  1
  O  O1  1  0.86717219  0.72650143  0.62085517  1
  O  O2  1  0.88114420  0.73343021  0.04524539  1
  O  O3  1  0.12458294  0.59610323  0.59476869  1
  O  O4  1  0.93553638  0.21393581  0.74314564  1
  O  O5  1  0.75000000  0.30717720  0.68867431  1
  O  O6  1  0.87541706  0.40389677  0.40523131  1
  O  O7  1  0.25000000  0.69282280  0.31132569  1
  O  O8  1  0.36717219  0.27349857  0.37914483  1
  O  O9  1  0.75000000  0.36965335  0.13534683  1
  O  O10  1  0.25000000  0.63034665  0.86465317  1
  O  O11  1  0.62458294  0.40389677  0.40523131  1
  O  O12  1  0.11885580  0.26656979  0.95475461  1
  O  O13  1  0.43299276  0.79261098  0.84276923  1
  O  O14  1  0.06446362  0.78606419  0.25685436  1
  O  O15  1  0.93299276  0.20738902  0.15723077  1
  O  O16  1  0.56446362  0.21393581  0.74314564  1
  O  O17  1  0.61885580  0.73343021  0.04524539  1
  O  O18  1  0.63282781  0.72650143  0.62085517  1
  O  O19  1  0.37541706  0.59610323  0.59476869  1
  O  O20  1  0.13282781  0.27349857  0.37914483  1
  O  O21  1  0.43553638  0.78606419  0.25685436  1
  O  O22  1  0.38114420  0.26656979  0.95475461  1
  O  O23  1  0.56700724  0.20738902  0.15723077  1
loop_
_geom_bond_atom_site_label_1
_geom_bond_atom_site_label_2
_geom_bond_distance
_geom_bond_site_symmetry_2
Ca0 O20 2.322679 1_555
Ca0 O1 2.322679 1_445
Ca0 O14 2.583738 1_545
Ca0 O4 2.583738 1_455
Ca0 O15 2.591876 1_455
Ca0 O0 2.591876 1_545
Ca0 O3 2.656874 1_545
Ca0 O6 2.656874 1_455
Ca1 O20 2.347971 1_555
Ca1 O8 2.347971 1_555
Ca1 O7 2.384267 1_545
Ca1 O12 2.421177 1_554
Ca1 O22 2.421177 1_554
Ca1 O10 2.825868 1_554
Ca2 O1 2.347971 1_555
Ca2 O18 2.347971 1_555
Ca2 O5 2.384267 1_565
Ca2 O2 2.421177 1_556
Ca2 O17 2.421177 1_556
Ca2 O9 2.825868 1_556
Ca3 O18 2.322679 1_545
Ca3 O8 2.322679 1_555
Ca3 O21 2.583738 1_545
Ca3 O16 2.583738 1_555
Ca3 O23 2.591876 1_555
Ca3 O13 2.591876 1_545
Ca3 O19 2.656874 1_545
Ca3 O11 2.656874 1_555
O0 Si3 1.600362 1_555
O0 Zr1 2.065187 1_566
O1 Si2 1.583637 1_555
O2 Si1 1.610945 1_555
O2 Zr1 2.115285 1_665
O3 Si3 1.627631 1_555
O3 Si4 1.631100 1_555
O4 Si2 1.613261 1_555
O4 Zr1 2.075296 1_656
O5 Si0 1.668364 1_555
O5 Si2 1.668364 1_555
O6 Si1 1.627631 1_555
O6 Si2 1.631100 1_555
O7 Si4 1.668364 1_555
O7 Si7 1.668364 1_555
O8 Si7 1.583637 1_555
O9 Si1 1.636569 1_555
O9 Si5 1.636569 1_555
O10 Si3 1.636569 1_555
O10 Si6 1.636569 1_555
O11 Si5 1.627631 1_555
O11 Si0 1.631100 1_555
O12 Si3 1.610945 1_555
O12 Zr1 2.115285 1_556
O13 Si6 1.600362 1_555
O13 Zr0 2.065187 1_566
O14 Si4 1.613261 1_555
O14 Zr1 2.075296 1_565
O15 Si1 1.600362 1_555
O15 Zr1 2.065187 1_655
O16 Si0 1.613261 1_555
O16 Zr0 2.075296 1_556
O17 Si5 1.610945 1_555
O17 Zr0 2.115285 1_565
O18 Si0 1.583637 1_555
O19 Si6 1.627631 1_555
O19 Si7 1.631100 1_555
O20 Si4 1.583637 1_555
O21 Si7 1.613261 1_555
O21 Zr0 2.075296 1_565
O22 Si6 1.610945 1_555
O22 Zr0 2.115285 1_556
O23 Si5 1.600362 1_555
O23 Zr0 2.065187 1_555
