# generated using pymatgen
data_Co21(B3Sb)2
_symmetry_space_group_name_H-M   'P 1'
_cell_length_a   7.45477931
_cell_length_b   7.45477931
_cell_length_c   7.45477931
_cell_angle_alpha   60.00000000
_cell_angle_beta   60.00000000
_cell_angle_gamma   60.00000000
_symmetry_Int_Tables_number   1
_chemical_formula_structural   Co21(B3Sb)2
_chemical_formula_sum   'Co21 B6 Sb2'
_cell_volume   292.94721607
_cell_formula_units_Z   1
loop_
 _symmetry_equiv_pos_site_id
 _symmetry_equiv_pos_as_xyz
  1  'x, y, z'
loop_
 _atom_site_type_symbol
 _atom_site_label
 _atom_site_symmetry_multiplicity
 _atom_site_fract_x
 _atom_site_fract_y
 _atom_site_fract_z
 _atom_site_occupancy
  Co  Co0  1  0.00000000  0.00000000  0.00000000  1
  Co  Co1  1  0.61641400  0.61641400  0.15075900  1
  Co  Co2  1  0.61641400  0.15075900  0.61641400  1
  Co  Co3  1  0.15075900  0.61641400  0.61641400  1
  Co  Co4  1  0.61641400  0.61641400  0.61641400  1
  Co  Co5  1  0.38358600  0.38358600  0.84924100  1
  Co  Co6  1  0.38358600  0.84924100  0.38358600  1
  Co  Co7  1  0.84924100  0.38358600  0.38358600  1
  Co  Co8  1  0.38358600  0.38358600  0.38358600  1
  Co  Co9  1  0.00000000  0.00000000  0.33384900  1
  Co  Co10  1  0.66615100  0.00000000  0.33384900  1
  Co  Co11  1  0.00000000  0.66615100  0.33384900  1
  Co  Co12  1  0.66615100  0.33384900  0.00000000  1
  Co  Co13  1  0.00000000  0.33384900  0.00000000  1
  Co  Co14  1  0.00000000  0.33384900  0.66615100  1
  Co  Co15  1  0.33384900  0.66615100  0.00000000  1
  Co  Co16  1  0.33384900  0.00000000  0.66615100  1
  Co  Co17  1  0.33384900  0.00000000  0.00000000  1
  Co  Co18  1  0.00000000  0.00000000  0.66615100  1
  Co  Co19  1  0.00000000  0.66615100  0.00000000  1
  Co  Co20  1  0.66615100  0.00000000  0.00000000  1
  B  B0  1  0.72356400  0.72356400  0.27643600  1
  B  B1  1  0.27643600  0.72356400  0.27643600  1
  B  B2  1  0.72356400  0.27643600  0.27643600  1
  B  B3  1  0.27643600  0.27643600  0.72356400  1
  B  B4  1  0.72356400  0.27643600  0.72356400  1
  B  B5  1  0.27643600  0.72356400  0.72356400  1
  Sb  Sb0  1  0.75000000  0.75000000  0.75000000  1
  Sb  Sb1  1  0.25000000  0.25000000  0.25000000  1
loop_
_geom_bond_atom_site_label_1
_geom_bond_atom_site_label_2
_geom_bond_distance
_geom_bond_site_symmetry_2
Co0 Co9 2.488771 1_555
Co0 Co13 2.488771 1_555
Co0 Co17 2.488771 1_555
Co0 Co11 2.488771 1_545
Co0 Co14 2.488771 1_554
Co0 Co12 2.488771 1_455
Co0 Co16 2.488771 1_554
Co0 Co15 2.488771 1_545
Co0 Co10 2.488771 1_455
Co0 Co20 2.488771 1_455
Co0 Co18 2.488771 1_554
Co0 Co19 2.488771 1_545
Co1 Sb0 2.439341 1_554
Co2 Sb0 2.439341 1_545
Co3 Sb0 2.439341 1_455
Co4 Sb0 2.439335 1_555
Co5 Sb1 2.439341 1_556
Co6 Sb1 2.439341 1_565
Co7 Sb1 2.439341 1_655
Co8 Sb1 2.439335 1_555
B0 Co1 2.070908 1_555
B0 Co7 2.070914 1_555
B0 Co6 2.070914 1_555
B0 Co4 2.070915 1_555
B0 Co10 2.104746 1_565
B0 Co11 2.104746 1_655
B0 Co20 2.104746 1_565
B0 Co19 2.104746 1_655
B1 Co6 2.070908 1_555
B1 Co3 2.070914 1_555
B1 Co1 2.070914 1_555
B1 Co8 2.070915 1_555
B1 Co9 2.104746 1_565
B1 Co17 2.104746 1_565
B1 Co11 2.104746 1_555
B1 Co15 2.104746 1_555
B2 Co7 2.070908 1_555
B2 Co1 2.070914 1_555
B2 Co2 2.070914 1_555
B2 Co8 2.070915 1_555
B2 Co9 2.104746 1_655
B2 Co13 2.104746 1_655
B2 Co10 2.104746 1_555
B2 Co12 2.104746 1_555
B3 Co5 2.070908 1_555
B3 Co3 2.070914 1_555
B3 Co2 2.070914 1_555
B3 Co8 2.070915 1_555
B3 Co13 2.104746 1_556
B3 Co17 2.104746 1_556
B3 Co14 2.104746 1_555
B3 Co16 2.104746 1_555
B4 Co2 2.070908 1_555
B4 Co7 2.070914 1_555
B4 Co5 2.070914 1_555
B4 Co4 2.070915 1_555
B4 Co14 2.104746 1_655
B4 Co12 2.104746 1_556
B4 Co20 2.104746 1_556
B4 Co18 2.104746 1_655
B5 Co3 2.070908 1_555
B5 Co6 2.070914 1_555
B5 Co5 2.070914 1_555
B5 Co4 2.070915 1_555
B5 Co15 2.104746 1_556
B5 Co16 2.104746 1_565
B5 Co18 2.104746 1_565
B5 Co19 2.104746 1_556
