# generated using pymatgen
data_BaNdGaO4
_symmetry_space_group_name_H-M   'P 1'
_cell_length_a   5.91758100
_cell_length_b   7.19355000
_cell_length_c   10.02194400
_cell_angle_alpha   90.00000000
_cell_angle_beta   90.00000000
_cell_angle_gamma   90.00000000
_symmetry_Int_Tables_number   1
_chemical_formula_structural   BaNdGaO4
_chemical_formula_sum   'Ba4 Nd4 Ga4 O16'
_cell_volume   426.61826932
_cell_formula_units_Z   4
loop_
 _symmetry_equiv_pos_site_id
 _symmetry_equiv_pos_as_xyz
  1  'x, y, z'
loop_
 _atom_site_type_symbol
 _atom_site_label
 _atom_site_symmetry_multiplicity
 _atom_site_fract_x
 _atom_site_fract_y
 _atom_site_fract_z
 _atom_site_occupancy
  Ba  Ba0  1  0.50643000  0.42294300  0.07840600  1
  Ba  Ba1  1  0.00643000  0.07705700  0.92159400  1
  Ba  Ba2  1  0.49357000  0.92294300  0.42159400  1
  Ba  Ba3  1  0.99357000  0.57705700  0.57840600  1
  Nd  Nd0  1  0.51164900  0.25299400  0.70121300  1
  Nd  Nd1  1  0.01164900  0.24700600  0.29878700  1
  Nd  Nd2  1  0.48835100  0.75299400  0.79878700  1
  Nd  Nd3  1  0.98835100  0.74700600  0.20121300  1
  Ga  Ga0  1  0.48644500  0.46650200  0.41694600  1
  Ga  Ga1  1  0.98644500  0.03349800  0.58305400  1
  Ga  Ga2  1  0.51355500  0.96650200  0.08305400  1
  Ga  Ga3  1  0.01355500  0.53349800  0.91694600  1
  O  O0  1  0.50130300  0.60024600  0.57764800  1
  O  O1  1  0.00130300  0.89975400  0.42235200  1
  O  O2  1  0.49869700  0.10024600  0.92235200  1
  O  O3  1  0.99869700  0.39975400  0.07764800  1
  O  O4  1  0.25738700  0.55427400  0.30133500  1
  O  O5  1  0.75738700  0.94572600  0.69866500  1
  O  O6  1  0.74261300  0.05427400  0.19866500  1
  O  O7  1  0.24261300  0.44572600  0.80133500  1
  O  O8  1  0.33159900  0.25265300  0.47117400  1
  O  O9  1  0.83159900  0.24734700  0.52882600  1
  O  O10  1  0.66840100  0.75265300  0.02882600  1
  O  O11  1  0.16840100  0.74734700  0.97117400  1
  O  O12  1  0.74757200  0.51231500  0.31734200  1
  O  O13  1  0.24757200  0.98768500  0.68265800  1
  O  O14  1  0.25242800  0.01231500  0.18265800  1
  O  O15  1  0.75242800  0.48768500  0.81734200  1
loop_
_geom_bond_atom_site_label_1
_geom_bond_atom_site_label_2
_geom_bond_distance
_geom_bond_site_symmetry_2
Ba0 O10 2.605943 1_555
Ba0 O2 2.799408 1_554
Ba0 O4 2.838306 1_555
Ba0 O12 2.860719 1_555
Ba0 O3 2.917812 1_555
Ba0 O3 3.009188 1_455
Ba0 O15 3.030080 1_554
Ba0 O7 3.189771 1_554
Ba0 O6 3.230985 1_555
Ba0 O11 3.256063 1_554
Ba1 O11 2.605943 1_545
Ba1 O3 2.799408 1_456
Ba1 O5 2.838306 1_445
Ba1 O13 2.860719 1_545
Ba1 O2 2.917812 1_555
Ba1 O2 3.009188 1_455
Ba1 O14 3.030080 1_556
Ba1 O6 3.189771 1_456
Ba1 O7 3.230985 1_555
Ba1 O10 3.256063 1_446
Ba2 O8 2.605943 1_565
Ba2 O0 2.799408 1_555
Ba2 O6 2.838306 1_565
Ba2 O14 2.860719 1_565
Ba2 O1 2.917812 1_555
Ba2 O1 3.009188 1_655
Ba2 O13 3.030080 1_555
Ba2 O5 3.189771 1_555
Ba2 O4 3.230985 1_555
Ba2 O9 3.256063 1_565
Ba3 O9 2.605943 1_555
Ba3 O1 2.799408 1_655
Ba3 O7 2.838306 1_655
Ba3 O15 2.860719 1_555
Ba3 O0 2.917812 1_555
Ba3 O0 3.009188 1_655
Ba3 O12 3.030080 1_555
Ba3 O4 3.189771 1_655
Ba3 O5 3.230985 1_555
Ba3 O8 3.256063 1_655
Nd0 O7 2.337440 1_555
Nd0 O13 2.473667 1_545
Nd0 O2 2.474867 1_555
Nd0 O15 2.496975 1_555
Nd0 O8 2.539735 1_555
Nd0 O9 2.563422 1_555
Nd0 O5 2.645924 1_545
Nd0 O0 2.788757 1_555
Nd1 O6 2.337440 1_455
Nd1 O12 2.473667 1_455
Nd1 O3 2.474867 1_455
Nd1 O14 2.496975 1_555
Nd1 O9 2.539735 1_455
Nd1 O8 2.563422 1_555
Nd1 O4 2.645924 1_555
Nd1 O1 2.788757 1_545
Nd2 O5 2.337440 1_555
Nd2 O15 2.473667 1_555
Nd2 O0 2.474867 1_555
Nd2 O13 2.496975 1_555
Nd2 O10 2.539735 1_556
Nd2 O11 2.563422 1_555
Nd2 O7 2.645924 1_555
Nd2 O2 2.788757 1_565
Nd3 O4 2.337440 1_655
Nd3 O14 2.473667 1_665
Nd3 O1 2.474867 1_655
Nd3 O12 2.496975 1_555
Nd3 O11 2.539735 1_654
Nd3 O10 2.563422 1_555
Nd3 O6 2.645924 1_565
Nd3 O3 2.788757 1_555
Ga0 O12 1.868912 1_555
Ga0 O8 1.871219 1_555
Ga0 O0 1.878088 1_555
Ga0 O4 1.891670 1_555
Ga1 O13 1.868912 1_645
Ga1 O9 1.871219 1_555
Ga1 O1 1.878088 1_645
Ga1 O5 1.891670 1_545
Ga2 O14 1.868912 1_565
Ga2 O10 1.871219 1_555
Ga2 O2 1.878088 1_564
Ga2 O6 1.891670 1_565
Ga3 O15 1.868912 1_455
Ga3 O11 1.871219 1_555
Ga3 O3 1.878088 1_456
Ga3 O7 1.891670 1_555
