# generated using pymatgen
data_Pr2B2MoO9
_symmetry_space_group_name_H-M   'P 1'
_cell_length_a   5.36243000
_cell_length_b   7.11285068
_cell_length_c   10.75309598
_cell_angle_alpha   74.46059098
_cell_angle_beta   76.14232872
_cell_angle_gamma   73.00953728
_symmetry_Int_Tables_number   1
_chemical_formula_structural   Pr2B2MoO9
_chemical_formula_sum   'Pr4 B4 Mo2 O18'
_cell_volume   372.07647548
_cell_formula_units_Z   2
loop_
 _symmetry_equiv_pos_site_id
 _symmetry_equiv_pos_as_xyz
  1  'x, y, z'
loop_
 _atom_site_type_symbol
 _atom_site_label
 _atom_site_symmetry_multiplicity
 _atom_site_fract_x
 _atom_site_fract_y
 _atom_site_fract_z
 _atom_site_occupancy
  Pr  Pr0  1  0.84267200  0.79362800  0.95379300  1
  Pr  Pr1  1  0.36988400  0.07763700  0.68633000  1
  Pr  Pr2  1  0.63011600  0.92236300  0.31367000  1
  Pr  Pr3  1  0.15732800  0.20637200  0.04620700  1
  B  B0  1  0.73725400  0.24562700  0.84422000  1
  B  B1  1  0.45972400  0.58786900  0.86349800  1
  B  B2  1  0.54027600  0.41213100  0.13650200  1
  B  B3  1  0.26274600  0.75437300  0.15578000  1
  Mo  Mo0  1  0.03758100  0.70961400  0.58107100  1
  Mo  Mo1  1  0.96241900  0.29038600  0.41892900  1
  O  O0  1  0.91781700  0.17257700  0.29822800  1
  O  O1  1  0.08218300  0.82742300  0.70177200  1
  O  O2  1  0.51587300  0.22039700  0.14701700  1
  O  O3  1  0.76554500  0.47234300  0.07329800  1
  O  O4  1  0.45400700  0.85819300  0.13924200  1
  O  O5  1  0.23445500  0.52765700  0.92670200  1
  O  O6  1  0.98897600  0.13391700  0.86558200  1
  O  O7  1  0.85537100  0.55767000  0.37627000  1
  O  O8  1  0.24007600  0.79021300  0.42980800  1
  O  O9  1  0.69492600  0.81935800  0.55445200  1
  O  O10  1  0.01102400  0.86608300  0.13441800  1
  O  O11  1  0.54599300  0.14180700  0.86075800  1
  O  O12  1  0.14462900  0.44233000  0.62373000  1
  O  O13  1  0.68712000  0.45361900  0.81426800  1
  O  O14  1  0.48412700  0.77960300  0.85298300  1
  O  O15  1  0.30507400  0.18064200  0.44554800  1
  O  O16  1  0.75992400  0.20978700  0.57019200  1
  O  O17  1  0.31288000  0.54638100  0.18573200  1
loop_
_geom_bond_atom_site_label_1
_geom_bond_atom_site_label_2
_geom_bond_distance
_geom_bond_site_symmetry_2
B0 O11 1.383382 1_555
B0 O13 1.385068 1_555
B0 O6 1.389280 1_555
B1 O5 1.362972 1_555
B1 O14 1.379993 1_555
B1 O13 1.400044 1_555
B2 O3 1.362972 1_555
B2 O2 1.379993 1_555
B2 O17 1.400044 1_555
B3 O4 1.383382 1_555
B3 O17 1.385068 1_555
B3 O10 1.389280 1_555
Mo0 O8 1.780884 1_555
Mo0 O12 1.781960 1_555
Mo0 O1 1.814528 1_555
Mo0 O9 1.833441 1_455
Mo1 O16 1.780884 1_555
Mo1 O7 1.781960 1_555
Mo1 O0 1.814528 1_555
Mo1 O15 1.833441 1_655
O0 Pr2 2.626558 1_545
O0 Pr3 2.686186 1_655
O1 Pr1 2.626558 1_565
O1 Pr0 2.686186 1_455
O2 Pr2 2.410811 1_545
O2 Pr3 2.459703 1_555
O3 Pr3 2.399362 1_655
O3 Pr0 2.401894 1_554
O4 Pr2 2.485418 1_555
O4 Pr0 2.543970 1_554
O4 Pr3 2.607186 1_565
O5 Pr0 2.399362 1_455
O5 Pr3 2.401894 1_556
O6 Pr1 2.469278 1_655
O6 Pr3 2.549748 1_656
O6 Pr0 2.626190 1_545
O7 Pr2 2.502750 1_555
O8 Pr2 2.467097 1_555
O9 Pr2 2.574317 1_555
O9 Pr1 2.600863 1_565
O10 Pr2 2.469278 1_455
O10 Pr0 2.549748 1_454
O10 Pr3 2.626190 1_565
O11 Pr1 2.485418 1_555
O11 Pr3 2.543970 1_556
O11 Pr0 2.607186 1_545
O12 Pr1 2.502750 1_555
O14 Pr1 2.410811 1_565
O14 Pr0 2.459703 1_555
O15 Pr1 2.574317 1_555
O15 Pr2 2.600863 1_545
O16 Pr1 2.467097 1_555
