# generated using pymatgen
data_Er4InIr
_symmetry_space_group_name_H-M   'P 1'
_cell_length_a   9.52747853
_cell_length_b   9.52764804
_cell_length_c   9.52746900
_cell_angle_alpha   59.99979635
_cell_angle_beta   59.99920874
_cell_angle_gamma   59.99983325
_symmetry_Int_Tables_number   1
_chemical_formula_structural   Er4InIr
_chemical_formula_sum   'Er16 In4 Ir4'
_cell_volume   611.53654874
_cell_formula_units_Z   4
loop_
 _symmetry_equiv_pos_site_id
 _symmetry_equiv_pos_as_xyz
  1  'x, y, z'
loop_
 _atom_site_type_symbol
 _atom_site_label
 _atom_site_symmetry_multiplicity
 _atom_site_fract_x
 _atom_site_fract_y
 _atom_site_fract_z
 _atom_site_occupancy
  Er  Er0  1  0.05935853  0.05936682  0.44063988  1
  Er  Er1  1  0.65112338  0.04663320  0.65112100  1
  Er  Er2  1  0.19168967  0.80831329  0.19168694  1
  Er  Er3  1  0.44063844  0.05936489  0.44063770  1
  Er  Er4  1  0.19168243  0.19168620  0.80831685  1
  Er  Er5  1  0.65112025  0.65112022  0.65111997  1
  Er  Er6  1  0.04664539  0.65111771  0.65112189  1
  Er  Er7  1  0.44064304  0.05936493  0.05935595  1
  Er  Er8  1  0.65112230  0.65111620  0.04664640  1
  Er  Er9  1  0.19168667  0.80831535  0.80831366  1
  Er  Er10  1  0.80831848  0.19168651  0.80831629  1
  Er  Er11  1  0.80831620  0.19168794  0.19168182  1
  Er  Er12  1  0.80831479  0.80831575  0.19168395  1
  Er  Er13  1  0.05936217  0.44063544  0.44063856  1
  Er  Er14  1  0.44064125  0.44063417  0.05936171  1
  Er  Er15  1  0.05937061  0.44062960  0.05936950  1
  In  In0  1  0.75012701  0.41660824  0.41663729  1
  In  In1  1  0.41663559  0.41660883  0.75012509  1
  In  In2  1  0.41659528  0.75021925  0.41659390  1
  In  In3  1  0.41660842  0.41657431  0.41662878  1
  Ir  Ir0  1  0.85921525  0.85921395  0.85921420  1
  Ir  Ir1  1  0.42235805  0.85921059  0.85921874  1
  Ir  Ir2  1  0.85921844  0.85921000  0.42235567  1
  Ir  Ir3  1  0.85921035  0.42236859  0.85921425  1
loop_
_geom_bond_atom_site_label_1
_geom_bond_atom_site_label_2
_geom_bond_distance
_geom_bond_site_symmetry_2
Er0 In2 3.190982 1_545
Er0 In0 3.191364 1_455
Er0 Er1 3.404800 1_455
Er0 Er6 3.404934 1_545
Er0 Ir0 3.406346 1_445
Er0 Ir2 3.406445 1_445
Er0 Er10 3.550132 1_455
Er0 Er9 3.550174 1_545
Er0 Er11 3.550185 1_455
Er0 Er2 3.550224 1_545
Er0 Er15 3.632528 1_555
Er0 Er13 3.632604 1_555
Er0 Er3 3.632617 1_555
Er0 Er7 3.632632 1_555
Er1 Ir0 2.810731 1_545
Er1 Ir1 2.810746 1_545
Er1 Ir2 2.810750 1_545
Er1 Er7 3.404790 1_556
Er1 Er3 3.404844 1_555
Er1 In3 3.413035 1_555
Er1 In0 3.413045 1_555
Er1 In1 3.413053 1_555
Er2 Ir1 2.768881 1_554
Er2 Ir2 2.768903 1_455
Er2 In2 3.421845 1_555
Er2 In3 3.422141 1_555
Er2 Er7 3.550214 1_565
Er3 In3 3.190974 1_555
Er3 In2 3.190993 1_545
Er3 Er5 3.404902 1_545
Er3 Ir2 3.406400 1_545
Er3 Ir1 3.406408 1_545
Er3 Er4 3.550162 1_555
Er3 Er9 3.550164 1_545
Er3 Er7 3.632628 1_555
Er4 Ir3 2.768980 1_455
Er4 Ir1 2.769015 1_545
Er4 In3 3.421690 1_555
Er4 In1 3.421953 1_555
Er4 Er7 3.550179 1_556
Er5 Ir3 2.810721 1_555
Er5 Ir2 2.810747 1_555
Er5 Ir1 2.810753 1_555
Er5 In0 3.413148 1_555
Er5 In1 3.413167 1_555
Er5 In2 3.413248 1_555
Er6 Ir3 2.810721 1_455
Er6 Ir0 2.810754 1_455
Er6 Ir2 2.810785 1_455
Er6 In1 3.413127 1_555
Er6 In3 3.413206 1_555
Er6 In2 3.413217 1_555
Er7 In2 3.190977 1_545
Er7 In1 3.191372 1_554
Er7 Er8 3.404921 1_545
Er7 Ir0 3.406329 1_544
Er7 Ir1 3.406405 1_544
Er8 Ir3 2.810692 1_554
Er8 Ir0 2.810767 1_554
Er8 Ir1 2.810776 1_554
Er8 In0 3.413136 1_555
Er8 In2 3.413202 1_555
Er8 In3 3.413358 1_555
Er9 Ir0 2.768935 1_455
Er9 Ir1 2.768956 1_555
Er9 In2 3.421829 1_555
Er9 In1 3.422143 1_555
Er10 Ir3 2.769018 1_555
Er10 Ir0 2.769022 1_545
Er10 In0 3.421876 1_555
Er10 In1 3.421911 1_555
Er10 Er13 3.550127 1_655
Er10 Er14 3.550129 1_556
Er10 Er7 3.550136 1_556
Er11 Ir3 2.768943 1_554
Er11 Ir2 2.769023 1_545
Er11 In3 3.421852 1_555
Er11 In0 3.421963 1_555
Er11 Er14 3.550147 1_555
Er11 Er3 3.550162 1_555
Er11 Er15 3.550199 1_655
Er12 Ir0 2.768918 1_554
Er12 Ir2 2.768942 1_555
Er12 In2 3.421831 1_555
Er12 In0 3.422146 1_555
Er12 Er7 3.550160 1_565
Er12 Er3 3.550175 1_565
Er12 Er13 3.550215 1_655
Er12 Er15 3.550241 1_655
Er13 In3 3.191129 1_555
Er13 In0 3.191476 1_455
Er13 Er5 3.404836 1_455
Er13 Er6 3.404921 1_555
Er13 Ir3 3.406378 1_455
Er13 Ir2 3.406417 1_455
Er13 Er4 3.550171 1_555
Er13 Er2 3.550238 1_555
Er13 Er15 3.632517 1_555
Er13 Er14 3.632572 1_555
Er13 Er3 3.632597 1_555
Er14 In3 3.191234 1_555
Er14 In1 3.191501 1_554
Er14 Er5 3.404828 1_554
Er14 Er8 3.404909 1_555
Er14 Ir3 3.406330 1_554
Er14 Ir1 3.406431 1_554
Er14 Er9 3.550221 1_554
Er14 Er2 3.550238 1_555
Er14 Er15 3.632532 1_555
Er14 Er3 3.632586 1_555
Er14 Er7 3.632618 1_555
Er15 In1 3.191477 1_554
Er15 In0 3.191488 1_455
Er15 Er6 3.404896 1_554
Er15 Er8 3.404900 1_455
Er15 Ir3 3.406444 1_454
Er15 Ir0 3.406507 1_454
Er15 Er4 3.550200 1_554
Er15 Er9 3.550244 1_554
Er15 Er7 3.632551 1_555
In0 In1 3.177276 1_555
In0 In3 3.177793 1_555
In0 In2 3.178114 1_555
In1 In3 3.177670 1_555
In1 In2 3.178106 1_555
In2 In3 3.178623 1_555
