# generated using pymatgen
data_Zn5B3Rh7
_symmetry_space_group_name_H-M   'P 1'
_cell_length_a   2.83742245
_cell_length_b   11.01620542
_cell_length_c   11.69482194
_cell_angle_alpha   90.00000000
_cell_angle_beta   90.00000000
_cell_angle_gamma   90.00000000
_symmetry_Int_Tables_number   1
_chemical_formula_structural   Zn5B3Rh7
_chemical_formula_sum   'Zn10 B6 Rh14'
_cell_volume   365.55240042
_cell_formula_units_Z   2
loop_
 _symmetry_equiv_pos_site_id
 _symmetry_equiv_pos_as_xyz
  1  'x, y, z'
loop_
 _atom_site_type_symbol
 _atom_site_label
 _atom_site_symmetry_multiplicity
 _atom_site_fract_x
 _atom_site_fract_y
 _atom_site_fract_z
 _atom_site_occupancy
  Zn  Zn0  1  0.50000000  0.25000000  0.81164515  1
  Zn  Zn1  1  0.50000000  0.75000000  0.18835485  1
  Zn  Zn2  1  0.50000000  0.95117079  0.86557180  1
  Zn  Zn3  1  0.50000000  0.04882921  0.13442820  1
  Zn  Zn4  1  0.50000000  0.45117079  0.13442820  1
  Zn  Zn5  1  0.50000000  0.54882921  0.86557180  1
  Zn  Zn6  1  0.50000000  0.86978442  0.65200091  1
  Zn  Zn7  1  0.50000000  0.13021558  0.34799909  1
  Zn  Zn8  1  0.50000000  0.36978442  0.34799909  1
  Zn  Zn9  1  0.50000000  0.63021558  0.65200091  1
  B  B0  1  0.50000000  0.25000000  0.03914643  1
  B  B1  1  0.50000000  0.75000000  0.96085357  1
  B  B2  1  0.50000000  0.38263062  0.59350074  1
  B  B3  1  0.50000000  0.61736938  0.40649926  1
  B  B4  1  0.50000000  0.88263062  0.40649926  1
  B  B5  1  0.50000000  0.11736938  0.59350074  1
  Rh  Rh0  1  0.00000000  0.50000000  0.50000000  1
  Rh  Rh1  1  0.00000000  -0.00000000  0.50000000  1
  Rh  Rh2  1  -0.00000000  0.25000000  0.18260269  1
  Rh  Rh3  1  -0.00000000  0.75000000  0.81739731  1
  Rh  Rh4  1  -0.00000000  0.25000000  0.52542174  1
  Rh  Rh5  1  -0.00000000  0.75000000  0.47457826  1
  Rh  Rh6  1  0.00000000  0.37437604  0.96317800  1
  Rh  Rh7  1  0.00000000  0.62562396  0.03682200  1
  Rh  Rh8  1  0.00000000  0.87437604  0.03682200  1
  Rh  Rh9  1  0.00000000  0.12562396  0.96317800  1
  Rh  Rh10  1  0.00000000  0.42199677  0.72059091  1
  Rh  Rh11  1  0.00000000  0.57800323  0.27940909  1
  Rh  Rh12  1  0.00000000  0.92199677  0.27940909  1
  Rh  Rh13  1  0.00000000  0.07800323  0.72059091  1
loop_
_geom_bond_atom_site_label_1
_geom_bond_atom_site_label_2
_geom_bond_distance
_geom_bond_site_symmetry_2
B0 Rh9 2.163187 1_654
B0 Rh9 2.163187 1_554
B0 Rh6 2.163187 1_554
B0 Rh6 2.163187 1_654
B0 Rh2 2.197135 1_655
B0 Rh2 2.197135 1_555
B0 Zn4 2.480513 1_555
B0 Zn3 2.480513 1_555
B0 Zn0 2.660587 1_554
B1 Rh8 2.163187 1_556
B1 Rh8 2.163187 1_656
B1 Rh7 2.163187 1_556
B1 Rh7 2.163187 1_656
B1 Rh3 2.197135 1_555
B1 Rh3 2.197135 1_655
B1 Zn2 2.480513 1_555
B1 Zn5 2.480513 1_555
B1 Zn1 2.660587 1_556
B2 Rh10 2.099973 1_555
B2 Rh10 2.099973 1_655
B2 Rh4 2.186642 1_655
B2 Rh4 2.186642 1_555
B2 Rh0 2.209115 1_655
B2 Rh0 2.209115 1_555
B3 Rh11 2.099973 1_555
B3 Rh11 2.099973 1_655
B3 Rh5 2.186642 1_555
B3 Rh5 2.186642 1_655
B3 Rh0 2.209115 1_655
B3 Rh0 2.209115 1_555
B4 Rh12 2.099973 1_655
B4 Rh12 2.099973 1_555
B4 Rh5 2.186642 1_555
B4 Rh5 2.186642 1_655
B4 Rh1 2.209115 1_665
B4 Rh1 2.209115 1_565
B5 Rh13 2.099973 1_555
B5 Rh13 2.099973 1_655
B5 Rh4 2.186642 1_655
B5 Rh4 2.186642 1_555
B5 Rh1 2.209115 1_655
B5 Rh1 2.209115 1_555
Rh0 Zn8 2.688945 1_455
Rh0 Zn8 2.688945 1_555
Rh0 Zn9 2.688945 1_455
Rh0 Zn9 2.688945 1_555
Rh1 Zn7 2.688945 1_555
Rh1 Zn7 2.688945 1_455
Rh1 Zn6 2.688945 1_445
Rh1 Zn6 2.688945 1_545
Rh2 Zn4 2.690989 1_555
Rh2 Zn3 2.690989 1_455
Rh2 Zn4 2.690989 1_455
Rh2 Zn3 2.690989 1_555
Rh2 Zn8 2.737782 1_555
Rh2 Zn7 2.737782 1_455
Rh2 Zn7 2.737782 1_555
Rh2 Zn8 2.737782 1_455
Rh3 Zn2 2.690989 1_455
Rh3 Zn5 2.690989 1_555
Rh3 Zn2 2.690989 1_555
Rh3 Zn5 2.690989 1_455
Rh3 Zn9 2.737782 1_555
Rh3 Zn9 2.737782 1_455
Rh3 Zn6 2.737782 1_455
Rh3 Zn6 2.737782 1_555
Rh4 Zn8 2.838895 1_555
Rh4 Zn7 2.838895 1_455
Rh4 Zn8 2.838895 1_455
Rh4 Zn7 2.838895 1_555
Rh5 Zn9 2.838895 1_455
Rh5 Zn9 2.838895 1_555
Rh5 Zn6 2.838895 1_455
Rh5 Zn6 2.838895 1_555
Rh6 Zn4 2.596036 1_456
Rh6 Zn4 2.596036 1_556
Rh6 Zn5 2.647470 1_555
Rh6 Zn5 2.647470 1_455
Rh6 Zn0 2.651523 1_455
Rh6 Zn0 2.651523 1_555
Rh7 Zn5 2.596036 1_454
Rh7 Zn5 2.596036 1_554
Rh7 Zn4 2.647470 1_455
Rh7 Zn4 2.647470 1_555
Rh7 Zn1 2.651523 1_455
Rh7 Zn1 2.651523 1_555
Rh8 Zn2 2.596036 1_554
Rh8 Zn2 2.596036 1_454
Rh8 Zn3 2.647470 1_565
Rh8 Zn3 2.647470 1_465
Rh8 Zn1 2.651523 1_455
Rh8 Zn1 2.651523 1_555
Rh9 Zn3 2.596036 1_556
Rh9 Zn3 2.596036 1_456
Rh9 Zn2 2.647470 1_445
Rh9 Zn2 2.647470 1_545
Rh9 Zn0 2.651523 1_555
Rh9 Zn0 2.651523 1_455
Rh10 Zn0 2.595527 1_555
Rh10 Zn0 2.595527 1_455
Rh10 Zn5 2.615292 1_555
Rh10 Zn5 2.615292 1_455
Rh10 Zn9 2.813826 1_455
Rh10 Zn9 2.813826 1_555
Rh11 Zn1 2.595527 1_455
Rh11 Zn1 2.595527 1_555
Rh11 Zn4 2.615292 1_555
Rh11 Zn4 2.615292 1_455
Rh11 Zn8 2.813826 1_555
Rh11 Zn8 2.813826 1_455
Rh12 Zn1 2.595527 1_455
Rh12 Zn1 2.595527 1_555
Rh12 Zn3 2.615292 1_565
Rh12 Zn3 2.615292 1_465
Rh12 Zn7 2.813826 1_465
Rh12 Zn7 2.813826 1_565
Rh13 Zn0 2.595527 1_555
Rh13 Zn0 2.595527 1_455
Rh13 Zn2 2.615292 1_545
Rh13 Zn2 2.615292 1_445
Rh13 Zn6 2.813826 1_445
Rh13 Zn6 2.813826 1_545
