# generated using pymatgen
data_NaCo3As3(HO6)2
_symmetry_space_group_name_H-M   'P 1'
_cell_length_a   8.72610664
_cell_length_b   8.72610664
_cell_length_c   6.91107146
_cell_angle_alpha   74.06966944
_cell_angle_beta   74.06966944
_cell_angle_gamma   91.44810525
_symmetry_Int_Tables_number   1
_chemical_formula_structural   NaCo3As3(HO6)2
_chemical_formula_sum   'Na2 Co6 As6 H4 O24'
_cell_volume   483.71105697
_cell_formula_units_Z   2
loop_
 _symmetry_equiv_pos_site_id
 _symmetry_equiv_pos_as_xyz
  1  'x, y, z'
loop_
 _atom_site_type_symbol
 _atom_site_label
 _atom_site_symmetry_multiplicity
 _atom_site_fract_x
 _atom_site_fract_y
 _atom_site_fract_z
 _atom_site_occupancy
  Na  Na0  1  0.99557900  0.00442100  0.75000000  1
  Na  Na1  1  0.00442100  0.99557900  0.25000000  1
  Co  Co0  1  0.72219600  0.27780400  0.25000000  1
  Co  Co1  1  0.27780400  0.72219600  0.75000000  1
  Co  Co2  1  0.04482300  0.36937300  0.38522500  1
  Co  Co3  1  0.63062700  0.95517700  0.11477500  1
  Co  Co4  1  0.95517700  0.63062700  0.61477500  1
  Co  Co5  1  0.36937300  0.04482300  0.88522500  1
  As  As0  1  0.31455600  0.68544400  0.25000000  1
  As  As1  1  0.68544400  0.31455600  0.75000000  1
  As  As2  1  0.89575900  0.66722800  0.11155700  1
  As  As3  1  0.33277200  0.10424100  0.38844300  1
  As  As4  1  0.10424100  0.33277200  0.88844300  1
  As  As5  1  0.66722800  0.89575900  0.61155700  1
  H  H0  1  0.61780400  0.60886800  0.19602000  1
  H  H1  1  0.39113200  0.38219600  0.30398000  1
  H  H2  1  0.38219600  0.39113200  0.80398000  1
  H  H3  1  0.60886800  0.61780400  0.69602000  1
  O  O0  1  0.79811900  0.27216100  0.52486600  1
  O  O1  1  0.72783900  0.20188100  0.97513400  1
  O  O2  1  0.20188100  0.72783900  0.47513400  1
  O  O3  1  0.27216100  0.79811900  0.02486600  1
  O  O4  1  0.28096500  0.48408200  0.27257700  1
  O  O5  1  0.51591800  0.71903500  0.22742300  1
  O  O6  1  0.71903500  0.51591800  0.72742300  1
  O  O7  1  0.48408200  0.28096500  0.77257700  1
  O  O8  1  0.97468300  0.33060800  0.12801500  1
  O  O9  1  0.66939200  0.02531700  0.37198500  1
  O  O10  1  0.02531700  0.66939200  0.87198500  1
  O  O11  1  0.33060800  0.97468300  0.62801500  1
  O  O12  1  0.46250300  0.27908600  0.33455600  1
  O  O13  1  0.72091400  0.53749700  0.16544400  1
  O  O14  1  0.53749700  0.72091400  0.66544400  1
  O  O15  1  0.27908600  0.46250300  0.83455600  1
  O  O16  1  0.97809300  0.60136100  0.31386400  1
  O  O17  1  0.39863900  0.02190700  0.18613600  1
  O  O18  1  0.02190700  0.39863900  0.68613600  1
  O  O19  1  0.60136100  0.97809300  0.81386400  1
  O  O20  1  0.14085100  0.15110000  0.40696800  1
  O  O21  1  0.84890000  0.85914900  0.09303200  1
  O  O22  1  0.85914900  0.84890000  0.59303200  1
  O  O23  1  0.15110000  0.14085100  0.90696800  1
loop_
_geom_bond_atom_site_label_1
_geom_bond_atom_site_label_2
_geom_bond_distance
_geom_bond_site_symmetry_2
Na0 O21 2.338401 1_546
Na0 O20 2.338401 1_655
Na0 O22 2.423066 1_545
Na0 O23 2.423066 1_655
Na0 O10 2.851388 1_645
Na0 O11 2.851388 1_645
Na1 O22 2.338401 1_455
Na1 O23 2.338401 1_564
Na1 O21 2.423066 1_455
Na1 O20 2.423066 1_565
Na1 O9 2.851388 1_465
Na1 O8 2.851388 1_465
Co0 O9 2.119693 1_555
Co0 O8 2.119693 1_555
Co0 O1 2.165883 1_554
Co0 O0 2.165883 1_555
Co0 O13 2.180552 1_555
Co0 O12 2.180552 1_555
Co1 O11 2.119693 1_555
Co1 O10 2.119693 1_555
Co1 O2 2.165883 1_555
Co1 O3 2.165883 1_556
Co1 O15 2.180552 1_555
Co1 O14 2.180552 1_555
Co2 O20 2.084514 1_555
Co2 O16 2.085538 1_455
Co2 O4 2.107477 1_555
Co2 O18 2.120342 1_555
Co2 O8 2.136755 1_455
Co2 O0 2.145507 1_455
Co3 O21 2.084514 1_555
Co3 O17 2.085538 1_565
Co3 O5 2.107477 1_555
Co3 O19 2.120342 1_554
Co3 O9 2.136755 1_565
Co3 O1 2.145507 1_564
Co4 O22 2.084514 1_555
Co4 O18 2.085538 1_655
Co4 O6 2.107477 1_555
Co4 O16 2.120342 1_555
Co4 O10 2.136755 1_655
Co4 O2 2.145507 1_655
Co5 O23 2.084514 1_555
Co5 O19 2.085538 1_545
Co5 O7 2.107477 1_555
Co5 O17 2.120342 1_556
Co5 O11 2.136755 1_545
Co5 O3 2.145507 1_546
As0 O5 1.730910 1_555
As0 O4 1.730910 1_555
As0 O2 1.737537 1_555
As0 O3 1.737537 1_555
As1 O6 1.730910 1_555
As1 O7 1.730910 1_555
As1 O1 1.737537 1_555
As1 O0 1.737537 1_555
As2 O16 1.712464 1_555
As2 O21 1.712873 1_555
As2 O10 1.724544 1_654
As2 O13 1.765616 1_555
As3 O17 1.712464 1_555
As3 O20 1.712873 1_555
As3 O11 1.724544 1_545
As3 O12 1.765616 1_555
As4 O18 1.712464 1_555
As4 O23 1.712873 1_555
As4 O8 1.724544 1_456
As4 O15 1.765616 1_555
As5 O19 1.712464 1_555
As5 O22 1.712873 1_555
As5 O9 1.724544 1_565
As5 O14 1.765616 1_555
H0 O13 1.112774 1_555
H0 O5 1.346664 1_555
H1 O12 1.112774 1_555
H1 O4 1.346664 1_555
H2 O15 1.112774 1_555
H2 O7 1.346664 1_555
H3 O14 1.112774 1_555
H3 O6 1.346664 1_555
