# generated using pymatgen
data_BaNaZr2F11
_symmetry_space_group_name_H-M   'P 1'
_cell_length_a   13.38273121
_cell_length_b   13.38273121
_cell_length_c   13.38273121
_cell_angle_alpha   143.50977380
_cell_angle_beta   143.50977380
_cell_angle_gamma   52.56098602
_symmetry_Int_Tables_number   1
_chemical_formula_structural   BaNaZr2F11
_chemical_formula_sum   'Ba4 Na4 Zr8 F44'
_cell_volume   842.61551265
_cell_formula_units_Z   4
loop_
 _symmetry_equiv_pos_site_id
 _symmetry_equiv_pos_as_xyz
  1  'x, y, z'
loop_
 _atom_site_type_symbol
 _atom_site_label
 _atom_site_symmetry_multiplicity
 _atom_site_fract_x
 _atom_site_fract_y
 _atom_site_fract_z
 _atom_site_occupancy
  Ba  Ba0  1  0.16185300  0.66185300  0.50000000  1
  Ba  Ba1  1  0.58814700  0.58814700  0.00000000  1
  Ba  Ba2  1  0.41185300  0.41185300  0.00000000  1
  Ba  Ba3  1  0.33814700  0.83814700  0.50000000  1
  Na  Na0  1  0.88485800  0.88485800  0.00000000  1
  Na  Na1  1  0.63485800  0.13485800  0.50000000  1
  Na  Na2  1  0.86514200  0.36514200  0.50000000  1
  Na  Na3  1  0.11514200  0.11514200  0.00000000  1
  Zr  Zr0  1  0.71420800  0.13739000  0.85260800  1
  Zr  Zr1  1  0.46521700  0.38839900  0.35260800  1
  Zr  Zr2  1  0.86261000  0.71521700  0.57681800  1
  Zr  Zr3  1  0.13839900  0.28579200  0.42318200  1
  Zr  Zr4  1  0.03579200  0.11261000  0.64739200  1
  Zr  Zr5  1  0.88739000  0.53478300  0.92318200  1
  Zr  Zr6  1  0.61160100  0.96420800  0.07681800  1
  Zr  Zr7  1  0.28478300  0.86160100  0.14739200  1
  F  F0  1  0.12354000  0.84006700  0.86116500  1
  F  F1  1  0.53531800  0.10936200  0.80129200  1
  F  F2  1  0.21468200  0.14063800  0.69870800  1
  F  F3  1  0.06089200  0.99280400  0.70611000  1
  F  F4  1  0.28669400  0.35478200  0.29389000  1
  F  F5  1  0.88164700  0.15455600  0.13378700  1
  F  F6  1  0.64521800  0.93910800  0.93191200  1
  F  F7  1  0.85936200  0.55807000  0.07404400  1
  F  F8  1  0.72923100  0.50214000  0.63378700  1
  F  F9  1  0.49786000  0.13164700  0.22709100  1
  F  F10  1  0.01237500  0.37354000  0.78347300  1
  F  F11  1  0.06090500  0.86975600  0.42942700  1
  F  F12  1  0.77109700  0.98762500  0.36116500  1
  F  F13  1  0.89063800  0.69193000  0.42595600  1
  F  F14  1  0.90455600  0.27076900  0.77290900  1
  F  F15  1  0.10478200  0.31089200  0.56808800  1
  F  F16  1  0.13024400  0.55967100  0.19114900  1
  F  F17  1  0.02076900  0.74786000  0.86621300  1
  F  F18  1  0.68909500  0.38024400  0.07057300  1
  F  F19  1  0.00177800  0.50177800  0.50000000  1
  F  F20  1  0.74280400  0.53669400  0.43191200  1
  F  F21  1  0.48402600  0.78531800  0.92595600  1
  F  F22  1  0.30967100  0.61852200  0.92942700  1
  F  F23  1  0.36852200  0.93909500  0.80885100  1
  F  F24  1  0.68910800  0.25719600  0.79389000  1
  F  F25  1  0.38147800  0.31090500  0.69114900  1
  F  F26  1  0.97890300  0.26237500  0.13883500  1
  F  F27  1  0.86835300  0.09544400  0.36621300  1
  F  F28  1  0.84544400  0.97923100  0.72709100  1
  F  F29  1  0.25177800  0.25177800  0.00000000  1
  F  F30  1  0.74822200  0.74822200  0.00000000  1
  F  F31  1  0.26597400  0.46468200  0.57404400  1
  F  F32  1  0.15993300  0.02109700  0.28347300  1
  F  F33  1  0.44032900  0.63147800  0.57057300  1
  F  F34  1  0.73762500  0.87646000  0.71652700  1
  F  F35  1  0.49822200  0.99822200  0.50000000  1
  F  F36  1  0.61975600  0.69032900  0.30885100  1
  F  F37  1  0.44193000  0.51597400  0.30129200  1
  F  F38  1  0.62646000  0.40993300  0.63883500  1
  F  F39  1  0.46330600  0.89521800  0.20611000  1
  F  F40  1  0.30807000  0.73402600  0.19870800  1
  F  F41  1  0.59006700  0.22890300  0.21652700  1
  F  F42  1  0.00719600  0.71330600  0.06808800  1
  F  F43  1  0.25214000  0.11835300  0.27290900  1
loop_
_geom_bond_atom_site_label_1
_geom_bond_atom_site_label_2
_geom_bond_distance
_geom_bond_site_symmetry_2
Ba0 F31 2.720275 1_555
Ba0 F13 2.720275 1_455
Ba0 F21 2.795089 1_555
Ba0 F7 2.795089 1_455
Ba0 F23 2.817207 1_555
Ba0 F16 2.817207 1_555
Ba0 F33 2.839357 1_555
Ba0 F11 2.839357 1_555
Ba0 F3 2.850168 1_555
Ba0 F4 2.850168 1_555
Ba1 F21 2.720275 1_554
Ba1 F7 2.720275 1_555
Ba1 F13 2.795089 1_555
Ba1 F31 2.795089 1_554
Ba1 F25 2.817207 1_554
Ba1 F36 2.817207 1_555
Ba1 F22 2.839357 1_554
Ba1 F18 2.839357 1_555
Ba1 F24 2.850168 1_554
Ba1 F39 2.850168 1_555
Ba2 F37 2.720275 1_555
Ba2 F2 2.720275 1_554
Ba2 F40 2.795089 1_555
Ba2 F1 2.795089 1_554
Ba2 F18 2.817207 1_555
Ba2 F22 2.817207 1_554
Ba2 F36 2.839357 1_555
Ba2 F25 2.839357 1_554
Ba2 F20 2.850168 1_555
Ba2 F15 2.850168 1_554
Ba3 F1 2.720275 1_565
Ba3 F40 2.720275 1_555
Ba3 F2 2.795089 1_565
Ba3 F37 2.795089 1_555
Ba3 F33 2.817207 1_555
Ba3 F11 2.817207 1_555
Ba3 F16 2.839357 1_555
Ba3 F23 2.839357 1_555
Ba3 F6 2.850168 1_555
Ba3 F42 2.850168 1_555
F0 Zr2 2.229440 1_455
F0 Zr7 2.258918 1_556
F0 Na3 2.418967 1_566
F1 Zr0 2.092310 1_555
F2 Zr4 2.092310 1_555
F3 Zr4 2.060969 1_565
F3 Na3 2.275202 1_566
F4 Zr1 2.060948 1_555
F4 Na3 2.275202 1_555
F5 Zr3 2.212074 1_655
F5 Zr0 2.216228 1_554
F5 Na0 2.403947 1_545
F6 Zr6 2.060958 1_556
F6 Na0 2.275202 1_556
F7 Zr5 2.092320 1_554
F8 Zr5 2.212074 1_555
F8 Zr1 2.216240 1_555
F8 Na2 2.403947 1_555
F9 Zr1 2.212069 1_555
F9 Zr6 2.216238 1_545
F9 Na1 2.403947 1_555
F10 Zr4 2.229436 1_555
F10 Zr5 2.258929 1_455
F10 Na2 2.418967 1_455
F11 Zr4 2.046760 1_565
F12 Zr6 2.229445 1_555
F12 Zr4 2.258940 1_665
F12 Na1 2.418955 1_565
F13 Zr2 2.092320 1_555
F14 Zr4 2.212082 1_655
F14 Zr5 2.216238 1_555
F14 Na1 2.403947 1_555
F15 Zr3 2.060958 1_555
F15 Na2 2.275202 1_455
F16 Zr5 2.046764 1_454
F17 Zr2 2.212074 1_455
F17 Zr7 2.216240 1_556
F17 Na0 2.403947 1_456
F18 Zr0 2.046760 1_554
F19 Zr2 2.138569 1_455
F19 Zr3 2.138569 1_555
F20 Zr2 2.060958 1_555
F20 Na2 2.275202 1_555
F21 Zr6 2.092320 1_556
F22 Zr7 2.046760 1_556
F23 Zr6 2.046764 1_556
F24 Zr0 2.060969 1_555
F24 Na1 2.275202 1_555
F25 Zr3 2.046764 1_555
F26 Zr3 2.229445 1_655
F26 Zr0 2.258940 1_554
F26 Na3 2.418955 1_655
F27 Zr6 2.212074 1_545
F27 Zr4 2.216228 1_655
F27 Na2 2.403947 1_555
F28 Zr0 2.212082 1_565
F28 Zr2 2.216238 1_555
F28 Na3 2.403947 1_666
F29 Zr4 2.138575 1_554
F29 Zr1 2.138575 1_555
F30 Zr6 2.138569 1_555
F30 Zr5 2.138569 1_554
F31 Zr3 2.092320 1_555
F32 Zr7 2.229451 1_545
F32 Zr3 2.258940 1_555
F32 Na0 2.418961 1_445
F33 Zr1 2.046760 1_555
F34 Zr0 2.229436 1_565
F34 Zr2 2.258929 1_555
F34 Na0 2.418967 1_556
F35 Zr0 2.138575 1_565
F35 Zr7 2.138575 1_555
F36 Zr2 2.046764 1_555
F37 Zr1 2.092331 1_555
F38 Zr5 2.229440 1_555
F38 Zr1 2.258918 1_555
F38 Na1 2.418967 1_555
F39 Zr7 2.060948 1_555
F39 Na1 2.275202 1_565
F40 Zr7 2.092331 1_555
F41 Zr1 2.229451 1_555
F41 Zr6 2.258940 1_545
F41 Na2 2.418961 1_555
F42 Zr5 2.060958 1_454
F42 Na0 2.275202 1_455
F43 Zr7 2.212069 1_545
F43 Zr3 2.216238 1_555
F43 Na3 2.403947 1_555
