# generated using pymatgen
data_Nb4Zn2C
_symmetry_space_group_name_H-M   'P 1'
_cell_length_a   8.45008726
_cell_length_b   8.45008726
_cell_length_c   8.45008726
_cell_angle_alpha   60.00000000
_cell_angle_beta   60.00000000
_cell_angle_gamma   60.00000000
_symmetry_Int_Tables_number   1
_chemical_formula_structural   Nb4Zn2C
_chemical_formula_sum   'Nb16 Zn8 C4'
_cell_volume   426.64688844
_cell_formula_units_Z   4
loop_
 _symmetry_equiv_pos_site_id
 _symmetry_equiv_pos_as_xyz
  1  'x, y, z'
loop_
 _atom_site_type_symbol
 _atom_site_label
 _atom_site_symmetry_multiplicity
 _atom_site_fract_x
 _atom_site_fract_y
 _atom_site_fract_z
 _atom_site_occupancy
  Nb  Nb0  1  0.81017300  0.18982700  0.81017300  1
  Nb  Nb1  1  0.06017300  0.43982700  0.43982700  1
  Nb  Nb2  1  0.43982700  0.06017300  0.06017300  1
  Nb  Nb3  1  0.06017300  0.43982700  0.06017300  1
  Nb  Nb4  1  0.43982700  0.43982700  0.06017300  1
  Nb  Nb5  1  0.06017300  0.06017300  0.43982700  1
  Nb  Nb6  1  0.81017300  0.81017300  0.18982700  1
  Nb  Nb7  1  0.18982700  0.81017300  0.81017300  1
  Nb  Nb8  1  0.81017300  0.18982700  0.18982700  1
  Nb  Nb9  1  0.18982700  0.18982700  0.81017300  1
  Nb  Nb10  1  0.43982700  0.06017300  0.43982700  1
  Nb  Nb11  1  0.18982700  0.81017300  0.18982700  1
  Nb  Nb12  1  0.62500000  0.62500000  0.62500000  1
  Nb  Nb13  1  0.12500000  0.62500000  0.62500000  1
  Nb  Nb14  1  0.62500000  0.12500000  0.62500000  1
  Nb  Nb15  1  0.62500000  0.62500000  0.12500000  1
  Zn  Zn0  1  0.41068600  0.41068600  0.41068600  1
  Zn  Zn1  1  0.48205900  0.83931400  0.83931400  1
  Zn  Zn2  1  0.83931400  0.48205900  0.83931400  1
  Zn  Zn3  1  0.83931400  0.83931400  0.48205900  1
  Zn  Zn4  1  0.41068600  0.76794100  0.41068600  1
  Zn  Zn5  1  0.41068600  0.41068600  0.76794100  1
  Zn  Zn6  1  0.76794100  0.41068600  0.41068600  1
  Zn  Zn7  1  0.83931400  0.83931400  0.83931400  1
  C  C0  1  0.12500000  0.12500000  0.12500000  1
  C  C1  1  0.62500000  0.12500000  0.12500000  1
  C  C2  1  0.12500000  0.62500000  0.12500000  1
  C  C3  1  0.12500000  0.12500000  0.62500000  1
loop_
_geom_bond_atom_site_label_1
_geom_bond_atom_site_label_2
_geom_bond_distance
_geom_bond_site_symmetry_2
Nb0 Zn7 2.737859 1_545
Nb0 Zn2 2.737867 1_555
Nb0 Zn6 3.040454 1_555
Nb0 Zn5 3.040454 1_555
Nb1 Zn0 2.737859 1_555
Nb1 Zn6 2.737867 1_455
Nb1 Zn3 3.040454 1_455
Nb1 Zn2 3.040454 1_455
Nb2 Zn5 2.737862 1_554
Nb2 Zn4 2.737862 1_545
Nb2 Zn1 3.040447 1_544
Nb2 Zn7 3.040451 1_544
Nb3 Zn6 2.737862 1_455
Nb3 Zn5 2.737862 1_554
Nb3 Zn2 3.040447 1_454
Nb3 Zn7 3.040451 1_454
Nb4 Zn0 2.737859 1_555
Nb4 Zn5 2.737867 1_554
Nb4 Zn1 3.040454 1_554
Nb4 Zn2 3.040454 1_554
Nb5 Zn6 2.737862 1_455
Nb5 Zn4 2.737862 1_545
Nb5 Zn3 3.040447 1_445
Nb5 Zn7 3.040451 1_445
Nb6 Zn7 2.737859 1_554
Nb6 Zn3 2.737867 1_555
Nb6 Zn6 3.040454 1_555
Nb6 Zn4 3.040454 1_555
Nb7 Zn7 2.737859 1_455
Nb7 Zn1 2.737867 1_555
Nb7 Zn4 3.040454 1_555
Nb7 Zn5 3.040454 1_555
Nb8 Zn3 2.737862 1_545
Nb8 Zn2 2.737862 1_554
Nb8 Zn6 3.040447 1_555
Nb8 Zn0 3.040451 1_555
Nb9 Zn2 2.737862 1_455
Nb9 Zn1 2.737862 1_545
Nb9 Zn5 3.040447 1_555
Nb9 Zn0 3.040451 1_555
Nb10 Zn0 2.737859 1_555
Nb10 Zn4 2.737867 1_545
Nb10 Zn3 3.040454 1_545
Nb10 Zn1 3.040454 1_545
Nb11 Zn3 2.737862 1_455
Nb11 Zn1 2.737862 1_554
Nb11 Zn4 3.040447 1_555
Nb11 Zn0 3.040451 1_555
Nb12 Zn2 2.631155 1_555
Nb12 Zn1 2.631155 1_555
Nb12 Zn5 2.631155 1_555
Nb12 Zn3 2.631155 1_555
Nb12 Zn4 2.631155 1_555
Nb12 Zn6 2.631155 1_555
Nb13 Zn4 2.631149 1_555
Nb13 Zn2 2.631149 1_455
Nb13 Zn5 2.631149 1_555
Nb13 Zn3 2.631149 1_455
Nb13 Zn0 2.631153 1_555
Nb13 Zn7 2.631153 1_455
Nb14 Zn1 2.631149 1_545
Nb14 Zn5 2.631149 1_555
Nb14 Zn3 2.631149 1_545
Nb14 Zn6 2.631149 1_555
Nb14 Zn0 2.631153 1_555
Nb14 Zn7 2.631153 1_545
Nb15 Zn4 2.631149 1_555
Nb15 Zn1 2.631149 1_554
Nb15 Zn6 2.631149 1_555
Nb15 Zn2 2.631149 1_554
Nb15 Zn7 2.631153 1_554
Nb15 Zn0 2.631153 1_555
Zn0 Zn4 3.018836 1_555
Zn0 Zn6 3.018836 1_555
Zn0 Zn5 3.018836 1_555
Zn1 Zn7 3.018836 1_555
Zn1 Zn2 3.018836 1_555
Zn1 Zn3 3.018836 1_555
Zn2 Zn7 3.018836 1_555
Zn2 Zn3 3.018836 1_555
Zn3 Zn7 3.018836 1_555
Zn4 Zn6 3.018836 1_555
Zn4 Zn5 3.018836 1_555
Zn5 Zn6 3.018836 1_555
C0 Nb9 2.250090 1_554
C0 Nb11 2.250090 1_545
C0 Nb8 2.250090 1_455
C0 Nb2 2.250090 1_555
C0 Nb5 2.250090 1_555
C0 Nb3 2.250090 1_555
C1 Nb0 2.250090 1_554
C1 Nb6 2.250090 1_545
C1 Nb2 2.250090 1_555
C1 Nb8 2.250090 1_555
C1 Nb10 2.250090 1_555
C1 Nb4 2.250090 1_555
C2 Nb6 2.250090 1_455
C2 Nb3 2.250090 1_555
C2 Nb7 2.250090 1_554
C2 Nb11 2.250090 1_555
C2 Nb4 2.250090 1_555
C2 Nb1 2.250090 1_555
C3 Nb7 2.250090 1_545
C3 Nb0 2.250090 1_455
C3 Nb5 2.250090 1_555
C3 Nb9 2.250090 1_555
C3 Nb10 2.250090 1_555
C3 Nb1 2.250090 1_555
