# generated using pymatgen
data_P4Se3
_symmetry_space_group_name_H-M   'P 1'
_cell_length_a   10.60695300
_cell_length_b   11.89151600
_cell_length_c   14.95032200
_cell_angle_alpha   90.00000000
_cell_angle_beta   90.00000000
_cell_angle_gamma   90.00000000
_symmetry_Int_Tables_number   1
_chemical_formula_structural   P4Se3
_chemical_formula_sum   'P32 Se24'
_cell_volume   1885.72524684
_cell_formula_units_Z   8
loop_
 _symmetry_equiv_pos_site_id
 _symmetry_equiv_pos_as_xyz
  1  'x, y, z'
loop_
 _atom_site_type_symbol
 _atom_site_label
 _atom_site_symmetry_multiplicity
 _atom_site_fract_x
 _atom_site_fract_y
 _atom_site_fract_z
 _atom_site_occupancy
  P  P0  1  0.85558800  0.42758300  0.75724500  1
  P  P1  1  0.35558800  0.57241700  0.24275500  1
  P  P2  1  0.64441200  0.92758300  0.74275500  1
  P  P3  1  0.14441200  0.07241700  0.25724500  1
  P  P4  1  0.14441200  0.57241700  0.24275500  1
  P  P5  1  0.64441200  0.42758300  0.75724500  1
  P  P6  1  0.35558800  0.07241700  0.25724500  1
  P  P7  1  0.85558800  0.92758300  0.74275500  1
  P  P8  1  0.75000000  0.28899100  0.82696500  1
  P  P9  1  0.25000000  0.71100900  0.17303500  1
  P  P10  1  0.75000000  0.78899100  0.67303500  1
  P  P11  1  0.25000000  0.21100900  0.32696500  1
  P  P12  1  0.75000000  0.52802000  0.96249200  1
  P  P13  1  0.25000000  0.47198000  0.03750800  1
  P  P14  1  0.75000000  0.02802000  0.53750800  1
  P  P15  1  0.25000000  0.97198000  0.46249200  1
  P  P16  1  0.35585800  0.23115000  0.84114900  1
  P  P17  1  0.85585800  0.76885000  0.15885100  1
  P  P18  1  0.14414200  0.73115000  0.65885100  1
  P  P19  1  0.64414200  0.26885000  0.34114900  1
  P  P20  1  0.64414200  0.76885000  0.15885100  1
  P  P21  1  0.14414200  0.23115000  0.84114900  1
  P  P22  1  0.85585800  0.26885000  0.34114900  1
  P  P23  1  0.35585800  0.73115000  0.65885100  1
  P  P24  1  0.25000000  0.09684200  0.76672600  1
  P  P25  1  0.75000000  0.90315800  0.23327400  1
  P  P26  1  0.25000000  0.59684200  0.73327400  1
  P  P27  1  0.75000000  0.40315800  0.26672600  1
  P  P28  1  0.25000000  0.03112600  0.99329700  1
  P  P29  1  0.75000000  0.96887400  0.00670300  1
  P  P30  1  0.25000000  0.53112600  0.50670300  1
  P  P31  1  0.75000000  0.46887400  0.49329700  1
  Se  Se0  1  0.91341300  0.55008500  0.86539600  1
  Se  Se1  1  0.41341300  0.44991500  0.13460400  1
  Se  Se2  1  0.58658700  0.05008500  0.63460400  1
  Se  Se3  1  0.08658700  0.94991500  0.36539600  1
  Se  Se4  1  0.08658700  0.44991500  0.13460400  1
  Se  Se5  1  0.58658700  0.55008500  0.86539600  1
  Se  Se6  1  0.41341300  0.94991500  0.36539600  1
  Se  Se7  1  0.91341300  0.05008500  0.63460400  1
  Se  Se8  1  0.75000000  0.33678600  0.97331100  1
  Se  Se9  1  0.25000000  0.66321400  0.02668900  1
  Se  Se10  1  0.75000000  0.83678600  0.52668900  1
  Se  Se11  1  0.25000000  0.16321400  0.47331100  1
  Se  Se12  1  0.41367300  0.15214800  0.97244000  1
  Se  Se13  1  0.91367300  0.84785200  0.02756000  1
  Se  Se14  1  0.08632700  0.65214800  0.52756000  1
  Se  Se15  1  0.58632700  0.34785200  0.47244000  1
  Se  Se16  1  0.58632700  0.84785200  0.02756000  1
  Se  Se17  1  0.08632700  0.15214800  0.97244000  1
  Se  Se18  1  0.91367300  0.34785200  0.47244000  1
  Se  Se19  1  0.41367300  0.65214800  0.52756000  1
  Se  Se20  1  0.25000000  0.94481800  0.85753600  1
  Se  Se21  1  0.75000000  0.05518200  0.14246400  1
  Se  Se22  1  0.25000000  0.44481800  0.64246400  1
  Se  Se23  1  0.75000000  0.55518200  0.35753600  1
loop_
_geom_bond_atom_site_label_1
_geom_bond_atom_site_label_2
_geom_bond_distance
_geom_bond_site_symmetry_2
P0 P5 2.239934 1_555
P0 P8 2.248760 1_555
P0 Se0 2.261108 1_555
P1 P4 2.239934 1_555
P1 P9 2.248760 1_555
P1 Se1 2.261108 1_555
P2 P7 2.239934 1_555
P2 Se2 2.261108 1_565
P3 P6 2.239934 1_555
P3 Se3 2.261108 1_545
P4 P9 2.248760 1_555
P4 Se4 2.261108 1_555
P5 P8 2.248760 1_555
P5 Se5 2.261108 1_555
P6 Se6 2.261108 1_545
P7 Se7 2.261108 1_565
P8 Se8 2.260535 1_555
P9 Se9 2.260535 1_555
P10 P2 2.248760 1_555
P10 P7 2.248760 1_555
P10 Se10 2.260535 1_555
P11 P3 2.248760 1_555
P11 P6 2.248760 1_555
P11 Se11 2.260535 1_555
P12 Se0 2.276052 1_555
P12 Se5 2.276052 1_555
P12 Se8 2.279807 1_555
P13 Se1 2.276052 1_555
P13 Se4 2.276052 1_555
P13 Se9 2.279807 1_555
P14 Se2 2.276052 1_555
P14 Se7 2.276052 1_555
P14 Se10 2.279807 1_545
P15 Se6 2.276052 1_555
P15 Se3 2.276052 1_555
P15 Se11 2.279807 1_565
P16 P21 2.245662 1_555
P16 P24 2.247119 1_555
P16 Se12 2.260838 1_555
P17 P20 2.245662 1_555
P17 P25 2.247119 1_555
P17 Se13 2.260838 1_555
P18 P23 2.245662 1_555
P18 P26 2.247119 1_555
P18 Se14 2.260838 1_555
P19 P22 2.245662 1_555
P19 P27 2.247119 1_555
P19 Se15 2.260838 1_555
P20 P25 2.247119 1_555
P20 Se16 2.260838 1_555
P21 P24 2.247119 1_555
P21 Se17 2.260838 1_555
P22 P27 2.247119 1_555
P22 Se18 2.260838 1_555
P23 P26 2.247119 1_555
P23 Se19 2.260838 1_555
P24 Se20 2.260820 1_545
P25 Se21 2.260820 1_565
P26 Se22 2.260820 1_555
P27 Se23 2.260820 1_555
P28 Se20 2.274406 1_545
P28 Se12 2.276463 1_555
P28 Se17 2.276463 1_555
P29 Se21 2.274406 1_565
P29 Se13 2.276463 1_555
P29 Se16 2.276463 1_555
P30 Se22 2.274406 1_555
P30 Se19 2.276463 1_555
P30 Se14 2.276463 1_555
P31 Se23 2.274406 1_555
P31 Se18 2.276463 1_555
P31 Se15 2.276463 1_555
