# generated using pymatgen
data_Sb3C2N(OF8)2
_symmetry_space_group_name_H-M   'P 1'
_cell_length_a   7.56718800
_cell_length_b   9.87351000
_cell_length_c   21.55839980
_cell_angle_alpha   85.41797716
_cell_angle_beta   90.00000000
_cell_angle_gamma   90.00000000
_symmetry_Int_Tables_number   1
_chemical_formula_structural   Sb3C2N(OF8)2
_chemical_formula_sum   'Sb12 C8 N4 O8 F64'
_cell_volume   1605.58160825
_cell_formula_units_Z   4
loop_
 _symmetry_equiv_pos_site_id
 _symmetry_equiv_pos_as_xyz
  1  'x, y, z'
loop_
 _atom_site_type_symbol
 _atom_site_label
 _atom_site_symmetry_multiplicity
 _atom_site_fract_x
 _atom_site_fract_y
 _atom_site_fract_z
 _atom_site_occupancy
  Sb  Sb0  1  0.24994300  0.32869900  0.01560200  1
  Sb  Sb1  1  0.27330600  0.23327800  0.25196300  1
  Sb  Sb2  1  0.74994300  0.67130100  0.48439800  1
  Sb  Sb3  1  0.75005700  0.67130100  0.98439800  1
  Sb  Sb4  1  0.10824100  0.79672800  0.10175200  1
  Sb  Sb5  1  0.22669400  0.23327800  0.75196300  1
  Sb  Sb6  1  0.77330600  0.76672200  0.24803700  1
  Sb  Sb7  1  0.39175900  0.79672800  0.60175200  1
  Sb  Sb8  1  0.72669400  0.76672200  0.74803700  1
  Sb  Sb9  1  0.25005700  0.32869900  0.51560200  1
  Sb  Sb10  1  0.89175900  0.20327200  0.89824800  1
  Sb  Sb11  1  0.60824100  0.20327200  0.39824800  1
  C  C0  1  0.24235900  0.69066600  0.86057100  1
  C  C1  1  0.65241000  0.11216700  0.09998000  1
  C  C2  1  0.15241000  0.88783300  0.40002000  1
  C  C3  1  0.84759000  0.11216700  0.59998000  1
  C  C4  1  0.25764100  0.69066600  0.36057100  1
  C  C5  1  0.75764100  0.30933400  0.13942900  1
  C  C6  1  0.34759000  0.88783300  0.90002000  1
  C  C7  1  0.74235900  0.30933400  0.63942900  1
  N  N0  1  0.76101800  0.19926400  0.11476100  1
  N  N1  1  0.23898200  0.80073600  0.88523900  1
  N  N2  1  0.26101800  0.80073600  0.38523900  1
  N  N3  1  0.73898200  0.19926400  0.61476100  1
  O  O0  1  0.06509400  0.97330600  0.41618300  1
  O  O1  1  0.93490600  0.02669400  0.58381700  1
  O  O2  1  0.43490600  0.97330600  0.91618300  1
  O  O3  1  0.56509400  0.02669400  0.08381700  1
  O  O4  1  0.72976800  0.41046500  0.66195900  1
  O  O5  1  0.77023200  0.41046500  0.16195900  1
  O  O6  1  0.22976800  0.58953500  0.83804100  1
  O  O7  1  0.27023200  0.58953500  0.33804100  1
  F  F0  1  0.25076900  0.90289000  0.65110000  1
  F  F1  1  0.10472300  0.20698300  0.18895900  1
  F  F2  1  0.47509000  0.18327000  0.20518900  1
  F  F3  1  0.46570400  0.26796500  0.32159100  1
  F  F4  1  0.58050800  0.67068000  0.91900900  1
  F  F5  1  0.82025900  0.85306000  0.96177400  1
  F  F6  1  0.06734800  0.06806100  0.91169500  1
  F  F7  1  0.10695900  0.28494400  0.31118300  1
  F  F8  1  0.56734800  0.93193900  0.58830500  1
  F  F9  1  0.26543200  0.05094700  0.28785500  1
  F  F10  1  0.28962300  0.51062200  0.98326400  1
  F  F11  1  0.76543200  0.94905300  0.21214500  1
  F  F12  1  0.41949200  0.32932000  0.08099100  1
  F  F13  1  0.97509000  0.81673000  0.29481100  1
  F  F14  1  0.75076900  0.09711000  0.84890000  1
  F  F15  1  0.43685300  0.32411000  0.44204200  1
  F  F16  1  0.94142300  0.61083100  0.93666200  1
  F  F17  1  0.55857700  0.61083100  0.43666200  1
  F  F18  1  0.06314700  0.32411000  0.94204200  1
  F  F19  1  0.91296900  0.73400500  0.54221900  1
  F  F20  1  0.28088600  0.84153300  0.52427600  1
  F  F21  1  0.60695900  0.71505600  0.18881700  1
  F  F22  1  0.71037700  0.48937800  0.01673600  1
  F  F23  1  0.39527700  0.20698300  0.68895900  1
  F  F24  1  0.96570400  0.73203500  0.17840900  1
  F  F25  1  0.41296900  0.26599500  0.95778100  1
  F  F26  1  0.43265200  0.06806100  0.41169500  1
  F  F27  1  0.23784600  0.63617200  0.11957800  1
  F  F28  1  0.68012400  0.58259600  0.77409700  1
  F  F29  1  0.02491000  0.18327000  0.70518900  1
  F  F30  1  0.71911400  0.15846700  0.47572400  1
  F  F31  1  0.39304100  0.28494400  0.81118300  1
  F  F32  1  0.91949200  0.67068000  0.41900900  1
  F  F33  1  0.26215400  0.63617200  0.61957800  1
  F  F34  1  0.03429600  0.26796500  0.82159100  1
  F  F35  1  0.44142300  0.38916900  0.56333800  1
  F  F36  1  0.89527700  0.79301700  0.81104100  1
  F  F37  1  0.18012400  0.41740400  0.72590300  1
  F  F38  1  0.23456800  0.05094700  0.78785500  1
  F  F39  1  0.58703100  0.73400500  0.04221900  1
  F  F40  1  0.52491000  0.81673000  0.79481100  1
  F  F41  1  0.17974100  0.14694000  0.03822600  1
  F  F42  1  0.53429600  0.73203500  0.67840900  1
  F  F43  1  0.76215400  0.36382800  0.88042200  1
  F  F44  1  0.08703100  0.26599500  0.45778100  1
  F  F45  1  0.32025900  0.14694000  0.53822600  1
  F  F46  1  0.89304100  0.71505600  0.68881700  1
  F  F47  1  0.24923100  0.90289000  0.15110000  1
  F  F48  1  0.73456800  0.94905300  0.71214500  1
  F  F49  1  0.31987600  0.41740400  0.22590300  1
  F  F50  1  0.08050800  0.32932000  0.58099100  1
  F  F51  1  0.67974100  0.85306000  0.46177400  1
  F  F52  1  0.81987600  0.58259600  0.27409700  1
  F  F53  1  0.60472300  0.79301700  0.31104100  1
  F  F54  1  0.78962300  0.48937800  0.51673600  1
  F  F55  1  0.93685300  0.67589000  0.05795800  1
  F  F56  1  0.21037700  0.51062200  0.48326400  1
  F  F57  1  0.78088600  0.15846700  0.97572400  1
  F  F58  1  0.56314700  0.67589000  0.55795800  1
  F  F59  1  0.93265200  0.93193900  0.08830500  1
  F  F60  1  0.21911400  0.84153300  0.02427600  1
  F  F61  1  0.05857700  0.38916900  0.06333800  1
  F  F62  1  0.74923100  0.09711000  0.34890000  1
  F  F63  1  0.73784600  0.36382800  0.38042200  1
loop_
_geom_bond_atom_site_label_1
_geom_bond_atom_site_label_2
_geom_bond_distance
_geom_bond_site_symmetry_2
C0 O6 1.148703 1_555
C0 N1 1.247755 1_555
C1 O3 1.147681 1_555
C1 N0 1.249116 1_555
C2 O0 1.147681 1_555
C2 N2 1.249116 1_555
C3 O1 1.147681 1_555
C3 N3 1.249116 1_555
C4 O7 1.148703 1_555
C4 N2 1.247755 1_555
C5 O5 1.148703 1_555
C5 N0 1.247755 1_555
C6 O2 1.147681 1_555
C6 N1 1.249116 1_555
C7 O4 1.148703 1_555
C7 N3 1.247755 1_555
F0 Sb7 1.883335 1_555
F1 Sb1 1.896323 1_555
F2 Sb1 1.916167 1_555
F3 Sb11 2.033181 1_555
F3 Sb1 2.138298 1_555
F4 Sb3 1.906498 1_555
F5 Sb3 1.897586 1_555
F6 Sb10 1.889427 1_455
F7 Sb1 1.891756 1_555
F8 Sb7 1.889427 1_555
F9 Sb1 1.902789 1_555
F10 Sb0 1.898029 1_556
F11 Sb6 1.902789 1_555
F12 Sb0 1.906498 1_555
F13 Sb6 1.916167 1_555
F14 Sb10 1.883335 1_555
F15 Sb11 2.043733 1_555
F15 Sb9 2.127545 1_555
F16 Sb3 1.900187 1_555
F17 Sb2 1.900187 1_555
F18 Sb10 2.043733 1_455
F18 Sb0 2.127545 1_556
F19 Sb2 1.892701 1_555
F20 Sb7 1.889796 1_555
F21 Sb6 1.891756 1_555
F22 Sb3 1.898029 1_554
F23 Sb5 1.896323 1_555
F24 Sb4 2.033181 1_655
F24 Sb6 2.138298 1_555
F25 Sb0 1.892701 1_556
F26 Sb11 1.889427 1_555
F27 Sb4 1.877561 1_555
F28 Sb8 1.892525 1_555
F29 Sb5 1.916167 1_555
F30 Sb11 1.889796 1_555
F31 Sb5 1.891756 1_555
F32 Sb2 1.906498 1_555
F33 Sb7 1.877561 1_555
F34 Sb10 2.033181 1_455
F34 Sb5 2.138298 1_555
F35 Sb9 1.900187 1_555
F36 Sb8 1.896323 1_555
F37 Sb5 1.892525 1_555
F38 Sb5 1.902789 1_555
F39 Sb3 1.892701 1_554
F40 Sb8 1.916167 1_555
F41 Sb0 1.897586 1_555
F42 Sb7 2.033181 1_555
F42 Sb8 2.138298 1_555
F43 Sb10 1.877561 1_555
F44 Sb9 1.892701 1_555
F45 Sb9 1.897586 1_555
F46 Sb8 1.891756 1_555
F47 Sb4 1.883335 1_555
F48 Sb8 1.902789 1_555
F49 Sb1 1.892525 1_555
F50 Sb9 1.906498 1_555
F51 Sb2 1.897586 1_555
F52 Sb6 1.892525 1_555
F53 Sb6 1.896323 1_555
F54 Sb2 1.898029 1_555
F55 Sb4 2.043733 1_655
F55 Sb3 2.127545 1_554
F56 Sb9 1.898029 1_555
F57 Sb10 1.889796 1_555
F58 Sb7 2.043733 1_555
F58 Sb2 2.127545 1_555
F59 Sb4 1.889427 1_655
F60 Sb4 1.889796 1_555
F61 Sb0 1.900187 1_555
F62 Sb11 1.883335 1_555
F63 Sb11 1.877561 1_555
