# generated using pymatgen
data_HgSb3XeF17
_symmetry_space_group_name_H-M   'P 1'
_cell_length_a   10.75445900
_cell_length_b   10.82098600
_cell_length_c   14.08356624
_cell_angle_alpha   85.52546355
_cell_angle_beta   90.00000000
_cell_angle_gamma   90.00000000
_symmetry_Int_Tables_number   1
_chemical_formula_structural   HgSb3XeF17
_chemical_formula_sum   'Hg4 Sb12 Xe4 F68'
_cell_volume   1633.96345352
_cell_formula_units_Z   4
loop_
 _symmetry_equiv_pos_site_id
 _symmetry_equiv_pos_as_xyz
  1  'x, y, z'
loop_
 _atom_site_type_symbol
 _atom_site_label
 _atom_site_symmetry_multiplicity
 _atom_site_fract_x
 _atom_site_fract_y
 _atom_site_fract_z
 _atom_site_occupancy
  Hg  Hg0  1  0.13671400  0.95804600  0.81177300  1
  Hg  Hg1  1  0.63671400  0.54195400  0.18822700  1
  Hg  Hg2  1  0.36328600  0.45804600  0.81177300  1
  Hg  Hg3  1  0.86328600  0.04195400  0.18822700  1
  Sb  Sb0  1  0.24346100  0.73364000  0.57573500  1
  Sb  Sb1  1  0.52040300  0.06898500  0.73959500  1
  Sb  Sb2  1  0.75653900  0.26636000  0.42426500  1
  Sb  Sb3  1  0.87207300  0.79174800  0.02489500  1
  Sb  Sb4  1  0.02040300  0.43101500  0.26040500  1
  Sb  Sb5  1  0.37207300  0.70825200  0.97510500  1
  Sb  Sb6  1  0.74346100  0.76636000  0.42426500  1
  Sb  Sb7  1  0.97959700  0.56898500  0.73959500  1
  Sb  Sb8  1  0.25653900  0.23364000  0.57573500  1
  Sb  Sb9  1  0.12792700  0.20825200  0.97510500  1
  Sb  Sb10  1  0.62792700  0.29174800  0.02489500  1
  Sb  Sb11  1  0.47959700  0.93101500  0.26040500  1
  Xe  Xe0  1  0.08928900  0.00993600  0.29393000  1
  Xe  Xe1  1  0.58928900  0.49006400  0.70607000  1
  Xe  Xe2  1  0.91071100  0.99006400  0.70607000  1
  Xe  Xe3  1  0.41071100  0.50993600  0.29393000  1
  F  F0  1  0.17849900  0.14810500  0.68536400  1
  F  F1  1  0.63130700  0.01414000  0.21785000  1
  F  F2  1  0.53959100  0.14372500  0.01207800  1
  F  F3  1  0.71375800  0.44574100  0.05239800  1
  F  F4  1  0.88332200  0.50767200  0.84450400  1
  F  F5  1  0.46200800  0.21153400  0.79822600  1
  F  F6  1  0.46040900  0.85627500  0.98792200  1
  F  F7  1  0.46548400  0.67493100  0.86308600  1
  F  F8  1  0.03799200  0.71153400  0.79822600  1
  F  F9  1  0.13797500  0.80994700  0.48122900  1
  F  F10  1  0.15042100  0.33311300  0.31848000  1
  F  F11  1  0.08629300  0.63738300  0.62302200  1
  F  F12  1  0.36202500  0.30994700  0.48122900  1
  F  F13  1  0.88817600  0.67802900  0.46194300  1
  F  F14  1  0.65042100  0.16688700  0.68152000  1
  F  F15  1  0.53451600  0.32506900  0.13691400  1
  F  F16  1  0.21375800  0.05425900  0.94760200  1
  F  F17  1  0.55810400  0.93562800  0.66574800  1
  F  F18  1  0.96040900  0.64372500  0.01207800  1
  F  F19  1  0.78624200  0.94574100  0.05239800  1
  F  F20  1  0.38817600  0.82197100  0.53805700  1
  F  F21  1  0.38332200  0.99232800  0.15549600  1
  F  F22  1  0.61667800  0.00767200  0.84450400  1
  F  F23  1  0.11182400  0.32197100  0.53805700  1
  F  F24  1  0.26838000  0.72367400  0.08181800  1
  F  F25  1  0.98888200  0.89017300  0.94636800  1
  F  F26  1  0.63797500  0.69005300  0.51877100  1
  F  F27  1  0.27720200  0.59651900  0.50403600  1
  F  F28  1  0.01111800  0.10982700  0.05363200  1
  F  F29  1  0.48888200  0.60982700  0.05363200  1
  F  F30  1  0.28624200  0.55425900  0.94760200  1
  F  F31  1  0.53799200  0.78846600  0.20177400  1
  F  F32  1  0.58629300  0.86261700  0.37697800  1
  F  F33  1  0.91370700  0.36261700  0.37697800  1
  F  F34  1  0.73162000  0.27632600  0.91818200  1
  F  F35  1  0.80697900  0.14224400  0.33998100  1
  F  F36  1  0.94189600  0.43562800  0.66574800  1
  F  F37  1  0.36869300  0.98586000  0.78215000  1
  F  F38  1  0.30697900  0.35775600  0.66001900  1
  F  F39  1  0.75219400  0.20569900  0.10730800  1
  F  F40  1  0.69302100  0.64224400  0.33998100  1
  F  F41  1  0.05810400  0.56437200  0.33425200  1
  F  F42  1  0.51111800  0.39017300  0.94636800  1
  F  F43  1  0.41370700  0.13738300  0.62302200  1
  F  F44  1  0.72279800  0.40348100  0.49596400  1
  F  F45  1  0.13130700  0.48586000  0.78215000  1
  F  F46  1  0.03959100  0.35627500  0.98792200  1
  F  F47  1  0.22279800  0.09651900  0.50403600  1
  F  F48  1  0.74780600  0.70569900  0.10730800  1
  F  F49  1  0.86869300  0.51414000  0.21785000  1
  F  F50  1  0.96200800  0.28846600  0.20177400  1
  F  F51  1  0.82150100  0.85189500  0.31463600  1
  F  F52  1  0.44189600  0.06437200  0.33425200  1
  F  F53  1  0.03451600  0.17493100  0.86308600  1
  F  F54  1  0.67849900  0.35189500  0.31463600  1
  F  F55  1  0.61182400  0.17802900  0.46194300  1
  F  F56  1  0.96548400  0.82506900  0.13691400  1
  F  F57  1  0.24780600  0.79430100  0.89269200  1
  F  F58  1  0.76838000  0.77632600  0.91818200  1
  F  F59  1  0.84957900  0.66688700  0.68152000  1
  F  F60  1  0.34957900  0.83311300  0.31848000  1
  F  F61  1  0.32150100  0.64810500  0.68536400  1
  F  F62  1  0.23162000  0.22367400  0.08181800  1
  F  F63  1  0.11667800  0.49232800  0.15549600  1
  F  F64  1  0.77720200  0.90348100  0.49596400  1
  F  F65  1  0.86202500  0.19005300  0.51877100  1
  F  F66  1  0.19302100  0.85775600  0.66001900  1
  F  F67  1  0.25219400  0.29430100  0.89269200  1
loop_
_geom_bond_atom_site_label_1
_geom_bond_atom_site_label_2
_geom_bond_distance
_geom_bond_site_symmetry_2
Hg0 Xe2 2.857138 1_455
Hg1 Xe3 2.857138 1_555
Hg2 Xe1 2.857138 1_555
Hg3 Xe0 2.857138 1_655
F0 Sb8 1.929230 1_555
F0 Hg0 2.651374 1_545
F1 Sb11 1.935498 1_545
F1 Hg3 2.543446 1_555
F2 Sb10 1.883037 1_555
F3 Sb10 1.969654 1_555
F3 Hg1 2.395957 1_555
F4 Sb7 1.882085 1_555
F5 Sb1 1.911632 1_555
F6 Sb5 1.883037 1_555
F7 Sb5 1.927917 1_555
F8 Sb7 1.911632 1_455
F9 Sb0 1.889128 1_555
F10 Sb4 1.900330 1_555
F11 Sb0 2.068132 1_555
F11 Sb7 2.090513 1_455
F12 Sb8 1.889128 1_555
F13 Sb6 1.881015 1_555
F14 Sb1 1.900330 1_555
F15 Sb10 1.927917 1_555
F16 Sb9 1.969654 1_555
F16 Hg0 2.395957 1_545
F17 Sb1 1.887494 1_565
F18 Sb3 1.883037 1_555
F19 Sb3 1.969654 1_555
F19 Hg3 2.395957 1_565
F20 Sb0 1.881015 1_555
F21 Sb11 1.882085 1_555
F22 Sb1 1.882085 1_555
F23 Sb8 1.881015 1_555
F24 Sb5 1.889253 1_554
F25 Sb3 1.936941 1_556
F25 Hg0 2.538314 1_655
F26 Sb6 1.889128 1_555
F27 Sb0 1.893864 1_555
F28 Sb9 1.936941 1_554
F28 Hg3 2.538314 1_455
F29 Sb5 1.936941 1_554
F29 Hg1 2.538314 1_555
F30 Sb5 1.969654 1_555
F30 Hg2 2.395957 1_555
F31 Sb11 1.911632 1_555
F32 Sb6 2.068132 1_555
F32 Sb11 2.090513 1_555
F33 Sb2 2.068132 1_555
F33 Sb4 2.090513 1_655
F34 Sb10 1.889253 1_556
F35 Sb2 1.937996 1_555
F35 Hg3 2.544429 1_555
F36 Sb7 1.887494 1_555
F37 Sb1 1.935498 1_565
F37 Hg0 2.543446 1_555
F38 Sb8 1.937996 1_555
F38 Hg2 2.544429 1_555
F39 Sb10 1.957438 1_555
F39 Hg3 2.355979 1_555
F40 Sb6 1.937996 1_555
F40 Hg1 2.544429 1_555
F41 Sb4 1.887494 1_555
F42 Sb10 1.936941 1_556
F42 Hg2 2.538314 1_555
F43 Sb8 2.068132 1_555
F43 Sb1 2.090513 1_555
F44 Sb2 1.893864 1_555
F45 Sb7 1.935498 1_455
F45 Hg2 2.543446 1_555
F46 Sb9 1.883037 1_555
F47 Sb8 1.893864 1_555
F48 Sb3 1.957438 1_555
F48 Hg1 2.355979 1_555
F49 Sb4 1.935498 1_655
F49 Hg1 2.543446 1_555
F50 Sb4 1.911632 1_655
F51 Sb6 1.929230 1_555
F51 Hg3 2.651374 1_565
F52 Sb11 1.887494 1_545
F53 Sb9 1.927917 1_555
F54 Sb2 1.929230 1_555
F54 Hg1 2.651374 1_555
F55 Sb2 1.881015 1_555
F56 Sb3 1.927917 1_555
F57 Sb5 1.957438 1_555
F57 Hg0 2.355979 1_555
F58 Sb3 1.889253 1_556
F59 Sb7 1.900330 1_555
F60 Sb11 1.900330 1_555
F61 Sb0 1.929230 1_555
F61 Hg2 2.651374 1_555
F62 Sb9 1.889253 1_554
F63 Sb4 1.882085 1_555
F64 Sb6 1.893864 1_555
F65 Sb2 1.889128 1_555
F66 Sb0 1.937996 1_555
F66 Hg0 2.544429 1_555
F67 Sb9 1.957438 1_555
F67 Hg2 2.355979 1_555
