# generated using pymatgen
data_Nd12Co6Sn
_symmetry_space_group_name_H-M   'P 1'
_cell_length_a   8.68879157
_cell_length_b   8.68879906
_cell_length_c   8.68880155
_cell_angle_alpha   109.47078409
_cell_angle_beta   109.47121412
_cell_angle_gamma   109.47185489
_symmetry_Int_Tables_number   1
_chemical_formula_structural   Nd12Co6Sn
_chemical_formula_sum   'Nd12 Co6 Sn1'
_cell_volume   504.95897452
_cell_formula_units_Z   1
loop_
 _symmetry_equiv_pos_site_id
 _symmetry_equiv_pos_as_xyz
  1  'x, y, z'
loop_
 _atom_site_type_symbol
 _atom_site_label
 _atom_site_symmetry_multiplicity
 _atom_site_fract_x
 _atom_site_fract_y
 _atom_site_fract_z
 _atom_site_occupancy
  Nd  Nd0  1  0.30476243  0.49684693  0.19208179  1
  Nd  Nd1  1  0.80790379  0.69519760  0.50312415  1
  Nd  Nd2  1  0.11264738  0.80789780  0.30475730  1
  Nd  Nd3  1  0.80790154  0.30478066  0.11270253  1
  Nd  Nd4  1  0.88733151  0.19212123  0.69521054  1
  Nd  Nd5  1  0.19208066  0.30477543  0.49687810  1
  Nd  Nd6  1  0.49691495  0.19212859  0.30479471  1
  Nd  Nd7  1  0.50314451  0.80789748  0.69524648  1
  Nd  Nd8  1  0.19207458  0.69520069  0.88729861  1
  Nd  Nd9  1  0.30476650  0.11268485  0.80790988  1
  Nd  Nd10  1  0.69523884  0.88734073  0.19210146  1
  Nd  Nd11  1  0.69522866  0.50312666  0.80789116  1
  Co  Co0  1  0.60907824  0.50000187  0.10907705  1
  Co  Co1  1  0.10906324  0.60906858  0.49999454  1
  Co  Co2  1  0.49999856  0.89093220  0.39093229  1
  Co  Co3  1  0.89092984  0.39093332  0.49999766  1
  Co  Co4  1  0.49999687  0.10906768  0.60906445  1
  Co  Co5  1  0.39093901  0.49999868  0.89093740  1
  Sn  Sn0  1  -0.00000111  -0.00000098  -0.00000007  1
loop_
_geom_bond_atom_site_label_1
_geom_bond_atom_site_label_2
_geom_bond_distance
_geom_bond_site_symmetry_2
Nd0 Sn0 3.614319 1_555
Nd1 Sn0 3.614581 1_666
Nd2 Sn0 3.614357 1_565
Nd3 Sn0 3.614603 1_655
Nd4 Sn0 3.614753 1_656
Nd5 Sn0 3.614580 1_555
Nd6 Sn0 3.614770 1_555
Nd7 Sn0 3.614322 1_666
Nd8 Sn0 3.614567 1_566
Nd9 Sn0 3.614400 1_556
Nd10 Sn0 3.614384 1_665
Nd11 Sn0 3.614457 1_666
Co0 Co5 2.188568 1_554
Co0 Nd3 2.795627 1_555
Co0 Nd1 2.795641 1_555
Co0 Nd9 2.957771 1_554
Co0 Nd0 2.957792 1_555
Co0 Nd11 2.957905 1_554
Co0 Nd10 2.957907 1_555
Co1 Co3 2.188531 1_455
Co1 Nd2 2.795763 1_555
Co1 Nd7 2.795859 1_555
Co1 Nd1 2.957594 1_455
Co1 Nd3 2.957605 1_455
Co1 Nd8 2.957698 1_555
Co1 Nd5 2.957739 1_555
Co2 Co4 2.188549 1_565
Co2 Nd10 2.795804 1_555
Co2 Nd0 2.795900 1_555
Co2 Nd4 2.957817 1_565
Co2 Nd6 2.957849 1_565
Co2 Nd7 2.957935 1_555
Co2 Nd2 2.957959 1_555
Co3 Nd6 2.795389 1_555
Co3 Nd4 2.795470 1_555
Co3 Nd1 2.957518 1_555
Co3 Nd3 2.957553 1_555
Co3 Nd8 2.957578 1_655
Co3 Nd5 2.957638 1_655
Co4 Nd11 2.795712 1_555
Co4 Nd9 2.795839 1_555
Co4 Nd6 2.957799 1_555
Co4 Nd4 2.957835 1_555
Co4 Nd2 2.957916 1_545
Co4 Nd7 2.957961 1_545
Co5 Nd5 2.795728 1_555
Co5 Nd8 2.795784 1_555
Co5 Nd9 2.957668 1_555
Co5 Nd0 2.957729 1_556
Co5 Nd11 2.957816 1_555
Co5 Nd10 2.957862 1_556
