# generated using pymatgen
data_Ba2Mg3F10
_symmetry_space_group_name_H-M   'P 1'
_cell_length_a   9.71711398
_cell_length_b   9.71711398
_cell_length_c   7.79455590
_cell_angle_alpha   69.02273183
_cell_angle_beta   69.02273183
_cell_angle_gamma   35.59604871
_symmetry_Int_Tables_number   1
_chemical_formula_structural   Ba2Mg3F10
_chemical_formula_sum   'Ba4 Mg6 F20'
_cell_volume   396.95547593
_cell_formula_units_Z   2
loop_
 _symmetry_equiv_pos_site_id
 _symmetry_equiv_pos_as_xyz
  1  'x, y, z'
loop_
 _atom_site_type_symbol
 _atom_site_label
 _atom_site_symmetry_multiplicity
 _atom_site_fract_x
 _atom_site_fract_y
 _atom_site_fract_z
 _atom_site_occupancy
  Ba  Ba0  1  0.28283756  0.28283756  0.31425698  1
  Ba  Ba1  1  0.71716244  0.71716244  0.68574302  1
  Ba  Ba2  1  0.38585680  0.38585680  0.72007127  1
  Ba  Ba3  1  0.61414320  0.61414320  0.27992873  1
  Mg  Mg0  1  0.07401988  0.07401988  0.54566209  1
  Mg  Mg1  1  0.92598012  0.92598012  0.45433791  1
  Mg  Mg2  1  0.17698012  0.17698012  0.98502151  1
  Mg  Mg3  1  0.82301988  0.82301988  0.01497849  1
  Mg  Mg4  1  0.74683061  0.25316939  0.00000000  1
  Mg  Mg5  1  0.25316939  0.74683061  0.00000000  1
  F  F0  1  0.85831278  0.36229096  0.97514771  1
  F  F1  1  0.63770904  0.14168722  0.02485229  1
  F  F2  1  0.14168722  0.63770904  0.02485229  1
  F  F3  1  0.36229096  0.85831278  0.97514771  1
  F  F4  1  0.91062766  0.38545129  0.52629051  1
  F  F5  1  0.61454871  0.08937234  0.47370949  1
  F  F6  1  0.08937234  0.61454871  0.47370949  1
  F  F7  1  0.38545129  0.91062766  0.52629051  1
  F  F8  1  0.02223570  0.02223570  0.81780343  1
  F  F9  1  0.97776430  0.97776430  0.18219657  1
  F  F10  1  0.13353406  0.13353406  0.25700042  1
  F  F11  1  0.86646594  0.86646594  0.74299958  1
  F  F12  1  0.23607484  0.23607484  0.72045832  1
  F  F13  1  0.76392516  0.76392516  0.27954168  1
  F  F14  1  0.51747243  0.51747243  0.81990395  1
  F  F15  1  0.48252757  0.48252757  0.18009605  1
  F  F16  1  0.78130387  0.21869613  0.50000000  1
  F  F17  1  0.21869613  0.78130387  0.50000000  1
  F  F18  1  -0.00000000  0.50000000  0.00000000  1
  F  F19  1  0.50000000  -0.00000000  0.00000000  1
loop_
_geom_bond_atom_site_label_1
_geom_bond_atom_site_label_2
_geom_bond_distance
_geom_bond_site_symmetry_2
Ba0 F5 2.609458 1_555
Ba0 F6 2.609458 1_555
Ba0 F2 2.795493 1_555
Ba0 F1 2.795493 1_555
Ba0 F4 2.800365 1_455
Ba0 F7 2.800365 1_545
Ba0 F12 2.951798 1_555
Ba0 F10 2.959564 1_555
Ba0 F13 3.014752 1_545
Ba0 F13 3.014752 1_455
Ba0 F18 3.113508 1_555
Ba0 F19 3.113508 1_555
Ba1 F7 2.609458 1_555
Ba1 F4 2.609458 1_555
Ba1 F0 2.795493 1_555
Ba1 F3 2.795493 1_555
Ba1 F5 2.800365 1_565
Ba1 F6 2.800365 1_655
Ba1 F13 2.951798 1_555
Ba1 F11 2.959564 1_555
Ba1 F12 3.014752 1_655
Ba1 F12 3.014752 1_565
Ba1 F18 3.113508 1_656
Ba1 F19 3.113508 1_566
Ba2 F6 2.723923 1_555
Ba2 F5 2.723923 1_555
Ba2 F17 2.733382 1_555
Ba2 F16 2.733382 1_555
Ba2 F12 2.770448 1_555
Ba2 F2 2.818895 1_556
Ba2 F1 2.818895 1_556
Ba2 F14 2.821692 1_555
Ba2 F11 2.989029 1_455
Ba2 F11 2.989029 1_545
Ba2 F18 3.026751 1_556
Ba2 F19 3.026751 1_556
Ba3 F7 2.723923 1_555
Ba3 F4 2.723923 1_555
Ba3 F16 2.733382 1_555
Ba3 F17 2.733382 1_555
Ba3 F13 2.770448 1_555
Ba3 F0 2.818895 1_554
Ba3 F3 2.818895 1_554
Ba3 F15 2.821692 1_555
Ba3 F10 2.989029 1_655
Ba3 F10 2.989029 1_565
Ba3 F18 3.026751 1_655
Ba3 F19 3.026751 1_565
F0 Mg2 1.959678 1_655
F0 Mg4 1.976383 1_556
F1 Mg3 1.959678 1_545
F1 Mg4 1.976383 1_555
F2 Mg3 1.959678 1_455
F2 Mg5 1.976383 1_555
F3 Mg2 1.959678 1_565
F3 Mg5 1.976383 1_556
F4 Mg0 1.931894 1_655
F5 Mg1 1.931894 1_545
F6 Mg1 1.931894 1_455
F7 Mg0 1.931894 1_565
F8 Mg0 1.972126 1_555
F8 Mg5 2.002106 1_546
F8 Mg4 2.002106 1_456
F9 Mg1 1.972126 1_555
F9 Mg4 2.002106 1_565
F9 Mg5 2.002106 1_655
F10 Mg2 1.964410 1_554
F10 Mg0 2.100461 1_555
F11 Mg3 1.964410 1_556
F11 Mg1 2.100461 1_555
F12 Mg2 1.937140 1_555
F13 Mg3 1.937140 1_555
F14 Mg4 1.970710 1_556
F14 Mg5 1.970710 1_556
F15 Mg4 1.970710 1_555
F15 Mg5 1.970710 1_555
F16 Mg1 2.014195 1_545
F16 Mg0 2.014195 1_655
F17 Mg1 2.014195 1_455
F17 Mg0 2.014195 1_565
F18 Mg3 2.040433 1_455
F18 Mg2 2.040433 1_554
F19 Mg3 2.040433 1_545
F19 Mg2 2.040433 1_554
