# generated using pymatgen
data_CaZr4O9
_symmetry_space_group_name_H-M   'P 1'
_cell_length_a   11.63307713
_cell_length_b   11.63307713
_cell_length_c   12.19523875
_cell_angle_alpha   67.83947861
_cell_angle_beta   67.83947861
_cell_angle_gamma   79.06952787
_symmetry_Int_Tables_number   1
_chemical_formula_structural   CaZr4O9
_chemical_formula_sum   'Ca8 Zr32 O72'
_cell_volume   1413.38902278
_cell_formula_units_Z   8
loop_
 _symmetry_equiv_pos_site_id
 _symmetry_equiv_pos_as_xyz
  1  'x, y, z'
loop_
 _atom_site_type_symbol
 _atom_site_label
 _atom_site_symmetry_multiplicity
 _atom_site_fract_x
 _atom_site_fract_y
 _atom_site_fract_z
 _atom_site_occupancy
  Ca  Ca0  1  0.06367000  0.93633000  0.75000000  1
  Ca  Ca1  1  0.43696000  0.56304000  0.25000000  1
  Ca  Ca2  1  0.56304000  0.43696000  0.75000000  1
  Ca  Ca3  1  0.88648200  0.51160100  0.64998400  1
  Ca  Ca4  1  0.93633000  0.06367000  0.25000000  1
  Ca  Ca5  1  0.48839900  0.11351800  0.85001600  1
  Ca  Ca6  1  0.11351800  0.48839900  0.35001600  1
  Ca  Ca7  1  0.51160100  0.88648200  0.14998400  1
  Zr  Zr0  1  0.11598000  0.25541200  0.65107900  1
  Zr  Zr1  1  0.35844000  0.25169600  0.38002100  1
  Zr  Zr2  1  0.00764000  0.62247900  0.82298400  1
  Zr  Zr3  1  0.58114600  0.21093200  0.05089700  1
  Zr  Zr4  1  0.74830400  0.64156000  0.11997900  1
  Zr  Zr5  1  0.18590800  0.81409200  0.25000000  1
  Zr  Zr6  1  0.48584800  0.33386200  0.55012300  1
  Zr  Zr7  1  0.21093200  0.58114600  0.55089700  1
  Zr  Zr8  1  0.33386200  0.48584800  0.05012300  1
  Zr  Zr9  1  0.25541200  0.11598000  0.15107900  1
  Zr  Zr10  1  0.51415200  0.66613800  0.44987700  1
  Zr  Zr11  1  0.68748300  0.31251700  0.25000000  1
  Zr  Zr12  1  0.25169600  0.35844000  0.88002100  1
  Zr  Zr13  1  0.06479200  0.69622700  0.05042100  1
  Zr  Zr14  1  0.62247900  0.00764000  0.32298400  1
  Zr  Zr15  1  0.69622700  0.06479200  0.55042100  1
  Zr  Zr16  1  0.88402000  0.74458800  0.34892100  1
  Zr  Zr17  1  0.64156000  0.74830400  0.61997900  1
  Zr  Zr18  1  0.84838700  0.93539900  0.06558300  1
  Zr  Zr19  1  0.78906800  0.41885400  0.44910300  1
  Zr  Zr20  1  0.15161300  0.06460100  0.93441700  1
  Zr  Zr21  1  0.99236000  0.37752100  0.17701600  1
  Zr  Zr22  1  0.41885400  0.78906800  0.94910300  1
  Zr  Zr23  1  0.81409200  0.18590800  0.75000000  1
  Zr  Zr24  1  0.06460100  0.15161300  0.43441700  1
  Zr  Zr25  1  0.66613800  0.51415200  0.94987700  1
  Zr  Zr26  1  0.93539900  0.84838700  0.56558300  1
  Zr  Zr27  1  0.74458800  0.88402000  0.84892100  1
  Zr  Zr28  1  0.37752100  0.99236000  0.67701600  1
  Zr  Zr29  1  0.93520800  0.30377300  0.94957900  1
  Zr  Zr30  1  0.31251700  0.68748300  0.75000000  1
  Zr  Zr31  1  0.30377300  0.93520800  0.44957900  1
  O  O0  1  0.68208100  0.72710300  0.44145600  1
  O  O1  1  0.26356500  0.13117000  0.32853700  1
  O  O2  1  0.32378600  0.96066400  0.87704900  1
  O  O3  1  0.10526800  0.95465000  0.52265300  1
  O  O4  1  0.54349800  0.19455000  0.24553500  1
  O  O5  1  0.09730900  0.44709100  0.57919300  1
  O  O6  1  0.89473200  0.04534900  0.47734700  1
  O  O7  1  0.11731000  0.50482600  0.14435600  1
  O  O8  1  0.86883000  0.73643500  0.17146300  1
  O  O9  1  0.67317800  0.57732400  0.76232600  1
  O  O10  1  0.87779500  0.27814700  0.15118900  1
  O  O11  1  0.50737300  0.35150900  0.36213400  1
  O  O12  1  0.22105900  0.63811600  0.36758000  1
  O  O13  1  0.92611600  0.28009800  0.78575300  1
  O  O14  1  0.03933600  0.67621400  0.62295100  1
  O  O15  1  0.19455000  0.54349800  0.74553500  1
  O  O16  1  0.07435200  0.18878900  0.24054700  1
  O  O17  1  0.13117000  0.26356500  0.82853700  1
  O  O18  1  0.81121100  0.92564800  0.25945300  1
  O  O19  1  0.27289700  0.31791900  0.05854400  1
  O  O20  1  0.73643500  0.86883000  0.67146300  1
  O  O21  1  0.99394700  0.14752900  0.62848500  1
  O  O22  1  0.16293600  0.27643500  0.45514800  1
  O  O23  1  0.44709100  0.09730900  0.07919300  1
  O  O24  1  0.45650200  0.80545000  0.75446500  1
  O  O25  1  0.14752900  0.99394700  0.12848500  1
  O  O26  1  0.60348300  0.93819100  0.52319900  1
  O  O27  1  0.04535000  0.89473200  0.97734700  1
  O  O28  1  0.88269000  0.49517400  0.85564400  1
  O  O29  1  0.31775300  0.73132200  0.52397300  1
  O  O30  1  0.39435200  0.51584700  0.49026300  1
  O  O31  1  0.42267600  0.32682200  0.73767400  1
  O  O32  1  0.67621400  0.03933600  0.12295100  1
  O  O33  1  0.77894100  0.36188400  0.63242000  1
  O  O34  1  0.73132200  0.31775300  0.02397300  1
  O  O35  1  0.72356500  0.83706400  0.04485200  1
  O  O36  1  0.55290900  0.90269100  0.92080700  1
  O  O37  1  0.07388400  0.71990200  0.21424700  1
  O  O38  1  0.80545000  0.45650200  0.25446500  1
  O  O39  1  0.31791900  0.27289700  0.55854400  1
  O  O40  1  0.60564800  0.48415300  0.50973700  1
  O  O41  1  0.32682200  0.42267600  0.23767400  1
  O  O42  1  0.48415300  0.60564800  0.00973700  1
  O  O43  1  0.12220500  0.72185300  0.84881100  1
  O  O44  1  0.72710300  0.68208100  0.94145600  1
  O  O45  1  0.49262700  0.64849100  0.63786600  1
  O  O46  1  0.00605300  0.85247100  0.37151500  1
  O  O47  1  0.57732400  0.67317800  0.26232600  1
  O  O48  1  0.92564800  0.81121100  0.75945300  1
  O  O49  1  0.27643500  0.16293600  0.95514800  1
  O  O50  1  0.90269100  0.55290900  0.42080700  1
  O  O51  1  0.27814700  0.87779500  0.65118900  1
  O  O52  1  0.83706400  0.72356500  0.54485200  1
  O  O53  1  0.35150900  0.50737300  0.86213400  1
  O  O54  1  0.50482600  0.11731000  0.64435600  1
  O  O55  1  0.51584700  0.39435200  0.99026300  1
  O  O56  1  0.85247100  0.00605300  0.87151500  1
  O  O57  1  0.63811600  0.22105900  0.86758000  1
  O  O58  1  0.36188400  0.77894100  0.13242000  1
  O  O59  1  0.71990200  0.07388400  0.71424700  1
  O  O60  1  0.68224700  0.26867800  0.47602700  1
  O  O61  1  0.39651700  0.06180900  0.47680100  1
  O  O62  1  0.64849100  0.49262700  0.13786600  1
  O  O63  1  0.93819100  0.60348300  0.02319900  1
  O  O64  1  0.96066400  0.32378600  0.37704900  1
  O  O65  1  0.49517400  0.88269000  0.35564400  1
  O  O66  1  0.95465000  0.10526800  0.02265300  1
  O  O67  1  0.28009800  0.92611600  0.28575300  1
  O  O68  1  0.72185300  0.12220500  0.34881100  1
  O  O69  1  0.06180900  0.39651700  0.97680100  1
  O  O70  1  0.26867800  0.68224700  0.97602700  1
  O  O71  1  0.18878900  0.07435200  0.74054700  1
loop_
_geom_bond_atom_site_label_1
_geom_bond_atom_site_label_2
_geom_bond_distance
_geom_bond_site_symmetry_2
Ca0 O71 2.308657 1_565
Ca0 O48 2.308657 1_455
Ca0 O51 2.418155 1_555
Ca0 O43 2.418155 1_555
Ca0 O56 2.508900 1_465
Ca0 O21 2.508900 1_465
Ca0 O27 2.558869 1_555
Ca0 O3 2.558869 1_555
Ca1 O47 2.335442 1_555
Ca1 O41 2.335442 1_555
Ca1 O62 2.477567 1_555
Ca1 O11 2.477567 1_555
Ca1 O58 2.554007 1_555
Ca1 O12 2.554007 1_555
Ca1 O30 2.631801 1_555
Ca1 O42 2.631801 1_555
Ca2 O9 2.335442 1_555
Ca2 O31 2.335442 1_555
Ca2 O45 2.477567 1_555
Ca2 O53 2.477567 1_555
Ca2 O33 2.554007 1_555
Ca2 O57 2.554007 1_555
Ca2 O55 2.631801 1_555
Ca2 O40 2.631801 1_555
Ca3 O5 2.348831 1_655
Ca3 O52 2.384933 1_555
Ca3 O28 2.426324 1_555
Ca3 O33 2.440140 1_555
Ca3 O9 2.474853 1_555
Ca3 O50 2.588697 1_555
Ca3 O13 2.635883 1_555
Ca3 O14 2.703781 1_655
Ca4 O16 2.308657 1_655
Ca4 O18 2.308657 1_545
Ca4 O10 2.418155 1_555
Ca4 O68 2.418155 1_555
Ca4 O46 2.508900 1_645
Ca4 O25 2.508900 1_645
Ca4 O6 2.558866 1_555
Ca4 O66 2.558869 1_555
Ca5 O36 2.348831 1_545
Ca5 O49 2.384933 1_555
Ca5 O54 2.426324 1_555
Ca5 O57 2.440140 1_555
Ca5 O31 2.474853 1_555
Ca5 O23 2.588697 1_556
Ca5 O59 2.635883 1_555
Ca5 O2 2.703781 1_545
Ca6 O50 2.348831 1_455
Ca6 O22 2.384933 1_555
Ca6 O7 2.426324 1_555
Ca6 O12 2.440140 1_555
Ca6 O41 2.474853 1_555
Ca6 O5 2.588697 1_555
Ca6 O37 2.635883 1_555
Ca6 O64 2.703781 1_455
Ca7 O23 2.348831 1_565
Ca7 O35 2.384933 1_555
Ca7 O65 2.426324 1_555
Ca7 O58 2.440140 1_555
Ca7 O47 2.474853 1_555
Ca7 O36 2.588697 1_554
Ca7 O67 2.635883 1_555
Ca7 O32 2.703781 1_565
O0 Zr17 2.147021 1_555
O0 Zr10 2.156138 1_555
O0 Zr16 2.200358 1_555
O1 Zr24 2.202114 1_555
O1 Zr31 2.274294 1_545
O1 Zr9 2.274519 1_555
O1 Zr1 2.313424 1_555
O2 Zr22 2.133688 1_555
O2 Zr20 2.150734 1_565
O2 Zr28 2.176250 1_555
O3 Zr31 2.139939 1_555
O3 Zr24 2.178218 1_565
O3 Zr26 2.316211 1_455
O4 Zr3 2.183692 1_555
O4 Zr14 2.193575 1_555
O4 Zr1 2.320023 1_555
O4 Zr11 2.385101 1_555
O5 Zr0 2.067139 1_555
O5 Zr7 2.080815 1_555
O6 Zr15 2.139940 1_555
O6 Zr26 2.178208 1_545
O6 Zr24 2.316219 1_655
O7 Zr21 2.097444 1_455
O7 Zr13 2.175107 1_555
O7 Zr8 2.347777 1_555
O8 Zr18 2.202114 1_555
O8 Zr13 2.274294 1_655
O8 Zr16 2.274519 1_555
O8 Zr4 2.313424 1_555
O9 Zr25 2.095626 1_555
O9 Zr17 2.168972 1_555
O10 Zr21 2.094624 1_555
O10 Zr11 2.128033 1_555
O10 Zr29 2.205401 1_554
O11 Zr11 2.100428 1_555
O11 Zr6 2.142916 1_555
O11 Zr1 2.164315 1_555
O12 Zr7 2.040629 1_555
O12 Zr5 2.079543 1_555
O13 Zr23 2.102284 1_555
O13 Zr29 2.159677 1_555
O13 Zr0 2.244303 1_655
O14 Zr7 2.133688 1_555
O14 Zr26 2.150734 1_455
O14 Zr2 2.176250 1_555
O15 Zr7 2.183692 1_555
O15 Zr2 2.193575 1_555
O15 Zr12 2.320023 1_555
O15 Zr30 2.385101 1_555
O16 Zr9 2.152020 1_555
O16 Zr21 2.193278 1_455
O16 Zr24 2.198790 1_555
O17 Zr20 2.202114 1_555
O17 Zr29 2.274294 1_455
O17 Zr0 2.274519 1_555
O17 Zr12 2.313424 1_555
O18 Zr16 2.152020 1_555
O18 Zr14 2.193278 1_565
O18 Zr18 2.198790 1_555
O19 Zr12 2.147021 1_554
O19 Zr8 2.156138 1_555
O19 Zr9 2.200358 1_555
O20 Zr26 2.202114 1_555
O20 Zr15 2.274294 1_565
O20 Zr27 2.274519 1_555
O20 Zr17 2.313424 1_555
O21 Zr23 2.139805 1_555
O21 Zr24 2.177518 1_655
O21 Zr0 2.213126 1_655
O22 Zr1 2.115057 1_555
O22 Zr24 2.146176 1_555
O22 Zr0 2.166265 1_555
O23 Zr9 2.067139 1_555
O23 Zr3 2.080815 1_555
O24 Zr22 2.183692 1_555
O24 Zr28 2.193575 1_555
O24 Zr17 2.320023 1_555
O24 Zr30 2.385101 1_555
O25 Zr5 2.139805 1_555
O25 Zr20 2.177518 1_564
O25 Zr9 2.213126 1_565
O26 Zr17 2.127262 1_555
O26 Zr15 2.164461 1_565
O26 Zr14 2.199041 1_565
O27 Zr13 2.139939 1_556
O27 Zr18 2.178218 1_456
O27 Zr20 2.316211 1_565
O28 Zr2 2.097444 1_655
O28 Zr29 2.175107 1_555
O28 Zr25 2.347777 1_555
O29 Zr7 2.187873 1_555
O29 Zr31 2.194712 1_555
O29 Zr10 2.216735 1_555
O29 Zr30 2.585816 1_555
O30 Zr7 2.072544 1_555
O30 Zr6 2.171042 1_555
O30 Zr10 2.235651 1_555
O31 Zr6 2.095626 1_555
O31 Zr12 2.168972 1_555
O32 Zr3 2.133688 1_555
O32 Zr18 2.150734 1_545
O32 Zr14 2.176250 1_555
O33 Zr19 2.040629 1_555
O33 Zr23 2.079543 1_555
O34 Zr3 2.187873 1_555
O34 Zr29 2.194712 1_554
O34 Zr25 2.216735 1_554
O34 Zr11 2.585816 1_555
O35 Zr4 2.115057 1_555
O35 Zr18 2.146176 1_555
O35 Zr27 2.166265 1_554
O36 Zr27 2.067139 1_555
O36 Zr22 2.080815 1_555
O37 Zr5 2.102284 1_555
O37 Zr13 2.159677 1_555
O37 Zr16 2.244303 1_455
O38 Zr19 2.183692 1_555
O38 Zr21 2.193575 1_555
O38 Zr4 2.320023 1_555
O38 Zr11 2.385101 1_555
O39 Zr1 2.147021 1_555
O39 Zr6 2.156138 1_555
O39 Zr0 2.200358 1_555
O40 Zr19 2.072544 1_555
O40 Zr10 2.171042 1_555
O40 Zr6 2.235651 1_555
O41 Zr8 2.095626 1_555
O41 Zr1 2.168972 1_555
O42 Zr22 2.072544 1_554
O42 Zr25 2.171042 1_554
O42 Zr8 2.235651 1_555
O43 Zr2 2.094624 1_555
O43 Zr30 2.128033 1_555
O43 Zr13 2.205401 1_556
O44 Zr4 2.147021 1_556
O44 Zr25 2.156138 1_555
O44 Zr27 2.200358 1_555
O45 Zr30 2.100428 1_555
O45 Zr10 2.142916 1_555
O45 Zr17 2.164315 1_555
O46 Zr5 2.139805 1_555
O46 Zr26 2.177518 1_455
O46 Zr16 2.213126 1_455
O47 Zr10 2.095626 1_555
O47 Zr4 2.168972 1_555
O48 Zr27 2.152020 1_555
O48 Zr2 2.193278 1_655
O48 Zr26 2.198790 1_555
O49 Zr12 2.115057 1_555
O49 Zr20 2.146176 1_555
O49 Zr9 2.166265 1_556
O50 Zr16 2.067139 1_555
O50 Zr19 2.080815 1_555
O51 Zr28 2.094624 1_555
O51 Zr30 2.128033 1_555
O51 Zr31 2.205401 1_555
O52 Zr17 2.115057 1_555
O52 Zr26 2.146176 1_555
O52 Zr16 2.166265 1_555
O53 Zr30 2.100428 1_555
O53 Zr8 2.142916 1_556
O53 Zr12 2.164315 1_555
O54 Zr28 2.097444 1_545
O54 Zr15 2.175107 1_555
O54 Zr6 2.347777 1_555
O55 Zr3 2.072544 1_556
O55 Zr8 2.171042 1_556
O55 Zr25 2.235651 1_555
O56 Zr23 2.139805 1_555
O56 Zr18 2.177518 1_546
O56 Zr27 2.213126 1_545
O57 Zr3 2.040629 1_556
O57 Zr23 2.079543 1_555
O58 Zr22 2.040629 1_554
O58 Zr5 2.079543 1_555
O59 Zr23 2.102284 1_555
O59 Zr15 2.159677 1_555
O59 Zr27 2.244303 1_545
O60 Zr19 2.187873 1_555
O60 Zr15 2.194712 1_555
O60 Zr6 2.216735 1_555
O60 Zr11 2.585816 1_555
O61 Zr1 2.127262 1_555
O61 Zr31 2.164461 1_545
O61 Zr28 2.199041 1_545
O62 Zr11 2.100428 1_555
O62 Zr25 2.142916 1_554
O62 Zr4 2.164315 1_555
O63 Zr4 2.127262 1_555
O63 Zr13 2.164461 1_655
O63 Zr2 2.199041 1_654
O64 Zr19 2.133688 1_555
O64 Zr24 2.150734 1_655
O64 Zr21 2.176250 1_555
O65 Zr14 2.097444 1_565
O65 Zr31 2.175107 1_555
O65 Zr10 2.347777 1_555
O66 Zr29 2.139939 1_554
O66 Zr20 2.178218 1_654
O66 Zr18 2.316211 1_545
O67 Zr5 2.102284 1_555
O67 Zr31 2.159677 1_555
O67 Zr9 2.244303 1_565
O68 Zr14 2.094624 1_555
O68 Zr11 2.128033 1_555
O68 Zr15 2.205401 1_555
O69 Zr12 2.127262 1_555
O69 Zr29 2.164461 1_455
O69 Zr21 2.199041 1_456
O70 Zr22 2.187873 1_555
O70 Zr13 2.194712 1_556
O70 Zr8 2.216735 1_556
O70 Zr30 2.585816 1_555
O71 Zr0 2.152020 1_555
O71 Zr28 2.193278 1_545
O71 Zr20 2.198790 1_555
