# generated using pymatgen
data_Lu5NiPb3
_symmetry_space_group_name_H-M   'P 1'
_cell_length_a   8.89717543
_cell_length_b   8.89715248
_cell_length_c   6.54104224
_cell_angle_alpha   90.00005385
_cell_angle_beta   89.99993659
_cell_angle_gamma   119.99951035
_symmetry_Int_Tables_number   1
_chemical_formula_structural   Lu5NiPb3
_chemical_formula_sum   'Lu10 Ni2 Pb6'
_cell_volume   448.41787400
_cell_formula_units_Z   2
loop_
 _symmetry_equiv_pos_site_id
 _symmetry_equiv_pos_as_xyz
  1  'x, y, z'
loop_
 _atom_site_type_symbol
 _atom_site_label
 _atom_site_symmetry_multiplicity
 _atom_site_fract_x
 _atom_site_fract_y
 _atom_site_fract_z
 _atom_site_occupancy
  Lu  Lu0  1  0.23549892  0.00000066  0.25000950  1
  Lu  Lu1  1  0.76450383  0.00000060  0.74999146  1
  Lu  Lu2  1  0.99999815  0.23549830  0.25000911  1
  Lu  Lu3  1  0.33332908  0.66666242  0.50000010  1
  Lu  Lu4  1  0.66666837  0.33333430  0.50000038  1
  Lu  Lu5  1  0.66666829  0.33333451  0.99999988  1
  Lu  Lu6  1  0.99999985  0.76450297  0.74998891  1
  Lu  Lu7  1  0.23549894  0.23549678  0.74998958  1
  Lu  Lu8  1  0.33332850  0.66666291  0.99999943  1
  Lu  Lu9  1  0.76450146  0.76450113  0.25000964  1
  Ni  Ni0  1  0.00000314  0.00000221  0.00000339  1
  Ni  Ni1  1  0.99999893  -0.00000009  0.49999527  1
  Pb  Pb0  1  0.40020387  0.00000461  0.75000223  1
  Pb  Pb1  1  0.99999716  0.40018841  0.75000072  1
  Pb  Pb2  1  0.40019532  0.40019308  0.24999954  1
  Pb  Pb3  1  0.59980190  -0.00000164  0.25000112  1
  Pb  Pb4  1  1.00000028  0.59980992  0.24999853  1
  Pb  Pb5  1  0.59980700  0.59980892  0.75000121  1
loop_
_geom_bond_atom_site_label_1
_geom_bond_atom_site_label_2
_geom_bond_distance
_geom_bond_site_symmetry_2
Lu0 Ni1 2.657813 1_455
Lu0 Ni0 2.657876 1_555
Lu0 Pb4 3.099599 1_445
Lu0 Pb2 3.099602 1_555
Lu0 Pb3 3.241278 1_555
Lu0 Pb0 3.583766 1_555
Lu0 Pb0 3.583850 1_554
Lu1 Ni1 2.657826 1_555
Lu1 Ni0 2.657913 1_656
Lu1 Pb1 3.099573 1_555
Lu1 Pb5 3.099596 1_545
Lu1 Pb0 3.241258 1_555
Lu1 Pb3 3.583744 1_555
Lu1 Pb3 3.583856 1_556
Lu2 Ni1 2.657807 1_555
Lu2 Ni0 2.657882 1_655
Lu2 Pb3 3.099646 1_555
Lu2 Pb2 3.099651 1_655
Lu2 Pb4 3.241327 1_555
Lu2 Pb1 3.583710 1_555
Lu2 Pb1 3.583813 1_554
Lu3 Pb2 3.171627 1_555
Lu3 Pb4 3.171630 1_455
Lu3 Pb5 3.171637 1_555
Lu3 Pb1 3.171645 1_455
Lu3 Pb3 3.171654 1_565
Lu3 Pb0 3.171667 1_565
Lu3 Lu8 3.270517 1_555
Lu3 Lu8 3.270526 1_554
Lu4 Pb0 3.171612 1_555
Lu4 Pb1 3.171622 1_555
Lu4 Pb2 3.171626 1_555
Lu4 Pb3 3.171631 1_555
Lu4 Pb5 3.171643 1_555
Lu4 Pb4 3.171653 1_555
Lu4 Lu5 3.270518 1_555
Lu4 Lu5 3.270524 1_554
Lu5 Pb0 3.171599 1_555
Lu5 Pb1 3.171616 1_555
Lu5 Pb2 3.171617 1_556
Lu5 Pb5 3.171637 1_555
Lu5 Pb3 3.171642 1_556
Lu5 Pb4 3.171643 1_556
Lu6 Ni1 2.657827 1_565
Lu6 Ni0 2.657910 1_666
Lu6 Pb5 3.099616 1_555
Lu6 Pb0 3.099704 1_665
Lu6 Pb1 3.241350 1_555
Lu6 Pb4 3.583712 1_555
Lu6 Pb4 3.583830 1_556
Lu7 Ni1 2.657851 1_455
Lu7 Ni0 2.657906 1_556
Lu7 Pb1 3.099600 1_455
Lu7 Pb0 3.099616 1_555
Lu7 Pb5 3.241351 1_555
Lu7 Pb2 3.583728 1_555
Lu7 Pb2 3.583847 1_556
Lu8 Pb4 3.171613 1_456
Lu8 Pb5 3.171631 1_555
Lu8 Pb2 3.171635 1_556
Lu8 Pb1 3.171638 1_455
Lu8 Pb0 3.171647 1_565
Lu8 Pb3 3.171662 1_566
Lu9 Ni1 2.657814 1_565
Lu9 Ni0 2.657919 1_665
Lu9 Pb4 3.099573 1_555
Lu9 Pb3 3.099618 1_565
Lu9 Pb2 3.241324 1_555
Lu9 Pb5 3.583726 1_555
Lu9 Pb5 3.583827 1_554
