# generated using pymatgen
data_La23Mg4Rh7
_symmetry_space_group_name_H-M   'P 1'
_cell_length_a   10.23414076
_cell_length_b   10.23414086
_cell_length_c   23.10381854
_cell_angle_alpha   90.00000000
_cell_angle_beta   90.00000000
_cell_angle_gamma   119.99999968
_symmetry_Int_Tables_number   1
_chemical_formula_structural   La23Mg4Rh7
_chemical_formula_sum   'La46 Mg8 Rh14'
_cell_volume   2095.64238778
_cell_formula_units_Z   2
loop_
 _symmetry_equiv_pos_site_id
 _symmetry_equiv_pos_as_xyz
  1  'x, y, z'
loop_
 _atom_site_type_symbol
 _atom_site_label
 _atom_site_symmetry_multiplicity
 _atom_site_fract_x
 _atom_site_fract_y
 _atom_site_fract_z
 _atom_site_occupancy
  La  La0  1  0.41553119  0.20776560  0.55080717  1
  La  La1  1  0.74481087  0.87240543  0.36559500  1
  La  La2  1  0.25518913  0.12759457  0.86559500  1
  La  La3  1  0.42015757  0.21007879  0.00838488  1
  La  La4  1  0.45875171  0.91750342  0.64328764  1
  La  La5  1  0.54010631  0.08021263  0.41351603  1
  La  La6  1  0.79440510  0.20559490  0.71734151  1
  La  La7  1  0.20776560  0.41553119  0.05080717  1
  La  La8  1  0.54010631  0.45989369  0.41351603  1
  La  La9  1  0.45989369  0.91978737  0.91351603  1
  La  La10  1  0.08249658  0.54124829  0.64328764  1
  La  La11  1  0.58493794  0.79246897  0.77977351  1
  La  La12  1  0.91750342  0.45875171  0.14328764  1
  La  La13  1  0.21007879  0.42015757  0.50838488  1
  La  La14  1  0.66666700  0.33333300  0.85355190  1
  La  La15  1  0.45875171  0.54124829  0.64328764  1
  La  La16  1  0.21007879  0.78992121  0.50838488  1
  La  La17  1  0.41118979  0.20559490  0.71734151  1
  La  La18  1  0.78992121  0.57984243  0.00838488  1
  La  La19  1  0.79440510  0.58881021  0.71734151  1
  La  La20  1  0.12759457  0.87240543  0.36559500  1
  La  La21  1  0.20753103  0.79246897  0.77977351  1
  La  La22  1  0.20559490  0.79440510  0.21734151  1
  La  La23  1  0.08021263  0.54010631  0.91351603  1
  La  La24  1  0.20753103  0.41506206  0.77977351  1
  La  La25  1  0.91978737  0.45989369  0.41351603  1
  La  La26  1  0.45989369  0.54010631  0.91351603  1
  La  La27  1  0.79246897  0.20753103  0.27977351  1
  La  La28  1  0.87240543  0.74481087  0.86559500  1
  La  La29  1  0.00000000  0.00000000  0.00048930  1
  La  La30  1  0.78992121  0.21007879  0.00838488  1
  La  La31  1  0.58881021  0.79440510  0.21734151  1
  La  La32  1  0.54124829  0.45875171  0.14328764  1
  La  La33  1  0.00000000  0.00000000  0.50048930  1
  La  La34  1  0.57984243  0.78992121  0.50838488  1
  La  La35  1  0.79223440  0.58446881  0.55080717  1
  La  La36  1  0.58446881  0.79223440  0.05080717  1
  La  La37  1  0.79223440  0.20776560  0.55080717  1
  La  La38  1  0.20776560  0.79223440  0.05080717  1
  La  La39  1  0.20559490  0.41118979  0.21734151  1
  La  La40  1  0.33333300  0.66666700  0.35355190  1
  La  La41  1  0.87240543  0.12759457  0.86559500  1
  La  La42  1  0.12759457  0.25518913  0.36559500  1
  La  La43  1  0.79246897  0.58493794  0.27977351  1
  La  La44  1  0.41506206  0.20753103  0.27977351  1
  La  La45  1  0.54124829  0.08249658  0.14328764  1
  Mg  Mg0  1  0.21175108  0.10587554  0.13653850  1
  Mg  Mg1  1  0.10587554  0.89412446  0.63653850  1
  Mg  Mg2  1  0.00000000  0.00000000  0.24888319  1
  Mg  Mg3  1  0.89412446  0.78824892  0.13653850  1
  Mg  Mg4  1  0.00000000  0.00000000  0.74888319  1
  Mg  Mg5  1  0.10587554  0.21175108  0.63653850  1
  Mg  Mg6  1  0.89412446  0.10587554  0.13653850  1
  Mg  Mg7  1  0.78824892  0.89412446  0.63653850  1
  Rh  Rh0  1  0.47995142  0.95990283  0.28753385  1
  Rh  Rh1  1  0.85655086  0.14344914  0.43659413  1
  Rh  Rh2  1  0.85655086  0.71310171  0.43659413  1
  Rh  Rh3  1  0.66666700  0.33333300  0.63370895  1
  Rh  Rh4  1  0.33333300  0.66666700  0.13370895  1
  Rh  Rh5  1  0.52004858  0.47995142  0.78753385  1
  Rh  Rh6  1  0.14344914  0.85655086  0.93659413  1
  Rh  Rh7  1  0.95990283  0.47995142  0.78753385  1
  Rh  Rh8  1  0.28689829  0.14344914  0.43659413  1
  Rh  Rh9  1  0.52004858  0.04009717  0.78753385  1
  Rh  Rh10  1  0.14344914  0.28689829  0.93659413  1
  Rh  Rh11  1  0.04009717  0.52004858  0.28753385  1
  Rh  Rh12  1  0.47995142  0.52004858  0.28753385  1
  Rh  Rh13  1  0.71310171  0.85655086  0.93659413  1
loop_
_geom_bond_atom_site_label_1
_geom_bond_atom_site_label_2
_geom_bond_distance
_geom_bond_site_symmetry_2
La0 Rh8 2.874511 1_555
La0 Rh3 2.936468 1_555
La0 Mg5 3.754613 1_555
La0 Mg1 3.754613 1_545
La1 Rh2 2.919054 1_555
La1 Rh1 2.919054 1_565
La1 Mg2 3.519454 1_665
La1 Rh0 3.718756 1_555
La1 Rh12 3.718756 1_555
La2 Rh10 2.919054 1_555
La2 Rh6 2.919054 1_545
La2 Mg4 3.519454 1_555
La2 Rh9 3.718756 1_555
La2 Rh5 3.718756 1_555
La3 Mg0 3.489754 1_555
La3 Rh10 3.689856 1_554
La3 Rh6 3.689857 1_544
La4 Mg7 3.501369 1_555
La4 Mg1 3.501369 1_555
La4 Rh9 3.505292 1_565
La4 Rh3 3.692147 1_565
La5 Rh8 3.015852 1_555
La5 Rh1 3.015852 1_555
La5 Rh0 3.099841 1_545
La6 Rh9 2.937136 1_555
La6 Rh7 2.937136 1_555
La6 Rh3 2.976666 1_555
La6 Mg5 3.667328 1_655
La6 Mg7 3.667328 1_545
La6 Mg4 3.716531 1_655
La7 Rh10 2.874511 1_554
La7 Rh4 2.936468 1_555
La7 Mg0 3.754613 1_555
La7 Mg6 3.754613 1_455
La8 Rh2 3.015852 1_555
La8 Rh8 3.015852 1_555
La8 Rh12 3.099840 1_555
La9 Rh13 3.015852 1_555
La9 Rh6 3.015852 1_555
La9 Rh9 3.099841 1_565
La10 Mg5 3.501369 1_555
La10 Mg1 3.501369 1_555
La10 Rh7 3.505292 1_455
La10 Rh3 3.692147 1_455
La11 Rh5 2.928926 1_555
La11 Rh9 2.928927 1_565
La11 Mg4 3.747295 1_665
La11 Mg7 3.768067 1_555
La12 Mg3 3.501369 1_555
La12 Mg6 3.501369 1_555
La12 Rh11 3.505292 1_655
La12 Rh4 3.692147 1_655
La13 Mg5 3.489754 1_555
La13 Rh1 3.689857 1_455
La13 Rh8 3.689857 1_555
La14 Rh7 3.013473 1_555
La14 Rh9 3.013473 1_555
La14 Rh5 3.013481 1_555
La15 Mg5 3.501369 1_555
La15 Mg7 3.501369 1_555
La15 Rh5 3.505292 1_555
La15 Rh3 3.692156 1_555
La16 Mg1 3.489754 1_555
La16 Rh2 3.689856 1_455
La16 Rh8 3.689857 1_565
La17 Rh9 2.937136 1_555
La17 Rh5 2.937136 1_555
La17 Rh3 2.976672 1_555
La17 Mg5 3.667328 1_555
La17 Mg1 3.667328 1_545
La17 Mg4 3.716531 1_555
La18 Mg3 3.489754 1_555
La18 Rh6 3.689857 1_654
La18 Rh13 3.689857 1_554
La19 Rh5 2.937136 1_555
La19 Rh7 2.937136 1_555
La19 Rh3 2.976672 1_555
La19 Mg7 3.667328 1_555
La19 Mg1 3.667328 1_655
La19 Mg4 3.716531 1_665
La20 Rh2 2.919054 1_455
La20 Rh8 2.919054 1_565
La20 Mg2 3.519454 1_565
La20 Rh0 3.718756 1_555
La20 Rh11 3.718756 1_555
La21 Rh9 2.928926 1_565
La21 Rh7 2.928926 1_455
La21 Mg4 3.747295 1_565
La21 Mg1 3.768067 1_555
La22 Rh0 2.937136 1_555
La22 Rh11 2.937136 1_555
La22 Rh4 2.976666 1_555
La22 Mg3 3.667328 1_455
La22 Mg0 3.667328 1_565
La22 Mg2 3.716531 1_565
La23 Rh10 3.015852 1_555
La23 Rh6 3.015852 1_555
La23 Rh7 3.099840 1_455
La24 Rh5 2.928926 1_555
La24 Rh7 2.928927 1_455
La24 Mg4 3.747295 1_555
La24 Mg5 3.768067 1_555
La25 Rh2 3.015852 1_555
La25 Rh1 3.015852 1_555
La25 Rh11 3.099840 1_655
La26 Rh10 3.015852 1_555
La26 Rh13 3.015852 1_555
La26 Rh5 3.099840 1_555
La27 Rh0 2.928926 1_545
La27 Rh11 2.928926 1_655
La27 Mg2 3.747295 1_655
La27 Mg6 3.768067 1_555
La28 Rh6 2.919054 1_655
La28 Rh13 2.919054 1_555
La28 Mg4 3.519454 1_665
La28 Rh7 3.718756 1_555
La28 Rh5 3.718756 1_555
La29 Rh6 2.940238 1_544
La29 Rh13 2.940238 1_444
La29 Rh10 2.940238 1_554
La29 Mg6 3.660911 1_455
La29 Mg0 3.660911 1_555
La29 Mg3 3.660911 1_445
La30 Mg6 3.489754 1_555
La30 Rh10 3.689856 1_654
La30 Rh13 3.689857 1_544
La31 Rh0 2.937136 1_555
La31 Rh12 2.937136 1_555
La31 Rh4 2.976672 1_555
La31 Mg3 3.667328 1_555
La31 Mg6 3.667328 1_565
La31 Mg2 3.716531 1_665
La32 Mg3 3.501369 1_555
La32 Mg0 3.501369 1_555
La32 Rh12 3.505292 1_555
La32 Rh4 3.692156 1_555
La33 Rh1 2.940238 1_455
La33 Rh8 2.940238 1_555
La33 Rh2 2.940238 1_445
La33 Mg7 3.660911 1_445
La33 Mg1 3.660911 1_545
La33 Mg5 3.660911 1_555
La34 Mg7 3.489754 1_555
La34 Rh2 3.689856 1_555
La34 Rh1 3.689857 1_565
La35 Rh2 2.874511 1_555
La35 Rh3 2.936468 1_555
La35 Mg7 3.754613 1_555
La35 Mg1 3.754613 1_655
La36 Rh13 2.874511 1_554
La36 Rh4 2.936468 1_555
La36 Mg3 3.754613 1_555
La36 Mg6 3.754613 1_565
La37 Rh1 2.874511 1_555
La37 Rh3 2.936461 1_555
La37 Mg5 3.754613 1_655
La37 Mg7 3.754613 1_545
La38 Rh6 2.874511 1_554
La38 Rh4 2.936461 1_555
La38 Mg3 3.754613 1_455
La38 Mg0 3.754613 1_565
La39 Rh12 2.937136 1_555
La39 Rh11 2.937136 1_555
La39 Rh4 2.976672 1_555
La39 Mg0 3.667328 1_555
La39 Mg6 3.667328 1_455
La39 Mg2 3.716531 1_555
La40 Rh11 3.013473 1_555
La40 Rh0 3.013473 1_555
La40 Rh12 3.013481 1_555
La41 Rh10 2.919054 1_655
La41 Rh13 2.919054 1_545
La41 Mg4 3.519454 1_655
La41 Rh9 3.718756 1_555
La41 Rh7 3.718756 1_555
La42 Rh1 2.919054 1_455
La42 Rh8 2.919054 1_555
La42 Mg2 3.519454 1_555
La42 Rh11 3.718756 1_555
La42 Rh12 3.718756 1_555
La43 Rh12 2.928926 1_555
La43 Rh11 2.928927 1_655
La43 Mg2 3.747295 1_665
La43 Mg3 3.768067 1_555
La44 Rh12 2.928926 1_555
La44 Rh0 2.928927 1_545
La44 Mg2 3.747295 1_555
La44 Mg0 3.768067 1_555
La45 Mg0 3.501369 1_555
La45 Mg6 3.501369 1_555
La45 Rh0 3.505292 1_545
La45 Rh4 3.692147 1_545
Mg0 Mg2 3.203015 1_555
Mg0 Mg6 3.250636 1_455
Mg0 Mg3 3.250636 1_445
Mg1 Mg4 3.203015 1_565
Mg1 Mg7 3.250636 1_455
Mg1 Mg5 3.250636 1_565
Mg2 Mg6 3.203015 1_455
Mg2 Mg3 3.203015 1_445
Mg3 Mg6 3.250636 1_565
Mg4 Mg7 3.203015 1_445
Mg4 Mg5 3.203015 1_555
Mg5 Mg7 3.250636 1_445
