# generated using pymatgen
data_Sn5(PO5)2
_symmetry_space_group_name_H-M   'P 1'
_cell_length_a   7.17069622
_cell_length_b   7.20119573
_cell_length_c   12.91842998
_cell_angle_alpha   87.99968882
_cell_angle_beta   85.96215396
_cell_angle_gamma   61.70489598
_symmetry_Int_Tables_number   1
_chemical_formula_structural   Sn5(PO5)2
_chemical_formula_sum   'Sn10 P4 O20'
_cell_volume   585.91393036
_cell_formula_units_Z   2
loop_
 _symmetry_equiv_pos_site_id
 _symmetry_equiv_pos_as_xyz
  1  'x, y, z'
loop_
 _atom_site_type_symbol
 _atom_site_label
 _atom_site_symmetry_multiplicity
 _atom_site_fract_x
 _atom_site_fract_y
 _atom_site_fract_z
 _atom_site_occupancy
  Sn  Sn0  1  0.99228132  0.69700841  0.16472464  1
  Sn  Sn1  1  0.43923025  0.77965707  0.14324748  1
  Sn  Sn2  1  0.67019081  0.31173232  0.37657818  1
  Sn  Sn3  1  0.00771868  0.30299159  0.83527536  1
  Sn  Sn4  1  0.93453671  0.23805446  0.12962925  1
  Sn  Sn5  1  0.56076975  0.22034293  0.85675252  1
  Sn  Sn6  1  0.19743532  0.19646943  0.37902764  1
  Sn  Sn7  1  0.32980919  0.68826768  0.62342182  1
  Sn  Sn8  1  0.06546329  0.76194554  0.87037075  1
  Sn  Sn9  1  0.80256468  0.80353057  0.62097236  1
  P  P0  1  0.94027209  0.19608924  0.60511791  1
  P  P1  1  0.05972791  0.80391076  0.39488209  1
  P  P2  1  0.47250645  0.24025969  0.12238656  1
  P  P3  1  0.52749355  0.75974031  0.87761344  1
  O  O0  1  0.08057646  0.70888463  0.50634809  1
  O  O1  1  0.10890084  0.91182819  0.14838357  1
  O  O2  1  0.68700946  0.52455119  0.88730572  1
  O  O3  1  0.31299054  0.47544881  0.11269428  1
  O  O4  1  0.22239123  0.88436742  0.37693058  1
  O  O5  1  0.77760877  0.11563258  0.62306942  1
  O  O6  1  0.10563539  0.62810066  0.31715857  1
  O  O7  1  0.35296408  0.78728825  0.80478260  1
  O  O8  1  0.64703592  0.21271175  0.19521740  1
  O  O9  1  0.17025909  0.02274892  0.61304717  1
  O  O10  1  0.58696882  0.14957792  0.01755100  1
  O  O11  1  0.35399391  0.11998264  0.16665056  1
  O  O12  1  0.82974091  0.97725108  0.38695283  1
  O  O13  1  0.93526831  0.29721557  0.28680336  1
  O  O14  1  0.64600609  0.88001736  0.83334944  1
  O  O15  1  0.06473169  0.70278443  0.71319664  1
  O  O16  1  0.89436461  0.37189934  0.68284143  1
  O  O17  1  0.41303118  0.85042208  0.98244900  1
  O  O18  1  0.89109916  0.08817181  0.85161643  1
  O  O19  1  0.91942354  0.29111537  0.49365191  1
loop_
_geom_bond_atom_site_label_1
_geom_bond_atom_site_label_2
_geom_bond_distance
_geom_bond_site_symmetry_2
O0 P1 1.558417 1_555
O0 Sn9 2.235623 1_455
O0 Sn7 2.369988 1_555
O1 Sn0 2.077424 1_455
O1 Sn4 2.087856 1_465
O1 Sn1 2.089488 1_555
O2 P3 1.536642 1_555
O2 Sn3 2.159804 1_655
O3 P2 1.536642 1_555
O3 Sn0 2.159804 1_455
O4 P1 1.530744 1_555
O4 Sn6 2.169407 1_565
O5 P0 1.530744 1_555
O5 Sn9 2.169407 1_545
O6 P1 1.538332 1_555
O6 Sn0 2.135304 1_455
O7 P3 1.551853 1_555
O7 Sn8 2.258587 1_555
O7 Sn7 2.511742 1_555
O8 P2 1.551853 1_555
O8 Sn4 2.258587 1_555
O8 Sn2 2.511742 1_555
O9 P0 1.533513 1_455
O9 Sn7 2.124883 1_545
O10 P2 1.526870 1_555
O10 Sn5 2.121392 1_554
O11 P2 1.547307 1_555
O11 Sn1 2.253176 1_545
O12 P1 1.533513 1_655
O12 Sn2 2.124883 1_565
O13 Sn4 2.090032 1_555
O13 Sn6 2.107595 1_655
O13 Sn2 2.116267 1_555
O14 P3 1.547307 1_555
O14 Sn5 2.253176 1_565
O15 Sn8 2.090032 1_555
O15 Sn9 2.107595 1_455
O15 Sn7 2.116267 1_555
O16 P0 1.538332 1_555
O16 Sn3 2.135304 1_655
O17 P3 1.526870 1_555
O17 Sn1 2.121392 1_556
O18 Sn3 2.077424 1_655
O18 Sn8 2.087856 1_645
O18 Sn5 2.089488 1_555
O19 P0 1.558417 1_555
O19 Sn6 2.235623 1_655
O19 Sn2 2.369988 1_555
