# generated using pymatgen
data_Li3Sc(BO3)2
_symmetry_space_group_name_H-M   'P 1'
_cell_length_a   6.00037400
_cell_length_b   4.82328700
_cell_length_c   9.50381059
_cell_angle_alpha   60.17101396
_cell_angle_beta   90.00000000
_cell_angle_gamma   90.00000000
_symmetry_Int_Tables_number   1
_chemical_formula_structural   Li3Sc(BO3)2
_chemical_formula_sum   'Li6 Sc2 B4 O12'
_cell_volume   238.61385137
_cell_formula_units_Z   2
loop_
 _symmetry_equiv_pos_site_id
 _symmetry_equiv_pos_as_xyz
  1  'x, y, z'
loop_
 _atom_site_type_symbol
 _atom_site_label
 _atom_site_symmetry_multiplicity
 _atom_site_fract_x
 _atom_site_fract_y
 _atom_site_fract_z
 _atom_site_occupancy
  Li  Li0  1  0.25036700  0.68724000  0.79722100  1
  Li  Li1  1  0.24963300  0.68724000  0.29722100  1
  Li  Li2  1  0.75036700  0.31276000  0.70277900  1
  Li  Li3  1  0.74963300  0.31276000  0.20277900  1
  Li  Li4  1  0.50000000  0.00000000  0.00000000  1
  Li  Li5  1  0.00000000  0.00000000  0.50000000  1
  Sc  Sc0  1  0.50000000  0.00000000  0.50000000  1
  Sc  Sc1  1  0.00000000  0.00000000  0.00000000  1
  B  B0  1  0.80498100  0.61037000  0.37470900  1
  B  B1  1  0.30498100  0.38963000  0.12529100  1
  B  B2  1  0.19501900  0.38963000  0.62529100  1
  B  B3  1  0.69501900  0.61037000  0.87470900  1
  O  O0  1  0.58647700  0.63331900  0.73988900  1
  O  O1  1  0.91352300  0.63331900  0.23988900  1
  O  O2  1  0.25329100  0.69150800  0.49900600  1
  O  O3  1  0.75329100  0.30849200  0.00099400  1
  O  O4  1  0.23770100  0.12412200  0.60996500  1
  O  O5  1  0.41352300  0.36668100  0.26011100  1
  O  O6  1  0.74670900  0.30849200  0.50099400  1
  O  O7  1  0.24670900  0.69150800  0.99900600  1
  O  O8  1  0.08647700  0.36668100  0.76011100  1
  O  O9  1  0.26229900  0.12412200  0.10996500  1
  O  O10  1  0.73770100  0.87587800  0.89003500  1
  O  O11  1  0.76229900  0.87587800  0.39003500  1
loop_
_geom_bond_atom_site_label_1
_geom_bond_atom_site_label_2
_geom_bond_distance
_geom_bond_site_symmetry_2
Li0 O7 1.928174 1_555
Li0 O4 1.970421 1_565
Li0 O8 2.006122 1_555
Li0 O0 2.138440 1_555
Li1 O2 1.928174 1_555
Li1 O9 1.970421 1_565
Li1 O5 2.006122 1_555
Li1 O1 2.138440 1_455
Li2 O6 1.928174 1_555
Li2 O10 1.970421 1_545
Li2 O0 2.006122 1_555
Li2 O8 2.138440 1_655
Li3 O3 1.928174 1_555
Li3 O11 1.970421 1_545
Li3 O1 2.006122 1_555
Li3 O5 2.138440 1_555
Li4 O10 2.026664 1_544
Li4 O9 2.026664 1_555
Li4 O7 2.130251 1_544
Li4 O3 2.130251 1_555
Li5 O4 2.026664 1_555
Li5 O11 2.026664 1_445
Li5 O2 2.130251 1_545
Li5 O6 2.130251 1_455
B0 O11 1.382882 1_555
B0 O1 1.391790 1_555
B0 O6 1.394378 1_555
B1 O9 1.382882 1_555
B1 O5 1.391790 1_555
B1 O7 1.394378 1_554
B2 O4 1.382882 1_555
B2 O8 1.391790 1_555
B2 O2 1.394378 1_555
B3 O10 1.382882 1_555
B3 O0 1.391790 1_555
B3 O3 1.394378 1_556
O0 Sc0 2.140951 1_565
O1 Sc1 2.140951 1_665
O2 Sc0 2.102256 1_565
O3 Sc1 2.102256 1_655
O4 Sc0 2.133117 1_555
O5 Sc0 2.140951 1_555
O6 Sc0 2.102256 1_555
O7 Sc1 2.102256 1_566
O8 Sc1 2.140951 1_556
O9 Sc1 2.133117 1_555
O10 Sc1 2.133117 1_666
O11 Sc0 2.133117 1_565
