# generated using pymatgen
data_FeP4
_symmetry_space_group_name_H-M   'P 1'
_cell_length_a   5.03563934
_cell_length_b   5.76039566
_cell_length_c   11.04892311
_cell_angle_alpha   89.47422923
_cell_angle_beta   88.79703172
_cell_angle_gamma   64.08156064
_symmetry_Int_Tables_number   1
_chemical_formula_structural   FeP4
_chemical_formula_sum   'Fe4 P16'
_cell_volume   288.19890159
_cell_formula_units_Z   4
loop_
 _symmetry_equiv_pos_site_id
 _symmetry_equiv_pos_as_xyz
  1  'x, y, z'
loop_
 _atom_site_type_symbol
 _atom_site_label
 _atom_site_symmetry_multiplicity
 _atom_site_fract_x
 _atom_site_fract_y
 _atom_site_fract_z
 _atom_site_occupancy
  Fe  Fe0  1  0.92446809  0.15106482  0.75000000  1
  Fe  Fe1  1  0.07553191  0.84893518  0.25000000  1
  Fe  Fe2  1  -0.00000000  0.50000000  0.50000000  1
  Fe  Fe3  1  0.50000000  0.50000000  0.00000000  1
  P  P0  1  0.45772013  0.20616100  0.47588064  1
  P  P1  1  0.66388113  0.79383900  0.97588064  1
  P  P2  1  0.13244056  0.81431215  0.45025497  1
  P  P3  1  0.05324529  0.81431215  0.04974503  1
  P  P4  1  0.54227987  0.79383900  0.52411936  1
  P  P5  1  0.62804257  0.14532342  0.28394919  1
  P  P6  1  0.77336599  0.85467658  0.78394919  1
  P  P7  1  0.94675471  0.18568785  0.95025497  1
  P  P8  1  0.46852269  0.46450311  0.79240384  1
  P  P9  1  0.37195743  0.85467658  0.71605081  1
  P  P10  1  0.33611887  0.20616100  0.02411936  1
  P  P11  1  0.22663401  0.14532342  0.21605081  1
  P  P12  1  0.93302580  0.53549689  0.29240384  1
  P  P13  1  0.86755944  0.18568785  0.54974503  1
  P  P14  1  0.06697420  0.46450311  0.70759616  1
  P  P15  1  0.53147731  0.53549689  0.20759616  1
loop_
_geom_bond_atom_site_label_1
_geom_bond_atom_site_label_2
_geom_bond_distance
_geom_bond_site_symmetry_2
Fe0 P9 2.178640 1_645
Fe0 P6 2.178643 1_545
Fe0 P13 2.232951 1_555
Fe0 P7 2.232951 1_555
Fe0 P14 2.257744 1_655
Fe0 P8 2.257748 1_555
Fe1 P5 2.178640 1_465
Fe1 P11 2.178643 1_565
Fe1 P2 2.232951 1_555
Fe1 P3 2.232951 1_555
Fe1 P12 2.257744 1_455
Fe1 P15 2.257748 1_555
Fe2 P0 2.195591 1_555
Fe2 P4 2.195591 1_455
Fe2 P13 2.246540 1_455
Fe2 P2 2.246540 1_555
Fe2 P12 2.319540 1_455
Fe2 P14 2.319540 1_555
Fe3 P10 2.195591 1_555
Fe3 P1 2.195591 1_554
Fe3 P7 2.246546 1_554
Fe3 P3 2.246546 1_555
Fe3 P15 2.319540 1_555
Fe3 P8 2.319540 1_554
P0 P13 2.189848 1_555
P0 P5 2.242776 1_555
P0 P4 2.282291 1_545
P1 P3 2.189838 1_656
P1 P6 2.242776 1_555
P1 P10 2.282291 1_566
P2 P4 2.189848 1_555
P3 P7 2.247478 1_464
P4 P9 2.242776 1_555
P6 P9 2.170790 1_555
P8 P9 2.242023 1_555
P10 P7 2.189838 1_454
P10 P11 2.242776 1_555
P11 P5 2.170790 1_555
P11 P12 2.242023 1_455
P12 P15 2.246395 1_555
P13 P2 2.247475 1_645
P14 P6 2.242023 1_455
P14 P8 2.246395 1_555
P15 P5 2.242023 1_555
