# generated using pymatgen
data_SeN
_symmetry_space_group_name_H-M   'P 1'
_cell_length_a   7.27940159
_cell_length_b   7.27940159
_cell_length_c   6.79726213
_cell_angle_alpha   80.20975342
_cell_angle_beta   80.20975342
_cell_angle_gamma   90.15524688
_symmetry_Int_Tables_number   1
_chemical_formula_structural   SeN
_chemical_formula_sum   'Se8 N8'
_cell_volume   349.58482618
_cell_formula_units_Z   8
loop_
 _symmetry_equiv_pos_site_id
 _symmetry_equiv_pos_as_xyz
  1  'x, y, z'
loop_
 _atom_site_type_symbol
 _atom_site_label
 _atom_site_symmetry_multiplicity
 _atom_site_fract_x
 _atom_site_fract_y
 _atom_site_fract_z
 _atom_site_occupancy
  Se  Se0  1  0.76281700  0.36192500  0.42845400  1
  Se  Se1  1  0.23461000  0.02412200  0.58848100  1
  Se  Se2  1  0.36192500  0.76281700  0.92845400  1
  Se  Se3  1  0.76539000  0.97587800  0.41151900  1
  Se  Se4  1  0.23718300  0.63807500  0.57154600  1
  Se  Se5  1  0.02412200  0.23461000  0.08848100  1
  Se  Se6  1  0.63807500  0.23718300  0.07154600  1
  Se  Se7  1  0.97587800  0.76539000  0.91151900  1
  N  N0  1  0.39656400  0.60343600  0.75000000  1
  N  N1  1  0.00985700  0.60798800  0.72995900  1
  N  N2  1  0.99212300  0.00787600  0.25000000  1
  N  N3  1  0.00787600  0.99212400  0.75000000  1
  N  N4  1  0.60343600  0.39656400  0.25000000  1
  N  N5  1  0.39201200  0.99014300  0.77004100  1
  N  N6  1  0.60798800  0.00985700  0.22995900  1
  N  N7  1  0.99014300  0.39201200  0.27004100  1
loop_
_geom_bond_atom_site_label_1
_geom_bond_atom_site_label_2
_geom_bond_distance
_geom_bond_site_symmetry_2
N0 Se2 1.804766 1_555
N0 Se4 1.804766 1_555
N1 Se4 1.804889 1_555
N1 Se7 1.809880 1_455
N2 Se3 1.810635 1_545
N2 Se5 1.810641 1_655
N3 Se7 1.810641 1_455
N3 Se1 1.810641 1_565
N4 Se0 1.804766 1_555
N4 Se6 1.804766 1_555
N5 Se2 1.804889 1_555
N5 Se1 1.809880 1_565
N6 Se6 1.804889 1_555
N6 Se3 1.809880 1_545
N7 Se0 1.804889 1_555
N7 Se5 1.809880 1_655
