# generated using pymatgen
data_Dy2Te
_symmetry_space_group_name_H-M   'P 1'
_cell_length_a   4.07344325
_cell_length_b   11.50544600
_cell_length_c   22.07935922
_cell_angle_alpha   90.00000000
_cell_angle_beta   90.00000000
_cell_angle_gamma   90.00000000
_symmetry_Int_Tables_number   1
_chemical_formula_structural   Dy2Te
_chemical_formula_sum   'Dy24 Te12'
_cell_volume   1034.78850084
_cell_formula_units_Z   12
loop_
 _symmetry_equiv_pos_site_id
 _symmetry_equiv_pos_as_xyz
  1  'x, y, z'
loop_
 _atom_site_type_symbol
 _atom_site_label
 _atom_site_symmetry_multiplicity
 _atom_site_fract_x
 _atom_site_fract_y
 _atom_site_fract_z
 _atom_site_occupancy
  Dy  Dy0  1  0.25000000  0.14880439  0.39124668  1
  Dy  Dy1  1  0.75000000  0.85119561  0.60875332  1
  Dy  Dy2  1  0.75000000  0.64880439  0.10875332  1
  Dy  Dy3  1  0.25000000  0.35119561  0.89124668  1
  Dy  Dy4  1  0.25000000  0.45272995  0.33999012  1
  Dy  Dy5  1  0.75000000  0.54727005  0.66000988  1
  Dy  Dy6  1  0.75000000  0.95272995  0.16000988  1
  Dy  Dy7  1  0.25000000  0.04727005  0.83999012  1
  Dy  Dy8  1  0.25000000  0.72921237  0.23301959  1
  Dy  Dy9  1  0.75000000  0.27078763  0.76698041  1
  Dy  Dy10  1  0.75000000  0.22921237  0.26698041  1
  Dy  Dy11  1  0.25000000  0.77078763  0.73301959  1
  Dy  Dy12  1  0.25000000  0.11433421  0.03389548  1
  Dy  Dy13  1  0.75000000  0.88566579  0.96610452  1
  Dy  Dy14  1  0.75000000  0.61433421  0.46610452  1
  Dy  Dy15  1  0.25000000  0.38566579  0.53389548  1
  Dy  Dy16  1  0.25000000  0.41271274  0.14578299  1
  Dy  Dy17  1  0.75000000  0.58728726  0.85421701  1
  Dy  Dy18  1  0.75000000  0.91271274  0.35421701  1
  Dy  Dy19  1  0.25000000  0.08728726  0.64578299  1
  Dy  Dy20  1  0.25000000  0.61265578  0.98313724  1
  Dy  Dy21  1  0.75000000  0.38734422  0.01686276  1
  Dy  Dy22  1  0.75000000  0.11265578  0.51686276  1
  Dy  Dy23  1  0.25000000  0.88734422  0.48313724  1
  Te  Te0  1  0.25000000  0.84935747  0.06912253  1
  Te  Te1  1  0.75000000  0.15064253  0.93087747  1
  Te  Te2  1  0.75000000  0.34935747  0.43087747  1
  Te  Te3  1  0.25000000  0.65064253  0.56912253  1
  Te  Te4  1  0.25000000  0.70933574  0.37287283  1
  Te  Te5  1  0.75000000  0.29066426  0.62712717  1
  Te  Te6  1  0.75000000  0.20933574  0.12712717  1
  Te  Te7  1  0.25000000  0.79066426  0.87287283  1
  Te  Te8  1  0.25000000  0.01529266  0.26116714  1
  Te  Te9  1  0.75000000  0.98470734  0.73883286  1
  Te  Te10  1  0.75000000  0.51529266  0.23883286  1
  Te  Te11  1  0.25000000  0.48470734  0.76116714  1
loop_
_geom_bond_atom_site_label_1
_geom_bond_atom_site_label_2
_geom_bond_distance
_geom_bond_site_symmetry_2
Dy0 Te2 3.199725 1_555
Dy0 Te2 3.199725 1_455
Dy0 Te8 3.257060 1_555
Dy1 Te3 3.199725 1_555
Dy1 Te3 3.199725 1_655
Dy1 Te9 3.257060 1_555
Dy2 Te0 3.199725 1_555
Dy2 Te0 3.199725 1_655
Dy2 Te10 3.257060 1_555
Dy3 Te1 3.199725 1_455
Dy3 Te1 3.199725 1_555
Dy3 Te11 3.257060 1_555
Dy4 Te4 3.040324 1_555
Dy4 Te2 3.096734 1_455
Dy4 Te2 3.096734 1_555
Dy4 Te10 3.107222 1_455
Dy4 Te10 3.107222 1_555
Dy5 Te5 3.040324 1_555
Dy5 Te3 3.096734 1_555
Dy5 Te3 3.096734 1_655
Dy5 Te11 3.107222 1_655
Dy5 Te11 3.107222 1_555
Dy6 Te6 3.040324 1_565
Dy6 Te0 3.096734 1_555
Dy6 Te0 3.096734 1_655
Dy6 Te8 3.107222 1_565
Dy6 Te8 3.107222 1_665
Dy7 Te7 3.040324 1_545
Dy7 Te1 3.096734 1_555
Dy7 Te1 3.096734 1_455
Dy7 Te9 3.107222 1_445
Dy7 Te9 3.107222 1_545
Dy8 Te4 3.096327 1_555
Dy8 Te10 3.197252 1_555
Dy8 Te10 3.197252 1_455
Dy8 Te8 3.349640 1_565
Dy9 Te5 3.096327 1_555
Dy9 Te11 3.197252 1_655
Dy9 Te11 3.197252 1_555
Dy9 Te9 3.349640 1_545
Dy10 Te6 3.096327 1_555
Dy10 Te8 3.197252 1_555
Dy10 Te8 3.197252 1_655
Dy10 Te10 3.349640 1_555
Dy11 Te7 3.096327 1_555
Dy11 Te9 3.197252 1_555
Dy11 Te9 3.197252 1_455
Dy11 Te11 3.349640 1_555
Dy12 Te1 3.081626 1_554
Dy12 Te1 3.081626 1_454
Dy12 Te6 3.095217 1_555
Dy12 Te6 3.095217 1_455
Dy12 Te0 3.146328 1_545
Dy13 Te0 3.081626 1_656
Dy13 Te0 3.081626 1_556
Dy13 Te7 3.095217 1_555
Dy13 Te7 3.095217 1_655
Dy13 Te1 3.146328 1_565
Dy14 Te3 3.081626 1_555
Dy14 Te3 3.081626 1_655
Dy14 Te4 3.095217 1_555
Dy14 Te4 3.095217 1_655
Dy14 Te2 3.146328 1_555
Dy15 Te2 3.081626 1_455
Dy15 Te2 3.081626 1_555
Dy15 Te5 3.095217 1_455
Dy15 Te5 3.095217 1_555
Dy15 Te3 3.146328 1_555
Dy16 Te10 3.124431 1_455
Dy16 Te10 3.124431 1_555
Dy16 Te6 3.129415 1_555
Dy16 Te6 3.129415 1_455
Dy17 Te11 3.124431 1_555
Dy17 Te11 3.124431 1_655
Dy17 Te7 3.129415 1_655
Dy17 Te7 3.129415 1_555
Dy18 Te8 3.124431 1_665
Dy18 Te8 3.124431 1_565
Dy18 Te4 3.129415 1_655
Dy18 Te4 3.129415 1_555
Dy19 Te9 3.124431 1_545
Dy19 Te9 3.124431 1_445
Dy19 Te5 3.129415 1_555
Dy19 Te5 3.129415 1_455
Dy20 Te7 3.181461 1_555
Dy20 Te0 3.319787 1_556
Dy21 Te6 3.181461 1_555
Dy21 Te1 3.319787 1_554
Dy22 Te5 3.181461 1_555
Dy22 Te2 3.319787 1_555
Dy23 Te4 3.181461 1_555
Dy23 Te3 3.319787 1_555
