# generated using pymatgen
data_BaWO4
_symmetry_space_group_name_H-M   'P 1'
_cell_length_a   7.75974347
_cell_length_b   7.75974347
_cell_length_c   6.05210500
_cell_angle_alpha   90.00000000
_cell_angle_beta   90.00000000
_cell_angle_gamma   150.01885619
_symmetry_Int_Tables_number   1
_chemical_formula_structural   BaWO4
_chemical_formula_sum   'Ba2 W2 O8'
_cell_volume   182.10569797
_cell_formula_units_Z   2
loop_
 _symmetry_equiv_pos_site_id
 _symmetry_equiv_pos_as_xyz
  1  'x, y, z'
loop_
 _atom_site_type_symbol
 _atom_site_label
 _atom_site_symmetry_multiplicity
 _atom_site_fract_x
 _atom_site_fract_y
 _atom_site_fract_z
 _atom_site_occupancy
  Ba  Ba0  1  0.15188900  0.84811100  0.25000000  1
  Ba  Ba1  1  0.84811100  0.15188900  0.75000000  1
  W  W0  1  0.40956300  0.59043700  0.25000000  1
  W  W1  1  0.59043700  0.40956300  0.75000000  1
  O  O0  1  0.50000000  0.50000000  0.50000000  1
  O  O1  1  0.67763400  0.32236600  0.96618500  1
  O  O2  1  0.07949800  0.92050200  0.75000000  1
  O  O3  1  0.92050200  0.07949800  0.25000000  1
  O  O4  1  0.67763400  0.32236600  0.53381500  1
  O  O5  1  0.32236600  0.67763400  0.03381500  1
  O  O6  1  0.32236600  0.67763400  0.46618500  1
  O  O7  1  0.50000000  0.50000000  0.00000000  1
loop_
_geom_bond_atom_site_label_1
_geom_bond_atom_site_label_2
_geom_bond_distance
_geom_bond_site_symmetry_2
Ba0 O4 2.669826 1_455
Ba0 O1 2.669826 1_564
Ba0 O1 2.669826 1_454
Ba0 O4 2.669826 1_565
Ba0 O5 2.871120 1_555
Ba0 O6 2.871120 1_555
Ba1 O5 2.669826 1_656
Ba1 O5 2.669826 1_546
Ba1 O6 2.669826 1_545
Ba1 O6 2.669826 1_655
Ba1 O4 2.871120 1_555
Ba1 O1 2.871120 1_555
O0 W1 2.031592 1_555
O0 W0 2.031592 1_555
O1 W1 1.849490 1_555
O2 W1 2.013824 1_455
O2 W1 2.013824 1_565
O3 W0 2.013824 1_545
O3 W0 2.013824 1_655
O4 W1 1.849490 1_555
O5 W0 1.849490 1_555
O6 W0 1.849490 1_555
O7 W1 2.031592 1_554
O7 W0 2.031592 1_555
