# generated using pymatgen
data_Ti6Sn5
_symmetry_space_group_name_H-M   'P 1'
_cell_length_a   5.70279845
_cell_length_b   9.08892111
_cell_length_c   9.88492968
_cell_angle_alpha   117.37040881
_cell_angle_beta   106.76513650
_cell_angle_gamma   89.99782092
_symmetry_Int_Tables_number   1
_chemical_formula_structural   Ti6Sn5
_chemical_formula_sum   'Ti12 Sn10'
_cell_volume   430.33390966
_cell_formula_units_Z   2
loop_
 _symmetry_equiv_pos_site_id
 _symmetry_equiv_pos_as_xyz
  1  'x, y, z'
loop_
 _atom_site_type_symbol
 _atom_site_label
 _atom_site_symmetry_multiplicity
 _atom_site_fract_x
 _atom_site_fract_y
 _atom_site_fract_z
 _atom_site_occupancy
  Ti  Ti0  1  0.15716571  0.15723551  0.31447975  1
  Ti  Ti1  1  0.41343985  0.68530187  0.82676786  1
  Ti  Ti2  1  0.58657212  0.85860117  0.17329132  1
  Ti  Ti3  1  0.84283429  0.84276449  0.68552025  1
  Ti  Ti4  1  0.26556303  0.50000463  -0.00001425  1
  Ti  Ti5  1  0.50000000  0.00000000  0.50000000  1
  Ti  Ti6  1  0.73443697  0.49999537  1.00001425  1
  Ti  Ti7  1  0.58656015  0.31469813  0.17323214  1
  Ti  Ti8  1  0.41342788  0.14139883  0.82670868  1
  Ti  Ti9  1  0.50000000  0.50000000  0.50000000  1
  Ti  Ti10  1  0.00000000  0.50000000  0.50000000  1
  Ti  Ti11  1  0.00000000  0.00000000  0.50000000  1
  Sn  Sn0  1  0.10473735  0.41189106  0.20962006  1
  Sn  Sn1  1  0.29261197  0.79256047  0.58520590  1
  Sn  Sn2  1  0.33061801  0.33048036  0.66097826  1
  Sn  Sn3  1  0.10472924  0.79771707  0.20961991  1
  Sn  Sn4  1  0.70738803  0.20743953  0.41479410  1
  Sn  Sn5  1  0.24564516  0.99996793  0.99991889  1
  Sn  Sn6  1  0.66938199  0.66951964  0.33902174  1
  Sn  Sn7  1  0.89526265  0.58810894  0.79037994  1
  Sn  Sn8  1  0.89527076  0.20228293  0.79038009  1
  Sn  Sn9  1  0.75435484  0.00003207  0.00008111  1
loop_
_geom_bond_atom_site_label_1
_geom_bond_atom_site_label_2
_geom_bond_distance
_geom_bond_site_symmetry_2
Ti0 Ti10 3.093010 1_555
Ti0 Ti11 3.093015 1_555
Ti0 Ti5 3.093372 1_555
Ti0 Ti9 3.093526 1_555
Ti1 Ti2 2.876987 1_556
Ti1 Ti9 3.071045 1_555
Ti1 Ti10 3.071431 1_555
Ti1 Ti6 3.156538 1_555
Ti1 Ti4 3.156573 1_556
Ti2 Ti5 3.070591 1_565
Ti2 Ti4 3.156915 1_555
Ti2 Ti6 3.157210 1_554
Ti3 Ti5 3.093372 1_565
Ti3 Ti9 3.093526 1_555
Ti4 Ti6 2.673812 1_554
Ti4 Ti6 3.028986 1_454
Ti4 Ti7 3.156538 1_555
Ti4 Ti8 3.157210 1_554
Ti5 Ti8 3.070591 1_555
Ti6 Ti7 3.156573 1_556
Ti6 Ti8 3.156915 1_555
Ti7 Ti8 2.876987 1_554
Ti7 Ti9 3.071045 1_555
Ti10 Ti9 2.851399 1_455
Ti10 Ti9 2.851399 1_555
Ti10 Ti7 3.071431 1_455
Ti10 Ti3 3.093010 1_455
Ti11 Ti5 2.851399 1_555
Ti11 Ti5 2.851399 1_455
Ti11 Ti2 3.071056 1_445
Ti11 Ti8 3.071056 1_555
Ti11 Ti3 3.093015 1_445
Sn0 Ti10 2.848272 1_555
Sn0 Ti9 2.848746 1_555
Sn0 Ti6 2.897398 1_454
Sn0 Ti4 2.898112 1_555
Sn0 Ti0 2.923695 1_555
Sn0 Ti7 2.955835 1_455
Sn0 Ti7 2.955948 1_555
Sn1 Ti9 2.773787 1_555
Sn1 Ti10 2.773953 1_555
Sn1 Ti11 2.774488 1_565
Sn1 Ti5 2.774500 1_565
Sn1 Ti8 2.884081 1_565
Sn1 Ti1 2.884092 1_555
Sn1 Ti3 2.970160 1_455
Sn1 Ti3 2.970925 1_555
Sn2 Ti8 2.828877 1_555
Sn2 Ti1 2.828974 1_555
Sn2 Ti0 2.876780 1_555
Sn2 Ti5 2.996519 1_555
Sn2 Ti9 2.996707 1_555
Sn2 Ti11 2.997342 1_555
Sn2 Ti10 2.997366 1_555
Sn2 Ti6 3.115899 1_555
Sn2 Ti4 3.116237 1_556
Sn3 Ti11 2.848256 1_565
Sn3 Ti5 2.848815 1_565
Sn3 Ti6 2.897522 1_454
Sn3 Ti4 2.897887 1_555
Sn3 Ti0 2.923734 1_565
Sn3 Ti2 2.955893 1_455
Sn3 Ti2 2.956006 1_555
Sn4 Ti9 2.773787 1_555
Sn4 Ti10 2.773953 1_655
Sn4 Ti11 2.774488 1_655
Sn4 Ti5 2.774500 1_555
Sn4 Ti2 2.884081 1_545
Sn4 Ti7 2.884092 1_555
Sn4 Ti0 2.970160 1_655
Sn4 Ti0 2.970925 1_555
Sn5 Sn9 2.802193 1_466
Sn5 Sn9 2.900607 1_566
Sn5 Ti1 2.910040 1_555
Sn5 Ti8 2.910044 1_565
Sn5 Ti2 2.910370 1_556
Sn5 Ti7 2.910403 1_566
Sn5 Ti3 2.962372 1_455
Sn5 Ti0 2.963878 1_566
Sn6 Ti2 2.828877 1_555
Sn6 Ti7 2.828974 1_555
Sn6 Ti3 2.876780 1_555
Sn6 Ti5 2.996519 1_565
Sn6 Ti9 2.996707 1_555
Sn6 Ti11 2.997342 1_665
Sn6 Ti10 2.997366 1_655
Sn6 Ti4 3.115899 1_555
Sn6 Ti6 3.116237 1_554
Sn7 Ti10 2.848272 1_655
Sn7 Ti9 2.848746 1_555
Sn7 Ti4 2.897398 1_656
Sn7 Ti6 2.898112 1_555
Sn7 Ti3 2.923695 1_555
Sn7 Ti1 2.955835 1_655
Sn7 Ti1 2.955948 1_555
Sn8 Ti11 2.848256 1_655
Sn8 Ti5 2.848815 1_555
Sn8 Ti4 2.897522 1_656
Sn8 Ti6 2.897887 1_555
Sn8 Ti3 2.923734 1_545
Sn8 Ti8 2.955893 1_655
Sn8 Ti8 2.956006 1_555
Sn9 Ti7 2.910040 1_555
Sn9 Ti2 2.910044 1_545
Sn9 Ti8 2.910370 1_554
Sn9 Ti1 2.910403 1_544
Sn9 Ti0 2.962372 1_655
Sn9 Ti3 2.963878 1_544
