# generated using pymatgen
data_P(W2O7)2
_symmetry_space_group_name_H-M   'P 1'
_cell_length_a   5.41416900
_cell_length_b   6.69933000
_cell_length_c   30.36980700
_cell_angle_alpha   90.00000000
_cell_angle_beta   90.00000000
_cell_angle_gamma   90.00000000
_symmetry_Int_Tables_number   1
_chemical_formula_structural   P(W2O7)2
_chemical_formula_sum   'P4 W16 O56'
_cell_volume   1101.55252662
_cell_formula_units_Z   4
loop_
 _symmetry_equiv_pos_site_id
 _symmetry_equiv_pos_as_xyz
  1  'x, y, z'
loop_
 _atom_site_type_symbol
 _atom_site_label
 _atom_site_symmetry_multiplicity
 _atom_site_fract_x
 _atom_site_fract_y
 _atom_site_fract_z
 _atom_site_occupancy
  P  P0  1  0.23674400  0.28295600  0.71328500  1
  P  P1  1  0.26325600  0.71704400  0.21328500  1
  P  P2  1  0.76325600  0.78295600  0.78671500  1
  P  P3  1  0.73674400  0.21704400  0.28671500  1
  W  W0  1  0.75812500  0.42511700  0.87148100  1
  W  W1  1  0.74187500  0.57488300  0.37148100  1
  W  W2  1  0.75688700  0.08631300  0.97423100  1
  W  W3  1  0.24469000  0.24696800  0.42424900  1
  W  W4  1  0.24402500  0.91270700  0.32088200  1
  W  W5  1  0.74311300  0.91368700  0.47423100  1
  W  W6  1  0.24311300  0.58631300  0.52576900  1
  W  W7  1  0.25812500  0.07488300  0.12851900  1
  W  W8  1  0.75531000  0.74696800  0.07575100  1
  W  W9  1  0.74469000  0.25303200  0.57575100  1
  W  W10  1  0.25531000  0.75303200  0.92424900  1
  W  W11  1  0.74402500  0.58729300  0.67911800  1
  W  W12  1  0.25688700  0.41368700  0.02576900  1
  W  W13  1  0.24187500  0.92511700  0.62851900  1
  W  W14  1  0.25597500  0.08729300  0.82088200  1
  W  W15  1  0.75597500  0.41270700  0.17911800  1
  O  O0  1  0.47151500  0.10103800  0.60326400  1
  O  O1  1  0.01186200  0.74186700  0.66107400  1
  O  O2  1  0.03019100  0.57163200  0.89203400  1
  O  O3  1  0.75659600  0.25363600  0.92000500  1
  O  O4  1  0.24403900  0.09427900  0.68451100  1
  O  O5  1  0.25659600  0.24636400  0.07999500  1
  O  O6  1  0.53019100  0.92836800  0.10796600  1
  O  O7  1  0.74347500  0.08229500  0.52635300  1
  O  O8  1  0.01434200  0.73083900  0.34310500  1
  O  O9  1  0.98749600  0.39156400  0.70784000  1
  O  O10  1  0.48319900  0.93236900  0.95013500  1
  O  O11  1  0.01250400  0.89156400  0.79216000  1
  O  O12  1  0.98204700  0.90109800  0.94531600  1
  O  O13  1  0.95574800  0.07877200  0.29732200  1
  O  O14  1  0.45574800  0.42122800  0.70267800  1
  O  O15  1  0.03008400  0.23433700  0.99760000  1
  O  O16  1  0.46991600  0.76566300  0.49760000  1
  O  O17  1  0.04425200  0.57877200  0.20267800  1
  O  O18  1  0.24473600  0.07401500  0.37018300  1
  O  O19  1  0.24347500  0.41770500  0.47364700  1
  O  O20  1  0.25652500  0.58229500  0.97364700  1
  O  O21  1  0.73915400  0.72021600  0.73804400  1
  O  O22  1  0.74340400  0.74636400  0.42000500  1
  O  O23  1  0.51434200  0.76916100  0.65689500  1
  O  O24  1  0.96980900  0.07163200  0.60796600  1
  O  O25  1  0.75596100  0.59427900  0.81548900  1
  O  O26  1  0.75652500  0.91770500  0.02635300  1
  O  O27  1  0.98319900  0.56763100  0.04986500  1
  O  O28  1  0.01680100  0.06763100  0.45013500  1
  O  O29  1  0.24340400  0.75363600  0.57999500  1
  O  O30  1  0.46980900  0.42836800  0.39203400  1
  O  O31  1  0.98565800  0.23083900  0.15689500  1
  O  O32  1  0.02848500  0.89896200  0.10326400  1
  O  O33  1  0.48749600  0.10843600  0.29216000  1
  O  O34  1  0.54425200  0.92122800  0.79732200  1
  O  O35  1  0.01795300  0.40109800  0.55468400  1
  O  O36  1  0.52848500  0.60103800  0.89673600  1
  O  O37  1  0.48204700  0.59890200  0.05468400  1
  O  O38  1  0.48565800  0.26916100  0.84310500  1
  O  O39  1  0.26084600  0.22021600  0.76195600  1
  O  O40  1  0.23915400  0.77978400  0.26195600  1
  O  O41  1  0.25526400  0.92598500  0.87018300  1
  O  O42  1  0.51186200  0.75813300  0.33892600  1
  O  O43  1  0.51250400  0.60843600  0.20784000  1
  O  O44  1  0.51795300  0.09890200  0.44531600  1
  O  O45  1  0.51680100  0.43236900  0.54986500  1
  O  O46  1  0.74473600  0.42598500  0.62981700  1
  O  O47  1  0.75526400  0.57401500  0.12981700  1
  O  O48  1  0.76084600  0.27978400  0.23804400  1
  O  O49  1  0.98813800  0.24186700  0.83892600  1
  O  O50  1  0.25596100  0.90572100  0.18451100  1
  O  O51  1  0.97151500  0.39896200  0.39673600  1
  O  O52  1  0.96991600  0.73433700  0.50240000  1
  O  O53  1  0.48813800  0.25813300  0.16107400  1
  O  O54  1  0.74403900  0.40572100  0.31548900  1
  O  O55  1  0.53008400  0.26566300  0.00240000  1
loop_
_geom_bond_atom_site_label_1
_geom_bond_atom_site_label_2
_geom_bond_distance
_geom_bond_site_symmetry_2
O0 W13 1.876987 1_545
O0 W9 1.980531 1_555
O1 W11 1.864263 1_455
O1 W13 2.008851 1_555
O2 W0 1.876918 1_455
O2 W10 1.979798 1_555
O3 W0 1.868560 1_555
O3 W2 1.992133 1_555
O4 P0 1.537177 1_555
O4 W13 2.043533 1_545
O5 W7 1.868560 1_555
O5 W12 1.992133 1_555
O6 W7 1.876918 1_565
O6 W8 1.979798 1_555
O7 W9 1.886531 1_555
O7 W5 1.944632 1_545
O8 W4 1.867186 1_555
O8 W1 2.002605 1_455
O9 P0 1.542018 1_655
O9 W11 2.053751 1_555
O10 W10 1.893099 1_555
O10 W2 1.948038 1_565
O11 P2 1.542018 1_455
O11 W14 2.053751 1_565
O12 W10 1.892668 1_655
O12 W2 1.948552 1_565
O13 P3 1.538765 1_555
O13 W4 2.045899 1_645
O14 P0 1.538765 1_555
O14 W11 2.045899 1_555
O15 W2 1.917009 1_455
O15 W12 1.919214 1_556
O16 W5 1.917009 1_555
O16 W6 1.919214 1_555
O17 P1 1.538765 1_555
O17 W15 2.045899 1_455
O18 W4 1.846517 1_545
O18 W3 2.009625 1_555
O19 W3 1.886531 1_555
O19 W6 1.944632 1_555
O20 W10 1.886531 1_555
O20 W12 1.944632 1_556
O21 P2 1.542258 1_555
O21 W11 1.999060 1_555
O22 W1 1.868560 1_555
O22 W5 1.992133 1_555
O23 W11 1.867186 1_555
O23 W13 2.002605 1_555
O24 W13 1.876918 1_645
O24 W9 1.979798 1_555
O25 P2 1.537177 1_555
O25 W0 2.043533 1_555
O26 W8 1.886531 1_555
O26 W2 1.944632 1_564
O27 W8 1.893099 1_555
O27 W12 1.948038 1_655
O28 W3 1.893099 1_555
O28 W5 1.948038 1_445
O29 W13 1.868560 1_555
O29 W6 1.992133 1_555
O30 W1 1.876918 1_555
O30 W3 1.979798 1_555
O31 W15 1.867186 1_555
O31 W7 2.002605 1_655
O32 W7 1.876987 1_565
O32 W8 1.980531 1_455
O33 P3 1.542018 1_555
O33 W4 2.053751 1_545
O34 P2 1.538765 1_555
O34 W14 2.045899 1_565
O35 W9 1.892668 1_455
O35 W6 1.948552 1_555
O36 W0 1.876987 1_555
O36 W10 1.980531 1_555
O37 W8 1.892668 1_555
O37 W12 1.948552 1_555
O38 W14 1.867186 1_555
O38 W0 2.002605 1_555
O39 P0 1.542258 1_555
O39 W14 1.999060 1_555
O40 P1 1.542258 1_555
O40 W4 1.999060 1_555
O41 W14 1.846517 1_565
O41 W10 2.009625 1_555
O42 W4 1.864263 1_555
O42 W1 2.008851 1_555
O43 P1 1.542018 1_555
O43 W15 2.053751 1_555
O44 W3 1.892668 1_555
O44 W5 1.948552 1_545
O45 W9 1.893099 1_555
O45 W6 1.948038 1_555
O46 W11 1.846517 1_555
O46 W9 2.009625 1_555
O47 W15 1.846517 1_555
O47 W8 2.009625 1_555
O48 P3 1.542258 1_555
O48 W15 1.999060 1_555
O49 W14 1.864263 1_655
O49 W0 2.008851 1_555
O50 P1 1.537177 1_555
O50 W7 2.043533 1_565
O51 W1 1.876987 1_555
O51 W3 1.980531 1_655
O52 W6 1.917009 1_655
O52 W5 1.919214 1_555
O53 W15 1.864263 1_555
O53 W7 2.008851 1_555
O54 P3 1.537177 1_555
O54 W1 2.043533 1_555
O55 W12 1.917009 1_555
O55 W2 1.919214 1_554
