# generated using pymatgen
data_BaMnO3
_symmetry_space_group_name_H-M   'P 1'
_cell_length_a   5.70010901
_cell_length_b   5.70010922
_cell_length_c   18.87427413
_cell_angle_alpha   90.00000970
_cell_angle_beta   89.99999135
_cell_angle_gamma   120.00001132
_symmetry_Int_Tables_number   1
_chemical_formula_structural   BaMnO3
_chemical_formula_sum   'Ba8 Mn8 O24'
_cell_volume   531.08884459
_cell_formula_units_Z   8
loop_
 _symmetry_equiv_pos_site_id
 _symmetry_equiv_pos_as_xyz
  1  'x, y, z'
loop_
 _atom_site_type_symbol
 _atom_site_label
 _atom_site_symmetry_multiplicity
 _atom_site_fract_x
 _atom_site_fract_y
 _atom_site_fract_z
 _atom_site_occupancy
  Ba  Ba0  1  0.33333341  0.66666619  0.12887063  1
  Ba  Ba1  1  0.66666615  0.33333345  0.62885983  1
  Ba  Ba2  1  -0.00000011  -0.00000003  0.24997112  1
  Ba  Ba3  1  -0.00000011  0.00000001  0.00002822  1
  Ba  Ba4  1  0.33333350  0.66666610  0.37110850  1
  Ba  Ba5  1  0.00000019  -0.00000003  0.75002889  1
  Ba  Ba6  1  0.66666663  0.33333387  0.87116081  1
  Ba  Ba7  1  -0.00000008  0.00000000  0.49997112  1
  Mn  Mn0  1  0.33333333  0.66666681  0.81555422  1
  Mn  Mn1  1  0.66666674  0.33333333  0.05261074  1
  Mn  Mn2  1  0.33333321  0.66666690  0.94740849  1
  Mn  Mn3  1  0.33333306  0.66666682  0.55260410  1
  Mn  Mn4  1  0.66666688  0.33333323  0.18445745  1
  Mn  Mn5  1  0.33333316  0.66666683  0.68447455  1
  Mn  Mn6  1  0.66666687  0.33333299  0.31551327  1
  Mn  Mn7  1  0.66666667  0.33333312  0.44737654  1
  O  O0  1  0.96274332  0.48137092  0.24998321  1
  O  O1  1  0.49999305  0.50000613  0.49998124  1
  O  O2  1  0.37402705  0.18701341  0.12039475  1
  O  O3  1  0.03727808  0.51863980  0.75001736  1
  O  O4  1  0.81298594  0.62597302  0.12039475  1
  O  O5  1  0.18702124  0.37404264  0.87963298  1
  O  O6  1  0.18702162  0.81297910  0.87963299  1
  O  O7  1  0.62595737  0.81297818  0.87963300  1
  O  O8  1  0.62594688  0.81297308  0.62039116  1
  O  O9  1  0.49999368  -0.00001301  0.49998124  1
  O  O10  1  0.48136077  0.96272209  0.75001735  1
  O  O11  1  0.51862919  0.03725676  0.24998320  1
  O  O12  1  0.18702664  0.81297395  0.62039119  1
  O  O13  1  0.18702613  0.37405297  0.62039122  1
  O  O14  1  0.49999359  -0.00001272  0.00001833  1
  O  O15  1  0.37403615  0.18701771  0.37958105  1
  O  O16  1  0.48136080  0.51863936  0.75001732  1
  O  O17  1  0.81298234  0.18701817  0.37958112  1
  O  O18  1  0.51862880  0.48137115  0.24998325  1
  O  O19  1  0.00001265  0.50000685  0.49998132  1
  O  O20  1  0.00001273  0.50000697  0.00001834  1
  O  O21  1  0.81298682  0.18701379  0.12039464  1
  O  O22  1  0.81298154  0.62596371  0.37958106  1
  O  O23  1  0.49999312  0.50000637  0.00001844  1
loop_
_geom_bond_atom_site_label_1
_geom_bond_atom_site_label_2
_geom_bond_distance
_geom_bond_site_symmetry_2
Ba0 O4 2.861595 1_555
Ba0 O21 2.861597 1_455
Ba0 O2 2.861598 1_555
Ba0 O2 2.861603 1_565
Ba0 O21 2.861603 1_565
Ba0 O4 2.861605 1_455
Ba0 O0 2.927811 1_455
Ba0 O11 2.927813 1_565
Ba0 O18 2.927814 1_555
Ba0 O23 2.936318 1_555
Ba0 O20 2.936323 1_555
Ba0 O14 2.936324 1_565
Ba1 O8 2.861598 1_555
Ba1 O12 2.861599 1_545
Ba1 O13 2.861600 1_555
Ba1 O13 2.861603 1_655
Ba1 O12 2.861604 1_655
Ba1 O8 2.861606 1_545
Ba1 O16 2.928539 1_555
Ba1 O10 2.928540 1_545
Ba1 O3 2.928542 1_655
Ba1 O1 2.936803 1_555
Ba1 O19 2.936804 1_655
Ba1 O9 2.936805 1_555
Ba2 O11 2.855977 1_455
Ba2 O0 2.855978 1_455
Ba2 O18 2.855982 1_445
Ba2 O18 2.855983 1_555
Ba2 O0 2.855987 1_445
Ba2 O11 2.855988 1_555
Ba2 O4 3.064360 1_445
Ba2 O2 3.064360 1_555
Ba2 O21 3.064362 1_455
Ba2 O17 3.064893 1_455
Ba2 O15 3.064893 1_555
Ba2 O22 3.064894 1_445
Ba3 O20 2.850052 1_545
Ba3 O23 2.850053 1_555
Ba3 O14 2.850054 1_455
Ba3 O14 2.850055 1_555
Ba3 O23 2.850055 1_445
Ba3 O20 2.850058 1_555
Ba3 O21 2.927499 1_455
Ba3 O4 2.927502 1_445
Ba3 O2 2.927502 1_555
Ba3 O7 2.927970 1_444
Ba3 O6 2.927971 1_544
Ba3 O5 2.927971 1_554
Ba4 O22 2.861596 1_555
Ba4 O17 2.861597 1_455
Ba4 O15 2.861598 1_555
Ba4 O15 2.861602 1_565
Ba4 O17 2.861602 1_565
Ba4 O22 2.861604 1_455
Ba4 O18 2.927999 1_555
Ba4 O0 2.927999 1_455
Ba4 O11 2.928001 1_565
Ba4 O1 2.936639 1_555
Ba4 O9 2.936643 1_565
Ba4 O19 2.936644 1_555
Ba5 O3 2.855984 1_545
Ba5 O10 2.855986 1_545
Ba5 O16 2.855989 1_445
Ba5 O16 2.855989 1_555
Ba5 O10 2.855992 1_445
Ba5 O3 2.855994 1_555
Ba5 O6 3.064824 1_545
Ba5 O5 3.064824 1_555
Ba5 O7 3.064825 1_445
Ba5 O12 3.065360 1_545
Ba5 O13 3.065361 1_555
Ba5 O8 3.065363 1_445
Ba6 O7 2.861596 1_555
Ba6 O5 2.861600 1_555
Ba6 O6 2.861601 1_545
Ba6 O6 2.861602 1_655
Ba6 O5 2.861603 1_655
Ba6 O7 2.861608 1_545
Ba6 O3 2.928332 1_655
Ba6 O16 2.928333 1_555
Ba6 O10 2.928333 1_545
Ba6 O20 2.936475 1_656
Ba6 O23 2.936476 1_556
Ba6 O14 2.936476 1_556
Ba7 O19 2.850052 1_545
Ba7 O1 2.850052 1_555
Ba7 O9 2.850053 1_455
Ba7 O9 2.850056 1_555
Ba7 O1 2.850056 1_445
Ba7 O19 2.850057 1_555
Ba7 O17 2.927873 1_455
Ba7 O15 2.927875 1_555
Ba7 O22 2.927875 1_445
Ba7 O8 2.928366 1_445
Ba7 O12 2.928367 1_545
Ba7 O13 2.928367 1_555
Mn0 O6 1.883981 1_555
Mn0 O7 1.883982 1_555
Mn0 O5 1.883982 1_555
Mn0 O16 1.914662 1_555
Mn0 O3 1.914663 1_555
Mn0 O10 1.914663 1_555
Mn1 O20 1.921757 1_655
Mn1 O14 1.921757 1_555
Mn1 O23 1.921759 1_555
Mn1 O21 1.929678 1_555
Mn1 O2 1.929679 1_555
Mn1 O4 1.929679 1_555
Mn2 O14 1.921819 1_566
Mn2 O20 1.921819 1_556
Mn2 O23 1.921820 1_556
Mn2 O6 1.929514 1_555
Mn2 O7 1.929515 1_555
Mn2 O5 1.929515 1_555
Mn3 O9 1.921945 1_565
Mn3 O19 1.921945 1_555
Mn3 O1 1.921947 1_555
Mn3 O12 1.929621 1_555
Mn3 O8 1.929622 1_555
Mn3 O13 1.929623 1_555
Mn4 O21 1.883846 1_555
Mn4 O4 1.883846 1_555
Mn4 O2 1.883846 1_555
Mn4 O18 1.914606 1_555
Mn4 O0 1.914607 1_555
Mn4 O11 1.914607 1_555
Mn5 O12 1.883998 1_555
Mn5 O13 1.883998 1_555
Mn5 O8 1.883998 1_555
Mn5 O3 1.914734 1_555
Mn5 O16 1.914735 1_555
Mn5 O10 1.914735 1_555
Mn6 O17 1.883873 1_555
Mn6 O15 1.883873 1_555
Mn6 O22 1.883874 1_555
Mn6 O18 1.914659 1_555
Mn6 O11 1.914659 1_555
Mn6 O0 1.914659 1_555
Mn7 O9 1.921878 1_555
Mn7 O19 1.921878 1_655
Mn7 O1 1.921880 1_555
Mn7 O17 1.929788 1_555
Mn7 O15 1.929789 1_555
Mn7 O22 1.929789 1_555
