# generated using pymatgen
data_TlCl
_symmetry_space_group_name_H-M   'P 1'
_cell_length_a   4.27137629
_cell_length_b   4.71706889
_cell_length_c   6.47346015
_cell_angle_alpha   90.00000000
_cell_angle_beta   109.26357294
_cell_angle_gamma   90.00000000
_symmetry_Int_Tables_number   1
_chemical_formula_structural   TlCl
_chemical_formula_sum   'Tl2 Cl2'
_cell_volume   123.12706747
_cell_formula_units_Z   2
loop_
 _symmetry_equiv_pos_site_id
 _symmetry_equiv_pos_as_xyz
  1  'x, y, z'
loop_
 _atom_site_type_symbol
 _atom_site_label
 _atom_site_symmetry_multiplicity
 _atom_site_fract_x
 _atom_site_fract_y
 _atom_site_fract_z
 _atom_site_occupancy
  Tl  Tl0  1  0.61314602  0.25000000  0.22629104  1
  Tl  Tl1  1  0.38685398  0.75000000  0.77370896  1
  Cl  Cl0  1  0.14349511  0.75000000  0.28699222  1
  Cl  Cl1  1  0.85650489  0.25000000  0.71300778  1
loop_
_geom_bond_atom_site_label_1
_geom_bond_atom_site_label_2
_geom_bond_distance
_geom_bond_site_symmetry_2
Cl0 Tl1 2.974334 1_555
Cl0 Tl0 3.203346 1_455
Cl0 Tl0 3.203346 1_465
Cl0 Tl0 3.203354 1_555
Cl0 Tl0 3.203354 1_565
Cl1 Tl0 2.974334 1_555
Cl1 Tl1 3.203346 1_655
Cl1 Tl1 3.203346 1_645
Cl1 Tl1 3.203354 1_555
Cl1 Tl1 3.203354 1_545
