# generated using pymatgen
data_Mg(FeO2)2
_symmetry_space_group_name_H-M   'P 1'
_cell_length_a   5.90294386
_cell_length_b   5.89413572
_cell_length_c   29.09040092
_cell_angle_alpha   60.29372277
_cell_angle_beta   60.45401376
_cell_angle_gamma   60.25991111
_symmetry_Int_Tables_number   1
_chemical_formula_structural   Mg(FeO2)2
_chemical_formula_sum   'Mg10 Fe20 O40'
_cell_volume   721.12143231
_cell_formula_units_Z   10
loop_
 _symmetry_equiv_pos_site_id
 _symmetry_equiv_pos_as_xyz
  1  'x, y, z'
loop_
 _atom_site_type_symbol
 _atom_site_label
 _atom_site_symmetry_multiplicity
 _atom_site_fract_x
 _atom_site_fract_y
 _atom_site_fract_z
 _atom_site_occupancy
  Mg  Mg0  1  0.97876700  0.00840500  0.00323400  1
  Mg  Mg1  1  0.12237500  0.62799300  0.12543400  1
  Mg  Mg2  1  0.62457100  0.12836600  0.12490700  1
  Mg  Mg3  1  0.12437900  0.62442500  0.32537500  1
  Mg  Mg4  1  0.62439900  0.12463600  0.32534200  1
  Mg  Mg5  1  0.12549200  0.62527600  0.52472200  1
  Mg  Mg6  1  0.62534300  0.12521200  0.52475500  1
  Mg  Mg7  1  0.12769000  0.62197600  0.72376500  1
  Mg  Mg8  1  0.62471600  0.12321500  0.72414600  1
  Mg  Mg9  1  0.12777900  0.62112000  0.92532000  1
  Fe  Fe0  1  0.25641700  0.25921200  0.04907900  1
  Fe  Fe1  1  0.99017700  0.99055700  0.20260500  1
  Fe  Fe2  1  0.25890000  0.26019900  0.24840900  1
  Fe  Fe3  1  0.99113600  0.99022700  0.40178700  1
  Fe  Fe4  1  0.62295200  0.64168300  0.02446900  1
  Fe  Fe5  1  0.62437300  0.62735600  0.12639600  1
  Fe  Fe6  1  0.25879700  0.25975300  0.44829800  1
  Fe  Fe7  1  0.99190200  0.99047600  0.60115100  1
  Fe  Fe8  1  0.62420700  0.62567300  0.22590800  1
  Fe  Fe9  1  0.62433600  0.62453400  0.32534200  1
  Fe  Fe10  1  0.62485400  0.62488400  0.42511400  1
  Fe  Fe11  1  0.25937100  0.25900200  0.64770000  1
  Fe  Fe12  1  0.99760100  0.99946900  0.79746800  1
  Fe  Fe13  1  0.62546800  0.62523800  0.52461700  1
  Fe  Fe14  1  0.62610400  0.62460500  0.62406700  1
  Fe  Fe15  1  0.25877000  0.24106000  0.84949200  1
  Fe  Fe16  1  0.62430100  0.62295100  0.72267200  1
  Fe  Fe17  1  0.62953600  0.11275500  0.92573900  1
  Fe  Fe18  1  0.62685400  0.61961700  0.82466800  1
  Fe  Fe19  1  0.62242400  0.63543500  0.92849400  1
  O  O0  1  0.39420500  0.40463300  0.07151100  1
  O  O1  1  0.39419300  0.39591300  0.16940500  1
  O  O2  1  0.39941600  0.85351500  0.07675300  1
  O  O3  1  0.84722900  0.41010100  0.07499000  1
  O  O4  1  0.39338300  0.39428500  0.27346000  1
  O  O5  1  0.39892000  0.85069300  0.17630200  1
  O  O6  1  0.84893200  0.40009800  0.17632700  1
  O  O7  1  0.39395900  0.39366300  0.36955700  1
  O  O8  1  0.39872300  0.84951900  0.27569000  1
  O  O9  1  0.84824900  0.85343700  0.08401100  1
  O  O10  1  0.84889400  0.39928000  0.27573100  1
  O  O11  1  0.85408600  0.85740200  0.17814900  1
  O  O12  1  0.39398300  0.39446600  0.47298600  1
  O  O13  1  0.40097200  0.84929600  0.37508200  1
  O  O14  1  0.84891000  0.40088800  0.37522300  1
  O  O15  1  0.40039000  0.84914800  0.47491800  1
  O  O16  1  0.85453500  0.85512300  0.28130800  1
  O  O17  1  0.39500800  0.39438500  0.56893600  1
  O  O18  1  0.84902800  0.40004100  0.47505500  1
  O  O19  1  0.85571100  0.85523100  0.37720300  1
  O  O20  1  0.39630800  0.39363500  0.67197400  1
  O  O21  1  0.40166700  0.85033500  0.57425100  1
  O  O22  1  0.39408200  0.38965700  0.76922900  1
  O  O23  1  0.85091600  0.40096400  0.57429700  1
  O  O24  1  0.39948100  0.84831100  0.67366300  1
  O  O25  1  0.85577600  0.85606600  0.48051300  1
  O  O26  1  0.84965200  0.39758200  0.67378900  1
  O  O27  1  0.85675300  0.85575400  0.57650600  1
  O  O28  1  0.39782600  0.36141400  0.87728400  1
  O  O29  1  0.39590400  0.84961600  0.77224300  1
  O  O30  1  0.40381400  0.36689300  0.96895100  1
  O  O31  1  0.85620000  0.39492200  0.77102600  1
  O  O32  1  0.85495400  0.85424700  0.68001800  1
  O  O33  1  0.39588000  0.84520300  0.87404500  1
  O  O34  1  0.85934900  0.35418400  0.87700500  1
  O  O35  1  0.86251300  0.85241700  0.77637800  1
  O  O36  1  0.39353900  0.88519000  0.97625200  1
  O  O37  1  0.85336800  0.41463800  0.97702800  1
  O  O38  1  0.86149600  0.87921400  0.87877200  1
  O  O39  1  0.84780400  0.87333100  0.97370300  1
loop_
_geom_bond_atom_site_label_1
_geom_bond_atom_site_label_2
_geom_bond_distance
_geom_bond_site_symmetry_2
Mg0 O9 1.932623 1_545
Mg0 O37 1.962446 1_554
Mg0 O39 1.978118 1_544
Mg0 O36 2.010865 1_644
Mg1 O9 2.009721 1_455
Mg1 O1 2.047993 1_555
Mg1 O11 2.055096 1_455
Mg1 O0 2.058418 1_555
Mg1 O6 2.103531 1_455
Mg1 O2 2.110395 1_555
Mg2 O9 2.005827 1_545
Mg2 O1 2.042344 1_555
Mg2 O11 2.063068 1_545
Mg2 O0 2.071941 1_555
Mg2 O5 2.112287 1_545
Mg2 O3 2.118213 1_555
Mg3 O16 2.041296 1_455
Mg3 O4 2.042184 1_555
Mg3 O7 2.042386 1_555
Mg3 O19 2.042821 1_455
Mg3 O14 2.095074 1_455
Mg3 O8 2.096306 1_555
Mg4 O4 2.040990 1_555
Mg4 O19 2.041587 1_545
Mg4 O16 2.041897 1_545
Mg4 O7 2.043279 1_555
Mg4 O13 2.093077 1_545
Mg4 O10 2.094294 1_555
Mg5 O27 2.040729 1_455
Mg5 O12 2.040917 1_555
Mg5 O17 2.042711 1_555
Mg5 O25 2.043527 1_455
Mg5 O15 2.093886 1_555
Mg5 O23 2.094239 1_455
Mg6 O27 2.039802 1_545
Mg6 O12 2.039872 1_555
Mg6 O17 2.043272 1_555
Mg6 O25 2.044351 1_545
Mg6 O18 2.091864 1_555
Mg6 O21 2.092071 1_545
Mg7 O20 2.032694 1_555
Mg7 O32 2.047657 1_455
Mg7 O22 2.053500 1_555
Mg7 O35 2.055670 1_455
Mg7 O24 2.090016 1_555
Mg7 O31 2.093031 1_455
Mg8 O20 2.037220 1_555
Mg8 O32 2.041316 1_545
Mg8 O22 2.049125 1_555
Mg8 O35 2.074539 1_545
Mg8 O26 2.094817 1_555
Mg8 O29 2.107947 1_545
Mg9 O37 2.026354 1_455
Mg9 O30 2.060009 1_555
Mg9 O39 2.065026 1_455
Mg9 O33 2.065679 1_555
Mg9 O38 2.074536 1_455
Mg9 O28 2.083059 1_555
Fe0 O0 1.895132 1_555
Fe0 O30 1.916928 1_554
Fe0 O2 1.959158 1_545
Fe0 O3 1.982643 1_455
Fe1 O11 1.873508 1_555
Fe1 O16 1.880144 1_555
Fe1 O6 1.977207 1_565
Fe1 O5 1.979295 1_655
Fe2 O4 1.884063 1_555
Fe2 O1 1.887115 1_555
Fe2 O8 1.982493 1_545
Fe2 O10 1.985317 1_455
Fe3 O25 1.880396 1_555
Fe3 O19 1.882154 1_555
Fe3 O14 1.982591 1_565
Fe3 O13 1.984561 1_655
Fe4 O39 1.916563 1_554
Fe4 O37 1.928410 1_554
Fe4 O0 1.949999 1_555
Fe4 O36 1.952186 1_554
Fe4 O2 1.970186 1_555
Fe4 O3 1.978291 1_555
Fe5 O9 1.885236 1_555
Fe5 O1 1.934744 1_555
Fe5 O2 1.962897 1_555
Fe5 O5 1.965236 1_555
Fe5 O6 1.967260 1_555
Fe5 O3 1.973078 1_555
Fe6 O7 1.880667 1_555
Fe6 O12 1.882043 1_555
Fe6 O15 1.982275 1_545
Fe6 O18 1.984207 1_455
Fe7 O27 1.880907 1_555
Fe7 O32 1.884394 1_555
Fe7 O23 1.981646 1_565
Fe7 O21 1.984176 1_655
Fe8 O11 1.932837 1_555
Fe8 O4 1.935212 1_555
Fe8 O5 1.963631 1_555
Fe8 O8 1.964678 1_555
Fe8 O10 1.965588 1_555
Fe8 O6 1.967630 1_555
Fe9 O16 1.929942 1_555
Fe9 O7 1.931743 1_555
Fe9 O8 1.965976 1_555
Fe9 O14 1.966773 1_555
Fe9 O10 1.966962 1_555
Fe9 O13 1.967858 1_555
Fe10 O19 1.931296 1_555
Fe10 O12 1.931617 1_555
Fe10 O18 1.966201 1_555
Fe10 O15 1.967005 1_555
Fe10 O13 1.967009 1_555
Fe10 O14 1.967819 1_555
Fe11 O20 1.880549 1_555
Fe11 O17 1.881549 1_555
Fe11 O24 1.982894 1_545
Fe11 O26 1.984113 1_455
Fe12 O35 1.859778 1_555
Fe12 O31 1.909786 1_565
Fe12 O29 1.930555 1_655
Fe12 O38 1.941976 1_555
Fe13 O25 1.931364 1_555
Fe13 O17 1.931931 1_555
Fe13 O15 1.964924 1_555
Fe13 O18 1.965817 1_555
Fe13 O23 1.965999 1_555
Fe13 O21 1.966909 1_555
Fe14 O20 1.929479 1_555
Fe14 O27 1.933507 1_555
Fe14 O26 1.958655 1_555
Fe14 O24 1.960014 1_555
Fe14 O23 1.963653 1_555
Fe14 O21 1.964489 1_555
Fe15 O28 1.905591 1_555
Fe15 O33 1.911562 1_545
Fe15 O22 1.919562 1_555
Fe15 O34 1.937082 1_455
Fe16 O32 1.936696 1_555
Fe16 O22 1.940330 1_555
Fe16 O24 1.948937 1_555
Fe16 O26 1.951830 1_555
Fe16 O31 1.964391 1_555
Fe16 O29 1.971547 1_555
Fe17 O39 1.901555 1_545
Fe17 O36 1.944355 1_545
Fe17 O38 1.945604 1_545
Fe17 O30 1.957929 1_555
Fe17 O28 1.967437 1_555
Fe17 O34 1.973359 1_555
Fe18 O35 1.961471 1_555
Fe18 O33 1.962885 1_555
Fe18 O28 2.044119 1_555
Fe18 O29 2.046945 1_555
Fe18 O31 2.051281 1_555
Fe18 O34 2.053999 1_555
Fe19 O37 1.965321 1_555
Fe19 O38 2.021657 1_555
Fe19 O36 2.031036 1_555
Fe19 O30 2.058651 1_555
Fe19 O33 2.081713 1_555
Fe19 O34 2.245505 1_555
