# generated using pymatgen
data_Ce3CuGeS7
_symmetry_space_group_name_H-M   'P 1'
_cell_length_a   10.19790046
_cell_length_b   10.19790046
_cell_length_c   5.86365200
_cell_angle_alpha   90.00000000
_cell_angle_beta   90.00000000
_cell_angle_gamma   120.00000300
_symmetry_Int_Tables_number   1
_chemical_formula_structural   Ce3CuGeS7
_chemical_formula_sum   'Ce6 Cu2 Ge2 S14'
_cell_volume   528.10507811
_cell_formula_units_Z   2
loop_
 _symmetry_equiv_pos_site_id
 _symmetry_equiv_pos_as_xyz
  1  'x, y, z'
loop_
 _atom_site_type_symbol
 _atom_site_label
 _atom_site_symmetry_multiplicity
 _atom_site_fract_x
 _atom_site_fract_y
 _atom_site_fract_z
 _atom_site_occupancy
  Ce  Ce0  1  0.77012900  0.64341500  0.25072200  1
  Ce  Ce1  1  0.35658500  0.12671400  0.25072200  1
  Ce  Ce2  1  0.12671400  0.77012900  0.75072200  1
  Ce  Ce3  1  0.64341500  0.87328600  0.75072200  1
  Ce  Ce4  1  0.87328600  0.22987100  0.25072200  1
  Ce  Ce5  1  0.22987100  0.35658500  0.75072200  1
  Cu  Cu0  1  0.00000000  0.00000000  0.22302000  1
  Cu  Cu1  1  0.00000000  0.00000000  0.72302000  1
  Ge  Ge0  1  0.66666700  0.33333300  0.83164400  1
  Ge  Ge1  1  0.33333300  0.66666700  0.33164400  1
  S  S0  1  0.66666700  0.33333300  0.45435300  1
  S  S1  1  0.51979300  0.41694400  0.98624700  1
  S  S2  1  0.25087300  0.08899600  0.73535900  1
  S  S3  1  0.58305600  0.10284900  0.98624700  1
  S  S4  1  0.74912700  0.91100400  0.23535900  1
  S  S5  1  0.91100400  0.16187700  0.73535900  1
  S  S6  1  0.08899600  0.83812300  0.23535900  1
  S  S7  1  0.83812300  0.74912700  0.73535900  1
  S  S8  1  0.33333300  0.66666700  0.95435300  1
  S  S9  1  0.16187700  0.25087300  0.23535900  1
  S  S10  1  0.10284900  0.51979300  0.48624700  1
  S  S11  1  0.48020700  0.58305600  0.48624700  1
  S  S12  1  0.89715100  0.48020700  0.98624700  1
  S  S13  1  0.41694400  0.89715100  0.48624700  1
loop_
_geom_bond_atom_site_label_1
_geom_bond_atom_site_label_2
_geom_bond_distance
_geom_bond_site_symmetry_2
Ce0 S6 2.840430 1_655
Ce0 S4 2.843421 1_555
Ce0 S1 2.891397 1_554
Ce0 S7 2.995156 1_555
Ce0 S12 3.001503 1_554
Ce0 S0 3.033467 1_555
Ce0 S11 3.034422 1_555
Ce0 S7 3.166606 1_554
Ce1 S9 2.840430 1_555
Ce1 S6 2.843421 1_545
Ce1 S3 2.891397 1_554
Ce1 S2 2.995156 1_555
Ce1 S1 3.001503 1_554
Ce1 S0 3.033465 1_555
Ce1 S13 3.034422 1_545
Ce1 S2 3.166606 1_554
Ce2 S2 2.840430 1_565
Ce2 S7 2.843421 1_455
Ce2 S10 2.891397 1_555
Ce2 S6 2.995156 1_556
Ce2 S13 3.001503 1_555
Ce2 S8 3.033458 1_555
Ce2 S12 3.034422 1_455
Ce2 S6 3.166606 1_555
Ce3 S7 2.840430 1_555
Ce3 S5 2.843421 1_565
Ce3 S13 2.891397 1_555
Ce3 S4 2.995156 1_556
Ce3 S11 3.001503 1_555
Ce3 S8 3.033465 1_555
Ce3 S3 3.034422 1_565
Ce3 S4 3.166606 1_555
Ce4 S4 2.840430 1_545
Ce4 S9 2.843421 1_655
Ce4 S12 2.891397 1_554
Ce4 S5 2.995156 1_555
Ce4 S3 3.001503 1_554
Ce4 S0 3.033458 1_555
Ce4 S10 3.034422 1_655
Ce4 S5 3.166606 1_554
Ce5 S5 2.840430 1_455
Ce5 S2 2.843421 1_555
Ce5 S11 2.891397 1_555
Ce5 S9 2.995156 1_556
Ce5 S10 3.001503 1_555
Ce5 S8 3.033467 1_555
Ce5 S1 3.034422 1_555
Ce5 S9 3.166606 1_555
Cu0 S9 2.247734 1_555
Cu0 S4 2.247734 1_445
Cu0 S6 2.247734 1_545
Cu1 S7 2.247734 1_445
Cu1 S2 2.247734 1_555
Cu1 S5 2.247734 1_455
Ge0 S0 2.212303 1_555
Ge0 S3 2.251518 1_555
Ge0 S12 2.251520 1_555
Ge0 S1 2.251527 1_555
Ge1 S8 2.212303 1_554
Ge1 S13 2.251518 1_555
Ge1 S10 2.251520 1_555
Ge1 S11 2.251527 1_555
