# generated using pymatgen
data_K2SbSO4F3
_symmetry_space_group_name_H-M   'P 1'
_cell_length_a   5.72812000
_cell_length_b   9.29199100
_cell_length_c   14.35654900
_cell_angle_alpha   90.00000000
_cell_angle_beta   90.00000000
_cell_angle_gamma   90.00000000
_symmetry_Int_Tables_number   1
_chemical_formula_structural   K2SbSO4F3
_chemical_formula_sum   'K8 Sb4 S4 O16 F12'
_cell_volume   764.13650135
_cell_formula_units_Z   4
loop_
 _symmetry_equiv_pos_site_id
 _symmetry_equiv_pos_as_xyz
  1  'x, y, z'
loop_
 _atom_site_type_symbol
 _atom_site_label
 _atom_site_symmetry_multiplicity
 _atom_site_fract_x
 _atom_site_fract_y
 _atom_site_fract_z
 _atom_site_occupancy
  K  K0  1  0.98032200  0.81410700  0.11075400  1
  K  K1  1  0.01967800  0.31410700  0.38924600  1
  K  K2  1  0.49588000  0.49134800  0.19150600  1
  K  K3  1  0.50412000  0.99134800  0.30849400  1
  K  K4  1  0.00412000  0.50865200  0.69150600  1
  K  K5  1  0.48032200  0.68589300  0.88924600  1
  K  K6  1  0.99588000  0.00865200  0.80849400  1
  K  K7  1  0.51967800  0.18589300  0.61075400  1
  Sb  Sb0  1  0.46793100  0.05723200  0.02176900  1
  Sb  Sb1  1  0.96793100  0.44276800  0.97823100  1
  Sb  Sb2  1  0.03206900  0.94276800  0.52176900  1
  Sb  Sb3  1  0.53206900  0.55723200  0.47823100  1
  S  S0  1  0.97554300  0.70688800  0.33873300  1
  S  S1  1  0.52445700  0.29311200  0.83873300  1
  S  S2  1  0.47554300  0.79311200  0.66126700  1
  S  S3  1  0.02445700  0.20688800  0.16126700  1
  O  O0  1  0.34664000  0.36713300  0.78253700  1
  O  O1  1  0.57247500  0.64789600  0.63092600  1
  O  O2  1  0.07392700  0.12067800  0.07377900  1
  O  O3  1  0.92607300  0.62067800  0.42622100  1
  O  O4  1  0.92752500  0.35210400  0.13092600  1
  O  O5  1  0.74331700  0.27042600  0.78579600  1
  O  O6  1  0.65336000  0.86713300  0.71746300  1
  O  O7  1  0.57392700  0.37932200  0.92622100  1
  O  O8  1  0.15336000  0.63286700  0.28253700  1
  O  O9  1  0.42607300  0.87932200  0.57377900  1
  O  O10  1  0.75668300  0.72957400  0.28579600  1
  O  O11  1  0.25668300  0.77042600  0.71420400  1
  O  O12  1  0.42752500  0.14789600  0.86907400  1
  O  O13  1  0.84664000  0.13286700  0.21746300  1
  O  O14  1  0.24331700  0.22957400  0.21420400  1
  O  O15  1  0.07247500  0.85210400  0.36907400  1
  F  F0  1  0.54233700  0.40682400  0.37431600  1
  F  F1  1  0.74805300  0.42023700  0.54026800  1
  F  F2  1  0.71392400  0.92719900  0.96413800  1
  F  F3  1  0.04233700  0.09317600  0.62568400  1
  F  F4  1  0.25194700  0.92023700  0.95973200  1
  F  F5  1  0.78607600  0.07280100  0.46413800  1
  F  F6  1  0.95766300  0.59317600  0.87431600  1
  F  F7  1  0.28607600  0.42719900  0.53586200  1
  F  F8  1  0.24805300  0.07976300  0.45973200  1
  F  F9  1  0.75194700  0.57976300  0.04026800  1
  F  F10  1  0.45766300  0.90682400  0.12568400  1
  F  F11  1  0.21392400  0.57280100  0.03586200  1
loop_
_geom_bond_atom_site_label_1
_geom_bond_atom_site_label_2
_geom_bond_distance
_geom_bond_site_symmetry_2
K0 O10 2.928000 1_555
K0 O2 2.946881 1_665
K0 O8 3.146548 1_655
K1 O14 2.928000 1_555
K1 O3 2.946881 1_455
K1 O13 3.146548 1_455
K2 O8 2.699370 1_555
K2 O14 2.848814 1_555
K2 O4 2.922978 1_555
K2 O10 2.994030 1_555
K3 O13 2.699370 1_565
K3 O10 2.848814 1_555
K3 O15 2.922978 1_555
K3 O14 2.994030 1_565
K4 O0 2.699370 1_555
K4 O11 2.848814 1_555
K4 O1 2.922978 1_455
K4 O5 2.994030 1_455
K5 O11 2.928000 1_555
K5 O7 2.946881 1_555
K5 O6 3.146548 1_555
K6 O6 2.699370 1_545
K6 O5 2.848814 1_555
K6 O12 2.922978 1_655
K6 O11 2.994030 1_645
K7 O5 2.928000 1_555
K7 O9 2.946881 1_545
K7 O0 3.146548 1_555
O0 S1 1.470179 1_555
O1 S2 1.522749 1_555
O1 Sb3 2.359855 1_555
O2 S3 1.516443 1_555
O2 Sb0 2.449225 1_555
O3 S0 1.516443 1_555
O3 Sb3 2.449225 1_555
O4 S3 1.522749 1_655
O4 Sb1 2.359855 1_554
O5 S1 1.481107 1_555
O6 S2 1.470179 1_555
O7 S1 1.516443 1_555
O7 Sb1 2.449225 1_555
O8 S0 1.470179 1_455
O9 S2 1.516443 1_555
O9 Sb2 2.449225 1_555
O10 S0 1.481107 1_555
O11 S2 1.481107 1_555
O12 S1 1.522749 1_555
O12 Sb0 2.359855 1_556
O13 S3 1.470179 1_655
O14 S3 1.481107 1_555
O15 S0 1.522749 1_455
O15 Sb2 2.359855 1_555
F0 Sb3 2.045083 1_555
F0 K2 2.752412 1_555
F0 K1 2.874784 1_655
F0 K1 3.122712 1_555
F1 Sb3 1.986019 1_555
F1 K7 2.734392 1_555
F1 K4 2.746042 1_655
F1 K1 2.845036 1_655
F2 Sb0 2.032232 1_566
F2 K0 2.804183 1_556
F2 K5 2.823839 1_555
F2 K6 2.859082 1_565
F3 Sb2 2.045083 1_545
F3 K6 2.752412 1_455
F3 K7 2.874784 1_555
F3 K7 3.122712 1_455
F4 Sb0 1.986019 1_566
F4 K5 2.734392 1_555
F4 K6 2.746042 1_465
F4 K0 2.845036 1_456
F5 Sb2 2.032232 1_645
F5 K7 2.804183 1_555
F5 K1 2.823839 1_655
F5 K3 2.859082 1_545
F6 Sb1 2.045083 1_555
F6 K4 2.752412 1_655
F6 K5 2.874784 1_555
F6 K5 3.122712 1_655
F7 Sb3 2.032232 1_555
F7 K1 2.804183 1_555
F7 K7 2.823839 1_555
F7 K4 2.859082 1_555
F8 Sb2 1.986019 1_545
F8 K1 2.734392 1_555
F8 K3 2.746042 1_545
F8 K7 2.845036 1_555
F9 Sb1 1.986019 1_554
F9 K0 2.734392 1_555
F9 K2 2.746042 1_555
F9 K5 2.845036 1_554
F10 Sb0 2.045083 1_565
F10 K3 2.752412 1_555
F10 K0 2.874784 1_455
F10 K0 3.122712 1_555
F11 Sb1 2.032232 1_454
F11 K5 2.804183 1_554
F11 K0 2.823839 1_455
F11 K2 2.859082 1_555
