# generated using pymatgen
data_La(AlBr4)3
_symmetry_space_group_name_H-M   'P 1'
_cell_length_a   10.75781691
_cell_length_b   10.75781691
_cell_length_c   19.12822100
_cell_angle_alpha   90.00000000
_cell_angle_beta   90.00000000
_cell_angle_gamma   120.00000562
_symmetry_Int_Tables_number   1
_chemical_formula_structural   La(AlBr4)3
_chemical_formula_sum   'La3 Al9 Br36'
_cell_volume   1917.13848541
_cell_formula_units_Z   3
loop_
 _symmetry_equiv_pos_site_id
 _symmetry_equiv_pos_as_xyz
  1  'x, y, z'
loop_
 _atom_site_type_symbol
 _atom_site_label
 _atom_site_symmetry_multiplicity
 _atom_site_fract_x
 _atom_site_fract_y
 _atom_site_fract_z
 _atom_site_occupancy
  La  La0  1  0.00000000  0.72935100  0.66666700  1
  La  La1  1  0.27064900  0.27064900  0.00000000  1
  La  La2  1  0.72935100  0.00000000  0.33333300  1
  Al  Al0  1  0.36837200  0.67119800  0.05374300  1
  Al  Al1  1  0.67119800  0.36837200  0.94625700  1
  Al  Al2  1  0.32880200  0.69717400  0.38707600  1
  Al  Al3  1  0.90011800  0.90011800  0.50000000  1
  Al  Al4  1  0.69717400  0.32880200  0.61292400  1
  Al  Al5  1  0.09988200  0.00000000  0.83333300  1
  Al  Al6  1  0.30282600  0.63162800  0.72041000  1
  Al  Al7  1  0.63162800  0.30282600  0.27959000  1
  Al  Al8  1  0.00000000  0.09988200  0.16666700  1
  Br  Br0  1  0.86108800  0.57753200  0.98407400  1
  Br  Br1  1  0.42246800  0.28355600  0.31740700  1
  Br  Br2  1  0.20575200  0.97077000  0.93392100  1
  Br  Br3  1  0.08359900  0.58476400  0.77732200  1
  Br  Br4  1  0.57753200  0.86108800  0.01592600  1
  Br  Br5  1  0.49526700  0.77426300  0.78844400  1
  Br  Br6  1  0.49883500  0.41523600  0.88934500  1
  Br  Br7  1  0.27899600  0.50473300  0.45511100  1
  Br  Br8  1  0.50116500  0.91640100  0.44398800  1
  Br  Br9  1  0.79424800  0.76501800  0.39941200  1
  Br  Br10  1  0.58476400  0.08359900  0.22267800  1
  Br  Br11  1  0.76615800  0.29048400  0.37631200  1
  Br  Br12  1  0.47567400  0.70951600  0.29035500  1
  Br  Br13  1  0.29048400  0.76615800  0.62368800  1
  Br  Br14  1  0.23498200  0.02923000  0.73274600  1
  Br  Br15  1  0.72100400  0.22573700  0.87822200  1
  Br  Br16  1  0.76501800  0.79424800  0.60058800  1
  Br  Br17  1  0.80356600  0.87860600  0.19693400  1
  Br  Br18  1  0.92496000  0.12139400  0.46973300  1
  Br  Br19  1  0.50473300  0.27899600  0.54488900  1
  Br  Br20  1  0.71644400  0.13891200  0.65074000  1
  Br  Br21  1  0.70951600  0.47567400  0.70964500  1
  Br  Br22  1  0.77426300  0.49526700  0.21155600  1
  Br  Br23  1  0.97077000  0.20575200  0.06607900  1
  Br  Br24  1  0.41523600  0.49883500  0.11065500  1
  Br  Br25  1  0.19643400  0.07504000  0.13640000  1
  Br  Br26  1  0.91640100  0.50116500  0.55601200  1
  Br  Br27  1  0.07504000  0.19643400  0.86360000  1
  Br  Br28  1  0.13891200  0.71644400  0.34926000  1
  Br  Br29  1  0.87860600  0.80356600  0.80306600  1
  Br  Br30  1  0.12139400  0.92496000  0.53026700  1
  Br  Br31  1  0.02923000  0.23498200  0.26725400  1
  Br  Br32  1  0.28355600  0.42246800  0.68259300  1
  Br  Br33  1  0.23384200  0.52432600  0.95702100  1
  Br  Br34  1  0.22573700  0.72100400  0.12177800  1
  Br  Br35  1  0.52432600  0.23384200  0.04297900  1
loop_
_geom_bond_atom_site_label_1
_geom_bond_atom_site_label_2
_geom_bond_distance
_geom_bond_site_symmetry_2
Al0 Br34 2.270984 1_555
Al0 Br4 2.272171 1_555
Al0 Br33 2.393169 1_554
Al0 Br24 2.410881 1_555
Al1 Br15 2.270984 1_555
Al1 Br0 2.272171 1_555
Al1 Br35 2.393169 1_556
Al1 Br6 2.410881 1_555
Al2 Br7 2.270984 1_555
Al2 Br28 2.272165 1_555
Al2 Br12 2.393154 1_555
Al2 Br8 2.410881 1_555
Al3 Br30 2.331731 1_655
Al3 Br18 2.331731 1_565
Al3 Br9 2.335856 1_555
Al3 Br16 2.335856 1_555
Al4 Br19 2.270984 1_555
Al4 Br20 2.272165 1_555
Al4 Br21 2.393154 1_555
Al4 Br26 2.410881 1_555
Al5 Br29 2.331731 1_445
Al5 Br27 2.331731 1_555
Al5 Br14 2.335840 1_555
Al5 Br2 2.335856 1_545
Al6 Br5 2.270973 1_555
Al6 Br32 2.272171 1_555
Al6 Br13 2.393169 1_555
Al6 Br3 2.410881 1_555
Al7 Br22 2.270973 1_555
Al7 Br1 2.272171 1_555
Al7 Br11 2.393169 1_555
Al7 Br10 2.410881 1_555
Al8 Br17 2.331731 1_445
Al8 Br25 2.331731 1_555
Al8 Br31 2.335840 1_555
Al8 Br23 2.335856 1_455
Br2 La1 3.200021 1_566
Br3 La0 3.017818 1_555
Br6 La1 3.017817 1_556
Br8 La2 3.017818 1_565
Br9 La2 3.200021 1_565
Br10 La2 3.017818 1_555
Br11 La2 3.059533 1_555
Br12 La2 3.059527 1_565
Br13 La0 3.059533 1_555
Br14 La0 3.200021 1_545
Br16 La0 3.200021 1_655
Br17 La2 3.192615 1_565
Br18 La2 3.192630 1_555
Br21 La0 3.059527 1_655
Br23 La1 3.200021 1_655
Br24 La1 3.017817 1_555
Br25 La1 3.192630 1_555
Br26 La0 3.017818 1_655
Br27 La1 3.192630 1_556
Br29 La0 3.192615 1_655
Br30 La0 3.192630 1_555
Br31 La2 3.200021 1_455
Br33 La1 3.059533 1_556
Br35 La1 3.059533 1_555
