# generated using pymatgen
data_HoCu5
_symmetry_space_group_name_H-M   'P 1'
_cell_length_a   4.90572120
_cell_length_b   4.90572093
_cell_length_c   4.90572309
_cell_angle_alpha   59.99996487
_cell_angle_beta   59.99996669
_cell_angle_gamma   59.99994889
_symmetry_Int_Tables_number   1
_chemical_formula_structural   HoCu5
_chemical_formula_sum   'Ho1 Cu5'
_cell_volume   83.48209551
_cell_formula_units_Z   1
loop_
 _symmetry_equiv_pos_site_id
 _symmetry_equiv_pos_as_xyz
  1  'x, y, z'
loop_
 _atom_site_type_symbol
 _atom_site_label
 _atom_site_symmetry_multiplicity
 _atom_site_fract_x
 _atom_site_fract_y
 _atom_site_fract_z
 _atom_site_occupancy
  Ho  Ho0  1  0.00000000  0.00000000  -0.00000000  1
  Cu  Cu0  1  0.62395351  0.62395351  0.12814148  1
  Cu  Cu1  1  0.12814148  0.62395351  0.62395351  1
  Cu  Cu2  1  0.25000000  0.25000000  0.25000000  1
  Cu  Cu3  1  0.62395351  0.12814148  0.62395351  1
  Cu  Cu4  1  0.62395351  0.62395351  0.62395351  1
loop_
_geom_bond_atom_site_label_1
_geom_bond_atom_site_label_2
_geom_bond_distance
_geom_bond_site_symmetry_2
Cu0 Cu3 2.432315 1_555
Cu0 Cu1 2.432315 1_555
Cu0 Cu4 2.432317 1_555
Cu0 Cu3 2.473405 1_564
Cu0 Cu1 2.473405 1_654
Cu0 Cu4 2.473407 1_554
Cu0 Cu2 2.874066 1_565
Cu0 Cu2 2.874066 1_655
Cu0 Cu2 2.874076 1_555
Cu0 Ho0 2.878446 1_665
Cu0 Ho0 2.878453 1_655
Cu0 Ho0 2.878453 1_565
Cu1 Cu3 2.432314 1_555
Cu1 Cu4 2.432316 1_555
Cu1 Cu3 2.473404 1_465
Cu1 Cu4 2.473406 1_455
Cu1 Cu2 2.874067 1_565
Cu1 Cu2 2.874067 1_556
Cu1 Cu2 2.874077 1_555
Cu1 Ho0 2.878446 1_566
Cu1 Ho0 2.878453 1_556
Cu1 Ho0 2.878454 1_565
Cu2 Cu3 2.874067 1_455
Cu2 Cu3 2.874068 1_554
Cu2 Cu4 2.874070 1_545
Cu2 Cu4 2.874070 1_455
Cu2 Cu4 2.874071 1_554
Cu2 Cu3 2.874077 1_555
Cu2 Ho0 3.004127 1_565
Cu2 Ho0 3.004127 1_655
Cu2 Ho0 3.004128 1_556
Cu2 Ho0 3.004130 1_555
Cu3 Cu4 2.432315 1_555
Cu3 Cu4 2.473405 1_545
Cu3 Ho0 2.878446 1_656
Cu3 Ho0 2.878453 1_556
Cu3 Ho0 2.878454 1_655
Cu4 Ho0 2.878448 1_656
Cu4 Ho0 2.878448 1_566
Cu4 Ho0 2.878449 1_665
