# generated using pymatgen
data_Li2Cd(PO3)4
_symmetry_space_group_name_H-M   'P 1'
_cell_length_a   9.52829600
_cell_length_b   9.65557500
_cell_length_c   10.33420800
_cell_angle_alpha   90.00000000
_cell_angle_beta   90.00000000
_cell_angle_gamma   90.00000000
_symmetry_Int_Tables_number   1
_chemical_formula_structural   Li2Cd(PO3)4
_chemical_formula_sum   'Li8 Cd4 P16 O48'
_cell_volume   950.75929575
_cell_formula_units_Z   4
loop_
 _symmetry_equiv_pos_site_id
 _symmetry_equiv_pos_as_xyz
  1  'x, y, z'
loop_
 _atom_site_type_symbol
 _atom_site_label
 _atom_site_symmetry_multiplicity
 _atom_site_fract_x
 _atom_site_fract_y
 _atom_site_fract_z
 _atom_site_occupancy
  Li  Li0  1  0.10529000  0.49726100  0.32336000  1
  Li  Li1  1  0.89471000  0.50273900  0.67664000  1
  Li  Li2  1  0.89471000  0.00273900  0.82336000  1
  Li  Li3  1  0.10529000  0.99726100  0.17664000  1
  Li  Li4  1  0.39471000  0.99726100  0.17664000  1
  Li  Li5  1  0.60529000  0.00273900  0.82336000  1
  Li  Li6  1  0.60529000  0.50273900  0.67664000  1
  Li  Li7  1  0.39471000  0.49726100  0.32336000  1
  Cd  Cd0  1  0.25000000  0.48846300  0.69363100  1
  Cd  Cd1  1  0.75000000  0.51153700  0.30636900  1
  Cd  Cd2  1  0.25000000  0.98846300  0.80636900  1
  Cd  Cd3  1  0.75000000  0.01153700  0.19363100  1
  P  P0  1  0.75000000  0.30382200  0.90000400  1
  P  P1  1  0.53153100  0.79291200  0.38806200  1
  P  P2  1  0.46846900  0.70708800  0.88806200  1
  P  P3  1  0.75000000  0.80382200  0.59999600  1
  P  P4  1  0.75000000  0.23012000  0.48468100  1
  P  P5  1  0.25000000  0.26988000  0.98468100  1
  P  P6  1  0.25000000  0.69617800  0.09999600  1
  P  P7  1  0.53153100  0.29291200  0.11193800  1
  P  P8  1  0.96846900  0.29291200  0.11193800  1
  P  P9  1  0.25000000  0.76988000  0.51531900  1
  P  P10  1  0.03153100  0.70708800  0.88806200  1
  P  P11  1  0.75000000  0.73012000  0.01531900  1
  P  P12  1  0.03153100  0.20708800  0.61193800  1
  P  P13  1  0.46846900  0.20708800  0.61193800  1
  P  P14  1  0.96846900  0.79291200  0.38806200  1
  P  P15  1  0.25000000  0.19617800  0.40000400  1
  O  O0  1  0.37498600  0.83143800  0.42834900  1
  O  O1  1  0.37498600  0.33143800  0.07165100  1
  O  O2  1  0.25000000  0.61346200  0.50808500  1
  O  O3  1  0.55975600  0.88442000  0.27282200  1
  O  O4  1  0.75000000  0.88653800  0.00808500  1
  O  O5  1  0.45158300  0.36206600  0.62304300  1
  O  O6  1  0.45158300  0.86206600  0.87695700  1
  O  O7  1  0.75000000  0.89941100  0.71416700  1
  O  O8  1  0.87498600  0.66856200  0.92834900  1
  O  O9  1  0.95158300  0.63793400  0.37695700  1
  O  O10  1  0.88167800  0.85012600  0.51069000  1
  O  O11  1  0.75000000  0.16189300  0.35608000  1
  O  O12  1  0.04841700  0.36206600  0.62304300  1
  O  O13  1  0.05975600  0.61558000  0.77282200  1
  O  O14  1  0.04841700  0.86206600  0.87695700  1
  O  O15  1  0.25000000  0.33810700  0.85608000  1
  O  O16  1  0.62501400  0.66856200  0.92834900  1
  O  O17  1  0.05975600  0.11558000  0.72717800  1
  O  O18  1  0.75000000  0.38653800  0.49191500  1
  O  O19  1  0.11832200  0.14987400  0.48931000  1
  O  O20  1  0.12501400  0.33143800  0.07165100  1
  O  O21  1  0.94024400  0.38442000  0.22717800  1
  O  O22  1  0.62501400  0.16856200  0.57165100  1
  O  O23  1  0.25000000  0.10058900  0.28583300  1
  O  O24  1  0.38167800  0.64987400  0.01069000  1
  O  O25  1  0.95158300  0.13793400  0.12304300  1
  O  O26  1  0.88167800  0.35012600  0.98931000  1
  O  O27  1  0.75000000  0.64994300  0.62040300  1
  O  O28  1  0.55975600  0.38442000  0.22717800  1
  O  O29  1  0.94024400  0.88442000  0.27282200  1
  O  O30  1  0.25000000  0.83810700  0.64392000  1
  O  O31  1  0.25000000  0.60058900  0.21416700  1
  O  O32  1  0.54841700  0.63793400  0.37695700  1
  O  O33  1  0.38167800  0.14987400  0.48931000  1
  O  O34  1  0.25000000  0.11346200  0.99191500  1
  O  O35  1  0.12501400  0.83143800  0.42834900  1
  O  O36  1  0.75000000  0.66189300  0.14392000  1
  O  O37  1  0.44024400  0.11558000  0.72717800  1
  O  O38  1  0.11832200  0.64987400  0.01069000  1
  O  O39  1  0.87498600  0.16856200  0.57165100  1
  O  O40  1  0.75000000  0.14994300  0.87959700  1
  O  O41  1  0.61832200  0.85012600  0.51069000  1
  O  O42  1  0.44024400  0.61558000  0.77282200  1
  O  O43  1  0.25000000  0.35005700  0.37959700  1
  O  O44  1  0.25000000  0.85005700  0.12040300  1
  O  O45  1  0.61832200  0.35012600  0.98931000  1
  O  O46  1  0.75000000  0.39941100  0.78583300  1
  O  O47  1  0.54841700  0.13793400  0.12304300  1
loop_
_geom_bond_atom_site_label_1
_geom_bond_atom_site_label_2
_geom_bond_distance
_geom_bond_site_symmetry_2
Li0 O31 2.042040 1_555
Li0 O43 2.063772 1_555
Li0 O9 2.072839 1_455
Li0 O21 2.155961 1_455
Li0 O2 2.608502 1_555
Li1 O46 2.042040 1_555
Li1 O27 2.063772 1_555
Li1 O12 2.072839 1_655
Li1 O13 2.155961 1_655
Li1 O18 2.608502 1_555
Li2 O7 2.042040 1_545
Li2 O40 2.063772 1_555
Li2 O14 2.072839 1_645
Li2 O17 2.155961 1_655
Li2 O4 2.608502 1_546
Li3 O23 2.042040 1_565
Li3 O44 2.063772 1_555
Li3 O25 2.072839 1_465
Li3 O29 2.155961 1_455
Li3 O34 2.608502 1_564
Li4 O23 2.042040 1_565
Li4 O44 2.063772 1_555
Li4 O47 2.072839 1_565
Li4 O3 2.155961 1_555
Li4 O34 2.608502 1_564
Li5 O7 2.042040 1_545
Li5 O40 2.063772 1_555
Li5 O6 2.072839 1_545
Li5 O37 2.155961 1_555
Li5 O4 2.608502 1_546
Li6 O46 2.042040 1_555
Li6 O27 2.063772 1_555
Li6 O5 2.072839 1_555
Li6 O42 2.155961 1_555
Li6 O18 2.608502 1_555
Li7 O31 2.042040 1_555
Li7 O43 2.063772 1_555
Li7 O32 2.072839 1_555
Li7 O28 2.155961 1_555
Li7 O2 2.608502 1_555
Cd0 O15 2.219449 1_555
Cd0 O2 2.265699 1_555
Cd0 O42 2.337115 1_555
Cd0 O13 2.337115 1_555
Cd0 O5 2.389737 1_555
Cd0 O12 2.389737 1_555
Cd1 O36 2.219449 1_555
Cd1 O18 2.265699 1_555
Cd1 O21 2.337115 1_555
Cd1 O28 2.337115 1_555
Cd1 O9 2.389737 1_555
Cd1 O32 2.389737 1_555
Cd2 O30 2.219449 1_555
Cd2 O34 2.265699 1_565
Cd2 O37 2.337115 1_565
Cd2 O17 2.337115 1_565
Cd2 O6 2.389737 1_555
Cd2 O14 2.389737 1_555
Cd3 O11 2.219449 1_555
Cd3 O4 2.265699 1_545
Cd3 O29 2.337115 1_545
Cd3 O3 2.337115 1_545
Cd3 O25 2.389737 1_555
Cd3 O47 2.389737 1_555
O0 P1 1.592672 1_555
O0 P9 1.606025 1_555
O1 P7 1.592672 1_555
O1 P5 1.606025 1_554
O2 P9 1.512155 1_555
O3 P1 1.507078 1_555
O4 P11 1.512155 1_555
O5 P13 1.509396 1_555
O6 P2 1.509396 1_555
O7 P3 1.497983 1_555
O8 P10 1.592672 1_655
O8 P11 1.606025 1_556
O9 P14 1.509396 1_555
O10 P14 1.610906 1_555
O10 P3 1.620443 1_555
O11 P4 1.483304 1_555
O12 P12 1.509396 1_555
O13 P10 1.507078 1_555
O14 P10 1.509396 1_555
O15 P5 1.483304 1_555
O16 P2 1.592672 1_555
O16 P11 1.606025 1_556
O17 P12 1.507078 1_555
O18 P4 1.512155 1_555
O19 P12 1.610906 1_555
O19 P15 1.620443 1_555
O20 P8 1.592672 1_455
O20 P5 1.606025 1_554
O21 P8 1.507078 1_555
O22 P13 1.592672 1_555
O22 P4 1.606025 1_555
O23 P15 1.497983 1_555
O24 P2 1.610906 1_554
O24 P6 1.620443 1_555
O25 P8 1.509396 1_555
O26 P8 1.610906 1_556
O26 P0 1.620443 1_555
O27 P3 1.500682 1_555
O28 P7 1.507078 1_555
O29 P14 1.507078 1_555
O30 P9 1.483304 1_555
O31 P6 1.497983 1_555
O32 P1 1.509396 1_555
O33 P13 1.610906 1_555
O33 P15 1.620443 1_555
O34 P5 1.512155 1_555
O35 P14 1.592672 1_455
O35 P9 1.606025 1_555
O36 P11 1.483304 1_555
O37 P13 1.507078 1_555
O38 P10 1.610906 1_554
O38 P6 1.620443 1_555
O39 P12 1.592672 1_655
O39 P4 1.606025 1_555
O40 P0 1.500682 1_555
O41 P1 1.610906 1_555
O41 P3 1.620443 1_555
O42 P2 1.507078 1_555
O43 P15 1.500682 1_555
O44 P6 1.500682 1_555
O45 P7 1.610906 1_556
O45 P0 1.620443 1_555
O46 P0 1.497983 1_555
O47 P7 1.509396 1_555
