# generated using pymatgen
data_Ho2Ti3Si4
_symmetry_space_group_name_H-M   'P 1'
_cell_length_a   7.02877479
_cell_length_b   7.02876590
_cell_length_c   12.90650719
_cell_angle_alpha   89.99985948
_cell_angle_beta   90.00004283
_cell_angle_gamma   89.99996976
_symmetry_Int_Tables_number   1
_chemical_formula_structural   Ho2Ti3Si4
_chemical_formula_sum   'Ho8 Ti12 Si16'
_cell_volume   637.62808075
_cell_formula_units_Z   4
loop_
 _symmetry_equiv_pos_site_id
 _symmetry_equiv_pos_as_xyz
  1  'x, y, z'
loop_
 _atom_site_type_symbol
 _atom_site_label
 _atom_site_symmetry_multiplicity
 _atom_site_fract_x
 _atom_site_fract_y
 _atom_site_fract_z
 _atom_site_occupancy
  Ho  Ho0  1  0.34091219  0.00072998  0.46595363  1
  Ho  Ho1  1  0.49926959  0.84090656  0.71598619  1
  Ho  Ho2  1  0.50072415  0.15909237  0.21596208  1
  Ho  Ho3  1  0.84091020  0.49927115  0.28400710  1
  Ho  Ho4  1  0.15909451  0.50072524  0.78404615  1
  Ho  Ho5  1  0.65908639  0.99927161  0.96599081  1
  Ho  Ho6  1  0.00073007  0.34091284  0.53401839  1
  Ho  Ho7  1  0.99927239  0.65908607  0.03403611  1
  Ti  Ti0  1  0.32770864  0.32770791  0.00001223  1
  Ti  Ti1  1  0.17228276  0.82771180  0.24998590  1
  Ti  Ti2  1  0.82771486  0.17228179  0.75001408  1
  Ti  Ti3  1  0.67228984  0.67228718  0.49998734  1
  Ti  Ti4  1  0.15211660  0.00797999  0.87618196  1
  Ti  Ti5  1  0.49202325  0.65211215  0.12615600  1
  Ti  Ti6  1  0.50797063  0.34788322  0.62616361  1
  Ti  Ti7  1  0.65211182  0.49202948  0.87386447  1
  Ti  Ti8  1  0.34787992  0.50798459  0.37381763  1
  Ti  Ti9  1  0.84788862  0.99204011  0.37613488  1
  Ti  Ti10  1  0.00797859  0.15211193  0.12384072  1
  Ti  Ti11  1  0.99203669  0.84788572  0.62384105  1
  Si  Si0  1  0.20386653  0.13095137  0.68362926  1
  Si  Si1  1  0.36904910  0.70386141  0.93362747  1
  Si  Si2  1  0.63094521  0.29613404  0.43362029  1
  Si  Si3  1  0.70386710  0.36905181  0.06638290  1
  Si  Si4  1  0.29614033  0.63094903  0.56637078  1
  Si  Si5  1  0.79612707  0.86905210  0.18361100  1
  Si  Si6  1  0.13095168  0.20386776  0.31637208  1
  Si  Si7  1  0.86905418  0.79612737  0.81638646  1
  Si  Si8  1  0.29080476  0.95185454  0.06426423  1
  Si  Si9  1  0.54813950  0.79080177  0.31425001  1
  Si  Si10  1  0.45186427  0.20919661  0.81427034  1
  Si  Si11  1  0.79079872  0.54813757  0.68574789  1
  Si  Si12  1  0.20919438  0.45186133  0.18573576  1
  Si  Si13  1  0.70919936  0.04814236  0.56425761  1
  Si  Si14  1  0.95185575  0.29080159  0.93574509  1
  Si  Si15  1  0.04814135  0.70919765  0.43573051  1
loop_
_geom_bond_atom_site_label_1
_geom_bond_atom_site_label_2
_geom_bond_distance
_geom_bond_site_symmetry_2
Ho0 Si6 2.818443 1_555
Ho0 Si9 2.851736 1_545
Ho0 Si13 2.902016 1_555
Ho0 Si4 2.921312 1_545
Ho0 Si15 2.930128 1_545
Ho0 Si2 2.939570 1_555
Ho0 Si0 3.107823 1_555
Ho1 Si4 2.818706 1_555
Ho1 Si13 2.851989 1_565
Ho1 Si10 2.901917 1_565
Ho1 Si7 2.921247 1_555
Ho1 Si11 2.930128 1_555
Ho1 Si0 2.939664 1_565
Ho1 Si1 3.107416 1_555
Ho2 Si3 2.818438 1_555
Ho2 Si8 2.851689 1_545
Ho2 Si9 2.901944 1_545
Ho2 Si6 2.921227 1_555
Ho2 Si12 2.930109 1_555
Ho2 Si5 2.939633 1_545
Ho2 Si2 3.107610 1_555
Ho3 Si2 2.818739 1_555
Ho3 Si15 2.851918 1_655
Ho3 Si12 2.901813 1_655
Ho3 Si5 2.921199 1_555
Ho3 Si9 2.930152 1_555
Ho3 Si6 2.939664 1_655
Ho3 Si3 3.107213 1_555
Ho4 Si1 2.818419 1_555
Ho4 Si14 2.851714 1_455
Ho4 Si11 2.902037 1_455
Ho4 Si0 2.921271 1_555
Ho4 Si10 2.930104 1_555
Ho4 Si7 2.939609 1_455
Ho4 Si4 3.107822 1_555
Ho5 Si7 2.818700 1_555
Ho5 Si10 2.851848 1_565
Ho5 Si8 2.901814 1_556
Ho5 Si3 2.921176 1_566
Ho5 Si14 2.930147 1_565
Ho5 Si1 2.939678 1_555
Ho5 Si5 3.107156 1_556
Ho6 Si0 2.818701 1_555
Ho6 Si11 2.851967 1_455
Ho6 Si15 2.901905 1_555
Ho6 Si2 2.921237 1_455
Ho6 Si13 2.930145 1_455
Ho6 Si4 2.939653 1_555
Ho6 Si6 3.107481 1_555
Ho7 Si5 2.818437 1_555
Ho7 Si12 2.851662 1_655
Ho7 Si14 2.901930 1_554
Ho7 Si1 2.921245 1_654
Ho7 Si8 2.930125 1_655
Ho7 Si3 2.939607 1_555
Ho7 Si7 3.107499 1_554
Si0 Si10 2.486752 1_555
Si0 Ti11 2.602079 1_445
Si0 Ti4 2.656221 1_555
Si0 Ti6 2.728335 1_555
Si0 Ti2 2.794392 1_455
Si1 Si8 2.486691 1_556
Si1 Ti7 2.601975 1_555
Si1 Ti5 2.655935 1_556
Si1 Ti4 2.728343 1_565
Si1 Ti0 2.794405 1_556
Si2 Ti8 2.602213 1_555
Si2 Ti6 2.656117 1_555
Si2 Ti9 2.728394 1_545
Si2 Ti3 2.794340 1_555
Si3 Ti5 2.602049 1_555
Si3 Ti7 2.655826 1_554
Si3 Ti10 2.728377 1_655
Si3 Ti0 2.794390 1_555
Si4 Ti6 2.602095 1_555
Si4 Ti8 2.656204 1_555
Si4 Ti11 2.728368 1_455
Si4 Ti3 2.794377 1_555
Si5 Si9 2.486691 1_555
Si5 Ti10 2.602064 1_665
Si5 Ti9 2.655925 1_555
Si5 Ti5 2.728329 1_555
Si5 Ti1 2.794385 1_655
Si6 Ti9 2.601958 1_445
Si6 Ti10 2.655975 1_555
Si6 Ti8 2.728321 1_555
Si6 Ti1 2.794424 1_545
Si7 Ti4 2.602182 1_665
Si7 Ti11 2.656168 1_555
Si7 Ti7 2.728384 1_555
Si7 Ti2 2.794361 1_565
Si8 Ti10 2.554273 1_565
Si8 Ti4 2.645477 1_564
Si8 Ti5 2.660275 1_555
Si8 Ti1 2.683480 1_555
Si8 Ti0 2.781005 1_565
Si9 Ti8 2.554196 1_555
Si9 Ti5 2.645614 1_555
Si9 Ti9 2.660365 1_555
Si9 Ti3 2.683660 1_555
Si9 Ti1 2.781082 1_555
Si10 Ti7 2.554340 1_555
Si10 Ti6 2.645742 1_555
Si10 Ti4 2.660378 1_555
Si10 Ti0 2.683723 1_556
Si10 Ti2 2.781016 1_555
Si11 Si7 2.486708 1_555
Si11 Ti6 2.554303 1_555
Si11 Ti7 2.645864 1_555
Si11 Ti11 2.660440 1_555
Si11 Ti3 2.683914 1_555
Si11 Ti2 2.781084 1_555
Si12 Si6 2.486682 1_555
Si12 Ti5 2.554275 1_555
Si12 Ti8 2.645465 1_555
Si12 Ti10 2.660321 1_555
Si12 Ti0 2.683512 1_555
Si12 Ti1 2.780987 1_555
Si13 Si2 2.486698 1_555
Si13 Ti11 2.554356 1_545
Si13 Ti9 2.645938 1_545
Si13 Ti6 2.660364 1_555
Si13 Ti2 2.683862 1_555
Si13 Ti3 2.781095 1_545
Si14 Si3 2.486687 1_556
Si14 Ti4 2.554209 1_655
Si14 Ti10 2.645635 1_656
Si14 Ti7 2.660277 1_555
Si14 Ti2 2.683581 1_555
Si14 Ti0 2.781066 1_656
Si15 Si4 2.486754 1_555
Si15 Ti9 2.554415 1_455
Si15 Ti11 2.645794 1_455
Si15 Ti8 2.660320 1_555
Si15 Ti1 2.683724 1_555
Si15 Ti3 2.781021 1_455
