# generated using pymatgen
data_Ca3WCl2O5
_symmetry_space_group_name_H-M   'P 1'
_cell_length_a   5.68323000
_cell_length_b   11.29348700
_cell_length_c   11.94038900
_cell_angle_alpha   90.00000000
_cell_angle_beta   90.00000000
_cell_angle_gamma   90.00000000
_symmetry_Int_Tables_number   1
_chemical_formula_structural   Ca3WCl2O5
_chemical_formula_sum   'Ca12 W4 Cl8 O20'
_cell_volume   766.37576780
_cell_formula_units_Z   4
loop_
 _symmetry_equiv_pos_site_id
 _symmetry_equiv_pos_as_xyz
  1  'x, y, z'
loop_
 _atom_site_type_symbol
 _atom_site_label
 _atom_site_symmetry_multiplicity
 _atom_site_fract_x
 _atom_site_fract_y
 _atom_site_fract_z
 _atom_site_occupancy
  Ca  Ca0  1  0.75000000  0.83478200  0.86040500  1
  Ca  Ca1  1  0.25000000  0.16521800  0.13959500  1
  Ca  Ca2  1  0.75000000  0.66521800  0.36040500  1
  Ca  Ca3  1  0.75000000  0.32994500  0.83281600  1
  Ca  Ca4  1  0.25000000  0.91977800  0.34089300  1
  Ca  Ca5  1  0.25000000  0.82994500  0.66718400  1
  Ca  Ca6  1  0.75000000  0.41977800  0.15910700  1
  Ca  Ca7  1  0.25000000  0.58022200  0.84089300  1
  Ca  Ca8  1  0.25000000  0.33478200  0.63959500  1
  Ca  Ca9  1  0.75000000  0.08022200  0.65910700  1
  Ca  Ca10  1  0.75000000  0.17005500  0.33281600  1
  Ca  Ca11  1  0.25000000  0.67005500  0.16718400  1
  W  W0  1  0.25000000  0.41501400  0.30763400  1
  W  W1  1  0.25000000  0.08498600  0.80763400  1
  W  W2  1  0.75000000  0.91501400  0.19236600  1
  W  W3  1  0.75000000  0.58498600  0.69236600  1
  Cl  Cl0  1  0.25000000  0.71551000  0.46682600  1
  Cl  Cl1  1  0.75000000  0.28449000  0.53317400  1
  Cl  Cl2  1  0.25000000  0.08393600  0.52286900  1
  Cl  Cl3  1  0.25000000  0.41606400  0.02286900  1
  Cl  Cl4  1  0.75000000  0.21551000  0.03317400  1
  Cl  Cl5  1  0.75000000  0.91606400  0.47713100  1
  Cl  Cl6  1  0.25000000  0.78449000  0.96682600  1
  Cl  Cl7  1  0.75000000  0.58393600  0.97713100  1
  O  O0  1  0.75000000  0.59085400  0.54376200  1
  O  O1  1  0.25000000  0.09085400  0.95623800  1
  O  O2  1  0.98300300  0.03271100  0.23611300  1
  O  O3  1  0.51699700  0.03271100  0.23611300  1
  O  O4  1  0.47838300  0.29986200  0.25824900  1
  O  O5  1  0.25000000  0.40914600  0.45623800  1
  O  O6  1  0.51699700  0.46728900  0.73611300  1
  O  O7  1  0.48300300  0.96728900  0.76388700  1
  O  O8  1  0.75000000  0.90914600  0.04376200  1
  O  O9  1  0.47838300  0.20013800  0.75824900  1
  O  O10  1  0.01699700  0.96728900  0.76388700  1
  O  O11  1  0.52161700  0.70013800  0.74175100  1
  O  O12  1  0.02161700  0.29986200  0.25824900  1
  O  O13  1  0.52161700  0.79986200  0.24175100  1
  O  O14  1  0.02161700  0.20013800  0.75824900  1
  O  O15  1  0.97838300  0.70013800  0.74175100  1
  O  O16  1  0.98300300  0.46728900  0.73611300  1
  O  O17  1  0.97838300  0.79986200  0.24175100  1
  O  O18  1  0.01699700  0.53271100  0.26388700  1
  O  O19  1  0.48300300  0.53271100  0.26388700  1
loop_
_geom_bond_atom_site_label_1
_geom_bond_atom_site_label_2
_geom_bond_distance
_geom_bond_site_symmetry_2
Ca0 O8 2.344906 1_556
Ca0 O10 2.422829 1_655
Ca0 O7 2.422829 1_555
Ca0 O15 2.450338 1_555
Ca0 O11 2.450338 1_555
Ca0 Cl7 3.157217 1_555
Ca0 Cl6 3.164185 1_655
Ca0 Cl6 3.164185 1_555
Ca1 O1 2.344906 1_554
Ca1 O3 2.422829 1_555
Ca1 O2 2.422829 1_455
Ca1 O4 2.450338 1_555
Ca1 O12 2.450338 1_555
Ca1 Cl3 3.157217 1_555
Ca1 Cl4 3.164185 1_555
Ca1 Cl4 3.164185 1_455
Ca2 O0 2.344906 1_555
Ca2 O18 2.422829 1_655
Ca2 O19 2.422829 1_555
Ca2 O13 2.450338 1_555
Ca2 O17 2.450338 1_555
Ca2 Cl5 3.157217 1_555
Ca2 Cl0 3.164185 1_555
Ca2 Cl0 3.164185 1_655
Ca3 O14 2.307533 1_655
Ca3 O9 2.307533 1_555
Ca3 O16 2.343648 1_555
Ca3 O6 2.343648 1_555
Ca3 Cl4 2.719112 1_556
Ca3 Cl7 3.346238 1_555
Ca4 O3 2.344028 1_565
Ca4 O2 2.344028 1_465
Ca4 O13 2.370297 1_555
Ca4 O17 2.370297 1_455
Ca4 Cl0 2.753699 1_555
Ca4 Cl2 2.856282 1_565
Ca4 Cl5 3.274569 1_455
Ca4 Cl5 3.274569 1_555
Ca5 O11 2.307533 1_555
Ca5 O15 2.307533 1_455
Ca5 O7 2.343648 1_555
Ca5 O10 2.343648 1_555
Ca5 Cl0 2.719112 1_555
Ca5 Cl2 3.346238 1_565
Ca6 O18 2.344028 1_655
Ca6 O19 2.344028 1_555
Ca6 O12 2.370297 1_655
Ca6 O4 2.370297 1_555
Ca6 Cl4 2.753699 1_555
Ca6 Cl7 2.856282 1_554
Ca6 Cl3 3.274569 1_655
Ca6 Cl3 3.274569 1_555
Ca7 O6 2.344028 1_555
Ca7 O16 2.344028 1_455
Ca7 O11 2.370297 1_555
Ca7 O15 2.370297 1_455
Ca7 Cl6 2.753699 1_555
Ca7 Cl3 2.856282 1_556
Ca7 Cl7 3.274569 1_455
Ca7 Cl7 3.274569 1_555
Ca8 O5 2.344906 1_555
Ca8 O6 2.422829 1_555
Ca8 O16 2.422829 1_455
Ca8 O9 2.450338 1_555
Ca8 O14 2.450338 1_555
Ca8 Cl2 3.157217 1_555
Ca8 Cl1 3.164185 1_455
Ca8 Cl1 3.164185 1_555
Ca9 O10 2.344028 1_645
Ca9 O7 2.344028 1_545
Ca9 O14 2.370297 1_655
Ca9 O9 2.370297 1_555
Ca9 Cl1 2.753699 1_555
Ca9 Cl5 2.856282 1_545
Ca9 Cl2 3.274569 1_555
Ca9 Cl2 3.274569 1_655
Ca10 O12 2.307533 1_655
Ca10 O4 2.307533 1_555
Ca10 O2 2.343648 1_555
Ca10 O3 2.343648 1_555
Ca10 Cl1 2.719112 1_555
Ca10 Cl5 3.346238 1_545
Ca11 O13 2.307533 1_555
Ca11 O17 2.307533 1_455
Ca11 O19 2.343648 1_555
Ca11 O18 2.343648 1_555
Ca11 Cl6 2.719112 1_554
Ca11 Cl3 3.346238 1_555
O0 W3 1.775627 1_555
O1 W1 1.775627 1_555
O2 W2 1.947610 1_545
O3 W2 1.947610 1_545
O4 W0 1.929667 1_555
O5 W0 1.775627 1_555
O6 W3 1.947610 1_555
O7 W1 1.947610 1_565
O8 W2 1.775627 1_555
O9 W1 1.929667 1_555
O10 W1 1.947610 1_565
O11 W3 1.929667 1_555
O12 W0 1.929667 1_555
O13 W2 1.929667 1_555
O14 W1 1.929667 1_555
O15 W3 1.929667 1_555
O16 W3 1.947610 1_555
O17 W2 1.929667 1_555
O18 W0 1.947610 1_555
O19 W0 1.947610 1_555
