# generated using pymatgen
data_Yb5Au3
_symmetry_space_group_name_H-M   'P 1'
_cell_length_a   9.05117658
_cell_length_b   9.05117658
_cell_length_c   9.05117658
_cell_angle_alpha   129.26907983
_cell_angle_beta   129.26907983
_cell_angle_gamma   74.57799658
_symmetry_Int_Tables_number   1
_chemical_formula_structural   Yb5Au3
_chemical_formula_sum   'Yb10 Au6'
_cell_volume   433.05591420
_cell_formula_units_Z   2
loop_
 _symmetry_equiv_pos_site_id
 _symmetry_equiv_pos_as_xyz
  1  'x, y, z'
loop_
 _atom_site_type_symbol
 _atom_site_label
 _atom_site_symmetry_multiplicity
 _atom_site_fract_x
 _atom_site_fract_y
 _atom_site_fract_z
 _atom_site_occupancy
  Yb  Yb0  1  0.52537200  0.02537200  0.83716300  1
  Yb  Yb1  1  0.31179100  0.47462800  0.50000000  1
  Yb  Yb2  1  0.47462800  0.97462800  0.16283700  1
  Yb  Yb3  1  0.02537200  0.18820900  0.50000000  1
  Yb  Yb4  1  0.18820900  0.68820900  0.16283700  1
  Yb  Yb5  1  0.68820900  0.52537200  0.50000000  1
  Yb  Yb6  1  0.50000000  0.50000000  0.00000000  1
  Yb  Yb7  1  0.97462800  0.81179100  0.50000000  1
  Yb  Yb8  1  0.81179100  0.31179100  0.83716300  1
  Yb  Yb9  1  0.00000000  0.00000000  0.00000000  1
  Au  Au0  1  0.63291100  0.86708900  0.50000000  1
  Au  Au1  1  0.25000000  0.25000000  0.00000000  1
  Au  Au2  1  0.36708900  0.13291100  0.50000000  1
  Au  Au3  1  0.13291100  0.63291100  0.76582100  1
  Au  Au4  1  0.86708900  0.36708900  0.23417900  1
  Au  Au5  1  0.75000000  0.75000000  0.00000000  1
loop_
_geom_bond_atom_site_label_1
_geom_bond_atom_site_label_2
_geom_bond_distance
_geom_bond_site_symmetry_2
Au0 Yb7 2.998910 1_555
Au0 Yb5 2.998910 1_555
Au0 Yb6 3.027578 1_555
Au0 Yb9 3.027578 1_666
Au0 Yb8 3.129997 1_565
Au0 Yb4 3.129997 1_555
Au0 Yb0 3.129997 1_565
Au0 Yb2 3.129997 1_555
Au1 Yb0 3.268030 1_554
Au1 Yb2 3.268030 1_545
Au1 Yb3 3.268030 1_554
Au1 Yb8 3.268030 1_454
Au1 Yb4 3.268030 1_555
Au1 Yb7 3.268030 1_444
Au1 Yb5 3.268030 1_555
Au1 Yb1 3.268030 1_555
Au1 Yb6 3.600512 1_555
Au1 Yb9 3.600512 1_555
Au2 Yb1 2.998910 1_555
Au2 Yb3 2.998910 1_555
Au2 Yb9 3.027578 1_555
Au2 Yb6 3.027578 1_556
Au2 Yb0 3.129997 1_555
Au2 Yb2 3.129997 1_545
Au2 Yb4 3.129997 1_545
Au2 Yb8 3.129997 1_555
Au3 Yb2 2.998909 1_556
Au3 Yb4 2.998919 1_556
Au3 Yb6 3.027580 1_556
Au3 Yb9 3.027580 1_566
Au3 Yb1 3.129990 1_555
Au3 Yb7 3.129990 1_455
Au3 Yb3 3.130000 1_555
Au3 Yb5 3.130000 1_455
Au4 Yb0 2.998909 1_554
Au4 Yb8 2.998919 1_554
Au4 Yb6 3.027580 1_555
Au4 Yb9 3.027580 1_655
Au4 Yb3 3.129990 1_655
Au4 Yb5 3.129990 1_555
Au4 Yb1 3.130000 1_655
Au4 Yb7 3.130000 1_555
Au5 Yb0 3.268030 1_564
Au5 Yb7 3.268030 1_555
Au5 Yb5 3.268030 1_554
Au5 Yb2 3.268030 1_555
Au5 Yb3 3.268030 1_665
Au5 Yb8 3.268030 1_554
Au5 Yb1 3.268030 1_554
Au5 Yb4 3.268030 1_655
Au5 Yb6 3.600512 1_555
Au5 Yb9 3.600512 1_665
