# generated using pymatgen
data_GdTiO3
_symmetry_space_group_name_H-M   'P 1'
_cell_length_a   5.41192900
_cell_length_b   5.70620300
_cell_length_c   7.74671900
_cell_angle_alpha   90.00000000
_cell_angle_beta   90.00000000
_cell_angle_gamma   90.00000000
_symmetry_Int_Tables_number   1
_chemical_formula_structural   GdTiO3
_chemical_formula_sum   'Gd4 Ti4 O12'
_cell_volume   239.23081017
_cell_formula_units_Z   4
loop_
 _symmetry_equiv_pos_site_id
 _symmetry_equiv_pos_as_xyz
  1  'x, y, z'
loop_
 _atom_site_type_symbol
 _atom_site_label
 _atom_site_symmetry_multiplicity
 _atom_site_fract_x
 _atom_site_fract_y
 _atom_site_fract_z
 _atom_site_occupancy
  Gd  Gd0  1  0.98164500  0.06911700  0.25000000  1
  Gd  Gd1  1  0.48164500  0.43088300  0.75000000  1
  Gd  Gd2  1  0.51835500  0.56911700  0.25000000  1
  Gd  Gd3  1  0.01835500  0.93088300  0.75000000  1
  Ti  Ti0  1  0.00000000  0.50000000  0.00000000  1
  Ti  Ti1  1  0.50000000  0.00000000  0.00000000  1
  Ti  Ti2  1  0.50000000  0.00000000  0.50000000  1
  Ti  Ti3  1  0.00000000  0.50000000  0.50000000  1
  O  O0  1  0.10526600  0.46766100  0.25000000  1
  O  O1  1  0.60526600  0.03233900  0.75000000  1
  O  O2  1  0.39473400  0.96766100  0.25000000  1
  O  O3  1  0.89473400  0.53233900  0.75000000  1
  O  O4  1  0.69467200  0.29999200  0.05261800  1
  O  O5  1  0.19467200  0.20000800  0.94738200  1
  O  O6  1  0.80532800  0.79999200  0.44738200  1
  O  O7  1  0.30532800  0.70000800  0.55261800  1
  O  O8  1  0.30532800  0.70000800  0.94738200  1
  O  O9  1  0.80532800  0.79999200  0.05261800  1
  O  O10  1  0.19467200  0.20000800  0.55261800  1
  O  O11  1  0.69467200  0.29999200  0.44738200  1
loop_
_geom_bond_atom_site_label_1
_geom_bond_atom_site_label_2
_geom_bond_distance
_geom_bond_site_symmetry_2
Gd0 O2 2.309351 1_645
Gd0 O9 2.367885 1_545
Gd0 O6 2.367885 1_545
Gd0 O0 2.370540 1_655
Gd0 O11 2.546699 1_555
Gd0 O4 2.546699 1_555
Gd0 O10 2.717116 1_655
Gd0 O5 2.717116 1_654
Gd1 O3 2.309351 1_555
Gd1 O8 2.367885 1_555
Gd1 O7 2.367885 1_555
Gd1 O1 2.370540 1_555
Gd1 O5 2.546699 1_555
Gd1 O10 2.546699 1_555
Gd1 O11 2.717116 1_555
Gd1 O4 2.717116 1_556
Gd2 O0 2.309351 1_555
Gd2 O4 2.367885 1_555
Gd2 O11 2.367885 1_555
Gd2 O2 2.370540 1_555
Gd2 O9 2.546699 1_555
Gd2 O6 2.546699 1_555
Gd2 O7 2.717116 1_555
Gd2 O8 2.717116 1_554
Gd3 O1 2.309351 1_465
Gd3 O5 2.367885 1_565
Gd3 O10 2.367885 1_565
Gd3 O3 2.370540 1_455
Gd3 O8 2.546699 1_555
Gd3 O7 2.546699 1_555
Gd3 O6 2.717116 1_455
Gd3 O9 2.717116 1_456
O0 Ti3 2.027148 1_555
O0 Ti0 2.027148 1_555
O1 Ti2 2.027148 1_555
O1 Ti1 2.027148 1_556
O2 Ti2 2.027148 1_565
O2 Ti1 2.027148 1_565
O3 Ti3 2.027148 1_655
O3 Ti0 2.027148 1_656
O4 Ti0 2.049184 1_655
O4 Ti1 2.050959 1_555
O5 Ti1 2.049184 1_556
O5 Ti0 2.050959 1_556
O6 Ti2 2.049184 1_565
O6 Ti3 2.050959 1_655
O7 Ti3 2.049184 1_555
O7 Ti2 2.050959 1_565
O8 Ti0 2.049184 1_556
O8 Ti1 2.050959 1_566
O9 Ti1 2.049184 1_565
O9 Ti0 2.050959 1_655
O10 Ti2 2.049184 1_555
O10 Ti3 2.050959 1_555
O11 Ti3 2.049184 1_655
O11 Ti2 2.050959 1_555
