# generated using pymatgen
data_DyCo3
_symmetry_space_group_name_H-M   'P 1'
_cell_length_a   8.51091805
_cell_length_b   8.51091798
_cell_length_c   8.51091869
_cell_angle_alpha   34.23917678
_cell_angle_beta   34.23917432
_cell_angle_gamma   34.23917946
_symmetry_Int_Tables_number   1
_chemical_formula_structural   DyCo3
_chemical_formula_sum   'Dy3 Co9'
_cell_volume   174.03573720
_cell_formula_units_Z   3
loop_
 _symmetry_equiv_pos_site_id
 _symmetry_equiv_pos_as_xyz
  1  'x, y, z'
loop_
 _atom_site_type_symbol
 _atom_site_label
 _atom_site_symmetry_multiplicity
 _atom_site_fract_x
 _atom_site_fract_y
 _atom_site_fract_z
 _atom_site_occupancy
  Dy  Dy0  1  0.14199837  0.14199837  0.14199837  1
  Dy  Dy1  1  0.85800163  0.85800163  0.85800163  1
  Dy  Dy2  1  -0.00000000  0.00000000  0.00000000  1
  Co  Co0  1  0.57412217  0.09299403  0.57412217  1
  Co  Co1  1  0.57412217  0.57412217  0.09299403  1
  Co  Co2  1  0.32812294  0.32812294  0.32812294  1
  Co  Co3  1  0.90700597  0.42587783  0.42587783  1
  Co  Co4  1  0.09299403  0.57412217  0.57412217  1
  Co  Co5  1  0.42587783  0.90700597  0.42587783  1
  Co  Co6  1  0.67187706  0.67187706  0.67187706  1
  Co  Co7  1  0.50000000  0.50000000  0.50000000  1
  Co  Co8  1  0.42587783  0.42587783  0.90700597  1
loop_
_geom_bond_atom_site_label_1
_geom_bond_atom_site_label_2
_geom_bond_distance
_geom_bond_site_symmetry_2
Co0 Co6 2.348204 1_545
Co0 Co1 2.410774 1_555
Co0 Co4 2.410774 1_555
Co0 Co2 2.482847 1_555
Co0 Co7 2.495402 1_555
Co0 Co1 2.599895 1_546
Co0 Co4 2.599895 1_645
Co0 Dy0 2.909743 1_655
Co0 Dy0 2.909743 1_556
Co0 Dy1 3.057368 1_545
Co0 Dy2 3.163559 1_556
Co0 Dy2 3.163559 1_655
Co1 Co6 2.348204 1_554
Co1 Co4 2.410773 1_555
Co1 Co2 2.482847 1_555
Co1 Co7 2.495403 1_555
Co1 Co4 2.599895 1_654
Co1 Dy0 2.909743 1_565
Co1 Dy0 2.909743 1_655
Co1 Dy1 3.057367 1_554
Co1 Dy2 3.163559 1_655
Co1 Dy2 3.163560 1_565
Co2 Co3 2.348204 1_455
Co2 Co5 2.348204 1_545
Co2 Co8 2.348204 1_554
Co2 Co4 2.482847 1_555
Co2 Dy2 2.895615 1_556
Co2 Dy2 2.895615 1_655
Co2 Dy2 2.895615 1_565
Co3 Co8 2.410773 1_555
Co3 Co5 2.410774 1_555
Co3 Co6 2.482847 1_555
Co3 Co7 2.495403 1_555
Co3 Co8 2.599895 1_654
Co3 Co5 2.599895 1_645
Co3 Dy1 2.909743 1_545
Co3 Dy1 2.909743 1_554
Co3 Dy0 3.057367 1_655
Co3 Dy2 3.163559 1_665
Co3 Dy2 3.163560 1_656
Co4 Co6 2.348204 1_455
Co4 Co7 2.495403 1_555
Co4 Dy0 2.909743 1_565
Co4 Dy0 2.909743 1_556
Co4 Dy1 3.057367 1_455
Co4 Dy2 3.163559 1_556
Co4 Dy2 3.163560 1_565
Co5 Co8 2.410774 1_555
Co5 Co6 2.482847 1_555
Co5 Co7 2.495402 1_555
Co5 Co8 2.599895 1_564
Co5 Dy1 2.909743 1_455
Co5 Dy1 2.909743 1_554
Co5 Dy0 3.057368 1_565
Co5 Dy2 3.163559 1_665
Co5 Dy2 3.163559 1_566
Co6 Co8 2.482847 1_555
Co6 Dy2 2.895615 1_665
Co6 Dy2 2.895615 1_566
Co6 Dy2 2.895615 1_656
Co7 Co8 2.495403 1_555
Co7 Dy0 2.952932 1_556
Co7 Dy1 2.952932 1_554
Co7 Dy1 2.952932 1_455
Co7 Dy0 2.952932 1_655
Co7 Dy0 2.952932 1_565
Co7 Dy1 2.952932 1_545
Co8 Dy1 2.909743 1_545
Co8 Dy1 2.909743 1_455
Co8 Dy0 3.057367 1_556
Co8 Dy2 3.163559 1_566
Co8 Dy2 3.163560 1_656
