# generated using pymatgen
data_Rb16Sn16F47
_symmetry_space_group_name_H-M   'P 1'
_cell_length_a   10.33243200
_cell_length_b   10.36384497
_cell_length_c   16.98735740
_cell_angle_alpha   72.34711533
_cell_angle_beta   72.54675713
_cell_angle_gamma   80.36036461
_symmetry_Int_Tables_number   1
_chemical_formula_structural   Rb16Sn16F47
_chemical_formula_sum   'Rb16 Sn16 F47'
_cell_volume   1647.74336107
_cell_formula_units_Z   1
loop_
 _symmetry_equiv_pos_site_id
 _symmetry_equiv_pos_as_xyz
  1  'x, y, z'
loop_
 _atom_site_type_symbol
 _atom_site_label
 _atom_site_symmetry_multiplicity
 _atom_site_fract_x
 _atom_site_fract_y
 _atom_site_fract_z
 _atom_site_occupancy
  Rb  Rb0  1  0.51395600  0.98319000  0.87305200  1
  Rb  Rb1  1  0.88448100  0.85217100  0.77953000  1
  Rb  Rb2  1  0.14784100  0.11511100  0.97080400  1
  Rb  Rb3  1  0.01794300  0.48570900  0.87846000  1
  Rb  Rb4  1  0.98075200  0.51443300  0.63025600  1
  Rb  Rb5  1  0.84515300  0.89117200  0.53224000  1
  Rb  Rb6  1  0.11206000  0.14384600  0.72235000  1
  Rb  Rb7  1  0.48939900  0.02081300  0.62720800  1
  Rb  Rb8  1  0.50865900  0.97767300  0.37443100  1
  Rb  Rb9  1  0.89035100  0.84930100  0.28073600  1
  Rb  Rb10  1  0.15461200  0.10936300  0.46777400  1
  Rb  Rb11  1  0.01840800  0.48447700  0.37121000  1
  Rb  Rb12  1  0.97819100  0.50883100  0.12272300  1
  Rb  Rb13  1  0.85526900  0.88754900  0.02783100  1
  Rb  Rb14  1  0.11658600  0.14815600  0.21990400  1
  Rb  Rb15  1  0.48221300  0.01317500  0.12498700  1
  Sn  Sn0  1  0.37036600  0.38315000  0.97480500  1
  Sn  Sn1  1  0.24500400  0.75548100  0.87603300  1
  Sn  Sn2  1  0.74919700  0.25082100  0.87481600  1
  Sn  Sn3  1  0.61538900  0.63138100  0.77607100  1
  Sn  Sn4  1  0.38210100  0.36105100  0.72651400  1
  Sn  Sn5  1  0.25363700  0.74703600  0.62750900  1
  Sn  Sn6  1  0.78272100  0.25371200  0.61226800  1
  Sn  Sn7  1  0.63638300  0.61948900  0.52373800  1
  Sn  Sn8  1  0.36305200  0.38117700  0.47681300  1
  Sn  Sn9  1  0.21691300  0.74692800  0.38832400  1
  Sn  Sn10  1  0.74522400  0.25290800  0.37331300  1
  Sn  Sn11  1  0.61854900  0.64309400  0.27235800  1
  Sn  Sn12  1  0.38209000  0.37291900  0.22375100  1
  Sn  Sn13  1  0.25068100  0.74776000  0.12525000  1
  Sn  Sn14  1  0.74619000  0.21593100  0.13659500  1
  Sn  Sn15  1  0.63855800  0.61815000  0.02356400  1
  F  F0  1  0.83615500  0.67676900  0.95983000  1
  F  F1  1  0.27566900  0.84133300  0.98047900  1
  F  F2  1  0.61402400  0.70902400  0.88689800  1
  F  F3  1  0.42596900  0.18126500  0.96970400  1
  F  F4  1  0.95343300  0.23532700  0.87186800  1
  F  F5  1  0.08748100  0.91313200  0.87419000  1
  F  F6  1  0.76666300  0.04747000  0.87699600  1
  F  F7  1  0.81826100  0.57476500  0.78142900  1
  F  F8  1  0.29399300  0.38649500  0.86150700  1
  F  F9  1  0.66697700  0.83017000  0.71206700  1
  F  F10  1  0.15598100  0.72469500  0.76753000  1
  F  F11  1  0.84359100  0.27367400  0.72761200  1
  F  F12  1  0.32222000  0.16459900  0.79073400  1
  F  F13  1  0.70887500  0.61088300  0.63847700  1
  F  F14  1  0.62864400  0.14917800  0.70382700  1
  F  F15  1  0.18163400  0.42943300  0.71977900  1
  F  F16  1  0.23909300  0.95174000  0.62248300  1
  F  F17  1  0.92057700  0.08248600  0.62182500  1
  F  F18  1  0.05213400  0.76535200  0.62184700  1
  F  F19  1  0.58194200  0.82051000  0.52912000  1
  F  F20  1  0.37217700  0.28607200  0.61397500  1
  F  F21  1  0.84350200  0.65809300  0.46714100  1
  F  F22  1  0.72238700  0.16273800  0.52095300  1
  F  F23  1  0.27778900  0.83964200  0.47626100  1
  F  F24  1  0.15635700  0.34170400  0.53286900  1
  F  F25  1  0.62804300  0.71456600  0.38562500  1
  F  F26  1  0.41948200  0.18091500  0.47017800  1
  F  F27  1  0.94837800  0.23502500  0.37517500  1
  F  F28  1  0.07844000  0.91802900  0.37709700  1
  F  F29  1  0.75962100  0.04934200  0.37552200  1
  F  F30  1  0.81827700  0.57170100  0.28037000  1
  F  F31  1  0.37061300  0.85095800  0.29535200  1
  F  F32  1  0.28998600  0.38970700  0.36112700  1
  F  F33  1  0.67731500  0.84159700  0.21016100  1
  F  F34  1  0.15601000  0.72382700  0.27263500  1
  F  F35  1  0.84094300  0.27240900  0.22929200  1
  F  F36  1  0.33806900  0.17156700  0.28634000  1
  F  F37  1  0.71084700  0.62271900  0.13683500  1
  F  F38  1  0.17942500  0.42334800  0.21907800  1
  F  F39  1  0.22960200  0.95139100  0.12376600  1
  F  F40  1  0.91877300  0.08068900  0.12630800  1
  F  F41  1  0.04730400  0.75919100  0.12668800  1
  F  F42  1  0.57319000  0.81868600  0.02948400  1
  F  F43  1  0.84866800  0.37223200  0.04595100  1
  F  F44  1  0.38973400  0.29125400  0.11234600  1
  F  F45  1  0.72675000  0.15710600  0.02142100  1
  F  F46  1  0.17047100  0.33343500  0.03692800  1
loop_
_geom_bond_atom_site_label_1
_geom_bond_atom_site_label_2
_geom_bond_distance
_geom_bond_site_symmetry_2
F0 Sn15 2.097653 1_556
F0 Rb13 2.820849 1_556
F0 Rb3 2.866456 1_655
F0 Rb1 2.990740 1_555
F1 Sn13 2.304707 1_556
F1 Sn1 2.330053 1_555
F1 Rb2 2.900788 1_565
F1 Rb0 2.905758 1_555
F2 Sn3 2.256366 1_555
F2 Sn15 2.299570 1_556
F2 Rb0 2.820398 1_555
F2 Rb1 3.166481 1_555
F3 Sn0 2.095911 1_555
F3 Rb15 2.850297 1_556
F3 Rb0 2.874032 1_545
F3 Rb2 3.057556 1_555
F4 Sn2 2.075926 1_555
F4 Rb3 2.826783 1_655
F4 Rb2 2.885960 1_655
F4 Rb6 2.911927 1_655
F5 Sn1 2.104406 1_555
F5 Rb6 2.916289 1_565
F5 Rb13 2.945483 1_456
F5 Rb1 3.235350 1_455
F5 Rb2 3.255644 1_565
F6 Sn2 2.074798 1_555
F6 Rb0 2.824992 1_545
F6 Rb1 2.884144 1_545
F6 Rb13 2.910978 1_546
F7 Sn3 2.101573 1_555
F7 Rb4 2.800095 1_555
F7 Rb3 2.881858 1_655
F7 Rb1 3.053534 1_555
F8 Sn0 2.278055 1_555
F8 Sn4 2.278384 1_555
F8 Rb3 2.824943 1_555
F8 Rb2 3.195570 1_555
F9 Sn3 2.091013 1_555
F9 Rb7 2.827258 1_565
F9 Rb1 2.879398 1_555
F9 Rb5 2.994269 1_555
F10 Sn5 2.243648 1_555
F10 Sn1 2.411875 1_555
F10 Rb1 2.869764 1_455
F10 Rb3 2.908603 1_555
F11 Sn6 2.303523 1_555
F11 Sn2 2.348522 1_555
F11 Rb6 2.861357 1_655
F11 Rb4 2.871433 1_555
F12 Sn4 2.094779 1_555
F12 Rb6 2.816392 1_555
F12 Rb0 2.869634 1_545
F12 Rb2 2.986343 1_555
F13 Sn7 2.261848 1_555
F13 Sn3 2.306409 1_555
F13 Rb4 2.796238 1_555
F13 Rb5 3.216193 1_555
F14 Sn6 2.048800 1_555
F14 Rb0 2.875309 1_545
F14 Rb7 2.889348 1_555
F15 Sn4 2.099295 1_555
F15 Rb4 2.804536 1_455
F15 Rb3 2.890538 1_555
F15 Rb6 3.145522 1_555
F16 Sn5 2.078892 1_555
F16 Rb7 2.826146 1_565
F16 Rb6 2.898686 1_565
F16 Rb10 2.938051 1_565
F17 Sn6 2.078886 1_555
F17 Rb10 2.959872 1_655
F17 Rb1 2.972218 1_545
F17 Rb5 3.148565 1_545
F17 Rb6 3.215824 1_655
F18 Sn5 2.087287 1_555
F18 Rb4 2.771417 1_455
F18 Rb5 2.899321 1_455
F18 Rb1 3.023529 1_455
F19 Sn7 2.087420 1_555
F19 Rb8 2.883762 1_555
F19 Rb7 2.911614 1_565
F19 Rb5 2.951678 1_555
F20 Sn8 2.262116 1_555
F20 Sn4 2.305291 1_555
F20 Rb7 2.783609 1_555
F20 Rb6 3.081927 1_555
F21 Sn7 2.117416 1_555
F21 Rb11 2.842883 1_655
F21 Rb5 2.950183 1_555
F21 Rb9 3.127970 1_555
F21 Rb4 3.324688 1_555
F22 Sn6 2.312516 1_555
F22 Sn10 2.348720 1_555
F22 Rb7 2.861101 1_555
F22 Rb5 2.861816 1_545
F23 Sn9 2.277497 1_555
F23 Sn5 2.405153 1_555
F23 Rb8 2.809955 1_555
F23 Rb10 2.851092 1_565
F24 Sn8 2.114616 1_555
F24 Rb4 2.853312 1_455
F24 Rb10 2.943250 1_555
F24 Rb6 3.194116 1_555
F24 Rb11 3.307512 1_555
F25 Sn7 2.274559 1_555
F25 Sn11 2.294001 1_555
F25 Rb8 2.773615 1_555
F25 Rb9 3.054818 1_555
F26 Sn8 2.087458 1_555
F26 Rb8 2.908632 1_545
F26 Rb7 2.908747 1_555
F26 Rb10 2.967566 1_555
F27 Sn10 2.085054 1_555
F27 Rb11 2.775505 1_655
F27 Rb10 2.924036 1_655
F27 Rb14 2.992436 1_655
F28 Sn9 2.082500 1_555
F28 Rb14 2.965628 1_565
F28 Rb5 2.966894 1_455
F28 Rb10 3.166495 1_565
F28 Rb9 3.169028 1_455
F29 Sn10 2.079594 1_555
F29 Rb8 2.821019 1_545
F29 Rb9 2.915032 1_545
F29 Rb5 2.972364 1_545
F30 Sn11 2.102565 1_555
F30 Rb11 2.813616 1_655
F30 Rb12 2.893064 1_555
F30 Rb9 3.092397 1_555
F31 Sn9 2.053036 1_555
F31 Rb15 2.868471 1_565
F31 Rb8 2.900058 1_555
F32 Sn8 2.280792 1_555
F32 Sn12 2.289212 1_555
F32 Rb11 2.785446 1_555
F32 Rb10 3.213834 1_555
F33 Sn11 2.105356 1_555
F33 Rb9 2.826445 1_555
F33 Rb15 2.882348 1_565
F33 Rb13 3.030408 1_555
F34 Sn9 2.322320 1_555
F34 Sn13 2.349962 1_555
F34 Rb9 2.816201 1_455
F34 Rb11 2.865744 1_555
F35 Sn10 2.306543 1_555
F35 Sn14 2.335897 1_555
F35 Rb12 2.868001 1_555
F35 Rb14 2.901550 1_655
F36 Sn12 2.091439 1_555
F36 Rb8 2.820701 1_545
F36 Rb14 2.910472 1_555
F36 Rb10 3.034411 1_555
F37 Sn11 2.272554 1_555
F37 Sn15 2.278553 1_555
F37 Rb12 2.786300 1_555
F37 Rb13 3.133755 1_555
F38 Sn12 2.091031 1_555
F38 Rb11 2.812272 1_555
F38 Rb12 2.886585 1_455
F38 Rb14 3.024295 1_555
F39 Sn13 2.078209 1_555
F39 Rb15 2.797005 1_565
F39 Rb14 2.875347 1_565
F39 Rb2 2.916707 1_564
F40 Sn14 2.073520 1_555
F40 Rb2 2.944148 1_654
F40 Rb9 2.945692 1_545
F40 Rb14 3.208821 1_655
F40 Rb13 3.219452 1_545
F41 Sn13 2.077984 1_555
F41 Rb12 2.828832 1_455
F41 Rb13 2.878655 1_455
F41 Rb9 2.963007 1_455
F42 Sn15 2.098007 1_555
F42 Rb15 2.830626 1_565
F42 Rb0 2.867268 1_554
F42 Rb13 3.104864 1_555
F43 Sn14 2.049337 1_555
F43 Rb3 2.865634 1_654
F43 Rb12 2.880491 1_555
F44 Sn12 2.272319 1_555
F44 Sn0 2.296341 1_554
F44 Rb15 2.844359 1_555
F44 Rb14 3.188756 1_555
F45 Sn14 2.289125 1_555
F45 Sn2 2.336944 1_554
F45 Rb13 2.870457 1_545
F45 Rb15 2.951003 1_555
F46 Sn0 2.089062 1_554
F46 Rb12 2.834768 1_455
F46 Rb2 2.883111 1_554
F46 Rb14 3.059184 1_555
F46 Rb3 3.369899 1_554
