# generated using pymatgen
data_Co3SnC12BrO12
_symmetry_space_group_name_H-M   'P 1'
_cell_length_a   10.49916782
_cell_length_b   10.49916782
_cell_length_c   12.28609800
_cell_angle_alpha   90.00000000
_cell_angle_beta   90.00000000
_cell_angle_gamma   119.99999887
_symmetry_Int_Tables_number   1
_chemical_formula_structural   Co3SnC12BrO12
_chemical_formula_sum   'Co6 Sn2 C24 Br2 O24'
_cell_volume   1172.88212356
_cell_formula_units_Z   2
loop_
 _symmetry_equiv_pos_site_id
 _symmetry_equiv_pos_as_xyz
  1  'x, y, z'
loop_
 _atom_site_type_symbol
 _atom_site_label
 _atom_site_symmetry_multiplicity
 _atom_site_fract_x
 _atom_site_fract_y
 _atom_site_fract_z
 _atom_site_occupancy
  Co  Co0  1  0.11313300  0.40321100  0.94237100  1
  Co  Co1  1  0.88686700  0.59678900  0.44237100  1
  Co  Co2  1  0.40321100  0.29007700  0.44237100  1
  Co  Co3  1  0.29007700  0.88686700  0.94237100  1
  Co  Co4  1  0.70992300  0.11313300  0.44237100  1
  Co  Co5  1  0.59678900  0.70992300  0.94237100  1
  Sn  Sn0  1  0.66666700  0.33333300  0.49717100  1
  Sn  Sn1  1  0.33333300  0.66666700  0.99717100  1
  C  C0  1  0.16797700  0.83155900  0.05507400  1
  C  C1  1  0.66358200  0.83202300  0.05507400  1
  C  C2  1  0.77272600  0.74642800  0.90160600  1
  C  C3  1  0.99242100  0.47176400  0.97160800  1
  C  C4  1  0.97370200  0.22727400  0.90160600  1
  C  C5  1  0.20830000  0.43980500  0.81672500  1
  C  C6  1  0.22727400  0.25357200  0.40160600  1
  C  C7  1  0.47934300  0.00757900  0.97160800  1
  C  C8  1  0.76849500  0.20830000  0.31672500  1
  C  C9  1  0.83202300  0.16844100  0.55507400  1
  C  C10  1  0.83155900  0.66358200  0.55507400  1
  C  C11  1  0.16844100  0.33641800  0.05507400  1
  C  C12  1  0.74642800  0.97370200  0.40160600  1
  C  C13  1  0.43980500  0.23150500  0.31672500  1
  C  C14  1  0.02629800  0.77272600  0.40160600  1
  C  C15  1  0.33641800  0.16797700  0.55507400  1
  C  C16  1  0.52065700  0.99242100  0.47160800  1
  C  C17  1  0.52823600  0.52065700  0.97160800  1
  C  C18  1  0.79170000  0.56019500  0.31672500  1
  C  C19  1  0.23150500  0.79170000  0.81672500  1
  C  C20  1  0.00757900  0.52823600  0.47160800  1
  C  C21  1  0.25357200  0.02629800  0.90160600  1
  C  C22  1  0.47176400  0.47934300  0.47160800  1
  C  C23  1  0.56019500  0.76849500  0.81672500  1
  Br  Br0  1  0.33333300  0.66666700  0.20669000  1
  Br  Br1  1  0.66666700  0.33333300  0.70669000  1
  O  O0  1  0.73580500  0.54746900  0.23291900  1
  O  O1  1  0.39966800  0.90440000  0.48926900  1
  O  O2  1  0.54746900  0.81166500  0.73291900  1
  O  O3  1  0.72064800  0.91387800  0.12599300  1
  O  O4  1  0.60033200  0.09560000  0.98926900  1
  O  O5  1  0.88416400  0.11070200  0.87541500  1
  O  O6  1  0.22653800  0.11583600  0.87541500  1
  O  O7  1  0.27935200  0.08612200  0.62599300  1
  O  O8  1  0.09560000  0.49526800  0.48926900  1
  O  O9  1  0.77346200  0.88416400  0.37541500  1
  O  O10  1  0.26419500  0.45253100  0.73291900  1
  O  O11  1  0.88929800  0.77346200  0.87541500  1
  O  O12  1  0.11070200  0.22653800  0.37541500  1
  O  O13  1  0.90440000  0.50473200  0.98926900  1
  O  O14  1  0.45253100  0.18833500  0.23291900  1
  O  O15  1  0.91387800  0.19323000  0.62599300  1
  O  O16  1  0.11583600  0.88929800  0.37541500  1
  O  O17  1  0.49526800  0.39966800  0.98926900  1
  O  O18  1  0.18833500  0.73580500  0.73291900  1
  O  O19  1  0.81166500  0.26419500  0.23291900  1
  O  O20  1  0.19323000  0.27935200  0.12599300  1
  O  O21  1  0.08612200  0.80677000  0.12599300  1
  O  O22  1  0.50473200  0.60033200  0.48926900  1
  O  O23  1  0.80677000  0.72064800  0.62599300  1
loop_
_geom_bond_atom_site_label_1
_geom_bond_atom_site_label_2
_geom_bond_distance
_geom_bond_site_symmetry_2
C0 O21 1.158380 1_555
C0 Co3 1.775815 1_554
C1 O3 1.158380 1_555
C1 Co5 1.775815 1_554
C2 O11 1.155281 1_555
C2 Co5 1.761216 1_555
C3 O13 1.157939 1_555
C3 Co0 1.779186 1_655
C4 O5 1.155281 1_555
C4 Co0 1.761213 1_655
C5 O10 1.159315 1_555
C5 Co0 1.773438 1_555
C6 O12 1.155281 1_555
C6 Co2 1.761216 1_555
C7 O4 1.157939 1_555
C7 Co3 1.779194 1_545
C8 O19 1.159317 1_555
C8 Co4 1.773437 1_555
C9 O15 1.158380 1_555
C9 Co4 1.775815 1_555
C10 O23 1.158380 1_555
C10 Co1 1.775820 1_555
C11 O20 1.158380 1_555
C11 Co0 1.775820 1_554
C12 O9 1.155281 1_555
C12 Co4 1.761206 1_565
C13 O14 1.159320 1_555
C13 Co2 1.773433 1_555
C14 O16 1.155281 1_555
C14 Co1 1.761213 1_455
C15 O7 1.158380 1_555
C15 Co2 1.775815 1_555
C16 O1 1.157939 1_555
C16 Co4 1.779194 1_565
C17 O17 1.157939 1_555
C17 Co5 1.779196 1_555
C18 O0 1.159315 1_555
C18 Co1 1.773438 1_555
C19 O18 1.159317 1_555
C19 Co3 1.773437 1_555
C20 O8 1.157939 1_555
C20 Co1 1.779186 1_455
C21 O6 1.155281 1_555
C21 Co3 1.761206 1_545
C22 O22 1.157939 1_555
C22 Co2 1.779196 1_555
C23 O2 1.159320 1_555
C23 Co5 1.773433 1_555
Br0 Sn1 2.574171 1_554
Br1 Sn0 2.574171 1_555
