# generated using pymatgen
data_ZrBr
_symmetry_space_group_name_H-M   'P 1'
_cell_length_a   9.83273880
_cell_length_b   9.83273895
_cell_length_c   9.83273871
_cell_angle_alpha   20.70771713
_cell_angle_beta   20.70771268
_cell_angle_gamma   20.70771039
_symmetry_Int_Tables_number   1
_chemical_formula_structural   ZrBr
_chemical_formula_sum   'Zr2 Br2'
_cell_volume   104.05930404
_cell_formula_units_Z   2
loop_
 _symmetry_equiv_pos_site_id
 _symmetry_equiv_pos_as_xyz
  1  'x, y, z'
loop_
 _atom_site_type_symbol
 _atom_site_label
 _atom_site_symmetry_multiplicity
 _atom_site_fract_x
 _atom_site_fract_y
 _atom_site_fract_z
 _atom_site_occupancy
  Zr  Zr0  1  0.20711064  0.20711064  0.20711064  1
  Zr  Zr1  1  0.79288936  0.79288936  0.79288936  1
  Br  Br0  1  0.39423912  0.39423912  0.39423912  1
  Br  Br1  1  0.60576088  0.60576088  0.60576088  1
loop_
_geom_bond_atom_site_label_1
_geom_bond_atom_site_label_2
_geom_bond_distance
_geom_bond_site_symmetry_2
Br0 Zr1 2.777849 1_455
Br0 Zr1 2.777849 1_545
Br0 Zr1 2.777849 1_554
Br1 Zr0 2.777849 1_655
Br1 Zr0 2.777849 1_565
Br1 Zr0 2.777849 1_556
