# generated using pymatgen
data_Ba2SiS4
_symmetry_space_group_name_H-M   'P 1'
_cell_length_a   6.82315428
_cell_length_b   8.98361653
_cell_length_c   12.25510081
_cell_angle_alpha   90.00000000
_cell_angle_beta   90.00000000
_cell_angle_gamma   90.00000000
_symmetry_Int_Tables_number   1
_chemical_formula_structural   Ba2SiS4
_chemical_formula_sum   'Ba8 Si4 S16'
_cell_volume   751.19603163
_cell_formula_units_Z   4
loop_
 _symmetry_equiv_pos_site_id
 _symmetry_equiv_pos_as_xyz
  1  'x, y, z'
loop_
 _atom_site_type_symbol
 _atom_site_label
 _atom_site_symmetry_multiplicity
 _atom_site_fract_x
 _atom_site_fract_y
 _atom_site_fract_z
 _atom_site_occupancy
  Ba  Ba0  1  0.25000000  0.98196861  0.32785590  1
  Ba  Ba1  1  0.75000000  0.01803139  0.67214410  1
  Ba  Ba2  1  0.25000000  0.48196861  0.17214410  1
  Ba  Ba3  1  0.75000000  0.51803139  0.82785590  1
  Ba  Ba4  1  0.25000000  0.63184210  0.58235160  1
  Ba  Ba5  1  0.75000000  0.36815790  0.41764840  1
  Ba  Ba6  1  0.25000000  0.13184210  0.91764840  1
  Ba  Ba7  1  0.75000000  0.86815790  0.08235160  1
  Si  Si0  1  0.25000000  0.73060517  0.92380012  1
  Si  Si1  1  0.25000000  0.23060517  0.57619988  1
  Si  Si2  1  0.75000000  0.76939483  0.42380012  1
  Si  Si3  1  0.75000000  0.26939483  0.07619988  1
  S  S0  1  0.50311367  0.32252388  0.64778371  1
  S  S1  1  0.00311367  0.67747612  0.35221629  1
  S  S2  1  0.99688633  0.82252388  0.85221629  1
  S  S3  1  0.49688633  0.17747612  0.14778371  1
  S  S4  1  0.50311367  0.82252388  0.85221629  1
  S  S5  1  0.49688633  0.67747612  0.35221629  1
  S  S6  1  0.00311367  0.17747612  0.14778371  1
  S  S7  1  0.99688633  0.32252388  0.64778371  1
  S  S8  1  0.75000000  0.50329589  0.09377748  1
  S  S9  1  0.25000000  0.49670411  0.90622252  1
  S  S10  1  0.75000000  0.00329589  0.40622252  1
  S  S11  1  0.25000000  0.99670411  0.59377748  1
  S  S12  1  0.75000000  0.19007775  0.91265556  1
  S  S13  1  0.25000000  0.80992225  0.08734444  1
  S  S14  1  0.75000000  0.69007775  0.58734444  1
  S  S15  1  0.25000000  0.30992225  0.41265556  1
loop_
_geom_bond_atom_site_label_1
_geom_bond_atom_site_label_2
_geom_bond_distance
_geom_bond_site_symmetry_2
Ba0 S15 3.124123 1_565
Ba0 S1 3.226370 1_555
Ba0 S5 3.226370 1_555
Ba0 S11 3.261583 1_555
Ba0 S6 3.285191 1_565
Ba0 S3 3.285191 1_565
Ba0 S13 3.328150 1_555
Ba0 S10 3.549355 1_465
Ba0 S10 3.549355 1_565
Ba1 S14 3.124123 1_545
Ba1 S7 3.226370 1_555
Ba1 S0 3.226370 1_555
Ba1 S10 3.261583 1_555
Ba1 S2 3.285191 1_545
Ba1 S4 3.285191 1_545
Ba1 S12 3.328150 1_555
Ba1 S11 3.549355 1_545
Ba1 S11 3.549355 1_645
Ba2 S13 3.124123 1_555
Ba2 S6 3.226370 1_555
Ba2 S3 3.226370 1_555
Ba2 S9 3.261583 1_554
Ba2 S1 3.285191 1_555
Ba2 S5 3.285191 1_555
Ba2 S15 3.328150 1_555
Ba2 S8 3.549355 1_555
Ba2 S8 3.549355 1_455
Ba3 S12 3.124123 1_555
Ba3 S4 3.226370 1_555
Ba3 S2 3.226370 1_555
Ba3 S8 3.261583 1_556
Ba3 S7 3.285191 1_555
Ba3 S0 3.285191 1_555
Ba3 S14 3.328150 1_555
Ba3 S9 3.549355 1_655
Ba3 S9 3.549355 1_555
Ba4 S11 3.280770 1_555
Ba4 S1 3.310592 1_555
Ba4 S5 3.310592 1_555
Ba4 S0 3.368584 1_555
Ba4 S7 3.368584 1_455
Ba4 S14 3.452000 1_455
Ba4 S14 3.452000 1_555
Ba4 S15 3.562106 1_555
Ba5 S10 3.280770 1_555
Ba5 S0 3.310592 1_555
Ba5 S7 3.310592 1_555
Ba5 S1 3.368584 1_655
Ba5 S5 3.368584 1_555
Ba5 S15 3.452000 1_555
Ba5 S15 3.452000 1_655
Ba5 S14 3.562106 1_555
Ba6 S9 3.280770 1_555
Ba6 S3 3.310592 1_556
Ba6 S6 3.310592 1_556
Ba6 S4 3.368584 1_545
Ba6 S2 3.368584 1_445
Ba6 S12 3.452000 1_455
Ba6 S12 3.452000 1_555
Ba6 S13 3.562106 1_546
Ba7 S8 3.280770 1_555
Ba7 S4 3.310592 1_554
Ba7 S2 3.310592 1_554
Ba7 S3 3.368584 1_565
Ba7 S6 3.368584 1_665
Ba7 S13 3.452000 1_555
Ba7 S13 3.452000 1_655
Ba7 S12 3.562106 1_564
S0 Si1 2.105737 1_555
S1 Si2 2.105737 1_455
S2 Si0 2.105737 1_655
S3 Si3 2.105737 1_555
S4 Si0 2.105737 1_555
S5 Si2 2.105737 1_555
S6 Si3 2.105737 1_455
S7 Si1 2.105737 1_655
S8 Si3 2.112290 1_555
S9 Si0 2.112290 1_555
S10 Si2 2.112290 1_545
S11 Si1 2.112290 1_565
S12 Si3 2.127148 1_556
S13 Si0 2.127148 1_554
S14 Si2 2.127148 1_555
S15 Si1 2.127148 1_555
