# generated using pymatgen
data_Tb2Si5Os3
_symmetry_space_group_name_H-M   'P 1'
_cell_length_a   10.69797435
_cell_length_b   10.69796486
_cell_length_c   5.68581923
_cell_angle_alpha   89.99999943
_cell_angle_beta   90.00000363
_cell_angle_gamma   89.99993493
_symmetry_Int_Tables_number   1
_chemical_formula_structural   Tb2Si5Os3
_chemical_formula_sum   'Tb8 Si20 Os12'
_cell_volume   650.72241566
_cell_formula_units_Z   4
loop_
 _symmetry_equiv_pos_site_id
 _symmetry_equiv_pos_as_xyz
  1  'x, y, z'
loop_
 _atom_site_type_symbol
 _atom_site_label
 _atom_site_symmetry_multiplicity
 _atom_site_fract_x
 _atom_site_fract_y
 _atom_site_fract_z
 _atom_site_occupancy
  Tb  Tb0  1  0.76438548  0.92853479  0.50000007  1
  Tb  Tb1  1  0.42852738  0.26439898  0.00000003  1
  Tb  Tb2  1  0.26439239  0.57145572  0.00000010  1
  Tb  Tb3  1  0.57146072  0.73560162  0.00000017  1
  Tb  Tb4  1  0.23561128  0.07147854  0.49999996  1
  Tb  Tb5  1  0.07146260  0.76438466  0.49999998  1
  Tb  Tb6  1  0.73560269  0.42853835  0.00000002  1
  Tb  Tb7  1  0.92853490  0.23561810  0.50000011  1
  Si  Si0  1  0.50000075  0.49999583  0.73968712  1
  Si  Si1  1  0.97501120  0.32052164  0.00000033  1
  Si  Si2  1  0.02499284  0.67946992  0.00000036  1
  Si  Si3  1  0.67262699  0.17262023  0.25000601  1
  Si  Si4  1  0.67262690  0.17262025  0.74999394  1
  Si  Si5  1  0.32738235  0.82737334  0.74998669  1
  Si  Si6  1  0.32738234  0.82737331  0.25001334  1
  Si  Si7  1  0.32052301  0.02499706  0.00000019  1
  Si  Si8  1  0.00000441  0.00000168  0.76032458  1
  Si  Si9  1  0.50000074  0.49999589  0.26031307  1
  Si  Si10  1  0.17948129  0.52498716  0.49999966  1
  Si  Si11  1  0.52498683  0.82052671  0.49999999  1
  Si  Si12  1  0.17262094  0.32738145  0.25000977  1
  Si  Si13  1  0.67946850  0.97501597  0.00000012  1
  Si  Si14  1  0.00000446  0.00000175  0.23967507  1
  Si  Si15  1  0.47500413  0.17948465  0.49999983  1
  Si  Si16  1  0.82738297  0.67261923  0.25000813  1
  Si  Si17  1  0.82052169  0.47500267  0.49999973  1
  Si  Si18  1  0.17262103  0.32738149  0.74999012  1
  Si  Si19  1  0.82738295  0.67261928  0.74999197  1
  Os  Os0  1  0.35372081  0.37353463  0.50000004  1
  Os  Os1  1  0.49999460  0.00001531  0.74999823  1
  Os  Os2  1  0.85372028  0.12648854  -0.00000012  1
  Os  Os3  1  0.87353845  0.85372883  -0.00000003  1
  Os  Os4  1  0.00001239  0.49998034  0.25000170  1
  Os  Os5  1  0.12647095  0.14630260  -0.00000043  1
  Os  Os6  1  0.64626107  0.62643796  0.50000012  1
  Os  Os7  1  0.14629451  0.87354598  -0.00000008  1
  Os  Os8  1  0.37353213  0.64625461  0.50000009  1
  Os  Os9  1  0.49999464  0.00001529  0.25000182  1
  Os  Os10  1  0.62644397  0.35371527  0.49999989  1
  Os  Os11  1  0.00001244  0.49998033  0.74999832  1
loop_
_geom_bond_atom_site_label_1
_geom_bond_atom_site_label_2
_geom_bond_distance
_geom_bond_site_symmetry_2
Si0 Tb1 3.021220 1_556
Si0 Tb6 3.021223 1_556
Si0 Tb3 3.021264 1_556
Si0 Tb2 3.021287 1_556
Si1 Si12 2.548562 1_655
Si1 Si18 2.548566 1_654
Si1 Tb6 2.809801 1_555
Si1 Tb7 3.025614 1_555
Si1 Tb7 3.025616 1_554
Si2 Tb2 2.809703 1_555
Si2 Tb5 3.025637 1_555
Si2 Tb5 3.025642 1_554
Si3 Si4 2.842841 1_555
Si3 Si4 2.842978 1_554
Si3 Tb0 3.130892 1_545
Si3 Tb1 3.131119 1_555
Si3 Tb7 3.157472 1_555
Si3 Tb6 3.157545 1_555
Si4 Tb0 3.130892 1_545
Si4 Tb1 3.131119 1_556
Si4 Tb7 3.157472 1_555
Si4 Tb6 3.157545 1_556
Si5 Si7 2.548697 1_566
Si5 Si6 2.842758 1_555
Si5 Si6 2.843061 1_556
Si5 Tb3 3.130925 1_556
Si5 Tb4 3.131092 1_565
Si5 Tb5 3.157542 1_555
Si5 Tb2 3.157592 1_556
Si6 Si7 2.548696 1_565
Si6 Tb3 3.130925 1_555
Si6 Tb4 3.131092 1_565
Si6 Tb5 3.157542 1_555
Si6 Tb2 3.157591 1_555
Si7 Tb1 2.809684 1_555
Si7 Tb4 3.025649 1_555
Si7 Tb4 3.025651 1_554
Si8 Tb4 3.021354 1_555
Si8 Tb5 3.021390 1_545
Si8 Tb7 3.021415 1_455
Si8 Tb0 3.021434 1_445
Si9 Tb1 3.021221 1_555
Si9 Tb6 3.021224 1_555
Si9 Tb3 3.021263 1_555
Si9 Tb2 3.021287 1_555
Si10 Si12 2.548463 1_555
Si10 Si18 2.548464 1_555
Si10 Tb5 2.809701 1_555
Si10 Tb2 3.025624 1_555
Si10 Tb2 3.025628 1_556
Si11 Si6 2.548439 1_555
Si11 Si5 2.548439 1_555
Si11 Tb0 2.809670 1_555
Si11 Tb3 3.025679 1_555
Si11 Tb3 3.025681 1_556
Si12 Si18 2.842798 1_555
Si12 Si18 2.843021 1_554
Si12 Tb2 3.130878 1_555
Si12 Tb7 3.130908 1_455
Si12 Tb4 3.157395 1_555
Si12 Tb1 3.157462 1_555
Si13 Si3 2.548495 1_565
Si13 Si4 2.548496 1_564
Si13 Tb3 2.809820 1_555
Si13 Tb0 3.025666 1_555
Si13 Tb0 3.025667 1_554
Si14 Tb4 3.021353 1_555
Si14 Tb5 3.021392 1_545
Si14 Tb7 3.021416 1_455
Si14 Tb0 3.021436 1_445
Si15 Si4 2.548630 1_555
Si15 Si3 2.548630 1_555
Si15 Tb4 2.809604 1_555
Si15 Tb1 3.025649 1_555
Si15 Tb1 3.025651 1_556
Si16 Si2 2.548555 1_655
Si16 Si17 2.548565 1_555
Si16 Si19 2.842818 1_555
Si16 Si19 2.843001 1_554
Si16 Tb5 3.130861 1_655
Si16 Tb6 3.130963 1_555
Si16 Tb0 3.157533 1_555
Si16 Tb3 3.157604 1_555
Si17 Si19 2.548568 1_555
Si17 Tb7 2.809551 1_555
Si17 Tb6 3.025642 1_555
Si17 Tb6 3.025645 1_556
Si18 Tb2 3.130878 1_556
Si18 Tb7 3.130908 1_455
Si18 Tb4 3.157395 1_555
Si18 Tb1 3.157462 1_556
Si19 Si2 2.548557 1_656
Si19 Tb5 3.130862 1_655
Si19 Tb6 3.130963 1_556
Si19 Tb0 3.157533 1_555
Si19 Tb3 3.157604 1_556
Os0 Si15 2.448058 1_555
Os0 Si18 2.453096 1_555
Os0 Si12 2.453098 1_555
Os0 Si10 2.469754 1_555
Os0 Si0 2.477188 1_555
Os0 Si9 2.477188 1_555
Os0 Tb1 3.175800 1_556
Os0 Tb1 3.175800 1_555
Os1 Si15 2.403792 1_555
Os1 Si7 2.403814 1_556
Os1 Si13 2.403854 1_546
Os1 Si11 2.403958 1_545
Os1 Si4 2.611585 1_555
Os1 Si5 2.611714 1_545
Os1 Tb4 3.256475 1_555
Os1 Tb1 3.256495 1_556
Os1 Tb0 3.256589 1_545
Os1 Tb3 3.256772 1_546
Os2 Si1 2.447951 1_555
Os2 Si3 2.453047 1_555
Os2 Si4 2.453047 1_554
Os2 Si13 2.469996 1_545
Os2 Si14 2.477327 1_655
Os2 Si8 2.477328 1_654
Os2 Tb7 3.175797 1_554
Os2 Tb7 3.175799 1_555
Os3 Si13 2.448262 1_555
Os3 Si19 2.453242 1_554
Os3 Si16 2.453243 1_555
Os3 Si2 2.469923 1_655
Os3 Si14 2.477131 1_665
Os3 Si8 2.477132 1_664
Os3 Tb0 3.175866 1_554
Os3 Tb0 3.175867 1_555
Os4 Si1 2.403724 1_455
Os4 Si10 2.403808 1_555
Os4 Si17 2.403960 1_455
Os4 Si2 2.403963 1_555
Os4 Si12 2.611357 1_555
Os4 Si16 2.611818 1_455
Os4 Tb7 3.256315 1_455
Os4 Tb2 3.256485 1_555
Os4 Tb5 3.256637 1_555
Os4 Tb6 3.256677 1_455
Os5 Si7 2.448204 1_555
Os5 Si18 2.452976 1_554
Os5 Si12 2.452978 1_555
Os5 Si1 2.469639 1_455
Os5 Si8 2.477323 1_554
Os5 Si14 2.477324 1_555
Os5 Tb4 3.175864 1_554
Os5 Tb4 3.175867 1_555
Os6 Si11 2.448359 1_555
Os6 Si19 2.453349 1_555
Os6 Si16 2.453350 1_555
Os6 Si17 2.469803 1_555
Os6 Si9 2.476944 1_555
Os6 Si0 2.476944 1_555
Os6 Tb3 3.175893 1_555
Os6 Tb3 3.175893 1_556
Os7 Si2 2.448401 1_555
Os7 Si5 2.453113 1_554
Os7 Si6 2.453113 1_555
Os7 Si7 2.469657 1_565
Os7 Si14 2.477186 1_565
Os7 Si8 2.477186 1_564
Os7 Tb5 3.175969 1_554
Os7 Tb5 3.175970 1_555
Os8 Si10 2.447980 1_555
Os8 Si5 2.453236 1_555
Os8 Si6 2.453236 1_555
Os8 Si11 2.470035 1_555
Os8 Si9 2.477086 1_555
Os8 Si0 2.477086 1_555
Os8 Tb2 3.175796 1_555
Os8 Tb2 3.175796 1_556
Os9 Si15 2.403791 1_555
Os9 Si7 2.403813 1_555
Os9 Si13 2.403853 1_545
Os9 Si11 2.403957 1_545
Os9 Si3 2.611586 1_555
Os9 Si6 2.611714 1_545
Os9 Tb4 3.256476 1_555
Os9 Tb1 3.256496 1_555
Os9 Tb0 3.256589 1_545
Os9 Tb3 3.256771 1_545
Os10 Si17 2.448337 1_555
Os10 Si3 2.453131 1_555
Os10 Si4 2.453131 1_555
Os10 Si15 2.469595 1_555
Os10 Si9 2.477085 1_555
Os10 Si0 2.477086 1_555
Os10 Tb6 3.175935 1_555
Os10 Tb6 3.175936 1_556
Os11 Si1 2.403726 1_456
Os11 Si10 2.403810 1_555
Os11 Si17 2.403962 1_455
Os11 Si2 2.403966 1_556
Os11 Si18 2.611357 1_555
Os11 Si19 2.611819 1_455
Os11 Tb7 3.256315 1_455
Os11 Tb2 3.256485 1_556
Os11 Tb5 3.256638 1_555
Os11 Tb6 3.256678 1_456
