# generated using pymatgen
data_NaLaH2S2O9
_symmetry_space_group_name_H-M   'P 1'
_cell_length_a   7.14952228
_cell_length_b   7.14952228
_cell_length_c   13.05880000
_cell_angle_alpha   90.00000000
_cell_angle_beta   90.00000000
_cell_angle_gamma   120.00000259
_symmetry_Int_Tables_number   1
_chemical_formula_structural   NaLaH2S2O9
_chemical_formula_sum   'Na3 La3 H6 S6 O27'
_cell_volume   578.07999261
_cell_formula_units_Z   3
loop_
 _symmetry_equiv_pos_site_id
 _symmetry_equiv_pos_as_xyz
  1  'x, y, z'
loop_
 _atom_site_type_symbol
 _atom_site_label
 _atom_site_symmetry_multiplicity
 _atom_site_fract_x
 _atom_site_fract_y
 _atom_site_fract_z
 _atom_site_occupancy
  Na  Na0  1  0.52783400  0.52783400  0.50000000  1
  Na  Na1  1  0.47216600  0.00000000  0.83333300  1
  Na  Na2  1  0.00000000  0.47216600  0.16666700  1
  La  La0  1  0.56430800  0.56430800  0.00000000  1
  La  La1  1  0.00000000  0.43569200  0.66666700  1
  La  La2  1  0.43569200  0.00000000  0.33333300  1
  H  H0  1  0.04678500  0.09588200  0.37229900  1
  H  H1  1  0.04909700  0.95321500  0.03896600  1
  H  H2  1  0.95090300  0.90411800  0.29436800  1
  H  H3  1  0.95321500  0.04909700  0.96103400  1
  H  H4  1  0.09588200  0.04678500  0.62770100  1
  H  H5  1  0.90411800  0.95090300  0.70563200  1
  S  S0  1  0.45279400  0.01217900  0.08732400  1
  S  S1  1  0.98782100  0.44061500  0.42065800  1
  S  S2  1  0.54720600  0.55938500  0.24600900  1
  S  S3  1  0.55938500  0.54720600  0.75399100  1
  S  S4  1  0.44061500  0.98782100  0.57934200  1
  S  S5  1  0.01217900  0.45279400  0.91267600  1
  O  O0  1  0.88000500  0.49588500  0.98621000  1
  O  O1  1  0.87275000  0.25973200  0.84739200  1
  O  O2  1  0.13125000  0.63702000  0.84030800  1
  O  O3  1  0.74026800  0.61301800  0.18072500  1
  O  O4  1  0.83664300  0.24643400  0.36023200  1
  O  O5  1  0.38698200  0.12725000  0.51405800  1
  O  O6  1  0.12725000  0.38698200  0.48594200  1
  O  O7  1  0.36298000  0.49423000  0.17364200  1
  O  O8  1  0.75356600  0.59020900  0.69356600  1
  O  O9  1  0.50577000  0.86875000  0.50697500  1
  O  O10  1  0.16335700  0.40979100  0.97310100  1
  O  O11  1  0.59020900  0.75356600  0.30643400  1
  O  O12  1  0.00000000  0.08072500  0.66666700  1
  O  O13  1  0.38412000  0.50411500  0.68045700  1
  O  O14  1  0.11999500  0.61588000  0.34712400  1
  O  O15  1  0.50411500  0.38412000  0.31954300  1
  O  O16  1  0.24643400  0.83664300  0.63976800  1
  O  O17  1  0.08072500  0.00000000  0.33333300  1
  O  O18  1  0.49423000  0.36298000  0.82635800  1
  O  O19  1  0.86875000  0.50577000  0.49302500  1
  O  O20  1  0.91927500  0.91927500  0.00000000  1
  O  O21  1  0.49588500  0.88000500  0.01379000  1
  O  O22  1  0.61301800  0.74026800  0.81927500  1
  O  O23  1  0.25973200  0.87275000  0.15260800  1
  O  O24  1  0.40979100  0.16335700  0.02689900  1
  O  O25  1  0.61588000  0.11999500  0.65287600  1
  O  O26  1  0.63702000  0.13125000  0.15969200  1
loop_
_geom_bond_atom_site_label_1
_geom_bond_atom_site_label_2
_geom_bond_distance
_geom_bond_site_symmetry_2
Na0 O9 2.521611 1_555
Na0 O19 2.521611 1_555
Na0 O6 2.523114 1_555
Na0 O5 2.523114 1_555
Na0 O13 2.542358 1_555
Na0 O15 2.542358 1_555
Na0 O11 2.910881 1_555
Na0 O8 2.910881 1_555
Na1 O2 2.521611 1_545
Na1 O18 2.521611 1_555
Na1 O22 2.523114 1_545
Na1 O1 2.523115 1_555
Na1 O25 2.542357 1_555
Na1 O21 2.542358 1_546
Na1 O16 2.910869 1_545
Na1 O24 2.910881 1_556
Na2 O26 2.521611 1_455
Na2 O7 2.521611 1_555
Na2 O3 2.523114 1_455
Na2 O23 2.523115 1_555
Na2 O14 2.542357 1_555
Na2 O0 2.542358 1_454
Na2 O4 2.910869 1_455
Na2 O10 2.910881 1_554
La0 O10 2.528722 1_554
La0 O24 2.528722 1_555
La0 O20 2.537844 1_555
La0 O0 2.543680 1_554
La0 O21 2.543680 1_555
La0 O18 2.596831 1_554
La0 O7 2.596831 1_555
La0 O22 2.614508 1_554
La0 O3 2.614508 1_555
La1 O16 2.528722 1_555
La1 O8 2.528722 1_455
La1 O12 2.537844 1_555
La1 O13 2.543680 1_555
La1 O25 2.543681 1_455
La1 O2 2.596820 1_555
La1 O19 2.596831 1_455
La1 O1 2.614508 1_455
La1 O6 2.614508 1_555
La2 O4 2.528722 1_555
La2 O11 2.528722 1_545
La2 O17 2.537844 1_555
La2 O15 2.543680 1_555
La2 O14 2.543681 1_545
La2 O26 2.596820 1_555
La2 O9 2.596831 1_545
La2 O23 2.614508 1_545
La2 O5 2.614508 1_555
H0 O17 0.976768 1_555
H1 O20 0.976768 1_455
H2 O17 0.976761 1_665
H3 O20 0.976768 1_546
H4 O12 0.976768 1_555
H5 O12 0.976761 1_665
O0 S5 1.483625 1_655
O1 S5 1.499932 1_655
O2 S5 1.493776 1_555
O3 S2 1.499932 1_555
O4 S1 1.489207 1_555
O5 S4 1.499932 1_545
O6 S1 1.499932 1_455
O7 S2 1.493767 1_555
O8 S3 1.489200 1_555
O9 S4 1.493768 1_555
O10 S5 1.489200 1_555
O11 S2 1.489200 1_555
O13 S3 1.483625 1_555
O14 S1 1.483625 1_455
O15 S2 1.483625 1_555
O16 S4 1.489207 1_555
O18 S3 1.493767 1_555
O19 S1 1.493768 1_555
O21 S0 1.483625 1_565
O22 S3 1.499932 1_555
O23 S0 1.499932 1_565
O24 S0 1.489200 1_555
O25 S4 1.483625 1_545
O26 S0 1.493776 1_555
