# generated using pymatgen
data_Mn7SiO12
_symmetry_space_group_name_H-M   'P 1'
_cell_length_a   12.07370977
_cell_length_b   12.07370977
_cell_length_c   12.07370977
_cell_angle_alpha   131.43181086
_cell_angle_beta   131.43181086
_cell_angle_gamma   71.12791393
_symmetry_Int_Tables_number   1
_chemical_formula_structural   Mn7SiO12
_chemical_formula_sum   'Mn28 Si4 O48'
_cell_volume   968.62969741
_cell_formula_units_Z   4
loop_
 _symmetry_equiv_pos_site_id
 _symmetry_equiv_pos_as_xyz
  1  'x, y, z'
loop_
 _atom_site_type_symbol
 _atom_site_label
 _atom_site_symmetry_multiplicity
 _atom_site_fract_x
 _atom_site_fract_y
 _atom_site_fract_z
 _atom_site_occupancy
  Mn  Mn0  1  0.62500000  0.40377000  0.27877000  1
  Mn  Mn1  1  0.71676900  0.78323100  0.50000000  1
  Mn  Mn2  1  0.09623000  0.87500000  0.72123000  1
  Mn  Mn3  1  0.37500000  0.12500000  0.75000000  1
  Mn  Mn4  1  0.87500000  0.12500000  0.25000000  1
  Mn  Mn5  1  0.87500000  0.62500000  0.75000000  1
  Mn  Mn6  1  0.59623000  0.87500000  0.22123000  1
  Mn  Mn7  1  0.50000000  0.00000000  0.50000000  1
  Mn  Mn8  1  0.37500000  0.62500000  0.75000000  1
  Mn  Mn9  1  0.75000000  0.75000000  0.00000000  1
  Mn  Mn10  1  0.62500000  0.90377000  0.77877000  1
  Mn  Mn11  1  0.12500000  0.34623000  0.72123000  1
  Mn  Mn12  1  0.46676900  0.03323100  0.00000000  1
  Mn  Mn13  1  0.03323100  0.46676900  0.00000000  1
  Mn  Mn14  1  0.15377000  0.37500000  0.27877000  1
  Mn  Mn15  1  0.25000000  0.25000000  0.00000000  1
  Mn  Mn16  1  0.21676900  0.71676900  0.93353700  1
  Mn  Mn17  1  0.87500000  0.62500000  0.25000000  1
  Mn  Mn18  1  0.00000000  0.50000000  0.50000000  1
  Mn  Mn19  1  0.96676900  0.96676900  0.43353700  1
  Mn  Mn20  1  0.87500000  0.12500000  0.75000000  1
  Mn  Mn21  1  0.28323100  0.21676900  0.50000000  1
  Mn  Mn22  1  0.53323100  0.53323100  0.56646300  1
  Mn  Mn23  1  0.65377000  0.37500000  0.77877000  1
  Mn  Mn24  1  0.78323100  0.28323100  0.06646300  1
  Mn  Mn25  1  0.12500000  0.84623000  0.22123000  1
  Mn  Mn26  1  0.37500000  0.12500000  0.25000000  1
  Mn  Mn27  1  0.37500000  0.62500000  0.25000000  1
  Si  Si0  1  0.25000000  0.75000000  0.50000000  1
  Si  Si1  1  0.50000000  0.50000000  0.00000000  1
  Si  Si2  1  0.00000000  0.00000000  0.00000000  1
  Si  Si3  1  0.75000000  0.25000000  0.50000000  1
  O  O0  1  0.67233800  0.51961900  0.53084700  1
  O  O1  1  0.81000400  0.11263800  0.52517600  1
  O  O2  1  0.73825400  0.84144500  0.18374900  1
  O  O3  1  0.30450500  0.98825400  0.39680800  1
  O  O4  1  0.98038100  0.82766200  0.46915300  1
  O  O5  1  0.71517200  0.18999600  0.30263400  1
  O  O6  1  0.44549500  0.26174600  0.10319200  1
  O  O7  1  0.09230300  0.69549500  0.68374900  1
  O  O8  1  0.38736200  0.68999600  0.47482400  1
  O  O9  1  0.93999600  0.13736200  0.97482400  1
  O  O10  1  0.08746200  0.61263800  0.30263400  1
  O  O11  1  0.35850900  0.51122800  0.53084700  1
  O  O12  1  0.48877200  0.01961900  0.84728100  1
  O  O13  1  0.59144500  0.90769700  0.60319200  1
  O  O14  1  0.57766200  0.60850900  0.34728100  1
  O  O15  1  0.23825400  0.05450500  0.89680800  1
  O  O16  1  0.85850900  0.32766200  0.84728100  1
  O  O17  1  0.16253800  0.96517200  0.02517600  1
  O  O18  1  0.65769700  0.55450500  0.81625100  1
  O  O19  1  0.01174600  0.40855400  0.31625100  1
  O  O20  1  0.65855500  0.76174600  0.81625100  1
  O  O21  1  0.26122800  0.23038100  0.65271900  1
  O  O22  1  0.51174600  0.19549500  0.60319200  1
  O  O23  1  0.86263800  0.83746200  0.80263400  1
  O  O24  1  0.03482800  0.06000400  0.19736600  1
  O  O25  1  0.76122800  0.10850900  0.03084700  1
  O  O26  1  0.31000400  0.78482800  0.69736600  1
  O  O27  1  0.53482800  0.33746200  0.97482400  1
  O  O28  1  0.15855400  0.34230300  0.89680800  1
  O  O29  1  0.15769700  0.34144500  0.10319200  1
  O  O30  1  0.89149100  0.92233800  0.65271900  1
  O  O31  1  0.48038100  0.01122800  0.15271900  1
  O  O32  1  0.98877200  0.14149100  0.46915300  1
  O  O33  1  0.36263800  0.56000400  0.02517600  1
  O  O34  1  0.17233800  0.64149100  0.15271900  1
  O  O35  1  0.94549500  0.84230300  0.18374900  1
  O  O36  1  0.21517200  0.91253800  0.52517600  1
  O  O37  1  0.59230300  0.90855400  0.39680800  1
  O  O38  1  0.07766200  0.73038100  0.96915300  1
  O  O39  1  0.39149100  0.73877200  0.96915300  1
  O  O40  1  0.80450500  0.40769700  0.31625100  1
  O  O41  1  0.66253800  0.63736200  0.19736600  1
  O  O42  1  0.26961900  0.23877200  0.34728100  1
  O  O43  1  0.43999600  0.46517200  0.80263400  1
  O  O44  1  0.09144500  0.48825400  0.68374900  1
  O  O45  1  0.76961900  0.42233800  0.03084700  1
  O  O46  1  0.58746200  0.28482800  0.47482400  1
  O  O47  1  0.88736200  0.41253800  0.69736600  1
loop_
_geom_bond_atom_site_label_1
_geom_bond_atom_site_label_2
_geom_bond_distance
_geom_bond_site_symmetry_2
Mn0 O40 1.908993 1_555
Mn0 O6 1.908993 1_555
Mn0 O14 2.031511 1_555
Mn0 O0 2.031511 1_555
Mn0 O27 2.584827 1_554
Mn0 O5 2.584827 1_555
Mn1 O14 1.927817 1_555
Mn1 O30 1.927817 1_555
Mn1 O37 2.155501 1_555
Mn1 O13 2.155512 1_555
Mn1 O41 2.438141 1_555
Mn1 O23 2.438141 1_555
Mn2 O15 1.908993 1_565
Mn2 O7 1.908993 1_555
Mn2 O30 2.031511 1_455
Mn2 O4 2.031511 1_455
Mn2 O26 2.584827 1_555
Mn2 O17 2.584827 1_556
Mn3 O21 1.896626 1_555
Mn3 O12 1.896626 1_555
Mn3 O27 2.174121 1_555
Mn3 O36 2.174121 1_545
Mn4 O32 1.896626 1_555
Mn4 O25 1.896626 1_555
Mn4 O5 2.174121 1_555
Mn4 O24 2.174121 1_655
Mn5 O38 1.896626 1_655
Mn5 O0 1.896626 1_555
Mn5 O47 2.174121 1_555
Mn5 O23 2.174121 1_555
Mn6 O2 1.908990 1_555
Mn6 O37 1.908993 1_555
Mn6 O31 2.031511 1_565
Mn6 O39 2.031511 1_554
Mn6 O1 2.584827 1_565
Mn6 O41 2.584827 1_555
Mn7 O3 1.798432 1_545
Mn7 O22 1.798432 1_555
Mn7 O37 1.798432 1_545
Mn7 O13 1.798433 1_545
Mn8 O11 1.896626 1_555
Mn8 O39 1.896626 1_555
Mn8 O26 2.174121 1_555
Mn8 O43 2.174121 1_555
Mn9 O35 1.798432 1_555
Mn9 O18 1.798432 1_554
Mn9 O2 1.798435 1_555
Mn9 O20 1.798435 1_554
Mn10 O13 1.908987 1_555
Mn10 O20 1.908990 1_555
Mn10 O25 2.031511 1_566
Mn10 O12 2.031511 1_565
Mn10 O8 2.584827 1_555
Mn10 O23 2.584827 1_555
Mn11 O44 1.908990 1_555
Mn11 O28 1.908993 1_555
Mn11 O21 2.031511 1_555
Mn11 O32 2.031511 1_455
Mn11 O33 2.584827 1_556
Mn11 O47 2.584827 1_455
Mn12 O31 1.927817 1_555
Mn12 O12 1.927817 1_554
Mn12 O6 2.155501 1_555
Mn12 O15 2.155501 1_554
Mn12 O5 2.438141 1_555
Mn12 O26 2.438141 1_544
Mn13 O34 1.927817 1_555
Mn13 O16 1.927817 1_454
Mn13 O28 2.155501 1_554
Mn13 O29 2.155512 1_555
Mn13 O47 2.438141 1_454
Mn13 O10 2.438141 1_555
Mn14 O29 1.908987 1_555
Mn14 O19 1.908993 1_555
Mn14 O42 2.031511 1_555
Mn14 O11 2.031511 1_555
Mn14 O9 2.584827 1_454
Mn14 O10 2.584827 1_555
Mn15 O6 1.798432 1_555
Mn15 O28 1.798432 1_554
Mn15 O15 1.798432 1_554
Mn15 O29 1.798433 1_555
Mn16 O39 1.927810 1_555
Mn16 O38 1.927826 1_555
Mn16 O7 2.155491 1_555
Mn16 O44 2.155503 1_555
Mn16 O17 2.438138 1_556
Mn16 O33 2.438147 1_556
Mn17 O45 1.896626 1_555
Mn17 O4 1.896626 1_555
Mn17 O10 2.174121 1_655
Mn17 O41 2.174121 1_555
Mn18 O40 1.798432 1_455
Mn18 O19 1.798432 1_555
Mn18 O7 1.798432 1_555
Mn18 O44 1.798435 1_555
Mn19 O32 1.927810 1_565
Mn19 O4 1.927826 1_555
Mn19 O35 2.155491 1_555
Mn19 O2 2.155503 1_555
Mn19 O36 2.438138 1_655
Mn19 O1 2.438147 1_565
Mn20 O16 1.896626 1_555
Mn20 O30 1.896626 1_545
Mn20 O1 2.174121 1_555
Mn20 O9 2.174121 1_555
Mn21 O42 1.927817 1_555
Mn21 O21 1.927817 1_555
Mn21 O22 2.155501 1_555
Mn21 O3 2.155501 1_545
Mn21 O43 2.438141 1_555
Mn21 O24 2.438141 1_555
Mn22 O11 1.927810 1_555
Mn22 O0 1.927826 1_555
Mn22 O18 2.155491 1_555
Mn22 O20 2.155503 1_555
Mn22 O46 2.438138 1_555
Mn22 O8 2.438147 1_555
Mn23 O22 1.908993 1_555
Mn23 O18 1.908993 1_555
Mn23 O16 2.031511 1_555
Mn23 O45 2.031511 1_556
Mn23 O43 2.584827 1_555
Mn23 O46 2.584827 1_555
Mn24 O25 1.927810 1_555
Mn24 O45 1.927826 1_555
Mn24 O40 2.155491 1_555
Mn24 O19 2.155500 1_655
Mn24 O27 2.438138 1_554
Mn24 O9 2.438147 1_554
Mn25 O3 1.908993 1_555
Mn25 O35 1.908993 1_455
Mn25 O38 2.031511 1_554
Mn25 O34 2.031511 1_555
Mn25 O24 2.584827 1_565
Mn25 O36 2.584827 1_555
Mn26 O31 1.896626 1_555
Mn26 O42 1.896626 1_555
Mn26 O46 2.174121 1_555
Mn26 O17 2.174121 1_545
Mn27 O34 1.896626 1_555
Mn27 O14 1.896626 1_555
Mn27 O33 2.174121 1_555
Mn27 O8 2.174121 1_555
O1 Si3 1.722276 1_555
O5 Si3 1.722276 1_555
O8 Si0 1.722276 1_555
O9 Si2 1.722276 1_656
O10 Si0 1.722276 1_555
O17 Si2 1.722276 1_565
O23 Si2 1.722276 1_666
O24 Si2 1.722276 1_555
O26 Si0 1.722276 1_555
O27 Si1 1.722276 1_556
O33 Si1 1.722276 1_555
O36 Si0 1.722276 1_555
O41 Si1 1.722276 1_555
O43 Si1 1.722276 1_556
O46 Si3 1.722276 1_555
O47 Si3 1.722276 1_555
