# generated using pymatgen
data_SrBi2(B2O5)2
_symmetry_space_group_name_H-M   'P 1'
_cell_length_a   6.85598200
_cell_length_b   7.03602732
_cell_length_c   9.90353677
_cell_angle_alpha   96.01316063
_cell_angle_beta   108.93319555
_cell_angle_gamma   101.62707052
_symmetry_Int_Tables_number   1
_chemical_formula_structural   SrBi2(B2O5)2
_chemical_formula_sum   'Sr2 Bi4 B8 O20'
_cell_volume   435.08793678
_cell_formula_units_Z   2
loop_
 _symmetry_equiv_pos_site_id
 _symmetry_equiv_pos_as_xyz
  1  'x, y, z'
loop_
 _atom_site_type_symbol
 _atom_site_label
 _atom_site_symmetry_multiplicity
 _atom_site_fract_x
 _atom_site_fract_y
 _atom_site_fract_z
 _atom_site_occupancy
  Sr  Sr0  1  0.03413100  0.84950400  0.16556200  1
  Sr  Sr1  1  0.96586900  0.15049600  0.83443800  1
  Bi  Bi0  1  0.73246600  0.64244100  0.66394700  1
  Bi  Bi1  1  0.26753400  0.35755900  0.33605300  1
  Bi  Bi2  1  0.69595400  0.01717900  0.39928700  1
  Bi  Bi3  1  0.30404600  0.98282100  0.60071300  1
  B  B0  1  0.39909500  0.20456700  0.07491900  1
  B  B1  1  0.60090500  0.79543300  0.92508100  1
  B  B2  1  0.84763600  0.60966300  0.36797000  1
  B  B3  1  0.15236400  0.39033700  0.63203000  1
  B  B4  1  0.41087900  0.74671700  0.09303500  1
  B  B5  1  0.19906400  0.69707100  0.82255900  1
  B  B6  1  0.80093600  0.30292900  0.17744100  1
  B  B7  1  0.58912100  0.25328300  0.90696500  1
  O  O0  1  0.07546700  0.18532300  0.60534900  1
  O  O1  1  0.64058600  0.89679400  0.58677000  1
  O  O2  1  0.60190000  0.77387100  0.06498600  1
  O  O3  1  0.41136200  0.77501800  0.81470200  1
  O  O4  1  0.58863800  0.22498200  0.18529800  1
  O  O5  1  0.35941400  0.10320600  0.41323000  1
  O  O6  1  0.21146200  0.16557700  0.09547900  1
  O  O7  1  0.78170300  0.29604600  0.02049400  1
  O  O8  1  0.21829700  0.70395400  0.97950600  1
  O  O9  1  0.74205500  0.51239400  0.44628800  1
  O  O10  1  0.88903200  0.51481400  0.25113100  1
  O  O11  1  0.93837500  0.18318900  0.25122100  1
  O  O12  1  0.58168200  0.22768800  0.76668500  1
  O  O13  1  0.78853800  0.83442300  0.90452100  1
  O  O14  1  0.11096800  0.48518600  0.74886900  1
  O  O15  1  0.25794500  0.48760600  0.55371200  1
  O  O16  1  0.06162500  0.81681100  0.74877900  1
  O  O17  1  0.92453300  0.81467700  0.39465100  1
  O  O18  1  0.41831800  0.77231200  0.23331500  1
  O  O19  1  0.39810000  0.22612900  0.93501400  1
loop_
_geom_bond_atom_site_label_1
_geom_bond_atom_site_label_2
_geom_bond_distance
_geom_bond_site_symmetry_2
Bi0 O1 2.147638 1_555
Bi0 O16 2.177493 1_655
Bi0 O9 2.278404 1_555
Bi0 O13 2.484135 1_555
Bi1 O5 2.147638 1_555
Bi1 O11 2.177493 1_455
Bi1 O15 2.278404 1_555
Bi1 O6 2.484135 1_555
Bi2 O1 2.228530 1_545
Bi2 O18 2.312523 1_545
Bi2 O17 2.328328 1_545
Bi2 O5 2.541911 1_555
Bi2 O0 2.672446 1_655
Bi2 O4 2.690961 1_555
Bi2 O11 2.726693 1_555
Bi3 O5 2.228530 1_565
Bi3 O12 2.312523 1_565
Bi3 O0 2.328328 1_565
Bi3 O1 2.541911 1_555
Bi3 O17 2.672446 1_455
Bi3 O3 2.690961 1_555
Bi3 O16 2.726693 1_555
B0 O6 1.345733 1_555
B0 O4 1.369062 1_555
B0 O19 1.407532 1_554
B1 O13 1.345733 1_555
B1 O3 1.369062 1_555
B1 O2 1.407532 1_556
B2 O9 1.367415 1_555
B2 O17 1.397044 1_555
B2 O10 1.411563 1_555
B3 O15 1.367415 1_555
B3 O0 1.397044 1_555
B3 O14 1.411563 1_555
B4 O18 1.364917 1_555
B4 O8 1.379714 1_554
B4 O2 1.405402 1_555
B5 O16 1.460739 1_555
B5 O3 1.478521 1_555
B5 O14 1.497674 1_555
B5 O8 1.511399 1_555
B6 O11 1.460739 1_555
B6 O4 1.478521 1_555
B6 O10 1.497674 1_555
B6 O7 1.511399 1_555
B7 O12 1.364917 1_555
B7 O7 1.379714 1_556
B7 O19 1.405402 1_555
O0 Sr1 2.630705 1_455
O1 Sr1 2.846831 1_565
O2 Sr0 2.719325 1_655
O5 Sr0 2.846831 1_545
O6 Sr1 2.564279 1_454
O6 Sr0 2.585869 1_545
O7 Sr1 2.770176 1_554
O8 Sr0 2.770176 1_556
O10 Sr0 2.697066 1_655
O11 Sr0 2.688550 1_645
O12 Sr1 2.681259 1_555
O13 Sr0 2.564279 1_656
O13 Sr1 2.585869 1_565
O14 Sr1 2.697066 1_455
O16 Sr1 2.688550 1_465
O17 Sr0 2.630705 1_655
O18 Sr0 2.681259 1_555
O19 Sr1 2.719325 1_455
