# generated using pymatgen
data_Np(MnSi)2
_symmetry_space_group_name_H-M   'P 1'
_cell_length_a   5.72229536
_cell_length_b   5.72229536
_cell_length_c   5.72229536
_cell_angle_alpha   139.71203108
_cell_angle_beta   139.71203108
_cell_angle_gamma   58.29080035
_symmetry_Int_Tables_number   1
_chemical_formula_structural   Np(MnSi)2
_chemical_formula_sum   'Np1 Mn2 Si2'
_cell_volume   77.63444480
_cell_formula_units_Z   1
loop_
 _symmetry_equiv_pos_site_id
 _symmetry_equiv_pos_as_xyz
  1  'x, y, z'
loop_
 _atom_site_type_symbol
 _atom_site_label
 _atom_site_symmetry_multiplicity
 _atom_site_fract_x
 _atom_site_fract_y
 _atom_site_fract_z
 _atom_site_occupancy
  Np  Np0  1  0.00000000  0.00000000  0.00000000  1
  Mn  Mn0  1  0.25000000  0.75000000  0.50000000  1
  Mn  Mn1  1  0.75000000  0.25000000  0.50000000  1
  Si  Si0  1  0.37993100  0.37993100  0.00000000  1
  Si  Si1  1  0.62006900  0.62006900  0.00000000  1
loop_
_geom_bond_atom_site_label_1
_geom_bond_atom_site_label_2
_geom_bond_distance
_geom_bond_site_symmetry_2
Np0 Si1 3.034349 1_444
Np0 Si1 3.034349 1_455
Np0 Si1 3.034349 1_556
Np0 Si1 3.034349 1_545
Np0 Si0 3.034349 1_455
Np0 Si0 3.034349 1_545
Np0 Si0 3.034349 1_556
Np0 Si0 3.034349 1_444
Mn0 Si0 2.360117 1_555
Mn0 Si0 2.360117 1_566
Mn0 Si1 2.360117 1_556
Mn0 Si1 2.360117 1_455
Mn0 Np0 3.182435 1_555
Mn0 Np0 3.182435 1_566
Mn0 Np0 3.182435 1_666
Mn0 Np0 3.182435 1_565
Mn1 Si0 2.360117 1_555
Mn1 Si0 2.360117 1_656
Mn1 Si1 2.360117 1_556
Mn1 Si1 2.360117 1_545
Mn1 Np0 3.182435 1_555
Mn1 Np0 3.182435 1_666
Mn1 Np0 3.182435 1_656
Mn1 Np0 3.182435 1_655
Si0 Si1 2.400312 1_555
