# generated using pymatgen
data_CsFe(SO4)2
_symmetry_space_group_name_H-M   'P 1'
_cell_length_a   8.61590655
_cell_length_b   10.33920568
_cell_length_c   9.94831895
_cell_angle_alpha   103.91902102
_cell_angle_beta   90.00046974
_cell_angle_gamma   65.37328955
_symmetry_Int_Tables_number   1
_chemical_formula_structural   CsFe(SO4)2
_chemical_formula_sum   'Cs4 Fe4 S8 O32'
_cell_volume   776.88766618
_cell_formula_units_Z   4
loop_
 _symmetry_equiv_pos_site_id
 _symmetry_equiv_pos_as_xyz
  1  'x, y, z'
loop_
 _atom_site_type_symbol
 _atom_site_label
 _atom_site_symmetry_multiplicity
 _atom_site_fract_x
 _atom_site_fract_y
 _atom_site_fract_z
 _atom_site_occupancy
  Cs  Cs0  1  0.24999900  0.50000100  0.87500000  1
  Cs  Cs1  1  0.75000000  0.50000000  0.62500000  1
  Cs  Cs2  1  0.25000000  0.49999900  0.37499900  1
  Cs  Cs3  1  0.75000000  0.50000000  0.12500000  1
  Fe  Fe0  1  0.50009400  0.00001800  0.75012700  1
  Fe  Fe1  1  0.99991000  0.99997700  0.49986600  1
  Fe  Fe2  1  0.50005100  0.99993400  0.25019900  1
  Fe  Fe3  1  0.99995900  0.00006900  0.99981700  1
  S  S0  1  0.23975800  0.18710900  0.54679100  1
  S  S1  1  0.73977800  0.18710900  0.29675300  1
  S  S2  1  0.23976400  0.18710900  0.04679900  1
  S  S3  1  0.73978300  0.18711100  0.79675900  1
  S  S4  1  0.26024100  0.81289200  0.70320900  1
  S  S5  1  0.76021600  0.81288900  0.45324100  1
  S  S6  1  0.26023600  0.81289100  0.20320100  1
  S  S7  1  0.76022200  0.81289200  0.95324700  1
  O  O0  1  0.34105500  0.65125800  0.66281700  1
  O  O1  1  0.84105200  0.65125800  0.41281700  1
  O  O2  1  0.34105000  0.65125900  0.16281500  1
  O  O3  1  0.84105300  0.65125700  0.91281600  1
  O  O4  1  0.15894400  0.34874200  0.58718300  1
  O  O5  1  0.65894600  0.34874300  0.33718400  1
  O  O6  1  0.15894900  0.34874100  0.08718400  1
  O  O7  1  0.65894700  0.34874200  0.83718200  1
  O  O8  1  0.38561900  0.86826000  0.76722400  1
  O  O9  1  0.88564000  0.86824400  0.51717400  1
  O  O10  1  0.38561700  0.86826500  0.26720700  1
  O  O11  1  0.88563600  0.86825400  0.01717200  1
  O  O12  1  0.10587100  0.86829300  0.80683800  1
  O  O13  1  0.60583800  0.86825500  0.55677600  1
  O  O14  1  0.10585700  0.86828700  0.30682000  1
  O  O15  1  0.60584800  0.86826300  0.05678800  1
  O  O16  1  0.29389300  0.13173700  0.67282400  1
  O  O17  1  0.79391100  0.13169700  0.42281600  1
  O  O18  1  0.29390600  0.13172700  0.17281800  1
  O  O19  1  0.79393200  0.13169400  0.92281200  1
  O  O20  1  0.11438100  0.13174000  0.48277500  1
  O  O21  1  0.61436300  0.13174600  0.23282800  1
  O  O22  1  0.11438300  0.13173500  0.98279200  1
  O  O23  1  0.61435900  0.13175700  0.73282500  1
  O  O24  1  0.20610700  0.86826300  0.57717600  1
  O  O25  1  0.70606800  0.86830600  0.32718700  1
  O  O26  1  0.20609300  0.86827300  0.07718200  1
  O  O27  1  0.70608800  0.86830300  0.82718300  1
  O  O28  1  0.39412900  0.13170700  0.44316100  1
  O  O29  1  0.89415100  0.13173800  0.19321200  1
  O  O30  1  0.39414200  0.13171300  0.94317900  1
  O  O31  1  0.89416200  0.13174500  0.69322300  1
loop_
_geom_bond_atom_site_label_1
_geom_bond_atom_site_label_2
_geom_bond_distance
_geom_bond_site_symmetry_2
Cs0 O3 3.182227 1_455
Cs0 O7 3.182243 1_555
Cs0 O2 3.182397 1_556
Cs0 O0 3.182400 1_555
Cs0 O6 3.182407 1_556
Cs0 O4 3.182432 1_555
Cs1 O4 3.182212 1_655
Cs1 O0 3.182220 1_555
Cs1 O7 3.182388 1_555
Cs1 O1 3.182392 1_555
Cs1 O3 3.182408 1_555
Cs1 O5 3.182412 1_555
Cs2 O5 3.182227 1_555
Cs2 O1 3.182243 1_455
Cs2 O6 3.182397 1_555
Cs2 O4 3.182407 1_555
Cs2 O2 3.182407 1_555
Cs2 O0 3.182440 1_555
Cs3 O6 3.182251 1_655
Cs3 O2 3.182259 1_555
Cs3 O3 3.182396 1_554
Cs3 O5 3.182400 1_555
Cs3 O1 3.182416 1_555
Cs3 O7 3.182428 1_554
Fe0 O27 2.019923 1_545
Fe0 O30 2.020357 1_555
Fe0 O23 2.021009 1_555
Fe0 O8 2.022072 1_545
Fe0 O16 2.022337 1_555
Fe0 O13 2.022579 1_545
Fe1 O17 2.019937 1_565
Fe1 O14 2.020289 1_655
Fe1 O9 2.021001 1_555
Fe1 O20 2.022077 1_665
Fe1 O24 2.022334 1_655
Fe1 O31 2.022645 1_565
Fe2 O25 2.019316 1_555
Fe2 O28 2.019815 1_565
Fe2 O10 2.020757 1_555
Fe2 O21 2.022167 1_565
Fe2 O18 2.022775 1_565
Fe2 O15 2.022883 1_555
Fe3 O19 2.019446 1_555
Fe3 O12 2.019941 1_645
Fe3 O22 2.020705 1_655
Fe3 O11 2.022229 1_546
Fe3 O26 2.022644 1_646
Fe3 O29 2.022768 1_556
O0 S4 1.465009 1_555
O1 S5 1.464982 1_555
O2 S6 1.464991 1_555
O3 S7 1.465018 1_555
O4 S0 1.465000 1_555
O5 S1 1.465009 1_555
O6 S2 1.464991 1_555
O7 S3 1.464982 1_555
O8 S4 1.496724 1_555
O9 S5 1.496723 1_555
O10 S6 1.496753 1_555
O11 S7 1.496663 1_554
O12 S4 1.496970 1_555
O13 S5 1.496518 1_555
O14 S6 1.496975 1_555
O15 S7 1.496520 1_554
O16 S0 1.496714 1_555
O17 S1 1.497176 1_555
O18 S2 1.496640 1_555
O19 S3 1.497128 1_555
O20 S0 1.496726 1_555
O21 S1 1.496677 1_555
O22 S2 1.496756 1_556
O23 S3 1.496721 1_555
O24 S4 1.496708 1_555
O25 S5 1.497136 1_555
O26 S6 1.496642 1_555
O27 S7 1.497182 1_555
O28 S0 1.496980 1_555
O29 S1 1.496514 1_555
O30 S2 1.496975 1_556
O31 S3 1.496530 1_555
