# generated using pymatgen
data_Ba2Ru7O18
_symmetry_space_group_name_H-M   'P 1'
_cell_length_a   6.78138206
_cell_length_b   7.16241980
_cell_length_c   7.53662349
_cell_angle_alpha   93.33363675
_cell_angle_beta   93.84214843
_cell_angle_gamma   115.86427044
_symmetry_Int_Tables_number   1
_chemical_formula_structural   Ba2Ru7O18
_chemical_formula_sum   'Ba2 Ru7 O18'
_cell_volume   327.09303186
_cell_formula_units_Z   1
loop_
 _symmetry_equiv_pos_site_id
 _symmetry_equiv_pos_as_xyz
  1  'x, y, z'
loop_
 _atom_site_type_symbol
 _atom_site_label
 _atom_site_symmetry_multiplicity
 _atom_site_fract_x
 _atom_site_fract_y
 _atom_site_fract_z
 _atom_site_occupancy
  Ba  Ba0  1  0.31737458  0.68637614  0.62420622  1
  Ba  Ba1  1  0.68262542  0.31362386  0.37579378  1
  Ru  Ru0  1  0.38848272  0.27894846  0.88385790  1
  Ru  Ru1  1  0.80019117  0.12814956  0.81470742  1
  Ru  Ru2  1  0.19980883  0.87185044  0.18529258  1
  Ru  Ru3  1  0.61151728  0.72105154  0.11614210  1
  Ru  Ru4  1  -0.00000000  -0.00000000  0.50000000  1
  Ru  Ru5  1  0.82378541  0.62145602  0.80503130  1
  Ru  Ru6  1  0.17621459  0.37854398  0.19496870  1
  O  O0  1  0.92085007  0.73097017  0.58496079  1
  O  O1  1  0.28771985  0.16723259  0.11622580  1
  O  O2  1  0.32010947  0.51534759  0.97873148  1
  O  O3  1  0.47922318  0.55892483  0.30939844  1
  O  O4  1  0.49284113  0.91247329  0.16821838  1
  O  O5  1  0.89643898  0.39843595  0.73119291  1
  O  O6  1  0.71228015  0.83276741  0.88377420  1
  O  O7  1  0.91200260  0.23167410  0.05265068  1
  O  O8  1  0.67989053  0.48465241  0.02126852  1
  O  O9  1  0.07914993  0.26902983  0.41503921  1
  O  O10  1  0.09773820  0.13266828  0.75230414  1
  O  O11  1  0.72379993  0.00086408  0.57182725  1
  O  O12  1  0.10356102  0.60156405  0.26880709  1
  O  O13  1  0.90226180  0.86733172  0.24769586  1
  O  O14  1  0.08799740  0.76832590  0.94734932  1
  O  O15  1  0.50715887  0.08752671  0.83178162  1
  O  O16  1  0.27620007  0.99913592  0.42817275  1
  O  O17  1  0.52077682  0.44107517  0.69060156  1
loop_
_geom_bond_atom_site_label_1
_geom_bond_atom_site_label_2
_geom_bond_distance
_geom_bond_site_symmetry_2
Ba0 O17 2.713674 1_555
Ba0 O11 2.767403 1_565
Ba0 O0 2.841457 1_455
Ba0 O16 2.855562 1_555
Ba0 O12 2.857901 1_555
Ba0 O15 2.887947 1_565
Ba0 O5 2.901255 1_455
Ba0 O3 2.939110 1_555
Ba0 O6 2.950858 1_555
Ba0 O9 2.987923 1_555
Ba0 O2 3.005649 1_555
Ba0 O14 3.135812 1_555
Ba1 O3 2.713674 1_555
Ba1 O16 2.767403 1_545
Ba1 O9 2.841457 1_655
Ba1 O11 2.855562 1_555
Ba1 O5 2.857901 1_555
Ba1 O4 2.887947 1_545
Ba1 O12 2.901255 1_655
Ba1 O17 2.939110 1_555
Ba1 O1 2.950858 1_555
Ba1 O0 2.987923 1_555
Ba1 O8 3.005649 1_555
Ba1 O7 3.135812 1_555
O0 Ru5 1.909605 1_555
O0 Ru4 1.923083 1_665
O1 Ru0 2.005098 1_554
O1 Ru6 2.041774 1_555
O1 Ru2 2.042443 1_545
O2 Ru6 2.032937 1_556
O2 Ru3 2.038725 1_556
O2 Ru0 2.044928 1_555
O3 Ru3 1.933279 1_555
O3 Ru6 1.987941 1_555
O4 Ru2 1.893200 1_555
O4 Ru3 1.903662 1_555
O5 Ru1 1.914221 1_555
O5 Ru5 1.929770 1_555
O6 Ru3 2.005098 1_556
O6 Ru5 2.041774 1_555
O6 Ru1 2.042443 1_565
O7 Ru6 1.853133 1_655
O7 Ru1 1.874356 1_554
O8 Ru5 2.032937 1_554
O8 Ru0 2.038725 1_554
O8 Ru3 2.044928 1_555
O9 Ru6 1.909605 1_555
O9 Ru4 1.923083 1_555
O10 Ru0 1.945001 1_555
O10 Ru4 2.007355 1_555
O10 Ru1 2.089413 1_455
O11 Ru1 1.927953 1_555
O11 Ru4 1.986677 1_655
O12 Ru2 1.914221 1_555
O12 Ru6 1.929770 1_555
O13 Ru3 1.945001 1_555
O13 Ru4 2.007355 1_665
O13 Ru2 2.089413 1_655
O14 Ru5 1.853133 1_455
O14 Ru2 1.874356 1_556
O15 Ru1 1.893200 1_555
O15 Ru0 1.903662 1_555
O16 Ru2 1.927953 1_555
O16 Ru4 1.986677 1_565
O17 Ru0 1.933279 1_555
O17 Ru5 1.987941 1_555
