# generated using pymatgen
data_Eu(GeIr)2
_symmetry_space_group_name_H-M   'P 1'
_cell_length_a   4.18335206
_cell_length_b   4.18335213
_cell_length_c   6.04482116
_cell_angle_alpha   110.24454203
_cell_angle_beta   110.24454577
_cell_angle_gamma   90.00000807
_symmetry_Int_Tables_number   1
_chemical_formula_structural   Eu(GeIr)2
_chemical_formula_sum   'Eu1 Ge2 Ir2'
_cell_volume   92.25509414
_cell_formula_units_Z   1
loop_
 _symmetry_equiv_pos_site_id
 _symmetry_equiv_pos_as_xyz
  1  'x, y, z'
loop_
 _atom_site_type_symbol
 _atom_site_label
 _atom_site_symmetry_multiplicity
 _atom_site_fract_x
 _atom_site_fract_y
 _atom_site_fract_z
 _atom_site_occupancy
  Eu  Eu0  1  -0.00000000  -0.00000000  0.00000000  1
  Ge  Ge0  1  0.37318542  0.37318542  0.74637185  1
  Ge  Ge1  1  0.62681458  0.62681458  0.25362815  1
  Ir  Ir0  1  0.25000000  0.75000000  0.50000000  1
  Ir  Ir1  1  0.75000000  0.25000000  0.50000000  1
loop_
_geom_bond_atom_site_label_1
_geom_bond_atom_site_label_2
_geom_bond_distance
_geom_bond_site_symmetry_2
Eu0 Ge0 3.246202 1_554
Eu0 Ge1 3.246202 1_445
Eu0 Ge0 3.246205 1_454
Eu0 Ge1 3.246205 1_545
Eu0 Ge1 3.246206 1_455
Eu0 Ge0 3.246206 1_544
Eu0 Ge1 3.246208 1_555
Eu0 Ge0 3.246208 1_444
Eu0 Ir1 3.364895 1_454
Eu0 Ir0 3.364895 1_545
Eu0 Ir0 3.364895 1_444
Eu0 Ir1 3.364895 1_555
Eu0 Ir1 3.364895 1_455
Eu0 Ir0 3.364895 1_544
Eu0 Ir1 3.364895 1_444
Eu0 Ir0 3.364895 1_555
Ge0 Ir1 2.462094 1_455
Ge0 Ir0 2.462094 1_545
Ge0 Ir0 2.462097 1_555
Ge0 Ir1 2.462097 1_555
Ge0 Ge1 2.674047 1_556
Ge1 Ir0 2.462094 1_655
Ge1 Ir1 2.462094 1_565
Ge1 Ir1 2.462097 1_555
Ge1 Ir0 2.462097 1_555
