# generated using pymatgen
data_K3Na4Si3BF22
_symmetry_space_group_name_H-M   'P 1'
_cell_length_a   10.26423419
_cell_length_b   10.26423419
_cell_length_c   10.26423419
_cell_angle_alpha   148.18284933
_cell_angle_beta   126.05562319
_cell_angle_gamma   64.00419791
_symmetry_Int_Tables_number   1
_chemical_formula_structural   K3Na4Si3BF22
_chemical_formula_sum   'K3 Na4 Si3 B1 F22'
_cell_volume   456.03377672
_cell_formula_units_Z   1
loop_
 _symmetry_equiv_pos_site_id
 _symmetry_equiv_pos_as_xyz
  1  'x, y, z'
loop_
 _atom_site_type_symbol
 _atom_site_label
 _atom_site_symmetry_multiplicity
 _atom_site_fract_x
 _atom_site_fract_y
 _atom_site_fract_z
 _atom_site_occupancy
  K  K0  1  0.40881200  0.62603600  0.78277500  1
  K  K1  1  0.15673900  0.37396300  0.78277600  1
  K  K2  1  0.94478600  0.00000000  0.94478600  1
  Na  Na0  1  0.02161000  0.67043400  0.35117600  1
  Na  Na1  1  0.46195800  0.85824900  0.60370800  1
  Na  Na2  1  0.74545900  0.14175000  0.60370800  1
  Na  Na3  1  0.68074200  0.32956600  0.35117600  1
  Si  Si0  1  0.23303400  0.21413300  0.01890000  1
  Si  Si1  1  0.70418600  0.50000000  0.20418600  1
  Si  Si2  1  0.80476700  0.78586600  0.01890000  1
  B  B0  1  0.31383000  0.00000000  0.31383000  1
  F  F0  1  0.28289700  0.06629900  0.78298000  1
  F  F1  1  0.78099600  0.78585500  0.42546800  1
  F  F2  1  0.88643400  0.63775400  0.81415300  1
  F  F3  1  0.17639900  0.36224600  0.24868000  1
  F  F4  1  0.63961300  0.21414500  0.99514100  1
  F  F5  1  0.42613800  0.22593800  0.20019900  1
  F  F6  1  0.17639900  0.92771900  0.81415300  1
  F  F7  1  0.88643400  0.07228100  0.24868000  1
  F  F8  1  0.88934800  0.50000000  0.38934800  1
  F  F9  1  0.46587500  0.06716200  0.39871300  1
  F  F10  1  0.33155000  0.93283700  0.39871300  1
  F  F11  1  0.22511700  0.79396800  0.01908500  1
  F  F12  1  0.52327500  0.50000000  0.02327500  1
  F  F13  1  0.28289700  0.49991700  0.21659800  1
  F  F14  1  0.63961300  0.64447200  0.42546800  1
  F  F15  1  0.71668100  0.93370100  0.21659800  1
  F  F16  1  0.22511700  0.20603200  0.43114800  1
  F  F17  1  0.63034300  0.79673300  0.83361000  1
  F  F18  1  0.71668100  0.50008300  0.78298000  1
  F  F19  1  0.03687600  0.20326600  0.83361000  1
  F  F20  1  0.97426100  0.77406100  0.20019900  1
  F  F21  1  0.78099600  0.35552800  0.99514100  1
loop_
_geom_bond_atom_site_label_1
_geom_bond_atom_site_label_2
_geom_bond_distance
_geom_bond_site_symmetry_2
B0 F9 1.411264 1_555
B0 F10 1.411279 1_545
B0 F11 1.423482 1_545
B0 F16 1.423482 1_555
F0 Si0 1.720987 1_556
F0 Na1 2.277413 1_545
F0 K1 2.841254 1_555
F1 Si1 1.727297 1_555
F1 Na2 2.254805 1_565
F1 Na0 2.490230 1_655
F1 K2 2.974856 1_565
F2 Si2 1.719694 1_556
F2 Na3 2.354511 1_555
F2 K1 2.849068 1_655
F2 K2 2.918142 1_565
F3 Si0 1.719698 1_555
F3 Na0 2.354511 1_555
F3 K0 2.849064 1_555
F3 K2 2.918142 1_454
F4 Si1 1.727297 1_556
F4 Na1 2.254809 1_545
F4 Na3 2.490230 1_556
F4 K2 2.974856 1_555
F5 Si0 1.700512 1_555
F5 Na3 2.287039 1_555
F6 Si0 1.719694 1_566
F6 Na0 2.354511 1_555
F6 K0 2.849067 1_555
F6 K2 2.918142 1_465
F7 Si2 1.719698 1_545
F7 Na3 2.354511 1_555
F7 K1 2.849068 1_655
F7 K2 2.918142 1_554
F8 Si1 1.724016 1_555
F8 K2 2.860417 1_565
F8 K2 2.860417 1_554
F9 Na2 2.308495 1_555
F9 K0 3.182968 1_555
F9 K0 3.182973 1_544
F10 Na1 2.308485 1_555
F10 K1 3.182966 1_565
F10 K1 3.182966 1_554
F11 K0 2.799751 1_554
F11 K1 2.799757 1_554
F11 K2 2.856004 1_464
F12 Si1 1.684435 1_555
F12 K0 3.135043 1_554
F12 K1 3.135045 1_554
F13 Si0 1.720991 1_555
F13 Na1 2.277409 1_555
F13 K1 2.841254 1_554
F14 Si1 1.727297 1_555
F14 Na1 2.254805 1_555
F14 Na3 2.490230 1_555
F14 K2 2.974856 1_565
F15 Si2 1.720991 1_555
F15 Na2 2.277409 1_565
F15 K0 2.841263 1_554
F16 K0 2.799743 1_555
F16 K1 2.799766 1_555
F16 K2 2.855999 1_454
F17 Si2 1.735553 1_556
F17 Na1 2.393523 1_555
F17 K0 3.009067 1_555
F18 Si2 1.720987 1_556
F18 Na2 2.277413 1_555
F18 K0 2.841261 1_555
F19 Si0 1.735554 1_556
F19 Na2 2.393516 1_455
F19 K1 3.009075 1_555
F20 Si2 1.700512 1_555
F20 Na0 2.287039 1_655
F21 Si1 1.727297 1_556
F21 Na2 2.254809 1_555
F21 Na0 2.490230 1_656
F21 K2 2.974856 1_555
