# generated using pymatgen
data_Na2V3O7
_symmetry_space_group_name_H-M   'P 1'
_cell_length_a   11.09423495
_cell_length_b   11.09423495
_cell_length_c   9.70143000
_cell_angle_alpha   90.00000000
_cell_angle_beta   90.00000000
_cell_angle_gamma   119.99999374
_symmetry_Int_Tables_number   1
_chemical_formula_structural   Na2V3O7
_chemical_formula_sum   'Na12 V18 O42'
_cell_volume   1034.09665070
_cell_formula_units_Z   6
loop_
 _symmetry_equiv_pos_site_id
 _symmetry_equiv_pos_as_xyz
  1  'x, y, z'
loop_
 _atom_site_type_symbol
 _atom_site_label
 _atom_site_symmetry_multiplicity
 _atom_site_fract_x
 _atom_site_fract_y
 _atom_site_fract_z
 _atom_site_occupancy
  Na  Na0  1  0.52152800  0.02929200  0.24887500  1
  Na  Na1  1  0.02929200  0.50776400  0.75112500  1
  Na  Na2  1  0.47847200  0.97070800  0.75112500  1
  Na  Na3  1  0.49223600  0.52152800  0.75112500  1
  Na  Na4  1  0.66666700  0.33333300  0.56818900  1
  Na  Na5  1  0.97070800  0.49223600  0.24887500  1
  Na  Na6  1  0.50776400  0.47847200  0.24887500  1
  Na  Na7  1  0.33333300  0.66666700  0.07042200  1
  Na  Na8  1  0.00000000  0.00000000  0.00000000  1
  Na  Na9  1  0.66666700  0.33333300  0.92957800  1
  Na  Na10  1  0.00000000  0.00000000  0.50000000  1
  Na  Na11  1  0.33333300  0.66666700  0.43181100  1
  V  V0  1  0.18605300  0.86986600  0.90004100  1
  V  V1  1  0.79275500  0.68295300  0.40104500  1
  V  V2  1  0.31527200  0.14840900  0.75053800  1
  V  V3  1  0.68295300  0.89019900  0.59895500  1
  V  V4  1  0.86986600  0.68381300  0.09995900  1
  V  V5  1  0.83313600  0.68472800  0.75053800  1
  V  V6  1  0.31618700  0.18605300  0.09995900  1
  V  V7  1  0.31704700  0.10980100  0.40104500  1
  V  V8  1  0.68472800  0.85159100  0.24946200  1
  V  V9  1  0.89019900  0.20724500  0.40104500  1
  V  V10  1  0.20724500  0.31704700  0.59895500  1
  V  V11  1  0.16686400  0.31527200  0.24946200  1
  V  V12  1  0.13013400  0.31618700  0.90004100  1
  V  V13  1  0.85159100  0.16686400  0.75053800  1
  V  V14  1  0.81394700  0.13013400  0.09995900  1
  V  V15  1  0.14840900  0.83313600  0.24946200  1
  V  V16  1  0.68381300  0.81394700  0.90004100  1
  V  V17  1  0.10980100  0.79275500  0.59895500  1
  O  O0  1  0.83305800  0.08044900  0.56709100  1
  O  O1  1  0.16694200  0.91955100  0.43290900  1
  O  O2  1  0.83398800  0.52167600  0.06454200  1
  O  O3  1  0.33162200  0.48033900  0.56304000  1
  O  O4  1  0.08044900  0.24739200  0.43290900  1
  O  O5  1  0.75612300  0.05125900  0.28893800  1
  O  O6  1  0.48033900  0.14871700  0.43696000  1
  O  O7  1  0.21490900  0.72710400  0.24781000  1
  O  O8  1  0.17400800  0.23799200  0.06762100  1
  O  O9  1  0.05125900  0.29513600  0.71106200  1
  O  O10  1  0.72957500  0.70184100  0.21129100  1
  O  O11  1  0.51966100  0.85128300  0.56304000  1
  O  O12  1  0.47832400  0.31231200  0.06454200  1
  O  O13  1  0.02773400  0.72957500  0.78870900  1
  O  O14  1  0.23799200  0.06398500  0.93237900  1
  O  O15  1  0.14871700  0.66837800  0.56304000  1
  O  O16  1  0.97226600  0.27042500  0.21129100  1
  O  O17  1  0.94874100  0.70486400  0.28893800  1
  O  O18  1  0.29815900  0.02773400  0.21129100  1
  O  O19  1  0.68768800  0.16601200  0.06454200  1
  O  O20  1  0.06398500  0.82599200  0.06762100  1
  O  O21  1  0.52167600  0.68768800  0.93545800  1
  O  O22  1  0.75260800  0.83305800  0.43290900  1
  O  O23  1  0.51219400  0.78509100  0.24781000  1
  O  O24  1  0.27289600  0.48780600  0.24781000  1
  O  O25  1  0.70184100  0.97226600  0.78870900  1
  O  O26  1  0.82599200  0.76200800  0.93237900  1
  O  O27  1  0.24387700  0.94874100  0.71106200  1
  O  O28  1  0.66837800  0.51966100  0.43696000  1
  O  O29  1  0.91955100  0.75260800  0.56709100  1
  O  O30  1  0.93601500  0.17400800  0.93237900  1
  O  O31  1  0.85128300  0.33162200  0.43696000  1
  O  O32  1  0.78509100  0.27289600  0.75219000  1
  O  O33  1  0.31231200  0.83398800  0.93545800  1
  O  O34  1  0.27042500  0.29815900  0.78870900  1
  O  O35  1  0.70486400  0.75612300  0.71106200  1
  O  O36  1  0.48780600  0.21490900  0.75219000  1
  O  O37  1  0.72710400  0.51219400  0.75219000  1
  O  O38  1  0.16601200  0.47832400  0.93545800  1
  O  O39  1  0.76200800  0.93601500  0.06762100  1
  O  O40  1  0.24739200  0.16694200  0.56709100  1
  O  O41  1  0.29513600  0.24387700  0.28893800  1
loop_
_geom_bond_atom_site_label_1
_geom_bond_atom_site_label_2
_geom_bond_distance
_geom_bond_site_symmetry_2
Na0 O6 2.428826 1_555
Na0 O19 2.469975 1_555
Na0 O18 2.496284 1_555
Na0 O5 2.519915 1_555
Na0 O23 2.658979 1_545
Na1 O15 2.428826 1_555
Na1 O38 2.469975 1_555
Na1 O13 2.496284 1_555
Na1 O9 2.519915 1_555
Na1 O32 2.658985 1_455
Na2 O11 2.428826 1_555
Na2 O33 2.469975 1_555
Na2 O25 2.496284 1_555
Na2 O27 2.519915 1_555
Na2 O36 2.658979 1_565
Na3 O3 2.428826 1_555
Na3 O21 2.469975 1_555
Na3 O34 2.496284 1_555
Na3 O35 2.519915 1_555
Na3 O37 2.658990 1_555
Na4 O31 2.419723 1_555
Na4 O6 2.419728 1_555
Na4 O28 2.419732 1_555
Na4 O32 2.498622 1_555
Na4 O37 2.498622 1_555
Na4 O36 2.498622 1_555
Na5 O31 2.428826 1_555
Na5 O2 2.469975 1_555
Na5 O16 2.496284 1_555
Na5 O17 2.519915 1_555
Na5 O7 2.658985 1_655
Na6 O28 2.428826 1_555
Na6 O12 2.469975 1_555
Na6 O10 2.496284 1_555
Na6 O41 2.519915 1_555
Na6 O24 2.658990 1_555
Na7 O33 2.376452 1_554
Na7 O38 2.376458 1_554
Na7 O21 2.376461 1_554
Na7 O7 2.453199 1_555
Na7 O24 2.453199 1_555
Na7 O23 2.453199 1_555
Na8 O39 2.455886 1_445
Na8 O14 2.455886 1_554
Na8 O8 2.455889 1_555
Na8 O26 2.455889 1_444
Na8 O30 2.455897 1_454
Na8 O20 2.455897 1_545
Na9 O19 2.376452 1_556
Na9 O2 2.376458 1_556
Na9 O12 2.376461 1_556
Na9 O32 2.453199 1_555
Na9 O37 2.453199 1_555
Na9 O36 2.453199 1_555
Na10 O1 2.510681 1_545
Na10 O0 2.510681 1_455
Na10 O22 2.510689 1_445
Na10 O40 2.510689 1_555
Na10 O29 2.510691 1_445
Na10 O4 2.510691 1_555
Na11 O15 2.419723 1_555
Na11 O11 2.419728 1_555
Na11 O3 2.419732 1_555
Na11 O7 2.498622 1_555
Na11 O24 2.498622 1_555
Na11 O23 2.498622 1_555
O0 V3 1.951623 1_545
O0 V13 1.982827 1_555
O0 V9 2.020861 1_555
O1 V7 1.951623 1_565
O1 V15 1.982827 1_555
O1 V17 2.020861 1_555
O2 V4 1.672165 1_555
O3 V10 1.675578 1_555
O4 V9 1.951616 1_455
O4 V11 1.982824 1_555
O4 V10 2.020861 1_555
O5 V9 1.953482 1_555
O5 V8 1.981522 1_545
O5 V14 1.994276 1_555
O6 V7 1.675575 1_555
O7 V15 1.672187 1_555
O8 V6 1.956390 1_555
O8 V11 1.980256 1_555
O8 V12 2.013673 1_554
O9 V10 1.953478 1_555
O9 V13 1.981520 1_455
O9 V12 1.994276 1_555
O10 V4 1.985023 1_555
O10 V8 1.992838 1_555
O10 V1 2.017661 1_555
O11 V3 1.675575 1_555
O12 V6 1.672166 1_555
O13 V0 1.985023 1_555
O13 V5 1.992849 1_455
O13 V17 2.017658 1_555
O14 V0 1.956400 1_545
O14 V2 1.980257 1_555
O14 V6 2.013668 1_556
O15 V17 1.675585 1_555
O16 V14 1.985023 1_555
O16 V11 1.992849 1_655
O16 V9 2.017658 1_555
O17 V1 1.953478 1_555
O17 V15 1.981520 1_655
O17 V4 1.994276 1_555
O18 V6 1.985023 1_555
O18 V15 1.992845 1_545
O18 V7 2.017657 1_555
O19 V14 1.672165 1_555
O20 V4 1.956397 1_455
O20 V15 1.980256 1_555
O20 V0 2.013667 1_554
O21 V16 1.672166 1_555
O22 V1 1.951638 1_555
O22 V8 1.982817 1_555
O22 V3 2.020861 1_555
O23 V8 1.672207 1_555
O24 V11 1.672205 1_555
O25 V16 1.985023 1_555
O25 V13 1.992845 1_565
O25 V3 2.017657 1_555
O26 V16 1.956390 1_555
O26 V5 1.980256 1_555
O26 V4 2.013673 1_556
O27 V17 1.953482 1_555
O27 V2 1.981522 1_565
O27 V0 1.994276 1_555
O28 V1 1.675578 1_555
O29 V17 1.951616 1_655
O29 V5 1.982824 1_555
O29 V1 2.020861 1_555
O30 V12 1.956397 1_655
O30 V13 1.980256 1_555
O30 V14 2.013667 1_556
O31 V9 1.675585 1_555
O32 V13 1.672187 1_555
O33 V0 1.672165 1_555
O34 V12 1.985023 1_555
O34 V2 1.992838 1_555
O34 V10 2.017661 1_555
O35 V3 1.953487 1_555
O35 V5 1.981511 1_555
O35 V16 1.994276 1_555
O36 V2 1.672207 1_555
O37 V5 1.672205 1_555
O38 V12 1.672165 1_555
O39 V14 1.956400 1_565
O39 V8 1.980257 1_555
O39 V16 2.013668 1_554
O40 V10 1.951638 1_555
O40 V2 1.982817 1_555
O40 V7 2.020861 1_555
O41 V7 1.953487 1_555
O41 V11 1.981511 1_555
O41 V6 1.994276 1_555
