# generated using pymatgen
data_Bi3Rh
_symmetry_space_group_name_H-M   'P 1'
_cell_length_a   4.28105583
_cell_length_b   8.90072447
_cell_length_c   11.66227089
_cell_angle_alpha   90.00000000
_cell_angle_beta   90.00000000
_cell_angle_gamma   90.00000000
_symmetry_Int_Tables_number   1
_chemical_formula_structural   Bi3Rh
_chemical_formula_sum   'Bi12 Rh4'
_cell_volume   444.38498228
_cell_formula_units_Z   4
loop_
 _symmetry_equiv_pos_site_id
 _symmetry_equiv_pos_as_xyz
  1  'x, y, z'
loop_
 _atom_site_type_symbol
 _atom_site_label
 _atom_site_symmetry_multiplicity
 _atom_site_fract_x
 _atom_site_fract_y
 _atom_site_fract_z
 _atom_site_occupancy
  Bi  Bi0  1  0.25000000  0.39799728  0.58986294  1
  Bi  Bi1  1  0.25000000  0.81039274  0.61537945  1
  Bi  Bi2  1  0.75000000  0.10422860  0.67296061  1
  Bi  Bi3  1  0.75000000  0.60422860  0.82703939  1
  Bi  Bi4  1  0.75000000  0.10200272  0.08986294  1
  Bi  Bi5  1  0.25000000  0.39577140  0.17296061  1
  Bi  Bi6  1  0.25000000  0.31039274  0.88462055  1
  Bi  Bi7  1  0.25000000  0.89799728  0.91013706  1
  Bi  Bi8  1  0.25000000  0.89577140  0.32703939  1
  Bi  Bi9  1  0.75000000  0.68960726  0.11537945  1
  Bi  Bi10  1  0.75000000  0.60200272  0.41013706  1
  Bi  Bi11  1  0.75000000  0.18960726  0.38462055  1
  Rh  Rh0  1  0.25000000  0.60275623  0.98076328  1
  Rh  Rh1  1  0.25000000  0.10275623  0.51923672  1
  Rh  Rh2  1  0.75000000  0.89724377  0.48076328  1
  Rh  Rh3  1  0.75000000  0.39724377  0.01923672  1
loop_
_geom_bond_atom_site_label_1
_geom_bond_atom_site_label_2
_geom_bond_distance
_geom_bond_site_symmetry_2
Bi0 Rh1 2.753918 1_555
Bi1 Rh2 2.764801 1_555
Bi1 Rh2 2.764801 1_455
Bi1 Rh1 2.833527 1_565
Bi2 Rh1 2.792142 1_555
Bi2 Rh1 2.792142 1_655
Bi2 Rh2 2.901423 1_545
Bi3 Rh0 2.792142 1_655
Bi3 Rh0 2.792142 1_555
Bi3 Rh3 2.901423 1_556
Bi4 Rh3 2.753918 1_555
Bi5 Rh3 2.792142 1_555
Bi5 Rh3 2.792142 1_455
Bi5 Rh0 2.901423 1_554
Bi6 Rh3 2.764801 1_556
Bi6 Rh3 2.764801 1_456
Bi6 Rh0 2.833527 1_555
Bi7 Rh0 2.753918 1_555
Bi8 Rh2 2.792142 1_455
Bi8 Rh2 2.792142 1_555
Bi8 Rh1 2.901423 1_565
Bi9 Rh0 2.764801 1_654
Bi9 Rh0 2.764801 1_554
Bi9 Rh3 2.833527 1_555
Bi10 Rh2 2.753918 1_555
Bi11 Rh1 2.764801 1_555
Bi11 Rh1 2.764801 1_655
Bi11 Rh2 2.833527 1_545
Rh0 Rh3 2.851173 1_556
Rh0 Rh3 2.851173 1_456
Rh1 Rh2 2.851173 1_445
Rh1 Rh2 2.851173 1_545
