# generated using pymatgen
data_LiAlSiO4
_symmetry_space_group_name_H-M   'P 1'
_cell_length_a   5.35072271
_cell_length_b   5.35072271
_cell_length_c   11.09460200
_cell_angle_alpha   90.00000000
_cell_angle_beta   90.00000000
_cell_angle_gamma   120.00000877
_symmetry_Int_Tables_number   1
_chemical_formula_structural   LiAlSiO4
_chemical_formula_sum   'Li3 Al3 Si3 O12'
_cell_volume   275.08519082
_cell_formula_units_Z   3
loop_
 _symmetry_equiv_pos_site_id
 _symmetry_equiv_pos_as_xyz
  1  'x, y, z'
loop_
 _atom_site_type_symbol
 _atom_site_label
 _atom_site_symmetry_multiplicity
 _atom_site_fract_x
 _atom_site_fract_y
 _atom_site_fract_z
 _atom_site_occupancy
  Li  Li0  1  0.00000000  0.00000000  0.83333300  1
  Li  Li1  1  0.00000000  0.00000000  0.16666700  1
  Li  Li2  1  0.00000000  0.00000000  0.50000000  1
  Al  Al0  1  0.50000000  0.50000000  0.83333300  1
  Al  Al1  1  0.00000000  0.50000000  0.16666700  1
  Al  Al2  1  0.50000000  0.00000000  0.50000000  1
  Si  Si0  1  0.00000000  0.50000000  0.66666700  1
  Si  Si1  1  0.50000000  0.00000000  0.00000000  1
  Si  Si2  1  0.50000000  0.50000000  0.33333300  1
  O  O0  1  0.78569200  0.18551300  0.08445300  1
  O  O1  1  0.60017900  0.78569200  0.41778600  1
  O  O2  1  0.18551300  0.78569200  0.58221400  1
  O  O3  1  0.39982100  0.21430800  0.41778600  1
  O  O4  1  0.78569200  0.60017900  0.24888000  1
  O  O5  1  0.81448700  0.60017900  0.75112000  1
  O  O6  1  0.18551300  0.39982100  0.75112000  1
  O  O7  1  0.39982100  0.18551300  0.91554700  1
  O  O8  1  0.21430800  0.39982100  0.24888000  1
  O  O9  1  0.21430800  0.81448700  0.08445300  1
  O  O10  1  0.81448700  0.21430800  0.58221400  1
  O  O11  1  0.60017900  0.81448700  0.91554700  1
loop_
_geom_bond_atom_site_label_1
_geom_bond_atom_site_label_2
_geom_bond_distance
_geom_bond_site_symmetry_2
Li0 O5 2.066507 1_445
Li0 O6 2.066507 1_555
Li0 O11 2.066512 1_445
Li0 O7 2.066512 1_555
Li1 O8 2.066507 1_555
Li1 O4 2.066507 1_445
Li1 O0 2.066512 1_455
Li1 O9 2.066512 1_545
Li2 O3 2.066512 1_555
Li2 O1 2.066512 1_445
Li2 O2 2.066512 1_545
Li2 O10 2.066512 1_455
Al0 O5 1.746106 1_555
Al0 O6 1.746106 1_555
Al0 O11 1.746112 1_555
Al0 O7 1.746112 1_555
Al1 O8 1.746106 1_555
Al1 O4 1.746106 1_455
Al1 O9 1.746112 1_555
Al1 O0 1.746112 1_455
Al2 O10 1.746112 1_555
Al2 O2 1.746112 1_545
Al2 O3 1.746112 1_555
Al2 O1 1.746112 1_545
O0 Si1 1.637875 1_555
O1 Si2 1.637875 1_555
O2 Si0 1.637875 1_555
O3 Si2 1.637875 1_555
O4 Si2 1.637875 1_555
O5 Si0 1.637875 1_655
O6 Si0 1.637875 1_555
O7 Si1 1.637875 1_556
O8 Si2 1.637875 1_555
O9 Si1 1.637875 1_565
O10 Si0 1.637875 1_655
O11 Si1 1.637875 1_566
