# generated using pymatgen
data_Ce2O3
_symmetry_space_group_name_H-M   'P 1'
_cell_length_a   9.69161665
_cell_length_b   9.69161534
_cell_length_c   9.69161621
_cell_angle_alpha   109.47122463
_cell_angle_beta   109.47122192
_cell_angle_gamma   109.47121898
_symmetry_Int_Tables_number   1
_chemical_formula_structural   Ce2O3
_chemical_formula_sum   'Ce16 O24'
_cell_volume   700.75578799
_cell_formula_units_Z   8
loop_
 _symmetry_equiv_pos_site_id
 _symmetry_equiv_pos_as_xyz
  1  'x, y, z'
loop_
 _atom_site_type_symbol
 _atom_site_label
 _atom_site_symmetry_multiplicity
 _atom_site_fract_x
 _atom_site_fract_y
 _atom_site_fract_z
 _atom_site_occupancy
  Ce  Ce0  1  0.50000000  0.50000000  0.50000000  1
  Ce  Ce1  1  -0.00000000  -0.00000000  0.50000000  1
  Ce  Ce2  1  0.50000000  -0.00000000  0.00000000  1
  Ce  Ce3  1  -0.00000000  0.50000000  0.00000000  1
  Ce  Ce4  1  0.25000000  0.22226223  0.97226223  1
  Ce  Ce5  1  0.27773777  0.52773777  0.75000000  1
  Ce  Ce6  1  0.52773777  0.75000000  0.27773777  1
  Ce  Ce7  1  0.22226223  0.97226223  0.25000000  1
  Ce  Ce8  1  0.97226223  0.25000000  0.22226223  1
  Ce  Ce9  1  0.75000000  0.27773777  0.52773777  1
  Ce  Ce10  1  0.75000000  0.77773777  0.02773777  1
  Ce  Ce11  1  0.72226223  0.47226223  0.25000000  1
  Ce  Ce12  1  0.47226223  0.25000000  0.72226223  1
  Ce  Ce13  1  0.77773777  0.02773777  0.75000000  1
  Ce  Ce14  1  0.02773777  0.75000000  0.77773777  1
  Ce  Ce15  1  0.25000000  0.72226223  0.47226223  1
  O  O0  1  0.52733104  0.76822728  0.53802053  1
  O  O1  1  0.98930851  0.96197947  0.73020575  1
  O  O2  1  0.25910276  0.76979425  0.73177272  1
  O  O3  1  0.51069149  0.24089724  0.97266896  1
  O  O4  1  0.96197947  0.73020575  0.98930851  1
  O  O5  1  0.73177272  0.25910276  0.76979425  1
  O  O6  1  0.24089724  0.97266896  0.51069149  1
  O  O7  1  0.53802053  0.52733104  0.76822728  1
  O  O8  1  0.76822728  0.53802053  0.52733104  1
  O  O9  1  0.73020575  0.98930851  0.96197947  1
  O  O10  1  0.76979425  0.73177272  0.25910276  1
  O  O11  1  0.97266896  0.51069149  0.24089724  1
  O  O12  1  0.47266896  0.23177272  0.46197947  1
  O  O13  1  0.01069149  0.03802053  0.26979425  1
  O  O14  1  0.74089724  0.23020575  0.26822728  1
  O  O15  1  0.48930851  0.75910276  0.02733104  1
  O  O16  1  0.03802053  0.26979425  0.01069149  1
  O  O17  1  0.26822728  0.74089724  0.23020575  1
  O  O18  1  0.75910276  0.02733104  0.48930851  1
  O  O19  1  0.46197947  0.47266896  0.23177272  1
  O  O20  1  0.23177272  0.46197947  0.47266896  1
  O  O21  1  0.26979425  0.01069149  0.03802053  1
  O  O22  1  0.23020575  0.26822728  0.74089724  1
  O  O23  1  0.02733104  0.48930851  0.75910276  1
loop_
_geom_bond_atom_site_label_1
_geom_bond_atom_site_label_2
_geom_bond_distance
_geom_bond_site_symmetry_2
Ce0 O12 2.408510 1_555
Ce0 O0 2.408510 1_555
Ce0 O19 2.408510 1_555
Ce0 O7 2.408510 1_555
Ce0 O20 2.408510 1_555
Ce0 O8 2.408510 1_555
Ce1 O1 2.408506 1_445
Ce1 O13 2.408506 1_555
Ce1 O10 2.408510 1_445
Ce1 O22 2.408510 1_555
Ce1 O6 2.408515 1_545
Ce1 O18 2.408515 1_455
Ce2 O9 2.408506 1_544
Ce2 O21 2.408506 1_555
Ce2 O14 2.408511 1_555
Ce2 O2 2.408511 1_544
Ce2 O3 2.408515 1_554
Ce2 O15 2.408515 1_545
Ce3 O16 2.408506 1_555
Ce3 O4 2.408506 1_454
Ce3 O5 2.408511 1_454
Ce3 O17 2.408511 1_555
Ce3 O11 2.408515 1_455
Ce3 O23 2.408515 1_554
Ce4 O19 2.366046 1_556
Ce4 O16 2.366058 1_556
Ce4 O21 2.387313 1_556
Ce4 O22 2.387319 1_555
Ce4 O1 2.470748 1_445
Ce4 O3 2.470756 1_555
Ce5 O23 2.366039 1_555
Ce5 O22 2.366048 1_555
Ce5 O15 2.387323 1_556
Ce5 O20 2.387330 1_555
Ce5 O7 2.470739 1_555
Ce5 O2 2.470752 1_555
Ce6 O15 2.366039 1_555
Ce6 O17 2.366049 1_555
Ce6 O18 2.387323 1_565
Ce6 O19 2.387329 1_555
Ce6 O0 2.470739 1_555
Ce6 O10 2.470752 1_555
Ce7 O12 2.366046 1_565
Ce7 O21 2.366058 1_565
Ce7 O13 2.387313 1_565
Ce7 O17 2.387318 1_555
Ce7 O4 2.470748 1_454
Ce7 O6 2.470756 1_555
Ce8 O20 2.366046 1_655
Ce8 O13 2.366058 1_655
Ce8 O16 2.387313 1_655
Ce8 O14 2.387319 1_555
Ce8 O9 2.470748 1_544
Ce8 O11 2.470755 1_555
Ce9 O18 2.366039 1_555
Ce9 O14 2.366049 1_555
Ce9 O23 2.387324 1_655
Ce9 O12 2.387330 1_555
Ce9 O8 2.470739 1_555
Ce9 O5 2.470752 1_555
Ce10 O7 2.366046 1_554
Ce10 O4 2.366058 1_554
Ce10 O9 2.387313 1_554
Ce10 O10 2.387319 1_555
Ce10 O13 2.470748 1_665
Ce10 O15 2.470756 1_555
Ce11 O11 2.366039 1_555
Ce11 O10 2.366048 1_555
Ce11 O3 2.387323 1_554
Ce11 O8 2.387330 1_555
Ce11 O19 2.470739 1_555
Ce11 O14 2.470752 1_555
Ce12 O3 2.366039 1_555
Ce12 O5 2.366049 1_555
Ce12 O6 2.387323 1_545
Ce12 O7 2.387329 1_555
Ce12 O12 2.470739 1_555
Ce12 O22 2.470752 1_555
Ce13 O0 2.366046 1_545
Ce13 O9 2.366058 1_545
Ce13 O1 2.387313 1_545
Ce13 O5 2.387318 1_555
Ce13 O16 2.470748 1_656
Ce13 O18 2.470756 1_555
Ce14 O8 2.366046 1_455
Ce14 O1 2.366058 1_455
Ce14 O4 2.387313 1_455
Ce14 O2 2.387319 1_555
Ce14 O21 2.470748 1_566
Ce14 O23 2.470755 1_555
Ce15 O6 2.366039 1_555
Ce15 O2 2.366049 1_555
Ce15 O11 2.387324 1_455
Ce15 O0 2.387330 1_555
Ce15 O20 2.470739 1_555
Ce15 O17 2.470752 1_555
