# generated using pymatgen
data_Ba3ScCO3F7
_symmetry_space_group_name_H-M   'P 1'
_cell_length_a   8.95972928
_cell_length_b   8.95972928
_cell_length_c   6.09462000
_cell_angle_alpha   90.00000000
_cell_angle_beta   90.00000000
_cell_angle_gamma   98.71116249
_symmetry_Int_Tables_number   1
_chemical_formula_structural   Ba3ScCO3F7
_chemical_formula_sum   'Ba6 Sc2 C2 O6 F14'
_cell_volume   483.61241313
_cell_formula_units_Z   2
loop_
 _symmetry_equiv_pos_site_id
 _symmetry_equiv_pos_as_xyz
  1  'x, y, z'
loop_
 _atom_site_type_symbol
 _atom_site_label
 _atom_site_symmetry_multiplicity
 _atom_site_fract_x
 _atom_site_fract_y
 _atom_site_fract_z
 _atom_site_occupancy
  Ba  Ba0  1  0.60306800  0.84450100  0.75000000  1
  Ba  Ba1  1  0.84450100  0.60306800  0.25000000  1
  Ba  Ba2  1  0.15549900  0.39693200  0.75000000  1
  Ba  Ba3  1  0.90549100  0.09450900  0.25000000  1
  Ba  Ba4  1  0.09450900  0.90549100  0.75000000  1
  Ba  Ba5  1  0.39693200  0.15549900  0.25000000  1
  Sc  Sc0  1  0.73044600  0.26955400  0.75000000  1
  Sc  Sc1  1  0.26955400  0.73044600  0.25000000  1
  C  C0  1  0.53614500  0.46385500  0.75000000  1
  C  C1  1  0.46385500  0.53614500  0.25000000  1
  O  O0  1  0.44221500  0.55778500  0.75000000  1
  O  O1  1  0.50797200  0.68274100  0.25000000  1
  O  O2  1  0.68274100  0.50797200  0.75000000  1
  O  O3  1  0.49202800  0.31725900  0.75000000  1
  O  O4  1  0.55778500  0.44221500  0.25000000  1
  O  O5  1  0.31725900  0.49202800  0.25000000  1
  F  F0  1  0.16061500  0.16061500  0.50000000  1
  F  F1  1  0.88480000  0.11520000  0.75000000  1
  F  F2  1  0.11520000  0.88480000  0.25000000  1
  F  F3  1  0.83938500  0.83938500  0.50000000  1
  F  F4  1  0.64081900  0.11795900  0.50607100  1
  F  F5  1  0.11795900  0.64081900  0.49392900  1
  F  F6  1  0.88204100  0.35918100  0.99392900  1
  F  F7  1  0.88204100  0.35918100  0.50607100  1
  F  F8  1  0.64081900  0.11795900  0.99392900  1
  F  F9  1  0.35918100  0.88204100  0.00607100  1
  F  F10  1  0.83938500  0.83938500  0.00000000  1
  F  F11  1  0.16061500  0.16061500  0.00000000  1
  F  F12  1  0.11795900  0.64081900  0.00607100  1
  F  F13  1  0.35918100  0.88204100  0.49392900  1
loop_
_geom_bond_atom_site_label_1
_geom_bond_atom_site_label_2
_geom_bond_distance
_geom_bond_site_symmetry_2
Ba0 F3 2.614601 1_555
Ba0 F10 2.614601 1_556
Ba0 F9 2.747059 1_556
Ba0 F13 2.747059 1_555
Ba0 O0 2.748607 1_555
Ba0 F4 2.841929 1_565
Ba0 F8 2.841929 1_565
Ba1 F3 2.614601 1_555
Ba1 F10 2.614601 1_555
Ba1 F6 2.747059 1_554
Ba1 F7 2.747059 1_555
Ba1 O4 2.748607 1_555
Ba1 F5 2.841929 1_655
Ba1 F12 2.841929 1_655
Ba2 F0 2.614601 1_555
Ba2 F11 2.614601 1_556
Ba2 F12 2.747059 1_556
Ba2 F5 2.747059 1_555
Ba2 O0 2.748607 1_555
Ba2 F6 2.841929 1_455
Ba2 F7 2.841929 1_455
Ba3 F11 2.736294 1_655
Ba3 F0 2.736294 1_655
Ba3 F3 2.736294 1_545
Ba3 F10 2.736294 1_545
Ba3 F2 2.851347 1_645
Ba3 F8 2.873012 1_554
Ba3 F4 2.873012 1_555
Ba3 F6 2.873012 1_554
Ba3 F7 2.873012 1_555
Ba3 F1 3.060269 1_555
Ba3 F1 3.060269 1_554
Ba4 F0 2.736294 1_565
Ba4 F11 2.736294 1_566
Ba4 F10 2.736294 1_456
Ba4 F3 2.736294 1_455
Ba4 F1 2.851347 1_465
Ba4 F9 2.873012 1_556
Ba4 F5 2.873012 1_555
Ba4 F12 2.873012 1_556
Ba4 F13 2.873012 1_555
Ba4 F2 3.060269 1_555
Ba4 F2 3.060269 1_556
Ba5 F11 2.614601 1_555
Ba5 F0 2.614601 1_555
Ba5 F8 2.747059 1_554
Ba5 F4 2.747059 1_555
Ba5 O4 2.748607 1_555
Ba5 F13 2.841929 1_545
Ba5 F9 2.841929 1_545
C0 O0 1.277137 1_555
C0 O3 1.313072 1_555
C0 O2 1.313072 1_555
C1 O4 1.277137 1_555
C1 O5 1.313072 1_555
C1 O1 1.313072 1_555
O1 Sc1 2.241080 1_555
O2 Sc0 2.241080 1_555
O3 Sc0 2.241080 1_555
O5 Sc1 2.241080 1_555
F1 Sc0 2.098703 1_555
F2 Sc1 2.098703 1_555
F4 Sc0 2.090326 1_555
F5 Sc1 2.090326 1_555
F6 Sc0 2.090326 1_555
F7 Sc0 2.090326 1_555
F8 Sc0 2.090326 1_555
F9 Sc1 2.090326 1_555
F12 Sc1 2.090326 1_555
F13 Sc1 2.090326 1_555
