# generated using pymatgen
data_Ba2CoC2(O3F)2
_symmetry_space_group_name_H-M   'P 1'
_cell_length_a   6.74940900
_cell_length_b   9.08833400
_cell_length_c   11.70411300
_cell_angle_alpha   90.00000000
_cell_angle_beta   90.00000000
_cell_angle_gamma   90.00000000
_symmetry_Int_Tables_number   1
_chemical_formula_structural   Ba2CoC2(O3F)2
_chemical_formula_sum   'Ba8 Co4 C8 O24 F8'
_cell_volume   717.94062960
_cell_formula_units_Z   4
loop_
 _symmetry_equiv_pos_site_id
 _symmetry_equiv_pos_as_xyz
  1  'x, y, z'
loop_
 _atom_site_type_symbol
 _atom_site_label
 _atom_site_symmetry_multiplicity
 _atom_site_fract_x
 _atom_site_fract_y
 _atom_site_fract_z
 _atom_site_occupancy
  Ba  Ba0  1  0.98542900  0.89140400  0.32507500  1
  Ba  Ba1  1  0.51457100  0.39140400  0.67492500  1
  Ba  Ba2  1  0.51457100  0.89140400  0.82507500  1
  Ba  Ba3  1  0.98542900  0.39140400  0.17492500  1
  Ba  Ba4  1  0.48542900  0.60859600  0.32507500  1
  Ba  Ba5  1  0.01457100  0.60859600  0.82507500  1
  Ba  Ba6  1  0.01457100  0.10859600  0.67492500  1
  Ba  Ba7  1  0.48542900  0.10859600  0.17492500  1
  Co  Co0  1  0.00000000  0.50000000  0.50000000  1
  Co  Co1  1  0.00000000  0.00000000  0.00000000  1
  Co  Co2  1  0.50000000  0.00000000  0.50000000  1
  Co  Co3  1  0.50000000  0.50000000  0.00000000  1
  C  C0  1  0.74785600  0.25977900  0.41216200  1
  C  C1  1  0.74785600  0.75977900  0.08783800  1
  C  C2  1  0.24785600  0.24022100  0.41216200  1
  C  C3  1  0.25214400  0.74022100  0.58783800  1
  C  C4  1  0.75214400  0.75977900  0.58783800  1
  C  C5  1  0.24785600  0.74022100  0.08783800  1
  C  C6  1  0.25214400  0.24022100  0.91216200  1
  C  C7  1  0.75214400  0.25977900  0.91216200  1
  O  O0  1  0.80390300  0.68741600  0.17653600  1
  O  O1  1  0.17400100  0.80433700  0.99838900  1
  O  O2  1  0.26560800  0.09580200  0.41301300  1
  O  O3  1  0.67400100  0.19566300  0.50161100  1
  O  O4  1  0.73439200  0.40419800  0.91301300  1
  O  O5  1  0.23439200  0.09580200  0.91301300  1
  O  O6  1  0.23439200  0.59580200  0.58698700  1
  O  O7  1  0.76560800  0.90419800  0.08698700  1
  O  O8  1  0.80390300  0.18741600  0.32346400  1
  O  O9  1  0.32599900  0.30433700  0.00161100  1
  O  O10  1  0.73439200  0.90419800  0.58698700  1
  O  O11  1  0.19609700  0.81258400  0.67653600  1
  O  O12  1  0.82599900  0.69566300  0.49838900  1
  O  O13  1  0.19609700  0.31258400  0.82346400  1
  O  O14  1  0.82599900  0.19566300  0.00161100  1
  O  O15  1  0.69609700  0.68741600  0.67653600  1
  O  O16  1  0.26560800  0.59580200  0.08698700  1
  O  O17  1  0.30390300  0.81258400  0.17653600  1
  O  O18  1  0.17400100  0.30433700  0.50161100  1
  O  O19  1  0.67400100  0.69566300  0.99838900  1
  O  O20  1  0.32599900  0.80433700  0.49838900  1
  O  O21  1  0.30390300  0.31258400  0.32346400  1
  O  O22  1  0.69609700  0.18741600  0.82346400  1
  O  O23  1  0.76560800  0.40419800  0.41301300  1
  F  F0  1  0.09416500  0.59164500  0.34424800  1
  F  F1  1  0.59416500  0.90835500  0.34424800  1
  F  F2  1  0.09416500  0.09164500  0.15575200  1
  F  F3  1  0.90583500  0.90835500  0.84424800  1
  F  F4  1  0.40583500  0.09164500  0.65575200  1
  F  F5  1  0.90583500  0.40835500  0.65575200  1
  F  F6  1  0.40583500  0.59164500  0.84424800  1
  F  F7  1  0.59416500  0.40835500  0.15575200  1
loop_
_geom_bond_atom_site_label_1
_geom_bond_atom_site_label_2
_geom_bond_distance
_geom_bond_site_symmetry_2
Ba0 F1 2.654792 1_555
Ba0 F2 2.788894 1_665
Ba0 O0 2.821441 1_555
Ba0 F0 2.830342 1_655
Ba0 O2 2.843622 1_665
Ba0 O17 2.855869 1_655
Ba0 O12 2.904713 1_555
Ba0 O8 2.956168 1_565
Ba0 O7 3.159108 1_555
Ba0 O20 3.166177 1_655
Ba1 F5 2.654792 1_555
Ba1 F6 2.788894 1_555
Ba1 O22 2.821441 1_555
Ba1 F4 2.830342 1_555
Ba1 O6 2.843622 1_555
Ba1 O13 2.855869 1_555
Ba1 O3 2.904713 1_555
Ba1 O15 2.956168 1_555
Ba1 O4 3.159108 1_555
Ba1 O18 3.166177 1_555
Ba2 F3 2.654792 1_555
Ba2 F4 2.788894 1_565
Ba2 O15 2.821441 1_555
Ba2 F6 2.830342 1_555
Ba2 O5 2.843622 1_565
Ba2 O11 2.855869 1_555
Ba2 O19 2.904713 1_555
Ba2 O22 2.956168 1_565
Ba2 O10 3.159108 1_555
Ba2 O1 3.166177 1_555
Ba3 F7 2.654792 1_555
Ba3 F0 2.788894 1_655
Ba3 O8 2.821441 1_555
Ba3 F2 2.830342 1_655
Ba3 O16 2.843622 1_655
Ba3 O21 2.855869 1_655
Ba3 O14 2.904713 1_555
Ba3 O0 2.956168 1_555
Ba3 O23 3.159108 1_555
Ba3 O9 3.166177 1_655
Ba4 F0 2.654792 1_555
Ba4 F7 2.788894 1_555
Ba4 O17 2.821441 1_555
Ba4 F1 2.830342 1_555
Ba4 O23 2.843622 1_555
Ba4 O0 2.855869 1_555
Ba4 O20 2.904713 1_555
Ba4 O21 2.956168 1_555
Ba4 O16 3.159108 1_555
Ba4 O12 3.166177 1_555
Ba5 F6 2.654792 1_555
Ba5 F5 2.788894 1_455
Ba5 O11 2.821441 1_555
Ba5 F3 2.830342 1_455
Ba5 O4 2.843622 1_455
Ba5 O15 2.855869 1_455
Ba5 O1 2.904713 1_555
Ba5 O13 2.956168 1_555
Ba5 O6 3.159108 1_555
Ba5 O19 3.166177 1_455
Ba6 F4 2.654792 1_555
Ba6 F3 2.788894 1_445
Ba6 O13 2.821441 1_555
Ba6 F5 2.830342 1_455
Ba6 O10 2.843622 1_445
Ba6 O22 2.855869 1_455
Ba6 O18 2.904713 1_555
Ba6 O11 2.956168 1_545
Ba6 O5 3.159108 1_555
Ba6 O3 3.166177 1_455
Ba7 F2 2.654792 1_555
Ba7 F1 2.788894 1_545
Ba7 O21 2.821441 1_555
Ba7 F7 2.830342 1_555
Ba7 O7 2.843622 1_545
Ba7 O8 2.855869 1_555
Ba7 O9 2.904713 1_555
Ba7 O17 2.956168 1_545
Ba7 O2 3.159108 1_555
Ba7 O14 3.166177 1_555
Co0 O6 2.073010 1_555
Co0 O23 2.073010 1_455
Co0 F0 2.102561 1_555
Co0 F5 2.102561 1_455
Co0 O12 2.131140 1_455
Co0 O18 2.131140 1_555
Co1 O5 2.073010 1_554
Co1 O7 2.073010 1_445
Co1 F2 2.102561 1_555
Co1 F3 2.102561 1_444
Co1 O1 2.131140 1_544
Co1 O14 2.131140 1_455
Co2 O10 2.073010 1_545
Co2 O2 2.073010 1_555
Co2 F4 2.102561 1_555
Co2 F1 2.102561 1_545
Co2 O3 2.131140 1_555
Co2 O20 2.131140 1_545
Co3 O4 2.073010 1_554
Co3 O16 2.073010 1_555
Co3 F6 2.102561 1_554
Co3 F7 2.102561 1_555
Co3 O19 2.131140 1_554
Co3 O9 2.131140 1_555
C0 O8 1.285819 1_555
C0 O3 1.297718 1_555
C0 O23 1.318023 1_555
C1 O0 1.285819 1_555
C1 O19 1.297718 1_554
C1 O7 1.318023 1_555
C2 O21 1.285819 1_555
C2 O18 1.297718 1_555
C2 O2 1.318023 1_555
C3 O11 1.285819 1_555
C3 O20 1.297718 1_555
C3 O6 1.318023 1_555
C4 O15 1.285819 1_555
C4 O12 1.297718 1_555
C4 O10 1.318023 1_555
C5 O17 1.285819 1_555
C5 O1 1.297718 1_554
C5 O16 1.318023 1_555
C6 O13 1.285819 1_555
C6 O9 1.297718 1_556
C6 O5 1.318023 1_555
C7 O22 1.285819 1_555
C7 O14 1.297718 1_556
C7 O4 1.318023 1_555
