# generated using pymatgen
data_Rb2Li14Pb3O14
_symmetry_space_group_name_H-M   'P 1'
_cell_length_a   8.52000280
_cell_length_b   8.52000280
_cell_length_c   8.52000280
_cell_angle_alpha   128.64075440
_cell_angle_beta   123.24280111
_cell_angle_gamma   80.05961089
_symmetry_Int_Tables_number   1
_chemical_formula_structural   Rb2Li14Pb3O14
_chemical_formula_sum   'Rb2 Li14 Pb3 O14'
_cell_volume   390.15275362
_cell_formula_units_Z   1
loop_
 _symmetry_equiv_pos_site_id
 _symmetry_equiv_pos_as_xyz
  1  'x, y, z'
loop_
 _atom_site_type_symbol
 _atom_site_label
 _atom_site_symmetry_multiplicity
 _atom_site_fract_x
 _atom_site_fract_y
 _atom_site_fract_z
 _atom_site_occupancy
  Rb  Rb0  1  0.50000000  0.23457900  0.73457900  1
  Rb  Rb1  1  0.50000000  0.76542100  0.26542100  1
  Li  Li0  1  0.84203900  0.50000000  0.34203900  1
  Li  Li1  1  0.15796100  0.50000000  0.65796100  1
  Li  Li2  1  0.41523400  0.76958300  0.64565200  1
  Li  Li3  1  0.58476600  0.23041700  0.35434800  1
  Li  Li4  1  0.87606900  0.23041700  0.64565200  1
  Li  Li5  1  0.12393100  0.76958300  0.35434800  1
  Li  Li6  1  0.70863600  0.59338600  0.57185800  1
  Li  Li7  1  0.29136400  0.86322100  0.88475000  1
  Li  Li8  1  0.97847200  0.40661400  0.11525000  1
  Li  Li9  1  0.02152800  0.13677900  0.42814200  1
  Li  Li10  1  0.29136400  0.40661400  0.42814200  1
  Li  Li11  1  0.70863600  0.13677900  0.11525000  1
  Li  Li12  1  0.02152800  0.59338600  0.88475000  1
  Li  Li13  1  0.97847200  0.86322100  0.57185800  1
  Pb  Pb0  1  0.72837000  0.72837000  0.00000000  1
  Pb  Pb1  1  0.27163000  0.27163000  0.00000000  1
  Pb  Pb2  1  0.00000000  0.00000000  0.00000000  1
  O  O0  1  0.74911500  0.04078400  0.29166800  1
  O  O1  1  0.25088500  0.54255300  0.29166800  1
  O  O2  1  0.25088500  0.95921600  0.70833200  1
  O  O3  1  0.74911500  0.45744700  0.70833200  1
  O  O4  1  0.00000000  0.70510500  0.70510500  1
  O  O5  1  0.00000000  0.29489500  0.29489500  1
  O  O6  1  0.68624300  0.87291000  0.81333200  1
  O  O7  1  0.31375700  0.12709000  0.18666800  1
  O  O8  1  0.94042200  0.12709000  0.81333200  1
  O  O9  1  0.05957800  0.87291000  0.18666800  1
  O  O10  1  0.41116400  0.62925800  0.78190700  1
  O  O11  1  0.58883600  0.37074200  0.21809300  1
  O  O12  1  0.15264900  0.37074200  0.78190700  1
  O  O13  1  0.84735100  0.62925800  0.21809300  1
loop_
_geom_bond_atom_site_label_1
_geom_bond_atom_site_label_2
_geom_bond_distance
_geom_bond_site_symmetry_2
Li0 O11 1.962657 1_555
Li0 O13 1.962664 1_555
Li0 O4 1.982535 1_655
Li0 O5 1.982535 1_655
Li1 O10 1.962657 1_555
Li1 O12 1.962664 1_555
Li1 O4 1.982535 1_555
Li1 O5 1.982535 1_555
Li2 O6 1.913619 1_555
Li2 O2 1.953850 1_555
Li2 O1 1.953860 1_555
Li2 O10 2.137768 1_555
Li3 O7 1.913619 1_555
Li3 O0 1.953850 1_555
Li3 O3 1.953860 1_555
Li3 O11 2.137768 1_555
Li4 O8 1.913604 1_555
Li4 O3 1.953861 1_555
Li4 O0 1.953861 1_555
Li4 O12 2.137768 1_655
Li5 O9 1.913604 1_555
Li5 O1 1.953861 1_555
Li5 O2 1.953861 1_555
Li5 O13 2.137768 1_455
Li6 O11 1.969753 1_555
Li6 O3 1.979059 1_555
Li6 O6 2.023680 1_555
Li6 O4 2.175705 1_655
Li7 O10 1.969741 1_555
Li7 O2 1.979059 1_555
Li7 O7 2.023690 1_566
Li7 O4 2.175702 1_555
Li8 O13 1.969752 1_555
Li8 O1 1.979059 1_655
Li8 O8 2.023684 1_554
Li8 O5 2.175705 1_655
Li9 O12 1.969751 1_555
Li9 O0 1.979059 1_455
Li9 O9 2.023688 1_545
Li9 O5 2.175697 1_555
Li10 O10 1.969753 1_555
Li10 O1 1.979059 1_555
Li10 O7 2.023680 1_555
Li10 O5 2.175705 1_555
Li11 O11 1.969741 1_555
Li11 O0 1.979059 1_555
Li11 O6 2.023690 1_544
Li11 O5 2.175702 1_655
Li12 O12 1.969752 1_555
Li12 O3 1.979059 1_455
Li12 O9 2.023684 1_556
Li12 O4 2.175705 1_555
Li13 O13 1.969751 1_555
Li13 O2 1.979059 1_655
Li13 O8 2.023688 1_565
Li13 O4 2.175697 1_655
O0 Pb0 2.170650 1_545
O0 Rb1 3.256158 1_545
O1 Pb1 2.170646 1_555
O1 Rb1 3.256151 1_555
O2 Pb1 2.170650 1_566
O2 Rb0 3.256158 1_565
O3 Pb0 2.170646 1_556
O3 Rb0 3.256151 1_555
O4 Pb2 2.177532 1_566
O5 Pb2 2.177532 1_555
O6 Pb2 2.243955 1_666
O6 Pb0 2.417090 1_556
O7 Pb2 2.243955 1_555
O7 Pb1 2.417090 1_555
O8 Pb2 2.243963 1_656
O8 Pb1 2.417087 1_656
O9 Pb2 2.243963 1_565
O9 Pb0 2.417087 1_455
O10 Pb0 2.189138 1_556
O10 Rb1 3.131370 1_556
O10 Rb0 3.131375 1_555
O11 Pb1 2.189138 1_555
O11 Rb0 3.131370 1_554
O11 Rb1 3.131375 1_555
O12 Pb1 2.189131 1_556
O12 Rb0 3.131374 1_555
O12 Rb1 3.131374 1_556
O13 Pb0 2.189131 1_555
O13 Rb1 3.131374 1_555
O13 Rb0 3.131374 1_554
