# generated using pymatgen
data_TaAgS3
_symmetry_space_group_name_H-M   'P 1'
_cell_length_a   7.37868464
_cell_length_b   7.37868464
_cell_length_c   7.78558500
_cell_angle_alpha   90.00000000
_cell_angle_beta   90.00000000
_cell_angle_gamma   153.42397583
_symmetry_Int_Tables_number   1
_chemical_formula_structural   TaAgS3
_chemical_formula_sum   'Ta2 Ag2 S6'
_cell_volume   189.64022179
_cell_formula_units_Z   2
loop_
 _symmetry_equiv_pos_site_id
 _symmetry_equiv_pos_as_xyz
  1  'x, y, z'
loop_
 _atom_site_type_symbol
 _atom_site_label
 _atom_site_symmetry_multiplicity
 _atom_site_fract_x
 _atom_site_fract_y
 _atom_site_fract_z
 _atom_site_occupancy
  Ta  Ta0  1  0.26285600  0.73714400  0.51067600  1
  Ta  Ta1  1  0.73714400  0.26285600  0.01067600  1
  Ag  Ag0  1  0.00303300  0.99696700  0.75598600  1
  Ag  Ag1  1  0.99696700  0.00303300  0.25598600  1
  S  S0  1  0.32567400  0.67432600  0.19062700  1
  S  S1  1  0.32535300  0.67464700  0.83078800  1
  S  S2  1  0.67464700  0.32535300  0.33078800  1
  S  S3  1  0.10444400  0.89555600  0.01092300  1
  S  S4  1  0.89555600  0.10444400  0.51092300  1
  S  S5  1  0.67432600  0.32567400  0.69062700  1
loop_
_geom_bond_atom_site_label_1
_geom_bond_atom_site_label_2
_geom_bond_distance
_geom_bond_site_symmetry_2
Ag0 S4 2.454190 1_465
Ag0 S3 2.461896 1_556
Ag0 S5 3.031104 1_455
Ag0 S5 3.031104 1_565
Ag1 S3 2.454190 1_645
Ag1 S4 2.461896 1_555
Ag1 S0 3.031104 1_545
Ag1 S0 3.031104 1_655
S0 Ta1 2.540836 1_455
S0 Ta1 2.540836 1_565
S0 Ta0 2.650074 1_555
S1 Ta1 2.538261 1_456
S1 Ta1 2.538261 1_566
S1 Ta0 2.648970 1_555
S2 Ta0 2.538261 1_655
S2 Ta0 2.538261 1_545
S2 Ta1 2.648970 1_555
S3 Ta1 2.551204 1_455
S3 Ta1 2.551204 1_565
S4 Ta0 2.551204 1_545
S4 Ta0 2.551204 1_655
S5 Ta0 2.540836 1_545
S5 Ta0 2.540836 1_655
S5 Ta1 2.650074 1_556
