# generated using pymatgen
data_Tb3Ga5O12
_symmetry_space_group_name_H-M   'P 1'
_cell_length_a   10.66804874
_cell_length_b   10.66804874
_cell_length_c   10.66804874
_cell_angle_alpha   109.47122063
_cell_angle_beta   109.47122063
_cell_angle_gamma   109.47122063
_symmetry_Int_Tables_number   1
_chemical_formula_structural   Tb3Ga5O12
_chemical_formula_sum   'Tb12 Ga20 O48'
_cell_volume   934.61572228
_cell_formula_units_Z   4
loop_
 _symmetry_equiv_pos_site_id
 _symmetry_equiv_pos_as_xyz
  1  'x, y, z'
loop_
 _atom_site_type_symbol
 _atom_site_label
 _atom_site_symmetry_multiplicity
 _atom_site_fract_x
 _atom_site_fract_y
 _atom_site_fract_z
 _atom_site_occupancy
  Tb  Tb0  1  0.87500000  0.75000000  0.62500000  1
  Tb  Tb1  1  0.87500000  0.62500000  0.25000000  1
  Tb  Tb2  1  0.62500000  0.87500000  0.75000000  1
  Tb  Tb3  1  0.25000000  0.87500000  0.62500000  1
  Tb  Tb4  1  0.75000000  0.62500000  0.87500000  1
  Tb  Tb5  1  0.62500000  0.25000000  0.87500000  1
  Tb  Tb6  1  0.12500000  0.25000000  0.37500000  1
  Tb  Tb7  1  0.12500000  0.37500000  0.75000000  1
  Tb  Tb8  1  0.37500000  0.12500000  0.25000000  1
  Tb  Tb9  1  0.75000000  0.12500000  0.37500000  1
  Tb  Tb10  1  0.25000000  0.37500000  0.12500000  1
  Tb  Tb11  1  0.37500000  0.75000000  0.12500000  1
  Ga  Ga0  1  0.12500000  0.75000000  0.87500000  1
  Ga  Ga1  1  0.87500000  0.25000000  0.12500000  1
  Ga  Ga2  1  0.75000000  0.37500000  0.62500000  1
  Ga  Ga3  1  0.12500000  0.87500000  0.25000000  1
  Ga  Ga4  1  0.25000000  0.12500000  0.87500000  1
  Ga  Ga5  1  0.37500000  0.62500000  0.75000000  1
  Ga  Ga6  1  0.37500000  0.25000000  0.62500000  1
  Ga  Ga7  1  0.87500000  0.12500000  0.75000000  1
  Ga  Ga8  1  0.62500000  0.37500000  0.25000000  1
  Ga  Ga9  1  0.75000000  0.87500000  0.12500000  1
  Ga  Ga10  1  0.25000000  0.62500000  0.37500000  1
  Ga  Ga11  1  0.62500000  0.75000000  0.37500000  1
  Ga  Ga12  1  0.50000000  0.00000000  0.50000000  1
  Ga  Ga13  1  -0.00000000  0.50000000  0.00000000  1
  Ga  Ga14  1  0.50000000  0.50000000  0.50000000  1
  Ga  Ga15  1  -0.00000000  0.00000000  0.50000000  1
  Ga  Ga16  1  -0.00000000  0.00000000  0.00000000  1
  Ga  Ga17  1  -0.00000000  0.50000000  0.50000000  1
  Ga  Ga18  1  0.50000000  0.50000000  0.00000000  1
  Ga  Ga19  1  0.50000000  0.00000000  0.00000000  1
  O  O0  1  0.58317175  0.90569801  0.37803471  1
  O  O1  1  0.37803471  0.58317175  0.90569801  1
  O  O2  1  0.29486296  0.32252626  0.91682825  1
  O  O3  1  0.47233671  0.59430199  0.17747374  1
  O  O4  1  0.32252626  0.90569801  0.02766329  1
  O  O5  1  0.12196529  0.02766329  0.20513704  1
  O  O6  1  0.37803471  0.29486296  0.47233671  1
  O  O7  1  0.90569801  0.37803471  0.58317175  1
  O  O8  1  0.17747374  0.20513704  0.58317175  1
  O  O9  1  0.47233671  0.37803471  0.29486296  1
  O  O10  1  0.90569801  0.02766329  0.32252626  1
  O  O11  1  0.59430199  0.91682825  0.12196529  1
  O  O12  1  0.91682825  0.12196529  0.59430199  1
  O  O13  1  0.29486296  0.47233671  0.37803471  1
  O  O14  1  0.58317175  0.17747374  0.20513704  1
  O  O15  1  0.20513704  0.58317175  0.17747374  1
  O  O16  1  0.02766329  0.32252626  0.90569801  1
  O  O17  1  0.91682825  0.29486296  0.32252626  1
  O  O18  1  0.02766329  0.20513704  0.12196529  1
  O  O19  1  0.82252626  0.79486296  0.41682825  1
  O  O20  1  0.17747374  0.47233671  0.59430199  1
  O  O21  1  0.59430199  0.17747374  0.47233671  1
  O  O22  1  0.20513704  0.12196529  0.02766329  1
  O  O23  1  0.12196529  0.59430199  0.91682825  1
  O  O24  1  0.41682825  0.09430199  0.62196529  1
  O  O25  1  0.62196529  0.41682825  0.09430199  1
  O  O26  1  0.70513704  0.67747374  0.08317175  1
  O  O27  1  0.52766329  0.40569801  0.82252626  1
  O  O28  1  0.67747374  0.09430199  0.97233671  1
  O  O29  1  0.87803471  0.97233671  0.79486296  1
  O  O30  1  0.62196529  0.70513704  0.52766329  1
  O  O31  1  0.09430199  0.62196529  0.41682825  1
  O  O32  1  0.87803471  0.40569801  0.08317175  1
  O  O33  1  0.79486296  0.87803471  0.97233671  1
  O  O34  1  0.40569801  0.82252626  0.52766329  1
  O  O35  1  0.67747374  0.08317175  0.70513704  1
  O  O36  1  0.82252626  0.52766329  0.40569801  1
  O  O37  1  0.97233671  0.79486296  0.87803471  1
  O  O38  1  0.08317175  0.70513704  0.67747374  1
  O  O39  1  0.97233671  0.67747374  0.09430199  1
  O  O40  1  0.79486296  0.41682825  0.82252626  1
  O  O41  1  0.41682825  0.82252626  0.79486296  1
  O  O42  1  0.70513704  0.52766329  0.62196529  1
  O  O43  1  0.08317175  0.87803471  0.40569801  1
  O  O44  1  0.40569801  0.08317175  0.87803471  1
  O  O45  1  0.09430199  0.97233671  0.67747374  1
  O  O46  1  0.52766329  0.62196529  0.70513704  1
  O  O47  1  0.32252626  0.91682825  0.29486296  1
loop_
_geom_bond_atom_site_label_1
_geom_bond_atom_site_label_2
_geom_bond_distance
_geom_bond_site_symmetry_2
Ga0 O37 1.851207 1_455
Ga0 O4 1.851207 1_556
Ga0 O38 1.851207 1_555
Ga0 O23 1.851207 1_555
Ga1 O18 1.851207 1_655
Ga1 O28 1.851207 1_554
Ga1 O17 1.851207 1_555
Ga1 O32 1.851207 1_555
Ga2 O42 1.851207 1_555
Ga2 O21 1.851207 1_555
Ga2 O40 1.851207 1_555
Ga2 O7 1.851207 1_555
Ga3 O5 1.851207 1_565
Ga3 O39 1.851207 1_455
Ga3 O43 1.851207 1_555
Ga3 O47 1.851207 1_555
Ga4 O22 1.851207 1_556
Ga4 O45 1.851207 1_545
Ga4 O44 1.851207 1_555
Ga4 O2 1.851207 1_555
Ga5 O46 1.851207 1_555
Ga5 O20 1.851207 1_555
Ga5 O41 1.851207 1_555
Ga5 O1 1.851207 1_555
Ga6 O6 1.851207 1_555
Ga6 O27 1.851207 1_555
Ga6 O24 1.851207 1_555
Ga6 O8 1.851207 1_555
Ga7 O29 1.851207 1_545
Ga7 O16 1.851207 1_655
Ga7 O35 1.851207 1_555
Ga7 O12 1.851207 1_555
Ga8 O9 1.851207 1_555
Ga8 O36 1.851207 1_555
Ga8 O14 1.851207 1_555
Ga8 O25 1.851207 1_555
Ga9 O33 1.851207 1_554
Ga9 O10 1.851207 1_565
Ga9 O26 1.851207 1_555
Ga9 O11 1.851207 1_555
Ga10 O13 1.851207 1_555
Ga10 O34 1.851207 1_555
Ga10 O31 1.851207 1_555
Ga10 O15 1.851207 1_555
Ga11 O30 1.851207 1_555
Ga11 O3 1.851207 1_555
Ga11 O19 1.851207 1_555
Ga11 O0 1.851207 1_555
Ga12 O21 1.996088 1_555
Ga12 O34 1.996088 1_545
Ga12 O0 1.996088 1_545
Ga12 O47 1.996088 1_545
Ga12 O24 1.996088 1_555
Ga12 O35 1.996088 1_555
Ga13 O16 1.996088 1_554
Ga13 O39 1.996088 1_455
Ga13 O23 1.996088 1_554
Ga13 O15 1.996088 1_555
Ga13 O40 1.996088 1_454
Ga13 O32 1.996088 1_455
Ga14 O9 1.996088 1_555
Ga14 O13 1.996088 1_555
Ga14 O42 1.996088 1_555
Ga14 O46 1.996088 1_555
Ga14 O30 1.996088 1_555
Ga14 O6 1.996088 1_555
Ga15 O10 1.996088 1_455
Ga15 O45 1.996088 1_545
Ga15 O12 1.996088 1_455
Ga15 O43 1.996088 1_545
Ga15 O19 1.996088 1_445
Ga15 O8 1.996088 1_555
Ga16 O18 1.996088 1_555
Ga16 O37 1.996088 1_444
Ga16 O29 1.996088 1_444
Ga16 O5 1.996088 1_555
Ga16 O33 1.996088 1_444
Ga16 O22 1.996088 1_555
Ga17 O20 1.996088 1_555
Ga17 O36 1.996088 1_455
Ga17 O7 1.996088 1_455
Ga17 O31 1.996088 1_555
Ga17 O17 1.996088 1_455
Ga17 O38 1.996088 1_555
Ga18 O3 1.996088 1_555
Ga18 O27 1.996088 1_554
Ga18 O1 1.996088 1_554
Ga18 O25 1.996088 1_555
Ga18 O2 1.996088 1_554
Ga18 O26 1.996088 1_555
Ga19 O4 1.996088 1_545
Ga19 O28 1.996088 1_554
Ga19 O11 1.996088 1_545
Ga19 O41 1.996088 1_544
Ga19 O14 1.996088 1_555
Ga19 O44 1.996088 1_554
O0 Tb11 2.352174 1_555
O0 Tb9 2.440278 1_565
O1 Tb7 2.352174 1_555
O1 Tb11 2.440278 1_556
O2 Tb10 2.352174 1_556
O2 Tb7 2.440278 1_555
O3 Tb11 2.352174 1_555
O3 Tb10 2.440278 1_555
O4 Tb11 2.352174 1_555
O4 Tb8 2.440278 1_565
O5 Tb8 2.352174 1_555
O5 Tb6 2.440278 1_555
O6 Tb6 2.352174 1_555
O6 Tb8 2.440278 1_555
O7 Tb9 2.352174 1_555
O7 Tb7 2.440278 1_655
O8 Tb6 2.352174 1_555
O8 Tb7 2.440278 1_555
O9 Tb8 2.352174 1_555
O9 Tb10 2.440278 1_555
O10 Tb9 2.352174 1_555
O10 Tb6 2.440278 1_655
O11 Tb9 2.352174 1_565
O11 Tb11 2.440278 1_555
O12 Tb7 2.352174 1_655
O12 Tb9 2.440278 1_555
O13 Tb10 2.352174 1_555
O13 Tb6 2.440278 1_555
O14 Tb8 2.352174 1_555
O14 Tb9 2.440278 1_555
O15 Tb10 2.352174 1_555
O15 Tb11 2.440278 1_555
O16 Tb7 2.352174 1_555
O16 Tb10 2.440278 1_556
O17 Tb6 2.352174 1_655
O17 Tb9 2.440278 1_555
O18 Tb6 2.352174 1_555
O18 Tb10 2.440278 1_555
O19 Tb0 2.352174 1_555
O19 Tb1 2.440278 1_555
O20 Tb7 2.352174 1_555
O20 Tb6 2.440278 1_555
O21 Tb9 2.352174 1_555
O21 Tb8 2.440278 1_555
O22 Tb10 2.352174 1_555
O22 Tb8 2.440278 1_555
O23 Tb11 2.352174 1_556
O23 Tb7 2.440278 1_555
O24 Tb5 2.352174 1_555
O24 Tb3 2.440278 1_545
O25 Tb1 2.352174 1_555
O25 Tb5 2.440278 1_554
O26 Tb4 2.352174 1_554
O26 Tb1 2.440278 1_555
O27 Tb5 2.352174 1_555
O27 Tb4 2.440278 1_555
O28 Tb5 2.352174 1_555
O28 Tb2 2.440278 1_545
O29 Tb2 2.352174 1_555
O29 Tb0 2.440278 1_555
O30 Tb0 2.352174 1_555
O30 Tb2 2.440278 1_555
O31 Tb3 2.352174 1_555
O31 Tb1 2.440278 1_455
O32 Tb5 2.352174 1_554
O32 Tb1 2.440278 1_555
O33 Tb4 2.352174 1_555
O33 Tb2 2.440278 1_555
O34 Tb3 2.352174 1_555
O34 Tb2 2.440278 1_555
O35 Tb2 2.352174 1_545
O35 Tb5 2.440278 1_555
O36 Tb1 2.352174 1_555
O36 Tb0 2.440278 1_555
O37 Tb0 2.352174 1_555
O37 Tb4 2.440278 1_555
O38 Tb0 2.352174 1_455
O38 Tb3 2.440278 1_555
O39 Tb1 2.352174 1_555
O39 Tb4 2.440278 1_554
O40 Tb4 2.352174 1_555
O40 Tb5 2.440278 1_555
O41 Tb2 2.352174 1_555
O41 Tb3 2.440278 1_555
O42 Tb4 2.352174 1_555
O42 Tb0 2.440278 1_555
O43 Tb1 2.352174 1_455
O43 Tb3 2.440278 1_555
O44 Tb3 2.352174 1_545
O44 Tb5 2.440278 1_555
O45 Tb3 2.352174 1_555
O45 Tb0 2.440278 1_455
O46 Tb2 2.352174 1_555
O46 Tb4 2.440278 1_555
O47 Tb8 2.352174 1_565
O47 Tb11 2.440278 1_555
