# generated using pymatgen
data_CsSmSiS4
_symmetry_space_group_name_H-M   'P 1'
_cell_length_a   6.44878824
_cell_length_b   6.76939320
_cell_length_c   17.87171361
_cell_angle_alpha   90.00000000
_cell_angle_beta   90.00000000
_cell_angle_gamma   90.00000000
_symmetry_Int_Tables_number   1
_chemical_formula_structural   CsSmSiS4
_chemical_formula_sum   'Cs4 Sm4 Si4 S16'
_cell_volume   780.17863545
_cell_formula_units_Z   4
loop_
 _symmetry_equiv_pos_site_id
 _symmetry_equiv_pos_as_xyz
  1  'x, y, z'
loop_
 _atom_site_type_symbol
 _atom_site_label
 _atom_site_symmetry_multiplicity
 _atom_site_fract_x
 _atom_site_fract_y
 _atom_site_fract_z
 _atom_site_occupancy
  Cs  Cs0  1  0.00889132  0.50755755  0.46741187  1
  Cs  Cs1  1  0.49110868  0.49244245  0.96741187  1
  Cs  Cs2  1  0.99110868  0.00755755  0.03258813  1
  Cs  Cs3  1  0.50889132  0.99244245  0.53258813  1
  Sm  Sm0  1  0.20755024  0.52007078  0.72811762  1
  Sm  Sm1  1  0.70755024  0.97992922  0.27188238  1
  Sm  Sm2  1  0.79244976  0.02007078  0.77188238  1
  Sm  Sm3  1  0.29244976  0.47992922  0.22811762  1
  Si  Si0  1  0.78939796  0.51588156  0.16658227  1
  Si  Si1  1  0.28939796  0.98411844  0.83341773  1
  Si  Si2  1  0.71060204  0.48411844  0.66658227  1
  Si  Si3  1  0.21060204  0.01588156  0.33341773  1
  S  S0  1  0.54912803  0.98820719  0.90415290  1
  S  S1  1  0.60816590  0.25401896  0.15448424  1
  S  S2  1  0.11510439  0.06574188  0.22139720  1
  S  S3  1  0.42824309  0.24561811  0.35463012  1
  S  S4  1  0.38489561  0.93425812  0.72139720  1
  S  S5  1  0.39183410  0.75401896  0.34551576  1
  S  S6  1  0.89183410  0.74598104  0.65448424  1
  S  S7  1  0.61510439  0.43425812  0.77860280  1
  S  S8  1  0.95087197  0.01179281  0.40415290  1
  S  S9  1  0.57175691  0.74561811  0.14536988  1
  S  S10  1  0.04912803  0.51179281  0.09584710  1
  S  S11  1  0.07175691  0.75438189  0.85463012  1
  S  S12  1  0.10816590  0.24598104  0.84551576  1
  S  S13  1  0.92824309  0.25438189  0.64536988  1
  S  S14  1  0.45087197  0.48820719  0.59584710  1
  S  S15  1  0.88489561  0.56574188  0.27860280  1
loop_
_geom_bond_atom_site_label_1
_geom_bond_atom_site_label_2
_geom_bond_distance
_geom_bond_site_symmetry_2
Cs0 S15 3.490088 1_455
Cs0 S8 3.561045 1_455
Cs0 S8 3.615135 1_465
Cs0 S13 3.650040 1_455
Cs0 S14 3.661924 1_555
Cs0 S5 3.691596 1_555
Cs0 S6 3.788464 1_455
Cs0 S3 3.810523 1_555
Cs1 S7 3.490088 1_555
Cs1 S0 3.561045 1_555
Cs1 S0 3.615135 1_545
Cs1 S9 3.650040 1_556
Cs1 S10 3.661924 1_556
Cs1 S12 3.691596 1_555
Cs1 S1 3.788464 1_556
Cs1 S11 3.810523 1_555
Cs2 S2 3.490088 1_655
Cs2 S10 3.561045 1_645
Cs2 S10 3.615135 1_655
Cs2 S11 3.650040 1_644
Cs2 S0 3.661924 1_544
Cs2 S1 3.691596 1_555
Cs2 S12 3.788464 1_654
Cs2 S9 3.810523 1_545
Cs3 S4 3.490088 1_555
Cs3 S14 3.561045 1_565
Cs3 S14 3.615135 1_555
Cs3 S3 3.650040 1_565
Cs3 S8 3.661924 1_565
Cs3 S6 3.691596 1_555
Cs3 S5 3.788464 1_555
Cs3 S13 3.810523 1_565
S0 Si1 2.098643 1_555
S0 Sm2 2.845474 1_565
S1 Si0 2.134236 1_555
S1 Sm3 2.866297 1_555
S1 Sm1 2.873221 1_545
S2 Si3 2.121600 1_555
S2 Sm1 2.838857 1_445
S2 Sm3 3.030457 1_555
S3 Si3 2.128888 1_555
S3 Sm3 2.897379 1_555
S3 Sm1 2.943818 1_545
S4 Si1 2.121600 1_555
S4 Sm2 2.838857 1_565
S4 Sm0 3.030457 1_555
S5 Si3 2.134236 1_565
S5 Sm1 2.866297 1_555
S5 Sm3 2.873221 1_555
S6 Si2 2.134236 1_555
S6 Sm0 2.866297 1_655
S6 Sm2 2.873221 1_565
S7 Si2 2.121600 1_555
S7 Sm0 2.838857 1_555
S7 Sm2 3.030457 1_555
S8 Si3 2.098643 1_655
S8 Sm1 2.845474 1_545
S9 Si0 2.128888 1_555
S9 Sm1 2.897379 1_555
S9 Sm3 2.943818 1_555
S10 Si0 2.098643 1_455
S10 Sm3 2.845474 1_555
S11 Si1 2.128888 1_555
S11 Sm0 2.897379 1_555
S11 Sm2 2.943818 1_465
S12 Si1 2.134236 1_545
S12 Sm2 2.866297 1_455
S12 Sm0 2.873221 1_555
S13 Si2 2.128888 1_555
S13 Sm2 2.897379 1_555
S13 Sm0 2.943818 1_655
S14 Si2 2.098643 1_555
S14 Sm0 2.845474 1_555
S15 Si0 2.121600 1_555
S15 Sm3 2.838857 1_655
S15 Sm1 3.030457 1_555
