# generated using pymatgen
data_Y4Ga12Pd
_symmetry_space_group_name_H-M   'P 1'
_cell_length_a   7.43232661
_cell_length_b   7.43232724
_cell_length_c   7.43232652
_cell_angle_alpha   109.47121588
_cell_angle_beta   109.47121765
_cell_angle_gamma   109.47121798
_symmetry_Int_Tables_number   1
_chemical_formula_structural   Y4Ga12Pd
_chemical_formula_sum   'Y4 Ga12 Pd1'
_cell_volume   316.04764269
_cell_formula_units_Z   1
loop_
 _symmetry_equiv_pos_site_id
 _symmetry_equiv_pos_as_xyz
  1  'x, y, z'
loop_
 _atom_site_type_symbol
 _atom_site_label
 _atom_site_symmetry_multiplicity
 _atom_site_fract_x
 _atom_site_fract_y
 _atom_site_fract_z
 _atom_site_occupancy
  Y  Y0  1  -0.00000000  -0.00000000  0.50000000  1
  Y  Y1  1  0.50000000  0.50000000  0.50000000  1
  Y  Y2  1  0.50000000  -0.00000000  -0.00000000  1
  Y  Y3  1  -0.00000000  0.50000000  -0.00000000  1
  Ga  Ga0  1  0.50000000  0.75000000  0.25000000  1
  Ga  Ga1  1  0.75000000  0.50000000  0.25000000  1
  Ga  Ga2  1  0.25000000  0.50000000  0.75000000  1
  Ga  Ga3  1  0.75000000  0.25000000  0.50000000  1
  Ga  Ga4  1  0.25000000  0.75000000  0.50000000  1
  Ga  Ga5  1  0.50000000  0.25000000  0.75000000  1
  Ga  Ga6  1  0.00000000  0.29761145  0.29761145  1
  Ga  Ga7  1  0.29761145  0.00000000  0.29761145  1
  Ga  Ga8  1  0.70238855  1.00000000  0.70238855  1
  Ga  Ga9  1  0.70238855  0.70238855  1.00000000  1
  Ga  Ga10  1  0.29761145  0.29761145  0.00000000  1
  Ga  Ga11  1  1.00000000  0.70238855  0.70238855  1
  Pd  Pd0  1  -0.00000000  -0.00000000  -0.00000000  1
loop_
_geom_bond_atom_site_label_1
_geom_bond_atom_site_label_2
_geom_bond_distance
_geom_bond_site_symmetry_2
Ga0 Ga9 2.760468 1_554
Ga0 Ga7 2.760468 1_565
Ga0 Ga8 2.760469 1_555
Ga0 Ga10 2.760469 1_555
Ga0 Ga4 3.034235 1_555
Ga0 Y2 3.034235 1_565
Ga0 Y1 3.034235 1_555
Ga0 Ga1 3.034235 1_555
Ga0 Y0 3.034235 1_665
Ga0 Y3 3.034235 1_555
Ga0 Ga2 3.034235 1_554
Ga0 Ga3 3.034235 1_565
Ga1 Ga9 2.760468 1_554
Ga1 Ga6 2.760468 1_655
Ga1 Ga11 2.760468 1_555
Ga1 Ga10 2.760468 1_555
Ga1 Y1 3.034235 1_555
Ga1 Y3 3.034235 1_655
Ga1 Ga3 3.034235 1_555
Ga1 Ga4 3.034235 1_655
Ga1 Ga5 3.034235 1_554
Ga1 Y0 3.034235 1_665
Ga1 Y2 3.034235 1_555
Ga2 Ga6 2.760468 1_555
Ga2 Ga9 2.760468 1_555
Ga2 Y3 3.034235 1_556
Ga2 Y1 3.034235 1_555
Ga2 Ga4 3.034235 1_555
Ga2 Ga5 3.034235 1_555
Ga2 Ga3 3.034235 1_455
Ga2 Y0 3.034235 1_555
Ga2 Y2 3.034235 1_566
Ga3 Ga6 2.760468 1_655
Ga3 Ga8 2.760468 1_545
Ga3 Ga7 2.760469 1_555
Ga3 Ga5 3.034235 1_555
Ga3 Y0 3.034235 1_655
Ga3 Y1 3.034235 1_555
Ga3 Y3 3.034235 1_656
Ga3 Y2 3.034235 1_555
Ga4 Ga7 2.760468 1_565
Ga4 Ga8 2.760469 1_555
Ga4 Ga6 2.760469 1_555
Ga4 Y0 3.034235 1_565
Ga4 Y1 3.034235 1_555
Ga4 Y3 3.034235 1_555
Ga4 Y2 3.034235 1_566
Ga4 Ga5 3.034235 1_565
Ga5 Ga8 2.760468 1_545
Ga5 Ga7 2.760469 1_555
Ga5 Ga9 2.760469 1_555
Ga5 Y2 3.034235 1_556
Ga5 Y1 3.034235 1_555
Ga5 Y3 3.034235 1_656
Ga5 Y0 3.034235 1_555
Ga6 Pd0 2.554135 1_555
Ga6 Y3 3.061624 1_555
Ga6 Y0 3.061624 1_555
Ga6 Y1 3.061624 1_555
Ga6 Y2 3.061624 1_455
Ga7 Pd0 2.554135 1_555
Ga7 Y2 3.061624 1_555
Ga7 Y0 3.061624 1_555
Ga7 Y1 3.061624 1_555
Ga7 Y3 3.061624 1_545
Ga8 Pd0 2.554135 1_666
Ga8 Y2 3.061624 1_566
Ga8 Y0 3.061624 1_665
Ga8 Y1 3.061624 1_555
Ga8 Y3 3.061624 1_666
Ga9 Pd0 2.554135 1_666
Ga9 Y3 3.061624 1_656
Ga9 Y2 3.061624 1_566
Ga9 Y1 3.061624 1_555
Ga9 Y0 3.061624 1_666
Ga10 Pd0 2.554135 1_555
Ga10 Ga5 2.760468 1_554
Ga10 Ga2 2.760468 1_554
Ga10 Y3 3.061624 1_555
Ga10 Y2 3.061624 1_555
Ga10 Y1 3.061624 1_555
Ga10 Y0 3.061624 1_554
Ga11 Pd0 2.554135 1_666
Ga11 Ga4 2.760468 1_655
Ga11 Ga2 2.760468 1_655
Ga11 Ga3 2.760469 1_555
Ga11 Y3 3.061624 1_656
Ga11 Y0 3.061624 1_665
Ga11 Y1 3.061624 1_555
Ga11 Y2 3.061624 1_666
