# generated using pymatgen
data_Tm(NiP)2
_symmetry_space_group_name_H-M   'P 1'
_cell_length_a   3.82468924
_cell_length_b   3.82468830
_cell_length_c   5.35864608
_cell_angle_alpha   110.90817081
_cell_angle_beta   110.90816691
_cell_angle_gamma   89.99998423
_symmetry_Int_Tables_number   1
_chemical_formula_structural   Tm(NiP)2
_chemical_formula_sum   'Tm1 Ni2 P2'
_cell_volume   67.67195946
_cell_formula_units_Z   1
loop_
 _symmetry_equiv_pos_site_id
 _symmetry_equiv_pos_as_xyz
  1  'x, y, z'
loop_
 _atom_site_type_symbol
 _atom_site_label
 _atom_site_symmetry_multiplicity
 _atom_site_fract_x
 _atom_site_fract_y
 _atom_site_fract_z
 _atom_site_occupancy
  Tm  Tm0  1  -0.00000000  -0.00000000  -0.00000000  1
  Ni  Ni0  1  0.75000000  0.25000000  0.50000000  1
  Ni  Ni1  1  0.25000000  0.75000000  0.50000000  1
  P  P0  1  0.37799295  0.37799295  0.75598590  1
  P  P1  1  0.62200705  0.62200705  0.24401410  1
loop_
_geom_bond_atom_site_label_1
_geom_bond_atom_site_label_2
_geom_bond_distance
_geom_bond_site_symmetry_2
Ni0 P1 2.249319 1_545
Ni0 P0 2.249320 1_655
Ni0 P1 2.249320 1_555
Ni0 P0 2.249320 1_555
Ni0 Tm0 3.001216 1_666
Ni0 Tm0 3.001216 1_555
Ni0 Tm0 3.001217 1_656
Ni0 Tm0 3.001217 1_655
Ni1 P0 2.249319 1_565
Ni1 P1 2.249320 1_455
Ni1 P0 2.249320 1_555
Ni1 P1 2.249320 1_555
Ni1 Tm0 3.001216 1_555
Ni1 Tm0 3.001216 1_666
Ni1 Tm0 3.001217 1_565
Ni1 Tm0 3.001217 1_566
P0 P1 2.257675 1_556
P0 Tm0 2.930596 1_566
P0 Tm0 2.930596 1_656
P0 Tm0 2.930596 1_666
P0 Tm0 2.930597 1_556
P1 Tm0 2.930596 1_655
P1 Tm0 2.930596 1_565
P1 Tm0 2.930596 1_555
P1 Tm0 2.930597 1_665
