# generated using pymatgen
data_CsSmCl3
_symmetry_space_group_name_H-M   'P 1'
_cell_length_a   5.49979400
_cell_length_b   5.49979400
_cell_length_c   5.49979400
_cell_angle_alpha   90.00000000
_cell_angle_beta   90.00000000
_cell_angle_gamma   90.00000000
_symmetry_Int_Tables_number   1
_chemical_formula_structural   CsSmCl3
_chemical_formula_sum   'Cs1 Sm1 Cl3'
_cell_volume   166.35630620
_cell_formula_units_Z   1
loop_
 _symmetry_equiv_pos_site_id
 _symmetry_equiv_pos_as_xyz
  1  'x, y, z'
loop_
 _atom_site_type_symbol
 _atom_site_label
 _atom_site_symmetry_multiplicity
 _atom_site_fract_x
 _atom_site_fract_y
 _atom_site_fract_z
 _atom_site_occupancy
  Cs  Cs0  1  0.00000000  0.00000000  0.00000000  1
  Sm  Sm0  1  0.50000000  0.50000000  0.50000000  1
  Cl  Cl0  1  0.00000000  0.50000000  0.50000000  1
  Cl  Cl1  1  0.50000000  0.50000000  0.00000000  1
  Cl  Cl2  1  0.50000000  0.00000000  0.50000000  1
loop_
_geom_bond_atom_site_label_1
_geom_bond_atom_site_label_2
_geom_bond_distance
_geom_bond_site_symmetry_2
Cl0 Sm0 2.749897 1_555
Cl0 Sm0 2.749897 1_455
Cl0 Cs0 3.888942 1_565
Cl0 Cs0 3.888942 1_566
Cl0 Cs0 3.888942 1_555
Cl0 Cs0 3.888942 1_556
Cl1 Sm0 2.749897 1_555
Cl1 Sm0 2.749897 1_554
Cl1 Cs0 3.888942 1_565
Cl1 Cs0 3.888942 1_555
Cl1 Cs0 3.888942 1_655
Cl1 Cs0 3.888942 1_665
Cl2 Sm0 2.749897 1_555
Cl2 Sm0 2.749897 1_545
Cl2 Cs0 3.888942 1_656
Cl2 Cs0 3.888942 1_555
Cl2 Cs0 3.888942 1_655
Cl2 Cs0 3.888942 1_556
