# generated using pymatgen
data_Hg3(SeI)2
_symmetry_space_group_name_H-M   'P 1'
_cell_length_a   9.76019594
_cell_length_b   10.90667940
_cell_length_c   11.09343053
_cell_angle_alpha   113.27373977
_cell_angle_beta   90.00000000
_cell_angle_gamma   116.57963361
_symmetry_Int_Tables_number   1
_chemical_formula_structural   Hg3(SeI)2
_chemical_formula_sum   'Hg12 Se8 I8'
_cell_volume   947.43535799
_cell_formula_units_Z   4
loop_
 _symmetry_equiv_pos_site_id
 _symmetry_equiv_pos_as_xyz
  1  'x, y, z'
loop_
 _atom_site_type_symbol
 _atom_site_label
 _atom_site_symmetry_multiplicity
 _atom_site_fract_x
 _atom_site_fract_y
 _atom_site_fract_z
 _atom_site_occupancy
  Hg  Hg0  1  0.66689286  0.84746328  0.69582337  1
  Hg  Hg1  1  0.07883297  0.15766594  0.73989971  1
  Hg  Hg2  1  0.14420049  0.75636857  0.99820638  1
  Hg  Hg3  1  0.78722938  0.57445876  0.73342504  1
  Hg  Hg4  1  0.61216709  0.75636857  0.99820638  1
  Hg  Hg5  1  0.33310714  0.15253672  0.30417663  1
  Hg  Hg6  1  0.38783291  0.24363143  0.00179362  1
  Hg  Hg7  1  0.18057042  0.84746328  0.69582337  1
  Hg  Hg8  1  0.21277062  0.42554124  0.26657496  1
  Hg  Hg9  1  0.92116703  0.84233406  0.26010129  1
  Hg  Hg10  1  0.85579951  0.24363143  0.00179362  1
  Hg  Hg11  1  0.81942958  0.15253672  0.30417663  1
  Se  Se0  1  0.93551947  0.38459436  0.25477719  1
  Se  Se1  1  0.55092510  0.61540564  0.74522281  1
  Se  Se2  1  0.06448053  0.61540564  0.74522281  1
  Se  Se3  1  0.32195328  0.13056336  0.74872139  1
  Se  Se4  1  0.44907490  0.38459436  0.25477719  1
  Se  Se5  1  0.80861008  0.13056336  0.74872139  1
  Se  Se6  1  0.67804672  0.86943664  0.25127861  1
  Se  Se7  1  0.19138992  0.86943664  0.25127861  1
  I  I0  1  0.12580841  0.25161882  0.50044100  1
  I  I1  1  0.62136173  0.24272146  0.50228181  1
  I  I2  1  0.25096941  0.50193882  0.00157945  1
  I  I3  1  0.74903059  0.49806118  0.99842055  1
  I  I4  1  0.37863827  0.75727854  0.49771819  1
  I  I5  1  0.50000000  0.00000000  -0.00000000  1
  I  I6  1  0.00000000  0.00000000  -0.00000000  1
  I  I7  1  0.87419159  0.74838118  0.49955900  1
loop_
_geom_bond_atom_site_label_1
_geom_bond_atom_site_label_2
_geom_bond_distance
_geom_bond_site_symmetry_2
Hg0 Se1 2.553383 1_555
Hg0 Se5 2.556869 1_565
Hg0 I4 3.086729 1_555
Hg0 I7 3.177916 1_555
Hg1 Se5 2.525505 1_455
Hg1 Se3 2.525505 1_555
Hg1 I0 3.169777 1_555
Hg1 I2 3.330099 1_556
Hg2 Se2 2.522912 1_555
Hg2 Se7 2.523966 1_556
Hg2 I5 3.289559 1_566
Hg2 I2 3.384927 1_556
Hg3 Se2 2.532094 1_655
Hg3 Se1 2.532094 1_555
Hg3 I1 3.116656 1_555
Hg3 I3 3.336600 1_555
Hg4 Se1 2.522913 1_555
Hg4 Se6 2.523966 1_556
Hg4 I5 3.289553 1_566
Hg4 I2 3.384920 1_556
Hg5 Se4 2.553383 1_555
Hg5 Se7 2.556869 1_545
Hg5 I1 3.086729 1_555
Hg5 I0 3.177916 1_555
Hg6 Se4 2.522913 1_555
Hg6 Se3 2.523966 1_554
Hg6 I5 3.289553 1_555
Hg6 I3 3.384920 1_554
Hg7 Se2 2.553383 1_555
Hg7 Se3 2.556869 1_565
Hg7 I4 3.086714 1_555
Hg7 I7 3.177901 1_455
Hg8 Se0 2.532094 1_455
Hg8 Se4 2.532094 1_555
Hg8 I4 3.116656 1_555
Hg8 I2 3.336600 1_555
Hg9 Se6 2.525506 1_555
Hg9 Se7 2.525506 1_655
Hg9 I7 3.169767 1_555
Hg9 I3 3.330104 1_554
Hg10 Se0 2.522912 1_555
Hg10 Se5 2.523966 1_554
Hg10 I5 3.289559 1_555
Hg10 I3 3.384927 1_554
Hg11 Se0 2.553383 1_555
Hg11 Se6 2.556869 1_545
Hg11 I1 3.086714 1_555
Hg11 I0 3.177901 1_655
