# generated using pymatgen
data_ErCuTe2BrO6
_symmetry_space_group_name_H-M   'P 1'
_cell_length_a   14.98411000
_cell_length_b   5.42640200
_cell_length_c   9.46809386
_cell_angle_alpha   81.44559738
_cell_angle_beta   90.00000000
_cell_angle_gamma   90.00000000
_symmetry_Int_Tables_number   1
_chemical_formula_structural   ErCuTe2BrO6
_chemical_formula_sum   'Er4 Cu4 Te8 Br4 O24'
_cell_volume   761.28434754
_cell_formula_units_Z   4
loop_
 _symmetry_equiv_pos_site_id
 _symmetry_equiv_pos_as_xyz
  1  'x, y, z'
loop_
 _atom_site_type_symbol
 _atom_site_label
 _atom_site_symmetry_multiplicity
 _atom_site_fract_x
 _atom_site_fract_y
 _atom_site_fract_z
 _atom_site_occupancy
  Er  Er0  1  0.58752300  0.25266100  0.98140600  1
  Er  Er1  1  0.41247700  0.74733900  0.01859400  1
  Er  Er2  1  0.08752300  0.74733900  0.51859400  1
  Er  Er3  1  0.91247700  0.25266100  0.48140600  1
  Cu  Cu0  1  0.23152700  0.73519300  0.80393000  1
  Cu  Cu1  1  0.73152700  0.26480700  0.69607000  1
  Cu  Cu2  1  0.76847300  0.26480700  0.19607000  1
  Cu  Cu3  1  0.26847300  0.73519300  0.30393000  1
  Te  Te0  1  0.90380000  0.76911200  0.21927200  1
  Te  Te1  1  0.64416900  0.74777300  0.22577700  1
  Te  Te2  1  0.59620000  0.76911200  0.71927200  1
  Te  Te3  1  0.09620000  0.23088800  0.78072800  1
  Te  Te4  1  0.40380000  0.23088800  0.28072800  1
  Te  Te5  1  0.35583100  0.25222700  0.77422300  1
  Te  Te6  1  0.85583100  0.74777300  0.72577700  1
  Te  Te7  1  0.14416900  0.25222700  0.27422300  1
  Br  Br0  1  0.90014600  0.25695100  0.95406800  1
  Br  Br1  1  0.59985400  0.25695100  0.45406800  1
  Br  Br2  1  0.40014600  0.74304900  0.54593200  1
  Br  Br3  1  0.09985400  0.74304900  0.04593200  1
  O  O0  1  0.68474400  0.52316800  0.79505100  1
  O  O1  1  0.47861700  0.37673100  0.12936800  1
  O  O2  1  0.85524300  0.03260400  0.30982000  1
  O  O3  1  0.97861700  0.62326900  0.37063200  1
  O  O4  1  0.14475700  0.96739600  0.69018000  1
  O  O5  1  0.35524300  0.96739600  0.19018000  1
  O  O6  1  0.95988400  0.88035500  0.62504900  1
  O  O7  1  0.70932900  0.01045100  0.10904400  1
  O  O8  1  0.29067100  0.98954900  0.89095600  1
  O  O9  1  0.02138300  0.37673100  0.62936800  1
  O  O10  1  0.18474400  0.47683200  0.70494900  1
  O  O11  1  0.79067100  0.01045100  0.60904400  1
  O  O12  1  0.17152000  0.50582100  0.38832200  1
  O  O13  1  0.81525600  0.52316800  0.29505100  1
  O  O14  1  0.31525600  0.47683200  0.20494900  1
  O  O15  1  0.54011600  0.88035500  0.12504900  1
  O  O16  1  0.20932900  0.98954900  0.39095600  1
  O  O17  1  0.45988400  0.11964500  0.87495100  1
  O  O18  1  0.52138300  0.62326900  0.87063200  1
  O  O19  1  0.67152000  0.49417900  0.11167800  1
  O  O20  1  0.64475700  0.03260400  0.80982000  1
  O  O21  1  0.32848000  0.50582100  0.88832200  1
  O  O22  1  0.82848000  0.49417900  0.61167800  1
  O  O23  1  0.04011600  0.11964500  0.37495100  1
loop_
_geom_bond_atom_site_label_1
_geom_bond_atom_site_label_2
_geom_bond_distance
_geom_bond_site_symmetry_2
Er0 O19 2.303036 1_556
Er0 O1 2.315037 1_556
Er0 O20 2.319014 1_555
Er0 O17 2.326202 1_555
Er0 O18 2.345016 1_555
Er0 O15 2.370315 1_546
Er0 O7 2.458976 1_556
Er0 O0 2.572848 1_555
Er1 O21 2.303036 1_554
Er1 O18 2.315037 1_554
Er1 O5 2.319014 1_555
Er1 O15 2.326202 1_555
Er1 O1 2.345016 1_555
Er1 O17 2.370315 1_564
Er1 O8 2.458976 1_554
Er1 O14 2.572848 1_555
Er2 O12 2.303036 1_555
Er2 O3 2.315037 1_455
Er2 O4 2.319014 1_555
Er2 O6 2.326202 1_455
Er2 O9 2.345016 1_555
Er2 O23 2.370315 1_565
Er2 O16 2.458976 1_555
Er2 O10 2.572848 1_555
Er3 O22 2.303036 1_555
Er3 O9 2.315037 1_655
Er3 O2 2.319014 1_555
Er3 O23 2.326202 1_655
Er3 O3 2.345016 1_555
Er3 O6 2.370315 1_545
Er3 O11 2.458976 1_555
Er3 O13 2.572848 1_555
Cu0 O8 1.925540 1_555
Cu0 O10 1.930303 1_555
Cu0 O21 2.000567 1_555
Cu0 O4 2.008561 1_555
Cu1 O11 1.925540 1_555
Cu1 O0 1.930303 1_555
Cu1 O22 2.000567 1_555
Cu1 O20 2.008561 1_555
Cu2 O7 1.925540 1_555
Cu2 O13 1.930303 1_555
Cu2 O19 2.000567 1_555
Cu2 O2 2.008561 1_555
Cu3 O16 1.925540 1_555
Cu3 O14 1.930303 1_555
Cu3 O12 2.000567 1_555
Cu3 O5 2.008561 1_555
Br0 Cu2 3.028805 1_556
Br0 Te6 3.239437 1_555
Br1 Cu1 3.028805 1_555
Br1 Te1 3.239437 1_555
Br2 Cu3 3.028805 1_555
Br2 Te5 3.239437 1_555
Br3 Cu0 3.028805 1_554
Br3 Te7 3.239437 1_555
O0 Te2 1.941989 1_555
O1 Te4 1.897222 1_555
O2 Te0 1.916614 1_545
O3 Te0 1.897222 1_555
O4 Te3 1.916614 1_565
O5 Te4 1.916614 1_565
O6 Te6 1.911530 1_555
O7 Te1 1.933370 1_545
O8 Te5 1.933370 1_565
O9 Te3 1.897222 1_555
O10 Te3 1.941989 1_555
O11 Te6 1.933370 1_545
O12 Te7 1.915967 1_555
O13 Te0 1.941989 1_555
O14 Te4 1.941989 1_555
O15 Te1 1.911530 1_555
O16 Te7 1.933370 1_565
O17 Te5 1.911530 1_555
O18 Te2 1.897222 1_555
O19 Te1 1.915967 1_555
O20 Te2 1.916614 1_545
O21 Te5 1.915967 1_555
O22 Te6 1.915967 1_555
O23 Te7 1.911530 1_555
