# generated using pymatgen
data_Li7IN2
_symmetry_space_group_name_H-M   'P 1'
_cell_length_a   7.87889913
_cell_length_b   7.87889913
_cell_length_c   7.87889913
_cell_angle_alpha   60.00000000
_cell_angle_beta   60.00000000
_cell_angle_gamma   60.00000000
_symmetry_Int_Tables_number   1
_chemical_formula_structural   Li7IN2
_chemical_formula_sum   'Li14 I2 N4'
_cell_volume   345.84509671
_cell_formula_units_Z   2
loop_
 _symmetry_equiv_pos_site_id
 _symmetry_equiv_pos_as_xyz
  1  'x, y, z'
loop_
 _atom_site_type_symbol
 _atom_site_label
 _atom_site_symmetry_multiplicity
 _atom_site_fract_x
 _atom_site_fract_y
 _atom_site_fract_z
 _atom_site_occupancy
  Li  Li0  1  0.00000000  0.00000000  0.00000000  1
  Li  Li1  1  0.25000000  0.25000000  0.25000000  1
  Li  Li2  1  0.98573200  0.51426800  0.98573200  1
  Li  Li3  1  0.73573200  0.26426800  0.26426800  1
  Li  Li4  1  0.26426800  0.73573200  0.73573200  1
  Li  Li5  1  0.73573200  0.26426800  0.73573200  1
  Li  Li6  1  0.26426800  0.26426800  0.73573200  1
  Li  Li7  1  0.73573200  0.73573200  0.26426800  1
  Li  Li8  1  0.98573200  0.98573200  0.51426800  1
  Li  Li9  1  0.51426800  0.98573200  0.98573200  1
  Li  Li10  1  0.98573200  0.51426800  0.51426800  1
  Li  Li11  1  0.51426800  0.51426800  0.98573200  1
  Li  Li12  1  0.26426800  0.73573200  0.26426800  1
  Li  Li13  1  0.51426800  0.98573200  0.51426800  1
  I  I0  1  0.75000000  0.75000000  0.75000000  1
  I  I1  1  0.50000000  0.50000000  0.50000000  1
  N  N0  1  0.62500000  0.62500000  0.62500000  1
  N  N1  1  0.12500000  0.62500000  0.62500000  1
  N  N2  1  0.62500000  0.12500000  0.62500000  1
  N  N3  1  0.62500000  0.62500000  0.12500000  1
loop_
_geom_bond_atom_site_label_1
_geom_bond_atom_site_label_2
_geom_bond_distance
_geom_bond_site_symmetry_2
Li0 Li12 2.944592 1_545
Li0 Li3 2.944592 1_455
Li0 Li6 2.944592 1_554
Li0 Li5 2.944592 1_454
Li0 Li7 2.944592 1_445
Li0 Li4 2.944592 1_544
Li1 Li11 2.944592 1_554
Li1 Li10 2.944592 1_455
Li1 Li13 2.944592 1_545
Li1 Li8 2.944592 1_445
Li1 Li9 2.944592 1_544
Li1 Li2 2.944592 1_454
Li2 N3 2.324251 1_556
Li2 N1 2.324251 1_655
Li3 N2 2.324251 1_555
Li3 N3 2.324251 1_555
Li4 N1 2.324251 1_555
Li4 N0 2.324251 1_555
Li5 N2 2.324251 1_555
Li5 N0 2.324251 1_555
Li6 N1 2.324251 1_555
Li6 N2 2.324251 1_555
Li7 N3 2.324251 1_555
Li7 N0 2.324251 1_555
Li8 N1 2.324251 1_655
Li8 N2 2.324251 1_565
Li9 N3 2.324251 1_556
Li9 N2 2.324251 1_565
Li10 N0 2.324251 1_555
Li10 N1 2.324251 1_655
Li11 N0 2.324251 1_555
Li11 N3 2.324251 1_556
Li12 N1 2.324251 1_555
Li12 N3 2.324251 1_555
Li13 N0 2.324251 1_555
Li13 N2 2.324251 1_565
I0 N0 2.412410 1_555
I0 N3 2.412410 1_556
I0 N1 2.412410 1_655
I0 N2 2.412410 1_565
I0 Li8 2.626631 1_555
I0 Li9 2.626631 1_555
I0 Li2 2.626631 1_555
I0 Li13 2.626631 1_555
I0 Li10 2.626631 1_555
I0 Li11 2.626631 1_555
I1 N0 2.412410 1_555
I1 N2 2.412410 1_555
I1 N3 2.412410 1_555
I1 N1 2.412410 1_555
I1 Li5 2.626631 1_555
I1 Li7 2.626631 1_555
I1 Li4 2.626631 1_555
I1 Li3 2.626631 1_555
I1 Li6 2.626631 1_555
I1 Li12 2.626631 1_555
