# generated using pymatgen
data_Tl3Ag3(AsS3)2
_symmetry_space_group_name_H-M   'P 1'
_cell_length_a   12.00955500
_cell_length_b   11.36361100
_cell_length_c   12.12779793
_cell_angle_alpha   59.74760451
_cell_angle_beta   90.00000000
_cell_angle_gamma   90.00000000
_symmetry_Int_Tables_number   1
_chemical_formula_structural   Tl3Ag3(AsS3)2
_chemical_formula_sum   'Tl12 Ag12 As8 S24'
_cell_volume   1429.70253362
_cell_formula_units_Z   4
loop_
 _symmetry_equiv_pos_site_id
 _symmetry_equiv_pos_as_xyz
  1  'x, y, z'
loop_
 _atom_site_type_symbol
 _atom_site_label
 _atom_site_symmetry_multiplicity
 _atom_site_fract_x
 _atom_site_fract_y
 _atom_site_fract_z
 _atom_site_occupancy
  Tl  Tl0  1  0.98513800  0.80018400  0.47659600  1
  Tl  Tl1  1  0.11610300  0.21623800  0.88694200  1
  Tl  Tl2  1  0.75274200  0.16180200  0.27325600  1
  Tl  Tl3  1  0.48513800  0.19981600  0.02340400  1
  Tl  Tl4  1  0.51486200  0.80018400  0.97659600  1
  Tl  Tl5  1  0.01486200  0.19981600  0.52340400  1
  Tl  Tl6  1  0.38389700  0.21623800  0.38694200  1
  Tl  Tl7  1  0.61610300  0.78376200  0.61305800  1
  Tl  Tl8  1  0.25274200  0.83819800  0.22674400  1
  Tl  Tl9  1  0.24725800  0.83819800  0.72674400  1
  Tl  Tl10  1  0.74725800  0.16180200  0.77325600  1
  Tl  Tl11  1  0.88389700  0.78376200  0.11305800  1
  Ag  Ag0  1  0.62542900  0.53286100  0.54586400  1
  Ag  Ag1  1  0.87457100  0.53286100  0.04586400  1
  Ag  Ag2  1  0.12542900  0.46713900  0.95413600  1
  Ag  Ag3  1  0.34702600  0.88558000  0.42876200  1
  Ag  Ag4  1  0.35890700  0.47037500  0.07283700  1
  Ag  Ag5  1  0.84702600  0.11442000  0.07123800  1
  Ag  Ag6  1  0.15297400  0.88558000  0.92876200  1
  Ag  Ag7  1  0.37457100  0.46713900  0.45413600  1
  Ag  Ag8  1  0.64109300  0.52962500  0.92716300  1
  Ag  Ag9  1  0.65297400  0.11442000  0.57123800  1
  Ag  Ag10  1  0.85890700  0.52962500  0.42716300  1
  Ag  Ag11  1  0.14109300  0.47037500  0.57283700  1
  As  As0  1  0.90314400  0.84206200  0.75609700  1
  As  As1  1  0.59685600  0.84206200  0.25609700  1
  As  As2  1  0.14446900  0.50621700  0.24405300  1
  As  As3  1  0.40314400  0.15793800  0.74390300  1
  As  As4  1  0.35553100  0.50621700  0.74405300  1
  As  As5  1  0.85553100  0.49378300  0.75594700  1
  As  As6  1  0.64446900  0.49378300  0.25594700  1
  As  As7  1  0.09685600  0.15793800  0.24390300  1
  S  S0  1  0.82296000  0.99462900  0.56188700  1
  S  S1  1  0.57558100  0.37890100  0.16005400  1
  S  S2  1  0.75544800  0.74474200  0.89094100  1
  S  S3  1  0.41604300  0.63693200  0.53710900  1
  S  S4  1  0.82484800  0.42551800  0.28355900  1
  S  S5  1  0.96785900  0.99366000  0.81237100  1
  S  S6  1  0.25544800  0.25525800  0.60905900  1
  S  S7  1  0.03214100  0.00634000  0.18762900  1
  S  S8  1  0.53214100  0.99366000  0.31237100  1
  S  S9  1  0.24455200  0.25525800  0.10905900  1
  S  S10  1  0.92441900  0.37890100  0.66005400  1
  S  S11  1  0.67515200  0.42551800  0.78355900  1
  S  S12  1  0.42441900  0.62109900  0.83994600  1
  S  S13  1  0.67704000  0.99462900  0.06188700  1
  S  S14  1  0.17704000  0.00537100  0.43811300  1
  S  S15  1  0.46785900  0.00634000  0.68762900  1
  S  S16  1  0.58395700  0.36306800  0.46289100  1
  S  S17  1  0.17515200  0.57448200  0.71644100  1
  S  S18  1  0.32296000  0.00537100  0.93811300  1
  S  S19  1  0.07558100  0.62109900  0.33994600  1
  S  S20  1  0.91604300  0.36306800  0.96289100  1
  S  S21  1  0.74455200  0.74474200  0.39094100  1
  S  S22  1  0.32484800  0.57448200  0.21644100  1
  S  S23  1  0.08395700  0.63693200  0.03710900  1
loop_
_geom_bond_atom_site_label_1
_geom_bond_atom_site_label_2
_geom_bond_distance
_geom_bond_site_symmetry_2
Ag0 S11 2.571269 1_555
Ag0 S21 2.610691 1_555
Ag0 S16 2.634361 1_555
Ag0 S3 2.758028 1_555
Ag1 S4 2.571269 1_555
Ag1 S2 2.610691 1_554
Ag1 S20 2.634361 1_554
Ag1 S23 2.758028 1_655
Ag2 S17 2.571269 1_555
Ag2 S9 2.610691 1_556
Ag2 S23 2.634361 1_556
Ag2 S20 2.758028 1_455
Ag3 S14 2.487766 1_565
Ag3 S3 2.579967 1_555
Ag3 S8 2.587753 1_555
Ag3 Tl8 2.983944 1_555
Ag4 S12 2.579850 1_554
Ag4 S22 2.583817 1_555
Ag4 S9 2.640577 1_555
Ag4 S1 2.804049 1_555
Ag5 S13 2.487766 1_545
Ag5 S20 2.579967 1_554
Ag5 S7 2.587753 1_655
Ag5 Tl2 2.983944 1_555
Ag6 S18 2.487766 1_565
Ag6 S23 2.579967 1_556
Ag6 S5 2.587753 1_455
Ag6 Tl9 2.983944 1_555
Ag7 S22 2.571269 1_555
Ag7 S6 2.610691 1_555
Ag7 S3 2.634361 1_555
Ag7 S16 2.758028 1_555
Ag8 S1 2.579850 1_556
Ag8 S11 2.583817 1_555
Ag8 S2 2.640577 1_555
Ag8 S12 2.804049 1_555
Ag9 S0 2.487766 1_545
Ag9 S16 2.579967 1_555
Ag9 S15 2.587753 1_555
Ag9 Tl10 2.983944 1_555
Ag10 S10 2.579850 1_555
Ag10 S4 2.583817 1_555
Ag10 S21 2.640577 1_555
Ag10 S19 2.804049 1_655
Ag11 S19 2.579850 1_555
Ag11 S17 2.583817 1_555
Ag11 S6 2.640577 1_555
Ag11 S10 2.804049 1_455
As0 S2 2.285024 1_555
As0 S5 2.285209 1_555
As0 S0 2.316485 1_555
As1 S21 2.285024 1_555
As1 S8 2.285209 1_555
As1 S13 2.316485 1_555
As2 S22 2.268234 1_555
As2 S19 2.295868 1_555
As2 S23 2.297189 1_555
As3 S6 2.285024 1_555
As3 S15 2.285209 1_555
As3 S18 2.316485 1_555
As4 S17 2.268234 1_555
As4 S12 2.295868 1_555
As4 S3 2.297189 1_555
As5 S11 2.268234 1_555
As5 S10 2.295868 1_555
As5 S20 2.297189 1_555
As6 S4 2.268234 1_555
As6 S1 2.295868 1_555
As6 S16 2.297189 1_555
As7 S9 2.285024 1_555
As7 S7 2.285209 1_555
As7 S14 2.316485 1_555
S0 Tl5 3.141563 1_665
S0 Tl2 3.142086 1_565
S1 Tl2 3.014146 1_555
S2 Tl4 3.237860 1_555
S4 Tl2 3.181732 1_555
S5 Tl5 3.133047 1_665
S5 Tl10 3.159336 1_565
S6 Tl5 3.237860 1_555
S7 Tl0 3.133047 1_445
S7 Tl8 3.159336 1_545
S8 Tl3 3.133047 1_565
S8 Tl2 3.159336 1_565
S9 Tl3 3.237860 1_555
S10 Tl10 3.014146 1_555
S11 Tl10 3.181732 1_555
S12 Tl9 3.014146 1_555
S13 Tl3 3.141563 1_565
S13 Tl10 3.142086 1_564
S14 Tl0 3.141563 1_445
S14 Tl9 3.142086 1_545
S15 Tl4 3.133047 1_545
S15 Tl9 3.159336 1_545
S17 Tl9 3.181732 1_555
S18 Tl4 3.141563 1_545
S18 Tl8 3.142086 1_546
S19 Tl8 3.014146 1_555
S21 Tl0 3.237860 1_555
S22 Tl8 3.181732 1_555
