# generated using pymatgen
data_Tl4CdI6
_symmetry_space_group_name_H-M   'P 1'
_cell_length_a   9.40473800
_cell_length_b   9.40473800
_cell_length_c   9.96461400
_cell_angle_alpha   90.00000000
_cell_angle_beta   90.00000000
_cell_angle_gamma   90.00000000
_symmetry_Int_Tables_number   1
_chemical_formula_structural   Tl4CdI6
_chemical_formula_sum   'Tl8 Cd2 I12'
_cell_volume   881.36110875
_cell_formula_units_Z   2
loop_
 _symmetry_equiv_pos_site_id
 _symmetry_equiv_pos_as_xyz
  1  'x, y, z'
loop_
 _atom_site_type_symbol
 _atom_site_label
 _atom_site_symmetry_multiplicity
 _atom_site_fract_x
 _atom_site_fract_y
 _atom_site_fract_z
 _atom_site_occupancy
  Tl  Tl0  1  0.15217800  0.34782200  0.25000000  1
  Tl  Tl1  1  0.84782200  0.65217800  0.75000000  1
  Tl  Tl2  1  0.15217800  0.34782200  0.75000000  1
  Tl  Tl3  1  0.34782200  0.84782200  0.25000000  1
  Tl  Tl4  1  0.34782200  0.84782200  0.75000000  1
  Tl  Tl5  1  0.84782200  0.65217800  0.25000000  1
  Tl  Tl6  1  0.65217800  0.15217800  0.25000000  1
  Tl  Tl7  1  0.65217800  0.15217800  0.75000000  1
  Cd  Cd0  1  0.00000000  0.00000000  0.00000000  1
  Cd  Cd1  1  0.50000000  0.50000000  0.50000000  1
  I  I0  1  0.80710200  0.36367100  0.50000000  1
  I  I1  1  0.00000000  0.00000000  0.28953500  1
  I  I2  1  0.00000000  0.00000000  0.71046500  1
  I  I3  1  0.13632900  0.69289800  0.00000000  1
  I  I4  1  0.69289800  0.86367100  0.00000000  1
  I  I5  1  0.19289800  0.63632900  0.50000000  1
  I  I6  1  0.36367100  0.19289800  0.50000000  1
  I  I7  1  0.63632900  0.80710200  0.50000000  1
  I  I8  1  0.50000000  0.50000000  0.21046500  1
  I  I9  1  0.30710200  0.13632900  0.00000000  1
  I  I10  1  0.86367100  0.30710200  0.00000000  1
  I  I11  1  0.50000000  0.50000000  0.78953500  1
loop_
_geom_bond_atom_site_label_1
_geom_bond_atom_site_label_2
_geom_bond_distance
_geom_bond_site_symmetry_2
Cd0 I2 2.885105 1_554
Cd0 I1 2.885105 1_555
Cd0 I3 3.160009 1_545
Cd0 I10 3.160009 1_455
Cd0 I9 3.160009 1_555
Cd0 I4 3.160009 1_445
Cd1 I11 2.885105 1_555
Cd1 I8 2.885105 1_555
Cd1 I7 3.160009 1_555
Cd1 I5 3.160009 1_555
Cd1 I0 3.160009 1_555
Cd1 I6 3.160009 1_555
I0 Tl6 3.504999 1_555
I0 Tl7 3.504999 1_555
I1 Tl0 3.592228 1_555
I1 Tl3 3.592228 1_545
I1 Tl6 3.592228 1_455
I1 Tl5 3.592228 1_445
I2 Tl2 3.592228 1_555
I2 Tl4 3.592228 1_545
I2 Tl7 3.592228 1_455
I2 Tl1 3.592228 1_445
I3 Tl4 3.504999 1_554
I3 Tl3 3.504999 1_555
I4 Tl1 3.504999 1_554
I4 Tl5 3.504999 1_555
I5 Tl3 3.504999 1_555
I5 Tl4 3.504999 1_555
I6 Tl2 3.504999 1_555
I6 Tl0 3.504999 1_555
I7 Tl1 3.504999 1_555
I7 Tl5 3.504999 1_555
I8 Tl5 3.592228 1_555
I8 Tl3 3.592228 1_555
I8 Tl6 3.592228 1_555
I8 Tl0 3.592228 1_555
I9 Tl0 3.504999 1_555
I9 Tl2 3.504999 1_554
I10 Tl7 3.504999 1_554
I10 Tl6 3.504999 1_555
I11 Tl1 3.592228 1_555
I11 Tl4 3.592228 1_555
I11 Tl7 3.592228 1_555
I11 Tl2 3.592228 1_555
