# generated using pymatgen
data_NaFe(SeO4)2
_symmetry_space_group_name_H-M   'P 1'
_cell_length_a   5.02469516
_cell_length_b   8.98771753
_cell_length_c   8.76590625
_cell_angle_alpha   68.93735806
_cell_angle_beta   101.79841276
_cell_angle_gamma   75.93415929
_symmetry_Int_Tables_number   1
_chemical_formula_structural   NaFe(SeO4)2
_chemical_formula_sum   'Na2 Fe2 Se4 O16'
_cell_volume   339.21657075
_cell_formula_units_Z   2
loop_
 _symmetry_equiv_pos_site_id
 _symmetry_equiv_pos_as_xyz
  1  'x, y, z'
loop_
 _atom_site_type_symbol
 _atom_site_label
 _atom_site_symmetry_multiplicity
 _atom_site_fract_x
 _atom_site_fract_y
 _atom_site_fract_z
 _atom_site_occupancy
  Na  Na0  1  0.00000000  0.25000000  0.25000000  1
  Na  Na1  1  0.00000000  0.75000000  0.75000000  1
  Fe  Fe0  1  0.99999900  0.50000000  0.50000000  1
  Fe  Fe1  1  0.00000100  0.00000000  0.00000100  1
  Se  Se0  1  0.36235900  0.56963600  0.20730500  1
  Se  Se1  1  0.36235900  0.06963700  0.70730500  1
  Se  Se2  1  0.63764100  0.43036300  0.79269500  1
  Se  Se3  1  0.63764100  0.93036300  0.29269500  1
  O  O0  1  0.28383500  0.42977300  0.14593800  1
  O  O1  1  0.28383500  0.92977300  0.64593900  1
  O  O2  1  0.71616500  0.57022600  0.85406200  1
  O  O3  1  0.71616500  0.07022700  0.35406100  1
  O  O4  1  0.76463100  0.40281800  0.63819500  1
  O  O5  1  0.76463100  0.90281900  0.13819300  1
  O  O6  1  0.23537000  0.59718200  0.36180500  1
  O  O7  1  0.23536900  0.09718100  0.86180700  1
  O  O8  1  0.76721600  0.23836100  0.96658900  1
  O  O9  1  0.76721400  0.73836300  0.46658800  1
  O  O10  1  0.23278400  0.76163900  0.03341100  1
  O  O11  1  0.23278600  0.26163700  0.53341200  1
  O  O12  1  0.27177500  0.48608400  0.71887300  1
  O  O13  1  0.27177400  0.98608500  0.21887000  1
  O  O14  1  0.72822500  0.51391600  0.28112700  1
  O  O15  1  0.72822600  0.01391500  0.78113000  1
loop_
_geom_bond_atom_site_label_1
_geom_bond_atom_site_label_2
_geom_bond_distance
_geom_bond_site_symmetry_2
Na0 O3 2.463625 1_455
Na0 O0 2.463627 1_555
Na0 O14 2.570754 1_455
Na0 O13 2.570759 1_545
Na0 O8 2.570804 1_454
Na0 O11 2.570806 1_555
Na1 O1 2.463625 1_555
Na1 O2 2.463633 1_455
Na1 O12 2.570754 1_555
Na1 O15 2.570759 1_465
Na1 O10 2.570804 1_556
Na1 O9 2.570806 1_455
Fe0 O4 1.989099 1_555
Fe0 O6 1.989112 1_655
Fe0 O9 2.057770 1_555
Fe0 O11 2.057772 1_655
Fe0 O14 2.057821 1_555
Fe0 O12 2.057825 1_655
Fe1 O5 1.989089 1_445
Fe1 O7 1.989091 1_554
Fe1 O8 2.057754 1_454
Fe1 O10 2.057757 1_545
Fe1 O13 2.057795 1_545
Fe1 O15 2.057813 1_454
O0 Se0 1.632654 1_555
O1 Se1 1.632658 1_565
O2 Se2 1.632654 1_555
O3 Se3 1.632658 1_545
O4 Se2 1.679365 1_555
O5 Se3 1.679379 1_555
O6 Se0 1.679366 1_555
O7 Se1 1.679379 1_555
O8 Se2 1.697851 1_555
O9 Se3 1.697837 1_555
O10 Se0 1.697857 1_555
O11 Se1 1.697837 1_555
O12 Se2 1.697709 1_555
O13 Se3 1.697714 1_555
O14 Se0 1.697709 1_555
O15 Se1 1.697714 1_555
