# generated using pymatgen
data_NaTi2Ga5O12
_symmetry_space_group_name_H-M   'P 1'
_cell_length_a   3.02744600
_cell_length_b   9.46364400
_cell_length_c   15.93639300
_cell_angle_alpha   90.00000000
_cell_angle_beta   90.00000000
_cell_angle_gamma   90.00000000
_symmetry_Int_Tables_number   1
_chemical_formula_structural   NaTi2Ga5O12
_chemical_formula_sum   'Na2 Ti4 Ga10 O24'
_cell_volume   456.58835553
_cell_formula_units_Z   2
loop_
 _symmetry_equiv_pos_site_id
 _symmetry_equiv_pos_as_xyz
  1  'x, y, z'
loop_
 _atom_site_type_symbol
 _atom_site_label
 _atom_site_symmetry_multiplicity
 _atom_site_fract_x
 _atom_site_fract_y
 _atom_site_fract_z
 _atom_site_occupancy
  Na  Na0  1  0.50000000  0.50000000  0.00000000  1
  Na  Na1  1  0.50000000  0.00000000  0.50000000  1
  Ti  Ti0  1  0.50000000  0.72865800  0.35718200  1
  Ti  Ti1  1  0.50000000  0.27134200  0.64281800  1
  Ti  Ti2  1  0.50000000  0.77134200  0.85718200  1
  Ti  Ti3  1  0.50000000  0.22865800  0.14281800  1
  Ga  Ga0  1  0.00000000  0.00000000  0.00000000  1
  Ga  Ga1  1  0.00000000  0.49140400  0.80043700  1
  Ga  Ga2  1  0.00000000  0.00859600  0.30043700  1
  Ga  Ga3  1  0.00000000  0.50859600  0.19956300  1
  Ga  Ga4  1  0.50000000  0.19452100  0.85288900  1
  Ga  Ga5  1  0.50000000  0.80547900  0.14711100  1
  Ga  Ga6  1  0.00000000  0.99140400  0.69956300  1
  Ga  Ga7  1  0.50000000  0.69452100  0.64711100  1
  Ga  Ga8  1  0.50000000  0.30547900  0.35288900  1
  Ga  Ga9  1  0.00000000  0.50000000  0.50000000  1
  O  O0  1  0.50000000  0.39355600  0.55357000  1
  O  O1  1  0.00000000  0.13823500  0.90823200  1
  O  O2  1  0.50000000  0.10798900  0.35624100  1
  O  O3  1  0.00000000  0.35913100  0.70358100  1
  O  O4  1  0.50000000  0.39201100  0.85624100  1
  O  O5  1  0.50000000  0.60798900  0.14375900  1
  O  O6  1  0.50000000  0.10644400  0.05357000  1
  O  O7  1  0.00000000  0.86176500  0.09176800  1
  O  O8  1  0.00000000  0.63823500  0.59176800  1
  O  O9  1  0.00000000  0.85913100  0.79641900  1
  O  O10  1  0.00000000  0.14086900  0.20358100  1
  O  O11  1  0.00000000  0.14383500  0.60474900  1
  O  O12  1  0.50000000  0.61333100  0.75495600  1
  O  O13  1  0.00000000  0.85616500  0.39525100  1
  O  O14  1  0.00000000  0.64086900  0.29641900  1
  O  O15  1  0.00000000  0.64383500  0.89525100  1
  O  O16  1  0.50000000  0.89355600  0.94643000  1
  O  O17  1  0.50000000  0.11333100  0.74504400  1
  O  O18  1  0.50000000  0.60644400  0.44643000  1
  O  O19  1  0.50000000  0.88666900  0.25495600  1
  O  O20  1  0.00000000  0.36176500  0.40823200  1
  O  O21  1  0.50000000  0.38666900  0.24504400  1
  O  O22  1  0.00000000  0.35616500  0.10474900  1
  O  O23  1  0.50000000  0.89201100  0.64375900  1
loop_
_geom_bond_atom_site_label_1
_geom_bond_atom_site_label_2
_geom_bond_distance
_geom_bond_site_symmetry_2
Na0 O4 2.508606 1_554
Na0 O5 2.508606 1_555
Na0 O22 2.632654 1_655
Na0 O22 2.632654 1_555
Na0 O15 2.632654 1_654
Na0 O15 2.632654 1_554
Na1 O23 2.508606 1_545
Na1 O2 2.508606 1_555
Na1 O11 2.632654 1_555
Na1 O11 2.632654 1_655
Na1 O13 2.632654 1_645
Na1 O13 2.632654 1_545
Ga0 O1 1.962184 1_554
Ga0 O7 1.962184 1_545
Ga0 O16 2.008714 1_444
Ga0 O16 2.008714 1_544
Ga0 O6 2.008714 1_455
Ga0 O6 2.008714 1_555
Ga1 O3 1.987326 1_555
Ga1 O4 1.991734 1_455
Ga1 O4 1.991734 1_555
Ga1 O12 2.036694 1_555
Ga1 O12 2.036694 1_455
Ga1 O15 2.089033 1_555
Ga2 O10 1.987326 1_555
Ga2 O2 1.991734 1_455
Ga2 O2 1.991734 1_555
Ga2 O19 2.036694 1_545
Ga2 O19 2.036694 1_445
Ga2 O13 2.089033 1_545
Ga3 O14 1.987326 1_555
Ga3 O5 1.991734 1_455
Ga3 O5 1.991734 1_555
Ga3 O21 2.036694 1_555
Ga3 O21 2.036694 1_455
Ga3 O22 2.089033 1_555
Ga4 O1 1.831110 1_555
Ga4 O1 1.831110 1_655
Ga4 O4 1.869738 1_555
Ga4 O17 1.882594 1_555
Ga5 O7 1.831110 1_555
Ga5 O7 1.831110 1_655
Ga5 O5 1.869738 1_555
Ga5 O19 1.882594 1_555
Ga6 O9 1.987326 1_555
Ga6 O23 1.991734 1_455
Ga6 O23 1.991734 1_555
Ga6 O17 2.036694 1_565
Ga6 O17 2.036694 1_465
Ga6 O11 2.089033 1_565
Ga7 O8 1.831110 1_555
Ga7 O8 1.831110 1_655
Ga7 O23 1.869738 1_555
Ga7 O12 1.882594 1_555
Ga8 O20 1.831110 1_655
Ga8 O20 1.831110 1_555
Ga8 O2 1.869738 1_555
Ga8 O21 1.882594 1_555
Ga9 O8 1.962184 1_555
Ga9 O20 1.962184 1_555
Ga9 O0 2.008714 1_555
Ga9 O18 2.008714 1_455
Ga9 O18 2.008714 1_555
Ga9 O0 2.008714 1_455
O0 Ti1 1.833197 1_555
O3 Ti1 1.979717 1_455
O3 Ti1 1.979717 1_555
O6 Ti3 1.833197 1_555
O9 Ti2 1.979717 1_555
O9 Ti2 1.979717 1_455
O10 Ti3 1.979717 1_455
O10 Ti3 1.979717 1_555
O11 Ti1 2.028669 1_455
O11 Ti1 2.028669 1_555
O12 Ti2 2.211360 1_555
O13 Ti0 2.028669 1_455
O13 Ti0 2.028669 1_555
O14 Ti0 1.979717 1_455
O14 Ti0 1.979717 1_555
O15 Ti2 2.028669 1_555
O15 Ti2 2.028669 1_455
O16 Ti2 1.833197 1_555
O17 Ti1 2.211360 1_555
O18 Ti0 1.833197 1_555
O19 Ti0 2.211360 1_555
O21 Ti3 2.211360 1_555
O22 Ti3 2.028669 1_555
O22 Ti3 2.028669 1_455
