# generated using pymatgen
data_CdI2
_symmetry_space_group_name_H-M   'P 1'
_cell_length_a   4.33504826
_cell_length_b   4.33504826
_cell_length_c   91.87212000
_cell_angle_alpha   90.00000000
_cell_angle_beta   90.00000000
_cell_angle_gamma   120.00000404
_symmetry_Int_Tables_number   1
_chemical_formula_structural   CdI2
_chemical_formula_sum   'Cd12 I24'
_cell_volume   1495.21011468
_cell_formula_units_Z   12
loop_
 _symmetry_equiv_pos_site_id
 _symmetry_equiv_pos_as_xyz
  1  'x, y, z'
loop_
 _atom_site_type_symbol
 _atom_site_label
 _atom_site_symmetry_multiplicity
 _atom_site_fract_x
 _atom_site_fract_y
 _atom_site_fract_z
 _atom_site_occupancy
  Cd  Cd0  1  0.00000000  0.00000000  0.02086400  1
  Cd  Cd1  1  0.00000000  0.00000000  0.18752600  1
  Cd  Cd2  1  0.33333300  0.66666700  0.10415400  1
  Cd  Cd3  1  0.33333300  0.66666700  0.60415500  1
  Cd  Cd4  1  0.33333300  0.66666700  0.85417400  1
  Cd  Cd5  1  0.33333300  0.66666700  0.52084300  1
  Cd  Cd6  1  0.00000000  0.00000000  0.77081700  1
  Cd  Cd7  1  0.33333300  0.66666700  0.27081800  1
  Cd  Cd8  1  0.33333300  0.66666700  0.35416400  1
  Cd  Cd9  1  0.00000000  0.00000000  0.43749800  1
  Cd  Cd10  1  0.33333300  0.66666700  0.93749700  1
  Cd  Cd11  1  0.33333300  0.66666700  0.68750700  1
  I  I0  1  0.33333300  0.66666700  0.16876200  1
  I  I1  1  0.00000000  0.00000000  0.58541200  1
  I  I2  1  0.66666700  0.33333300  0.78956900  1
  I  I3  1  0.00000000  0.00000000  0.33542100  1
  I  I4  1  0.33333300  0.66666700  0.41873200  1
  I  I5  1  0.00000000  0.00000000  0.08541300  1
  I  I6  1  0.66666700  0.33333300  0.45625100  1
  I  I7  1  0.66666700  0.33333300  0.20627200  1
  I  I8  1  0.66666700  0.33333300  0.95624000  1
  I  I9  1  0.00000000  0.00000000  0.83542900  1
  I  I10  1  0.00000000  0.00000000  0.91875900  1
  I  I11  1  0.00000000  0.00000000  0.50209900  1
  I  I12  1  0.66666700  0.33333300  0.53958600  1
  I  I13  1  0.66666700  0.33333300  0.12290000  1
  I  I14  1  0.66666700  0.33333300  0.03961000  1
  I  I15  1  0.33333300  0.66666700  0.00210000  1
  I  I16  1  0.66666700  0.33333300  0.28956400  1
  I  I17  1  0.66666700  0.33333300  0.37290500  1
  I  I18  1  0.66666700  0.33333300  0.62290400  1
  I  I19  1  0.66666700  0.33333300  0.70624900  1
  I  I20  1  0.33333300  0.66666700  0.75204900  1
  I  I21  1  0.00000000  0.00000000  0.66876300  1
  I  I22  1  0.00000000  0.00000000  0.25207700  1
  I  I23  1  0.66666700  0.33333300  0.87291700  1
loop_
_geom_bond_atom_site_label_1
_geom_bond_atom_site_label_2
_geom_bond_distance
_geom_bond_site_symmetry_2
Cd0 I14 3.038140 1_455
Cd0 I14 3.038143 1_555
Cd0 I14 3.038143 1_445
Cd0 I15 3.039078 1_545
Cd0 I15 3.039081 1_445
Cd0 I15 3.039081 1_555
Cd1 I7 3.038140 1_455
Cd1 I7 3.038143 1_445
Cd1 I7 3.038143 1_555
Cd1 I0 3.039078 1_545
Cd1 I0 3.039081 1_445
Cd1 I0 3.039081 1_555
Cd2 I5 3.037880 1_565
Cd2 I5 3.037883 1_665
Cd2 I5 3.037883 1_555
Cd2 I13 3.038140 1_455
Cd2 I13 3.038140 1_565
Cd2 I13 3.038146 1_555
Cd3 I1 3.037984 1_565
Cd3 I1 3.037987 1_555
Cd3 I1 3.037987 1_665
Cd3 I18 3.038296 1_455
Cd3 I18 3.038296 1_565
Cd3 I18 3.038302 1_555
Cd4 I23 3.037984 1_455
Cd4 I23 3.037984 1_565
Cd4 I23 3.037990 1_555
Cd4 I9 3.038088 1_565
Cd4 I9 3.038091 1_665
Cd4 I9 3.038091 1_555
Cd5 I12 3.037984 1_455
Cd5 I12 3.037984 1_565
Cd5 I12 3.037990 1_555
Cd5 I11 3.038036 1_565
Cd5 I11 3.038039 1_665
Cd5 I11 3.038039 1_555
Cd6 I2 3.038453 1_455
Cd6 I2 3.038455 1_555
Cd6 I2 3.038455 1_445
Cd6 I20 3.039286 1_545
Cd6 I20 3.039289 1_445
Cd6 I20 3.039289 1_555
Cd7 I22 3.037880 1_565
Cd7 I22 3.037883 1_665
Cd7 I22 3.037883 1_555
Cd7 I16 3.038140 1_455
Cd7 I16 3.038140 1_565
Cd7 I16 3.038146 1_555
Cd8 I17 3.037880 1_455
Cd8 I17 3.037880 1_565
Cd8 I17 3.037886 1_555
Cd8 I3 3.037984 1_565
Cd8 I3 3.037987 1_665
Cd8 I3 3.037987 1_555
Cd9 I6 3.038505 1_455
Cd9 I6 3.038508 1_445
Cd9 I6 3.038508 1_555
Cd9 I4 3.039182 1_545
Cd9 I4 3.039185 1_555
Cd9 I4 3.039185 1_445
Cd10 I10 3.037723 1_565
Cd10 I10 3.037726 1_665
Cd10 I10 3.037726 1_555
Cd10 I8 3.037984 1_455
Cd10 I8 3.037984 1_565
Cd10 I8 3.037990 1_555
Cd11 I19 3.037932 1_455
Cd11 I19 3.037932 1_565
Cd11 I19 3.037938 1_555
Cd11 I21 3.038036 1_565
Cd11 I21 3.038039 1_665
Cd11 I21 3.038039 1_555
