# generated using pymatgen
data_U2Cu2As3O
_symmetry_space_group_name_H-M   'P 1'
_cell_length_a   3.90872400
_cell_length_b   3.90872400
_cell_length_c   17.98260500
_cell_angle_alpha   90.00000000
_cell_angle_beta   90.00000000
_cell_angle_gamma   90.00000000
_symmetry_Int_Tables_number   1
_chemical_formula_structural   U2Cu2As3O
_chemical_formula_sum   'U4 Cu4 As6 O2'
_cell_volume   274.74045659
_cell_formula_units_Z   2
loop_
 _symmetry_equiv_pos_site_id
 _symmetry_equiv_pos_as_xyz
  1  'x, y, z'
loop_
 _atom_site_type_symbol
 _atom_site_label
 _atom_site_symmetry_multiplicity
 _atom_site_fract_x
 _atom_site_fract_y
 _atom_site_fract_z
 _atom_site_occupancy
  U  U0  1  0.50000000  0.00000000  0.62575000  1
  U  U1  1  0.50000000  0.00000000  0.07021200  1
  U  U2  1  0.00000000  0.50000000  0.92978800  1
  U  U3  1  0.00000000  0.50000000  0.37425000  1
  Cu  Cu0  1  0.00000000  0.00000000  0.76893800  1
  Cu  Cu1  1  0.50000000  0.50000000  0.76893800  1
  Cu  Cu2  1  0.00000000  0.00000000  0.23106200  1
  Cu  Cu3  1  0.50000000  0.50000000  0.23106200  1
  As  As0  1  0.00000000  0.50000000  0.14858600  1
  As  As1  1  0.00000000  0.50000000  0.67699800  1
  As  As2  1  0.50000000  0.00000000  0.32300200  1
  As  As3  1  0.50000000  0.00000000  0.85141400  1
  As  As4  1  0.50000000  0.50000000  0.50000000  1
  As  As5  1  0.00000000  0.00000000  0.50000000  1
  O  O0  1  0.50000000  0.50000000  0.00000000  1
  O  O1  1  0.00000000  0.00000000  0.00000000  1
loop_
_geom_bond_atom_site_label_1
_geom_bond_atom_site_label_2
_geom_bond_distance
_geom_bond_site_symmetry_2
As0 Cu3 2.453409 1_555
As0 Cu2 2.453409 1_555
As0 Cu2 2.453409 1_565
As0 Cu3 2.453409 1_455
As0 U1 3.102480 1_565
As0 U1 3.102480 1_465
As0 U1 3.102480 1_555
As0 U1 3.102480 1_455
As1 Cu0 2.559883 1_555
As1 Cu1 2.559883 1_555
As1 Cu1 2.559883 1_455
As1 Cu0 2.559883 1_565
As1 U0 2.913479 1_455
As1 U0 2.913479 1_465
As1 U0 2.913479 1_565
As1 U0 2.913479 1_555
As2 Cu3 2.559883 1_545
As2 Cu3 2.559883 1_555
As2 Cu2 2.559883 1_655
As2 Cu2 2.559883 1_555
As2 U3 2.913479 1_645
As2 U3 2.913479 1_555
As2 U3 2.913479 1_655
As2 U3 2.913479 1_545
As3 Cu0 2.453409 1_555
As3 Cu0 2.453409 1_655
As3 Cu1 2.453409 1_555
As3 Cu1 2.453409 1_545
As3 U2 3.102480 1_645
As3 U2 3.102480 1_555
As3 U2 3.102480 1_655
As3 U2 3.102480 1_545
As4 As5 2.763885 1_555
As4 As5 2.763885 1_655
As4 As5 2.763885 1_665
As4 As5 2.763885 1_565
As4 U3 2.988823 1_655
As4 U3 2.988823 1_555
As4 U0 2.988823 1_555
As4 U0 2.988823 1_565
As5 U3 2.988823 1_545
As5 U3 2.988823 1_555
As5 U0 2.988823 1_555
As5 U0 2.988823 1_455
O0 U1 2.326731 1_555
O0 U1 2.326731 1_565
O0 U2 2.326731 1_654
O0 U2 2.326731 1_554
O1 U1 2.326731 1_455
O1 U1 2.326731 1_555
O1 U2 2.326731 1_544
O1 U2 2.326731 1_554
