# generated using pymatgen
data_NbSbRu
_symmetry_space_group_name_H-M   'P 1'
_cell_length_a   4.36686522
_cell_length_b   4.36686457
_cell_length_c   4.36686603
_cell_angle_alpha   60.00000451
_cell_angle_beta   60.00000939
_cell_angle_gamma   60.00001022
_symmetry_Int_Tables_number   1
_chemical_formula_structural   NbSbRu
_chemical_formula_sum   'Nb1 Sb1 Ru1'
_cell_volume   58.88361463
_cell_formula_units_Z   1
loop_
 _symmetry_equiv_pos_site_id
 _symmetry_equiv_pos_as_xyz
  1  'x, y, z'
loop_
 _atom_site_type_symbol
 _atom_site_label
 _atom_site_symmetry_multiplicity
 _atom_site_fract_x
 _atom_site_fract_y
 _atom_site_fract_z
 _atom_site_occupancy
  Nb  Nb0  1  -0.00000000  0.00000000  0.00000000  1
  Sb  Sb0  1  0.50000000  0.50000000  0.50000000  1
  Ru  Ru0  1  0.25000000  0.25000000  0.25000000  1
loop_
_geom_bond_atom_site_label_1
_geom_bond_atom_site_label_2
_geom_bond_distance
_geom_bond_site_symmetry_2
Nb0 Ru0 2.674148 1_545
Nb0 Ru0 2.674148 1_555
Nb0 Ru0 2.674148 1_455
Nb0 Ru0 2.674149 1_554
Nb0 Sb0 3.087840 1_554
Nb0 Sb0 3.087840 1_445
Nb0 Sb0 3.087840 1_455
Nb0 Sb0 3.087840 1_544
Nb0 Sb0 3.087840 1_545
Nb0 Sb0 3.087840 1_454
Ru0 Sb0 2.674148 1_545
Ru0 Sb0 2.674148 1_555
Ru0 Sb0 2.674148 1_455
Ru0 Sb0 2.674149 1_554
