# generated using pymatgen
data_Li10Mn23O48
_symmetry_space_group_name_H-M   'P 1'
_cell_length_a   5.91441601
_cell_length_b   5.91441601
_cell_length_c   28.87628542
_cell_angle_alpha   88.99321494
_cell_angle_beta   88.99321494
_cell_angle_gamma   60.22342347
_symmetry_Int_Tables_number   1
_chemical_formula_structural   Li10Mn23O48
_chemical_formula_sum   'Li10 Mn23 O48'
_cell_volume   876.55555345
_cell_formula_units_Z   1
loop_
 _symmetry_equiv_pos_site_id
 _symmetry_equiv_pos_as_xyz
  1  'x, y, z'
loop_
 _atom_site_type_symbol
 _atom_site_label
 _atom_site_symmetry_multiplicity
 _atom_site_fract_x
 _atom_site_fract_y
 _atom_site_fract_z
 _atom_site_occupancy
  Li  Li0  1  0.83993900  0.83993900  0.97836900  1
  Li  Li1  1  0.51060600  0.51060600  0.81579300  1
  Li  Li2  1  0.16720500  0.16720500  0.64785600  1
  Li  Li3  1  0.83921100  0.83921100  0.47693000  1
  Li  Li4  1  0.50083100  0.50083100  0.31624600  1
  Li  Li5  1  0.16846500  0.16846500  0.51670300  1
  Li  Li6  1  0.16166600  0.16166600  0.14364900  1
  Li  Li7  1  0.82712100  0.82712100  0.35598000  1
  Li  Li8  1  0.50468800  0.50468800  0.18998500  1
  Li  Li9  1  0.16521900  0.16521900  0.01754800  1
  Mn  Mn0  1  0.49794500  0.49794500  0.99739400  1
  Mn  Mn1  1  0.33385700  0.83254500  0.91748500  1
  Mn  Mn2  1  0.83254500  0.33385700  0.91748500  1
  Mn  Mn3  1  0.16433500  0.16433500  0.83228200  1
  Mn  Mn4  1  0.66787900  0.66787900  0.58200900  1
  Mn  Mn5  1  0.00115200  0.49091700  0.75080400  1
  Mn  Mn6  1  0.82064000  0.82064000  0.85226300  1
  Mn  Mn7  1  0.49091700  0.00115200  0.75080400  1
  Mn  Mn8  1  0.83369800  0.83369800  0.66705000  1
  Mn  Mn9  1  0.66803400  0.16568700  0.58169100  1
  Mn  Mn10  1  0.49323000  0.49323000  0.69002400  1
  Mn  Mn11  1  0.50060100  0.50060100  0.49694700  1
  Mn  Mn12  1  0.16568700  0.66803400  0.58169100  1
  Mn  Mn13  1  0.33323800  0.83285900  0.41653900  1
  Mn  Mn14  1  0.00238500  0.00238500  0.25106400  1
  Mn  Mn15  1  0.16720100  0.16720100  0.33648400  1
  Mn  Mn16  1  0.83285900  0.33323800  0.41653900  1
  Mn  Mn17  1  0.00519800  0.50020700  0.25146100  1
  Mn  Mn18  1  0.66371600  0.66371600  0.08258300  1
  Mn  Mn19  1  0.83318900  0.83318900  0.16685600  1
  Mn  Mn20  1  0.50020700  0.00519800  0.25146100  1
  Mn  Mn21  1  0.66106000  0.16576700  0.08226800  1
  Mn  Mn22  1  0.16576700  0.66106000  0.08226800  1
  O  O0  1  0.67433600  0.20828000  0.96167200  1
  O  O1  1  0.52128000  0.52128000  0.88294600  1
  O  O2  1  0.20828000  0.67433600  0.96167200  1
  O  O3  1  0.65175900  0.65175900  0.95614600  1
  O  O4  1  0.01209700  0.01209700  0.87732200  1
  O  O5  1  0.33855600  0.87291100  0.79329600  1
  O  O6  1  0.14751400  0.14751400  0.95113900  1
  O  O7  1  0.45787800  0.00560300  0.87487500  1
  O  O8  1  0.87291100  0.33855600  0.79329600  1
  O  O9  1  0.18492600  0.18492600  0.71504300  1
  O  O10  1  0.00560300  0.45787800  0.87487500  1
  O  O11  1  0.31738600  0.31738600  0.78900300  1
  O  O12  1  0.68114700  0.68114700  0.71105000  1
  O  O13  1  0.97772100  0.53679200  0.62113300  1
  O  O14  1  0.12126100  0.66491300  0.70571900  1
  O  O15  1  0.81976900  0.81976900  0.78433200  1
  O  O16  1  0.82628600  0.82628600  0.54574500  1
  O  O17  1  0.53679200  0.97772100  0.62113300  1
  O  O18  1  0.66491300  0.12126100  0.70571900  1
  O  O19  1  0.98030300  0.98030300  0.62195700  1
  O  O20  1  0.35437600  0.35437600  0.54346700  1
  O  O21  1  0.67644100  0.20977300  0.46172300  1
  O  O22  1  0.50751700  0.50751700  0.61981200  1
  O  O23  1  0.79852300  0.35731700  0.54459500  1
  O  O24  1  0.51613200  0.51613200  0.38293000  1
  O  O25  1  0.20977300  0.67644100  0.46172300  1
  O  O26  1  0.35731700  0.79852300  0.54459500  1
  O  O27  1  0.65225500  0.65225500  0.45494800  1
  O  O28  1  0.31259500  0.87089300  0.28864600  1
  O  O29  1  0.01428200  0.01428200  0.37792600  1
  O  O30  1  0.45770900  0.98967100  0.37158900  1
  O  O31  1  0.15008200  0.15008200  0.45007000  1
  O  O32  1  0.16495700  0.16495700  0.21418300  1
  O  O33  1  0.87089300  0.31259500  0.28864600  1
  O  O34  1  0.31470600  0.31470600  0.29083100  1
  O  O35  1  0.98967100  0.45770900  0.37158900  1
  O  O36  1  0.98058600  0.52483900  0.11937400  1
  O  O37  1  0.68958800  0.68958800  0.21170000  1
  O  O38  1  0.14146400  0.68540000  0.21427300  1
  O  O39  1  0.83876800  0.83876800  0.28646100  1
  O  O40  1  0.82716300  0.82716300  0.04718100  1
  O  O41  1  0.52483900  0.98058600  0.11937400  1
  O  O42  1  0.97680100  0.97680100  0.12213100  1
  O  O43  1  0.68540000  0.14146400  0.21427300  1
  O  O44  1  0.35099200  0.35099200  0.04268300  1
  O  O45  1  0.79479900  0.35331700  0.04492200  1
  O  O46  1  0.50146300  0.50146300  0.11951400  1
  O  O47  1  0.35331700  0.79479900  0.04492200  1
loop_
_geom_bond_atom_site_label_1
_geom_bond_atom_site_label_2
_geom_bond_distance
_geom_bond_site_symmetry_2
Li0 O0 1.948873 1_565
Li0 O2 1.948873 1_655
Li0 O40 1.988679 1_556
Li0 O3 2.041999 1_555
Li1 O1 1.944416 1_555
Li1 O8 1.964113 1_555
Li1 O5 1.964113 1_555
Li1 O11 2.137666 1_555
Li2 O9 1.952230 1_555
Li2 O13 2.041445 1_455
Li2 O17 2.041445 1_545
Li2 O19 2.067603 1_445
Li3 O21 1.951507 1_565
Li3 O25 1.951507 1_655
Li3 O16 1.988836 1_555
Li3 O27 2.027791 1_555
Li4 O24 1.935108 1_555
Li4 O28 2.052976 1_555
Li4 O33 2.052976 1_555
Li4 O34 2.054897 1_555
Li5 O31 1.937085 1_555
Li5 O23 2.055702 1_455
Li5 O26 2.055702 1_545
Li5 O20 2.067826 1_555
Li6 O36 1.985115 1_455
Li6 O41 1.985115 1_545
Li6 O42 2.003027 1_445
Li6 O32 2.037722 1_555
Li7 O35 1.948166 1_555
Li7 O30 1.948166 1_555
Li7 O39 2.008567 1_555
Li7 O29 2.029438 1_665
Li8 O38 1.985471 1_555
Li8 O43 1.985471 1_555
Li8 O37 2.005248 1_555
Li8 O46 2.035878 1_555
Li9 O6 1.929844 1_554
Li9 O44 2.048502 1_555
Li9 O45 2.052171 1_455
Li9 O47 2.052171 1_545
Mn0 O2 1.826617 1_555
Mn0 O0 1.826617 1_555
Mn0 O3 1.954408 1_555
Mn0 O44 1.972691 1_556
Mn0 O47 2.061446 1_556
Mn0 O45 2.061446 1_556
Mn1 O1 1.900361 1_555
Mn1 O6 1.901598 1_565
Mn1 O2 1.915792 1_555
Mn1 O7 1.941475 1_565
Mn1 O3 1.989920 1_555
Mn1 O4 2.030098 1_565
Mn2 O1 1.900361 1_555
Mn2 O6 1.901598 1_655
Mn2 O0 1.915792 1_555
Mn2 O10 1.941475 1_655
Mn2 O3 1.989920 1_555
Mn2 O4 2.030098 1_655
Mn3 O8 1.887678 1_455
Mn3 O5 1.887678 1_545
Mn3 O7 1.955462 1_555
Mn3 O10 1.955462 1_555
Mn3 O11 1.983682 1_555
Mn3 O4 2.008954 1_555
Mn4 O16 1.911789 1_555
Mn4 O26 1.941340 1_555
Mn4 O23 1.941340 1_555
Mn4 O22 1.952286 1_555
Mn4 O17 1.966326 1_555
Mn4 O13 1.966326 1_555
Mn5 O8 1.870871 1_455
Mn5 O9 1.896165 1_555
Mn5 O15 1.956619 1_455
Mn5 O11 1.973409 1_555
Mn5 O14 1.976125 1_555
Mn5 O12 2.020317 1_455
Mn6 O15 1.961796 1_555
Mn6 O10 1.967484 1_655
Mn6 O7 1.967484 1_565
Mn6 O4 2.102195 1_665
Mn7 O5 1.870871 1_545
Mn7 O9 1.896165 1_555
Mn7 O15 1.956619 1_545
Mn7 O11 1.973409 1_555
Mn7 O18 1.976125 1_555
Mn7 O12 2.020317 1_545
Mn8 O14 1.864727 1_655
Mn8 O18 1.864727 1_565
Mn8 O19 1.966361 1_555
Mn8 O12 1.992588 1_555
Mn8 O13 2.030688 1_555
Mn8 O17 2.030688 1_555
Mn9 O23 1.955685 1_555
Mn9 O20 1.969146 1_555
Mn9 O17 1.979174 1_545
Mn9 O19 1.996116 1_545
Mn9 O16 2.038603 1_545
Mn9 O22 2.082190 1_555
Mn10 O18 1.959267 1_555
Mn10 O14 1.959267 1_555
Mn10 O12 2.028169 1_555
Mn10 O22 2.029762 1_555
Mn11 O21 1.822734 1_555
Mn11 O25 1.822734 1_555
Mn11 O27 1.949990 1_555
Mn11 O20 1.990385 1_555
Mn11 O23 2.068118 1_555
Mn11 O26 2.068118 1_555
Mn12 O26 1.955685 1_555
Mn12 O20 1.969146 1_555
Mn12 O13 1.979174 1_455
Mn12 O19 1.996116 1_455
Mn12 O16 2.038603 1_455
Mn12 O22 2.082190 1_555
Mn13 O24 1.906682 1_555
Mn13 O31 1.907713 1_565
Mn13 O25 1.920030 1_555
Mn13 O30 1.920718 1_555
Mn13 O27 1.990285 1_555
Mn13 O29 1.993644 1_565
Mn14 O28 1.942114 1_545
Mn14 O33 1.942114 1_455
Mn14 O39 1.943767 1_445
Mn14 O43 1.956442 1_455
Mn14 O38 1.956442 1_545
Mn14 O32 1.956918 1_555
Mn15 O30 1.820482 1_545
Mn15 O35 1.820482 1_455
Mn15 O29 1.950495 1_555
Mn15 O34 1.983730 1_555
Mn15 O33 2.065289 1_455
Mn15 O28 2.065289 1_545
Mn16 O24 1.906682 1_555
Mn16 O31 1.907713 1_655
Mn16 O21 1.920030 1_555
Mn16 O35 1.920718 1_555
Mn16 O27 1.990285 1_555
Mn16 O29 1.993644 1_655
Mn17 O38 1.951260 1_555
Mn17 O33 1.954172 1_455
Mn17 O34 1.970180 1_555
Mn17 O37 2.002665 1_455
Mn17 O39 2.019505 1_455
Mn17 O32 2.039972 1_555
Mn18 O40 1.942361 1_555
Mn18 O45 1.944448 1_555
Mn18 O47 1.944448 1_555
Mn18 O46 1.954942 1_555
Mn18 O41 1.956003 1_555
Mn18 O36 1.956003 1_555
Mn19 O42 1.936574 1_555
Mn19 O37 1.938731 1_555
Mn19 O38 2.103774 1_655
Mn19 O43 2.103774 1_565
Mn19 O36 2.105371 1_555
Mn19 O41 2.105371 1_555
Mn20 O43 1.951260 1_555
Mn20 O28 1.954172 1_545
Mn20 O34 1.970180 1_555
Mn20 O37 2.002665 1_545
Mn20 O39 2.019505 1_545
Mn20 O32 2.039972 1_555
Mn21 O41 1.949763 1_545
Mn21 O45 1.954105 1_555
Mn21 O44 1.975866 1_555
Mn21 O42 2.004679 1_545
Mn21 O40 2.021006 1_545
Mn21 O46 2.041488 1_555
Mn22 O36 1.949763 1_455
Mn22 O47 1.954105 1_555
Mn22 O44 1.975866 1_555
Mn22 O42 2.004679 1_455
Mn22 O40 2.021006 1_455
Mn22 O46 2.041488 1_555
