# generated using pymatgen
data_SrGeO3
_symmetry_space_group_name_H-M   'P 1'
_cell_length_a   8.65213930
_cell_length_b   9.94357572
_cell_length_c   11.16756590
_cell_angle_alpha   73.90493086
_cell_angle_beta   89.93632227
_cell_angle_gamma   77.98048307
_symmetry_Int_Tables_number   1
_chemical_formula_structural   SrGeO3
_chemical_formula_sum   'Sr12 Ge12 O36'
_cell_volume   901.24352955
_cell_formula_units_Z   12
loop_
 _symmetry_equiv_pos_site_id
 _symmetry_equiv_pos_as_xyz
  1  'x, y, z'
loop_
 _atom_site_type_symbol
 _atom_site_label
 _atom_site_symmetry_multiplicity
 _atom_site_fract_x
 _atom_site_fract_y
 _atom_site_fract_z
 _atom_site_occupancy
  Sr  Sr0  1  0.60057537  0.64905006  0.51606155  1
  Sr  Sr1  1  0.74884321  0.00211870  0.50893504  1
  Sr  Sr2  1  0.91574296  0.35101790  0.33737035  1
  Sr  Sr3  1  0.92441951  0.34245859  0.98523819  1
  Sr  Sr4  1  0.56719771  0.64790130  0.15604268  1
  Sr  Sr5  1  0.39942463  0.35094994  0.48393845  1
  Sr  Sr6  1  0.25181857  0.00205090  0.98882879  1
  Sr  Sr7  1  0.43280229  0.35209870  0.84395732  1
  Sr  Sr8  1  0.25115679  0.99788130  0.49106496  1
  Sr  Sr9  1  0.08425704  0.64898210  0.66262965  1
  Sr  Sr10  1  0.74818143  0.99794910  0.01117121  1
  Sr  Sr11  1  0.07558049  0.65754141  0.01476181  1
  Ge  Ge0  1  0.24541544  0.70517998  0.28953980  1
  Ge  Ge1  1  0.89897610  0.70383728  0.35908889  1
  Ge  Ge2  1  0.74070778  0.70240933  0.86162913  1
  Ge  Ge3  1  0.75458456  0.29482002  0.71046020  1
  Ge  Ge4  1  0.10102490  0.29616272  0.64091211  1
  Ge  Ge5  1  0.60658792  0.29178124  0.21609843  1
  Ge  Ge6  1  0.50348276  0.99481475  0.75094126  1
  Ge  Ge7  1  0.39341208  0.70821876  0.78390157  1
  Ge  Ge8  1  0.25929222  0.29759067  0.13837087  1
  Ge  Ge9  1  0.00342154  0.99383049  0.25115153  1
  Ge  Ge10  1  0.99657846  0.00616951  0.74884847  1
  Ge  Ge11  1  0.49651724  0.00518525  0.24905874  1
  O  O0  1  0.41010257  0.39189925  0.15652068  1
  O  O1  1  0.25619274  0.74053883  0.12906910  1
  O  O2  1  0.73193767  0.39794606  0.14021580  1
  O  O3  1  0.22834484  0.39779391  0.67035807  1
  O  O4  1  0.26806233  0.60205394  0.85978420  1
  O  O5  1  0.81458789  0.12861898  0.67396224  1
  O  O6  1  0.04529177  0.91268437  0.64106096  1
  O  O7  1  0.68522626  0.86769653  0.74038564  1
  O  O8  1  0.09783591  0.60587868  0.35365482  1
  O  O9  1  0.00532486  0.08476521  0.09635343  1
  O  O10  1  0.99467514  0.91523479  0.90364657  1
  O  O11  1  0.45788909  0.08554241  0.59633677  1
  O  O12  1  0.57723761  0.39687994  0.63470524  1
  O  O13  1  0.31477374  0.13230347  0.25961436  1
  O  O14  1  0.75079278  0.73921391  0.00402237  1
  O  O15  1  0.18541211  0.87138102  0.32603776  1
  O  O16  1  0.07966829  0.40404829  0.15508501  1
  O  O17  1  0.37659312  0.87261275  0.82286300  1
  O  O18  1  0.63211109  0.26312763  0.37576490  1
  O  O19  1  0.95470823  0.08731563  0.35893904  1
  O  O20  1  0.92033171  0.59595171  0.84491499  1
  O  O21  1  0.24920722  0.26078609  0.99597763  1
  O  O22  1  0.11674598  0.13230896  0.76182306  1
  O  O23  1  0.86625415  0.74010848  0.50129748  1
  O  O24  1  0.62340688  0.12738725  0.17713700  1
  O  O25  1  0.49638755  0.91329753  0.13965206  1
  O  O26  1  0.90216409  0.39412132  0.64634518  1
  O  O27  1  0.77165516  0.60220609  0.32964193  1
  O  O28  1  0.13374585  0.25989152  0.49870252  1
  O  O29  1  0.36788891  0.73687237  0.62423510  1
  O  O30  1  0.42276239  0.60312006  0.36529476  1
  O  O31  1  0.54211091  0.91445759  0.40366323  1
  O  O32  1  0.58989743  0.60810075  0.84347932  1
  O  O33  1  0.74380726  0.25946117  0.87093090  1
  O  O34  1  0.50361245  0.08670247  0.86034794  1
  O  O35  1  0.88325402  0.86769104  0.23817694  1
loop_
_geom_bond_atom_site_label_1
_geom_bond_atom_site_label_2
_geom_bond_distance
_geom_bond_site_symmetry_2
Ge0 O30 1.725799 1_555
Ge0 O1 1.734285 1_555
Ge0 O15 1.783965 1_555
Ge0 O8 1.802538 1_555
Ge1 O27 1.729640 1_555
Ge1 O23 1.733906 1_555
Ge1 O35 1.784560 1_555
Ge1 O8 1.802039 1_655
Ge2 O20 1.730449 1_555
Ge2 O14 1.733932 1_556
Ge2 O7 1.789958 1_555
Ge2 O32 1.799632 1_555
Ge3 O12 1.725799 1_555
Ge3 O33 1.734285 1_555
Ge3 O5 1.783965 1_555
Ge3 O26 1.802538 1_555
Ge4 O3 1.729630 1_555
Ge4 O28 1.733916 1_555
Ge4 O22 1.784556 1_555
Ge4 O26 1.802044 1_455
Ge5 O2 1.728455 1_555
Ge5 O18 1.732721 1_555
Ge5 O24 1.782629 1_555
Ge5 O0 1.803940 1_555
Ge6 O11 1.714685 1_565
Ge6 O34 1.716699 1_565
Ge6 O7 1.827200 1_555
Ge6 O17 1.827421 1_555
Ge7 O4 1.728455 1_555
Ge7 O29 1.732721 1_555
Ge7 O17 1.782629 1_555
Ge7 O32 1.803940 1_555
Ge8 O16 1.730449 1_555
Ge8 O21 1.733932 1_554
Ge8 O13 1.789958 1_555
Ge8 O0 1.799632 1_555
Ge9 O9 1.716328 1_565
Ge9 O19 1.716630 1_465
Ge9 O15 1.816902 1_555
Ge9 O35 1.821931 1_455
Ge10 O10 1.716328 1_545
Ge10 O6 1.716630 1_645
Ge10 O5 1.816902 1_555
Ge10 O22 1.821931 1_655
Ge11 O31 1.714685 1_545
Ge11 O25 1.716699 1_545
Ge11 O13 1.827200 1_555
Ge11 O24 1.827421 1_555
O0 Sr4 3.124248 1_555
O1 Sr11 2.424525 1_555
O1 Sr6 2.630057 1_564
O1 Sr4 2.644915 1_555
O2 Sr3 2.492724 1_554
O2 Sr2 2.592976 1_555
O2 Sr4 2.647238 1_555
O3 Sr7 2.505737 1_555
O3 Sr9 2.526662 1_555
O3 Sr5 2.643058 1_555
O4 Sr11 2.492724 1_556
O4 Sr9 2.592976 1_555
O4 Sr7 2.647238 1_555
O5 Sr1 2.624491 1_555
O6 Sr9 2.515773 1_555
O6 Sr8 2.555619 1_555
O6 Sr1 2.806717 1_465
O7 Sr1 2.675463 1_565
O9 Sr3 2.467296 1_454
O9 Sr6 2.545212 1_554
O9 Sr10 2.803573 1_445
O10 Sr11 2.467296 1_656
O10 Sr10 2.545212 1_556
O10 Sr6 2.803573 1_665
O11 Sr5 2.530803 1_555
O11 Sr8 2.561932 1_545
O11 Sr1 2.748044 1_555
O12 Sr5 2.476902 1_555
O12 Sr0 2.540058 1_555
O12 Sr7 2.620894 1_555
O13 Sr8 2.675463 1_545
O14 Sr4 2.443341 1_555
O14 Sr10 2.591450 1_555
O14 Sr11 2.750797 1_655
O15 Sr8 2.624491 1_555
O16 Sr2 2.478617 1_455
O16 Sr11 2.565810 1_555
O16 Sr3 2.601818 1_454
O17 Sr6 2.645142 1_565
O18 Sr5 2.474339 1_555
O18 Sr1 2.595994 1_555
O18 Sr2 2.766401 1_555
O19 Sr2 2.515773 1_555
O19 Sr1 2.555619 1_555
O19 Sr8 2.806717 1_645
O20 Sr9 2.478617 1_655
O20 Sr3 2.565810 1_555
O20 Sr11 2.601818 1_656
O21 Sr7 2.443341 1_555
O21 Sr6 2.591450 1_555
O21 Sr3 2.750797 1_455
O22 Sr6 2.650601 1_555
O23 Sr9 2.452629 1_655
O23 Sr1 2.616801 1_565
O23 Sr0 2.629493 1_555
O24 Sr10 2.645142 1_545
O25 Sr4 2.536168 1_555
O25 Sr6 2.549395 1_564
O25 Sr10 2.756898 1_555
O27 Sr4 2.505737 1_555
O27 Sr2 2.526662 1_555
O27 Sr0 2.643058 1_555
O28 Sr2 2.452629 1_455
O28 Sr8 2.616801 1_545
O28 Sr5 2.629493 1_555
O29 Sr0 2.474339 1_555
O29 Sr8 2.595994 1_555
O29 Sr9 2.766401 1_555
O30 Sr0 2.476902 1_555
O30 Sr5 2.540058 1_555
O30 Sr4 2.620894 1_555
O31 Sr0 2.530803 1_555
O31 Sr1 2.561932 1_565
O31 Sr8 2.748044 1_555
O32 Sr7 3.124248 1_555
O33 Sr3 2.424525 1_555
O33 Sr10 2.630057 1_546
O33 Sr7 2.644915 1_555
O34 Sr7 2.536168 1_555
O34 Sr10 2.549395 1_546
O34 Sr6 2.756898 1_555
O35 Sr10 2.650601 1_555
