# generated using pymatgen
data_ZnS
_symmetry_space_group_name_H-M   'P 1'
_cell_length_a   31.52757803
_cell_length_b   31.52757785
_cell_length_c   31.52757850
_cell_angle_alpha   7.01505702
_cell_angle_beta   7.01505862
_cell_angle_gamma   7.01505921
_symmetry_Int_Tables_number   1
_chemical_formula_structural   ZnS
_chemical_formula_sum   'Zn10 S10'
_cell_volume   405.31321389
_cell_formula_units_Z   10
loop_
 _symmetry_equiv_pos_site_id
 _symmetry_equiv_pos_as_xyz
  1  'x, y, z'
loop_
 _atom_site_type_symbol
 _atom_site_label
 _atom_site_symmetry_multiplicity
 _atom_site_fract_x
 _atom_site_fract_y
 _atom_site_fract_z
 _atom_site_occupancy
  Zn  Zn0  1  0.36641200  0.36641200  0.36641200  1
  Zn  Zn1  1  0.93309600  0.93309600  0.93309600  1
  Zn  Zn2  1  0.53309200  0.53309200  0.53309200  1
  Zn  Zn3  1  0.09977600  0.09977600  0.09977600  1
  Zn  Zn4  1  0.63309100  0.63309100  0.63309100  1
  Zn  Zn5  1  0.46643000  0.46643000  0.46643000  1
  Zn  Zn6  1  0.99975400  0.99975400  0.99975400  1
  Zn  Zn7  1  0.23309000  0.23309000  0.23309000  1
  Zn  Zn8  1  0.83309400  0.83309400  0.83309400  1
  Zn  Zn9  1  0.73309700  0.73309700  0.73309700  1
  S  S0  1  0.25807800  0.25807800  0.25807800  1
  S  S1  1  0.12475300  0.12475300  0.12475300  1
  S  S2  1  0.39140300  0.39140300  0.39140300  1
  S  S3  1  0.85809100  0.85809100  0.85809100  1
  S  S4  1  0.49139200  0.49139200  0.49139200  1
  S  S5  1  0.65808600  0.65808600  0.65808600  1
  S  S6  1  0.95805800  0.95805800  0.95805800  1
  S  S7  1  0.55806500  0.55806500  0.55806500  1
  S  S8  1  0.02472600  0.02472600  0.02472600  1
  S  S9  1  0.75808300  0.75808300  0.75808300  1
loop_
_geom_bond_atom_site_label_1
_geom_bond_atom_site_label_2
_geom_bond_distance
_geom_bond_site_symmetry_2
S0 Zn7 2.357529 1_555
S0 Zn1 2.362503 1_454
S0 Zn1 2.362503 1_445
S0 Zn1 2.362503 1_544
S1 Zn3 2.356491 1_555
S1 Zn5 2.362262 1_554
S1 Zn5 2.362262 1_545
S1 Zn5 2.362262 1_455
S2 Zn0 2.357812 1_555
S2 Zn9 2.362797 1_554
S2 Zn9 2.362797 1_545
S2 Zn9 2.362797 1_455
S3 Zn8 2.358378 1_555
S3 Zn2 2.361968 1_565
S3 Zn2 2.361969 1_556
S3 Zn2 2.361969 1_655
S4 Zn5 2.355075 1_555
S4 Zn8 2.363049 1_554
S4 Zn8 2.363049 1_545
S4 Zn8 2.363049 1_455
S5 Zn4 2.358189 1_555
S5 Zn6 2.361979 1_554
S5 Zn6 2.361979 1_545
S5 Zn6 2.361980 1_455
S6 Zn1 2.355075 1_555
S6 Zn4 2.362975 1_565
S6 Zn4 2.362975 1_556
S6 Zn4 2.362976 1_655
S7 Zn2 2.356113 1_555
S7 Zn7 2.362723 1_565
S7 Zn7 2.362723 1_556
S7 Zn7 2.362724 1_655
S8 Zn6 2.356019 1_444
S8 Zn0 2.362545 1_554
S8 Zn0 2.362545 1_545
S8 Zn0 2.362545 1_455
S9 Zn9 2.357340 1_555
S9 Zn3 2.362765 1_665
S9 Zn3 2.362765 1_656
S9 Zn3 2.362766 1_566
