# generated using pymatgen
data_Rb2Mo2O7
_symmetry_space_group_name_H-M   'P 1'
_cell_length_a   8.41308241
_cell_length_b   8.41308241
_cell_length_c   12.18651800
_cell_angle_alpha   90.00000000
_cell_angle_beta   90.00000000
_cell_angle_gamma   102.79279255
_symmetry_Int_Tables_number   1
_chemical_formula_structural   Rb2Mo2O7
_chemical_formula_sum   'Rb8 Mo8 O28'
_cell_volume   841.15003384
_cell_formula_units_Z   4
loop_
 _symmetry_equiv_pos_site_id
 _symmetry_equiv_pos_as_xyz
  1  'x, y, z'
loop_
 _atom_site_type_symbol
 _atom_site_label
 _atom_site_symmetry_multiplicity
 _atom_site_fract_x
 _atom_site_fract_y
 _atom_site_fract_z
 _atom_site_occupancy
  Rb  Rb0  1  0.27956900  0.70685400  0.25000000  1
  Rb  Rb1  1  0.70685400  0.27956900  0.75000000  1
  Rb  Rb2  1  0.72612400  0.23437400  0.25000000  1
  Rb  Rb3  1  0.99550300  0.99550300  0.00000000  1
  Rb  Rb4  1  0.23437400  0.72612400  0.75000000  1
  Rb  Rb5  1  0.25256300  0.22301300  0.25000000  1
  Rb  Rb6  1  0.99550300  0.99550300  0.50000000  1
  Rb  Rb7  1  0.22301300  0.25256300  0.75000000  1
  Mo  Mo0  1  0.97520600  0.48137400  0.48839300  1
  Mo  Mo1  1  0.81589500  0.75754200  0.25000000  1
  Mo  Mo2  1  0.48137400  0.97520600  0.51160700  1
  Mo  Mo3  1  0.56378600  0.56378600  0.50000000  1
  Mo  Mo4  1  0.56378600  0.56378600  0.00000000  1
  Mo  Mo5  1  0.97520600  0.48137400  0.01160700  1
  Mo  Mo6  1  0.48137400  0.97520600  0.98839300  1
  Mo  Mo7  1  0.75754200  0.81589500  0.75000000  1
  O  O0  1  0.75638300  0.69855100  0.62393200  1
  O  O1  1  0.09204200  0.68100200  0.03453500  1
  O  O2  1  0.01472700  0.42630500  0.62440400  1
  O  O3  1  0.47752700  0.44142700  0.88975100  1
  O  O4  1  0.44142700  0.47752700  0.11024900  1
  O  O5  1  0.68100200  0.09204200  0.96546500  1
  O  O6  1  0.58518100  0.90357400  0.75000000  1
  O  O7  1  0.46371900  0.74759500  0.96843800  1
  O  O8  1  0.69855100  0.75638300  0.12393200  1
  O  O9  1  0.03483200  0.33741300  0.39970400  1
  O  O10  1  0.42630500  0.01472700  0.37559600  1
  O  O11  1  0.33741300  0.03483200  0.89970400  1
  O  O12  1  0.74759500  0.46371900  0.46843800  1
  O  O13  1  0.94032700  0.97302000  0.75000000  1
  O  O14  1  0.44142700  0.47752700  0.38975100  1
  O  O15  1  0.74759500  0.46371900  0.03156200  1
  O  O16  1  0.09204200  0.68100200  0.46546500  1
  O  O17  1  0.03483200  0.33741300  0.10029600  1
  O  O18  1  0.46371900  0.74759500  0.53156200  1
  O  O19  1  0.01472700  0.42630500  0.87559600  1
  O  O20  1  0.33741300  0.03483200  0.60029600  1
  O  O21  1  0.68100200  0.09204200  0.53453500  1
  O  O22  1  0.47752700  0.44142700  0.61024900  1
  O  O23  1  0.42630500  0.01472700  0.12440400  1
  O  O24  1  0.75638300  0.69855100  0.87606800  1
  O  O25  1  0.69855100  0.75638300  0.37606800  1
  O  O26  1  0.97302000  0.94032700  0.25000000  1
  O  O27  1  0.90357400  0.58518100  0.25000000  1
loop_
_geom_bond_atom_site_label_1
_geom_bond_atom_site_label_2
_geom_bond_distance
_geom_bond_site_symmetry_2
Mo0 O16 1.770270 1_655
Mo0 O2 1.772209 1_655
Mo0 O9 1.776443 1_655
Mo0 O12 1.903187 1_555
Mo1 O27 1.766517 1_555
Mo1 O26 1.792201 1_555
Mo1 O8 1.825035 1_555
Mo1 O25 1.825035 1_555
Mo2 O21 1.770270 1_565
Mo2 O10 1.772209 1_565
Mo2 O20 1.776443 1_565
Mo2 O18 1.903187 1_555
Mo3 O14 1.749469 1_555
Mo3 O22 1.749469 1_555
Mo3 O18 1.955653 1_555
Mo3 O12 1.955653 1_555
Mo3 O25 2.319137 1_555
Mo3 O0 2.319137 1_555
Mo4 O4 1.749469 1_555
Mo4 O3 1.749469 1_554
Mo4 O7 1.955653 1_554
Mo4 O15 1.955653 1_555
Mo4 O24 2.319137 1_554
Mo4 O8 2.319137 1_555
Mo5 O1 1.770270 1_655
Mo5 O19 1.772209 1_654
Mo5 O17 1.776443 1_655
Mo5 O15 1.903187 1_555
Mo6 O5 1.770270 1_565
Mo6 O23 1.772209 1_566
Mo6 O11 1.776443 1_565
Mo6 O7 1.903187 1_555
Mo7 O6 1.766517 1_555
Mo7 O13 1.792201 1_555
Mo7 O24 1.825035 1_555
Mo7 O0 1.825035 1_555
O0 Rb6 3.216174 1_555
O1 Rb3 2.964687 1_455
O1 Rb0 3.046158 1_555
O2 Rb7 2.946900 1_555
O2 Rb1 3.026475 1_455
O2 Rb4 3.171079 1_555
O3 Rb7 2.916059 1_555
O3 Rb1 3.104936 1_555
O4 Rb5 2.916059 1_555
O4 Rb0 3.104936 1_555
O5 Rb3 2.964687 1_546
O5 Rb1 3.046158 1_555
O6 Rb4 2.998013 1_555
O6 Rb1 3.101642 1_565
O7 Rb4 3.269171 1_555
O8 Rb3 3.216174 1_555
O9 Rb5 2.896697 1_555
O9 Rb6 3.075102 1_445
O9 Rb2 3.134984 1_455
O10 Rb5 2.946900 1_555
O10 Rb0 3.026475 1_545
O10 Rb2 3.171079 1_555
O11 Rb7 2.896697 1_555
O11 Rb3 3.075102 1_446
O11 Rb4 3.134984 1_545
O12 Rb2 3.269171 1_555
O13 Rb7 2.951305 1_665
O13 Rb3 3.081287 1_556
O13 Rb6 3.081287 1_555
O13 Rb4 3.565121 1_655
O14 Rb5 2.916059 1_555
O14 Rb0 3.104936 1_555
O15 Rb2 3.269171 1_555
O16 Rb6 2.964687 1_455
O16 Rb0 3.046158 1_555
O17 Rb5 2.896697 1_555
O17 Rb3 3.075102 1_445
O17 Rb2 3.134984 1_455
O18 Rb4 3.269171 1_555
O19 Rb7 2.946900 1_555
O19 Rb1 3.026475 1_455
O19 Rb4 3.171079 1_555
O20 Rb7 2.896697 1_555
O20 Rb6 3.075102 1_445
O20 Rb4 3.134984 1_545
O21 Rb6 2.964687 1_545
O21 Rb1 3.046158 1_555
O22 Rb7 2.916059 1_555
O22 Rb1 3.104936 1_555
O23 Rb5 2.946900 1_555
O23 Rb0 3.026475 1_545
O23 Rb2 3.171079 1_555
O24 Rb3 3.216174 1_556
O25 Rb6 3.216174 1_555
O26 Rb5 2.951305 1_665
O26 Rb6 3.081287 1_555
O26 Rb3 3.081287 1_555
O26 Rb2 3.565121 1_565
O27 Rb2 2.998013 1_555
O27 Rb0 3.101642 1_655
