# generated using pymatgen
data_ZnS
_symmetry_space_group_name_H-M   'P 1'
_cell_length_a   3.80800690
_cell_length_b   3.80800510
_cell_length_c   74.70834471
_cell_angle_alpha   90.00000000
_cell_angle_beta   90.00000000
_cell_angle_gamma   119.99999792
_symmetry_Int_Tables_number   1
_chemical_formula_structural   ZnS
_chemical_formula_sum   'Zn24 S24'
_cell_volume   938.19908053
_cell_formula_units_Z   24
loop_
 _symmetry_equiv_pos_site_id
 _symmetry_equiv_pos_as_xyz
  1  'x, y, z'
loop_
 _atom_site_type_symbol
 _atom_site_label
 _atom_site_symmetry_multiplicity
 _atom_site_fract_x
 _atom_site_fract_y
 _atom_site_fract_z
 _atom_site_occupancy
  Zn  Zn0  1  0.66666700  0.33333300  0.70834868  1
  Zn  Zn1  1  0.33333300  0.66666700  0.79167682  1
  Zn  Zn2  1  0.66666700  0.33333300  0.33332343  1
  Zn  Zn3  1  -0.00000000  -0.00000000  0.41668548  1
  Zn  Zn4  1  0.66666700  0.33333300  0.08330919  1
  Zn  Zn5  1  -0.00000000  0.00000000  0.66665868  1
  Zn  Zn6  1  0.66666700  0.33333300  0.58336386  1
  Zn  Zn7  1  0.66666700  0.33333300  0.20830835  1
  Zn  Zn8  1  0.00000000  0.00000000  0.54168402  1
  Zn  Zn9  1  0.33333300  0.66666700  0.04170667  1
  Zn  Zn10  1  0.66666700  0.33333300  0.45836767  1
  Zn  Zn11  1  -0.00000000  0.00000000  0.12496430  1
  Zn  Zn12  1  0.33333300  0.66666700  0.16667052  1
  Zn  Zn13  1  0.33333300  0.66666700  0.29164206  1
  Zn  Zn14  1  -0.00000000  0.00000000  0.75004812  1
  Zn  Zn15  1  0.66666700  0.33333300  0.83330516  1
  Zn  Zn16  1  0.33333300  0.66666700  0.37507626  1
  Zn  Zn17  1  0.33333300  0.66666700  0.50006280  1
  Zn  Zn18  1  0.33333300  0.66666700  0.95830302  1
  Zn  Zn19  1  0.00000000  0.00000000  0.87503199  1
  Zn  Zn20  1  0.66666700  0.33333300  0.91672080  1
  Zn  Zn21  1  -0.00000000  0.00000000  0.99999683  1
  Zn  Zn22  1  0.33333300  0.66666700  0.62505500  1
  Zn  Zn23  1  -0.00000000  0.00000000  0.24995947  1
  S  S0  1  -0.00000000  0.00000000  0.69786181  1
  S  S1  1  0.33333300  0.66666700  0.53127397  1
  S  S2  1  0.33333300  0.66666700  0.19789416  1
  S  S3  1  0.66666700  0.33333300  0.86452741  1
  S  S4  1  0.33333300  0.66666700  0.32285199  1
  S  S5  1  -0.00000000  0.00000000  0.57291317  1
  S  S6  1  0.33333300  0.66666700  0.40627692  1
  S  S7  1  -0.00000000  0.00000000  0.78125545  1
  S  S8  1  0.33333300  0.66666700  0.65626188  1
  S  S9  1  0.33333300  0.66666700  0.98951287  1
  S  S10  1  0.66666700  0.33333300  0.11453126  1
  S  S11  1  0.66666700  0.33333300  0.73961169  1
  S  S12  1  -0.00000000  0.00000000  0.03127363  1
  S  S13  1  0.66666700  0.33333300  0.94791167  1
  S  S14  1  -0.00000000  0.00000000  0.15621534  1
  S  S15  1  0.66666700  0.33333300  0.48960590  1
  S  S16  1  0.66666700  0.33333300  0.61460093  1
  S  S17  1  0.33333300  0.66666700  0.82288928  1
  S  S18  1  -0.00000000  0.00000000  0.28120268  1
  S  S19  1  0.66666700  0.33333300  0.36460954  1
  S  S20  1  0.33333300  0.66666700  0.07290695  1
  S  S21  1  -0.00000000  0.00000000  0.44791314  1
  S  S22  1  0.66666700  0.33333300  0.23952892  1
  S  S23  1  -0.00000000  -0.00000000  0.90630027  1
loop_
_geom_bond_atom_site_label_1
_geom_bond_atom_site_label_2
_geom_bond_distance
_geom_bond_site_symmetry_2
S0 Zn5 2.331134 1_555
S0 Zn0 2.333973 1_455
S0 Zn0 2.333976 1_445
S0 Zn0 2.333977 1_555
S1 Zn17 2.331735 1_555
S1 Zn8 2.332053 1_565
S1 Zn8 2.332056 1_555
S1 Zn8 2.332057 1_665
S2 Zn7 2.332156 1_565
S2 Zn7 2.332157 1_455
S2 Zn7 2.332162 1_555
S2 Zn12 2.332666 1_555
S3 Zn15 2.332563 1_555
S3 Zn19 2.334418 1_655
S3 Zn19 2.334420 1_665
S3 Zn19 2.334421 1_555
S4 Zn13 2.331642 1_555
S4 Zn2 2.333586 1_565
S4 Zn2 2.333587 1_455
S4 Zn2 2.333593 1_555
S5 Zn6 2.333067 1_455
S5 Zn6 2.333070 1_445
S5 Zn6 2.333071 1_555
S5 Zn8 2.333078 1_555
S6 Zn16 2.330950 1_555
S6 Zn3 2.332016 1_565
S6 Zn3 2.332019 1_555
S6 Zn3 2.332020 1_665
S7 Zn14 2.331448 1_555
S7 Zn1 2.332335 1_545
S7 Zn1 2.332338 1_555
S7 Zn1 2.332339 1_445
S8 Zn22 2.331414 1_555
S8 Zn5 2.331723 1_565
S8 Zn5 2.331726 1_555
S8 Zn5 2.331727 1_665
S9 Zn18 2.331636 1_555
S9 Zn21 2.333900 1_565
S9 Zn21 2.333903 1_555
S9 Zn21 2.333904 1_665
S10 Zn4 2.332549 1_555
S10 Zn11 2.332626 1_655
S10 Zn11 2.332629 1_665
S10 Zn11 2.332630 1_555
S11 Zn14 2.332711 1_655
S11 Zn14 2.332714 1_665
S11 Zn14 2.332715 1_555
S11 Zn0 2.335608 1_555
S12 Zn9 2.332626 1_545
S12 Zn9 2.332629 1_555
S12 Zn9 2.332630 1_445
S12 Zn21 2.336638 1_554
S13 Zn20 2.330218 1_555
S13 Zn18 2.331587 1_545
S13 Zn18 2.331588 1_655
S13 Zn18 2.331594 1_555
S14 Zn12 2.333180 1_545
S14 Zn12 2.333182 1_555
S14 Zn12 2.333183 1_445
S14 Zn11 2.334713 1_555
S15 Zn17 2.333222 1_545
S15 Zn17 2.333223 1_655
S15 Zn17 2.333229 1_555
S15 Zn10 2.333756 1_555
S16 Zn22 2.333151 1_545
S16 Zn22 2.333152 1_655
S16 Zn22 2.333158 1_555
S16 Zn6 2.333670 1_555
S17 Zn1 2.331831 1_555
S17 Zn15 2.332198 1_565
S17 Zn15 2.332199 1_455
S17 Zn15 2.332205 1_555
S18 Zn13 2.332785 1_545
S18 Zn13 2.332787 1_555
S18 Zn13 2.332788 1_445
S18 Zn23 2.334129 1_555
S19 Zn16 2.333468 1_545
S19 Zn16 2.333469 1_655
S19 Zn16 2.333475 1_555
S19 Zn2 2.337333 1_555
S20 Zn9 2.330921 1_555
S20 Zn4 2.331858 1_565
S20 Zn4 2.331859 1_455
S20 Zn4 2.331865 1_555
S21 Zn3 2.332967 1_555
S21 Zn10 2.333163 1_455
S21 Zn10 2.333166 1_445
S21 Zn10 2.333167 1_555
S22 Zn7 2.332437 1_555
S22 Zn23 2.332564 1_655
S22 Zn23 2.332567 1_665
S22 Zn23 2.332568 1_555
S23 Zn20 2.332314 1_455
S23 Zn20 2.332317 1_445
S23 Zn20 2.332318 1_555
S23 Zn19 2.336001 1_555
