# generated using pymatgen
data_H32WC8N4Cl7
_symmetry_space_group_name_H-M   'P 1'
_cell_length_a   8.81591100
_cell_length_b   10.30205300
_cell_length_c   13.19379800
_cell_angle_alpha   90.00000000
_cell_angle_beta   90.00000000
_cell_angle_gamma   90.00000000
_symmetry_Int_Tables_number   1
_chemical_formula_structural   H32WC8N4Cl7
_chemical_formula_sum   'H64 W2 C16 N8 Cl14'
_cell_volume   1198.28688929
_cell_formula_units_Z   2
loop_
 _symmetry_equiv_pos_site_id
 _symmetry_equiv_pos_as_xyz
  1  'x, y, z'
loop_
 _atom_site_type_symbol
 _atom_site_label
 _atom_site_symmetry_multiplicity
 _atom_site_fract_x
 _atom_site_fract_y
 _atom_site_fract_z
 _atom_site_occupancy
  H  H0  1  0.04583500  0.66252800  0.25478700  1
  H  H1  1  0.19526500  0.23432800  0.08480600  1
  H  H2  1  0.28466500  0.60805500  0.17448600  1
  H  H3  1  0.47876000  0.12364500  0.23999200  1
  H  H4  1  0.52124000  0.37635500  0.73999200  1
  H  H5  1  0.10018200  0.15653900  0.98188200  1
  H  H6  1  0.04875500  0.82478300  0.44239600  1
  H  H7  1  0.80473500  0.73432800  0.41519400  1
  H  H8  1  0.28466500  0.39194500  0.82551400  1
  H  H9  1  0.19526500  0.76567200  0.91519400  1
  H  H10  1  0.11230700  0.07689700  0.10224900  1
  H  H11  1  0.04583500  0.33747200  0.74521300  1
  H  H12  1  0.33223000  0.10786500  0.44315400  1
  H  H13  1  0.16421200  0.19891300  0.72298900  1
  H  H14  1  0.80473500  0.26567200  0.58480600  1
  H  H15  1  0.16421200  0.80108700  0.27701100  1
  H  H16  1  0.76179900  0.35967400  0.82649000  1
  H  H17  1  0.03792400  0.32026300  0.22937800  1
  H  H18  1  0.95416500  0.83747200  0.75478700  1
  H  H19  1  0.89981800  0.65653900  0.51811800  1
  H  H20  1  0.86491700  0.82173400  0.92917300  1
  H  H21  1  0.61717600  0.91010900  0.55685200  1
  H  H22  1  0.60457000  0.96516800  0.34738600  1
  H  H23  1  0.83578800  0.69891300  0.77701100  1
  H  H24  1  0.11230700  0.92310300  0.89775100  1
  H  H25  1  0.96207600  0.82026300  0.27062200  1
  H  H26  1  0.95124500  0.67521700  0.94239600  1
  H  H27  1  0.88769300  0.57689700  0.39775100  1
  H  H28  1  0.67688300  0.48368800  0.15285600  1
  H  H29  1  0.13508300  0.67826600  0.42917300  1
  H  H30  1  0.95124500  0.32478300  0.05760400  1
  H  H31  1  0.49017100  0.23497900  0.33171900  1
  H  H32  1  0.04875500  0.17521700  0.55760400  1
  H  H33  1  0.39543000  0.53483200  0.84738600  1
  H  H34  1  0.23820100  0.85967400  0.67351000  1
  H  H35  1  0.03792400  0.67973700  0.77062200  1
  H  H36  1  0.76179900  0.64032600  0.17351000  1
  H  H37  1  0.23820100  0.14032600  0.32649000  1
  H  H38  1  0.60457000  0.03483200  0.65261400  1
  H  H39  1  0.86491700  0.17826600  0.07082700  1
  H  H40  1  0.32311700  0.01631200  0.65285600  1
  H  H41  1  0.96207600  0.17973700  0.72937800  1
  H  H42  1  0.88769300  0.42310300  0.60224900  1
  H  H43  1  0.66777000  0.60786500  0.05684600  1
  H  H44  1  0.95416500  0.16252800  0.24521300  1
  H  H45  1  0.10018200  0.84346100  0.01811800  1
  H  H46  1  0.32311700  0.98368800  0.34714400  1
  H  H47  1  0.33223000  0.89213500  0.55684600  1
  H  H48  1  0.52124000  0.62364500  0.26000800  1
  H  H49  1  0.47876000  0.87635500  0.76000800  1
  H  H50  1  0.83578800  0.30108700  0.22298900  1
  H  H51  1  0.50982900  0.26502100  0.83171900  1
  H  H52  1  0.71533500  0.89194500  0.67448600  1
  H  H53  1  0.71533500  0.10805500  0.32551400  1
  H  H54  1  0.49017100  0.76502100  0.66828100  1
  H  H55  1  0.66777000  0.39213500  0.94315400  1
  H  H56  1  0.50982900  0.73497900  0.16828100  1
  H  H57  1  0.89981800  0.34346100  0.48188200  1
  H  H58  1  0.61717600  0.08989100  0.44314800  1
  H  H59  1  0.38282400  0.41010900  0.94314800  1
  H  H60  1  0.13508300  0.32173400  0.57082700  1
  H  H61  1  0.38282400  0.58989100  0.05685200  1
  H  H62  1  0.67688300  0.51631200  0.84714400  1
  H  H63  1  0.39543000  0.46516800  0.15261400  1
  W  W0  1  0.57765300  0.00000000  0.00000000  1
  W  W1  1  0.42234700  0.50000000  0.50000000  1
  C  C0  1  0.89918700  0.32939900  0.56400300  1
  C  C1  1  0.05468900  0.24406600  0.70587900  1
  C  C2  1  0.33220300  0.91208200  0.63826700  1
  C  C3  1  0.05468900  0.75593400  0.29412100  1
  C  C4  1  0.66779700  0.41208200  0.86173300  1
  C  C5  1  0.94531100  0.74406600  0.79412100  1
  C  C6  1  0.94531100  0.25593400  0.20587900  1
  C  C7  1  0.61351600  0.06952200  0.36182900  1
  C  C8  1  0.89918700  0.67060100  0.43599700  1
  C  C9  1  0.33220300  0.08791800  0.36173300  1
  C  C10  1  0.38648400  0.43047800  0.86182900  1
  C  C11  1  0.66779700  0.58791800  0.13826700  1
  C  C12  1  0.38648400  0.56952200  0.13817100  1
  C  C13  1  0.10081300  0.82939900  0.93599700  1
  C  C14  1  0.61351600  0.93047800  0.63817100  1
  C  C15  1  0.10081300  0.17060100  0.06400300  1
  N  N0  1  0.52204900  0.63549300  0.18164300  1
  N  N1  1  0.95627100  0.23351100  0.09490900  1
  N  N2  1  0.95627100  0.76648900  0.90509100  1
  N  N3  1  0.47795100  0.13549300  0.31835700  1
  N  N4  1  0.52204900  0.36450700  0.81835700  1
  N  N5  1  0.04372900  0.26648900  0.59490900  1
  N  N6  1  0.47795100  0.86450700  0.68164300  1
  N  N7  1  0.04372900  0.73351100  0.40509100  1
  Cl  Cl0  1  0.56934900  0.78661000  0.91429600  1
  Cl  Cl1  1  0.99339500  0.00000000  0.50000000  1
  Cl  Cl2  1  0.43065100  0.71339000  0.41429600  1
  Cl  Cl3  1  0.00660500  0.50000000  0.00000000  1
  Cl  Cl4  1  0.61165500  0.57854300  0.62451000  1
  Cl  Cl5  1  0.22150400  0.57341600  0.61626700  1
  Cl  Cl6  1  0.77849600  0.92658400  0.11626700  1
  Cl  Cl7  1  0.38834500  0.07854300  0.87549000  1
  Cl  Cl8  1  0.38834500  0.92145700  0.12451000  1
  Cl  Cl9  1  0.61165500  0.42145700  0.37549000  1
  Cl  Cl10  1  0.77849600  0.07341600  0.88373300  1
  Cl  Cl11  1  0.56934900  0.21339000  0.08570400  1
  Cl  Cl12  1  0.43065100  0.28661000  0.58570400  1
  Cl  Cl13  1  0.22150400  0.42658400  0.38373300  1
loop_
_geom_bond_atom_site_label_1
_geom_bond_atom_site_label_2
_geom_bond_distance
_geom_bond_site_symmetry_2
H3 N3 1.041136 1_555
H4 N4 1.041136 1_555
H6 N7 1.062244 1_555
H20 N2 1.036094 1_555
H26 N2 1.062244 1_555
H29 N7 1.036094 1_555
H30 N1 1.062244 1_555
H31 N3 1.045527 1_555
H32 N5 1.062244 1_555
H39 N1 1.036094 1_555
H48 N0 1.041136 1_555
H49 N6 1.041136 1_555
H51 N4 1.045527 1_555
H54 N6 1.045527 1_555
H56 N0 1.045527 1_555
H60 N5 1.036094 1_555
C0 H57 1.093144 1_555
C0 H42 1.093978 1_555
C0 H14 1.095312 1_555
C0 N5 1.486632 1_655
C1 H13 1.095272 1_555
C1 H11 1.096078 1_555
C1 H41 1.096332 1_455
C1 N5 1.485373 1_555
C2 H34 1.092924 1_555
C2 H47 1.093730 1_555
C2 H40 1.093836 1_565
C2 N6 1.489533 1_555
C3 H15 1.095272 1_555
C3 H0 1.096078 1_555
C3 H25 1.096332 1_455
C3 N7 1.485373 1_555
C4 H16 1.092924 1_555
C4 H55 1.093730 1_555
C4 H62 1.093836 1_555
C4 N4 1.489533 1_555
C5 H23 1.095272 1_555
C5 H18 1.096078 1_555
C5 H35 1.096332 1_655
C5 N2 1.485373 1_555
C6 H50 1.095272 1_555
C6 H44 1.096078 1_555
C6 H17 1.096332 1_655
C6 N1 1.485373 1_555
C7 H53 1.092194 1_555
C7 H58 1.093711 1_555
C7 H22 1.094663 1_545
C7 N3 1.489702 1_555
C8 H19 1.093144 1_555
C8 H27 1.093978 1_555
C8 H7 1.095312 1_555
C8 N7 1.486632 1_655
C9 H37 1.092924 1_555
C9 H12 1.093730 1_555
C9 H46 1.093836 1_545
C9 N3 1.489533 1_555
C10 H8 1.092194 1_555
C10 H59 1.093711 1_555
C10 H33 1.094663 1_555
C10 N4 1.489702 1_555
C11 H36 1.092924 1_555
C11 H43 1.093730 1_555
C11 H28 1.093836 1_555
C11 N0 1.489533 1_555
C12 H2 1.092194 1_555
C12 H61 1.093711 1_555
C12 H63 1.094663 1_555
C12 N0 1.489702 1_555
C13 H45 1.093144 1_556
C13 H24 1.093978 1_555
C13 H9 1.095312 1_555
C13 N2 1.486632 1_455
C14 H52 1.092194 1_555
C14 H21 1.093711 1_555
C14 H38 1.094663 1_565
C14 N6 1.489702 1_555
C15 H5 1.093144 1_554
C15 H10 1.093978 1_555
C15 H1 1.095312 1_555
C15 N1 1.486632 1_455
Cl0 W0 2.473206 1_566
Cl1 H32 2.018460 1_655
Cl1 H6 2.018460 1_645
Cl2 W1 2.473206 1_555
Cl3 H30 2.018460 1_455
Cl3 H26 2.018460 1_454
Cl4 W1 2.477638 1_555
Cl5 W1 2.461764 1_555
Cl6 W0 2.461764 1_565
Cl7 W0 2.477638 1_556
Cl8 W0 2.477638 1_565
Cl9 W1 2.477638 1_555
Cl10 W0 2.461764 1_556
Cl11 W0 2.473206 1_555
Cl12 W1 2.473206 1_555
Cl13 W1 2.461764 1_555
