# generated using pymatgen
data_Cs3Te17Mo15
_symmetry_space_group_name_H-M   'P 1'
_cell_length_a   10.42707712
_cell_length_b   10.42707712
_cell_length_c   21.85103700
_cell_angle_alpha   90.00000000
_cell_angle_beta   90.00000000
_cell_angle_gamma   120.00000713
_symmetry_Int_Tables_number   1
_chemical_formula_structural   Cs3Te17Mo15
_chemical_formula_sum   'Cs6 Te34 Mo30'
_cell_volume   2057.44305804
_cell_formula_units_Z   2
loop_
 _symmetry_equiv_pos_site_id
 _symmetry_equiv_pos_as_xyz
  1  'x, y, z'
loop_
 _atom_site_type_symbol
 _atom_site_label
 _atom_site_symmetry_multiplicity
 _atom_site_fract_x
 _atom_site_fract_y
 _atom_site_fract_z
 _atom_site_occupancy
  Cs  Cs0  1  0.00000000  0.00000000  0.86045000  1
  Cs  Cs1  1  0.33333300  0.66666700  0.25000000  1
  Cs  Cs2  1  0.00000000  0.00000000  0.63955000  1
  Cs  Cs3  1  0.00000000  0.00000000  0.13955000  1
  Cs  Cs4  1  0.66666700  0.33333300  0.75000000  1
  Cs  Cs5  1  0.00000000  0.00000000  0.36045000  1
  Te  Te0  1  0.62479800  0.63216800  0.64295800  1
  Te  Te1  1  0.99262900  0.62479800  0.14295800  1
  Te  Te2  1  0.37520200  0.36783200  0.14295800  1
  Te  Te3  1  0.66284500  0.96120400  0.95740900  1
  Te  Te4  1  0.29835900  0.33715500  0.54259100  1
  Te  Te5  1  0.04056200  0.70543500  0.75000000  1
  Te  Te6  1  0.66666700  0.33333300  0.56586700  1
  Te  Te7  1  0.63216800  0.00737100  0.35704200  1
  Te  Te8  1  0.37520200  0.36783200  0.35704200  1
  Te  Te9  1  0.00737100  0.37520200  0.64295800  1
  Te  Te10  1  0.03879600  0.70164100  0.54259100  1
  Te  Te11  1  0.29835900  0.33715500  0.95740900  1
  Te  Te12  1  0.95943800  0.29456500  0.25000000  1
  Te  Te13  1  0.36783200  0.99262900  0.64295800  1
  Te  Te14  1  0.70543500  0.66487300  0.25000000  1
  Te  Te15  1  0.33715500  0.03879600  0.04259100  1
  Te  Te16  1  0.99262900  0.62479800  0.35704200  1
  Te  Te17  1  0.36783200  0.99262900  0.85704200  1
  Te  Te18  1  0.66487300  0.95943800  0.75000000  1
  Te  Te19  1  0.96120400  0.29835900  0.04259100  1
  Te  Te20  1  0.33715500  0.03879600  0.45740900  1
  Te  Te21  1  0.03879600  0.70164100  0.95740900  1
  Te  Te22  1  0.33333300  0.66666700  0.06586700  1
  Te  Te23  1  0.33512700  0.04056200  0.25000000  1
  Te  Te24  1  0.96120400  0.29835900  0.45740900  1
  Te  Te25  1  0.33333300  0.66666700  0.43413300  1
  Te  Te26  1  0.66666700  0.33333300  0.93413300  1
  Te  Te27  1  0.63216800  0.00737100  0.14295800  1
  Te  Te28  1  0.66284500  0.96120400  0.54259100  1
  Te  Te29  1  0.29456500  0.33512700  0.75000000  1
  Te  Te30  1  0.00737100  0.37520200  0.85704200  1
  Te  Te31  1  0.70164100  0.66284500  0.45740900  1
  Te  Te32  1  0.62479800  0.63216800  0.85704200  1
  Te  Te33  1  0.70164100  0.66284500  0.04259100  1
  Mo  Mo0  1  0.31843700  0.51012600  0.64329500  1
  Mo  Mo1  1  0.48987400  0.80831100  0.64329500  1
  Mo  Mo2  1  0.35053000  0.82129300  0.75000000  1
  Mo  Mo3  1  0.64947000  0.17870700  0.25000000  1
  Mo  Mo4  1  0.52923800  0.35053000  0.25000000  1
  Mo  Mo5  1  0.19168900  0.68156300  0.85670500  1
  Mo  Mo6  1  0.51012600  0.19168900  0.14329500  1
  Mo  Mo7  1  0.35213900  0.82281600  0.53803600  1
  Mo  Mo8  1  0.68156300  0.48987400  0.14329500  1
  Mo  Mo9  1  0.17718400  0.52932300  0.53803600  1
  Mo  Mo10  1  0.52932300  0.35213900  0.03803600  1
  Mo  Mo11  1  0.47076200  0.64947000  0.75000000  1
  Mo  Mo12  1  0.47067700  0.64786100  0.96196400  1
  Mo  Mo13  1  0.52932300  0.35213900  0.46196400  1
  Mo  Mo14  1  0.64786100  0.17718400  0.46196400  1
  Mo  Mo15  1  0.80831100  0.31843700  0.14329500  1
  Mo  Mo16  1  0.82281600  0.47067700  0.03803600  1
  Mo  Mo17  1  0.82129300  0.47076200  0.25000000  1
  Mo  Mo18  1  0.68156300  0.48987400  0.35670500  1
  Mo  Mo19  1  0.47067700  0.64786100  0.53803600  1
  Mo  Mo20  1  0.51012600  0.19168900  0.35670500  1
  Mo  Mo21  1  0.80831100  0.31843700  0.35670500  1
  Mo  Mo22  1  0.17718400  0.52932300  0.96196400  1
  Mo  Mo23  1  0.64786100  0.17718400  0.03803600  1
  Mo  Mo24  1  0.48987400  0.80831100  0.85670500  1
  Mo  Mo25  1  0.35213900  0.82281600  0.96196400  1
  Mo  Mo26  1  0.17870700  0.52923800  0.75000000  1
  Mo  Mo27  1  0.82281600  0.47067700  0.46196400  1
  Mo  Mo28  1  0.19168900  0.68156300  0.64329500  1
  Mo  Mo29  1  0.31843700  0.51012600  0.85670500  1
loop_
_geom_bond_atom_site_label_1
_geom_bond_atom_site_label_2
_geom_bond_distance
_geom_bond_site_symmetry_2
Cs0 Te30 3.875119 1_555
Cs0 Te32 3.875123 1_445
Cs0 Te17 3.875129 1_545
Cs0 Te11 3.948320 1_555
Cs0 Te3 3.948320 1_445
Cs0 Te21 3.948320 1_545
Cs0 Te29 4.091023 1_555
Cs0 Te18 4.091024 1_445
Cs0 Te5 4.091024 1_545
Cs1 Te23 3.889313 1_565
Cs1 Te12 3.889317 1_455
Cs1 Te14 3.889323 1_555
Cs1 Te25 4.023497 1_555
Cs1 Te22 4.023497 1_555
Cs1 Te7 4.090362 1_565
Cs1 Te27 4.090362 1_565
Cs1 Te16 4.090362 1_455
Cs1 Te1 4.090362 1_455
Cs1 Te8 4.090363 1_555
Cs1 Te2 4.090363 1_555
Cs2 Te9 3.875119 1_555
Cs2 Te0 3.875123 1_445
Cs2 Te13 3.875129 1_545
Cs2 Te4 3.948320 1_555
Cs2 Te28 3.948320 1_445
Cs2 Te10 3.948320 1_545
Cs2 Te29 4.091023 1_555
Cs2 Te18 4.091024 1_445
Cs2 Te5 4.091024 1_545
Cs3 Te1 3.875119 1_445
Cs3 Te2 3.875123 1_555
Cs3 Te27 3.875129 1_455
Cs3 Te33 3.948320 1_445
Cs3 Te15 3.948320 1_555
Cs3 Te19 3.948320 1_455
Cs3 Te14 4.091023 1_445
Cs3 Te23 4.091024 1_555
Cs3 Te12 4.091024 1_455
Cs4 Te18 3.889313 1_545
Cs4 Te5 3.889317 1_655
Cs4 Te29 3.889323 1_555
Cs4 Te6 4.023497 1_555
Cs4 Te26 4.023497 1_555
Cs4 Te13 4.090362 1_545
Cs4 Te17 4.090362 1_545
Cs4 Te30 4.090362 1_655
Cs4 Te9 4.090362 1_655
Cs4 Te32 4.090363 1_555
Cs4 Te0 4.090363 1_555
Cs5 Te16 3.875119 1_445
Cs5 Te8 3.875123 1_555
Cs5 Te7 3.875129 1_455
Cs5 Te31 3.948320 1_445
Cs5 Te20 3.948320 1_555
Cs5 Te24 3.948320 1_455
Cs5 Te14 4.091023 1_445
Cs5 Te23 4.091024 1_555
Cs5 Te12 4.091024 1_455
Mo0 Mo1 2.702705 1_555
Mo0 Mo28 2.702706 1_555
Mo0 Mo19 2.755498 1_555
Mo0 Te0 2.785472 1_555
Mo0 Te4 2.785909 1_555
Mo0 Mo11 2.786122 1_555
Mo0 Mo9 2.791823 1_555
Mo0 Mo26 2.808784 1_555
Mo0 Te9 2.817179 1_555
Mo0 Te29 2.893755 1_555
Mo1 Mo28 2.702705 1_555
Mo1 Mo7 2.755498 1_555
Mo1 Te13 2.785463 1_555
Mo1 Te28 2.785909 1_555
Mo1 Mo2 2.786125 1_555
Mo1 Mo19 2.791823 1_555
Mo1 Mo11 2.808778 1_555
Mo1 Te0 2.817188 1_555
Mo1 Te18 2.893755 1_555
Mo2 Mo26 2.650970 1_555
Mo2 Mo24 2.786125 1_555
Mo2 Mo5 2.808781 1_555
Mo2 Mo28 2.808781 1_555
Mo2 Te5 2.828621 1_555
Mo2 Te18 2.845477 1_555
Mo2 Te13 2.893573 1_555
Mo2 Te17 2.893573 1_555
Mo3 Mo4 2.650970 1_555
Mo3 Mo6 2.786125 1_555
Mo3 Te12 2.828621 1_555
Mo3 Te23 2.845477 1_555
Mo3 Te27 2.893573 1_555
Mo3 Te7 2.893573 1_555
Mo4 Mo8 2.786122 1_555
Mo4 Mo6 2.808778 1_555
Mo4 Te23 2.828623 1_555
Mo4 Te14 2.845477 1_555
Mo4 Te2 2.893585 1_555
Mo4 Te8 2.893585 1_555
Mo5 Te30 2.785471 1_555
Mo5 Te21 2.785909 1_555
Mo5 Te17 2.817179 1_555
Mo5 Te5 2.893755 1_555
Mo6 Mo8 2.702705 1_555
Mo6 Te27 2.785463 1_555
Mo6 Te15 2.785909 1_555
Mo6 Te2 2.817188 1_555
Mo6 Te23 2.893755 1_555
Mo7 Mo9 2.666547 1_555
Mo7 Te25 2.743138 1_555
Mo7 Te28 2.813043 1_555
Mo7 Te13 2.851055 1_555
Mo7 Te10 2.855363 1_555
Mo7 Te20 2.924352 1_565
Mo8 Te2 2.785472 1_555
Mo8 Te33 2.785909 1_555
Mo8 Te1 2.817179 1_555
Mo8 Te14 2.893755 1_555
Mo9 Te25 2.743140 1_555
Mo9 Te10 2.813043 1_555
Mo9 Te9 2.851058 1_555
Mo9 Te4 2.855363 1_555
Mo9 Te24 2.924352 1_455
Mo10 Mo16 2.666547 1_555
Mo10 Mo23 2.666547 1_555
Mo10 Te26 2.743144 1_554
Mo10 Mo8 2.755498 1_555
Mo10 Mo6 2.791823 1_555
Mo10 Te33 2.813043 1_555
Mo10 Te2 2.851062 1_555
Mo10 Te15 2.855363 1_555
Mo10 Te11 2.924352 1_554
Mo11 Mo26 2.650970 1_555
Mo11 Mo2 2.650970 1_555
Mo11 Mo29 2.786122 1_555
Mo11 Mo24 2.808778 1_555
Mo11 Te18 2.828623 1_555
Mo11 Te29 2.845477 1_555
Mo11 Te32 2.893585 1_555
Mo11 Te0 2.893585 1_555
Mo12 Mo22 2.666547 1_555
Mo12 Mo25 2.666547 1_555
Mo12 Te22 2.743144 1_556
Mo12 Mo29 2.755498 1_555
Mo12 Mo24 2.791823 1_555
Mo12 Te11 2.813043 1_555
Mo12 Te32 2.851062 1_555
Mo12 Te3 2.855363 1_555
Mo12 Te33 2.924352 1_556
Mo13 Mo27 2.666547 1_555
Mo13 Mo14 2.666547 1_555
Mo13 Te6 2.743144 1_555
Mo13 Mo18 2.755498 1_555
Mo13 Mo20 2.791823 1_555
Mo13 Te31 2.813043 1_555
Mo13 Te8 2.851062 1_555
Mo13 Te20 2.855363 1_555
Mo13 Te4 2.924352 1_555
Mo14 Mo27 2.666547 1_555
Mo14 Te6 2.743138 1_555
Mo14 Mo20 2.755498 1_555
Mo14 Mo21 2.791823 1_555
Mo14 Te20 2.813043 1_555
Mo14 Te7 2.851055 1_555
Mo14 Te24 2.855363 1_555
Mo14 Te28 2.924352 1_545
Mo15 Mo6 2.702705 1_555
Mo15 Mo8 2.702706 1_555
Mo15 Mo16 2.755498 1_555
Mo15 Te1 2.785471 1_555
Mo15 Te19 2.785909 1_555
Mo15 Mo17 2.786120 1_555
Mo15 Mo23 2.791823 1_555
Mo15 Mo3 2.808781 1_555
Mo15 Te27 2.817179 1_555
Mo15 Te12 2.893755 1_555
Mo16 Mo23 2.666547 1_555
Mo16 Te26 2.743140 1_554
Mo16 Mo8 2.791823 1_555
Mo16 Te19 2.813043 1_555
Mo16 Te1 2.851058 1_555
Mo16 Te33 2.855363 1_555
Mo16 Te21 2.924352 1_654
Mo17 Mo3 2.650970 1_555
Mo17 Mo4 2.650970 1_555
Mo17 Mo21 2.786120 1_555
Mo17 Mo8 2.808784 1_555
Mo17 Mo18 2.808784 1_555
Mo17 Te14 2.828631 1_555
Mo17 Te12 2.845468 1_555
Mo17 Te1 2.893578 1_555
Mo17 Te16 2.893578 1_555
Mo18 Mo20 2.702705 1_555
Mo18 Mo21 2.702706 1_555
Mo18 Te8 2.785472 1_555
Mo18 Te31 2.785909 1_555
Mo18 Mo4 2.786122 1_555
Mo18 Mo27 2.791823 1_555
Mo18 Te16 2.817179 1_555
Mo18 Te14 2.893755 1_555
Mo19 Mo9 2.666547 1_555
Mo19 Mo7 2.666547 1_555
Mo19 Te25 2.743144 1_555
Mo19 Te4 2.813043 1_555
Mo19 Te0 2.851062 1_555
Mo19 Te28 2.855363 1_555
Mo19 Te31 2.924352 1_555
Mo20 Mo21 2.702705 1_555
Mo20 Te7 2.785463 1_555
Mo20 Te20 2.785909 1_555
Mo20 Mo3 2.786125 1_555
Mo20 Mo4 2.808778 1_555
Mo20 Te8 2.817188 1_555
Mo20 Te23 2.893755 1_555
Mo21 Mo27 2.755498 1_555
Mo21 Te16 2.785471 1_555
Mo21 Te24 2.785909 1_555
Mo21 Mo3 2.808781 1_555
Mo21 Te7 2.817179 1_555
Mo21 Te12 2.893755 1_555
Mo22 Mo25 2.666547 1_555
Mo22 Te22 2.743140 1_556
Mo22 Mo5 2.755498 1_555
Mo22 Mo29 2.791823 1_555
Mo22 Te21 2.813043 1_555
Mo22 Te30 2.851058 1_555
Mo22 Te11 2.855363 1_555
Mo22 Te19 2.924352 1_456
Mo23 Te26 2.743138 1_554
Mo23 Mo6 2.755498 1_555
Mo23 Te15 2.813043 1_555
Mo23 Te27 2.851055 1_555
Mo23 Te19 2.855363 1_555
Mo23 Te3 2.924352 1_544
Mo24 Mo29 2.702705 1_555
Mo24 Mo5 2.702705 1_555
Mo24 Mo25 2.755498 1_555
Mo24 Te17 2.785463 1_555
Mo24 Te3 2.785909 1_555
Mo24 Te32 2.817188 1_555
Mo24 Te18 2.893755 1_555
Mo25 Te22 2.743138 1_556
Mo25 Mo5 2.791823 1_555
Mo25 Te3 2.813043 1_555
Mo25 Te17 2.851055 1_555
Mo25 Te21 2.855363 1_555
Mo25 Te15 2.924352 1_566
Mo26 Mo28 2.786120 1_555
Mo26 Mo5 2.786120 1_555
Mo26 Mo29 2.808784 1_555
Mo26 Te29 2.828631 1_555
Mo26 Te5 2.845468 1_555
Mo26 Te9 2.893578 1_555
Mo26 Te30 2.893578 1_555
Mo27 Te6 2.743140 1_555
Mo27 Te24 2.813043 1_555
Mo27 Te16 2.851058 1_555
Mo27 Te31 2.855363 1_555
Mo27 Te10 2.924352 1_655
Mo28 Mo9 2.755498 1_555
Mo28 Te9 2.785471 1_555
Mo28 Te10 2.785909 1_555
Mo28 Mo7 2.791823 1_555
Mo28 Te13 2.817179 1_555
Mo28 Te5 2.893755 1_555
Mo29 Mo5 2.702706 1_555
Mo29 Te32 2.785472 1_555
Mo29 Te11 2.785909 1_555
Mo29 Te30 2.817179 1_555
Mo29 Te29 2.893755 1_555
