# generated using pymatgen
data_La3(SiPd)4
_symmetry_space_group_name_H-M   'P 1'
_cell_length_a   12.76334818
_cell_length_b   12.76334818
_cell_length_c   12.76334818
_cell_angle_alpha   160.86389690
_cell_angle_beta   160.58027655
_cell_angle_gamma   27.39559072
_symmetry_Int_Tables_number   1
_chemical_formula_structural   La3(SiPd)4
_chemical_formula_sum   'La3 Si4 Pd4'
_cell_volume   226.52323646
_cell_formula_units_Z   1
loop_
 _symmetry_equiv_pos_site_id
 _symmetry_equiv_pos_as_xyz
  1  'x, y, z'
loop_
 _atom_site_type_symbol
 _atom_site_label
 _atom_site_symmetry_multiplicity
 _atom_site_fract_x
 _atom_site_fract_y
 _atom_site_fract_z
 _atom_site_occupancy
  La  La0  1  0.64837900  0.64837900  0.00000000  1
  La  La1  1  0.35162100  0.35162100  0.00000000  1
  La  La2  1  0.00000000  0.50000000  0.50000000  1
  Si  Si0  1  0.19887500  0.19887500  0.00000000  1
  Si  Si1  1  0.54911800  0.04911800  0.50000000  1
  Si  Si2  1  0.45088200  0.95088200  0.50000000  1
  Si  Si3  1  0.80112500  0.80112500  0.00000000  1
  Pd  Pd0  1  0.75249100  0.25249100  0.50000000  1
  Pd  Pd1  1  0.90299700  0.90299700  0.00000000  1
  Pd  Pd2  1  0.09700300  0.09700300  0.00000000  1
  Pd  Pd3  1  0.24750900  0.74750900  0.50000000  1
loop_
_geom_bond_atom_site_label_1
_geom_bond_atom_site_label_2
_geom_bond_distance
_geom_bond_site_symmetry_2
La0 Si1 3.249764 1_565
La0 Si1 3.249764 1_554
La0 Pd3 3.267736 1_655
La0 Pd3 3.267736 1_554
La0 Si0 3.271554 1_565
La0 Si0 3.271554 1_666
La0 Si0 3.271554 1_655
La0 Si0 3.271554 1_554
La0 Pd2 3.279970 1_666
La0 Pd2 3.279970 1_565
La0 Pd2 3.279970 1_655
La0 Pd2 3.279970 1_554
La0 Pd0 3.341822 1_565
La0 Pd0 3.341822 1_554
La1 Si2 3.249764 1_555
La1 Si2 3.249764 1_544
La1 Pd0 3.267736 1_454
La1 Pd0 3.267736 1_555
La1 Si3 3.271554 1_556
La1 Si3 3.271554 1_545
La1 Si3 3.271554 1_455
La1 Si3 3.271554 1_444
La1 Pd1 3.279970 1_455
La1 Pd1 3.279970 1_444
La1 Pd1 3.279970 1_556
La1 Pd1 3.279970 1_545
La1 Pd3 3.341822 1_544
La1 Pd3 3.341822 1_555
La2 Pd1 3.207552 1_456
La2 Pd1 3.207552 1_445
La2 Pd2 3.207552 1_566
La2 Pd2 3.207552 1_555
La2 Si1 3.258625 1_555
La2 Si1 3.258625 1_566
La2 Si2 3.258625 1_455
La2 Si2 3.258625 1_545
La2 Si2 3.258625 1_444
La2 Si2 3.258625 1_556
La2 Si1 3.258625 1_454
La2 Si1 3.258625 1_465
Si1 Si2 2.436319 1_545
Pd0 Si3 2.440413 1_545
Pd0 Si3 2.440413 1_556
Pd0 Si0 2.530228 1_555
Pd0 Si0 2.530228 1_656
Pd1 Si2 2.458509 1_655
Pd1 Si2 2.458509 1_554
Pd1 Si3 2.526494 1_555
Pd2 Si1 2.458509 1_555
Pd2 Si1 2.458509 1_454
Pd2 Si0 2.526494 1_555
Pd3 Si0 2.440413 1_555
Pd3 Si0 2.440413 1_566
Pd3 Si3 2.530228 1_455
Pd3 Si3 2.530228 1_556
