# generated using pymatgen
data_Cu2BH5O6
_symmetry_space_group_name_H-M   'P 1'
_cell_length_a   5.92000000
_cell_length_b   8.83074500
_cell_length_c   9.50155600
_cell_angle_alpha   90.00000000
_cell_angle_beta   90.00000000
_cell_angle_gamma   90.00000000
_symmetry_Int_Tables_number   1
_chemical_formula_structural   Cu2BH5O6
_chemical_formula_sum   'Cu8 B4 H20 O24'
_cell_volume   496.72244338
_cell_formula_units_Z   4
loop_
 _symmetry_equiv_pos_site_id
 _symmetry_equiv_pos_as_xyz
  1  'x, y, z'
loop_
 _atom_site_type_symbol
 _atom_site_label
 _atom_site_symmetry_multiplicity
 _atom_site_fract_x
 _atom_site_fract_y
 _atom_site_fract_z
 _atom_site_occupancy
  Cu  Cu0  1  0.99899400  0.42330400  0.24865500  1
  Cu  Cu1  1  0.00100600  0.92330400  0.25134500  1
  Cu  Cu2  1  0.49899400  0.57669600  0.75134500  1
  Cu  Cu3  1  0.50100600  0.07669600  0.74865500  1
  Cu  Cu4  1  0.49899400  0.92330400  0.25134500  1
  Cu  Cu5  1  0.50100600  0.42330400  0.24865500  1
  Cu  Cu6  1  0.99899400  0.07669600  0.74865500  1
  Cu  Cu7  1  0.00100600  0.57669600  0.75134500  1
  B  B0  1  0.25000000  0.16945700  0.00706800  1
  B  B1  1  0.75000000  0.83054300  0.99293200  1
  B  B2  1  0.25000000  0.33054300  0.50706800  1
  B  B3  1  0.75000000  0.66945700  0.49293200  1
  H  H0  1  0.92285900  0.17255100  0.01385800  1
  H  H1  1  0.75000000  0.01151100  0.45068400  1
  H  H2  1  0.42285900  0.67255100  0.48614200  1
  H  H3  1  0.42285900  0.82744900  0.98614200  1
  H  H4  1  0.75000000  0.21603300  0.34344200  1
  H  H5  1  0.75000000  0.28396700  0.84344200  1
  H  H6  1  0.57714100  0.17255100  0.01385800  1
  H  H7  1  0.25000000  0.38416300  0.84839900  1
  H  H8  1  0.25000000  0.11583700  0.34839900  1
  H  H9  1  0.75000000  0.48848900  0.95068400  1
  H  H10  1  0.25000000  0.71603300  0.15655800  1
  H  H11  1  0.75000000  0.88416300  0.65160100  1
  H  H12  1  0.57714100  0.32744900  0.51385800  1
  H  H13  1  0.25000000  0.98848900  0.54931600  1
  H  H14  1  0.92285900  0.32744900  0.51385800  1
  H  H15  1  0.25000000  0.78396700  0.65655800  1
  H  H16  1  0.07714100  0.82744900  0.98614200  1
  H  H17  1  0.75000000  0.61583700  0.15160100  1
  H  H18  1  0.25000000  0.51151100  0.04931600  1
  H  H19  1  0.07714100  0.67255100  0.48614200  1
  O  O0  1  0.25000000  0.52826000  0.15353800  1
  O  O1  1  0.25000000  0.33860000  0.36267600  1
  O  O2  1  0.75000000  0.17080300  0.86204300  1
  O  O3  1  0.25000000  0.00556300  0.36557800  1
  O  O4  1  0.05007500  0.17617800  0.08246500  1
  O  O5  1  0.75000000  0.50556300  0.13442200  1
  O  O6  1  0.25000000  0.16140000  0.86267600  1
  O  O7  1  0.94992500  0.67617800  0.41753500  1
  O  O8  1  0.05007500  0.32382200  0.58246500  1
  O  O9  1  0.55007500  0.67617800  0.41753500  1
  O  O10  1  0.75000000  0.47174000  0.84646200  1
  O  O11  1  0.44992500  0.17617800  0.08246500  1
  O  O12  1  0.94992500  0.82382200  0.91753500  1
  O  O13  1  0.25000000  0.67080300  0.63795700  1
  O  O14  1  0.75000000  0.99443700  0.63442200  1
  O  O15  1  0.25000000  0.82919700  0.13795700  1
  O  O16  1  0.75000000  0.83860000  0.13732400  1
  O  O17  1  0.44992500  0.32382200  0.58246500  1
  O  O18  1  0.25000000  0.97174000  0.65353800  1
  O  O19  1  0.75000000  0.02826000  0.34646200  1
  O  O20  1  0.25000000  0.49443700  0.86557800  1
  O  O21  1  0.75000000  0.32919700  0.36204300  1
  O  O22  1  0.55007500  0.82382200  0.91753500  1
  O  O23  1  0.75000000  0.66140000  0.63732400  1
loop_
_geom_bond_atom_site_label_1
_geom_bond_atom_site_label_2
_geom_bond_distance
_geom_bond_site_symmetry_2
Cu0 O5 1.969404 1_555
Cu0 O0 1.970755 1_655
Cu0 O1 1.985264 1_655
Cu0 O21 2.006025 1_555
Cu1 O3 1.969404 1_565
Cu1 O19 1.970755 1_465
Cu1 O16 1.985264 1_455
Cu1 O15 2.006025 1_555
Cu2 O20 1.969404 1_555
Cu2 O10 1.970755 1_555
Cu2 O23 1.985264 1_555
Cu2 O13 2.006025 1_555
Cu3 O14 1.969404 1_545
Cu3 O18 1.970755 1_545
Cu3 O6 1.985264 1_555
Cu3 O2 2.006025 1_555
Cu4 O3 1.969404 1_565
Cu4 O19 1.970755 1_565
Cu4 O16 1.985264 1_555
Cu4 O15 2.006025 1_555
Cu5 O5 1.969404 1_555
Cu5 O0 1.970755 1_555
Cu5 O1 1.985264 1_555
Cu5 O21 2.006025 1_555
Cu6 O14 1.969404 1_545
Cu6 O18 1.970755 1_645
Cu6 O6 1.985264 1_655
Cu6 O2 2.006025 1_555
Cu7 O20 1.969404 1_555
Cu7 O10 1.970755 1_455
Cu7 O23 1.985264 1_455
Cu7 O13 2.006025 1_555
B0 O6 1.373792 1_554
B0 O4 1.384753 1_555
B0 O11 1.384753 1_555
B1 O16 1.373792 1_556
B1 O22 1.384753 1_555
B1 O12 1.384753 1_555
B2 O1 1.373792 1_555
B2 O17 1.384753 1_555
B2 O8 1.384753 1_555
B3 O23 1.373792 1_555
B3 O9 1.384753 1_555
B3 O7 1.384753 1_555
H0 O4 0.996570 1_655
H1 O19 1.001256 1_555
H2 O9 0.996570 1_555
H3 O22 0.996570 1_555
H4 O21 1.014831 1_555
H5 O2 1.014831 1_555
H6 O11 0.996570 1_555
H7 O20 0.987387 1_555
H8 O3 0.987387 1_555
H9 O10 1.001256 1_555
H10 O15 1.014831 1_555
H11 O14 0.987387 1_555
H12 O17 0.996570 1_555
H13 O18 1.001256 1_555
H14 O8 0.996570 1_655
H15 O13 1.014831 1_555
H16 O12 0.996570 1_455
H17 O5 0.987387 1_555
H18 O0 1.001256 1_555
H19 O7 0.996570 1_455
