# generated using pymatgen
data_DyNbO4
_symmetry_space_group_name_H-M   'P 1'
_cell_length_a   5.11169937
_cell_length_b   5.30334305
_cell_length_c   6.54412127
_cell_angle_alpha   112.14866644
_cell_angle_beta   111.19645324
_cell_angle_gamma   94.12820942
_symmetry_Int_Tables_number   1
_chemical_formula_structural   DyNbO4
_chemical_formula_sum   'Dy2 Nb2 O8'
_cell_volume   148.67397767
_cell_formula_units_Z   2
loop_
 _symmetry_equiv_pos_site_id
 _symmetry_equiv_pos_as_xyz
  1  'x, y, z'
loop_
 _atom_site_type_symbol
 _atom_site_label
 _atom_site_symmetry_multiplicity
 _atom_site_fract_x
 _atom_site_fract_y
 _atom_site_fract_z
 _atom_site_occupancy
  Dy  Dy0  1  0.12142452  0.87145551  0.24288642  1
  Dy  Dy1  1  0.87857548  0.12854449  0.75711358  1
  Nb  Nb0  1  0.64212659  0.39217169  0.28429494  1
  Nb  Nb1  1  0.35787341  0.60782831  0.71570506  1
  O  O0  1  0.49039810  0.28345393  0.56362208  1
  O  O1  1  0.21141873  0.54914046  0.92326726  1
  O  O2  1  0.71181612  0.87407985  0.92319579  1
  O  O3  1  0.07327915  0.78010979  0.56362458  1
  O  O4  1  0.92672085  0.21989021  0.43637542  1
  O  O5  1  0.78858127  0.45085954  0.07673274  1
  O  O6  1  0.50960190  0.71654607  0.43637792  1
  O  O7  1  0.28818388  0.12592015  0.07680421  1
loop_
_geom_bond_atom_site_label_1
_geom_bond_atom_site_label_2
_geom_bond_distance
_geom_bond_site_symmetry_2
Dy0 O7 2.310707 1_565
Dy0 O5 2.310734 1_455
Dy0 O6 2.327594 1_555
Dy0 O4 2.328157 1_465
Dy0 O2 2.370560 1_454
Dy0 O1 2.370978 1_554
Dy0 O0 2.413057 1_565
Dy0 O3 2.413278 1_555
Dy1 O2 2.310707 1_545
Dy1 O1 2.310734 1_655
Dy1 O0 2.327594 1_555
Dy1 O3 2.328157 1_645
Dy1 O7 2.370560 1_656
Dy1 O5 2.370978 1_556
Dy1 O6 2.413057 1_545
Dy1 O4 2.413278 1_555
Nb0 O7 1.876410 1_555
Nb0 O5 1.876938 1_555
Nb0 O4 1.942072 1_555
Nb0 O6 1.942452 1_555
Nb0 O3 2.455536 1_655
Nb0 O0 2.455789 1_555
Nb1 O2 1.876410 1_555
Nb1 O1 1.876938 1_555
Nb1 O3 1.942072 1_555
Nb1 O0 1.942452 1_555
Nb1 O4 2.455536 1_455
Nb1 O6 2.455789 1_555
