# generated using pymatgen
data_ReO3F
_symmetry_space_group_name_H-M   'P 1'
_cell_length_a   6.08501428
_cell_length_b   6.80965673
_cell_length_c   10.47486922
_cell_angle_alpha   89.74707039
_cell_angle_beta   90.00000000
_cell_angle_gamma   90.00000000
_symmetry_Int_Tables_number   1
_chemical_formula_structural   ReO3F
_chemical_formula_sum   'Re6 O18 F6'
_cell_volume   434.04144385
_cell_formula_units_Z   6
loop_
 _symmetry_equiv_pos_site_id
 _symmetry_equiv_pos_as_xyz
  1  'x, y, z'
loop_
 _atom_site_type_symbol
 _atom_site_label
 _atom_site_symmetry_multiplicity
 _atom_site_fract_x
 _atom_site_fract_y
 _atom_site_fract_z
 _atom_site_occupancy
  Re  Re0  1  0.04802253  -0.00000000  0.25000000  1
  Re  Re1  1  0.28386525  0.33449870  0.63825583  1
  Re  Re2  1  0.95197747  -0.00000000  0.75000000  1
  Re  Re3  1  0.71613475  0.33449870  0.13825583  1
  Re  Re4  1  0.71613475  0.66550130  0.36174417  1
  Re  Re5  1  0.28386525  0.66550130  0.86174417  1
  O  O0  1  0.21914462  0.85319981  0.16560584  1
  O  O1  1  0.75677670  0.51649628  0.48971546  1
  O  O2  1  0.78085538  0.14680019  0.83439416  1
  O  O3  1  0.96226866  0.83311633  0.38723612  1
  O  O4  1  0.49640209  0.18892771  0.59416929  1
  O  O5  1  0.21914462  0.14680019  0.33439416  1
  O  O6  1  0.55485391  0.50000000  0.25000000  1
  O  O7  1  0.03773134  0.16688367  0.61276388  1
  O  O8  1  0.24322330  0.48350372  0.51028454  1
  O  O9  1  0.49640209  0.81107229  0.90583071  1
  O  O10  1  0.96226866  0.16688367  0.11276388  1
  O  O11  1  0.50359791  0.81107229  0.40583071  1
  O  O12  1  0.44514609  0.50000000  0.75000000  1
  O  O13  1  0.75677670  0.48350372  0.01028454  1
  O  O14  1  0.78085538  0.85319981  0.66560584  1
  O  O15  1  0.03773134  0.83311633  0.88723612  1
  O  O16  1  0.24322330  0.51649628  0.98971546  1
  O  O17  1  0.50359791  0.18892771  0.09416929  1
  F  F0  1  0.94919327  0.50000000  0.25000000  1
  F  F1  1  0.05080673  0.50000000  0.75000000  1
  F  F2  1  0.76536130  0.16629512  0.31125173  1
  F  F3  1  0.23463870  0.83370488  0.68874827  1
  F  F4  1  0.76536130  0.83370488  0.18874827  1
  F  F5  1  0.23463870  0.16629512  0.81125173  1
loop_
_geom_bond_atom_site_label_1
_geom_bond_atom_site_label_2
_geom_bond_distance
_geom_bond_site_symmetry_2
O0 Re0 1.694955 1_565
O1 Re4 1.695761 1_555
O2 Re2 1.694955 1_555
O3 Re0 1.901529 1_665
O3 Re4 1.902624 1_555
O4 Re1 1.694861 1_555
O5 Re0 1.694955 1_555
O6 Re4 1.901319 1_555
O6 Re3 1.901319 1_555
O7 Re2 1.901529 1_455
O7 Re1 1.902624 1_555
O8 Re1 1.695761 1_555
O9 Re5 1.694861 1_555
O10 Re0 1.901529 1_655
O10 Re3 1.902624 1_555
O11 Re4 1.694861 1_555
O12 Re5 1.901319 1_555
O12 Re1 1.901319 1_555
O13 Re3 1.695761 1_555
O14 Re2 1.694955 1_565
O15 Re2 1.901529 1_465
O15 Re5 1.902624 1_555
O16 Re5 1.695761 1_555
O17 Re3 1.694861 1_555
F0 Re4 2.159413 1_555
F0 Re3 2.159413 1_555
F1 Re5 2.159413 1_555
F1 Re1 2.159413 1_555
F2 Re0 2.158430 1_655
F2 Re3 2.160348 1_555
F3 Re2 2.158430 1_465
F3 Re5 2.160348 1_555
F4 Re0 2.158430 1_665
F4 Re4 2.160348 1_555
F5 Re2 2.158430 1_455
F5 Re1 2.160348 1_555
