# generated using pymatgen
data_RbTl(SO4)2
_symmetry_space_group_name_H-M   'P 1'
_cell_length_a   9.06045751
_cell_length_b   9.06045751
_cell_length_c   9.06045747
_cell_angle_alpha   31.35261361
_cell_angle_beta   31.35261361
_cell_angle_gamma   31.35260995
_symmetry_Int_Tables_number   1
_chemical_formula_structural   RbTl(SO4)2
_chemical_formula_sum   'Rb1 Tl1 S2 O8'
_cell_volume   178.72276016
_cell_formula_units_Z   1
loop_
 _symmetry_equiv_pos_site_id
 _symmetry_equiv_pos_as_xyz
  1  'x, y, z'
loop_
 _atom_site_type_symbol
 _atom_site_label
 _atom_site_symmetry_multiplicity
 _atom_site_fract_x
 _atom_site_fract_y
 _atom_site_fract_z
 _atom_site_occupancy
  Rb  Rb0  1  0.00000000  0.00000000  0.00000000  1
  Tl  Tl0  1  0.50000000  0.50000000  0.50000000  1
  S  S0  1  0.75855450  0.75855450  0.75855450  1
  S  S1  1  0.24144550  0.24144550  0.24144550  1
  O  O0  1  0.70256724  0.70256724  0.70256724  1
  O  O1  1  0.29743276  0.29743276  0.29743276  1
  O  O2  1  0.22646204  0.93340017  0.50554405  1
  O  O3  1  0.49445595  0.06659983  0.77353796  1
  O  O4  1  0.77353796  0.49445595  0.06659983  1
  O  O5  1  0.93340017  0.50554405  0.22646204  1
  O  O6  1  0.50554405  0.22646204  0.93340017  1
  O  O7  1  0.06659983  0.77353796  0.49445595  1
loop_
_geom_bond_atom_site_label_1
_geom_bond_atom_site_label_2
_geom_bond_distance
_geom_bond_site_symmetry_2
O0 S0 1.445844 1_555
O0 Rb0 2.975035 1_656
O0 Rb0 2.975035 1_566
O0 Rb0 2.975036 1_665
O1 S1 1.445844 1_555
O1 Rb0 2.975035 1_655
O1 Rb0 2.975035 1_565
O1 Rb0 2.975036 1_556
O2 S1 1.489859 1_565
O2 Tl0 2.250969 1_555
O2 Rb0 3.383345 1_566
O3 S0 1.489859 1_545
O3 Tl0 2.250969 1_555
O3 Rb0 3.383345 1_556
O4 S0 1.489859 1_554
O4 Tl0 2.250969 1_555
O4 Rb0 3.383345 1_655
O5 S1 1.489859 1_655
O5 Tl0 2.250969 1_555
O5 Rb0 3.383345 1_665
O6 S1 1.489859 1_556
O6 Tl0 2.250969 1_555
O6 Rb0 3.383345 1_656
O7 S0 1.489859 1_455
O7 Tl0 2.250969 1_555
O7 Rb0 3.383345 1_565
