# generated using pymatgen
data_HfAl3
_symmetry_space_group_name_H-M   'P 1'
_cell_length_a   3.97020231
_cell_length_b   3.97020211
_cell_length_c   8.99165194
_cell_angle_alpha   102.73895705
_cell_angle_beta   102.73895515
_cell_angle_gamma   90.02100013
_symmetry_Int_Tables_number   1
_chemical_formula_structural   HfAl3
_chemical_formula_sum   'Hf2 Al6'
_cell_volume   134.66048276
_cell_formula_units_Z   2
loop_
 _symmetry_equiv_pos_site_id
 _symmetry_equiv_pos_as_xyz
  1  'x, y, z'
loop_
 _atom_site_type_symbol
 _atom_site_label
 _atom_site_symmetry_multiplicity
 _atom_site_fract_x
 _atom_site_fract_y
 _atom_site_fract_z
 _atom_site_occupancy
  Hf  Hf0  1  0.11943371  0.11943370  0.23893839  1
  Hf  Hf1  1  0.88056628  0.88056627  0.76106161  1
  Al  Al0  1  0.37514248  0.37514247  0.75029432  1
  Al  Al1  1  0.00000000  0.50000001  0.00000002  1
  Al  Al2  1  0.62485754  0.62485754  0.24970568  1
  Al  Al3  1  0.25000910  0.74999088  0.49999998  1
  Al  Al4  1  0.74999087  0.25000911  0.49999998  1
  Al  Al5  1  0.50000001  0.00000001  0.00000002  1
loop_
_geom_bond_atom_site_label_1
_geom_bond_atom_site_label_2
_geom_bond_distance
_geom_bond_site_symmetry_2
Al0 Hf1 2.808099 1_445
Al0 Hf1 2.808599 1_555
Al0 Hf1 2.809378 1_455
Al0 Hf1 2.809378 1_545
Al0 Al5 2.913714 1_556
Al0 Al1 2.913714 1_556
Al0 Al5 2.914293 1_566
Al0 Al1 2.914293 1_656
Al0 Al4 2.917398 1_555
Al0 Al3 2.917398 1_555
Al0 Al3 2.917976 1_545
Al0 Al4 2.917977 1_455
Al1 Al5 2.806842 1_455
Al1 Al5 2.806842 1_565
Al1 Al5 2.807871 1_465
Al1 Al5 2.807871 1_555
Al1 Hf0 2.847179 1_555
Al1 Hf1 2.847180 1_454
Al1 Hf0 2.847526 1_565
Al1 Hf1 2.847526 1_444
Al1 Al2 2.913713 1_455
Al1 Al2 2.914293 1_555
Al2 Hf0 2.808099 1_665
Al2 Hf0 2.808600 1_555
Al2 Hf0 2.809378 1_565
Al2 Hf0 2.809378 1_655
Al2 Al5 2.913713 1_565
Al2 Al5 2.914293 1_555
Al2 Al4 2.917397 1_555
Al2 Al3 2.917397 1_555
Al2 Al4 2.917976 1_565
Al2 Al3 2.917976 1_655
Al3 Al4 2.806842 1_565
Al3 Al4 2.806842 1_455
Al3 Al4 2.807769 1_555
Al3 Al4 2.807974 1_465
Al3 Hf0 2.985404 1_565
Al3 Hf1 2.985404 1_455
Al3 Hf0 2.986109 1_555
Al3 Hf1 2.986109 1_555
Al4 Hf0 2.985404 1_655
Al4 Hf1 2.985404 1_545
Al4 Hf0 2.986109 1_555
Al4 Hf1 2.986109 1_555
Al5 Hf0 2.847179 1_555
Al5 Hf1 2.847180 1_544
Al5 Hf0 2.847526 1_655
Al5 Hf1 2.847526 1_444
