# generated using pymatgen
data_FeAsS
_symmetry_space_group_name_H-M   'P 1'
_cell_length_a   5.63888855
_cell_length_b   5.69274417
_cell_length_c   5.71179883
_cell_angle_alpha   111.66926788
_cell_angle_beta   89.99915269
_cell_angle_gamma   90.00154604
_symmetry_Int_Tables_number   1
_chemical_formula_structural   FeAsS
_chemical_formula_sum   'Fe4 As4 S4'
_cell_volume   170.39560715
_cell_formula_units_Z   4
loop_
 _symmetry_equiv_pos_site_id
 _symmetry_equiv_pos_as_xyz
  1  'x, y, z'
loop_
 _atom_site_type_symbol
 _atom_site_label
 _atom_site_symmetry_multiplicity
 _atom_site_fract_x
 _atom_site_fract_y
 _atom_site_fract_z
 _atom_site_occupancy
  Fe  Fe0  1  0.49116796  0.71287967  0.20349643  1
  Fe  Fe1  1  0.50883204  0.28712033  0.79650357  1
  Fe  Fe2  1  0.99116396  0.28712518  0.29650928  1
  Fe  Fe3  1  0.00883604  0.71287482  0.70349072  1
  As  As0  1  0.36905739  0.14704908  0.37203813  1
  As  As1  1  0.86906529  0.85296177  0.12796311  1
  As  As2  1  0.13093471  0.14703823  0.87203689  1
  As  As3  1  0.63094261  0.85295092  0.62796187  1
  S  S0  1  0.86989342  0.34776203  0.67801271  1
  S  S1  1  0.36989267  0.65223720  0.82198731  1
  S  S2  1  0.63010733  0.34776280  0.17801269  1
  S  S3  1  0.13010658  0.65223797  0.32198729  1
loop_
_geom_bond_atom_site_label_1
_geom_bond_atom_site_label_2
_geom_bond_distance
_geom_bond_site_symmetry_2
Fe0 S2 2.175291 1_555
Fe0 S1 2.186278 1_554
Fe0 S3 2.212448 1_555
Fe1 S1 2.175291 1_555
Fe1 S2 2.186278 1_556
Fe1 S0 2.212448 1_555
Fe2 S3 2.175247 1_655
Fe2 S0 2.186231 1_555
Fe2 S2 2.212465 1_555
Fe3 S0 2.175247 1_455
Fe3 S3 2.186231 1_555
Fe3 S1 2.212465 1_555
As0 Fe2 2.369997 1_455
As0 S2 2.373948 1_555
As0 Fe1 2.389015 1_555
As0 Fe0 2.398473 1_545
As1 Fe0 2.369988 1_555
As1 S3 2.374009 1_655
As1 Fe3 2.389030 1_654
As1 Fe2 2.398394 1_565
As2 Fe1 2.369988 1_555
As2 S0 2.374009 1_455
As2 Fe2 2.389030 1_456
As2 Fe3 2.398394 1_545
As3 Fe3 2.369997 1_655
As3 S1 2.373948 1_555
As3 Fe0 2.389015 1_555
As3 Fe1 2.398473 1_565
