# generated using pymatgen
data_SmCo3B2
_symmetry_space_group_name_H-M   'P 1'
_cell_length_a   10.17865492
_cell_length_b   10.17867607
_cell_length_c   5.86338134
_cell_angle_alpha   90.00000000
_cell_angle_beta   90.00000000
_cell_angle_gamma   120.00008017
_symmetry_Int_Tables_number   1
_chemical_formula_structural   SmCo3B2
_chemical_formula_sum   'Sm8 Co24 B16'
_cell_volume   526.09007148
_cell_formula_units_Z   8
loop_
 _symmetry_equiv_pos_site_id
 _symmetry_equiv_pos_as_xyz
  1  'x, y, z'
loop_
 _atom_site_type_symbol
 _atom_site_label
 _atom_site_symmetry_multiplicity
 _atom_site_fract_x
 _atom_site_fract_y
 _atom_site_fract_z
 _atom_site_occupancy
  Sm  Sm0_0  1  0.00000000  0.00000000  0.00000000  1
  Sm  Sm0_1  1  0.00000000  0.00000000  0.50000000  1
  Sm  Sm0_2  1  0.00000000  0.50000000  0.00000000  1
  Sm  Sm0_3  1  0.00000000  0.50000000  0.50000000  1
  Sm  Sm0_4  1  0.50000000  0.00000000  0.00000000  1
  Sm  Sm0_5  1  0.50000000  0.00000000  0.50000000  1
  Sm  Sm0_6  1  0.50000000  0.50000000  0.00000000  1
  Sm  Sm0_7  1  0.50000000  0.50000000  0.50000000  1
  Co  Co0_0  1  0.25000000  0.00000000  0.25000000  1
  Co  Co0_1  1  0.25000000  0.00000000  0.75000000  1
  Co  Co0_2  1  0.25000000  0.50000000  0.25000000  1
  Co  Co0_3  1  0.25000000  0.50000000  0.75000000  1
  Co  Co0_4  1  0.75000000  0.00000000  0.25000000  1
  Co  Co0_5  1  0.75000000  0.00000000  0.75000000  1
  Co  Co0_6  1  0.75000000  0.50000000  0.25000000  1
  Co  Co0_7  1  0.75000000  0.50000000  0.75000000  1
  Co  Co1_0  1  0.25000000  0.25000000  0.25000000  1
  Co  Co1_1  1  0.25000000  0.25000000  0.75000000  1
  Co  Co1_2  1  0.25000000  0.75000000  0.25000000  1
  Co  Co1_3  1  0.25000000  0.75000000  0.75000000  1
  Co  Co1_4  1  0.75000000  0.25000000  0.25000000  1
  Co  Co1_5  1  0.75000000  0.25000000  0.75000000  1
  Co  Co1_6  1  0.75000000  0.75000000  0.25000000  1
  Co  Co1_7  1  0.75000000  0.75000000  0.75000000  1
  Co  Co2_0  1  0.00000000  0.25000000  0.25000000  1
  Co  Co2_1  1  0.00000000  0.25000000  0.75000000  1
  Co  Co2_2  1  1.00000000  0.75000000  0.25000000  1
  Co  Co2_3  1  1.00000000  0.75000000  0.75000000  1
  Co  Co2_4  1  0.50000000  0.25000000  0.25000000  1
  Co  Co2_5  1  0.50000000  0.25000000  0.75000000  1
  Co  Co2_6  1  0.50000000  0.75000000  0.25000000  1
  Co  Co2_7  1  0.50000000  0.75000000  0.75000000  1
  B  B0_0  1  0.16665984  0.33332892  0.00000000  1
  B  B0_1  1  0.16665984  0.33332892  0.50000000  1
  B  B0_2  1  0.16665983  0.83332892  0.00000000  1
  B  B0_3  1  0.16665983  0.83332892  0.50000000  1
  B  B0_4  1  0.66665984  0.33332892  0.00000000  1
  B  B0_5  1  0.66665984  0.33332892  0.50000000  1
  B  B0_6  1  0.66665984  0.83332892  0.00000000  1
  B  B0_7  1  0.66665984  0.83332892  0.50000000  1
  B  B1_0  1  0.33334017  0.16667108  0.00000000  1
  B  B1_1  1  0.33334017  0.16667108  0.50000000  1
  B  B1_2  1  0.33334017  0.66667108  0.00000000  1
  B  B1_3  1  0.33334017  0.66667108  0.50000000  1
  B  B1_4  1  0.83334017  0.16667108  0.00000000  1
  B  B1_5  1  0.83334017  0.16667108  0.50000000  1
  B  B1_6  1  0.83334016  0.66667108  0.00000000  1
  B  B1_7  1  0.83334016  0.66667108  0.50000000  1
loop_
_geom_bond_atom_site_label_1
_geom_bond_atom_site_label_2
_geom_bond_distance
_geom_bond_site_symmetry_2
Sm0_0 Sm0_1 2.931691 1_555
Sm0_0 Sm0_1 2.931691 1_554
Sm0_2 Sm0_3 2.931691 1_555
Sm0_2 Sm0_3 2.931691 1_554
Sm0_4 Sm0_5 2.931691 1_555
Sm0_4 Sm0_5 2.931691 1_554
Sm0_6 Sm0_7 2.931691 1_555
Sm0_6 Sm0_7 2.931691 1_554
Co0_0 Sm0_5 2.936668 1_555
Co0_0 Sm0_0 2.936668 1_555
Co0_0 Sm0_4 2.936668 1_555
Co0_0 Sm0_1 2.936668 1_555
Co0_1 Sm0_5 2.936668 1_555
Co0_1 Sm0_1 2.936668 1_555
Co0_1 Sm0_0 2.936668 1_556
Co0_1 Sm0_4 2.936668 1_556
Co0_2 Sm0_2 2.936668 1_555
Co0_2 Sm0_6 2.936668 1_555
Co0_2 Sm0_3 2.936668 1_555
Co0_2 Sm0_7 2.936668 1_555
Co0_3 Sm0_6 2.936668 1_556
Co0_3 Sm0_3 2.936668 1_555
Co0_3 Sm0_7 2.936668 1_555
Co0_3 Sm0_2 2.936668 1_556
Co0_4 Sm0_0 2.936668 1_655
Co0_4 Sm0_1 2.936668 1_655
Co0_4 Sm0_4 2.936668 1_555
Co0_4 Sm0_5 2.936668 1_555
Co0_5 Sm0_1 2.936668 1_655
Co0_5 Sm0_0 2.936668 1_656
Co0_5 Sm0_4 2.936668 1_556
Co0_5 Sm0_5 2.936668 1_555
Co0_6 Sm0_6 2.936668 1_555
Co0_6 Sm0_7 2.936668 1_555
Co0_6 Sm0_3 2.936668 1_655
Co0_6 Sm0_2 2.936668 1_655
Co0_7 Sm0_6 2.936668 1_556
Co0_7 Sm0_7 2.936668 1_555
Co0_7 Sm0_2 2.936668 1_656
Co0_7 Sm0_3 2.936668 1_655
Co1_0 Sm0_0 2.936667 1_555
Co1_0 Sm0_6 2.936667 1_555
Co1_0 Sm0_7 2.936667 1_555
Co1_0 Sm0_1 2.936667 1_555
Co1_1 Sm0_6 2.936667 1_556
Co1_1 Sm0_7 2.936667 1_555
Co1_1 Sm0_1 2.936667 1_555
Co1_1 Sm0_0 2.936667 1_556
Co1_2 Sm0_3 2.936667 1_555
Co1_2 Sm0_2 2.936667 1_555
Co1_2 Sm0_5 2.936667 1_565
Co1_2 Sm0_4 2.936667 1_565
Co1_3 Sm0_3 2.936667 1_555
Co1_3 Sm0_2 2.936667 1_556
Co1_3 Sm0_4 2.936667 1_566
Co1_3 Sm0_5 2.936667 1_565
Co1_4 Sm0_5 2.936667 1_555
Co1_4 Sm0_4 2.936667 1_555
Co1_4 Sm0_3 2.936667 1_655
Co1_4 Sm0_2 2.936667 1_655
Co1_5 Sm0_5 2.936667 1_555
Co1_5 Sm0_4 2.936667 1_556
Co1_5 Sm0_3 2.936667 1_655
Co1_5 Sm0_2 2.936667 1_656
Co1_6 Sm0_6 2.936667 1_555
Co1_6 Sm0_7 2.936667 1_555
Co1_6 Sm0_0 2.936667 1_665
Co1_6 Sm0_1 2.936667 1_665
Co1_7 Sm0_6 2.936667 1_556
Co1_7 Sm0_7 2.936667 1_555
Co1_7 Sm0_0 2.936667 1_666
Co1_7 Sm0_1 2.936667 1_665
Co2_0 Sm0_1 2.936672 1_555
Co2_0 Sm0_3 2.936672 1_555
Co2_0 Sm0_0 2.936672 1_555
Co2_0 Sm0_2 2.936672 1_555
Co2_1 Sm0_1 2.936672 1_555
Co2_1 Sm0_2 2.936672 1_556
Co2_1 Sm0_0 2.936672 1_556
Co2_1 Sm0_3 2.936672 1_555
Co2_2 Sm0_0 2.936672 1_665
Co2_2 Sm0_3 2.936672 1_655
Co2_2 Sm0_1 2.936672 1_665
Co2_2 Sm0_2 2.936672 1_655
Co2_3 Sm0_3 2.936672 1_655
Co2_3 Sm0_0 2.936672 1_666
Co2_3 Sm0_1 2.936672 1_665
Co2_3 Sm0_2 2.936672 1_656
Co2_4 Sm0_6 2.936672 1_555
Co2_4 Sm0_7 2.936672 1_555
Co2_4 Sm0_4 2.936672 1_555
Co2_4 Sm0_5 2.936672 1_555
Co2_5 Sm0_5 2.936672 1_555
Co2_5 Sm0_7 2.936672 1_555
Co2_5 Sm0_4 2.936672 1_556
Co2_5 Sm0_6 2.936672 1_556
Co2_6 Sm0_6 2.936672 1_555
Co2_6 Sm0_7 2.936672 1_555
Co2_6 Sm0_4 2.936672 1_565
Co2_6 Sm0_5 2.936672 1_565
Co2_7 Sm0_6 2.936672 1_556
Co2_7 Sm0_7 2.936672 1_555
Co2_7 Sm0_4 2.936672 1_566
Co2_7 Sm0_5 2.936672 1_565
B0_0 Co2_1 2.075322 1_554
B0_0 Co2_0 2.075322 1_555
B0_0 Co1_0 2.075382 1_555
B0_0 Co1_1 2.075382 1_554
B0_0 Co0_2 2.075394 1_555
B0_0 Co0_3 2.075394 1_554
B0_0 Sm0_0 2.938289 1_555
B0_0 Sm0_2 2.938308 1_555
B0_0 Sm0_6 2.938382 1_555
B0_1 Co2_0 2.075322 1_555
B0_1 Co2_1 2.075322 1_555
B0_1 Co1_0 2.075382 1_555
B0_1 Co1_1 2.075382 1_555
B0_1 Co0_2 2.075394 1_555
B0_1 Co0_3 2.075394 1_555
B0_1 Sm0_1 2.938289 1_555
B0_1 Sm0_3 2.938308 1_555
B0_1 Sm0_7 2.938382 1_555
B0_2 Co2_2 2.075322 1_455
B0_2 Co2_3 2.075322 1_454
B0_2 Co1_2 2.075382 1_555
B0_2 Co1_3 2.075382 1_554
B0_2 Co0_0 2.075394 1_565
B0_2 Co0_1 2.075394 1_564
B0_2 Sm0_2 2.938289 1_555
B0_2 Sm0_0 2.938308 1_565
B0_2 Sm0_4 2.938382 1_565
B0_3 Co2_2 2.075322 1_455
B0_3 Co2_3 2.075322 1_455
B0_3 Co1_2 2.075382 1_555
B0_3 Co1_3 2.075382 1_555
B0_3 Co0_0 2.075394 1_565
B0_3 Co0_1 2.075394 1_565
B0_3 Sm0_3 2.938289 1_555
B0_3 Sm0_1 2.938308 1_565
B0_3 Sm0_5 2.938382 1_565
B0_4 Co2_4 2.075322 1_555
B0_4 Co2_5 2.075322 1_554
B0_4 Co1_4 2.075382 1_555
B0_4 Co1_5 2.075382 1_554
B0_4 Co0_6 2.075394 1_555
B0_4 Co0_7 2.075394 1_554
B0_4 Sm0_4 2.938289 1_555
B0_4 Sm0_6 2.938308 1_555
B0_4 Sm0_2 2.938382 1_655
B0_5 Co2_4 2.075322 1_555
B0_5 Co2_5 2.075322 1_555
B0_5 Co1_4 2.075382 1_555
B0_5 Co1_5 2.075382 1_555
B0_5 Co0_6 2.075394 1_555
B0_5 Co0_7 2.075394 1_555
B0_5 Sm0_5 2.938289 1_555
B0_5 Sm0_7 2.938308 1_555
B0_5 Sm0_3 2.938382 1_655
B0_6 Co2_6 2.075322 1_555
B0_6 Co2_7 2.075322 1_554
B0_6 Co1_6 2.075382 1_555
B0_6 Co1_7 2.075382 1_554
B0_6 Co0_4 2.075394 1_565
B0_6 Co0_5 2.075394 1_564
B0_6 Sm0_6 2.938289 1_555
B0_6 Sm0_4 2.938308 1_565
B0_6 Sm0_0 2.938382 1_665
B0_7 Co2_6 2.075322 1_555
B0_7 Co2_7 2.075322 1_555
B0_7 Co1_6 2.075382 1_555
B0_7 Co1_7 2.075382 1_555
B0_7 Co0_4 2.075394 1_565
B0_7 Co0_5 2.075394 1_565
B0_7 Sm0_7 2.938289 1_555
B0_7 Sm0_5 2.938308 1_565
B0_7 Sm0_1 2.938382 1_665
B1_0 Co2_4 2.075322 1_555
B1_0 Co2_5 2.075322 1_554
B1_0 Co1_1 2.075382 1_554
B1_0 Co1_0 2.075382 1_555
B1_0 Co0_1 2.075394 1_554
B1_0 Co0_0 2.075394 1_555
B1_0 Sm0_6 2.938289 1_555
B1_0 Sm0_4 2.938308 1_555
B1_0 Sm0_0 2.938382 1_555
B1_1 Co2_4 2.075322 1_555
B1_1 Co2_5 2.075322 1_555
B1_1 Co1_1 2.075382 1_555
B1_1 Co1_0 2.075382 1_555
B1_1 Co0_0 2.075394 1_555
B1_1 Co0_1 2.075394 1_555
B1_1 Sm0_7 2.938289 1_555
B1_1 Sm0_5 2.938308 1_555
B1_1 Sm0_1 2.938382 1_555
B1_2 Co2_6 2.075322 1_555
B1_2 Co2_7 2.075322 1_554
B1_2 Co1_2 2.075382 1_555
B1_2 Co1_3 2.075382 1_554
B1_2 Co0_2 2.075394 1_555
B1_2 Co0_3 2.075394 1_554
B1_2 Sm0_4 2.938289 1_565
B1_2 Sm0_6 2.938308 1_555
B1_2 Sm0_2 2.938382 1_555
B1_3 Co2_6 2.075322 1_555
B1_3 Co2_7 2.075322 1_555
B1_3 Co1_2 2.075382 1_555
B1_3 Co1_3 2.075382 1_555
B1_3 Co0_2 2.075394 1_555
B1_3 Co0_3 2.075394 1_555
B1_3 Sm0_5 2.938289 1_565
B1_3 Sm0_7 2.938308 1_555
B1_3 Sm0_3 2.938382 1_555
B1_4 Co2_0 2.075322 1_655
B1_4 Co2_1 2.075322 1_654
B1_4 Co1_4 2.075382 1_555
B1_4 Co1_5 2.075382 1_554
B1_4 Co0_4 2.075394 1_555
B1_4 Co0_5 2.075394 1_554
B1_4 Sm0_2 2.938289 1_655
B1_4 Sm0_0 2.938308 1_655
B1_4 Sm0_4 2.938382 1_555
B1_5 Co2_0 2.075322 1_655
B1_5 Co2_1 2.075322 1_655
B1_5 Co1_4 2.075382 1_555
B1_5 Co1_5 2.075382 1_555
B1_5 Co0_4 2.075394 1_555
B1_5 Co0_5 2.075394 1_555
B1_5 Sm0_3 2.938289 1_655
B1_5 Sm0_1 2.938308 1_655
B1_5 Sm0_5 2.938382 1_555
B1_6 Co2_2 2.075322 1_555
B1_6 Co2_3 2.075322 1_554
B1_6 Co1_6 2.075382 1_555
B1_6 Co1_7 2.075382 1_554
B1_6 Co0_6 2.075394 1_555
B1_6 Co0_7 2.075394 1_554
B1_6 Sm0_0 2.938289 1_665
B1_6 Sm0_2 2.938308 1_655
B1_6 Sm0_6 2.938382 1_555
B1_7 Co2_2 2.075322 1_555
B1_7 Co2_3 2.075322 1_555
B1_7 Co1_6 2.075382 1_555
B1_7 Co1_7 2.075382 1_555
B1_7 Co0_6 2.075394 1_555
B1_7 Co0_7 2.075394 1_555
B1_7 Sm0_1 2.938289 1_665
B1_7 Sm0_3 2.938308 1_655
B1_7 Sm0_7 2.938382 1_555
