# generated using pymatgen
data_Cs2Cr4Cd(HO4)4
_symmetry_space_group_name_H-M   'P 1'
_cell_length_a   7.70983900
_cell_length_b   8.13315583
_cell_length_c   8.17140319
_cell_angle_alpha   91.14721732
_cell_angle_beta   116.90365275
_cell_angle_gamma   98.54037523
_symmetry_Int_Tables_number   1
_chemical_formula_structural   Cs2Cr4Cd(HO4)4
_chemical_formula_sum   'Cs2 Cr4 Cd1 H4 O16'
_cell_volume   449.65164608
_cell_formula_units_Z   1
loop_
 _symmetry_equiv_pos_site_id
 _symmetry_equiv_pos_as_xyz
  1  'x, y, z'
loop_
 _atom_site_type_symbol
 _atom_site_label
 _atom_site_symmetry_multiplicity
 _atom_site_fract_x
 _atom_site_fract_y
 _atom_site_fract_z
 _atom_site_occupancy
  Cs  Cs0  1  0.73245800  0.82758500  0.25949300  1
  Cs  Cs1  1  0.26754200  0.17241500  0.74050700  1
  Cr  Cr0  1  0.26354900  0.67491200  0.49818000  1
  Cr  Cr1  1  0.73645100  0.32508800  0.50182000  1
  Cr  Cr2  1  0.71525800  0.84523600  0.77032400  1
  Cr  Cr3  1  0.28474200  0.15476400  0.22967600  1
  Cd  Cd0  1  0.00000000  0.50000000  0.00000000  1
  H  H0  1  0.76200900  0.19422400  0.99204400  1
  H  H1  1  0.81257500  0.28840900  0.18245700  1
  H  H2  1  0.18742500  0.71159100  0.81754300  1
  H  H3  1  0.23799100  0.80577600  0.00795600  1
  O  O0  1  0.89617500  0.92427900  0.73088700  1
  O  O1  1  0.10382500  0.07572100  0.26911300  1
  O  O2  1  0.78015500  0.30716100  0.05243900  1
  O  O3  1  0.82814300  0.22221700  0.39366500  1
  O  O4  1  0.49589200  0.21562200  0.44997700  1
  O  O5  1  0.88129500  0.33947700  0.72688500  1
  O  O6  1  0.71701300  0.50792700  0.43007300  1
  O  O7  1  0.17185700  0.77778300  0.60633500  1
  O  O8  1  0.50410800  0.78437800  0.55002300  1
  O  O9  1  0.76704100  0.68182000  0.88954000  1
  O  O10  1  0.11870500  0.66052300  0.27311500  1
  O  O11  1  0.33198200  0.01528100  0.11410800  1
  O  O12  1  0.66801800  0.98471900  0.88589200  1
  O  O13  1  0.21984500  0.69283900  0.94756100  1
  O  O14  1  0.28298700  0.49207300  0.56992700  1
  O  O15  1  0.23295900  0.31818000  0.11046000  1
loop_
_geom_bond_atom_site_label_1
_geom_bond_atom_site_label_2
_geom_bond_distance
_geom_bond_site_symmetry_2
Cs0 O6 2.986562 1_555
Cs0 O12 3.189384 1_554
Cs0 O1 3.217229 1_665
Cs0 O3 3.235999 1_565
Cs0 O9 3.360823 1_554
Cs0 O11 3.380541 1_565
Cs0 O7 3.381953 1_655
Cs0 H3 3.388633 1_555
Cs0 O10 3.410912 1_655
Cs0 O0 3.497572 1_555
Cs0 O8 3.534284 1_555
Cs0 O13 3.578094 1_554
Cs1 O14 2.986562 1_555
Cs1 O11 3.189384 1_556
Cs1 O0 3.217229 1_445
Cs1 O7 3.235999 1_545
Cs1 O15 3.360823 1_556
Cs1 O12 3.380541 1_545
Cs1 O3 3.381953 1_455
Cs1 H0 3.388633 1_555
Cs1 O5 3.410912 1_455
Cs1 O1 3.497572 1_555
Cs1 O4 3.534284 1_555
Cs1 O2 3.578094 1_556
Cr0 O14 1.612174 1_555
Cr0 O7 1.640821 1_555
Cr0 O10 1.654385 1_555
Cr0 O8 1.787549 1_555
Cr1 O6 1.612174 1_555
Cr1 O3 1.640821 1_555
Cr1 O5 1.654385 1_555
Cr1 O4 1.787549 1_555
Cr2 O0 1.616001 1_555
Cr2 O12 1.643924 1_555
Cr2 O9 1.652978 1_555
Cr2 O8 1.791273 1_555
Cr3 O1 1.616001 1_555
Cr3 O11 1.643924 1_555
Cr3 O15 1.652978 1_555
Cr3 O4 1.791273 1_555
Cd0 O5 2.280952 1_454
Cd0 O10 2.280952 1_555
Cd0 O13 2.326157 1_554
Cd0 O2 2.326157 1_455
Cd0 O15 2.366970 1_555
Cd0 O9 2.366970 1_454
H0 O2 0.993997 1_556
H1 O2 0.995981 1_555
H2 O13 0.995981 1_555
H3 O13 0.993997 1_554
