# generated using pymatgen
data_VO2
_symmetry_space_group_name_H-M   'P 1'
_cell_length_a   3.03751000
_cell_length_b   4.47875400
_cell_length_c   4.52951200
_cell_angle_alpha   90.00000000
_cell_angle_beta   90.00000000
_cell_angle_gamma   90.00000000
_symmetry_Int_Tables_number   1
_chemical_formula_structural   VO2
_chemical_formula_sum   'V2 O4'
_cell_volume   61.62065920
_cell_formula_units_Z   2
loop_
 _symmetry_equiv_pos_site_id
 _symmetry_equiv_pos_as_xyz
  1  'x, y, z'
loop_
 _atom_site_type_symbol
 _atom_site_label
 _atom_site_symmetry_multiplicity
 _atom_site_fract_x
 _atom_site_fract_y
 _atom_site_fract_z
 _atom_site_occupancy
  V  V0  1  0.50000000  0.00000000  0.00000000  1
  V  V1  1  0.00000000  0.50000000  0.50000000  1
  O  O0  1  0.50000000  0.29026700  0.30832600  1
  O  O1  1  0.50000000  0.70973300  0.69167400  1
  O  O2  1  0.00000000  0.20973300  0.80832600  1
  O  O3  1  0.00000000  0.79026700  0.19167400  1
loop_
_geom_bond_atom_site_label_1
_geom_bond_atom_site_label_2
_geom_bond_distance
_geom_bond_site_symmetry_2
O0 V0 1.908006 1_555
O0 V1 1.985632 1_555
O0 V1 1.985632 1_655
O1 V0 1.908006 1_566
O1 V1 1.985632 1_555
O1 V1 1.985632 1_655
O2 V1 1.908006 1_555
O2 V0 1.985632 1_456
O2 V0 1.985632 1_556
O3 V1 1.908006 1_555
O3 V0 1.985632 1_465
O3 V0 1.985632 1_565
