# generated using pymatgen
data_FeHO2
_symmetry_space_group_name_H-M   'P 1'
_cell_length_a   3.06009100
_cell_length_b   4.48451200
_cell_length_c   5.04316300
_cell_angle_alpha   90.00000000
_cell_angle_beta   90.00000000
_cell_angle_gamma   90.00000000
_symmetry_Int_Tables_number   1
_chemical_formula_structural   FeHO2
_chemical_formula_sum   'Fe2 H2 O4'
_cell_volume   69.20740054
_cell_formula_units_Z   2
loop_
 _symmetry_equiv_pos_site_id
 _symmetry_equiv_pos_as_xyz
  1  'x, y, z'
loop_
 _atom_site_type_symbol
 _atom_site_label
 _atom_site_symmetry_multiplicity
 _atom_site_fract_x
 _atom_site_fract_y
 _atom_site_fract_z
 _atom_site_occupancy
  Fe  Fe0  1  0.00000000  0.72302500  0.01022500  1
  Fe  Fe1  1  0.50000000  0.27697500  0.51022500  1
  H  H0  1  0.00000000  0.81386500  0.49154500  1
  H  H1  1  0.50000000  0.18613500  0.99154500  1
  O  O0  1  0.00000000  0.99440400  0.36841500  1
  O  O1  1  0.50000000  0.00559600  0.86841500  1
  O  O2  1  0.00000000  0.51015300  0.66161400  1
  O  O3  1  0.50000000  0.48984700  0.16161400  1
loop_
_geom_bond_atom_site_label_1
_geom_bond_atom_site_label_2
_geom_bond_distance
_geom_bond_site_symmetry_2
Fe0 O2 2.000559 1_554
Fe0 O3 2.004347 1_455
Fe0 O3 2.004347 1_555
Fe0 O1 2.111466 1_464
Fe0 O1 2.111466 1_564
Fe0 O0 2.178122 1_555
Fe1 O3 2.000559 1_555
Fe1 O2 2.004347 1_655
Fe1 O2 2.004347 1_555
Fe1 O0 2.111466 1_545
Fe1 O0 2.111466 1_645
Fe1 O1 2.178122 1_555
H0 O0 1.020341 1_555
H0 O2 1.609556 1_555
H1 O1 1.020341 1_555
H1 O3 1.609556 1_556
