# generated using pymatgen
data_SrLi4Ca(SiO4)2
_symmetry_space_group_name_H-M   'P 1'
_cell_length_a   4.97358828
_cell_length_b   9.90251448
_cell_length_c   14.02056568
_cell_angle_alpha   90.00000000
_cell_angle_beta   90.00000000
_cell_angle_gamma   90.00000000
_symmetry_Int_Tables_number   1
_chemical_formula_structural   SrLi4Ca(SiO4)2
_chemical_formula_sum   'Sr4 Li16 Ca4 Si8 O32'
_cell_volume   690.52730037
_cell_formula_units_Z   4
loop_
 _symmetry_equiv_pos_site_id
 _symmetry_equiv_pos_as_xyz
  1  'x, y, z'
loop_
 _atom_site_type_symbol
 _atom_site_label
 _atom_site_symmetry_multiplicity
 _atom_site_fract_x
 _atom_site_fract_y
 _atom_site_fract_z
 _atom_site_occupancy
  Sr  Sr0  1  0.05478482  0.26789548  0.25000000  1
  Sr  Sr1  1  0.94521518  0.73210452  0.75000000  1
  Sr  Sr2  1  0.05478482  0.23210452  0.75000000  1
  Sr  Sr3  1  0.94521518  0.76789548  0.25000000  1
  Li  Li0  1  0.51682197  0.22280226  0.87145900  1
  Li  Li1  1  0.95828074  0.99683368  0.62815404  1
  Li  Li2  1  0.04171926  0.00316632  0.12815404  1
  Li  Li3  1  0.48317803  0.72280226  0.87145900  1
  Li  Li4  1  0.04171926  0.00316632  0.37184596  1
  Li  Li5  1  0.51682197  0.27719774  0.12854100  1
  Li  Li6  1  0.95828074  0.50316632  0.37184596  1
  Li  Li7  1  0.95828074  0.99683368  0.87184596  1
  Li  Li8  1  0.51682197  0.22280226  0.62854100  1
  Li  Li9  1  0.95828074  0.50316632  0.12815404  1
  Li  Li10  1  0.48317803  0.72280226  0.62854100  1
  Li  Li11  1  0.04171926  0.49683368  0.87184596  1
  Li  Li12  1  0.51682197  0.27719774  0.37145900  1
  Li  Li13  1  0.48317803  0.77719774  0.37145900  1
  Li  Li14  1  0.48317803  0.77719774  0.12854100  1
  Li  Li15  1  0.04171926  0.49683368  0.62815404  1
  Ca  Ca0  1  0.50000000  0.00000000  0.50000000  1
  Ca  Ca1  1  0.50000000  0.50000000  -0.00000000  1
  Ca  Ca2  1  0.50000000  0.00000000  -0.00000000  1
  Ca  Ca3  1  0.50000000  0.50000000  0.50000000  1
  Si  Si0  1  0.47445317  0.97525399  0.75000000  1
  Si  Si1  1  0.52554683  0.47525399  0.75000000  1
  Si  Si2  1  0.47445317  0.52474601  0.25000000  1
  Si  Si3  1  0.52554683  0.02474601  0.25000000  1
  Si  Si4  1  0.98211566  0.75000000  -0.00000000  1
  Si  Si5  1  0.01788434  0.25000000  0.50000000  1
  Si  Si6  1  0.98211566  0.75000000  0.50000000  1
  Si  Si7  1  0.01788434  0.25000000  -0.00000000  1
  O  O0  1  0.66629758  0.54506953  0.65544376  1
  O  O1  1  0.57901483  0.31121096  0.75000000  1
  O  O2  1  0.21118703  0.33535102  0.57353385  1
  O  O3  1  0.21118703  0.16464898  0.07353385  1
  O  O4  1  0.33370242  0.04506953  0.65544376  1
  O  O5  1  0.33370242  0.45493047  0.34455624  1
  O  O6  1  0.66629758  0.95493047  0.15544376  1
  O  O7  1  0.78881297  0.83535102  0.57353385  1
  O  O8  1  0.17771714  0.65070229  0.56220445  1
  O  O9  1  0.79846192  0.49991928  0.25000000  1
  O  O10  1  0.79846192  0.00008072  0.75000000  1
  O  O11  1  0.82228286  0.15070229  0.56220445  1
  O  O12  1  0.17771714  0.84929771  0.06220445  1
  O  O13  1  0.66629758  0.54506953  0.84455624  1
  O  O14  1  0.57901483  0.18878904  0.25000000  1
  O  O15  1  0.66629758  0.95493047  0.34455624  1
  O  O16  1  0.17771714  0.84929771  0.43779555  1
  O  O17  1  0.20153808  0.50008072  0.75000000  1
  O  O18  1  0.82228286  0.34929771  0.06220445  1
  O  O19  1  0.82228286  0.15070229  0.93779555  1
  O  O20  1  0.20153808  -0.00008072  0.25000000  1
  O  O21  1  0.17771714  0.65070229  0.93779555  1
  O  O22  1  0.21118703  0.16464898  0.42646615  1
  O  O23  1  0.78881297  0.83535102  0.92646615  1
  O  O24  1  0.33370242  0.04506953  0.84455624  1
  O  O25  1  0.33370242  0.45493047  0.15544376  1
  O  O26  1  0.42098517  0.68878904  0.25000000  1
  O  O27  1  0.21118703  0.33535102  0.92646615  1
  O  O28  1  0.42098517  0.81121096  0.75000000  1
  O  O29  1  0.78881297  0.66464898  0.42646615  1
  O  O30  1  0.78881297  0.66464898  0.07353385  1
  O  O31  1  0.82228286  0.34929771  0.43779555  1
loop_
_geom_bond_atom_site_label_1
_geom_bond_atom_site_label_2
_geom_bond_distance
_geom_bond_site_symmetry_2
Li0 O19 1.919082 1_555
Li0 O1 1.939607 1_555
Li0 O24 2.017266 1_555
Li0 O27 2.036579 1_555
Li1 O10 1.884493 1_565
Li1 O11 1.906335 1_565
Li1 O7 1.963147 1_555
Li1 O4 1.964933 1_665
Li2 O20 1.884493 1_555
Li2 O12 1.906335 1_545
Li2 O3 1.963147 1_555
Li2 O6 1.964933 1_445
Li3 O21 1.919082 1_555
Li3 O28 1.939607 1_555
Li3 O13 2.017266 1_555
Li3 O23 2.036579 1_555
Li4 O20 1.884493 1_555
Li4 O16 1.906335 1_545
Li4 O22 1.963147 1_555
Li4 O15 1.964933 1_445
Li5 O18 1.919082 1_555
Li5 O14 1.939607 1_555
Li5 O25 2.017266 1_555
Li5 O3 2.036579 1_555
Li6 O9 1.884493 1_555
Li6 O31 1.906335 1_555
Li6 O29 1.963147 1_555
Li6 O5 1.964933 1_655
Li7 O10 1.884493 1_565
Li7 O19 1.906335 1_565
Li7 O23 1.963147 1_555
Li7 O24 1.964933 1_665
Li8 O11 1.919082 1_555
Li8 O1 1.939607 1_555
Li8 O4 2.017266 1_555
Li8 O2 2.036579 1_555
Li9 O9 1.884493 1_555
Li9 O18 1.906335 1_555
Li9 O30 1.963147 1_555
Li9 O25 1.964933 1_655
Li10 O8 1.919082 1_555
Li10 O28 1.939607 1_555
Li10 O0 2.017266 1_555
Li10 O7 2.036579 1_555
Li11 O17 1.884493 1_555
Li11 O21 1.906335 1_555
Li11 O27 1.963147 1_555
Li11 O13 1.964933 1_455
Li12 O31 1.919082 1_555
Li12 O14 1.939607 1_555
Li12 O5 2.017266 1_555
Li12 O22 2.036579 1_555
Li13 O16 1.919082 1_555
Li13 O26 1.939607 1_555
Li13 O15 2.017266 1_555
Li13 O29 2.036579 1_555
Li14 O12 1.919082 1_555
Li14 O26 1.939607 1_555
Li14 O6 2.017266 1_555
Li14 O30 2.036579 1_555
Li15 O17 1.884493 1_555
Li15 O8 1.906335 1_555
Li15 O2 1.963147 1_555
Li15 O0 1.964933 1_455
Ca0 O16 2.357325 1_545
Ca0 O11 2.357325 1_555
Ca0 O15 2.373415 1_545
Ca0 O4 2.373415 1_555
Ca0 O22 2.405122 1_555
Ca0 O7 2.405122 1_545
Ca1 O21 2.357325 1_554
Ca1 O18 2.357325 1_555
Ca1 O13 2.373415 1_554
Ca1 O25 2.373415 1_555
Ca1 O27 2.405122 1_554
Ca1 O30 2.405122 1_555
Ca2 O19 2.357325 1_554
Ca2 O12 2.357325 1_545
Ca2 O24 2.373415 1_554
Ca2 O6 2.373415 1_545
Ca2 O23 2.405122 1_544
Ca2 O3 2.405122 1_555
Ca3 O8 2.357325 1_555
Ca3 O31 2.357325 1_555
Ca3 O5 2.373415 1_555
Ca3 O0 2.373415 1_555
Ca3 O2 2.405122 1_555
Ca3 O29 2.405122 1_555
O0 Si1 1.650933 1_555
O0 Sr1 2.666887 1_555
O1 Si1 1.646061 1_555
O1 Sr2 2.492577 1_655
O1 Sr2 2.722439 1_555
O2 Si5 1.643649 1_555
O2 Sr2 2.787803 1_555
O3 Si7 1.643649 1_555
O3 Sr0 2.787803 1_555
O4 Si0 1.650933 1_545
O4 Sr2 2.666887 1_555
O5 Si2 1.650933 1_555
O5 Sr0 2.666887 1_555
O6 Si3 1.650933 1_565
O6 Sr3 2.666887 1_555
O7 Si6 1.643649 1_555
O7 Sr1 2.787803 1_555
O8 Si6 1.635214 1_455
O8 Sr1 2.986579 1_455
O9 Si2 1.630131 1_555
O9 Sr0 2.627600 1_655
O9 Sr3 2.752187 1_555
O10 Si0 1.630131 1_545
O10 Sr2 2.627600 1_655
O10 Sr1 2.752187 1_545
O11 Si5 1.635214 1_655
O11 Sr2 2.986579 1_655
O12 Si4 1.635214 1_455
O12 Sr3 2.986579 1_455
O13 Si1 1.650933 1_555
O13 Sr1 2.666887 1_555
O14 Si3 1.646061 1_555
O14 Sr0 2.492577 1_655
O14 Sr0 2.722439 1_555
O15 Si3 1.650933 1_565
O15 Sr3 2.666887 1_555
O16 Si6 1.635214 1_455
O16 Sr3 2.986579 1_455
O17 Si1 1.630131 1_555
O17 Sr1 2.627600 1_455
O17 Sr2 2.752187 1_555
O18 Si7 1.635214 1_655
O18 Sr0 2.986579 1_655
O19 Si7 1.635214 1_656
O19 Sr2 2.986579 1_655
O20 Si3 1.630131 1_555
O20 Sr3 2.627600 1_445
O20 Sr0 2.752187 1_555
O21 Si4 1.635214 1_456
O21 Sr1 2.986579 1_455
O22 Si5 1.643649 1_555
O22 Sr0 2.787803 1_555
O23 Si4 1.643649 1_556
O23 Sr1 2.787803 1_555
O24 Si0 1.650933 1_545
O24 Sr2 2.666887 1_555
O25 Si2 1.650933 1_555
O25 Sr0 2.666887 1_555
O26 Si2 1.646061 1_555
O26 Sr3 2.492577 1_455
O26 Sr3 2.722439 1_555
O27 Si7 1.643649 1_556
O27 Sr2 2.787803 1_555
O28 Si0 1.646061 1_555
O28 Sr1 2.492577 1_455
O28 Sr1 2.722439 1_555
O29 Si6 1.643649 1_555
O29 Sr3 2.787803 1_555
O30 Si4 1.643649 1_555
O30 Sr3 2.787803 1_555
O31 Si5 1.635214 1_655
O31 Sr0 2.986579 1_655
