# generated using pymatgen
data_KTiBr3
_symmetry_space_group_name_H-M   'P 1'
_cell_length_a   13.39981595
_cell_length_b   13.39981595
_cell_length_c   5.92891100
_cell_angle_alpha   90.00000000
_cell_angle_beta   90.00000000
_cell_angle_gamma   119.99999973
_symmetry_Int_Tables_number   1
_chemical_formula_structural   KTiBr3
_chemical_formula_sum   'K6 Ti6 Br18'
_cell_volume   921.94121475
_cell_formula_units_Z   6
loop_
 _symmetry_equiv_pos_site_id
 _symmetry_equiv_pos_as_xyz
  1  'x, y, z'
loop_
 _atom_site_type_symbol
 _atom_site_label
 _atom_site_symmetry_multiplicity
 _atom_site_fract_x
 _atom_site_fract_y
 _atom_site_fract_z
 _atom_site_occupancy
  K  K0  1  0.35672800  0.99909200  0.52171300  1
  K  K1  1  0.64236400  0.64327200  0.52171300  1
  K  K2  1  0.99909200  0.64236400  0.02171300  1
  K  K3  1  0.00090800  0.35763600  0.52171300  1
  K  K4  1  0.64327200  0.00090800  0.02171300  1
  K  K5  1  0.35763600  0.35672800  0.02171300  1
  Ti  Ti0  1  0.33333300  0.66666700  0.80223300  1
  Ti  Ti1  1  0.33333300  0.66666700  0.24113400  1
  Ti  Ti2  1  0.66666700  0.33333300  0.30223300  1
  Ti  Ti3  1  0.00000000  0.00000000  0.01724200  1
  Ti  Ti4  1  0.00000000  0.00000000  0.51724200  1
  Ti  Ti5  1  0.66666700  0.33333300  0.74113400  1
  Br  Br0  1  0.33210500  0.83805000  0.02078700  1
  Br  Br1  1  0.66789500  0.16195000  0.52078700  1
  Br  Br2  1  0.50428400  0.17193200  0.02240100  1
  Br  Br3  1  0.49571600  0.82806800  0.52240100  1
  Br  Br4  1  0.19135000  0.09626400  0.76742900  1
  Br  Br5  1  0.82806800  0.33235300  0.02240100  1
  Br  Br6  1  0.49405500  0.33210500  0.52078700  1
  Br  Br7  1  0.50594500  0.66789500  0.02078700  1
  Br  Br8  1  0.09626400  0.90491400  0.26742900  1
  Br  Br9  1  0.17193200  0.66764700  0.52240100  1
  Br  Br10  1  0.80865000  0.90373600  0.26742900  1
  Br  Br11  1  0.16195000  0.49405500  0.02078700  1
  Br  Br12  1  0.09508600  0.19135000  0.26742900  1
  Br  Br13  1  0.90373600  0.09508600  0.76742900  1
  Br  Br14  1  0.83805000  0.50594500  0.52078700  1
  Br  Br15  1  0.90491400  0.80865000  0.76742900  1
  Br  Br16  1  0.66764700  0.49571600  0.02240100  1
  Br  Br17  1  0.33235300  0.50428400  0.52240100  1
loop_
_geom_bond_atom_site_label_1
_geom_bond_atom_site_label_2
_geom_bond_distance
_geom_bond_site_symmetry_2
Br0 Ti0 2.644057 1_554
Br0 Ti1 2.649283 1_555
Br0 K0 3.578969 1_554
Br0 K0 3.588052 1_555
Br0 K4 3.612282 1_565
Br0 K2 3.884210 1_455
Br1 Ti2 2.644057 1_555
Br1 Ti5 2.649283 1_555
Br1 K4 3.578969 1_555
Br1 K4 3.588052 1_556
Br1 K0 3.612282 1_545
Br1 K3 3.884210 1_655
Br2 Ti2 2.731062 1_555
Br2 Ti5 2.736239 1_554
Br2 K4 3.603959 1_555
Br2 K0 3.668503 1_545
Br2 K0 3.675089 1_544
Br2 K5 3.854754 1_555
Br3 Ti0 2.731062 1_555
Br3 Ti1 2.736239 1_555
Br3 K0 3.603959 1_555
Br3 K4 3.668503 1_566
Br3 K4 3.675089 1_565
Br3 K1 3.854754 1_555
Br4 Ti3 2.669187 1_556
Br4 Ti4 2.670418 1_555
Br4 K0 3.407941 1_545
Br4 K5 3.412082 1_556
Br5 Ti2 2.731052 1_555
Br5 Ti5 2.736229 1_554
Br5 K2 3.603948 1_555
Br5 K3 3.668506 1_655
Br5 K3 3.675092 1_654
Br5 K4 3.854765 1_555
Br6 Ti2 2.644069 1_555
Br6 Ti5 2.649295 1_555
Br6 K5 3.578969 1_555
Br6 K5 3.588052 1_556
Br6 K1 3.612282 1_555
Br6 K0 3.884210 1_545
Br7 Ti0 2.644069 1_554
Br7 Ti1 2.649295 1_555
Br7 K1 3.578969 1_554
Br7 K1 3.588052 1_555
Br7 K5 3.612282 1_555
Br7 K4 3.884210 1_565
Br8 Ti4 2.669187 1_565
Br8 Ti3 2.670418 1_565
Br8 K2 3.407941 1_455
Br8 K0 3.412082 1_555
Br9 Ti0 2.731052 1_555
Br9 Ti1 2.736229 1_555
Br9 K3 3.603948 1_555
Br9 K2 3.668506 1_456
Br9 K2 3.675092 1_455
Br9 K0 3.854765 1_555
Br10 Ti4 2.669187 1_665
Br10 Ti3 2.670418 1_665
Br10 K4 3.407941 1_565
Br10 K1 3.412082 1_555
Br11 Ti0 2.644063 1_554
Br11 Ti1 2.649289 1_555
Br11 K3 3.578969 1_554
Br11 K3 3.588052 1_555
Br11 K2 3.612282 1_455
Br11 K5 3.884210 1_555
Br12 Ti4 2.669187 1_555
Br12 Ti3 2.670418 1_555
Br12 K5 3.407941 1_555
Br12 K3 3.412082 1_555
Br13 Ti3 2.669187 1_656
Br13 Ti4 2.670418 1_655
Br13 K3 3.407941 1_655
Br13 K4 3.412082 1_556
Br14 Ti2 2.644063 1_555
Br14 Ti5 2.649289 1_555
Br14 K2 3.578969 1_555
Br14 K2 3.588052 1_556
Br14 K3 3.612282 1_655
Br14 K1 3.884210 1_555
Br15 Ti3 2.669187 1_666
Br15 Ti4 2.670418 1_665
Br15 K1 3.407941 1_555
Br15 K2 3.412082 1_556
Br16 Ti2 2.731073 1_555
Br16 Ti5 2.736250 1_554
Br16 K5 3.603947 1_555
Br16 K1 3.668498 1_555
Br16 K1 3.675084 1_554
Br16 K2 3.854766 1_555
Br17 Ti0 2.731073 1_555
Br17 Ti1 2.736250 1_555
Br17 K1 3.603947 1_555
Br17 K5 3.668498 1_556
Br17 K5 3.675084 1_555
Br17 K3 3.854766 1_555
