# generated using pymatgen
data_MgTe2O5
_symmetry_space_group_name_H-M   'P 1'
_cell_length_a   5.96312093
_cell_length_b   7.28705469
_cell_length_c   10.67176939
_cell_angle_alpha   90.00000000
_cell_angle_beta   90.00000000
_cell_angle_gamma   90.00000000
_symmetry_Int_Tables_number   1
_chemical_formula_structural   MgTe2O5
_chemical_formula_sum   'Mg4 Te8 O20'
_cell_volume   463.72667393
_cell_formula_units_Z   4
loop_
 _symmetry_equiv_pos_site_id
 _symmetry_equiv_pos_as_xyz
  1  'x, y, z'
loop_
 _atom_site_type_symbol
 _atom_site_label
 _atom_site_symmetry_multiplicity
 _atom_site_fract_x
 _atom_site_fract_y
 _atom_site_fract_z
 _atom_site_occupancy
  Mg  Mg0  1  0.25000000  0.00000000  0.44162557  1
  Mg  Mg1  1  0.75000000  0.50000000  0.05837443  1
  Mg  Mg2  1  0.75000000  0.00000000  0.55837443  1
  Mg  Mg3  1  0.25000000  0.50000000  0.94162557  1
  Te  Te0  1  0.49146652  0.86564850  0.15403461  1
  Te  Te1  1  0.99146652  0.63435150  0.34596539  1
  Te  Te2  1  0.50853348  0.36564850  0.34596539  1
  Te  Te3  1  0.00853348  0.13435150  0.15403461  1
  Te  Te4  1  0.99146652  0.86564850  0.84596539  1
  Te  Te5  1  0.49146652  0.63435150  0.65403461  1
  Te  Te6  1  0.00853348  0.36564850  0.65403461  1
  Te  Te7  1  0.50853348  0.13435150  0.84596539  1
  O  O0  1  0.25000000  0.50000000  0.56098148  1
  O  O1  1  0.75000000  0.00000000  0.93901852  1
  O  O2  1  0.75000000  0.50000000  0.43901852  1
  O  O3  1  0.25000000  0.00000000  0.06098148  1
  O  O4  1  0.55081705  0.35092049  0.93485015  1
  O  O5  1  0.05081705  0.14907951  0.56514985  1
  O  O6  1  0.44918295  0.85092049  0.56514985  1
  O  O7  1  0.94918295  0.64907951  0.93485015  1
  O  O8  1  0.44918295  0.64907951  0.06514985  1
  O  O9  1  0.94918295  0.85092049  0.43485015  1
  O  O10  1  0.55081705  0.14907951  0.43485015  1
  O  O11  1  0.05081705  0.35092049  0.06514985  1
  O  O12  1  0.18728679  0.18968859  0.29346510  1
  O  O13  1  0.68728679  0.31031141  0.20653490  1
  O  O14  1  0.81271321  0.68968859  0.20653490  1
  O  O15  1  0.31271321  0.81031141  0.29346510  1
  O  O16  1  0.81271321  0.81031141  0.70653490  1
  O  O17  1  0.31271321  0.68968859  0.79346510  1
  O  O18  1  0.18728679  0.31031141  0.79346510  1
  O  O19  1  0.68728679  0.18968859  0.70653490  1
loop_
_geom_bond_atom_site_label_1
_geom_bond_atom_site_label_2
_geom_bond_distance
_geom_bond_site_symmetry_2
Mg0 O6 2.080534 1_545
Mg0 O5 2.080534 1_555
Mg0 O10 2.098365 1_555
Mg0 O9 2.098365 1_445
Mg0 O12 2.133193 1_555
Mg0 O15 2.133193 1_545
Mg1 O7 2.080534 1_554
Mg1 O4 2.080534 1_554
Mg1 O8 2.098365 1_555
Mg1 O11 2.098365 1_655
Mg1 O13 2.133193 1_555
Mg1 O14 2.133193 1_555
Mg2 O10 2.080534 1_555
Mg2 O9 2.080534 1_545
Mg2 O6 2.098365 1_545
Mg2 O5 2.098365 1_655
Mg2 O19 2.133193 1_555
Mg2 O16 2.133193 1_545
Mg3 O11 2.080534 1_556
Mg3 O8 2.080534 1_556
Mg3 O7 2.098365 1_455
Mg3 O4 2.098365 1_555
Mg3 O18 2.133193 1_555
Mg3 O17 2.133193 1_555
O0 Te6 2.004475 1_555
O0 Te5 2.004475 1_555
O1 Te4 2.004475 1_545
O1 Te7 2.004475 1_555
O2 Te2 2.004475 1_555
O2 Te1 2.004475 1_555
O3 Te0 2.004475 1_545
O3 Te3 2.004475 1_555
O4 Te7 1.858466 1_555
O5 Te6 1.858466 1_555
O6 Te5 1.858466 1_555
O7 Te4 1.858466 1_555
O8 Te0 1.858466 1_555
O9 Te1 1.858466 1_555
O10 Te2 1.858466 1_555
O11 Te3 1.858466 1_555
O12 Te3 1.874263 1_555
O12 Te2 2.372270 1_555
O13 Te2 1.874263 1_555
O13 Te3 2.372270 1_655
O14 Te1 1.874263 1_555
O14 Te0 2.372270 1_555
O15 Te0 1.874263 1_555
O15 Te1 2.372270 1_455
O16 Te4 1.874263 1_555
O16 Te5 2.372270 1_555
O17 Te5 1.874263 1_555
O17 Te4 2.372270 1_455
O18 Te6 1.874263 1_555
O18 Te7 2.372270 1_555
O19 Te7 1.874263 1_555
O19 Te6 2.372270 1_655
