# generated using pymatgen
data_K3Nb2Cu3S8
_symmetry_space_group_name_H-M   'P 1'
_cell_length_a   12.24860552
_cell_length_b   12.24860552
_cell_length_c   14.52351439
_cell_angle_alpha   60.54422831
_cell_angle_beta   60.54422831
_cell_angle_gamma   26.30235236
_symmetry_Int_Tables_number   1
_chemical_formula_structural   K3Nb2Cu3S8
_chemical_formula_sum   'K6 Nb4 Cu6 S16'
_cell_volume   833.34843390
_cell_formula_units_Z   2
loop_
 _symmetry_equiv_pos_site_id
 _symmetry_equiv_pos_as_xyz
  1  'x, y, z'
loop_
 _atom_site_type_symbol
 _atom_site_label
 _atom_site_symmetry_multiplicity
 _atom_site_fract_x
 _atom_site_fract_y
 _atom_site_fract_z
 _atom_site_occupancy
  K  K0  1  0.26729100  0.34701400  0.59466800  1
  K  K1  1  0.65298600  0.73270900  0.90533200  1
  K  K2  1  0.73270900  0.65298600  0.40533200  1
  K  K3  1  0.00000000  0.00000000  0.50000000  1
  K  K4  1  0.00000000  0.00000000  0.00000000  1
  K  K5  1  0.34701400  0.26729100  0.09466800  1
  Nb  Nb0  1  0.84242800  0.40810500  0.72074200  1
  Nb  Nb1  1  0.40810500  0.84242800  0.22074200  1
  Nb  Nb2  1  0.59189500  0.15757200  0.77925800  1
  Nb  Nb3  1  0.15757200  0.59189500  0.27925800  1
  Cu  Cu0  1  0.33951800  0.90449500  0.71992400  1
  Cu  Cu1  1  0.66048200  0.09550500  0.28007600  1
  Cu  Cu2  1  0.90449500  0.33951800  0.21992400  1
  Cu  Cu3  1  0.27874100  0.72125900  0.25000000  1
  Cu  Cu4  1  0.09550500  0.66048200  0.78007600  1
  Cu  Cu5  1  0.72125900  0.27874100  0.75000000  1
  S  S0  1  0.18573700  0.12632200  0.31335600  1
  S  S1  1  0.32391900  0.25893800  0.38988500  1
  S  S2  1  0.51779100  0.55915500  0.83854000  1
  S  S3  1  0.12632200  0.18573700  0.81335600  1
  S  S4  1  0.87367800  0.81426300  0.18664400  1
  S  S5  1  0.13544900  0.04352200  0.12893600  1
  S  S6  1  0.55915500  0.51779100  0.33854000  1
  S  S7  1  0.44084500  0.48220900  0.66146000  1
  S  S8  1  0.04352200  0.13544900  0.62893600  1
  S  S9  1  0.25893800  0.32391900  0.88988500  1
  S  S10  1  0.48220900  0.44084500  0.16146000  1
  S  S11  1  0.67608100  0.74106200  0.61011500  1
  S  S12  1  0.81426300  0.87367800  0.68664400  1
  S  S13  1  0.74106200  0.67608100  0.11011500  1
  S  S14  1  0.95647800  0.86455100  0.37106400  1
  S  S15  1  0.86455100  0.95647800  0.87106400  1
loop_
_geom_bond_atom_site_label_1
_geom_bond_atom_site_label_2
_geom_bond_distance
_geom_bond_site_symmetry_2
K0 S1 3.205578 1_555
K0 S12 3.345870 1_455
K0 S3 3.394500 1_555
K0 S12 3.438854 1_545
K0 S11 3.547769 1_455
K0 S11 3.611736 1_545
K0 S14 3.723918 1_455
K1 S13 3.205578 1_556
K1 S3 3.345870 1_565
K1 S12 3.394500 1_555
K1 S3 3.438854 1_655
K1 S9 3.547769 1_565
K1 S9 3.611736 1_655
K1 S5 3.723918 1_566
K2 S11 3.205578 1_555
K2 S0 3.345870 1_655
K2 S4 3.394500 1_555
K2 S0 3.438854 1_565
K2 S1 3.547769 1_655
K2 S1 3.611736 1_565
K2 S8 3.723918 1_655
K3 S0 3.322468 1_555
K3 S12 3.322468 1_445
K3 S6 3.362242 1_455
K3 S7 3.362242 1_545
K3 S14 3.488024 1_445
K3 S8 3.488024 1_555
K3 S6 3.548191 1_545
K3 S7 3.548191 1_455
K4 S3 3.322468 1_554
K4 S4 3.322468 1_445
K4 S10 3.362242 1_455
K4 S2 3.362242 1_544
K4 S5 3.488024 1_555
K4 S15 3.488024 1_444
K4 S2 3.548191 1_454
K4 S10 3.548191 1_545
K5 S9 3.205578 1_554
K5 S4 3.345870 1_545
K5 S0 3.394500 1_555
K5 S4 3.438854 1_455
K5 S13 3.547769 1_545
K5 S13 3.611736 1_455
K5 S15 3.723918 1_544
Nb0 S11 2.289526 1_555
Nb0 S3 2.309812 1_655
Nb0 S2 2.322381 1_555
Nb0 S8 2.323546 1_655
Nb1 S13 2.289526 1_555
Nb1 S0 2.309812 1_565
Nb1 S6 2.322381 1_555
Nb1 S5 2.323546 1_565
Nb2 S9 2.289526 1_555
Nb2 S12 2.309812 1_545
Nb2 S7 2.322381 1_555
Nb2 S15 2.323546 1_545
Nb3 S1 2.289526 1_555
Nb3 S4 2.309812 1_455
Nb3 S10 2.322381 1_555
Nb3 S14 2.323546 1_455
Cu0 S11 2.328728 1_555
Cu0 S3 2.347554 1_565
Cu0 S8 2.353730 1_565
Cu0 S2 2.366577 1_555
Cu1 S1 2.328728 1_555
Cu1 S4 2.347554 1_545
Cu1 S14 2.353730 1_545
Cu1 S10 2.366577 1_555
Cu2 S13 2.328728 1_555
Cu2 S0 2.347554 1_655
Cu2 S5 2.353730 1_655
Cu2 S6 2.366577 1_555
Cu3 S6 2.346538 1_555
Cu3 S10 2.346538 1_555
Cu3 S14 2.353880 1_455
Cu3 S5 2.353880 1_565
Cu4 S9 2.328728 1_555
Cu4 S12 2.347554 1_455
Cu4 S15 2.353730 1_455
Cu4 S7 2.366577 1_555
Cu5 S2 2.346538 1_555
Cu5 S7 2.346538 1_555
Cu5 S15 2.353880 1_545
Cu5 S8 2.353880 1_655
