# generated using pymatgen
data_Ba2Eu2ZnPtO8
_symmetry_space_group_name_H-M   'P 1'
_cell_length_a   5.85260438
_cell_length_b   10.53612975
_cell_length_c   13.61798677
_cell_angle_alpha   90.00000000
_cell_angle_beta   90.00000000
_cell_angle_gamma   90.00000000
_symmetry_Int_Tables_number   1
_chemical_formula_structural   Ba2Eu2ZnPtO8
_chemical_formula_sum   'Ba8 Eu8 Zn4 Pt4 O32'
_cell_volume   839.73680065
_cell_formula_units_Z   4
loop_
 _symmetry_equiv_pos_site_id
 _symmetry_equiv_pos_as_xyz
  1  'x, y, z'
loop_
 _atom_site_type_symbol
 _atom_site_label
 _atom_site_symmetry_multiplicity
 _atom_site_fract_x
 _atom_site_fract_y
 _atom_site_fract_z
 _atom_site_occupancy
  Eu  Eu0  1  0.25000000  0.19041019  0.86003256  1
  Eu  Eu1  1  0.25000000  0.30958981  0.36003256  1
  Eu  Eu2  1  0.75000000  0.80958981  0.13996744  1
  Eu  Eu3  1  0.75000000  0.98710222  0.91833279  1
  Eu  Eu4  1  0.25000000  0.48710222  0.58166721  1
  Eu  Eu5  1  0.75000000  0.69041019  0.63996744  1
  Eu  Eu6  1  0.75000000  0.51289778  0.41833279  1
  Eu  Eu7  1  0.25000000  0.01289778  0.08166721  1
  Ba  Ba0  1  0.25000000  0.39887893  0.08261938  1
  Ba  Ba1  1  0.75000000  0.17721052  0.21520483  1
  Ba  Ba2  1  0.25000000  0.10112107  0.58261938  1
  Ba  Ba3  1  0.25000000  0.82278948  0.78479517  1
  Ba  Ba4  1  0.75000000  0.32278948  0.71520483  1
  Ba  Ba5  1  0.75000000  0.60112107  0.91738062  1
  Ba  Ba6  1  0.25000000  0.67721052  0.28479517  1
  Ba  Ba7  1  0.75000000  0.89887893  0.41738062  1
  Zn  Zn0  1  0.75000000  0.27841880  0.97389256  1
  Zn  Zn1  1  0.25000000  0.72158120  0.02610744  1
  Zn  Zn2  1  0.75000000  0.22158120  0.47389256  1
  Zn  Zn3  1  0.25000000  0.77841880  0.52610744  1
  Pt  Pt0  1  0.75000000  0.52790718  0.19218573  1
  Pt  Pt1  1  0.75000000  0.97209282  0.69218573  1
  Pt  Pt2  1  0.25000000  0.47209282  0.80781427  1
  Pt  Pt3  1  0.25000000  0.02790718  0.30781427  1
  O  O0  1  0.48945073  0.55927131  0.72320241  1
  O  O1  1  0.75000000  0.82206408  0.78949186  1
  O  O2  1  0.50583109  0.35731746  0.49477395  1
  O  O3  1  0.99485784  0.62362799  0.11157335  1
  O  O4  1  0.00583109  0.85731746  0.00522605  1
  O  O5  1  0.98945073  0.44072869  0.27679759  1
  O  O6  1  0.50514216  0.62362799  0.11157335  1
  O  O7  1  0.99416891  0.35731746  0.49477395  1
  O  O8  1  0.49485784  0.37637201  0.88842665  1
  O  O9  1  0.98945073  0.05927131  0.77679759  1
  O  O10  1  0.25000000  0.62067316  0.90359838  1
  O  O11  1  0.50514216  0.87637201  0.61157335  1
  O  O12  1  0.75000000  0.37932684  0.09640162  1
  O  O13  1  0.51054927  0.44072869  0.27679759  1
  O  O14  1  0.49416891  0.85731746  0.00522605  1
  O  O15  1  0.75000000  0.67793592  0.28949186  1
  O  O16  1  0.51054927  0.05927131  0.77679759  1
  O  O17  1  0.01054927  0.55927131  0.72320241  1
  O  O18  1  0.48945073  0.94072869  0.22320241  1
  O  O19  1  0.00583109  0.64268254  0.50522605  1
  O  O20  1  0.99485784  0.87637201  0.61157335  1
  O  O21  1  0.75000000  0.12067316  0.59640162  1
  O  O22  1  0.00514216  0.37637201  0.88842665  1
  O  O23  1  0.49416891  0.64268254  0.50522605  1
  O  O24  1  0.99416891  0.14268254  0.99477395  1
  O  O25  1  0.25000000  0.17793592  0.21050814  1
  O  O26  1  0.50583109  0.14268254  0.99477395  1
  O  O27  1  0.25000000  0.32206408  0.71050814  1
  O  O28  1  0.01054927  0.94072869  0.22320241  1
  O  O29  1  0.49485784  0.12362799  0.38842665  1
  O  O30  1  0.25000000  0.87932684  0.40359838  1
  O  O31  1  0.00514216  0.12362799  0.38842665  1
loop_
_geom_bond_atom_site_label_1
_geom_bond_atom_site_label_2
_geom_bond_distance
_geom_bond_site_symmetry_2
Eu0 O9 2.349295 1_455
Eu0 O16 2.349295 1_555
Eu0 O24 2.421073 1_455
Eu0 O26 2.421073 1_555
Eu0 O22 2.458066 1_555
Eu0 O8 2.458066 1_555
Eu0 O27 2.463799 1_555
Eu1 O5 2.349295 1_455
Eu1 O13 2.349295 1_555
Eu1 O7 2.421073 1_455
Eu1 O2 2.421073 1_555
Eu1 O29 2.458066 1_555
Eu1 O31 2.458066 1_555
Eu1 O25 2.463799 1_555
Eu2 O18 2.349295 1_555
Eu2 O28 2.349295 1_655
Eu2 O14 2.421073 1_555
Eu2 O4 2.421073 1_655
Eu2 O6 2.458066 1_555
Eu2 O3 2.458066 1_555
Eu2 O15 2.463799 1_555
Eu3 O4 2.347750 1_656
Eu3 O14 2.347750 1_556
Eu3 O26 2.410967 1_565
Eu3 O24 2.410967 1_565
Eu3 O1 2.470244 1_555
Eu3 O16 2.501419 1_565
Eu3 O9 2.501419 1_565
Eu4 O7 2.347750 1_455
Eu4 O2 2.347750 1_555
Eu4 O19 2.410967 1_555
Eu4 O23 2.410967 1_555
Eu4 O27 2.470244 1_555
Eu4 O17 2.501419 1_555
Eu4 O0 2.501419 1_555
Eu5 O17 2.349295 1_655
Eu5 O0 2.349295 1_555
Eu5 O19 2.421073 1_655
Eu5 O23 2.421073 1_555
Eu5 O11 2.458066 1_555
Eu5 O20 2.458066 1_555
Eu5 O1 2.463799 1_555
Eu6 O19 2.347750 1_655
Eu6 O23 2.347750 1_555
Eu6 O2 2.410967 1_555
Eu6 O7 2.410967 1_555
Eu6 O15 2.470244 1_555
Eu6 O13 2.501419 1_555
Eu6 O5 2.501419 1_555
Eu7 O24 2.347750 1_454
Eu7 O26 2.347750 1_554
Eu7 O4 2.410967 1_545
Eu7 O14 2.410967 1_545
Eu7 O25 2.470244 1_555
Eu7 O18 2.501419 1_545
Eu7 O28 2.501419 1_545
Ba0 O6 2.827120 1_555
Ba0 O3 2.827120 1_455
Ba0 O25 2.907262 1_555
Ba0 O12 2.939542 1_455
Ba0 O12 2.939542 1_555
Ba0 O8 3.017174 1_554
Ba0 O22 3.017174 1_554
Ba0 O5 3.084174 1_455
Ba0 O13 3.084174 1_555
Ba0 O24 3.310475 1_454
Ba0 O26 3.310475 1_554
Ba0 O10 3.377020 1_554
Ba1 O12 2.674387 1_555
Ba1 O31 2.848344 1_655
Ba1 O29 2.848344 1_555
Ba1 O18 2.923225 1_545
Ba1 O28 2.923225 1_645
Ba1 O25 2.927011 1_655
Ba1 O25 2.927011 1_555
Ba1 O13 3.221215 1_555
Ba1 O5 3.221215 1_555
Ba1 O24 3.344459 1_554
Ba1 O26 3.344459 1_554
Ba2 O11 2.827120 1_545
Ba2 O20 2.827120 1_445
Ba2 O27 2.907262 1_555
Ba2 O21 2.939542 1_455
Ba2 O21 2.939542 1_555
Ba2 O29 3.017174 1_555
Ba2 O31 3.017174 1_555
Ba2 O9 3.084174 1_455
Ba2 O16 3.084174 1_555
Ba2 O2 3.310475 1_555
Ba2 O7 3.310475 1_455
Ba2 O30 3.377020 1_545
Ba3 O10 2.674387 1_555
Ba3 O11 2.848344 1_555
Ba3 O20 2.848344 1_455
Ba3 O9 2.923225 1_465
Ba3 O16 2.923225 1_565
Ba3 O1 2.927011 1_555
Ba3 O1 2.927011 1_455
Ba3 O0 3.221215 1_555
Ba3 O17 3.221215 1_555
Ba3 O4 3.344459 1_556
Ba3 O14 3.344459 1_556
Ba4 O21 2.674387 1_555
Ba4 O22 2.848344 1_655
Ba4 O8 2.848344 1_555
Ba4 O17 2.923225 1_655
Ba4 O0 2.923225 1_555
Ba4 O27 2.927011 1_555
Ba4 O27 2.927011 1_655
Ba4 O16 3.221215 1_555
Ba4 O9 3.221215 1_555
Ba4 O7 3.344459 1_555
Ba4 O2 3.344459 1_555
Ba5 O22 2.827120 1_655
Ba5 O8 2.827120 1_555
Ba5 O1 2.907262 1_555
Ba5 O10 2.939542 1_655
Ba5 O10 2.939542 1_555
Ba5 O6 3.017174 1_556
Ba5 O3 3.017174 1_556
Ba5 O17 3.084174 1_655
Ba5 O0 3.084174 1_555
Ba5 O4 3.310475 1_656
Ba5 O14 3.310475 1_556
Ba5 O12 3.377020 1_556
Ba6 O30 2.674387 1_555
Ba6 O6 2.848344 1_555
Ba6 O3 2.848344 1_455
Ba6 O5 2.923225 1_455
Ba6 O13 2.923225 1_555
Ba6 O15 2.927011 1_455
Ba6 O15 2.927011 1_555
Ba6 O28 3.221215 1_555
Ba6 O18 3.221215 1_555
Ba6 O19 3.344459 1_555
Ba6 O23 3.344459 1_555
Ba7 O31 2.827120 1_665
Ba7 O29 2.827120 1_565
Ba7 O15 2.907262 1_555
Ba7 O30 2.939542 1_555
Ba7 O30 2.939542 1_655
Ba7 O11 3.017174 1_555
Ba7 O20 3.017174 1_555
Ba7 O18 3.084174 1_555
Ba7 O28 3.084174 1_655
Ba7 O19 3.310475 1_655
Ba7 O23 3.310475 1_555
Ba7 O21 3.377020 1_565
O0 Pt2 2.033544 1_555
O1 Pt1 2.062670 1_555
O2 Zn2 2.041631 1_555
O3 Pt0 2.067823 1_555
O3 Zn1 2.156272 1_655
O4 Zn1 2.041631 1_555
O5 Pt0 2.033544 1_555
O6 Pt0 2.067823 1_555
O6 Zn1 2.156272 1_555
O7 Zn2 2.041631 1_555
O8 Pt2 2.067823 1_555
O8 Zn0 2.156272 1_555
O9 Pt1 2.033544 1_545
O10 Zn1 1.978299 1_556
O10 Pt2 2.037669 1_555
O11 Pt1 2.067823 1_555
O11 Zn3 2.156272 1_555
O12 Zn0 1.978299 1_554
O12 Pt0 2.037669 1_555
O13 Pt0 2.033544 1_555
O14 Zn1 2.041631 1_555
O15 Pt0 2.062670 1_555
O16 Pt1 2.033544 1_545
O17 Pt2 2.033544 1_555
O18 Pt3 2.033544 1_565
O19 Zn3 2.041631 1_555
O20 Pt1 2.067823 1_555
O20 Zn3 2.156272 1_655
O21 Zn2 1.978299 1_555
O21 Pt1 2.037669 1_545
O22 Pt2 2.067823 1_555
O22 Zn0 2.156272 1_455
O23 Zn3 2.041631 1_555
O24 Zn0 2.041631 1_555
O25 Pt3 2.062670 1_555
O26 Zn0 2.041631 1_555
O27 Pt2 2.062670 1_555
O28 Pt3 2.033544 1_565
O29 Pt3 2.067823 1_555
O29 Zn2 2.156272 1_555
O30 Zn3 1.978299 1_555
O30 Pt3 2.037669 1_565
O31 Pt3 2.067823 1_555
O31 Zn2 2.156272 1_455
