# generated using pymatgen
data_TlPAuSe3
_symmetry_space_group_name_H-M   'P 1'
_cell_length_a   7.24041849
_cell_length_b   7.24041849
_cell_length_c   8.44251383
_cell_angle_alpha   64.59435067
_cell_angle_beta   64.59435067
_cell_angle_gamma   60.98240125
_symmetry_Int_Tables_number   1
_chemical_formula_structural   TlPAuSe3
_chemical_formula_sum   'Tl2 P2 Au2 Se6'
_cell_volume   335.65067346
_cell_formula_units_Z   2
loop_
 _symmetry_equiv_pos_site_id
 _symmetry_equiv_pos_as_xyz
  1  'x, y, z'
loop_
 _atom_site_type_symbol
 _atom_site_label
 _atom_site_symmetry_multiplicity
 _atom_site_fract_x
 _atom_site_fract_y
 _atom_site_fract_z
 _atom_site_occupancy
  Tl  Tl0  1  0.71503300  0.71503300  0.23014900  1
  Tl  Tl1  1  0.28496700  0.28496700  0.76985100  1
  P  P0  1  0.96823200  0.96823200  0.65288200  1
  P  P1  1  0.03176800  0.03176800  0.34711800  1
  Au  Au0  1  0.76167900  0.23832100  0.00000000  1
  Au  Au1  1  0.23832100  0.76167900  0.00000000  1
  Se  Se0  1  0.23274700  0.23274700  0.18898200  1
  Se  Se1  1  0.19094100  0.68472400  0.32496400  1
  Se  Se2  1  0.76725300  0.76725300  0.81101800  1
  Se  Se3  1  0.80905900  0.31527600  0.67503600  1
  Se  Se4  1  0.68472400  0.19094100  0.32496400  1
  Se  Se5  1  0.31527600  0.80905900  0.67503600  1
loop_
_geom_bond_atom_site_label_1
_geom_bond_atom_site_label_2
_geom_bond_distance
_geom_bond_site_symmetry_2
P0 Se2 2.176657 1_555
P0 Se5 2.255197 1_655
P0 Se3 2.255197 1_565
P0 P1 2.292241 1_665
P1 Se0 2.176657 1_555
P1 Se4 2.255197 1_455
P1 Se1 2.255197 1_545
Au0 Se3 2.453818 1_554
Au0 Se4 2.453818 1_555
Au1 Se5 2.453818 1_554
Au1 Se1 2.453818 1_555
Se0 Tl1 3.263397 1_554
Se2 Tl0 3.263397 1_556
