# generated using pymatgen
data_Sm2Ta2Cl2O7
_symmetry_space_group_name_H-M   'P 1'
_cell_length_a   7.97808438
_cell_length_b   7.97808438
_cell_length_c   6.92091165
_cell_angle_alpha   66.83059940
_cell_angle_beta   66.83059940
_cell_angle_gamma   28.56964495
_symmetry_Int_Tables_number   1
_chemical_formula_structural   Sm2Ta2Cl2O7
_chemical_formula_sum   'Sm2 Ta2 Cl2 O7'
_cell_volume   192.52153802
_cell_formula_units_Z   1
loop_
 _symmetry_equiv_pos_site_id
 _symmetry_equiv_pos_as_xyz
  1  'x, y, z'
loop_
 _atom_site_type_symbol
 _atom_site_label
 _atom_site_symmetry_multiplicity
 _atom_site_fract_x
 _atom_site_fract_y
 _atom_site_fract_z
 _atom_site_occupancy
  Sm  Sm0  1  0.30666200  0.30666200  0.16318300  1
  Sm  Sm1  1  0.69333800  0.69333800  0.83681700  1
  Ta  Ta0  1  0.96504700  0.96504700  0.80029900  1
  Ta  Ta1  1  0.03495300  0.03495300  0.19970100  1
  Cl  Cl0  1  0.68005600  0.68005600  0.43434000  1
  Cl  Cl1  1  0.31994400  0.31994400  0.56566000  1
  O  O0  1  0.45325200  0.45325200  0.83993600  1
  O  O1  1  0.54674800  0.54674800  0.16006400  1
  O  O2  1  0.91786600  0.91786600  0.15437700  1
  O  O3  1  0.00000000  0.00000000  0.50000000  1
  O  O4  1  0.82367900  0.82367900  0.93305600  1
  O  O5  1  0.08213400  0.08213400  0.84562300  1
  O  O6  1  0.17632100  0.17632100  0.06694400  1
loop_
_geom_bond_atom_site_label_1
_geom_bond_atom_site_label_2
_geom_bond_distance
_geom_bond_site_symmetry_2
Cl0 Sm0 2.871627 1_565
Cl0 Sm0 2.871627 1_655
Cl0 Sm1 2.875025 1_555
Cl1 Sm1 2.871627 1_545
Cl1 Sm1 2.871627 1_455
Cl1 Sm0 2.875025 1_555
O0 Ta0 1.985700 1_545
O0 Ta0 1.985700 1_455
O0 Sm0 2.454616 1_556
O1 Ta1 1.985700 1_565
O1 Ta1 1.985700 1_655
O1 Sm1 2.454616 1_554
O2 Ta1 1.958941 1_665
O2 Ta0 2.255149 1_554
O2 Sm0 2.598174 1_565
O2 Sm0 2.598174 1_655
O3 Ta0 1.923409 1_445
O3 Ta1 1.923409 1_555
O4 Ta0 1.997920 1_555
O4 Sm1 2.365519 1_555
O4 Sm0 2.478045 1_656
O4 Sm0 2.478045 1_566
O5 Ta0 1.958941 1_445
O5 Ta1 2.255149 1_556
O5 Sm1 2.598174 1_545
O5 Sm1 2.598174 1_455
O6 Ta1 1.997920 1_555
O6 Sm0 2.365519 1_555
O6 Sm1 2.478045 1_454
O6 Sm1 2.478045 1_544
