# generated using pymatgen
data_Cs2LiF3
_symmetry_space_group_name_H-M   'P 1'
_cell_length_a   11.04901698
_cell_length_b   11.04901698
_cell_length_c   6.19181500
_cell_angle_alpha   90.00000000
_cell_angle_beta   90.00000000
_cell_angle_gamma   159.83620519
_symmetry_Int_Tables_number   1
_chemical_formula_structural   Cs2LiF3
_chemical_formula_sum   'Cs4 Li2 F6'
_cell_volume   260.56312749
_cell_formula_units_Z   2
loop_
 _symmetry_equiv_pos_site_id
 _symmetry_equiv_pos_as_xyz
  1  'x, y, z'
loop_
 _atom_site_type_symbol
 _atom_site_label
 _atom_site_symmetry_multiplicity
 _atom_site_fract_x
 _atom_site_fract_y
 _atom_site_fract_z
 _atom_site_occupancy
  Cs  Cs0  1  0.79839600  0.20160400  0.75000000  1
  Cs  Cs1  1  0.20160400  0.79839600  0.25000000  1
  Cs  Cs2  1  0.41578300  0.58421700  0.25000000  1
  Cs  Cs3  1  0.58421700  0.41578300  0.75000000  1
  Li  Li0  1  0.95281000  0.04719000  0.75000000  1
  Li  Li1  1  0.04719000  0.95281000  0.25000000  1
  F  F0  1  0.59115900  0.40884100  0.25000000  1
  F  F1  1  0.00000000  0.00000000  0.00000000  1
  F  F2  1  0.19766500  0.80233500  0.75000000  1
  F  F3  1  0.40884100  0.59115900  0.75000000  1
  F  F4  1  0.00000000  0.00000000  0.50000000  1
  F  F5  1  0.80233500  0.19766500  0.25000000  1
loop_
_geom_bond_atom_site_label_1
_geom_bond_atom_site_label_2
_geom_bond_distance
_geom_bond_site_symmetry_2
Cs0 F2 2.923037 1_655
Cs0 F2 2.923037 1_545
Cs0 F3 3.084668 1_655
Cs0 F3 3.084668 1_545
Cs0 F5 3.097093 1_555
Cs0 F5 3.097093 1_556
Cs1 F5 2.923037 1_565
Cs1 F5 2.923037 1_455
Cs1 F0 3.084668 1_565
Cs1 F0 3.084668 1_455
Cs1 F2 3.097093 1_554
Cs1 F2 3.097093 1_555
Cs2 F4 3.081325 1_555
Cs2 F1 3.081325 1_555
Cs2 F4 3.081325 1_665
Cs2 F1 3.081325 1_665
Cs2 F3 3.099589 1_554
Cs2 F3 3.099589 1_555
Cs2 F5 3.135832 1_565
Cs2 F5 3.135832 1_455
Cs3 F4 3.081325 1_555
Cs3 F1 3.081325 1_556
Cs3 F1 3.081325 1_666
Cs3 F4 3.081325 1_665
Cs3 F0 3.099589 1_556
Cs3 F0 3.099589 1_555
Cs3 F2 3.135832 1_655
Cs3 F2 3.135832 1_545
F0 Li1 2.157831 1_545
F0 Li1 2.157831 1_655
F1 Li0 1.857493 1_454
F1 Li1 1.857493 1_545
F3 Li0 2.157831 1_455
F3 Li0 2.157831 1_565
F4 Li0 1.857493 1_455
F4 Li1 1.857493 1_545
