# generated using pymatgen
data_Na24In5O15
_symmetry_space_group_name_H-M   'P 1'
_cell_length_a   9.76182450
_cell_length_b   9.76182450
_cell_length_c   9.76182450
_cell_angle_alpha   109.47122063
_cell_angle_beta   109.47122063
_cell_angle_gamma   109.47122063
_symmetry_Int_Tables_number   1
_chemical_formula_structural   Na24In5O15
_chemical_formula_sum   'Na24 In5 O15'
_cell_volume   716.09574844
_cell_formula_units_Z   1
loop_
 _symmetry_equiv_pos_site_id
 _symmetry_equiv_pos_as_xyz
  1  'x, y, z'
loop_
 _atom_site_type_symbol
 _atom_site_label
 _atom_site_symmetry_multiplicity
 _atom_site_fract_x
 _atom_site_fract_y
 _atom_site_fract_z
 _atom_site_occupancy
  Na  Na0  1  0.00000000  0.28213100  0.54745400  1
  Na  Na1  1  0.78419800  0.56678200  0.00000000  1
  Na  Na2  1  0.21741600  0.43321800  0.43321800  1
  Na  Na3  1  0.78419800  0.00000000  0.56678200  1
  Na  Na4  1  0.78258400  0.21580200  0.21580200  1
  Na  Na5  1  0.21580200  0.21580200  0.78258400  1
  Na  Na6  1  0.43321800  0.21741600  0.43321800  1
  Na  Na7  1  0.56678200  0.00000000  0.78419800  1
  Na  Na8  1  0.00000000  0.78419800  0.56678200  1
  Na  Na9  1  0.00000000  0.56678200  0.78419800  1
  Na  Na10  1  0.28213100  0.54745400  0.00000000  1
  Na  Na11  1  0.26532400  0.71786900  0.71786900  1
  Na  Na12  1  0.45254600  0.73467600  0.45254600  1
  Na  Na13  1  0.00000000  0.54745400  0.28213100  1
  Na  Na14  1  0.71786900  0.71786900  0.26532400  1
  Na  Na15  1  0.21580200  0.78258400  0.21580200  1
  Na  Na16  1  0.54745400  0.00000000  0.28213100  1
  Na  Na17  1  0.71786900  0.26532400  0.71786900  1
  Na  Na18  1  0.56678200  0.78419800  0.00000000  1
  Na  Na19  1  0.43321800  0.43321800  0.21741600  1
  Na  Na20  1  0.54745400  0.28213100  0.00000000  1
  Na  Na21  1  0.45254600  0.45254600  0.73467600  1
  Na  Na22  1  0.28213100  0.00000000  0.54745400  1
  Na  Na23  1  0.73467600  0.45254600  0.45254600  1
  In  In0  1  0.71260700  0.71260700  0.71260700  1
  In  In1  1  0.00000000  0.28739300  0.00000000  1
  In  In2  1  0.00000000  0.00000000  0.28739300  1
  In  In3  1  0.00000000  0.00000000  0.00000000  1
  In  In4  1  0.28739300  0.00000000  0.00000000  1
  O  O0  1  0.21368000  0.21368000  0.52157000  1
  O  O1  1  0.78632000  0.30789000  0.00000000  1
  O  O2  1  0.00000000  0.50000000  0.50000000  1
  O  O3  1  0.47843000  0.69211000  0.69211000  1
  O  O4  1  0.69211000  0.47843000  0.69211000  1
  O  O5  1  0.52157000  0.21368000  0.21368000  1
  O  O6  1  0.30789000  0.00000000  0.78632000  1
  O  O7  1  0.00000000  0.78632000  0.30789000  1
  O  O8  1  0.30789000  0.78632000  0.00000000  1
  O  O9  1  0.00000000  0.30789000  0.78632000  1
  O  O10  1  0.78632000  0.00000000  0.30789000  1
  O  O11  1  0.69211000  0.69211000  0.47843000  1
  O  O12  1  0.21368000  0.52157000  0.21368000  1
  O  O13  1  0.50000000  0.50000000  0.00000000  1
  O  O14  1  0.50000000  0.00000000  0.50000000  1
loop_
_geom_bond_atom_site_label_1
_geom_bond_atom_site_label_2
_geom_bond_distance
_geom_bond_site_symmetry_2
Na0 O9 2.260416 1_555
Na0 O2 2.322643 1_555
Na0 O0 2.455478 1_555
Na0 O10 2.455478 1_455
Na1 O1 2.534238 1_555
Na1 O7 2.557175 1_655
Na1 O4 2.557175 1_554
Na1 O13 2.629819 1_555
Na2 O3 2.534238 1_555
Na2 O12 2.557175 1_555
Na2 O0 2.557175 1_555
Na2 O2 2.629819 1_555
Na3 O10 2.534238 1_555
Na3 O11 2.557175 1_545
Na3 O9 2.557175 1_655
Na3 O14 2.629819 1_555
Na4 O5 2.534238 1_555
Na4 O1 2.557175 1_555
Na4 O10 2.557175 1_555
Na4 O2 2.629819 1_655
Na5 O0 2.534238 1_555
Na5 O9 2.557175 1_555
Na5 O6 2.557175 1_555
Na5 O13 2.629819 1_556
Na6 O4 2.534238 1_555
Na6 O5 2.557175 1_555
Na6 O0 2.557175 1_555
Na6 O14 2.629819 1_555
Na7 O6 2.534238 1_555
Na7 O3 2.557175 1_545
Na7 O1 2.557175 1_556
Na7 O14 2.629819 1_555
Na8 O7 2.534238 1_555
Na8 O6 2.557175 1_565
Na8 O11 2.557175 1_455
Na8 O2 2.629819 1_555
Na9 O9 2.534238 1_555
Na9 O8 2.557175 1_556
Na9 O4 2.557175 1_455
Na9 O2 2.629819 1_555
Na10 O8 2.260416 1_555
Na10 O13 2.322643 1_555
Na10 O12 2.455478 1_555
Na10 O9 2.455478 1_554
Na11 O3 2.260407 1_555
Na11 O2 2.322648 1_555
Na11 O8 2.455481 1_556
Na11 O6 2.455481 1_565
Na12 O12 2.260414 1_555
Na12 O14 2.322653 1_565
Na12 O3 2.455473 1_555
Na12 O11 2.455473 1_555
Na13 O7 2.260416 1_555
Na13 O2 2.322643 1_555
Na13 O1 2.455478 1_455
Na13 O12 2.455478 1_555
Na14 O11 2.260407 1_555
Na14 O13 2.322648 1_555
Na14 O10 2.455481 1_565
Na14 O7 2.455481 1_655
Na15 O12 2.534238 1_555
Na15 O7 2.557175 1_555
Na15 O8 2.557175 1_555
Na15 O14 2.629819 1_565
Na16 O10 2.260416 1_555
Na16 O14 2.322643 1_555
Na16 O8 2.455478 1_545
Na16 O5 2.455478 1_555
Na17 O4 2.260407 1_555
Na17 O14 2.322648 1_555
Na17 O9 2.455481 1_655
Na17 O1 2.455481 1_556
Na18 O8 2.534238 1_555
Na18 O10 2.557175 1_565
Na18 O3 2.557175 1_554
Na18 O13 2.629819 1_555
Na19 O11 2.534238 1_555
Na19 O5 2.557175 1_555
Na19 O12 2.557175 1_555
Na19 O13 2.629819 1_555
Na20 O1 2.260416 1_555
Na20 O13 2.322643 1_555
Na20 O6 2.455478 1_554
Na20 O5 2.455478 1_555
Na21 O0 2.260414 1_555
Na21 O13 2.322653 1_556
Na21 O4 2.455473 1_555
Na21 O3 2.455473 1_555
Na22 O6 2.260416 1_555
Na22 O14 2.322643 1_555
Na22 O7 2.455478 1_545
Na22 O0 2.455478 1_555
Na23 O5 2.260414 1_555
Na23 O2 2.322653 1_655
Na23 O4 2.455473 1_555
Na23 O11 2.455473 1_555
In0 O11 2.160853 1_555
In0 O4 2.160853 1_555
In0 O3 2.160853 1_555
In0 In3 2.805480 1_666
In1 O9 2.160853 1_554
In1 O1 2.160853 1_455
In1 O12 2.160853 1_555
In1 In3 2.805480 1_555
In2 O7 2.160853 1_545
In2 O10 2.160853 1_455
In2 O0 2.160853 1_555
In2 In3 2.805480 1_555
In3 In4 2.805480 1_555
In4 O8 2.160853 1_545
In4 O6 2.160853 1_554
In4 O5 2.160853 1_555
