# generated using pymatgen
data_KCrF4
_symmetry_space_group_name_H-M   'P 1'
_cell_length_a   7.58426400
_cell_length_b   16.07602800
_cell_length_c   18.71052500
_cell_angle_alpha   90.00000000
_cell_angle_beta   90.00000000
_cell_angle_gamma   90.00000000
_symmetry_Int_Tables_number   1
_chemical_formula_structural   KCrF4
_chemical_formula_sum   'K24 Cr24 F96'
_cell_volume   2281.27777486
_cell_formula_units_Z   24
loop_
 _symmetry_equiv_pos_site_id
 _symmetry_equiv_pos_as_xyz
  1  'x, y, z'
loop_
 _atom_site_type_symbol
 _atom_site_label
 _atom_site_symmetry_multiplicity
 _atom_site_fract_x
 _atom_site_fract_y
 _atom_site_fract_z
 _atom_site_occupancy
  K  K0  1  0.75000000  0.54319900  0.96843700  1
  K  K1  1  0.25000000  0.45680100  0.03156300  1
  K  K2  1  0.75000000  0.04319900  0.53156300  1
  K  K3  1  0.25000000  0.95680100  0.46843700  1
  K  K4  1  0.25000000  0.03932000  0.02319500  1
  K  K5  1  0.75000000  0.96068000  0.97680500  1
  K  K6  1  0.25000000  0.53932000  0.47680500  1
  K  K7  1  0.75000000  0.46068000  0.52319500  1
  K  K8  1  0.25000000  0.06980300  0.67986900  1
  K  K9  1  0.75000000  0.93019700  0.32013100  1
  K  K10  1  0.25000000  0.56980300  0.82013100  1
  K  K11  1  0.75000000  0.43019700  0.17986900  1
  K  K12  1  0.25000000  0.39910400  0.66567100  1
  K  K13  1  0.75000000  0.60089600  0.33432900  1
  K  K14  1  0.25000000  0.89910400  0.83432900  1
  K  K15  1  0.75000000  0.10089600  0.16567100  1
  K  K16  1  0.25000000  0.28187800  0.21022200  1
  K  K17  1  0.75000000  0.71812200  0.78977800  1
  K  K18  1  0.25000000  0.78187800  0.28977800  1
  K  K19  1  0.75000000  0.21812200  0.71022200  1
  K  K20  1  0.75000000  0.45942200  0.71470200  1
  K  K21  1  0.25000000  0.54057800  0.28529800  1
  K  K22  1  0.75000000  0.95942200  0.78529800  1
  K  K23  1  0.25000000  0.04057800  0.21470200  1
  Cr  Cr0  1  0.49928800  0.13180700  0.86898000  1
  Cr  Cr1  1  0.99928800  0.86819300  0.13102000  1
  Cr  Cr2  1  0.00071200  0.63180700  0.63102000  1
  Cr  Cr3  1  0.50071200  0.36819300  0.36898000  1
  Cr  Cr4  1  0.50071200  0.86819300  0.13102000  1
  Cr  Cr5  1  0.00071200  0.13180700  0.86898000  1
  Cr  Cr6  1  0.99928800  0.36819300  0.36898000  1
  Cr  Cr7  1  0.49928800  0.63180700  0.63102000  1
  Cr  Cr8  1  0.49797300  0.36405700  0.87379000  1
  Cr  Cr9  1  0.99797300  0.63594300  0.12621000  1
  Cr  Cr10  1  0.00202700  0.86405700  0.62621000  1
  Cr  Cr11  1  0.50202700  0.13594300  0.37379000  1
  Cr  Cr12  1  0.50202700  0.63594300  0.12621000  1
  Cr  Cr13  1  0.00202700  0.36405700  0.87379000  1
  Cr  Cr14  1  0.99797300  0.13594300  0.37379000  1
  Cr  Cr15  1  0.49797300  0.86405700  0.62621000  1
  Cr  Cr16  1  0.49904600  0.24722500  0.04697300  1
  Cr  Cr17  1  0.99904600  0.75277500  0.95302700  1
  Cr  Cr18  1  0.00095400  0.74722500  0.45302700  1
  Cr  Cr19  1  0.50095400  0.25277500  0.54697300  1
  Cr  Cr20  1  0.50095400  0.75277500  0.95302700  1
  Cr  Cr21  1  0.00095400  0.24722500  0.04697300  1
  Cr  Cr22  1  0.99904600  0.25277500  0.54697300  1
  Cr  Cr23  1  0.49904600  0.74722500  0.45302700  1
  F  F0  1  0.54104700  0.09689700  0.77354000  1
  F  F1  1  0.04104700  0.90310300  0.22646000  1
  F  F2  1  0.95895300  0.59689700  0.72646000  1
  F  F3  1  0.45895300  0.40310300  0.27354000  1
  F  F4  1  0.45895300  0.90310300  0.22646000  1
  F  F5  1  0.95895300  0.09689700  0.77354000  1
  F  F6  1  0.04104700  0.40310300  0.27354000  1
  F  F7  1  0.54104700  0.59689700  0.72646000  1
  F  F8  1  0.45842000  0.16364500  0.96996300  1
  F  F9  1  0.95842000  0.83635500  0.03003700  1
  F  F10  1  0.04158000  0.66364500  0.53003700  1
  F  F11  1  0.54158000  0.33635500  0.46996300  1
  F  F12  1  0.54158000  0.83635500  0.03003700  1
  F  F13  1  0.04158000  0.16364500  0.96996300  1
  F  F14  1  0.95842000  0.33635500  0.46996300  1
  F  F15  1  0.45842000  0.66364500  0.53003700  1
  F  F16  1  0.46149600  0.01935500  0.89911400  1
  F  F17  1  0.96149600  0.98064500  0.10088600  1
  F  F18  1  0.03850400  0.51935500  0.60088600  1
  F  F19  1  0.53850400  0.48064500  0.39911400  1
  F  F20  1  0.53850400  0.98064500  0.10088600  1
  F  F21  1  0.03850400  0.01935500  0.89911400  1
  F  F22  1  0.96149600  0.48064500  0.39911400  1
  F  F23  1  0.46149600  0.51935500  0.60088600  1
  F  F24  1  0.54881300  0.24836900  0.84005000  1
  F  F25  1  0.04881300  0.75163100  0.15995000  1
  F  F26  1  0.95118700  0.74836900  0.65995000  1
  F  F27  1  0.45118700  0.25163100  0.34005000  1
  F  F28  1  0.45118700  0.75163100  0.15995000  1
  F  F29  1  0.95118700  0.24836900  0.84005000  1
  F  F30  1  0.04881300  0.25163100  0.34005000  1
  F  F31  1  0.54881300  0.74836900  0.65995000  1
  F  F32  1  0.46030800  0.39900100  0.77801900  1
  F  F33  1  0.96030800  0.60099900  0.22198100  1
  F  F34  1  0.03969200  0.89900100  0.72198100  1
  F  F35  1  0.53969200  0.10099900  0.27801900  1
  F  F36  1  0.53969200  0.60099900  0.22198100  1
  F  F37  1  0.03969200  0.39900100  0.77801900  1
  F  F38  1  0.96030800  0.10099900  0.27801900  1
  F  F39  1  0.46030800  0.89900100  0.72198100  1
  F  F40  1  0.75000000  0.11390300  0.89360700  1
  F  F41  1  0.25000000  0.88609700  0.10639300  1
  F  F42  1  0.75000000  0.61390300  0.60639300  1
  F  F43  1  0.25000000  0.38609700  0.39360700  1
  F  F44  1  0.75000000  0.39379000  0.85966500  1
  F  F45  1  0.25000000  0.60621000  0.14033500  1
  F  F46  1  0.75000000  0.89379000  0.64033500  1
  F  F47  1  0.25000000  0.10621000  0.35966500  1
  F  F48  1  0.25000000  0.14771900  0.84519300  1
  F  F49  1  0.75000000  0.85228100  0.15480700  1
  F  F50  1  0.25000000  0.64771900  0.65480700  1
  F  F51  1  0.75000000  0.35228100  0.34519300  1
  F  F52  1  0.25000000  0.33351100  0.88880800  1
  F  F53  1  0.75000000  0.66648900  0.11119200  1
  F  F54  1  0.25000000  0.83351100  0.61119200  1
  F  F55  1  0.75000000  0.16648900  0.38880800  1
  F  F56  1  0.45744100  0.47323800  0.90935300  1
  F  F57  1  0.95744100  0.52676200  0.09064700  1
  F  F58  1  0.04255900  0.97323800  0.59064700  1
  F  F59  1  0.54255900  0.02676200  0.40935300  1
  F  F60  1  0.54255900  0.52676200  0.09064700  1
  F  F61  1  0.04255900  0.47323800  0.90935300  1
  F  F62  1  0.95744100  0.02676200  0.40935300  1
  F  F63  1  0.45744100  0.97323800  0.59064700  1
  F  F64  1  0.25000000  0.28120800  0.03915500  1
  F  F65  1  0.75000000  0.71879200  0.96084500  1
  F  F66  1  0.25000000  0.78120800  0.46084500  1
  F  F67  1  0.75000000  0.21879200  0.53915500  1
  F  F68  1  0.44211500  0.16373400  0.11577800  1
  F  F69  1  0.94211500  0.83626600  0.88422200  1
  F  F70  1  0.05788500  0.66373400  0.38422200  1
  F  F71  1  0.55788500  0.33626600  0.61577800  1
  F  F72  1  0.55788500  0.83626600  0.88422200  1
  F  F73  1  0.05788500  0.16373400  0.11577800  1
  F  F74  1  0.94211500  0.33626600  0.61577800  1
  F  F75  1  0.44211500  0.66373400  0.38422200  1
  F  F76  1  0.55203200  0.33197700  0.97371900  1
  F  F77  1  0.05203200  0.66802300  0.02628100  1
  F  F78  1  0.94796800  0.83197700  0.52628100  1
  F  F79  1  0.44796800  0.16802300  0.47371900  1
  F  F80  1  0.44796800  0.66802300  0.02628100  1
  F  F81  1  0.94796800  0.33197700  0.97371900  1
  F  F82  1  0.05203200  0.16802300  0.47371900  1
  F  F83  1  0.55203200  0.83197700  0.52628100  1
  F  F84  1  0.51963100  0.32788200  0.11980600  1
  F  F85  1  0.01963100  0.67211800  0.88019400  1
  F  F86  1  0.98036900  0.82788200  0.38019400  1
  F  F87  1  0.48036900  0.17211800  0.61980600  1
  F  F88  1  0.48036900  0.67211800  0.88019400  1
  F  F89  1  0.98036900  0.32788200  0.11980600  1
  F  F90  1  0.01963100  0.17211800  0.61980600  1
  F  F91  1  0.51963100  0.82788200  0.38019400  1
  F  F92  1  0.75000000  0.21327600  0.05246800  1
  F  F93  1  0.25000000  0.78672400  0.94753200  1
  F  F94  1  0.75000000  0.71327600  0.44753200  1
  F  F95  1  0.25000000  0.28672400  0.55246800  1
loop_
_geom_bond_atom_site_label_1
_geom_bond_atom_site_label_2
_geom_bond_distance
_geom_bond_site_symmetry_2
Cr0 F0 1.898449 1_555
Cr0 F16 1.915235 1_555
Cr0 F48 1.959116 1_555
Cr0 F40 1.977559 1_555
Cr0 F8 1.981929 1_555
Cr0 F24 1.986306 1_555
Cr1 F1 1.898449 1_655
Cr1 F17 1.915235 1_555
Cr1 F49 1.959116 1_555
Cr1 F41 1.977559 1_655
Cr1 F9 1.981929 1_555
Cr1 F25 1.986306 1_655
Cr2 F2 1.898449 1_455
Cr2 F18 1.915235 1_555
Cr2 F50 1.959116 1_555
Cr2 F42 1.977559 1_455
Cr2 F10 1.981929 1_555
Cr2 F26 1.986306 1_455
Cr3 F3 1.898449 1_555
Cr3 F19 1.915235 1_555
Cr3 F51 1.959116 1_555
Cr3 F43 1.977559 1_555
Cr3 F11 1.981929 1_555
Cr3 F27 1.986306 1_555
Cr4 F4 1.898449 1_555
Cr4 F20 1.915235 1_555
Cr4 F49 1.959116 1_555
Cr4 F41 1.977559 1_555
Cr4 F12 1.981929 1_555
Cr4 F28 1.986306 1_555
Cr5 F5 1.898449 1_455
Cr5 F21 1.915235 1_555
Cr5 F48 1.959116 1_555
Cr5 F40 1.977559 1_455
Cr5 F13 1.981929 1_555
Cr5 F29 1.986306 1_455
Cr6 F6 1.898449 1_655
Cr6 F22 1.915235 1_555
Cr6 F51 1.959116 1_555
Cr6 F43 1.977559 1_655
Cr6 F14 1.981929 1_555
Cr6 F30 1.986306 1_655
Cr7 F7 1.898449 1_555
Cr7 F23 1.915235 1_555
Cr7 F50 1.959116 1_555
Cr7 F42 1.977559 1_555
Cr7 F15 1.981929 1_555
Cr7 F31 1.986306 1_555
Cr8 F32 1.899520 1_555
Cr8 F56 1.902097 1_555
Cr8 F52 1.963950 1_555
Cr8 F76 1.982406 1_555
Cr8 F44 1.987944 1_555
Cr8 F24 2.001518 1_555
Cr9 F33 1.899520 1_555
Cr9 F57 1.902097 1_555
Cr9 F53 1.963950 1_555
Cr9 F77 1.982406 1_655
Cr9 F45 1.987944 1_655
Cr9 F25 2.001518 1_655
Cr10 F34 1.899520 1_555
Cr10 F58 1.902097 1_555
Cr10 F54 1.963950 1_555
Cr10 F78 1.982406 1_455
Cr10 F46 1.987944 1_455
Cr10 F26 2.001518 1_455
Cr11 F35 1.899520 1_555
Cr11 F59 1.902097 1_555
Cr11 F55 1.963950 1_555
Cr11 F79 1.982406 1_555
Cr11 F47 1.987944 1_555
Cr11 F27 2.001518 1_555
Cr12 F36 1.899520 1_555
Cr12 F60 1.902097 1_555
Cr12 F53 1.963950 1_555
Cr12 F80 1.982406 1_555
Cr12 F45 1.987944 1_555
Cr12 F28 2.001518 1_555
Cr13 F37 1.899520 1_555
Cr13 F61 1.902097 1_555
Cr13 F52 1.963950 1_555
Cr13 F81 1.982406 1_455
Cr13 F44 1.987944 1_455
Cr13 F29 2.001518 1_455
Cr14 F38 1.899520 1_555
Cr14 F62 1.902097 1_555
Cr14 F55 1.963950 1_555
Cr14 F82 1.982406 1_655
Cr14 F47 1.987944 1_655
Cr14 F30 2.001518 1_655
Cr15 F39 1.899520 1_555
Cr15 F63 1.902097 1_555
Cr15 F54 1.963950 1_555
Cr15 F83 1.982406 1_555
Cr15 F46 1.987944 1_555
Cr15 F31 2.001518 1_555
Cr16 F84 1.887520 1_555
Cr16 F68 1.909263 1_555
Cr16 F64 1.971683 1_555
Cr16 F76 1.973938 1_554
Cr16 F92 1.982672 1_555
Cr16 F8 1.994110 1_554
Cr17 F85 1.887520 1_655
Cr17 F69 1.909263 1_555
Cr17 F65 1.971683 1_555
Cr17 F77 1.973938 1_656
Cr17 F93 1.982672 1_655
Cr17 F9 1.994110 1_556
Cr18 F86 1.887520 1_455
Cr18 F70 1.909263 1_555
Cr18 F66 1.971683 1_555
Cr18 F78 1.973938 1_455
Cr18 F94 1.982672 1_455
Cr18 F10 1.994110 1_555
Cr19 F87 1.887520 1_555
Cr19 F71 1.909263 1_555
Cr19 F67 1.971683 1_555
Cr19 F79 1.973938 1_555
Cr19 F95 1.982672 1_555
Cr19 F11 1.994110 1_555
Cr20 F88 1.887520 1_555
Cr20 F72 1.909263 1_555
Cr20 F65 1.971683 1_555
Cr20 F80 1.973938 1_556
Cr20 F93 1.982672 1_555
Cr20 F12 1.994110 1_556
Cr21 F89 1.887520 1_455
Cr21 F73 1.909263 1_555
Cr21 F64 1.971683 1_555
Cr21 F81 1.973938 1_454
Cr21 F92 1.982672 1_455
Cr21 F13 1.994110 1_554
Cr22 F90 1.887520 1_655
Cr22 F74 1.909263 1_555
Cr22 F67 1.971683 1_555
Cr22 F82 1.973938 1_655
Cr22 F95 1.982672 1_655
Cr22 F14 1.994110 1_555
Cr23 F91 1.887520 1_555
Cr23 F75 1.909263 1_555
Cr23 F66 1.971683 1_555
Cr23 F83 1.973938 1_555
Cr23 F94 1.982672 1_555
Cr23 F15 1.994110 1_555
F0 K22 2.728402 1_545
F0 K19 2.777207 1_555
F0 K8 2.852009 1_555
F1 K23 2.728402 1_565
F1 K18 2.777207 1_555
F1 K9 2.852009 1_455
F2 K20 2.728402 1_555
F2 K17 2.777207 1_555
F2 K10 2.852009 1_655
F3 K21 2.728402 1_555
F3 K16 2.777207 1_555
F3 K11 2.852009 1_555
F4 K23 2.728402 1_565
F4 K18 2.777207 1_555
F4 K9 2.852009 1_555
F5 K22 2.728402 1_545
F5 K19 2.777207 1_555
F5 K8 2.852009 1_655
F6 K21 2.728402 1_555
F6 K16 2.777207 1_555
F6 K11 2.852009 1_455
F7 K20 2.728402 1_555
F7 K17 2.777207 1_555
F7 K10 2.852009 1_555
F8 K4 2.735923 1_556
F9 K5 2.735923 1_554
F10 K6 2.735923 1_555
F11 K7 2.735923 1_555
F12 K5 2.735923 1_554
F13 K4 2.735923 1_556
F14 K7 2.735923 1_555
F15 K6 2.735923 1_555
F16 K14 2.789155 1_545
F16 K5 2.791155 1_545
F16 K4 2.840050 1_556
F16 K22 3.201727 1_545
F17 K15 2.789155 1_565
F17 K4 2.791155 1_665
F17 K5 2.840050 1_554
F17 K23 3.201727 1_665
F18 K12 2.789155 1_555
F18 K7 2.791155 1_455
F18 K6 2.840050 1_555
F18 K20 3.201727 1_455
F19 K13 2.789155 1_555
F19 K6 2.791155 1_555
F19 K7 2.840050 1_555
F19 K21 3.201727 1_555
F20 K15 2.789155 1_565
F20 K4 2.791155 1_565
F20 K5 2.840050 1_554
F20 K23 3.201727 1_565
F21 K14 2.789155 1_545
F21 K5 2.791155 1_445
F21 K4 2.840050 1_556
F21 K22 3.201727 1_445
F22 K13 2.789155 1_555
F22 K6 2.791155 1_655
F22 K7 2.840050 1_555
F22 K21 3.201727 1_655
F23 K12 2.789155 1_555
F23 K7 2.791155 1_555
F23 K6 2.840050 1_555
F23 K20 3.201727 1_555
F24 K19 2.909544 1_555
F25 K18 2.909544 1_555
F26 K17 2.909544 1_555
F27 K16 2.909544 1_555
F28 K18 2.909544 1_555
F29 K19 2.909544 1_555
F30 K16 2.909544 1_555
F31 K17 2.909544 1_555
F32 K12 2.638733 1_555
F32 K20 2.678476 1_555
F33 K13 2.638733 1_555
F33 K21 2.678476 1_655
F34 K14 2.638733 1_555
F34 K22 2.678476 1_455
F35 K15 2.638733 1_555
F35 K23 2.678476 1_555
F36 K13 2.638733 1_555
F36 K21 2.678476 1_555
F37 K12 2.638733 1_555
F37 K20 2.678476 1_455
F38 K15 2.638733 1_555
F38 K23 2.678476 1_655
F39 K14 2.638733 1_555
F39 K22 2.678476 1_555
F40 K5 2.913878 1_545
F40 K22 3.205348 1_545
F41 K4 2.913878 1_565
F41 K23 3.205348 1_565
F42 K7 2.913878 1_555
F42 K20 3.205348 1_555
F43 K6 2.913878 1_555
F43 K21 3.205348 1_555
F44 K20 2.910326 1_555
F45 K21 2.910326 1_555
F46 K22 2.910326 1_555
F47 K23 2.910326 1_555
F56 K0 2.722191 1_555
F56 K10 2.769835 1_555
F56 K1 2.788128 1_556
F57 K1 2.722191 1_655
F57 K11 2.769835 1_555
F57 K0 2.788128 1_554
F58 K2 2.722191 1_465
F58 K8 2.769835 1_565
F58 K3 2.788128 1_555
F59 K3 2.722191 1_545
F59 K9 2.769835 1_545
F59 K2 2.788128 1_555
F60 K1 2.722191 1_555
F60 K11 2.769835 1_555
F60 K0 2.788128 1_554
F61 K0 2.722191 1_455
F61 K10 2.769835 1_555
F61 K1 2.788128 1_556
F62 K3 2.722191 1_645
F62 K9 2.769835 1_545
F62 K2 2.788128 1_555
F63 K2 2.722191 1_565
F63 K8 2.769835 1_565
F63 K3 2.788128 1_555
F64 K1 2.826410 1_555
F65 K0 2.826410 1_555
F66 K3 2.826410 1_555
F67 K2 2.826410 1_555
F68 K15 2.710082 1_555
F68 K16 2.975385 1_555
F68 K4 3.020614 1_555
F68 K23 3.077133 1_555
F69 K14 2.710082 1_655
F69 K17 2.975385 1_555
F69 K5 3.020614 1_555
F69 K22 3.077133 1_555
F70 K13 2.710082 1_455
F70 K18 2.975385 1_555
F70 K6 3.020614 1_555
F70 K21 3.077133 1_555
F71 K12 2.710082 1_555
F71 K19 2.975385 1_555
F71 K7 3.020614 1_555
F71 K20 3.077133 1_555
F72 K14 2.710082 1_555
F72 K17 2.975385 1_555
F72 K5 3.020614 1_555
F72 K22 3.077133 1_555
F73 K15 2.710082 1_455
F73 K16 2.975385 1_555
F73 K4 3.020614 1_555
F73 K23 3.077133 1_555
F74 K12 2.710082 1_655
F74 K19 2.975385 1_555
F74 K7 3.020614 1_555
F74 K20 3.077133 1_555
F75 K13 2.710082 1_555
F75 K18 2.975385 1_555
F75 K6 3.020614 1_555
F75 K21 3.077133 1_555
F84 K11 2.649720 1_555
F84 K16 2.755129 1_555
F85 K10 2.649720 1_555
F85 K17 2.755129 1_455
F86 K9 2.649720 1_555
F86 K18 2.755129 1_655
F87 K8 2.649720 1_555
F87 K19 2.755129 1_555
F88 K10 2.649720 1_555
F88 K17 2.755129 1_555
F89 K11 2.649720 1_555
F89 K16 2.755129 1_655
F90 K8 2.649720 1_555
F90 K19 2.755129 1_455
F91 K9 2.649720 1_555
F91 K18 2.755129 1_555
F92 K15 2.783915 1_555
F93 K14 2.783915 1_555
F94 K13 2.783915 1_555
F95 K12 2.783915 1_555
