# generated using pymatgen
data_Sr2V3O9
_symmetry_space_group_name_H-M   'P 1'
_cell_length_a   7.10250516
_cell_length_b   7.48602798
_cell_length_c   18.08948653
_cell_angle_alpha   103.52209940
_cell_angle_beta   101.83918225
_cell_angle_gamma   116.79072366
_symmetry_Int_Tables_number   1
_chemical_formula_structural   Sr2V3O9
_chemical_formula_sum   'Sr8 V12 O36'
_cell_volume   779.49925865
_cell_formula_units_Z   4
loop_
 _symmetry_equiv_pos_site_id
 _symmetry_equiv_pos_as_xyz
  1  'x, y, z'
loop_
 _atom_site_type_symbol
 _atom_site_label
 _atom_site_symmetry_multiplicity
 _atom_site_fract_x
 _atom_site_fract_y
 _atom_site_fract_z
 _atom_site_occupancy
  Sr  Sr0  1  0.12069200  0.37523400  0.87496100  1
  Sr  Sr1  1  0.12409500  0.37839100  0.37489600  1
  Sr  Sr2  1  0.70161800  0.95422200  0.95158600  1
  Sr  Sr3  1  0.29888800  0.05200400  0.54857900  1
  Sr  Sr4  1  0.70111200  0.94799600  0.45142100  1
  Sr  Sr5  1  0.29838200  0.04577800  0.04841400  1
  Sr  Sr6  1  0.87590500  0.62160900  0.62510400  1
  Sr  Sr7  1  0.87930800  0.62476600  0.12503900  1
  V  V0  1  0.09043000  0.84153700  0.84014000  1
  V  V1  1  0.08899100  0.84151100  0.34022000  1
  V  V2  1  0.33204800  0.58193500  0.58012100  1
  V  V3  1  0.50511800  0.53985300  0.75534600  1
  V  V4  1  0.50499800  0.97057800  0.25535300  1
  V  V5  1  0.33284900  0.58135700  0.08016700  1
  V  V6  1  0.66715100  0.41864300  0.91983300  1
  V  V7  1  0.49500200  0.02942200  0.74464700  1
  V  V8  1  0.49488200  0.46014700  0.24465400  1
  V  V9  1  0.66795200  0.41806500  0.41987900  1
  V  V10  1  0.91100900  0.15848900  0.65978000  1
  V  V11  1  0.90957000  0.15846300  0.15986000  1
  O  O0  1  0.22194600  0.93799400  0.77410600  1
  O  O1  1  0.25991600  0.78767500  0.90154700  1
  O  O2  1  0.04740600  0.01922700  0.90268600  1
  O  O3  1  0.29544800  0.78211400  0.63927900  1
  O  O4  1  0.17312100  0.38883900  0.72388800  1
  O  O5  1  0.22435800  0.93726100  0.27508600  1
  O  O6  1  0.07835200  0.35886600  0.51982300  1
  O  O7  1  0.25881900  0.79102800  0.40317700  1
  O  O8  1  0.54508100  0.78579000  0.78796900  1
  O  O9  1  0.04291700  0.01919700  0.40118200  1
  O  O10  1  0.29944100  0.78334600  0.14028000  1
  O  O11  1  0.17401600  0.38587400  0.22307800  1
  O  O12  1  0.07749400  0.35964700  0.02010100  1
  O  O13  1  0.50927500  0.49674600  0.85977300  1
  O  O14  1  0.46252100  0.67977100  0.51802600  1
  O  O15  1  0.53897400  0.31954900  0.98216600  1
  O  O16  1  0.48809100  0.50328600  0.64108900  1
  O  O17  1  0.47271400  0.21201300  0.71230300  1
  O  O18  1  0.52728600  0.78798700  0.28769700  1
  O  O19  1  0.51190900  0.49671400  0.35891100  1
  O  O20  1  0.46102600  0.68045100  0.01783400  1
  O  O21  1  0.53747900  0.32022900  0.48197400  1
  O  O22  1  0.49072500  0.50325400  0.14022700  1
  O  O23  1  0.92250600  0.64035300  0.97989900  1
  O  O24  1  0.82598400  0.61412600  0.77692200  1
  O  O25  1  0.70055900  0.21665400  0.85972000  1
  O  O26  1  0.95708300  0.98080300  0.59881800  1
  O  O27  1  0.45491900  0.21421000  0.21203100  1
  O  O28  1  0.74118100  0.20897200  0.59682300  1
  O  O29  1  0.92164800  0.64113400  0.48017700  1
  O  O30  1  0.77564200  0.06273900  0.72491400  1
  O  O31  1  0.82687900  0.61116100  0.27611200  1
  O  O32  1  0.70455200  0.21788600  0.36072100  1
  O  O33  1  0.95259400  0.98077300  0.09731400  1
  O  O34  1  0.74008400  0.21232500  0.09845300  1
  O  O35  1  0.77805400  0.06200600  0.22589400  1
loop_
_geom_bond_atom_site_label_1
_geom_bond_atom_site_label_2
_geom_bond_distance
_geom_bond_site_symmetry_2
O0 V0 1.753278 1_555
O0 V7 1.977798 1_565
O0 Sr6 2.822066 1_455
O1 V0 1.715779 1_555
O1 Sr2 2.645149 1_555
O1 Sr0 2.664629 1_555
O1 Sr5 2.773444 1_566
O2 V0 1.716799 1_545
O2 Sr2 2.658267 1_445
O2 Sr0 2.665851 1_555
O2 Sr5 2.770141 1_556
O3 V2 1.781513 1_555
O3 V7 1.986262 1_565
O3 Sr6 2.589116 1_455
O3 Sr3 2.880402 1_565
O4 V10 1.751918 1_455
O4 V3 1.976755 1_555
O4 Sr0 2.851483 1_555
O5 V1 1.750696 1_555
O5 V4 2.011988 1_555
O5 Sr7 2.824683 1_455
O6 V2 1.689484 1_555
O6 Sr1 2.736034 1_555
O6 Sr4 2.757027 1_445
O7 V1 1.715599 1_555
O7 Sr4 2.660566 1_555
O7 Sr1 2.667375 1_555
O7 Sr3 2.757650 1_565
O8 V3 1.664494 1_555
O8 V7 2.281632 1_565
O8 Sr2 2.688284 1_555
O9 V1 1.716691 1_545
O9 Sr4 2.639877 1_445
O9 Sr1 2.664908 1_555
O9 Sr3 2.788747 1_555
O10 V5 1.784821 1_555
O10 V4 1.993247 1_555
O10 Sr7 2.589507 1_455
O10 Sr5 2.855894 1_565
O11 V11 1.749139 1_455
O11 V8 2.011561 1_555
O11 Sr1 2.850380 1_555
O12 V5 1.690898 1_555
O12 Sr0 2.728108 1_554
O12 Sr2 2.730143 1_444
O13 V6 1.779822 1_555
O13 V3 1.986005 1_555
O13 Sr0 2.585518 1_555
O13 Sr2 2.923134 1_555
O14 V2 1.690236 1_555
O14 Sr4 2.693864 1_555
O14 Sr1 2.719822 1_555
O15 V6 1.689403 1_555
O15 Sr5 2.718129 1_556
O15 Sr7 2.727526 1_556
O16 V2 1.783718 1_555
O16 V3 1.991090 1_555
O16 Sr6 2.588898 1_555
O16 Sr3 2.891407 1_555
O17 V7 1.663369 1_555
O17 V3 2.281684 1_555
O17 Sr3 2.690373 1_555
O18 V4 1.663369 1_555
O18 V8 2.281684 1_555
O18 Sr4 2.690373 1_555
O19 V9 1.783718 1_555
O19 V8 1.991090 1_555
O19 Sr1 2.588898 1_555
O19 Sr4 2.891407 1_555
O20 V5 1.689403 1_555
O20 Sr2 2.718129 1_554
O20 Sr0 2.727526 1_554
O21 V9 1.690236 1_555
O21 Sr3 2.693864 1_555
O21 Sr6 2.719822 1_555
O22 V5 1.779822 1_555
O22 V8 1.986005 1_555
O22 Sr7 2.585518 1_555
O22 Sr5 2.923134 1_555
O23 V6 1.690898 1_555
O23 Sr7 2.728108 1_556
O23 Sr5 2.730143 1_666
O24 V0 1.749139 1_655
O24 V3 2.011561 1_555
O24 Sr6 2.850380 1_555
O25 V6 1.784821 1_555
O25 V7 1.993247 1_555
O25 Sr0 2.589507 1_655
O25 Sr2 2.855894 1_545
O26 V10 1.716691 1_565
O26 Sr3 2.639877 1_665
O26 Sr6 2.664908 1_555
O26 Sr4 2.788747 1_555
O27 V8 1.664494 1_555
O27 V4 2.281632 1_545
O27 Sr5 2.688284 1_555
O28 V10 1.715599 1_555
O28 Sr3 2.660566 1_555
O28 Sr6 2.667375 1_555
O28 Sr4 2.757650 1_545
O29 V9 1.689484 1_555
O29 Sr6 2.736034 1_555
O29 Sr3 2.757027 1_665
O30 V10 1.750696 1_555
O30 V7 2.011988 1_555
O30 Sr0 2.824683 1_655
O31 V1 1.751918 1_655
O31 V8 1.976755 1_555
O31 Sr7 2.851483 1_555
O32 V9 1.781513 1_555
O32 V4 1.986262 1_545
O32 Sr1 2.589116 1_655
O32 Sr4 2.880402 1_545
O33 V11 1.716799 1_565
O33 Sr5 2.658267 1_665
O33 Sr7 2.665851 1_555
O33 Sr2 2.770141 1_554
O34 V11 1.715779 1_555
O34 Sr5 2.645149 1_555
O34 Sr7 2.664629 1_555
O34 Sr2 2.773444 1_544
O35 V11 1.753278 1_555
O35 V4 1.977798 1_545
O35 Sr1 2.822066 1_655
