# generated using pymatgen
data_CsCr5S8
_symmetry_space_group_name_H-M   'P 1'
_cell_length_a   3.51761878
_cell_length_b   8.83862762
_cell_length_c   9.20464909
_cell_angle_alpha   104.59185417
_cell_angle_beta   101.02500912
_cell_angle_gamma   89.99440514
_symmetry_Int_Tables_number   1
_chemical_formula_structural   CsCr5S8
_chemical_formula_sum   'Cs1 Cr5 S8'
_cell_volume   271.49034120
_cell_formula_units_Z   1
loop_
 _symmetry_equiv_pos_site_id
 _symmetry_equiv_pos_as_xyz
  1  'x, y, z'
loop_
 _atom_site_type_symbol
 _atom_site_label
 _atom_site_symmetry_multiplicity
 _atom_site_fract_x
 _atom_site_fract_y
 _atom_site_fract_z
 _atom_site_occupancy
  Cs  Cs0  1  0.50000083  0.50000043  -0.00000049  1
  Cr  Cr0  1  0.99999857  0.99999589  0.99999877  1
  Cr  Cr1  1  0.65975764  0.97859904  0.31941988  1
  Cr  Cr2  1  0.34024497  0.02140007  0.68058122  1
  Cr  Cr3  1  0.70472143  0.33523661  0.41013660  1
  Cr  Cr4  1  0.29528556  0.66477209  0.58986588  1
  S  S0  1  0.42347549  0.85146230  0.84674408  1
  S  S1  1  0.57651584  0.14853023  0.15325419  1
  S  S2  1  0.91200798  0.16304699  0.82380665  1
  S  S3  1  0.08799254  0.83694804  0.17619238  1
  S  S4  1  0.82733404  0.51452758  0.65420721  1
  S  S5  1  0.17266859  0.48548077  0.34579588  1
  S  S6  1  0.76146347  0.84249733  0.52242230  1
  S  S7  1  0.23853205  0.15750265  0.47757644  1
loop_
_geom_bond_atom_site_label_1
_geom_bond_atom_site_label_2
_geom_bond_distance
_geom_bond_site_symmetry_2
Cs0 S3 3.473068 1_655
Cs0 S2 3.473108 1_454
Cs0 S3 3.473408 1_555
Cs0 S2 3.473444 1_554
Cs0 S4 3.615449 1_454
Cs0 S5 3.615462 1_655
Cs0 S4 3.616738 1_554
Cs0 S5 3.616755 1_555
Cs0 S0 3.711469 1_554
Cs0 S1 3.711534 1_555
Cr0 S3 2.405913 1_656
Cr0 S2 2.405924 1_565
Cr0 S1 2.408189 1_666
Cr0 S0 2.408199 1_555
Cr0 S0 2.408875 1_655
Cr0 S1 2.408897 1_566
Cr1 S3 2.345687 1_655
Cr1 S3 2.346354 1_555
Cr1 S1 2.380566 1_565
Cr1 S6 2.437917 1_555
Cr1 S7 2.543965 1_665
Cr1 S7 2.545549 1_565
Cr2 S2 2.345668 1_455
Cr2 S2 2.346330 1_555
Cr2 S0 2.380592 1_545
Cr2 S7 2.437941 1_555
Cr2 S6 2.543984 1_445
Cr2 S6 2.545540 1_545
Cr3 S4 2.362224 1_555
Cr3 S5 2.364060 1_555
Cr3 S5 2.365008 1_655
Cr3 S1 2.478665 1_555
Cr3 S7 2.534471 1_555
Cr3 S7 2.534564 1_655
Cr4 S5 2.362222 1_555
Cr4 S4 2.364052 1_555
Cr4 S4 2.365024 1_455
Cr4 S0 2.478575 1_555
Cr4 S6 2.534409 1_555
Cr4 S6 2.534548 1_455
