# generated using pymatgen
data_SINOF2
_symmetry_space_group_name_H-M   'P 1'
_cell_length_a   18.77271800
_cell_length_b   5.06503700
_cell_length_c   11.35227414
_cell_angle_alpha   80.44175386
_cell_angle_beta   90.00000000
_cell_angle_gamma   90.00000000
_symmetry_Int_Tables_number   1
_chemical_formula_structural   SINOF2
_chemical_formula_sum   'S8 I8 N8 O8 F16'
_cell_volume   1064.44010601
_cell_formula_units_Z   8
loop_
 _symmetry_equiv_pos_site_id
 _symmetry_equiv_pos_as_xyz
  1  'x, y, z'
loop_
 _atom_site_type_symbol
 _atom_site_label
 _atom_site_symmetry_multiplicity
 _atom_site_fract_x
 _atom_site_fract_y
 _atom_site_fract_z
 _atom_site_occupancy
  S  S0  1  0.90465500  0.70189200  0.16922700  1
  S  S1  1  0.90305800  0.08241300  0.60675000  1
  S  S2  1  0.59694200  0.08241300  0.10675000  1
  S  S3  1  0.40305800  0.91758700  0.89325000  1
  S  S4  1  0.09694200  0.91758700  0.39325000  1
  S  S5  1  0.59534500  0.70189200  0.66922700  1
  S  S6  1  0.40465500  0.29810800  0.33077300  1
  S  S7  1  0.09534500  0.29810800  0.83077300  1
  I  I0  1  0.85112500  0.87453500  0.89615500  1
  I  I1  1  0.24635100  0.62503100  0.35742000  1
  I  I2  1  0.74635100  0.37496900  0.14258000  1
  I  I3  1  0.64887500  0.87453500  0.39615500  1
  I  I4  1  0.25364900  0.62503100  0.85742000  1
  I  I5  1  0.35112500  0.12546500  0.60384500  1
  I  I6  1  0.75364900  0.37496900  0.64258000  1
  I  I7  1  0.14887500  0.12546500  0.10384500  1
  N  N0  1  0.84729200  0.66543900  0.08179900  1
  N  N1  1  0.34506100  0.88753100  0.80559700  1
  N  N2  1  0.65493900  0.11246900  0.19440300  1
  N  N3  1  0.34729200  0.33456100  0.41820100  1
  N  N4  1  0.15493900  0.88753100  0.30559700  1
  N  N5  1  0.84506100  0.11246900  0.69440300  1
  N  N6  1  0.15270800  0.33456100  0.91820100  1
  N  N7  1  0.65270800  0.66543900  0.58179900  1
  O  O0  1  0.40091000  0.41638200  0.20837500  1
  O  O1  1  0.09909000  0.41638200  0.70837500  1
  O  O2  1  0.46268100  0.08736800  0.86101900  1
  O  O3  1  0.90091000  0.58361800  0.29162500  1
  O  O4  1  0.03731900  0.08736800  0.36101900  1
  O  O5  1  0.96268100  0.91263200  0.63898100  1
  O  O6  1  0.59909000  0.58361800  0.79162500  1
  O  O7  1  0.53731900  0.91263200  0.13898100  1
  F  F0  1  0.56849200  0.36657500  0.04566800  1
  F  F1  1  0.06849200  0.63342500  0.45433200  1
  F  F2  1  0.57640300  0.01064900  0.66192100  1
  F  F3  1  0.37089500  0.98491200  0.01403500  1
  F  F4  1  0.62910500  0.01508800  0.98596500  1
  F  F5  1  0.93150800  0.36657500  0.54566800  1
  F  F6  1  0.48104000  0.36530500  0.37980500  1
  F  F7  1  0.51896000  0.63469500  0.62019500  1
  F  F8  1  0.07640300  0.98935100  0.83807900  1
  F  F9  1  0.42359700  0.98935100  0.33807900  1
  F  F10  1  0.87089500  0.01508800  0.48596500  1
  F  F11  1  0.43150800  0.63342500  0.95433200  1
  F  F12  1  0.98104000  0.63469500  0.12019500  1
  F  F13  1  0.12910500  0.98491200  0.51403500  1
  F  F14  1  0.01896000  0.36530500  0.87980500  1
  F  F15  1  0.92359700  0.01064900  0.16192100  1
loop_
_geom_bond_atom_site_label_1
_geom_bond_atom_site_label_2
_geom_bond_distance
_geom_bond_site_symmetry_2
I0 N0 2.197057 1_556
I0 N5 2.407145 1_565
I1 N4 2.190647 1_555
I1 N3 2.427819 1_555
I2 N2 2.190647 1_555
I2 N0 2.427819 1_555
I3 N7 2.197057 1_555
I3 N2 2.407145 1_565
I4 N1 2.190647 1_555
I4 N6 2.427819 1_555
I5 N3 2.197057 1_555
I5 N1 2.407145 1_545
I6 N5 2.190647 1_555
I6 N7 2.427819 1_555
I7 N6 2.197057 1_554
I7 N4 2.407145 1_545
N0 S0 1.496544 1_555
N1 S3 1.499677 1_555
N2 S2 1.499677 1_555
N3 S6 1.496544 1_555
N4 S4 1.499677 1_555
N5 S1 1.499677 1_555
N6 S7 1.496544 1_555
N7 S5 1.496544 1_555
O0 S6 1.420591 1_555
O1 S7 1.420591 1_555
O2 S3 1.421863 1_545
O3 S0 1.420591 1_555
O4 S4 1.421863 1_545
O5 S1 1.421863 1_565
O6 S5 1.420591 1_555
O7 S2 1.421863 1_565
F0 S2 1.583094 1_555
F1 S4 1.583094 1_555
F2 S5 1.592459 1_545
F3 S3 1.586276 1_554
F4 S2 1.586276 1_556
F5 S1 1.583094 1_555
F6 S6 1.595247 1_555
F7 S5 1.595247 1_555
F8 S7 1.592459 1_565
F9 S6 1.592459 1_565
F10 S1 1.586276 1_555
F11 S3 1.583094 1_555
F12 S0 1.595247 1_555
F13 S4 1.586276 1_555
F14 S7 1.595247 1_555
F15 S0 1.592459 1_545
