# generated using pymatgen
data_Ta5Ga3
_symmetry_space_group_name_H-M   'P 1'
_cell_length_a   5.10695938
_cell_length_b   7.65551657
_cell_length_c   7.65551704
_cell_angle_alpha   83.61238655
_cell_angle_beta   70.51574545
_cell_angle_gamma   70.51575351
_symmetry_Int_Tables_number   1
_chemical_formula_structural   Ta5Ga3
_chemical_formula_sum   'Ta10 Ga6'
_cell_volume   266.00453870
_cell_formula_units_Z   2
loop_
 _symmetry_equiv_pos_site_id
 _symmetry_equiv_pos_as_xyz
  1  'x, y, z'
loop_
 _atom_site_type_symbol
 _atom_site_label
 _atom_site_symmetry_multiplicity
 _atom_site_fract_x
 _atom_site_fract_y
 _atom_site_fract_z
 _atom_site_occupancy
  Ta  Ta0  1  0.57548320  0.70275750  0.14627910  1
  Ta  Ta1  1  0.25000000  0.50000000  0.50000000  1
  Ta  Ta2  1  0.07548320  0.14627910  0.70275750  1
  Ta  Ta3  1  0.92451680  0.85372090  0.29724250  1
  Ta  Ta4  1  0.75000000  0.50000000  0.50000000  1
  Ta  Ta5  1  0.72176130  0.85372090  0.70275750  1
  Ta  Ta6  1  0.42451680  0.29724250  0.85372090  1
  Ta  Ta7  1  0.77823870  0.29724250  0.14627910  1
  Ta  Ta8  1  0.27823870  0.14627910  0.29724250  1
  Ta  Ta9  1  0.22176130  0.70275750  0.85372090  1
  Ga  Ga0  1  0.16559871  0.50000000  0.16880159  1
  Ga  Ga1  1  0.25000000  0.00000000  -0.00000000  1
  Ga  Ga2  1  0.66559871  0.16880159  0.50000000  1
  Ga  Ga3  1  0.83440129  0.50000000  0.83119841  1
  Ga  Ga4  1  0.75000000  0.00000000  -0.00000000  1
  Ga  Ga5  1  0.33440129  0.83119841  0.50000000  1
loop_
_geom_bond_atom_site_label_1
_geom_bond_atom_site_label_2
_geom_bond_distance
_geom_bond_site_symmetry_2
Ta0 Ta7 2.926646 1_555
Ta0 Ta3 2.982329 1_555
Ta0 Ta3 2.982355 1_455
Ta1 Ta4 2.553480 1_455
Ta1 Ta4 2.553480 1_555
Ta2 Ta8 2.926646 1_555
Ta2 Ta6 2.982329 1_555
Ta2 Ta6 2.982355 1_455
Ta3 Ta5 2.926646 1_555
Ta5 Ta9 2.982342 1_555
Ta5 Ta9 2.982342 1_655
Ta6 Ta9 2.926646 1_555
Ta7 Ta8 2.982342 1_555
Ta7 Ta8 2.982342 1_655
Ga0 Ta9 2.704120 1_554
Ga0 Ta6 2.704120 1_554
Ga0 Ta4 2.709902 1_455
Ga0 Ta1 2.709905 1_555
Ga0 Ta8 2.715931 1_555
Ga0 Ta3 2.715931 1_455
Ga0 Ta0 2.947532 1_455
Ga0 Ta7 2.947540 1_555
Ga0 Ta7 2.947541 1_455
Ga0 Ta0 2.947549 1_555
Ga1 Ga4 2.553480 1_455
Ga1 Ga4 2.553480 1_555
Ga1 Ta6 2.710460 1_554
Ga1 Ta2 2.710460 1_554
Ga1 Ta9 2.710462 1_544
Ga1 Ta8 2.710463 1_555
Ga1 Ta5 2.710465 1_544
Ga1 Ta7 2.710465 1_455
Ga1 Ta3 2.710467 1_445
Ga1 Ta0 2.710467 1_545
Ga2 Ta5 2.704120 1_545
Ga2 Ta3 2.704120 1_545
Ga2 Ta1 2.709902 1_555
Ga2 Ta4 2.709905 1_555
Ga2 Ta7 2.715931 1_555
Ga2 Ta6 2.715931 1_555
Ga2 Ta2 2.947531 1_555
Ga2 Ta8 2.947540 1_655
Ga2 Ta8 2.947541 1_555
Ga2 Ta2 2.947550 1_655
Ga3 Ta7 2.704120 1_556
Ga3 Ta0 2.704120 1_556
Ga3 Ta1 2.709902 1_655
Ga3 Ta4 2.709905 1_555
Ga3 Ta5 2.715931 1_555
Ga3 Ta2 2.715931 1_655
Ga3 Ta6 2.947532 1_655
Ga3 Ta9 2.947540 1_555
Ga3 Ta9 2.947541 1_655
Ga3 Ta6 2.947549 1_555
Ga4 Ta0 2.710460 1_545
Ga4 Ta3 2.710460 1_545
Ga4 Ta7 2.710462 1_555
Ga4 Ta5 2.710463 1_544
Ga4 Ta8 2.710465 1_555
Ga4 Ta9 2.710465 1_644
Ga4 Ta2 2.710467 1_654
Ga4 Ta6 2.710467 1_554
Ga5 Ta8 2.704120 1_565
Ga5 Ta2 2.704120 1_565
Ga5 Ta4 2.709902 1_555
Ga5 Ta1 2.709905 1_555
Ga5 Ta9 2.715931 1_555
Ga5 Ta0 2.715931 1_555
Ga5 Ta3 2.947531 1_555
Ga5 Ta5 2.947540 1_455
Ga5 Ta5 2.947541 1_555
Ga5 Ta3 2.947550 1_455
