# generated using pymatgen
data_Cs2V4O9
_symmetry_space_group_name_H-M   'P 1'
_cell_length_a   5.73156076
_cell_length_b   5.73155734
_cell_length_c   15.27215451
_cell_angle_alpha   89.99991226
_cell_angle_beta   89.99957346
_cell_angle_gamma   89.99996481
_symmetry_Int_Tables_number   1
_chemical_formula_structural   Cs2V4O9
_chemical_formula_sum   'Cs4 V8 O18'
_cell_volume   501.70202213
_cell_formula_units_Z   2
loop_
 _symmetry_equiv_pos_site_id
 _symmetry_equiv_pos_as_xyz
  1  'x, y, z'
loop_
 _atom_site_type_symbol
 _atom_site_label
 _atom_site_symmetry_multiplicity
 _atom_site_fract_x
 _atom_site_fract_y
 _atom_site_fract_z
 _atom_site_occupancy
  Cs  Cs0  1  0.73022577  0.74760607  0.49999880  1
  Cs  Cs1  1  0.74760600  0.26977554  0.00000192  1
  Cs  Cs2  1  0.26977279  0.25239477  0.49999857  1
  Cs  Cs3  1  0.25239535  0.73022636  0.00000159  1
  V  V0  1  0.28756748  0.14706512  0.79791976  1
  V  V1  1  0.14706407  0.71243000  0.70208309  1
  V  V2  1  0.71242648  0.85294158  0.79791055  1
  V  V3  1  0.28757241  0.14705714  0.20208839  1
  V  V4  1  0.14705724  0.71242934  0.29791282  1
  V  V5  1  0.85293788  0.28757001  0.29791903  1
  V  V6  1  0.85293916  0.28757138  0.70208696  1
  V  V7  1  0.71242755  0.85294076  0.20208586  1
  O  O0  1  0.76668992  0.77742322  0.89979276  1
  O  O1  1  0.77741487  0.23330756  0.60021176  1
  O  O2  1  0.22257595  0.76668566  0.60021186  1
  O  O3  1  0.18117848  0.37991068  0.28415123  1
  O  O4  1  0.62008449  0.18117321  0.21585107  1
  O  O5  1  0.77744374  0.23331687  0.39978049  1
  O  O6  1  0.81882189  0.62009093  0.71584542  1
  O  O7  1  0.23331107  0.22257624  0.89977882  1
  O  O8  1  0.37991031  0.81882092  0.21584800  1
  O  O9  1  0.23332508  0.22256747  0.10021571  1
  O  O10  1  0.37990570  0.81881983  0.78415709  1
  O  O11  1  0.18118266  0.37990875  0.71584431  1
  O  O12  1  0.00000170  0.00000204  0.75000040  1
  O  O13  1  0.62008846  0.18117678  0.78415490  1
  O  O14  1  0.76668513  0.77744102  0.10021647  1
  O  O15  1  0.81882364  0.62008631  0.28415030  1
  O  O16  1  0.22256431  0.76668146  0.39978526  1
  O  O17  1  -0.00000159  0.00000296  0.24999983  1
loop_
_geom_bond_atom_site_label_1
_geom_bond_atom_site_label_2
_geom_bond_distance
_geom_bond_site_symmetry_2
Cs0 O1 3.188290 1_565
Cs0 O5 3.188384 1_565
Cs0 O16 3.212038 1_655
Cs0 O2 3.212114 1_655
Cs0 O2 3.289400 1_555
Cs0 O16 3.289481 1_555
Cs0 O1 3.332356 1_555
Cs0 O5 3.332362 1_555
Cs0 O6 3.414464 1_555
Cs0 O15 3.414494 1_555
Cs1 O7 3.188375 1_654
Cs1 O9 3.188401 1_655
Cs1 O14 3.212033 1_545
Cs1 O0 3.212087 1_544
Cs1 O0 3.289368 1_554
Cs1 O14 3.289501 1_555
Cs1 O9 3.332274 1_555
Cs1 O7 3.332427 1_554
Cs1 O13 3.414479 1_554
Cs1 O4 3.414506 1_555
Cs2 O2 3.188328 1_545
Cs2 O16 3.188361 1_545
Cs2 O5 3.212044 1_455
Cs2 O1 3.212135 1_455
Cs2 O1 3.289383 1_555
Cs2 O5 3.289542 1_555
Cs2 O16 3.332307 1_555
Cs2 O2 3.332326 1_555
Cs2 O11 3.414439 1_555
Cs2 O3 3.414474 1_555
Cs3 O0 3.188291 1_454
Cs3 O14 3.188348 1_455
Cs3 O9 3.212064 1_565
Cs3 O7 3.212171 1_564
Cs3 O9 3.289458 1_555
Cs3 O7 3.289482 1_554
Cs3 O0 3.332303 1_554
Cs3 O14 3.332350 1_555
Cs3 O10 3.414416 1_554
Cs3 O8 3.414463 1_555
O0 V2 1.644718 1_555
O1 V6 1.644628 1_555
O2 V1 1.644536 1_555
O3 V4 1.927351 1_555
O3 V3 1.929701 1_555
O3 V5 1.965636 1_455
O4 V3 1.927315 1_555
O4 V5 1.929766 1_555
O4 V7 1.965590 1_545
O5 V5 1.644366 1_555
O6 V6 1.927348 1_555
O6 V2 1.929715 1_555
O6 V1 1.965633 1_655
O7 V0 1.644362 1_555
O8 V7 1.927343 1_555
O8 V4 1.929710 1_555
O8 V3 1.965594 1_565
O9 V3 1.644551 1_555
O10 V2 1.927352 1_555
O10 V1 1.929767 1_555
O10 V0 1.965649 1_565
O11 V1 1.927363 1_555
O11 V0 1.929774 1_555
O11 V6 1.965633 1_455
O12 V2 1.990616 1_445
O12 V6 1.990617 1_455
O12 V0 1.990640 1_555
O12 V1 1.990648 1_545
O13 V0 1.927364 1_555
O13 V6 1.929737 1_555
O13 V2 1.965582 1_545
O14 V7 1.644495 1_555
O15 V5 1.927345 1_555
O15 V7 1.929728 1_555
O15 V4 1.965596 1_655
O16 V4 1.644550 1_555
O17 V3 1.990603 1_555
O17 V4 1.990626 1_545
O17 V5 1.990631 1_455
O17 V7 1.990631 1_445
