# generated using pymatgen
data_Cd(IO3)2
_symmetry_space_group_name_H-M   'P 1'
_cell_length_a   5.47130052
_cell_length_b   11.12314563
_cell_length_c   17.53266798
_cell_angle_alpha   90.00000000
_cell_angle_beta   90.00000000
_cell_angle_gamma   90.00000000
_symmetry_Int_Tables_number   1
_chemical_formula_structural   Cd(IO3)2
_chemical_formula_sum   'Cd8 I16 O48'
_cell_volume   1067.00437851
_cell_formula_units_Z   8
loop_
 _symmetry_equiv_pos_site_id
 _symmetry_equiv_pos_as_xyz
  1  'x, y, z'
loop_
 _atom_site_type_symbol
 _atom_site_label
 _atom_site_symmetry_multiplicity
 _atom_site_fract_x
 _atom_site_fract_y
 _atom_site_fract_z
 _atom_site_occupancy
  Cd  Cd0  1  0.27509588  0.63194123  0.11133628  1
  Cd  Cd1  1  0.21985678  0.84889167  0.94079992  1
  Cd  Cd2  1  0.78014322  0.34889167  0.05920008  1
  Cd  Cd3  1  0.72490412  0.63194123  0.61133628  1
  Cd  Cd4  1  0.27509588  0.13194123  0.38866372  1
  Cd  Cd5  1  0.72490412  0.13194123  0.88866372  1
  Cd  Cd6  1  0.78014322  0.84889167  0.44079992  1
  Cd  Cd7  1  0.21985678  0.34889167  0.55920008  1
  I  I0  1  0.26776948  0.37424325  0.19915745  1
  I  I1  1  0.30967100  0.36274348  0.89057315  1
  I  I2  1  0.78125321  0.60930770  0.96912739  1
  I  I3  1  0.20636349  0.62164810  0.77682455  1
  I  I4  1  0.69032900  0.86274348  0.10942685  1
  I  I5  1  0.73223052  0.37424325  0.69915745  1
  I  I6  1  0.73223052  0.87424325  0.80084255  1
  I  I7  1  0.78125321  0.10930770  0.53087261  1
  I  I8  1  0.20636349  0.12164810  0.72317545  1
  I  I9  1  0.21874579  0.60930770  0.46912739  1
  I  I10  1  0.79363651  0.12164810  0.22317545  1
  I  I11  1  0.30967100  0.86274348  0.60942685  1
  I  I12  1  0.26776948  0.87424325  0.30084255  1
  I  I13  1  0.79363651  0.62164810  0.27682455  1
  I  I14  1  0.69032900  0.36274348  0.39057315  1
  I  I15  1  0.21874579  0.10930770  0.03087261  1
  O  O0  1  0.48683293  0.79340182  0.85016506  1
  O  O1  1  0.11120575  0.43461320  0.11440041  1
  O  O2  1  0.57508093  0.51710530  0.71283434  1
  O  O3  1  0.45891499  0.80186086  0.52338970  1
  O  O4  1  0.98850295  0.69084010  0.35123371  1
  O  O5  1  0.57508093  0.01710530  0.78716566  1
  O  O6  1  0.96438340  0.69510765  0.51519203  1
  O  O7  1  0.93894232  0.46657064  0.95768541  1
  O  O8  1  0.98850295  0.19084010  0.14876629  1
  O  O9  1  0.51316707  0.79340182  0.35016506  1
  O  O10  1  0.01149705  0.19084010  0.64876629  1
  O  O11  1  0.46800892  0.29090169  0.32589145  1
  O  O12  1  0.93894232  0.96657064  0.54231459  1
  O  O13  1  0.54108501  0.80186086  0.02338970  1
  O  O14  1  0.96046391  0.18189711  0.30463374  1
  O  O15  1  0.88879425  0.93461320  0.88559959  1
  O  O16  1  0.03953609  0.18189711  0.80463374  1
  O  O17  1  0.46800892  0.79090169  0.17410855  1
  O  O18  1  0.03953609  0.68189711  0.69536626  1
  O  O19  1  0.96046391  0.68189711  0.19536626  1
  O  O20  1  0.43908224  0.51369386  0.89160553  1
  O  O21  1  0.53199108  0.29090169  0.82589145  1
  O  O22  1  0.53199108  0.79090169  0.67410855  1
  O  O23  1  0.62690619  0.05388545  0.44459565  1
  O  O24  1  0.08001751  0.46894491  0.78006366  1
  O  O25  1  0.56091776  0.01369386  0.10839447  1
  O  O26  1  0.56091776  0.51369386  0.39160553  1
  O  O27  1  0.43908224  0.01369386  0.60839447  1
  O  O28  1  0.62690619  0.55388545  0.05540435  1
  O  O29  1  0.37309381  0.55388545  0.55540435  1
  O  O30  1  0.01149705  0.69084010  0.85123371  1
  O  O31  1  0.11120575  0.93461320  0.38559959  1
  O  O32  1  0.96438340  0.19510765  0.98480797  1
  O  O33  1  0.03561660  0.19510765  0.48480797  1
  O  O34  1  0.37309381  0.05388545  0.94459565  1
  O  O35  1  0.91998249  0.46894491  0.28006366  1
  O  O36  1  0.03561660  0.69510765  0.01519203  1
  O  O37  1  0.06105768  0.96657064  0.04231459  1
  O  O38  1  0.08001751  0.96894491  0.71993634  1
  O  O39  1  0.42491907  0.01710530  0.28716566  1
  O  O40  1  0.42491907  0.51710530  0.21283434  1
  O  O41  1  0.91998249  0.96894491  0.21993634  1
  O  O42  1  0.48683293  0.29340182  0.64983494  1
  O  O43  1  0.54108501  0.30186086  0.47661030  1
  O  O44  1  0.51316707  0.29340182  0.14983494  1
  O  O45  1  0.88879425  0.43461320  0.61440041  1
  O  O46  1  0.45891499  0.30186086  0.97661030  1
  O  O47  1  0.06105768  0.46657064  0.45768541  1
loop_
_geom_bond_atom_site_label_1
_geom_bond_atom_site_label_2
_geom_bond_distance
_geom_bond_site_symmetry_2
Cd0 O36 2.247647 1_555
Cd0 O28 2.328207 1_555
Cd0 O19 2.332952 1_455
Cd0 O17 2.334869 1_555
Cd0 O40 2.338862 1_555
Cd0 O1 2.371617 1_555
Cd1 O0 2.244944 1_555
Cd1 O15 2.264236 1_455
Cd1 O13 2.336527 1_556
Cd1 O37 2.374032 1_556
Cd1 O36 2.375570 1_556
Cd1 O34 2.430340 1_565
Cd1 O30 2.618438 1_555
Cd2 O44 2.244944 1_555
Cd2 O1 2.264236 1_655
Cd2 O46 2.336527 1_554
Cd2 O7 2.374032 1_554
Cd2 O32 2.375570 1_554
Cd2 O28 2.430340 1_555
Cd2 O8 2.618438 1_555
Cd3 O6 2.247647 1_555
Cd3 O29 2.328207 1_555
Cd3 O18 2.332952 1_655
Cd3 O22 2.334869 1_555
Cd3 O2 2.338862 1_555
Cd3 O45 2.371617 1_555
Cd4 O33 2.247647 1_555
Cd4 O23 2.328207 1_555
Cd4 O14 2.332952 1_455
Cd4 O11 2.334869 1_555
Cd4 O39 2.338862 1_555
Cd4 O31 2.371617 1_545
Cd5 O32 2.247647 1_555
Cd5 O34 2.328207 1_555
Cd5 O16 2.332952 1_655
Cd5 O21 2.334869 1_555
Cd5 O5 2.338862 1_555
Cd5 O15 2.371617 1_545
Cd6 O9 2.244944 1_555
Cd6 O31 2.264236 1_655
Cd6 O3 2.336527 1_555
Cd6 O12 2.374032 1_555
Cd6 O6 2.375570 1_555
Cd6 O23 2.430340 1_565
Cd6 O4 2.618438 1_555
Cd7 O42 2.244944 1_555
Cd7 O45 2.264236 1_455
Cd7 O43 2.336527 1_555
Cd7 O47 2.374032 1_555
Cd7 O33 2.375570 1_555
Cd7 O29 2.430340 1_555
Cd7 O10 2.618438 1_555
I0 O40 1.822619 1_555
I0 O44 1.832778 1_555
I0 O1 1.841993 1_555
I0 O35 2.596649 1_455
I0 O11 2.645158 1_555
I1 O20 1.822319 1_555
I1 O46 1.844134 1_555
I1 O21 1.845049 1_555
I1 O24 2.593890 1_555
I1 O7 2.613916 1_455
I2 O7 1.818062 1_555
I2 O28 1.838841 1_556
I2 O36 1.870806 1_656
I3 O18 1.822622 1_555
I3 O24 1.834701 1_555
I3 O30 1.852300 1_555
I3 O2 2.584699 1_555
I4 O25 1.822319 1_565
I4 O13 1.844134 1_555
I4 O17 1.845049 1_555
I4 O41 2.593890 1_555
I4 O37 2.613916 1_655
I5 O2 1.822619 1_555
I5 O42 1.832778 1_555
I5 O45 1.841993 1_555
I5 O24 2.596649 1_655
I5 O21 2.645158 1_555
I6 O5 1.822619 1_565
I6 O0 1.832778 1_555
I6 O15 1.841993 1_555
I6 O38 2.596649 1_655
I6 O22 2.645158 1_555
I7 O12 1.818062 1_545
I7 O23 1.838841 1_555
I7 O33 1.870806 1_655
I8 O16 1.822622 1_555
I8 O38 1.834701 1_545
I8 O10 1.852300 1_555
I8 O5 2.584699 1_555
I9 O47 1.818060 1_555
I9 O29 1.838843 1_555
I9 O6 1.870802 1_455
I10 O14 1.822622 1_555
I10 O41 1.834701 1_545
I10 O8 1.852300 1_555
I10 O39 2.584699 1_555
I11 O27 1.822319 1_565
I11 O3 1.844134 1_555
I11 O22 1.845049 1_555
I11 O38 2.593890 1_555
I11 O12 2.613916 1_455
I12 O39 1.822619 1_565
I12 O9 1.832778 1_555
I12 O31 1.841993 1_555
I12 O41 2.596649 1_455
I12 O17 2.645158 1_555
I13 O19 1.822622 1_555
I13 O35 1.834701 1_555
I13 O4 1.852300 1_555
I13 O40 2.584699 1_555
I14 O26 1.822319 1_555
I14 O43 1.844134 1_555
I14 O11 1.845049 1_555
I14 O35 2.593890 1_555
I14 O47 2.613916 1_655
I15 O37 1.818060 1_545
I15 O34 1.838843 1_554
I15 O32 1.870802 1_454
