# generated using pymatgen
data_Tl4Ag18Te11
_symmetry_space_group_name_H-M   'P 1'
_cell_length_a   13.30672407
_cell_length_b   13.30672407
_cell_length_c   13.30672407
_cell_angle_alpha   120.08814358
_cell_angle_beta   120.08814358
_cell_angle_gamma   89.84739852
_symmetry_Int_Tables_number   1
_chemical_formula_structural   Tl4Ag18Te11
_chemical_formula_sum   'Tl8 Ag36 Te22'
_cell_volume   1663.86388483
_cell_formula_units_Z   2
loop_
 _symmetry_equiv_pos_site_id
 _symmetry_equiv_pos_as_xyz
  1  'x, y, z'
loop_
 _atom_site_type_symbol
 _atom_site_label
 _atom_site_symmetry_multiplicity
 _atom_site_fract_x
 _atom_site_fract_y
 _atom_site_fract_z
 _atom_site_occupancy
  Tl  Tl0  1  0.99865551  0.99865551  0.00000000  1
  Tl  Tl1  1  0.76419379  0.76419379  0.00000000  1
  Tl  Tl2  1  0.23549369  0.76504889  -0.00000000  1
  Tl  Tl3  1  0.23549369  0.23549369  0.47044380  1
  Tl  Tl4  1  0.76504889  0.76504889  0.52955620  1
  Tl  Tl5  1  0.45098595  0.45098595  0.00000000  1
  Tl  Tl6  1  0.76504889  0.23549369  0.00000000  1
  Tl  Tl7  1  0.22923206  0.22923206  0.00000000  1
  Ag  Ag0  1  0.74147991  0.47803904  0.48292533  1
  Ag  Ag1  1  0.74147991  0.25855358  0.26344087  1
  Ag  Ag2  1  0.52229354  0.25735562  0.26493792  1
  Ag  Ag3  1  0.74161231  0.47701681  0.73540449  1
  Ag  Ag4  1  0.99511371  0.47803904  0.73655913  1
  Ag  Ag5  1  0.99511371  0.25855358  0.51707467  1
  Ag  Ag6  1  0.52187377  0.25828401  0.51710907  1
  Ag  Ag7  1  0.99241869  0.25735562  0.73506208  1
  Ag  Ag8  1  0.74117494  0.25828401  0.73641024  1
  Ag  Ag9  1  0.74161231  0.00620882  0.26459551  1
  Ag  Ag10  1  0.52187377  0.00476470  0.26358976  1
  Ag  Ag11  1  0.47701681  0.74161231  0.73540449  1
  Ag  Ag12  1  0.25828401  0.74117494  0.73641024  1
  Ag  Ag13  1  0.74117494  0.00476470  0.48289093  1
  Ag  Ag14  1  0.25828401  0.52187377  0.51710907  1
  Ag  Ag15  1  0.00620882  0.74161231  0.26459551  1
  Ag  Ag16  1  0.25855358  0.74147991  0.26344087  1
  Ag  Ag17  1  0.47803904  0.74147991  0.48292533  1
  Ag  Ag18  1  0.00476470  0.74117494  0.48289093  1
  Ag  Ag19  1  0.00476470  0.52187377  0.26358976  1
  Ag  Ag20  1  0.25735562  0.52229354  0.26493792  1
  Ag  Ag21  1  0.38744426  0.00005897  0.38738528  1
  Ag  Ag22  1  0.99809920  0.99809920  0.38371469  1
  Ag  Ag23  1  0.25855358  0.99511371  0.51707467  1
  Ag  Ag24  1  0.61267469  0.00005897  0.61261472  1
  Ag  Ag25  1  0.99854844  0.99854844  0.61251925  1
  Ag  Ag26  1  0.25735562  0.99241869  0.73506208  1
  Ag  Ag27  1  0.47803904  0.99511371  0.73655913  1
  Ag  Ag28  1  0.99809920  0.61438351  0.00000000  1
  Ag  Ag29  1  0.61438351  0.99809920  0.00000000  1
  Ag  Ag30  1  0.38603020  0.99854844  0.00000000  1
  Ag  Ag31  1  0.99854844  0.38603020  -0.00000000  1
  Ag  Ag32  1  0.61438351  0.61438351  0.61628531  1
  Ag  Ag33  1  0.00005897  0.61267469  0.61261472  1
  Ag  Ag34  1  0.38603020  0.38603020  0.38748075  1
  Ag  Ag35  1  0.00005897  0.38744426  0.38738528  1
  Te  Te0  1  0.89001368  0.66977844  0.77976477  1
  Te  Te1  1  0.89001368  0.11024891  0.22023523  1
  Te  Te2  1  0.32899728  0.10914511  0.21985217  1
  Te  Te3  1  0.74959427  0.24959427  0.50000000  1
  Te  Te4  1  0.49999150  0.81520938  0.00000000  1
  Te  Te5  1  0.88929394  0.10914511  0.78014783  1
  Te  Te6  1  0.49936022  0.81380097  0.31444075  1
  Te  Te7  1  0.81520938  0.81520938  0.31521788  1
  Te  Te8  1  0.49999150  0.49999150  0.68478212  1
  Te  Te9  1  0.18491947  0.49936022  0.68555925  1
  Te  Te10  1  0.81520938  0.49999150  -0.00000000  1
  Te  Te11  1  0.18384261  0.49849218  -0.00000000  1
  Te  Te12  1  0.49936022  0.18491947  0.68555925  1
  Te  Te13  1  0.18384261  0.18384261  0.68535043  1
  Te  Te14  1  0.49849218  0.49849218  0.31464957  1
  Te  Te15  1  0.81380097  0.49936022  0.31444075  1
  Te  Te16  1  0.11024891  0.89001368  0.22023523  1
  Te  Te17  1  0.49849218  0.18384261  0.00000000  1
  Te  Te18  1  0.66977844  0.89001368  0.77976477  1
  Te  Te19  1  0.10914511  0.88929394  0.78014783  1
  Te  Te20  1  0.24959427  0.74959427  0.50000000  1
  Te  Te21  1  0.10914511  0.32899728  0.21985217  1
loop_
_geom_bond_atom_site_label_1
_geom_bond_atom_site_label_2
_geom_bond_distance
_geom_bond_site_symmetry_2
Ag0 Te0 2.848264 1_555
Ag0 Ag1 2.916734 1_555
Ag0 Ag2 2.926831 1_555
Ag0 Te15 2.972482 1_555
Ag0 Te14 2.981559 1_555
Ag0 Ag33 3.001045 1_655
Ag0 Ag32 3.010947 1_555
Ag0 Te3 3.157555 1_555
Ag0 Ag3 3.365629 1_555
Ag0 Ag4 3.370537 1_555
Ag0 Tl4 3.536172 1_555
Ag1 Te1 2.848257 1_555
Ag1 Ag2 2.926830 1_555
Ag1 Te15 2.972495 1_555
Ag1 Te17 2.981562 1_555
Ag1 Ag35 3.001045 1_655
Ag1 Ag29 3.010932 1_545
Ag1 Te3 3.157547 1_555
Ag1 Ag9 3.365603 1_555
Ag1 Ag5 3.370537 1_555
Ag1 Tl6 3.536183 1_555
Ag2 Te2 2.856363 1_555
Ag2 Te17 2.985015 1_555
Ag2 Te14 2.985015 1_555
Ag2 Ag34 3.004510 1_555
Ag2 Ag30 3.004518 1_545
Ag2 Te3 3.127160 1_555
Ag2 Ag6 3.352205 1_555
Ag2 Tl7 3.560419 1_555
Ag3 Te0 2.857875 1_555
Ag3 Ag6 2.917384 1_555
Ag3 Ag8 2.917384 1_555
Ag3 Te8 2.985681 1_555
Ag3 Te10 2.985682 1_556
Ag3 Ag32 2.986282 1_555
Ag3 Te3 3.131902 1_555
Ag3 Ag4 3.365629 1_555
Ag3 Tl1 3.541861 1_556
Ag4 Te0 2.848264 1_555
Ag4 Ag5 2.916734 1_555
Ag4 Ag7 2.926830 1_555
Ag4 Te9 2.972482 1_655
Ag4 Te11 2.981559 1_656
Ag4 Te3 3.157555 1_555
Ag4 Tl2 3.536178 1_656
Ag5 Te1 2.848264 1_555
Ag5 Ag7 2.926817 1_555
Ag5 Te9 2.972491 1_655
Ag5 Te13 2.981549 1_655
Ag5 Te3 3.157554 1_555
Ag5 Ag9 3.365616 1_555
Ag5 Tl3 3.536186 1_655
Ag6 Te2 2.854639 1_555
Ag6 Ag8 2.914291 1_555
Ag6 Te8 2.976381 1_555
Ag6 Te12 2.989342 1_555
Ag6 Te3 3.148150 1_555
Ag6 Tl3 3.527648 1_555
Ag7 Te5 2.856363 1_555
Ag7 Te13 2.985002 1_655
Ag7 Te11 2.985011 1_656
Ag7 Te3 3.127167 1_555
Ag7 Ag8 3.352218 1_555
Ag7 Tl7 3.560414 1_656
Ag8 Te5 2.854647 1_555
Ag8 Te10 2.976381 1_556
Ag8 Te12 2.989342 1_555
Ag8 Te3 3.148150 1_555
Ag8 Tl6 3.527653 1_556
Ag9 Te1 2.857868 1_555
Ag9 Te4 2.985685 1_545
Ag9 Te7 2.985694 1_545
Ag9 Te3 3.131895 1_555
Ag9 Tl1 3.541866 1_545
Ag10 Te2 2.854639 1_555
Ag10 Ag13 2.914291 1_555
Ag10 Ag9 2.917384 1_555
Ag10 Te4 2.976381 1_545
Ag10 Ag30 2.988269 1_545
Ag10 Te6 2.989342 1_545
Ag10 Ag21 2.996003 1_555
Ag10 Te3 3.148150 1_555
Ag10 Ag2 3.352205 1_555
Ag10 Ag6 3.369016 1_555
Ag10 Tl2 3.527653 1_545
Ag11 Te18 2.857875 1_555
Ag11 Ag14 2.917384 1_555
Ag11 Ag12 2.917384 1_555
Ag11 Te8 2.985681 1_555
Ag11 Te4 2.985682 1_556
Ag11 Ag32 2.986282 1_555
Ag11 Ag29 2.986289 1_556
Ag11 Te20 3.131902 1_555
Ag11 Ag17 3.365629 1_555
Ag11 Ag27 3.365629 1_555
Ag11 Tl1 3.541861 1_556
Ag12 Te19 2.854647 1_555
Ag12 Ag14 2.914291 1_555
Ag12 Te4 2.976381 1_556
Ag12 Ag30 2.988269 1_556
Ag12 Te9 2.989342 1_555
Ag12 Ag33 2.995999 1_555
Ag12 Te20 3.148150 1_555
Ag12 Ag26 3.352218 1_555
Ag12 Ag18 3.369016 1_555
Ag12 Tl2 3.527653 1_556
Ag13 Te5 2.854639 1_555
Ag13 Ag9 2.917391 1_555
Ag13 Te7 2.976381 1_545
Ag13 Ag25 2.988269 1_545
Ag13 Te6 2.989342 1_545
Ag13 Ag24 2.995992 1_555
Ag13 Te3 3.148150 1_555
Ag13 Ag7 3.352211 1_555
Ag13 Ag8 3.369016 1_555
Ag13 Tl4 3.527661 1_545
Ag14 Te21 2.854639 1_555
Ag14 Te8 2.976381 1_555
Ag14 Ag34 2.988276 1_555
Ag14 Te9 2.989342 1_555
Ag14 Ag35 2.996003 1_555
Ag14 Te20 3.148150 1_555
Ag14 Ag20 3.352205 1_555
Ag14 Ag19 3.369016 1_555
Ag14 Tl3 3.527648 1_555
Ag15 Te16 2.857868 1_555
Ag15 Ag19 2.917384 1_555
Ag15 Ag18 2.917391 1_555
Ag15 Te10 2.985685 1_455
Ag15 Te7 2.985694 1_455
Ag15 Ag28 2.986282 1_455
Ag15 Ag22 2.986294 1_455
Ag15 Te20 3.131895 1_555
Ag15 Ag16 3.365603 1_555
Ag15 Ag23 3.365616 1_555
Ag15 Tl1 3.541866 1_455
Ag16 Te16 2.848257 1_555
Ag16 Ag17 2.916734 1_555
Ag16 Ag20 2.926830 1_555
Ag16 Te6 2.972495 1_555
Ag16 Te11 2.981562 1_555
Ag16 Ag21 3.001045 1_565
Ag16 Ag28 3.010932 1_455
Ag16 Te20 3.157547 1_555
Ag16 Ag23 3.370537 1_555
Ag16 Tl2 3.536183 1_555
Ag17 Te18 2.848264 1_555
Ag17 Ag20 2.926831 1_555
Ag17 Te6 2.972482 1_555
Ag17 Te14 2.981559 1_555
Ag17 Ag24 3.001045 1_565
Ag17 Ag32 3.010947 1_555
Ag17 Te20 3.157555 1_555
Ag17 Ag27 3.370537 1_555
Ag17 Tl4 3.536172 1_555
Ag18 Te19 2.854639 1_555
Ag18 Ag19 2.914291 1_555
Ag18 Te7 2.976381 1_455
Ag18 Ag25 2.988269 1_455
Ag18 Te15 2.989342 1_455
Ag18 Ag33 2.995992 1_555
Ag18 Te20 3.148150 1_555
Ag18 Ag26 3.352211 1_555
Ag18 Tl4 3.527661 1_455
Ag19 Te21 2.854639 1_555
Ag19 Te10 2.976381 1_455
Ag19 Ag31 2.988269 1_455
Ag19 Te15 2.989342 1_455
Ag19 Ag35 2.996003 1_555
Ag19 Te20 3.148150 1_555
Ag19 Ag20 3.352205 1_555
Ag19 Tl6 3.527653 1_455
Ag20 Te21 2.856363 1_555
Ag20 Te11 2.985015 1_555
Ag20 Te14 2.985015 1_555
Ag20 Ag34 3.004510 1_555
Ag20 Ag31 3.004518 1_455
Ag20 Te20 3.127160 1_555
Ag20 Tl7 3.560419 1_555
Ag21 Te6 2.884516 1_545
Ag21 Te12 2.884516 1_555
Ag21 Ag24 2.993079 1_555
Ag21 Ag6 2.996003 1_555
Ag21 Ag23 3.001052 1_545
Ag21 Te2 3.030182 1_555
Ag21 Te16 3.038749 1_545
Ag22 Te7 2.873941 1_555
Ag22 Te13 2.909794 1_665
Ag22 Ag9 2.986294 1_565
Ag22 Ag23 3.010928 1_655
Ag22 Ag5 3.010928 1_565
Ag22 Te1 3.022331 1_565
Ag22 Te16 3.022331 1_655
Ag22 Ag25 3.038651 1_555
Ag23 Te16 2.848264 1_555
Ag23 Ag27 2.916734 1_555
Ag23 Ag26 2.926817 1_555
Ag23 Te12 2.972491 1_565
Ag23 Te13 2.981549 1_565
Ag23 Te20 3.157554 1_555
Ag23 Tl3 3.536186 1_565
Ag24 Te6 2.884514 1_545
Ag24 Te12 2.884525 1_555
Ag24 Ag8 2.995999 1_555
Ag24 Ag27 3.001052 1_545
Ag24 Te5 3.030182 1_555
Ag24 Te18 3.038751 1_545
Ag25 Te7 2.869114 1_555
Ag25 Te13 2.887677 1_665
Ag25 Ag26 3.004514 1_655
Ag25 Ag7 3.004514 1_565
Ag25 Te19 3.033745 1_655
Ag25 Te5 3.033745 1_565
Ag26 Te19 2.856363 1_555
Ag26 Ag27 2.926830 1_555
Ag26 Te13 2.985002 1_565
Ag26 Te17 2.985011 1_566
Ag26 Ag30 3.004525 1_556
Ag26 Te20 3.127167 1_555
Ag26 Tl7 3.560414 1_566
Ag27 Te18 2.848264 1_555
Ag27 Te12 2.972482 1_565
Ag27 Te17 2.981559 1_566
Ag27 Ag29 3.010939 1_556
Ag27 Te20 3.157555 1_555
Ag27 Tl6 3.536178 1_566
Ag28 Te10 2.873934 1_555
Ag28 Te11 2.909787 1_655
Ag28 Ag3 2.986289 1_554
Ag28 Ag4 3.010939 1_554
Ag28 Te0 3.022341 1_554
Ag28 Te16 3.022341 1_655
Ag28 Ag31 3.038624 1_555
Ag29 Te4 2.873934 1_555
Ag29 Te17 2.909787 1_565
Ag29 Ag9 2.986282 1_565
Ag29 Te18 3.022341 1_554
Ag29 Te1 3.022341 1_565
Ag29 Ag30 3.038624 1_555
Ag30 Te4 2.869107 1_555
Ag30 Te17 2.887670 1_565
Ag30 Te2 3.033766 1_565
Ag30 Te19 3.033766 1_554
Ag31 Te10 2.869107 1_555
Ag31 Te11 2.887670 1_655
Ag31 Ag8 2.988269 1_554
Ag31 Ag7 3.004525 1_554
Ag31 Te21 3.033766 1_655
Ag31 Te5 3.033766 1_554
Ag32 Te8 2.873923 1_555
Ag32 Te14 2.909798 1_555
Ag32 Te0 3.022341 1_555
Ag32 Te18 3.022341 1_555
Ag32 Ag34 3.038624 1_555
Ag33 Te15 2.884514 1_455
Ag33 Te9 2.884525 1_555
Ag33 Ag35 2.993079 1_555
Ag33 Ag4 3.001052 1_455
Ag33 Te19 3.030182 1_555
Ag33 Te0 3.038751 1_455
Ag34 Te8 2.869118 1_555
Ag34 Te14 2.887659 1_555
Ag34 Ag6 2.988276 1_555
Ag34 Te2 3.033766 1_555
Ag34 Te21 3.033766 1_555
Ag35 Te15 2.884516 1_455
Ag35 Te9 2.884516 1_555
Ag35 Ag5 3.001052 1_455
Ag35 Te21 3.030182 1_555
Ag35 Te1 3.038749 1_455
Te0 Tl0 3.571643 1_556
Te1 Tl0 3.571643 1_545
Te2 Tl0 3.587567 1_445
Te4 Tl1 3.578832 1_555
Te4 Tl2 3.584078 1_555
Te5 Tl0 3.587567 1_546
Te6 Tl2 3.580028 1_555
Te6 Tl4 3.580033 1_555
Te7 Tl1 3.578832 1_555
Te7 Tl4 3.584091 1_555
Te8 Tl1 3.578832 1_556
Te8 Tl3 3.584075 1_555
Te9 Tl2 3.580028 1_556
Te9 Tl3 3.580033 1_555
Te10 Tl1 3.578832 1_555
Te10 Tl6 3.584078 1_555
Te11 Tl5 3.608915 1_555
Te11 Tl2 3.614770 1_555
Te12 Tl6 3.580028 1_556
Te12 Tl3 3.580033 1_555
Te13 Tl5 3.608915 1_556
Te13 Tl3 3.614783 1_555
Te14 Tl5 3.608915 1_555
Te14 Tl4 3.614767 1_555
Te15 Tl6 3.580028 1_555
Te15 Tl4 3.580033 1_555
Te16 Tl0 3.571643 1_455
Te17 Tl5 3.608915 1_555
Te17 Tl6 3.614770 1_555
Te18 Tl0 3.571643 1_556
Te19 Tl0 3.587567 1_456
Te21 Tl0 3.587567 1_445
