# generated using pymatgen
data_CSNO2F3
_symmetry_space_group_name_H-M   'P 1'
_cell_length_a   16.46719300
_cell_length_b   5.29654000
_cell_length_c   17.26873410
_cell_angle_alpha   84.26200800
_cell_angle_beta   90.00000000
_cell_angle_gamma   90.00000000
_symmetry_Int_Tables_number   1
_chemical_formula_structural   CSNO2F3
_chemical_formula_sum   'C12 S12 N12 O24 F36'
_cell_volume   1498.61760246
_cell_formula_units_Z   12
loop_
 _symmetry_equiv_pos_site_id
 _symmetry_equiv_pos_as_xyz
  1  'x, y, z'
loop_
 _atom_site_type_symbol
 _atom_site_label
 _atom_site_symmetry_multiplicity
 _atom_site_fract_x
 _atom_site_fract_y
 _atom_site_fract_z
 _atom_site_occupancy
  C  C0  1  0.40713300  0.48620000  0.18150900  1
  C  C1  1  0.67149700  0.34648200  0.41698700  1
  C  C2  1  0.90713300  0.51380000  0.31849100  1
  C  C3  1  0.54068400  0.91893700  0.29755100  1
  C  C4  1  0.32850300  0.65351800  0.58301300  1
  C  C5  1  0.82850300  0.34648200  0.91698700  1
  C  C6  1  0.95931600  0.91893700  0.79755100  1
  C  C7  1  0.59286700  0.51380000  0.81849100  1
  C  C8  1  0.09286700  0.48620000  0.68150900  1
  C  C9  1  0.17149700  0.65351800  0.08301300  1
  C  C10  1  0.04068400  0.08106300  0.20244900  1
  C  C11  1  0.45931600  0.08106300  0.70244900  1
  S  S0  1  0.60610200  0.79034400  0.92959100  1
  S  S1  1  0.14933900  0.96838300  0.30479400  1
  S  S2  1  0.15508000  0.39990700  0.96674400  1
  S  S3  1  0.65508000  0.60009300  0.53325600  1
  S  S4  1  0.39389800  0.20965600  0.07040900  1
  S  S5  1  0.84492000  0.60009300  0.03325600  1
  S  S6  1  0.10610200  0.20965600  0.57040900  1
  S  S7  1  0.85066100  0.03161700  0.69520600  1
  S  S8  1  0.35066100  0.96838300  0.80479400  1
  S  S9  1  0.64933900  0.03161700  0.19520600  1
  S  S10  1  0.34492000  0.39990700  0.46674400  1
  S  S11  1  0.89389800  0.79034400  0.42959100  1
  N  N0  1  0.30231000  0.46345700  0.53971400  1
  N  N1  1  0.12647000  0.27891300  0.65040500  1
  N  N2  1  0.37353000  0.27891300  0.15040500  1
  N  N3  1  0.69769000  0.53654300  0.46028600  1
  N  N4  1  0.42570500  0.91145600  0.76005700  1
  N  N5  1  0.87353000  0.72108700  0.34959500  1
  N  N6  1  0.57429500  0.08854400  0.23994300  1
  N  N7  1  0.62647000  0.72108700  0.84959500  1
  N  N8  1  0.19769000  0.46345700  0.03971400  1
  N  N9  1  0.92570500  0.08854400  0.73994300  1
  N  N10  1  0.07429500  0.91145600  0.26005700  1
  N  N11  1  0.80231000  0.53654300  0.96028600  1
  O  O0  1  0.80828200  0.78291300  0.07609200  1
  O  O1  1  0.32053000  0.77603600  0.85989200  1
  O  O2  1  0.88149100  0.19089000  0.92804600  1
  O  O3  1  0.45740500  0.63731700  0.15580400  1
  O  O4  1  0.38149100  0.80911000  0.57195400  1
  O  O5  1  0.30828200  0.21708700  0.42390800  1
  O  O6  1  0.82053000  0.22396400  0.64010800  1
  O  O7  1  0.14747000  0.00438700  0.54206700  1
  O  O8  1  0.06317800  0.28616300  0.17462200  1
  O  O9  1  0.19171800  0.21708700  0.92390800  1
  O  O10  1  0.56317800  0.71383700  0.32537800  1
  O  O11  1  0.35253000  0.00438700  0.04206700  1
  O  O12  1  0.67947000  0.22396400  0.14010800  1
  O  O13  1  0.64747000  0.99561300  0.95793300  1
  O  O14  1  0.11850900  0.80911000  0.07195400  1
  O  O15  1  0.61850900  0.19089000  0.42804600  1
  O  O16  1  0.69171800  0.78291300  0.57609200  1
  O  O17  1  0.17947000  0.77603600  0.35989200  1
  O  O18  1  0.54259500  0.36268300  0.84419600  1
  O  O19  1  0.95740500  0.36268300  0.34419600  1
  O  O20  1  0.93682200  0.71383700  0.82537800  1
  O  O21  1  0.85253000  0.99561300  0.45793300  1
  O  O22  1  0.04259500  0.63731700  0.65580400  1
  O  O23  1  0.43682200  0.28616300  0.67462200  1
  F  F0  1  0.38946600  0.44625200  0.00771000  1
  F  F1  1  0.12758500  0.50238400  0.75214700  1
  F  F2  1  0.37241500  0.50238400  0.25214700  1
  F  F3  1  0.02920300  0.02509100  0.82129900  1
  F  F4  1  0.27956700  0.07259000  0.74999600  1
  F  F5  1  0.88946600  0.55374800  0.49229000  1
  F  F6  1  0.93563100  0.67397200  0.01635400  1
  F  F7  1  0.63859400  0.78025000  0.15480200  1
  F  F8  1  0.77956700  0.92741000  0.75000400  1
  F  F9  1  0.13561400  0.64502000  0.91121500  1
  F  F10  1  0.27955500  0.64808000  0.64727600  1
  F  F11  1  0.77955500  0.35192000  0.85272400  1
  F  F12  1  0.86140600  0.78025000  0.65480200  1
  F  F13  1  0.01165400  0.17031300  0.56104900  1
  F  F14  1  0.52920300  0.97490900  0.67870100  1
  F  F15  1  0.86438600  0.35498000  0.08878500  1
  F  F16  1  0.36438600  0.64502000  0.41121500  1
  F  F17  1  0.06436900  0.32602800  0.98364600  1
  F  F18  1  0.11053400  0.44625200  0.50771000  1
  F  F19  1  0.98834600  0.82968700  0.43895100  1
  F  F20  1  0.62758500  0.49761600  0.74785300  1
  F  F21  1  0.61053400  0.55374800  0.99229000  1
  F  F22  1  0.72043300  0.92741000  0.25000400  1
  F  F23  1  0.97079700  0.97490900  0.17870100  1
  F  F24  1  0.47079700  0.02509100  0.32129900  1
  F  F25  1  0.13859400  0.21975000  0.34519800  1
  F  F26  1  0.87241500  0.49761600  0.24785300  1
  F  F27  1  0.63561400  0.35498000  0.58878500  1
  F  F28  1  0.56436900  0.67397200  0.51635400  1
  F  F29  1  0.22043300  0.07259000  0.24999600  1
  F  F30  1  0.43563100  0.32602800  0.48364600  1
  F  F31  1  0.72044500  0.35192000  0.35272400  1
  F  F32  1  0.51165400  0.82968700  0.93895100  1
  F  F33  1  0.48834600  0.17031300  0.06104900  1
  F  F34  1  0.36140600  0.21975000  0.84519800  1
  F  F35  1  0.22044500  0.64808000  0.14727600  1
loop_
_geom_bond_atom_site_label_1
_geom_bond_atom_site_label_2
_geom_bond_distance
_geom_bond_site_symmetry_2
C0 O3 1.204969 1_555
C0 F2 1.357604 1_555
C0 N2 1.384922 1_555
C1 O15 1.202293 1_555
C1 F31 1.369546 1_555
C1 N3 1.381669 1_555
C2 O19 1.204969 1_555
C2 F26 1.357604 1_555
C2 N5 1.384922 1_555
C3 O10 1.201595 1_555
C3 F24 1.361928 1_565
C3 N6 1.387191 1_565
C4 O4 1.202293 1_555
C4 F10 1.369546 1_555
C4 N0 1.381669 1_555
C5 O2 1.202293 1_555
C5 F11 1.369546 1_555
C5 N11 1.381669 1_555
C6 O20 1.201595 1_555
C6 F3 1.361928 1_665
C6 N9 1.387191 1_565
C7 O18 1.204969 1_555
C7 F20 1.357604 1_555
C7 N7 1.384922 1_555
C8 O22 1.204969 1_555
C8 F1 1.357604 1_555
C8 N1 1.384922 1_555
C9 O14 1.202293 1_555
C9 F35 1.369546 1_555
C9 N8 1.381669 1_555
C10 O8 1.201595 1_555
C10 F23 1.361928 1_445
C10 N10 1.387191 1_545
C11 O23 1.201595 1_555
C11 F14 1.361928 1_545
C11 N4 1.387191 1_545
N0 S10 1.509402 1_555
N1 S6 1.502241 1_555
N2 S4 1.502241 1_555
N3 S3 1.509402 1_555
N4 S8 1.503808 1_555
N5 S11 1.502241 1_555
N6 S9 1.503808 1_555
N7 S0 1.502241 1_555
N8 S2 1.509402 1_554
N9 S7 1.503808 1_555
N10 S1 1.503808 1_555
N11 S5 1.509402 1_556
O0 S5 1.411400 1_555
O1 S8 1.412643 1_555
O5 S10 1.411400 1_555
O6 S7 1.412643 1_555
O7 S6 1.411395 1_555
O9 S2 1.411400 1_555
O11 S4 1.411395 1_555
O12 S9 1.412643 1_555
O13 S0 1.411395 1_555
O16 S3 1.411400 1_555
O17 S1 1.412643 1_555
O21 S11 1.411395 1_555
F0 S4 1.573750 1_555
F4 S8 1.570429 1_545
F5 S11 1.573750 1_555
F6 S5 1.564218 1_555
F7 S9 1.573670 1_565
F8 S7 1.570429 1_565
F9 S2 1.568055 1_555
F12 S7 1.573670 1_565
F13 S6 1.579627 1_555
F15 S5 1.568055 1_555
F16 S10 1.568055 1_555
F17 S2 1.564218 1_555
F18 S6 1.573750 1_555
F19 S11 1.579627 1_555
F21 S0 1.573750 1_555
F22 S9 1.570429 1_565
F25 S1 1.573670 1_545
F27 S3 1.568055 1_555
F28 S3 1.564218 1_555
F29 S1 1.570429 1_545
F30 S10 1.564218 1_555
F32 S0 1.579627 1_555
F33 S4 1.579627 1_555
F34 S8 1.573670 1_545
