# generated using pymatgen
data_Cs5Mo21Se23
_symmetry_space_group_name_H-M   'P 1'
_cell_length_a   9.88780001
_cell_length_b   9.88780001
_cell_length_c   30.19939600
_cell_angle_alpha   90.00000000
_cell_angle_beta   90.00000000
_cell_angle_gamma   120.00000007
_symmetry_Int_Tables_number   1
_chemical_formula_structural   Cs5Mo21Se23
_chemical_formula_sum   'Cs10 Mo42 Se46'
_cell_volume   2556.98532814
_cell_formula_units_Z   2
loop_
 _symmetry_equiv_pos_site_id
 _symmetry_equiv_pos_as_xyz
  1  'x, y, z'
loop_
 _atom_site_type_symbol
 _atom_site_label
 _atom_site_symmetry_multiplicity
 _atom_site_fract_x
 _atom_site_fract_y
 _atom_site_fract_z
 _atom_site_occupancy
  Cs  Cs0  1  0.66666700  0.33333300  0.33283300  1
  Cs  Cs1  1  0.00000000  0.00000000  0.75000000  1
  Cs  Cs2  1  0.66666700  0.33333300  0.16716700  1
  Cs  Cs3  1  0.00000000  0.00000000  0.09348200  1
  Cs  Cs4  1  0.33333300  0.66666700  0.66716700  1
  Cs  Cs5  1  0.00000000  0.00000000  0.90651800  1
  Cs  Cs6  1  0.00000000  0.00000000  0.59348200  1
  Cs  Cs7  1  0.00000000  0.00000000  0.40651800  1
  Cs  Cs8  1  0.00000000  0.00000000  0.25000000  1
  Cs  Cs9  1  0.33333300  0.66666700  0.83283300  1
  Mo  Mo0  1  0.49825200  0.68729800  0.25000000  1
  Mo  Mo1  1  0.16851000  0.64656300  0.17480900  1
  Mo  Mo2  1  0.83149000  0.35343700  0.82519100  1
  Mo  Mo3  1  0.50174800  0.31270200  0.75000000  1
  Mo  Mo4  1  0.64620500  0.47746900  0.97603100  1
  Mo  Mo5  1  0.52194700  0.16851000  0.82519100  1
  Mo  Mo6  1  0.47805300  0.83149000  0.17480900  1
  Mo  Mo7  1  0.50191200  0.31580100  0.89997500  1
  Mo  Mo8  1  0.64656300  0.47805300  0.67480900  1
  Mo  Mo9  1  0.81095500  0.49825200  0.75000000  1
  Mo  Mo10  1  0.35343700  0.52194700  0.32519100  1
  Mo  Mo11  1  0.18904500  0.50174800  0.25000000  1
  Mo  Mo12  1  0.35379500  0.52253100  0.02396900  1
  Mo  Mo13  1  0.68419900  0.18611100  0.89997500  1
  Mo  Mo14  1  0.16873600  0.64620500  0.47603100  1
  Mo  Mo15  1  0.52253100  0.16873600  0.52396900  1
  Mo  Mo16  1  0.18611100  0.50191200  0.10002500  1
  Mo  Mo17  1  0.64656300  0.47805300  0.82519100  1
  Mo  Mo18  1  0.50191200  0.31580100  0.60002500  1
  Mo  Mo19  1  0.31580100  0.81388900  0.10002500  1
  Mo  Mo20  1  0.52194700  0.16851000  0.67480900  1
  Mo  Mo21  1  0.64620500  0.47746900  0.52396900  1
  Mo  Mo22  1  0.68419900  0.18611100  0.60002500  1
  Mo  Mo23  1  0.18611100  0.50191200  0.39997500  1
  Mo  Mo24  1  0.68729800  0.18904500  0.75000000  1
  Mo  Mo25  1  0.83149000  0.35343700  0.67480900  1
  Mo  Mo26  1  0.35343700  0.52194700  0.17480900  1
  Mo  Mo27  1  0.35379500  0.52253100  0.47603100  1
  Mo  Mo28  1  0.47746900  0.83126400  0.02396900  1
  Mo  Mo29  1  0.81388900  0.49808800  0.89997500  1
  Mo  Mo30  1  0.83126400  0.35379500  0.97603100  1
  Mo  Mo31  1  0.49808800  0.68419900  0.39997500  1
  Mo  Mo32  1  0.83126400  0.35379500  0.52396900  1
  Mo  Mo33  1  0.31580100  0.81388900  0.39997500  1
  Mo  Mo34  1  0.81388900  0.49808800  0.60002500  1
  Mo  Mo35  1  0.16851000  0.64656300  0.32519100  1
  Mo  Mo36  1  0.31270200  0.81095500  0.25000000  1
  Mo  Mo37  1  0.49808800  0.68419900  0.10002500  1
  Mo  Mo38  1  0.52253100  0.16873600  0.97603100  1
  Mo  Mo39  1  0.47746900  0.83126400  0.47603100  1
  Mo  Mo40  1  0.47805300  0.83149000  0.32519100  1
  Mo  Mo41  1  0.16873600  0.64620500  0.02396900  1
  Se  Se0  1  0.70340200  0.04662300  0.52914100  1
  Se  Se1  1  0.01208100  0.63081800  0.09915000  1
  Se  Se2  1  0.29659800  0.95337700  0.02914100  1
  Se  Se3  1  0.62353300  0.61759900  0.75000000  1
  Se  Se4  1  0.70842100  0.04830100  0.82476000  1
  Se  Se5  1  0.66666700  0.33333300  0.04315400  1
  Se  Se6  1  0.01208100  0.63081800  0.40085000  1
  Se  Se7  1  0.98791900  0.36918200  0.90085000  1
  Se  Se8  1  0.63081800  0.61873700  0.90085000  1
  Se  Se9  1  0.33333300  0.66666700  0.95684600  1
  Se  Se10  1  0.38240100  0.00593400  0.75000000  1
  Se  Se11  1  0.95169900  0.66012100  0.82476000  1
  Se  Se12  1  0.99406600  0.37646700  0.75000000  1
  Se  Se13  1  0.04662300  0.34322100  0.02914100  1
  Se  Se14  1  0.36918200  0.38126300  0.09915000  1
  Se  Se15  1  0.04830100  0.33987900  0.17524000  1
  Se  Se16  1  0.95169900  0.66012100  0.67524000  1
  Se  Se17  1  0.33333300  0.66666700  0.54315400  1
  Se  Se18  1  0.29157900  0.95169900  0.17524000  1
  Se  Se19  1  0.29157900  0.95169900  0.32476000  1
  Se  Se20  1  0.29659800  0.95337700  0.47085900  1
  Se  Se21  1  0.98791900  0.36918200  0.59915000  1
  Se  Se22  1  0.63081800  0.61873700  0.59915000  1
  Se  Se23  1  0.70340200  0.04662300  0.97085900  1
  Se  Se24  1  0.61873700  0.98791900  0.09915000  1
  Se  Se25  1  0.04830100  0.33987900  0.32476000  1
  Se  Se26  1  0.38126300  0.01208100  0.59915000  1
  Se  Se27  1  0.00593400  0.62353300  0.25000000  1
  Se  Se28  1  0.65677900  0.70340200  0.02914100  1
  Se  Se29  1  0.61873700  0.98791900  0.40085000  1
  Se  Se30  1  0.34322100  0.29659800  0.97085900  1
  Se  Se31  1  0.95337700  0.65677900  0.97085900  1
  Se  Se32  1  0.37646700  0.38240100  0.25000000  1
  Se  Se33  1  0.36918200  0.38126300  0.40085000  1
  Se  Se34  1  0.61759900  0.99406600  0.25000000  1
  Se  Se35  1  0.33987900  0.29157900  0.82476000  1
  Se  Se36  1  0.66012100  0.70842100  0.17524000  1
  Se  Se37  1  0.33987900  0.29157900  0.67524000  1
  Se  Se38  1  0.66012100  0.70842100  0.32476000  1
  Se  Se39  1  0.70842100  0.04830100  0.67524000  1
  Se  Se40  1  0.04662300  0.34322100  0.47085900  1
  Se  Se41  1  0.65677900  0.70340200  0.47085900  1
  Se  Se42  1  0.95337700  0.65677900  0.52914100  1
  Se  Se43  1  0.34322100  0.29659800  0.52914100  1
  Se  Se44  1  0.38126300  0.01208100  0.90085000  1
  Se  Se45  1  0.66666700  0.33333300  0.45684600  1
loop_
_geom_bond_atom_site_label_1
_geom_bond_atom_site_label_2
_geom_bond_distance
_geom_bond_site_symmetry_2
Cs0 Se45 3.745118 1_555
Cs0 Se19 3.749512 1_545
Cs0 Se25 3.749512 1_655
Cs0 Se38 3.749512 1_555
Cs0 Se29 3.806579 1_545
Cs0 Se6 3.806582 1_655
Cs0 Se33 3.806587 1_555
Cs0 Se34 4.014814 1_545
Cs0 Se27 4.014817 1_655
Cs0 Se32 4.014822 1_555
Cs1 Se3 3.752112 1_445
Cs1 Se10 3.752112 1_555
Cs1 Se12 3.752112 1_455
Cs1 Se11 3.874832 1_445
Cs1 Se16 3.874832 1_445
Cs1 Se37 3.874835 1_555
Cs1 Se35 3.874835 1_555
Cs1 Se39 3.874840 1_455
Cs1 Se4 3.874840 1_455
Cs2 Se5 3.745118 1_555
Cs2 Se18 3.749512 1_545
Cs2 Se15 3.749512 1_655
Cs2 Se36 3.749512 1_555
Cs2 Se24 3.806579 1_545
Cs2 Se1 3.806582 1_655
Cs2 Se14 3.806587 1_555
Cs2 Se34 4.014814 1_545
Cs2 Se27 4.014817 1_655
Cs2 Se32 4.014822 1_555
Cs3 Se14 3.715512 1_555
Cs3 Se24 3.715512 1_445
Cs3 Se1 3.715512 1_545
Cs3 Se28 3.733726 1_445
Cs3 Se13 3.733726 1_555
Cs3 Se2 3.733726 1_545
Cs3 Se15 4.001656 1_555
Cs3 Se36 4.001659 1_445
Cs3 Se18 4.001664 1_545
Cs4 Se17 3.745118 1_555
Cs4 Se39 3.749512 1_565
Cs4 Se16 3.749512 1_455
Cs4 Se37 3.749512 1_555
Cs4 Se26 3.806579 1_565
Cs4 Se21 3.806582 1_455
Cs4 Se22 3.806587 1_555
Cs4 Se10 4.014814 1_565
Cs4 Se12 4.014817 1_455
Cs4 Se3 4.014822 1_555
Cs5 Se8 3.715512 1_445
Cs5 Se44 3.715512 1_555
Cs5 Se7 3.715512 1_455
Cs5 Se30 3.733726 1_555
Cs5 Se31 3.733726 1_445
Cs5 Se23 3.733726 1_455
Cs5 Se11 4.001656 1_445
Cs5 Se35 4.001659 1_555
Cs5 Se4 4.001664 1_455
Cs6 Se22 3.715512 1_445
Cs6 Se26 3.715512 1_555
Cs6 Se21 3.715512 1_455
Cs6 Se43 3.733726 1_555
Cs6 Se42 3.733726 1_445
Cs6 Se0 3.733726 1_455
Cs6 Se16 4.001656 1_445
Cs6 Se37 4.001659 1_555
Cs6 Se39 4.001664 1_455
Cs7 Se33 3.715512 1_555
Cs7 Se29 3.715512 1_445
Cs7 Se6 3.715512 1_545
Cs7 Se41 3.733726 1_445
Cs7 Se40 3.733726 1_555
Cs7 Se20 3.733726 1_545
Cs7 Se25 4.001656 1_555
Cs7 Se38 4.001659 1_445
Cs7 Se19 4.001664 1_545
Cs8 Se32 3.752112 1_555
Cs8 Se34 3.752112 1_445
Cs8 Se27 3.752112 1_545
Cs8 Se25 3.874832 1_555
Cs8 Se15 3.874832 1_555
Cs8 Se36 3.874835 1_445
Cs8 Se38 3.874835 1_445
Cs8 Se18 3.874840 1_545
Cs8 Se19 3.874840 1_545
Cs9 Se9 3.745118 1_555
Cs9 Se4 3.749512 1_565
Cs9 Se11 3.749512 1_455
Cs9 Se35 3.749512 1_555
Cs9 Se44 3.806579 1_565
Cs9 Se7 3.806582 1_455
Cs9 Se8 3.806587 1_555
Cs9 Se10 4.014814 1_565
Cs9 Se12 4.014817 1_455
Cs9 Se3 4.014822 1_555
Mo0 Se32 2.628405 1_555
Mo0 Se34 2.648352 1_555
Mo0 Se38 2.714455 1_555
Mo0 Se36 2.714455 1_555
Mo1 Se18 2.629168 1_555
Mo1 Se15 2.646549 1_555
Mo1 Se1 2.719633 1_555
Mo1 Se27 2.725086 1_555
Mo2 Se4 2.629168 1_555
Mo2 Se11 2.646549 1_555
Mo2 Se7 2.719633 1_555
Mo2 Se12 2.725086 1_555
Mo3 Se3 2.628405 1_555
Mo3 Se10 2.648352 1_555
Mo3 Se35 2.714455 1_555
Mo3 Se37 2.714455 1_555
Mo4 Se5 2.543516 1_556
Mo4 Se30 2.615358 1_555
Mo4 Se31 2.647221 1_555
Mo4 Se28 2.709334 1_556
Mo4 Se8 2.709541 1_555
Mo5 Se35 2.629177 1_555
Mo5 Se4 2.646540 1_555
Mo5 Se44 2.719633 1_555
Mo5 Se10 2.725086 1_555
Mo6 Se36 2.629177 1_555
Mo6 Se18 2.646540 1_555
Mo6 Se24 2.719633 1_555
Mo6 Se34 2.725086 1_555
Mo7 Se8 2.603776 1_555
Mo7 Se30 2.604344 1_555
Mo7 Se44 2.619159 1_555
Mo7 Se35 2.720294 1_555
Mo8 Se16 2.629169 1_555
Mo8 Se37 2.646548 1_555
Mo8 Se22 2.719633 1_555
Mo8 Se3 2.725086 1_555
Mo9 Se12 2.628396 1_555
Mo9 Se3 2.648361 1_555
Mo9 Se16 2.714451 1_555
Mo9 Se11 2.714451 1_555
Mo10 Se25 2.629169 1_555
Mo10 Se38 2.646548 1_555
Mo10 Se33 2.719633 1_555
Mo10 Se32 2.725086 1_555
Mo11 Se27 2.628396 1_555
Mo11 Se32 2.648361 1_555
Mo11 Se25 2.714451 1_555
Mo11 Se15 2.714451 1_555
Mo12 Se9 2.543516 1_554
Mo12 Se28 2.615358 1_555
Mo12 Se13 2.647221 1_555
Mo12 Se30 2.709334 1_554
Mo12 Se14 2.709541 1_555
Mo13 Se44 2.603776 1_555
Mo13 Se23 2.604344 1_555
Mo13 Se7 2.619159 1_555
Mo13 Se4 2.720289 1_555
Mo14 Se17 2.543510 1_555
Mo14 Se40 2.615358 1_555
Mo14 Se20 2.647221 1_555
Mo14 Se42 2.709334 1_455
Mo14 Se6 2.709541 1_555
Mo15 Se45 2.543513 1_555
Mo15 Se0 2.615358 1_555
Mo15 Se43 2.647221 1_555
Mo15 Se20 2.709334 1_545
Mo15 Se26 2.709541 1_555
Mo16 Se1 2.603776 1_555
Mo16 Se13 2.604344 1_555
Mo16 Se14 2.619159 1_555
Mo16 Se15 2.720292 1_555
Mo17 Se11 2.629169 1_555
Mo17 Se35 2.646548 1_555
Mo17 Se8 2.719633 1_555
Mo17 Se3 2.725086 1_555
Mo18 Se22 2.603776 1_555
Mo18 Se43 2.604344 1_555
Mo18 Se26 2.619159 1_555
Mo18 Se37 2.720294 1_555
Mo19 Se24 2.603776 1_555
Mo19 Se2 2.604344 1_555
Mo19 Se1 2.619159 1_555
Mo19 Se18 2.720289 1_555
Mo20 Se37 2.629177 1_555
Mo20 Se39 2.646540 1_555
Mo20 Se26 2.719633 1_555
Mo20 Se10 2.725086 1_555
Mo21 Se45 2.543516 1_555
Mo21 Se43 2.615358 1_555
Mo21 Se42 2.647221 1_555
Mo21 Se41 2.709334 1_555
Mo21 Se22 2.709541 1_555
Mo22 Se26 2.603776 1_555
Mo22 Se0 2.604344 1_555
Mo22 Se21 2.619159 1_555
Mo22 Se39 2.720289 1_555
Mo23 Se6 2.603776 1_555
Mo23 Se40 2.604344 1_555
Mo23 Se33 2.619159 1_555
Mo23 Se25 2.720292 1_555
Mo24 Se10 2.628404 1_555
Mo24 Se12 2.648353 1_555
Mo24 Se4 2.714444 1_555
Mo24 Se39 2.714444 1_555
Mo25 Se39 2.629168 1_555
Mo25 Se16 2.646549 1_555
Mo25 Se21 2.719633 1_555
Mo25 Se12 2.725086 1_555
Mo26 Se15 2.629169 1_555
Mo26 Se36 2.646548 1_555
Mo26 Se14 2.719633 1_555
Mo26 Se32 2.725086 1_555
Mo27 Se17 2.543516 1_555
Mo27 Se41 2.615358 1_555
Mo27 Se40 2.647221 1_555
Mo27 Se43 2.709334 1_555
Mo27 Se33 2.709541 1_555
Mo28 Se9 2.543513 1_554
Mo28 Se2 2.615358 1_555
Mo28 Se28 2.647221 1_555
Mo28 Se23 2.709334 1_564
Mo28 Se24 2.709541 1_555
Mo29 Se7 2.603776 1_555
Mo29 Se31 2.604344 1_555
Mo29 Se8 2.619159 1_555
Mo29 Se11 2.720292 1_555
Mo30 Se5 2.543510 1_556
Mo30 Se31 2.615358 1_555
Mo30 Se23 2.647221 1_555
Mo30 Se13 2.709334 1_656
Mo30 Se7 2.709541 1_555
Mo31 Se33 2.603776 1_555
Mo31 Se41 2.604344 1_555
Mo31 Se29 2.619159 1_555
Mo31 Se38 2.720294 1_555
Mo32 Se45 2.543510 1_555
Mo32 Se42 2.615358 1_555
Mo32 Se0 2.647221 1_555
Mo32 Se40 2.709334 1_655
Mo32 Se21 2.709541 1_555
Mo33 Se29 2.603776 1_555
Mo33 Se20 2.604344 1_555
Mo33 Se6 2.619159 1_555
Mo33 Se19 2.720289 1_555
Mo34 Se21 2.603776 1_555
Mo34 Se42 2.604344 1_555
Mo34 Se22 2.619159 1_555
Mo34 Se16 2.720292 1_555
Mo35 Se19 2.629168 1_555
Mo35 Se25 2.646549 1_555
Mo35 Se6 2.719633 1_555
Mo35 Se27 2.725086 1_555
Mo36 Se34 2.628404 1_555
Mo36 Se27 2.648353 1_555
Mo36 Se19 2.714444 1_555
Mo36 Se18 2.714444 1_555
Mo37 Se14 2.603776 1_555
Mo37 Se28 2.604344 1_555
Mo37 Se24 2.619159 1_555
Mo37 Se36 2.720294 1_555
Mo38 Se5 2.543513 1_556
Mo38 Se23 2.615358 1_555
Mo38 Se30 2.647221 1_555
Mo38 Se2 2.709334 1_546
Mo38 Se44 2.709541 1_555
Mo39 Se17 2.543513 1_555
Mo39 Se20 2.615358 1_555
Mo39 Se41 2.647221 1_555
Mo39 Se0 2.709334 1_565
Mo39 Se29 2.709541 1_555
Mo40 Se38 2.629177 1_555
Mo40 Se19 2.646540 1_555
Mo40 Se29 2.719633 1_555
Mo40 Se34 2.725086 1_555
Mo41 Se9 2.543510 1_554
Mo41 Se13 2.615358 1_555
Mo41 Se2 2.647221 1_555
Mo41 Se31 2.709334 1_454
Mo41 Se1 2.709541 1_555
