# generated using pymatgen
data_Ho7In(CoGe3)4
_symmetry_space_group_name_H-M   'P 1'
_cell_length_a   10.38063000
_cell_length_b   10.38063000
_cell_length_c   4.17662000
_cell_angle_alpha   90.00000000
_cell_angle_beta   90.00000000
_cell_angle_gamma   90.00000000
_symmetry_Int_Tables_number   1
_chemical_formula_structural   Ho7In(CoGe3)4
_chemical_formula_sum   'Ho7 In1 Co4 Ge12'
_cell_volume   450.06204276
_cell_formula_units_Z   1
loop_
 _symmetry_equiv_pos_site_id
 _symmetry_equiv_pos_as_xyz
  1  'x, y, z'
loop_
 _atom_site_type_symbol
 _atom_site_label
 _atom_site_symmetry_multiplicity
 _atom_site_fract_x
 _atom_site_fract_y
 _atom_site_fract_z
 _atom_site_occupancy
  Ho  Ho0  1  0.67480300  0.67765100  0.50000000  1
  Ho  Ho1  1  0.32234900  0.67480300  0.50000000  1
  Ho  Ho2  1  0.00000000  0.00000000  0.00000000  1
  Ho  Ho3  1  0.32519700  0.32234900  0.50000000  1
  Ho  Ho4  1  0.00000000  0.50000000  0.50000000  1
  Ho  Ho5  1  0.67765100  0.32519700  0.50000000  1
  Ho  Ho6  1  0.50000000  0.00000000  0.50000000  1
  In  In0  1  0.50000000  0.50000000  0.00000000  1
  Co  Co0  1  0.11769600  0.27853600  0.00000000  1
  Co  Co1  1  0.72146400  0.11769600  0.00000000  1
  Co  Co2  1  0.88230400  0.72146400  0.00000000  1
  Co  Co3  1  0.27853600  0.88230400  0.00000000  1
  Ge  Ge0  1  0.48643200  0.78777400  0.00000000  1
  Ge  Ge1  1  0.78777400  0.51356800  0.00000000  1
  Ge  Ge2  1  0.51356800  0.21222600  0.00000000  1
  Ge  Ge3  1  0.06536600  0.19439300  0.50000000  1
  Ge  Ge4  1  0.88723200  0.28507600  0.00000000  1
  Ge  Ge5  1  0.71492400  0.88723200  0.00000000  1
  Ge  Ge6  1  0.93463400  0.80560700  0.50000000  1
  Ge  Ge7  1  0.80560700  0.06536600  0.50000000  1
  Ge  Ge8  1  0.11276800  0.71492400  0.00000000  1
  Ge  Ge9  1  0.19439300  0.93463400  0.50000000  1
  Ge  Ge10  1  0.28507600  0.11276800  0.00000000  1
  Ge  Ge11  1  0.21222600  0.48643200  0.00000000  1
loop_
_geom_bond_atom_site_label_1
_geom_bond_atom_site_label_2
_geom_bond_distance
_geom_bond_site_symmetry_2
Ho0 In0 3.324831 1_555
Ho0 In0 3.324831 1_556
Ho1 In0 3.324831 1_556
Ho1 In0 3.324831 1_555
Ho3 In0 3.324831 1_555
Ho3 In0 3.324831 1_556
Ho5 In0 3.324831 1_555
Ho5 In0 3.324831 1_556
Co0 Ge3 2.327886 1_554
Co0 Ge3 2.327886 1_555
Co0 Ge11 2.370711 1_555
Co0 Ge4 2.393325 1_455
Co0 Ge10 2.445406 1_555
Co0 Ho3 3.034397 1_555
Co0 Ho3 3.034397 1_554
Co0 Ho2 3.138912 1_555
Co0 Ho4 3.337490 1_555
Co0 Ho4 3.337490 1_554
Co1 Ge7 2.327886 1_554
Co1 Ge7 2.327886 1_555
Co1 Ge2 2.370711 1_555
Co1 Ge5 2.393325 1_545
Co1 Ge4 2.445406 1_555
Co1 Ho5 3.034397 1_554
Co1 Ho5 3.034397 1_555
Co1 Ho2 3.138912 1_655
Co1 Ho6 3.337490 1_554
Co1 Ho6 3.337490 1_555
Co2 Ge6 2.327886 1_554
Co2 Ge6 2.327886 1_555
Co2 Ge1 2.370711 1_555
Co2 Ge8 2.393325 1_655
Co2 Ge5 2.445406 1_555
Co2 Ho0 3.034397 1_555
Co2 Ho0 3.034397 1_554
Co2 Ho2 3.138912 1_665
Co2 Ho4 3.337490 1_655
Co2 Ho4 3.337490 1_654
Co3 Ge9 2.327886 1_555
Co3 Ge9 2.327886 1_554
Co3 Ge0 2.370711 1_555
Co3 Ge10 2.393325 1_565
Co3 Ge8 2.445406 1_555
Co3 Ho1 3.034397 1_554
Co3 Ho1 3.034397 1_555
Co3 Ho2 3.138912 1_565
Co3 Ho6 3.337490 1_565
Co3 Ho6 3.337490 1_564
Ge0 Ge5 2.586850 1_555
Ge0 Ho1 2.938957 1_555
Ge0 Ho1 2.938957 1_554
Ge0 In0 2.990594 1_555
Ge0 Ho6 3.038792 1_565
Ge0 Ho6 3.038792 1_564
Ge0 Ho0 3.080819 1_555
Ge0 Ho0 3.080819 1_554
Ge1 Ge4 2.586850 1_555
Ge1 Ho0 2.938957 1_554
Ge1 Ho0 2.938957 1_555
Ge1 In0 2.990594 1_555
Ge1 Ho4 3.038792 1_654
Ge1 Ho4 3.038792 1_655
Ge1 Ho5 3.080819 1_554
Ge1 Ho5 3.080819 1_555
Ge2 Ho5 2.938957 1_554
Ge2 Ho5 2.938957 1_555
Ge2 In0 2.990594 1_555
Ge2 Ho6 3.038792 1_555
Ge2 Ho6 3.038792 1_554
Ge2 Ho3 3.080819 1_555
Ge2 Ho3 3.080819 1_554
Ge3 Ge4 2.943892 1_455
Ge3 Ge4 2.943892 1_456
Ge3 Ho2 2.982191 1_556
Ge3 Ho2 2.982191 1_555
Ge3 Ho3 3.006530 1_555
Ge3 Ho4 3.244148 1_555
Ge4 Ho5 3.044282 1_555
Ge4 Ho5 3.044282 1_554
Ge4 Ho2 3.182386 1_655
Ge4 Ho4 3.272448 1_654
Ge4 Ho4 3.272448 1_655
Ge5 Ge7 2.943892 1_565
Ge5 Ge7 2.943892 1_564
Ge5 Ho0 3.044282 1_555
Ge5 Ho0 3.044282 1_554
Ge5 Ho2 3.182386 1_665
Ge5 Ho6 3.272448 1_565
Ge5 Ho6 3.272448 1_564
Ge6 Ge8 2.943892 1_655
Ge6 Ge8 2.943892 1_656
Ge6 Ho2 2.982191 1_665
Ge6 Ho2 2.982191 1_666
Ge6 Ho0 3.006530 1_555
Ge6 Ho4 3.244148 1_655
Ge7 Ho2 2.982191 1_656
Ge7 Ho2 2.982191 1_655
Ge7 Ho5 3.006530 1_555
Ge7 Ho6 3.244148 1_555
Ge8 Ho1 3.044282 1_555
Ge8 Ho1 3.044282 1_554
Ge8 Ho2 3.182386 1_565
Ge8 Ho4 3.272448 1_555
Ge8 Ho4 3.272448 1_554
Ge9 Ho2 2.982191 1_565
Ge9 Ho2 2.982191 1_566
Ge9 Ho1 3.006530 1_555
Ge9 Ho6 3.244148 1_565
Ge10 Ge2 2.586850 1_555
Ge10 Ge9 2.943892 1_545
Ge10 Ge9 2.943892 1_544
Ge10 Ho3 3.044282 1_555
Ge10 Ho3 3.044282 1_554
Ge10 Ho2 3.182386 1_555
Ge10 Ho6 3.272448 1_555
Ge10 Ho6 3.272448 1_554
Ge11 Ge8 2.586850 1_555
Ge11 Ho3 2.938957 1_555
Ge11 Ho3 2.938957 1_554
Ge11 In0 2.990594 1_555
Ge11 Ho4 3.038792 1_555
Ge11 Ho4 3.038792 1_554
Ge11 Ho1 3.080819 1_555
Ge11 Ho1 3.080819 1_554
