# generated using pymatgen
data_CaP2Xe5F22
_symmetry_space_group_name_H-M   'P 1'
_cell_length_a   8.62053700
_cell_length_b   14.97446400
_cell_length_c   17.68778800
_cell_angle_alpha   90.00000000
_cell_angle_beta   90.00000000
_cell_angle_gamma   90.00000000
_symmetry_Int_Tables_number   1
_chemical_formula_structural   CaP2Xe5F22
_chemical_formula_sum   'Ca4 P8 Xe20 F88'
_cell_volume   2283.27977943
_cell_formula_units_Z   4
loop_
 _symmetry_equiv_pos_site_id
 _symmetry_equiv_pos_as_xyz
  1  'x, y, z'
loop_
 _atom_site_type_symbol
 _atom_site_label
 _atom_site_symmetry_multiplicity
 _atom_site_fract_x
 _atom_site_fract_y
 _atom_site_fract_z
 _atom_site_occupancy
  Ca  Ca0  1  0.73176800  0.33055300  0.58562600  1
  Ca  Ca1  1  0.23176800  0.16944700  0.08562600  1
  Ca  Ca2  1  0.26823200  0.66944700  0.08562600  1
  Ca  Ca3  1  0.76823200  0.83055300  0.58562600  1
  P  P0  1  0.99598400  0.02178300  0.97217500  1
  P  P1  1  0.49598400  0.47821700  0.47217500  1
  P  P2  1  0.00401600  0.97821700  0.47217500  1
  P  P3  1  0.50401600  0.52178300  0.97217500  1
  P  P4  1  0.00676200  0.50681000  0.21540200  1
  P  P5  1  0.50676200  0.99319000  0.71540200  1
  P  P6  1  0.49323800  0.00681000  0.21540200  1
  P  P7  1  0.99323800  0.49319000  0.71540200  1
  Xe  Xe0  1  0.72949800  0.23288300  0.80863500  1
  Xe  Xe1  1  0.28565300  0.27777000  0.87743600  1
  Xe  Xe2  1  0.22949800  0.26711700  0.30863500  1
  Xe  Xe3  1  0.27050200  0.76711700  0.30863500  1
  Xe  Xe4  1  0.50367600  0.01410500  0.46525200  1
  Xe  Xe5  1  0.24902800  0.24596100  0.59236000  1
  Xe  Xe6  1  0.77050200  0.73288300  0.80863500  1
  Xe  Xe7  1  0.25097200  0.74596100  0.59236000  1
  Xe  Xe8  1  0.00571900  0.02180100  0.71949100  1
  Xe  Xe9  1  0.50571900  0.47819900  0.21949100  1
  Xe  Xe10  1  0.74902800  0.25403900  0.09236000  1
  Xe  Xe11  1  0.49428100  0.52180100  0.71949100  1
  Xe  Xe12  1  0.78565300  0.22223000  0.37743600  1
  Xe  Xe13  1  0.99632400  0.51410500  0.46525200  1
  Xe  Xe14  1  0.00367600  0.48589500  0.96525200  1
  Xe  Xe15  1  0.99428100  0.97819900  0.21949100  1
  Xe  Xe16  1  0.71434700  0.72223000  0.37743600  1
  Xe  Xe17  1  0.49632400  0.98589500  0.96525200  1
  Xe  Xe18  1  0.21434700  0.77777000  0.87743600  1
  Xe  Xe19  1  0.75097200  0.75403900  0.09236000  1
  F  F0  1  0.91792100  0.85776100  0.25973100  1
  F  F1  1  0.09410100  0.63528100  0.44084900  1
  F  F2  1  0.22781200  0.28394100  0.99364500  1
  F  F3  1  0.12970700  0.95561900  0.40641700  1
  F  F4  1  0.20620500  0.75148000  0.19437000  1
  F  F5  1  0.39242800  0.11112200  0.98929000  1
  F  F6  1  0.64791300  0.72402100  0.26656000  1
  F  F7  1  0.70620500  0.74852000  0.69437000  1
  F  F8  1  0.89242800  0.38887800  0.48929000  1
  F  F9  1  0.88055400  0.47013800  0.15408800  1
  F  F10  1  0.95840000  0.86960100  0.47850600  1
  F  F11  1  0.95709100  0.91615900  0.96907200  1
  F  F12  1  0.13568800  0.96320900  0.53720400  1
  F  F13  1  0.99043700  0.75432400  0.08283400  1
  F  F14  1  0.86876700  0.99068700  0.40836200  1
  F  F15  1  0.42470700  0.60256700  0.17893800  1
  F  F16  1  0.37227000  0.50467700  0.03976800  1
  F  F17  1  0.91724100  0.42741500  0.64664400  1
  F  F18  1  0.62765300  0.07133200  0.68994800  1
  F  F19  1  0.77218800  0.71605900  0.49364500  1
  F  F20  1  0.41724100  0.07258500  0.14664400  1
  F  F21  1  0.50860800  0.75768400  0.10178100  1
  F  F22  1  0.86387700  0.45366600  0.77422100  1
  F  F23  1  0.37234700  0.92866800  0.18994800  1
  F  F24  1  0.14791300  0.77597900  0.76656000  1
  F  F25  1  0.88957000  0.58802100  0.23789100  1
  F  F26  1  0.62773000  0.49532300  0.53976800  1
  F  F27  1  0.35208700  0.27597900  0.76656000  1
  F  F28  1  0.50956300  0.25432400  0.08283400  1
  F  F29  1  0.56568000  0.94324100  0.28124000  1
  F  F30  1  0.04290900  0.08384100  0.46907200  1
  F  F31  1  0.16128700  0.28604600  0.41830200  1
  F  F32  1  0.43432000  0.05675900  0.78124000  1
  F  F33  1  0.59410100  0.86471900  0.94084900  1
  F  F34  1  0.10757200  0.61112200  0.98929000  1
  F  F35  1  0.45709100  0.58384100  0.46907200  1
  F  F36  1  0.45840000  0.63039900  0.97850600  1
  F  F37  1  0.63612300  0.95366600  0.77422100  1
  F  F38  1  0.38055400  0.02986200  0.65408800  1
  F  F39  1  0.36387700  0.04633400  0.27422100  1
  F  F40  1  0.54160000  0.36960100  0.47850600  1
  F  F41  1  0.61043000  0.08802100  0.23789100  1
  F  F42  1  0.11043000  0.41197900  0.73789100  1
  F  F43  1  0.60757200  0.88887800  0.48929000  1
  F  F44  1  0.72781200  0.21605900  0.49364500  1
  F  F45  1  0.41792100  0.64223900  0.75973100  1
  F  F46  1  0.86431200  0.03679100  0.03720400  1
  F  F47  1  0.66128700  0.21395400  0.91830200  1
  F  F48  1  0.93432000  0.44324100  0.28124000  1
  F  F49  1  0.92470700  0.89743300  0.67893800  1
  F  F50  1  0.49139200  0.24231600  0.60178100  1
  F  F51  1  0.13123300  0.00931300  0.90836200  1
  F  F52  1  0.87227000  0.99532300  0.53976800  1
  F  F53  1  0.85208700  0.22402100  0.26656000  1
  F  F54  1  0.61944600  0.97013800  0.15408800  1
  F  F55  1  0.11944600  0.52986200  0.65408800  1
  F  F56  1  0.12773000  0.00467700  0.03976800  1
  F  F57  1  0.62970700  0.54438100  0.90641700  1
  F  F58  1  0.00860800  0.74231600  0.60178100  1
  F  F59  1  0.57529300  0.39743300  0.67893800  1
  F  F60  1  0.12765300  0.42866800  0.18994800  1
  F  F61  1  0.07529300  0.10256700  0.17893800  1
  F  F62  1  0.87029300  0.04438100  0.90641700  1
  F  F63  1  0.08207900  0.14223900  0.75973100  1
  F  F64  1  0.37029300  0.45561900  0.40641700  1
  F  F65  1  0.63568800  0.53679100  0.03720400  1
  F  F66  1  0.36876700  0.50931300  0.90836200  1
  F  F67  1  0.63123300  0.49068700  0.40836200  1
  F  F68  1  0.40589900  0.13528100  0.44084900  1
  F  F69  1  0.99139200  0.25768400  0.10178100  1
  F  F70  1  0.08275900  0.57258500  0.14664400  1
  F  F71  1  0.58275900  0.92741500  0.64664400  1
  F  F72  1  0.49043700  0.74567600  0.58283400  1
  F  F73  1  0.33871300  0.78604600  0.41830200  1
  F  F74  1  0.00956300  0.24567600  0.58283400  1
  F  F75  1  0.29379500  0.25148000  0.19437000  1
  F  F76  1  0.27218800  0.78394100  0.99364500  1
  F  F77  1  0.06568000  0.55675900  0.78124000  1
  F  F78  1  0.58207900  0.35776100  0.25973100  1
  F  F79  1  0.83871300  0.71395400  0.91830200  1
  F  F80  1  0.90589900  0.36471900  0.94084900  1
  F  F81  1  0.87234700  0.57133200  0.68994800  1
  F  F82  1  0.79379500  0.24852000  0.69437000  1
  F  F83  1  0.38957000  0.91197900  0.73789100  1
  F  F84  1  0.13612300  0.54633400  0.27422100  1
  F  F85  1  0.54290900  0.41615900  0.96907200  1
  F  F86  1  0.36431200  0.46320900  0.53720400  1
  F  F87  1  0.04160000  0.13039900  0.97850600  1
loop_
_geom_bond_atom_site_label_1
_geom_bond_atom_site_label_2
_geom_bond_distance
_geom_bond_site_symmetry_2
Ca0 F82 2.344035 1_555
Ca0 F59 2.355124 1_555
Ca0 F8 2.363150 1_555
Ca0 F44 2.363802 1_555
Ca0 F17 2.413517 1_555
Ca0 F50 2.474142 1_555
Ca0 F40 2.572804 1_555
Ca0 F74 2.711575 1_655
Ca0 F26 2.747739 1_555
Ca1 F75 2.344035 1_555
Ca1 F61 2.355124 1_555
Ca1 F5 2.363150 1_554
Ca1 F2 2.363802 1_554
Ca1 F20 2.413517 1_555
Ca1 F69 2.474142 1_455
Ca1 F87 2.572804 1_554
Ca1 F28 2.711575 1_555
Ca1 F56 2.747739 1_555
Ca2 F4 2.344035 1_555
Ca2 F15 2.355124 1_555
Ca2 F34 2.363150 1_554
Ca2 F76 2.363802 1_554
Ca2 F70 2.413517 1_555
Ca2 F21 2.474142 1_555
Ca2 F36 2.572804 1_554
Ca2 F13 2.711575 1_455
Ca2 F16 2.747739 1_555
Ca3 F7 2.344035 1_555
Ca3 F49 2.355124 1_555
Ca3 F43 2.363150 1_555
Ca3 F19 2.363802 1_555
Ca3 F71 2.413517 1_555
Ca3 F58 2.474142 1_655
Ca3 F10 2.572804 1_555
Ca3 F72 2.711575 1_555
Ca3 F52 2.747739 1_555
F0 Xe15 2.047560 1_555
F1 Xe13 2.046790 1_455
F2 Xe1 2.117111 1_555
F3 P2 1.625228 1_555
F4 Xe3 2.108761 1_555
F5 Xe17 2.121167 1_545
F6 Xe16 2.043236 1_555
F7 Xe6 2.108761 1_555
F8 Xe13 2.121167 1_555
F9 P4 1.631386 1_655
F10 P2 1.677071 1_655
F11 P0 1.617740 1_565
F12 P2 1.631541 1_555
F13 Xe19 2.071186 1_555
F14 P2 1.633470 1_655
F15 Xe9 2.114368 1_555
F16 P3 1.668792 1_554
F17 P7 1.696586 1_555
F18 P5 1.630333 1_545
F19 Xe16 2.117111 1_555
F20 P6 1.696586 1_555
F21 Xe19 2.096653 1_555
F22 P7 1.635927 1_555
F23 P6 1.630333 1_565
F24 Xe18 2.043236 1_555
F25 P4 1.630254 1_655
F26 P1 1.668792 1_555
F27 Xe1 2.043236 1_555
F28 Xe10 2.071186 1_555
F29 P6 1.628573 1_565
F30 P2 1.617740 1_545
F31 Xe2 2.046656 1_555
F32 P5 1.628573 1_545
F33 Xe17 2.046790 1_555
F34 Xe14 2.121167 1_555
F35 P1 1.617740 1_555
F36 P3 1.677071 1_555
F37 P5 1.635927 1_555
F38 P5 1.631386 1_545
F39 P6 1.635927 1_555
F40 P1 1.677071 1_555
F41 P6 1.630254 1_555
F42 P7 1.630254 1_455
F43 Xe4 2.121167 1_565
F44 Xe12 2.117111 1_555
F45 Xe11 2.047560 1_555
F46 P0 1.631541 1_554
F47 Xe0 2.046656 1_555
F48 P4 1.628573 1_655
F49 Xe8 2.114368 1_665
F50 Xe5 2.096653 1_555
F51 P0 1.633470 1_455
F52 P2 1.668792 1_655
F53 Xe12 2.043236 1_555
F54 P6 1.631386 1_565
F55 P7 1.631386 1_455
F56 P0 1.668792 1_454
F57 P3 1.625228 1_555
F58 Xe7 2.096653 1_555
F59 Xe11 2.114368 1_555
F60 P4 1.630333 1_555
F61 Xe15 2.114368 1_445
F62 P0 1.625228 1_555
F63 Xe8 2.047560 1_555
F64 P1 1.625228 1_555
F65 P3 1.631541 1_554
F66 P3 1.633470 1_555
F67 P1 1.633470 1_555
F68 Xe4 2.046790 1_555
F69 Xe10 2.096653 1_555
F70 P4 1.696586 1_555
F71 P5 1.696586 1_555
F72 Xe7 2.071186 1_555
F73 Xe3 2.046656 1_555
F74 Xe5 2.071186 1_555
F75 Xe2 2.108761 1_555
F76 Xe18 2.117111 1_555
F77 P7 1.628573 1_455
F78 Xe9 2.047560 1_555
F79 Xe6 2.046656 1_555
F80 Xe14 2.046790 1_655
F81 P7 1.630333 1_555
F82 Xe0 2.108761 1_555
F83 P5 1.630254 1_555
F84 P4 1.635927 1_555
F85 P3 1.617740 1_555
F86 P1 1.631541 1_555
F87 P0 1.677071 1_455
