# generated using pymatgen
data_Rb2CuH12(SeO7)2
_symmetry_space_group_name_H-M   'P 1'
_cell_length_a   12.76890300
_cell_length_b   6.41074100
_cell_length_c   9.48938793
_cell_angle_alpha   75.78437885
_cell_angle_beta   90.00000000
_cell_angle_gamma   90.00000000
_symmetry_Int_Tables_number   1
_chemical_formula_structural   Rb2CuH12(SeO7)2
_chemical_formula_sum   'Rb4 Cu2 H24 Se4 O28'
_cell_volume   752.99722099
_cell_formula_units_Z   2
loop_
 _symmetry_equiv_pos_site_id
 _symmetry_equiv_pos_as_xyz
  1  'x, y, z'
loop_
 _atom_site_type_symbol
 _atom_site_label
 _atom_site_symmetry_multiplicity
 _atom_site_fract_x
 _atom_site_fract_y
 _atom_site_fract_z
 _atom_site_occupancy
  Rb  Rb0  1  0.34925200  0.65352700  0.12393900  1
  Rb  Rb1  1  0.84925200  0.34647300  0.37606100  1
  Rb  Rb2  1  0.65074800  0.34647300  0.87606100  1
  Rb  Rb3  1  0.15074800  0.65352700  0.62393900  1
  Cu  Cu0  1  0.00000000  0.00000000  0.00000000  1
  Cu  Cu1  1  0.50000000  0.00000000  0.50000000  1
  H  H0  1  0.86493500  0.69138900  0.03189900  1
  H  H1  1  0.36493500  0.30861100  0.46810100  1
  H  H2  1  0.13506500  0.30861100  0.96810100  1
  H  H3  1  0.63506500  0.69138900  0.53189900  1
  H  H4  1  0.94206400  0.67964000  0.90098200  1
  H  H5  1  0.44206400  0.32036000  0.59901800  1
  H  H6  1  0.05793600  0.32036000  0.09901800  1
  H  H7  1  0.55793600  0.67964000  0.40098200  1
  H  H8  1  0.87554200  0.08615400  0.77268400  1
  H  H9  1  0.37554200  0.91384600  0.72731600  1
  H  H10  1  0.12445800  0.91384600  0.22731600  1
  H  H11  1  0.62445800  0.08615400  0.27268400  1
  H  H12  1  0.91051500  0.31010800  0.80881800  1
  H  H13  1  0.41051500  0.68989200  0.69118200  1
  H  H14  1  0.08948500  0.68989200  0.19118200  1
  H  H15  1  0.58948500  0.31010800  0.30881800  1
  H  H16  1  0.81177100  0.00382700  0.16750100  1
  H  H17  1  0.31177100  0.99617300  0.33249900  1
  H  H18  1  0.18822900  0.99617300  0.83249900  1
  H  H19  1  0.68822900  0.00382700  0.66750100  1
  H  H20  1  0.89920200  0.92638900  0.28660300  1
  H  H21  1  0.39920200  0.07361100  0.21339700  1
  H  H22  1  0.10079800  0.07361100  0.71339700  1
  H  H23  1  0.60079800  0.92638900  0.78660300  1
  Se  Se0  1  0.35864200  0.27002000  0.89144700  1
  Se  Se1  1  0.85864200  0.72998000  0.60855300  1
  Se  Se2  1  0.64135800  0.72998000  0.10855300  1
  Se  Se3  1  0.14135800  0.27002000  0.39144700  1
  O  O0  1  0.93894900  0.71948600  0.99679600  1
  O  O1  1  0.43894900  0.28051400  0.50320400  1
  O  O2  1  0.06105100  0.28051400  0.00320400  1
  O  O3  1  0.56105100  0.71948600  0.49679600  1
  O  O4  1  0.88981200  0.15768000  0.85305300  1
  O  O5  1  0.38981200  0.84232000  0.64694700  1
  O  O6  1  0.11018800  0.84232000  0.14694700  1
  O  O7  1  0.61018800  0.15768000  0.35305300  1
  O  O8  1  0.88458200  0.03292400  0.19345700  1
  O  O9  1  0.38458200  0.96707600  0.30654300  1
  O  O10  1  0.11541800  0.96707600  0.80654300  1
  O  O11  1  0.61541800  0.03292400  0.69345700  1
  O  O12  1  0.43009000  0.24015400  0.04227100  1
  O  O13  1  0.93009000  0.75984600  0.45772900  1
  O  O14  1  0.56991000  0.75984600  0.95772900  1
  O  O15  1  0.06991000  0.24015400  0.54227100  1
  O  O16  1  0.25065400  0.41386500  0.90339400  1
  O  O17  1  0.75065400  0.58613500  0.59660600  1
  O  O18  1  0.74934600  0.58613500  0.09660600  1
  O  O19  1  0.24934600  0.41386500  0.40339400  1
  O  O20  1  0.43101700  0.40963000  0.75087800  1
  O  O21  1  0.93101700  0.59037000  0.74912200  1
  O  O22  1  0.56898300  0.59037000  0.24912200  1
  O  O23  1  0.06898300  0.40963000  0.25087800  1
  O  O24  1  0.32485000  0.02979000  0.86283200  1
  O  O25  1  0.82485000  0.97021000  0.63716800  1
  O  O26  1  0.67515000  0.97021000  0.13716800  1
  O  O27  1  0.17515000  0.02979000  0.36283200  1
loop_
_geom_bond_atom_site_label_1
_geom_bond_atom_site_label_2
_geom_bond_distance
_geom_bond_site_symmetry_2
Cu0 O0 1.967073 1_444
Cu0 O2 1.967073 1_555
Cu0 O4 2.062416 1_454
Cu0 O6 2.062416 1_545
Cu0 O8 2.403528 1_455
Cu0 O10 2.403528 1_544
Cu1 O1 1.967073 1_555
Cu1 O3 1.967073 1_545
Cu1 O7 2.062416 1_555
Cu1 O5 2.062416 1_545
Cu1 O9 2.403528 1_545
Cu1 O11 2.403528 1_555
H0 O0 1.003547 1_554
H0 O18 1.675485 1_555
H1 O1 1.003547 1_555
H1 O19 1.675485 1_555
H2 O2 1.003547 1_556
H2 O16 1.675485 1_555
H3 O3 1.003547 1_555
H3 O17 1.675485 1_555
H4 O0 1.003781 1_555
H4 O21 1.681994 1_555
H5 O1 1.003781 1_555
H5 O20 1.681994 1_555
H6 O2 1.003781 1_555
H6 O23 1.681994 1_555
H7 O3 1.003781 1_555
H7 O22 1.681994 1_555
H8 O4 0.998423 1_555
H9 O5 0.998423 1_555
H10 O6 0.998423 1_555
H11 O7 0.998423 1_555
H12 O4 0.999750 1_555
H12 O21 1.765683 1_555
H13 O5 0.999750 1_555
H13 O20 1.765683 1_555
H14 O6 0.999750 1_555
H14 O23 1.765683 1_555
H15 O7 0.999750 1_555
H15 O22 1.765683 1_555
H16 O8 0.991161 1_555
H17 O9 0.991161 1_555
H18 O10 0.991161 1_555
H19 O11 0.991161 1_555
H20 O8 0.993016 1_565
H20 Rb1 3.082656 1_565
H21 O9 0.993016 1_545
H21 Rb0 3.082656 1_545
H22 O10 0.993016 1_545
H22 Rb3 3.082656 1_545
H23 O11 0.993016 1_565
H23 Rb2 3.082656 1_565
O4 Rb2 3.310674 1_555
O5 Rb3 3.310674 1_555
O6 Rb0 3.310674 1_555
O7 Rb1 3.310674 1_555
O8 Rb1 2.992862 1_555
O9 Rb0 2.992862 1_555
O10 Rb3 2.992862 1_555
O11 Rb2 2.992862 1_555
O12 Se0 1.668172 1_554
O12 Rb0 3.114060 1_555
O12 Rb2 3.219142 1_554
O13 Se1 1.668172 1_555
O13 Rb1 3.114060 1_555
O13 Rb3 3.219142 1_655
O14 Se2 1.668172 1_556
O14 Rb2 3.114060 1_555
O14 Rb0 3.219142 1_556
O15 Se3 1.668172 1_555
O15 Rb3 3.114060 1_555
O15 Rb1 3.219142 1_455
O16 Se0 1.678064 1_555
O16 Rb3 3.003199 1_555
O16 Rb0 3.147194 1_556
O17 Se1 1.678064 1_555
O17 Rb2 3.003199 1_555
O17 Rb1 3.147194 1_555
O18 Se2 1.678064 1_555
O18 Rb1 3.003199 1_555
O18 Rb2 3.147194 1_554
O19 Se3 1.678064 1_555
O19 Rb0 3.003199 1_555
O19 Rb3 3.147194 1_555
O20 Se0 1.687618 1_555
O20 Rb2 3.034950 1_555
O21 Se1 1.687618 1_555
O21 Rb3 3.034950 1_655
O22 Se2 1.687618 1_555
O22 Rb0 3.034950 1_555
O23 Se3 1.687618 1_555
O23 Rb1 3.034950 1_455
O24 Se0 1.684359 1_555
O24 Rb0 3.019813 1_546
O25 Se1 1.684359 1_555
O25 Rb1 3.019813 1_565
O26 Se2 1.684359 1_555
O26 Rb2 3.019813 1_564
O27 Se3 1.684359 1_555
O27 Rb3 3.019813 1_545
