# generated using pymatgen
data_Mg3Ga7Co2
_symmetry_space_group_name_H-M   'P 1'
_cell_length_a   6.48724710
_cell_length_b   6.48724710
_cell_length_c   9.26820013
_cell_angle_alpha   87.40803745
_cell_angle_beta   87.40803745
_cell_angle_gamma   92.44888688
_symmetry_Int_Tables_number   1
_chemical_formula_structural   Mg3Ga7Co2
_chemical_formula_sum   'Mg6 Ga14 Co4'
_cell_volume   388.85677224
_cell_formula_units_Z   2
loop_
 _symmetry_equiv_pos_site_id
 _symmetry_equiv_pos_as_xyz
  1  'x, y, z'
loop_
 _atom_site_type_symbol
 _atom_site_label
 _atom_site_symmetry_multiplicity
 _atom_site_fract_x
 _atom_site_fract_y
 _atom_site_fract_z
 _atom_site_occupancy
  Mg  Mg0  1  0.64203143  0.74935652  0.69615520  1
  Mg  Mg1  1  0.15196472  0.84803528  0.75000000  1
  Mg  Mg2  1  0.25064348  0.35796857  0.80384480  1
  Mg  Mg3  1  0.84803528  0.15196472  0.25000000  1
  Mg  Mg4  1  0.74935652  0.64203143  0.19615520  1
  Mg  Mg5  1  0.35796857  0.25064348  0.30384480  1
  Ga  Ga0  1  0.76881223  0.23118777  0.75000000  1
  Ga  Ga1  1  0.69415592  0.43853389  0.48225077  1
  Ga  Ga2  1  0.88912779  0.55518907  0.89798148  1
  Ga  Ga3  1  0.55518907  0.88912779  0.39798148  1
  Ga  Ga4  1  0.43853389  0.69415592  0.98225077  1
  Ga  Ga5  1  0.80909802  0.94553199  0.97274721  1
  Ga  Ga6  1  0.05446801  0.19090198  0.52725279  1
  Ga  Ga7  1  0.44481093  0.11087221  0.60201852  1
  Ga  Ga8  1  0.11087221  0.44481093  0.10201852  1
  Ga  Ga9  1  0.94553199  0.80909802  0.47274721  1
  Ga  Ga10  1  0.19090198  0.05446801  0.02725279  1
  Ga  Ga11  1  0.30584408  0.56146611  0.51774923  1
  Ga  Ga12  1  0.56146611  0.30584408  0.01774923  1
  Ga  Ga13  1  0.23118777  0.76881223  0.25000000  1
  Co  Co0  1  0.03164819  0.48375424  0.35554628  1
  Co  Co1  1  0.51624576  0.96835181  0.14445372  1
  Co  Co2  1  0.96835181  0.51624576  0.64445372  1
  Co  Co3  1  0.48375424  0.03164819  0.85554628  1
loop_
_geom_bond_atom_site_label_1
_geom_bond_atom_site_label_2
_geom_bond_distance
_geom_bond_site_symmetry_2
Ga0 Ga7 2.669368 1_555
Ga0 Ga2 2.669368 1_555
Ga0 Ga6 2.740171 1_655
Ga0 Ga5 2.740171 1_545
Ga0 Ga12 2.839797 1_556
Ga0 Ga1 2.839797 1_555
Ga1 Ga11 2.685223 1_555
Ga1 Ga7 2.774404 1_555
Ga1 Ga9 2.842332 1_555
Ga1 Mg4 2.908445 1_555
Ga1 Mg0 2.910271 1_555
Ga1 Ga6 2.926892 1_655
Ga1 Mg5 3.042615 1_555
Ga1 Mg3 3.067929 1_555
Ga2 Ga8 2.523832 1_656
Ga2 Ga5 2.720390 1_555
Ga2 Mg1 2.770111 1_655
Ga2 Mg0 2.808168 1_555
Ga2 Mg2 2.840879 1_655
Ga2 Mg4 2.955417 1_556
Ga3 Ga7 2.523832 1_565
Ga3 Ga9 2.720390 1_555
Ga3 Mg3 2.770111 1_565
Ga3 Mg4 2.808168 1_555
Ga3 Mg5 2.840879 1_565
Ga3 Mg0 2.955417 1_555
Ga4 Ga8 2.774404 1_556
Ga4 Ga5 2.842332 1_555
Ga4 Mg0 2.908445 1_555
Ga4 Mg4 2.910271 1_556
Ga4 Mg2 3.042615 1_555
Ga4 Mg1 3.067929 1_555
Ga5 Mg4 2.794196 1_556
Ga5 Mg3 2.966693 1_566
Ga5 Mg1 3.071220 1_655
Ga5 Mg0 3.129587 1_555
Ga6 Ga9 2.623987 1_445
Ga6 Ga7 2.720390 1_555
Ga6 Mg5 2.794196 1_555
Ga6 Mg3 2.966693 1_455
Ga6 Mg1 3.071220 1_545
Ga6 Mg2 3.129587 1_555
Ga7 Mg1 2.770111 1_545
Ga7 Mg2 2.808168 1_555
Ga7 Mg0 2.840879 1_545
Ga7 Mg5 2.955417 1_555
Ga8 Mg3 2.770111 1_455
Ga8 Mg5 2.808168 1_555
Ga8 Mg4 2.840879 1_455
Ga8 Mg2 2.955417 1_554
Ga9 Mg0 2.794196 1_555
Ga9 Mg1 2.966693 1_655
Ga9 Mg3 3.071220 1_565
Ga9 Mg4 3.129587 1_555
Ga10 Ga5 2.623987 1_444
Ga10 Ga8 2.720390 1_555
Ga10 Ga13 2.740171 1_545
Ga10 Mg2 2.794196 1_554
Ga10 Ga12 2.842332 1_555
Ga10 Ga4 2.926892 1_544
Ga10 Mg1 2.966693 1_544
Ga10 Mg3 3.071220 1_455
Ga10 Mg5 3.129587 1_555
Ga11 Ga3 2.774404 1_555
Ga11 Ga13 2.839797 1_555
Ga11 Ga6 2.842332 1_555
Ga11 Mg2 2.908445 1_555
Ga11 Mg5 2.910271 1_555
Ga11 Ga9 2.926892 1_455
Ga11 Mg0 3.042615 1_555
Ga11 Mg1 3.067929 1_555
Ga12 Ga4 2.685223 1_554
Ga12 Ga2 2.774404 1_554
Ga12 Mg5 2.908445 1_555
Ga12 Mg2 2.910271 1_554
Ga12 Ga5 2.926892 1_544
Ga12 Mg4 3.042615 1_555
Ga12 Mg3 3.067929 1_555
Ga13 Ga8 2.669368 1_555
Ga13 Ga3 2.669368 1_555
Ga13 Ga9 2.740171 1_455
Ga13 Ga4 2.839797 1_554
Co0 Ga13 2.359988 1_555
Co0 Ga8 2.409322 1_555
Co0 Ga11 2.431455 1_555
Co0 Ga6 2.436319 1_555
Co0 Ga1 2.437203 1_455
Co0 Ga9 2.489944 1_455
Co0 Mg4 2.618861 1_455
Co0 Mg3 2.661823 1_455
Co0 Mg5 2.691695 1_555
Co1 Ga13 2.359988 1_555
Co1 Ga3 2.409322 1_555
Co1 Ga4 2.431455 1_554
Co1 Ga5 2.436319 1_554
Co1 Ga12 2.437203 1_565
Co1 Ga10 2.489944 1_565
Co1 Mg5 2.618861 1_565
Co1 Mg3 2.661823 1_565
Co1 Mg4 2.691695 1_555
Co2 Ga0 2.359988 1_555
Co2 Ga2 2.409322 1_555
Co2 Ga1 2.431455 1_555
Co2 Ga9 2.436319 1_555
Co2 Ga11 2.437203 1_655
Co2 Ga6 2.489944 1_655
Co2 Mg2 2.618861 1_655
Co2 Mg1 2.661823 1_655
Co2 Mg0 2.691695 1_555
Co3 Ga0 2.359988 1_555
Co3 Ga7 2.409322 1_555
Co3 Ga12 2.431455 1_556
Co3 Ga10 2.436319 1_556
Co3 Ga4 2.437203 1_545
Co3 Ga5 2.489944 1_545
Co3 Mg0 2.618861 1_545
Co3 Mg1 2.661823 1_545
Co3 Mg2 2.691695 1_555
