# generated using pymatgen
data_Ta4FeS8
_symmetry_space_group_name_H-M   'P 1'
_cell_length_a   6.65968828
_cell_length_b   6.66599366
_cell_length_c   12.28753205
_cell_angle_alpha   89.99972866
_cell_angle_beta   90.00030005
_cell_angle_gamma   120.03142598
_symmetry_Int_Tables_number   1
_chemical_formula_structural   Ta4FeS8
_chemical_formula_sum   'Ta8 Fe2 S16'
_cell_volume   472.25490593
_cell_formula_units_Z   2
loop_
 _symmetry_equiv_pos_site_id
 _symmetry_equiv_pos_as_xyz
  1  'x, y, z'
loop_
 _atom_site_type_symbol
 _atom_site_label
 _atom_site_symmetry_multiplicity
 _atom_site_fract_x
 _atom_site_fract_y
 _atom_site_fract_z
 _atom_site_occupancy
  Ta  Ta0  1  0.49475041  0.98703322  0.74995405  1
  Ta  Ta1  1  0.50524976  0.01296031  0.25004587  1
  Ta  Ta2  1  0.98870982  0.49436188  0.25004689  1
  Ta  Ta3  1  0.49472320  0.50772206  0.74995522  1
  Ta  Ta4  1  0.50527399  0.49228591  0.25004437  1
  Ta  Ta5  1  0.01129829  0.50564131  0.74995319  1
  Ta  Ta6  1  0.00286353  0.00142282  0.25002866  1
  Ta  Ta7  1  -0.00286497  -0.00141990  0.74996933  1
  Fe  Fe0  1  -0.00000123  -0.00000804  0.50004755  1
  Fe  Fe1  1  -0.00000124  -0.00000873  -0.00004785  1
  S  S0  1  0.16765159  0.83119973  0.12352180  1
  S  S1  1  0.66792297  0.83396069  0.37564836  1
  S  S2  1  0.66632933  0.33315899  0.37979207  1
  S  S3  1  0.83233844  0.16881244  0.87650000  1
  S  S4  1  0.66792579  0.83396323  0.12441930  1
  S  S5  1  0.33209226  0.16604684  0.87560212  1
  S  S6  1  0.66633047  0.33316226  0.12029959  1
  S  S7  1  0.83234193  0.66353557  0.62343571  1
  S  S8  1  0.33209656  0.16604924  0.62433088  1
  S  S9  1  0.16764735  0.33644378  0.37654441  1
  S  S10  1  0.16763771  0.33642464  0.12352770  1
  S  S11  1  0.83235135  0.66355686  0.87649319  1
  S  S12  1  0.83232144  0.16882374  0.62342831  1
  S  S13  1  0.16766689  0.83118835  0.37655005  1
  S  S14  1  0.33366986  0.66683918  0.87972523  1
  S  S15  1  0.33367348  0.66684362  0.62018200  1
loop_
_geom_bond_atom_site_label_1
_geom_bond_atom_site_label_2
_geom_bond_distance
_geom_bond_site_symmetry_2
Fe0 S8 2.449164 1_555
Fe0 S1 2.449953 1_445
Fe0 S7 2.463527 1_445
Fe0 S12 2.463723 1_455
Fe0 S9 2.464376 1_555
Fe0 S13 2.464436 1_545
Fe1 S5 2.449664 1_554
Fe1 S4 2.450469 1_445
Fe1 S11 2.463969 1_444
Fe1 S3 2.464124 1_454
Fe1 S0 2.464844 1_545
Fe1 S10 2.464846 1_555
S0 Ta6 2.480877 1_565
S0 Ta2 2.490074 1_455
S0 Ta1 2.492624 1_565
S1 Ta6 2.472226 1_665
S1 Ta1 2.504631 1_565
S1 Ta4 2.504663 1_555
S2 Ta4 2.440510 1_555
S2 Ta1 2.440578 1_555
S2 Ta2 2.448778 1_555
S3 Ta7 2.481140 1_655
S3 Ta5 2.490204 1_655
S3 Ta0 2.492751 1_545
S4 Ta6 2.472126 1_665
S4 Ta4 2.504828 1_555
S4 Ta1 2.504828 1_565
S5 Ta7 2.472394 1_555
S5 Ta3 2.504986 1_555
S5 Ta0 2.504988 1_545
S6 Ta4 2.440491 1_555
S6 Ta1 2.440587 1_555
S6 Ta2 2.448782 1_555
S7 Ta7 2.481227 1_665
S7 Ta5 2.490073 1_655
S7 Ta3 2.492698 1_555
S8 Ta7 2.472464 1_555
S8 Ta0 2.504777 1_545
S8 Ta3 2.504812 1_555
S9 Ta6 2.480983 1_555
S9 Ta2 2.489938 1_455
S9 Ta4 2.492578 1_555
S10 Ta6 2.480777 1_555
S10 Ta2 2.490159 1_455
S10 Ta4 2.492737 1_555
S11 Ta7 2.481050 1_665
S11 Ta5 2.490310 1_655
S11 Ta3 2.492869 1_555
S12 Ta7 2.481333 1_655
S12 Ta5 2.489995 1_655
S12 Ta0 2.492532 1_545
S13 Ta6 2.481094 1_565
S13 Ta2 2.489864 1_455
S13 Ta1 2.492414 1_565
S14 Ta3 2.440652 1_555
S14 Ta0 2.440752 1_555
S14 Ta5 2.448946 1_555
S15 Ta3 2.440667 1_555
S15 Ta0 2.440746 1_555
S15 Ta5 2.448963 1_555
