# generated using pymatgen
data_Ba3ZnIr2O9
_symmetry_space_group_name_H-M   'P 1'
_cell_length_a   5.85980253
_cell_length_b   5.85980253
_cell_length_c   14.47813800
_cell_angle_alpha   90.00000000
_cell_angle_beta   90.00000000
_cell_angle_gamma   120.00000593
_symmetry_Int_Tables_number   1
_chemical_formula_structural   Ba3ZnIr2O9
_chemical_formula_sum   'Ba6 Zn2 Ir4 O18'
_cell_volume   430.53580887
_cell_formula_units_Z   2
loop_
 _symmetry_equiv_pos_site_id
 _symmetry_equiv_pos_as_xyz
  1  'x, y, z'
loop_
 _atom_site_type_symbol
 _atom_site_label
 _atom_site_symmetry_multiplicity
 _atom_site_fract_x
 _atom_site_fract_y
 _atom_site_fract_z
 _atom_site_occupancy
  Ba  Ba0  1  0.33333300  0.66666700  0.91278600  1
  Ba  Ba1  1  0.66666700  0.33333300  0.08721400  1
  Ba  Ba2  1  0.00000000  0.00000000  0.25000000  1
  Ba  Ba3  1  0.33333300  0.66666700  0.58721400  1
  Ba  Ba4  1  0.66666700  0.33333300  0.41278600  1
  Ba  Ba5  1  0.00000000  0.00000000  0.75000000  1
  Zn  Zn0  1  0.00000000  0.00000000  0.00000000  1
  Zn  Zn1  1  0.00000000  0.00000000  0.50000000  1
  Ir  Ir0  1  0.33333300  0.66666700  0.34341100  1
  Ir  Ir1  1  0.66666700  0.33333300  0.65658900  1
  Ir  Ir2  1  0.33333300  0.66666700  0.15658900  1
  Ir  Ir3  1  0.66666700  0.33333300  0.84341100  1
  O  O0  1  0.51495500  0.48504500  0.75000000  1
  O  O1  1  0.65776800  0.82888400  0.08285500  1
  O  O2  1  0.17111600  0.34223200  0.08285500  1
  O  O3  1  0.48504500  0.97008900  0.25000000  1
  O  O4  1  0.65776800  0.82888400  0.41714500  1
  O  O5  1  0.82888400  0.65776800  0.58285500  1
  O  O6  1  0.34223200  0.17111600  0.91714500  1
  O  O7  1  0.51495500  0.02991100  0.75000000  1
  O  O8  1  0.17111600  0.82888400  0.41714500  1
  O  O9  1  0.82888400  0.17111600  0.58285500  1
  O  O10  1  0.82888400  0.17111600  0.91714500  1
  O  O11  1  0.17111600  0.34223200  0.41714500  1
  O  O12  1  0.34223200  0.17111600  0.58285500  1
  O  O13  1  0.97008900  0.48504500  0.75000000  1
  O  O14  1  0.82888400  0.65776800  0.91714500  1
  O  O15  1  0.17111600  0.82888400  0.08285500  1
  O  O16  1  0.02991100  0.51495500  0.25000000  1
  O  O17  1  0.48504500  0.51495500  0.25000000  1
loop_
_geom_bond_atom_site_label_1
_geom_bond_atom_site_label_2
_geom_bond_distance
_geom_bond_site_symmetry_2
Ba0 O6 2.930926 1_565
Ba0 O14 2.930926 1_455
Ba0 O10 2.930928 1_455
Ba0 O10 2.930928 1_565
Ba0 O14 2.930932 1_555
Ba0 O6 2.930932 1_555
Ba0 O15 2.962014 1_556
Ba0 O2 2.962017 1_556
Ba0 O1 2.962017 1_556
Ba0 O7 2.992105 1_565
Ba0 O13 2.992105 1_455
Ba0 O0 2.992105 1_555
Ba1 O2 2.930926 1_655
Ba1 O1 2.930926 1_545
Ba1 O15 2.930928 1_655
Ba1 O15 2.930928 1_545
Ba1 O1 2.930932 1_555
Ba1 O2 2.930932 1_555
Ba1 O10 2.962014 1_554
Ba1 O6 2.962017 1_554
Ba1 O14 2.962017 1_554
Ba1 O3 2.992105 1_545
Ba1 O16 2.992105 1_655
Ba1 O17 2.992105 1_555
Ba2 O3 2.933828 1_445
Ba2 O16 2.933828 1_555
Ba2 O17 2.933830 1_555
Ba2 O17 2.933830 1_445
Ba2 O16 2.933834 1_545
Ba2 O3 2.933834 1_545
Ba2 O1 2.978659 1_445
Ba2 O2 2.978659 1_555
Ba2 O11 2.978659 1_555
Ba2 O4 2.978659 1_445
Ba2 O8 2.978659 1_545
Ba2 O15 2.978659 1_545
Ba3 O5 2.930926 1_455
Ba3 O12 2.930926 1_565
Ba3 O9 2.930928 1_565
Ba3 O9 2.930928 1_455
Ba3 O5 2.930932 1_555
Ba3 O12 2.930932 1_555
Ba3 O8 2.962014 1_555
Ba3 O4 2.962017 1_555
Ba3 O11 2.962017 1_555
Ba3 O7 2.992105 1_565
Ba3 O13 2.992105 1_455
Ba3 O0 2.992105 1_555
Ba4 O4 2.930926 1_545
Ba4 O11 2.930926 1_655
Ba4 O8 2.930928 1_655
Ba4 O8 2.930928 1_545
Ba4 O4 2.930932 1_555
Ba4 O11 2.930932 1_555
Ba4 O9 2.962014 1_555
Ba4 O5 2.962017 1_555
Ba4 O12 2.962017 1_555
Ba4 O3 2.992105 1_545
Ba4 O16 2.992105 1_655
Ba4 O17 2.992105 1_555
Ba5 O13 2.933828 1_445
Ba5 O7 2.933828 1_555
Ba5 O0 2.933830 1_555
Ba5 O0 2.933830 1_445
Ba5 O7 2.933834 1_455
Ba5 O13 2.933834 1_455
Ba5 O5 2.978659 1_445
Ba5 O12 2.978659 1_555
Ba5 O6 2.978659 1_555
Ba5 O14 2.978659 1_445
Ba5 O9 2.978659 1_455
Ba5 O10 2.978659 1_455
Ir0 O8 1.962222 1_555
Ir0 O4 1.962226 1_555
Ir0 O11 1.962226 1_555
Ir0 O3 2.049384 1_555
Ir0 O16 2.049384 1_555
Ir0 O17 2.049392 1_555
Ir1 O9 1.962222 1_555
Ir1 O5 1.962226 1_555
Ir1 O12 1.962226 1_555
Ir1 O13 2.049384 1_555
Ir1 O7 2.049384 1_555
Ir1 O0 2.049392 1_555
Ir2 O15 1.962222 1_555
Ir2 O2 1.962226 1_555
Ir2 O1 1.962226 1_555
Ir2 O3 2.049384 1_555
Ir2 O16 2.049384 1_555
Ir2 O17 2.049392 1_555
Ir3 O10 1.962222 1_555
Ir3 O14 1.962226 1_555
Ir3 O6 1.962226 1_555
Ir3 O13 2.049384 1_555
Ir3 O7 2.049384 1_555
Ir3 O0 2.049392 1_555
O1 Zn0 2.110750 1_665
O2 Zn0 2.110750 1_555
O4 Zn1 2.110750 1_665
O5 Zn1 2.110750 1_665
O6 Zn0 2.110750 1_556
O8 Zn1 2.110750 1_565
O9 Zn1 2.110750 1_655
O10 Zn0 2.110750 1_656
O11 Zn1 2.110750 1_555
O12 Zn1 2.110750 1_555
O14 Zn0 2.110750 1_666
O15 Zn0 2.110750 1_565
