# generated using pymatgen
data_Li2Al(BO2)5
_symmetry_space_group_name_H-M   'P 1'
_cell_length_a   15.08941700
_cell_length_b   7.14452300
_cell_length_c   7.15182160
_cell_angle_alpha   89.14321778
_cell_angle_beta   90.00000000
_cell_angle_gamma   90.00000000
_symmetry_Int_Tables_number   1
_chemical_formula_structural   Li2Al(BO2)5
_chemical_formula_sum   'Li8 Al4 B20 O40'
_cell_volume   770.92798915
_cell_formula_units_Z   4
loop_
 _symmetry_equiv_pos_site_id
 _symmetry_equiv_pos_as_xyz
  1  'x, y, z'
loop_
 _atom_site_type_symbol
 _atom_site_label
 _atom_site_symmetry_multiplicity
 _atom_site_fract_x
 _atom_site_fract_y
 _atom_site_fract_z
 _atom_site_occupancy
  Li  Li0  1  0.17207200  0.89669800  0.99695800  1
  Li  Li1  1  0.42921200  0.30195600  0.91465400  1
  Li  Li2  1  0.32792800  0.89669800  0.49695800  1
  Li  Li3  1  0.57078800  0.69804400  0.08534600  1
  Li  Li4  1  0.67207200  0.10330200  0.50304200  1
  Li  Li5  1  0.82792800  0.10330200  0.00304200  1
  Li  Li6  1  0.92921200  0.69804400  0.58534600  1
  Li  Li7  1  0.07078800  0.30195600  0.41465400  1
  Al  Al0  1  0.37575600  0.84940200  0.03715500  1
  Al  Al1  1  0.62424400  0.15059800  0.96284500  1
  Al  Al2  1  0.12424400  0.84940200  0.53715500  1
  Al  Al3  1  0.87575600  0.15059800  0.46284500  1
  B  B0  1  0.99939100  0.24262700  0.76628800  1
  B  B1  1  0.47209100  0.79718900  0.40072300  1
  B  B2  1  0.12018300  0.31975200  0.99182000  1
  B  B3  1  0.75301500  0.45762000  0.99969300  1
  B  B4  1  0.74698500  0.45762000  0.49969300  1
  B  B5  1  0.00060900  0.75737300  0.23371200  1
  B  B6  1  0.25301500  0.54238000  0.50030700  1
  B  B7  1  0.37981700  0.31975200  0.49182000  1
  B  B8  1  0.27889500  0.20931100  0.98093900  1
  B  B9  1  0.49939100  0.75737300  0.73371200  1
  B  B10  1  0.50060900  0.24262700  0.26628800  1
  B  B11  1  0.02790900  0.79718900  0.90072300  1
  B  B12  1  0.22110500  0.20931100  0.48093900  1
  B  B13  1  0.62018300  0.68024800  0.50818000  1
  B  B14  1  0.77889500  0.79068900  0.51906100  1
  B  B15  1  0.52790900  0.20281100  0.59927700  1
  B  B16  1  0.87981700  0.68024800  0.00818000  1
  B  B17  1  0.97209100  0.20281100  0.09927700  1
  B  B18  1  0.24698500  0.54238000  0.00030700  1
  B  B19  1  0.72110500  0.79068900  0.01906100  1
  O  O0  1  0.80699500  0.60307100  0.53732300  1
  O  O1  1  0.65548900  0.92112000  0.02916800  1
  O  O2  1  0.55195700  0.16659800  0.41239600  1
  O  O3  1  0.84021300  0.49797200  0.97562800  1
  O  O4  1  0.53189900  0.23952100  0.08592000  1
  O  O5  1  0.90957200  0.15245400  0.22745200  1
  O  O6  1  0.46810100  0.76047900  0.91408000  1
  O  O7  1  0.94766300  0.71891000  0.85919200  1
  O  O8  1  0.30699500  0.39692900  0.96267700  1
  O  O9  1  0.42036300  0.31803800  0.30527000  1
  O  O10  1  0.15548900  0.07888000  0.47083200  1
  O  O11  1  0.19300500  0.39692900  0.46267700  1
  O  O12  1  0.44766300  0.28109000  0.64080800  1
  O  O13  1  0.80913800  0.83203300  0.99574100  1
  O  O14  1  0.40957200  0.84754600  0.27254800  1
  O  O15  1  0.05195700  0.83340200  0.08760400  1
  O  O16  1  0.07963700  0.31803800  0.80527000  1
  O  O17  1  0.34451100  0.07888000  0.97083200  1
  O  O18  1  0.59042800  0.15245400  0.72745200  1
  O  O19  1  0.30913800  0.16796700  0.50425900  1
  O  O20  1  0.57963700  0.68196200  0.69473000  1
  O  O21  1  0.77591100  0.27685600  0.48651100  1
  O  O22  1  0.92036300  0.68196200  0.19473000  1
  O  O23  1  0.84451100  0.92112000  0.52916800  1
  O  O24  1  0.65978700  0.49797200  0.47562800  1
  O  O25  1  0.19086200  0.16796700  0.00425900  1
  O  O26  1  0.22408900  0.72314400  0.51348900  1
  O  O27  1  0.03189900  0.76047900  0.41408000  1
  O  O28  1  0.44804300  0.83340200  0.58760400  1
  O  O29  1  0.94804300  0.16659800  0.91239600  1
  O  O30  1  0.15978700  0.50202800  0.02437200  1
  O  O31  1  0.34021300  0.50202800  0.52437200  1
  O  O32  1  0.27591100  0.72314400  0.01348900  1
  O  O33  1  0.69086200  0.83203300  0.49574100  1
  O  O34  1  0.72408900  0.27685600  0.98651100  1
  O  O35  1  0.55233700  0.71891000  0.35919200  1
  O  O36  1  0.69300500  0.60307100  0.03732300  1
  O  O37  1  0.96810100  0.23952100  0.58592000  1
  O  O38  1  0.05233700  0.28109000  0.14080800  1
  O  O39  1  0.09042800  0.84754600  0.77254800  1
loop_
_geom_bond_atom_site_label_1
_geom_bond_atom_site_label_2
_geom_bond_distance
_geom_bond_site_symmetry_2
Li0 O25 1.960185 1_566
Li0 O15 1.975105 1_556
Li0 O32 2.000544 1_556
Li0 O39 2.057604 1_555
Li1 O12 1.985997 1_555
Li1 O8 1.996585 1_555
Li1 O4 2.020851 1_556
Li1 O17 2.077472 1_555
Li2 O19 1.960185 1_565
Li2 O28 1.975105 1_555
Li2 O26 2.000544 1_555
Li2 O14 2.057604 1_555
Li3 O35 1.985997 1_555
Li3 O36 1.996585 1_555
Li3 O6 2.020851 1_554
Li3 O1 2.077472 1_555
Li4 O33 1.960185 1_545
Li4 O2 1.975105 1_555
Li4 O21 2.000544 1_555
Li4 O18 2.057604 1_555
Li5 O13 1.960185 1_544
Li5 O29 1.975105 1_554
Li5 O34 2.000544 1_554
Li5 O5 2.057604 1_555
Li6 O7 1.985997 1_555
Li6 O0 1.996585 1_555
Li6 O27 2.020851 1_655
Li6 O23 2.077472 1_555
Li7 O38 1.985997 1_555
Li7 O11 1.996585 1_555
Li7 O37 2.020851 1_455
Li7 O10 2.077472 1_555
Al0 O14 1.758980 1_555
Al0 O17 1.764089 1_564
Al0 O32 1.765436 1_555
Al0 O6 1.771093 1_554
Al1 O18 1.758980 1_555
Al1 O1 1.764089 1_546
Al1 O34 1.765436 1_555
Al1 O4 1.771093 1_556
Al2 O39 1.758980 1_555
Al2 O10 1.764089 1_565
Al2 O26 1.765436 1_555
Al2 O27 1.771093 1_555
Al3 O5 1.758980 1_555
Al3 O23 1.764089 1_545
Al3 O21 1.765436 1_555
Al3 O37 1.771093 1_555
B0 O16 1.355984 1_655
B0 O37 1.374143 1_555
B0 O29 1.403677 1_555
B1 O14 1.360090 1_555
B1 O35 1.368270 1_555
B1 O28 1.412548 1_555
B2 O30 1.454755 1_556
B2 O16 1.467982 1_555
B2 O38 1.500313 1_556
B2 O25 1.522647 1_556
B3 O3 1.357385 1_555
B3 O34 1.367824 1_555
B3 O36 1.407352 1_556
B4 O24 1.357385 1_555
B4 O21 1.367824 1_555
B4 O0 1.407352 1_555
B5 O22 1.355984 1_455
B5 O27 1.374143 1_555
B5 O15 1.403677 1_555
B6 O31 1.357385 1_555
B6 O26 1.367824 1_555
B6 O11 1.407352 1_555
B7 O31 1.454755 1_555
B7 O9 1.467982 1_555
B7 O12 1.500313 1_555
B7 O19 1.522647 1_555
B8 O17 1.362325 1_555
B8 O25 1.370457 1_556
B8 O8 1.410103 1_555
B9 O20 1.355984 1_555
B9 O6 1.374143 1_555
B9 O28 1.403677 1_555
B10 O9 1.355984 1_555
B10 O4 1.374143 1_555
B10 O2 1.403677 1_555
B11 O39 1.360090 1_555
B11 O7 1.368270 1_455
B11 O15 1.412548 1_556
B12 O10 1.362325 1_555
B12 O19 1.370457 1_555
B12 O11 1.410103 1_555
B13 O24 1.454755 1_555
B13 O20 1.467982 1_555
B13 O35 1.500313 1_555
B13 O33 1.522647 1_555
B14 O23 1.362325 1_555
B14 O33 1.370457 1_555
B14 O0 1.410103 1_555
B15 O18 1.360090 1_555
B15 O12 1.368270 1_555
B15 O2 1.412548 1_555
B16 O3 1.454755 1_554
B16 O22 1.467982 1_555
B16 O7 1.500313 1_554
B16 O13 1.522647 1_554
B17 O5 1.360090 1_555
B17 O38 1.368270 1_655
B17 O29 1.412548 1_554
B18 O30 1.357385 1_555
B18 O32 1.367824 1_555
B18 O8 1.407352 1_554
B19 O1 1.362325 1_555
B19 O13 1.370457 1_554
B19 O36 1.410103 1_555
