# generated using pymatgen
data_Eu2B5Os3
_symmetry_space_group_name_H-M   'P 1'
_cell_length_a   5.72705759
_cell_length_b   5.72704403
_cell_length_c   8.05308455
_cell_angle_alpha   57.47114998
_cell_angle_beta   57.47138645
_cell_angle_gamma   41.55483872
_symmetry_Int_Tables_number   1
_chemical_formula_structural   Eu2B5Os3
_chemical_formula_sum   'Eu2 B5 Os3'
_cell_volume   143.33300929
_cell_formula_units_Z   1
loop_
 _symmetry_equiv_pos_site_id
 _symmetry_equiv_pos_as_xyz
  1  'x, y, z'
loop_
 _atom_site_type_symbol
 _atom_site_label
 _atom_site_symmetry_multiplicity
 _atom_site_fract_x
 _atom_site_fract_y
 _atom_site_fract_z
 _atom_site_occupancy
  Eu  Eu0  1  0.38418373  0.94640260  0.23428533  1
  Eu  Eu1  1  0.05361715  0.61580573  0.76569965  1
  B  B0  1  0.72412784  0.27587423  0.50000501  1
  B  B1  1  0.07268190  0.63648812  0.31306270  1
  B  B2  1  0.52394098  0.52928159  0.87975776  1
  B  B3  1  0.36352149  0.92731549  0.68693755  1
  B  B4  1  0.47070512  0.47605630  0.12025396  1
  Os  Os0  1  0.86699371  0.39852408  0.59555860  1
  Os  Os1  1  0.00373923  0.99625556  0.00001888  1
  Os  Os2  1  0.60148787  0.13299829  0.40441957  1
loop_
_geom_bond_atom_site_label_1
_geom_bond_atom_site_label_2
_geom_bond_distance
_geom_bond_site_symmetry_2
Eu0 Os1 3.157296 1_655
Eu0 Os1 3.361287 1_555
Eu1 Os1 3.157320 1_546
Eu1 Os1 3.361581 1_556
B0 Os0 1.968129 1_555
B0 Os2 1.968338 1_555
B0 Eu1 2.719663 1_645
B0 Eu0 2.719725 1_645
B0 Eu1 2.751194 1_555
B0 Eu0 2.751308 1_555
B1 B4 1.744846 1_555
B1 Os2 2.130608 1_465
B1 Os0 2.146338 1_455
B1 Os1 2.241260 1_555
B1 Os2 2.252258 1_555
B2 B4 1.675105 1_556
B2 B3 1.744902 1_555
B2 Os0 2.112891 1_555
B2 Os1 2.173459 1_556
B2 Os1 2.221625 1_646
B2 Eu1 2.918593 1_555
B2 Eu1 3.009147 1_655
B2 Eu0 3.350652 1_546
B3 Os0 2.130737 1_465
B3 Os2 2.146406 1_565
B3 Os1 2.241503 1_556
B3 Os0 2.252269 1_555
B4 Os2 2.112709 1_555
B4 Os1 2.173351 1_555
B4 Os1 2.221573 1_645
B4 Eu0 2.918569 1_555
B4 Eu0 3.009072 1_545
B4 Eu1 3.350817 1_654
