# generated using pymatgen
data_CuTeBr
_symmetry_space_group_name_H-M   'P 1'
_cell_length_a   16.30860091
_cell_length_b   11.90106037
_cell_length_c   11.73384535
_cell_angle_alpha   87.26066557
_cell_angle_beta   46.79488144
_cell_angle_gamma   45.94445298
_symmetry_Int_Tables_number   1
_chemical_formula_structural   CuTeBr
_chemical_formula_sum   'Cu8 Te8 Br8'
_cell_volume   687.03197051
_cell_formula_units_Z   8
loop_
 _symmetry_equiv_pos_site_id
 _symmetry_equiv_pos_as_xyz
  1  'x, y, z'
loop_
 _atom_site_type_symbol
 _atom_site_label
 _atom_site_symmetry_multiplicity
 _atom_site_fract_x
 _atom_site_fract_y
 _atom_site_fract_z
 _atom_site_occupancy
  Cu  Cu0  1  0.00000000  0.00000000  0.00000000  1
  Cu  Cu1  1  0.50000000  0.50000000  0.50000000  1
  Cu  Cu2  1  0.86420900  0.13579100  0.86420900  1
  Cu  Cu3  1  0.11420900  0.38579100  0.11420900  1
  Cu  Cu4  1  0.75000000  0.75000000  0.75000000  1
  Cu  Cu5  1  0.13579100  0.86420900  0.13579100  1
  Cu  Cu6  1  0.25000000  0.25000000  0.25000000  1
  Cu  Cu7  1  0.38579100  0.11420900  0.38579100  1
  Te  Te0  1  0.73930900  0.65625000  0.14677100  1
  Te  Te1  1  0.45767000  0.14677100  0.65625000  1
  Te  Te2  1  0.10322900  0.79233000  0.51069100  1
  Te  Te3  1  0.14677100  0.45767000  0.73930900  1
  Te  Te4  1  0.51069100  0.59375000  0.10322900  1
  Te  Te5  1  0.79233000  0.10322900  0.59375000  1
  Te  Te6  1  0.65625000  0.73930900  0.45767000  1
  Te  Te7  1  0.59375000  0.51069100  0.79233000  1
  Br  Br0  1  0.88123300  0.24789100  0.25116300  1
  Br  Br1  1  0.61971400  0.25116300  0.24789100  1
  Br  Br2  1  0.24789100  0.88123300  0.61971400  1
  Br  Br3  1  0.63028600  0.99883700  0.00210900  1
  Br  Br4  1  0.99883700  0.63028600  0.36876700  1
  Br  Br5  1  0.25116300  0.61971400  0.88123300  1
  Br  Br6  1  0.00210900  0.36876700  0.63028600  1
  Br  Br7  1  0.36876700  0.00210900  0.99883700  1
loop_
_geom_bond_atom_site_label_1
_geom_bond_atom_site_label_2
_geom_bond_distance
_geom_bond_site_symmetry_2
Cu2 Te4 2.536084 1_556
Cu2 Te2 2.536084 1_645
Cu3 Te6 2.536084 1_455
Cu3 Te1 2.536084 1_554
Cu5 Te5 2.536084 1_465
Cu5 Te7 2.536084 1_554
Cu7 Te0 2.536084 1_545
Cu7 Te3 2.536084 1_555
Te0 Te6 2.799400 1_555
Te0 Te3 2.887879 1_654
Te1 Te3 2.799400 1_555
Te1 Te6 2.887879 1_545
Te2 Te5 2.799400 1_465
Te2 Te4 2.887879 1_555
Te4 Te7 2.799400 1_554
Te5 Te7 2.887879 1_555
Br0 Cu0 2.491749 1_655
Br0 Cu1 2.494281 1_555
Br0 Cu5 2.539763 1_645
Br1 Cu0 2.491735 1_655
Br1 Cu1 2.494267 1_555
Br1 Cu2 2.539764 1_554
Br2 Cu0 2.491740 1_566
Br2 Cu1 2.494276 1_555
Br2 Cu2 2.539769 1_465
Br3 Cu6 2.491735 1_565
Br3 Cu4 2.494267 1_554
Br3 Cu7 2.539764 1_565
Br4 Cu6 2.491740 1_655
Br4 Cu4 2.494275 1_555
Br4 Cu3 2.539755 1_655
Br5 Cu0 2.491740 1_566
Br5 Cu1 2.494275 1_555
Br5 Cu5 2.539755 1_556
Br6 Cu6 2.491740 1_555
Br6 Cu4 2.494276 1_455
Br6 Cu7 2.539769 1_555
Br7 Cu6 2.491749 1_556
Br7 Cu4 2.494281 1_545
Br7 Cu3 2.539763 1_556
