# generated using pymatgen
data_MnAs2S4(NF6)4
_symmetry_space_group_name_H-M   'P 1'
_cell_length_a   10.60571100
_cell_length_b   7.65981300
_cell_length_c   15.68691995
_cell_angle_alpha   65.35979267
_cell_angle_beta   90.00000000
_cell_angle_gamma   90.00000000
_symmetry_Int_Tables_number   1
_chemical_formula_structural   MnAs2S4(NF6)4
_chemical_formula_sum   'Mn2 As4 S8 N8 F48'
_cell_volume   1158.33091828
_cell_formula_units_Z   2
loop_
 _symmetry_equiv_pos_site_id
 _symmetry_equiv_pos_as_xyz
  1  'x, y, z'
loop_
 _atom_site_type_symbol
 _atom_site_label
 _atom_site_symmetry_multiplicity
 _atom_site_fract_x
 _atom_site_fract_y
 _atom_site_fract_z
 _atom_site_occupancy
  Mn  Mn0  1  0.00000000  0.00000000  0.00000000  1
  Mn  Mn1  1  0.50000000  0.00000000  0.50000000  1
  As  As0  1  0.24271400  0.19634200  0.61351900  1
  As  As1  1  0.74271400  0.80365800  0.88648100  1
  As  As2  1  0.75728600  0.80365800  0.38648100  1
  As  As3  1  0.25728600  0.19634200  0.11351900  1
  S  S0  1  0.19941700  0.85408600  0.44926800  1
  S  S1  1  0.43592800  0.46076500  0.31573800  1
  S  S2  1  0.56407200  0.53923500  0.68426200  1
  S  S3  1  0.80058300  0.14591400  0.55073200  1
  S  S4  1  0.30058300  0.85408600  0.94926800  1
  S  S5  1  0.69941700  0.14591400  0.05073200  1
  S  S6  1  0.93592800  0.53923500  0.18426200  1
  S  S7  1  0.06407200  0.46076500  0.81573800  1
  N  N0  1  0.32589500  0.90143500  0.45875400  1
  N  N1  1  0.17410500  0.90143500  0.95875400  1
  N  N2  1  0.67410500  0.09856500  0.54124600  1
  N  N3  1  0.48021100  0.27797500  0.37825700  1
  N  N4  1  0.98021100  0.72202500  0.12174300  1
  N  N5  1  0.51978900  0.72202500  0.62174300  1
  N  N6  1  0.01978900  0.27797500  0.87825700  1
  N  N7  1  0.82589500  0.09856500  0.04124600  1
  F  F0  1  0.07564800  0.63183000  0.84507000  1
  F  F1  1  0.11718900  0.72775200  0.53596500  1
  F  F2  1  0.69424900  0.74614700  0.00314700  1
  F  F3  1  0.10631000  0.11121100  0.08711800  1
  F  F4  1  0.40075400  0.27920100  0.13951000  1
  F  F5  1  0.50781000  0.57687400  0.22184100  1
  F  F6  1  0.33229000  0.73849400  0.89022700  1
  F  F7  1  0.30156000  0.48884500  0.27012400  1
  F  F8  1  0.39369000  0.11121100  0.58711800  1
  F  F9  1  0.40359200  0.01190900  0.90410900  1
  F  F10  1  0.49219000  0.42312600  0.77815900  1
  F  F11  1  0.57564800  0.36817000  0.65493000  1
  F  F12  1  0.59924600  0.72079900  0.86049000  1
  F  F13  1  0.83229000  0.26150600  0.60977300  1
  F  F14  1  0.19844000  0.48884500  0.77012400  1
  F  F15  1  0.31159500  0.42710400  0.57570700  1
  F  F16  1  0.59640800  0.98809100  0.09589100  1
  F  F17  1  0.38281100  0.72775200  0.03596500  1
  F  F18  1  0.68277000  0.03857500  0.85146800  1
  F  F19  1  0.18840500  0.42710400  0.07570700  1
  F  F20  1  0.31723000  0.96142500  0.14853200  1
  F  F21  1  0.09924600  0.27920100  0.63951000  1
  F  F22  1  0.89369000  0.88878900  0.91288200  1
  F  F23  1  0.80156000  0.51115500  0.22987600  1
  F  F24  1  0.79971500  0.86310000  0.77218100  1
  F  F25  1  0.00781000  0.42312600  0.27815900  1
  F  F26  1  0.20028500  0.13690000  0.22781900  1
  F  F27  1  0.18277000  0.96142500  0.64853200  1
  F  F28  1  0.69844000  0.51115500  0.72987600  1
  F  F29  1  0.99219000  0.57687400  0.72184100  1
  F  F30  1  0.30575100  0.25385300  0.99685300  1
  F  F31  1  0.70028500  0.86310000  0.27218100  1
  F  F32  1  0.66771000  0.26150600  0.10977300  1
  F  F33  1  0.90359200  0.98809100  0.59589100  1
  F  F34  1  0.61718900  0.27224800  0.96403500  1
  F  F35  1  0.29971500  0.13690000  0.72781900  1
  F  F36  1  0.60631000  0.88878900  0.41288200  1
  F  F37  1  0.19424900  0.25385300  0.49685300  1
  F  F38  1  0.68840500  0.57289600  0.42429300  1
  F  F39  1  0.42435200  0.63183000  0.34507000  1
  F  F40  1  0.16771000  0.73849400  0.39022700  1
  F  F41  1  0.90075400  0.72079900  0.36049000  1
  F  F42  1  0.81723000  0.03857500  0.35146800  1
  F  F43  1  0.80575100  0.74614700  0.50314700  1
  F  F44  1  0.81159500  0.57289600  0.92429300  1
  F  F45  1  0.88281100  0.27224800  0.46403500  1
  F  F46  1  0.09640800  0.01190900  0.40410900  1
  F  F47  1  0.92435200  0.36817000  0.15493000  1
loop_
_geom_bond_atom_site_label_1
_geom_bond_atom_site_label_2
_geom_bond_distance
_geom_bond_site_symmetry_2
Mn0 N7 2.192159 1_455
Mn0 N1 2.192159 1_544
Mn0 N4 2.198692 1_445
Mn0 N6 2.198692 1_554
Mn1 N2 2.192159 1_555
Mn1 N0 2.192159 1_545
Mn1 N3 2.198692 1_555
Mn1 N5 2.198692 1_545
As0 F21 1.760693 1_555
As0 F35 1.762653 1_555
As0 F27 1.766256 1_545
As0 F37 1.770702 1_555
As0 F15 1.770778 1_555
As0 F8 1.840053 1_555
As1 F12 1.760693 1_555
As1 F24 1.762653 1_555
As1 F18 1.766256 1_565
As1 F2 1.770702 1_556
As1 F44 1.770778 1_555
As1 F22 1.840053 1_555
As2 F41 1.760693 1_555
As2 F31 1.762653 1_555
As2 F42 1.766256 1_565
As2 F43 1.770702 1_555
As2 F38 1.770778 1_555
As2 F36 1.840053 1_555
As3 F4 1.760693 1_555
As3 F26 1.762653 1_555
As3 F20 1.766256 1_545
As3 F30 1.770702 1_554
As3 F19 1.770778 1_555
As3 F3 1.840053 1_555
N0 S0 1.413510 1_555
N1 S4 1.413510 1_555
N2 S3 1.413510 1_555
N3 S1 1.413436 1_555
N4 S6 1.413436 1_555
N5 S2 1.413436 1_555
N6 S7 1.413436 1_555
N7 S5 1.413510 1_555
F0 S7 1.564123 1_555
F1 S0 1.564992 1_555
F3 Mn0 2.198920 1_555
F5 S1 1.565069 1_555
F6 S4 1.561606 1_555
F7 S1 1.568679 1_555
F8 Mn1 2.198920 1_555
F9 S4 1.562913 1_545
F10 S2 1.565069 1_555
F11 S2 1.564123 1_555
F13 S3 1.561606 1_555
F14 S7 1.568679 1_555
F16 S5 1.562913 1_565
F17 S4 1.564992 1_554
F22 Mn0 2.198920 1_666
F23 S6 1.568679 1_555
F25 S6 1.565069 1_455
F28 S2 1.568679 1_555
F29 S7 1.565069 1_655
F32 S5 1.561606 1_555
F33 S3 1.562913 1_565
F34 S5 1.564992 1_556
F36 Mn1 2.198920 1_565
F39 S1 1.564123 1_555
F40 S0 1.561606 1_555
F45 S3 1.564992 1_555
F46 S0 1.562913 1_545
F47 S6 1.564123 1_555
