# generated using pymatgen
data_Na3Nd14(RuO6)6
_symmetry_space_group_name_H-M   'P 1'
_cell_length_a   19.51995353
_cell_length_b   19.51995353
_cell_length_c   19.51995354
_cell_angle_alpha   29.03823655
_cell_angle_beta   29.03823655
_cell_angle_gamma   29.03823859
_symmetry_Int_Tables_number   1
_chemical_formula_structural   Na3Nd14(RuO6)6
_chemical_formula_sum   'Na6 Nd28 Ru12 O72'
_cell_volume   1550.03206909
_cell_formula_units_Z   2
loop_
 _symmetry_equiv_pos_site_id
 _symmetry_equiv_pos_as_xyz
  1  'x, y, z'
loop_
 _atom_site_type_symbol
 _atom_site_label
 _atom_site_symmetry_multiplicity
 _atom_site_fract_x
 _atom_site_fract_y
 _atom_site_fract_z
 _atom_site_occupancy
  Na  Na0  1  0.55320600  0.55320600  0.55320600  1
  Na  Na1  1  0.75000000  0.75000000  0.75000000  1
  Na  Na2  1  0.44679400  0.44679400  0.44679400  1
  Na  Na3  1  0.05320600  0.05320600  0.05320600  1
  Na  Na4  1  0.25000000  0.25000000  0.25000000  1
  Na  Na5  1  0.94679400  0.94679400  0.94679400  1
  Nd  Nd0  1  0.04086900  0.69760500  0.31925000  1
  Nd  Nd1  1  0.60782600  0.60782600  0.60782600  1
  Nd  Nd2  1  0.81925000  0.19760500  0.54086900  1
  Nd  Nd3  1  0.99898700  0.57056500  0.28014000  1
  Nd  Nd4  1  0.50101300  0.21986000  0.92943500  1
  Nd  Nd5  1  0.00101300  0.42943500  0.71986000  1
  Nd  Nd6  1  0.54086900  0.81925000  0.19760500  1
  Nd  Nd7  1  0.42943500  0.71986000  0.00101300  1
  Nd  Nd8  1  0.78014000  0.07056500  0.49898700  1
  Nd  Nd9  1  0.80239500  0.45913100  0.18075000  1
  Nd  Nd10  1  0.30239500  0.68075000  0.95913100  1
  Nd  Nd11  1  0.07056500  0.49898700  0.78014000  1
  Nd  Nd12  1  0.21986000  0.92943500  0.50101300  1
  Nd  Nd13  1  0.57056500  0.28014000  0.99898700  1
  Nd  Nd14  1  0.68075000  0.95913100  0.30239500  1
  Nd  Nd15  1  0.45913100  0.18075000  0.80239500  1
  Nd  Nd16  1  0.10782600  0.10782600  0.10782600  1
  Nd  Nd17  1  0.69760500  0.31925000  0.04086900  1
  Nd  Nd18  1  0.49898700  0.78014000  0.07056500  1
  Nd  Nd19  1  0.89217400  0.89217400  0.89217400  1
  Nd  Nd20  1  0.92943500  0.50101300  0.21986000  1
  Nd  Nd21  1  0.95913100  0.30239500  0.68075000  1
  Nd  Nd22  1  0.31925000  0.04086900  0.69760500  1
  Nd  Nd23  1  0.19760500  0.54086900  0.81925000  1
  Nd  Nd24  1  0.18075000  0.80239500  0.45913100  1
  Nd  Nd25  1  0.28014000  0.99898700  0.57056500  1
  Nd  Nd26  1  0.71986000  0.00101300  0.42943500  1
  Nd  Nd27  1  0.39217400  0.39217400  0.39217400  1
  Ru  Ru0  1  0.08280000  0.75000000  0.41720000  1
  Ru  Ru1  1  0.58280000  0.91720000  0.25000000  1
  Ru  Ru2  1  0.25000000  0.58280000  0.91720000  1
  Ru  Ru3  1  0.66231400  0.66231400  0.66231400  1
  Ru  Ru4  1  0.00000000  0.00000000  0.00000000  1
  Ru  Ru5  1  0.41720000  0.08280000  0.75000000  1
  Ru  Ru6  1  0.16231400  0.16231400  0.16231400  1
  Ru  Ru7  1  0.50000000  0.50000000  0.50000000  1
  Ru  Ru8  1  0.83768600  0.83768600  0.83768600  1
  Ru  Ru9  1  0.33768600  0.33768600  0.33768600  1
  Ru  Ru10  1  0.91720000  0.25000000  0.58280000  1
  Ru  Ru11  1  0.75000000  0.41720000  0.08280000  1
  O  O0  1  0.28135500  0.46749100  0.08046100  1
  O  O1  1  0.94504500  0.98561300  0.31535300  1
  O  O2  1  0.48518500  0.16370000  0.42846600  1
  O  O3  1  0.44504500  0.81535300  0.48561300  1
  O  O4  1  0.79800100  0.29656000  0.23296600  1
  O  O5  1  0.71864500  0.53250900  0.91953900  1
  O  O6  1  0.23296600  0.79800100  0.29656000  1
  O  O7  1  0.83630000  0.57153400  0.51481500  1
  O  O8  1  0.29656000  0.23296600  0.79800100  1
  O  O9  1  0.18960000  0.52014600  0.25216400  1
  O  O10  1  0.31040000  0.24783600  0.97985400  1
  O  O11  1  0.81040000  0.47985400  0.74783600  1
  O  O12  1  0.34968600  0.68861000  0.52390600  1
  O  O13  1  0.84968600  0.02390600  0.18861000  1
  O  O14  1  0.47609400  0.65031400  0.31139000  1
  O  O15  1  0.03250900  0.21864500  0.41953900  1
  O  O16  1  0.96749100  0.78135500  0.58046100  1
  O  O17  1  0.68861000  0.52390600  0.34968600  1
  O  O18  1  0.76703400  0.20199900  0.70344000  1
  O  O19  1  0.57153400  0.51481500  0.83630000  1
  O  O20  1  0.78135500  0.58046100  0.96749100  1
  O  O21  1  0.79656000  0.29800100  0.73296600  1
  O  O22  1  0.26703400  0.20344000  0.70199900  1
  O  O23  1  0.01481500  0.07153400  0.33630000  1
  O  O24  1  0.31139000  0.47609400  0.65031400  1
  O  O25  1  0.70344000  0.76703400  0.20199900  1
  O  O26  1  0.52014600  0.25216400  0.18960000  1
  O  O27  1  0.31535300  0.94504500  0.98561300  1
  O  O28  1  0.20344000  0.70199900  0.26703400  1
  O  O29  1  0.47985400  0.74783600  0.81040000  1
  O  O30  1  0.29800100  0.73296600  0.79656000  1
  O  O31  1  0.68960000  0.75216400  0.02014600  1
  O  O32  1  0.73296600  0.79656000  0.29800100  1
  O  O33  1  0.65031400  0.31139000  0.47609400  1
  O  O34  1  0.18861000  0.84968600  0.02390600  1
  O  O35  1  0.91953900  0.71864500  0.53250900  1
  O  O36  1  0.81139000  0.15031400  0.97609400  1
  O  O37  1  0.24783600  0.97985400  0.31040000  1
  O  O38  1  0.66370000  0.98518500  0.92846600  1
  O  O39  1  0.07153400  0.33630000  0.01481500  1
  O  O40  1  0.51438700  0.55495500  0.18464700  1
  O  O41  1  0.48561300  0.44504500  0.81535300  1
  O  O42  1  0.58046100  0.96749100  0.78135500  1
  O  O43  1  0.55495500  0.18464700  0.51438700  1
  O  O44  1  0.68464700  0.05495500  0.01438700  1
  O  O45  1  0.74783600  0.81040000  0.47985400  1
  O  O46  1  0.02390600  0.18861000  0.84968600  1
  O  O47  1  0.18464700  0.51438700  0.55495500  1
  O  O48  1  0.75216400  0.02014600  0.68960000  1
  O  O49  1  0.46749100  0.08046100  0.28135500  1
  O  O50  1  0.15031400  0.97609400  0.81139000  1
  O  O51  1  0.01438700  0.68464700  0.05495500  1
  O  O52  1  0.92846600  0.66370000  0.98518500  1
  O  O53  1  0.51481500  0.83630000  0.57153400  1
  O  O54  1  0.98518500  0.92846600  0.66370000  1
  O  O55  1  0.21864500  0.41953900  0.03250900  1
  O  O56  1  0.52390600  0.34968600  0.68861000  1
  O  O57  1  0.70199900  0.26703400  0.20344000  1
  O  O58  1  0.97985400  0.31040000  0.24783600  1
  O  O59  1  0.16370000  0.42846600  0.48518500  1
  O  O60  1  0.97609400  0.81139000  0.15031400  1
  O  O61  1  0.20199900  0.70344000  0.76703400  1
  O  O62  1  0.08046100  0.28135500  0.46749100  1
  O  O63  1  0.53250900  0.91953900  0.71864500  1
  O  O64  1  0.25216400  0.18960000  0.52014600  1
  O  O65  1  0.02014600  0.68960000  0.75216400  1
  O  O66  1  0.33630000  0.01481500  0.07153400  1
  O  O67  1  0.98561300  0.31535300  0.94504500  1
  O  O68  1  0.05495500  0.01438700  0.68464700  1
  O  O69  1  0.42846600  0.48518500  0.16370000  1
  O  O70  1  0.41953900  0.03250900  0.21864500  1
  O  O71  1  0.81535300  0.48561300  0.44504500  1
loop_
_geom_bond_atom_site_label_1
_geom_bond_atom_site_label_2
_geom_bond_distance
_geom_bond_site_symmetry_2
Na0 O56 2.462632 1_555
Na0 O17 2.462632 1_555
Na0 O12 2.462632 1_555
Na0 O41 2.560683 1_555
Na0 O71 2.560684 1_555
Na0 O3 2.560684 1_555
Na1 O16 2.405142 1_555
Na1 O5 2.405142 1_555
Na1 O20 2.405142 1_555
Na1 O35 2.405142 1_555
Na1 O42 2.405142 1_555
Na1 O63 2.405142 1_555
Na2 O14 2.462632 1_555
Na2 O24 2.462632 1_555
Na2 O33 2.462632 1_555
Na2 O40 2.560683 1_555
Na2 O47 2.560684 1_555
Na2 O43 2.560684 1_555
Na3 O13 2.462632 1_455
Na3 O46 2.462632 1_554
Na3 O34 2.462632 1_545
Na3 O1 2.560683 1_445
Na3 O67 2.560684 1_454
Na3 O27 2.560684 1_544
Na4 O0 2.405142 1_555
Na4 O15 2.405142 1_555
Na4 O62 2.405142 1_555
Na4 O55 2.405142 1_555
Na4 O49 2.405142 1_555
Na4 O70 2.405142 1_555
Na5 O50 2.462632 1_655
Na5 O60 2.462632 1_556
Na5 O36 2.462632 1_565
Na5 O68 2.560683 1_665
Na5 O51 2.560684 1_656
Na5 O44 2.560684 1_566
Nd0 O59 2.374706 1_555
Nd0 O28 2.404964 1_555
Nd0 O9 2.416959 1_555
Nd0 O45 2.466993 1_455
Nd0 O34 2.517515 1_555
Nd0 O60 2.641820 1_455
Nd0 O35 2.675077 1_455
Nd0 O13 2.770287 1_465
Nd1 O41 2.458964 1_555
Nd1 O71 2.458964 1_555
Nd1 O3 2.458964 1_555
Nd1 O19 2.500798 1_555
Nd1 O7 2.500798 1_555
Nd1 O53 2.500798 1_555
Nd1 O32 2.656939 1_555
Nd1 O30 2.656939 1_555
Nd1 O21 2.656939 1_555
Nd2 O54 2.374706 1_545
Nd2 O18 2.404964 1_555
Nd2 O48 2.416959 1_555
Nd2 O58 2.466993 1_555
Nd2 O56 2.517515 1_555
Nd2 O33 2.641820 1_555
Nd2 O15 2.675077 1_655
Nd2 O17 2.770287 1_555
Nd3 O7 2.383001 1_555
Nd3 O32 2.452496 1_555
Nd3 O9 2.468721 1_655
Nd3 O51 2.472785 1_655
Nd3 O62 2.478664 1_655
Nd3 O60 2.489225 1_555
Nd3 O0 2.525059 1_655
Nd3 O71 2.616178 1_555
Nd4 O38 2.383001 1_545
Nd4 O18 2.452496 1_555
Nd4 O10 2.468721 1_555
Nd4 O41 2.472785 1_555
Nd4 O70 2.478664 1_556
Nd4 O56 2.489225 1_555
Nd4 O55 2.525059 1_556
Nd4 O44 2.616178 1_556
Nd5 O59 2.383001 1_555
Nd5 O22 2.452496 1_555
Nd5 O11 2.468721 1_455
Nd5 O67 2.472785 1_455
Nd5 O35 2.478664 1_455
Nd5 O46 2.489225 1_555
Nd5 O5 2.525059 1_455
Nd5 O47 2.616178 1_555
Nd6 O38 2.374706 1_554
Nd6 O25 2.404964 1_555
Nd6 O31 2.416959 1_555
Nd6 O37 2.466993 1_555
Nd6 O17 2.517515 1_555
Nd6 O14 2.641820 1_555
Nd6 O70 2.675077 1_565
Nd6 O12 2.770287 1_555
Nd7 O69 2.383001 1_555
Nd7 O28 2.452496 1_555
Nd7 O29 2.468721 1_554
Nd7 O27 2.472785 1_554
Nd7 O5 2.478664 1_554
Nd7 O34 2.489225 1_555
Nd7 O63 2.525059 1_554
Nd7 O40 2.616178 1_555
Nd8 O23 2.383001 1_655
Nd8 O4 2.452496 1_555
Nd8 O48 2.468721 1_555
Nd8 O43 2.472785 1_555
Nd8 O16 2.478664 1_545
Nd8 O33 2.489225 1_555
Nd8 O42 2.525059 1_545
Nd8 O1 2.616178 1_545
Nd9 O39 2.374706 1_655
Nd9 O4 2.404964 1_555
Nd9 O58 2.416959 1_555
Nd9 O31 2.466993 1_555
Nd9 O33 2.517515 1_555
Nd9 O17 2.641820 1_555
Nd9 O20 2.675077 1_554
Nd9 O14 2.770287 1_555
Nd10 O19 2.374706 1_555
Nd10 O30 2.404964 1_555
Nd10 O29 2.416959 1_555
Nd10 O9 2.466993 1_556
Nd10 O50 2.517515 1_555
Nd10 O34 2.641820 1_556
Nd10 O0 2.675077 1_556
Nd10 O60 2.770287 1_456
Nd11 O39 2.383001 1_556
Nd11 O8 2.452496 1_555
Nd11 O65 2.468721 1_555
Nd11 O47 2.472785 1_555
Nd11 O20 2.478664 1_455
Nd11 O24 2.489225 1_555
Nd11 O16 2.525059 1_455
Nd11 O67 2.616178 1_455
Nd12 O54 2.383001 1_455
Nd12 O61 2.452496 1_555
Nd12 O37 2.468721 1_555
Nd12 O3 2.472785 1_555
Nd12 O15 2.478664 1_565
Nd12 O12 2.489225 1_555
Nd12 O70 2.525059 1_565
Nd12 O68 2.616178 1_565
Nd13 O19 2.383001 1_555
Nd13 O21 2.452496 1_555
Nd13 O26 2.468721 1_556
Nd13 O44 2.472785 1_556
Nd13 O0 2.478664 1_556
Nd13 O36 2.489225 1_555
Nd13 O49 2.525059 1_556
Nd13 O41 2.616178 1_555
Nd14 O53 2.374706 1_555
Nd14 O32 2.404964 1_555
Nd14 O45 2.416959 1_555
Nd14 O26 2.466993 1_565
Nd14 O60 2.517515 1_555
Nd14 O13 2.641820 1_565
Nd14 O49 2.675077 1_565
Nd14 O36 2.770287 1_564
Nd15 O66 2.374706 1_556
Nd15 O8 2.404964 1_555
Nd15 O10 2.416959 1_555
Nd15 O48 2.466993 1_555
Nd15 O24 2.517515 1_555
Nd15 O56 2.641820 1_555
Nd15 O42 2.675077 1_545
Nd15 O33 2.770287 1_555
Nd16 O1 2.458964 1_445
Nd16 O67 2.458964 1_454
Nd16 O27 2.458964 1_544
Nd16 O23 2.500798 1_555
Nd16 O39 2.500798 1_555
Nd16 O66 2.500798 1_555
Nd16 O8 2.656939 1_554
Nd16 O6 2.656939 1_545
Nd16 O4 2.656939 1_455
Nd17 O69 2.374706 1_555
Nd17 O57 2.404964 1_555
Nd17 O26 2.416959 1_555
Nd17 O11 2.466993 1_554
Nd17 O13 2.517515 1_555
Nd17 O36 2.641820 1_554
Nd17 O5 2.675077 1_554
Nd17 O46 2.770287 1_654
Nd18 O66 2.383001 1_565
Nd18 O6 2.452496 1_555
Nd18 O31 2.468721 1_555
Nd18 O40 2.472785 1_555
Nd18 O42 2.478664 1_554
Nd18 O14 2.489225 1_555
Nd18 O20 2.525059 1_554
Nd18 O27 2.616178 1_554
Nd19 O68 2.458964 1_665
Nd19 O51 2.458964 1_656
Nd19 O44 2.458964 1_566
Nd19 O54 2.500798 1_555
Nd19 O52 2.500798 1_555
Nd19 O38 2.500798 1_555
Nd19 O25 2.656939 1_556
Nd19 O18 2.656939 1_565
Nd19 O61 2.656939 1_655
Nd20 O52 2.383001 1_554
Nd20 O25 2.452496 1_555
Nd20 O58 2.468721 1_555
Nd20 O71 2.472785 1_555
Nd20 O55 2.478664 1_655
Nd20 O17 2.489225 1_555
Nd20 O15 2.525059 1_655
Nd20 O51 2.616178 1_655
Nd21 O7 2.374706 1_555
Nd21 O21 2.404964 1_555
Nd21 O11 2.416959 1_555
Nd21 O64 2.466993 1_655
Nd21 O36 2.517515 1_555
Nd21 O46 2.641820 1_655
Nd21 O62 2.675077 1_655
Nd21 O50 2.770287 1_645
Nd22 O2 2.374706 1_555
Nd22 O22 2.404964 1_555
Nd22 O64 2.416959 1_555
Nd22 O29 2.466993 1_545
Nd22 O46 2.517515 1_555
Nd22 O50 2.641820 1_545
Nd22 O63 2.675077 1_545
Nd22 O34 2.770287 1_546
Nd23 O52 2.374706 1_455
Nd23 O61 2.404964 1_555
Nd23 O65 2.416959 1_555
Nd23 O10 2.466993 1_555
Nd23 O12 2.517515 1_555
Nd23 O24 2.641820 1_555
Nd23 O55 2.675077 1_556
Nd23 O56 2.770287 1_555
Nd24 O23 2.374706 1_565
Nd24 O6 2.404964 1_555
Nd24 O37 2.416959 1_555
Nd24 O65 2.466993 1_555
Nd24 O14 2.517515 1_555
Nd24 O12 2.641820 1_555
Nd24 O16 2.675077 1_455
Nd24 O24 2.770287 1_555
Nd25 O53 2.383001 1_555
Nd25 O30 2.452496 1_555
Nd25 O64 2.468721 1_565
Nd25 O68 2.472785 1_565
Nd25 O49 2.478664 1_565
Nd25 O50 2.489225 1_555
Nd25 O62 2.525059 1_565
Nd25 O3 2.616178 1_555
Nd26 O2 2.383001 1_555
Nd26 O57 2.452496 1_555
Nd26 O45 2.468721 1_545
Nd26 O1 2.472785 1_545
Nd26 O63 2.478664 1_545
Nd26 O13 2.489225 1_555
Nd26 O35 2.525059 1_545
Nd26 O43 2.616178 1_555
Nd27 O40 2.458964 1_555
Nd27 O47 2.458964 1_555
Nd27 O43 2.458964 1_555
Nd27 O69 2.500798 1_555
Nd27 O59 2.500798 1_555
Nd27 O2 2.500798 1_555
Nd27 O22 2.656939 1_555
Nd27 O57 2.656939 1_555
Nd27 O28 2.656939 1_555
O0 Ru2 2.013914 1_554
O1 Ru0 2.017413 1_655
O2 Ru9 2.064868 1_555
O3 Ru1 2.017413 1_555
O4 Ru11 1.972253 1_555
O5 Ru11 2.013914 1_556
O6 Ru0 1.972253 1_555
O7 Ru3 2.064868 1_555
O8 Ru5 1.972253 1_555
O9 Ru9 1.966404 1_555
O10 Ru6 1.966404 1_556
O11 Ru3 1.966404 1_555
O12 Ru7 2.025427 1_555
O13 Ru4 2.025427 1_655
O14 Ru7 2.025427 1_555
O15 Ru10 2.013914 1_455
O16 Ru0 2.013914 1_655
O17 Ru7 2.025427 1_555
O18 Ru10 1.972253 1_555
O19 Ru3 2.064868 1_555
O20 Ru11 2.013914 1_556
O21 Ru10 1.972253 1_555
O22 Ru5 1.972253 1_555
O23 Ru6 2.064868 1_555
O24 Ru7 2.025427 1_555
O25 Ru1 1.972253 1_555
O26 Ru9 1.966404 1_555
O27 Ru5 2.017413 1_565
O28 Ru0 1.972253 1_555
O29 Ru3 1.966404 1_555
O30 Ru2 1.972253 1_555
O31 Ru8 1.966404 1_554
O32 Ru1 1.972253 1_555
O33 Ru7 2.025427 1_555
O34 Ru4 2.025427 1_565
O35 Ru0 2.013914 1_655
O36 Ru4 2.025427 1_656
O37 Ru6 1.966404 1_565
O38 Ru8 2.064868 1_555
O39 Ru6 2.064868 1_555
O40 Ru11 2.017413 1_555
O41 Ru2 2.017413 1_555
O42 Ru5 2.013914 1_565
O43 Ru5 2.017413 1_555
O44 Ru1 2.017413 1_545
O45 Ru3 1.966404 1_555
O46 Ru4 2.025427 1_556
O47 Ru0 2.017413 1_555
O48 Ru8 1.966404 1_545
O49 Ru1 2.013914 1_545
O50 Ru4 2.025427 1_566
O51 Ru2 2.017413 1_554
O52 Ru8 2.064868 1_555
O53 Ru3 2.064868 1_555
O54 Ru8 2.064868 1_555
O55 Ru2 2.013914 1_554
O56 Ru7 2.025427 1_555
O57 Ru11 1.972253 1_555
O58 Ru6 1.966404 1_655
O59 Ru9 2.064868 1_555
O60 Ru4 2.025427 1_665
O61 Ru2 1.972253 1_555
O62 Ru10 2.013914 1_455
O63 Ru5 2.013914 1_565
O64 Ru9 1.966404 1_555
O65 Ru8 1.966404 1_455
O66 Ru6 2.064868 1_555
O67 Ru11 2.017413 1_556
O68 Ru10 2.017413 1_455
O69 Ru9 2.064868 1_555
O70 Ru1 2.013914 1_545
O71 Ru10 2.017413 1_555
