# generated using pymatgen
data_KNa3Al4(SiO4)4
_symmetry_space_group_name_H-M   'P 1'
_cell_length_a   10.13840091
_cell_length_b   10.13840091
_cell_length_c   8.52577900
_cell_angle_alpha   90.00000000
_cell_angle_beta   90.00000000
_cell_angle_gamma   120.00000591
_symmetry_Int_Tables_number   1
_chemical_formula_structural   KNa3Al4(SiO4)4
_chemical_formula_sum   'K2 Na6 Al8 Si8 O32'
_cell_volume   758.93328107
_cell_formula_units_Z   2
loop_
 _symmetry_equiv_pos_site_id
 _symmetry_equiv_pos_as_xyz
  1  'x, y, z'
loop_
 _atom_site_type_symbol
 _atom_site_label
 _atom_site_symmetry_multiplicity
 _atom_site_fract_x
 _atom_site_fract_y
 _atom_site_fract_z
 _atom_site_occupancy
  K  K0  1  0.00000000  0.00000000  0.00401700  1
  K  K1  1  0.00000000  0.00000000  0.50401700  1
  Na  Na0  1  0.45029500  0.44123600  0.50072500  1
  Na  Na1  1  0.99094100  0.54970500  0.50072500  1
  Na  Na2  1  0.44123600  0.99094100  0.00072500  1
  Na  Na3  1  0.00905900  0.45029500  0.00072500  1
  Na  Na4  1  0.54970500  0.55876400  0.00072500  1
  Na  Na5  1  0.55876400  0.00905900  0.50072500  1
  Al  Al0  1  0.66721400  0.76066600  0.31290200  1
  Al  Al1  1  0.76066600  0.09345200  0.81290200  1
  Al  Al2  1  0.66666700  0.33333300  0.30329100  1
  Al  Al3  1  0.33333300  0.66666700  0.80329100  1
  Al  Al4  1  0.09345200  0.33278600  0.31290200  1
  Al  Al5  1  0.90654800  0.66721400  0.81290200  1
  Al  Al6  1  0.33278600  0.23933400  0.81290200  1
  Al  Al7  1  0.23933400  0.90654800  0.31290200  1
  Si  Si0  1  0.90599000  0.66666500  0.18547700  1
  Si  Si1  1  0.23932500  0.90599000  0.68547700  1
  Si  Si2  1  0.76067500  0.09401000  0.18547700  1
  Si  Si3  1  0.66666500  0.76067500  0.68547700  1
  Si  Si4  1  0.33333300  0.66666700  0.19713600  1
  Si  Si5  1  0.66666700  0.33333300  0.69713600  1
  Si  Si6  1  0.33333500  0.23932500  0.18547700  1
  Si  Si7  1  0.09401000  0.33333500  0.68547700  1
  O  O0  1  0.22529400  0.28402200  0.68364400  1
  O  O1  1  0.77470600  0.71597800  0.18364400  1
  O  O2  1  0.97356700  0.68534700  0.00695900  1
  O  O3  1  0.95798300  0.22208900  0.80676400  1
  O  O4  1  0.05872800  0.77470600  0.68364400  1
  O  O5  1  0.77791100  0.73589300  0.80676400  1
  O  O6  1  0.26410700  0.04201700  0.80676400  1
  O  O7  1  0.49041700  0.65129300  0.74153900  1
  O  O8  1  0.71597800  0.94127200  0.68364400  1
  O  O9  1  0.65129300  0.16087600  0.24153900  1
  O  O10  1  0.17181900  0.52395300  0.25820600  1
  O  O11  1  0.31465300  0.28822000  0.00695900  1
  O  O12  1  0.83912400  0.49041700  0.24153900  1
  O  O13  1  0.52395300  0.35213400  0.75820600  1
  O  O14  1  0.64786600  0.17181900  0.75820600  1
  O  O15  1  0.71178000  0.02643300  0.00695900  1
  O  O16  1  0.50958300  0.34870700  0.24153900  1
  O  O17  1  0.34870700  0.83912400  0.74153900  1
  O  O18  1  0.82818100  0.47604700  0.75820600  1
  O  O19  1  0.28822000  0.97356700  0.50695900  1
  O  O20  1  0.02643300  0.31465300  0.50695900  1
  O  O21  1  0.16087600  0.50958300  0.74153900  1
  O  O22  1  0.04201700  0.77791100  0.30676400  1
  O  O23  1  0.73589300  0.95798300  0.30676400  1
  O  O24  1  0.47604700  0.64786600  0.25820600  1
  O  O25  1  0.28402200  0.05872800  0.18364400  1
  O  O26  1  0.66666700  0.33333300  0.50690900  1
  O  O27  1  0.35213400  0.82818100  0.25820600  1
  O  O28  1  0.94127200  0.22529400  0.18364400  1
  O  O29  1  0.68534700  0.71178000  0.50695900  1
  O  O30  1  0.33333300  0.66666700  0.00690900  1
  O  O31  1  0.22208900  0.26410700  0.30676400  1
loop_
_geom_bond_atom_site_label_1
_geom_bond_atom_site_label_2
_geom_bond_distance
_geom_bond_site_symmetry_2
K0 O3 3.006440 1_454
K0 O5 3.006445 1_444
K0 O6 3.006449 1_554
K0 O1 3.045829 1_445
K0 O25 3.045829 1_555
K0 O28 3.045829 1_455
K0 O11 3.064986 1_555
K0 O2 3.064987 1_445
K0 O15 3.064987 1_455
K1 O22 3.006440 1_545
K1 O31 3.006445 1_555
K1 O23 3.006449 1_445
K1 O0 3.045829 1_555
K1 O8 3.045829 1_445
K1 O4 3.045829 1_545
K1 O29 3.064986 1_445
K1 O20 3.064987 1_555
K1 O19 3.064987 1_545
Na0 O0 2.557413 1_555
Na0 O29 2.582389 1_555
Na0 O16 2.586166 1_555
Na0 O13 2.620560 1_555
Na0 O31 2.675375 1_555
Na0 O7 2.837233 1_555
Na0 O24 2.860952 1_555
Na0 O26 2.900259 1_555
Na1 O4 2.557413 1_655
Na1 O20 2.582390 1_655
Na1 O12 2.586166 1_555
Na1 O18 2.620560 1_555
Na1 O22 2.675377 1_655
Na1 O21 2.837233 1_655
Na1 O10 2.860952 1_655
Na1 O26 2.900251 1_555
Na2 O25 2.557413 1_565
Na2 O15 2.582390 1_565
Na2 O17 2.586166 1_554
Na2 O27 2.620560 1_555
Na2 O6 2.675369 1_564
Na2 O9 2.837233 1_565
Na2 O14 2.860952 1_564
Na2 O30 2.900249 1_555
Na3 O28 2.557413 1_455
Na3 O2 2.582390 1_455
Na3 O21 2.586166 1_554
Na3 O10 2.620560 1_555
Na3 O3 2.675377 1_454
Na3 O12 2.837233 1_455
Na3 O18 2.860952 1_454
Na3 O30 2.900251 1_555
Na4 O1 2.557413 1_555
Na4 O11 2.582389 1_555
Na4 O7 2.586166 1_554
Na4 O24 2.620560 1_555
Na4 O5 2.675375 1_554
Na4 O16 2.837233 1_555
Na4 O13 2.860952 1_554
Na4 O30 2.900259 1_555
Na5 O8 2.557413 1_545
Na5 O19 2.582390 1_545
Na5 O9 2.586166 1_555
Na5 O14 2.620560 1_555
Na5 O23 2.675369 1_545
Na5 O17 2.837233 1_545
Na5 O27 2.860952 1_545
Na5 O26 2.900249 1_555
Al0 O24 1.750766 1_555
Al0 O23 1.759704 1_555
Al0 O1 1.761004 1_555
Al0 O29 1.762920 1_555
Al1 O14 1.750766 1_555
Al1 O3 1.759702 1_555
Al1 O8 1.761003 1_545
Al1 O15 1.762920 1_556
Al2 O26 1.736002 1_555
Al2 O9 1.756699 1_555
Al2 O12 1.756703 1_555
Al2 O16 1.756709 1_555
Al3 O30 1.736002 1_556
Al3 O17 1.756699 1_555
Al3 O21 1.756703 1_555
Al3 O7 1.756709 1_555
Al4 O10 1.750766 1_555
Al4 O31 1.759694 1_555
Al4 O28 1.761003 1_455
Al4 O20 1.762920 1_555
Al5 O18 1.750766 1_555
Al5 O5 1.759694 1_555
Al5 O4 1.761003 1_655
Al5 O2 1.762920 1_556
Al6 O13 1.750766 1_555
Al6 O6 1.759704 1_555
Al6 O0 1.761004 1_555
Al6 O11 1.762920 1_556
Al7 O27 1.750766 1_555
Al7 O22 1.759702 1_555
Al7 O25 1.761003 1_565
Al7 O19 1.762920 1_555
O0 Si7 1.639278 1_555
O1 Si0 1.639278 1_555
O2 Si0 1.640732 1_555
O3 Si7 1.639462 1_655
O4 Si1 1.639278 1_555
O5 Si3 1.639467 1_555
O6 Si1 1.639460 1_545
O7 Si3 1.633889 1_555
O8 Si3 1.639278 1_555
O9 Si2 1.633889 1_555
O10 Si4 1.636063 1_555
O11 Si6 1.640732 1_555
O12 Si0 1.633889 1_555
O13 Si5 1.636069 1_555
O14 Si5 1.636059 1_555
O15 Si2 1.640732 1_555
O16 Si6 1.633889 1_555
O17 Si1 1.633889 1_555
O18 Si5 1.636063 1_555
O19 Si1 1.640732 1_555
O20 Si7 1.640732 1_555
O21 Si7 1.633889 1_555
O22 Si0 1.639462 1_455
O23 Si2 1.639460 1_565
O24 Si4 1.636069 1_555
O25 Si6 1.639278 1_555
O26 Si5 1.621833 1_555
O27 Si4 1.636059 1_555
O28 Si2 1.639278 1_555
O29 Si3 1.640732 1_555
O30 Si4 1.621833 1_555
O31 Si6 1.639467 1_555
