# generated using pymatgen
data_Na4Sc2(PO4)3
_symmetry_space_group_name_H-M   'P 1'
_cell_length_a   8.87383145
_cell_length_b   8.87383145
_cell_length_c   8.87383209
_cell_angle_alpha   63.26192974
_cell_angle_beta   63.26192974
_cell_angle_gamma   63.26193560
_symmetry_Int_Tables_number   1
_chemical_formula_structural   Na4Sc2(PO4)3
_chemical_formula_sum   'Na8 Sc4 P6 O24'
_cell_volume   529.81243788
_cell_formula_units_Z   2
loop_
 _symmetry_equiv_pos_site_id
 _symmetry_equiv_pos_as_xyz
  1  'x, y, z'
loop_
 _atom_site_type_symbol
 _atom_site_label
 _atom_site_symmetry_multiplicity
 _atom_site_fract_x
 _atom_site_fract_y
 _atom_site_fract_z
 _atom_site_occupancy
  Na  Na0  1  0.38624300  0.11375700  0.75000000  1
  Na  Na1  1  0.88624300  0.25000000  0.61375700  1
  Na  Na2  1  0.11375700  0.75000000  0.38624300  1
  Na  Na3  1  0.75000000  0.38624300  0.11375700  1
  Na  Na4  1  0.25000000  0.61375700  0.88624300  1
  Na  Na5  1  0.00000000  0.00000000  0.00000000  1
  Na  Na6  1  0.61375700  0.88624300  0.25000000  1
  Na  Na7  1  0.50000000  0.50000000  0.50000000  1
  Sc  Sc0  1  0.65592100  0.65592100  0.65592100  1
  Sc  Sc1  1  0.15592100  0.15592100  0.15592100  1
  Sc  Sc2  1  0.84407900  0.84407900  0.84407900  1
  Sc  Sc3  1  0.34407900  0.34407900  0.34407900  1
  P  P0  1  0.05812500  0.44187500  0.75000000  1
  P  P1  1  0.55812500  0.25000000  0.94187500  1
  P  P2  1  0.94187500  0.55812500  0.25000000  1
  P  P3  1  0.75000000  0.05812500  0.44187500  1
  P  P4  1  0.25000000  0.94187500  0.55812500  1
  P  P5  1  0.44187500  0.75000000  0.05812500  1
  O  O0  1  0.58992100  0.23104600  0.42354100  1
  O  O1  1  0.42354100  0.58992100  0.23104600  1
  O  O2  1  0.29624200  0.10386300  0.52936000  1
  O  O3  1  0.26895400  0.91007900  0.07645900  1
  O  O4  1  0.39613700  0.20375800  0.97064000  1
  O  O5  1  0.07645900  0.26895400  0.91007900  1
  O  O6  1  0.02936000  0.60386300  0.79624200  1
  O  O7  1  0.92354100  0.73104600  0.08992100  1
  O  O8  1  0.97064000  0.39613700  0.20375800  1
  O  O9  1  0.73104600  0.08992100  0.92354100  1
  O  O10  1  0.57645900  0.41007900  0.76895400  1
  O  O11  1  0.20375800  0.97064000  0.39613700  1
  O  O12  1  0.10386300  0.52936000  0.29624200  1
  O  O13  1  0.23104600  0.42354100  0.58992100  1
  O  O14  1  0.89613700  0.47064000  0.70375800  1
  O  O15  1  0.47064000  0.70375800  0.89613700  1
  O  O16  1  0.60386300  0.79624200  0.02936000  1
  O  O17  1  0.08992100  0.92354100  0.73104600  1
  O  O18  1  0.41007900  0.76895400  0.57645900  1
  O  O19  1  0.91007900  0.07645900  0.26895400  1
  O  O20  1  0.76895400  0.57645900  0.41007900  1
  O  O21  1  0.70375800  0.89613700  0.47064000  1
  O  O22  1  0.79624200  0.02936000  0.60386300  1
  O  O23  1  0.52936000  0.29624200  0.10386300  1
loop_
_geom_bond_atom_site_label_1
_geom_bond_atom_site_label_2
_geom_bond_distance
_geom_bond_site_symmetry_2
Na0 O2 2.470597 1_555
Na0 O4 2.470597 1_555
Na0 O13 2.512234 1_555
Na0 O5 2.512234 1_555
Na0 O0 2.647720 1_555
Na0 O3 2.647720 1_546
Na1 O22 2.470597 1_555
Na1 O14 2.470597 1_555
Na1 O9 2.512234 1_555
Na1 O10 2.512234 1_555
Na1 O20 2.647721 1_555
Na1 O17 2.647721 1_645
Na2 O11 2.470597 1_555
Na2 O12 2.470597 1_555
Na2 O3 2.512234 1_555
Na2 O1 2.512234 1_555
Na2 O13 2.647721 1_555
Na2 O19 2.647721 1_465
Na3 O23 2.470597 1_555
Na3 O8 2.470597 1_555
Na3 O0 2.512234 1_555
Na3 O19 2.512234 1_555
Na3 O5 2.647721 1_654
Na3 O1 2.647721 1_555
Na4 O15 2.470597 1_555
Na4 O6 2.470597 1_555
Na4 O18 2.512234 1_555
Na4 O17 2.512234 1_555
Na4 O7 2.647721 1_456
Na4 O10 2.647721 1_555
Na5 O7 2.459565 1_445
Na5 O5 2.459565 1_554
Na5 O3 2.459565 1_545
Na5 O9 2.459565 1_454
Na5 O19 2.459565 1_455
Na5 O17 2.459565 1_544
Na6 O16 2.470597 1_555
Na6 O21 2.470597 1_555
Na6 O7 2.512234 1_555
Na6 O20 2.512234 1_555
Na6 O9 2.647720 1_564
Na6 O18 2.647720 1_555
Na7 O13 2.459565 1_555
Na7 O20 2.459565 1_555
Na7 O0 2.459565 1_555
Na7 O18 2.459565 1_555
Na7 O1 2.459565 1_555
Na7 O10 2.459565 1_555
O0 P3 1.555914 1_555
O0 Sc3 2.245281 1_555
O1 P5 1.555913 1_555
O1 Sc3 2.245281 1_555
O2 P4 1.551181 1_545
O2 Sc3 2.111840 1_555
O3 P5 1.555914 1_555
O3 Sc1 2.245281 1_565
O4 P1 1.551181 1_555
O4 Sc1 2.111840 1_556
O5 P0 1.555913 1_555
O5 Sc1 2.245281 1_556
O6 P0 1.551181 1_555
O6 Sc2 2.111840 1_455
O7 P2 1.555913 1_555
O7 Sc2 2.245281 1_554
O8 P2 1.551181 1_555
O8 Sc1 2.111840 1_655
O9 P1 1.555914 1_555
O9 Sc2 2.245281 1_545
O10 P1 1.555913 1_555
O10 Sc0 2.245281 1_555
O11 P4 1.551181 1_555
O11 Sc1 2.111840 1_565
O12 P2 1.551181 1_455
O12 Sc3 2.111840 1_555
O13 P0 1.555913 1_555
O13 Sc3 2.245281 1_555
O14 P0 1.551181 1_655
O14 Sc0 2.111840 1_555
O15 P5 1.551181 1_556
O15 Sc0 2.111840 1_555
O16 P5 1.551181 1_555
O16 Sc2 2.111840 1_554
O17 P4 1.555913 1_555
O17 Sc2 2.245281 1_455
O18 P4 1.555914 1_555
O18 Sc0 2.245281 1_555
O19 P3 1.555913 1_555
O19 Sc1 2.245281 1_655
O20 P2 1.555913 1_555
O20 Sc0 2.245281 1_555
O21 P3 1.551181 1_565
O21 Sc0 2.111840 1_555
O22 P3 1.551181 1_555
O22 Sc2 2.111840 1_545
O23 P1 1.551181 1_554
O23 Sc3 2.111840 1_555
