# generated using pymatgen
data_Na7SnS3(O4F)3
_symmetry_space_group_name_H-M   'P 1'
_cell_length_a   10.71789652
_cell_length_b   10.71789652
_cell_length_c   6.55077578
_cell_angle_alpha   90.00000000
_cell_angle_beta   90.00000000
_cell_angle_gamma   119.99999904
_symmetry_Int_Tables_number   1
_chemical_formula_structural   Na7SnS3(O4F)3
_chemical_formula_sum   'Na14 Sn2 S6 O24 F6'
_cell_volume   651.69215078
_cell_formula_units_Z   2
loop_
 _symmetry_equiv_pos_site_id
 _symmetry_equiv_pos_as_xyz
  1  'x, y, z'
loop_
 _atom_site_type_symbol
 _atom_site_label
 _atom_site_symmetry_multiplicity
 _atom_site_fract_x
 _atom_site_fract_y
 _atom_site_fract_z
 _atom_site_occupancy
  Na  Na0  1  0.82724788  0.65449576  0.51314210  1
  Na  Na1  1  0.46960786  0.93921571  0.72655538  1
  Na  Na2  1  0.53039214  0.46960786  0.22655538  1
  Na  Na3  1  0.82724788  0.17275212  0.51314210  1
  Na  Na4  1  0.17275212  0.34550424  0.01314210  1
  Na  Na5  1  0.06078429  0.53039214  0.72655538  1
  Na  Na6  1  0.53039214  0.06078429  0.22655538  1
  Na  Na7  1  0.93921571  0.46960786  0.22655538  1
  Na  Na8  1  0.34550424  0.17275212  0.51314210  1
  Na  Na9  1  0.00000000  -0.00000000  0.30378230  1
  Na  Na10  1  0.17275212  0.82724788  0.01314210  1
  Na  Na11  1  0.65449576  0.82724788  0.01314210  1
  Na  Na12  1  0.46960786  0.53039214  0.72655538  1
  Na  Na13  1  0.00000000  -0.00000000  0.80378230  1
  Sn  Sn0  1  0.66666700  0.33333300  0.75063130  1
  Sn  Sn1  1  0.33333300  0.66666700  0.25063130  1
  S  S0  1  0.83096376  0.16903624  0.99963197  1
  S  S1  1  0.66192852  0.83096376  0.49963197  1
  S  S2  1  0.16903624  0.33807148  0.49963197  1
  S  S3  1  0.83096376  0.66192852  0.99963197  1
  S  S4  1  0.33807148  0.16903624  0.99963197  1
  S  S5  1  0.16903624  0.83096376  0.49963197  1
  O  O0  1  0.90760587  0.81521174  0.06210223  1
  O  O1  1  0.09239413  0.18478826  0.56210223  1
  O  O2  1  0.29567311  0.36641735  0.37491585  1
  O  O3  1  0.07074424  0.36641735  0.37491585  1
  O  O4  1  0.09239413  0.90760587  0.56210223  1
  O  O5  1  0.92925576  0.63358265  0.87491585  1
  O  O6  1  0.43365799  0.21682849  0.17902783  1
  O  O7  1  0.36641735  0.29567311  0.87491585  1
  O  O8  1  0.21682849  0.43365799  0.67902783  1
  O  O9  1  0.63358265  0.92925576  0.37491585  1
  O  O10  1  0.78317151  0.56634201  0.17902783  1
  O  O11  1  0.18478826  0.09239413  0.06210223  1
  O  O12  1  0.70432689  0.07074424  0.87491585  1
  O  O13  1  0.21682849  0.78317151  0.67902783  1
  O  O14  1  0.63358265  0.70432689  0.37491585  1
  O  O15  1  0.92925576  0.29567311  0.87491585  1
  O  O16  1  0.56634201  0.78317151  0.67902783  1
  O  O17  1  0.36641735  0.07074424  0.87491585  1
  O  O18  1  0.90760587  0.09239413  0.06210223  1
  O  O19  1  0.70432689  0.63358265  0.87491585  1
  O  O20  1  0.29567311  0.92925576  0.37491585  1
  O  O21  1  0.81521174  0.90760587  0.56210223  1
  O  O22  1  0.78317151  0.21682849  0.17902783  1
  O  O23  1  0.07074424  0.70432689  0.37491585  1
  F  F0  1  0.42050683  0.84101366  0.04733826  1
  F  F1  1  0.42050683  0.57949317  0.04733826  1
  F  F2  1  0.57949317  0.15898634  0.54733826  1
  F  F3  1  0.15898634  0.57949317  0.04733826  1
  F  F4  1  0.57949317  0.42050683  0.54733826  1
  F  F5  1  0.84101366  0.42050683  0.54733826  1
loop_
_geom_bond_atom_site_label_1
_geom_bond_atom_site_label_2
_geom_bond_distance
_geom_bond_site_symmetry_2
Na0 O10 2.336655 1_555
Na0 O14 2.553862 1_555
Na0 O23 2.553862 1_655
Na0 O5 2.665904 1_555
Na0 O19 2.665904 1_555
Na0 O21 2.797998 1_555
Na0 O4 2.797998 1_655
Na1 O16 2.388094 1_555
Na1 O13 2.388102 1_555
Na1 O12 2.390428 1_565
Na1 O17 2.390428 1_565
Na2 O6 2.388104 1_555
Na2 O10 2.388104 1_555
Na2 O2 2.390428 1_555
Na2 O14 2.390428 1_555
Na3 O22 2.336652 1_555
Na3 O3 2.553862 1_655
Na3 O9 2.553862 1_545
Na3 O15 2.665904 1_555
Na3 O12 2.665904 1_555
Na3 O21 2.797998 1_545
Na3 O1 2.797998 1_655
Na4 O8 2.336655 1_554
Na4 O7 2.553862 1_554
Na4 O15 2.553862 1_454
Na4 O3 2.665904 1_555
Na4 O2 2.665904 1_555
Na4 O11 2.797998 1_555
Na4 O18 2.797998 1_455
Na5 O8 2.388094 1_555
Na5 O13 2.388102 1_555
Na5 O15 2.390428 1_455
Na5 O5 2.390428 1_455
Na6 O6 2.388094 1_555
Na6 O22 2.388102 1_555
Na6 O20 2.390428 1_545
Na6 O9 2.390428 1_545
Na7 O10 2.388094 1_555
Na7 O22 2.388102 1_555
Na7 O23 2.390428 1_655
Na7 O3 2.390428 1_655
Na8 O6 2.336655 1_555
Na8 O2 2.553862 1_555
Na8 O20 2.553862 1_545
Na8 O17 2.665904 1_555
Na8 O7 2.665904 1_555
Na8 O1 2.797998 1_555
Na8 O4 2.797998 1_545
Na9 O18 2.334182 1_455
Na9 O11 2.334182 1_555
Na9 O0 2.334182 1_445
Na9 O4 2.409447 1_545
Na9 O1 2.409447 1_555
Na9 O21 2.409447 1_445
Na10 O13 2.336652 1_554
Na10 O17 2.553862 1_564
Na10 O5 2.553862 1_454
Na10 O20 2.665904 1_555
Na10 O23 2.665904 1_555
Na10 O11 2.797998 1_565
Na10 O0 2.797998 1_455
Na11 O16 2.336655 1_554
Na11 O19 2.553862 1_554
Na11 O12 2.553862 1_564
Na11 O9 2.665904 1_555
Na11 O14 2.665904 1_555
Na11 O0 2.797998 1_555
Na11 O18 2.797998 1_565
Na12 O8 2.388104 1_555
Na12 O16 2.388104 1_555
Na12 O7 2.390428 1_555
Na12 O19 2.390428 1_555
Na13 O4 2.334182 1_545
Na13 O1 2.334182 1_555
Na13 O21 2.334182 1_445
Na13 O18 2.409447 1_456
Na13 O0 2.409447 1_446
Na13 O11 2.409447 1_556
O0 S3 1.480454 1_554
O1 S2 1.480454 1_555
O2 S2 1.479739 1_555
O3 S2 1.479747 1_555
O4 S5 1.480463 1_555
O5 S3 1.479747 1_555
O6 S4 1.472492 1_554
O7 S4 1.479739 1_555
O8 S2 1.472492 1_555
O9 S1 1.479747 1_555
O10 S3 1.472492 1_554
O11 S4 1.480454 1_554
O12 S0 1.479741 1_555
O13 S5 1.472481 1_555
O14 S1 1.479739 1_555
O15 S0 1.479741 1_555
O16 S1 1.472492 1_555
O17 S4 1.479747 1_555
O18 S0 1.480463 1_554
O19 S3 1.479739 1_555
O20 S5 1.479741 1_555
O21 S1 1.480454 1_555
O22 S0 1.472481 1_554
O23 S5 1.479741 1_555
F0 Sn1 2.095788 1_555
F0 Na1 2.290553 1_554
F0 Na6 2.353617 1_565
F0 Na11 2.594488 1_555
F0 Na10 2.594488 1_555
F1 Sn1 2.095796 1_555
F1 Na12 2.290553 1_554
F1 Na2 2.353617 1_555
F1 Na4 2.594488 1_555
F1 Na11 2.594488 1_555
F2 Sn0 2.095788 1_555
F2 Na6 2.290553 1_555
F2 Na1 2.353617 1_545
F2 Na8 2.594488 1_555
F2 Na3 2.594488 1_555
F3 Sn1 2.095788 1_555
F3 Na5 2.290553 1_554
F3 Na7 2.353617 1_455
F3 Na4 2.594488 1_555
F3 Na10 2.594488 1_555
F4 Sn0 2.095796 1_555
F4 Na2 2.290553 1_555
F4 Na12 2.353617 1_555
F4 Na8 2.594488 1_555
F4 Na0 2.594488 1_555
F5 Sn0 2.095788 1_555
F5 Na7 2.290553 1_555
F5 Na5 2.353617 1_655
F5 Na0 2.594488 1_555
F5 Na3 2.594488 1_555
