# generated using pymatgen
data_Th6Mg23
_symmetry_space_group_name_H-M   'P 1'
_cell_length_a   10.09600124
_cell_length_b   10.09600131
_cell_length_c   10.09600138
_cell_angle_alpha   59.99982276
_cell_angle_beta   59.99982465
_cell_angle_gamma   59.99981903
_symmetry_Int_Tables_number   1
_chemical_formula_structural   Th6Mg23
_chemical_formula_sum   'Th6 Mg23'
_cell_volume   727.66493224
_cell_formula_units_Z   1
loop_
 _symmetry_equiv_pos_site_id
 _symmetry_equiv_pos_as_xyz
  1  'x, y, z'
loop_
 _atom_site_type_symbol
 _atom_site_label
 _atom_site_symmetry_multiplicity
 _atom_site_fract_x
 _atom_site_fract_y
 _atom_site_fract_z
 _atom_site_occupancy
  Th  Th0  1  0.81456430  0.18543570  0.81456430  1
  Th  Th1  1  0.81456430  0.81456430  0.18543570  1
  Th  Th2  1  0.81456430  0.18543570  0.18543570  1
  Th  Th3  1  0.18543570  0.18543570  0.81456430  1
  Th  Th4  1  0.18543570  0.81456430  0.81456430  1
  Th  Th5  1  0.18543570  0.81456430  0.18543570  1
  Mg  Mg0  1  0.38016899  0.85949304  0.38016899  1
  Mg  Mg1  1  0.82956198  0.82956198  0.82956198  1
  Mg  Mg2  1  0.00000000  0.00000000  0.50000000  1
  Mg  Mg3  1  0.50000000  0.50000000  0.50000000  1
  Mg  Mg4  1  0.17043802  0.48868595  0.17043802  1
  Mg  Mg5  1  0.17043802  0.17043802  0.48868595  1
  Mg  Mg6  1  0.82956198  0.82956198  0.51131405  1
  Mg  Mg7  1  0.38016899  0.38016899  0.85949304  1
  Mg  Mg8  1  0.61983101  0.61983101  0.61983101  1
  Mg  Mg9  1  0.50000000  0.00000000  -0.00000000  1
  Mg  Mg10  1  0.85949304  0.38016899  0.38016899  1
  Mg  Mg11  1  0.14050696  0.61983101  0.61983101  1
  Mg  Mg12  1  0.17043802  0.17043802  0.17043802  1
  Mg  Mg13  1  0.82956198  0.51131405  0.82956198  1
  Mg  Mg14  1  0.51131405  0.82956198  0.82956198  1
  Mg  Mg15  1  0.50000000  0.00000000  0.50000000  1
  Mg  Mg16  1  0.38016899  0.38016899  0.38016899  1
  Mg  Mg17  1  0.61983101  0.14050696  0.61983101  1
  Mg  Mg18  1  0.61983101  0.61983101  0.14050696  1
  Mg  Mg19  1  0.50000000  0.50000000  -0.00000000  1
  Mg  Mg20  1  0.48868595  0.17043802  0.17043802  1
  Mg  Mg21  1  0.00000000  0.50000000  -0.00000000  1
  Mg  Mg22  1  0.00000000  0.50000000  0.50000000  1
loop_
_geom_bond_atom_site_label_1
_geom_bond_atom_site_label_2
_geom_bond_distance
_geom_bond_site_symmetry_2
Th0 Th4 3.744308 1_645
Th0 Th1 3.744308 1_546
Th0 Th3 3.744318 1_655
Th0 Th2 3.744318 1_556
Th1 Th4 3.744308 1_654
Th1 Th5 3.744318 1_655
Th1 Th2 3.744318 1_565
Th2 Th5 3.744308 1_645
Th2 Th3 3.744308 1_654
Th3 Th5 3.744308 1_546
Th3 Th4 3.744318 1_545
Th4 Th5 3.744318 1_556
Mg0 Mg3 2.963420 1_555
Mg0 Mg2 3.136176 1_565
Mg0 Mg9 3.136176 1_565
Mg0 Mg15 3.136187 1_565
Mg0 Mg12 3.164061 1_565
Mg0 Mg5 3.164064 1_565
Mg0 Mg20 3.164064 1_565
Mg0 Mg8 3.421866 1_555
Mg0 Mg18 3.421866 1_555
Mg0 Mg11 3.421867 1_555
Mg0 Th1 3.685794 1_555
Mg0 Th4 3.685794 1_555
Mg0 Th5 3.685805 1_555
Mg1 Mg21 2.915949 1_656
Mg1 Mg9 2.915949 1_566
Mg1 Mg2 2.915949 1_665
Mg1 Mg17 3.164061 1_565
Mg1 Mg11 3.164061 1_655
Mg1 Mg18 3.164061 1_556
Mg1 Mg14 3.213031 1_555
Mg1 Mg13 3.213032 1_555
Mg1 Mg6 3.213032 1_555
Mg1 Th4 3.448140 1_655
Mg1 Th0 3.448140 1_565
Mg1 Th1 3.448140 1_556
Mg2 Mg5 2.915959 1_555
Mg2 Mg6 2.915959 1_445
Mg2 Th2 3.686588 1_455
Mg2 Th4 3.686588 1_545
Mg2 Th5 3.686588 1_545
Mg2 Th0 3.686588 1_455
Mg3 Mg7 2.963421 1_555
Mg3 Mg8 2.963431 1_555
Mg4 Mg7 3.164064 1_554
Mg4 Mg5 3.213023 1_555
Mg4 Th1 3.448131 1_455
Mg4 Th4 3.448131 1_554
Mg4 Th5 3.448141 1_555
Mg5 Th4 3.448131 1_545
Mg5 Th0 3.448131 1_455
Mg5 Th3 3.448141 1_555
Mg6 Mg8 3.164069 1_555
Mg6 Th2 3.448131 1_565
Mg6 Th5 3.448131 1_655
Mg6 Th1 3.448141 1_555
Mg7 Mg9 3.136176 1_556
Mg7 Mg8 3.421866 1_555
Mg7 Th0 3.685794 1_555
Mg7 Th4 3.685794 1_555
Mg7 Th3 3.685805 1_555
Mg8 Th0 3.685791 1_555
Mg8 Th4 3.685791 1_555
Mg8 Th1 3.685791 1_555
Mg9 Th3 3.686588 1_554
Mg9 Th1 3.686588 1_545
Mg9 Th0 3.686588 1_554
Mg9 Th5 3.686588 1_545
Mg10 Mg3 2.963420 1_555
Mg10 Mg2 3.136176 1_655
Mg10 Mg21 3.136176 1_655
Mg10 Mg22 3.136187 1_655
Mg10 Mg12 3.164061 1_655
Mg10 Mg5 3.164064 1_655
Mg10 Mg4 3.164064 1_655
Mg10 Mg8 3.421866 1_555
Mg10 Mg18 3.421866 1_555
Mg10 Mg17 3.421867 1_555
Mg10 Th1 3.685794 1_555
Mg10 Th0 3.685794 1_555
Mg10 Th2 3.685805 1_555
Mg11 Mg3 2.963420 1_555
Mg11 Mg2 3.136176 1_565
Mg11 Mg21 3.136176 1_556
Mg11 Mg22 3.136187 1_555
Mg11 Mg6 3.164064 1_455
Mg11 Mg13 3.164064 1_455
Mg11 Mg16 3.421866 1_555
Mg11 Mg7 3.421866 1_555
Mg11 Th3 3.685794 1_555
Mg11 Th5 3.685794 1_555
Mg11 Th4 3.685805 1_555
Mg12 Mg21 2.915949 1_555
Mg12 Mg9 2.915949 1_555
Mg12 Mg2 2.915949 1_555
Mg12 Mg7 3.164061 1_554
Mg12 Mg20 3.213031 1_555
Mg12 Mg4 3.213032 1_555
Mg12 Mg5 3.213032 1_555
Mg12 Th2 3.448140 1_455
Mg12 Th5 3.448140 1_545
Mg12 Th3 3.448140 1_554
Mg13 Mg19 2.915951 1_556
Mg13 Mg22 2.915951 1_655
Mg13 Mg21 2.915959 1_656
Mg13 Mg18 3.164064 1_556
Mg13 Mg8 3.164068 1_555
Mg13 Mg14 3.213023 1_555
Mg13 Mg6 3.213023 1_555
Mg13 Th3 3.448131 1_655
Mg13 Th2 3.448131 1_556
Mg13 Th0 3.448141 1_555
Mg14 Mg19 2.915951 1_556
Mg14 Mg15 2.915951 1_565
Mg14 Mg9 2.915959 1_566
Mg14 Mg18 3.164064 1_556
Mg14 Mg17 3.164064 1_565
Mg14 Mg8 3.164069 1_555
Mg14 Mg6 3.213023 1_555
Mg14 Th3 3.448131 1_565
Mg14 Th5 3.448131 1_556
Mg14 Th4 3.448141 1_555
Mg15 Mg5 2.915951 1_555
Mg15 Mg6 2.915951 1_545
Mg15 Mg20 2.915951 1_555
Mg15 Mg16 3.136176 1_555
Mg15 Mg8 3.136176 1_545
Mg15 Mg17 3.136187 1_555
Mg15 Th1 3.686583 1_545
Mg15 Th3 3.686583 1_555
Mg15 Th4 3.686583 1_545
Mg15 Th2 3.686583 1_555
Mg16 Mg3 2.963431 1_555
Mg16 Mg22 3.136176 1_555
Mg16 Mg19 3.136176 1_555
Mg16 Mg4 3.164068 1_555
Mg16 Mg20 3.164069 1_555
Mg16 Mg5 3.164069 1_555
Mg16 Mg17 3.421866 1_555
Mg16 Mg18 3.421866 1_555
Mg16 Th5 3.685791 1_555
Mg16 Th2 3.685791 1_555
Mg16 Th3 3.685791 1_555
Mg17 Mg3 2.963420 1_555
Mg17 Mg2 3.136176 1_655
Mg17 Mg9 3.136176 1_556
Mg17 Mg6 3.164064 1_545
Mg17 Mg7 3.421866 1_555
Mg17 Th3 3.685794 1_555
Mg17 Th2 3.685794 1_555
Mg17 Th0 3.685805 1_555
Mg18 Mg3 2.963421 1_555
Mg18 Mg9 3.136176 1_565
Mg18 Mg21 3.136176 1_655
Mg18 Mg19 3.136187 1_555
Mg18 Th5 3.685794 1_555
Mg18 Th2 3.685794 1_555
Mg18 Th1 3.685805 1_555
Mg19 Mg20 2.915951 1_555
Mg19 Mg4 2.915951 1_555
Mg19 Mg8 3.136176 1_554
Mg19 Mg7 3.136187 1_554
Mg19 Th4 3.686583 1_554
Mg19 Th2 3.686583 1_555
Mg19 Th0 3.686583 1_554
Mg19 Th5 3.686583 1_555
Mg20 Mg9 2.915959 1_555
Mg20 Mg7 3.164064 1_554
Mg20 Mg4 3.213023 1_555
Mg20 Mg5 3.213023 1_555
Mg20 Th1 3.448131 1_545
Mg20 Th0 3.448131 1_554
Mg20 Th2 3.448141 1_555
Mg21 Mg4 2.915959 1_555
Mg21 Mg7 3.136176 1_554
Mg21 Th3 3.686588 1_554
Mg21 Th1 3.686588 1_455
Mg21 Th4 3.686588 1_554
Mg21 Th2 3.686588 1_455
Mg22 Mg6 2.915951 1_455
Mg22 Mg5 2.915951 1_555
Mg22 Mg4 2.915951 1_555
Mg22 Mg8 3.136176 1_455
Mg22 Th1 3.686583 1_455
Mg22 Th3 3.686583 1_555
Mg22 Th5 3.686583 1_555
Mg22 Th0 3.686583 1_455
