# generated using pymatgen
data_K3NaRe2O9
_symmetry_space_group_name_H-M   'P 1'
_cell_length_a   6.12574630
_cell_length_b   6.12574630
_cell_length_c   14.55116300
_cell_angle_alpha   90.00000000
_cell_angle_beta   90.00000000
_cell_angle_gamma   120.00000324
_symmetry_Int_Tables_number   1
_chemical_formula_structural   K3NaRe2O9
_chemical_formula_sum   'K6 Na2 Re4 O18'
_cell_volume   472.87498003
_cell_formula_units_Z   2
loop_
 _symmetry_equiv_pos_site_id
 _symmetry_equiv_pos_as_xyz
  1  'x, y, z'
loop_
 _atom_site_type_symbol
 _atom_site_label
 _atom_site_symmetry_multiplicity
 _atom_site_fract_x
 _atom_site_fract_y
 _atom_site_fract_z
 _atom_site_occupancy
  K  K0  1  0.00000000  0.00000000  0.25000000  1
  K  K1  1  0.00000000  0.00000000  0.75000000  1
  K  K2  1  0.33333300  0.66666700  0.11646000  1
  K  K3  1  0.66666700  0.33333300  0.61646000  1
  K  K4  1  0.66666700  0.33333300  0.88354000  1
  K  K5  1  0.33333300  0.66666700  0.38354000  1
  Na  Na0  1  0.00000000  0.00000000  0.00000000  1
  Na  Na1  1  0.00000000  0.00000000  0.50000000  1
  Re  Re0  1  0.33333300  0.66666700  0.85085400  1
  Re  Re1  1  0.66666700  0.33333300  0.35085400  1
  Re  Re2  1  0.66666700  0.33333300  0.14914600  1
  Re  Re3  1  0.33333300  0.66666700  0.64914600  1
  O  O0  1  0.53078400  0.06156700  0.25000000  1
  O  O1  1  0.46921600  0.53078400  0.75000000  1
  O  O2  1  0.06156700  0.53078400  0.75000000  1
  O  O3  1  0.93843300  0.46921600  0.25000000  1
  O  O4  1  0.53078400  0.46921600  0.25000000  1
  O  O5  1  0.46921600  0.93843300  0.75000000  1
  O  O6  1  0.36582300  0.18291100  0.09357300  1
  O  O7  1  0.18291100  0.36582300  0.59357300  1
  O  O8  1  0.18291100  0.81708900  0.59357300  1
  O  O9  1  0.81708900  0.18291100  0.09357300  1
  O  O10  1  0.81708900  0.63417700  0.09357300  1
  O  O11  1  0.18291100  0.81708900  0.90642700  1
  O  O12  1  0.63417700  0.81708900  0.90642700  1
  O  O13  1  0.63417700  0.81708900  0.59357300  1
  O  O14  1  0.18291100  0.36582300  0.90642700  1
  O  O15  1  0.81708900  0.63417700  0.40642700  1
  O  O16  1  0.81708900  0.18291100  0.40642700  1
  O  O17  1  0.36582300  0.18291100  0.40642700  1
loop_
_geom_bond_atom_site_label_1
_geom_bond_atom_site_label_2
_geom_bond_distance
_geom_bond_site_symmetry_2
K0 O9 2.991220 1_455
K0 O16 2.991220 1_455
K0 O6 2.991223 1_555
K0 O10 2.991223 1_445
K0 O15 2.991223 1_445
K0 O17 2.991223 1_555
K0 O0 3.080236 1_455
K0 O3 3.080236 1_455
K0 O4 3.080239 1_445
K0 O4 3.080239 1_555
K0 O3 3.080242 1_445
K0 O0 3.080242 1_555
K1 O11 2.991220 1_545
K1 O8 2.991220 1_545
K1 O14 2.991223 1_555
K1 O7 2.991223 1_555
K1 O13 2.991223 1_445
K1 O12 2.991223 1_445
K1 O2 3.080236 1_545
K1 O5 3.080236 1_545
K1 O1 3.080239 1_445
K1 O1 3.080239 1_555
K1 O5 3.080242 1_445
K1 O2 3.080242 1_555
K2 O3 2.857404 1_455
K2 O0 2.857404 1_565
K2 O4 2.857412 1_555
K2 O10 3.085737 1_455
K2 O6 3.085737 1_565
K2 O9 3.085742 1_455
K2 O9 3.085742 1_565
K2 O10 3.085749 1_555
K2 O6 3.085749 1_555
K3 O2 2.857404 1_655
K3 O5 2.857404 1_545
K3 O1 2.857412 1_555
K3 O7 3.085737 1_655
K3 O13 3.085737 1_545
K3 O8 3.085742 1_655
K3 O8 3.085742 1_545
K3 O13 3.085749 1_555
K3 O7 3.085749 1_555
K4 O5 2.857404 1_545
K4 O2 2.857404 1_655
K4 O1 2.857412 1_555
K4 O12 3.085737 1_545
K4 O14 3.085737 1_655
K4 O11 3.085742 1_655
K4 O11 3.085742 1_545
K4 O12 3.085749 1_555
K4 O14 3.085749 1_555
K5 O3 2.857404 1_455
K5 O0 2.857404 1_565
K5 O4 2.857412 1_555
K5 O15 3.085737 1_455
K5 O17 3.085737 1_565
K5 O16 3.085742 1_455
K5 O16 3.085742 1_565
K5 O15 3.085749 1_555
K5 O17 3.085749 1_555
Na0 O9 2.370713 1_455
Na0 O11 2.370713 1_544
Na0 O12 2.370717 1_444
Na0 O14 2.370717 1_554
Na0 O6 2.370717 1_555
Na0 O10 2.370717 1_445
Na1 O16 2.370713 1_455
Na1 O8 2.370713 1_545
Na1 O15 2.370717 1_445
Na1 O17 2.370717 1_555
Na1 O7 2.370717 1_555
Na1 O13 2.370717 1_445
O0 Re1 2.057250 1_555
O0 Re2 2.057250 1_555
O1 Re3 2.057250 1_555
O1 Re0 2.057250 1_555
O2 Re0 2.057250 1_555
O2 Re3 2.057250 1_555
O3 Re2 2.057250 1_555
O3 Re1 2.057250 1_555
O4 Re1 2.057250 1_555
O4 Re2 2.057250 1_555
O5 Re0 2.057250 1_555
O5 Re3 2.057250 1_555
O6 Re2 1.789165 1_555
O7 Re3 1.789165 1_555
O8 Re3 1.789165 1_555
O9 Re2 1.789165 1_555
O10 Re2 1.789165 1_555
O11 Re0 1.789165 1_555
O12 Re0 1.789165 1_555
O13 Re3 1.789165 1_555
O14 Re0 1.789165 1_555
O15 Re1 1.789165 1_555
O16 Re1 1.789165 1_555
O17 Re1 1.789165 1_555
