# generated using pymatgen
data_Hg6BiAs4Cl7
_symmetry_space_group_name_H-M   'P 1'
_cell_length_a   12.31112808
_cell_length_b   12.31112808
_cell_length_c   12.31112808
_cell_angle_alpha   90.00000000
_cell_angle_beta   90.00000000
_cell_angle_gamma   90.00000000
_symmetry_Int_Tables_number   1
_chemical_formula_structural   Hg6BiAs4Cl7
_chemical_formula_sum   'Hg24 Bi4 As16 Cl28'
_cell_volume   1865.92227253
_cell_formula_units_Z   4
loop_
 _symmetry_equiv_pos_site_id
 _symmetry_equiv_pos_as_xyz
  1  'x, y, z'
loop_
 _atom_site_type_symbol
 _atom_site_label
 _atom_site_symmetry_multiplicity
 _atom_site_fract_x
 _atom_site_fract_y
 _atom_site_fract_z
 _atom_site_occupancy
  Hg  Hg0  1  0.80463666  0.04703519  0.81435390  1
  Hg  Hg1  1  0.95296481  0.31435390  0.69536334  1
  Hg  Hg2  1  0.19536334  0.54703519  0.68564610  1
  Hg  Hg3  1  0.30463666  0.04703519  0.68564610  1
  Hg  Hg4  1  0.95296481  0.18564610  0.19536334  1
  Hg  Hg5  1  0.45296481  0.18564610  0.30463666  1
  Hg  Hg6  1  0.30463666  0.45296481  0.18564610  1
  Hg  Hg7  1  0.18564610  0.19536334  0.95296481  1
  Hg  Hg8  1  0.18564610  0.30463666  0.45296481  1
  Hg  Hg9  1  0.31435390  0.80463666  0.45296481  1
  Hg  Hg10  1  0.04703519  0.68564610  0.30463666  1
  Hg  Hg11  1  0.68564610  0.30463666  0.04703519  1
  Hg  Hg12  1  0.45296481  0.31435390  0.80463666  1
  Hg  Hg13  1  0.68564610  0.19536334  0.54703519  1
  Hg  Hg14  1  0.31435390  0.69536334  0.95296481  1
  Hg  Hg15  1  0.69536334  0.54703519  0.81435390  1
  Hg  Hg16  1  0.81435390  0.80463666  0.04703519  1
  Hg  Hg17  1  0.54703519  0.81435390  0.69536334  1
  Hg  Hg18  1  0.19536334  0.95296481  0.18564610  1
  Hg  Hg19  1  0.80463666  0.45296481  0.31435390  1
  Hg  Hg20  1  0.04703519  0.81435390  0.80463666  1
  Hg  Hg21  1  0.54703519  0.68564610  0.19536334  1
  Hg  Hg22  1  0.81435390  0.69536334  0.54703519  1
  Hg  Hg23  1  0.69536334  0.95296481  0.31435390  1
  Bi  Bi0  1  0.00000000  0.00000000  0.50000000  1
  Bi  Bi1  1  0.50000000  0.00000000  0.00000000  1
  Bi  Bi2  1  0.50000000  0.50000000  0.50000000  1
  Bi  Bi3  1  0.00000000  0.50000000  0.00000000  1
  As  As0  1  0.23289375  0.76710625  0.26710625  1
  As  As1  1  0.15177418  0.34822582  0.65177418  1
  As  As2  1  0.65177418  0.34822582  0.84822582  1
  As  As3  1  0.73289375  0.73289375  0.73289375  1
  As  As4  1  0.84822582  0.65177418  0.34822582  1
  As  As5  1  0.34822582  0.84822582  0.65177418  1
  As  As6  1  0.84822582  0.84822582  0.84822582  1
  As  As7  1  0.73289375  0.76710625  0.23289375  1
  As  As8  1  0.26710625  0.26710625  0.26710625  1
  As  As9  1  0.26710625  0.23289375  0.76710625  1
  As  As10  1  0.34822582  0.65177418  0.15177418  1
  As  As11  1  0.23289375  0.73289375  0.76710625  1
  As  As12  1  0.76710625  0.23289375  0.73289375  1
  As  As13  1  0.65177418  0.15177418  0.34822582  1
  As  As14  1  0.76710625  0.26710625  0.23289375  1
  As  As15  1  0.15177418  0.15177418  0.15177418  1
  Cl  Cl0  1  0.95584375  0.94948378  0.29003739  1
  Cl  Cl1  1  0.79003739  0.95584375  0.55051622  1
  Cl  Cl2  1  0.55051622  0.70996261  0.45584375  1
  Cl  Cl3  1  0.44948378  0.20996261  0.04415625  1
  Cl  Cl4  1  0.55051622  0.79003739  0.95584375  1
  Cl  Cl5  1  0.95584375  0.55051622  0.79003739  1
  Cl  Cl6  1  0.04415625  0.05051622  0.70996261  1
  Cl  Cl7  1  0.70996261  0.45584375  0.55051622  1
  Cl  Cl8  1  0.04415625  0.44948378  0.20996261  1
  Cl  Cl9  1  0.29003739  0.95584375  0.94948378  1
  Cl  Cl10  1  0.54415625  0.05051622  0.79003739  1
  Cl  Cl11  1  0.05051622  0.70996261  0.04415625  1
  Cl  Cl12  1  0.50000000  0.00000000  0.50000000  1
  Cl  Cl13  1  0.45584375  0.55051622  0.70996261  1
  Cl  Cl14  1  0.00000000  0.50000000  0.50000000  1
  Cl  Cl15  1  0.05051622  0.79003739  0.54415625  1
  Cl  Cl16  1  0.20996261  0.04415625  0.44948378  1
  Cl  Cl17  1  0.54415625  0.44948378  0.29003739  1
  Cl  Cl18  1  0.94948378  0.29003739  0.95584375  1
  Cl  Cl19  1  0.45584375  0.94948378  0.20996261  1
  Cl  Cl20  1  0.79003739  0.54415625  0.05051622  1
  Cl  Cl21  1  0.44948378  0.29003739  0.54415625  1
  Cl  Cl22  1  0.94948378  0.20996261  0.45584375  1
  Cl  Cl23  1  0.50000000  0.50000000  0.00000000  1
  Cl  Cl24  1  0.29003739  0.54415625  0.44948378  1
  Cl  Cl25  1  0.00000000  0.00000000  0.00000000  1
  Cl  Cl26  1  0.20996261  0.45584375  0.94948378  1
  Cl  Cl27  1  0.70996261  0.04415625  0.05051622  1
loop_
_geom_bond_atom_site_label_1
_geom_bond_atom_site_label_2
_geom_bond_distance
_geom_bond_site_symmetry_2
Bi0 Cl22 2.713646 1_455
Bi0 Cl0 2.713646 1_445
Bi0 Cl16 2.713646 1_555
Bi0 Cl6 2.713646 1_555
Bi0 Cl1 2.713646 1_445
Bi0 Cl15 2.713646 1_545
Bi1 Cl9 2.713646 1_544
Bi1 Cl3 2.713646 1_555
Bi1 Cl19 2.713646 1_545
Bi1 Cl4 2.713646 1_544
Bi1 Cl10 2.713646 1_554
Bi1 Cl27 2.713646 1_555
Bi2 Cl17 2.713646 1_555
Bi2 Cl24 2.713646 1_555
Bi2 Cl21 2.713646 1_555
Bi2 Cl13 2.713646 1_555
Bi2 Cl7 2.713646 1_555
Bi2 Cl2 2.713646 1_555
Bi3 Cl18 2.713646 1_454
Bi3 Cl8 2.713646 1_555
Bi3 Cl26 2.713646 1_554
Bi3 Cl20 2.713646 1_455
Bi3 Cl5 2.713646 1_454
Bi3 Cl11 2.713646 1_555
As0 As10 2.459283 1_555
As0 Hg10 2.540621 1_555
As0 Hg18 2.540621 1_555
As0 Hg9 2.540621 1_555
As1 As9 2.459283 1_555
As1 Hg8 2.540168 1_555
As1 Hg2 2.540168 1_555
As1 Hg1 2.540168 1_455
As2 Hg11 2.540168 1_556
As2 Hg12 2.540168 1_555
As2 Hg15 2.540168 1_555
As3 As6 2.459283 1_555
As3 Hg15 2.540621 1_555
As3 Hg22 2.540621 1_555
As3 Hg17 2.540621 1_555
As4 As7 2.459283 1_555
As4 Hg10 2.540168 1_655
As4 Hg22 2.540168 1_555
As4 Hg19 2.540168 1_555
As5 Hg3 2.540168 1_565
As5 Hg17 2.540168 1_555
As5 Hg9 2.540168 1_555
As6 Hg16 2.540168 1_556
As6 Hg0 2.540168 1_565
As6 Hg20 2.540168 1_655
As7 Hg21 2.540621 1_555
As7 Hg16 2.540621 1_555
As7 Hg23 2.540621 1_555
As8 Hg8 2.540621 1_555
As8 Hg6 2.540621 1_555
As8 Hg5 2.540621 1_555
As9 Hg3 2.540621 1_555
As9 Hg7 2.540621 1_555
As9 Hg12 2.540621 1_555
As10 Hg21 2.540168 1_555
As10 Hg6 2.540168 1_555
As10 Hg14 2.540168 1_554
As11 As5 2.459283 1_555
As11 Hg2 2.540621 1_555
As11 Hg20 2.540621 1_555
As11 Hg14 2.540621 1_555
As12 As2 2.459283 1_555
As12 Hg13 2.540621 1_555
As12 Hg0 2.540621 1_555
As12 Hg1 2.540621 1_555
As13 As14 2.459283 1_555
As13 Hg13 2.540168 1_555
As13 Hg5 2.540168 1_555
As13 Hg23 2.540168 1_545
As14 Hg11 2.540621 1_555
As14 Hg4 2.540621 1_555
As14 Hg19 2.540621 1_555
As15 As8 2.459283 1_555
As15 Hg4 2.540168 1_455
As15 Hg7 2.540168 1_554
As15 Hg18 2.540168 1_545
