# generated using pymatgen
data_Nd4Sb3
_symmetry_space_group_name_H-M   'P 1'
_cell_length_a   8.24091983
_cell_length_b   8.24091861
_cell_length_c   8.24091918
_cell_angle_alpha   109.47121951
_cell_angle_beta   109.47121647
_cell_angle_gamma   109.47122773
_symmetry_Int_Tables_number   1
_chemical_formula_structural   Nd4Sb3
_chemical_formula_sum   'Nd8 Sb6'
_cell_volume   430.82913847
_cell_formula_units_Z   2
loop_
 _symmetry_equiv_pos_site_id
 _symmetry_equiv_pos_as_xyz
  1  'x, y, z'
loop_
 _atom_site_type_symbol
 _atom_site_label
 _atom_site_symmetry_multiplicity
 _atom_site_fract_x
 _atom_site_fract_y
 _atom_site_fract_z
 _atom_site_occupancy
  Nd  Nd0  1  0.35948036  0.50000000  -0.00000000  1
  Nd  Nd1  1  0.64051964  0.64051964  0.64051964  1
  Nd  Nd2  1  0.50000000  -0.00000000  0.35948036  1
  Nd  Nd3  1  0.00000000  0.35948036  0.50000000  1
  Nd  Nd4  1  0.50000000  -0.00000000  0.85948036  1
  Nd  Nd5  1  0.00000000  0.85948036  0.50000000  1
  Nd  Nd6  1  0.85948036  0.50000000  -0.00000000  1
  Nd  Nd7  1  0.14051964  0.14051964  0.14051964  1
  Sb  Sb0  1  0.75000000  0.87500000  0.12500000  1
  Sb  Sb1  1  0.62500000  0.37500000  0.25000000  1
  Sb  Sb2  1  0.87500000  0.12500000  0.75000000  1
  Sb  Sb3  1  0.12500000  0.75000000  0.87500000  1
  Sb  Sb4  1  0.37500000  0.25000000  0.62500000  1
  Sb  Sb5  1  0.25000000  0.62500000  0.37500000  1
loop_
_geom_bond_atom_site_label_1
_geom_bond_atom_site_label_2
_geom_bond_distance
_geom_bond_site_symmetry_2
Nd0 Sb0 3.163186 1_555
Nd0 Sb4 3.163186 1_554
Nd0 Sb1 3.163186 1_555
Nd0 Sb2 3.432414 1_454
Nd0 Sb5 3.432414 1_555
Nd0 Sb3 3.432414 1_554
Nd1 Sb4 3.163186 1_555
Nd1 Sb1 3.163186 1_555
Nd1 Sb5 3.163186 1_555
Nd1 Sb2 3.432413 1_565
Nd1 Sb0 3.432414 1_556
Nd1 Sb3 3.432414 1_655
Nd2 Sb5 3.163186 1_545
Nd2 Sb4 3.163186 1_555
Nd2 Sb2 3.163186 1_555
Nd2 Sb1 3.432413 1_555
Nd2 Sb0 3.432414 1_545
Nd2 Sb3 3.432414 1_544
Nd3 Sb5 3.163186 1_555
Nd3 Sb3 3.163186 1_555
Nd3 Sb1 3.163186 1_455
Nd3 Sb0 3.432413 1_445
Nd3 Sb2 3.432413 1_455
Nd3 Sb4 3.432414 1_555
Nd4 Sb1 3.163186 1_556
Nd4 Sb3 3.163186 1_545
Nd4 Sb0 3.163186 1_546
Nd4 Sb5 3.432414 1_545
Nd4 Sb4 3.432414 1_555
Nd4 Sb2 3.432414 1_555
Nd5 Sb4 3.163186 1_565
Nd5 Sb2 3.163186 1_465
Nd5 Sb0 3.163186 1_455
Nd5 Sb1 3.432413 1_455
Nd5 Sb3 3.432414 1_555
Nd5 Sb5 3.432414 1_555
Nd6 Sb3 3.163186 1_654
Nd6 Sb2 3.163186 1_554
Nd6 Sb5 3.163186 1_655
Nd6 Sb1 3.432414 1_555
Nd6 Sb0 3.432414 1_555
Nd6 Sb4 3.432414 1_554
Nd7 Sb3 3.163186 1_544
Nd7 Sb0 3.163186 1_445
Nd7 Sb2 3.163186 1_454
Nd7 Sb5 3.432413 1_555
Nd7 Sb1 3.432414 1_555
Nd7 Sb4 3.432414 1_555
