# generated using pymatgen
data_Tb2Fe17
_symmetry_space_group_name_H-M   'P 1'
_cell_length_a   6.42626841
_cell_length_b   6.42643496
_cell_length_c   6.42645555
_cell_angle_alpha   83.39251308
_cell_angle_beta   83.39238385
_cell_angle_gamma   83.39254415
_symmetry_Int_Tables_number   1
_chemical_formula_structural   Tb2Fe17
_chemical_formula_sum   'Tb2 Fe17'
_cell_volume   260.48757677
_cell_formula_units_Z   1
loop_
 _symmetry_equiv_pos_site_id
 _symmetry_equiv_pos_as_xyz
  1  'x, y, z'
loop_
 _atom_site_type_symbol
 _atom_site_label
 _atom_site_symmetry_multiplicity
 _atom_site_fract_x
 _atom_site_fract_y
 _atom_site_fract_z
 _atom_site_occupancy
  Tb  Tb0  1  0.66060490  0.66058720  0.66057426  1
  Tb  Tb1  1  0.33938521  0.33943027  0.33942025  1
  Fe  Fe0  1  0.09649911  0.09648287  0.09648976  1
  Fe  Fe1  1  0.65562879  0.15438397  0.65562286  1
  Fe  Fe2  1  0.90351150  0.90350531  0.90351173  1
  Fe  Fe3  1  0.70654843  0.00002079  0.29344695  1
  Fe  Fe4  1  0.70654220  0.29347107  0.00003401  1
  Fe  Fe5  1  0.00001275  0.70669893  0.29331072  1
  Fe  Fe6  1  0.29343253  -0.00004471  0.70654275  1
  Fe  Fe7  1  0.34434074  0.34437960  0.84562897  1
  Fe  Fe8  1  0.00000541  0.29331160  0.70669373  1
  Fe  Fe9  1  0.00006115  -0.00007258  0.50000276  1
  Fe  Fe10  1  0.65564379  0.65566165  0.15434254  1
  Fe  Fe11  1  0.34433263  0.84566786  0.34435319  1
  Fe  Fe12  1  0.84563952  0.34441855  0.34439648  1
  Fe  Fe13  1  0.00002119  0.50000084  0.00000687  1
  Fe  Fe14  1  0.29345446  0.70654255  0.99997275  1
  Fe  Fe15  1  0.49999517  -0.00006769  0.00005087  1
  Fe  Fe16  1  0.15433750  0.65562192  0.65559854  1
loop_
_geom_bond_atom_site_label_1
_geom_bond_atom_site_label_2
_geom_bond_distance
_geom_bond_site_symmetry_2
Fe0 Fe2 2.382421 1_444
Fe0 Fe15 2.615533 1_555
Fe0 Fe13 2.615699 1_555
Fe0 Fe9 2.615706 1_555
Fe0 Fe11 2.659707 1_545
Fe0 Fe7 2.659998 1_554
Fe0 Fe12 2.660401 1_455
Fe0 Fe5 2.776104 1_545
Fe0 Fe8 2.776210 1_554
Fe0 Fe3 2.777231 1_455
Fe0 Fe14 2.777314 1_544
Fe0 Fe4 2.777324 1_455
Fe0 Fe6 2.777328 1_554
Fe0 Tb1 2.998952 1_555
Fe1 Fe9 2.469422 1_655
Fe1 Fe15 2.469460 1_556
Fe1 Fe12 2.490334 1_555
Fe1 Fe7 2.490457 1_555
Fe1 Fe8 2.547890 1_655
Fe1 Fe4 2.548357 1_556
Fe1 Fe3 2.605728 1_555
Fe1 Fe6 2.605982 1_555
Fe1 Fe2 2.660185 1_545
Fe1 Tb1 3.084098 1_555
Fe1 Tb0 3.166362 1_545
Fe1 Tb0 3.260763 1_555
Fe2 Fe9 2.615661 1_665
Fe2 Fe5 2.776193 1_656
Fe2 Fe8 2.776237 1_665
Fe2 Fe6 2.777067 1_665
Fe2 Fe3 2.777303 1_566
Fe2 Fe4 2.777496 1_566
Fe2 Tb0 2.998944 1_555
Fe3 Fe9 2.428073 1_655
Fe3 Fe5 2.508330 1_645
Fe3 Fe4 2.508695 1_555
Fe3 Tb0 3.035686 1_545
Fe3 Tb1 3.035717 1_555
Fe4 Fe8 2.508404 1_654
Fe4 Fe7 2.605948 1_554
Fe4 Tb1 3.035586 1_555
Fe4 Tb0 3.035742 1_554
Fe5 Fe9 2.427274 1_565
Fe5 Tb1 3.036114 1_555
Fe5 Tb0 3.036238 1_455
Fe6 Fe9 2.427364 1_555
Fe6 Fe8 2.508319 1_555
Fe6 Fe7 2.548418 1_555
Fe6 Tb0 3.035584 1_545
Fe6 Tb1 3.035841 1_555
Fe7 Fe8 2.547665 1_555
Fe7 Tb0 3.084214 1_555
Fe7 Tb1 3.166352 1_556
Fe7 Tb1 3.260790 1_555
Fe8 Fe9 2.428007 1_555
Fe8 Tb1 3.036170 1_555
Fe8 Tb0 3.036265 1_455
Fe9 Tb0 3.261596 1_445
Fe9 Tb1 3.261747 1_555
Fe10 Fe15 2.468325 1_565
Fe10 Fe13 2.468961 1_655
Fe10 Fe12 2.490422 1_555
Fe10 Fe11 2.490604 1_555
Fe10 Fe5 2.547910 1_655
Fe10 Fe3 2.548079 1_565
Fe10 Fe4 2.605648 1_555
Fe10 Fe14 2.605774 1_554
Fe10 Fe2 2.659804 1_554
Fe10 Tb1 3.084330 1_555
Fe10 Tb0 3.166216 1_554
Fe10 Tb0 3.260923 1_555
Fe11 Fe9 2.468220 1_565
Fe11 Fe15 2.468460 1_565
Fe11 Fe16 2.490405 1_555
Fe11 Fe5 2.547628 1_555
Fe11 Fe14 2.548228 1_554
Fe11 Fe6 2.605583 1_565
Fe11 Fe3 2.605872 1_565
Fe11 Tb0 3.084358 1_555
Fe11 Tb1 3.166172 1_565
Fe11 Tb1 3.260946 1_555
Fe12 Fe13 2.468992 1_655
Fe12 Fe9 2.469657 1_655
Fe12 Fe4 2.548150 1_555
Fe12 Fe3 2.548337 1_555
Fe12 Fe5 2.606336 1_655
Fe12 Fe8 2.606420 1_655
Fe12 Tb0 3.083662 1_555
Fe12 Tb1 3.165926 1_655
Fe12 Tb1 3.261037 1_555
Fe13 Fe14 2.427639 1_554
Fe13 Fe5 2.427652 1_555
Fe13 Fe8 2.427689 1_554
Fe13 Fe4 2.427844 1_455
Fe13 Fe7 2.468667 1_554
Fe13 Fe16 2.469030 1_554
Fe13 Fe2 2.615660 1_454
Fe13 Tb1 3.261519 1_555
Fe13 Tb0 3.261861 1_454
Fe14 Fe15 2.427529 1_566
Fe14 Fe5 2.508303 1_556
Fe14 Fe6 2.508608 1_565
Fe14 Fe16 2.548232 1_555
Fe14 Fe7 2.605592 1_555
Fe14 Fe2 2.777201 1_455
Fe14 Tb0 3.035605 1_555
Fe14 Tb1 3.035670 1_556
Fe15 Fe3 2.427632 1_555
Fe15 Fe6 2.428166 1_554
Fe15 Fe4 2.428266 1_555
Fe15 Fe7 2.469539 1_554
Fe15 Fe2 2.615632 1_544
Fe15 Tb0 3.261793 1_544
Fe15 Tb1 3.262001 1_555
Fe16 Fe9 2.468353 1_565
Fe16 Fe7 2.490372 1_555
Fe16 Fe6 2.547957 1_565
Fe16 Fe5 2.606245 1_555
Fe16 Fe8 2.606388 1_555
Fe16 Fe2 2.660124 1_455
Fe16 Tb1 3.083786 1_555
Fe16 Tb0 3.165858 1_455
Fe16 Tb0 3.261102 1_555
