# generated using pymatgen
data_PbI2
_symmetry_space_group_name_H-M   'P 1'
_cell_length_a   14.94101879
_cell_length_b   14.94101879
_cell_length_c   14.94101914
_cell_angle_alpha   17.83071218
_cell_angle_beta   17.83071218
_cell_angle_gamma   17.83070628
_symmetry_Int_Tables_number   1
_chemical_formula_structural   PbI2
_chemical_formula_sum   'Pb2 I4'
_cell_volume   273.01588180
_cell_formula_units_Z   2
loop_
 _symmetry_equiv_pos_site_id
 _symmetry_equiv_pos_as_xyz
  1  'x, y, z'
loop_
 _atom_site_type_symbol
 _atom_site_label
 _atom_site_symmetry_multiplicity
 _atom_site_fract_x
 _atom_site_fract_y
 _atom_site_fract_z
 _atom_site_occupancy
  Pb  Pb0  1  -0.00000000  -0.00000000  -0.00000000  1
  Pb  Pb1  1  0.50000000  0.50000000  0.50000000  1
  I  I0  1  0.12448395  0.12448395  0.12448395  1
  I  I1  1  0.87551605  0.87551605  0.87551605  1
  I  I2  1  0.29114597  0.29114597  0.29114597  1
  I  I3  1  0.70885403  0.70885403  0.70885403  1
loop_
_geom_bond_atom_site_label_1
_geom_bond_atom_site_label_2
_geom_bond_distance
_geom_bond_site_symmetry_2
I0 Pb1 3.257165 1_455
I0 Pb1 3.257165 1_545
I0 Pb1 3.257165 1_554
I1 Pb1 3.257165 1_655
I1 Pb1 3.257165 1_565
I1 Pb1 3.257165 1_556
I2 Pb0 3.257282 1_655
I2 Pb0 3.257282 1_565
I2 Pb0 3.257283 1_556
I3 Pb0 3.257282 1_656
I3 Pb0 3.257282 1_566
I3 Pb0 3.257283 1_665
