# generated using pymatgen
data_Dy3CuSnSe7
_symmetry_space_group_name_H-M   'P 1'
_cell_length_a   10.22536401
_cell_length_b   10.22536401
_cell_length_c   6.51928900
_cell_angle_alpha   90.00000000
_cell_angle_beta   90.00000000
_cell_angle_gamma   120.00000007
_symmetry_Int_Tables_number   1
_chemical_formula_structural   Dy3CuSnSe7
_chemical_formula_sum   'Dy6 Cu2 Sn2 Se14'
_cell_volume   590.32125387
_cell_formula_units_Z   2
loop_
 _symmetry_equiv_pos_site_id
 _symmetry_equiv_pos_as_xyz
  1  'x, y, z'
loop_
 _atom_site_type_symbol
 _atom_site_label
 _atom_site_symmetry_multiplicity
 _atom_site_fract_x
 _atom_site_fract_y
 _atom_site_fract_z
 _atom_site_occupancy
  Dy  Dy0  1  0.35754800  0.15442200  0.39321000  1
  Dy  Dy1  1  0.20312600  0.35754800  0.89321000  1
  Dy  Dy2  1  0.15442200  0.79687400  0.89321000  1
  Dy  Dy3  1  0.84557800  0.20312600  0.39321000  1
  Dy  Dy4  1  0.79687400  0.64245200  0.39321000  1
  Dy  Dy5  1  0.64245200  0.84557800  0.89321000  1
  Cu  Cu0  1  0.00000000  0.00000000  0.99925600  1
  Cu  Cu1  1  0.00000000  0.00000000  0.49925600  1
  Sn  Sn0  1  0.33333300  0.66666700  0.32185200  1
  Sn  Sn1  1  0.66666700  0.33333300  0.82185200  1
  Se  Se0  1  0.26520900  0.11879200  0.96857800  1
  Se  Se1  1  0.14641700  0.26520900  0.46857800  1
  Se  Se2  1  0.11879200  0.85358300  0.46857800  1
  Se  Se3  1  0.88120800  0.14641700  0.96857800  1
  Se  Se4  1  0.85358300  0.73479100  0.96857800  1
  Se  Se5  1  0.73479100  0.88120800  0.46857800  1
  Se  Se6  1  0.52008900  0.44204900  0.63857600  1
  Se  Se7  1  0.07804000  0.52008900  0.13857600  1
  Se  Se8  1  0.44204900  0.92196000  0.13857600  1
  Se  Se9  1  0.55795100  0.07804000  0.63857600  1
  Se  Se10  1  0.92196000  0.47991100  0.63857600  1
  Se  Se11  1  0.47991100  0.55795100  0.13857600  1
  Se  Se12  1  0.33333300  0.66666700  0.71420100  1
  Se  Se13  1  0.66666700  0.33333300  0.21420100  1
loop_
_geom_bond_atom_site_label_1
_geom_bond_atom_site_label_2
_geom_bond_distance
_geom_bond_site_symmetry_2
Dy0 Se2 2.855613 1_545
Dy0 Se0 2.888551 1_554
Dy0 Se1 2.937895 1_555
Dy0 Se13 2.986163 1_555
Dy0 Se9 2.994738 1_555
Dy0 Se6 3.013792 1_555
Dy0 Se8 3.347586 1_545
Dy1 Se0 2.855613 1_555
Dy1 Se1 2.888551 1_555
Dy1 Se3 2.937895 1_455
Dy1 Se12 2.986164 1_555
Dy1 Se11 2.994738 1_556
Dy1 Se7 3.013792 1_556
Dy1 Se6 3.347586 1_555
Dy2 Se4 2.855613 1_455
Dy2 Se2 2.888551 1_555
Dy2 Se0 2.937895 1_565
Dy2 Se12 2.986155 1_555
Dy2 Se7 2.994738 1_556
Dy2 Se8 3.013792 1_556
Dy2 Se10 3.347586 1_455
Dy3 Se1 2.855613 1_655
Dy3 Se3 2.888551 1_554
Dy3 Se5 2.937895 1_545
Dy3 Se13 2.986155 1_555
Dy3 Se10 2.994738 1_555
Dy3 Se9 3.013792 1_555
Dy3 Se7 3.347586 1_655
Dy4 Se5 2.855613 1_555
Dy4 Se4 2.888551 1_554
Dy4 Se2 2.937895 1_655
Dy4 Se13 2.986164 1_555
Dy4 Se6 2.994738 1_555
Dy4 Se10 3.013792 1_555
Dy4 Se11 3.347586 1_555
Dy5 Se3 2.855613 1_565
Dy5 Se5 2.888551 1_555
Dy5 Se4 2.937895 1_555
Dy5 Se12 2.986163 1_555
Dy5 Se8 2.994738 1_556
Dy5 Se11 3.013792 1_556
Dy5 Se9 3.347586 1_565
Cu0 Se4 2.361267 1_445
Cu0 Se0 2.361267 1_555
Cu0 Se3 2.361267 1_455
Cu1 Se1 2.361267 1_555
Cu1 Se5 2.361267 1_445
Cu1 Se2 2.361267 1_545
Se6 Sn1 2.564375 1_555
Se7 Sn0 2.564368 1_555
Se8 Sn0 2.564367 1_555
Se9 Sn1 2.564367 1_555
Se10 Sn1 2.564368 1_555
Se11 Sn0 2.564375 1_555
Se12 Sn0 2.557837 1_555
Se13 Sn1 2.557837 1_554
