# generated using pymatgen
data_Rb2Ti(GeO3)3
_symmetry_space_group_name_H-M   'P 1'
_cell_length_a   12.46049593
_cell_length_b   12.46049593
_cell_length_c   10.28620000
_cell_angle_alpha   90.00000000
_cell_angle_beta   90.00000000
_cell_angle_gamma   119.99999963
_symmetry_Int_Tables_number   1
_chemical_formula_structural   Rb2Ti(GeO3)3
_chemical_formula_sum   'Rb12 Ti6 Ge18 O54'
_cell_volume   1383.10850847
_cell_formula_units_Z   6
loop_
 _symmetry_equiv_pos_site_id
 _symmetry_equiv_pos_as_xyz
  1  'x, y, z'
loop_
 _atom_site_type_symbol
 _atom_site_label
 _atom_site_symmetry_multiplicity
 _atom_site_fract_x
 _atom_site_fract_y
 _atom_site_fract_z
 _atom_site_occupancy
  Rb  Rb0  1  0.00313800  0.33723100  0.43055600  1
  Rb  Rb1  1  0.66590700  0.66276900  0.06944400  1
  Rb  Rb2  1  0.33723100  0.33409300  0.56944400  1
  Rb  Rb3  1  0.66590700  0.00313800  0.56944400  1
  Rb  Rb4  1  0.33723100  0.00313800  0.06944400  1
  Rb  Rb5  1  0.33409300  0.33723100  0.93055600  1
  Rb  Rb6  1  0.00313800  0.66590700  0.93055600  1
  Rb  Rb7  1  0.99686200  0.33409300  0.06944400  1
  Rb  Rb8  1  0.33409300  0.99686200  0.43055600  1
  Rb  Rb9  1  0.99686200  0.66276900  0.56944400  1
  Rb  Rb10  1  0.66276900  0.99686200  0.93055600  1
  Rb  Rb11  1  0.66276900  0.66590700  0.43055600  1
  Ti  Ti0  1  0.33333300  0.66666700  0.47135100  1
  Ti  Ti1  1  0.66666700  0.33333300  0.52864900  1
  Ti  Ti2  1  0.66666700  0.33333300  0.02864900  1
  Ti  Ti3  1  0.33333300  0.66666700  0.97135100  1
  Ti  Ti4  1  0.00000000  0.00000000  0.50000000  1
  Ti  Ti5  1  0.00000000  0.00000000  0.00000000  1
  Ge  Ge0  1  0.33238100  0.47939500  0.22185100  1
  Ge  Ge1  1  0.47939500  0.33238100  0.27814900  1
  Ge  Ge2  1  0.00000000  0.82024000  0.25000000  1
  Ge  Ge3  1  0.52060500  0.66761900  0.72185100  1
  Ge  Ge4  1  0.85298600  0.52060500  0.27814900  1
  Ge  Ge5  1  0.85298600  0.33238100  0.77814900  1
  Ge  Ge6  1  0.14701400  0.66761900  0.22185100  1
  Ge  Ge7  1  0.33238100  0.85298600  0.72185100  1
  Ge  Ge8  1  0.82024000  0.82024000  0.75000000  1
  Ge  Ge9  1  0.52060500  0.85298600  0.22185100  1
  Ge  Ge10  1  0.66761900  0.52060500  0.77814900  1
  Ge  Ge11  1  0.17976000  0.00000000  0.75000000  1
  Ge  Ge12  1  0.47939500  0.14701400  0.77814900  1
  Ge  Ge13  1  0.00000000  0.17976000  0.75000000  1
  Ge  Ge14  1  0.14701400  0.47939500  0.72185100  1
  Ge  Ge15  1  0.82024000  0.00000000  0.25000000  1
  Ge  Ge16  1  0.17976000  0.17976000  0.25000000  1
  Ge  Ge17  1  0.66761900  0.14701400  0.27814900  1
  O  O0  1  0.88497900  0.21036100  0.82241500  1
  O  O1  1  0.27723200  0.51683700  0.35949400  1
  O  O2  1  0.62049400  0.43219100  0.92021500  1
  O  O3  1  0.81169700  0.43219100  0.42021500  1
  O  O4  1  0.72276800  0.23960500  0.14050600  1
  O  O5  1  0.00000000  0.47038400  0.75000000  1
  O  O6  1  0.37950600  0.81169700  0.57978500  1
  O  O7  1  0.23960500  0.72276800  0.35949400  1
  O  O8  1  0.08110100  0.14862200  0.38397800  1
  O  O9  1  0.48316300  0.72276800  0.85949400  1
  O  O10  1  0.62049400  0.18830300  0.42021500  1
  O  O11  1  0.78963900  0.67461900  0.82241500  1
  O  O12  1  0.48316300  0.76039500  0.35949400  1
  O  O13  1  0.23960500  0.51683700  0.85949400  1
  O  O14  1  0.91889900  0.06752100  0.11602200  1
  O  O15  1  0.14862200  0.08110100  0.11602200  1
  O  O16  1  0.67461900  0.78963900  0.67758500  1
  O  O17  1  0.43219100  0.62049400  0.57978500  1
  O  O18  1  0.93247900  0.85137800  0.11602200  1
  O  O19  1  0.11502100  0.32538100  0.67758500  1
  O  O20  1  0.27723200  0.76039500  0.85949400  1
  O  O21  1  0.52961600  0.00000000  0.25000000  1
  O  O22  1  0.76039500  0.27723200  0.64050600  1
  O  O23  1  0.47038400  0.00000000  0.75000000  1
  O  O24  1  0.21036100  0.32538100  0.17758500  1
  O  O25  1  0.14862200  0.06752100  0.61602200  1
  O  O26  1  0.93247900  0.08110100  0.61602200  1
  O  O27  1  0.88497900  0.67461900  0.32241500  1
  O  O28  1  0.47038400  0.47038400  0.25000000  1
  O  O29  1  0.51683700  0.23960500  0.64050600  1
  O  O30  1  0.56780900  0.37950600  0.42021500  1
  O  O31  1  0.78963900  0.11502100  0.32241500  1
  O  O32  1  0.32538100  0.21036100  0.32241500  1
  O  O33  1  0.85137800  0.91889900  0.88397800  1
  O  O34  1  0.72276800  0.48316300  0.64050600  1
  O  O35  1  0.00000000  0.52961600  0.25000000  1
  O  O36  1  0.51683700  0.27723200  0.14050600  1
  O  O37  1  0.32538100  0.11502100  0.82241500  1
  O  O38  1  0.76039500  0.48316300  0.14050600  1
  O  O39  1  0.56780900  0.18830300  0.92021500  1
  O  O40  1  0.43219100  0.81169700  0.07978500  1
  O  O41  1  0.81169700  0.37950600  0.92021500  1
  O  O42  1  0.06752100  0.14862200  0.88397800  1
  O  O43  1  0.08110100  0.93247900  0.88397800  1
  O  O44  1  0.67461900  0.88497900  0.17758500  1
  O  O45  1  0.18830300  0.62049400  0.07978500  1
  O  O46  1  0.21036100  0.88497900  0.67758500  1
  O  O47  1  0.11502100  0.78963900  0.17758500  1
  O  O48  1  0.91889900  0.85137800  0.61602200  1
  O  O49  1  0.52961600  0.52961600  0.75000000  1
  O  O50  1  0.37950600  0.56780900  0.07978500  1
  O  O51  1  0.18830300  0.56780900  0.57978500  1
  O  O52  1  0.06752100  0.91889900  0.38397800  1
  O  O53  1  0.85137800  0.93247900  0.38397800  1
loop_
_geom_bond_atom_site_label_1
_geom_bond_atom_site_label_2
_geom_bond_distance
_geom_bond_site_symmetry_2
Ge0 O1 1.736389 1_555
Ge0 O50 1.745581 1_555
Ge0 O28 1.801804 1_555
Ge0 O24 1.812208 1_555
Ge1 O36 1.736389 1_555
Ge1 O30 1.745581 1_555
Ge1 O28 1.801804 1_555
Ge1 O32 1.812208 1_555
Ge2 O18 1.756151 1_455
Ge2 O52 1.756151 1_555
Ge2 O27 1.816814 1_455
Ge2 O47 1.816821 1_555
Ge3 O9 1.736389 1_555
Ge3 O17 1.745581 1_555
Ge3 O49 1.801804 1_555
Ge3 O16 1.812208 1_555
Ge4 O38 1.736389 1_555
Ge4 O3 1.745581 1_555
Ge4 O35 1.801804 1_655
Ge4 O27 1.812212 1_555
Ge5 O22 1.736389 1_555
Ge5 O41 1.745581 1_555
Ge5 O5 1.801804 1_655
Ge5 O0 1.812200 1_555
Ge6 O7 1.736389 1_555
Ge6 O45 1.745581 1_555
Ge6 O35 1.801804 1_555
Ge6 O47 1.812200 1_555
Ge7 O20 1.736389 1_555
Ge7 O6 1.745581 1_555
Ge7 O23 1.801804 1_565
Ge7 O46 1.812200 1_555
Ge8 O33 1.756151 1_555
Ge8 O48 1.756151 1_555
Ge8 O11 1.816810 1_555
Ge8 O16 1.816810 1_555
Ge9 O12 1.736389 1_555
Ge9 O40 1.745581 1_555
Ge9 O21 1.801804 1_565
Ge9 O44 1.812212 1_555
Ge10 O34 1.736389 1_555
Ge10 O2 1.745581 1_555
Ge10 O49 1.801804 1_555
Ge10 O11 1.812208 1_555
Ge11 O25 1.756151 1_555
Ge11 O43 1.756151 1_545
Ge11 O37 1.816814 1_555
Ge11 O46 1.816821 1_545
Ge12 O29 1.736389 1_555
Ge12 O39 1.745581 1_555
Ge12 O23 1.801804 1_555
Ge12 O37 1.812212 1_555
Ge13 O42 1.756151 1_555
Ge13 O26 1.756151 1_455
Ge13 O19 1.816814 1_555
Ge13 O0 1.816821 1_455
Ge14 O13 1.736389 1_555
Ge14 O51 1.745581 1_555
Ge14 O5 1.801804 1_555
Ge14 O19 1.812212 1_555
Ge15 O53 1.756151 1_545
Ge15 O14 1.756151 1_555
Ge15 O44 1.816814 1_545
Ge15 O31 1.816821 1_555
Ge16 O8 1.756151 1_555
Ge16 O15 1.756151 1_555
Ge16 O24 1.816810 1_555
Ge16 O32 1.816810 1_555
Ge17 O4 1.736389 1_555
Ge17 O10 1.745581 1_555
Ge17 O21 1.801804 1_555
Ge17 O31 1.812200 1_555
O0 Rb10 2.935149 1_545
O0 Rb7 2.937316 1_556
O1 Ti0 1.998235 1_555
O1 Rb0 3.092567 1_555
O1 Rb2 3.479976 1_555
O2 Ti2 1.949658 1_556
O2 Rb1 3.050479 1_556
O2 Rb5 3.150293 1_555
O3 Ti1 1.949650 1_555
O3 Rb9 3.050479 1_555
O3 Rb0 3.150293 1_655
O4 Ti2 1.998226 1_555
O4 Rb7 3.092567 1_555
O4 Rb10 3.479976 1_544
O5 Rb9 3.048149 1_455
O5 Rb6 3.048149 1_555
O6 Ti0 1.949648 1_555
O6 Rb8 3.050479 1_555
O6 Rb3 3.150293 1_565
O7 Ti0 1.998226 1_555
O7 Rb8 3.092567 1_555
O7 Rb9 3.479976 1_455
O8 Ti4 2.000896 1_555
O8 Rb0 2.996601 1_555
O8 Rb2 3.433719 1_555
O9 Ti3 1.998235 1_555
O9 Rb10 3.092567 1_555
O9 Rb1 3.479976 1_556
O10 Ti1 1.949648 1_555
O10 Rb3 3.050479 1_555
O10 Rb8 3.150293 1_545
O11 Rb6 2.935155 1_655
O11 Rb1 2.937313 1_556
O12 Ti0 1.998234 1_555
O12 Rb11 3.092567 1_555
O12 Rb3 3.479976 1_565
O13 Ti3 1.998234 1_555
O13 Rb5 3.092567 1_555
O13 Rb7 3.479976 1_456
O14 Ti5 2.000896 1_655
O14 Rb7 2.996601 1_555
O14 Rb10 3.433719 1_544
O15 Ti5 2.000896 1_555
O15 Rb4 2.996601 1_555
O15 Rb5 3.433719 1_554
O16 Rb3 2.935155 1_565
O16 Rb11 2.937313 1_555
O17 Ti0 1.949658 1_555
O17 Rb11 3.050479 1_555
O17 Rb2 3.150293 1_555
O18 Ti5 2.000896 1_665
O18 Rb1 2.996601 1_555
O18 Rb6 3.433719 1_654
O19 Rb2 2.935143 1_555
O19 Rb0 2.937320 1_555
O20 Ti3 1.998226 1_555
O20 Rb6 3.092567 1_555
O20 Rb4 3.479976 1_566
O21 Rb4 3.048149 1_555
O21 Rb8 3.048149 1_545
O22 Ti1 1.998226 1_555
O22 Rb3 3.092567 1_555
O22 Rb0 3.479976 1_655
O23 Rb10 3.048149 1_545
O23 Rb3 3.048149 1_555
O24 Rb7 2.935155 1_455
O24 Rb5 2.937313 1_554
O25 Ti4 2.000896 1_555
O25 Rb2 2.996601 1_555
O25 Rb8 3.433719 1_545
O26 Ti4 2.000896 1_655
O26 Rb3 2.996601 1_555
O26 Rb0 3.433719 1_655
O27 Rb11 2.935143 1_555
O27 Rb9 2.937320 1_555
O28 Rb11 3.048149 1_555
O28 Rb1 3.048149 1_555
O29 Ti1 1.998234 1_555
O29 Rb2 3.092567 1_555
O29 Rb8 3.479976 1_545
O30 Ti1 1.949658 1_555
O30 Rb2 3.050479 1_555
O30 Rb11 3.150293 1_555
O31 Rb0 2.935149 1_655
O31 Rb3 2.937316 1_555
O32 Rb8 2.935155 1_545
O32 Rb2 2.937313 1_555
O33 Ti5 2.000896 1_666
O33 Rb10 2.996601 1_555
O33 Rb1 3.433719 1_556
O34 Ti1 1.998235 1_555
O34 Rb9 3.092567 1_555
O34 Rb11 3.479976 1_555
O35 Rb0 3.048149 1_555
O35 Rb7 3.048149 1_455
O36 Ti2 1.998235 1_555
O36 Rb4 3.092567 1_555
O36 Rb5 3.479976 1_554
O37 Rb5 2.935143 1_555
O37 Rb4 2.937320 1_556
O38 Ti2 1.998234 1_555
O38 Rb1 3.092567 1_555
O38 Rb6 3.479976 1_654
O39 Ti2 1.949650 1_556
O39 Rb4 3.050479 1_556
O39 Rb10 3.150293 1_545
O40 Ti3 1.949650 1_554
O40 Rb10 3.050479 1_554
O40 Rb4 3.150293 1_565
O41 Ti2 1.949648 1_556
O41 Rb7 3.050479 1_556
O41 Rb6 3.150293 1_655
O42 Ti5 2.000896 1_556
O42 Rb5 2.996601 1_555
O42 Rb7 3.433719 1_456
O43 Ti5 2.000896 1_566
O43 Rb6 2.996601 1_555
O43 Rb4 3.433719 1_566
O44 Rb1 2.935143 1_555
O44 Rb10 2.937320 1_554
O45 Ti3 1.949648 1_554
O45 Rb6 3.050479 1_554
O45 Rb7 3.150293 1_455
O46 Rb9 2.935149 1_455
O46 Rb8 2.937316 1_555
O47 Rb4 2.935149 1_565
O47 Rb6 2.937316 1_554
O48 Ti4 2.000896 1_665
O48 Rb9 2.996601 1_555
O48 Rb11 3.433719 1_555
O49 Rb5 3.048149 1_555
O49 Rb2 3.048149 1_555
O50 Ti3 1.949658 1_554
O50 Rb5 3.050479 1_554
O50 Rb1 3.150293 1_555
O51 Ti0 1.949650 1_555
O51 Rb0 3.050479 1_555
O51 Rb9 3.150293 1_455
O52 Ti4 2.000896 1_565
O52 Rb8 2.996601 1_555
O52 Rb9 3.433719 1_455
O53 Ti4 2.000896 1_665
O53 Rb11 2.996601 1_555
O53 Rb3 3.433719 1_565
