# generated using pymatgen
data_LaMgSi2
_symmetry_space_group_name_H-M   'P 1'
_cell_length_a   4.32824816
_cell_length_b   4.32831440
_cell_length_c   18.71424738
_cell_angle_alpha   96.62752715
_cell_angle_beta   96.62740771
_cell_angle_gamma   89.99227085
_symmetry_Int_Tables_number   1
_chemical_formula_structural   LaMgSi2
_chemical_formula_sum   'La4 Mg4 Si8'
_cell_volume   345.89218999
_cell_formula_units_Z   4
loop_
 _symmetry_equiv_pos_site_id
 _symmetry_equiv_pos_as_xyz
  1  'x, y, z'
loop_
 _atom_site_type_symbol
 _atom_site_label
 _atom_site_symmetry_multiplicity
 _atom_site_fract_x
 _atom_site_fract_y
 _atom_site_fract_z
 _atom_site_occupancy
  La  La0  1  0.54817187  0.79802360  0.59601828  1
  La  La1  1  0.29807358  0.04816990  0.09605878  1
  La  La2  1  0.70198881  0.95184712  0.90394023  1
  La  La3  1  0.45181104  0.20193242  0.40398238  1
  Mg  Mg0  1  0.37498417  0.62486311  0.24994515  1
  Mg  Mg1  1  0.87511047  0.12499286  0.25000687  1
  Mg  Mg2  1  0.12487847  0.87500741  0.74998691  1
  Mg  Mg3  1  0.62500411  0.37513791  0.75004876  1
  Si  Si0  1  0.01439891  0.26415247  0.52840891  1
  Si  Si1  1  0.23584009  0.48559911  0.97159160  1
  Si  Si2  1  0.17303671  0.42301189  0.84584928  1
  Si  Si3  1  0.07699107  0.32695452  0.65413089  1
  Si  Si4  1  0.98558737  0.73583722  0.47159204  1
  Si  Si5  1  0.76416533  0.51443117  0.02842404  1
  Si  Si6  1  0.82695692  0.57699690  0.15415555  1
  Si  Si7  1  0.92300108  0.67304240  0.34586031  1
loop_
_geom_bond_atom_site_label_1
_geom_bond_atom_site_label_2
_geom_bond_distance
_geom_bond_site_symmetry_2
La0 Si4 3.154633 1_555
La0 Si4 3.157616 1_455
La0 Si3 3.242666 1_655
La0 Si3 3.242684 1_665
La0 Si3 3.243311 1_565
La0 Si3 3.244071 1_555
La0 Si0 3.304867 1_565
La0 Si0 3.305025 1_665
La0 Si0 3.305423 1_655
La0 Si0 3.306029 1_555
La1 Si1 3.155308 1_554
La1 Si1 3.158087 1_544
La1 Si6 3.242518 1_555
La1 Si6 3.242728 1_455
La1 Si6 3.243054 1_545
La1 Si6 3.244044 1_445
La1 Si5 3.304841 1_545
La1 Si5 3.305266 1_555
La1 Si5 3.305802 1_455
La1 Si5 3.306142 1_445
La2 Si5 3.155517 1_556
La2 Si5 3.158325 1_566
La2 Si2 3.242518 1_655
La2 Si2 3.242722 1_555
La2 Si2 3.243194 1_565
La2 Si2 3.243769 1_665
La2 Si1 3.305156 1_565
La2 Si1 3.305553 1_555
La2 Si1 3.305719 1_655
La2 Si1 3.306088 1_665
La3 Si0 3.154628 1_555
La3 Si0 3.157629 1_655
La3 Si7 3.242570 1_445
La3 Si7 3.242815 1_455
La3 Si7 3.243277 1_545
La3 Si7 3.244301 1_555
La3 Si4 3.304783 1_545
La3 Si4 3.304923 1_445
La3 Si4 3.305511 1_455
La3 Si4 3.306135 1_555
Mg0 Si6 2.794099 1_555
Mg0 Si6 2.795663 1_455
Mg0 Si7 2.795811 1_455
Mg0 Si7 2.796886 1_555
Mg1 Si7 2.794903 1_545
Mg1 Si6 2.795054 1_555
Mg1 Si6 2.796202 1_545
Mg1 Si7 2.796402 1_555
Mg2 Si3 2.794926 1_565
Mg2 Si2 2.795173 1_555
Mg2 Si2 2.796341 1_565
Mg2 Si3 2.796439 1_555
Mg3 Si2 2.794227 1_555
Mg3 Si2 2.795790 1_655
Mg3 Si3 2.795860 1_655
Mg3 Si3 2.796900 1_555
Si0 Si3 2.321245 1_555
Si0 Si4 2.404873 1_445
Si0 Si4 2.405133 1_455
Si1 Si2 2.321621 1_555
Si1 Si5 2.404978 1_556
Si1 Si5 2.405220 1_456
Si4 Si7 2.321425 1_555
Si5 Si6 2.321421 1_555
