# generated using pymatgen
data_SiO2
_symmetry_space_group_name_H-M   'P 1'
_cell_length_a   13.49717387
_cell_length_b   13.49717335
_cell_length_c   13.49717336
_cell_angle_alpha   59.99999998
_cell_angle_beta   60.00000125
_cell_angle_gamma   60.00000098
_symmetry_Int_Tables_number   1
_chemical_formula_structural   SiO2
_chemical_formula_sum   'Si24 O48'
_cell_volume   1738.65536059
_cell_formula_units_Z   24
loop_
 _symmetry_equiv_pos_site_id
 _symmetry_equiv_pos_as_xyz
  1  'x, y, z'
loop_
 _atom_site_type_symbol
 _atom_site_label
 _atom_site_symmetry_multiplicity
 _atom_site_fract_x
 _atom_site_fract_y
 _atom_site_fract_z
 _atom_site_occupancy
  Si  Si0  1  0.53760711  0.08092007  0.08092007  1
  Si  Si1  1  0.69944526  0.46239289  0.91907993  1
  Si  Si2  1  0.08092007  0.53760711  0.30055474  1
  Si  Si3  1  0.30055474  0.53760711  0.08092007  1
  Si  Si4  1  0.08092007  0.08092007  0.53760711  1
  Si  Si5  1  0.69944526  0.91907993  0.91907993  1
  Si  Si6  1  0.91907993  0.91907993  0.69944526  1
  Si  Si7  1  0.91907993  0.46239289  0.91907993  1
  Si  Si8  1  0.08092007  0.08092007  0.30055474  1
  Si  Si9  1  0.46239289  0.91907993  0.91907993  1
  Si  Si10  1  0.53760711  0.08092007  0.30055474  1
  Si  Si11  1  0.91907993  0.69944526  0.91907993  1
  Si  Si12  1  0.30055474  0.08092007  0.08092007  1
  Si  Si13  1  0.08092007  0.30055474  0.08092007  1
  Si  Si14  1  0.91907993  0.91907993  0.46239289  1
  Si  Si15  1  0.46239289  0.91907993  0.69944526  1
  Si  Si16  1  0.91907993  0.46239289  0.69944526  1
  Si  Si17  1  0.46239289  0.69944526  0.91907993  1
  Si  Si18  1  0.30055474  0.08092007  0.53760711  1
  Si  Si19  1  0.69944526  0.91907993  0.46239289  1
  Si  Si20  1  0.91907993  0.69944526  0.46239289  1
  Si  Si21  1  0.08092007  0.30055474  0.53760711  1
  Si  Si22  1  0.08092007  0.53760711  0.08092007  1
  Si  Si23  1  0.53760711  0.30055474  0.08092007  1
  O  O0  1  0.91314803  0.58685197  0.91314803  1
  O  O1  1  0.21691342  0.02285521  0.21691342  1
  O  O2  1  0.65114720  -0.00000000  0.34885280  1
  O  O3  1  0.65114720  -0.00000000  -0.00000000  1
  O  O4  1  0.21691342  0.02285521  0.54331896  1
  O  O5  1  0.34885280  0.00000000  0.00000000  1
  O  O6  1  0.78308658  0.78308658  0.97714479  1
  O  O7  1  0.21691342  0.21691342  0.02285521  1
  O  O8  1  0.78308658  0.97714479  0.78308658  1
  O  O9  1  0.00000000  0.65114720  0.34885280  1
  O  O10  1  0.00000000  0.65114720  -0.00000000  1
  O  O11  1  0.97714479  0.45668104  0.78308658  1
  O  O12  1  0.58685197  0.91314803  0.58685197  1
  O  O13  1  0.97714479  0.78308658  0.45668104  1
  O  O14  1  0.58685197  0.58685197  0.91314803  1
  O  O15  1  0.08685197  0.41314803  0.41314803  1
  O  O16  1  0.58685197  0.91314803  0.91314803  1
  O  O17  1  -0.00000000  0.34885280  0.65114720  1
  O  O18  1  0.00000000  -0.00000000  0.65114720  1
  O  O19  1  0.08685197  0.41314803  0.08685197  1
  O  O20  1  0.34885280  0.00000000  0.65114720  1
  O  O21  1  0.02285521  0.21691342  0.21691342  1
  O  O22  1  0.78308658  0.78308658  0.45668104  1
  O  O23  1  0.00000000  -0.00000000  0.34885280  1
  O  O24  1  0.54331896  0.21691342  0.02285521  1
  O  O25  1  0.91314803  0.58685197  0.58685197  1
  O  O26  1  0.91314803  0.91314803  0.58685197  1
  O  O27  1  0.21691342  0.54331896  0.02285521  1
  O  O28  1  0.97714479  0.78308658  0.78308658  1
  O  O29  1  -0.00000000  0.34885280  0.00000000  1
  O  O30  1  0.41314803  0.08685197  0.41314803  1
  O  O31  1  0.78308658  0.97714479  0.45668104  1
  O  O32  1  0.65114720  0.34885280  -0.00000000  1
  O  O33  1  0.02285521  0.54331896  0.21691342  1
  O  O34  1  0.78308658  0.45668104  0.78308658  1
  O  O35  1  0.45668104  0.78308658  0.78308658  1
  O  O36  1  0.41314803  0.41314803  0.08685197  1
  O  O37  1  0.78308658  0.45668104  0.97714479  1
  O  O38  1  0.41314803  0.08685197  0.08685197  1
  O  O39  1  0.34885280  0.65114720  0.00000000  1
  O  O40  1  0.21691342  0.54331896  0.21691342  1
  O  O41  1  0.21691342  0.21691342  0.54331896  1
  O  O42  1  0.54331896  0.02285521  0.21691342  1
  O  O43  1  0.45668104  0.97714479  0.78308658  1
  O  O44  1  0.45668104  0.78308658  0.97714479  1
  O  O45  1  0.08685197  0.08685197  0.41314803  1
  O  O46  1  0.02285521  0.21691342  0.54331896  1
  O  O47  1  0.54331896  0.21691342  0.21691342  1
loop_
_geom_bond_atom_site_label_1
_geom_bond_atom_site_label_2
_geom_bond_distance
_geom_bond_site_symmetry_2
O0 Si11 1.603757 1_555
O0 Si7 1.603784 1_555
O1 Si12 1.622308 1_555
O1 Si8 1.622308 1_555
O2 Si19 1.606103 1_545
O2 Si10 1.606103 1_555
O3 Si0 1.606117 1_555
O3 Si5 1.606125 1_544
O4 Si4 1.622303 1_555
O4 Si18 1.622315 1_555
O5 Si9 1.606117 1_544
O5 Si12 1.606125 1_555
O6 Si5 1.622308 1_555
O6 Si11 1.622308 1_555
O7 Si12 1.622308 1_555
O7 Si13 1.622308 1_555
O8 Si5 1.622308 1_555
O8 Si6 1.622308 1_555
O9 Si2 1.606103 1_555
O9 Si20 1.606103 1_455
O10 Si22 1.606117 1_555
O10 Si11 1.606125 1_454
O11 Si7 1.622303 1_555
O11 Si16 1.622315 1_555
O12 Si19 1.603772 1_555
O12 Si15 1.603772 1_555
O13 Si14 1.622303 1_555
O13 Si20 1.622315 1_555
O14 Si1 1.603772 1_555
O14 Si17 1.603772 1_555
O15 Si2 1.603772 1_555
O15 Si21 1.603772 1_555
O16 Si5 1.603757 1_555
O16 Si9 1.603784 1_555
O17 Si16 1.606103 1_455
O17 Si21 1.606103 1_555
O18 Si4 1.606117 1_555
O18 Si6 1.606125 1_445
O19 Si13 1.603757 1_555
O19 Si22 1.603784 1_555
O20 Si18 1.606103 1_555
O20 Si15 1.606103 1_545
O21 Si8 1.622308 1_555
O21 Si13 1.622308 1_555
O22 Si19 1.622305 1_555
O22 Si20 1.622305 1_555
O23 Si14 1.606117 1_445
O23 Si8 1.606125 1_555
O24 Si0 1.622303 1_555
O24 Si23 1.622315 1_555
O25 Si16 1.603772 1_555
O25 Si20 1.603772 1_555
O26 Si6 1.603757 1_555
O26 Si14 1.603784 1_555
O27 Si22 1.622303 1_555
O27 Si3 1.622315 1_555
O28 Si6 1.622308 1_555
O28 Si11 1.622308 1_555
O29 Si7 1.606117 1_454
O29 Si13 1.606125 1_555
O30 Si18 1.603772 1_555
O30 Si10 1.603772 1_555
O31 Si14 1.622303 1_555
O31 Si19 1.622315 1_555
O32 Si1 1.606103 1_554
O32 Si23 1.606103 1_555
O33 Si22 1.622303 1_555
O33 Si2 1.622315 1_555
O34 Si1 1.622305 1_555
O34 Si16 1.622305 1_555
O35 Si15 1.622305 1_555
O35 Si17 1.622305 1_555
O36 Si3 1.603772 1_555
O36 Si23 1.603772 1_555
O37 Si7 1.622303 1_555
O37 Si1 1.622315 1_555
O38 Si12 1.603757 1_555
O38 Si0 1.603784 1_555
O39 Si3 1.606103 1_555
O39 Si17 1.606103 1_554
O40 Si3 1.622305 1_555
O40 Si2 1.622305 1_555
O41 Si18 1.622305 1_555
O41 Si21 1.622305 1_555
O42 Si0 1.622303 1_555
O42 Si10 1.622315 1_555
O43 Si9 1.622303 1_555
O43 Si15 1.622315 1_555
O44 Si9 1.622303 1_555
O44 Si17 1.622315 1_555
O45 Si8 1.603757 1_555
O45 Si4 1.603784 1_555
O46 Si4 1.622303 1_555
O46 Si21 1.622315 1_555
O47 Si10 1.622305 1_555
O47 Si23 1.622305 1_555
