# generated using pymatgen
data_Gd(FeSi)2
_symmetry_space_group_name_H-M   'P 1'
_cell_length_a   3.90086364
_cell_length_b   3.90086260
_cell_length_c   5.66624801
_cell_angle_alpha   110.13414896
_cell_angle_beta   110.13415864
_cell_angle_gamma   89.99997604
_symmetry_Int_Tables_number   1
_chemical_formula_structural   Gd(FeSi)2
_chemical_formula_sum   'Gd1 Fe2 Si2'
_cell_volume   75.31590382
_cell_formula_units_Z   1
loop_
 _symmetry_equiv_pos_site_id
 _symmetry_equiv_pos_as_xyz
  1  'x, y, z'
loop_
 _atom_site_type_symbol
 _atom_site_label
 _atom_site_symmetry_multiplicity
 _atom_site_fract_x
 _atom_site_fract_y
 _atom_site_fract_z
 _atom_site_occupancy
  Gd  Gd0  1  0.00000000  0.00000000  0.00000000  1
  Fe  Fe0  1  0.75000000  0.25000000  0.50000000  1
  Fe  Fe1  1  0.25000000  0.75000000  0.50000000  1
  Si  Si0  1  0.36973957  0.36973957  0.73948014  1
  Si  Si1  1  0.63026043  0.63026043  0.26051986  1
loop_
_geom_bond_atom_site_label_1
_geom_bond_atom_site_label_2
_geom_bond_distance
_geom_bond_site_symmetry_2
Gd0 Si1 3.044840 1_445
Gd0 Si0 3.044840 1_554
Gd0 Si1 3.044841 1_545
Gd0 Si0 3.044841 1_454
Gd0 Si1 3.044841 1_455
Gd0 Si0 3.044841 1_544
Gd0 Si0 3.044844 1_444
Gd0 Si1 3.044844 1_555
Fe0 Si1 2.282357 1_545
Fe0 Si0 2.282357 1_655
Fe0 Si1 2.282360 1_555
Fe0 Si0 2.282361 1_555
Fe0 Gd0 3.150981 1_666
Fe0 Gd0 3.150981 1_656
Fe0 Gd0 3.150981 1_555
Fe0 Gd0 3.150981 1_655
Fe1 Si0 2.282357 1_565
Fe1 Si1 2.282357 1_455
Fe1 Si0 2.282360 1_555
Fe1 Si1 2.282361 1_555
Fe1 Gd0 3.150981 1_555
Fe1 Gd0 3.150981 1_565
Fe1 Gd0 3.150981 1_666
Fe1 Gd0 3.150981 1_566
Si0 Si1 2.578909 1_556
