# generated using pymatgen
data_Sr17(Ta5S21)2
_symmetry_space_group_name_H-M   'P 1'
_cell_length_a   12.26194435
_cell_length_b   12.31089924
_cell_length_c   12.31205954
_cell_angle_alpha   96.20717982
_cell_angle_beta   96.38089234
_cell_angle_gamma   96.25625244
_symmetry_Int_Tables_number   1
_chemical_formula_structural   Sr17(Ta5S21)2
_chemical_formula_sum   'Sr17 Ta10 S42'
_cell_volume   1822.41010462
_cell_formula_units_Z   1
loop_
 _symmetry_equiv_pos_site_id
 _symmetry_equiv_pos_as_xyz
  1  'x, y, z'
loop_
 _atom_site_type_symbol
 _atom_site_label
 _atom_site_symmetry_multiplicity
 _atom_site_fract_x
 _atom_site_fract_y
 _atom_site_fract_z
 _atom_site_occupancy
  Sr  Sr0  1  0.07834916  0.93861547  0.69925445  1
  Sr  Sr1  1  0.04669539  0.27119718  0.89922497  1
  Sr  Sr2  1  0.04926153  0.41710452  0.28936184  1
  Sr  Sr3  1  0.26872880  0.90345561  0.04127028  1
  Sr  Sr4  1  0.36652517  0.73183943  0.60226637  1
  Sr  Sr5  1  0.28581265  0.05131566  0.42053888  1
  Sr  Sr6  1  0.36906334  0.60595055  0.23247560  1
  Sr  Sr7  1  0.41737319  0.28718854  0.04948676  1
  Sr  Sr8  1  0.58045565  0.71813597  0.95194200  1
  Sr  Sr9  1  0.58550523  0.36724924  0.73240195  1
  Sr  Sr10  1  0.71592422  0.95295643  0.58135820  1
  Sr  Sr11  1  0.60773150  0.23652007  0.36530491  1
  Sr  Sr12  1  0.70144316  0.07670375  0.93740212  1
  Sr  Sr13  1  0.73093081  0.59640073  0.36890021  1
  Sr  Sr14  1  0.95221111  0.57480786  0.71507846  1
  Sr  Sr15  1  0.93906927  0.69789667  0.07341090  1
  Sr  Sr16  1  0.90372845  0.04298373  0.26809258  1
  Ta  Ta0  1  0.04255400  0.72146350  0.38013757  1
  Ta  Ta1  1  0.22109436  0.54532388  0.88095318  1
  Ta  Ta2  1  0.16795720  0.16638842  0.16513352  1
  Ta  Ta3  1  0.34662137  0.35492331  0.36484802  1
  Ta  Ta4  1  0.38211902  0.04223650  0.72194593  1
  Ta  Ta5  1  0.54454116  0.88310789  0.22068328  1
  Ta  Ta6  1  0.66710560  0.66669332  0.66755755  1
  Ta  Ta7  1  0.85659383  0.85596714  0.85502959  1
  Ta  Ta8  1  0.72179514  0.38188728  0.04252106  1
  Ta  Ta9  1  0.88344653  0.22114800  0.54604773  1
  S  S0  1  0.03864511  0.81710313  0.89674877  1
  S  S1  1  0.05109959  0.51947635  0.94140733  1
  S  S2  1  0.97521363  0.57700883  0.46228700  1
  S  S3  1  0.00267106  0.33712243  0.66783881  1
  S  S4  1  0.12244762  0.98624561  0.20820825  1
  S  S5  1  0.12496035  0.65474515  0.23416252  1
  S  S6  1  0.16851314  0.83945279  0.49906582  1
  S  S7  1  0.19513032  0.61026683  0.71654430  1
  S  S8  1  0.20950959  0.12278537  0.98447325  1
  S  S9  1  0.16736285  0.23982941  0.37067597  1
  S  S10  1  0.28173542  0.37924708  0.86060913  1
  S  S11  1  0.23761446  0.12426939  0.65760252  1
  S  S12  1  0.31340692  0.89241770  0.79779744  1
  S  S13  1  0.24037787  0.37446111  0.16721819  1
  S  S14  1  0.29321862  0.51775463  0.43624582  1
  S  S15  1  0.37586267  0.85717051  0.27922765  1
  S  S16  1  0.33918121  0.67115754  0.00331642  1
  S  S17  1  0.37515743  0.16345844  0.23915372  1
  S  S18  1  0.43731059  0.28677498  0.51246489  1
  S  S19  1  0.50650766  0.59211916  0.72940899  1
  S  S20  1  0.46282299  0.97550266  0.57487932  1
  S  S21  1  0.50168752  0.16817677  0.84150414  1
  S  S22  1  0.52075505  0.94319956  0.05253173  1
  S  S23  1  0.58876927  0.72676149  0.50605442  1
  S  S24  1  0.51091036  0.43282769  0.28866555  1
  S  S25  1  0.64924809  0.85887003  0.78162561  1
  S  S26  1  0.60273620  0.71360607  0.19795011  1
  S  S27  1  0.57560288  0.46497317  0.97881534  1
  S  S28  1  0.78236572  0.65026318  0.85738859  1
  S  S29  1  0.71118850  0.19893849  0.60101778  1
  S  S30  1  0.65752855  0.23410878  0.12377657  1
  S  S31  1  0.72330314  0.50408203  0.58943663  1
  S  S32  1  0.66944933  0.00303300  0.33867747  1
  S  S33  1  0.79561644  0.31473199  0.89195211  1
  S  S34  1  0.85812265  0.78070843  0.65035536  1
  S  S35  1  0.81277691  0.89336967  0.03690292  1
  S  S36  1  0.89237301  0.79616231  0.31041906  1
  S  S37  1  0.83978693  0.50079407  0.16911910  1
  S  S38  1  0.85832952  0.27963765  0.37611294  1
  S  S39  1  0.89459002  0.03751954  0.81228793  1
  S  S40  1  0.94179093  0.05088004  0.52012795  1
  S  S41  1  0.98638404  0.20822725  0.12101465  1
loop_
_geom_bond_atom_site_label_1
_geom_bond_atom_site_label_2
_geom_bond_distance
_geom_bond_site_symmetry_2
S0 Ta7 2.346697 1_455
S0 Sr15 3.043925 1_456
S0 Sr0 3.046030 1_555
S0 Sr3 3.174470 1_556
S0 Sr14 3.516398 1_455
S1 Ta1 2.291675 1_555
S1 Sr1 3.038024 1_555
S1 Sr14 3.088490 1_455
S1 Sr15 3.120106 1_456
S2 Ta0 2.263172 1_655
S2 Sr2 3.024152 1_655
S2 Sr13 3.130655 1_555
S2 Sr14 3.158943 1_555
S3 Ta9 2.240322 1_455
S3 Sr1 3.052809 1_555
S3 Sr14 3.064288 1_455
S4 Ta2 2.358249 1_565
S4 Sr16 2.993436 1_465
S4 Sr3 3.040641 1_555
S4 Sr5 3.085774 1_565
S5 Ta0 2.278403 1_555
S5 Sr15 2.980520 1_455
S5 Sr6 3.118235 1_555
S5 Sr2 3.140182 1_555
S6 Ta0 2.277685 1_555
S6 Sr0 3.006116 1_555
S6 Sr4 3.105511 1_555
S6 Sr5 3.137375 1_565
S7 Ta1 2.258363 1_555
S7 Sr14 2.960787 1_455
S7 Sr4 3.010583 1_555
S8 Ta2 2.355542 1_556
S8 Sr3 3.004973 1_546
S8 Sr1 3.028115 1_555
S8 Sr7 3.050472 1_556
S9 Ta3 2.494491 1_555
S9 Ta2 2.594695 1_555
S9 Sr2 2.949818 1_555
S9 Sr5 2.952454 1_555
S10 Ta1 2.248967 1_555
S10 Sr7 3.095073 1_556
S10 Sr1 3.147607 1_555
S11 Ta4 2.244580 1_555
S11 Sr0 2.967132 1_545
S11 Sr5 3.099549 1_555
S12 Ta4 2.278714 1_565
S12 Sr3 3.098012 1_556
S12 Sr4 3.118937 1_555
S12 Sr0 3.135624 1_555
S13 Ta2 2.614532 1_555
S13 Ta3 2.676918 1_555
S13 Sr7 2.972602 1_555
S13 Sr2 2.984909 1_555
S13 Sr6 3.082204 1_555
S14 Ta3 2.291927 1_555
S14 Sr6 3.037374 1_555
S14 Sr4 3.137306 1_555
S14 Sr2 3.355494 1_555
S15 Ta5 2.266428 1_555
S15 Sr6 3.074331 1_555
S15 Sr5 3.172035 1_565
S15 Sr3 3.209750 1_555
S16 Ta1 2.299488 1_554
S16 Sr6 3.010515 1_555
S16 Sr3 3.079334 1_555
S16 Sr8 3.099902 1_554
S17 Ta2 2.607548 1_555
S17 Ta3 2.754017 1_555
S17 Sr7 2.984516 1_555
S17 Sr5 2.995729 1_555
S17 Sr11 3.083587 1_555
S18 Ta3 2.308137 1_555
S18 Sr11 2.985516 1_555
S18 Sr9 3.090295 1_555
S18 Sr5 3.283901 1_555
S19 Ta6 2.321889 1_555
S19 Sr8 2.992945 1_555
S19 Sr4 2.997310 1_555
S19 Sr9 3.033483 1_555
S20 Ta4 2.277418 1_565
S20 Sr5 3.016845 1_565
S20 Sr10 3.138902 1_555
S20 Sr4 3.168832 1_555
S21 Ta4 2.291628 1_555
S21 Sr12 2.984559 1_555
S21 Sr9 3.055602 1_555
S21 Sr7 3.143236 1_556
S22 Ta5 2.272105 1_555
S22 Sr3 3.060933 1_555
S22 Sr8 3.106156 1_554
S22 Sr12 3.166634 1_564
S23 Ta6 2.339155 1_555
S23 Sr13 3.023864 1_555
S23 Sr10 3.036287 1_555
S23 Sr4 3.093892 1_555
S24 Ta3 2.459929 1_555
S24 Sr6 2.984226 1_555
S24 Sr11 3.001642 1_555
S24 Sr13 3.178501 1_555
S24 Sr7 3.295636 1_555
S25 Ta7 2.607338 1_555
S25 Ta6 2.660902 1_555
S25 Sr10 2.991497 1_555
S25 Sr8 2.995127 1_555
S25 Sr12 3.085543 1_565
S26 Ta5 2.276966 1_555
S26 Sr8 3.017896 1_554
S26 Sr13 3.065702 1_555
S26 Sr6 3.116401 1_555
S27 Ta8 2.266157 1_556
S27 Sr7 3.028759 1_556
S27 Sr9 3.160828 1_555
S27 Sr8 3.164418 1_555
S28 Ta7 2.600335 1_555
S28 Ta6 2.632724 1_555
S28 Sr8 3.010686 1_555
S28 Sr14 3.025063 1_555
S28 Sr15 3.064489 1_556
S29 Ta9 2.286082 1_555
S29 Sr10 3.019150 1_545
S29 Sr9 3.132158 1_555
S29 Sr11 3.137764 1_555
S30 Ta8 2.277717 1_555
S30 Sr12 2.975056 1_554
S30 Sr11 3.099217 1_555
S30 Sr7 3.144082 1_555
S31 Ta6 2.332195 1_555
S31 Sr14 3.039813 1_555
S31 Sr13 3.061646 1_555
S31 Sr9 3.077802 1_555
S32 Ta5 2.277020 1_545
S32 Sr11 3.044348 1_555
S32 Sr16 3.096618 1_555
S32 Sr10 3.119100 1_545
S33 Ta8 2.268077 1_556
S33 Sr12 3.161361 1_555
S33 Sr1 3.175293 1_655
S33 Sr9 3.229131 1_555
S34 Ta7 2.591981 1_555
S34 Ta6 2.638016 1_555
S34 Sr10 3.020710 1_555
S34 Sr14 3.043223 1_555
S34 Sr0 3.110483 1_655
S35 Ta7 2.369227 1_554
S35 Sr15 3.046731 1_555
S35 Sr12 3.058802 1_564
S35 Sr16 3.232858 1_565
S35 Sr8 3.372460 1_554
S36 Ta0 2.272025 1_655
S36 Sr16 3.128954 1_565
S36 Sr15 3.172597 1_555
S36 Sr13 3.181792 1_555
S37 Ta8 2.282398 1_555
S37 Sr15 3.008637 1_555
S37 Sr13 3.108590 1_555
S37 Sr2 3.148352 1_655
S38 Ta9 2.285111 1_555
S38 Sr11 3.046314 1_555
S38 Sr2 3.093410 1_655
S38 Sr16 3.201069 1_555
S39 Ta7 2.360388 1_545
S39 Sr12 3.018926 1_555
S39 Sr0 3.070008 1_645
S39 Sr1 3.259013 1_655
S39 Sr10 3.383128 1_545
S40 Ta9 2.289202 1_555
S40 Sr16 3.075600 1_555
S40 Sr10 3.102424 1_545
S40 Sr0 3.149688 1_645
S41 Ta2 2.357758 1_655
S41 Sr16 3.033130 1_555
S41 Sr1 3.063693 1_654
S41 Sr2 3.092423 1_655
