# generated using pymatgen
data_Na2Pd(NO2)4
_symmetry_space_group_name_H-M   'P 1'
_cell_length_a   4.69923200
_cell_length_b   11.39365100
_cell_length_c   15.66385300
_cell_angle_alpha   90.00000000
_cell_angle_beta   90.00000000
_cell_angle_gamma   90.00000000
_symmetry_Int_Tables_number   1
_chemical_formula_structural   Na2Pd(NO2)4
_chemical_formula_sum   'Na8 Pd4 N16 O32'
_cell_volume   838.66476588
_cell_formula_units_Z   4
loop_
 _symmetry_equiv_pos_site_id
 _symmetry_equiv_pos_as_xyz
  1  'x, y, z'
loop_
 _atom_site_type_symbol
 _atom_site_label
 _atom_site_symmetry_multiplicity
 _atom_site_fract_x
 _atom_site_fract_y
 _atom_site_fract_z
 _atom_site_occupancy
  Na  Na0  1  0.76430500  0.74826200  0.83408600  1
  Na  Na1  1  0.73569500  0.74826200  0.33408600  1
  Na  Na2  1  0.23569500  0.24826200  0.16591400  1
  Na  Na3  1  0.28270500  0.39942400  0.91440600  1
  Na  Na4  1  0.78270500  0.89942400  0.58559400  1
  Na  Na5  1  0.71729500  0.89942400  0.08559400  1
  Na  Na6  1  0.26430500  0.24826200  0.66591400  1
  Na  Na7  1  0.21729500  0.39942400  0.41440600  1
  Pd  Pd0  1  0.00074600  0.57315200  0.12417700  1
  Pd  Pd1  1  0.49925400  0.57315200  0.62417700  1
  Pd  Pd2  1  0.99925400  0.07315200  0.87582300  1
  Pd  Pd3  1  0.50074600  0.07315200  0.37582300  1
  N  N0  1  0.08966400  0.51524000  0.24544400  1
  N  N1  1  0.41879100  0.13232400  0.49730700  1
  N  N2  1  0.08120900  0.13232400  0.99730700  1
  N  N3  1  0.77750700  0.43403600  0.60307900  1
  N  N4  1  0.58120900  0.63232400  0.50269300  1
  N  N5  1  0.58966400  0.01524000  0.25455600  1
  N  N6  1  0.22732900  0.71368100  0.64628800  1
  N  N7  1  0.91879100  0.63232400  0.00269300  1
  N  N8  1  0.27750700  0.93403600  0.89692100  1
  N  N9  1  0.72732900  0.21368100  0.85371200  1
  N  N10  1  0.27267100  0.71368100  0.14628800  1
  N  N11  1  0.22249300  0.93403600  0.39692100  1
  N  N12  1  0.77267100  0.21368100  0.35371200  1
  N  N13  1  0.72249300  0.43403600  0.10307900  1
  N  N14  1  0.41033600  0.51524000  0.74544400  1
  N  N15  1  0.91033600  0.01524000  0.75455600  1
  O  O0  1  0.99541700  0.19604700  0.31197000  1
  O  O1  1  0.99586700  0.07039300  0.69052000  1
  O  O2  1  0.22120500  0.22487800  0.00788600  1
  O  O3  1  0.00935400  0.95179200  0.44284600  1
  O  O4  1  0.25416300  0.83661100  0.36059500  1
  O  O5  1  0.50084400  0.07612200  0.56117200  1
  O  O6  1  0.75416300  0.33661100  0.13940500  1
  O  O7  1  0.00413300  0.57039300  0.30948000  1
  O  O8  1  0.72390200  0.31326800  0.38477200  1
  O  O9  1  0.74034800  0.92567100  0.24424300  1
  O  O10  1  0.49064600  0.95179200  0.94284600  1
  O  O11  1  0.74583700  0.33661100  0.63940500  1
  O  O12  1  0.50935400  0.45179200  0.05715400  1
  O  O13  1  0.99064600  0.45179200  0.55715400  1
  O  O14  1  0.27609800  0.81326800  0.61522800  1
  O  O15  1  0.77609800  0.31326800  0.88477200  1
  O  O16  1  0.50413300  0.07039300  0.19052000  1
  O  O17  1  0.25965200  0.42567100  0.75575700  1
  O  O18  1  0.77879500  0.72487800  0.99211400  1
  O  O19  1  0.72120500  0.72487800  0.49211400  1
  O  O20  1  0.24034800  0.42567100  0.25575700  1
  O  O21  1  0.24583700  0.83661100  0.86059500  1
  O  O22  1  0.27879500  0.22487800  0.50788600  1
  O  O23  1  0.49586700  0.57039300  0.80948000  1
  O  O24  1  0.22390200  0.81326800  0.11522800  1
  O  O25  1  0.00458300  0.69604700  0.68803000  1
  O  O26  1  0.75965200  0.92567100  0.74424300  1
  O  O27  1  0.49541700  0.69604700  0.18803000  1
  O  O28  1  0.49915600  0.57612200  0.43882800  1
  O  O29  1  0.99915600  0.07612200  0.06117200  1
  O  O30  1  0.50458300  0.19604700  0.81197000  1
  O  O31  1  0.00084400  0.57612200  0.93882800  1
loop_
_geom_bond_atom_site_label_1
_geom_bond_atom_site_label_2
_geom_bond_distance
_geom_bond_site_symmetry_2
Na0 O23 2.418022 1_555
Na0 O26 2.463075 1_555
Na0 O18 2.490555 1_555
Na0 O21 2.511195 1_655
Na0 O25 2.619709 1_655
Na0 O21 2.668661 1_555
Na0 O31 2.788195 1_655
Na1 O7 2.418022 1_655
Na1 O9 2.463075 1_555
Na1 O19 2.490555 1_555
Na1 O4 2.511195 1_555
Na1 O27 2.619709 1_555
Na1 O4 2.668661 1_655
Na1 O28 2.788195 1_555
Na2 O16 2.418022 1_555
Na2 O20 2.463075 1_555
Na2 O2 2.490555 1_555
Na2 O6 2.511195 1_455
Na2 O0 2.619709 1_455
Na2 O6 2.668661 1_555
Na2 O29 2.788195 1_455
Na3 O31 2.440048 1_555
Na3 O2 2.486476 1_556
Na3 O17 2.505327 1_555
Na3 O12 2.547551 1_556
Na3 O15 2.560239 1_555
Na3 O15 2.616606 1_455
Na3 O23 2.738465 1_555
Na4 O5 2.440048 1_565
Na4 O19 2.486476 1_555
Na4 O26 2.505327 1_555
Na4 O3 2.547551 1_655
Na4 O14 2.560239 1_655
Na4 O14 2.616606 1_555
Na4 O1 2.738465 1_565
Na5 O29 2.440048 1_565
Na5 O18 2.486476 1_554
Na5 O9 2.505327 1_555
Na5 O10 2.547551 1_554
Na5 O24 2.560239 1_555
Na5 O24 2.616606 1_655
Na5 O16 2.738465 1_565
Na6 O1 2.418022 1_455
Na6 O17 2.463075 1_555
Na6 O22 2.490555 1_555
Na6 O11 2.511195 1_555
Na6 O30 2.619709 1_555
Na6 O11 2.668661 1_455
Na6 O5 2.788195 1_555
Na7 O28 2.440048 1_555
Na7 O22 2.486476 1_555
Na7 O20 2.505327 1_555
Na7 O13 2.547551 1_455
Na7 O8 2.560239 1_455
Na7 O8 2.616606 1_555
Na7 O7 2.738465 1_555
N0 O7 1.250015 1_555
N0 O20 1.252580 1_555
N0 Pd0 2.053802 1_555
N1 O5 1.248785 1_555
N1 O22 1.253908 1_555
N1 Pd3 2.055214 1_555
N2 O29 1.248785 1_456
N2 O2 1.253908 1_556
N2 Pd2 2.055214 1_455
N3 O13 1.249637 1_555
N3 O11 1.256214 1_555
N3 Pd1 2.081182 1_555
N4 O28 1.248785 1_555
N4 O19 1.253908 1_555
N4 Pd1 2.055214 1_555
N5 O16 1.250015 1_555
N5 O9 1.252580 1_545
N5 Pd3 2.053802 1_555
N6 O25 1.250412 1_555
N6 O14 1.255657 1_555
N6 Pd1 2.077612 1_555
N7 O31 1.248785 1_654
N7 O18 1.253908 1_554
N7 Pd0 2.055214 1_655
N8 O10 1.249637 1_555
N8 O21 1.256214 1_555
N8 Pd2 2.081182 1_465
N9 O30 1.250412 1_555
N9 O15 1.255657 1_555
N9 Pd2 2.077612 1_555
N10 O27 1.250412 1_555
N10 O24 1.255657 1_555
N10 Pd0 2.077612 1_555
N11 O3 1.249637 1_555
N11 O4 1.256214 1_555
N11 Pd3 2.081182 1_565
N12 O0 1.250412 1_555
N12 O8 1.255657 1_555
N12 Pd3 2.077612 1_555
N13 O12 1.249637 1_555
N13 O6 1.256214 1_555
N13 Pd0 2.081182 1_655
N14 O23 1.250015 1_555
N14 O17 1.252580 1_555
N14 Pd1 2.053802 1_555
N15 O1 1.250015 1_555
N15 O26 1.252580 1_545
N15 Pd2 2.053802 1_555
