# generated using pymatgen
data_Sr2CrCuSO3
_symmetry_space_group_name_H-M   'P 1'
_cell_length_a   3.94474700
_cell_length_b   3.94474700
_cell_length_c   15.62161900
_cell_angle_alpha   90.00000000
_cell_angle_beta   90.00000000
_cell_angle_gamma   90.00000000
_symmetry_Int_Tables_number   1
_chemical_formula_structural   Sr2CrCuSO3
_chemical_formula_sum   'Sr4 Cr2 Cu2 S2 O6'
_cell_volume   243.08846463
_cell_formula_units_Z   2
loop_
 _symmetry_equiv_pos_site_id
 _symmetry_equiv_pos_as_xyz
  1  'x, y, z'
loop_
 _atom_site_type_symbol
 _atom_site_label
 _atom_site_symmetry_multiplicity
 _atom_site_fract_x
 _atom_site_fract_y
 _atom_site_fract_z
 _atom_site_occupancy
  Sr  Sr0  1  0.00000000  0.50000000  0.18597300  1
  Sr  Sr1  1  0.50000000  0.00000000  0.81402700  1
  Sr  Sr2  1  0.00000000  0.50000000  0.41324600  1
  Sr  Sr3  1  0.50000000  0.00000000  0.58675400  1
  Cr  Cr0  1  0.50000000  0.00000000  0.30839800  1
  Cr  Cr1  1  0.00000000  0.50000000  0.69160200  1
  Cu  Cu0  1  0.00000000  0.00000000  0.00000000  1
  Cu  Cu1  1  0.50000000  0.50000000  0.00000000  1
  S  S0  1  0.50000000  0.00000000  0.09053900  1
  S  S1  1  0.00000000  0.50000000  0.90946100  1
  O  O0  1  0.00000000  0.00000000  0.29000300  1
  O  O1  1  0.50000000  0.50000000  0.29000300  1
  O  O2  1  0.50000000  0.50000000  0.70999700  1
  O  O3  1  0.00000000  0.00000000  0.70999700  1
  O  O4  1  0.50000000  0.00000000  0.43131900  1
  O  O5  1  0.00000000  0.50000000  0.56868100  1
loop_
_geom_bond_atom_site_label_1
_geom_bond_atom_site_label_2
_geom_bond_distance
_geom_bond_site_symmetry_2
Cr0 O4 1.920225 1_555
Cr0 O0 1.993197 1_655
Cr0 O1 1.993197 1_545
Cr0 O0 1.993197 1_555
Cr0 O1 1.993197 1_555
Cr1 O5 1.920225 1_555
Cr1 O3 1.993197 1_555
Cr1 O3 1.993197 1_565
Cr1 O2 1.993197 1_555
Cr1 O2 1.993197 1_455
Cu0 S0 2.427074 1_555
Cu0 S0 2.427074 1_455
Cu0 S1 2.427074 1_554
Cu0 S1 2.427074 1_544
Cu1 S0 2.427074 1_565
Cu1 S0 2.427074 1_555
Cu1 S1 2.427074 1_554
Cu1 S1 2.427074 1_654
S0 Sr0 3.162768 1_655
S0 Sr0 3.162768 1_545
S0 Sr0 3.162768 1_555
S0 Sr0 3.162768 1_645
S1 Sr1 3.162768 1_455
S1 Sr1 3.162768 1_555
S1 Sr1 3.162768 1_565
S1 Sr1 3.162768 1_465
O0 Sr0 2.555633 1_545
O0 Sr0 2.555633 1_555
O0 Sr2 2.756241 1_545
O0 Sr2 2.756241 1_555
O1 Sr0 2.555633 1_655
O1 Sr0 2.555633 1_555
O1 Sr2 2.756241 1_555
O1 Sr2 2.756241 1_655
O2 Sr1 2.555633 1_555
O2 Sr1 2.555633 1_565
O2 Sr3 2.756241 1_555
O2 Sr3 2.756241 1_565
O3 Sr1 2.555633 1_555
O3 Sr1 2.555633 1_455
O3 Sr3 2.756241 1_455
O3 Sr3 2.756241 1_555
O4 Sr3 2.428146 1_555
O4 Sr2 2.803609 1_645
O4 Sr2 2.803609 1_545
O4 Sr2 2.803609 1_555
O4 Sr2 2.803609 1_655
O5 Sr2 2.428146 1_555
O5 Sr3 2.803609 1_455
O5 Sr3 2.803609 1_555
O5 Sr3 2.803609 1_565
O5 Sr3 2.803609 1_465
