# generated using pymatgen
data_TeS4(NCl)4
_symmetry_space_group_name_H-M   'P 1'
_cell_length_a   9.23679831
_cell_length_b   9.23679831
_cell_length_c   7.59835594
_cell_angle_alpha   81.63160190
_cell_angle_beta   81.63160190
_cell_angle_gamma   84.24164912
_symmetry_Int_Tables_number   1
_chemical_formula_structural   TeS4(NCl)4
_chemical_formula_sum   'Te2 S8 N8 Cl8'
_cell_volume   632.47050663
_cell_formula_units_Z   2
loop_
 _symmetry_equiv_pos_site_id
 _symmetry_equiv_pos_as_xyz
  1  'x, y, z'
loop_
 _atom_site_type_symbol
 _atom_site_label
 _atom_site_symmetry_multiplicity
 _atom_site_fract_x
 _atom_site_fract_y
 _atom_site_fract_z
 _atom_site_occupancy
  Te  Te0  1  0.30634500  0.05084300  0.41146900  1
  Te  Te1  1  0.05084300  0.30634500  0.91146900  1
  S  S0  1  0.49767600  0.03080200  0.99178100  1
  S  S1  1  0.74406900  0.82783800  0.11728500  1
  S  S2  1  0.29835200  0.81967100  0.09905500  1
  S  S3  1  0.81967100  0.29835200  0.59905500  1
  S  S4  1  0.82783800  0.74406900  0.61728500  1
  S  S5  1  0.59947900  0.53010300  0.73048900  1
  S  S6  1  0.53010300  0.59947900  0.23048900  1
  S  S7  1  0.03080200  0.49767600  0.49178100  1
  N  N0  1  0.95396200  0.65821700  0.50517100  1
  N  N1  1  0.37536200  0.95854000  0.15630900  1
  N  N2  1  0.70252600  0.65593800  0.74236600  1
  N  N3  1  0.65593800  0.70252600  0.24236600  1
  N  N4  1  0.38807900  0.66658700  0.15016200  1
  N  N5  1  0.66658700  0.38807900  0.65016200  1
  N  N6  1  0.95854000  0.37536200  0.65630900  1
  N  N7  1  0.65821700  0.95396200  0.00517100  1
  Cl  Cl0  1  0.04058400  0.05408200  0.82646900  1
  Cl  Cl1  1  0.79178700  0.30520400  0.05496000  1
  Cl  Cl2  1  0.32564400  0.28839200  0.19826500  1
  Cl  Cl3  1  0.04738300  0.57331900  0.93907000  1
  Cl  Cl4  1  0.30520400  0.79178700  0.55496000  1
  Cl  Cl5  1  0.57331900  0.04738300  0.43907000  1
  Cl  Cl6  1  0.28839200  0.32564400  0.69826500  1
  Cl  Cl7  1  0.05408200  0.04058400  0.32646900  1
loop_
_geom_bond_atom_site_label_1
_geom_bond_atom_site_label_2
_geom_bond_distance
_geom_bond_site_symmetry_2
N0 S4 1.560164 1_555
N0 S7 1.588946 1_655
N1 S2 1.666183 1_555
N1 S0 1.667970 1_564
N1 Te0 2.214622 1_565
N2 S5 1.594559 1_555
N2 S4 1.596681 1_555
N3 S6 1.594559 1_555
N3 S1 1.596681 1_555
N4 S6 1.561239 1_555
N4 S2 1.592418 1_555
N5 S5 1.561239 1_555
N5 S3 1.592418 1_555
N6 S3 1.666183 1_555
N6 S7 1.667970 1_655
N6 Te1 2.214622 1_655
N7 S1 1.560164 1_555
N7 S0 1.588946 1_564
Cl0 Te1 2.521043 1_555
Cl1 Te1 2.481311 1_654
Cl2 Te0 2.535830 1_555
Cl3 Te1 2.501771 1_555
Cl4 Te0 2.481311 1_565
Cl5 Te0 2.501771 1_555
Cl6 Te1 2.535830 1_555
Cl7 Te0 2.521043 1_555
