# generated using pymatgen
data_Na2ErMoPO8
_symmetry_space_group_name_H-M   'P 1'
_cell_length_a   11.47746291
_cell_length_b   11.47746291
_cell_length_c   11.47746291
_cell_angle_alpha   144.99252180
_cell_angle_beta   116.05902843
_cell_angle_gamma   75.02639338
_symmetry_Int_Tables_number   1
_chemical_formula_structural   Na2ErMoPO8
_chemical_formula_sum   'Na8 Er4 Mo4 P4 O32'
_cell_volume   763.96020125
_cell_formula_units_Z   4
loop_
 _symmetry_equiv_pos_site_id
 _symmetry_equiv_pos_as_xyz
  1  'x, y, z'
loop_
 _atom_site_type_symbol
 _atom_site_label
 _atom_site_symmetry_multiplicity
 _atom_site_fract_x
 _atom_site_fract_y
 _atom_site_fract_z
 _atom_site_occupancy
  Na  Na0  1  0.79155300  0.35032500  0.44990000  1
  Na  Na1  1  0.29155300  0.84165300  0.44122800  1
  Na  Na2  1  0.20844700  0.64967500  0.55010000  1
  Na  Na3  1  0.59957500  0.65834700  0.94990000  1
  Na  Na4  1  0.90042500  0.85032500  0.05877200  1
  Na  Na5  1  0.70844700  0.15834700  0.55877200  1
  Na  Na6  1  0.09957500  0.14967500  0.94122800  1
  Na  Na7  1  0.40042500  0.34165300  0.05010000  1
  Er  Er0  1  0.32172900  0.25000000  0.57172900  1
  Er  Er1  1  0.17827100  0.75000000  0.92827100  1
  Er  Er2  1  0.67827100  0.75000000  0.42827100  1
  Er  Er3  1  0.82172900  0.25000000  0.07172900  1
  Mo  Mo0  1  0.92699100  0.67699100  0.25000000  1
  Mo  Mo1  1  0.07300900  0.32300900  0.75000000  1
  Mo  Mo2  1  0.57300900  0.82300900  0.75000000  1
  Mo  Mo3  1  0.42699100  0.17699100  0.25000000  1
  P  P0  1  0.06877200  0.25000000  0.31877200  1
  P  P1  1  0.93122800  0.75000000  0.68122800  1
  P  P2  1  0.56877200  0.25000000  0.81877200  1
  P  P3  1  0.43122800  0.75000000  0.18122800  1
  O  O0  1  0.39882300  0.81147800  0.67193500  1
  O  O1  1  0.56035000  0.32735900  0.75180600  1
  O  O2  1  0.86045700  0.68852200  0.08734500  1
  O  O3  1  0.93965000  0.69145600  0.76700900  1
  O  O4  1  0.36045700  0.27311100  0.17193500  1
  O  O5  1  0.14187000  0.06752000  0.22305600  1
  O  O6  1  0.15468300  0.16837700  0.56354900  1
  O  O7  1  0.92444700  0.19145600  0.25180600  1
  O  O8  1  0.10482800  0.59113400  0.93645100  1
  O  O9  1  0.65553500  0.08118600  0.72305600  1
  O  O10  1  0.43965000  0.67264100  0.24819400  1
  O  O11  1  0.85813000  0.93248000  0.77694400  1
  O  O12  1  0.10117700  0.77311100  0.41265500  1
  O  O13  1  0.60482800  0.66837700  0.51369400  1
  O  O14  1  0.07555300  0.80854400  0.74819400  1
  O  O15  1  0.65468300  0.09113400  0.98630600  1
  O  O16  1  0.89882300  0.22688900  0.58734500  1
  O  O17  1  0.60117700  0.18852200  0.32806500  1
  O  O18  1  0.34531700  0.90886600  0.01369400  1
  O  O19  1  0.84446500  0.56752000  0.42565100  1
  O  O20  1  0.06035000  0.30854400  0.23299100  1
  O  O21  1  0.34446500  0.91881400  0.27694400  1
  O  O22  1  0.42444700  0.17264100  0.73299100  1
  O  O23  1  0.39517200  0.33162300  0.48630600  1
  O  O24  1  0.35813000  0.58118600  0.92565100  1
  O  O25  1  0.89517200  0.40886600  0.06354900  1
  O  O26  1  0.57555300  0.82735900  0.26700900  1
  O  O27  1  0.13954300  0.31147800  0.91265500  1
  O  O28  1  0.15553500  0.43248000  0.57434900  1
  O  O29  1  0.64187000  0.41881400  0.07434900  1
  O  O30  1  0.84531700  0.83162300  0.43645100  1
  O  O31  1  0.63954300  0.72688900  0.82806500  1
loop_
_geom_bond_atom_site_label_1
_geom_bond_atom_site_label_2
_geom_bond_distance
_geom_bond_site_symmetry_2
Na0 O17 2.310157 1_555
Na0 O7 2.374657 1_555
Na0 O3 2.474924 1_555
Na0 O16 2.657988 1_555
Na1 O12 2.310163 1_555
Na1 O22 2.374657 1_565
Na1 O10 2.474924 1_555
Na1 O0 2.657998 1_555
Na2 O0 2.310157 1_555
Na2 O14 2.374657 1_555
Na2 O20 2.474924 1_555
Na2 O12 2.657988 1_555
Na3 O31 2.310168 1_555
Na3 O1 2.374657 1_555
Na3 O26 2.474924 1_556
Na3 O2 2.657998 1_556
Na4 O2 2.310157 1_555
Na4 O3 2.374657 1_554
Na4 O7 2.474924 1_565
Na4 O31 2.657998 1_554
Na5 O16 2.310163 1_555
Na5 O26 2.374657 1_545
Na5 O1 2.474924 1_555
Na5 O17 2.657998 1_555
Na6 O27 2.310157 1_555
Na6 O20 2.374657 1_556
Na6 O14 2.474924 1_545
Na6 O4 2.657998 1_556
Na7 O4 2.310168 1_555
Na7 O10 2.374657 1_555
Na7 O22 2.474924 1_554
Na7 O27 2.657998 1_554
Er0 O21 2.271435 1_545
Er0 O24 2.271435 1_555
Er0 O6 2.277779 1_555
Er0 O23 2.277779 1_555
Er0 O22 2.416198 1_555
Er0 O1 2.416198 1_555
Er0 O5 2.430779 1_555
Er0 O28 2.430789 1_555
Er1 O5 2.271431 1_566
Er1 O28 2.271433 1_555
Er1 O18 2.277779 1_556
Er1 O8 2.277779 1_555
Er1 O14 2.416198 1_555
Er1 O3 2.416198 1_455
Er1 O24 2.430782 1_555
Er1 O21 2.430782 1_556
Er2 O9 2.271435 1_565
Er2 O29 2.271435 1_555
Er2 O13 2.277779 1_555
Er2 O30 2.277779 1_555
Er2 O10 2.416198 1_555
Er2 O26 2.416198 1_555
Er2 O11 2.430779 1_555
Er2 O19 2.430789 1_555
Er3 O11 2.271431 1_544
Er3 O19 2.271433 1_555
Er3 O25 2.277779 1_555
Er3 O15 2.277779 1_554
Er3 O20 2.416198 1_655
Er3 O7 2.416198 1_555
Er3 O9 2.430782 1_554
Er3 O29 2.430782 1_555
Mo0 O12 1.784891 1_655
Mo0 O2 1.784891 1_555
Mo0 O30 1.813611 1_555
Mo0 O25 1.813611 1_555
Mo1 O16 1.784891 1_455
Mo1 O27 1.784891 1_555
Mo1 O6 1.813611 1_555
Mo1 O8 1.813611 1_555
Mo2 O31 1.784881 1_555
Mo2 O0 1.784891 1_555
Mo2 O13 1.813611 1_555
Mo2 O15 1.813611 1_565
Mo3 O4 1.784881 1_555
Mo3 O17 1.784891 1_555
Mo3 O23 1.813611 1_555
Mo3 O18 1.813611 1_545
O1 P2 1.548136 1_555
O3 P1 1.548136 1_555
O5 P0 1.558813 1_555
O7 P0 1.548136 1_655
O9 P2 1.558806 1_555
O10 P3 1.548136 1_555
O11 P1 1.558813 1_555
O14 P1 1.548136 1_455
O19 P1 1.558805 1_555
O20 P0 1.548136 1_555
O21 P3 1.558806 1_555
O22 P2 1.548136 1_555
O24 P3 1.558806 1_556
O26 P3 1.548136 1_555
O28 P0 1.558805 1_555
O29 P2 1.558806 1_554
