# generated using pymatgen
data_FeBiO3
_symmetry_space_group_name_H-M   'P 1'
_cell_length_a   5.49897398
_cell_length_b   5.49897004
_cell_length_c   5.49897076
_cell_angle_alpha   59.71108546
_cell_angle_beta   59.71107706
_cell_angle_gamma   59.71120248
_symmetry_Int_Tables_number   1
_chemical_formula_structural   FeBiO3
_chemical_formula_sum   'Fe2 Bi2 O6'
_cell_volume   116.80742899
_cell_formula_units_Z   2
loop_
 _symmetry_equiv_pos_site_id
 _symmetry_equiv_pos_as_xyz
  1  'x, y, z'
loop_
 _atom_site_type_symbol
 _atom_site_label
 _atom_site_symmetry_multiplicity
 _atom_site_fract_x
 _atom_site_fract_y
 _atom_site_fract_z
 _atom_site_occupancy
  Fe  Fe0  1  0.72008484  0.72008684  0.72008484  1
  Fe  Fe1  1  0.21155496  0.21155496  0.21155496  1
  Bi  Bi0  1  0.49364027  0.49363927  0.49363927  1
  Bi  Bi1  1  0.98997799  0.98997799  0.98997899  1
  O  O0  1  0.90553046  0.43474092  0.03019808  1
  O  O1  1  0.43474192  0.03019808  0.90553046  1
  O  O2  1  0.03019808  0.90553146  0.43474092  1
  O  O3  1  0.51925629  0.94527742  0.39173677  1
  O  O4  1  0.39173577  0.51925629  0.94527742  1
  O  O5  1  0.94527742  0.39173577  0.51925729  1
loop_
_geom_bond_atom_site_label_1
_geom_bond_atom_site_label_2
_geom_bond_distance
_geom_bond_site_symmetry_2
Fe0 O1 1.962396 1_565
Fe0 O2 1.962398 1_655
Fe0 O0 1.962405 1_556
Fe0 O3 2.095155 1_555
Fe0 O4 2.095163 1_555
Fe0 O5 2.095163 1_555
Fe1 O2 1.925510 1_545
Fe1 O1 1.925517 1_554
Fe1 O0 1.925519 1_455
Fe1 O4 1.928008 1_554
Fe1 O5 1.928015 1_455
Fe1 O3 1.928016 1_545
Bi0 O4 2.317604 1_555
Bi0 O3 2.317604 1_555
Bi0 O5 2.317605 1_555
Bi0 O0 2.449429 1_555
Bi0 O1 2.449429 1_555
Bi0 O2 2.449440 1_555
Bi1 O2 2.354267 1_656
Bi1 O0 2.354268 1_566
Bi1 O1 2.354275 1_665
Bi1 O3 2.442748 1_556
Bi1 O5 2.442748 1_565
Bi1 O4 2.442753 1_655
