# generated using pymatgen
data_SrCrF4
_symmetry_space_group_name_H-M   'P 1'
_cell_length_a   6.76213200
_cell_length_b   6.76213200
_cell_length_c   6.76213200
_cell_angle_alpha   130.24633049
_cell_angle_beta   130.24633049
_cell_angle_gamma   73.01327105
_symmetry_Int_Tables_number   1
_chemical_formula_structural   SrCrF4
_chemical_formula_sum   'Sr2 Cr2 F8'
_cell_volume   175.92742695
_cell_formula_units_Z   2
loop_
 _symmetry_equiv_pos_site_id
 _symmetry_equiv_pos_as_xyz
  1  'x, y, z'
loop_
 _atom_site_type_symbol
 _atom_site_label
 _atom_site_symmetry_multiplicity
 _atom_site_fract_x
 _atom_site_fract_y
 _atom_site_fract_z
 _atom_site_occupancy
  Sr  Sr0  1  0.75000000  0.75000000  -0.00000000  1
  Sr  Sr1  1  0.25000000  0.25000000  -0.00000000  1
  Cr  Cr0  1  -0.00000000  0.50000000  0.50000000  1
  Cr  Cr1  1  0.50000000  -0.00000000  0.50000000  1
  F  F0  1  0.45048236  0.95048236  0.14893648  1
  F  F1  1  0.19845412  0.69845412  0.14893648  1
  F  F2  1  0.54951764  0.04951764  0.85106352  1
  F  F3  1  0.04951764  0.19845412  0.50000000  1
  F  F4  1  0.80154588  0.30154588  0.85106352  1
  F  F5  1  0.30154588  0.45048236  0.50000000  1
  F  F6  1  0.95048236  0.80154588  0.50000000  1
  F  F7  1  0.69845412  0.54951764  0.50000000  1
loop_
_geom_bond_atom_site_label_1
_geom_bond_atom_site_label_2
_geom_bond_distance
_geom_bond_site_symmetry_2
Cr0 F7 1.967504 1_455
Cr0 F5 1.967504 1_555
Cr0 F3 1.967504 1_555
Cr0 F6 1.967504 1_455
Cr1 F1 1.967504 1_545
Cr1 F0 1.967504 1_545
Cr1 F4 1.967504 1_555
Cr1 F2 1.967504 1_555
F0 Sr0 2.494293 1_555
F0 Sr1 2.494293 1_565
F1 Sr0 2.494293 1_455
F1 Sr1 2.494293 1_555
F2 Sr0 2.494293 1_546
F2 Sr1 2.494293 1_556
F3 Sr0 2.494293 1_445
F3 Sr1 2.494293 1_556
F4 Sr1 2.494293 1_656
F4 Sr0 2.494293 1_556
F5 Sr1 2.494293 1_555
F5 Sr0 2.494293 1_556
F6 Sr1 2.494293 1_666
F6 Sr0 2.494293 1_555
F7 Sr0 2.494293 1_556
F7 Sr1 2.494293 1_555
