# generated using pymatgen
data_Al2VCl8
_symmetry_space_group_name_H-M   'P 1'
_cell_length_a   9.40497040
_cell_length_b   9.40499154
_cell_length_c   11.67031168
_cell_angle_alpha   53.98517565
_cell_angle_beta   53.98491580
_cell_angle_gamma   50.30489304
_symmetry_Int_Tables_number   1
_chemical_formula_structural   Al2VCl8
_chemical_formula_sum   'Al4 V2 Cl16'
_cell_volume   603.88888760
_cell_formula_units_Z   2
loop_
 _symmetry_equiv_pos_site_id
 _symmetry_equiv_pos_as_xyz
  1  'x, y, z'
loop_
 _atom_site_type_symbol
 _atom_site_label
 _atom_site_symmetry_multiplicity
 _atom_site_fract_x
 _atom_site_fract_y
 _atom_site_fract_z
 _atom_site_occupancy
  Al  Al0  1  0.33138645  0.83900417  0.46741428  1
  Al  Al1  1  0.16099249  0.66861555  0.03258668  1
  Al  Al2  1  0.66861119  0.16099727  0.53258801  1
  Al  Al3  1  0.83900776  0.33138506  0.96741182  1
  V  V0  1  0.00175554  0.99824480  0.74999984  1
  V  V1  1  0.99824319  0.00175640  0.25000078  1
  Cl  Cl0  1  0.62610889  0.68689146  0.44867550  1
  Cl  Cl1  1  0.37388979  0.31309408  0.55133081  1
  Cl  Cl2  1  0.86940322  0.81978820  0.02299201  1
  Cl  Cl3  1  0.29170598  0.84752923  0.81518694  1
  Cl  Cl4  1  0.13058803  0.18020611  0.97701796  1
  Cl  Cl5  1  0.15246822  0.70829411  0.68481471  1
  Cl  Cl6  1  0.68691479  0.62610618  0.94866849  1
  Cl  Cl7  1  0.70830146  0.15246867  0.18481591  1
  Cl  Cl8  1  0.14413918  0.68583397  0.21787978  1
  Cl  Cl9  1  0.81978438  0.86942038  0.52298126  1
  Cl  Cl10  1  0.85586038  0.31417739  0.78211848  1
  Cl  Cl11  1  0.84753470  0.29169878  0.31518257  1
  Cl  Cl12  1  0.18021106  0.13059598  0.47700734  1
  Cl  Cl13  1  0.31416936  0.85584774  0.28212445  1
  Cl  Cl14  1  0.31310550  0.37389585  0.05132489  1
  Cl  Cl15  1  0.68581944  0.14414562  0.71787850  1
loop_
_geom_bond_atom_site_label_1
_geom_bond_atom_site_label_2
_geom_bond_distance
_geom_bond_site_symmetry_2
Al0 Cl0 2.089793 1_555
Al0 Cl13 2.168735 1_555
Al0 Cl5 2.175719 1_555
Al0 Cl12 2.178981 1_565
Al1 Cl14 2.089781 1_555
Al1 Cl8 2.168729 1_555
Al1 Cl3 2.175712 1_554
Al1 Cl2 2.178967 1_455
Al2 Cl1 2.089788 1_555
Al2 Cl15 2.168649 1_555
Al2 Cl11 2.175734 1_555
Al2 Cl9 2.178928 1_545
Al3 Cl6 2.089794 1_555
Al3 Cl10 2.168673 1_555
Al3 Cl7 2.175717 1_556
Al3 Cl4 2.178937 1_655
Cl2 V0 2.496653 1_654
Cl3 V0 2.501642 1_555
Cl4 V1 2.496561 1_456
Cl5 V0 2.501640 1_555
Cl7 V1 2.501561 1_555
Cl8 V1 2.519641 1_465
Cl9 V1 2.496549 1_565
Cl10 V0 2.519717 1_645
Cl11 V1 2.501558 1_555
Cl12 V0 2.496649 1_545
Cl13 V1 2.519650 1_465
Cl15 V0 2.519743 1_645
