# generated using pymatgen
data_Pb5SO8
_symmetry_space_group_name_H-M   'P 1'
_cell_length_a   11.77648465
_cell_length_b   7.33947494
_cell_length_c   11.64704757
_cell_angle_alpha   89.16667231
_cell_angle_beta   90.00000000
_cell_angle_gamma   90.00000000
_symmetry_Int_Tables_number   1
_chemical_formula_structural   Pb5SO8
_chemical_formula_sum   'Pb20 S4 O32'
_cell_volume   1006.58527971
_cell_formula_units_Z   4
loop_
 _symmetry_equiv_pos_site_id
 _symmetry_equiv_pos_as_xyz
  1  'x, y, z'
loop_
 _atom_site_type_symbol
 _atom_site_label
 _atom_site_symmetry_multiplicity
 _atom_site_fract_x
 _atom_site_fract_y
 _atom_site_fract_z
 _atom_site_occupancy
  Pb  Pb0  1  0.75731789  0.11093273  0.61364326  1
  Pb  Pb1  1  0.25731789  0.88906727  0.88635674  1
  Pb  Pb2  1  0.24268211  0.88906727  0.38635674  1
  Pb  Pb3  1  0.74268211  0.11093273  0.11364326  1
  Pb  Pb4  1  0.09103880  0.12289455  0.60934051  1
  Pb  Pb5  1  0.59103880  0.87710545  0.89065949  1
  Pb  Pb6  1  0.90896120  0.87710545  0.39065949  1
  Pb  Pb7  1  0.40896120  0.12289455  0.10934051  1
  Pb  Pb8  1  0.73977296  0.63051579  0.61313760  1
  Pb  Pb9  1  0.23977296  0.36948421  0.88686240  1
  Pb  Pb10  1  0.26022704  0.36948421  0.38686240  1
  Pb  Pb11  1  0.76022704  0.63051579  0.11313760  1
  Pb  Pb12  1  0.94005766  0.37407241  0.38327163  1
  Pb  Pb13  1  0.44005766  0.62592759  0.11672837  1
  Pb  Pb14  1  0.05994234  0.62592759  0.61672837  1
  Pb  Pb15  1  0.55994234  0.37407241  0.88327163  1
  Pb  Pb16  1  0.57926371  0.86556267  0.37268791  1
  Pb  Pb17  1  0.07926371  0.13443733  0.12731209  1
  Pb  Pb18  1  0.42073629  0.13443733  0.62731209  1
  Pb  Pb19  1  0.92073629  0.86556267  0.87268791  1
  S  S0  1  0.89477945  0.35550027  0.84693881  1
  S  S1  1  0.39477945  0.64449973  0.65306119  1
  S  S2  1  0.10522055  0.64449973  0.15306119  1
  S  S3  1  0.60522055  0.35550027  0.34693881  1
  O  O0  1  0.08374531  0.86678740  0.49104432  1
  O  O1  1  0.58374531  0.13321260  0.00895568  1
  O  O2  1  0.91625469  0.13321260  0.50895568  1
  O  O3  1  0.41625469  0.86678740  0.99104432  1
  O  O4  1  0.90028872  0.60807925  0.50174317  1
  O  O5  1  0.40028872  0.39192075  0.99825683  1
  O  O6  1  0.09971128  0.39192075  0.49825683  1
  O  O7  1  0.59971128  0.60807925  0.00174317  1
  O  O8  1  0.72630586  0.87277228  0.48909744  1
  O  O9  1  0.22630586  0.12722772  0.01090256  1
  O  O10  1  0.27369414  0.12722772  0.51090256  1
  O  O11  1  0.77369414  0.87277228  0.98909744  1
  O  O12  1  0.82681363  0.86275932  0.70796770  1
  O  O13  1  0.32681363  0.13724068  0.79203230  1
  O  O14  1  0.17318637  0.13724068  0.29203230  1
  O  O15  1  0.67318637  0.86275932  0.20796770  1
  O  O16  1  0.90793078  0.37344180  0.72010438  1
  O  O17  1  0.40793078  0.62655820  0.77989562  1
  O  O18  1  0.09206922  0.62655820  0.27989562  1
  O  O19  1  0.59206922  0.37344180  0.22010438  1
  O  O20  1  0.79627750  0.23601248  0.87257909  1
  O  O21  1  0.29627750  0.76398752  0.62742091  1
  O  O22  1  0.20372250  0.76398752  0.12742091  1
  O  O23  1  0.70372250  0.23601248  0.37257909  1
  O  O24  1  0.87169739  0.53870902  0.89468300  1
  O  O25  1  0.37169739  0.46129098  0.60531700  1
  O  O26  1  0.12830261  0.46129098  0.10531700  1
  O  O27  1  0.62830261  0.53870902  0.39468300  1
  O  O28  1  0.99801462  0.27426709  0.89699741  1
  O  O29  1  0.49801462  0.72573291  0.60300259  1
  O  O30  1  0.00198538  0.72573291  0.10300259  1
  O  O31  1  0.50198538  0.27426709  0.39699741  1
loop_
_geom_bond_atom_site_label_1
_geom_bond_atom_site_label_2
_geom_bond_distance
_geom_bond_site_symmetry_2
O0 Pb2 2.238517 1_555
O0 Pb14 2.295913 1_555
O0 Pb4 2.348252 1_565
O0 Pb6 2.367896 1_455
O1 Pb3 2.238517 1_555
O1 Pb15 2.295913 1_554
O1 Pb5 2.348252 1_544
O1 Pb7 2.367896 1_555
O2 Pb0 2.238517 1_555
O2 Pb12 2.295913 1_555
O2 Pb6 2.348252 1_545
O2 Pb4 2.367896 1_655
O3 Pb1 2.238517 1_555
O3 Pb13 2.295913 1_556
O3 Pb7 2.348252 1_566
O3 Pb5 2.367896 1_555
O4 Pb12 2.267599 1_555
O4 Pb8 2.299978 1_555
O4 Pb14 2.313183 1_655
O4 Pb6 2.347068 1_555
O5 Pb13 2.267599 1_556
O5 Pb9 2.299978 1_555
O5 Pb15 2.313183 1_555
O5 Pb7 2.347068 1_556
O6 Pb14 2.267599 1_555
O6 Pb10 2.299978 1_555
O6 Pb12 2.313183 1_455
O6 Pb4 2.347068 1_555
O7 Pb15 2.267599 1_554
O7 Pb11 2.299978 1_555
O7 Pb13 2.313183 1_555
O7 Pb5 2.347068 1_554
O8 Pb16 2.200393 1_555
O8 Pb8 2.280133 1_555
O8 Pb0 2.316626 1_565
O8 Pb6 2.437499 1_555
O9 Pb17 2.200393 1_555
O9 Pb9 2.280133 1_554
O9 Pb1 2.316626 1_544
O9 Pb7 2.437499 1_555
O10 Pb18 2.200393 1_555
O10 Pb10 2.280133 1_555
O10 Pb2 2.316626 1_545
O10 Pb4 2.437499 1_555
O11 Pb19 2.200393 1_555
O11 Pb11 2.280133 1_556
O11 Pb3 2.316626 1_566
O11 Pb5 2.437499 1_555
O12 Pb19 2.214868 1_555
O12 Pb0 2.266329 1_565
O12 Pb8 2.287101 1_555
O13 Pb18 2.214868 1_555
O13 Pb1 2.266329 1_545
O13 Pb9 2.287101 1_555
O14 Pb17 2.214868 1_555
O14 Pb2 2.266329 1_545
O14 Pb10 2.287101 1_555
O15 Pb16 2.214868 1_555
O15 Pb3 2.266329 1_565
O15 Pb11 2.287101 1_555
O16 S0 1.489270 1_555
O17 S1 1.489270 1_555
O18 S2 1.489270 1_555
O19 S3 1.489270 1_555
O20 S0 1.481982 1_555
O21 S1 1.481982 1_555
O22 S2 1.481982 1_555
O23 S3 1.481982 1_555
O24 S0 1.487603 1_555
O24 Pb19 2.477125 1_555
O25 S1 1.487603 1_555
O25 Pb18 2.477125 1_555
O26 S2 1.487603 1_555
O26 Pb17 2.477125 1_555
O27 S3 1.487603 1_555
O27 Pb16 2.477125 1_555
O28 S0 1.470825 1_555
O29 S1 1.470825 1_555
O30 S2 1.470825 1_555
O31 S3 1.470825 1_555
