# generated using pymatgen
data_SrV2(P2O7)2
_symmetry_space_group_name_H-M   'P 1'
_cell_length_a   4.89042400
_cell_length_b   7.19238146
_cell_length_c   8.06724991
_cell_angle_alpha   89.47740566
_cell_angle_beta   92.85619554
_cell_angle_gamma   106.00817128
_symmetry_Int_Tables_number   1
_chemical_formula_structural   SrV2(P2O7)2
_chemical_formula_sum   'Sr1 V2 P4 O14'
_cell_volume   272.41043501
_cell_formula_units_Z   1
loop_
 _symmetry_equiv_pos_site_id
 _symmetry_equiv_pos_as_xyz
  1  'x, y, z'
loop_
 _atom_site_type_symbol
 _atom_site_label
 _atom_site_symmetry_multiplicity
 _atom_site_fract_x
 _atom_site_fract_y
 _atom_site_fract_z
 _atom_site_occupancy
  Sr  Sr0  1  0.00000000  0.00000000  0.00000000  1
  V  V0  1  0.50000000  0.50000000  0.00000000  1
  V  V1  1  0.00000000  0.00000000  0.50000000  1
  P  P0  1  0.98244200  0.38752300  0.24869000  1
  P  P1  1  0.01755800  0.61247700  0.75131000  1
  P  P2  1  0.38383700  0.77710200  0.29286400  1
  P  P3  1  0.61616300  0.22289800  0.70713600  1
  O  O0  1  0.07996700  0.78875300  0.64202400  1
  O  O1  1  0.92003300  0.21124700  0.35797600  1
  O  O2  1  0.28381900  0.54974300  0.79758500  1
  O  O3  1  0.71618100  0.45025700  0.20241500  1
  O  O4  1  0.13178200  0.34622300  0.09255800  1
  O  O5  1  0.86821800  0.65377700  0.90744200  1
  O  O6  1  0.20672300  0.56120300  0.34681900  1
  O  O7  1  0.51653700  0.23445900  0.88600600  1
  O  O8  1  0.48346300  0.76554100  0.11399400  1
  O  O9  1  0.82113400  0.09351200  0.71069700  1
  O  O10  1  0.17886600  0.90648800  0.28930300  1
  O  O11  1  0.37924300  0.16820200  0.57423900  1
  O  O12  1  0.62075700  0.83179800  0.42576100  1
  O  O13  1  0.79327700  0.43879700  0.65318100  1
loop_
_geom_bond_atom_site_label_1
_geom_bond_atom_site_label_2
_geom_bond_distance
_geom_bond_site_symmetry_2
O0 P1 1.506939 1_555
O0 V1 2.006355 1_565
O1 P0 1.506939 1_555
O1 V1 2.006355 1_655
O2 P1 1.520205 1_555
O2 V0 1.984462 1_556
O3 P0 1.520205 1_555
O3 V0 1.984462 1_555
O4 P0 1.557647 1_455
O4 V0 2.010955 1_555
O4 Sr0 2.504922 1_555
O5 P1 1.557647 1_655
O5 V0 2.010955 1_556
O5 Sr0 2.504922 1_666
O6 P0 1.601862 1_455
O6 P2 1.623077 1_555
O7 P3 1.555990 1_555
O7 V0 2.150463 1_556
O7 Sr0 2.814998 1_556
O8 P2 1.555990 1_555
O8 V0 2.150463 1_555
O8 Sr0 2.814998 1_665
O9 P3 1.543621 1_555
O9 V1 2.144798 1_655
O9 Sr0 2.599404 1_656
O10 P2 1.543621 1_555
O10 V1 2.144798 1_565
O10 Sr0 2.599404 1_565
O11 P3 1.509679 1_555
O11 V1 1.981665 1_555
O12 P2 1.509679 1_555
O12 V1 1.981665 1_665
O13 P1 1.601862 1_655
O13 P3 1.623077 1_555
