# generated using pymatgen
data_MgAl2O4
_symmetry_space_group_name_H-M   'P 1'
_cell_length_a   5.71143100
_cell_length_b   5.71143100
_cell_length_c   32.83957367
_cell_angle_alpha   84.94928670
_cell_angle_beta   84.94928670
_cell_angle_gamma   59.93990688
_symmetry_Int_Tables_number   1
_chemical_formula_structural   MgAl2O4
_chemical_formula_sum   'Mg14 Al28 O56'
_cell_volume   922.35982872
_cell_formula_units_Z   14
loop_
 _symmetry_equiv_pos_site_id
 _symmetry_equiv_pos_as_xyz
  1  'x, y, z'
loop_
 _atom_site_type_symbol
 _atom_site_label
 _atom_site_symmetry_multiplicity
 _atom_site_fract_x
 _atom_site_fract_y
 _atom_site_fract_z
 _atom_site_occupancy
  Mg  Mg0  1  0.65950525  0.65950525  0.02038476  1
  Mg  Mg1  1  -0.00035167  -0.00035167  0.00141477  1
  Mg  Mg2  1  0.43092094  0.43092094  0.21419327  1
  Mg  Mg3  1  0.23166205  0.23166205  0.30164858  1
  Mg  Mg4  1  0.51808883  0.51808883  0.44625230  1
  Mg  Mg5  1  0.62514140  0.62514140  0.12442042  1
  Mg  Mg6  1  0.91504823  0.91504823  0.26904641  1
  Mg  Mg7  1  0.80418436  0.80418436  0.58915152  1
  Mg  Mg8  1  0.19652139  0.19652139  0.41053490  1
  Mg  Mg9  1  0.08882339  0.08882339  0.73190957  1
  Mg  Mg10  1  0.37510434  0.37510434  0.87496258  1
  Mg  Mg11  1  0.48265231  0.48265231  0.55336699  1
  Mg  Mg12  1  0.76747301  0.76747301  0.69620220  1
  Mg  Mg13  1  0.05323420  0.05323420  0.83966438  1
  Al  Al0  1  0.94129675  0.94129675  0.16095034  1
  Al  Al1  1  0.64405544  0.14103792  0.07179738  1
  Al  Al2  1  0.28409361  0.28409361  0.14175134  1
  Al  Al3  1  0.14103792  0.64405544  0.07179738  1
  Al  Al4  1  0.14065623  0.14065623  0.07173396  1
  Al  Al5  1  0.92132002  0.43254590  0.21495229  1
  Al  Al6  1  0.57256557  0.57256557  0.28583223  1
  Al  Al7  1  0.43254590  0.92132002  0.21495229  1
  Al  Al8  1  0.21511171  0.71438034  0.35719382  1
  Al  Al9  1  0.00000488  0.00000488  0.49995482  1
  Al  Al10  1  0.85746395  0.85746395  0.42851405  1
  Al  Al11  1  0.71438034  0.21511171  0.35719382  1
  Al  Al12  1  0.71479247  0.71479247  0.35737076  1
  Al  Al13  1  0.50030085  0.00009673  0.49994004  1
  Al  Al14  1  0.14317028  0.14317028  0.57120604  1
  Al  Al15  1  0.00009673  0.50030085  0.49994004  1
  Al  Al16  1  0.28557913  0.78589830  0.64271781  1
  Al  Al17  1  0.57109191  0.57109191  0.78548185  1
  Al  Al18  1  0.78589830  0.28557913  0.64271781  1
  Al  Al19  1  0.42836535  0.42836535  0.71397818  1
  Al  Al20  1  0.28549364  0.28549364  0.64271365  1
  Al  Al21  1  0.07200741  0.57098205  0.78547832  1
  Al  Al22  1  0.85490066  0.85490066  0.92834343  1
  Al  Al23  1  0.71449253  0.71449253  0.85640332  1
  Al  Al24  1  0.85496908  0.36163544  0.92831278  1
  Al  Al25  1  0.57098205  0.07200741  0.78547832  1
  Al  Al26  1  0.36163544  0.85496908  0.92831278  1
  Al  Al27  1  0.33961471  0.33961471  0.98086675  1
  O  O0  1  0.29057847  0.83280981  0.04153912  1
  O  O1  1  0.96379425  0.96379425  0.10574811  1
  O  O2  1  0.83280981  0.29057847  0.04153912  1
  O  O3  1  0.83335320  0.83335320  0.04148766  1
  O  O4  1  0.44404961  0.44404961  0.10417877  1
  O  O5  1  0.58705099  0.10519339  0.17594595  1
  O  O6  1  0.24383948  0.24383948  0.24135698  1
  O  O7  1  0.10519339  0.58705099  0.17594595  1
  O  O8  1  0.44304729  0.00547928  0.10366860  1
  O  O9  1  0.32113361  0.32113361  0.03595602  1
  O  O10  1  0.11241858  0.11241858  0.17722471  1
  O  O11  1  0.00547928  0.44304729  0.10366860  1
  O  O12  1  0.73872290  0.73872290  0.24772210  1
  O  O13  1  0.85760406  0.41187135  0.32392979  1
  O  O14  1  0.53743364  0.53743364  0.38716883  1
  O  O15  1  0.41187135  0.85760406  0.32392979  1
  O  O16  1  0.74717826  0.28787252  0.24985100  1
  O  O17  1  0.61555497  0.61555497  0.18307066  1
  O  O18  1  0.40980212  0.40980212  0.32339188  1
  O  O19  1  0.28787252  0.74717826  0.24985100  1
  O  O20  1  0.14199933  0.69587804  0.46667737  1
  O  O21  1  0.01806986  0.01806986  0.39143237  1
  O  O22  1  0.69587804  0.14199933  0.46667737  1
  O  O23  1  0.01823636  0.57323458  0.39150841  1
  O  O24  1  0.89138849  0.89138849  0.32811240  1
  O  O25  1  0.82335845  0.82335845  0.53010115  1
  O  O26  1  0.69587709  0.69587709  0.46667572  1
  O  O27  1  0.57323458  0.01823636  0.39150841  1
  O  O28  1  0.30381872  0.30381872  0.53412921  1
  O  O29  1  0.42769017  0.98145901  0.60943631  1
  O  O30  1  0.10891724  0.10891724  0.67287423  1
  O  O31  1  0.30361195  0.85897227  0.53414480  1
  O  O32  1  0.98145901  0.42769017  0.60943631  1
  O  O33  1  0.17663375  0.17663375  0.47038949  1
  O  O34  1  0.98177248  0.98177248  0.60944690  1
  O  O35  1  0.85897227  0.30361195  0.53414480  1
  O  O36  1  0.58906570  0.58906570  0.67691920  1
  O  O37  1  0.71271571  0.26728762  0.75219829  1
  O  O38  1  0.39457437  0.39457437  0.81576668  1
  O  O39  1  0.26728762  0.71271571  0.75219829  1
  O  O40  1  0.58925423  0.14414793  0.67692453  1
  O  O41  1  0.46221810  0.46221810  0.61317616  1
  O  O42  1  0.26703968  0.26703968  0.75220114  1
  O  O43  1  0.14414793  0.58925423  0.67692453  1
  O  O44  1  0.99687584  0.55430490  0.89446979  1
  O  O45  1  0.87543130  0.87543130  0.81964042  1
  O  O46  1  0.87542344  0.42916962  0.81966640  1
  O  O47  1  0.74790833  0.74790833  0.75603515  1
  O  O48  1  0.68006970  0.68006970  0.95920115  1
  O  O49  1  0.55430490  0.99687584  0.89446979  1
  O  O50  1  0.55432253  0.55432253  0.89446136  1
  O  O51  1  0.42916962  0.87542344  0.81966640  1
  O  O52  1  0.17589735  0.17589735  0.96090447  1
  O  O53  1  0.17575448  0.68728442  0.96089011  1
  O  O54  1  0.03319131  0.03319131  0.90045591  1
  O  O55  1  0.68728442  0.17575448  0.96089011  1
loop_
_geom_bond_atom_site_label_1
_geom_bond_atom_site_label_2
_geom_bond_distance
_geom_bond_site_symmetry_2
Mg0 O0 1.917321 1_555
Mg0 O2 1.917321 1_555
Mg0 O3 1.918865 1_555
Mg0 O48 1.998841 1_554
Mg1 O0 1.995861 1_545
Mg1 O2 1.995861 1_455
Mg1 O3 1.999887 1_445
Mg1 O52 2.083266 1_554
Mg1 O53 2.085718 1_544
Mg1 O55 2.085718 1_454
Mg2 O6 1.971613 1_555
Mg2 O17 2.000784 1_555
Mg2 O16 2.006714 1_555
Mg2 O19 2.006714 1_555
Mg2 O7 2.094283 1_555
Mg2 O5 2.094283 1_555
Mg3 O15 1.952806 1_545
Mg3 O13 1.952806 1_455
Mg3 O18 1.968016 1_555
Mg3 O6 1.971353 1_555
Mg4 O14 1.930239 1_555
Mg4 O20 1.943212 1_555
Mg4 O22 1.943212 1_555
Mg4 O26 1.945457 1_555
Mg5 O17 1.918731 1_555
Mg5 O11 1.966128 1_655
Mg5 O8 1.966128 1_565
Mg5 O4 1.973627 1_555
Mg6 O19 1.917180 1_655
Mg6 O16 1.917180 1_565
Mg6 O24 1.930014 1_555
Mg6 O12 1.945033 1_555
Mg7 O25 1.929163 1_555
Mg7 O34 1.941763 1_555
Mg7 O32 1.943752 1_555
Mg7 O29 1.943752 1_555
Mg8 O21 1.933122 1_555
Mg8 O27 1.933131 1_555
Mg8 O23 1.933131 1_555
Mg8 O33 1.955425 1_555
Mg9 O30 1.928659 1_555
Mg9 O39 1.941986 1_545
Mg9 O37 1.941986 1_455
Mg9 O42 1.947552 1_555
Mg10 O38 1.933910 1_555
Mg10 O44 1.944552 1_455
Mg10 O49 1.944552 1_545
Mg10 O50 1.945755 1_555
Mg11 O35 1.933045 1_555
Mg11 O31 1.933045 1_555
Mg11 O28 1.938556 1_555
Mg11 O41 1.953941 1_555
Mg12 O36 1.935189 1_555
Mg12 O40 1.935209 1_565
Mg12 O43 1.935209 1_655
Mg12 O47 1.954725 1_555
Mg13 O46 1.938419 1_455
Mg13 O51 1.938419 1_545
Mg13 O45 1.939901 1_445
Mg13 O54 1.986037 1_555
Al0 O5 1.794621 1_565
Al0 O7 1.794621 1_655
Al0 O1 1.803841 1_555
Al0 O10 1.826732 1_665
Al1 O3 1.860894 1_545
Al1 O2 1.861031 1_555
Al1 O8 1.883909 1_555
Al1 O4 1.886904 1_555
Al1 O1 1.977494 1_545
Al1 O9 2.028179 1_555
Al2 O11 1.903591 1_555
Al2 O8 1.903591 1_555
Al2 O4 1.905482 1_555
Al2 O5 1.915177 1_555
Al2 O7 1.915177 1_555
Al2 O10 1.959789 1_555
Al3 O3 1.860894 1_455
Al3 O0 1.861031 1_555
Al3 O11 1.883909 1_555
Al3 O4 1.886904 1_555
Al3 O1 1.977494 1_455
Al3 O9 2.028179 1_555
Al4 O0 1.859321 1_545
Al4 O2 1.859321 1_455
Al4 O11 1.875961 1_555
Al4 O8 1.875961 1_555
Al4 O1 1.978217 1_445
Al4 O9 2.035548 1_555
Al5 O6 1.853214 1_655
Al5 O16 1.855078 1_555
Al5 O17 1.881229 1_555
Al5 O12 1.900108 1_555
Al5 O7 2.003732 1_655
Al5 O10 2.056895 1_655
Al6 O16 1.881738 1_555
Al6 O19 1.881738 1_555
Al6 O18 1.926578 1_555
Al6 O13 1.928085 1_555
Al6 O15 1.928085 1_555
Al6 O12 1.962518 1_555
Al7 O6 1.853214 1_565
Al7 O19 1.855078 1_555
Al7 O17 1.881229 1_555
Al7 O12 1.900108 1_555
Al7 O5 2.003732 1_565
Al7 O10 2.056895 1_565
Al8 O24 1.902879 1_455
Al8 O14 1.912949 1_555
Al8 O15 1.916445 1_555
Al8 O18 1.918226 1_555
Al8 O21 1.924651 1_565
Al8 O23 1.925912 1_555
Al9 O20 1.906844 1_545
Al9 O22 1.906844 1_455
Al9 O33 1.911193 1_555
Al9 O25 1.919340 1_445
Al9 O35 1.923696 1_455
Al9 O31 1.923696 1_545
Al10 O23 1.900742 1_655
Al10 O27 1.900742 1_565
Al10 O21 1.901403 1_665
Al10 O22 1.927643 1_565
Al10 O20 1.927643 1_655
Al10 O26 1.928728 1_555
Al11 O24 1.902879 1_545
Al11 O14 1.912949 1_555
Al11 O13 1.916445 1_555
Al11 O18 1.918226 1_555
Al11 O21 1.924651 1_655
Al11 O27 1.925912 1_555
Al12 O13 1.904648 1_555
Al12 O15 1.904648 1_555
Al12 O24 1.906749 1_555
Al12 O14 1.920601 1_555
Al12 O27 1.921678 1_565
Al12 O23 1.921678 1_655
Al13 O22 1.906313 1_555
Al13 O26 1.906573 1_545
Al13 O33 1.911015 1_555
Al13 O25 1.919455 1_545
Al13 O31 1.923251 1_545
Al13 O28 1.923522 1_555
Al14 O28 1.901639 1_555
Al14 O35 1.901853 1_455
Al14 O31 1.901853 1_545
Al14 O34 1.928774 1_445
Al14 O29 1.929085 1_545
Al14 O32 1.929085 1_455
Al15 O20 1.906313 1_555
Al15 O26 1.906573 1_455
Al15 O33 1.911015 1_555
Al15 O25 1.919455 1_455
Al15 O35 1.923251 1_455
Al15 O28 1.923522 1_555
Al16 O34 1.905264 1_455
Al16 O29 1.907337 1_555
Al16 O41 1.910911 1_555
Al16 O30 1.919206 1_565
Al16 O36 1.923042 1_555
Al16 O43 1.924250 1_555
Al17 O39 1.905762 1_555
Al17 O37 1.905762 1_555
Al17 O47 1.911182 1_555
Al17 O38 1.920176 1_555
Al17 O46 1.926235 1_555
Al17 O51 1.926235 1_555
Al18 O34 1.905264 1_545
Al18 O32 1.907337 1_555
Al18 O41 1.910911 1_555
Al18 O30 1.919206 1_655
Al18 O36 1.923042 1_555
Al18 O40 1.924250 1_555
Al19 O36 1.901710 1_555
Al19 O40 1.901756 1_555
Al19 O43 1.901756 1_555
Al19 O42 1.927897 1_555
Al19 O39 1.928223 1_555
Al19 O37 1.928223 1_555
Al20 O29 1.906354 1_545
Al20 O32 1.906354 1_455
Al20 O41 1.911630 1_555
Al20 O30 1.918943 1_555
Al20 O43 1.924627 1_555
Al20 O40 1.924627 1_555
Al21 O39 1.904676 1_555
Al21 O42 1.905525 1_555
Al21 O47 1.910934 1_455
Al21 O38 1.919697 1_555
Al21 O46 1.925131 1_455
Al21 O45 1.925769 1_455
Al22 O54 1.903409 1_665
Al22 O49 1.904005 1_555
Al22 O44 1.904005 1_555
Al22 O48 1.914049 1_555
Al22 O55 1.955561 1_565
Al22 O53 1.955561 1_655
Al23 O45 1.898157 1_555
Al23 O46 1.899012 1_555
Al23 O51 1.899012 1_555
Al23 O50 1.916116 1_555
Al23 O49 1.917368 1_555
Al23 O44 1.917368 1_555
Al24 O54 1.901896 1_655
Al24 O44 1.903302 1_555
Al24 O50 1.903414 1_555
Al24 O48 1.913338 1_555
Al24 O55 1.956289 1_555
Al24 O52 1.956568 1_655
Al25 O37 1.904676 1_555
Al25 O42 1.905525 1_555
Al25 O47 1.910934 1_545
Al25 O38 1.919697 1_555
Al25 O51 1.925131 1_545
Al25 O45 1.925769 1_545
Al26 O54 1.901896 1_565
Al26 O49 1.903302 1_555
Al26 O50 1.903414 1_555
Al26 O48 1.913338 1_555
Al26 O53 1.956289 1_555
Al26 O52 1.956568 1_565
Al27 O9 1.799742 1_556
Al27 O53 1.807264 1_555
Al27 O55 1.807264 1_555
Al27 O52 1.808373 1_555
