# generated using pymatgen
data_BeF2
_symmetry_space_group_name_H-M   'P 1'
_cell_length_a   8.93290946
_cell_length_b   8.93290930
_cell_length_c   8.93290992
_cell_angle_alpha   93.99553457
_cell_angle_beta   93.99553050
_cell_angle_gamma   93.99553108
_symmetry_Int_Tables_number   1
_chemical_formula_structural   BeF2
_chemical_formula_sum   'Be12 F24'
_cell_volume   707.36502097
_cell_formula_units_Z   12
loop_
 _symmetry_equiv_pos_site_id
 _symmetry_equiv_pos_as_xyz
  1  'x, y, z'
loop_
 _atom_site_type_symbol
 _atom_site_label
 _atom_site_symmetry_multiplicity
 _atom_site_fract_x
 _atom_site_fract_y
 _atom_site_fract_z
 _atom_site_occupancy
  Be  Be0  1  0.12653731  0.66699720  0.89657959  1
  Be  Be1  1  0.33300280  0.87346269  0.10342041  1
  Be  Be2  1  0.89657959  0.12653731  0.66699720  1
  Be  Be3  1  0.33300280  0.10342041  0.87346269  1
  Be  Be4  1  0.66699720  0.12653731  0.89657959  1
  Be  Be5  1  0.10342041  0.33300280  0.87346269  1
  Be  Be6  1  0.66699720  0.89657959  0.12653731  1
  Be  Be7  1  0.87346269  0.10342041  0.33300280  1
  Be  Be8  1  0.89657959  0.66699720  0.12653731  1
  Be  Be9  1  0.87346269  0.33300280  0.10342041  1
  Be  Be10  1  0.12653731  0.89657959  0.66699720  1
  Be  Be11  1  0.10342041  0.87346269  0.33300280  1
  F  F0  1  0.01799899  0.01799899  0.31850998  1
  F  F1  1  0.75300786  0.75300786  0.11171760  1
  F  F2  1  0.85307141  0.50000000  0.14692859  1
  F  F3  1  0.73522622  -0.00000000  0.26477378  1
  F  F4  1  0.14692859  0.85307141  0.50000000  1
  F  F5  1  0.26477378  0.00000000  0.73522622  1
  F  F6  1  0.24699214  0.24699214  0.88828240  1
  F  F7  1  0.68149002  0.98200101  0.98200101  1
  F  F8  1  0.24699214  0.88828240  0.24699214  1
  F  F9  1  0.85307141  0.14692859  0.50000000  1
  F  F10  1  0.98200101  0.98200101  0.68149002  1
  F  F11  1  0.50000000  0.14692859  0.85307141  1
  F  F12  1  0.00000000  0.73522622  0.26477378  1
  F  F13  1  0.26477378  0.73522622  0.00000000  1
  F  F14  1  0.88828240  0.24699214  0.24699214  1
  F  F15  1  0.31850998  0.01799899  0.01799899  1
  F  F16  1  0.73522622  0.26477378  -0.00000000  1
  F  F17  1  0.75300786  0.11171760  0.75300786  1
  F  F18  1  -0.00000000  0.26477378  0.73522622  1
  F  F19  1  0.50000000  0.85307141  0.14692859  1
  F  F20  1  0.01799899  0.31850998  0.01799899  1
  F  F21  1  0.11171760  0.75300786  0.75300786  1
  F  F22  1  0.98200101  0.68149002  0.98200101  1
  F  F23  1  0.14692859  0.50000000  0.85307141  1
loop_
_geom_bond_atom_site_label_1
_geom_bond_atom_site_label_2
_geom_bond_distance
_geom_bond_site_symmetry_2
Be0 F23 1.541606 1_555
Be0 F21 1.542895 1_555
Be0 F13 1.551610 1_556
Be0 F22 1.553339 1_455
Be1 F19 1.541606 1_555
Be1 F8 1.542895 1_555
Be1 F13 1.551610 1_555
Be1 F15 1.553340 1_565
Be2 F9 1.541606 1_555
Be2 F17 1.542895 1_555
Be2 F18 1.551610 1_655
Be2 F10 1.553339 1_545
Be3 F11 1.541606 1_555
Be3 F6 1.542895 1_555
Be3 F5 1.551610 1_555
Be3 F15 1.553340 1_556
Be4 F11 1.541606 1_555
Be4 F17 1.542895 1_555
Be4 F16 1.551610 1_556
Be4 F7 1.553340 1_545
Be5 F23 1.541606 1_555
Be5 F6 1.542895 1_555
Be5 F18 1.551610 1_555
Be5 F20 1.553340 1_556
Be6 F19 1.541606 1_555
Be6 F1 1.542895 1_555
Be6 F3 1.551610 1_565
Be6 F7 1.553340 1_554
Be7 F9 1.541606 1_555
Be7 F14 1.542895 1_555
Be7 F3 1.551610 1_555
Be7 F0 1.553339 1_655
Be8 F2 1.541606 1_555
Be8 F1 1.542895 1_555
Be8 F12 1.551610 1_655
Be8 F22 1.553340 1_554
Be9 F2 1.541606 1_555
Be9 F14 1.542895 1_555
Be9 F16 1.551610 1_555
Be9 F20 1.553339 1_655
Be10 F4 1.541606 1_555
Be10 F21 1.542895 1_555
Be10 F5 1.551610 1_565
Be10 F10 1.553339 1_455
Be11 F4 1.541606 1_555
Be11 F8 1.542895 1_555
Be11 F12 1.551610 1_555
Be11 F0 1.553339 1_565
