# generated using pymatgen
data_Y4Cu7O16
_symmetry_space_group_name_H-M   'P 1'
_cell_length_a   6.22581800
_cell_length_b   10.12436496
_cell_length_c   10.26329797
_cell_angle_alpha   101.39584497
_cell_angle_beta   96.95680919
_cell_angle_gamma   97.55230694
_symmetry_Int_Tables_number   1
_chemical_formula_structural   Y4Cu7O16
_chemical_formula_sum   'Y8 Cu14 O32'
_cell_volume   621.42275191
_cell_formula_units_Z   2
loop_
 _symmetry_equiv_pos_site_id
 _symmetry_equiv_pos_as_xyz
  1  'x, y, z'
loop_
 _atom_site_type_symbol
 _atom_site_label
 _atom_site_symmetry_multiplicity
 _atom_site_fract_x
 _atom_site_fract_y
 _atom_site_fract_z
 _atom_site_occupancy
  Y  Y0  1  0.39783900  0.31459600  0.96639800  1
  Y  Y1  1  0.60216100  0.68540400  0.03360200  1
  Y  Y2  1  0.15116100  0.80693200  0.21996700  1
  Y  Y3  1  0.91231300  0.30691100  0.47367000  1
  Y  Y4  1  0.34504500  0.18201000  0.28434200  1
  Y  Y5  1  0.08768700  0.69308900  0.52633000  1
  Y  Y6  1  0.65495500  0.81799000  0.71565800  1
  Y  Y7  1  0.84883900  0.19306800  0.78003300  1
  Cu  Cu0  1  0.13498000  0.75362300  0.87867300  1
  Cu  Cu1  1  0.00000000  0.00000000  0.00000000  1
  Cu  Cu2  1  0.86502000  0.24637700  0.12132700  1
  Cu  Cu3  1  0.74723500  0.50184400  0.25075700  1
  Cu  Cu4  1  0.63294900  0.74656300  0.37308000  1
  Cu  Cu5  1  0.50000000  0.00000000  0.00000000  1
  Cu  Cu6  1  0.23898000  0.49901000  0.24241700  1
  Cu  Cu7  1  0.76592200  0.99937300  0.26164200  1
  Cu  Cu8  1  0.50000000  0.50000000  0.50000000  1
  Cu  Cu9  1  0.50000000  0.00000000  0.50000000  1
  Cu  Cu10  1  0.36705100  0.25343700  0.62692000  1
  Cu  Cu11  1  0.25276500  0.49815600  0.74924300  1
  Cu  Cu12  1  0.76102000  0.50099000  0.75758300  1
  Cu  Cu13  1  0.23407800  0.00062700  0.73835800  1
  O  O0  1  0.22818500  0.68384000  0.02253100  1
  O  O1  1  0.73634700  0.01189900  0.90165900  1
  O  O2  1  0.77181500  0.31616000  0.97746900  1
  O  O3  1  0.48218900  0.51112500  0.14756800  1
  O  O4  1  0.56855900  0.17571300  0.10927700  1
  O  O5  1  0.13651400  0.10157600  0.88796600  1
  O  O6  1  0.32649300  0.67628200  0.35377700  1
  O  O7  1  0.87953600  0.61159500  0.15122100  1
  O  O8  1  0.86348600  0.89842400  0.11203400  1
  O  O9  1  0.43144100  0.82428700  0.89072300  1
  O  O10  1  0.61234200  0.39197900  0.35883600  1
  O  O11  1  0.16915500  0.31735800  0.14239600  1
  O  O12  1  0.26365300  0.98810100  0.09834100  1
  O  O13  1  0.95488800  0.16438900  0.26566300  1
  O  O14  1  0.01113200  0.48553400  0.34977100  1
  O  O15  1  0.70347500  0.66221600  0.51480000  1
  O  O16  1  0.55996800  0.83859300  0.23953400  1
  O  O17  1  0.26049500  0.00463500  0.37848300  1
  O  O18  1  0.29652500  0.33778400  0.48520000  1
  O  O19  1  0.98886800  0.51446600  0.65022900  1
  O  O20  1  0.07439200  0.18736900  0.60955800  1
  O  O21  1  0.65184300  0.10716600  0.39922900  1
  O  O22  1  0.83084500  0.68264200  0.85760400  1
  O  O23  1  0.38765800  0.60802100  0.64116400  1
  O  O24  1  0.34815700  0.89283400  0.60077100  1
  O  O25  1  0.92560800  0.81263100  0.39044200  1
  O  O26  1  0.12046400  0.38840500  0.84877900  1
  O  O27  1  0.67350700  0.32371800  0.64622300  1
  O  O28  1  0.73950500  0.99536500  0.62151700  1
  O  O29  1  0.44003200  0.16140700  0.76046600  1
  O  O30  1  0.51781100  0.48887500  0.85243200  1
  O  O31  1  0.04511200  0.83561100  0.73433700  1
loop_
_geom_bond_atom_site_label_1
_geom_bond_atom_site_label_2
_geom_bond_distance
_geom_bond_site_symmetry_2
Cu0 O0 1.824347 1_556
Cu0 O9 1.869872 1_555
Cu0 O31 1.898350 1_555
Cu0 O22 1.905314 1_455
Cu1 O12 1.851022 1_545
Cu1 O1 1.851022 1_454
Cu1 O5 1.891120 1_554
Cu1 O8 1.891120 1_445
Cu2 O2 1.824347 1_554
Cu2 O4 1.869872 1_555
Cu2 O13 1.898350 1_555
Cu2 O11 1.905314 1_655
Cu3 O7 1.835361 1_555
Cu3 O14 1.868822 1_655
Cu3 O3 1.873527 1_555
Cu3 O10 1.908050 1_555
Cu4 O25 1.831091 1_555
Cu4 O16 1.848862 1_555
Cu4 O15 1.863424 1_555
Cu4 O6 1.918764 1_555
Cu5 O9 1.871045 1_544
Cu5 O4 1.871045 1_555
Cu5 O1 1.886690 1_554
Cu5 O12 1.886690 1_545
Cu6 O11 1.887005 1_555
Cu6 O6 1.898897 1_555
Cu6 O3 1.900218 1_555
Cu6 O14 1.905779 1_555
Cu7 O21 1.878076 1_565
Cu7 O8 1.881533 1_555
Cu7 O16 1.892151 1_555
Cu7 O13 1.902970 1_565
Cu8 O23 1.898601 1_555
Cu8 O10 1.898601 1_555
Cu8 O15 1.906051 1_555
Cu8 O18 1.906051 1_555
Cu9 O28 1.836322 1_545
Cu9 O17 1.836322 1_555
Cu9 O21 1.884464 1_555
Cu9 O24 1.884464 1_545
Cu10 O20 1.831091 1_555
Cu10 O29 1.848862 1_555
Cu10 O18 1.863424 1_555
Cu10 O27 1.918764 1_555
Cu11 O26 1.835361 1_555
Cu11 O19 1.868822 1_455
Cu11 O30 1.873527 1_555
Cu11 O23 1.908050 1_555
Cu12 O22 1.887005 1_555
Cu12 O27 1.898897 1_555
Cu12 O30 1.900218 1_555
Cu12 O19 1.905779 1_555
Cu13 O24 1.878076 1_545
Cu13 O5 1.881533 1_555
Cu13 O29 1.892151 1_555
Cu13 O31 1.902970 1_545
O0 Y2 2.298623 1_555
O0 Y1 2.315099 1_555
O1 Y6 2.403818 1_545
O1 Y7 2.488369 1_555
O2 Y7 2.298623 1_555
O2 Y0 2.315099 1_555
O3 Y0 2.391434 1_554
O3 Y1 2.391678 1_555
O4 Y4 2.398440 1_555
O4 Y0 2.467242 1_554
O5 Y7 2.377779 1_455
O5 Y0 2.453702 1_555
O6 Y2 2.358287 1_555
O6 Y5 2.441509 1_555
O7 Y1 2.277824 1_555
O7 Y2 2.355671 1_655
O8 Y2 2.377779 1_655
O8 Y1 2.453702 1_555
O9 Y6 2.398440 1_555
O9 Y1 2.467242 1_556
O10 Y3 2.430914 1_555
O10 Y4 2.447970 1_555
O11 Y0 2.429838 1_554
O11 Y4 2.448705 1_555
O12 Y4 2.403818 1_565
O12 Y2 2.488369 1_555
O13 Y4 2.393453 1_655
O13 Y3 2.393781 1_555
O14 Y5 2.439114 1_555
O14 Y3 2.464099 1_455
O15 Y5 2.356652 1_655
O15 Y6 2.412361 1_555
O16 Y1 2.426458 1_555
O16 Y2 2.501440 1_555
O17 Y4 2.235161 1_555
O17 Y2 2.281085 1_545
O18 Y3 2.356652 1_455
O18 Y4 2.412361 1_555
O19 Y3 2.439114 1_555
O19 Y5 2.464099 1_655
O20 Y3 2.252829 1_455
O20 Y7 2.369189 1_455
O21 Y3 2.351672 1_555
O21 Y4 2.408489 1_555
O22 Y1 2.429838 1_556
O22 Y6 2.448705 1_555
O23 Y5 2.430914 1_555
O23 Y6 2.447970 1_555
O24 Y5 2.351672 1_555
O24 Y6 2.408489 1_555
O25 Y5 2.252829 1_655
O25 Y2 2.369189 1_655
O26 Y0 2.277824 1_555
O26 Y7 2.355671 1_455
O27 Y7 2.358287 1_555
O27 Y3 2.441509 1_555
O28 Y6 2.235161 1_555
O28 Y7 2.281085 1_565
O29 Y0 2.426458 1_555
O29 Y7 2.501440 1_555
O30 Y1 2.391434 1_556
O30 Y0 2.391678 1_555
O31 Y6 2.393453 1_455
O31 Y5 2.393781 1_555
