# generated using pymatgen
data_Pr2Ir2O7
_symmetry_space_group_name_H-M   'P 1'
_cell_length_a   7.39689461
_cell_length_b   7.39689461
_cell_length_c   7.39689245
_cell_angle_alpha   60.00000968
_cell_angle_beta   60.00000968
_cell_angle_gamma   59.99998065
_symmetry_Int_Tables_number   1
_chemical_formula_structural   Pr2Ir2O7
_chemical_formula_sum   'Pr4 Ir4 O14'
_cell_volume   286.17597322
_cell_formula_units_Z   2
loop_
 _symmetry_equiv_pos_site_id
 _symmetry_equiv_pos_as_xyz
  1  'x, y, z'
loop_
 _atom_site_type_symbol
 _atom_site_label
 _atom_site_symmetry_multiplicity
 _atom_site_fract_x
 _atom_site_fract_y
 _atom_site_fract_z
 _atom_site_occupancy
  Pr  Pr0  1  0.12500000  0.12500000  0.62500000  1
  Pr  Pr1  1  0.12500000  0.12500000  0.12500000  1
  Pr  Pr2  1  0.62500000  0.12500000  0.12500000  1
  Pr  Pr3  1  0.12500000  0.62500000  0.12500000  1
  Ir  Ir0  1  0.62500000  0.62500000  0.62500000  1
  Ir  Ir1  1  0.12500000  0.62500000  0.62500000  1
  Ir  Ir2  1  0.62500000  0.12500000  0.62500000  1
  Ir  Ir3  1  0.62500000  0.62500000  0.12500000  1
  O  O0  1  0.95605091  0.54394909  0.54394909  1
  O  O1  1  0.29394909  0.29394909  0.70605091  1
  O  O2  1  0.95605091  0.54394909  0.95605091  1
  O  O3  1  0.70605091  0.29394909  0.29394909  1
  O  O4  1  0.54394909  0.54394909  0.95605091  1
  O  O5  1  0.54394909  0.95605091  0.54394909  1
  O  O6  1  0.54394909  0.95605091  0.95605091  1
  O  O7  1  0.25000000  0.25000000  0.25000000  1
  O  O8  1  0.29394909  0.70605091  0.70605091  1
  O  O9  1  0.70605091  0.29394909  0.70605091  1
  O  O10  1  0.00000000  0.00000000  -0.00000000  1
  O  O11  1  0.95605091  0.95605091  0.54394909  1
  O  O12  1  0.29394909  0.70605091  0.29394909  1
  O  O13  1  0.70605091  0.70605091  0.29394909  1
loop_
_geom_bond_atom_site_label_1
_geom_bond_atom_site_label_2
_geom_bond_distance
_geom_bond_site_symmetry_2
Ir0 O13 2.034327 1_555
Ir0 O4 2.034327 1_555
Ir0 O5 2.034327 1_555
Ir0 O0 2.034327 1_555
Ir0 O9 2.034327 1_555
Ir0 O8 2.034327 1_555
Ir1 O1 2.034327 1_555
Ir1 O11 2.034327 1_455
Ir1 O12 2.034327 1_555
Ir1 O0 2.034327 1_455
Ir1 O2 2.034327 1_455
Ir1 O8 2.034327 1_555
Ir2 O11 2.034327 1_545
Ir2 O1 2.034327 1_555
Ir2 O3 2.034327 1_555
Ir2 O9 2.034327 1_555
Ir2 O5 2.034327 1_545
Ir2 O6 2.034327 1_545
Ir3 O13 2.034327 1_555
Ir3 O4 2.034327 1_554
Ir3 O3 2.034327 1_555
Ir3 O6 2.034327 1_554
Ir3 O12 2.034327 1_555
Ir3 O2 2.034327 1_554
O0 Pr3 2.557952 1_655
O0 Pr0 2.557952 1_655
O1 Pr1 2.557953 1_556
O1 Pr0 2.557953 1_555
O2 Pr1 2.557952 1_656
O2 Pr3 2.557952 1_656
O3 Pr2 2.557952 1_555
O3 Pr1 2.557952 1_655
O4 Pr3 2.557953 1_556
O4 Pr2 2.557953 1_556
O5 Pr2 2.557952 1_565
O5 Pr0 2.557952 1_565
O6 Pr1 2.557952 1_566
O6 Pr2 2.557952 1_566
O7 Pr1 2.264827 1_555
O7 Pr2 2.264827 1_555
O7 Pr0 2.264827 1_555
O7 Pr3 2.264827 1_555
O8 Pr3 2.557952 1_556
O8 Pr0 2.557952 1_565
O9 Pr2 2.557952 1_556
O9 Pr0 2.557952 1_655
O10 Pr1 2.264827 1_555
O10 Pr3 2.264827 1_545
O10 Pr0 2.264827 1_554
O10 Pr2 2.264827 1_455
O11 Pr0 2.557953 1_665
O11 Pr1 2.557953 1_665
O12 Pr1 2.557952 1_565
O12 Pr3 2.557952 1_555
O13 Pr2 2.557953 1_565
O13 Pr3 2.557953 1_655
