# generated using pymatgen
data_RbNa11(WN3)4
_symmetry_space_group_name_H-M   'P 1'
_cell_length_a   11.76566800
_cell_length_b   12.26677200
_cell_length_c   12.59264700
_cell_angle_alpha   90.00000000
_cell_angle_beta   90.00000000
_cell_angle_gamma   90.00000000
_symmetry_Int_Tables_number   1
_chemical_formula_structural   RbNa11(WN3)4
_chemical_formula_sum   'Rb4 Na44 W16 N48'
_cell_volume   1817.45602676
_cell_formula_units_Z   4
loop_
 _symmetry_equiv_pos_site_id
 _symmetry_equiv_pos_as_xyz
  1  'x, y, z'
loop_
 _atom_site_type_symbol
 _atom_site_label
 _atom_site_symmetry_multiplicity
 _atom_site_fract_x
 _atom_site_fract_y
 _atom_site_fract_z
 _atom_site_occupancy
  Rb  Rb0  1  0.00000000  0.00000000  0.50000000  1
  Rb  Rb1  1  0.50000000  0.00000000  0.00000000  1
  Rb  Rb2  1  0.50000000  0.50000000  0.50000000  1
  Rb  Rb3  1  0.00000000  0.50000000  0.00000000  1
  Na  Na0  1  0.13113500  0.55487800  0.76409800  1
  Na  Na1  1  0.86886500  0.44512200  0.23590200  1
  Na  Na2  1  0.63113500  0.94512200  0.76409800  1
  Na  Na3  1  0.63113500  0.44512200  0.73590200  1
  Na  Na4  1  0.77919800  0.18916900  0.32795500  1
  Na  Na5  1  0.25710500  0.37572000  0.59402400  1
  Na  Na6  1  0.75710500  0.62428000  0.90597600  1
  Na  Na7  1  0.27919800  0.31083100  0.32795500  1
  Na  Na8  1  0.38283900  0.02077000  0.73124200  1
  Na  Na9  1  0.44998200  0.74078200  0.62197300  1
  Na  Na10  1  0.36886500  0.05487800  0.23590200  1
  Na  Na11  1  0.94998200  0.25921800  0.87802700  1
  Na  Na12  1  0.88283900  0.97923000  0.76875800  1
  Na  Na13  1  0.11716100  0.02077000  0.23124200  1
  Na  Na14  1  0.75710500  0.12428000  0.59402400  1
  Na  Na15  1  0.74289500  0.12428000  0.09402400  1
  Na  Na16  1  0.55001800  0.25921800  0.37802700  1
  Na  Na17  1  0.13113500  0.05487800  0.73590200  1
  Na  Na18  1  0.94998200  0.75921800  0.62197300  1
  Na  Na19  1  0.24289500  0.87572000  0.40597600  1
  Na  Na20  1  0.22080200  0.81083100  0.67204500  1
  Na  Na21  1  0.61716100  0.47923000  0.23124200  1
  Na  Na22  1  0.00000000  0.00000000  0.00000000  1
  Na  Na23  1  0.25710500  0.87572000  0.90597600  1
  Na  Na24  1  0.05001800  0.74078200  0.12197300  1
  Na  Na25  1  0.74289500  0.62428000  0.40597600  1
  Na  Na26  1  0.11716100  0.52077000  0.26875800  1
  Na  Na27  1  0.44998200  0.24078200  0.87802700  1
  Na  Na28  1  0.27919800  0.81083100  0.17204500  1
  Na  Na29  1  0.50000000  0.50000000  0.00000000  1
  Na  Na30  1  0.24289500  0.37572000  0.09402400  1
  Na  Na31  1  0.38283900  0.52077000  0.76875800  1
  Na  Na32  1  0.00000000  0.50000000  0.50000000  1
  Na  Na33  1  0.36886500  0.55487800  0.26409800  1
  Na  Na34  1  0.50000000  0.00000000  0.50000000  1
  Na  Na35  1  0.61716100  0.97923000  0.26875800  1
  Na  Na36  1  0.72080200  0.18916900  0.82795500  1
  Na  Na37  1  0.55001800  0.75921800  0.12197300  1
  Na  Na38  1  0.86886500  0.94512200  0.26409800  1
  Na  Na39  1  0.88283900  0.47923000  0.73124200  1
  Na  Na40  1  0.22080200  0.31083100  0.82795500  1
  Na  Na41  1  0.72080200  0.68916900  0.67204500  1
  Na  Na42  1  0.77919800  0.68916900  0.17204500  1
  Na  Na43  1  0.05001800  0.24078200  0.37802700  1
  W  W0  1  0.99004500  0.73803900  0.36389600  1
  W  W1  1  0.73441900  0.38322100  0.00817400  1
  W  W2  1  0.73441900  0.88322100  0.49182600  1
  W  W3  1  0.00995500  0.26196100  0.63610400  1
  W  W4  1  0.99004500  0.23803900  0.13610400  1
  W  W5  1  0.23441900  0.61677900  0.49182600  1
  W  W6  1  0.49004500  0.26196100  0.13610400  1
  W  W7  1  0.50995500  0.73803900  0.86389600  1
  W  W8  1  0.76558100  0.38322100  0.50817400  1
  W  W9  1  0.50995500  0.23803900  0.63610400  1
  W  W10  1  0.26558100  0.61677900  0.99182600  1
  W  W11  1  0.00995500  0.76196100  0.86389600  1
  W  W12  1  0.49004500  0.76196100  0.36389600  1
  W  W13  1  0.26558100  0.11677900  0.50817400  1
  W  W14  1  0.76558100  0.88322100  0.99182600  1
  W  W15  1  0.23441900  0.11677900  0.00817400  1
  N  N0  1  0.06748300  0.34265400  0.21155500  1
  N  N1  1  0.27133500  0.60461700  0.63245800  1
  N  N2  1  0.27128300  0.48034800  0.93037400  1
  N  N3  1  0.22866500  0.10461700  0.36754200  1
  N  N4  1  0.14467000  0.19931000  0.57400900  1
  N  N5  1  0.85533000  0.30069000  0.07400900  1
  N  N6  1  0.77133500  0.89538300  0.63245800  1
  N  N7  1  0.56748300  0.15734600  0.21155500  1
  N  N8  1  0.05560800  0.87300600  0.77448500  1
  N  N9  1  0.72866500  0.89538300  0.13245800  1
  N  N10  1  0.72871700  0.51965200  0.06962600  1
  N  N11  1  0.94439200  0.62699400  0.27448500  1
  N  N12  1  0.93251700  0.65734600  0.78844500  1
  N  N13  1  0.72866500  0.39538300  0.36754200  1
  N  N14  1  0.91418900  0.31264900  0.51966400  1
  N  N15  1  0.58581100  0.81264900  0.48033600  1
  N  N16  1  0.27133500  0.10461700  0.86754200  1
  N  N17  1  0.06748300  0.84265400  0.28844500  1
  N  N18  1  0.22871700  0.48034800  0.43037400  1
  N  N19  1  0.35533000  0.19931000  0.07400900  1
  N  N20  1  0.22871700  0.98034800  0.06962600  1
  N  N21  1  0.22866500  0.60461700  0.13245800  1
  N  N22  1  0.58581100  0.31264900  0.01966400  1
  N  N23  1  0.91418900  0.81264900  0.98033600  1
  N  N24  1  0.64467000  0.30069000  0.57400900  1
  N  N25  1  0.08581100  0.68735100  0.48033600  1
  N  N26  1  0.27128300  0.98034800  0.56962600  1
  N  N27  1  0.44439200  0.37300600  0.22551500  1
  N  N28  1  0.77128300  0.01965200  0.93037400  1
  N  N29  1  0.14467000  0.69931000  0.92599100  1
  N  N30  1  0.41418900  0.68735100  0.98033600  1
  N  N31  1  0.85533000  0.80069000  0.42599100  1
  N  N32  1  0.08581100  0.18735100  0.01966400  1
  N  N33  1  0.44439200  0.87300600  0.27448500  1
  N  N34  1  0.93251700  0.15734600  0.71155500  1
  N  N35  1  0.35533000  0.69931000  0.42599100  1
  N  N36  1  0.72871700  0.01965200  0.43037400  1
  N  N37  1  0.55560800  0.12699400  0.72551500  1
  N  N38  1  0.43251700  0.34265400  0.71155500  1
  N  N39  1  0.05560800  0.37300600  0.72551500  1
  N  N40  1  0.41418900  0.18735100  0.51966400  1
  N  N41  1  0.55560800  0.62699400  0.77448500  1
  N  N42  1  0.77133500  0.39538300  0.86754200  1
  N  N43  1  0.64467000  0.80069000  0.92599100  1
  N  N44  1  0.94439200  0.12699400  0.22551500  1
  N  N45  1  0.56748300  0.65734600  0.28844500  1
  N  N46  1  0.43251700  0.84265400  0.78844500  1
  N  N47  1  0.77128300  0.51965200  0.56962600  1
loop_
_geom_bond_atom_site_label_1
_geom_bond_atom_site_label_2
_geom_bond_distance
_geom_bond_site_symmetry_2
N0 W4 1.838394 1_455
N0 Na26 2.373677 1_555
N0 Na43 2.449163 1_555
N0 Na30 2.571854 1_555
N0 Na1 2.671124 1_455
N0 Na7 2.916476 1_555
N0 Rb3 3.384213 1_555
N1 W5 1.829508 1_555
N1 Na31 2.392689 1_555
N1 Na0 2.416863 1_555
N1 Na20 2.645898 1_555
N1 Na9 2.687999 1_555
N1 Na5 2.854149 1_555
N1 Rb2 3.415749 1_555
N2 W10 1.845038 1_555
N2 Na30 2.450640 1_556
N2 Na31 2.471949 1_555
N2 Na40 2.517971 1_555
N2 Na0 2.817633 1_555
N2 Na29 2.840488 1_556
N2 Rb3 3.318825 1_556
N3 W13 1.829508 1_555
N3 Na13 2.392689 1_555
N3 Na10 2.416863 1_555
N3 Na7 2.645898 1_555
N3 Na43 2.687999 1_555
N3 Na19 2.854149 1_545
N3 Rb0 3.415749 1_555
N4 W3 1.927258 1_555
N4 W13 1.932879 1_555
N4 Na5 2.548790 1_555
N4 Na17 2.705637 1_555
N4 Na43 2.754940 1_555
N4 Rb0 3.121431 1_555
N5 W4 1.927258 1_555
N5 W1 1.932879 1_555
N5 Na15 2.548790 1_555
N5 Na1 2.705637 1_555
N5 Na11 2.754940 1_554
N5 Rb3 3.121431 1_655
N6 W2 1.829508 1_555
N6 Na12 2.392689 1_555
N6 Na2 2.416863 1_555
N6 Na41 2.645898 1_555
N6 Na18 2.687999 1_555
N6 Na14 2.854149 1_565
N6 Rb0 3.415749 1_665
N7 W6 1.838394 1_555
N7 Na35 2.373677 1_545
N7 Na16 2.449163 1_555
N7 Na15 2.571854 1_555
N7 Na10 2.671124 1_555
N7 Na4 2.916476 1_555
N7 Rb1 3.384213 1_555
N8 W11 1.847080 1_555
N8 Na12 2.415599 1_455
N8 Na17 2.450102 1_565
N8 Na20 2.454265 1_555
N8 Na18 2.679772 1_455
N8 Na23 2.891935 1_555
N9 W14 1.829508 1_554
N9 Na35 2.392689 1_555
N9 Na38 2.416863 1_555
N9 Na42 2.645898 1_555
N9 Na37 2.687999 1_555
N9 Na15 2.854149 1_565
N9 Rb1 3.415749 1_565
N10 W1 1.845038 1_555
N10 Na6 2.450640 1_554
N10 Na21 2.471949 1_555
N10 Na42 2.517971 1_555
N10 Na1 2.817633 1_555
N10 Na29 2.840488 1_555
N10 Rb3 3.318825 1_655
N11 W0 1.847080 1_555
N11 Na26 2.415599 1_655
N11 Na1 2.450102 1_555
N11 Na42 2.454265 1_555
N11 Na24 2.679772 1_655
N11 Na25 2.891935 1_555
N12 W11 1.838394 1_655
N12 Na39 2.373677 1_555
N12 Na18 2.449163 1_555
N12 Na6 2.571854 1_555
N12 Na0 2.671124 1_655
N12 Na41 2.916476 1_555
N12 Rb3 3.384213 1_656
N13 W8 1.829508 1_555
N13 Na21 2.392689 1_555
N13 Na1 2.416863 1_555
N13 Na4 2.645898 1_555
N13 Na16 2.687999 1_555
N13 Na25 2.854149 1_555
N13 Rb2 3.415749 1_555
N14 W3 1.950942 1_655
N14 W8 1.956403 1_555
N14 Na32 2.522369 1_655
N14 Na43 2.551928 1_655
N15 W12 1.950942 1_555
N15 W2 1.956403 1_555
N15 Na34 2.522369 1_565
N15 Na9 2.551928 1_555
N16 W15 1.829508 1_556
N16 Na8 2.392689 1_555
N16 Na17 2.416863 1_555
N16 Na40 2.645898 1_555
N16 Na27 2.687999 1_555
N16 Na23 2.854149 1_545
N16 Rb1 3.415749 1_556
N17 W0 1.838394 1_455
N17 Na13 2.373677 1_565
N17 Na24 2.449163 1_555
N17 Na19 2.571854 1_555
N17 Na38 2.671124 1_455
N17 Na28 2.916476 1_555
N17 Rb0 3.384213 1_565
N18 W5 1.845038 1_555
N18 Na5 2.450640 1_555
N18 Na26 2.471949 1_555
N18 Na7 2.517971 1_555
N18 Na33 2.817633 1_555
N18 Na32 2.840488 1_555
N18 Rb2 3.318825 1_555
N19 W6 1.927258 1_555
N19 W15 1.932879 1_555
N19 Na30 2.548790 1_555
N19 Na10 2.705637 1_555
N19 Na27 2.754940 1_554
N19 Rb1 3.121431 1_555
N20 W15 1.845038 1_565
N20 Na23 2.450640 1_554
N20 Na13 2.471949 1_565
N20 Na28 2.517971 1_555
N20 Na10 2.817633 1_565
N20 Na22 2.840488 1_565
N20 Rb1 3.318825 1_565
N21 W10 1.829508 1_554
N21 Na26 2.392689 1_555
N21 Na33 2.416863 1_555
N21 Na28 2.645898 1_555
N21 Na24 2.687999 1_555
N21 Na30 2.854149 1_555
N21 Rb3 3.415749 1_555
N22 W6 1.950942 1_555
N22 W1 1.956403 1_555
N22 Na29 2.522369 1_555
N22 Na27 2.551928 1_554
N23 W11 1.950942 1_655
N23 W14 1.956403 1_555
N23 Na22 2.522369 1_666
N23 Na24 2.551928 1_656
N24 W9 1.927258 1_555
N24 W8 1.932879 1_555
N24 Na14 2.548790 1_555
N24 Na3 2.705637 1_555
N24 Na16 2.754940 1_555
N24 Rb2 3.121431 1_555
N25 W0 1.950942 1_455
N25 W5 1.956403 1_555
N25 Na32 2.522369 1_555
N25 Na18 2.551928 1_455
N26 W13 1.845038 1_565
N26 Na19 2.450640 1_555
N26 Na8 2.471949 1_565
N26 Na20 2.517971 1_555
N26 Na17 2.817633 1_565
N26 Na34 2.840488 1_565
N26 Rb0 3.318825 1_565
N27 W6 1.847080 1_555
N27 Na21 2.415599 1_555
N27 Na33 2.450102 1_555
N27 Na7 2.454265 1_555
N27 Na16 2.679772 1_555
N27 Na30 2.891935 1_555
N28 W14 1.845038 1_545
N28 Na15 2.450640 1_556
N28 Na12 2.471949 1_545
N28 Na36 2.517971 1_555
N28 Na2 2.817633 1_545
N28 Na22 2.840488 1_656
N28 Rb1 3.318825 1_556
N29 W11 1.927258 1_555
N29 W10 1.932879 1_555
N29 Na23 2.548790 1_555
N29 Na0 2.705637 1_555
N29 Na24 2.754940 1_556
N29 Rb3 3.121431 1_556
N30 W7 1.950942 1_555
N30 W10 1.956403 1_555
N30 Na29 2.522369 1_556
N30 Na37 2.551928 1_556
N31 W0 1.927258 1_555
N31 W2 1.932879 1_555
N31 Na25 2.548790 1_555
N31 Na38 2.705637 1_555
N31 Na18 2.754940 1_555
N31 Rb0 3.121431 1_665
N32 W4 1.950942 1_455
N32 W15 1.956403 1_555
N32 Na22 2.522369 1_555
N32 Na11 2.551928 1_454
N33 W12 1.847080 1_555
N33 Na35 2.415599 1_555
N33 Na10 2.450102 1_565
N33 Na28 2.454265 1_555
N33 Na37 2.679772 1_555
N33 Na19 2.891935 1_555
N34 W3 1.838394 1_655
N34 Na12 2.373677 1_545
N34 Na11 2.449163 1_555
N34 Na14 2.571854 1_555
N34 Na17 2.671124 1_655
N34 Na36 2.916476 1_555
N34 Rb0 3.384213 1_655
N35 W12 1.927258 1_555
N35 W5 1.932879 1_555
N35 Na19 2.548790 1_555
N35 Na33 2.705637 1_555
N35 Na9 2.754940 1_555
N35 Rb2 3.121431 1_555
N36 W2 1.845038 1_545
N36 Na14 2.450640 1_555
N36 Na35 2.471949 1_545
N36 Na4 2.517971 1_555
N36 Na38 2.817633 1_545
N36 Na34 2.840488 1_555
N36 Rb0 3.318825 1_655
N37 W9 1.847080 1_555
N37 Na8 2.415599 1_555
N37 Na2 2.450102 1_545
N37 Na36 2.454265 1_555
N37 Na27 2.679772 1_555
N37 Na14 2.891935 1_555
N38 W9 1.838394 1_555
N38 Na31 2.373677 1_555
N38 Na27 2.449163 1_555
N38 Na5 2.571854 1_555
N38 Na3 2.671124 1_555
N38 Na40 2.916476 1_555
N38 Rb2 3.384213 1_555
N39 W3 1.847080 1_555
N39 Na39 2.415599 1_455
N39 Na0 2.450102 1_555
N39 Na40 2.454265 1_555
N39 Na11 2.679772 1_455
N39 Na5 2.891935 1_555
N40 W9 1.950942 1_555
N40 W13 1.956403 1_555
N40 Na34 2.522369 1_555
N40 Na16 2.551928 1_555
N41 W7 1.847080 1_555
N41 Na31 2.415599 1_555
N41 Na3 2.450102 1_555
N41 Na41 2.454265 1_555
N41 Na9 2.679772 1_555
N41 Na6 2.891935 1_555
N42 W1 1.829508 1_556
N42 Na39 2.392689 1_555
N42 Na3 2.416863 1_555
N42 Na36 2.645898 1_555
N42 Na11 2.687999 1_555
N42 Na6 2.854149 1_555
N42 Rb3 3.415749 1_656
N43 W7 1.927258 1_555
N43 W14 1.932879 1_555
N43 Na6 2.548790 1_555
N43 Na2 2.705637 1_555
N43 Na37 2.754940 1_556
N43 Rb1 3.121431 1_566
N44 W4 1.847080 1_555
N44 Na13 2.415599 1_655
N44 Na38 2.450102 1_545
N44 Na4 2.454265 1_555
N44 Na43 2.679772 1_655
N44 Na15 2.891935 1_555
N45 W12 1.838394 1_555
N45 Na21 2.373677 1_555
N45 Na37 2.449163 1_555
N45 Na25 2.571854 1_555
N45 Na33 2.671124 1_555
N45 Na42 2.916476 1_555
N45 Rb2 3.384213 1_555
N46 W7 1.838394 1_555
N46 Na8 2.373677 1_565
N46 Na9 2.449163 1_555
N46 Na23 2.571854 1_555
N46 Na2 2.671124 1_555
N46 Na20 2.916476 1_555
N46 Rb1 3.384213 1_566
N47 W8 1.845038 1_555
N47 Na25 2.450640 1_555
N47 Na39 2.471949 1_555
N47 Na41 2.517971 1_555
N47 Na3 2.817633 1_555
N47 Na32 2.840488 1_655
N47 Rb2 3.318825 1_555
