# generated using pymatgen
data_Cs2Pd(IBr2)2
_symmetry_space_group_name_H-M   'P 1'
_cell_length_a   7.66044595
_cell_length_b   7.66044595
_cell_length_c   7.66044595
_cell_angle_alpha   110.81030956
_cell_angle_beta   110.81030956
_cell_angle_gamma   106.82501141
_symmetry_Int_Tables_number   1
_chemical_formula_structural   Cs2Pd(IBr2)2
_chemical_formula_sum   'Cs2 Pd1 I2 Br4'
_cell_volume   345.50073740
_cell_formula_units_Z   1
loop_
 _symmetry_equiv_pos_site_id
 _symmetry_equiv_pos_as_xyz
  1  'x, y, z'
loop_
 _atom_site_type_symbol
 _atom_site_label
 _atom_site_symmetry_multiplicity
 _atom_site_fract_x
 _atom_site_fract_y
 _atom_site_fract_z
 _atom_site_occupancy
  Cs  Cs0  1  0.75000000  0.25000000  0.50000000  1
  Cs  Cs1  1  0.25000000  0.75000000  0.50000000  1
  Pd  Pd0  1  0.00000000  0.00000000  0.00000000  1
  I  I0  1  0.34238700  0.34238700  0.00000000  1
  I  I1  1  0.65761300  0.65761300  0.00000000  1
  Br  Br0  1  0.20181200  0.20181200  0.40362400  1
  Br  Br1  1  0.20181200  0.79818800  0.00000000  1
  Br  Br2  1  0.79818800  0.20181200  0.00000000  1
  Br  Br3  1  0.79818800  0.79818800  0.59637600  1
loop_
_geom_bond_atom_site_label_1
_geom_bond_atom_site_label_2
_geom_bond_distance
_geom_bond_site_symmetry_2
Cs0 I0 4.430441 1_555
Cs0 I1 4.430441 1_556
Cs0 I0 4.430441 1_656
Cs0 I1 4.430441 1_545
Cs1 I0 4.430441 1_566
Cs1 I0 4.430441 1_555
Cs1 I1 4.430441 1_556
Cs1 I1 4.430441 1_455
I0 I1 2.878648 1_555
I0 Pd0 3.126682 1_555
I1 Pd0 3.126682 1_665
Br0 Pd0 2.482666 1_555
Br0 Cs0 3.875825 1_455
Br0 Cs0 3.875825 1_555
Br0 Cs1 3.875825 1_555
Br0 Cs1 3.875825 1_545
Br1 Pd0 2.482666 1_565
Br1 Cs1 3.875825 1_554
Br1 Cs0 3.875825 1_454
Br1 Cs0 3.875825 1_565
Br1 Cs1 3.875825 1_555
Br2 Pd0 2.482666 1_655
Br2 Cs1 3.875825 1_655
Br2 Cs0 3.875825 1_555
Br2 Cs1 3.875825 1_544
Br2 Cs0 3.875825 1_554
Br3 Pd0 2.482666 1_666
Br3 Cs1 3.875825 1_655
Br3 Cs0 3.875825 1_565
Br3 Cs0 3.875825 1_555
Br3 Cs1 3.875825 1_555
