# generated using pymatgen
data_Ba3Zn6Si4TeO20
_symmetry_space_group_name_H-M   'P 1'
_cell_length_a   9.97815520
_cell_length_b   9.97815520
_cell_length_c   5.20855879
_cell_angle_alpha   76.01574306
_cell_angle_beta   76.01574306
_cell_angle_gamma   71.62922122
_symmetry_Int_Tables_number   1
_chemical_formula_structural   Ba3Zn6Si4TeO20
_chemical_formula_sum   'Ba3 Zn6 Si4 Te1 O20'
_cell_volume   469.79305451
_cell_formula_units_Z   1
loop_
 _symmetry_equiv_pos_site_id
 _symmetry_equiv_pos_as_xyz
  1  'x, y, z'
loop_
 _atom_site_type_symbol
 _atom_site_label
 _atom_site_symmetry_multiplicity
 _atom_site_fract_x
 _atom_site_fract_y
 _atom_site_fract_z
 _atom_site_occupancy
  Ba  Ba0  1  0.78701800  0.78701800  0.74749600  1
  Ba  Ba1  1  0.21298200  0.21298200  0.25250400  1
  Ba  Ba2  1  0.50000000  0.50000000  0.00000000  1
  Zn  Zn0  1  0.15613300  0.84386700  0.50000000  1
  Zn  Zn1  1  0.84386700  0.15613300  0.50000000  1
  Zn  Zn2  1  0.36420100  0.92328000  0.82763200  1
  Zn  Zn3  1  0.07672000  0.63579900  0.17236800  1
  Zn  Zn4  1  0.63579900  0.07672000  0.17236800  1
  Zn  Zn5  1  0.92328000  0.36420100  0.82763200  1
  Si  Si0  1  0.51941400  0.78060200  0.34167500  1
  Si  Si1  1  0.21939800  0.48058600  0.65832500  1
  Si  Si2  1  0.48058600  0.21939800  0.65832500  1
  Si  Si3  1  0.78060200  0.51941400  0.34167500  1
  Te  Te0  1  0.00000000  0.00000000  0.00000000  1
  O  O0  1  0.61681900  0.88406200  0.34137400  1
  O  O1  1  0.11593800  0.38318100  0.65862600  1
  O  O2  1  0.38318100  0.11593800  0.65862600  1
  O  O3  1  0.88406200  0.61681900  0.34137400  1
  O  O4  1  0.36554500  0.81505000  0.55067400  1
  O  O5  1  0.18495000  0.63445500  0.44932600  1
  O  O6  1  0.63445500  0.18495000  0.44932600  1
  O  O7  1  0.81505000  0.36554500  0.55067400  1
  O  O8  1  0.50544500  0.77724800  0.03613000  1
  O  O9  1  0.22275200  0.49455500  0.96387000  1
  O  O10  1  0.49455500  0.22275200  0.96387000  1
  O  O11  1  0.77724800  0.50544500  0.03613000  1
  O  O12  1  0.92993000  0.92993000  0.36695500  1
  O  O13  1  0.07007000  0.07007000  0.63304500  1
  O  O14  1  0.18901100  0.95296800  0.10708100  1
  O  O15  1  0.04703200  0.81098900  0.89291900  1
  O  O16  1  0.81098900  0.04703200  0.89291900  1
  O  O17  1  0.95296800  0.18901100  0.10708100  1
  O  O18  1  0.61004500  0.61004500  0.46360700  1
  O  O19  1  0.38995500  0.38995500  0.53639300  1
loop_
_geom_bond_atom_site_label_1
_geom_bond_atom_site_label_2
_geom_bond_distance
_geom_bond_site_symmetry_2
Ba0 O12 2.558362 1_555
Ba0 O0 2.829491 1_555
Ba0 O3 2.829491 1_555
Ba0 O11 2.867707 1_556
Ba0 O8 2.867707 1_556
Ba0 O15 2.964904 1_655
Ba0 O16 2.964904 1_565
Ba1 O13 2.558362 1_555
Ba1 O2 2.829491 1_555
Ba1 O1 2.829491 1_555
Ba1 O9 2.867707 1_554
Ba1 O10 2.867707 1_554
Ba1 O14 2.964904 1_545
Ba1 O17 2.964904 1_455
Ba2 O18 2.830469 1_554
Ba2 O19 2.830469 1_555
Ba2 O8 2.835976 1_555
Ba2 O11 2.835976 1_555
Ba2 O9 2.835976 1_554
Ba2 O10 2.835976 1_554
O0 Si0 1.625204 1_555
O0 Zn4 1.958905 1_565
O1 Si1 1.625204 1_555
O1 Zn5 1.958905 1_455
O2 Si2 1.625204 1_555
O2 Zn2 1.958905 1_545
O3 Si3 1.625204 1_555
O3 Zn3 1.958905 1_655
O4 Si0 1.643417 1_555
O4 Zn2 1.995457 1_555
O4 Zn0 2.090381 1_555
O5 Si1 1.643417 1_555
O5 Zn3 1.995457 1_555
O5 Zn0 2.090381 1_555
O6 Si2 1.643417 1_555
O6 Zn4 1.995457 1_555
O6 Zn1 2.090381 1_555
O7 Si3 1.643417 1_555
O7 Zn5 1.995457 1_555
O7 Zn1 2.090381 1_555
O8 Si0 1.639863 1_555
O8 Zn2 1.992315 1_554
O9 Si1 1.639863 1_555
O9 Zn3 1.992315 1_556
O10 Si2 1.639863 1_555
O10 Zn4 1.992315 1_556
O11 Si3 1.639863 1_555
O11 Zn5 1.992315 1_554
O12 Te0 1.909758 1_665
O12 Zn0 2.357688 1_655
O12 Zn1 2.357688 1_565
O13 Te0 1.909758 1_556
O13 Zn0 2.357688 1_545
O13 Zn1 2.357688 1_455
O14 Te0 1.977934 1_565
O14 Zn2 1.978468 1_554
O14 Zn0 2.074828 1_555
O15 Te0 1.977934 1_566
O15 Zn3 1.978468 1_556
O15 Zn0 2.074828 1_555
O16 Te0 1.977934 1_656
O16 Zn4 1.978468 1_556
O16 Zn1 2.074828 1_555
O17 Te0 1.977934 1_655
O17 Zn5 1.978468 1_554
O17 Zn1 2.074828 1_555
O18 Si3 1.703683 1_555
O18 Si0 1.703683 1_555
O19 Si1 1.703683 1_555
O19 Si2 1.703683 1_555
