# generated using pymatgen
data_CdPS3
_symmetry_space_group_name_H-M   'P 1'
_cell_length_a   6.25336941
_cell_length_b   6.25336984
_cell_length_c   7.08480051
_cell_angle_alpha   98.18604281
_cell_angle_beta   98.18605262
_cell_angle_gamma   119.99797501
_symmetry_Int_Tables_number   1
_chemical_formula_structural   CdPS3
_chemical_formula_sum   'Cd2 P2 S6'
_cell_volume   230.00181552
_cell_formula_units_Z   2
loop_
 _symmetry_equiv_pos_site_id
 _symmetry_equiv_pos_as_xyz
  1  'x, y, z'
loop_
 _atom_site_type_symbol
 _atom_site_label
 _atom_site_symmetry_multiplicity
 _atom_site_fract_x
 _atom_site_fract_y
 _atom_site_fract_z
 _atom_site_occupancy
  Cd  Cd0  1  0.33301268  0.66698732  -0.00000000  1
  Cd  Cd1  1  0.66698732  0.33301268  0.00000000  1
  P  P0  1  0.05312174  0.05312174  0.16478070  1
  P  P1  1  0.94687826  0.94687826  0.83521930  1
  S  S0  1  0.39090417  0.08003226  0.24892263  1
  S  S1  1  0.91996774  0.60909583  0.75107737  1
  S  S2  1  0.23149895  0.23149895  0.75238779  1
  S  S3  1  0.76850105  0.76850105  0.24761221  1
  S  S4  1  0.60909583  0.91996774  0.75107737  1
  S  S5  1  0.08003226  0.39090417  0.24892263  1
loop_
_geom_bond_atom_site_label_1
_geom_bond_atom_site_label_2
_geom_bond_distance
_geom_bond_site_symmetry_2
Cd0 S3 2.736865 1_555
Cd0 S2 2.736865 1_554
Cd0 S1 2.738375 1_454
Cd0 S0 2.738375 1_565
Cd0 S5 2.742988 1_555
Cd0 S4 2.742988 1_554
Cd1 S2 2.736865 1_554
Cd1 S3 2.736865 1_555
Cd1 S5 2.738375 1_655
Cd1 S4 2.738375 1_544
Cd1 S1 2.742988 1_554
Cd1 S0 2.742988 1_555
P0 S0 2.025541 1_555
P0 S5 2.025542 1_555
P0 S3 2.026646 1_445
P0 P1 2.238205 1_444
P1 S4 2.025541 1_555
P1 S1 2.025542 1_555
P1 S2 2.026646 1_665
