# generated using pymatgen
data_PrSi2Ni
_symmetry_space_group_name_H-M   'P 1'
_cell_length_a   4.06288046
_cell_length_b   4.18128667
_cell_length_c   8.48145546
_cell_angle_alpha   104.27023806
_cell_angle_beta   90.00000000
_cell_angle_gamma   90.00000000
_symmetry_Int_Tables_number   1
_chemical_formula_structural   PrSi2Ni
_chemical_formula_sum   'Pr2 Si4 Ni2'
_cell_volume   139.63768571
_cell_formula_units_Z   2
loop_
 _symmetry_equiv_pos_site_id
 _symmetry_equiv_pos_as_xyz
  1  'x, y, z'
loop_
 _atom_site_type_symbol
 _atom_site_label
 _atom_site_symmetry_multiplicity
 _atom_site_fract_x
 _atom_site_fract_y
 _atom_site_fract_z
 _atom_site_occupancy
  Pr  Pr0  1  0.25000000  0.89291582  0.78583263  1
  Pr  Pr1  1  0.75000000  0.10708418  0.21416737  1
  Si  Si0  1  0.25000000  0.24983491  0.49966982  1
  Si  Si1  1  0.75000000  0.75016509  0.50033018  1
  Si  Si2  1  0.75000000  0.45879373  0.91758546  1
  Si  Si3  1  0.25000000  0.54120727  0.08241454  1
  Ni  Ni0  1  0.75000000  0.31784848  0.63569695  1
  Ni  Ni1  1  0.25000000  0.68215152  0.36430305  1
loop_
_geom_bond_atom_site_label_1
_geom_bond_atom_site_label_2
_geom_bond_distance
_geom_bond_site_symmetry_2
Pr0 Si1 3.103873 1_555
Pr0 Si1 3.103873 1_455
Pr0 Si2 3.109718 1_455
Pr0 Si2 3.109718 1_555
Pr0 Si2 3.109727 1_465
Pr0 Si2 3.109727 1_565
Pr0 Si0 3.146993 1_555
Pr0 Si0 3.146995 1_565
Pr0 Si3 3.211509 1_556
Pr0 Si3 3.211512 1_566
Pr1 Si0 3.103873 1_555
Pr1 Si0 3.103873 1_655
Pr1 Si3 3.109721 1_655
Pr1 Si3 3.109721 1_555
Pr1 Si3 3.109724 1_545
Pr1 Si3 3.109724 1_645
Pr1 Si1 3.146993 1_555
Pr1 Si1 3.146995 1_545
Pr1 Si2 3.211510 1_544
Pr1 Si2 3.211512 1_554
Si2 Si3 2.441798 1_656
Si2 Si3 2.441798 1_556
Ni0 Si2 2.317053 1_555
Ni0 Si0 2.318818 1_655
Ni0 Si0 2.318818 1_555
Ni0 Si1 2.368301 1_555
Ni0 Si1 2.368301 1_545
Ni0 Pr0 3.165514 1_555
Ni0 Pr0 3.165514 1_655
Ni0 Pr0 3.165517 1_645
Ni0 Pr0 3.165517 1_545
Ni1 Si3 2.317053 1_555
Ni1 Si1 2.318818 1_455
Ni1 Si1 2.318818 1_555
Ni1 Si0 2.368301 1_555
Ni1 Si0 2.368301 1_565
Ni1 Pr1 3.165514 1_555
Ni1 Pr1 3.165514 1_455
Ni1 Pr1 3.165517 1_465
Ni1 Pr1 3.165517 1_565
