# generated using pymatgen
data_AgCN3O2
_symmetry_space_group_name_H-M   'P 1'
_cell_length_a   5.57427200
_cell_length_b   5.78825800
_cell_length_c   12.58828400
_cell_angle_alpha   90.00000000
_cell_angle_beta   90.00000000
_cell_angle_gamma   90.00000000
_symmetry_Int_Tables_number   1
_chemical_formula_structural   AgCN3O2
_chemical_formula_sum   'Ag4 C4 N12 O8'
_cell_volume   406.16506814
_cell_formula_units_Z   4
loop_
 _symmetry_equiv_pos_site_id
 _symmetry_equiv_pos_as_xyz
  1  'x, y, z'
loop_
 _atom_site_type_symbol
 _atom_site_label
 _atom_site_symmetry_multiplicity
 _atom_site_fract_x
 _atom_site_fract_y
 _atom_site_fract_z
 _atom_site_occupancy
  Ag  Ag0  1  0.44887300  0.25000000  0.30287600  1
  Ag  Ag1  1  0.44887300  0.75000000  0.19712400  1
  Ag  Ag2  1  0.55112700  0.75000000  0.69712400  1
  Ag  Ag3  1  0.55112700  0.25000000  0.80287600  1
  C  C0  1  0.66758600  0.75000000  0.95655200  1
  C  C1  1  0.33241400  0.75000000  0.45655200  1
  C  C2  1  0.33241400  0.25000000  0.04344800  1
  C  C3  1  0.66758600  0.25000000  0.54344800  1
  N  N0  1  0.61315700  0.25000000  0.63344800  1
  N  N1  1  0.38684300  0.25000000  0.13344800  1
  N  N2  1  0.70469800  0.75000000  0.05950600  1
  N  N3  1  0.05508300  0.75000000  0.58722000  1
  N  N4  1  0.94491700  0.25000000  0.41278000  1
  N  N5  1  0.05508300  0.25000000  0.91278000  1
  N  N6  1  0.29530200  0.75000000  0.55950600  1
  N  N7  1  0.70469800  0.25000000  0.44049400  1
  N  N8  1  0.94491700  0.75000000  0.08722000  1
  N  N9  1  0.38684300  0.75000000  0.36655200  1
  N  N10  1  0.61315700  0.75000000  0.86655200  1
  N  N11  1  0.29530200  0.25000000  0.94049400  1
  O  O0  1  0.89879600  0.25000000  0.98344500  1
  O  O1  1  0.10120400  0.75000000  0.01655500  1
  O  O2  1  0.98759400  0.75000000  0.18440300  1
  O  O3  1  0.01240600  0.75000000  0.68440300  1
  O  O4  1  0.01240600  0.25000000  0.81559700  1
  O  O5  1  0.89879600  0.75000000  0.51655500  1
  O  O6  1  0.10120400  0.25000000  0.48344500  1
  O  O7  1  0.98759400  0.25000000  0.31559700  1
loop_
_geom_bond_atom_site_label_1
_geom_bond_atom_site_label_2
_geom_bond_distance
_geom_bond_site_symmetry_2
Ag0 N1 2.160654 1_555
Ag0 N7 2.243815 1_555
Ag0 O7 2.576276 1_455
Ag1 N9 2.160654 1_555
Ag1 N2 2.243815 1_555
Ag1 O2 2.576276 1_455
Ag2 N10 2.160654 1_555
Ag2 N6 2.243815 1_555
Ag2 O3 2.576276 1_655
Ag3 N0 2.160654 1_555
Ag3 N11 2.243815 1_555
Ag3 O4 2.576276 1_655
C0 N10 1.172868 1_555
C0 N2 1.312421 1_556
C1 N9 1.172868 1_555
C1 N6 1.312421 1_555
C2 N1 1.172868 1_555
C2 N11 1.312421 1_554
C3 N0 1.172868 1_555
C3 N7 1.312421 1_555
N2 N8 1.383747 1_555
N3 O5 1.245097 1_455
N3 O3 1.246283 1_555
N3 N6 1.383747 1_555
N4 O6 1.245097 1_655
N4 O7 1.246283 1_555
N4 N7 1.383747 1_555
N5 O0 1.245097 1_455
N5 O4 1.246283 1_555
N8 O1 1.245097 1_655
N8 O2 1.246283 1_555
N11 N5 1.383747 1_555
