# generated using pymatgen
data_Zn(FeO2)2
_symmetry_space_group_name_H-M   'P 1'
_cell_length_a   6.00763228
_cell_length_b   5.95669249
_cell_length_c   29.82888751
_cell_angle_alpha   59.95822403
_cell_angle_beta   60.26394379
_cell_angle_gamma   60.36925691
_symmetry_Int_Tables_number   1
_chemical_formula_structural   Zn(FeO2)2
_chemical_formula_sum   'Zn10 Fe20 O40'
_cell_volume   758.14632615
_cell_formula_units_Z   10
loop_
 _symmetry_equiv_pos_site_id
 _symmetry_equiv_pos_as_xyz
  1  'x, y, z'
loop_
 _atom_site_type_symbol
 _atom_site_label
 _atom_site_symmetry_multiplicity
 _atom_site_fract_x
 _atom_site_fract_y
 _atom_site_fract_z
 _atom_site_occupancy
  Zn  Zn0  1  0.00130000  0.99401200  0.00221400  1
  Zn  Zn1  1  0.12373800  0.62415500  0.12559100  1
  Zn  Zn2  1  0.99161900  0.00013500  0.20164600  1
  Zn  Zn3  1  0.12274500  0.62630500  0.32495700  1
  Zn  Zn4  1  0.99480300  0.00799200  0.39791900  1
  Zn  Zn5  1  0.12641300  0.62429800  0.52467400  1
  Zn  Zn6  1  0.99766700  0.99634300  0.60117400  1
  Zn  Zn7  1  0.12232500  0.62422000  0.72536800  1
  Zn  Zn8  1  0.25044400  0.25644600  0.84851000  1
  Zn  Zn9  1  0.99094200  0.00384700  0.79993700  1
  Fe  Fe0  1  0.25580200  0.24810300  0.04955700  1
  Fe  Fe1  1  0.62345300  0.12152700  0.12601000  1
  Fe  Fe2  1  0.62711800  0.62061500  0.02627100  1
  Fe  Fe3  1  0.25919300  0.24068000  0.25190600  1
  Fe  Fe4  1  0.62329300  0.62486800  0.12602300  1
  Fe  Fe5  1  0.62555400  0.12576500  0.32488100  1
  Fe  Fe6  1  0.63353300  0.62139900  0.22470600  1
  Fe  Fe7  1  0.26327000  0.24806400  0.44806500  1
  Fe  Fe8  1  0.62549300  0.62442500  0.32487700  1
  Fe  Fe9  1  0.63407500  0.11737500  0.52458700  1
  Fe  Fe10  1  0.62470300  0.63041700  0.42291200  1
  Fe  Fe11  1  0.26650800  0.24998900  0.64697800  1
  Fe  Fe12  1  0.63311400  0.62591600  0.52468100  1
  Fe  Fe13  1  0.62705900  0.12501200  0.72436800  1
  Fe  Fe14  1  0.63037600  0.62151500  0.62524900  1
  Fe  Fe15  1  0.62783000  0.62516900  0.72340100  1
  Fe  Fe16  1  0.12118200  0.62604400  0.92571500  1
  Fe  Fe17  1  0.62675500  0.12205200  0.92531300  1
  Fe  Fe18  1  0.61513700  0.63344000  0.82419200  1
  Fe  Fe19  1  0.62685400  0.62533500  0.92519800  1
  O  O0  1  0.39753800  0.38960400  0.07259300  1
  O  O1  1  0.38818800  0.37565300  0.17211000  1
  O  O2  1  0.39830600  0.84959300  0.07244400  1
  O  O3  1  0.85545900  0.38922200  0.07327600  1
  O  O4  1  0.39736200  0.36316600  0.27900200  1
  O  O5  1  0.39205000  0.86523500  0.17537900  1
  O  O6  1  0.85475500  0.40088700  0.17495500  1
  O  O7  1  0.40930000  0.37416100  0.36831700  1
  O  O8  1  0.39795300  0.84442300  0.27887300  1
  O  O9  1  0.84666900  0.87035800  0.08247300  1
  O  O10  1  0.85554100  0.86957900  0.17483000  1
  O  O11  1  0.85210100  0.37017500  0.28168600  1
  O  O12  1  0.38911500  0.37802900  0.47529400  1
  O  O13  1  0.40948000  0.87546900  0.36777100  1
  O  O14  1  0.84543100  0.41343000  0.37149400  1
  O  O15  1  0.38952500  0.85609900  0.47519300  1
  O  O16  1  0.39781100  0.37616400  0.56903800  1
  O  O17  1  0.82938000  0.87511000  0.28427200  1
  O  O18  1  0.84603600  0.88400700  0.37138000  1
  O  O19  1  0.86747200  0.38108900  0.47446700  1
  O  O20  1  0.39674100  0.39491500  0.67155600  1
  O  O21  1  0.40613600  0.85515700  0.57694800  1
  O  O22  1  0.40763400  0.39631100  0.76582000  1
  O  O23  1  0.40860900  0.84795100  0.67267600  1
  O  O24  1  0.85774900  0.87468100  0.47911000  1
  O  O25  1  0.84588300  0.40763800  0.57706700  1
  O  O26  1  0.84909100  0.85834300  0.57660600  1
  O  O27  1  0.86863100  0.38310900  0.66944900  1
  O  O28  1  0.37827100  0.38177400  0.87897300  1
  O  O29  1  0.38950000  0.88094900  0.77322000  1
  O  O30  1  0.84183600  0.85768200  0.68199000  1
  O  O31  1  0.38304400  0.38007900  0.97136500  1
  O  O32  1  0.37898600  0.84955300  0.87851200  1
  O  O33  1  0.84151300  0.41154300  0.77190600  1
  O  O34  1  0.85559900  0.87207400  0.77293100  1
  O  O35  1  0.84691800  0.38451900  0.87685000  1
  O  O36  1  0.40990600  0.85091300  0.97752800  1
  O  O37  1  0.85371400  0.40690100  0.97728600  1
  O  O38  1  0.86392000  0.86587900  0.88132300  1
  O  O39  1  0.85455600  0.85311500  0.97715300  1
loop_
_geom_bond_atom_site_label_1
_geom_bond_atom_site_label_2
_geom_bond_distance
_geom_bond_site_symmetry_2
Fe0 O31 1.905782 1_554
Fe0 O0 1.943620 1_555
Fe0 O2 1.944630 1_545
Fe0 O3 1.974857 1_455
Fe1 O9 1.989266 1_545
Fe1 O10 2.018387 1_545
Fe1 O1 2.054413 1_555
Fe1 O5 2.061215 1_545
Fe1 O0 2.094144 1_555
Fe1 O3 2.114474 1_555
Fe2 O37 1.945358 1_554
Fe2 O39 1.945553 1_554
Fe2 O0 1.946135 1_555
Fe2 O2 1.948263 1_555
Fe2 O36 1.952859 1_554
Fe2 O3 1.962369 1_555
Fe3 O4 1.931177 1_555
Fe3 O8 1.931798 1_545
Fe3 O1 1.944889 1_555
Fe3 O11 2.007705 1_455
Fe4 O9 1.983884 1_555
Fe4 O6 2.018200 1_555
Fe4 O1 2.047511 1_555
Fe4 O5 2.064530 1_555
Fe4 O2 2.093999 1_555
Fe4 O3 2.118876 1_555
Fe5 O18 1.920564 1_545
Fe5 O17 1.930702 1_545
Fe5 O4 1.938663 1_555
Fe5 O13 1.975124 1_545
Fe5 O7 1.976032 1_555
Fe5 O11 1.993377 1_555
Fe6 O10 1.989173 1_555
Fe6 O6 1.990725 1_555
Fe6 O5 2.067210 1_555
Fe6 O4 2.094355 1_555
Fe6 O8 2.097642 1_555
Fe6 O11 2.139311 1_555
Fe7 O15 1.909841 1_545
Fe7 O12 1.909991 1_555
Fe7 O7 1.945463 1_555
Fe7 O19 1.950939 1_455
Fe8 O14 1.920870 1_555
Fe8 O17 1.929535 1_555
Fe8 O8 1.938545 1_555
Fe8 O7 1.974632 1_555
Fe8 O13 1.976625 1_555
Fe8 O11 1.995457 1_555
Fe9 O24 1.992523 1_545
Fe9 O26 2.019240 1_545
Fe9 O16 2.040845 1_555
Fe9 O21 2.074837 1_545
Fe9 O12 2.083191 1_555
Fe9 O19 2.101376 1_555
Fe10 O18 2.011543 1_555
Fe10 O14 2.013440 1_555
Fe10 O12 2.064693 1_555
Fe10 O15 2.066549 1_555
Fe10 O13 2.085036 1_555
Fe10 O19 2.119919 1_555
Fe11 O16 1.899883 1_555
Fe11 O20 1.940479 1_555
Fe11 O23 1.959864 1_545
Fe11 O27 1.964734 1_455
Fe12 O24 2.001386 1_555
Fe12 O25 2.017414 1_555
Fe12 O16 2.053138 1_555
Fe12 O15 2.081567 1_555
Fe12 O21 2.082354 1_555
Fe12 O19 2.101761 1_555
Fe13 O34 1.998931 1_545
Fe13 O29 2.034995 1_545
Fe13 O22 2.038497 1_555
Fe13 O30 2.040661 1_545
Fe13 O20 2.099452 1_555
Fe13 O27 2.116485 1_555
Fe14 O26 1.927182 1_555
Fe14 O25 1.929077 1_555
Fe14 O20 1.945056 1_555
Fe14 O27 1.947096 1_555
Fe14 O23 1.964580 1_555
Fe14 O21 1.972654 1_555
Fe15 O30 1.889275 1_555
Fe15 O22 1.898691 1_555
Fe15 O33 1.935044 1_555
Fe15 O23 2.005764 1_555
Fe15 O29 2.139844 1_555
Fe15 O27 2.170951 1_555
Fe16 O28 2.029643 1_555
Fe16 O38 2.033674 1_455
Fe16 O32 2.037773 1_555
Fe16 O39 2.060824 1_455
Fe16 O37 2.064882 1_455
Fe16 O31 2.079430 1_555
Fe17 O38 2.020072 1_545
Fe17 O28 2.038311 1_555
Fe17 O35 2.041706 1_555
Fe17 O36 2.068940 1_545
Fe17 O39 2.069184 1_545
Fe17 O31 2.070420 1_555
Fe18 O34 2.026941 1_555
Fe18 O29 2.036371 1_555
Fe18 O33 2.052209 1_555
Fe18 O28 2.071797 1_555
Fe18 O32 2.073045 1_555
Fe18 O35 2.097821 1_555
Fe19 O38 2.021248 1_555
Fe19 O32 2.041765 1_555
Fe19 O35 2.046972 1_555
Fe19 O31 2.068010 1_555
Fe19 O37 2.070627 1_555
Fe19 O36 2.071464 1_555
O0 Zn1 2.125160 1_555
O1 Zn1 2.108443 1_555
O2 Zn1 2.121796 1_555
O4 Zn3 2.099666 1_555
O5 Zn2 1.973793 1_465
O6 Zn2 1.952958 1_555
O6 Zn1 2.086166 1_655
O7 Zn3 2.144606 1_555
O8 Zn3 2.095833 1_555
O9 Zn0 1.960028 1_655
O9 Zn1 2.096895 1_655
O10 Zn2 1.952722 1_565
O10 Zn1 2.088933 1_655
O12 Zn5 2.092947 1_555
O13 Zn4 2.044961 1_465
O14 Zn4 1.977831 1_555
O14 Zn3 2.083918 1_655
O15 Zn5 2.094459 1_555
O16 Zn5 2.096010 1_555
O17 Zn2 2.018906 1_565
O17 Zn3 2.124508 1_655
O18 Zn4 1.977576 1_565
O18 Zn3 2.087789 1_655
O20 Zn7 2.122161 1_555
O21 Zn6 2.014934 1_455
O22 Zn8 2.019780 1_555
O22 Zn7 2.085067 1_555
O23 Zn7 2.166104 1_555
O24 Zn4 1.979042 1_565
O24 Zn5 2.107828 1_655
O25 Zn6 2.007074 1_545
O25 Zn5 2.113462 1_655
O26 Zn6 1.996767 1_555
O26 Zn5 2.103418 1_655
O28 Zn8 1.977646 1_555
O29 Zn9 1.965222 1_465
O30 Zn6 1.975372 1_555
O30 Zn7 2.119371 1_655
O32 Zn8 1.983619 1_565
O33 Zn9 1.989589 1_555
O33 Zn7 2.099349 1_655
O34 Zn9 1.959619 1_565
O34 Zn7 2.064700 1_655
O35 Zn8 1.989363 1_655
O36 Zn0 2.015174 1_556
O37 Zn0 2.013604 1_646
O38 Zn9 1.983929 1_565
O39 Zn0 2.013446 1_656
