# generated using pymatgen
data_RbFeO2
_symmetry_space_group_name_H-M   'P 1'
_cell_length_a   5.82768100
_cell_length_b   11.72609900
_cell_length_c   16.68361400
_cell_angle_alpha   90.00000000
_cell_angle_beta   90.00000000
_cell_angle_gamma   90.00000000
_symmetry_Int_Tables_number   1
_chemical_formula_structural   RbFeO2
_chemical_formula_sum   'Rb16 Fe16 O32'
_cell_volume   1140.09085147
_cell_formula_units_Z   16
loop_
 _symmetry_equiv_pos_site_id
 _symmetry_equiv_pos_as_xyz
  1  'x, y, z'
loop_
 _atom_site_type_symbol
 _atom_site_label
 _atom_site_symmetry_multiplicity
 _atom_site_fract_x
 _atom_site_fract_y
 _atom_site_fract_z
 _atom_site_occupancy
  Rb  Rb0  1  0.30034700  0.23940200  0.81464900  1
  Rb  Rb1  1  0.80034700  0.26059800  0.18535100  1
  Rb  Rb2  1  0.24820600  0.51083700  0.43800500  1
  Rb  Rb3  1  0.75179400  0.01083700  0.06199500  1
  Rb  Rb4  1  0.24820600  0.98916300  0.93800500  1
  Rb  Rb5  1  0.74820600  0.51083700  0.06199500  1
  Rb  Rb6  1  0.80034700  0.23940200  0.68535100  1
  Rb  Rb7  1  0.19965300  0.73940200  0.81464900  1
  Rb  Rb8  1  0.25179400  0.01083700  0.43800500  1
  Rb  Rb9  1  0.19965300  0.76059800  0.31464900  1
  Rb  Rb10  1  0.74820600  0.98916300  0.56199500  1
  Rb  Rb11  1  0.69965300  0.73940200  0.68535100  1
  Rb  Rb12  1  0.69965300  0.76059800  0.18535100  1
  Rb  Rb13  1  0.30034700  0.26059800  0.31464900  1
  Rb  Rb14  1  0.75179400  0.48916300  0.56199500  1
  Rb  Rb15  1  0.25179400  0.48916300  0.93800500  1
  Fe  Fe0  1  0.21473300  0.73904200  0.56363100  1
  Fe  Fe1  1  0.21473300  0.76095800  0.06363100  1
  Fe  Fe2  1  0.28526700  0.26095800  0.06363100  1
  Fe  Fe3  1  0.75459100  0.49443300  0.81126500  1
  Fe  Fe4  1  0.24540900  0.50556700  0.18873500  1
  Fe  Fe5  1  0.24540900  0.99443300  0.68873500  1
  Fe  Fe6  1  0.28526700  0.23904200  0.56363100  1
  Fe  Fe7  1  0.78526700  0.23904200  0.93636900  1
  Fe  Fe8  1  0.74540900  0.99443300  0.81126500  1
  Fe  Fe9  1  0.78526700  0.26095800  0.43636900  1
  Fe  Fe10  1  0.75459100  0.00556700  0.31126500  1
  Fe  Fe11  1  0.71473300  0.76095800  0.43636900  1
  Fe  Fe12  1  0.74540900  0.50556700  0.31126500  1
  Fe  Fe13  1  0.25459100  0.49443300  0.68873500  1
  Fe  Fe14  1  0.71473300  0.73904200  0.93636900  1
  Fe  Fe15  1  0.25459100  0.00556700  0.18873500  1
  O  O0  1  0.80654100  0.15764800  0.34840500  1
  O  O1  1  0.05761200  0.02046000  0.78095100  1
  O  O2  1  0.69345900  0.65764800  0.34840500  1
  O  O3  1  0.83207100  0.90244600  0.39590600  1
  O  O4  1  0.91777200  0.71048000  0.51894400  1
  O  O5  1  0.66792900  0.09755400  0.89590600  1
  O  O6  1  0.58222800  0.21048000  0.51894400  1
  O  O7  1  0.94238800  0.97954000  0.21904900  1
  O  O8  1  0.69345900  0.84235200  0.84840500  1
  O  O9  1  0.91777200  0.78952000  0.01894400  1
  O  O10  1  0.94238800  0.52046000  0.71904900  1
  O  O11  1  0.19345900  0.65764800  0.15159500  1
  O  O12  1  0.16792900  0.09755400  0.60409400  1
  O  O13  1  0.55761200  0.47954000  0.21904900  1
  O  O14  1  0.58222800  0.28952000  0.01894400  1
  O  O15  1  0.83207100  0.59755400  0.89590600  1
  O  O16  1  0.16792900  0.40244600  0.10409400  1
  O  O17  1  0.44238800  0.52046000  0.78095100  1
  O  O18  1  0.41777200  0.78952000  0.48105600  1
  O  O19  1  0.05761200  0.47954000  0.28095100  1
  O  O20  1  0.41777200  0.71048000  0.98105600  1
  O  O21  1  0.44238800  0.97954000  0.28095100  1
  O  O22  1  0.33207100  0.90244600  0.10409400  1
  O  O23  1  0.66792900  0.40244600  0.39590600  1
  O  O24  1  0.30654100  0.15764800  0.15159500  1
  O  O25  1  0.30654100  0.34235200  0.65159500  1
  O  O26  1  0.33207100  0.59755400  0.60409400  1
  O  O27  1  0.19345900  0.84235200  0.65159500  1
  O  O28  1  0.08222800  0.21048000  0.98105600  1
  O  O29  1  0.80654100  0.34235200  0.84840500  1
  O  O30  1  0.08222800  0.28952000  0.48105600  1
  O  O31  1  0.55761200  0.02046000  0.71904900  1
loop_
_geom_bond_atom_site_label_1
_geom_bond_atom_site_label_2
_geom_bond_distance
_geom_bond_site_symmetry_2
Fe0 O27 1.906998 1_555
Fe0 O18 1.910065 1_555
Fe0 O4 1.913886 1_455
Fe0 O26 1.917272 1_555
Fe1 O11 1.906998 1_555
Fe1 O20 1.910065 1_554
Fe1 O9 1.913886 1_455
Fe1 O22 1.917272 1_555
Fe2 O24 1.906998 1_555
Fe2 O28 1.910065 1_554
Fe2 O14 1.913886 1_555
Fe2 O16 1.917272 1_555
Fe3 O29 1.912019 1_555
Fe3 O10 1.912556 1_555
Fe3 O17 1.912907 1_555
Fe3 O15 1.913148 1_555
Fe4 O11 1.912019 1_555
Fe4 O19 1.912556 1_555
Fe4 O13 1.912907 1_555
Fe4 O16 1.913148 1_555
Fe5 O27 1.912019 1_555
Fe5 O1 1.912556 1_565
Fe5 O31 1.912907 1_565
Fe5 O12 1.913148 1_565
Fe6 O25 1.906998 1_555
Fe6 O30 1.910065 1_555
Fe6 O6 1.913886 1_555
Fe6 O12 1.917272 1_555
Fe7 O29 1.906998 1_555
Fe7 O14 1.910065 1_556
Fe7 O28 1.913886 1_655
Fe7 O5 1.917272 1_555
Fe8 O8 1.912019 1_555
Fe8 O31 1.912556 1_565
Fe8 O1 1.912907 1_665
Fe8 O5 1.913148 1_565
Fe9 O0 1.906998 1_555
Fe9 O6 1.910065 1_555
Fe9 O30 1.913886 1_655
Fe9 O23 1.917272 1_555
Fe10 O0 1.912019 1_555
Fe10 O7 1.912556 1_545
Fe10 O21 1.912907 1_545
Fe10 O3 1.913148 1_545
Fe11 O2 1.906998 1_555
Fe11 O4 1.910065 1_555
Fe11 O18 1.913886 1_555
Fe11 O3 1.917272 1_555
Fe12 O2 1.912019 1_555
Fe12 O13 1.912556 1_555
Fe12 O19 1.912907 1_655
Fe12 O23 1.913148 1_555
Fe13 O25 1.912019 1_555
Fe13 O17 1.912556 1_555
Fe13 O10 1.912907 1_455
Fe13 O26 1.913148 1_555
Fe14 O8 1.906998 1_555
Fe14 O9 1.910065 1_556
Fe14 O20 1.913886 1_555
Fe14 O15 1.917272 1_555
Fe15 O24 1.912019 1_555
Fe15 O21 1.912556 1_545
Fe15 O7 1.912907 1_445
Fe15 O22 1.913148 1_545
O0 Rb1 2.976379 1_555
O0 Rb13 3.171105 1_655
O0 Rb13 3.236762 1_555
O1 Rb4 2.869491 1_545
O1 Rb0 2.984682 1_555
O1 Rb6 3.373850 1_455
O1 Rb7 3.444272 1_545
O2 Rb12 2.976379 1_555
O2 Rb9 3.171105 1_555
O2 Rb9 3.236762 1_655
O3 Rb8 2.844598 1_665
O3 Rb10 2.991839 1_555
O3 Rb9 3.032041 1_655
O4 Rb14 2.861200 1_555
O4 Rb11 3.072208 1_555
O5 Rb4 2.844598 1_545
O5 Rb3 2.991839 1_556
O5 Rb0 3.032041 1_555
O6 Rb10 2.861200 1_545
O6 Rb6 3.072208 1_555
O7 Rb3 2.869491 1_565
O7 Rb12 2.984682 1_555
O7 Rb9 3.373850 1_655
O7 Rb1 3.444272 1_565
O8 Rb11 2.976379 1_555
O8 Rb7 3.171105 1_555
O8 Rb7 3.236762 1_655
O9 Rb3 2.861200 1_565
O9 Rb12 3.072208 1_555
O10 Rb14 2.869491 1_555
O10 Rb11 2.984682 1_555
O10 Rb7 3.373850 1_655
O10 Rb6 3.444272 1_555
O11 Rb9 2.976379 1_555
O11 Rb12 3.171105 1_455
O11 Rb12 3.236762 1_555
O12 Rb10 2.844598 1_445
O12 Rb8 2.991839 1_555
O12 Rb6 3.032041 1_455
O13 Rb5 2.869491 1_555
O13 Rb1 2.984682 1_555
O13 Rb13 3.373850 1_555
O13 Rb12 3.444272 1_555
O14 Rb5 2.861200 1_555
O14 Rb1 3.072208 1_555
O15 Rb15 2.844598 1_655
O15 Rb5 2.991839 1_556
O15 Rb7 3.032041 1_655
O16 Rb5 2.844598 1_455
O16 Rb15 2.991839 1_554
O16 Rb1 3.032041 1_455
O17 Rb15 2.869491 1_555
O17 Rb7 2.984682 1_555
O17 Rb11 3.373850 1_555
O17 Rb0 3.444272 1_555
O18 Rb8 2.861200 1_565
O18 Rb9 3.072208 1_555
O19 Rb2 2.869491 1_555
O19 Rb13 2.984682 1_555
O19 Rb1 3.373850 1_455
O19 Rb9 3.444272 1_555
O20 Rb15 2.861200 1_555
O20 Rb7 3.072208 1_555
O21 Rb8 2.869491 1_565
O21 Rb9 2.984682 1_555
O21 Rb12 3.373850 1_555
O21 Rb13 3.444272 1_565
O22 Rb3 2.844598 1_565
O22 Rb4 2.991839 1_554
O22 Rb12 3.032041 1_555
O23 Rb2 2.844598 1_555
O23 Rb14 2.991839 1_555
O23 Rb13 3.032041 1_555
O24 Rb13 2.976379 1_555
O24 Rb1 3.171105 1_555
O24 Rb1 3.236762 1_455
O25 Rb0 2.976379 1_555
O25 Rb6 3.171105 1_555
O25 Rb6 3.236762 1_455
O26 Rb14 2.844598 1_555
O26 Rb2 2.991839 1_555
O26 Rb11 3.032041 1_555
O27 Rb7 2.976379 1_555
O27 Rb11 3.171105 1_455
O27 Rb11 3.236762 1_555
O28 Rb4 2.861200 1_545
O28 Rb0 3.072208 1_555
O29 Rb6 2.976379 1_555
O29 Rb0 3.171105 1_655
O29 Rb0 3.236762 1_555
O30 Rb2 2.861200 1_555
O30 Rb13 3.072208 1_555
O31 Rb10 2.869491 1_545
O31 Rb6 2.984682 1_555
O31 Rb0 3.373850 1_555
O31 Rb11 3.444272 1_545
