# generated using pymatgen
data_Mn23C6
_symmetry_space_group_name_H-M   'P 1'
_cell_length_a   7.42191675
_cell_length_b   7.42191123
_cell_length_c   7.42190135
_cell_angle_alpha   60.00005357
_cell_angle_beta   60.00007819
_cell_angle_gamma   60.00114796
_symmetry_Int_Tables_number   1
_chemical_formula_structural   Mn23C6
_chemical_formula_sum   'Mn23 C6'
_cell_volume   289.09209352
_cell_formula_units_Z   1
loop_
 _symmetry_equiv_pos_site_id
 _symmetry_equiv_pos_as_xyz
  1  'x, y, z'
loop_
 _atom_site_type_symbol
 _atom_site_label
 _atom_site_symmetry_multiplicity
 _atom_site_fract_x
 _atom_site_fract_y
 _atom_site_fract_z
 _atom_site_occupancy
  Mn  Mn0  1  0.99999470  0.00000011  0.00000209  1
  Mn  Mn1  1  0.24999822  0.24999172  0.25000503  1
  Mn  Mn2  1  0.75000407  0.75000987  0.74999303  1
  Mn  Mn3  1  0.38211534  0.38210721  0.38212794  1
  Mn  Mn4  1  0.61789247  0.61789172  0.14634947  1
  Mn  Mn5  1  0.14634513  0.61788187  0.61788600  1
  Mn  Mn6  1  0.61788143  0.14634080  0.61788838  1
  Mn  Mn7  1  0.85365392  0.38212365  0.38211222  1
  Mn  Mn8  1  0.38212550  0.85365978  0.38210736  1
  Mn  Mn9  1  0.38211534  0.38210721  0.85365152  1
  Mn  Mn10  1  0.61789247  0.61789172  0.61786534  1
  Mn  Mn11  1  0.33367339  0.00001845  -0.00001228  1
  Mn  Mn12  1  0.00000025  -0.00000512  0.33365110  1
  Mn  Mn13  1  0.33362751  0.66636905  0.00000222  1
  Mn  Mn14  1  0.00001253  0.33366800  0.66632527  1
  Mn  Mn15  1  0.99997252  0.66633818  0.33367024  1
  Mn  Mn16  1  0.00001253  0.33366800  -0.00000580  1
  Mn  Mn17  1  0.33367339  0.00001845  0.66632044  1
  Mn  Mn18  1  0.66636897  0.33361937  0.00000583  1
  Mn  Mn19  1  0.99997252  0.66633818  0.00002005  1
  Mn  Mn20  1  0.66633300  0.99998377  0.33367058  1
  Mn  Mn21  1  0.00000025  -0.00000512  0.66635377  1
  Mn  Mn22  1  0.66633300  0.99998377  0.00001264  1
  C  C0  1  0.72473696  0.27525669  0.27526540  1
  C  C1  1  0.72473465  0.72474490  0.27525972  1
  C  C2  1  0.27526909  0.27525507  0.72473792  1
  C  C3  1  0.72473696  0.27525669  0.72474196  1
  C  C4  1  0.27526296  0.72474350  0.27525928  1
  C  C5  1  0.27526296  0.72474350  0.72473426  1
loop_
_geom_bond_atom_site_label_1
_geom_bond_atom_site_label_2
_geom_bond_distance
_geom_bond_site_symmetry_2
Mn0 Mn18 2.476160 1_555
Mn0 Mn13 2.476230 1_645
Mn0 Mn21 2.476304 1_654
Mn0 Mn12 2.476311 1_655
Mn0 Mn19 2.476425 1_545
Mn0 Mn22 2.476431 1_545
Mn0 Mn15 2.476433 1_545
Mn0 Mn20 2.476435 1_545
Mn0 Mn14 2.476487 1_654
Mn0 Mn16 2.476490 1_655
Mn0 Mn17 2.476547 1_654
Mn0 Mn11 2.476550 1_655
Mn1 Mn8 2.401779 1_545
Mn1 Mn7 2.401856 1_455
Mn1 Mn9 2.401881 1_554
Mn1 Mn3 2.401892 1_555
Mn2 Mn6 2.401773 1_565
Mn2 Mn5 2.401837 1_655
Mn2 Mn4 2.401898 1_556
Mn10 Mn2 2.401904 1_555
C0 Mn6 2.078428 1_555
C0 Mn3 2.078444 1_555
C0 Mn7 2.078474 1_555
C0 Mn4 2.078524 1_555
C0 Mn18 2.088391 1_555
C0 Mn12 2.088462 1_655
C0 Mn20 2.088519 1_545
C0 Mn16 2.088542 1_655
C1 Mn4 2.078323 1_555
C1 Mn10 2.078323 1_555
C1 Mn8 2.078374 1_555
C1 Mn7 2.078446 1_555
C1 Mn19 2.088295 1_555
C1 Mn15 2.088304 1_555
C1 Mn22 2.088321 1_555
C1 Mn20 2.088325 1_555
C2 Mn3 2.078350 1_555
C2 Mn9 2.078362 1_555
C2 Mn6 2.078393 1_555
C2 Mn5 2.078480 1_555
C2 Mn17 2.088331 1_555
C2 Mn11 2.088331 1_556
C2 Mn14 2.088431 1_555
C2 Mn16 2.088431 1_556
C3 Mn6 2.078439 1_555
C3 Mn9 2.078444 1_555
C3 Mn7 2.078468 1_555
C3 Mn10 2.078523 1_555
C3 Mn18 2.088383 1_556
C3 Mn21 2.088464 1_655
C3 Mn22 2.088516 1_546
C3 Mn14 2.088539 1_655
C4 Mn5 2.078450 1_555
C4 Mn8 2.078451 1_555
C4 Mn4 2.078491 1_555
C4 Mn3 2.078531 1_555
C4 Mn13 2.088396 1_555
C4 Mn12 2.088422 1_565
C4 Mn11 2.088538 1_565
C4 Mn15 2.088637 1_455
C5 Mn8 2.078451 1_555
C5 Mn5 2.078456 1_555
C5 Mn10 2.078491 1_555
C5 Mn9 2.078531 1_555
C5 Mn13 2.088403 1_556
C5 Mn21 2.088422 1_565
C5 Mn17 2.088538 1_565
C5 Mn19 2.088640 1_456
