# generated using pymatgen
data_NaTi2Al5O12
_symmetry_space_group_name_H-M   'P 1'
_cell_length_a   2.91654669
_cell_length_b   9.07339572
_cell_length_c   15.32135530
_cell_angle_alpha   90.00000000
_cell_angle_beta   90.00000000
_cell_angle_gamma   90.00000000
_symmetry_Int_Tables_number   1
_chemical_formula_structural   NaTi2Al5O12
_chemical_formula_sum   'Na2 Ti4 Al10 O24'
_cell_volume   405.44875341
_cell_formula_units_Z   2
loop_
 _symmetry_equiv_pos_site_id
 _symmetry_equiv_pos_as_xyz
  1  'x, y, z'
loop_
 _atom_site_type_symbol
 _atom_site_label
 _atom_site_symmetry_multiplicity
 _atom_site_fract_x
 _atom_site_fract_y
 _atom_site_fract_z
 _atom_site_occupancy
  Na  Na0  1  0.50000000  0.50000000  -0.00000000  1
  Na  Na1  1  0.50000000  0.00000000  0.50000000  1
  Ti  Ti0  1  0.50000000  0.73377389  0.35718773  1
  Ti  Ti1  1  0.50000000  0.26622611  0.64281227  1
  Ti  Ti2  1  0.50000000  0.76622611  0.85718773  1
  Ti  Ti3  1  0.50000000  0.23377389  0.14281227  1
  Al  Al0  1  0.00000000  0.00000000  -0.00000000  1
  Al  Al1  1  0.00000000  0.48544851  0.80178916  1
  Al  Al2  1  0.00000000  0.01455149  0.30178916  1
  Al  Al3  1  0.00000000  0.51455149  0.19821084  1
  Al  Al4  1  0.50000000  0.18707979  0.85324844  1
  Al  Al5  1  0.50000000  0.81292021  0.14675156  1
  Al  Al6  1  0.00000000  0.98544851  0.69821084  1
  Al  Al7  1  0.50000000  0.68707979  0.64675156  1
  Al  Al8  1  0.50000000  0.31292021  0.35324844  1
  Al  Al9  1  0.00000000  0.50000000  0.50000000  1
  O  O0  1  0.50000000  0.39232465  0.55035239  1
  O  O1  1  -0.00000000  0.13097400  0.90560193  1
  O  O2  1  0.50000000  0.11813101  0.35240632  1
  O  O3  1  -0.00000000  0.35840764  0.70528808  1
  O  O4  1  0.50000000  0.38186899  0.85240632  1
  O  O5  1  0.50000000  0.61813101  0.14759368  1
  O  O6  1  0.50000000  0.10767535  0.05035239  1
  O  O7  1  -0.00000000  0.86902600  0.09439807  1
  O  O8  1  0.00000000  0.63097400  0.59439807  1
  O  O9  1  -0.00000000  0.85840764  0.79471192  1
  O  O10  1  0.00000000  0.14159236  0.20528808  1
  O  O11  1  0.00000000  0.12995020  0.60471609  1
  O  O12  1  0.50000000  0.60425130  0.75310524  1
  O  O13  1  0.00000000  0.87004980  0.39528391  1
  O  O14  1  0.00000000  0.64159236  0.29471192  1
  O  O15  1  -0.00000000  0.62995020  0.89528391  1
  O  O16  1  0.50000000  0.89232465  0.94964761  1
  O  O17  1  0.50000000  0.10425130  0.74689476  1
  O  O18  1  0.50000000  0.60767535  0.44964761  1
  O  O19  1  0.50000000  0.89574870  0.25310524  1
  O  O20  1  0.00000000  0.36902600  0.40560193  1
  O  O21  1  0.50000000  0.39574870  0.24689476  1
  O  O22  1  -0.00000000  0.37004980  0.10471609  1
  O  O23  1  0.50000000  0.88186899  0.64759368  1
loop_
_geom_bond_atom_site_label_1
_geom_bond_atom_site_label_2
_geom_bond_distance
_geom_bond_site_symmetry_2
Na0 O15 2.467973 1_554
Na0 O15 2.467973 1_654
Na0 O22 2.467973 1_555
Na0 O22 2.467973 1_655
Na0 O4 2.502498 1_554
Na0 O5 2.502498 1_555
Na1 O13 2.467973 1_545
Na1 O13 2.467973 1_645
Na1 O11 2.467973 1_555
Na1 O11 2.467973 1_655
Na1 O2 2.502498 1_555
Na1 O23 2.502498 1_545
Al0 O7 1.871910 1_545
Al0 O1 1.871910 1_554
Al0 O16 1.917346 1_444
Al0 O16 1.917346 1_544
Al0 O6 1.917346 1_455
Al0 O6 1.917346 1_555
Al1 O3 1.874765 1_555
Al1 O4 1.900330 1_455
Al1 O4 1.900330 1_555
Al1 O15 1.941906 1_555
Al1 O12 1.960841 1_455
Al1 O12 1.960841 1_555
Al2 O10 1.874765 1_555
Al2 O2 1.900330 1_555
Al2 O2 1.900330 1_455
Al2 O13 1.941906 1_545
Al2 O19 1.960841 1_445
Al2 O19 1.960841 1_545
Al3 O14 1.874765 1_555
Al3 O5 1.900330 1_455
Al3 O5 1.900330 1_555
Al3 O22 1.941906 1_555
Al3 O21 1.960841 1_555
Al3 O21 1.960841 1_455
Al4 O1 1.740437 1_655
Al4 O1 1.740437 1_555
Al4 O4 1.767447 1_555
Al4 O17 1.794441 1_555
Al5 O7 1.740437 1_655
Al5 O7 1.740437 1_555
Al5 O5 1.767447 1_555
Al5 O19 1.794441 1_555
Al6 O9 1.874765 1_555
Al6 O23 1.900330 1_555
Al6 O23 1.900330 1_455
Al6 O11 1.941906 1_565
Al6 O17 1.960841 1_565
Al6 O17 1.960841 1_465
Al7 O8 1.740437 1_655
Al7 O8 1.740437 1_555
Al7 O23 1.767447 1_555
Al7 O12 1.794441 1_555
Al8 O20 1.740437 1_655
Al8 O20 1.740437 1_555
Al8 O2 1.767447 1_555
Al8 O21 1.794441 1_555
Al9 O8 1.871910 1_555
Al9 O20 1.871910 1_555
Al9 O18 1.917346 1_455
Al9 O18 1.917346 1_555
Al9 O0 1.917346 1_455
Al9 O0 1.917346 1_555
O0 Ti1 1.820947 1_555
O3 Ti1 1.934524 1_455
O3 Ti1 1.934524 1_555
O6 Ti3 1.820947 1_555
O9 Ti2 1.934524 1_455
O9 Ti2 1.934524 1_555
O10 Ti3 1.934524 1_555
O10 Ti3 1.934524 1_455
O11 Ti1 1.999036 1_555
O11 Ti1 1.999036 1_455
O12 Ti2 2.168623 1_555
O13 Ti0 1.999036 1_555
O13 Ti0 1.999036 1_455
O14 Ti0 1.934524 1_555
O14 Ti0 1.934524 1_455
O15 Ti2 1.999036 1_455
O15 Ti2 1.999036 1_555
O16 Ti2 1.820947 1_555
O17 Ti1 2.168623 1_555
O18 Ti0 1.820947 1_555
O19 Ti0 2.168623 1_555
O21 Ti3 2.168623 1_555
O22 Ti3 1.999036 1_455
O22 Ti3 1.999036 1_555
