# generated using pymatgen
data_BaY2Si3O10
_symmetry_space_group_name_H-M   'P 1'
_cell_length_a   12.19849748
_cell_length_b   5.41949637
_cell_length_c   6.86951287
_cell_angle_alpha   73.48330447
_cell_angle_beta   90.00000000
_cell_angle_gamma   90.00000000
_symmetry_Int_Tables_number   1
_chemical_formula_structural   BaY2Si3O10
_chemical_formula_sum   'Ba2 Y4 Si6 O20'
_cell_volume   435.40225136
_cell_formula_units_Z   2
loop_
 _symmetry_equiv_pos_site_id
 _symmetry_equiv_pos_as_xyz
  1  'x, y, z'
loop_
 _atom_site_type_symbol
 _atom_site_label
 _atom_site_symmetry_multiplicity
 _atom_site_fract_x
 _atom_site_fract_y
 _atom_site_fract_z
 _atom_site_occupancy
  Ba  Ba0  1  0.75000000  0.75928880  0.98134364  1
  Ba  Ba1  1  0.25000000  0.24071120  0.01865636  1
  Y  Y0  1  0.59910263  0.15749499  0.31615294  1
  Y  Y1  1  0.90089737  0.15749499  0.31615294  1
  Y  Y2  1  0.09910263  0.84250501  0.68384706  1
  Y  Y3  1  0.40089737  0.84250501  0.68384706  1
  Si  Si0  1  0.06114691  0.69543810  0.21335734  1
  Si  Si1  1  0.25000000  0.41828845  0.48755675  1
  Si  Si2  1  0.75000000  0.58171155  0.51244325  1
  Si  Si3  1  0.43885309  0.69543810  0.21335734  1
  Si  Si4  1  0.56114691  0.30456190  0.78664266  1
  Si  Si5  1  0.93885309  0.30456190  0.78664266  1
  O  O0  1  0.44972766  0.89597423  0.35192995  1
  O  O1  1  0.14276802  0.45278297  0.33790510  1
  O  O2  1  0.85723198  0.54721703  0.66209490  1
  O  O3  1  0.35723198  0.45278297  0.33790510  1
  O  O4  1  0.37776726  0.83636369  0.00287007  1
  O  O5  1  0.87776726  0.16363631  0.99712993  1
  O  O6  1  0.05492731  0.43353210  0.80945960  1
  O  O7  1  0.94972766  0.10402577  0.64807005  1
  O  O8  1  0.55027234  0.10402577  0.64807005  1
  O  O9  1  0.25000000  0.62924839  0.61280761  1
  O  O10  1  0.12223274  0.83636369  0.00287007  1
  O  O11  1  0.55492731  0.56646790  0.19054040  1
  O  O12  1  0.25000000  0.12496320  0.63325454  1
  O  O13  1  0.64276802  0.54721703  0.66209490  1
  O  O14  1  0.75000000  0.87503680  0.36674546  1
  O  O15  1  0.94507269  0.56646790  0.19054040  1
  O  O16  1  0.75000000  0.37075161  0.38719239  1
  O  O17  1  0.44507269  0.43353210  0.80945960  1
  O  O18  1  0.62223274  0.16363631  0.99712993  1
  O  O19  1  0.05027234  0.89597423  0.35192995  1
loop_
_geom_bond_atom_site_label_1
_geom_bond_atom_site_label_2
_geom_bond_distance
_geom_bond_site_symmetry_2
Ba0 O18 2.716261 1_565
Ba0 O5 2.716261 1_565
Ba0 O11 2.822375 1_556
Ba0 O15 2.822375 1_556
Ba0 O14 2.889148 1_556
Ba0 O16 2.978047 1_556
Ba0 O13 3.045450 1_555
Ba0 O2 3.045450 1_555
Ba1 O10 2.716261 1_545
Ba1 O4 2.716261 1_545
Ba1 O17 2.822375 1_554
Ba1 O6 2.822375 1_554
Ba1 O12 2.889148 1_554
Ba1 O9 2.978047 1_554
Ba1 O3 3.045450 1_555
Ba1 O1 3.045450 1_555
O0 Si3 1.641080 1_555
O0 Y0 2.278452 1_565
O0 Y3 2.293904 1_555
O1 Si1 1.641211 1_555
O1 Si0 1.677202 1_555
O2 Si2 1.641211 1_555
O2 Si5 1.677202 1_555
O3 Si1 1.641211 1_555
O3 Si3 1.677202 1_555
O4 Si3 1.612888 1_555
O4 Y3 2.200468 1_554
O5 Si5 1.612888 1_555
O5 Y1 2.200468 1_556
O6 Si5 1.606318 1_455
O6 Y2 2.204557 1_555
O7 Si5 1.641080 1_555
O7 Y2 2.278452 1_645
O7 Y1 2.293904 1_555
O8 Si4 1.641080 1_555
O8 Y3 2.278452 1_545
O8 Y0 2.293904 1_555
O9 Si1 1.614547 1_555
O9 Y2 2.298443 1_555
O9 Y3 2.298443 1_555
O10 Si0 1.612888 1_555
O10 Y2 2.200468 1_554
O11 Si3 1.606318 1_555
O11 Y0 2.204557 1_555
O12 Si1 1.619923 1_555
O12 Y2 2.355809 1_545
O12 Y3 2.355809 1_545
O13 Si2 1.641211 1_555
O13 Si4 1.677202 1_555
O14 Si2 1.619923 1_555
O14 Y0 2.355809 1_565
O14 Y1 2.355809 1_565
O15 Si0 1.606318 1_655
O15 Y1 2.204557 1_555
O16 Si2 1.614547 1_555
O16 Y0 2.298443 1_555
O16 Y1 2.298443 1_555
O17 Si4 1.606318 1_555
O17 Y3 2.204557 1_555
O18 Si4 1.612888 1_555
O18 Y0 2.200468 1_556
O19 Si0 1.641080 1_555
O19 Y1 2.278452 1_465
O19 Y2 2.293904 1_555
