# generated using pymatgen
data_ZnCu3H6(ClO3)2
_symmetry_space_group_name_H-M   'P 1'
_cell_length_a   6.35584145
_cell_length_b   6.35584145
_cell_length_c   5.74483400
_cell_angle_alpha   90.00000000
_cell_angle_beta   90.00000000
_cell_angle_gamma   119.99999428
_symmetry_Int_Tables_number   1
_chemical_formula_structural   ZnCu3H6(ClO3)2
_chemical_formula_sum   'Zn1 Cu3 H6 Cl2 O6'
_cell_volume   200.98065198
_cell_formula_units_Z   1
loop_
 _symmetry_equiv_pos_site_id
 _symmetry_equiv_pos_as_xyz
  1  'x, y, z'
loop_
 _atom_site_type_symbol
 _atom_site_label
 _atom_site_symmetry_multiplicity
 _atom_site_fract_x
 _atom_site_fract_y
 _atom_site_fract_z
 _atom_site_occupancy
  Zn  Zn0  1  0.00000000  0.00000000  0.50000000  1
  Cu  Cu0  1  0.00000000  0.50000000  0.50000000  1
  Cu  Cu1  1  0.50000000  0.00000000  0.50000000  1
  Cu  Cu2  1  0.50000000  0.50000000  0.50000000  1
  H  H0  1  0.19927800  0.80072200  0.82146200  1
  H  H1  1  0.80072200  0.19927800  0.17853800  1
  H  H2  1  0.39855500  0.19927800  0.17853800  1
  H  H3  1  0.60144500  0.80072200  0.82146200  1
  H  H4  1  0.19927800  0.39855500  0.82146200  1
  H  H5  1  0.80072200  0.60144500  0.17853800  1
  Cl  Cl0  1  0.33333300  0.66666700  0.12234600  1
  Cl  Cl1  1  0.66666700  0.33333300  0.87765400  1
  O  O0  1  0.64533600  0.82266800  0.65465600  1
  O  O1  1  0.82266800  0.17733200  0.34534400  1
  O  O2  1  0.35466400  0.17733200  0.34534400  1
  O  O3  1  0.17733200  0.82266800  0.65465600  1
  O  O4  1  0.82266800  0.64533600  0.34534400  1
  O  O5  1  0.17733200  0.35466400  0.65465600  1
loop_
_geom_bond_atom_site_label_1
_geom_bond_atom_site_label_2
_geom_bond_distance
_geom_bond_site_symmetry_2
Cu0 O5 1.988502 1_555
Cu0 O4 1.988502 1_455
Cu0 O3 1.988502 1_555
Cu0 O1 1.988502 1_455
Cu1 O2 1.988502 1_555
Cu1 O0 1.988502 1_545
Cu1 O1 1.988502 1_555
Cu1 O3 1.988502 1_545
Cu2 O0 1.988502 1_555
Cu2 O4 1.988502 1_555
Cu2 O5 1.988502 1_555
Cu2 O2 1.988502 1_555
H0 O3 0.988259 1_555
H1 O1 0.988259 1_555
H2 O2 0.988257 1_555
H3 O0 0.988257 1_555
H4 O5 0.988257 1_555
H5 O4 0.988257 1_555
Cl0 Cu1 2.841369 1_565
Cl0 Cu0 2.841369 1_555
Cl0 Cu2 2.841372 1_555
Cl1 Cu0 2.841369 1_655
Cl1 Cu1 2.841369 1_555
Cl1 Cu2 2.841372 1_555
O0 Zn0 2.144856 1_665
O1 Zn0 2.144856 1_655
O2 Zn0 2.144856 1_555
O3 Zn0 2.144856 1_565
O4 Zn0 2.144856 1_665
O5 Zn0 2.144856 1_555
