# generated using pymatgen
data_Ta2CuO6
_symmetry_space_group_name_H-M   'P 1'
_cell_length_a   7.57343700
_cell_length_b   7.60506900
_cell_length_c   15.19424300
_cell_angle_alpha   90.00000000
_cell_angle_beta   90.00000000
_cell_angle_gamma   90.00000000
_symmetry_Int_Tables_number   1
_chemical_formula_structural   Ta2CuO6
_chemical_formula_sum   'Ta16 Cu8 O48'
_cell_volume   875.13538336
_cell_formula_units_Z   8
loop_
 _symmetry_equiv_pos_site_id
 _symmetry_equiv_pos_as_xyz
  1  'x, y, z'
loop_
 _atom_site_type_symbol
 _atom_site_label
 _atom_site_symmetry_multiplicity
 _atom_site_fract_x
 _atom_site_fract_y
 _atom_site_fract_z
 _atom_site_occupancy
  Ta  Ta0  1  0.25107700  0.25582200  0.37447400  1
  Ta  Ta1  1  0.25107700  0.25582200  0.62552600  1
  Ta  Ta2  1  0.25547900  0.24884600  0.87631400  1
  Ta  Ta3  1  0.74892300  0.25582200  0.62552600  1
  Ta  Ta4  1  0.74452100  0.24884600  0.12368600  1
  Ta  Ta5  1  0.25547900  0.24884600  0.12368600  1
  Ta  Ta6  1  0.74892300  0.25582200  0.37447400  1
  Ta  Ta7  1  0.74452100  0.24884600  0.87631400  1
  Ta  Ta8  1  0.25107700  0.74417800  0.62552600  1
  Ta  Ta9  1  0.25547900  0.75115400  0.12368600  1
  Ta  Ta10  1  0.74892300  0.74417800  0.37447400  1
  Ta  Ta11  1  0.74892300  0.74417800  0.62552600  1
  Ta  Ta12  1  0.25107700  0.74417800  0.37447400  1
  Ta  Ta13  1  0.74452100  0.75115400  0.87631400  1
  Ta  Ta14  1  0.74452100  0.75115400  0.12368600  1
  Ta  Ta15  1  0.25547900  0.75115400  0.87631400  1
  Cu  Cu0  1  0.00000000  0.00000000  0.50000000  1
  Cu  Cu1  1  0.50000000  0.00000000  0.25202600  1
  Cu  Cu2  1  0.50000000  0.00000000  0.50000000  1
  Cu  Cu3  1  0.50000000  0.00000000  0.74797400  1
  Cu  Cu4  1  0.00000000  0.00000000  0.00000000  1
  Cu  Cu5  1  0.00000000  0.50000000  0.24878500  1
  Cu  Cu6  1  0.00000000  0.50000000  0.75121500  1
  Cu  Cu7  1  0.00000000  0.50000000  0.00000000  1
  O  O0  1  0.69496900  0.00000000  0.33868900  1
  O  O1  1  0.69496900  0.00000000  0.66131100  1
  O  O2  1  0.69093100  0.00000000  0.84013200  1
  O  O3  1  0.30906900  0.00000000  0.84013200  1
  O  O4  1  0.69093100  0.00000000  0.15986800  1
  O  O5  1  0.00000000  0.18135500  0.59396400  1
  O  O6  1  0.00000000  0.18135500  0.40603600  1
  O  O7  1  0.00000000  0.17802900  0.09628200  1
  O  O8  1  0.00000000  0.17802900  0.90371800  1
  O  O9  1  0.68649400  0.18505500  0.50000000  1
  O  O10  1  0.31350600  0.18505500  0.50000000  1
  O  O11  1  0.70053600  0.20488300  0.00000000  1
  O  O12  1  0.29946400  0.20488300  0.00000000  1
  O  O13  1  0.81931200  0.31016200  0.24939700  1
  O  O14  1  0.81931200  0.31016200  0.75060300  1
  O  O15  1  0.18068800  0.31016200  0.24939700  1
  O  O16  1  0.18068800  0.31016200  0.75060300  1
  O  O17  1  0.50000000  0.29682400  0.35239300  1
  O  O18  1  0.50000000  0.30696400  0.85304200  1
  O  O19  1  0.50000000  0.29682400  0.64760700  1
  O  O20  1  0.50000000  0.30696400  0.14695800  1
  O  O21  1  0.79376300  0.50000000  0.40310600  1
  O  O22  1  0.81531400  0.50000000  0.90677700  1
  O  O23  1  0.79376300  0.50000000  0.59689400  1
  O  O24  1  0.20623700  0.50000000  0.40310600  1
  O  O25  1  0.20623700  0.50000000  0.59689400  1
  O  O26  1  0.81531400  0.50000000  0.09322300  1
  O  O27  1  0.18468600  0.50000000  0.90677700  1
  O  O28  1  0.18468600  0.50000000  0.09322300  1
  O  O29  1  0.50000000  0.70317600  0.35239300  1
  O  O30  1  0.50000000  0.70317600  0.64760700  1
  O  O31  1  0.50000000  0.69303600  0.85304200  1
  O  O32  1  0.50000000  0.69303600  0.14695800  1
  O  O33  1  0.81931200  0.68983800  0.24939700  1
  O  O34  1  0.18068800  0.68983800  0.24939700  1
  O  O35  1  0.81931200  0.68983800  0.75060300  1
  O  O36  1  0.18068800  0.68983800  0.75060300  1
  O  O37  1  0.68649400  0.81494500  0.50000000  1
  O  O38  1  0.31350600  0.81494500  0.50000000  1
  O  O39  1  0.70053600  0.79511700  0.00000000  1
  O  O40  1  0.29946400  0.79511700  0.00000000  1
  O  O41  1  0.00000000  0.81864500  0.40603600  1
  O  O42  1  0.00000000  0.81864500  0.59396400  1
  O  O43  1  0.00000000  0.82197100  0.09628200  1
  O  O44  1  0.00000000  0.82197100  0.90371800  1
  O  O45  1  0.30503100  0.00000000  0.33868900  1
  O  O46  1  0.30503100  0.00000000  0.66131100  1
  O  O47  1  0.30906900  0.00000000  0.15986800  1
loop_
_geom_bond_atom_site_label_1
_geom_bond_atom_site_label_2
_geom_bond_distance
_geom_bond_site_symmetry_2
Cu0 O5 1.985095 1_555
Cu0 O42 1.985095 1_545
Cu0 O6 1.985095 1_555
Cu0 O41 1.985095 1_545
Cu1 O0 1.978436 1_555
Cu1 O45 1.978436 1_555
Cu1 O4 2.012880 1_555
Cu1 O47 2.012880 1_555
Cu2 O9 1.993872 1_555
Cu2 O37 1.993872 1_545
Cu2 O10 1.993872 1_555
Cu2 O38 1.993872 1_545
Cu3 O1 1.978436 1_555
Cu3 O46 1.978436 1_555
Cu3 O2 2.012880 1_555
Cu3 O3 2.012880 1_555
Cu4 O43 1.993308 1_545
Cu4 O7 1.993308 1_555
Cu4 O44 1.993308 1_544
Cu4 O8 1.993308 1_554
Cu5 O34 1.989232 1_555
Cu5 O15 1.989232 1_555
Cu5 O33 1.989232 1_455
Cu5 O13 1.989232 1_455
Cu6 O36 1.989232 1_555
Cu6 O16 1.989232 1_555
Cu6 O35 1.989232 1_455
Cu6 O14 1.989232 1_455
Cu7 O26 1.990659 1_455
Cu7 O28 1.990659 1_555
Cu7 O22 1.990659 1_454
Cu7 O27 1.990659 1_554
O0 Ta10 2.061006 1_545
O0 Ta6 2.061006 1_555
O1 Ta11 2.061006 1_545
O1 Ta3 2.061006 1_555
O2 Ta7 2.012083 1_555
O2 Ta13 2.012083 1_545
O3 Ta2 2.012083 1_555
O3 Ta15 2.012083 1_545
O4 Ta4 2.012083 1_555
O4 Ta14 2.012083 1_545
O5 Ta1 2.041193 1_555
O5 Ta3 2.041193 1_455
O6 Ta0 2.041193 1_555
O6 Ta6 2.041193 1_455
O7 Ta5 2.051119 1_555
O7 Ta4 2.051119 1_455
O8 Ta7 2.051119 1_455
O8 Ta2 2.051119 1_555
O9 Ta6 2.037370 1_555
O9 Ta3 2.037370 1_555
O10 Ta1 2.037370 1_555
O10 Ta0 2.037370 1_555
O11 Ta4 1.937673 1_555
O11 Ta7 1.937673 1_554
O12 Ta5 1.937673 1_555
O12 Ta2 1.937673 1_554
O13 Ta6 2.016600 1_555
O13 Ta4 2.046144 1_555
O14 Ta3 2.016600 1_555
O14 Ta7 2.046144 1_555
O15 Ta0 2.016600 1_555
O15 Ta5 2.046144 1_555
O16 Ta1 2.016600 1_555
O16 Ta2 2.046144 1_555
O17 Ta6 1.940048 1_555
O17 Ta0 1.940048 1_555
O18 Ta7 1.936438 1_555
O18 Ta2 1.936438 1_555
O19 Ta1 1.940048 1_555
O19 Ta3 1.940048 1_555
O20 Ta5 1.936438 1_555
O20 Ta4 1.936438 1_555
O21 Ta10 1.937266 1_555
O21 Ta6 1.937266 1_555
O22 Ta13 2.037145 1_555
O22 Ta7 2.037145 1_555
O23 Ta11 1.937266 1_555
O23 Ta3 1.937266 1_555
O24 Ta0 1.937266 1_555
O24 Ta12 1.937266 1_555
O25 Ta8 1.937266 1_555
O25 Ta1 1.937266 1_555
O26 Ta14 2.037145 1_555
O26 Ta4 2.037145 1_555
O27 Ta15 2.037145 1_555
O27 Ta2 2.037145 1_555
O28 Ta9 2.037145 1_555
O28 Ta5 2.037145 1_555
O29 Ta12 1.940048 1_555
O29 Ta10 1.940048 1_555
O30 Ta8 1.940048 1_555
O30 Ta11 1.940048 1_555
O31 Ta15 1.936438 1_555
O31 Ta13 1.936438 1_555
O32 Ta14 1.936438 1_555
O32 Ta9 1.936438 1_555
O33 Ta10 2.016600 1_555
O33 Ta14 2.046144 1_555
O34 Ta12 2.016600 1_555
O34 Ta9 2.046144 1_555
O35 Ta11 2.016600 1_555
O35 Ta13 2.046144 1_555
O36 Ta8 2.016600 1_555
O36 Ta15 2.046144 1_555
O37 Ta10 2.037370 1_555
O37 Ta11 2.037370 1_555
O38 Ta12 2.037370 1_555
O38 Ta8 2.037370 1_555
O39 Ta14 1.937673 1_555
O39 Ta13 1.937673 1_554
O40 Ta9 1.937673 1_555
O40 Ta15 1.937673 1_554
O41 Ta10 2.041193 1_455
O41 Ta12 2.041193 1_555
O42 Ta11 2.041193 1_455
O42 Ta8 2.041193 1_555
O43 Ta14 2.051119 1_455
O43 Ta9 2.051119 1_555
O44 Ta15 2.051119 1_555
O44 Ta13 2.051119 1_455
O45 Ta12 2.061006 1_545
O45 Ta0 2.061006 1_555
O46 Ta8 2.061006 1_545
O46 Ta1 2.061006 1_555
O47 Ta5 2.012083 1_555
O47 Ta9 2.012083 1_545
