# generated using pymatgen
data_Tl2ZnN12
_symmetry_space_group_name_H-M   'P 1'
_cell_length_a   6.66731300
_cell_length_b   7.13904400
_cell_length_c   20.88356100
_cell_angle_alpha   90.00000000
_cell_angle_beta   90.00000000
_cell_angle_gamma   90.00000000
_symmetry_Int_Tables_number   1
_chemical_formula_structural   Tl2ZnN12
_chemical_formula_sum   'Tl8 Zn4 N48'
_cell_volume   994.02076668
_cell_formula_units_Z   4
loop_
 _symmetry_equiv_pos_site_id
 _symmetry_equiv_pos_as_xyz
  1  'x, y, z'
loop_
 _atom_site_type_symbol
 _atom_site_label
 _atom_site_symmetry_multiplicity
 _atom_site_fract_x
 _atom_site_fract_y
 _atom_site_fract_z
 _atom_site_occupancy
  Tl  Tl0  1  0.31526800  0.85551200  0.49037200  1
  Tl  Tl1  1  0.29548500  0.62602800  0.30252900  1
  Tl  Tl2  1  0.68473200  0.85551200  0.99037200  1
  Tl  Tl3  1  0.70451500  0.12602800  0.69747100  1
  Tl  Tl4  1  0.68473200  0.35551200  0.50962800  1
  Tl  Tl5  1  0.29548500  0.12602800  0.19747100  1
  Tl  Tl6  1  0.70451500  0.62602800  0.80252900  1
  Tl  Tl7  1  0.31526800  0.35551200  0.00962800  1
  Zn  Zn0  1  0.06618200  0.60416200  0.63317500  1
  Zn  Zn1  1  0.06618200  0.10416200  0.86682500  1
  Zn  Zn2  1  0.93381800  0.60416200  0.13317500  1
  Zn  Zn3  1  0.93381800  0.10416200  0.36682500  1
  N  N0  1  0.06112800  0.70474000  0.05061900  1
  N  N1  1  0.51661100  0.59584700  0.63381800  1
  N  N2  1  0.93887200  0.20474000  0.94938100  1
  N  N3  1  0.06112800  0.20474000  0.44938100  1
  N  N4  1  0.33246200  0.55873900  0.15986900  1
  N  N5  1  0.03948900  0.77256700  0.71038200  1
  N  N6  1  0.83228800  0.72404100  0.38729700  1
  N  N7  1  0.51661100  0.09584700  0.86618200  1
  N  N8  1  0.48338900  0.59584700  0.13381800  1
  N  N9  1  0.69956900  0.12199900  0.10110600  1
  N  N10  1  0.72062300  0.46709600  0.94393400  1
  N  N11  1  0.63367700  0.13153400  0.39508700  1
  N  N12  1  0.17071200  0.83857500  0.05380200  1
  N  N13  1  0.80445000  0.33527700  0.26916300  1
  N  N14  1  0.19555000  0.83527700  0.73083700  1
  N  N15  1  0.65745900  0.39756200  0.24810000  1
  N  N16  1  0.93887200  0.70474000  0.55061900  1
  N  N17  1  0.63367700  0.63153400  0.10491300  1
  N  N18  1  0.72062300  0.96709600  0.55606600  1
  N  N19  1  0.16771200  0.22404100  0.61270300  1
  N  N20  1  0.36632300  0.63153400  0.60491300  1
  N  N21  1  0.97208200  0.82452000  0.37511700  1
  N  N22  1  0.36632300  0.13153400  0.89508700  1
  N  N23  1  0.19555000  0.33527700  0.76916300  1
  N  N24  1  0.27937700  0.46709600  0.44393400  1
  N  N25  1  0.16771200  0.72404100  0.88729700  1
  N  N26  1  0.03948900  0.27256700  0.78961800  1
  N  N27  1  0.02791800  0.82452000  0.87511700  1
  N  N28  1  0.34254100  0.39756200  0.74810000  1
  N  N29  1  0.02791800  0.32452000  0.62488300  1
  N  N30  1  0.34254100  0.89756200  0.75190000  1
  N  N31  1  0.66753800  0.05873900  0.84013100  1
  N  N32  1  0.48338900  0.09584700  0.36618200  1
  N  N33  1  0.30043100  0.62199900  0.89889400  1
  N  N34  1  0.65745900  0.89756200  0.25190000  1
  N  N35  1  0.17071200  0.33857500  0.44619800  1
  N  N36  1  0.27937700  0.96709600  0.05606600  1
  N  N37  1  0.69956900  0.62199900  0.39889400  1
  N  N38  1  0.80445000  0.83527700  0.23083700  1
  N  N39  1  0.96051100  0.27256700  0.28961800  1
  N  N40  1  0.33246200  0.05873900  0.34013100  1
  N  N41  1  0.82928800  0.33857500  0.94619800  1
  N  N42  1  0.82928800  0.83857500  0.55380200  1
  N  N43  1  0.97208200  0.32452000  0.12488300  1
  N  N44  1  0.83228800  0.22404100  0.11270300  1
  N  N45  1  0.66753800  0.55873900  0.65986900  1
  N  N46  1  0.96051100  0.77256700  0.21038200  1
  N  N47  1  0.30043100  0.12199900  0.60110600  1
loop_
_geom_bond_atom_site_label_1
_geom_bond_atom_site_label_2
_geom_bond_distance
_geom_bond_site_symmetry_2
N0 N12 1.204630 1_555
N0 Zn2 2.051451 1_455
N1 N45 1.174203 1_555
N1 N20 1.197216 1_555
N2 N41 1.204630 1_555
N2 Zn1 2.051451 1_655
N3 N35 1.204630 1_555
N3 Zn3 2.051451 1_455
N4 N8 1.174203 1_555
N5 Zn0 2.019103 1_555
N10 N41 1.170034 1_555
N11 N32 1.197216 1_555
N11 Zn3 2.095488 1_555
N12 N36 1.170034 1_555
N13 N15 1.162615 1_555
N13 N39 1.210603 1_555
N14 N30 1.162615 1_555
N14 N5 1.210603 1_555
N16 N42 1.204630 1_555
N16 Zn0 2.051451 1_655
N17 N8 1.197216 1_555
N17 Zn2 2.095488 1_555
N18 N42 1.170034 1_555
N19 N47 1.171474 1_555
N19 N29 1.203317 1_555
N20 Zn0 2.095488 1_555
N21 N6 1.203317 1_555
N21 Zn3 2.020047 1_565
N22 N7 1.197216 1_555
N22 Zn1 2.095488 1_555
N23 N28 1.162615 1_555
N23 N26 1.210603 1_555
N24 N35 1.170034 1_555
N25 N33 1.171474 1_555
N25 N27 1.203317 1_555
N26 Zn1 2.019103 1_555
N27 Zn1 2.020047 1_565
N29 Zn0 2.020047 1_555
N31 N7 1.174203 1_555
N32 N40 1.174203 1_555
N34 N38 1.162615 1_555
N37 N6 1.171474 1_555
N38 N46 1.210603 1_555
N39 Zn3 2.019103 1_555
N43 N44 1.203317 1_555
N43 Zn2 2.020047 1_555
N44 N9 1.171474 1_555
N46 Zn2 2.019103 1_555
