# generated using pymatgen
data_Bi2O3
_symmetry_space_group_name_H-M   'P 1'
_cell_length_a   7.77157800
_cell_length_b   5.93078700
_cell_length_c   8.69807405
_cell_angle_alpha   62.61391674
_cell_angle_beta   90.00000000
_cell_angle_gamma   90.00000000
_symmetry_Int_Tables_number   1
_chemical_formula_structural   Bi2O3
_chemical_formula_sum   'Bi8 O12'
_cell_volume   355.97702368
_cell_formula_units_Z   4
loop_
 _symmetry_equiv_pos_site_id
 _symmetry_equiv_pos_as_xyz
  1  'x, y, z'
loop_
 _atom_site_type_symbol
 _atom_site_label
 _atom_site_symmetry_multiplicity
 _atom_site_fract_x
 _atom_site_fract_y
 _atom_site_fract_z
 _atom_site_occupancy
  Bi  Bi0  1  0.27274600  0.56960400  0.15331800  1
  Bi  Bi1  1  0.52523100  0.94083100  0.30608600  1
  Bi  Bi2  1  0.77274600  0.43039600  0.34668200  1
  Bi  Bi3  1  0.02523100  0.05916900  0.19391400  1
  Bi  Bi4  1  0.22725400  0.56960400  0.65331800  1
  Bi  Bi5  1  0.72725400  0.43039600  0.84668200  1
  Bi  Bi6  1  0.47476900  0.05916900  0.69391400  1
  Bi  Bi7  1  0.97476900  0.94083100  0.80608600  1
  O  O0  1  0.98794300  0.26873800  0.88585000  1
  O  O1  1  0.74251600  0.26981400  0.64314800  1
  O  O2  1  0.25748400  0.73018600  0.35685200  1
  O  O3  1  0.42216000  0.05399100  0.02414400  1
  O  O4  1  0.07784000  0.05399100  0.52414400  1
  O  O5  1  0.01205700  0.73126200  0.11415000  1
  O  O6  1  0.75748400  0.26981400  0.14314800  1
  O  O7  1  0.92216000  0.94600900  0.47585600  1
  O  O8  1  0.51205700  0.26873800  0.38585000  1
  O  O9  1  0.24251600  0.73018600  0.85685200  1
  O  O10  1  0.57784000  0.94600900  0.97585600  1
  O  O11  1  0.48794300  0.73126200  0.61415000  1
loop_
_geom_bond_atom_site_label_1
_geom_bond_atom_site_label_2
_geom_bond_distance
_geom_bond_site_symmetry_2
Bi0 O5 2.199847 1_555
Bi0 O9 2.313546 1_554
Bi0 O2 2.367774 1_555
Bi0 O8 2.722786 1_555
Bi1 O8 2.348433 1_565
Bi1 O2 2.361781 1_555
Bi1 O3 2.364733 1_565
Bi1 O11 2.396862 1_555
Bi1 O6 2.555287 1_565
Bi2 O8 2.199847 1_555
Bi2 O1 2.313546 1_555
Bi2 O6 2.367774 1_555
Bi2 O5 2.722786 1_655
Bi3 O5 2.348433 1_545
Bi3 O6 2.361781 1_455
Bi3 O7 2.364733 1_445
Bi3 O0 2.396862 1_454
Bi3 O2 2.555287 1_545
Bi4 O11 2.199847 1_555
Bi4 O2 2.313546 1_555
Bi4 O9 2.367774 1_555
Bi4 O0 2.722786 1_455
Bi5 O0 2.199847 1_555
Bi5 O6 2.313546 1_556
Bi5 O1 2.367774 1_555
Bi5 O11 2.722786 1_555
Bi6 O11 2.348433 1_545
Bi6 O1 2.361781 1_555
Bi6 O10 2.364733 1_545
Bi6 O8 2.396862 1_555
Bi6 O9 2.555287 1_545
Bi7 O0 2.348433 1_565
Bi7 O9 2.361781 1_655
Bi7 O4 2.364733 1_665
Bi7 O5 2.396862 1_656
Bi7 O1 2.555287 1_565
O4 O7 1.515853 1_445
O10 O3 1.515853 1_566
