# generated using pymatgen
data_Ni4B3
_symmetry_space_group_name_H-M   'P 1'
_cell_length_a   3.98124205
_cell_length_b   3.98123994
_cell_length_c   7.78560318
_cell_angle_alpha   80.58125647
_cell_angle_beta   80.58125527
_cell_angle_gamma   75.05619552
_symmetry_Int_Tables_number   1
_chemical_formula_structural   Ni4B3
_chemical_formula_sum   'Ni8 B6'
_cell_volume   116.66426301
_cell_formula_units_Z   2
loop_
 _symmetry_equiv_pos_site_id
 _symmetry_equiv_pos_as_xyz
  1  'x, y, z'
loop_
 _atom_site_type_symbol
 _atom_site_label
 _atom_site_symmetry_multiplicity
 _atom_site_fract_x
 _atom_site_fract_y
 _atom_site_fract_z
 _atom_site_occupancy
  Ni  Ni0  1  0.22265405  0.36564494  0.29059633  1
  Ni  Ni1  1  0.63435506  0.77734595  0.20940367  1
  Ni  Ni2  1  0.20280737  0.70724603  0.99371984  1
  Ni  Ni3  1  0.36564494  0.22265405  0.79059633  1
  Ni  Ni4  1  0.70724603  0.20280737  0.49371984  1
  Ni  Ni5  1  0.79719263  0.29275397  0.00628016  1
  Ni  Ni6  1  0.29275397  0.79719263  0.50628016  1
  Ni  Ni7  1  0.77734595  0.63435506  0.70940367  1
  B  B0  1  0.84087636  0.68880809  0.44023725  1
  B  B1  1  0.68880809  0.84087636  0.94023725  1
  B  B2  1  0.31119191  0.15912364  0.05976275  1
  B  B3  1  0.92234855  0.07765145  0.75000000  1
  B  B4  1  0.15912364  0.31119191  0.55976275  1
  B  B5  1  0.07765145  0.92234855  0.25000000  1
loop_
_geom_bond_atom_site_label_1
_geom_bond_atom_site_label_2
_geom_bond_distance
_geom_bond_site_symmetry_2
B0 B5 1.868457 1_655
B0 B4 1.917572 1_655
B0 Ni1 2.038861 1_555
B0 Ni7 2.051514 1_555
B0 Ni0 2.055564 1_655
B0 Ni4 2.070963 1_565
B0 Ni4 2.096403 1_555
B0 Ni6 2.105313 1_555
B0 Ni6 2.112546 1_655
B1 B3 1.868457 1_565
B1 B2 1.917572 1_566
B1 Ni7 2.038861 1_555
B1 Ni1 2.051514 1_556
B1 Ni3 2.055564 1_565
B1 Ni2 2.070964 1_655
B1 Ni2 2.096404 1_555
B1 Ni5 2.105312 1_556
B1 Ni5 2.112546 1_566
B2 B5 1.868457 1_545
B2 Ni0 2.038861 1_555
B2 Ni3 2.051514 1_554
B2 Ni1 2.055564 1_545
B2 Ni5 2.070964 1_455
B2 Ni5 2.096404 1_555
B2 Ni2 2.105312 1_554
B2 Ni2 2.112546 1_544
B3 B4 1.868457 1_655
B3 Ni7 2.077421 1_545
B3 Ni3 2.077422 1_655
B3 Ni7 2.125092 1_555
B3 Ni3 2.125093 1_555
B3 Ni5 2.230840 1_556
B3 Ni4 2.230840 1_555
B3 Ni6 2.439327 1_645
B3 Ni2 2.439327 1_645
B4 Ni3 2.038861 1_555
B4 Ni0 2.051514 1_555
B4 Ni7 2.055564 1_455
B4 Ni6 2.070963 1_545
B4 Ni6 2.096403 1_555
B4 Ni4 2.105313 1_555
B4 Ni4 2.112546 1_455
B5 Ni0 2.077421 1_565
B5 Ni1 2.077422 1_455
B5 Ni0 2.125092 1_555
B5 Ni1 2.125093 1_555
B5 Ni2 2.230840 1_554
B5 Ni6 2.230840 1_555
B5 Ni4 2.439327 1_465
B5 Ni5 2.439327 1_465
