# generated using pymatgen
data_KV4Ag11O16
_symmetry_space_group_name_H-M   'P 1'
_cell_length_a   10.53504600
_cell_length_b   10.77793000
_cell_length_c   17.22443000
_cell_angle_alpha   90.00000000
_cell_angle_beta   90.00000000
_cell_angle_gamma   90.00000000
_symmetry_Int_Tables_number   1
_chemical_formula_structural   KV4Ag11O16
_chemical_formula_sum   'K4 V16 Ag44 O64'
_cell_volume   1955.76492785
_cell_formula_units_Z   4
loop_
 _symmetry_equiv_pos_site_id
 _symmetry_equiv_pos_as_xyz
  1  'x, y, z'
loop_
 _atom_site_type_symbol
 _atom_site_label
 _atom_site_symmetry_multiplicity
 _atom_site_fract_x
 _atom_site_fract_y
 _atom_site_fract_z
 _atom_site_occupancy
  K  K0  1  0.50000000  0.00000000  0.50000000  1
  K  K1  1  0.50000000  0.50000000  0.00000000  1
  K  K2  1  0.00000000  0.50000000  0.50000000  1
  K  K3  1  0.00000000  0.00000000  0.00000000  1
  V  V0  1  0.25809500  0.23413700  0.00193000  1
  V  V1  1  0.74190500  0.26586300  0.50193000  1
  V  V2  1  0.49930800  0.98248000  0.26457200  1
  V  V3  1  0.99930800  0.51752000  0.26457200  1
  V  V4  1  0.74190500  0.76586300  0.99807000  1
  V  V5  1  0.00069200  0.48248000  0.73542800  1
  V  V6  1  0.00069200  0.98248000  0.76457200  1
  V  V7  1  0.99930800  0.01752000  0.23542800  1
  V  V8  1  0.49930800  0.48248000  0.23542800  1
  V  V9  1  0.50069200  0.01752000  0.73542800  1
  V  V10  1  0.24190500  0.23413700  0.50193000  1
  V  V11  1  0.25809500  0.73413700  0.49807000  1
  V  V12  1  0.24190500  0.73413700  0.99807000  1
  V  V13  1  0.75809500  0.76586300  0.49807000  1
  V  V14  1  0.75809500  0.26586300  0.00193000  1
  V  V15  1  0.50069200  0.51752000  0.76457200  1
  Ag  Ag0  1  0.52469300  0.72387900  0.63582500  1
  Ag  Ag1  1  0.21460200  0.47430500  0.87880200  1
  Ag  Ag2  1  0.53128600  0.20976900  0.13438700  1
  Ag  Ag3  1  0.21333800  0.98946300  0.37694100  1
  Ag  Ag4  1  0.78539800  0.02569500  0.37880200  1
  Ag  Ag5  1  0.47530700  0.77612100  0.13582500  1
  Ag  Ag6  1  0.97530700  0.72387900  0.13582500  1
  Ag  Ag7  1  0.71333800  0.51053700  0.37694100  1
  Ag  Ag8  1  0.28539800  0.97430500  0.12119800  1
  Ag  Ag9  1  0.52469300  0.22387900  0.86417500  1
  Ag  Ag10  1  0.24787500  0.76034000  0.75488900  1
  Ag  Ag11  1  0.71333800  0.01053700  0.12305900  1
  Ag  Ag12  1  0.75212500  0.23966000  0.24511100  1
  Ag  Ag13  1  0.28539800  0.47430500  0.37880200  1
  Ag  Ag14  1  0.97530700  0.22387900  0.36417500  1
  Ag  Ag15  1  0.53128600  0.70976900  0.36561300  1
  Ag  Ag16  1  0.02469300  0.27612100  0.86417500  1
  Ag  Ag17  1  0.71460200  0.02569500  0.87880200  1
  Ag  Ag18  1  0.96871400  0.20976900  0.63438700  1
  Ag  Ag19  1  0.03128600  0.29023100  0.13438700  1
  Ag  Ag20  1  0.02469300  0.77612100  0.63582500  1
  Ag  Ag21  1  0.78666200  0.01053700  0.62305900  1
  Ag  Ag22  1  0.47530700  0.27612100  0.36417500  1
  Ag  Ag23  1  0.75212500  0.73966000  0.25488900  1
  Ag  Ag24  1  0.78539800  0.52569500  0.12119800  1
  Ag  Ag25  1  0.00000000  0.00000000  0.50000000  1
  Ag  Ag26  1  0.74787500  0.73966000  0.75488900  1
  Ag  Ag27  1  0.78666200  0.51053700  0.87694100  1
  Ag  Ag28  1  0.46871400  0.79023100  0.86561300  1
  Ag  Ag29  1  0.50000000  0.00000000  0.00000000  1
  Ag  Ag30  1  0.03128600  0.79023100  0.36561300  1
  Ag  Ag31  1  0.25212500  0.76034000  0.25488900  1
  Ag  Ag32  1  0.46871400  0.29023100  0.63438700  1
  Ag  Ag33  1  0.96871400  0.70976900  0.86561300  1
  Ag  Ag34  1  0.71460200  0.52569500  0.62119800  1
  Ag  Ag35  1  0.25212500  0.26034000  0.24511100  1
  Ag  Ag36  1  0.28666200  0.98946300  0.87694100  1
  Ag  Ag37  1  0.50000000  0.50000000  0.50000000  1
  Ag  Ag38  1  0.21333800  0.48946300  0.12305900  1
  Ag  Ag39  1  0.28666200  0.48946300  0.62305900  1
  Ag  Ag40  1  0.21460200  0.97430500  0.62119800  1
  Ag  Ag41  1  0.24787500  0.26034000  0.74511100  1
  Ag  Ag42  1  0.74787500  0.23966000  0.74511100  1
  Ag  Ag43  1  0.00000000  0.50000000  0.00000000  1
  O  O0  1  0.31906300  0.67551900  0.91604400  1
  O  O1  1  0.25921300  0.89714500  0.49750700  1
  O  O2  1  0.41837500  0.18270200  0.00073300  1
  O  O3  1  0.39200800  0.88780600  0.31561400  1
  O  O4  1  0.08140100  0.92608500  0.17092300  1
  O  O5  1  0.58162500  0.81729800  0.99926700  1
  O  O6  1  0.08162500  0.68270200  0.99926700  1
  O  O7  1  0.08808800  0.58262100  0.79770000  1
  O  O8  1  0.41859900  0.42608500  0.82907700  1
  O  O9  1  0.39200800  0.38780600  0.18438600  1
  O  O10  1  0.25921300  0.39714500  0.00249300  1
  O  O11  1  0.81906300  0.82448100  0.91604400  1
  O  O12  1  0.10736300  0.61619400  0.21111200  1
  O  O13  1  0.17944900  0.17643200  0.91989700  1
  O  O14  1  0.91837500  0.31729800  0.00073300  1
  O  O15  1  0.58162500  0.31729800  0.50073300  1
  O  O16  1  0.74078700  0.10285500  0.50249300  1
  O  O17  1  0.91191200  0.91737900  0.29770000  1
  O  O18  1  0.32055100  0.67643200  0.08010300  1
  O  O19  1  0.24078700  0.39714500  0.50249300  1
  O  O20  1  0.18093700  0.67551900  0.41604400  1
  O  O21  1  0.10736300  0.11619400  0.28888800  1
  O  O22  1  0.10799200  0.38780600  0.68438600  1
  O  O23  1  0.60736300  0.38380600  0.28888800  1
  O  O24  1  0.82055100  0.82356800  0.08010300  1
  O  O25  1  0.91859900  0.07391500  0.82907700  1
  O  O26  1  0.58808800  0.41737900  0.70230000  1
  O  O27  1  0.32055100  0.17643200  0.41989700  1
  O  O28  1  0.41859900  0.92608500  0.67092300  1
  O  O29  1  0.31906300  0.17551900  0.58395600  1
  O  O30  1  0.58140100  0.57391500  0.17092300  1
  O  O31  1  0.39263700  0.61619400  0.71111200  1
  O  O32  1  0.91837500  0.81729800  0.49926700  1
  O  O33  1  0.81906300  0.32448100  0.58395600  1
  O  O34  1  0.75921300  0.10285500  0.00249300  1
  O  O35  1  0.58140100  0.07391500  0.32907700  1
  O  O36  1  0.68093700  0.32448100  0.08395600  1
  O  O37  1  0.75921300  0.60285500  0.49750700  1
  O  O38  1  0.58808800  0.91737900  0.79770000  1
  O  O39  1  0.60799200  0.61219400  0.81561400  1
  O  O40  1  0.41837500  0.68270200  0.49926700  1
  O  O41  1  0.08808800  0.08262100  0.70230000  1
  O  O42  1  0.89200800  0.61219400  0.31561400  1
  O  O43  1  0.91191200  0.41737900  0.20230000  1
  O  O44  1  0.41191200  0.58262100  0.29770000  1
  O  O45  1  0.60736300  0.88380600  0.21111200  1
  O  O46  1  0.08162500  0.18270200  0.50073300  1
  O  O47  1  0.67944900  0.32356800  0.91989700  1
  O  O48  1  0.89263700  0.88380600  0.71111200  1
  O  O49  1  0.68093700  0.82448100  0.41604400  1
  O  O50  1  0.39263700  0.11619400  0.78888800  1
  O  O51  1  0.17944900  0.67643200  0.58010300  1
  O  O52  1  0.18093700  0.17551900  0.08395600  1
  O  O53  1  0.24078700  0.89714500  0.99750700  1
  O  O54  1  0.89200800  0.11219400  0.18438600  1
  O  O55  1  0.91859900  0.57391500  0.67092300  1
  O  O56  1  0.74078700  0.60285500  0.99750700  1
  O  O57  1  0.08140100  0.42608500  0.32907700  1
  O  O58  1  0.89263700  0.38380600  0.78888800  1
  O  O59  1  0.82055100  0.32356800  0.41989700  1
  O  O60  1  0.67944900  0.82356800  0.58010300  1
  O  O61  1  0.41191200  0.08262100  0.20230000  1
  O  O62  1  0.60799200  0.11219400  0.68438600  1
  O  O63  1  0.10799200  0.88780600  0.81561400  1
loop_
_geom_bond_atom_site_label_1
_geom_bond_atom_site_label_2
_geom_bond_distance
_geom_bond_site_symmetry_2
K0 O16 2.768685 1_555
K0 O1 2.768685 1_545
K0 O60 3.015564 1_545
K0 O27 3.015564 1_555
K0 O29 3.050141 1_555
K0 O49 3.050141 1_545
K0 O28 3.168202 1_545
K0 O35 3.168202 1_555
K1 O56 2.768685 1_554
K1 O10 2.768685 1_555
K1 O18 3.015564 1_555
K1 O47 3.015564 1_554
K1 O0 3.050141 1_554
K1 O36 3.050141 1_555
K1 O30 3.168202 1_555
K1 O8 3.168202 1_554
K2 O19 2.768685 1_555
K2 O37 2.768685 1_455
K2 O51 3.015564 1_555
K2 O59 3.015564 1_455
K2 O33 3.050141 1_455
K2 O20 3.050141 1_555
K2 O55 3.168202 1_455
K2 O57 3.168202 1_555
K3 O53 2.768685 1_544
K3 O34 2.768685 1_455
K3 O13 3.015564 1_554
K3 O24 3.015564 1_445
K3 O52 3.050141 1_555
K3 O11 3.050141 1_444
K3 O4 3.168202 1_545
K3 O25 3.168202 1_454
Ag0 O60 2.175702 1_555
Ag0 O31 2.228038 1_555
Ag0 O28 2.522768 1_555
Ag0 O40 2.642733 1_555
Ag1 O7 2.256267 1_555
Ag1 O10 2.334853 1_556
Ag1 O8 2.371155 1_555
Ag1 O0 2.515099 1_555
Ag2 O36 2.183742 1_555
Ag2 O61 2.197249 1_555
Ag2 O9 2.564509 1_555
Ag2 O2 2.607642 1_555
Ag3 O21 2.326458 1_565
Ag3 O1 2.352912 1_555
Ag3 O3 2.420601 1_555
Ag3 O27 2.425692 1_565
Ag4 O17 2.256267 1_545
Ag4 O16 2.334853 1_555
Ag4 O35 2.371155 1_555
Ag4 O49 2.515099 1_545
Ag5 O18 2.175702 1_555
Ag5 O45 2.228038 1_555
Ag5 O30 2.522768 1_555
Ag5 O5 2.642733 1_554
Ag6 O24 2.175702 1_555
Ag6 O12 2.228038 1_655
Ag6 O4 2.522768 1_655
Ag6 O6 2.642733 1_654
Ag7 O23 2.326458 1_555
Ag7 O37 2.352912 1_555
Ag7 O42 2.420601 1_555
Ag7 O59 2.425692 1_555
Ag8 O61 2.256267 1_565
Ag8 O53 2.334853 1_554
Ag8 O4 2.371155 1_555
Ag8 O52 2.515099 1_565
Ag9 O47 2.175702 1_555
Ag9 O50 2.228038 1_555
Ag9 O8 2.522768 1_555
Ag9 O2 2.642733 1_556
Ag10 O63 2.270047 1_555
Ag10 O31 2.303927 1_555
Ag10 O7 2.654503 1_555
Ag11 O45 2.326458 1_545
Ag11 O34 2.352912 1_555
Ag11 O54 2.420601 1_555
Ag11 O24 2.425692 1_545
Ag12 O54 2.270047 1_555
Ag12 O23 2.303927 1_555
Ag12 O43 2.654503 1_555
Ag13 O44 2.256267 1_555
Ag13 O19 2.334853 1_555
Ag13 O57 2.371155 1_555
Ag13 O20 2.515099 1_555
Ag14 O59 2.175702 1_555
Ag14 O21 2.228038 1_655
Ag14 O57 2.522768 1_655
Ag14 O46 2.642733 1_655
Ag15 O49 2.183742 1_555
Ag15 O44 2.197249 1_555
Ag15 O3 2.564509 1_555
Ag15 O40 2.607642 1_555
Ag16 O13 2.175702 1_555
Ag16 O58 2.228038 1_455
Ag16 O25 2.522768 1_455
Ag16 O14 2.642733 1_456
Ag17 O38 2.256267 1_545
Ag17 O34 2.334853 1_556
Ag17 O25 2.371155 1_555
Ag17 O11 2.515099 1_545
Ag18 O33 2.183742 1_555
Ag18 O41 2.197249 1_655
Ag18 O22 2.564509 1_655
Ag18 O46 2.607642 1_655
Ag19 O52 2.183742 1_555
Ag19 O43 2.197249 1_455
Ag19 O54 2.564509 1_455
Ag19 O14 2.607642 1_455
Ag20 O51 2.175702 1_555
Ag20 O48 2.228038 1_455
Ag20 O55 2.522768 1_455
Ag20 O32 2.642733 1_455
Ag21 O48 2.326458 1_545
Ag21 O16 2.352912 1_555
Ag21 O62 2.420601 1_555
Ag21 O60 2.425692 1_545
Ag22 O27 2.175702 1_555
Ag22 O23 2.228038 1_555
Ag22 O35 2.522768 1_555
Ag22 O15 2.642733 1_555
Ag23 O42 2.270047 1_555
Ag23 O45 2.303927 1_555
Ag23 O17 2.654503 1_555
Ag24 O43 2.256267 1_555
Ag24 O56 2.334853 1_554
Ag24 O30 2.371155 1_555
Ag24 O36 2.515099 1_555
Ag25 O46 2.148762 1_555
Ag25 O32 2.148762 1_445
Ag26 O39 2.270047 1_555
Ag26 O48 2.303927 1_555
Ag26 O38 2.654503 1_555
Ag27 O58 2.326458 1_555
Ag27 O56 2.352912 1_555
Ag27 O39 2.420601 1_555
Ag27 O47 2.425692 1_555
Ag28 O0 2.183742 1_555
Ag28 O38 2.197249 1_555
Ag28 O39 2.564509 1_555
Ag28 O5 2.607642 1_555
Ag29 O2 2.148762 1_555
Ag29 O5 2.148762 1_544
Ag30 O20 2.183742 1_555
Ag30 O17 2.197249 1_455
Ag30 O42 2.564509 1_455
Ag30 O32 2.607642 1_455
Ag31 O3 2.270047 1_555
Ag31 O12 2.303927 1_555
Ag31 O44 2.654503 1_555
Ag32 O29 2.183742 1_555
Ag32 O26 2.197249 1_555
Ag32 O62 2.564509 1_555
Ag32 O15 2.607642 1_555
Ag33 O11 2.183742 1_555
Ag33 O7 2.197249 1_655
Ag33 O63 2.564509 1_655
Ag33 O6 2.607642 1_655
Ag34 O26 2.256267 1_555
Ag34 O37 2.334853 1_555
Ag34 O55 2.371155 1_555
Ag34 O33 2.515099 1_555
Ag35 O9 2.270047 1_555
Ag35 O21 2.303927 1_555
Ag35 O61 2.654503 1_555
Ag36 O50 2.326458 1_565
Ag36 O53 2.352912 1_555
Ag36 O63 2.420601 1_555
Ag36 O13 2.425692 1_565
Ag37 O40 2.148762 1_555
Ag37 O15 2.148762 1_555
Ag38 O12 2.326458 1_555
Ag38 O10 2.352912 1_555
Ag38 O9 2.420601 1_555
Ag38 O18 2.425692 1_555
Ag39 O31 2.326458 1_555
Ag39 O19 2.352912 1_555
Ag39 O22 2.420601 1_555
Ag39 O51 2.425692 1_555
Ag40 O41 2.256267 1_565
Ag40 O1 2.334853 1_555
Ag40 O28 2.371155 1_555
Ag40 O29 2.515099 1_565
Ag41 O22 2.270047 1_555
Ag41 O50 2.303927 1_555
Ag41 O41 2.654503 1_555
Ag42 O62 2.270047 1_555
Ag42 O58 2.303927 1_555
Ag42 O26 2.654503 1_555
Ag43 O6 2.148762 1_554
Ag43 O14 2.148762 1_455
O0 V12 1.748154 1_555
O1 V11 1.756955 1_555
O2 V0 1.777349 1_555
O3 V2 1.758397 1_555
O4 V7 1.718604 1_465
O5 V4 1.777349 1_555
O6 V12 1.777349 1_555
O7 V5 1.778514 1_555
O8 V15 1.718604 1_555
O9 V8 1.758397 1_555
O10 V0 1.756955 1_555
O11 V4 1.748154 1_555
O12 V3 1.809645 1_455
O13 V0 1.752078 1_556
O14 V14 1.777349 1_555
O15 V1 1.777349 1_555
O16 V1 1.756955 1_555
O17 V7 1.778514 1_565
O18 V12 1.752078 1_554
O19 V10 1.756955 1_555
O20 V11 1.748154 1_555
O21 V7 1.809645 1_455
O22 V5 1.758397 1_555
O23 V8 1.809645 1_555
O24 V4 1.752078 1_554
O25 V6 1.718604 1_645
O26 V15 1.778514 1_555
O27 V10 1.752078 1_555
O28 V9 1.718604 1_565
O29 V10 1.748154 1_555
O30 V8 1.718604 1_555
O31 V15 1.809645 1_555
O32 V13 1.777349 1_555
O33 V1 1.748154 1_555
O34 V14 1.756955 1_555
O35 V2 1.718604 1_545
O36 V14 1.748154 1_555
O37 V13 1.756955 1_555
O38 V9 1.778514 1_565
O39 V15 1.758397 1_555
O40 V11 1.777349 1_555
O41 V6 1.778514 1_545
O42 V3 1.758397 1_555
O43 V3 1.778514 1_555
O44 V8 1.778514 1_555
O45 V2 1.809645 1_555
O46 V10 1.777349 1_555
O47 V14 1.752078 1_556
O48 V6 1.809645 1_655
O49 V13 1.748154 1_555
O50 V9 1.809645 1_555
O51 V11 1.752078 1_555
O52 V0 1.748154 1_555
O53 V12 1.756955 1_555
O54 V7 1.758397 1_555
O55 V5 1.718604 1_655
O56 V4 1.756955 1_555
O57 V3 1.718604 1_455
O58 V5 1.809645 1_655
O59 V1 1.752078 1_555
O60 V13 1.752078 1_555
O61 V2 1.778514 1_545
O62 V9 1.758397 1_555
O63 V6 1.758397 1_555
