# generated using pymatgen
data_Ba2Mn3(SeO3)6
_symmetry_space_group_name_H-M   'P 1'
_cell_length_a   9.24616600
_cell_length_b   5.56764100
_cell_length_c   18.18294658
_cell_angle_alpha   85.47909895
_cell_angle_beta   90.00000000
_cell_angle_gamma   90.00000000
_symmetry_Int_Tables_number   1
_chemical_formula_structural   Ba2Mn3(SeO3)6
_chemical_formula_sum   'Ba4 Mn6 Se12 O36'
_cell_volume   933.13359020
_cell_formula_units_Z   2
loop_
 _symmetry_equiv_pos_site_id
 _symmetry_equiv_pos_as_xyz
  1  'x, y, z'
loop_
 _atom_site_type_symbol
 _atom_site_label
 _atom_site_symmetry_multiplicity
 _atom_site_fract_x
 _atom_site_fract_y
 _atom_site_fract_z
 _atom_site_occupancy
  Ba  Ba0  1  0.33498700  0.98093000  0.79599300  1
  Ba  Ba1  1  0.16501300  0.98093000  0.29599300  1
  Ba  Ba2  1  0.66501300  0.01907000  0.20400700  1
  Ba  Ba3  1  0.83498700  0.01907000  0.70400700  1
  Mn  Mn0  1  0.50078500  0.51533100  0.33586100  1
  Mn  Mn1  1  0.00000000  0.00000000  0.50000000  1
  Mn  Mn2  1  0.49921500  0.48466900  0.66413900  1
  Mn  Mn3  1  0.50000000  0.00000000  0.00000000  1
  Mn  Mn4  1  0.99921500  0.51533100  0.83586100  1
  Mn  Mn5  1  0.00078500  0.48466900  0.16413900  1
  Se  Se0  1  0.85887600  0.01027900  0.93178100  1
  Se  Se1  1  0.64112400  0.01027900  0.43178100  1
  Se  Se2  1  0.70358100  0.49815300  0.04762300  1
  Se  Se3  1  0.29641900  0.50184700  0.95237700  1
  Se  Se4  1  0.20358100  0.50184700  0.45237700  1
  Se  Se5  1  0.14661100  0.50543800  0.68771000  1
  Se  Se6  1  0.14112400  0.98972100  0.06821900  1
  Se  Se7  1  0.85338900  0.49456200  0.31229000  1
  Se  Se8  1  0.79641900  0.49815300  0.54762300  1
  Se  Se9  1  0.35338900  0.50543800  0.18771000  1
  Se  Se10  1  0.35887600  0.98972100  0.56821900  1
  Se  Se11  1  0.64661100  0.49456200  0.81229000  1
  O  O0  1  0.56596000  0.28261200  0.75921200  1
  O  O1  1  0.04290000  0.71742700  0.08207000  1
  O  O2  1  0.18184400  0.90554400  0.57794600  1
  O  O3  1  0.68331200  0.39475200  0.62227700  1
  O  O4  1  0.32456000  0.55843800  0.71815900  1
  O  O5  1  0.61057300  0.86045400  0.35376900  1
  O  O6  1  0.82456000  0.44156200  0.78184100  1
  O  O7  1  0.56808300  0.29228900  0.06883000  1
  O  O8  1  0.11057300  0.13954600  0.14623100  1
  O  O9  1  0.93404000  0.28261200  0.25921200  1
  O  O10  1  0.63652400  0.76251000  0.07649500  1
  O  O11  1  0.45710000  0.71742700  0.58207000  1
  O  O12  1  0.36347600  0.23749000  0.92350500  1
  O  O13  1  0.06808300  0.70771100  0.43117000  1
  O  O14  1  0.06596000  0.71738800  0.74078800  1
  O  O15  1  0.59934000  0.73912100  0.75341200  1
  O  O16  1  0.67544000  0.44156200  0.28184100  1
  O  O17  1  0.43404000  0.71738800  0.24078800  1
  O  O18  1  0.40066000  0.26087900  0.24658800  1
  O  O19  1  0.18331200  0.60524800  0.87772300  1
  O  O20  1  0.90066000  0.73912100  0.25341200  1
  O  O21  1  0.38942700  0.13954600  0.64623100  1
  O  O22  1  0.86347600  0.76251000  0.57649500  1
  O  O23  1  0.93191700  0.29228900  0.56883000  1
  O  O24  1  0.81668800  0.39475200  0.12227700  1
  O  O25  1  0.31668800  0.60524800  0.37772300  1
  O  O26  1  0.31815600  0.90554400  0.07794600  1
  O  O27  1  0.54290000  0.28257300  0.41793000  1
  O  O28  1  0.17544000  0.55843800  0.21815900  1
  O  O29  1  0.13652400  0.23749000  0.42350500  1
  O  O30  1  0.88942700  0.86045400  0.85376900  1
  O  O31  1  0.09934000  0.26087900  0.74658800  1
  O  O32  1  0.68184400  0.09445600  0.92205400  1
  O  O33  1  0.43191700  0.70771100  0.93117000  1
  O  O34  1  0.81815600  0.09445600  0.42205400  1
  O  O35  1  0.95710000  0.28257300  0.91793000  1
loop_
_geom_bond_atom_site_label_1
_geom_bond_atom_site_label_2
_geom_bond_distance
_geom_bond_site_symmetry_2
Ba0 O0 2.766276 1_565
Ba0 O31 2.786211 1_565
Ba0 O12 2.829763 1_565
Ba0 O19 2.839059 1_555
Ba0 O21 2.840688 1_565
Ba0 O4 2.840825 1_555
Ba0 O15 2.924156 1_555
Ba0 O33 2.927312 1_555
Ba0 O14 3.095202 1_555
Ba1 O9 2.766276 1_465
Ba1 O18 2.786211 1_565
Ba1 O29 2.829763 1_565
Ba1 O25 2.839059 1_555
Ba1 O8 2.840688 1_565
Ba1 O28 2.840825 1_555
Ba1 O20 2.924156 1_455
Ba1 O13 2.927312 1_555
Ba1 O17 3.095202 1_555
Ba2 O17 2.766276 1_545
Ba2 O20 2.786211 1_545
Ba2 O10 2.829763 1_545
Ba2 O24 2.839059 1_555
Ba2 O5 2.840688 1_545
Ba2 O16 2.840825 1_555
Ba2 O18 2.924156 1_555
Ba2 O7 2.927312 1_555
Ba2 O9 3.095202 1_555
Ba3 O14 2.766276 1_645
Ba3 O15 2.786211 1_545
Ba3 O22 2.829763 1_545
Ba3 O3 2.839059 1_555
Ba3 O30 2.840688 1_545
Ba3 O6 2.840825 1_555
Ba3 O31 2.924156 1_655
Ba3 O23 2.927312 1_555
Ba3 O0 3.095202 1_555
Mn0 O27 1.937264 1_555
Mn0 O25 1.946161 1_555
Mn0 O16 1.950630 1_555
Mn0 O17 2.080453 1_555
Mn0 O5 2.219769 1_555
Mn0 O18 2.421062 1_555
Mn1 O23 2.220808 1_455
Mn1 O13 2.220808 1_545
Mn1 O22 2.233050 1_445
Mn1 O29 2.233050 1_555
Mn1 O34 2.234892 1_455
Mn1 O2 2.234892 1_545
Mn2 O11 1.937264 1_555
Mn2 O3 1.946161 1_555
Mn2 O4 1.950630 1_555
Mn2 O0 2.080453 1_555
Mn2 O21 2.219769 1_555
Mn2 O15 2.421062 1_555
Mn3 O7 2.220808 1_555
Mn3 O33 2.220808 1_544
Mn3 O10 2.233050 1_545
Mn3 O12 2.233050 1_554
Mn3 O26 2.234892 1_545
Mn3 O32 2.234892 1_554
Mn4 O35 1.937264 1_555
Mn4 O19 1.946161 1_655
Mn4 O6 1.950630 1_555
Mn4 O14 2.080453 1_655
Mn4 O30 2.219769 1_555
Mn4 O31 2.421062 1_655
Mn5 O1 1.937264 1_555
Mn5 O24 1.946161 1_455
Mn5 O28 1.950630 1_555
Mn5 O9 2.080453 1_455
Mn5 O8 2.219769 1_555
Mn5 O20 2.421062 1_455
O0 Se11 1.749177 1_555
O1 Se6 1.768168 1_555
O2 Se10 1.707981 1_555
O3 Se8 1.773291 1_555
O4 Se5 1.768198 1_555
O5 Se1 1.724611 1_565
O6 Se11 1.768198 1_555
O7 Se2 1.721145 1_555
O8 Se6 1.724611 1_545
O9 Se7 1.749177 1_555
O10 Se2 1.717022 1_555
O11 Se10 1.768168 1_555
O12 Se3 1.717022 1_555
O13 Se4 1.721145 1_555
O14 Se5 1.749177 1_555
O15 Se11 1.720862 1_555
O16 Se7 1.768198 1_555
O17 Se9 1.749177 1_555
O18 Se9 1.720862 1_555
O19 Se3 1.773291 1_555
O20 Se7 1.720862 1_555
O21 Se10 1.724611 1_545
O22 Se8 1.717022 1_555
O23 Se8 1.721145 1_555
O24 Se2 1.773291 1_555
O25 Se4 1.773291 1_555
O26 Se6 1.707981 1_555
O27 Se1 1.768168 1_555
O28 Se9 1.768198 1_555
O29 Se4 1.717022 1_555
O30 Se0 1.724611 1_565
O31 Se5 1.720862 1_555
O32 Se0 1.707981 1_555
O33 Se3 1.721145 1_555
O34 Se1 1.707981 1_555
O35 Se0 1.768168 1_555
