# generated using pymatgen
data_Ta2Tl4Se11
_symmetry_space_group_name_H-M   'P 1'
_cell_length_a   8.15217644
_cell_length_b   9.29563693
_cell_length_c   13.97053288
_cell_angle_alpha   107.41485041
_cell_angle_beta   89.33117882
_cell_angle_gamma   94.23042427
_symmetry_Int_Tables_number   1
_chemical_formula_structural   Ta2Tl4Se11
_chemical_formula_sum   'Ta4 Tl8 Se22'
_cell_volume   1007.34290604
_cell_formula_units_Z   2
loop_
 _symmetry_equiv_pos_site_id
 _symmetry_equiv_pos_as_xyz
  1  'x, y, z'
loop_
 _atom_site_type_symbol
 _atom_site_label
 _atom_site_symmetry_multiplicity
 _atom_site_fract_x
 _atom_site_fract_y
 _atom_site_fract_z
 _atom_site_occupancy
  Ta  Ta0  1  0.66326858  0.10948447  0.81088804  1
  Ta  Ta1  1  0.33673142  0.89051553  0.18911196  1
  Ta  Ta2  1  0.87602667  0.36687844  0.69662709  1
  Ta  Ta3  1  0.12397333  0.63312156  0.30337291  1
  Tl  Tl0  1  0.94664764  0.76096299  0.01775312  1
  Tl  Tl1  1  0.05335236  0.23903701  0.98224688  1
  Tl  Tl2  1  0.78818029  0.97586853  0.42546777  1
  Tl  Tl3  1  0.21181971  0.02413147  0.57453223  1
  Tl  Tl4  1  0.49486259  0.27468753  0.11029484  1
  Tl  Tl5  1  0.50513741  0.72531247  0.88970516  1
  Tl  Tl6  1  0.76286172  0.41399246  0.41762071  1
  Tl  Tl7  1  0.23713828  0.58600754  0.58237929  1
  Se  Se0  1  0.72952392  0.03900218  0.95911377  1
  Se  Se1  1  0.27047608  0.96099782  0.04088623  1
  Se  Se2  1  0.54258516  0.68999547  0.11884142  1
  Se  Se3  1  0.45741484  0.31000453  0.88115858  1
  Se  Se4  1  0.73700696  0.40255969  0.88920642  1
  Se  Se5  1  0.26299304  0.59744031  0.11079358  1
  Se  Se6  1  0.96778104  0.13257736  0.75026807  1
  Se  Se7  1  0.03221896  0.86742264  0.24973193  1
  Se  Se8  1  0.59778970  0.07600549  0.24729524  1
  Se  Se9  1  0.40221030  0.92399451  0.75270476  1
  Se  Se10  1  0.65128781  0.85829801  0.66706173  1
  Se  Se11  1  0.34871219  0.14170199  0.33293827  1
  Se  Se12  1  0.60066048  0.44195087  0.64788194  1
  Se  Se13  1  0.39933952  0.55804913  0.35211806  1
  Se  Se14  1  0.88380750  0.49183062  0.18508420  1
  Se  Se15  1  0.11619250  0.50816938  0.81491580  1
  Se  Se16  1  0.94556133  0.65624689  0.75113532  1
  Se  Se17  1  0.05443867  0.34375311  0.24886468  1
  Se  Se18  1  0.61066122  0.17959486  0.62818998  1
  Se  Se19  1  0.38933878  0.82040514  0.37181002  1
  Se  Se20  1  0.98327485  0.70968698  0.46458006  1
  Se  Se21  1  0.01672515  0.29031302  0.53541994  1
loop_
_geom_bond_atom_site_label_1
_geom_bond_atom_site_label_2
_geom_bond_distance
_geom_bond_site_symmetry_2
Se0 Ta0 2.428911 1_555
Se0 Tl1 3.076866 1_655
Se0 Tl5 3.217312 1_545
Se0 Tl4 3.267187 1_556
Se1 Ta1 2.428911 1_555
Se1 Tl0 3.076866 1_455
Se1 Tl4 3.217312 1_565
Se1 Tl5 3.267187 1_554
Se2 Se5 2.367860 1_555
Se2 Ta1 2.565548 1_555
Se2 Tl5 3.333921 1_554
Se3 Se4 2.367860 1_555
Se3 Ta0 2.565548 1_555
Se3 Tl4 3.333921 1_556
Se4 Ta0 2.640064 1_555
Se4 Ta2 2.843059 1_555
Se5 Ta1 2.640064 1_555
Se5 Ta3 2.843059 1_555
Se6 Ta0 2.628104 1_555
Se6 Ta2 2.663661 1_555
Se6 Tl3 3.114828 1_655
Se6 Tl1 3.162335 1_655
Se7 Ta1 2.628104 1_555
Se7 Ta3 2.663661 1_555
Se7 Tl2 3.114828 1_455
Se7 Tl0 3.162335 1_455
Se8 Ta1 2.612092 1_545
Se8 Tl4 3.187521 1_555
Se8 Tl2 3.340907 1_545
Se9 Ta0 2.612092 1_565
Se9 Tl5 3.187521 1_555
Se9 Tl3 3.340907 1_565
Se10 Se9 2.369893 1_555
Se10 Ta0 2.580989 1_565
Se11 Se8 2.369893 1_555
Se11 Ta1 2.580989 1_545
Se12 Se18 2.378471 1_555
Se12 Ta2 2.557596 1_555
Se12 Tl6 3.408113 1_555
Se13 Se19 2.378471 1_555
Se13 Ta3 2.557596 1_555
Se13 Tl7 3.408113 1_555
Se14 Se17 2.380998 1_655
Se14 Ta3 2.585765 1_655
Se15 Se16 2.380998 1_455
Se15 Ta2 2.585765 1_455
Se16 Ta2 2.587589 1_555
Se16 Tl7 3.288075 1_655
Se17 Ta3 2.587589 1_555
Se17 Tl6 3.288075 1_455
Se18 Ta2 2.668548 1_555
Se18 Ta0 2.861092 1_555
Se18 Tl2 3.286318 1_545
Se19 Ta3 2.668548 1_555
Se19 Ta1 2.861092 1_555
Se19 Tl3 3.286318 1_565
Se20 Ta3 2.448470 1_655
Se20 Tl6 3.071433 1_555
Se20 Tl7 3.142646 1_655
Se20 Tl2 3.218782 1_555
Se20 Tl3 3.309131 1_665
Se21 Ta2 2.448470 1_455
Se21 Tl7 3.071433 1_555
Se21 Tl6 3.142646 1_455
Se21 Tl3 3.218782 1_555
Se21 Tl2 3.309131 1_445
