# generated using pymatgen
data_In5AgSe8
_symmetry_space_group_name_H-M   'P 1'
_cell_length_a   5.84277409
_cell_length_b   5.84277409
_cell_length_c   11.94164035
_cell_angle_alpha   90.00000000
_cell_angle_beta   90.00000000
_cell_angle_gamma   90.00000000
_symmetry_Int_Tables_number   1
_chemical_formula_structural   In5AgSe8
_chemical_formula_sum   'In5 Ag1 Se8'
_cell_volume   407.66382654
_cell_formula_units_Z   1
loop_
 _symmetry_equiv_pos_site_id
 _symmetry_equiv_pos_as_xyz
  1  'x, y, z'
loop_
 _atom_site_type_symbol
 _atom_site_label
 _atom_site_symmetry_multiplicity
 _atom_site_fract_x
 _atom_site_fract_y
 _atom_site_fract_z
 _atom_site_occupancy
  In  In0  1  0.50000000  0.00000000  0.25410118  1
  In  In1  1  0.50000000  0.00000000  0.74589882  1
  In  In2  1  -0.00000000  0.50000000  0.74589882  1
  In  In3  1  -0.00000000  0.50000000  0.25410118  1
  In  In4  1  0.50000000  0.50000000  -0.00000000  1
  Ag  Ag0  1  -0.00000000  0.00000000  0.50000000  1
  Se  Se0  1  0.77181208  0.77181208  0.11312105  1
  Se  Se1  1  0.27121180  0.72878820  0.38080274  1
  Se  Se2  1  0.72878820  0.72878820  0.61919726  1
  Se  Se3  1  0.72878820  0.27121180  0.38080274  1
  Se  Se4  1  0.77181208  0.22818792  0.88687895  1
  Se  Se5  1  0.27121180  0.27121180  0.61919726  1
  Se  Se6  1  0.22818792  0.22818792  0.11312105  1
  Se  Se7  1  0.22818792  0.77181208  0.88687895  1
loop_
_geom_bond_atom_site_label_1
_geom_bond_atom_site_label_2
_geom_bond_distance
_geom_bond_site_symmetry_2
In0 Se1 2.566557 1_545
In0 Se3 2.566557 1_555
In0 Se0 2.670959 1_545
In0 Se6 2.670959 1_555
In1 Se2 2.566557 1_545
In1 Se5 2.566557 1_555
In1 Se4 2.670959 1_555
In1 Se7 2.670959 1_545
In2 Se2 2.566557 1_455
In2 Se5 2.566557 1_555
In2 Se7 2.670959 1_555
In2 Se4 2.670959 1_455
In3 Se1 2.566557 1_555
In3 Se3 2.566557 1_455
In3 Se0 2.670959 1_455
In3 Se6 2.670959 1_555
In4 Se4 2.620907 1_554
In4 Se7 2.620907 1_554
In4 Se6 2.620907 1_555
In4 Se0 2.620907 1_555
Ag0 Se3 2.654844 1_455
Ag0 Se5 2.654844 1_555
Ag0 Se1 2.654844 1_545
Ag0 Se2 2.654844 1_445
