# generated using pymatgen
data_Na3BeAl(SiO4)2
_symmetry_space_group_name_H-M   'P 1'
_cell_length_a   6.93183900
_cell_length_b   7.26002000
_cell_length_c   7.37408300
_cell_angle_alpha   90.00000000
_cell_angle_beta   90.00000000
_cell_angle_gamma   90.00000000
_symmetry_Int_Tables_number   1
_chemical_formula_structural   Na3BeAl(SiO4)2
_chemical_formula_sum   'Na6 Be2 Al2 Si4 O16'
_cell_volume   371.10286381
_cell_formula_units_Z   2
loop_
 _symmetry_equiv_pos_site_id
 _symmetry_equiv_pos_as_xyz
  1  'x, y, z'
loop_
 _atom_site_type_symbol
 _atom_site_label
 _atom_site_symmetry_multiplicity
 _atom_site_fract_x
 _atom_site_fract_y
 _atom_site_fract_z
 _atom_site_occupancy
  Na  Na0  1  0.24703300  0.28664700  0.32396100  1
  Na  Na1  1  0.75296700  0.71335300  0.32396100  1
  Na  Na2  1  0.50000000  0.00000000  0.03335700  1
  Na  Na3  1  0.00000000  0.50000000  0.96664300  1
  Na  Na4  1  0.74703300  0.21335300  0.67603900  1
  Na  Na5  1  0.25296700  0.78664700  0.67603900  1
  Be  Be0  1  0.00000000  0.50000000  0.56662700  1
  Be  Be1  1  0.50000000  0.00000000  0.43337300  1
  Al  Al0  1  0.00000000  0.00000000  0.03321600  1
  Al  Al1  1  0.50000000  0.50000000  0.96678400  1
  Si  Si0  1  0.76454500  0.30059400  0.25963600  1
  Si  Si1  1  0.26454500  0.19940600  0.74036400  1
  Si  Si2  1  0.23545500  0.69940600  0.25963600  1
  Si  Si3  1  0.73545500  0.80059400  0.74036400  1
  O  O0  1  0.04468800  0.80361000  0.16880600  1
  O  O1  1  0.17149400  0.58838100  0.44148500  1
  O  O2  1  0.79719200  0.95879600  0.89420100  1
  O  O3  1  0.20280800  0.04120400  0.89420100  1
  O  O4  1  0.41591000  0.83830500  0.29428000  1
  O  O5  1  0.45531200  0.30361000  0.83119400  1
  O  O6  1  0.95531200  0.19639000  0.16880600  1
  O  O7  1  0.32850600  0.08838100  0.55851500  1
  O  O8  1  0.08409000  0.33830500  0.70572000  1
  O  O9  1  0.67149400  0.91161900  0.55851500  1
  O  O10  1  0.54468800  0.69639000  0.83119400  1
  O  O11  1  0.82850600  0.41161900  0.44148500  1
  O  O12  1  0.29719200  0.54120400  0.10579900  1
  O  O13  1  0.58409000  0.16169500  0.29428000  1
  O  O14  1  0.70280800  0.45879600  0.10579900  1
  O  O15  1  0.91591000  0.66169500  0.70572000  1
loop_
_geom_bond_atom_site_label_1
_geom_bond_atom_site_label_2
_geom_bond_distance
_geom_bond_site_symmetry_2
Na0 O7 2.320012 1_555
Na0 O1 2.413284 1_555
Na0 O6 2.414030 1_455
Na0 O12 2.474749 1_555
Na0 O13 2.515892 1_555
Na1 O9 2.320012 1_555
Na1 O11 2.413284 1_555
Na1 O0 2.414030 1_655
Na1 O14 2.474749 1_555
Na1 O4 2.515892 1_555
Na2 O3 2.320867 1_554
Na2 O2 2.320867 1_544
Na2 O4 2.328061 1_545
Na2 O13 2.328061 1_555
Na2 O10 2.678975 1_544
Na2 O5 2.678975 1_554
Na3 O14 2.320867 1_456
Na3 O12 2.320867 1_556
Na3 O15 2.328061 1_455
Na3 O8 2.328061 1_555
Na3 O0 2.678975 1_556
Na3 O6 2.678975 1_456
Na4 O11 2.320012 1_555
Na4 O9 2.413284 1_545
Na4 O5 2.414030 1_555
Na4 O2 2.474749 1_545
Na4 O8 2.515892 1_655
Na5 O1 2.320012 1_555
Na5 O7 2.413284 1_565
Na5 O10 2.414030 1_555
Na5 O3 2.474749 1_565
Na5 O15 2.515892 1_455
Be0 O1 1.635988 1_555
Be0 O11 1.635988 1_455
Be0 O15 1.664289 1_455
Be0 O8 1.664289 1_555
Be1 O9 1.635988 1_545
Be1 O7 1.635988 1_555
Be1 O4 1.664289 1_545
Be1 O13 1.664289 1_555
Al0 O2 1.765417 1_444
Al0 O3 1.765417 1_554
Al0 O0 1.768772 1_545
Al0 O6 1.768772 1_455
Al1 O14 1.765417 1_556
Al1 O12 1.765417 1_556
Al1 O5 1.768772 1_555
Al1 O10 1.768772 1_555
O0 Si2 1.664210 1_555
O1 Si2 1.626186 1_555
O2 Si3 1.670086 1_555
O3 Si1 1.670086 1_555
O4 Si2 1.626919 1_555
O5 Si1 1.664210 1_555
O6 Si0 1.664210 1_555
O7 Si1 1.626186 1_555
O8 Si1 1.626919 1_555
O9 Si3 1.626186 1_555
O10 Si3 1.664210 1_555
O11 Si0 1.626186 1_555
O12 Si2 1.670086 1_555
O13 Si0 1.626919 1_555
O14 Si0 1.670086 1_555
O15 Si3 1.626919 1_555
