# generated using pymatgen
data_GaS5N5Cl4
_symmetry_space_group_name_H-M   'P 1'
_cell_length_a   9.93614800
_cell_length_b   14.38905000
_cell_length_c   21.45415800
_cell_angle_alpha   90.00000000
_cell_angle_beta   90.00000000
_cell_angle_gamma   90.00000000
_symmetry_Int_Tables_number   1
_chemical_formula_structural   GaS5N5Cl4
_chemical_formula_sum   'Ga8 S40 N40 Cl32'
_cell_volume   3067.33809309
_cell_formula_units_Z   8
loop_
 _symmetry_equiv_pos_site_id
 _symmetry_equiv_pos_as_xyz
  1  'x, y, z'
loop_
 _atom_site_type_symbol
 _atom_site_label
 _atom_site_symmetry_multiplicity
 _atom_site_fract_x
 _atom_site_fract_y
 _atom_site_fract_z
 _atom_site_occupancy
  Ga  Ga0  1  0.53410500  0.25000000  0.61891200  1
  Ga  Ga1  1  0.44580200  0.25000000  0.12976400  1
  Ga  Ga2  1  0.55419800  0.75000000  0.87023600  1
  Ga  Ga3  1  0.46589500  0.75000000  0.38108800  1
  Ga  Ga4  1  0.94580200  0.25000000  0.37023600  1
  Ga  Ga5  1  0.96589500  0.75000000  0.11891200  1
  Ga  Ga6  1  0.03410500  0.25000000  0.88108800  1
  Ga  Ga7  1  0.05419800  0.75000000  0.62976400  1
  S  S0  1  0.92720900  0.39263300  0.54658700  1
  S  S1  1  0.30076800  0.00838200  0.47949200  1
  S  S2  1  0.98154400  0.60179500  0.32201900  1
  S  S3  1  0.29578800  0.53045200  0.77194800  1
  S  S4  1  0.08901000  0.60450400  0.86882400  1
  S  S5  1  0.70421200  0.46954800  0.22805200  1
  S  S6  1  0.19923200  0.99161800  0.97949200  1
  S  S7  1  0.98154400  0.89820500  0.32201900  1
  S  S8  1  0.58901000  0.60450400  0.63117600  1
  S  S9  1  0.48154400  0.89820500  0.17798100  1
  S  S10  1  0.57279100  0.89263300  0.04658700  1
  S  S11  1  0.01845600  0.39820500  0.67798100  1
  S  S12  1  0.42720900  0.39263300  0.95341300  1
  S  S13  1  0.30076800  0.49161800  0.47949200  1
  S  S14  1  0.58901000  0.89549600  0.63117600  1
  S  S15  1  0.79578800  0.96954800  0.72805200  1
  S  S16  1  0.20421200  0.46954800  0.27194800  1
  S  S17  1  0.07279100  0.60736700  0.45341300  1
  S  S18  1  0.80076800  0.49161800  0.02050800  1
  S  S19  1  0.19923200  0.50838200  0.97949200  1
  S  S20  1  0.07279100  0.89263300  0.45341300  1
  S  S21  1  0.91099000  0.10450400  0.13117600  1
  S  S22  1  0.48154400  0.60179500  0.17798100  1
  S  S23  1  0.29578800  0.96954800  0.77194800  1
  S  S24  1  0.79578800  0.53045200  0.72805200  1
  S  S25  1  0.51845600  0.39820500  0.82201900  1
  S  S26  1  0.92720900  0.10736700  0.54658700  1
  S  S27  1  0.69923200  0.50838200  0.52050800  1
  S  S28  1  0.80076800  0.00838200  0.02050800  1
  S  S29  1  0.57279100  0.60736700  0.04658700  1
  S  S30  1  0.41099000  0.10450400  0.36882400  1
  S  S31  1  0.08901000  0.89549600  0.86882400  1
  S  S32  1  0.20421200  0.03045200  0.27194800  1
  S  S33  1  0.69923200  0.99161800  0.52050800  1
  S  S34  1  0.41099000  0.39549600  0.36882400  1
  S  S35  1  0.91099000  0.39549600  0.13117600  1
  S  S36  1  0.51845600  0.10179500  0.82201900  1
  S  S37  1  0.01845600  0.10179500  0.67798100  1
  S  S38  1  0.42720900  0.10736700  0.95341300  1
  S  S39  1  0.70421200  0.03045200  0.22805200  1
  N  N0  1  0.68789400  0.56723800  0.68164900  1
  N  N1  1  0.31365300  0.46624200  0.93605900  1
  N  N2  1  0.81210600  0.43276200  0.18164900  1
  N  N3  1  0.48592900  0.87248800  0.10633600  1
  N  N4  1  0.81210600  0.06723800  0.18164900  1
  N  N5  1  0.60661400  0.57288900  0.56103000  1
  N  N6  1  0.41092500  0.46545700  0.79462600  1
  N  N7  1  0.18789400  0.56723800  0.81835100  1
  N  N8  1  0.18789400  0.93276200  0.81835100  1
  N  N9  1  0.39338600  0.07288900  0.43897000  1
  N  N10  1  0.18634700  0.96624200  0.43605900  1
  N  N11  1  0.01407100  0.37248800  0.60633600  1
  N  N12  1  0.81365300  0.46624200  0.56394100  1
  N  N13  1  0.91092500  0.46545700  0.70537400  1
  N  N14  1  0.68789400  0.93276200  0.68164900  1
  N  N15  1  0.08907500  0.53454300  0.29462600  1
  N  N16  1  0.98592900  0.62751200  0.39366400  1
  N  N17  1  0.10661400  0.92711100  0.93897000  1
  N  N18  1  0.01407100  0.12751200  0.60633600  1
  N  N19  1  0.89338600  0.07288900  0.06103000  1
  N  N20  1  0.31210600  0.06723800  0.31835100  1
  N  N21  1  0.68634700  0.53375800  0.06394100  1
  N  N22  1  0.58907500  0.96545700  0.20537400  1
  N  N23  1  0.98592900  0.87248800  0.39366400  1
  N  N24  1  0.51407100  0.12751200  0.89366400  1
  N  N25  1  0.48592900  0.62751200  0.10633600  1
  N  N26  1  0.58907500  0.53454300  0.20537400  1
  N  N27  1  0.10661400  0.57288900  0.93897000  1
  N  N28  1  0.31210600  0.43276200  0.31835100  1
  N  N29  1  0.08907500  0.96545700  0.29462600  1
  N  N30  1  0.60661400  0.92711100  0.56103000  1
  N  N31  1  0.89338600  0.42711100  0.06103000  1
  N  N32  1  0.41092500  0.03454300  0.79462600  1
  N  N33  1  0.81365300  0.03375800  0.56394100  1
  N  N34  1  0.91092500  0.03454300  0.70537400  1
  N  N35  1  0.51407100  0.37248800  0.89366400  1
  N  N36  1  0.31365300  0.03375800  0.93605900  1
  N  N37  1  0.39338600  0.42711100  0.43897000  1
  N  N38  1  0.18634700  0.53375800  0.43605900  1
  N  N39  1  0.68634700  0.96624200  0.06394100  1
  Cl  Cl0  1  0.12757900  0.25000000  0.97454100  1
  Cl  Cl1  1  0.58949700  0.87598400  0.36960100  1
  Cl  Cl2  1  0.12153600  0.25000000  0.43339900  1
  Cl  Cl3  1  0.62757900  0.25000000  0.52545900  1
  Cl  Cl4  1  0.58949700  0.62401600  0.36960100  1
  Cl  Cl5  1  0.98377100  0.75000000  0.72709000  1
  Cl  Cl6  1  0.32570800  0.37676200  0.11194400  1
  Cl  Cl7  1  0.37242100  0.75000000  0.47454100  1
  Cl  Cl8  1  0.67429200  0.62323800  0.88805600  1
  Cl  Cl9  1  0.19724700  0.25000000  0.81073500  1
  Cl  Cl10  1  0.30275300  0.75000000  0.31073500  1
  Cl  Cl11  1  0.80275300  0.75000000  0.18926500  1
  Cl  Cl12  1  0.87846400  0.75000000  0.56660100  1
  Cl  Cl13  1  0.51622900  0.25000000  0.22709000  1
  Cl  Cl14  1  0.08949700  0.62401600  0.13039900  1
  Cl  Cl15  1  0.82570800  0.12323800  0.38805600  1
  Cl  Cl16  1  0.67429200  0.87676200  0.88805600  1
  Cl  Cl17  1  0.17429200  0.62323800  0.61194400  1
  Cl  Cl18  1  0.48377100  0.75000000  0.77291000  1
  Cl  Cl19  1  0.87242100  0.75000000  0.02545900  1
  Cl  Cl20  1  0.17429200  0.87676200  0.61194400  1
  Cl  Cl21  1  0.08949700  0.87598400  0.13039900  1
  Cl  Cl22  1  0.32570800  0.12323800  0.11194400  1
  Cl  Cl23  1  0.69724700  0.25000000  0.68926500  1
  Cl  Cl24  1  0.01622900  0.25000000  0.27291000  1
  Cl  Cl25  1  0.82570800  0.37676200  0.38805600  1
  Cl  Cl26  1  0.62153600  0.25000000  0.06660100  1
  Cl  Cl27  1  0.91050300  0.12401600  0.86960100  1
  Cl  Cl28  1  0.41050300  0.37598400  0.63039900  1
  Cl  Cl29  1  0.41050300  0.12401600  0.63039900  1
  Cl  Cl30  1  0.91050300  0.37598400  0.86960100  1
  Cl  Cl31  1  0.37846400  0.75000000  0.93339900  1
loop_
_geom_bond_atom_site_label_1
_geom_bond_atom_site_label_2
_geom_bond_distance
_geom_bond_site_symmetry_2
N0 S24 1.555816 1_555
N0 S8 1.557392 1_555
N1 S19 1.590126 1_555
N1 S12 1.591706 1_555
N2 S5 1.555816 1_555
N2 S35 1.557392 1_555
N3 S10 1.572290 1_555
N3 S9 1.581599 1_555
N4 S39 1.555816 1_555
N4 S21 1.557392 1_555
N5 S27 1.569787 1_555
N5 S8 1.581876 1_555
N6 S3 1.555675 1_555
N6 S25 1.556722 1_555
N7 S3 1.555816 1_555
N7 S4 1.557392 1_555
N8 S23 1.555816 1_555
N8 S31 1.557392 1_555
N9 S1 1.569787 1_555
N9 S30 1.581876 1_555
N10 S1 1.590126 1_565
N10 S20 1.591706 1_555
N11 S0 1.572290 1_455
N11 S11 1.581599 1_555
N12 S27 1.590126 1_555
N12 S0 1.591706 1_555
N13 S24 1.555675 1_555
N13 S11 1.556722 1_655
N14 S15 1.555816 1_555
N14 S14 1.557392 1_555
N15 S16 1.555675 1_555
N15 S2 1.556722 1_455
N16 S17 1.572290 1_655
N16 S2 1.581599 1_555
N17 S6 1.569787 1_555
N17 S31 1.581876 1_555
N18 S26 1.572290 1_455
N18 S37 1.581599 1_555
N19 S28 1.569787 1_555
N19 S21 1.581876 1_555
N20 S32 1.555816 1_555
N20 S30 1.557392 1_555
N21 S18 1.590126 1_555
N21 S29 1.591706 1_555
N22 S39 1.555675 1_565
N22 S9 1.556722 1_555
N23 S20 1.572290 1_655
N23 S7 1.581599 1_555
N24 S38 1.572290 1_555
N24 S36 1.581599 1_555
N25 S29 1.572290 1_555
N25 S22 1.581599 1_555
N26 S5 1.555675 1_555
N26 S22 1.556722 1_555
N27 S19 1.569787 1_555
N27 S4 1.581876 1_555
N28 S16 1.555816 1_555
N28 S34 1.557392 1_555
N29 S32 1.555675 1_565
N29 S7 1.556722 1_455
N30 S33 1.569787 1_555
N30 S14 1.581876 1_555
N31 S18 1.569787 1_555
N31 S35 1.581876 1_555
N32 S23 1.555675 1_545
N32 S36 1.556722 1_555
N33 S33 1.590126 1_545
N33 S26 1.591706 1_555
N34 S15 1.555675 1_545
N34 S37 1.556722 1_655
N35 S12 1.572290 1_555
N35 S25 1.581599 1_555
N36 S6 1.590126 1_545
N36 S38 1.591706 1_555
N37 S13 1.569787 1_555
N37 S34 1.581876 1_555
N38 S13 1.590126 1_555
N38 S17 1.591706 1_555
N39 S28 1.590126 1_565
N39 S10 1.591706 1_555
Cl0 Ga6 2.209630 1_555
Cl1 Ga3 2.203461 1_555
Cl2 Ga4 2.210261 1_455
Cl3 Ga0 2.209630 1_555
Cl4 Ga3 2.203461 1_555
Cl5 Ga7 2.202186 1_655
Cl6 Ga1 2.212912 1_555
Cl7 Ga3 2.209630 1_555
Cl8 Ga2 2.212912 1_555
Cl9 Ga6 2.214911 1_555
Cl10 Ga3 2.214911 1_555
Cl11 Ga5 2.214911 1_555
Cl12 Ga7 2.210261 1_655
Cl13 Ga1 2.202186 1_555
Cl14 Ga5 2.203461 1_455
Cl15 Ga4 2.212912 1_555
Cl16 Ga2 2.212912 1_555
Cl17 Ga7 2.212912 1_555
Cl18 Ga2 2.202186 1_555
Cl19 Ga5 2.209630 1_555
Cl20 Ga7 2.212912 1_555
Cl21 Ga5 2.203461 1_455
Cl22 Ga1 2.212912 1_555
Cl23 Ga0 2.214911 1_555
Cl24 Ga4 2.202186 1_455
Cl25 Ga4 2.212912 1_555
Cl26 Ga1 2.210261 1_555
Cl27 Ga6 2.203461 1_655
Cl28 Ga0 2.203461 1_555
Cl29 Ga0 2.203461 1_555
Cl30 Ga6 2.203461 1_655
Cl31 Ga2 2.210261 1_555
