# generated using pymatgen
data_MgV2PbO7
_symmetry_space_group_name_H-M   'P 1'
_cell_length_a   15.27936000
_cell_length_b   6.96238400
_cell_length_c   11.70902076
_cell_angle_alpha   82.07214155
_cell_angle_beta   90.00000000
_cell_angle_gamma   90.00000000
_symmetry_Int_Tables_number   1
_chemical_formula_structural   MgV2PbO7
_chemical_formula_sum   'Mg8 V16 Pb8 O56'
_cell_volume   1233.70972282
_cell_formula_units_Z   8
loop_
 _symmetry_equiv_pos_site_id
 _symmetry_equiv_pos_as_xyz
  1  'x, y, z'
loop_
 _atom_site_type_symbol
 _atom_site_label
 _atom_site_symmetry_multiplicity
 _atom_site_fract_x
 _atom_site_fract_y
 _atom_site_fract_z
 _atom_site_occupancy
  Mg  Mg0  1  0.75092200  0.01142600  0.23977300  1
  Mg  Mg1  1  0.67678300  0.37582000  0.06280000  1
  Mg  Mg2  1  0.32321700  0.62418000  0.93720000  1
  Mg  Mg3  1  0.25092200  0.98857400  0.26022700  1
  Mg  Mg4  1  0.74907800  0.01142600  0.73977300  1
  Mg  Mg5  1  0.17678300  0.62418000  0.43720000  1
  Mg  Mg6  1  0.82321700  0.37582000  0.56280000  1
  Mg  Mg7  1  0.24907800  0.98857400  0.76022700  1
  V  V0  1  0.30416200  0.49108100  0.23070000  1
  V  V1  1  0.49336900  0.62922400  0.14611700  1
  V  V2  1  0.86302300  0.15622000  0.97979600  1
  V  V3  1  0.36302300  0.84378000  0.52020400  1
  V  V4  1  0.99336900  0.37077600  0.35388300  1
  V  V5  1  0.35718900  0.11179800  0.99534400  1
  V  V6  1  0.63697700  0.15622000  0.47979600  1
  V  V7  1  0.80416200  0.50891900  0.26930000  1
  V  V8  1  0.19583800  0.49108100  0.73070000  1
  V  V9  1  0.69583800  0.50891900  0.76930000  1
  V  V10  1  0.00663100  0.62922400  0.64611700  1
  V  V11  1  0.13697700  0.84378000  0.02020400  1
  V  V12  1  0.64281100  0.88820200  0.00465600  1
  V  V13  1  0.14281100  0.11179800  0.49534400  1
  V  V14  1  0.85718900  0.88820200  0.50465600  1
  V  V15  1  0.50663100  0.37077600  0.85388300  1
  Pb  Pb0  1  0.12536400  0.34081000  0.05377600  1
  Pb  Pb1  1  0.01868900  0.10973900  0.77819700  1
  Pb  Pb2  1  0.98131100  0.89026100  0.22180300  1
  Pb  Pb3  1  0.87463600  0.65919000  0.94622400  1
  Pb  Pb4  1  0.48131100  0.10973900  0.27819700  1
  Pb  Pb5  1  0.51868900  0.89026100  0.72180300  1
  Pb  Pb6  1  0.37463600  0.34081000  0.55377600  1
  Pb  Pb7  1  0.62536400  0.65919000  0.44622400  1
  O  O0  1  0.76433500  0.70062800  0.78521300  1
  O  O1  1  0.29099600  0.31022200  0.96706000  1
  O  O2  1  0.24956600  0.67486600  0.28671400  1
  O  O3  1  0.33324100  0.93748200  0.90573400  1
  O  O4  1  0.23566500  0.29937200  0.21478700  1
  O  O5  1  0.83324100  0.06251800  0.59426600  1
  O  O6  1  0.50910600  0.73372700  0.26644400  1
  O  O7  1  0.14723800  0.01831200  0.63881000  1
  O  O8  1  0.66675900  0.06251800  0.09426600  1
  O  O9  1  0.73566500  0.70062800  0.28521300  1
  O  O10  1  0.74956600  0.32513400  0.21328600  1
  O  O11  1  0.96800000  0.24417400  0.95834800  1
  O  O12  1  0.25043400  0.67486600  0.78671400  1
  O  O13  1  0.03200000  0.75582600  0.04165200  1
  O  O14  1  0.62044900  0.42087300  0.89366400  1
  O  O15  1  0.29037200  0.64860100  0.53375800  1
  O  O16  1  0.35276200  0.01831200  0.13881000  1
  O  O17  1  0.35527900  0.98594600  0.38476700  1
  O  O18  1  0.75043400  0.32513400  0.71328600  1
  O  O19  1  0.53200000  0.24417400  0.45834800  1
  O  O20  1  0.49089400  0.26627300  0.73355600  1
  O  O21  1  0.70962800  0.35139900  0.46624200  1
  O  O22  1  0.14472100  0.98594600  0.88476700  1
  O  O23  1  0.70900400  0.68977800  0.03294000  1
  O  O24  1  0.61649400  0.60164900  0.67544300  1
  O  O25  1  0.87955100  0.42087300  0.39366400  1
  O  O26  1  0.85527900  0.01405400  0.11523300  1
  O  O27  1  0.12044900  0.57912700  0.60633600  1
  O  O28  1  0.96899400  0.79923500  0.52863000  1
  O  O29  1  0.34688200  0.98833600  0.63078200  1
  O  O30  1  0.65311800  0.01166400  0.36921800  1
  O  O31  1  0.84688200  0.01166400  0.86921800  1
  O  O32  1  0.64472100  0.01405400  0.61523300  1
  O  O33  1  0.11649400  0.39835100  0.82455700  1
  O  O34  1  0.38350600  0.39835100  0.32455700  1
  O  O35  1  0.64723800  0.98168800  0.86119000  1
  O  O36  1  0.03100600  0.20076500  0.47137000  1
  O  O37  1  0.53100600  0.79923500  0.02863000  1
  O  O38  1  0.00910600  0.26627300  0.23355600  1
  O  O39  1  0.46800000  0.75582600  0.54165200  1
  O  O40  1  0.05870100  0.57044500  0.35137400  1
  O  O41  1  0.88350600  0.60164900  0.17544300  1
  O  O42  1  0.37955100  0.57912700  0.10633600  1
  O  O43  1  0.20900400  0.31022200  0.46706000  1
  O  O44  1  0.16675900  0.93748200  0.40573400  1
  O  O45  1  0.85276200  0.98168800  0.36119000  1
  O  O46  1  0.79037200  0.35139900  0.96624200  1
  O  O47  1  0.15311800  0.98833600  0.13078200  1
  O  O48  1  0.46899400  0.20076500  0.97137000  1
  O  O49  1  0.55870100  0.42955500  0.14862600  1
  O  O50  1  0.99089400  0.73372700  0.76644400  1
  O  O51  1  0.26433500  0.29937200  0.71478700  1
  O  O52  1  0.79099600  0.68977800  0.53294000  1
  O  O53  1  0.94129900  0.42955500  0.64862600  1
  O  O54  1  0.20962800  0.64860100  0.03375800  1
  O  O55  1  0.44129900  0.57044500  0.85137400  1
loop_
_geom_bond_atom_site_label_1
_geom_bond_atom_site_label_2
_geom_bond_distance
_geom_bond_site_symmetry_2
Mg0 O45 2.098599 1_545
Mg0 O8 2.125038 1_555
Mg0 O30 2.128648 1_555
Mg0 O26 2.159143 1_555
Mg0 O10 2.163398 1_555
Mg0 O9 2.168474 1_545
Mg1 O10 2.072322 1_555
Mg1 O46 2.091025 1_554
Mg1 O49 2.123389 1_555
Mg1 O14 2.142421 1_554
Mg1 O8 2.166957 1_555
Mg1 O23 2.220797 1_555
Mg2 O12 2.072322 1_555
Mg2 O54 2.091025 1_556
Mg2 O55 2.123389 1_555
Mg2 O42 2.142421 1_556
Mg2 O3 2.166957 1_555
Mg2 O1 2.220797 1_555
Mg3 O16 2.098599 1_565
Mg3 O44 2.125038 1_555
Mg3 O47 2.128648 1_555
Mg3 O17 2.159143 1_555
Mg3 O2 2.163398 1_555
Mg3 O4 2.168474 1_565
Mg4 O35 2.098599 1_545
Mg4 O5 2.125038 1_555
Mg4 O31 2.128648 1_555
Mg4 O32 2.159143 1_555
Mg4 O18 2.163398 1_555
Mg4 O0 2.168474 1_545
Mg5 O2 2.072322 1_555
Mg5 O15 2.091025 1_555
Mg5 O40 2.123389 1_555
Mg5 O27 2.142421 1_555
Mg5 O44 2.166957 1_555
Mg5 O43 2.220797 1_555
Mg6 O18 2.072322 1_555
Mg6 O21 2.091025 1_555
Mg6 O53 2.123389 1_555
Mg6 O25 2.142421 1_555
Mg6 O5 2.166957 1_555
Mg6 O52 2.220797 1_555
Mg7 O7 2.098599 1_565
Mg7 O3 2.125038 1_555
Mg7 O29 2.128648 1_555
Mg7 O22 2.159143 1_555
Mg7 O12 2.163398 1_555
Mg7 O51 2.168474 1_565
O0 V9 1.726336 1_555
O0 Pb3 2.515515 1_555
O1 V5 1.707316 1_555
O1 Pb0 2.746026 1_556
O2 V0 1.730571 1_555
O3 V5 1.749011 1_565
O4 V0 1.726336 1_555
O4 Pb0 2.515515 1_555
O5 V14 1.749011 1_545
O6 V1 1.689679 1_555
O6 Pb4 2.674377 1_565
O6 Pb7 2.748564 1_555
O7 V13 1.717119 1_555
O7 Pb1 2.685769 1_555
O8 V12 1.749011 1_545
O9 V7 1.726336 1_555
O9 Pb7 2.515515 1_555
O10 V7 1.730571 1_555
O11 V2 1.722904 1_555
O11 Pb1 2.543636 1_655
O11 Pb0 2.773052 1_656
O12 V8 1.730571 1_555
O13 V11 1.722904 1_555
O13 Pb2 2.543636 1_455
O13 Pb3 2.773052 1_454
O14 V15 1.846021 1_555
O14 V9 1.891261 1_555
O15 V3 1.744870 1_555
O15 Pb6 2.483206 1_555
O16 V5 1.717119 1_554
O16 Pb4 2.685769 1_555
O17 V3 1.753740 1_555
O17 Pb4 2.389883 1_565
O18 V9 1.730571 1_555
O19 V6 1.722904 1_555
O19 Pb4 2.543636 1_555
O19 Pb6 2.773052 1_555
O20 V15 1.689679 1_555
O20 Pb5 2.674377 1_545
O20 Pb6 2.748564 1_555
O21 V6 1.744870 1_555
O21 Pb7 2.483206 1_555
O22 V11 1.753740 1_556
O22 Pb1 2.389883 1_565
O23 V12 1.707316 1_555
O23 Pb3 2.746026 1_554
O24 V9 1.702522 1_555
O24 Pb5 2.620416 1_555
O24 Pb7 2.661905 1_555
O25 V4 1.846021 1_555
O25 V7 1.891261 1_555
O26 V2 1.753740 1_554
O26 Pb2 2.389883 1_545
O27 V10 1.846021 1_555
O27 V8 1.891261 1_555
O28 V10 1.781870 1_655
O28 V14 1.825606 1_555
O29 V3 1.763419 1_555
O29 Pb6 2.530780 1_565
O30 V6 1.763419 1_555
O30 Pb7 2.530780 1_545
O31 V2 1.763419 1_555
O31 Pb3 2.530780 1_545
O32 V6 1.753740 1_555
O32 Pb5 2.389883 1_545
O33 V8 1.702522 1_555
O33 Pb1 2.620416 1_555
O33 Pb0 2.661905 1_556
O34 V0 1.702522 1_555
O34 Pb4 2.620416 1_555
O34 Pb6 2.661905 1_555
O35 V12 1.717119 1_556
O35 Pb5 2.685769 1_555
O36 V4 1.781870 1_455
O36 V13 1.825606 1_555
O37 V1 1.781870 1_555
O37 V12 1.825606 1_555
O38 V4 1.689679 1_455
O38 Pb2 2.674377 1_445
O38 Pb0 2.748564 1_555
O39 V3 1.722904 1_555
O39 Pb5 2.543636 1_555
O39 Pb7 2.773052 1_555
O40 V4 1.708403 1_455
O40 Pb2 2.779605 1_455
O41 V7 1.702522 1_555
O41 Pb2 2.620416 1_555
O41 Pb3 2.661905 1_554
O42 V1 1.846021 1_555
O42 V0 1.891261 1_555
O43 V13 1.707316 1_555
O43 Pb6 2.746026 1_555
O44 V13 1.749011 1_565
O45 V14 1.717119 1_555
O45 Pb2 2.685769 1_555
O46 V2 1.744870 1_555
O46 Pb3 2.483206 1_555
O47 V11 1.763419 1_555
O47 Pb0 2.530780 1_565
O48 V15 1.781870 1_555
O48 V5 1.825606 1_555
O49 V1 1.708403 1_555
O49 Pb4 2.779605 1_555
O50 V10 1.689679 1_655
O50 Pb1 2.674377 1_665
O50 Pb3 2.748564 1_555
O51 V8 1.726336 1_555
O51 Pb6 2.515515 1_555
O52 V14 1.707316 1_555
O52 Pb7 2.746026 1_555
O53 V10 1.708403 1_655
O53 Pb1 2.779605 1_655
O54 V11 1.744870 1_555
O54 Pb0 2.483206 1_555
O55 V15 1.708403 1_555
O55 Pb5 2.779605 1_555
