# generated using pymatgen
data_Na3Fe2(MoO4)3
_symmetry_space_group_name_H-M   'P 1'
_cell_length_a   9.29015575
_cell_length_b   9.29015575
_cell_length_c   7.32417169
_cell_angle_alpha   74.28556418
_cell_angle_beta   74.28556418
_cell_angle_gamma   96.09912704
_symmetry_Int_Tables_number   1
_chemical_formula_structural   Na3Fe2(MoO4)3
_chemical_formula_sum   'Na6 Fe4 Mo6 O24'
_cell_volume   574.64897990
_cell_formula_units_Z   2
loop_
 _symmetry_equiv_pos_site_id
 _symmetry_equiv_pos_as_xyz
  1  'x, y, z'
loop_
 _atom_site_type_symbol
 _atom_site_label
 _atom_site_symmetry_multiplicity
 _atom_site_fract_x
 _atom_site_fract_y
 _atom_site_fract_z
 _atom_site_occupancy
  Na  Na0  1  0.50891900  0.49108200  0.25000000  1
  Na  Na1  1  0.49108100  0.50891800  0.75000000  1
  Na  Na2  1  0.76759300  0.23240700  0.75000000  1
  Na  Na3  1  0.23240700  0.76759300  0.25000000  1
  Na  Na4  1  0.00000000  0.00000000  0.00000000  1
  Na  Na5  1  0.00000000  0.00000000  0.50000000  1
  Fe  Fe0  1  0.44592800  0.12610500  0.62949500  1
  Fe  Fe1  1  0.87389500  0.55407200  0.87050500  1
  Fe  Fe2  1  0.55407200  0.87389500  0.37050500  1
  Fe  Fe3  1  0.12610500  0.44592800  0.12949500  1
  Mo  Mo0  1  0.83699200  0.61926100  0.37302400  1
  Mo  Mo1  1  0.38073900  0.16300800  0.12697600  1
  Mo  Mo2  1  0.16300800  0.38073900  0.62697600  1
  Mo  Mo3  1  0.61926100  0.83699200  0.87302400  1
  Mo  Mo4  1  0.78013200  0.21986800  0.25000000  1
  Mo  Mo5  1  0.21986800  0.78013200  0.75000000  1
  O  O0  1  0.65880400  0.25816700  0.47642000  1
  O  O1  1  0.74183300  0.34119600  0.02358000  1
  O  O2  1  0.34119600  0.74183300  0.52358000  1
  O  O3  1  0.25816700  0.65880400  0.97642000  1
  O  O4  1  0.96345300  0.79474800  0.30534600  1
  O  O5  1  0.20525200  0.03654700  0.19465400  1
  O  O6  1  0.03654700  0.20525200  0.69465400  1
  O  O7  1  0.79474800  0.96345300  0.80534600  1
  O  O8  1  0.83918700  0.50265200  0.61163500  1
  O  O9  1  0.49734800  0.16081300  0.88836500  1
  O  O10  1  0.16081300  0.49734800  0.38836500  1
  O  O11  1  0.50265200  0.83918700  0.11163500  1
  O  O12  1  0.64492000  0.65515300  0.40001300  1
  O  O13  1  0.34484700  0.35508000  0.09998700  1
  O  O14  1  0.35508000  0.34484700  0.59998700  1
  O  O15  1  0.65515300  0.64492000  0.90001300  1
  O  O16  1  0.75808300  0.02173300  0.23130800  1
  O  O17  1  0.97826700  0.24191700  0.26869200  1
  O  O18  1  0.24191700  0.97826700  0.76869200  1
  O  O19  1  0.02173300  0.75808300  0.73130800  1
  O  O20  1  0.89947200  0.53729300  0.17209600  1
  O  O21  1  0.46270700  0.10052800  0.32790400  1
  O  O22  1  0.10052800  0.46270700  0.82790400  1
  O  O23  1  0.53729300  0.89947200  0.67209600  1
loop_
_geom_bond_atom_site_label_1
_geom_bond_atom_site_label_2
_geom_bond_distance
_geom_bond_site_symmetry_2
Na0 O15 2.485071 1_554
Na0 O14 2.485075 1_555
Na0 O12 2.525227 1_555
Na0 O13 2.525239 1_555
Na1 O13 2.485071 1_556
Na1 O12 2.485075 1_555
Na1 O14 2.525227 1_555
Na1 O15 2.525239 1_555
Na2 O8 2.382105 1_555
Na2 O9 2.382105 1_555
Na2 O1 2.445883 1_556
Na2 O0 2.445883 1_555
Na2 O7 2.472201 1_545
Na2 O6 2.472201 1_655
Na3 O10 2.382105 1_555
Na3 O11 2.382105 1_555
Na3 O3 2.445883 1_554
Na3 O2 2.445883 1_555
Na3 O4 2.472201 1_455
Na3 O5 2.472201 1_565
Na4 O6 2.427735 1_554
Na4 O4 2.427735 1_445
Na4 O18 2.486189 1_544
Na4 O16 2.486189 1_455
Na4 O7 2.716805 1_444
Na4 O5 2.716805 1_555
Na5 O7 2.427735 1_445
Na5 O5 2.427735 1_555
Na5 O17 2.486189 1_455
Na5 O19 2.486189 1_545
Na5 O4 2.716805 1_445
Na5 O6 2.716805 1_555
Fe0 O18 2.039498 1_545
Fe0 O0 2.052211 1_555
Fe0 O9 2.171650 1_555
Fe0 O21 2.250708 1_555
Fe0 O14 2.261419 1_555
Fe0 O23 2.327684 1_545
Fe1 O19 2.039498 1_655
Fe1 O1 2.052211 1_556
Fe1 O8 2.171650 1_555
Fe1 O20 2.250708 1_556
Fe1 O15 2.261419 1_555
Fe1 O22 2.327684 1_655
Fe2 O16 2.039498 1_565
Fe2 O2 2.052211 1_555
Fe2 O11 2.171650 1_555
Fe2 O23 2.250708 1_555
Fe2 O12 2.261419 1_555
Fe2 O21 2.327684 1_565
Fe3 O17 2.039498 1_455
Fe3 O3 2.052211 1_554
Fe3 O10 2.171650 1_555
Fe3 O22 2.250708 1_554
Fe3 O13 2.261419 1_555
Fe3 O20 2.327684 1_455
Mo0 O4 1.767381 1_555
Mo0 O8 1.796289 1_555
Mo0 O12 1.818059 1_555
Mo0 O20 1.822291 1_555
Mo1 O5 1.767381 1_555
Mo1 O9 1.796289 1_554
Mo1 O13 1.818059 1_555
Mo1 O21 1.822291 1_555
Mo2 O6 1.767381 1_555
Mo2 O10 1.796289 1_555
Mo2 O14 1.818059 1_555
Mo2 O22 1.822291 1_555
Mo3 O7 1.767381 1_555
Mo3 O11 1.796289 1_556
Mo3 O15 1.818059 1_555
Mo3 O23 1.822291 1_555
Mo4 O17 1.876291 1_555
Mo4 O16 1.876291 1_555
Mo4 O0 1.881351 1_555
Mo4 O1 1.881351 1_555
Mo5 O18 1.876291 1_555
Mo5 O19 1.876291 1_555
Mo5 O2 1.881351 1_555
Mo5 O3 1.881351 1_555
