# generated using pymatgen
data_Fe7(PO4)6
_symmetry_space_group_name_H-M   'P 1'
_cell_length_a   6.38624984
_cell_length_b   7.85027811
_cell_length_c   9.33190645
_cell_angle_alpha   104.58337445
_cell_angle_beta   108.27350952
_cell_angle_gamma   101.05693870
_symmetry_Int_Tables_number   1
_chemical_formula_structural   Fe7(PO4)6
_chemical_formula_sum   'Fe7 P6 O24'
_cell_volume   410.85760126
_cell_formula_units_Z   1
loop_
 _symmetry_equiv_pos_site_id
 _symmetry_equiv_pos_as_xyz
  1  'x, y, z'
loop_
 _atom_site_type_symbol
 _atom_site_label
 _atom_site_symmetry_multiplicity
 _atom_site_fract_x
 _atom_site_fract_y
 _atom_site_fract_z
 _atom_site_occupancy
  Fe  Fe0  1  0.04308415  0.72096815  0.02348755  1
  Fe  Fe1  1  0.95691585  0.27903185  0.97651245  1
  Fe  Fe2  1  0.39224039  0.45169915  0.61003173  1
  Fe  Fe3  1  0.60775961  0.54830085  0.38996827  1
  Fe  Fe4  1  0.28141205  0.80606857  0.78975775  1
  Fe  Fe5  1  0.71858795  0.19393143  0.21024225  1
  Fe  Fe6  1  -0.00000000  0.00000000  0.50000000  1
  P  P0  1  0.60310772  0.77261196  0.12939630  1
  P  P1  1  0.39689228  0.22738804  0.87060370  1
  P  P2  1  0.08293001  0.59098162  0.32970124  1
  P  P3  1  0.91706999  0.40901838  0.67029876  1
  P  P4  1  0.76849703  0.85553472  0.72945265  1
  P  P5  1  0.23150297  0.14446528  0.27054735  1
  O  O0  1  0.37457097  0.77500252  0.00544681  1
  O  O1  1  0.62542903  0.22499748  0.99455319  1
  O  O2  1  0.75435594  0.72999490  0.03746505  1
  O  O3  1  0.24564406  0.27000510  0.96253495  1
  O  O4  1  0.54874889  0.63706506  0.21068371  1
  O  O5  1  0.45125111  0.36293494  0.78931629  1
  O  O6  1  0.72359876  0.96772278  0.26054936  1
  O  O7  1  0.27640124  0.03227722  0.73945064  1
  O  O8  1  0.05671891  0.54809895  0.15262659  1
  O  O9  1  0.94328109  0.45190105  0.84737341  1
  O  O10  1  0.30111667  0.54293336  0.41463889  1
  O  O11  1  0.69888333  0.45706664  0.58536111  1
  O  O12  1  0.09443795  0.78600850  0.41140157  1
  O  O13  1  0.90556205  0.21399150  0.58859843  1
  O  O14  1  0.87230587  0.46000255  0.33549248  1
  O  O15  1  0.12769413  0.53999745  0.66450752  1
  O  O16  1  0.54284477  0.73693777  0.72567752  1
  O  O17  1  0.45715523  0.26306223  0.27432248  1
  O  O18  1  0.78857167  0.05536949  0.79708852  1
  O  O19  1  0.21142833  0.94463051  0.20291148  1
  O  O20  1  0.76930038  0.80929534  0.55799525  1
  O  O21  1  0.23069962  0.19070466  0.44200475  1
  O  O22  1  0.97766597  0.80964488  0.83441303  1
  O  O23  1  0.02233403  0.19035512  0.16558697  1
loop_
_geom_bond_atom_site_label_1
_geom_bond_atom_site_label_2
_geom_bond_distance
_geom_bond_site_symmetry_2
Fe0 O2 1.902172 1_455
Fe0 O19 1.925837 1_555
Fe0 O22 2.010017 1_454
Fe0 O8 2.025982 1_555
Fe0 O0 2.145882 1_555
Fe0 O9 2.155794 1_454
Fe1 O3 1.902172 1_655
Fe1 O18 1.925837 1_555
Fe1 O23 2.010017 1_656
Fe1 O9 2.025982 1_555
Fe1 O1 2.145882 1_555
Fe1 O8 2.155794 1_656
Fe2 O5 1.928511 1_555
Fe2 O11 2.036093 1_555
Fe2 O21 2.068296 1_555
Fe2 O10 2.080491 1_555
Fe2 O15 2.098456 1_555
Fe2 O16 2.099962 1_555
Fe3 O4 1.928511 1_555
Fe3 O10 2.036093 1_555
Fe3 O20 2.068296 1_555
Fe3 O11 2.080491 1_555
Fe3 O14 2.098456 1_555
Fe3 O17 2.099962 1_555
Fe4 O7 1.951174 1_565
Fe4 O15 1.989269 1_555
Fe4 O0 2.004157 1_556
Fe4 O16 2.061506 1_555
Fe4 O22 2.111677 1_455
Fe5 O6 1.951174 1_545
Fe5 O14 1.989269 1_555
Fe5 O1 2.004157 1_554
Fe5 O17 2.061506 1_555
Fe5 O23 2.111677 1_655
Fe6 O13 1.967548 1_455
Fe6 O12 1.967548 1_545
Fe6 O20 2.183304 1_445
Fe6 O21 2.183304 1_555
Fe6 O6 2.289750 1_445
Fe6 O7 2.289750 1_555
O0 P0 1.559219 1_555
O1 P1 1.559219 1_555
O2 P0 1.509953 1_555
O3 P1 1.509953 1_555
O4 P0 1.502708 1_555
O5 P1 1.502708 1_555
O6 P0 1.565054 1_555
O7 P1 1.565054 1_555
O8 P2 1.548132 1_555
O9 P3 1.548132 1_555
O10 P2 1.540010 1_555
O11 P3 1.540010 1_555
O12 P2 1.504853 1_555
O13 P3 1.504853 1_555
O14 P2 1.553230 1_655
O15 P3 1.553230 1_455
O16 P4 1.543292 1_555
O17 P5 1.543292 1_555
O18 P4 1.499770 1_545
O19 P5 1.499770 1_565
O20 P4 1.550888 1_555
O21 P5 1.550888 1_555
O22 P4 1.554125 1_555
O23 P5 1.554125 1_555
