# generated using pymatgen
data_Cs6Si2NiO8
_symmetry_space_group_name_H-M   'P 1'
_cell_length_a   6.99878000
_cell_length_b   7.16153191
_cell_length_c   8.09770168
_cell_angle_alpha   87.48593771
_cell_angle_beta   88.52952292
_cell_angle_gamma   69.32839521
_symmetry_Int_Tables_number   1
_chemical_formula_structural   Cs6Si2NiO8
_chemical_formula_sum   'Cs6 Si2 Ni1 O8'
_cell_volume   379.35443333
_cell_formula_units_Z   1
loop_
 _symmetry_equiv_pos_site_id
 _symmetry_equiv_pos_as_xyz
  1  'x, y, z'
loop_
 _atom_site_type_symbol
 _atom_site_label
 _atom_site_symmetry_multiplicity
 _atom_site_fract_x
 _atom_site_fract_y
 _atom_site_fract_z
 _atom_site_occupancy
  Cs  Cs0  1  0.20194900  0.70246800  0.01088000  1
  Cs  Cs1  1  0.72085000  0.20934100  0.47781400  1
  Cs  Cs2  1  0.79805100  0.29753200  0.98912000  1
  Cs  Cs3  1  0.65975100  0.83050800  0.16729200  1
  Cs  Cs4  1  0.34024900  0.16949200  0.83270800  1
  Cs  Cs5  1  0.27915000  0.79065900  0.52218600  1
  Si  Si0  1  0.77885200  0.73650400  0.72241800  1
  Si  Si1  1  0.22114800  0.26349600  0.27758200  1
  Ni  Ni0  1  0.00000000  0.50000000  0.50000000  1
  O  O0  1  0.00832300  0.47003700  0.26403300  1
  O  O1  1  0.76609000  0.74369200  0.51398200  1
  O  O2  1  0.99167700  0.52996300  0.73596700  1
  O  O3  1  0.42099000  0.29690300  0.18838400  1
  O  O4  1  0.81575500  0.93306000  0.79253200  1
  O  O5  1  0.23391000  0.25630800  0.48601800  1
  O  O6  1  0.57901000  0.70309700  0.81161600  1
  O  O7  1  0.18424500  0.06694000  0.20746800  1
loop_
_geom_bond_atom_site_label_1
_geom_bond_atom_site_label_2
_geom_bond_distance
_geom_bond_site_symmetry_2
Cs0 O6 3.058924 1_554
Cs0 O3 3.074951 1_555
Cs0 O7 3.080362 1_565
Cs0 O0 3.155974 1_555
Cs0 O4 3.161756 1_454
Cs0 O2 3.215708 1_454
Cs1 O3 3.079766 1_555
Cs1 O4 3.093134 1_545
Cs1 O1 3.237324 1_545
Cs1 O5 3.303475 1_555
Cs2 O3 3.058924 1_556
Cs2 O6 3.074951 1_555
Cs2 O4 3.080362 1_545
Cs2 O2 3.155974 1_555
Cs2 O7 3.161756 1_656
Cs2 O0 3.215708 1_656
Cs3 O1 2.906771 1_555
Cs3 O0 2.950213 1_655
Cs3 O7 3.172145 1_565
Cs3 O3 3.173736 1_565
Cs3 O6 3.182034 1_554
Cs3 O4 3.337878 1_554
Cs4 O5 2.906771 1_555
Cs4 O2 2.950213 1_455
Cs4 O4 3.172145 1_545
Cs4 O6 3.173736 1_545
Cs4 O3 3.182034 1_556
Cs4 O7 3.337878 1_556
Cs5 O6 3.079766 1_555
Cs5 O7 3.093134 1_565
Cs5 O5 3.237324 1_565
Cs5 O1 3.303475 1_555
Ni0 O0 1.929246 1_555
Ni0 O2 1.929246 1_455
Ni0 O1 1.931138 1_455
Ni0 O5 1.931138 1_555
O0 Si1 1.690328 1_555
O1 Si0 1.690072 1_555
O2 Si0 1.690328 1_555
O3 Si1 1.644511 1_555
O4 Si0 1.644639 1_555
O5 Si1 1.690072 1_555
O6 Si0 1.644511 1_555
O7 Si1 1.644639 1_555
