# generated using pymatgen
data_Rb4CO4
_symmetry_space_group_name_H-M   'P 1'
_cell_length_a   6.45482500
_cell_length_b   6.45482500
_cell_length_c   6.11134410
_cell_angle_alpha   66.88914832
_cell_angle_beta   66.88914832
_cell_angle_gamma   55.13156307
_symmetry_Int_Tables_number   1
_chemical_formula_structural   Rb4CO4
_chemical_formula_sum   'Rb4 C1 O4'
_cell_volume   187.31878960
_cell_formula_units_Z   1
loop_
 _symmetry_equiv_pos_site_id
 _symmetry_equiv_pos_as_xyz
  1  'x, y, z'
loop_
 _atom_site_type_symbol
 _atom_site_label
 _atom_site_symmetry_multiplicity
 _atom_site_fract_x
 _atom_site_fract_y
 _atom_site_fract_z
 _atom_site_occupancy
  Rb  Rb0  1  0.15129200  0.55157800  0.46097000  1
  Rb  Rb1  1  0.84074400  0.43750300  0.11777600  1
  Rb  Rb2  1  0.56249700  0.15925600  0.88222400  1
  Rb  Rb3  1  0.44842200  0.84870800  0.53903000  1
  C  C0  1  0.07135600  0.92864400  0.00000000  1
  O  O0  1  0.84673600  0.98644100  0.20366600  1
  O  O1  1  0.12680600  0.70991200  0.93217500  1
  O  O2  1  0.29008800  0.87319400  0.06782500  1
  O  O3  1  0.01355900  0.15326400  0.79633400  1
loop_
_geom_bond_atom_site_label_1
_geom_bond_atom_site_label_2
_geom_bond_distance
_geom_bond_site_symmetry_2
C0 O1 1.434736 1_554
C0 O2 1.434736 1_555
C0 O3 1.456000 1_564
C0 O0 1.456000 1_455
O0 Rb0 2.620822 1_655
O0 Rb2 2.690464 1_564
O0 Rb1 2.727904 1_565
O0 Rb3 2.940703 1_555
O1 Rb3 2.721438 1_555
O1 Rb1 2.879293 1_456
O1 Rb0 3.022672 1_556
O1 Rb2 3.063402 1_555
O1 Rb0 3.336249 1_555
O2 Rb0 2.721438 1_555
O2 Rb2 2.879293 1_564
O2 Rb3 3.022672 1_554
O2 Rb1 3.063402 1_555
O2 Rb3 3.336249 1_555
O3 Rb3 2.620822 1_545
O3 Rb1 2.690464 1_456
O3 Rb2 2.727904 1_455
O3 Rb0 2.940703 1_555
