# generated using pymatgen
data_SmZnSn
_symmetry_space_group_name_H-M   'P 1'
_cell_length_a   4.49700474
_cell_length_b   4.49700587
_cell_length_c   16.46500216
_cell_angle_alpha   90.00000000
_cell_angle_beta   90.00000000
_cell_angle_gamma   119.99999906
_symmetry_Int_Tables_number   1
_chemical_formula_structural   SmZnSn
_chemical_formula_sum   'Sm4 Zn4 Sn4'
_cell_volume   288.36279576
_cell_formula_units_Z   4
loop_
 _symmetry_equiv_pos_site_id
 _symmetry_equiv_pos_as_xyz
  1  'x, y, z'
loop_
 _atom_site_type_symbol
 _atom_site_label
 _atom_site_symmetry_multiplicity
 _atom_site_fract_x
 _atom_site_fract_y
 _atom_site_fract_z
 _atom_site_occupancy
  Sm  Sm0  1  -0.00000000  0.00000000  0.50000000  1
  Sm  Sm1  1  -0.00000000  0.00000000  0.00000000  1
  Sm  Sm2  1  -0.00000000  0.00000000  0.75000000  1
  Sm  Sm3  1  -0.00000000  0.00000000  0.25000000  1
  Zn  Zn0  1  0.33333300  0.66666700  0.15887525  1
  Zn  Zn1  1  0.66666700  0.33333300  0.65887525  1
  Zn  Zn2  1  0.66666700  0.33333300  0.84112475  1
  Zn  Zn3  1  0.33333300  0.66666700  0.34112475  1
  Sn  Sn0  1  0.66666700  0.33333300  0.38460497  1
  Sn  Sn1  1  0.66666700  0.33333300  0.11539503  1
  Sn  Sn2  1  0.33333300  0.66666700  0.88460497  1
  Sn  Sn3  1  0.33333300  0.66666700  0.61539503  1
loop_
_geom_bond_atom_site_label_1
_geom_bond_atom_site_label_2
_geom_bond_distance
_geom_bond_site_symmetry_2
Sm0 Sn3 3.217286 1_545
Sm0 Sn0 3.217286 1_455
Sm0 Sn3 3.217289 1_445
Sm0 Sn0 3.217289 1_555
Sm0 Sn3 3.217289 1_555
Sm0 Sn0 3.217289 1_445
Sm1 Sn2 3.217286 1_544
Sm1 Sn1 3.217286 1_455
Sm1 Sn2 3.217289 1_444
Sm1 Sn1 3.217289 1_555
Sm1 Sn2 3.217289 1_554
Sm1 Sn1 3.217289 1_445
Sm2 Zn1 2.998685 1_455
Sm2 Zn2 2.998685 1_455
Sm2 Zn2 2.998688 1_555
Sm2 Zn1 2.998688 1_555
Sm2 Zn2 2.998689 1_445
Sm2 Zn1 2.998689 1_445
Sm2 Sn3 3.413629 1_545
Sm2 Sn2 3.413629 1_545
Sm2 Sn2 3.413632 1_445
Sm2 Sn3 3.413632 1_445
Sm2 Sn2 3.413632 1_555
Sm2 Sn3 3.413632 1_555
Sm3 Zn3 2.998685 1_545
Sm3 Zn0 2.998685 1_545
Sm3 Zn3 2.998688 1_445
Sm3 Zn0 2.998688 1_445
Sm3 Zn3 2.998689 1_555
Sm3 Zn0 2.998689 1_555
Sm3 Sn0 3.413629 1_455
Sm3 Sn1 3.413629 1_455
Sm3 Sn1 3.413632 1_555
Sm3 Sn0 3.413632 1_555
Sm3 Sn1 3.413632 1_445
Sm3 Sn0 3.413632 1_445
Sn0 Zn3 2.693236 1_655
Sn0 Zn3 2.693236 1_545
Sn0 Zn3 2.693244 1_555
Sn1 Zn0 2.693236 1_655
Sn1 Zn0 2.693236 1_545
Sn1 Zn0 2.693244 1_555
Sn2 Zn2 2.693236 1_455
Sn2 Zn2 2.693236 1_565
Sn2 Zn2 2.693244 1_555
Sn3 Zn1 2.693236 1_455
Sn3 Zn1 2.693236 1_565
Sn3 Zn1 2.693244 1_555
