# generated using pymatgen
data_AuSe
_symmetry_space_group_name_H-M   'P 1'
_cell_length_a   3.72306390
_cell_length_b   6.56260617
_cell_length_c   8.61906608
_cell_angle_alpha   101.70750755
_cell_angle_beta   90.00000028
_cell_angle_gamma   106.47860279
_symmetry_Int_Tables_number   1
_chemical_formula_structural   AuSe
_chemical_formula_sum   'Au4 Se4'
_cell_volume   197.36687391
_cell_formula_units_Z   4
loop_
 _symmetry_equiv_pos_site_id
 _symmetry_equiv_pos_as_xyz
  1  'x, y, z'
loop_
 _atom_site_type_symbol
 _atom_site_label
 _atom_site_symmetry_multiplicity
 _atom_site_fract_x
 _atom_site_fract_y
 _atom_site_fract_z
 _atom_site_occupancy
  Au  Au0  1  0.03311708  0.06623316  0.28888258  1
  Au  Au1  1  0.96688292  0.93376684  0.71111742  1
  Au  Au2  1  0.35021911  0.70043921  0.98638587  1
  Au  Au3  1  0.64978089  0.29956079  0.01361413  1
  Se  Se0  1  0.39846698  0.79693397  0.27571963  1
  Se  Se1  1  0.66767002  0.33534104  0.30144463  1
  Se  Se2  1  0.33232998  0.66465896  0.69855537  1
  Se  Se3  1  0.60153302  0.20306603  0.72428037  1
loop_
_geom_bond_atom_site_label_1
_geom_bond_atom_site_label_2
_geom_bond_distance
_geom_bond_site_symmetry_2
Au0 Se1 2.503475 1_555
Au0 Se1 2.503480 1_455
Au0 Se0 2.503767 1_545
Au0 Se0 2.503770 1_445
Au1 Se2 2.503475 1_555
Au1 Se2 2.503480 1_655
Au1 Se3 2.503767 1_565
Au1 Se3 2.503770 1_665
Au2 Se0 2.438612 1_556
Au2 Se2 2.443115 1_555
Au2 Au3 3.183581 1_456
Au2 Au3 3.183585 1_556
Au3 Se3 2.438612 1_554
Au3 Se1 2.443115 1_555
