# generated using pymatgen
data_KGa(Te3O7)2
_symmetry_space_group_name_H-M   'P 1'
_cell_length_a   11.07269200
_cell_length_b   11.07269200
_cell_length_c   11.07269200
_cell_angle_alpha   90.00000000
_cell_angle_beta   90.00000000
_cell_angle_gamma   90.00000000
_symmetry_Int_Tables_number   1
_chemical_formula_structural   KGa(Te3O7)2
_chemical_formula_sum   'K4 Ga4 Te24 O56'
_cell_volume   1357.56195630
_cell_formula_units_Z   4
loop_
 _symmetry_equiv_pos_site_id
 _symmetry_equiv_pos_as_xyz
  1  'x, y, z'
loop_
 _atom_site_type_symbol
 _atom_site_label
 _atom_site_symmetry_multiplicity
 _atom_site_fract_x
 _atom_site_fract_y
 _atom_site_fract_z
 _atom_site_occupancy
  K  K0  1  0.50000000  0.50000000  0.00000000  1
  K  K1  1  0.00000000  0.50000000  0.50000000  1
  K  K2  1  0.00000000  0.00000000  0.00000000  1
  K  K3  1  0.50000000  0.00000000  0.50000000  1
  Ga  Ga0  1  0.00000000  0.00000000  0.50000000  1
  Ga  Ga1  1  0.50000000  0.50000000  0.50000000  1
  Ga  Ga2  1  0.50000000  0.00000000  0.00000000  1
  Ga  Ga3  1  0.00000000  0.50000000  0.00000000  1
  Te  Te0  1  0.99119300  0.73501800  0.77245700  1
  Te  Te1  1  0.49119300  0.73501800  0.72754300  1
  Te  Te2  1  0.76498200  0.27245700  0.99119300  1
  Te  Te3  1  0.26498200  0.22754300  0.00880700  1
  Te  Te4  1  0.73501800  0.77245700  0.99119300  1
  Te  Te5  1  0.73501800  0.72754300  0.49119300  1
  Te  Te6  1  0.27245700  0.99119300  0.76498200  1
  Te  Te7  1  0.77245700  0.99119300  0.73501800  1
  Te  Te8  1  0.22754300  0.00880700  0.26498200  1
  Te  Te9  1  0.99119300  0.76498200  0.27245700  1
  Te  Te10  1  0.77245700  0.50880700  0.23501800  1
  Te  Te11  1  0.00880700  0.23501800  0.72754300  1
  Te  Te12  1  0.72754300  0.49119300  0.73501800  1
  Te  Te13  1  0.26498200  0.27245700  0.50880700  1
  Te  Te14  1  0.23501800  0.72754300  0.00880700  1
  Te  Te15  1  0.27245700  0.50880700  0.26498200  1
  Te  Te16  1  0.49119300  0.76498200  0.22754300  1
  Te  Te17  1  0.72754300  0.00880700  0.23501800  1
  Te  Te18  1  0.22754300  0.49119300  0.76498200  1
  Te  Te19  1  0.50880700  0.26498200  0.27245700  1
  Te  Te20  1  0.76498200  0.22754300  0.49119300  1
  Te  Te21  1  0.50880700  0.23501800  0.77245700  1
  Te  Te22  1  0.00880700  0.26498200  0.22754300  1
  Te  Te23  1  0.23501800  0.77245700  0.50880700  1
  O  O0  1  0.87747000  0.38940700  0.30717600  1
  O  O1  1  0.62253000  0.61059300  0.80717600  1
  O  O2  1  0.12450700  0.43150600  0.88674300  1
  O  O3  1  0.11059300  0.80717600  0.87747000  1
  O  O4  1  0.62253000  0.88940700  0.30717600  1
  O  O5  1  0.12253000  0.88940700  0.19282400  1
  O  O6  1  0.43150600  0.61325700  0.62450700  1
  O  O7  1  0.37747000  0.11059300  0.69282400  1
  O  O8  1  0.62450700  0.43150600  0.61325700  1
  O  O9  1  0.06849400  0.11325700  0.62450700  1
  O  O10  1  0.30717600  0.87747000  0.38940700  1
  O  O11  1  0.88674300  0.12450700  0.43150600  1
  O  O12  1  0.14751900  0.14751900  0.14751900  1
  O  O13  1  0.38940700  0.30717600  0.87747000  1
  O  O14  1  0.87549300  0.56849400  0.11325700  1
  O  O15  1  0.87549300  0.93150600  0.61325700  1
  O  O16  1  0.88940700  0.30717600  0.62253000  1
  O  O17  1  0.56849400  0.38674300  0.37549300  1
  O  O18  1  0.06849400  0.38674300  0.12450700  1
  O  O19  1  0.85248100  0.64751900  0.35248100  1
  O  O20  1  0.37549300  0.93150600  0.88674300  1
  O  O21  1  0.93150600  0.88674300  0.37549300  1
  O  O22  1  0.14751900  0.35248100  0.64751900  1
  O  O23  1  0.43150600  0.88674300  0.12450700  1
  O  O24  1  0.37747000  0.38940700  0.19282400  1
  O  O25  1  0.12253000  0.61059300  0.69282400  1
  O  O26  1  0.56849400  0.11325700  0.87549300  1
  O  O27  1  0.38940700  0.19282400  0.37747000  1
  O  O28  1  0.80717600  0.87747000  0.11059300  1
  O  O29  1  0.19282400  0.37747000  0.38940700  1
  O  O30  1  0.37549300  0.56849400  0.38674300  1
  O  O31  1  0.11059300  0.69282400  0.37747000  1
  O  O32  1  0.85248100  0.85248100  0.85248100  1
  O  O33  1  0.88940700  0.19282400  0.12253000  1
  O  O34  1  0.12450700  0.06849400  0.38674300  1
  O  O35  1  0.69282400  0.37747000  0.11059300  1
  O  O36  1  0.64751900  0.35248100  0.85248100  1
  O  O37  1  0.11325700  0.87549300  0.56849400  1
  O  O38  1  0.19282400  0.12253000  0.88940700  1
  O  O39  1  0.61059300  0.80717600  0.62253000  1
  O  O40  1  0.30717600  0.62253000  0.88940700  1
  O  O41  1  0.93150600  0.61325700  0.87549300  1
  O  O42  1  0.61059300  0.69282400  0.12253000  1
  O  O43  1  0.11325700  0.62450700  0.06849400  1
  O  O44  1  0.61325700  0.62450700  0.43150600  1
  O  O45  1  0.69282400  0.12253000  0.61059300  1
  O  O46  1  0.80717600  0.62253000  0.61059300  1
  O  O47  1  0.35248100  0.85248100  0.64751900  1
  O  O48  1  0.87747000  0.11059300  0.80717600  1
  O  O49  1  0.61325700  0.87549300  0.93150600  1
  O  O50  1  0.88674300  0.37549300  0.93150600  1
  O  O51  1  0.64751900  0.14751900  0.35248100  1
  O  O52  1  0.35248100  0.64751900  0.14751900  1
  O  O53  1  0.62450700  0.06849400  0.11325700  1
  O  O54  1  0.38674300  0.12450700  0.06849400  1
  O  O55  1  0.38674300  0.37549300  0.56849400  1
loop_
_geom_bond_atom_site_label_1
_geom_bond_atom_site_label_2
_geom_bond_distance
_geom_bond_site_symmetry_2
K0 O42 2.810491 1_555
K0 O1 2.810491 1_554
K0 O24 2.810491 1_555
K0 O35 2.810491 1_555
K0 O13 2.810491 1_554
K0 O40 2.810491 1_554
K0 O52 2.829188 1_555
K0 O36 2.829188 1_554
K1 O25 2.810491 1_555
K1 O46 2.810491 1_455
K1 O0 2.810491 1_455
K1 O31 2.810491 1_555
K1 O29 2.810491 1_555
K1 O16 2.810491 1_455
K1 O22 2.829188 1_555
K1 O19 2.829188 1_455
K2 O48 2.810491 1_454
K2 O3 2.810491 1_544
K2 O28 2.810491 1_445
K2 O38 2.810491 1_554
K2 O5 2.810491 1_545
K2 O33 2.810491 1_455
K2 O12 2.829188 1_555
K2 O32 2.829188 1_444
K3 O39 2.810491 1_545
K3 O45 2.810491 1_555
K3 O7 2.810491 1_555
K3 O27 2.810491 1_555
K3 O10 2.810491 1_545
K3 O4 2.810491 1_545
K3 O51 2.829188 1_555
K3 O47 2.829188 1_545
Ga0 O9 2.012081 1_555
Ga0 O11 2.012081 1_455
Ga0 O34 2.012081 1_555
Ga0 O15 2.012081 1_445
Ga0 O37 2.012081 1_545
Ga0 O21 2.012081 1_445
Ga1 O8 2.012081 1_555
Ga1 O6 2.012081 1_555
Ga1 O44 2.012081 1_555
Ga1 O30 2.012081 1_555
Ga1 O17 2.012081 1_555
Ga1 O55 2.012081 1_555
Ga2 O54 2.012081 1_555
Ga2 O53 2.012081 1_555
Ga2 O23 2.012081 1_545
Ga2 O49 2.012081 1_544
Ga2 O26 2.012081 1_554
Ga2 O20 2.012081 1_544
Ga3 O18 2.012081 1_555
Ga3 O43 2.012081 1_555
Ga3 O2 2.012081 1_554
Ga3 O41 2.012081 1_454
Ga3 O14 2.012081 1_455
Ga3 O50 2.012081 1_454
O0 Te10 1.933473 1_555
O0 Te22 2.188710 1_655
O1 Te12 1.933473 1_555
O1 Te1 2.188710 1_555
O2 Te18 1.885764 1_555
O3 Te0 1.933473 1_455
O3 Te14 2.188710 1_556
O4 Te17 1.933473 1_565
O4 Te16 2.188710 1_555
O5 Te8 1.933473 1_565
O5 Te9 2.188710 1_455
O6 Te1 1.885764 1_555
O7 Te6 1.933473 1_545
O7 Te21 2.188710 1_555
O8 Te12 1.885764 1_555
O9 Te11 1.885764 1_555
O10 Te23 1.933473 1_555
O10 Te8 2.188710 1_565
O11 Te20 1.885764 1_555
O12 Te3 2.199049 1_555
O12 Te22 2.199049 1_555
O12 Te8 2.199049 1_555
O13 Te21 1.933473 1_555
O13 Te3 2.188710 1_556
O14 Te10 1.885764 1_555
O15 Te7 1.885764 1_555
O16 Te11 1.933473 1_655
O16 Te20 2.188710 1_555
O17 Te19 1.885764 1_555
O18 Te22 1.885764 1_555
O19 Te5 2.199049 1_555
O19 Te9 2.199049 1_555
O19 Te10 2.199049 1_555
O20 Te6 1.885764 1_555
O21 Te9 1.885764 1_555
O22 Te18 2.199049 1_555
O22 Te11 2.199049 1_555
O22 Te13 2.199049 1_555
O23 Te16 1.885764 1_555
O24 Te15 1.933473 1_555
O24 Te19 2.188710 1_555
O25 Te18 1.933473 1_555
O25 Te0 2.188710 1_455
O26 Te21 1.885764 1_555
O27 Te19 1.933473 1_555
O27 Te13 2.188710 1_555
O28 Te4 1.933473 1_554
O28 Te17 2.188710 1_565
O29 Te13 1.933473 1_555
O29 Te15 2.188710 1_555
O30 Te15 1.885764 1_555
O31 Te9 1.933473 1_455
O31 Te23 2.188710 1_555
O32 Te4 2.199049 1_555
O32 Te0 2.199049 1_555
O32 Te7 2.199049 1_555
O33 Te22 1.933473 1_655
O33 Te2 2.188710 1_554
O34 Te8 1.885764 1_555
O35 Te2 1.933473 1_554
O35 Te10 2.188710 1_555
O36 Te12 2.199049 1_555
O36 Te2 2.199049 1_555
O36 Te21 2.199049 1_555
O37 Te23 1.885764 1_555
O38 Te3 1.933473 1_556
O38 Te6 2.188710 1_545
O39 Te1 1.933473 1_555
O39 Te5 2.188710 1_555
O40 Te14 1.933473 1_556
O40 Te18 2.188710 1_555
O41 Te0 1.885764 1_555
O42 Te16 1.933473 1_555
O42 Te4 2.188710 1_554
O43 Te14 1.885764 1_555
O44 Te5 1.885764 1_555
O45 Te20 1.933473 1_555
O45 Te7 2.188710 1_545
O46 Te5 1.933473 1_555
O46 Te12 2.188710 1_555
O47 Te1 2.199049 1_555
O47 Te6 2.199049 1_555
O47 Te23 2.199049 1_555
O48 Te7 1.933473 1_545
O48 Te11 2.188710 1_655
O49 Te4 1.885764 1_555
O50 Te2 1.885764 1_555
O51 Te20 2.199049 1_555
O51 Te17 2.199049 1_555
O51 Te19 2.199049 1_555
O52 Te16 2.199049 1_555
O52 Te14 2.199049 1_555
O52 Te15 2.199049 1_555
O53 Te17 1.885764 1_555
O54 Te3 1.885764 1_555
O55 Te13 1.885764 1_555
