# generated using pymatgen
data_KXeO3F
_symmetry_space_group_name_H-M   'P 1'
_cell_length_a   6.97255700
_cell_length_b   7.62453600
_cell_length_c   8.46167100
_cell_angle_alpha   90.00000000
_cell_angle_beta   90.00000000
_cell_angle_gamma   90.00000000
_symmetry_Int_Tables_number   1
_chemical_formula_structural   KXeO3F
_chemical_formula_sum   'K4 Xe4 O12 F4'
_cell_volume   449.84368488
_cell_formula_units_Z   4
loop_
 _symmetry_equiv_pos_site_id
 _symmetry_equiv_pos_as_xyz
  1  'x, y, z'
loop_
 _atom_site_type_symbol
 _atom_site_label
 _atom_site_symmetry_multiplicity
 _atom_site_fract_x
 _atom_site_fract_y
 _atom_site_fract_z
 _atom_site_occupancy
  K  K0  1  0.21564800  0.87588800  0.64730100  1
  K  K1  1  0.71564800  0.62411200  0.14730100  1
  K  K2  1  0.21564800  0.37588800  0.85269900  1
  K  K3  1  0.71564800  0.12411200  0.35269900  1
  Xe  Xe0  1  0.24999400  0.40753200  0.34865700  1
  Xe  Xe1  1  0.74999400  0.09246800  0.84865700  1
  Xe  Xe2  1  0.74999400  0.59246800  0.65134300  1
  Xe  Xe3  1  0.24999400  0.90753200  0.15134300  1
  O  O0  1  0.49881900  0.10272300  0.76374400  1
  O  O1  1  0.76622700  0.29642600  0.97468300  1
  O  O2  1  0.88515700  0.67866000  0.83192800  1
  O  O3  1  0.88515700  0.17866000  0.66807200  1
  O  O4  1  0.26622700  0.70357400  0.02531700  1
  O  O5  1  0.99881900  0.89727700  0.23625600  1
  O  O6  1  0.38515700  0.82134000  0.33192800  1
  O  O7  1  0.49881900  0.60272300  0.73625600  1
  O  O8  1  0.99881900  0.39727700  0.26374400  1
  O  O9  1  0.26622700  0.20357400  0.47468300  1
  O  O10  1  0.38515700  0.32134000  0.16807200  1
  O  O11  1  0.76622700  0.79642600  0.52531700  1
  F  F0  1  0.59635500  0.45770900  0.42922600  1
  F  F1  1  0.09635500  0.54229100  0.57077400  1
  F  F2  1  0.59635500  0.95770900  0.07077400  1
  F  F3  1  0.09635500  0.04229100  0.92922600  1
loop_
_geom_bond_atom_site_label_1
_geom_bond_atom_site_label_2
_geom_bond_distance
_geom_bond_site_symmetry_2
K0 O0 2.803639 1_565
K0 O9 2.915494 1_565
K0 O6 2.948088 1_555
K0 O7 2.966951 1_555
K0 O2 3.164186 1_455
K0 O3 3.266520 1_465
K1 O8 2.803639 1_555
K1 O1 2.915494 1_554
K1 O2 2.948088 1_554
K1 O5 2.966951 1_555
K1 O6 3.164186 1_555
K1 O10 3.266520 1_555
K2 O7 2.803639 1_555
K2 O4 2.915494 1_556
K2 O10 2.948088 1_556
K2 O0 2.966951 1_555
K2 O3 3.164186 1_455
K2 O2 3.266520 1_455
K3 O5 2.803639 1_545
K3 O11 2.915494 1_545
K3 O3 2.948088 1_555
K3 O8 2.966951 1_555
K3 O10 3.164186 1_555
K3 O6 3.266520 1_545
O0 Xe1 1.894605 1_555
O1 Xe1 1.888992 1_555
O2 Xe2 1.911804 1_555
O3 Xe1 1.911804 1_555
O4 Xe3 1.888992 1_555
O5 Xe3 1.894605 1_655
O6 Xe3 1.911804 1_555
O7 Xe2 1.894605 1_555
O8 Xe0 1.894605 1_655
O9 Xe0 1.888992 1_555
O10 Xe0 1.911804 1_555
O11 Xe2 1.888992 1_555
F0 Xe2 2.394941 1_555
F0 Xe0 2.538400 1_555
F0 K3 2.753303 1_555
F0 K1 2.827092 1_555
F1 Xe0 2.394941 1_555
F1 Xe2 2.538400 1_455
F1 K0 2.753303 1_555
F1 K2 2.827092 1_555
F2 Xe1 2.394941 1_564
F2 Xe3 2.538400 1_555
F2 K1 2.753303 1_555
F2 K3 2.827092 1_565
F3 Xe3 2.394941 1_546
F3 Xe1 2.538400 1_455
F3 K2 2.753303 1_555
F3 K0 2.827092 1_545
