# generated using pymatgen
data_Mg6Si7Ni16
_symmetry_space_group_name_H-M   'P 1'
_cell_length_a   7.91830736
_cell_length_b   7.91829144
_cell_length_c   7.91830218
_cell_angle_alpha   60.00141619
_cell_angle_beta   60.00148490
_cell_angle_gamma   60.00144050
_symmetry_Int_Tables_number   1
_chemical_formula_structural   Mg6Si7Ni16
_chemical_formula_sum   'Mg6 Si7 Ni16'
_cell_volume   351.07116519
_cell_formula_units_Z   1
loop_
 _symmetry_equiv_pos_site_id
 _symmetry_equiv_pos_as_xyz
  1  'x, y, z'
loop_
 _atom_site_type_symbol
 _atom_site_label
 _atom_site_symmetry_multiplicity
 _atom_site_fract_x
 _atom_site_fract_y
 _atom_site_fract_z
 _atom_site_occupancy
  Mg  Mg0  1  0.20426293  0.20426137  0.79573215  1
  Mg  Mg1  1  0.20426236  0.79573372  0.20426235  1
  Mg  Mg2  1  0.20426638  0.79573965  0.79573631  1
  Mg  Mg3  1  0.79573761  0.20426558  0.79573834  1
  Mg  Mg4  1  0.79573166  0.20426149  0.20426254  1
  Mg  Mg5  1  0.79573625  0.79573999  0.20426643  1
  Si  Si0  1  0.49999950  0.49999921  -0.00000002  1
  Si  Si1  1  0.00000408  0.00000458  0.49999910  1
  Si  Si2  1  0.49999930  0.50000058  0.49999888  1
  Si  Si3  1  0.00000199  0.49999762  -0.00000039  1
  Si  Si4  1  0.49999781  0.00000269  -0.00000010  1
  Si  Si5  1  0.49999175  0.00000415  0.50000061  1
  Si  Si6  1  0.00000337  0.49999174  0.50000093  1
  Ni  Ni0  1  0.16839200  0.49483491  0.16838887  1
  Ni  Ni1  1  0.38197880  0.85407547  0.38197690  1
  Ni  Ni2  1  0.61801431  0.61802229  0.61801596  1
  Ni  Ni3  1  0.16839249  0.16838320  0.49484054  1
  Ni  Ni4  1  0.61801457  0.14594707  0.61801533  1
  Ni  Ni5  1  0.61801112  0.61801890  0.14594944  1
  Ni  Ni6  1  0.83161930  0.50513429  0.83162021  1
  Ni  Ni7  1  0.14594886  0.61801908  0.61801222  1
  Ni  Ni8  1  0.38197738  0.38196953  0.38197556  1
  Ni  Ni9  1  0.16839148  0.16838256  0.16838882  1
  Ni  Ni10  1  0.83161980  0.83162729  0.83162009  1
  Ni  Ni11  1  0.83161720  0.83162526  0.50513402  1
  Ni  Ni12  1  0.38198288  0.38197327  0.85407230  1
  Ni  Ni13  1  0.50513306  0.83162561  0.83161823  1
  Ni  Ni14  1  0.85407091  0.38197506  0.38198146  1
  Ni  Ni15  1  0.49483886  0.16838486  0.16839091  1
loop_
_geom_bond_atom_site_label_1
_geom_bond_atom_site_label_2
_geom_bond_distance
_geom_bond_site_symmetry_2
Mg0 Ni13 2.696673 1_545
Mg0 Ni3 2.696693 1_555
Mg0 Ni6 2.696722 1_455
Mg0 Ni9 2.696841 1_556
Mg0 Ni4 2.730190 1_555
Mg0 Ni8 2.730208 1_555
Mg0 Ni12 2.730219 1_555
Mg0 Ni7 2.730224 1_555
Mg0 Si5 2.845986 1_555
Mg0 Si6 2.845994 1_555
Mg0 Si4 2.846044 1_556
Mg0 Si3 2.846047 1_556
Mg1 Ni13 2.696719 1_554
Mg1 Ni0 2.696724 1_555
Mg1 Ni11 2.696728 1_455
Mg1 Ni9 2.696794 1_565
Mg1 Ni5 2.730171 1_555
Mg1 Ni7 2.730175 1_555
Mg1 Ni1 2.730223 1_555
Mg1 Ni8 2.730252 1_555
Mg1 Si0 2.846032 1_555
Mg1 Si4 2.846051 1_565
Mg1 Si6 2.846059 1_555
Mg1 Si1 2.846073 1_565
Mg2 Ni13 2.696591 1_555
Mg2 Ni10 2.696699 1_455
Mg2 Ni3 2.696788 1_565
Mg2 Ni0 2.696860 1_556
Mg2 Ni7 2.730183 1_555
Mg2 Ni2 2.730184 1_555
Mg2 Ni1 2.730211 1_555
Mg2 Ni12 2.730253 1_555
Mg2 Si5 2.845991 1_565
Mg2 Si1 2.846023 1_565
Mg2 Si0 2.846034 1_556
Mg2 Si3 2.846066 1_556
Mg3 Ni6 2.696582 1_555
Mg3 Ni10 2.696651 1_545
Mg3 Ni15 2.696846 1_556
Mg3 Ni3 2.696854 1_655
Mg3 Ni12 2.730183 1_555
Mg3 Ni14 2.730196 1_555
Mg3 Ni4 2.730199 1_555
Mg3 Ni2 2.730236 1_555
Mg3 Si6 2.846001 1_655
Mg3 Si0 2.846025 1_556
Mg3 Si1 2.846027 1_655
Mg3 Si4 2.846047 1_556
Mg4 Ni11 2.696678 1_545
Mg4 Ni15 2.696702 1_555
Mg4 Ni6 2.696713 1_554
Mg4 Ni9 2.696861 1_655
Mg4 Ni8 2.730195 1_555
Mg4 Ni4 2.730195 1_555
Mg4 Ni14 2.730218 1_555
Mg4 Ni5 2.730223 1_555
Mg4 Si0 2.846021 1_555
Mg4 Si5 2.846042 1_555
Mg4 Si3 2.846060 1_655
Mg4 Si1 2.846082 1_655
Mg5 Ni11 2.696588 1_555
Mg5 Ni10 2.696697 1_554
Mg5 Ni15 2.696801 1_565
Mg5 Ni0 2.696878 1_655
Mg5 Ni5 2.730191 1_555
Mg5 Ni2 2.730193 1_555
Mg5 Ni1 2.730200 1_555
Mg5 Ni14 2.730244 1_555
Mg5 Si5 2.846047 1_565
Mg5 Si4 2.846057 1_565
Mg5 Si6 2.846064 1_655
Mg5 Si3 2.846079 1_655
Ni0 Si0 2.286066 1_555
Ni0 Si3 2.286073 1_555
Ni0 Si6 2.286078 1_555
Ni0 Ni8 2.521240 1_555
Ni0 Ni12 2.521319 1_554
Ni0 Ni14 2.521342 1_455
Ni0 Ni9 2.584947 1_555
Ni0 Ni15 2.584973 1_555
Ni0 Ni3 2.584997 1_555
Ni1 Si2 2.289226 1_555
Ni1 Si5 2.472774 1_565
Ni1 Si1 2.472910 1_565
Ni1 Si4 2.472922 1_565
Ni1 Ni15 2.521262 1_565
Ni1 Ni3 2.521266 1_565
Ni1 Ni9 2.521299 1_565
Ni1 Ni2 2.643214 1_555
Ni1 Ni5 2.643267 1_555
Ni1 Ni7 2.643280 1_555
Ni2 Si2 2.289027 1_555
Ni2 Si5 2.472950 1_565
Ni2 Si0 2.472969 1_556
Ni2 Si6 2.473002 1_655
Ni2 Ni6 2.521427 1_555
Ni3 Si5 2.285998 1_555
Ni3 Si1 2.286007 1_555
Ni3 Si6 2.286058 1_555
Ni3 Ni8 2.521234 1_555
Ni3 Ni9 2.584950 1_555
Ni4 Si2 2.289088 1_555
Ni4 Si5 2.472875 1_555
Ni4 Si4 2.472976 1_556
Ni4 Si1 2.473009 1_655
Ni4 Ni8 2.643227 1_555
Ni5 Si2 2.289066 1_555
Ni5 Si0 2.472880 1_555
Ni5 Si4 2.472968 1_565
Ni5 Si3 2.473020 1_655
Ni5 Ni6 2.521495 1_554
Ni5 Ni8 2.643262 1_555
Ni6 Si3 2.286072 1_656
Ni6 Si0 2.286081 1_556
Ni6 Si6 2.286093 1_655
Ni6 Ni7 2.521499 1_655
Ni7 Si2 2.289074 1_555
Ni7 Si6 2.472900 1_555
Ni7 Si1 2.472978 1_565
Ni7 Si3 2.472995 1_556
Ni7 Ni8 2.643279 1_555
Ni8 Si2 2.289172 1_555
Ni8 Si5 2.472839 1_555
Ni8 Si6 2.472901 1_555
Ni8 Si0 2.472908 1_555
Ni9 Si4 2.286070 1_555
Ni9 Si1 2.286078 1_555
Ni9 Si3 2.286128 1_555
Ni10 Si4 2.286108 1_566
Ni10 Si1 2.286117 1_665
Ni10 Si3 2.286153 1_656
Ni10 Ni4 2.521471 1_565
Ni10 Ni7 2.521522 1_655
Ni10 Ni5 2.521525 1_556
Ni10 Ni11 2.585234 1_555
Ni10 Ni13 2.585236 1_555
Ni10 Ni6 2.585268 1_555
Ni11 Si1 2.286107 1_665
Ni11 Si5 2.286114 1_565
Ni11 Si6 2.286165 1_655
Ni11 Ni2 2.521419 1_555
Ni11 Ni4 2.521430 1_565
Ni11 Ni7 2.521485 1_655
Ni11 Ni13 2.585259 1_555
Ni11 Ni6 2.585289 1_555
Ni12 Si2 2.289221 1_555
Ni12 Si0 2.472805 1_556
Ni12 Si4 2.472877 1_556
Ni12 Si3 2.472949 1_556
Ni12 Ni15 2.521308 1_556
Ni12 Ni9 2.521351 1_556
Ni12 Ni2 2.643247 1_555
Ni12 Ni4 2.643262 1_555
Ni12 Ni7 2.643323 1_555
Ni13 Si4 2.286054 1_566
Ni13 Si5 2.286078 1_565
Ni13 Si0 2.286116 1_556
Ni13 Ni2 2.521419 1_555
Ni13 Ni4 2.521428 1_565
Ni13 Ni5 2.521480 1_556
Ni13 Ni6 2.585292 1_555
Ni14 Si2 2.289211 1_555
Ni14 Si6 2.472797 1_655
Ni14 Si1 2.472878 1_655
Ni14 Si3 2.472954 1_655
Ni14 Ni3 2.521341 1_655
Ni14 Ni9 2.521375 1_655
Ni14 Ni2 2.643254 1_555
Ni14 Ni4 2.643269 1_555
Ni14 Ni5 2.643311 1_555
Ni15 Si4 2.286047 1_555
Ni15 Si5 2.286051 1_555
Ni15 Si0 2.286098 1_555
Ni15 Ni8 2.521230 1_555
Ni15 Ni9 2.584928 1_555
Ni15 Ni3 2.584973 1_555
