# generated using pymatgen
data_Ce2Ga12Pd
_symmetry_space_group_name_H-M   'P 1'
_cell_length_a   6.09185993
_cell_length_b   6.09185993
_cell_length_c   15.43964368
_cell_angle_alpha   90.00000000
_cell_angle_beta   90.00000000
_cell_angle_gamma   90.00000752
_symmetry_Int_Tables_number   1
_chemical_formula_structural   Ce2Ga12Pd
_chemical_formula_sum   'Ce4 Ga24 Pd2'
_cell_volume   572.97687105
_cell_formula_units_Z   2
loop_
 _symmetry_equiv_pos_site_id
 _symmetry_equiv_pos_as_xyz
  1  'x, y, z'
loop_
 _atom_site_type_symbol
 _atom_site_label
 _atom_site_symmetry_multiplicity
 _atom_site_fract_x
 _atom_site_fract_y
 _atom_site_fract_z
 _atom_site_occupancy
  Ce  Ce0  1  -0.00000000  0.50000000  0.24595690  1
  Ce  Ce1  1  0.50000000  -0.00000000  0.24595927  1
  Ce  Ce2  1  -0.00000000  0.50000000  0.75408815  1
  Ce  Ce3  1  0.50000000  -0.00000000  0.75409250  1
  Ga  Ga0  1  -0.00000000  -0.00000000  0.34305937  1
  Ga  Ga1  1  0.24955290  0.25044710  0.91165316  1
  Ga  Ga2  1  0.32608188  0.17391812  0.57066590  1
  Ga  Ga3  1  0.24967411  0.74967411  0.08825879  1
  Ga  Ga4  1  0.67391812  0.82608188  0.57066590  1
  Ga  Ga5  1  -0.00000000  -0.00000000  0.81525252  1
  Ga  Ga6  1  0.32609579  0.82609579  0.42946254  1
  Ga  Ga7  1  -0.00000000  -0.00000000  0.18466450  1
  Ga  Ga8  1  0.50000000  0.50000000  0.34305937  1
  Ga  Ga9  1  0.25035908  0.24964092  0.08826193  1
  Ga  Ga10  1  0.74964092  0.75035908  0.08826193  1
  Ga  Ga11  1  -0.00000000  -0.00000000  0.65693218  1
  Ga  Ga12  1  0.82605830  0.67394170  0.42947403  1
  Ga  Ga13  1  0.82605756  0.32605756  0.57066584  1
  Ga  Ga14  1  0.50000000  0.50000000  0.18466450  1
  Ga  Ga15  1  0.25046619  0.75046619  0.91165599  1
  Ga  Ga16  1  0.50000000  0.50000000  0.65693218  1
  Ga  Ga17  1  0.75044710  0.74955290  0.91165316  1
  Ga  Ga18  1  0.67390421  0.17390421  0.42946254  1
  Ga  Ga19  1  0.17394170  0.32605830  0.42947403  1
  Ga  Ga20  1  0.50000000  0.50000000  0.81525252  1
  Ga  Ga21  1  0.74953381  0.24953381  0.91165599  1
  Ga  Ga22  1  0.75032589  0.25032589  0.08825879  1
  Ga  Ga23  1  0.17394244  0.67394244  0.57066584  1
  Pd  Pd0  1  -0.00000000  0.50000000  0.99993759  1
  Pd  Pd1  1  0.50000000  -0.00000000  0.99995111  1
loop_
_geom_bond_atom_site_label_1
_geom_bond_atom_site_label_2
_geom_bond_distance
_geom_bond_site_symmetry_2
Ce0 Ga7 3.189551 1_555
Ce0 Ga7 3.189551 1_565
Ce0 Ga14 3.189551 1_455
Ce0 Ga14 3.189551 1_555
Ce0 Ga12 3.205308 1_455
Ce0 Ga19 3.205308 1_555
Ce0 Ga3 3.248849 1_555
Ce0 Ga22 3.248849 1_455
Ce0 Ga10 3.252723 1_455
Ce0 Ga9 3.252723 1_555
Ce0 Ga0 3.394904 1_565
Ce0 Ga0 3.394904 1_555
Ce0 Ga8 3.394904 1_555
Ce0 Ga8 3.394904 1_455
Ce1 Ga14 3.189562 1_545
Ce1 Ga14 3.189562 1_555
Ce1 Ga7 3.189562 1_555
Ce1 Ga7 3.189562 1_655
Ce1 Ga6 3.204968 1_545
Ce1 Ga18 3.204968 1_555
Ce1 Ga9 3.248651 1_555
Ce1 Ga10 3.248651 1_545
Ce1 Ga3 3.252597 1_545
Ce1 Ga22 3.252597 1_555
Ce1 Ga8 3.394888 1_545
Ce1 Ga8 3.394888 1_555
Ce1 Ga0 3.394888 1_655
Ce1 Ga0 3.394888 1_555
Ce2 Ga5 3.188965 1_555
Ce2 Ga5 3.188965 1_565
Ce2 Ga20 3.188965 1_455
Ce2 Ga20 3.188965 1_555
Ce2 Ga23 3.204017 1_555
Ce2 Ga13 3.204017 1_455
Ce2 Ga17 3.246618 1_455
Ce2 Ga1 3.246618 1_555
Ce2 Ga15 3.251866 1_555
Ce2 Ga21 3.251866 1_455
Ce2 Ga11 3.395269 1_555
Ce2 Ga16 3.395269 1_455
Ce2 Ga11 3.395269 1_565
Ce2 Ga16 3.395269 1_555
Ce3 Ga20 3.188945 1_545
Ce3 Ga20 3.188945 1_555
Ce3 Ga5 3.188945 1_555
Ce3 Ga5 3.188945 1_655
Ce3 Ga2 3.203978 1_555
Ce3 Ga4 3.203978 1_545
Ce3 Ga21 3.246491 1_555
Ce3 Ga15 3.246491 1_545
Ce3 Ga17 3.251674 1_545
Ce3 Ga1 3.251674 1_555
Ce3 Ga16 3.395298 1_545
Ce3 Ga16 3.395298 1_555
Ce3 Ga11 3.395298 1_655
Ce3 Ga11 3.395298 1_555
Ga0 Ga7 2.445560 1_555
Ga0 Ga6 2.616921 1_545
Ga0 Ga18 2.616921 1_455
Ga0 Ga12 2.616931 1_445
Ga0 Ga19 2.616931 1_555
Ga1 Pd0 2.545635 1_555
Ga1 Pd1 2.552256 1_555
Ga1 Ga5 2.618047 1_555
Ga1 Ga20 2.618047 1_555
Ga3 Pd0 2.546820 1_554
Ga3 Pd1 2.551453 1_564
Ga3 Ga7 2.618090 1_565
Ga6 Ga8 2.616921 1_555
Ga7 Ga9 2.618063 1_555
Ga9 Pd1 2.546493 1_554
Ga9 Pd0 2.551832 1_554
Ga10 Pd1 2.546493 1_564
Ga10 Pd0 2.551832 1_654
Ga10 Ga7 2.618063 1_665
Ga10 Ga14 2.618063 1_555
Ga11 Ga5 2.444410 1_555
Ga11 Ga23 2.615762 1_545
Ga11 Ga13 2.615762 1_455
Ga11 Ga4 2.615814 1_445
Ga11 Ga2 2.615814 1_555
Ga12 Ga4 2.543653 1_555
Ga12 Ga8 2.616931 1_555
Ga13 Ga18 2.543862 1_555
Ga13 Ga16 2.615762 1_555
Ga14 Ga8 2.445560 1_555
Ga14 Ga9 2.618063 1_555
Ga14 Ga3 2.618090 1_555
Ga14 Ga22 2.618090 1_555
Ga15 Pd1 2.545584 1_565
Ga15 Pd0 2.552260 1_555
Ga15 Ga5 2.618072 1_565
Ga15 Ga20 2.618072 1_555
Ga16 Ga20 2.444410 1_555
Ga16 Ga23 2.615762 1_555
Ga16 Ga4 2.615814 1_555
Ga16 Ga2 2.615814 1_555
Ga17 Pd0 2.545635 1_655
Ga17 Pd1 2.552256 1_565
Ga17 Ga20 2.618047 1_555
Ga17 Ga5 2.618047 1_665
Ga18 Ga8 2.616921 1_555
Ga19 Ga2 2.543653 1_555
Ga19 Ga8 2.616931 1_555
Ga20 Ga21 2.618072 1_555
Ga21 Pd1 2.545584 1_555
Ga21 Pd0 2.552260 1_655
Ga21 Ga5 2.618072 1_655
Ga22 Pd0 2.546820 1_654
Ga22 Pd1 2.551453 1_554
Ga22 Ga7 2.618090 1_655
Ga23 Ga6 2.543862 1_555
