# generated using pymatgen
data_Er(SiRu)2
_symmetry_space_group_name_H-M   'P 1'
_cell_length_a   4.15385873
_cell_length_b   4.15385801
_cell_length_c   5.56776161
_cell_angle_alpha   111.90246316
_cell_angle_beta   111.90246603
_cell_angle_gamma   89.99999875
_symmetry_Int_Tables_number   1
_chemical_formula_structural   Er(SiRu)2
_chemical_formula_sum   'Er1 Si2 Ru2'
_cell_volume   81.61360490
_cell_formula_units_Z   1
loop_
 _symmetry_equiv_pos_site_id
 _symmetry_equiv_pos_as_xyz
  1  'x, y, z'
loop_
 _atom_site_type_symbol
 _atom_site_label
 _atom_site_symmetry_multiplicity
 _atom_site_fract_x
 _atom_site_fract_y
 _atom_site_fract_z
 _atom_site_occupancy
  Er  Er0  1  0.00000000  -0.00000000  0.00000000  1
  Si  Si0  1  0.63151969  0.63151969  0.26303837  1
  Si  Si1  1  0.36848031  0.36848031  0.73696163  1
  Ru  Ru0  1  0.75000000  0.25000000  0.50000000  1
  Ru  Ru1  1  0.25000000  0.75000000  0.50000000  1
loop_
_geom_bond_atom_site_label_1
_geom_bond_atom_site_label_2
_geom_bond_distance
_geom_bond_site_symmetry_2
Er0 Ru0 3.147508 1_444
Er0 Ru1 3.147508 1_555
Er0 Ru0 3.147508 1_454
Er0 Ru1 3.147508 1_545
Er0 Ru1 3.147509 1_544
Er0 Ru0 3.147509 1_455
Er0 Ru1 3.147509 1_444
Er0 Ru0 3.147509 1_555
Er0 Si1 3.189859 1_554
Er0 Si0 3.189859 1_445
Er0 Si1 3.189862 1_544
Er0 Si0 3.189862 1_455
Er0 Si1 3.189862 1_454
Er0 Si0 3.189862 1_545
Er0 Si1 3.189865 1_444
Er0 Si0 3.189865 1_555
Ru0 Si0 2.360057 1_545
Ru0 Si1 2.360058 1_655
Ru0 Si0 2.360061 1_555
Ru0 Si1 2.360061 1_555
Ru1 Si1 2.360057 1_565
Ru1 Si0 2.360058 1_455
Ru1 Si1 2.360061 1_555
Ru1 Si0 2.360061 1_555
