# generated using pymatgen
data_Rb2ZnCl4
_symmetry_space_group_name_H-M   'P 1'
_cell_length_a   7.61299600
_cell_length_b   12.98280900
_cell_length_c   28.19181300
_cell_angle_alpha   90.00000000
_cell_angle_beta   90.00000000
_cell_angle_gamma   90.00000000
_symmetry_Int_Tables_number   1
_chemical_formula_structural   Rb2ZnCl4
_chemical_formula_sum   'Rb24 Zn12 Cl48'
_cell_volume   2786.42447090
_cell_formula_units_Z   12
loop_
 _symmetry_equiv_pos_site_id
 _symmetry_equiv_pos_as_xyz
  1  'x, y, z'
loop_
 _atom_site_type_symbol
 _atom_site_label
 _atom_site_symmetry_multiplicity
 _atom_site_fract_x
 _atom_site_fract_y
 _atom_site_fract_z
 _atom_site_occupancy
  Rb  Rb0  1  0.77391600  0.91969200  0.71180100  1
  Rb  Rb1  1  0.26195700  0.81531700  0.83319300  1
  Rb  Rb2  1  0.27702300  0.68908200  0.66741400  1
  Rb  Rb3  1  0.77702300  0.18908200  0.83258600  1
  Rb  Rb4  1  0.70037600  0.30988400  0.99999400  1
  Rb  Rb5  1  0.77702300  0.31091800  0.33258600  1
  Rb  Rb6  1  0.27391600  0.08030800  0.28819900  1
  Rb  Rb7  1  0.72929300  0.58295200  0.88191800  1
  Rb  Rb8  1  0.27391600  0.41969200  0.78819900  1
  Rb  Rb9  1  0.20037600  0.80988400  0.50000600  1
  Rb  Rb10  1  0.71304100  0.91632200  0.04423800  1
  Rb  Rb11  1  0.22929300  0.41704800  0.11808200  1
  Rb  Rb12  1  0.77391600  0.58030800  0.21180100  1
  Rb  Rb13  1  0.22929300  0.08295200  0.61808200  1
  Rb  Rb14  1  0.70037600  0.19011600  0.49999400  1
  Rb  Rb15  1  0.76195700  0.18468300  0.16680700  1
  Rb  Rb16  1  0.21304100  0.08367800  0.95576200  1
  Rb  Rb17  1  0.21304100  0.41632200  0.45576200  1
  Rb  Rb18  1  0.72929300  0.91704800  0.38191800  1
  Rb  Rb19  1  0.76195700  0.31531700  0.66680700  1
  Rb  Rb20  1  0.27702300  0.81091800  0.16741400  1
  Rb  Rb21  1  0.71304100  0.58367800  0.54423800  1
  Rb  Rb22  1  0.20037600  0.69011600  0.00000600  1
  Rb  Rb23  1  0.26195700  0.68468300  0.33319300  1
  Zn  Zn0  1  0.21663000  0.41698800  0.59488900  1
  Zn  Zn1  1  0.76029400  0.58548000  0.74124100  1
  Zn  Zn2  1  0.74620000  0.91960800  0.57271600  1
  Zn  Zn3  1  0.74620000  0.58039200  0.07271600  1
  Zn  Zn4  1  0.24620000  0.08039200  0.42728400  1
  Zn  Zn5  1  0.26029400  0.08548000  0.75875900  1
  Zn  Zn6  1  0.71663000  0.91698800  0.90511100  1
  Zn  Zn7  1  0.71663000  0.58301200  0.40511100  1
  Zn  Zn8  1  0.21663000  0.08301200  0.09488900  1
  Zn  Zn9  1  0.26029400  0.41452000  0.25875900  1
  Zn  Zn10  1  0.24620000  0.41960800  0.92728400  1
  Zn  Zn11  1  0.76029400  0.91452000  0.24124100  1
  Cl  Cl0  1  0.02435400  0.30298300  0.91804800  1
  Cl  Cl1  1  0.33062400  0.56730200  0.22150600  1
  Cl  Cl2  1  0.48943700  0.36145800  0.57218200  1
  Cl  Cl3  1  0.32321600  0.05458600  0.50420600  1
  Cl  Cl4  1  0.67546400  0.07038800  0.61136900  1
  Cl  Cl5  1  0.33062400  0.93269800  0.72150600  1
  Cl  Cl6  1  0.02435400  0.19701700  0.41804800  1
  Cl  Cl7  1  0.17898700  0.06139200  0.17377500  1
  Cl  Cl8  1  0.67898700  0.56139200  0.32622500  1
  Cl  Cl9  1  0.51859200  0.79744100  0.93268100  1
  Cl  Cl10  1  0.83062400  0.06730200  0.27849400  1
  Cl  Cl11  1  0.17546400  0.92961200  0.38863100  1
  Cl  Cl12  1  0.52435400  0.69701700  0.08195200  1
  Cl  Cl13  1  0.49672900  0.35864000  0.88968900  1
  Cl  Cl14  1  0.52435400  0.80298300  0.58195200  1
  Cl  Cl15  1  0.47496800  0.29495400  0.24571700  1
  Cl  Cl16  1  0.47496800  0.20504600  0.74571700  1
  Cl  Cl17  1  0.16642300  0.57062600  0.55548500  1
  Cl  Cl18  1  0.97496800  0.70504600  0.75428300  1
  Cl  Cl19  1  0.66642300  0.42937400  0.44451500  1
  Cl  Cl20  1  0.69001600  0.56799900  0.66333200  1
  Cl  Cl21  1  0.98943700  0.86145800  0.92781800  1
  Cl  Cl22  1  0.83062400  0.43269800  0.77849400  1
  Cl  Cl23  1  0.99672900  0.85864000  0.61031100  1
  Cl  Cl24  1  0.00426000  0.13876100  0.72159300  1
  Cl  Cl25  1  0.67898700  0.93860800  0.82622500  1
  Cl  Cl26  1  0.17546400  0.57038800  0.88863100  1
  Cl  Cl27  1  0.69001600  0.93200100  0.16333200  1
  Cl  Cl28  1  0.00426000  0.36123900  0.22159300  1
  Cl  Cl29  1  0.98943700  0.63854200  0.42781800  1
  Cl  Cl30  1  0.67546400  0.42961200  0.11136900  1
  Cl  Cl31  1  0.01859200  0.20255900  0.06731900  1
  Cl  Cl32  1  0.50426000  0.86123900  0.27840700  1
  Cl  Cl33  1  0.82321600  0.55458600  0.99579400  1
  Cl  Cl34  1  0.48943700  0.13854200  0.07218200  1
  Cl  Cl35  1  0.99672900  0.64136000  0.11031100  1
  Cl  Cl36  1  0.17898700  0.43860800  0.67377500  1
  Cl  Cl37  1  0.66642300  0.07062600  0.94451500  1
  Cl  Cl38  1  0.49672900  0.14136000  0.38968900  1
  Cl  Cl39  1  0.01859200  0.29744100  0.56731900  1
  Cl  Cl40  1  0.97496800  0.79495400  0.25428300  1
  Cl  Cl41  1  0.19001600  0.43200100  0.33666800  1
  Cl  Cl42  1  0.51859200  0.70255900  0.43268100  1
  Cl  Cl43  1  0.82321600  0.94541400  0.49579400  1
  Cl  Cl44  1  0.19001600  0.06799900  0.83666800  1
  Cl  Cl45  1  0.32321600  0.44541400  0.00420600  1
  Cl  Cl46  1  0.16642300  0.92937400  0.05548500  1
  Cl  Cl47  1  0.50426000  0.63876100  0.77840700  1
loop_
_geom_bond_atom_site_label_1
_geom_bond_atom_site_label_2
_geom_bond_distance
_geom_bond_site_symmetry_2
Cl0 Zn10 2.283152 1_555
Cl0 Rb16 3.361610 1_555
Cl0 Rb4 3.380595 1_455
Cl0 Rb3 3.396617 1_455
Cl1 Zn9 2.307399 1_555
Cl1 Rb12 3.390061 1_555
Cl1 Rb20 3.534887 1_555
Cl1 Rb23 3.536907 1_555
Cl1 Rb11 3.591904 1_555
Cl2 Zn0 2.289752 1_555
Cl2 Rb14 3.415980 1_555
Cl2 Rb19 3.432136 1_555
Cl2 Rb21 3.441204 1_555
Cl3 Zn4 2.271282 1_555
Cl3 Rb13 3.309589 1_555
Cl3 Rb9 3.313819 1_545
Cl3 Rb14 3.369661 1_555
Cl4 Zn2 2.304221 1_545
Cl4 Rb13 3.405874 1_555
Cl4 Rb14 3.508687 1_555
Cl4 Rb0 3.522229 1_545
Cl4 Rb19 3.603857 1_555
Cl5 Zn5 2.307399 1_565
Cl5 Rb0 3.390061 1_555
Cl5 Rb2 3.534887 1_555
Cl5 Rb1 3.536907 1_555
Cl5 Rb13 3.591904 1_565
Cl6 Zn4 2.283152 1_555
Cl6 Rb17 3.361610 1_555
Cl6 Rb14 3.380595 1_455
Cl6 Rb5 3.396617 1_455
Cl7 Zn8 2.259827 1_555
Cl7 Rb6 3.314893 1_555
Cl7 Rb20 3.341222 1_545
Cl7 Rb15 3.560951 1_455
Cl8 Zn7 2.259827 1_555
Cl8 Rb12 3.314893 1_555
Cl8 Rb5 3.341222 1_555
Cl8 Rb23 3.560951 1_555
Cl9 Zn6 2.299139 1_555
Cl9 Rb22 3.378290 1_556
Cl9 Rb1 3.426025 1_555
Cl9 Rb7 3.517878 1_555
Cl9 Rb10 3.803223 1_556
Cl10 Zn11 2.307399 1_545
Cl10 Rb6 3.390061 1_655
Cl10 Rb5 3.534887 1_555
Cl10 Rb15 3.536907 1_555
Cl10 Rb18 3.591904 1_545
Cl11 Zn4 2.304221 1_565
Cl11 Rb18 3.405874 1_455
Cl11 Rb9 3.508687 1_555
Cl11 Rb6 3.522229 1_565
Cl11 Rb23 3.603857 1_555
Cl12 Zn3 2.283152 1_555
Cl12 Rb10 3.361610 1_555
Cl12 Rb22 3.380595 1_555
Cl12 Rb20 3.396617 1_555
Cl13 Zn10 2.321112 1_555
Cl13 Rb7 3.415202 1_555
Cl13 Rb8 3.419356 1_555
Cl13 Rb3 3.462788 1_555
Cl13 Rb4 3.531929 1_555
Cl14 Zn2 2.283152 1_555
Cl14 Rb21 3.361610 1_555
Cl14 Rb9 3.380595 1_555
Cl14 Rb2 3.396617 1_555
Cl15 Zn9 2.283814 1_555
Cl15 Rb5 3.365773 1_555
Cl15 Rb6 3.397478 1_555
Cl15 Rb15 3.431039 1_555
Cl16 Zn5 2.283814 1_555
Cl16 Rb3 3.365773 1_555
Cl16 Rb8 3.397478 1_555
Cl16 Rb19 3.431039 1_555
Cl17 Zn0 2.314901 1_555
Cl17 Rb21 3.470268 1_455
Cl17 Rb17 3.470299 1_555
Cl17 Rb9 3.487379 1_555
Cl17 Rb2 3.609866 1_555
Cl18 Zn1 2.283814 1_555
Cl18 Rb2 3.365773 1_655
Cl18 Rb0 3.397478 1_555
Cl18 Rb1 3.431039 1_655
Cl19 Zn7 2.314901 1_555
Cl19 Rb17 3.470268 1_555
Cl19 Rb21 3.470299 1_555
Cl19 Rb14 3.487379 1_555
Cl19 Rb5 3.609866 1_555
Cl20 Zn1 2.271985 1_555
Cl20 Rb19 3.327369 1_555
Cl20 Rb21 3.368205 1_555
Cl20 Rb2 3.517083 1_555
Cl21 Zn6 2.289752 1_555
Cl21 Rb22 3.415980 1_656
Cl21 Rb1 3.432136 1_655
Cl21 Rb16 3.441204 1_665
Cl22 Zn1 2.307399 1_555
Cl22 Rb8 3.390061 1_655
Cl22 Rb3 3.534887 1_555
Cl22 Rb19 3.536907 1_555
Cl22 Rb7 3.591904 1_555
Cl23 Zn2 2.321112 1_555
Cl23 Rb13 3.415202 1_665
Cl23 Rb0 3.419356 1_555
Cl23 Rb2 3.462788 1_655
Cl23 Rb9 3.531929 1_655
Cl24 Zn5 2.318547 1_555
Cl24 Rb19 3.323014 1_455
Cl24 Rb0 3.352675 1_445
Cl24 Rb13 3.460582 1_555
Cl24 Rb3 3.634664 1_455
Cl25 Zn6 2.259827 1_555
Cl25 Rb0 3.314893 1_555
Cl25 Rb3 3.341222 1_565
Cl25 Rb1 3.560951 1_555
Cl26 Zn10 2.304221 1_555
Cl26 Rb7 3.405874 1_455
Cl26 Rb22 3.508687 1_556
Cl26 Rb8 3.522229 1_555
Cl26 Rb1 3.603857 1_555
Cl27 Zn11 2.271985 1_555
Cl27 Rb15 3.327369 1_565
Cl27 Rb10 3.368205 1_555
Cl27 Rb20 3.517083 1_555
Cl28 Zn9 2.318547 1_555
Cl28 Rb15 3.323014 1_455
Cl28 Rb12 3.352675 1_455
Cl28 Rb11 3.460582 1_555
Cl28 Rb5 3.634664 1_455
Cl29 Zn7 2.289752 1_555
Cl29 Rb9 3.415980 1_655
Cl29 Rb23 3.432136 1_655
Cl29 Rb17 3.441204 1_655
Cl30 Zn3 2.304221 1_555
Cl30 Rb11 3.405874 1_555
Cl30 Rb4 3.508687 1_554
Cl30 Rb12 3.522229 1_555
Cl30 Rb15 3.603857 1_555
Cl31 Zn8 2.299139 1_555
Cl31 Rb4 3.378290 1_454
Cl31 Rb15 3.426025 1_455
Cl31 Rb11 3.517878 1_555
Cl31 Rb16 3.803223 1_554
Cl32 Zn11 2.318547 1_555
Cl32 Rb23 3.323014 1_555
Cl32 Rb6 3.352675 1_565
Cl32 Rb18 3.460582 1_555
Cl32 Rb20 3.634664 1_555
Cl33 Zn3 2.271282 1_556
Cl33 Rb7 3.309589 1_555
Cl33 Rb4 3.313819 1_555
Cl33 Rb22 3.369661 1_656
Cl34 Zn8 2.289752 1_555
Cl34 Rb4 3.415980 1_554
Cl34 Rb15 3.432136 1_555
Cl34 Rb10 3.441204 1_545
Cl35 Zn3 2.321112 1_555
Cl35 Rb11 3.415202 1_655
Cl35 Rb12 3.419356 1_555
Cl35 Rb20 3.462788 1_655
Cl35 Rb22 3.531929 1_655
Cl36 Zn0 2.259827 1_555
Cl36 Rb8 3.314893 1_555
Cl36 Rb2 3.341222 1_555
Cl36 Rb19 3.560951 1_455
Cl37 Zn6 2.314901 1_545
Cl37 Rb16 3.470268 1_555
Cl37 Rb10 3.470299 1_546
Cl37 Rb4 3.487379 1_555
Cl37 Rb3 3.609866 1_555
Cl38 Zn4 2.321112 1_555
Cl38 Rb18 3.415202 1_545
Cl38 Rb6 3.419356 1_555
Cl38 Rb5 3.462788 1_555
Cl38 Rb14 3.531929 1_555
Cl39 Zn0 2.299139 1_555
Cl39 Rb14 3.378290 1_455
Cl39 Rb19 3.426025 1_455
Cl39 Rb13 3.517878 1_555
Cl39 Rb17 3.803223 1_555
Cl40 Zn11 2.283814 1_555
Cl40 Rb20 3.365773 1_655
Cl40 Rb12 3.397478 1_555
Cl40 Rb23 3.431039 1_655
Cl41 Zn9 2.271985 1_555
Cl41 Rb23 3.327369 1_555
Cl41 Rb17 3.368205 1_555
Cl41 Rb5 3.517083 1_455
Cl42 Zn7 2.299139 1_555
Cl42 Rb9 3.378290 1_555
Cl42 Rb23 3.426025 1_555
Cl42 Rb18 3.517878 1_555
Cl42 Rb21 3.803223 1_555
Cl43 Zn2 2.271282 1_555
Cl43 Rb18 3.309589 1_555
Cl43 Rb14 3.313819 1_565
Cl43 Rb9 3.369661 1_655
Cl44 Zn5 2.271985 1_555
Cl44 Rb1 3.327369 1_545
Cl44 Rb16 3.368205 1_555
Cl44 Rb3 3.517083 1_455
Cl45 Zn10 2.271282 1_554
Cl45 Rb11 3.309589 1_555
Cl45 Rb22 3.313819 1_555
Cl45 Rb4 3.369661 1_554
Cl46 Zn8 2.314901 1_565
Cl46 Rb10 3.470268 1_455
Cl46 Rb16 3.470299 1_564
Cl46 Rb22 3.487379 1_555
Cl46 Rb20 3.609866 1_555
Cl47 Zn1 2.318547 1_555
Cl47 Rb1 3.323014 1_555
Cl47 Rb8 3.352675 1_555
Cl47 Rb7 3.460582 1_555
Cl47 Rb2 3.634664 1_555
