# generated using pymatgen
data_Cu2S
_symmetry_space_group_name_H-M   'P 1'
_cell_length_a   11.91582681
_cell_length_b   13.35222503
_cell_length_c   15.13403569
_cell_angle_alpha   116.19370673
_cell_angle_beta   90.00000000
_cell_angle_gamma   90.00000000
_symmetry_Int_Tables_number   1
_chemical_formula_structural   Cu2S
_chemical_formula_sum   'Cu96 S48'
_cell_volume   2160.59599453
_cell_formula_units_Z   48
loop_
 _symmetry_equiv_pos_site_id
 _symmetry_equiv_pos_as_xyz
  1  'x, y, z'
loop_
 _atom_site_type_symbol
 _atom_site_label
 _atom_site_symmetry_multiplicity
 _atom_site_fract_x
 _atom_site_fract_y
 _atom_site_fract_z
 _atom_site_occupancy
  Cu  Cu0  1  0.46178169  0.64452677  0.82759490  1
  Cu  Cu1  1  0.39843839  0.95689163  0.13829254  1
  Cu  Cu2  1  0.29664715  0.75584228  0.02325030  1
  Cu  Cu3  1  0.03821831  0.14452677  0.82759490  1
  Cu  Cu4  1  0.54710214  0.32541389  0.68672350  1
  Cu  Cu5  1  0.58691310  0.71619625  0.99737432  1
  Cu  Cu6  1  0.85512485  0.56120316  0.05510326  1
  Cu  Cu7  1  0.65959926  0.99330256  0.55283092  1
  Cu  Cu8  1  0.42079075  0.72200716  0.50273758  1
  Cu  Cu9  1  0.74942237  0.92486100  0.14080409  1
  Cu  Cu10  1  0.29142090  0.56935787  0.20737173  1
  Cu  Cu11  1  0.73608218  0.21396171  0.63933690  1
  Cu  Cu12  1  0.25010440  0.85185352  0.77077290  1
  Cu  Cu13  1  0.39914943  0.94701686  0.60964938  1
  Cu  Cu14  1  0.57722286  0.84227120  0.89904362  1
  Cu  Cu15  1  0.87046133  0.06097285  0.07106582  1
  Cu  Cu16  1  0.64487515  0.06120316  0.05510326  1
  Cu  Cu17  1  0.69727141  0.36353980  0.29059348  1
  Cu  Cu18  1  0.08691310  0.78380375  0.00262568  1
  Cu  Cu19  1  0.79042267  0.23278698  0.47701984  1
  Cu  Cu20  1  0.26380870  0.91462264  0.26483095  1
  Cu  Cu21  1  0.93438388  0.06535035  0.38834248  1
  Cu  Cu22  1  0.95817608  0.32600394  0.69964281  1
  Cu  Cu23  1  0.41260962  0.68959475  0.13138851  1
  Cu  Cu24  1  0.57920925  0.27799284  0.49726242  1
  Cu  Cu25  1  0.76391782  0.71396171  0.63933690  1
  Cu  Cu26  1  0.14487515  0.43879684  0.94489674  1
  Cu  Cu27  1  0.20957733  0.76721302  0.52298016  1
  Cu  Cu28  1  0.15959926  0.50669744  0.44716908  1
  Cu  Cu29  1  0.39010105  0.16371467  0.62244421  1
  Cu  Cu30  1  0.75010440  0.64814648  0.22922710  1
  Cu  Cu31  1  0.79142090  0.93064213  0.79262827  1
  Cu  Cu32  1  0.42277714  0.15772880  0.10095638  1
  Cu  Cu33  1  0.74989560  0.14814648  0.22922710  1
  Cu  Cu34  1  0.26391782  0.78603829  0.36066310  1
  Cu  Cu35  1  0.23619130  0.41462264  0.26483095  1
  Cu  Cu36  1  0.56561612  0.56535035  0.38834248  1
  Cu  Cu37  1  0.24942237  0.57513900  0.85919591  1
  Cu  Cu38  1  0.37560145  0.48455888  0.42063571  1
  Cu  Cu39  1  0.08739038  0.18959475  0.13138851  1
  Cu  Cu40  1  0.87560145  0.01544112  0.57936429  1
  Cu  Cu41  1  0.53821831  0.35547323  0.17240510  1
  Cu  Cu42  1  0.76380870  0.58537736  0.73516905  1
  Cu  Cu43  1  0.75057763  0.42486100  0.14080409  1
  Cu  Cu44  1  0.43874465  0.11838208  0.78192087  1
  Cu  Cu45  1  0.23608218  0.28603829  0.36066310  1
  Cu  Cu46  1  0.45289786  0.67458611  0.31327650  1
  Cu  Cu47  1  0.79664715  0.74415772  0.97674970  1
  Cu  Cu48  1  0.92277714  0.34227120  0.89904362  1
  Cu  Cu49  1  0.62953867  0.56097285  0.07106582  1
  Cu  Cu50  1  0.41308690  0.28380375  0.00262568  1
  Cu  Cu51  1  0.62439855  0.51544112  0.57936429  1
  Cu  Cu52  1  0.56125535  0.88161792  0.21807913  1
  Cu  Cu53  1  0.07920925  0.22200716  0.50273758  1
  Cu  Cu54  1  0.73619130  0.08537736  0.73516905  1
  Cu  Cu55  1  0.58739038  0.31040525  0.86861149  1
  Cu  Cu56  1  0.04182392  0.67399606  0.30035719  1
  Cu  Cu57  1  0.04710214  0.17458611  0.31327650  1
  Cu  Cu58  1  0.10989895  0.66371467  0.62244421  1
  Cu  Cu59  1  0.35512485  0.93879684  0.94489674  1
  Cu  Cu60  1  0.89843839  0.54310837  0.86170746  1
  Cu  Cu61  1  0.54182392  0.82600394  0.69964281  1
  Cu  Cu62  1  0.91308690  0.21619625  0.99737432  1
  Cu  Cu63  1  0.95289786  0.82541389  0.68672350  1
  Cu  Cu64  1  0.06125535  0.61838208  0.78192087  1
  Cu  Cu65  1  0.60156161  0.04310837  0.86170746  1
  Cu  Cu66  1  0.60085057  0.05298314  0.39035062  1
  Cu  Cu67  1  0.34040074  0.00669744  0.44716908  1
  Cu  Cu68  1  0.70957733  0.73278698  0.47701984  1
  Cu  Cu69  1  0.70335285  0.24415772  0.97674970  1
  Cu  Cu70  1  0.92079075  0.77799284  0.49726242  1
  Cu  Cu71  1  0.20335285  0.25584228  0.02325030  1
  Cu  Cu72  1  0.20857910  0.06935787  0.20737173  1
  Cu  Cu73  1  0.29042267  0.26721302  0.52298016  1
  Cu  Cu74  1  0.60989895  0.83628533  0.37755579  1
  Cu  Cu75  1  0.45817608  0.17399606  0.30035719  1
  Cu  Cu76  1  0.10156161  0.45689163  0.13829254  1
  Cu  Cu77  1  0.96178169  0.85547323  0.17240510  1
  Cu  Cu78  1  0.19727141  0.13646020  0.70940652  1
  Cu  Cu79  1  0.43438388  0.43464965  0.61165752  1
  Cu  Cu80  1  0.10085057  0.44701686  0.60964938  1
  Cu  Cu81  1  0.91260962  0.81040525  0.86861149  1
  Cu  Cu82  1  0.06561612  0.93464965  0.61165752  1
  Cu  Cu83  1  0.24989560  0.35185352  0.77077290  1
  Cu  Cu84  1  0.30272859  0.63646020  0.70940652  1
  Cu  Cu85  1  0.93874465  0.38161792  0.21807913  1
  Cu  Cu86  1  0.84040074  0.49330256  0.55283092  1
  Cu  Cu87  1  0.25057763  0.07513900  0.85919591  1
  Cu  Cu88  1  0.70857910  0.43064213  0.79262827  1
  Cu  Cu89  1  0.37046133  0.43902715  0.92893418  1
  Cu  Cu90  1  0.12439855  0.98455888  0.42063571  1
  Cu  Cu91  1  0.89914943  0.55298314  0.39035062  1
  Cu  Cu92  1  0.12953867  0.93902715  0.92893418  1
  Cu  Cu93  1  0.89010105  0.33628533  0.37755579  1
  Cu  Cu94  1  0.07722286  0.65772880  0.10095638  1
  Cu  Cu95  1  0.80272859  0.86353980  0.29059348  1
  S  S0  1  0.57357230  0.90637079  0.06599935  1
  S  S1  1  0.21402492  0.13138006  0.55134218  1
  S  S2  1  0.56670122  0.14614330  0.55502499  1
  S  S3  1  0.08100096  0.29006211  0.79559030  1
  S  S4  1  0.71402492  0.36861994  0.44865782  1
  S  S5  1  0.41899904  0.79006211  0.79559030  1
  S  S6  1  0.77091501  0.08047397  0.94997290  1
  S  S7  1  0.23551550  0.72415422  0.19402773  1
  S  S8  1  0.57321999  0.98684186  0.69215383  1
  S  S9  1  0.57704975  0.71148862  0.21140198  1
  S  S10  1  0.07357230  0.59362921  0.93400065  1
  S  S11  1  0.73877346  0.53694660  0.30896838  1
  S  S12  1  0.42642770  0.09362921  0.93400065  1
  S  S13  1  0.08060316  0.99186485  0.27683970  1
  S  S14  1  0.92678001  0.48684186  0.69215383  1
  S  S15  1  0.08420800  0.11454974  0.95943956  1
  S  S16  1  0.07704975  0.78851138  0.78859802  1
  S  S17  1  0.09016326  0.83068059  0.44480910  1
  S  S18  1  0.40983674  0.33068059  0.44480910  1
  S  S19  1  0.22908499  0.91952603  0.05002710  1
  S  S20  1  0.91899904  0.70993789  0.20440970  1
  S  S21  1  0.23877346  0.96305340  0.69103162  1
  S  S22  1  0.72908499  0.58047397  0.94997290  1
  S  S23  1  0.26448450  0.22415422  0.19402773  1
  S  S24  1  0.91579200  0.88545026  0.04056044  1
  S  S25  1  0.91939684  0.00813515  0.72316030  1
  S  S26  1  0.58060316  0.50813515  0.72316030  1
  S  S27  1  0.06670122  0.35385670  0.44497501  1
  S  S28  1  0.07321999  0.51315814  0.30784617  1
  S  S29  1  0.59016326  0.66931941  0.55519090  1
  S  S30  1  0.43329878  0.85385670  0.44497501  1
  S  S31  1  0.92295025  0.21148862  0.21140198  1
  S  S32  1  0.92642770  0.40637079  0.06599935  1
  S  S33  1  0.90983674  0.16931941  0.55519090  1
  S  S34  1  0.27091501  0.41952603  0.05002710  1
  S  S35  1  0.58420800  0.38545026  0.04056044  1
  S  S36  1  0.42295025  0.28851138  0.78859802  1
  S  S37  1  0.41939684  0.49186485  0.27683970  1
  S  S38  1  0.42678001  0.01315814  0.30784617  1
  S  S39  1  0.41579200  0.61454974  0.95943956  1
  S  S40  1  0.78597508  0.86861994  0.44865782  1
  S  S41  1  0.93329878  0.64614330  0.55502499  1
  S  S42  1  0.76448450  0.27584578  0.80597227  1
  S  S43  1  0.26122654  0.46305340  0.69103162  1
  S  S44  1  0.73551550  0.77584578  0.80597227  1
  S  S45  1  0.28597508  0.63138006  0.55134218  1
  S  S46  1  0.76122654  0.03694660  0.30896838  1
  S  S47  1  0.58100096  0.20993789  0.20440970  1
loop_
_geom_bond_atom_site_label_1
_geom_bond_atom_site_label_2
_geom_bond_distance
_geom_bond_site_symmetry_2
Cu0 S5 2.258653 1_555
Cu0 S39 2.268694 1_555
Cu0 S26 2.297427 1_555
Cu1 S0 2.314201 1_555
Cu1 S19 2.348876 1_555
Cu1 S38 2.358196 1_565
Cu2 S19 2.192499 1_555
Cu2 S39 2.213354 1_554
Cu3 S3 2.258653 1_555
Cu3 S15 2.268694 1_555
Cu3 S25 2.297427 1_455
Cu4 S26 2.286492 1_555
Cu4 S36 2.340736 1_555
Cu4 S2 2.354766 1_555
Cu5 S0 2.285509 1_556
Cu5 S22 2.349672 1_555
Cu5 S39 2.375176 1_555
Cu6 S22 2.283564 1_554
Cu6 S32 2.307378 1_555
Cu6 S20 2.380651 1_555
Cu7 S40 2.282027 1_555
Cu7 S2 2.308972 1_565
Cu7 S8 2.381866 1_555
Cu8 S30 2.290054 1_555
Cu8 S45 2.317717 1_555
Cu8 S29 2.385640 1_555
Cu9 S46 2.318216 1_565
Cu9 S0 2.342338 1_555
Cu9 S24 2.409094 1_555
Cu10 S7 2.263850 1_555
Cu10 S37 2.337026 1_555
Cu10 S34 2.350914 1_555
Cu11 S42 2.305970 1_555
Cu11 S2 2.345562 1_555
Cu11 S33 2.365074 1_555
Cu12 S5 2.268387 1_555
Cu12 S16 2.289479 1_555
Cu12 S21 2.293686 1_555
Cu13 S21 2.232026 1_555
Cu13 S30 2.277524 1_555
Cu13 S8 2.357532 1_555
Cu14 S0 2.282448 1_556
Cu14 S44 2.285927 1_555
Cu14 S5 2.351243 1_555
Cu15 S24 2.245498 1_545
Cu15 S31 2.274368 1_555
Cu15 S6 2.292290 1_554
Cu16 S6 2.283564 1_554
Cu16 S0 2.307378 1_545
Cu16 S47 2.380651 1_555
Cu17 S11 2.261503 1_555
Cu17 S47 2.337831 1_555
Cu17 S4 2.371412 1_555
Cu18 S10 2.285509 1_554
Cu18 S19 2.349672 1_555
Cu18 S24 2.375176 1_455
Cu19 S4 2.233748 1_555
Cu19 S33 2.242208 1_555
Cu19 S46 2.748814 1_555
Cu20 S38 2.273714 1_565
Cu20 S7 2.307344 1_555
Cu20 S13 2.386826 1_555
Cu21 S33 2.300910 1_555
Cu21 S13 2.320415 1_645
Cu21 S46 2.332789 1_555
Cu22 S14 2.231508 1_555
Cu22 S3 2.257437 1_655
Cu22 S33 2.334562 1_555
Cu23 S9 2.253597 1_555
Cu23 S7 2.275624 1_555
Cu23 S39 2.339953 1_554
Cu24 S2 2.290054 1_555
Cu24 S4 2.317717 1_555
Cu24 S18 2.385640 1_555
Cu25 S44 2.305970 1_555
Cu25 S41 2.345562 1_555
Cu25 S29 2.365074 1_555
Cu26 S34 2.283564 1_556
Cu26 S10 2.307378 1_555
Cu26 S3 2.380651 1_555
Cu27 S45 2.233748 1_555
Cu27 S17 2.242208 1_555
Cu27 S21 2.748814 1_555
Cu28 S45 2.282027 1_555
Cu28 S27 2.308972 1_555
Cu28 S28 2.381866 1_555
Cu29 S2 2.304997 1_555
Cu29 S1 2.310013 1_555
Cu29 S36 2.356662 1_555
Cu30 S20 2.268387 1_555
Cu30 S9 2.289479 1_555
Cu30 S11 2.293686 1_555
Cu31 S44 2.263850 1_555
Cu31 S25 2.337026 1_565
Cu31 S6 2.350914 1_565
Cu32 S12 2.282448 1_554
Cu32 S23 2.285927 1_555
Cu32 S47 2.351243 1_555
Cu33 S47 2.268387 1_555
Cu33 S31 2.289479 1_555
Cu33 S46 2.293686 1_555
Cu34 S7 2.305970 1_555
Cu34 S30 2.345562 1_555
Cu34 S17 2.365074 1_555
Cu35 S28 2.273714 1_555
Cu35 S23 2.307344 1_555
Cu35 S37 2.386826 1_555
Cu36 S29 2.300910 1_555
Cu36 S37 2.320415 1_555
Cu36 S11 2.332789 1_555
Cu37 S43 2.318216 1_555
Cu37 S10 2.342338 1_555
Cu37 S39 2.409094 1_555
Cu38 S18 2.277123 1_555
Cu38 S37 2.281485 1_555
Cu38 S45 2.339485 1_555
Cu39 S31 2.253597 1_455
Cu39 S23 2.275624 1_555
Cu39 S15 2.339953 1_554
Cu40 S33 2.277123 1_555
Cu40 S25 2.281485 1_555
Cu40 S40 2.339485 1_545
Cu41 S47 2.258653 1_555
Cu41 S35 2.268694 1_555
Cu41 S37 2.297427 1_555
Cu42 S14 2.273714 1_555
Cu42 S44 2.307344 1_555
Cu42 S26 2.386826 1_555
Cu43 S11 2.318216 1_555
Cu43 S32 2.342338 1_555
Cu43 S35 2.409094 1_555
Cu44 S36 2.236777 1_555
Cu44 S8 2.321978 1_545
Cu44 S12 2.469736 1_555
Cu45 S23 2.305970 1_555
Cu45 S27 2.345562 1_555
Cu45 S18 2.365074 1_555
Cu46 S37 2.286492 1_555
Cu46 S9 2.340736 1_555
Cu46 S30 2.354766 1_555
Cu47 S22 2.192499 1_555
Cu47 S24 2.213354 1_556
Cu48 S32 2.282448 1_556
Cu48 S42 2.285927 1_555
Cu48 S3 2.351243 1_655
Cu49 S35 2.245498 1_555
Cu49 S9 2.274368 1_555
Cu49 S22 2.292290 1_554
Cu50 S12 2.285509 1_554
Cu50 S34 2.349672 1_555
Cu50 S35 2.375176 1_555
Cu51 S29 2.277123 1_555
Cu51 S26 2.281485 1_555
Cu51 S4 2.339485 1_555
Cu52 S9 2.236777 1_555
Cu52 S38 2.321978 1_565
Cu52 S0 2.469736 1_555
Cu53 S27 2.290054 1_555
Cu53 S1 2.317717 1_555
Cu53 S33 2.385640 1_455
Cu54 S8 2.273714 1_545
Cu54 S42 2.307344 1_555
Cu54 S25 2.386826 1_555
Cu55 S36 2.253597 1_555
Cu55 S42 2.275624 1_555
Cu55 S35 2.339953 1_556
Cu56 S28 2.231508 1_555
Cu56 S20 2.257437 1_455
Cu56 S17 2.334562 1_555
Cu57 S13 2.286492 1_545
Cu57 S31 2.340736 1_455
Cu57 S27 2.354766 1_555
Cu58 S41 2.304997 1_455
Cu58 S45 2.310013 1_555
Cu58 S16 2.356662 1_555
Cu59 S19 2.283564 1_556
Cu59 S12 2.307378 1_565
Cu59 S5 2.380651 1_555
Cu60 S10 2.314201 1_655
Cu60 S22 2.348876 1_555
Cu60 S14 2.358196 1_555
Cu61 S8 2.231508 1_555
Cu61 S5 2.257437 1_555
Cu61 S29 2.334562 1_555
Cu62 S32 2.285509 1_556
Cu62 S6 2.349672 1_555
Cu62 S15 2.375176 1_655
Cu63 S25 2.286492 1_565
Cu63 S16 2.340736 1_655
Cu63 S41 2.354766 1_555
Cu64 S16 2.236777 1_555
Cu64 S14 2.321978 1_455
Cu64 S10 2.469736 1_555
Cu65 S12 2.314201 1_555
Cu65 S6 2.348876 1_555
Cu65 S8 2.358196 1_545
Cu66 S46 2.232026 1_555
Cu66 S2 2.277524 1_555
Cu66 S38 2.357532 1_555
Cu67 S1 2.282027 1_555
Cu67 S30 2.308972 1_545
Cu67 S38 2.381866 1_555
Cu68 S40 2.233748 1_555
Cu68 S29 2.242208 1_555
Cu68 S11 2.748814 1_555
Cu69 S6 2.192499 1_555
Cu69 S35 2.213354 1_556
Cu70 S41 2.290054 1_555
Cu70 S40 2.317717 1_555
Cu70 S17 2.385640 1_655
Cu71 S34 2.192499 1_555
Cu71 S15 2.213354 1_554
Cu72 S23 2.263850 1_555
Cu72 S13 2.337026 1_545
Cu72 S19 2.350914 1_545
Cu73 S1 2.233748 1_555
Cu73 S18 2.242208 1_555
Cu73 S43 2.748814 1_555
Cu74 S30 2.304997 1_555
Cu74 S40 2.310013 1_555
Cu74 S9 2.356662 1_555
Cu75 S38 2.231508 1_555
Cu75 S47 2.257437 1_555
Cu75 S18 2.334562 1_555
Cu76 S32 2.314201 1_455
Cu76 S34 2.348876 1_555
Cu76 S28 2.358196 1_555
Cu77 S20 2.258653 1_555
Cu77 S24 2.268694 1_555
Cu77 S13 2.297427 1_655
Cu78 S21 2.261503 1_545
Cu78 S3 2.337831 1_555
Cu78 S1 2.371412 1_555
Cu79 S18 2.300910 1_555
Cu79 S26 2.320415 1_555
Cu79 S43 2.332789 1_555
Cu80 S43 2.232026 1_555
Cu80 S27 2.277524 1_555
Cu80 S14 2.357532 1_455
Cu81 S16 2.253597 1_655
Cu81 S44 2.275624 1_555
Cu81 S24 2.339953 1_556
Cu82 S17 2.300910 1_555
Cu82 S25 2.320415 1_465
Cu82 S21 2.332789 1_555
Cu83 S3 2.268387 1_555
Cu83 S36 2.289479 1_555
Cu83 S43 2.293686 1_555
Cu84 S43 2.261503 1_555
Cu84 S5 2.337831 1_555
Cu84 S45 2.371412 1_555
Cu85 S31 2.236777 1_555
Cu85 S28 2.321978 1_655
Cu85 S32 2.469736 1_555
Cu86 S4 2.282027 1_555
Cu86 S41 2.308972 1_555
Cu86 S14 2.381866 1_555
Cu87 S21 2.318216 1_545
Cu87 S12 2.342338 1_555
Cu87 S15 2.409094 1_555
Cu88 S42 2.263850 1_555
Cu88 S26 2.337026 1_555
Cu88 S22 2.350914 1_555
Cu89 S39 2.245498 1_555
Cu89 S36 2.274368 1_555
Cu89 S34 2.292290 1_556
Cu90 S17 2.277123 1_555
Cu90 S13 2.281485 1_555
Cu90 S1 2.339485 1_565
Cu91 S11 2.232026 1_555
Cu91 S41 2.277524 1_555
Cu91 S28 2.357532 1_655
Cu92 S15 2.245498 1_565
Cu92 S16 2.274368 1_555
Cu92 S19 2.292290 1_556
Cu93 S27 2.304997 1_655
Cu93 S4 2.310013 1_555
Cu93 S31 2.356662 1_555
Cu94 S10 2.282448 1_554
Cu94 S7 2.285927 1_555
Cu94 S20 2.351243 1_455
Cu95 S46 2.261503 1_565
Cu95 S20 2.337831 1_555
Cu95 S40 2.371412 1_555
