# generated using pymatgen
data_AlSBr3N
_symmetry_space_group_name_H-M   'P 1'
_cell_length_a   10.84219600
_cell_length_b   7.55275300
_cell_length_c   10.22440750
_cell_angle_alpha   67.55251368
_cell_angle_beta   90.00000000
_cell_angle_gamma   90.00000000
_symmetry_Int_Tables_number   1
_chemical_formula_structural   AlSBr3N
_chemical_formula_sum   'Al4 S4 Br12 N4'
_cell_volume   773.82132719
_cell_formula_units_Z   4
loop_
 _symmetry_equiv_pos_site_id
 _symmetry_equiv_pos_as_xyz
  1  'x, y, z'
loop_
 _atom_site_type_symbol
 _atom_site_label
 _atom_site_symmetry_multiplicity
 _atom_site_fract_x
 _atom_site_fract_y
 _atom_site_fract_z
 _atom_site_occupancy
  Al  Al0  1  0.37657200  0.72575200  0.65794000  1
  Al  Al1  1  0.62342800  0.27424800  0.34206000  1
  Al  Al2  1  0.87657200  0.27424800  0.84206000  1
  Al  Al3  1  0.12342800  0.72575200  0.15794000  1
  S  S0  1  0.97199600  0.63797200  0.89119000  1
  S  S1  1  0.02800400  0.36202800  0.10881000  1
  S  S2  1  0.47199600  0.36202800  0.60881000  1
  S  S3  1  0.52800400  0.63797200  0.39119000  1
  Br  Br0  1  0.47898700  0.08600500  0.29106700  1
  Br  Br1  1  0.02101300  0.08600500  0.79106700  1
  Br  Br2  1  0.34586100  0.43623000  0.84730300  1
  Br  Br3  1  0.52101300  0.91399500  0.70893300  1
  Br  Br4  1  0.97898700  0.91399500  0.20893300  1
  Br  Br5  1  0.80227100  0.13332400  0.44599700  1
  Br  Br6  1  0.84586100  0.56377000  0.65269700  1
  Br  Br7  1  0.30227100  0.86667600  0.05400300  1
  Br  Br8  1  0.65413900  0.56377000  0.15269700  1
  Br  Br9  1  0.15413900  0.43623000  0.34730300  1
  Br  Br10  1  0.19772900  0.86667600  0.55400300  1
  Br  Br11  1  0.69772900  0.13332400  0.94599700  1
  N  N0  1  0.54170600  0.40115000  0.45403800  1
  N  N1  1  0.95829400  0.40115000  0.95403800  1
  N  N2  1  0.04170600  0.59885000  0.04596200  1
  N  N3  1  0.45829400  0.59885000  0.54596200  1
loop_
_geom_bond_atom_site_label_1
_geom_bond_atom_site_label_2
_geom_bond_distance
_geom_bond_site_symmetry_2
Al0 N3 1.962792 1_555
Al0 Br10 2.271194 1_555
Al0 Br3 2.304741 1_555
Al0 Br2 2.325488 1_555
Al1 N0 1.962792 1_555
Al1 Br5 2.271194 1_555
Al1 Br0 2.304741 1_555
Al1 Br8 2.325488 1_555
Al2 N1 1.962792 1_555
Al2 Br11 2.271194 1_555
Al2 Br1 2.304741 1_655
Al2 Br6 2.325488 1_555
Al3 N2 1.962792 1_555
Al3 Br7 2.271194 1_555
Al3 Br4 2.304741 1_455
Al3 Br9 2.325488 1_555
N0 S3 1.660284 1_555
N0 S2 1.675002 1_555
N1 S0 1.660284 1_555
N1 S1 1.675002 1_656
N2 S1 1.660284 1_555
N2 S0 1.675002 1_454
N3 S2 1.660284 1_555
N3 S3 1.675002 1_555
