# generated using pymatgen
data_Nd(AlGa)2
_symmetry_space_group_name_H-M   'P 1'
_cell_length_a   4.17962511
_cell_length_b   4.17961388
_cell_length_c   6.30522704
_cell_angle_alpha   108.87830246
_cell_angle_beta   108.87828027
_cell_angle_gamma   90.09884699
_symmetry_Int_Tables_number   1
_chemical_formula_structural   Nd(AlGa)2
_chemical_formula_sum   'Nd1 Al2 Ga2'
_cell_volume   97.91694528
_cell_formula_units_Z   1
loop_
 _symmetry_equiv_pos_site_id
 _symmetry_equiv_pos_as_xyz
  1  'x, y, z'
loop_
 _atom_site_type_symbol
 _atom_site_label
 _atom_site_symmetry_multiplicity
 _atom_site_fract_x
 _atom_site_fract_y
 _atom_site_fract_z
 _atom_site_occupancy
  Nd  Nd0  1  0.00000000  0.00000000  0.00000000  1
  Al  Al0  1  0.24752398  0.75247602  0.50000000  1
  Al  Al1  1  0.75247602  0.24752398  0.50000000  1
  Ga  Ga0  1  0.61062842  0.61062842  0.22305694  1
  Ga  Ga1  1  0.38937158  0.38937158  0.77694306  1
loop_
_geom_bond_atom_site_label_1
_geom_bond_atom_site_label_2
_geom_bond_distance
_geom_bond_site_symmetry_2
Al0 Ga1 2.598456 1_555
Al0 Ga0 2.598459 1_555
Al0 Ga1 2.608333 1_565
Al0 Ga0 2.608340 1_455
Al0 Nd0 3.476100 1_565
Al0 Nd0 3.476101 1_566
Al0 Nd0 3.516043 1_555
Al0 Nd0 3.516049 1_666
Al1 Ga0 2.598456 1_555
Al1 Ga1 2.598459 1_555
Al1 Ga0 2.608333 1_545
Al1 Ga1 2.608340 1_655
Al1 Nd0 3.476100 1_656
Al1 Nd0 3.476101 1_655
Al1 Nd0 3.516043 1_666
Al1 Nd0 3.516049 1_555
Ga0 Ga1 2.500591 1_554
Ga0 Nd0 3.198160 1_665
Ga0 Nd0 3.211372 1_655
Ga0 Nd0 3.211374 1_565
Ga0 Nd0 3.215172 1_555
Ga1 Nd0 3.198160 1_556
Ga1 Nd0 3.211372 1_566
Ga1 Nd0 3.211374 1_656
Ga1 Nd0 3.215172 1_666
