# generated using pymatgen
data_Yb(SiNi)2
_symmetry_space_group_name_H-M   'P 1'
_cell_length_a   5.46033491
_cell_length_b   5.46033491
_cell_length_c   5.46033491
_cell_angle_alpha   138.16827729
_cell_angle_beta   138.16827729
_cell_angle_gamma   60.64537168
_symmetry_Int_Tables_number   1
_chemical_formula_structural   Yb(SiNi)2
_chemical_formula_sum   'Yb1 Si2 Ni2'
_cell_volume   71.63995123
_cell_formula_units_Z   1
loop_
 _symmetry_equiv_pos_site_id
 _symmetry_equiv_pos_as_xyz
  1  'x, y, z'
loop_
 _atom_site_type_symbol
 _atom_site_label
 _atom_site_symmetry_multiplicity
 _atom_site_fract_x
 _atom_site_fract_y
 _atom_site_fract_z
 _atom_site_occupancy
  Yb  Yb0  1  0.00000000  0.00000000  0.00000000  1
  Si  Si0  1  0.62587463  0.62587463  0.00000000  1
  Si  Si1  1  0.37412537  0.37412537  0.00000000  1
  Ni  Ni0  1  0.25000000  0.75000000  0.50000000  1
  Ni  Ni1  1  0.75000000  0.25000000  0.50000000  1
loop_
_geom_bond_atom_site_label_1
_geom_bond_atom_site_label_2
_geom_bond_distance
_geom_bond_site_symmetry_2
Si0 Si1 2.373159 1_555
Si0 Yb0 3.001279 1_565
Si0 Yb0 3.001279 1_666
Si0 Yb0 3.001279 1_655
Si0 Yb0 3.001279 1_554
Si1 Yb0 3.001279 1_554
Si1 Yb0 3.001279 1_666
Si1 Yb0 3.001279 1_655
Si1 Yb0 3.001279 1_565
Ni0 Si1 2.273535 1_566
Ni0 Si1 2.273535 1_555
Ni0 Si0 2.273535 1_556
Ni0 Si0 2.273535 1_455
Ni0 Yb0 3.058389 1_555
Ni0 Yb0 3.058389 1_566
Ni0 Yb0 3.058389 1_666
Ni0 Yb0 3.058389 1_565
Ni1 Si1 2.273535 1_656
Ni1 Si1 2.273535 1_555
Ni1 Si0 2.273535 1_545
Ni1 Si0 2.273535 1_556
Ni1 Yb0 3.058389 1_555
Ni1 Yb0 3.058389 1_655
Ni1 Yb0 3.058389 1_656
Ni1 Yb0 3.058389 1_666
