# generated using pymatgen
data_Zn3As2(HO)16
_symmetry_space_group_name_H-M   'P 1'
_cell_length_a   8.74754261
_cell_length_b   8.74754261
_cell_length_c   4.96334995
_cell_angle_alpha   83.54755416
_cell_angle_beta   83.54755416
_cell_angle_gamma   98.62528678
_symmetry_Int_Tables_number   1
_chemical_formula_structural   Zn3As2(HO)16
_chemical_formula_sum   'Zn3 As2 H16 O16'
_cell_volume   369.87684720
_cell_formula_units_Z   1
loop_
 _symmetry_equiv_pos_site_id
 _symmetry_equiv_pos_as_xyz
  1  'x, y, z'
loop_
 _atom_site_type_symbol
 _atom_site_label
 _atom_site_symmetry_multiplicity
 _atom_site_fract_x
 _atom_site_fract_y
 _atom_site_fract_z
 _atom_site_occupancy
  Zn  Zn0  1  0.00000000  0.00000000  0.00000000  1
  Zn  Zn1  1  0.37823900  0.62176100  0.00000000  1
  Zn  Zn2  1  0.62176100  0.37823900  0.00000000  1
  As  As0  1  0.31379700  0.31379700  0.63260800  1
  As  As1  1  0.68620300  0.68620300  0.36739200  1
  H  H0  1  0.79553300  0.00596500  0.62409800  1
  H  H1  1  0.99403500  0.20446700  0.37590200  1
  H  H2  1  0.20446700  0.99403500  0.37590200  1
  H  H3  1  0.00596500  0.79553300  0.62409800  1
  H  H4  1  0.51716900  0.81495400  0.67383100  1
  H  H5  1  0.18504600  0.48283100  0.32616900  1
  H  H6  1  0.48283100  0.18504600  0.32616900  1
  H  H7  1  0.81495400  0.51716900  0.67383100  1
  H  H8  1  0.49899600  0.88689400  0.06997700  1
  H  H9  1  0.11310600  0.50100400  0.93002300  1
  H  H10  1  0.50100400  0.11310600  0.93002300  1
  H  H11  1  0.88689400  0.49899600  0.06997700  1
  H  H12  1  0.27578600  0.91573200  0.11043300  1
  H  H13  1  0.08426800  0.72421400  0.88956700  1
  H  H14  1  0.72421400  0.08426800  0.88956700  1
  H  H15  1  0.91573200  0.27578600  0.11043300  1
  O  O0  1  0.16471400  0.16471400  0.66646600  1
  O  O1  1  0.83528600  0.83528600  0.33353400  1
  O  O2  1  0.39063500  0.39063500  0.90398700  1
  O  O3  1  0.60936500  0.60936500  0.09601300  1
  O  O4  1  0.48443600  0.26521500  0.46333300  1
  O  O5  1  0.73478500  0.51556400  0.53666700  1
  O  O6  1  0.51556400  0.73478500  0.53666700  1
  O  O7  1  0.26521500  0.48443600  0.46333300  1
  O  O8  1  0.04763700  0.81830000  0.79289300  1
  O  O9  1  0.18170000  0.95236300  0.20710700  1
  O  O10  1  0.95236300  0.18170000  0.20710700  1
  O  O11  1  0.81830000  0.04763700  0.79289300  1
  O  O12  1  0.57736600  0.14588400  0.04948300  1
  O  O13  1  0.85411600  0.42263400  0.95051700  1
  O  O14  1  0.42263400  0.85411600  0.95051700  1
  O  O15  1  0.14588400  0.57736600  0.04948300  1
loop_
_geom_bond_atom_site_label_1
_geom_bond_atom_site_label_2
_geom_bond_distance
_geom_bond_site_symmetry_2
As0 O0 1.679589 1_555
As0 O2 1.728954 1_555
As0 O7 1.761593 1_555
As0 O4 1.761593 1_555
As1 O1 1.679589 1_555
As1 O3 1.728954 1_555
As1 O5 1.761593 1_555
As1 O6 1.761593 1_555
H0 O11 0.979183 1_555
H1 O10 0.979183 1_555
H2 O9 0.979183 1_555
H3 O8 0.979183 1_555
H4 O6 1.030521 1_555
H4 O14 1.619441 1_555
H5 O7 1.030521 1_555
H5 O15 1.619441 1_555
H6 O4 1.030521 1_555
H6 O12 1.619441 1_555
H7 O5 1.030521 1_555
H7 O13 1.619441 1_555
H8 O14 0.974549 1_554
H9 O15 0.974549 1_556
H10 O12 0.974549 1_556
H11 O13 0.974549 1_554
H12 O9 1.017435 1_555
H12 O14 1.626424 1_554
H13 O8 1.017435 1_555
H13 O15 1.626424 1_556
H14 O11 1.017435 1_555
H14 O12 1.626424 1_556
H15 O10 1.017435 1_555
H15 O13 1.626424 1_554
O0 Zn0 2.279840 1_556
O1 Zn0 2.279840 1_665
O2 Zn1 2.144098 1_556
O2 Zn2 2.144098 1_556
O3 Zn1 2.144098 1_555
O3 Zn2 2.144098 1_555
O8 Zn0 2.055772 1_566
O9 Zn0 2.055772 1_565
O10 Zn0 2.055772 1_655
O11 Zn0 2.055772 1_656
O12 Zn2 1.992974 1_555
O13 Zn2 1.992974 1_556
O14 Zn1 1.992974 1_556
O15 Zn1 1.992974 1_555
