# generated using pymatgen
data_Ta9Pb12O20F29
_symmetry_space_group_name_H-M   'P 1'
_cell_length_a   16.63961044
_cell_length_b   16.63961044
_cell_length_c   16.63961044
_cell_angle_alpha   90.79881294
_cell_angle_beta   90.79881294
_cell_angle_gamma   166.43808121
_symmetry_Int_Tables_number   1
_chemical_formula_structural   Ta9Pb12O20F29
_chemical_formula_sum   'Ta9 Pb12 O20 F29'
_cell_volume   1072.79403933
_cell_formula_units_Z   1
loop_
 _symmetry_equiv_pos_site_id
 _symmetry_equiv_pos_as_xyz
  1  'x, y, z'
loop_
 _atom_site_type_symbol
 _atom_site_label
 _atom_site_symmetry_multiplicity
 _atom_site_fract_x
 _atom_site_fract_y
 _atom_site_fract_z
 _atom_site_occupancy
  Ta  Ta0  1  0.89910300  0.86982100  0.76892400  1
  Ta  Ta1  1  0.13017900  0.89910300  0.02928300  1
  Ta  Ta2  1  0.23175400  0.02818600  0.25993900  1
  Ta  Ta3  1  0.10089700  0.13017900  0.23107600  1
  Ta  Ta4  1  0.86982100  0.10089700  0.97071700  1
  Ta  Ta5  1  0.02818600  0.76824600  0.79643200  1
  Ta  Ta6  1  0.00000000  0.00000000  0.00000000  1
  Ta  Ta7  1  0.76824600  0.97181400  0.74006100  1
  Ta  Ta8  1  0.97181400  0.23175400  0.20356800  1
  Pb  Pb0  1  0.21061200  0.60187900  0.81249100  1
  Pb  Pb1  1  0.67230000  0.25404200  0.92634300  1
  Pb  Pb2  1  0.39812100  0.21061200  0.60873400  1
  Pb  Pb3  1  0.60187900  0.78938800  0.39126600  1
  Pb  Pb4  1  0.10153800  0.45247500  0.55401300  1
  Pb  Pb5  1  0.45247500  0.89846200  0.35093700  1
  Pb  Pb6  1  0.32770000  0.74595800  0.07365700  1
  Pb  Pb7  1  0.74595800  0.67230000  0.41825800  1
  Pb  Pb8  1  0.78938800  0.39812100  0.18750900  1
  Pb  Pb9  1  0.25404200  0.32770000  0.58174200  1
  Pb  Pb10  1  0.89846200  0.54752500  0.44598700  1
  Pb  Pb11  1  0.54752500  0.10153800  0.64906300  1
  O  O0  1  0.95664500  0.80707100  0.76371500  1
  O  O1  1  0.25599700  0.47011300  0.72611100  1
  O  O2  1  0.04744000  0.06829400  0.11573400  1
  O  O3  1  0.36370200  0.60660900  0.97031100  1
  O  O4  1  0.93170600  0.04744000  0.97914600  1
  O  O5  1  0.06829400  0.95256000  0.02085400  1
  O  O6  1  0.63629800  0.39339100  0.02968900  1
  O  O7  1  0.95256000  0.93170600  0.88426600  1
  O  O8  1  0.80707100  0.04335500  0.85042600  1
  O  O9  1  0.04335500  0.19292900  0.23628500  1
  O  O10  1  0.19292900  0.95664500  0.14957400  1
  O  O11  1  0.83003200  0.92020700  0.75023900  1
  O  O12  1  0.47011300  0.74400300  0.21411600  1
  O  O13  1  0.92020700  0.16996800  0.09017500  1
  O  O14  1  0.74400300  0.52988700  0.27389000  1
  O  O15  1  0.07979300  0.83003200  0.90982500  1
  O  O16  1  0.39339100  0.36370200  0.75709200  1
  O  O17  1  0.52988700  0.25599700  0.78588400  1
  O  O18  1  0.16996800  0.07979300  0.24976100  1
  O  O19  1  0.60660900  0.63629800  0.24290800  1
  F  F0  1  0.16267600  0.19588100  0.35855700  1
  F  F1  1  0.42226500  0.11409400  0.53635900  1
  F  F2  1  0.30760300  0.97984700  0.28744900  1
  F  F3  1  0.57773500  0.88590600  0.46364100  1
  F  F4  1  0.90095200  0.28640600  0.18735900  1
  F  F5  1  0.32931100  0.85232700  0.18163800  1
  F  F6  1  0.14767300  0.32931100  0.47698400  1
  F  F7  1  0.22411500  0.71494500  0.93906100  1
  F  F8  1  0.99601300  0.56622500  0.56223800  1
  F  F9  1  0.71494500  0.77588500  0.49083000  1
  F  F10  1  0.11409400  0.57773500  0.69182900  1
  F  F11  1  0.83732400  0.80411900  0.64144300  1
  F  F12  1  0.67068900  0.14767300  0.81836200  1
  F  F13  1  0.71359400  0.90095200  0.61454600  1
  F  F14  1  0.85232700  0.67068900  0.52301600  1
  F  F15  1  0.69239700  0.02015300  0.71255100  1
  F  F16  1  0.77588500  0.28505500  0.06093900  1
  F  F17  1  0.28640600  0.09904800  0.38545400  1
  F  F18  1  0.56622500  0.00398700  0.57021200  1
  F  F19  1  0.50000000  0.50000000  0.00000000  1
  F  F20  1  0.80411900  0.16267600  0.96679600  1
  F  F21  1  0.88590600  0.42226500  0.30817100  1
  F  F22  1  0.02015300  0.30760300  0.32775600  1
  F  F23  1  0.28505500  0.22411500  0.50917000  1
  F  F24  1  0.97984700  0.69239700  0.67224400  1
  F  F25  1  0.43377500  0.99601300  0.42978800  1
  F  F26  1  0.00398700  0.43377500  0.43776200  1
  F  F27  1  0.09904800  0.71359400  0.81264100  1
  F  F28  1  0.19588100  0.83732400  0.03320400  1
loop_
_geom_bond_atom_site_label_1
_geom_bond_atom_site_label_2
_geom_bond_distance
_geom_bond_site_symmetry_2
O0 Ta5 1.902040 1_655
O0 Ta0 1.989473 1_555
O1 Ta7 1.985843 1_555
O1 Ta7 1.985843 1_445
O2 Ta3 1.910901 1_555
O2 Ta6 1.943094 1_555
O3 Ta4 1.974416 1_455
O3 Ta4 1.974420 1_565
O4 Ta4 1.910903 1_555
O4 Ta6 1.943094 1_656
O5 Ta1 1.910903 1_555
O5 Ta6 1.943094 1_565
O6 Ta1 1.974416 1_655
O6 Ta1 1.974420 1_545
O7 Ta0 1.910901 1_555
O7 Ta6 1.943094 1_666
O8 Ta7 1.902020 1_545
O8 Ta4 1.989456 1_555
O9 Ta8 1.902040 1_455
O9 Ta3 1.989473 1_555
O10 Ta2 1.902020 1_565
O10 Ta1 1.989456 1_555
O11 Ta7 1.881149 1_555
O11 Ta0 1.997813 1_555
O12 Ta8 1.985843 1_565
O12 Ta8 1.985843 1_455
O13 Ta8 1.881151 1_555
O13 Ta4 1.997830 1_554
O14 Ta2 1.985843 1_555
O14 Ta2 1.985847 1_665
O15 Ta5 1.881151 1_555
O15 Ta1 1.997830 1_556
O16 Ta0 1.974418 1_555
O16 Ta0 1.974421 1_445
O17 Ta5 1.985843 1_655
O17 Ta5 1.985843 1_545
O18 Ta2 1.881149 1_555
O18 Ta3 1.997813 1_555
O19 Ta3 1.974418 1_555
O19 Ta3 1.974421 1_665
F0 Ta3 2.107393 1_555
F1 Pb2 2.324873 1_555
F1 Pb10 2.566933 1_445
F1 Pb10 2.566933 1_555
F2 Ta2 2.101728 1_565
F2 Pb8 2.772761 1_565
F2 Pb8 2.772763 1_455
F3 Pb3 2.324873 1_555
F3 Pb4 2.566933 1_555
F3 Pb4 2.566933 1_665
F4 Ta8 2.091117 1_555
F5 Pb8 2.423931 1_565
F5 Pb8 2.423931 1_455
F5 Pb6 2.485859 1_555
F6 Pb3 2.423939 1_445
F6 Pb3 2.423942 1_555
F6 Pb9 2.485847 1_555
F7 Pb1 2.482077 1_455
F7 Pb1 2.482077 1_565
F7 Pb6 2.526635 1_556
F7 Pb0 2.660840 1_555
F8 Pb10 2.321013 1_555
F8 Pb11 2.447420 1_555
F8 Pb11 2.447420 1_665
F9 Pb9 2.482077 1_665
F9 Pb9 2.482077 1_555
F9 Pb7 2.526664 1_555
F9 Pb3 2.660838 1_555
F10 Pb0 2.324864 1_555
F10 Pb11 2.566933 1_565
F10 Pb11 2.566933 1_455
F11 Ta0 2.107393 1_555
F12 Pb0 2.423931 1_545
F12 Pb0 2.423931 1_655
F12 Pb1 2.485859 1_555
F13 Ta7 2.091135 1_555
F14 Pb2 2.423939 1_665
F14 Pb2 2.423942 1_555
F14 Pb7 2.485847 1_555
F15 Ta7 2.101728 1_545
F15 Pb0 2.772761 1_545
F15 Pb0 2.772763 1_655
F16 Pb6 2.482077 1_545
F16 Pb6 2.482077 1_655
F16 Pb1 2.526635 1_554
F16 Pb8 2.660840 1_555
F17 Ta2 2.091135 1_555
F18 Pb11 2.321013 1_555
F18 Pb4 2.447420 1_655
F18 Pb4 2.447420 1_545
F19 Ta6 1.964705 1_555
F19 Ta6 1.964705 1_665
F20 Ta4 2.107392 1_555
F21 Pb8 2.324864 1_555
F21 Pb5 2.566933 1_545
F21 Pb5 2.566933 1_655
F22 Ta8 2.101728 1_455
F22 Pb3 2.772764 1_445
F22 Pb3 2.772767 1_555
F23 Pb7 2.482077 1_555
F23 Pb7 2.482077 1_445
F23 Pb9 2.526664 1_555
F23 Pb2 2.660838 1_555
F24 Ta5 2.101728 1_655
F24 Pb2 2.772764 1_665
F24 Pb2 2.772767 1_555
F25 Pb5 2.321013 1_555
F25 Pb10 2.447420 1_455
F25 Pb10 2.447420 1_565
F26 Pb4 2.321013 1_555
F26 Pb5 2.447420 1_555
F26 Pb5 2.447420 1_445
F27 Ta5 2.091117 1_555
F28 Ta1 2.107392 1_555
