# generated using pymatgen
data_K4SnSb2F14
_symmetry_space_group_name_H-M   'P 1'
_cell_length_a   6.83655900
_cell_length_b   7.61025883
_cell_length_c   7.79167539
_cell_angle_alpha   92.36472521
_cell_angle_beta   91.41658264
_cell_angle_gamma   115.33410632
_symmetry_Int_Tables_number   1
_chemical_formula_structural   K4SnSb2F14
_chemical_formula_sum   'K4 Sn1 Sb2 F14'
_cell_volume   365.68315048
_cell_formula_units_Z   1
loop_
 _symmetry_equiv_pos_site_id
 _symmetry_equiv_pos_as_xyz
  1  'x, y, z'
loop_
 _atom_site_type_symbol
 _atom_site_label
 _atom_site_symmetry_multiplicity
 _atom_site_fract_x
 _atom_site_fract_y
 _atom_site_fract_z
 _atom_site_occupancy
  K  K0  1  0.28595300  0.55310300  0.14294400  1
  K  K1  1  0.85111600  0.73568400  0.41381600  1
  K  K2  1  0.71404700  0.44689700  0.85705600  1
  K  K3  1  0.14888400  0.26431600  0.58618400  1
  Sn  Sn0  1  0.00000000  0.00000000  0.00000000  1
  Sb  Sb0  1  0.39006400  0.80861800  0.68498200  1
  Sb  Sb1  1  0.60993600  0.19138200  0.31501800  1
  F  F0  1  0.92240400  0.37944400  0.32920000  1
  F  F1  1  0.28142300  0.12616200  0.88217800  1
  F  F2  1  0.42993300  0.66158200  0.48315100  1
  F  F3  1  0.71857700  0.87383800  0.11782200  1
  F  F4  1  0.93764800  0.22908400  0.94859200  1
  F  F5  1  0.27424400  0.93507100  0.49582200  1
  F  F6  1  0.06235200  0.77091600  0.05140800  1
  F  F7  1  0.85578500  0.86812200  0.77265200  1
  F  F8  1  0.07759600  0.62055600  0.67080000  1
  F  F9  1  0.14421500  0.13187800  0.22734800  1
  F  F10  1  0.40167200  0.57440400  0.81284400  1
  F  F11  1  0.59832800  0.42559600  0.18715600  1
  F  F12  1  0.72575600  0.06492900  0.50417800  1
  F  F13  1  0.57006700  0.33841800  0.51684900  1
loop_
_geom_bond_atom_site_label_1
_geom_bond_atom_site_label_2
_geom_bond_distance
_geom_bond_site_symmetry_2
F0 Sb1 1.995684 1_555
F0 K0 2.748751 1_655
F0 K3 2.885620 1_655
F0 K1 3.003545 1_555
F1 Sn0 2.011335 1_556
F1 K3 2.856131 1_555
F1 K2 2.938331 1_555
F2 Sb0 1.984057 1_555
F2 K1 2.759251 1_555
F2 K0 2.769849 1_555
F2 K3 2.963425 1_555
F3 Sn0 2.011335 1_665
F3 K1 2.856131 1_555
F3 K0 2.938331 1_555
F4 Sn0 2.016614 1_656
F4 K2 2.793804 1_555
F4 K0 2.921031 1_656
F4 K3 3.172346 1_655
F5 Sb0 2.106375 1_555
F5 K1 2.674110 1_455
F5 K3 3.038164 1_565
F6 Sn0 2.016614 1_565
F6 K0 2.793804 1_555
F6 K2 2.921031 1_454
F6 K1 3.172346 1_455
F7 Sn0 2.009326 1_666
F7 K1 2.927390 1_555
F7 K2 3.032277 1_555
F7 K3 3.248407 1_665
F8 Sb0 1.995684 1_555
F8 K2 2.748751 1_455
F8 K1 2.885620 1_455
F8 K3 3.003545 1_555
F9 Sn0 2.009326 1_555
F9 K3 2.927390 1_555
F9 K0 3.032277 1_555
F9 K1 3.248407 1_445
F10 Sb0 2.107028 1_555
F10 K0 2.700511 1_556
F10 K2 2.717642 1_555
F10 K3 2.773003 1_555
F11 Sb1 2.107028 1_555
F11 K2 2.700511 1_554
F11 K0 2.717642 1_555
F11 K1 2.773003 1_555
F12 Sb1 2.106375 1_555
F12 K3 2.674110 1_655
F12 K1 3.038164 1_545
F13 Sb1 1.984057 1_555
F13 K3 2.759251 1_555
F13 K2 2.769849 1_555
F13 K1 2.963425 1_555
