# generated using pymatgen
data_LiZnGe
_symmetry_space_group_name_H-M   'P 1'
_cell_length_a   4.22611472
_cell_length_b   4.22611521
_cell_length_c   9.33559424
_cell_angle_alpha   90.00000000
_cell_angle_beta   90.00000000
_cell_angle_gamma   120.00000402
_symmetry_Int_Tables_number   1
_chemical_formula_structural   LiZnGe
_chemical_formula_sum   'Li3 Zn3 Ge3'
_cell_volume   144.39601090
_cell_formula_units_Z   3
loop_
 _symmetry_equiv_pos_site_id
 _symmetry_equiv_pos_as_xyz
  1  'x, y, z'
loop_
 _atom_site_type_symbol
 _atom_site_label
 _atom_site_symmetry_multiplicity
 _atom_site_fract_x
 _atom_site_fract_y
 _atom_site_fract_z
 _atom_site_occupancy
  Li  Li0  1  0.33333300  0.66666700  0.16632545  1
  Li  Li1  1  0.33333300  0.66666700  0.50000000  1
  Li  Li2  1  0.33333300  0.66666700  0.83367455  1
  Zn  Zn0  1  0.00000000  -0.00000000  0.70626335  1
  Zn  Zn1  1  -0.00000000  -0.00000000  0.29373665  1
  Zn  Zn2  1  0.66666700  0.33333300  -0.00000000  1
  Ge  Ge0  1  0.66666700  0.33333300  0.36466622  1
  Ge  Ge1  1  0.66666700  0.33333300  0.63533378  1
  Ge  Ge2  1  0.00000000  -0.00000000  -0.00000000  1
loop_
_geom_bond_atom_site_label_1
_geom_bond_atom_site_label_2
_geom_bond_distance
_geom_bond_site_symmetry_2
Li0 Zn1 2.714434 1_565
Li0 Zn1 2.714437 1_665
Li0 Zn1 2.714437 1_555
Li0 Zn2 2.892120 1_455
Li0 Zn2 2.892120 1_565
Li0 Zn2 2.892127 1_555
Li1 Zn0 3.108253 1_565
Li1 Zn1 3.108253 1_565
Li1 Zn0 3.108256 1_665
Li1 Zn1 3.108256 1_665
Li1 Zn0 3.108256 1_555
Li1 Zn1 3.108256 1_555
Li2 Zn0 2.714434 1_565
Li2 Zn0 2.714437 1_665
Li2 Zn0 2.714437 1_555
Li2 Zn2 2.892120 1_456
Li2 Zn2 2.892120 1_566
Li2 Zn2 2.892127 1_556
Ge0 Ge1 2.526843 1_555
Ge0 Zn1 2.528202 1_655
Ge0 Zn1 2.528205 1_555
Ge0 Zn1 2.528206 1_665
Ge0 Li1 2.747648 1_655
Ge0 Li1 2.747648 1_545
Ge0 Li1 2.747655 1_555
Ge0 Li0 3.062983 1_655
Ge0 Li0 3.062983 1_545
Ge0 Li0 3.062989 1_555
Ge1 Zn0 2.528202 1_655
Ge1 Zn0 2.528205 1_555
Ge1 Zn0 2.528206 1_665
Ge1 Li1 2.747648 1_655
Ge1 Li1 2.747648 1_545
Ge1 Li1 2.747655 1_555
Ge1 Li2 3.062983 1_655
Ge1 Li2 3.062983 1_545
Ge1 Li2 3.062989 1_555
Ge2 Zn2 2.439946 1_455
Ge2 Zn2 2.439950 1_555
Ge2 Zn2 2.439950 1_445
Ge2 Zn1 2.742206 1_555
Ge2 Zn0 2.742206 1_554
Ge2 Li0 2.892120 1_545
Ge2 Li2 2.892120 1_544
Ge2 Li2 2.892123 1_444
Ge2 Li0 2.892123 1_445
Ge2 Li2 2.892124 1_554
Ge2 Li0 2.892124 1_555
