# generated using pymatgen
data_K4Mn(MoO4)3
_symmetry_space_group_name_H-M   'P 1'
_cell_length_a   7.97391600
_cell_length_b   10.12784093
_cell_length_c   10.32354564
_cell_angle_alpha   92.82842553
_cell_angle_beta   106.86752942
_cell_angle_gamma   106.31582187
_symmetry_Int_Tables_number   1
_chemical_formula_structural   K4Mn(MoO4)3
_chemical_formula_sum   'K8 Mn2 Mo6 O24'
_cell_volume   757.90337255
_cell_formula_units_Z   2
loop_
 _symmetry_equiv_pos_site_id
 _symmetry_equiv_pos_as_xyz
  1  'x, y, z'
loop_
 _atom_site_type_symbol
 _atom_site_label
 _atom_site_symmetry_multiplicity
 _atom_site_fract_x
 _atom_site_fract_y
 _atom_site_fract_z
 _atom_site_occupancy
  K  K0  1  0.77332200  0.23632400  0.27356800  1
  K  K1  1  0.25149300  0.47567100  0.02176500  1
  K  K2  1  0.65034500  0.56879800  0.38666600  1
  K  K3  1  0.74850700  0.52432900  0.97823500  1
  K  K4  1  0.50000000  0.00000000  0.50000000  1
  K  K5  1  0.22667800  0.76367600  0.72643200  1
  K  K6  1  0.00000000  0.00000000  0.50000000  1
  K  K7  1  0.34965500  0.43120200  0.61333400  1
  Mn  Mn0  1  0.16310400  0.87902700  0.05323700  1
  Mn  Mn1  1  0.83689600  0.12097300  0.94676300  1
  Mo  Mo0  1  0.61914800  0.84630800  0.11534600  1
  Mo  Mo1  1  0.12385100  0.64418900  0.31787400  1
  Mo  Mo2  1  0.76155400  0.80684600  0.75175400  1
  Mo  Mo3  1  0.38085200  0.15369200  0.88465400  1
  Mo  Mo4  1  0.23844600  0.19315400  0.24824600  1
  Mo  Mo5  1  0.87614900  0.35581100  0.68212600  1
  O  O0  1  0.60806200  0.15640800  0.99168900  1
  O  O1  1  0.55528100  0.68636300  0.76155000  1
  O  O2  1  0.30953600  0.57395000  0.37492200  1
  O  O3  1  0.88637200  0.30474100  0.85153300  1
  O  O4  1  0.44471900  0.31363700  0.23845000  1
  O  O5  1  0.39193800  0.84359200  0.00831100  1
  O  O6  1  0.96103800  0.77476000  0.87007700  1
  O  O7  1  0.15590600  0.78697400  0.44312400  1
  O  O8  1  0.69046400  0.42605000  0.62507800  1
  O  O9  1  0.91195900  0.51081800  0.29684300  1
  O  O10  1  0.79446700  0.92372500  0.03856000  1
  O  O11  1  0.11362800  0.69525900  0.14846700  1
  O  O12  1  0.84409400  0.21302600  0.55687600  1
  O  O13  1  0.61081600  0.66982800  0.13286000  1
  O  O14  1  0.03896200  0.22524000  0.12992300  1
  O  O15  1  0.74712200  0.98278800  0.76642100  1
  O  O16  1  0.20553300  0.07627500  0.96144000  1
  O  O17  1  0.25287800  0.01721200  0.23357900  1
  O  O18  1  0.08804100  0.48918200  0.70315700  1
  O  O19  1  0.32378500  0.05683100  0.71971900  1
  O  O20  1  0.21942100  0.21886500  0.41439400  1
  O  O21  1  0.38918400  0.33017200  0.86714000  1
  O  O22  1  0.78057900  0.78113500  0.58560600  1
  O  O23  1  0.67621500  0.94316900  0.28028100  1
loop_
_geom_bond_atom_site_label_1
_geom_bond_atom_site_label_2
_geom_bond_distance
_geom_bond_site_symmetry_2
K0 O9 2.657361 1_555
K0 O0 2.793312 1_554
K0 O12 2.848396 1_555
K0 O23 2.859936 1_545
K0 O4 2.870502 1_555
K0 O14 2.939121 1_655
K1 O21 2.760256 1_554
K1 O13 2.845405 1_555
K1 O3 2.908689 1_454
K1 O14 3.084517 1_555
K1 O11 3.128325 1_555
K1 O4 3.139078 1_555
K1 O18 3.192629 1_554
K2 O22 2.644378 1_555
K2 O2 2.700328 1_555
K2 O9 2.704360 1_555
K2 O4 2.735145 1_555
K2 O13 2.824567 1_555
K2 O8 2.899028 1_555
K3 O13 2.760256 1_556
K3 O21 2.845405 1_555
K3 O11 2.908689 1_656
K3 O6 3.084517 1_555
K3 O3 3.128325 1_555
K3 O1 3.139078 1_555
K3 O9 3.192629 1_556
K4 O7 2.853394 1_545
K4 O12 2.853394 1_555
K4 O15 2.928011 1_545
K4 O17 2.928011 1_555
K4 O19 3.102566 1_555
K4 O23 3.102566 1_545
K5 O18 2.657361 1_555
K5 O5 2.793312 1_556
K5 O7 2.848396 1_555
K5 O19 2.859936 1_565
K5 O1 2.870502 1_555
K5 O6 2.939121 1_455
K6 O20 2.768990 1_555
K6 O22 2.768990 1_445
K6 O23 2.789249 1_445
K6 O19 2.789249 1_555
K6 O12 2.889745 1_455
K6 O7 2.889745 1_545
K7 O20 2.644378 1_555
K7 O8 2.700328 1_555
K7 O18 2.704360 1_555
K7 O1 2.735145 1_555
K7 O21 2.824567 1_555
K7 O2 2.899028 1_555
Mn0 O17 2.084179 1_565
Mn0 O6 2.089387 1_454
Mn0 O5 2.125105 1_555
Mn0 O11 2.139911 1_555
Mn0 O16 2.235282 1_564
Mn1 O15 2.084179 1_545
Mn1 O14 2.089387 1_656
Mn1 O0 2.125105 1_555
Mn1 O3 2.139911 1_555
Mn1 O10 2.235282 1_546
Mo0 O23 1.789789 1_555
Mo0 O13 1.789947 1_555
Mo0 O10 1.812750 1_555
Mo0 O5 1.819730 1_555
Mo1 O2 1.781091 1_555
Mo1 O9 1.789505 1_455
Mo1 O7 1.801235 1_555
Mo1 O11 1.833844 1_555
Mo2 O22 1.778195 1_555
Mo2 O1 1.784824 1_555
Mo2 O15 1.819363 1_555
Mo2 O6 1.824816 1_555
Mo3 O19 1.789789 1_555
Mo3 O21 1.789947 1_555
Mo3 O16 1.812750 1_555
Mo3 O0 1.819730 1_555
Mo4 O20 1.778195 1_555
Mo4 O4 1.784824 1_555
Mo4 O17 1.819363 1_555
Mo4 O14 1.824816 1_555
Mo5 O8 1.781091 1_555
Mo5 O18 1.789505 1_655
Mo5 O12 1.801235 1_555
Mo5 O3 1.833844 1_555
