# generated using pymatgen
data_K6Co2O5
_symmetry_space_group_name_H-M   'P 1'
_cell_length_a   6.66023400
_cell_length_b   6.66020700
_cell_length_c   11.95937300
_cell_angle_alpha   90.00088810
_cell_angle_beta   90.00009953
_cell_angle_gamma   89.99915694
_symmetry_Int_Tables_number   1
_chemical_formula_structural   K6Co2O5
_chemical_formula_sum   'K12 Co4 O10'
_cell_volume   530.50029095
_cell_formula_units_Z   2
loop_
 _symmetry_equiv_pos_site_id
 _symmetry_equiv_pos_as_xyz
  1  'x, y, z'
loop_
 _atom_site_type_symbol
 _atom_site_label
 _atom_site_symmetry_multiplicity
 _atom_site_fract_x
 _atom_site_fract_y
 _atom_site_fract_z
 _atom_site_occupancy
  K  K0  1  0.50001000  0.49999900  0.71938400  1
  K  K1  1  0.99999000  0.00000000  0.21938600  1
  K  K2  1  0.99998800  0.99999000  0.78061600  1
  K  K3  1  0.50001200  0.49999600  0.28061500  1
  K  K4  1  0.18000800  0.81998400  0.49999700  1
  K  K5  1  0.81998300  0.18001000  0.49999700  1
  K  K6  1  0.31999500  0.31999200  0.00000500  1
  K  K7  1  0.68001700  0.68000800  0.00000300  1
  K  K8  1  0.99998700  0.50000600  0.75000000  1
  K  K9  1  0.50001400  0.00000300  0.25000100  1
  K  K10  1  0.50001200  0.00000700  0.74999900  1
  K  K11  1  0.99998300  0.50000700  0.24999800  1
  Co  Co0  1  0.79391000  0.20609100  0.99999500  1
  Co  Co1  1  0.70609100  0.70609100  0.49999700  1
  Co  Co2  1  0.20609000  0.79390800  0.99999900  1
  Co  Co3  1  0.29390900  0.29390900  0.50000700  1
  O  O0  1  0.99999600  0.00000100  0.00000500  1
  O  O1  1  0.50000300  0.50000000  0.49999500  1
  O  O2  1  0.78818900  0.78818300  0.36163700  1
  O  O3  1  0.28818700  0.71182000  0.13836200  1
  O  O4  1  0.78818600  0.78818000  0.63836700  1
  O  O5  1  0.28819400  0.71181600  0.86163300  1
  O  O6  1  0.21182000  0.21182600  0.36164000  1
  O  O7  1  0.21180000  0.21180900  0.63836800  1
  O  O8  1  0.71180700  0.28818700  0.86163100  1
  O  O9  1  0.71182000  0.28817500  0.13836200  1
loop_
_geom_bond_atom_site_label_1
_geom_bond_atom_site_label_2
_geom_bond_distance
_geom_bond_site_symmetry_2
K0 O8 2.621829 1_555
K0 O5 2.621905 1_555
K0 O1 2.623755 1_555
K0 O4 2.882124 1_555
K0 O7 2.882288 1_555
K1 O2 2.621918 1_545
K1 O6 2.622046 1_655
K1 O0 2.623659 1_555
K1 O9 2.882059 1_555
K1 O3 2.882183 1_645
K2 O4 2.621849 1_555
K2 O7 2.621941 1_665
K2 O0 2.623755 1_566
K2 O8 2.882151 1_565
K2 O5 2.882186 1_655
K3 O9 2.621922 1_555
K3 O3 2.622019 1_555
K3 O1 2.623647 1_555
K3 O2 2.882153 1_555
K3 O6 2.882178 1_555
K4 O1 3.013951 1_555
K4 O2 3.097244 1_455
K4 O7 3.097318 1_565
K4 O4 3.097335 1_455
K4 O6 3.097376 1_565
K5 O1 3.013908 1_555
K5 O2 3.097260 1_545
K5 O7 3.097303 1_655
K5 O6 3.097341 1_655
K5 O4 3.097385 1_545
K6 O0 3.014047 1_455
K6 O3 3.097248 1_555
K6 O9 3.097264 1_555
K6 O8 3.097296 1_554
K6 O5 3.097361 1_554
K7 O0 3.013962 1_565
K7 O8 3.097296 1_554
K7 O3 3.097304 1_555
K7 O9 3.097329 1_555
K7 O5 3.097332 1_554
K8 O4 2.730568 1_555
K8 O8 2.730677 1_555
K8 O7 2.730685 1_655
K8 O5 2.730760 1_655
K9 O9 2.730643 1_555
K9 O2 2.730654 1_545
K9 O3 2.730735 1_545
K9 O6 2.730753 1_555
K10 O8 2.730570 1_555
K10 O4 2.730632 1_545
K10 O7 2.730736 1_555
K10 O5 2.730744 1_545
K11 O2 2.730562 1_555
K11 O9 2.730647 1_555
K11 O6 2.730778 1_655
K11 O3 2.730798 1_655
Co0 O9 1.826492 1_556
Co0 O8 1.826523 1_555
Co0 O0 1.941123 1_556
Co1 O2 1.826468 1_555
Co1 O4 1.826547 1_555
Co1 O1 1.941166 1_555
Co2 O3 1.826484 1_556
Co2 O5 1.826525 1_555
Co2 O0 1.941175 1_466
Co3 O6 1.826491 1_555
Co3 O7 1.826517 1_555
Co3 O1 1.941194 1_555
