# generated using pymatgen
data_K2Ga2B2O7
_symmetry_space_group_name_H-M   'P 1'
_cell_length_a   8.67961741
_cell_length_b   8.67961741
_cell_length_c   8.86565600
_cell_angle_alpha   90.00000000
_cell_angle_beta   90.00000000
_cell_angle_gamma   119.99999549
_symmetry_Int_Tables_number   1
_chemical_formula_structural   K2Ga2B2O7
_chemical_formula_sum   'K6 Ga6 B6 O21'
_cell_volume   578.41918855
_cell_formula_units_Z   3
loop_
 _symmetry_equiv_pos_site_id
 _symmetry_equiv_pos_as_xyz
  1  'x, y, z'
loop_
 _atom_site_type_symbol
 _atom_site_label
 _atom_site_symmetry_multiplicity
 _atom_site_fract_x
 _atom_site_fract_y
 _atom_site_fract_z
 _atom_site_occupancy
  K  K0  1  0.68420800  0.00000000  0.00000000  1
  K  K1  1  0.00000000  0.64387300  0.50000000  1
  K  K2  1  0.00000000  0.68420800  0.00000000  1
  K  K3  1  0.35612700  0.35612700  0.50000000  1
  K  K4  1  0.64387300  0.00000000  0.50000000  1
  K  K5  1  0.31579200  0.31579200  0.00000000  1
  Ga  Ga0  1  0.33333300  0.66666700  0.81690000  1
  Ga  Ga1  1  0.66666700  0.33333300  0.77288000  1
  Ga  Ga2  1  0.33333300  0.66666700  0.22712000  1
  Ga  Ga3  1  0.00000000  0.00000000  0.70363800  1
  Ga  Ga4  1  0.66666700  0.33333300  0.18310000  1
  Ga  Ga5  1  0.00000000  0.00000000  0.29636200  1
  B  B0  1  0.66459000  0.66501800  0.25700100  1
  B  B1  1  0.66501800  0.66459000  0.74299900  1
  B  B2  1  0.33541000  0.00042800  0.74299900  1
  B  B3  1  0.33498200  0.99957200  0.25700100  1
  B  B4  1  0.00042800  0.33541000  0.25700100  1
  B  B5  1  0.99957200  0.33498200  0.74299900  1
  O  O0  1  0.74004100  0.56199200  0.70193800  1
  O  O1  1  0.43800800  0.17804900  0.70193800  1
  O  O2  1  0.58456900  0.48152900  0.25203100  1
  O  O3  1  0.17804900  0.43800800  0.29806200  1
  O  O4  1  0.22798400  0.07139100  0.22319800  1
  O  O5  1  0.10304000  0.51847100  0.74796900  1
  O  O6  1  0.51847100  0.10304000  0.25203100  1
  O  O7  1  0.84340700  0.77201600  0.22319800  1
  O  O8  1  0.15659300  0.92860900  0.77680200  1
  O  O9  1  0.25995900  0.82195100  0.29806200  1
  O  O10  1  0.89696000  0.41543100  0.25203100  1
  O  O11  1  0.92860900  0.15659300  0.22319800  1
  O  O12  1  0.00000000  0.00000000  0.50000000  1
  O  O13  1  0.82195100  0.25995900  0.70193800  1
  O  O14  1  0.07139100  0.22798400  0.77680200  1
  O  O15  1  0.66666700  0.33333300  0.97786200  1
  O  O16  1  0.41543100  0.89696000  0.74796900  1
  O  O17  1  0.77201600  0.84340700  0.77680200  1
  O  O18  1  0.33333300  0.66666700  0.02213800  1
  O  O19  1  0.56199200  0.74004100  0.29806200  1
  O  O20  1  0.48152900  0.58456900  0.74796900  1
loop_
_geom_bond_atom_site_label_1
_geom_bond_atom_site_label_2
_geom_bond_distance
_geom_bond_site_symmetry_2
K0 O17 2.716561 1_544
K0 O11 2.716561 1_555
K0 O15 2.978727 1_554
K0 O18 2.978731 1_545
K0 O6 3.024636 1_555
K0 O16 3.024636 1_544
K0 O19 3.287209 1_545
K0 O13 3.287209 1_554
K1 O0 2.682876 1_455
K1 O9 2.682876 1_555
K1 O5 2.791237 1_555
K1 O10 2.791237 1_455
K1 O12 3.091046 1_565
K1 O7 3.258585 1_455
K1 O8 3.258585 1_555
K2 O7 2.716561 1_455
K2 O8 2.716561 1_554
K2 O18 2.978727 1_555
K2 O15 2.978731 1_454
K2 O5 3.024636 1_554
K2 O10 3.024636 1_455
K2 O0 3.287209 1_454
K2 O9 3.287209 1_555
K3 O1 2.682876 1_555
K3 O3 2.682876 1_555
K3 O20 2.791237 1_555
K3 O2 2.791237 1_555
K3 O12 3.091046 1_555
K3 O14 3.258585 1_555
K3 O4 3.258585 1_555
K4 O19 2.682876 1_545
K4 O13 2.682876 1_555
K4 O6 2.791237 1_555
K4 O16 2.791237 1_545
K4 O12 3.091046 1_655
K4 O17 3.258585 1_545
K4 O11 3.258585 1_555
K5 O4 2.716561 1_555
K5 O14 2.716561 1_554
K5 O18 2.978735 1_555
K5 O15 2.978735 1_554
K5 O2 3.024636 1_555
K5 O20 3.024636 1_554
K5 O1 3.287209 1_554
K5 O3 3.287209 1_555
Ga0 O18 1.819570 1_556
Ga0 O16 1.858040 1_555
Ga0 O5 1.858042 1_555
Ga0 O20 1.858048 1_555
Ga1 O15 1.817300 1_555
Ga1 O13 1.864431 1_555
Ga1 O1 1.864438 1_555
Ga1 O0 1.864439 1_555
Ga2 O18 1.817300 1_555
Ga2 O9 1.864431 1_555
Ga2 O3 1.864438 1_555
Ga2 O19 1.864439 1_555
Ga3 O12 1.805384 1_555
Ga3 O8 1.869290 1_545
Ga3 O14 1.869290 1_555
Ga3 O17 1.869290 1_445
Ga4 O15 1.819570 1_554
Ga4 O10 1.858040 1_555
Ga4 O6 1.858042 1_555
Ga4 O2 1.858048 1_555
Ga5 O12 1.805384 1_555
Ga5 O11 1.869290 1_455
Ga5 O4 1.869290 1_555
Ga5 O7 1.869290 1_445
B0 O2 1.383695 1_555
B0 O7 1.385567 1_555
B0 O19 1.389039 1_555
B1 O20 1.383695 1_555
B1 O17 1.385567 1_555
B1 O0 1.389039 1_555
B2 O16 1.383695 1_545
B2 O8 1.385567 1_545
B2 O1 1.389039 1_555
B3 O6 1.383695 1_565
B3 O4 1.385567 1_565
B3 O9 1.389039 1_555
B4 O10 1.383695 1_455
B4 O11 1.385567 1_455
B4 O3 1.389039 1_555
B5 O5 1.383695 1_655
B5 O14 1.385567 1_655
B5 O13 1.389039 1_555
