# generated using pymatgen
data_Li34(YSb2)13
_symmetry_space_group_name_H-M   'P 1'
_cell_length_a   4.51594310
_cell_length_b   4.51594345
_cell_length_c   92.95942253
_cell_angle_alpha   90.00000000
_cell_angle_beta   90.00000000
_cell_angle_gamma   119.99999744
_symmetry_Int_Tables_number   1
_chemical_formula_structural   Li34(YSb2)13
_chemical_formula_sum   'Li34 Y13 Sb26'
_cell_volume   1641.80289150
_cell_formula_units_Z   1
loop_
 _symmetry_equiv_pos_site_id
 _symmetry_equiv_pos_as_xyz
  1  'x, y, z'
loop_
 _atom_site_type_symbol
 _atom_site_label
 _atom_site_symmetry_multiplicity
 _atom_site_fract_x
 _atom_site_fract_y
 _atom_site_fract_z
 _atom_site_occupancy
  Li  Li0  1  0.00000000  0.00000000  0.11730542  1
  Li  Li1  1  0.00000000  0.00000000  0.34814577  1
  Li  Li2  1  0.00000000  0.00000000  0.57688659  1
  Li  Li3  1  0.00000000  0.00000000  0.80870312  1
  Li  Li4  1  0.00000000  0.00000000  0.03684804  1
  Li  Li5  1  0.00000000  0.00000000  0.19385668  1
  Li  Li6  1  0.33333300  0.66666700  0.05079873  1
  Li  Li7  1  0.00000000  0.00000000  0.26900309  1
  Li  Li8  1  0.33333300  0.66666700  0.28048932  1
  Li  Li9  1  0.00000000  0.00000000  0.42192230  1
  Li  Li10  1  0.33333300  0.66666700  0.43393510  1
  Li  Li11  1  0.33333300  0.66666700  0.51131118  1
  Li  Li12  1  0.33333300  0.66666700  0.58837590  1
  Li  Li13  1  0.00000000  0.00000000  0.65391579  1
  Li  Li14  1  0.00000000  0.00000000  0.73119490  1
  Li  Li15  1  0.33333300  0.66666700  0.66534326  1
  Li  Li16  1  0.33333300  0.66666700  0.74252845  1
  Li  Li17  1  0.33333300  0.66666700  0.82003701  1
  Li  Li18  1  0.33333300  0.66666700  0.97325710  1
  Li  Li19  1  0.66666700  0.33333300  0.18007796  1
  Li  Li20  1  0.66666700  0.33333300  0.33443458  1
  Li  Li21  1  0.66666700  0.33333300  0.41082217  1
  Li  Li22  1  0.66666700  0.33333300  0.10351758  1
  Li  Li23  1  0.66666700  0.33333300  0.25730622  1
  Li  Li24  1  0.66666700  0.33333300  0.48830332  1
  Li  Li25  1  0.66666700  0.33333300  0.56547000  1
  Li  Li26  1  0.66666700  0.33333300  0.64241775  1
  Li  Li27  1  0.66666700  0.33333300  0.87328870  1
  Li  Li28  1  0.66666700  0.33333300  0.71949699  1
  Li  Li29  1  0.66666700  0.33333300  0.79655815  1
  Li  Li30  1  0.00000000  0.00000000  0.88720193  1
  Li  Li31  1  0.66666700  0.33333300  0.95035205  1
  Li  Li32  1  0.00000000  0.00000000  0.49962844  1
  Li  Li33  1  0.00000000  0.00000000  0.96172453  1
  Sb  Sb0  1  0.33333300  0.66666700  0.02038123  1
  Sb  Sb1  1  0.33333300  0.66666700  0.09616979  1
  Sb  Sb2  1  0.33333300  0.66666700  0.17187950  1
  Sb  Sb3  1  0.33333300  0.66666700  0.24919524  1
  Sb  Sb4  1  0.33333300  0.66666700  0.32635120  1
  Sb  Sb5  1  0.33333300  0.66666700  0.40320534  1
  Sb  Sb6  1  0.33333300  0.66666700  0.48047389  1
  Sb  Sb7  1  0.33333300  0.66666700  0.55758850  1
  Sb  Sb8  1  0.33333300  0.66666700  0.63453914  1
  Sb  Sb9  1  0.33333300  0.66666700  0.71159082  1
  Sb  Sb10  1  0.33333300  0.66666700  0.78865204  1
  Sb  Sb11  1  0.33333300  0.66666700  0.86514062  1
  Sb  Sb12  1  0.33333300  0.66666700  0.94219880  1
  Sb  Sb13  1  0.66666700  0.33333300  0.05859052  1
  Sb  Sb14  1  0.66666700  0.33333300  0.13384565  1
  Sb  Sb15  1  0.66666700  0.33333300  0.21039944  1
  Sb  Sb16  1  0.66666700  0.33333300  0.28817360  1
  Sb  Sb17  1  0.66666700  0.33333300  0.36469718  1
  Sb  Sb18  1  0.66666700  0.33333300  0.44193906  1
  Sb  Sb19  1  0.66666700  0.33333300  0.51919159  1
  Sb  Sb20  1  0.66666700  0.33333300  0.59618724  1
  Sb  Sb21  1  0.66666700  0.33333300  0.67317490  1
  Sb  Sb22  1  0.66666700  0.33333300  0.75027050  1
  Sb  Sb23  1  0.66666700  0.33333300  0.82711528  1
  Sb  Sb24  1  0.66666700  0.33333300  0.90355021  1
  Sb  Sb25  1  0.66666700  0.33333300  0.98144406  1
  Y  Y0  1  0.00000000  0.00000000  0.00103709  1
  Y  Y1  1  0.00000000  0.00000000  0.07724313  1
  Y  Y2  1  0.00000000  0.00000000  0.15309879  1
  Y  Y3  1  0.00000000  0.00000000  0.30779806  1
  Y  Y4  1  0.00000000  0.00000000  0.53836435  1
  Y  Y5  1  0.00000000  0.00000000  0.61538187  1
  Y  Y6  1  0.00000000  0.00000000  0.84682539  1
  Y  Y7  1  0.00000000  0.00000000  0.22967229  1
  Y  Y8  1  0.00000000  0.00000000  0.46105913  1
  Y  Y9  1  0.00000000  0.00000000  0.69244066  1
  Y  Y10  1  0.00000000  0.00000000  0.92265267  1
  Y  Y11  1  0.00000000  0.00000000  0.38353831  1
  Y  Y12  1  0.00000000  0.00000000  0.76963876  1
loop_
_geom_bond_atom_site_label_1
_geom_bond_atom_site_label_2
_geom_bond_distance
_geom_bond_site_symmetry_2
Li0 Sb14 3.026883 1_455
Li0 Sb14 3.026887 1_555
Li0 Sb14 3.026887 1_445
Li0 Sb1 3.264685 1_545
Li0 Sb1 3.264688 1_445
Li0 Sb1 3.264688 1_555
Li1 Sb17 3.027411 1_455
Li1 Sb17 3.027415 1_555
Li1 Sb17 3.027415 1_445
Li1 Sb4 3.301912 1_545
Li1 Sb4 3.301915 1_445
Li1 Sb4 3.301915 1_555
Li2 Li25 2.814998 1_455
Li2 Li25 2.815002 1_555
Li2 Li25 2.815002 1_445
Li2 Sb7 3.164825 1_545
Li2 Sb7 3.164828 1_445
Li2 Sb7 3.164829 1_555
Li2 Sb20 3.164960 1_455
Li2 Sb20 3.164963 1_555
Li2 Sb20 3.164964 1_445
Li2 Y5 3.578499 1_555
Li2 Y4 3.581005 1_555
Li3 Sb23 3.118881 1_455
Li3 Sb23 3.118884 1_555
Li3 Sb23 3.118885 1_445
Li3 Sb10 3.205021 1_545
Li3 Sb10 3.205024 1_445
Li3 Sb10 3.205025 1_555
Li3 Y6 3.543824 1_555
Li3 Y12 3.631400 1_555
Li4 Sb0 3.023422 1_545
Li4 Sb0 3.023426 1_445
Li4 Sb0 3.023426 1_555
Li4 Sb13 3.298943 1_455
Li4 Sb13 3.298946 1_555
Li4 Sb13 3.298946 1_445
Li5 Sb15 3.027003 1_455
Li5 Sb15 3.027006 1_555
Li5 Sb15 3.027006 1_445
Li5 Sb2 3.312355 1_545
Li5 Sb2 3.312358 1_445
Li5 Sb2 3.312358 1_555
Li6 Sb13 2.706019 1_455
Li6 Sb13 2.706020 1_565
Li6 Sb13 2.706027 1_555
Li6 Sb0 2.827593 1_555
Li7 Li8 2.817445 1_545
Li7 Li8 2.817449 1_445
Li7 Li8 2.817449 1_555
Li7 Sb16 3.158118 1_455
Li7 Sb16 3.158121 1_555
Li7 Sb16 3.158121 1_445
Li7 Sb3 3.191925 1_545
Li7 Sb3 3.191928 1_445
Li7 Sb3 3.191928 1_555
Li7 Y3 3.606358 1_555
Li7 Y7 3.656168 1_555
Li8 Sb16 2.703361 1_455
Li8 Sb16 2.703362 1_565
Li8 Sb16 2.703369 1_555
Li8 Sb3 2.909080 1_555
Li9 Sb5 3.134520 1_545
Li9 Sb5 3.134523 1_445
Li9 Sb5 3.134523 1_555
Li9 Sb18 3.203167 1_455
Li9 Sb18 3.203170 1_555
Li9 Sb18 3.203170 1_445
Li9 Y11 3.568154 1_555
Li9 Y8 3.638137 1_555
Li10 Sb18 2.711365 1_455
Li10 Sb18 2.711365 1_565
Li10 Sb18 2.711373 1_555
Li10 Li9 2.836358 1_565
Li10 Li9 2.836362 1_665
Li10 Li9 2.836362 1_555
Li10 Sb5 2.856621 1_555
Li11 Sb19 2.708236 1_455
Li11 Sb19 2.708236 1_565
Li11 Sb19 2.708244 1_555
Li11 Li32 2.824419 1_565
Li11 Li32 2.824422 1_665
Li11 Li32 2.824423 1_555
Li11 Sb6 2.866617 1_555
Li12 Sb20 2.706506 1_455
Li12 Sb20 2.706507 1_565
Li12 Sb20 2.706514 1_555
Li12 Li2 2.817554 1_565
Li12 Li2 2.817557 1_665
Li12 Li2 2.817558 1_555
Li12 Sb7 2.861979 1_555
Li13 Li15 2.815380 1_545
Li13 Li15 2.815383 1_445
Li13 Li15 2.815384 1_555
Li13 Li26 2.817862 1_455
Li13 Li26 2.817865 1_555
Li13 Li26 2.817865 1_445
Li13 Sb21 3.162773 1_455
Li13 Sb21 3.162776 1_555
Li13 Sb21 3.162776 1_445
Li13 Sb8 3.168971 1_545
Li13 Sb8 3.168974 1_445
Li13 Sb8 3.168974 1_555
Li13 Y9 3.581250 1_555
Li13 Y5 3.582091 1_555
Li14 Li16 2.812097 1_545
Li14 Li16 2.812101 1_445
Li14 Li16 2.812101 1_555
Li14 Li28 2.824961 1_455
Li14 Li28 2.824965 1_555
Li14 Li28 2.824965 1_445
Li14 Sb22 3.153148 1_455
Li14 Sb22 3.153151 1_555
Li14 Sb22 3.153151 1_445
Li14 Sb9 3.181035 1_545
Li14 Sb9 3.181038 1_445
Li14 Sb9 3.181038 1_555
Li14 Y12 3.573719 1_555
Li14 Y9 3.602572 1_555
Li15 Sb21 2.707013 1_455
Li15 Sb21 2.707013 1_565
Li15 Sb21 2.707021 1_555
Li15 Sb8 2.863533 1_555
Li16 Sb22 2.704785 1_455
Li16 Sb22 2.704786 1_565
Li16 Sb22 2.704793 1_555
Li16 Sb9 2.875944 1_555
Li17 Sb23 2.689025 1_455
Li17 Sb23 2.689025 1_565
Li17 Sb23 2.689032 1_555
Li17 Li3 2.812109 1_565
Li17 Li3 2.812113 1_665
Li17 Li3 2.812113 1_555
Li17 Sb10 2.917529 1_555
Li18 Sb25 2.716083 1_455
Li18 Sb25 2.716083 1_565
Li18 Sb25 2.716090 1_555
Li18 Li33 2.819081 1_565
Li18 Li33 2.819084 1_665
Li18 Li33 2.819084 1_555
Li18 Sb12 2.887162 1_555
Li19 Sb2 2.716383 1_655
Li19 Sb2 2.716383 1_545
Li19 Sb2 2.716390 1_555
Li19 Sb15 2.818667 1_555
Li20 Sb4 2.713401 1_655
Li20 Sb4 2.713401 1_545
Li20 Sb4 2.713408 1_555
Li20 Sb17 2.813194 1_555
Li21 Sb5 2.701711 1_655
Li21 Sb5 2.701712 1_545
Li21 Sb5 2.701719 1_555
Li21 Li9 2.804040 1_655
Li21 Li9 2.804043 1_555
Li21 Li9 2.804044 1_665
Li21 Sb18 2.892608 1_555
Li22 Sb1 2.695265 1_655
Li22 Sb1 2.695265 1_545
Li22 Sb1 2.695272 1_555
Li22 Sb14 2.819280 1_555
Li23 Sb3 2.714112 1_655
Li23 Sb3 2.714112 1_545
Li23 Sb3 2.714120 1_555
Li23 Li7 2.824924 1_655
Li23 Li7 2.824928 1_555
Li23 Li7 2.824928 1_665
Li23 Sb16 2.869414 1_555
Li24 Sb6 2.706958 1_655
Li24 Sb6 2.706958 1_545
Li24 Sb6 2.706966 1_555
Li24 Li32 2.811804 1_655
Li24 Li32 2.811807 1_555
Li24 Li32 2.811807 1_665
Li24 Sb19 2.871356 1_555
Li25 Sb7 2.708263 1_655
Li25 Sb7 2.708264 1_545
Li25 Sb7 2.708271 1_555
Li25 Sb20 2.855457 1_555
Li26 Sb8 2.708191 1_655
Li26 Sb8 2.708191 1_545
Li26 Sb8 2.708198 1_555
Li26 Sb21 2.859167 1_555
Li27 Sb11 2.715072 1_655
Li27 Sb11 2.715072 1_545
Li27 Sb11 2.715080 1_555
Li27 Sb24 2.813092 1_555
Li28 Sb9 2.708885 1_655
Li28 Sb9 2.708885 1_545
Li28 Sb9 2.708892 1_555
Li28 Sb22 2.860688 1_555
Li29 Sb10 2.708883 1_655
Li29 Sb10 2.708883 1_545
Li29 Sb10 2.708891 1_555
Li29 Sb23 2.840573 1_555
Li29 Li3 2.841218 1_655
Li29 Li3 2.841221 1_555
Li29 Li3 2.841221 1_665
Li30 Sb24 3.017859 1_455
Li30 Sb24 3.017862 1_555
Li30 Sb24 3.017862 1_445
Li31 Sb12 2.715206 1_655
Li31 Sb12 2.715207 1_545
Li31 Sb12 2.715214 1_555
Li31 Li33 2.813455 1_655
Li31 Li33 2.813459 1_555
Li31 Li33 2.813459 1_665
Li31 Sb25 2.890295 1_555
Li32 Sb6 3.157281 1_545
Li32 Sb6 3.157284 1_445
Li32 Sb6 3.157284 1_555
Li32 Sb19 3.178857 1_455
Li32 Sb19 3.178860 1_555
Li32 Sb19 3.178860 1_445
Li32 Y8 3.585381 1_555
Li32 Y4 3.600868 1_555
Li33 Sb12 3.176868 1_545
Li33 Sb12 3.176871 1_445
Li33 Sb12 3.176871 1_555
Li33 Sb25 3.187196 1_455
Li33 Sb25 3.187199 1_555
Li33 Sb25 3.187199 1_445
Li33 Y10 3.632098 1_555
Li33 Y0 3.654473 1_556
Sb0 Y0 3.167254 1_565
Sb0 Y0 3.167257 1_665
Sb0 Y0 3.167257 1_555
Sb1 Y1 3.145382 1_565
Sb1 Y1 3.145385 1_665
Sb1 Y1 3.145386 1_555
Sb2 Y2 3.137813 1_565
Sb2 Y2 3.137816 1_665
Sb2 Y2 3.137817 1_555
Sb3 Y7 3.176720 1_565
Sb3 Y7 3.176724 1_665
Sb3 Y7 3.176724 1_555
Sb4 Y3 3.126092 1_565
Sb4 Y3 3.126096 1_665
Sb4 Y3 3.126096 1_555
Sb5 Y11 3.184391 1_565
Sb5 Y11 3.184394 1_665
Sb5 Y11 3.184394 1_555
Sb6 Y8 3.170986 1_565
Sb6 Y8 3.170989 1_665
Sb6 Y8 3.170989 1_555
Sb7 Y4 3.160934 1_565
Sb7 Y4 3.160937 1_665
Sb7 Y4 3.160938 1_555
Sb8 Y5 3.157423 1_565
Sb8 Y5 3.157427 1_665
Sb8 Y5 3.157427 1_555
Sb9 Y9 3.157051 1_565
Sb9 Y9 3.157054 1_665
Sb9 Y9 3.157054 1_555
Sb10 Y12 3.149893 1_565
Sb10 Y12 3.149897 1_665
Sb10 Y12 3.149897 1_555
Sb11 Y6 3.113945 1_565
Sb11 Y6 3.113949 1_665
Sb11 Y6 3.113949 1_555
Sb12 Y10 3.177952 1_565
Sb12 Y10 3.177955 1_665
Sb12 Y10 3.177955 1_555
Sb13 Y1 3.131203 1_655
Sb13 Y1 3.131207 1_555
Sb13 Y1 3.131207 1_665
Sb14 Y2 3.162459 1_655
Sb14 Y2 3.162462 1_555
Sb14 Y2 3.162462 1_665
Sb15 Y7 3.163496 1_655
Sb15 Y7 3.163499 1_555
Sb15 Y7 3.163499 1_665
Sb16 Y3 3.182121 1_655
Sb16 Y3 3.182124 1_555
Sb16 Y3 3.182124 1_665
Sb17 Y11 3.140942 1_655
Sb17 Y11 3.140945 1_555
Sb17 Y11 3.140945 1_665
Sb18 Y8 3.155474 1_655
Sb18 Y8 3.155478 1_555
Sb18 Y8 3.155478 1_665
Sb19 Y4 3.158236 1_655
Sb19 Y4 3.158239 1_555
Sb19 Y4 3.158239 1_665
Sb20 Y5 3.159384 1_655
Sb20 Y5 3.159387 1_555
Sb20 Y5 3.159387 1_665
Sb21 Y9 3.163123 1_655
Sb21 Y9 3.163126 1_555
Sb21 Y9 3.163126 1_665
Sb22 Y12 3.168527 1_655
Sb22 Y12 3.168531 1_555
Sb22 Y12 3.168531 1_665
Sb23 Y6 3.186692 1_655
Sb23 Y6 3.186695 1_555
Sb23 Y6 3.186695 1_665
Sb24 Y10 3.154553 1_655
Sb24 Y10 3.154556 1_555
Sb24 Y10 3.154556 1_665
Sb25 Y0 3.180447 1_656
Sb25 Y0 3.180450 1_556
Sb25 Y0 3.180450 1_666
