# generated using pymatgen
data_Rb2Th(PSe3)3
_symmetry_space_group_name_H-M   'P 1'
_cell_length_a   10.43172800
_cell_length_b   10.80580647
_cell_length_c   17.05285066
_cell_angle_alpha   89.91528915
_cell_angle_beta   107.43471708
_cell_angle_gamma   91.74365939
_symmetry_Int_Tables_number   1
_chemical_formula_structural   Rb2Th(PSe3)3
_chemical_formula_sum   'Rb8 Th4 P12 Se36'
_cell_volume   1833.03420566
_cell_formula_units_Z   4
loop_
 _symmetry_equiv_pos_site_id
 _symmetry_equiv_pos_as_xyz
  1  'x, y, z'
loop_
 _atom_site_type_symbol
 _atom_site_label
 _atom_site_symmetry_multiplicity
 _atom_site_fract_x
 _atom_site_fract_y
 _atom_site_fract_z
 _atom_site_occupancy
  Rb  Rb0  1  0.39384700  0.90119900  0.67385700  1
  Rb  Rb1  1  0.66488600  0.47763700  0.29101600  1
  Rb  Rb2  1  0.07504400  0.81991700  0.98913800  1
  Rb  Rb3  1  0.82457500  0.39075900  0.59816700  1
  Rb  Rb4  1  0.91239800  0.90912800  0.68076900  1
  Rb  Rb5  1  0.11819300  0.33486100  0.27220700  1
  Rb  Rb6  1  0.63470300  0.97175900  0.01401400  1
  Rb  Rb7  1  0.34436400  0.39574900  0.60709400  1
  Th  Th0  1  0.56712200  0.42368900  0.92073400  1
  Th  Th1  1  0.17270300  0.87361700  0.35948800  1
  Th  Th2  1  0.14488900  0.36633800  0.97068300  1
  Th  Th3  1  0.59509800  0.93087900  0.30960200  1
  P  P0  1  0.64775000  0.22209200  0.76549600  1
  P  P1  1  0.29999900  0.07356000  0.15007500  1
  P  P2  1  0.43998300  0.22401300  0.13025500  1
  P  P3  1  0.86021800  0.57717800  0.08651800  1
  P  P4  1  0.58180300  0.73681400  0.48803400  1
  P  P5  1  0.87927600  0.71997000  0.19384600  1
  P  P6  1  0.83443000  0.14809400  0.85737400  1
  P  P7  1  0.90564500  0.14884400  0.42290600  1
  P  P8  1  0.09227800  0.07486300  0.51468100  1
  P  P9  1  0.32826000  0.68460300  0.86887600  1
  P  P10  1  0.15831200  0.56128100  0.79253300  1
  P  P11  1  0.41229300  0.61299100  0.41207100  1
  Se  Se0  1  0.66597600  0.76524200  0.17943300  1
  Se  Se1  1  0.07345500  0.87023800  0.50890800  1
  Se  Se2  1  0.09884300  0.13410100  0.07460900  1
  Se  Se3  1  0.36404900  0.71444700  0.28930600  1
  Se  Se4  1  0.01827000  0.20250200  0.82396900  1
  Se  Se5  1  0.00142100  0.88095200  0.17348000  1
  Se  Se6  1  0.99395500  0.64105700  0.31350800  1
  Se  Se7  1  0.26291700  0.37661800  0.81626700  1
  Se  Se8  1  0.49940400  0.17162600  0.83239000  1
  Se  Se9  1  0.38595600  0.89729400  0.12923700  1
  Se  Se10  1  0.40150200  0.21631000  0.99253700  1
  Se  Se11  1  0.35457800  0.40068300  0.15081500  1
  Se  Se12  1  0.73798100  0.41619900  0.10662600  1
  Se  Se13  1  0.47676500  0.92107400  0.46359000  1
  Se  Se14  1  0.66645100  0.42675400  0.77109600  1
  Se  Se15  1  0.33841000  0.08095800  0.28777800  1
  Se  Se16  1  0.46559500  0.42178200  0.41735100  1
  Se  Se17  1  0.84309200  0.26830700  0.96847500  1
  Se  Se18  1  0.48748800  0.64478100  0.81113400  1
  Se  Se19  1  0.61635000  0.14325900  0.64495800  1
  Se  Se20  1  0.72226300  0.09376800  0.45661600  1
  Se  Se21  1  0.12327700  0.15360900  0.63516900  1
  Se  Se22  1  0.00099600  0.56319600  0.85544800  1
  Se  Se23  1  0.79128400  0.95102700  0.86102500  1
  Se  Se24  1  0.89678300  0.02899700  0.31171500  1
  Se  Se25  1  0.07361400  0.53235400  0.10086400  1
  Se  Se26  1  0.74510300  0.65697300  0.96729100  1
  Se  Se27  1  0.37587200  0.58199400  0.99125000  1
  Se  Se28  1  0.94813900  0.34603100  0.41949000  1
  Se  Se29  1  0.73903400  0.73394200  0.42508700  1
  Se  Se30  1  0.25245500  0.65207600  0.46932300  1
  Se  Se31  1  0.63943600  0.68112100  0.61470100  1
  Se  Se32  1  0.24079600  0.12538800  0.44794800  1
  Se  Se33  1  0.27690700  0.87607000  0.86454000  1
  Se  Se34  1  0.64116400  0.16357200  0.20600700  1
  Se  Se35  1  0.09975000  0.61810500  0.66606400  1
loop_
_geom_bond_atom_site_label_1
_geom_bond_atom_site_label_2
_geom_bond_distance
_geom_bond_site_symmetry_2
Rb0 Se19 3.575491 1_565
Rb0 Se18 3.589834 1_555
Rb0 Se1 3.673664 1_555
Rb0 Se33 3.806515 1_555
Rb0 Se8 3.886378 1_565
Rb0 Se31 3.893976 1_555
Rb0 Se21 3.897226 1_565
Rb0 Se13 3.936517 1_555
Rb1 Se28 3.452603 1_555
Rb1 Se16 3.454173 1_555
Rb1 Se11 3.477132 1_555
Rb1 Se29 3.510649 1_555
Rb1 Se12 3.518945 1_555
Rb1 Se0 3.643156 1_555
Rb1 Se34 3.664500 1_555
Rb1 Se6 3.727387 1_555
Rb2 Se23 3.451540 1_455
Rb2 Se33 3.452047 1_555
Rb2 Se9 3.481917 1_556
Rb2 Se22 3.510367 1_555
Rb2 Se5 3.520010 1_556
Rb2 Se25 3.644519 1_556
Rb2 Se2 3.668599 1_566
Rb2 Se26 3.734986 1_455
Rb3 Se19 3.631291 1_555
Rb3 Se35 3.633652 1_655
Rb3 Se28 3.684395 1_555
Rb3 Se31 3.788363 1_555
Rb3 Se14 3.811254 1_555
Rb3 Se20 3.941519 1_555
Rb3 Se21 3.997165 1_655
Rb3 Se16 4.098460 1_555
Rb4 Se21 3.617796 1_665
Rb4 Se31 3.620299 1_555
Rb4 Se23 3.690001 1_555
Rb4 Se35 3.800263 1_655
Rb4 Se1 3.819119 1_655
Rb4 Se4 3.927654 1_665
Rb4 Se19 3.956264 1_565
Rb5 Se28 3.486174 1_455
Rb5 Se25 3.540574 1_555
Rb5 Se15 3.590432 1_555
Rb5 Se32 3.687805 1_555
Rb5 Se11 3.717472 1_555
Rb5 Se6 3.733361 1_455
Rb5 Se16 3.816604 1_555
Rb5 Se2 3.960881 1_555
Rb6 Se23 3.478816 1_554
Rb6 Se0 3.538066 1_555
Rb6 Se10 3.590230 1_564
Rb6 Se8 3.714212 1_564
Rb6 Se9 3.763650 1_555
Rb6 Se26 3.785200 1_554
Rb6 Se34 3.859948 1_565
Rb6 Se33 3.945791 1_554
Rb6 Se17 4.022124 1_564
Rb6 Se5 4.120548 1_655
Rb7 Se21 3.561630 1_555
Rb7 Se30 3.592122 1_555
Rb7 Se14 3.677809 1_555
Rb7 Se16 3.817811 1_555
Rb7 Se32 3.891246 1_555
Rb7 Se35 3.900479 1_555
Rb7 Se19 3.908850 1_555
Rb7 Se7 3.910406 1_555
P0 Se19 2.154722 1_555
P0 Se14 2.213884 1_555
P0 Se8 2.235634 1_555
P0 P6 2.269190 1_555
P1 Se9 2.203418 1_545
P1 Se2 2.224915 1_555
P1 P2 2.244863 1_555
P1 Se15 2.261834 1_555
P2 Se11 2.203145 1_555
P2 Se34 2.226216 1_555
P2 Se10 2.262094 1_554
P3 Se12 2.212402 1_555
P3 Se26 2.216761 1_554
P3 Se25 2.233574 1_655
P3 P5 2.354096 1_555
P4 Se31 2.151593 1_555
P4 Se29 2.213970 1_555
P4 Se13 2.279338 1_555
P5 Se5 2.213292 1_655
P5 Se6 2.217280 1_555
P5 Se0 2.233587 1_555
P6 Se23 2.167755 1_545
P6 Se4 2.221042 1_655
P6 Se17 2.276527 1_555
P7 Se28 2.167413 1_555
P7 Se20 2.221004 1_555
P7 P8 2.268036 1_655
P7 Se24 2.275061 1_555
P8 Se21 2.154193 1_555
P8 Se1 2.213598 1_545
P8 Se32 2.235311 1_555
P9 Se33 2.148553 1_555
P9 Se18 2.222288 1_555
P9 Se27 2.288336 1_555
P10 Se35 2.151933 1_555
P10 Se22 2.214009 1_555
P10 P9 2.256540 1_555
P10 Se7 2.280739 1_555
P11 Se16 2.150742 1_555
P11 Se30 2.220653 1_555
P11 P4 2.254691 1_555
P11 Se3 2.287649 1_555
Se0 Th3 3.123026 1_555
Se1 Th1 3.023901 1_555
Se2 Th2 3.176914 1_554
Se3 Th1 3.165664 1_555
Se3 Th3 3.249330 1_555
Se4 Th2 3.004812 1_555
Se5 Th1 3.141949 1_555
Se6 Th1 3.041616 1_655
Se7 Th0 3.165357 1_555
Se7 Th2 3.224255 1_555
Se8 Th0 3.073225 1_555
Se9 Th3 3.207139 1_555
Se10 Th2 3.097980 1_555
Se10 Th0 3.244965 1_555
Se11 Th2 3.207151 1_554
Se12 Th0 3.139182 1_554
Se13 Th1 3.163040 1_555
Se13 Th3 3.219346 1_555
Se14 Th0 3.027918 1_555
Se15 Th3 3.099014 1_545
Se15 Th1 3.244406 1_545
Se17 Th0 3.264251 1_555
Se17 Th2 3.280433 1_655
Se18 Th0 3.011330 1_555
Se20 Th3 3.003503 1_545
Se22 Th2 3.009007 1_555
Se24 Th1 3.263802 1_645
Se24 Th3 3.280051 1_545
Se25 Th2 3.127504 1_554
Se26 Th0 3.044635 1_555
Se27 Th0 3.162891 1_555
Se27 Th2 3.242486 1_555
Se29 Th3 3.011913 1_555
Se30 Th1 3.017508 1_555
Se32 Th1 3.071507 1_545
Se34 Th3 3.177451 1_545
