# generated using pymatgen
data_MgMn2O4
_symmetry_space_group_name_H-M   'P 1'
_cell_length_a   23.42216752
_cell_length_b   23.42216752
_cell_length_c   5.87066740
_cell_angle_alpha   83.13830885
_cell_angle_beta   83.13830885
_cell_angle_gamma   14.38835232
_symmetry_Int_Tables_number   1
_chemical_formula_structural   MgMn2O4
_chemical_formula_sum   'Mg10 Mn20 O40'
_cell_volume   794.48153184
_cell_formula_units_Z   10
loop_
 _symmetry_equiv_pos_site_id
 _symmetry_equiv_pos_as_xyz
  1  'x, y, z'
loop_
 _atom_site_type_symbol
 _atom_site_label
 _atom_site_symmetry_multiplicity
 _atom_site_fract_x
 _atom_site_fract_y
 _atom_site_fract_z
 _atom_site_occupancy
  Mg  Mg0  1  0.40095300  0.40095300  0.59998800  1
  Mg  Mg1  1  0.45166200  0.45166200  0.04796100  1
  Mg  Mg2  1  0.85028000  0.85028000  0.64906700  1
  Mg  Mg3  1  0.19836700  0.19836700  0.80160800  1
  Mg  Mg4  1  0.24878600  0.24878600  0.24999100  1
  Mg  Mg5  1  0.64629700  0.64629700  0.84324000  1
  Mg  Mg6  1  0.79958100  0.79958100  0.20081900  1
  Mg  Mg7  1  0.04963400  0.04963400  0.44024400  1
  Mg  Mg8  1  0.12364300  0.12364300  0.12431400  1
  Mg  Mg9  1  0.52636700  0.52636700  0.72380300  1
  Mn  Mn0  1  0.72627100  0.22886700  0.52649400  1
  Mn  Mn1  1  0.12569600  0.62557800  0.12464800  1
  Mn  Mn2  1  0.22886700  0.72627100  0.52649400  1
  Mn  Mn3  1  0.92635800  0.92635800  0.32539700  1
  Mn  Mn4  1  0.92620400  0.92620400  0.82495300  1
  Mn  Mn5  1  0.52439700  0.02405200  0.72516400  1
  Mn  Mn6  1  0.62557800  0.12569600  0.12464800  1
  Mn  Mn7  1  0.32494000  0.32494000  0.92499700  1
  Mn  Mn8  1  0.32493500  0.32493500  0.42490800  1
  Mn  Mn9  1  0.92243400  0.42273700  0.32240300  1
  Mn  Mn10  1  0.02405200  0.52439700  0.72516400  1
  Mn  Mn11  1  0.60053500  0.60053500  0.41077300  1
  Mn  Mn12  1  0.72324800  0.72324800  0.52499600  1
  Mn  Mn13  1  0.72351200  0.72351200  0.02450800  1
  Mn  Mn14  1  0.32398400  0.82634500  0.92493600  1
  Mn  Mn15  1  0.42273700  0.92243400  0.32240300  1
  Mn  Mn16  1  0.00339700  0.00339700  0.00655400  1
  Mn  Mn17  1  0.12334900  0.12334900  0.62273000  1
  Mn  Mn18  1  0.82634500  0.32398400  0.92493600  1
  Mn  Mn19  1  0.52728300  0.52728300  0.23249400  1
  O  O0  1  0.47765600  0.47765600  0.29708800  1
  O  O1  1  0.47944600  0.47944600  0.75509000  1
  O  O2  1  0.15047400  0.70076200  0.07525600  1
  O  O3  1  0.15240200  0.70169500  0.57533100  1
  O  O4  1  0.87626800  0.87626800  0.89919500  1
  O  O5  1  0.87627200  0.87627200  0.34876500  1
  O  O6  1  0.97633700  0.97633700  0.75180700  1
  O  O7  1  0.97509000  0.97509000  0.30549000  1
  O  O8  1  0.54905800  0.09944300  0.67556700  1
  O  O9  1  0.55034000  0.10080200  0.17439600  1
  O  O10  1  0.70076200  0.15047400  0.07525600  1
  O  O11  1  0.70169500  0.15240200  0.57533100  1
  O  O12  1  0.27480300  0.27480300  0.49984500  1
  O  O13  1  0.27480200  0.27480200  0.94940100  1
  O  O14  1  0.37495100  0.37495100  0.35001300  1
  O  O15  1  0.37494500  0.37494500  0.90053900  1
  O  O16  1  0.94773100  0.49739600  0.27459200  1
  O  O17  1  0.94892600  0.49952100  0.77451500  1
  O  O18  1  0.09944300  0.54905800  0.67556700  1
  O  O19  1  0.10080200  0.55034000  0.17439600  1
  O  O20  1  0.67270300  0.67270300  0.09550400  1
  O  O21  1  0.67397200  0.67397200  0.54785500  1
  O  O22  1  0.77352900  0.77352900  0.95084300  1
  O  O23  1  0.77351900  0.77351900  0.50098100  1
  O  O24  1  0.35273800  0.88408600  0.86822400  1
  O  O25  1  0.35097600  0.90018700  0.38284700  1
  O  O26  1  0.49739600  0.94773100  0.27459200  1
  O  O27  1  0.49952100  0.94892600  0.77451500  1
  O  O28  1  0.07388700  0.07388700  0.70432900  1
  O  O29  1  0.07717900  0.07717900  0.14566600  1
  O  O30  1  0.17277900  0.17277900  0.55027300  1
  O  O31  1  0.17085100  0.17085100  0.09541400  1
  O  O32  1  0.75435200  0.29618100  0.46729000  1
  O  O33  1  0.76363900  0.30121700  0.98274700  1
  O  O34  1  0.88408600  0.35273800  0.86822400  1
  O  O35  1  0.90018700  0.35097600  0.38284700  1
  O  O36  1  0.57646700  0.57646700  0.14123200  1
  O  O37  1  0.57285200  0.57285200  0.70877500  1
  O  O38  1  0.29618100  0.75435200  0.46729000  1
  O  O39  1  0.30121700  0.76363900  0.98274700  1
loop_
_geom_bond_atom_site_label_1
_geom_bond_atom_site_label_2
_geom_bond_distance
_geom_bond_site_symmetry_2
Mg0 O14 2.010249 1_555
Mg0 O11 2.011345 1_555
Mg0 O3 2.011345 1_555
Mg0 O15 2.015098 1_555
Mg1 O0 2.006000 1_555
Mg1 O10 2.012315 1_555
Mg1 O2 2.012315 1_555
Mg1 O1 2.022090 1_554
Mg2 O4 2.010522 1_555
Mg2 O8 2.012117 1_565
Mg2 O18 2.012117 1_655
Mg2 O5 2.013556 1_555
Mg3 O30 2.003485 1_555
Mg3 O27 2.007885 1_545
Mg3 O17 2.007885 1_455
Mg3 O31 2.019705 1_556
Mg4 O12 2.010160 1_555
Mg4 O13 2.015466 1_554
Mg4 O16 2.015731 1_455
Mg4 O26 2.015731 1_545
Mg5 O24 2.020983 1_555
Mg5 O34 2.020983 1_555
Mg5 O21 2.030834 1_555
Mg5 O20 2.033978 1_556
Mg6 O19 2.011210 1_655
Mg6 O9 2.011210 1_565
Mg6 O22 2.011856 1_554
Mg6 O23 2.014507 1_555
Mg7 O32 1.946874 1_455
Mg7 O38 1.946874 1_545
Mg7 O28 2.023609 1_555
Mg7 O29 2.023945 1_555
Mg8 O35 2.023122 1_455
Mg8 O25 2.023122 1_545
Mg8 O24 2.072941 1_544
Mg8 O34 2.072941 1_454
Mg8 O29 2.147953 1_555
Mg8 O31 2.180103 1_555
Mg9 O38 2.023614 1_555
Mg9 O32 2.023614 1_555
Mg9 O39 2.081630 1_555
Mg9 O33 2.081630 1_555
Mg9 O37 2.151575 1_555
Mg9 O1 2.166248 1_555
Mn0 O7 1.976350 1_545
Mn0 O6 1.976867 1_545
Mn0 O0 1.985231 1_555
Mn0 O1 1.991346 1_555
Mn0 O32 2.205117 1_555
Mn0 O11 2.335849 1_555
Mn1 O14 1.972618 1_555
Mn1 O15 1.972849 1_554
Mn1 O5 1.973141 1_455
Mn1 O4 1.973645 1_454
Mn1 O2 2.310748 1_555
Mn1 O19 2.314658 1_555
Mn2 O7 1.976350 1_455
Mn2 O6 1.976867 1_455
Mn2 O0 1.985231 1_555
Mn2 O1 1.991346 1_555
Mn2 O38 2.205117 1_555
Mn2 O3 2.335849 1_555
Mn3 O2 1.977334 1_655
Mn3 O10 1.977334 1_565
Mn3 O11 1.978135 1_565
Mn3 O3 1.978135 1_655
Mn3 O7 2.253761 1_555
Mn3 O5 2.315263 1_555
Mn4 O3 1.970523 1_655
Mn4 O11 1.970523 1_565
Mn4 O2 1.972410 1_656
Mn4 O10 1.972410 1_566
Mn4 O4 2.309215 1_555
Mn4 O6 2.317787 1_555
Mn5 O23 1.972705 1_545
Mn5 O22 1.973328 1_545
Mn5 O12 1.973776 1_555
Mn5 O13 1.973854 1_555
Mn5 O27 2.311638 1_545
Mn5 O8 2.312885 1_555
Mn6 O14 1.972618 1_555
Mn6 O15 1.972849 1_554
Mn6 O5 1.973141 1_545
Mn6 O4 1.973645 1_544
Mn6 O10 2.310748 1_555
Mn6 O9 2.314658 1_555
Mn7 O9 1.973217 1_556
Mn7 O19 1.973217 1_556
Mn7 O8 1.973789 1_555
Mn7 O18 1.973789 1_555
Mn7 O15 2.311119 1_555
Mn7 O13 2.317307 1_555
Mn8 O9 1.972806 1_555
Mn8 O19 1.972806 1_555
Mn8 O18 1.973432 1_555
Mn8 O8 1.973432 1_555
Mn8 O14 2.313129 1_555
Mn8 O12 2.318441 1_555
Mn9 O20 1.980142 1_555
Mn9 O21 1.981115 1_555
Mn9 O30 1.986478 1_655
Mn9 O31 1.990396 1_655
Mn9 O35 2.175435 1_555
Mn9 O16 2.310394 1_555
Mn10 O23 1.972705 1_455
Mn10 O22 1.973328 1_455
Mn10 O12 1.973776 1_555
Mn10 O13 1.973854 1_555
Mn10 O17 2.311638 1_455
Mn10 O18 2.312885 1_555
Mn11 O35 1.982700 1_555
Mn11 O25 1.982700 1_555
Mn11 O37 2.042999 1_555
Mn11 O36 2.044858 1_555
Mn12 O27 1.975214 1_555
Mn12 O17 1.975214 1_555
Mn12 O16 1.979430 1_555
Mn12 O26 1.979430 1_555
Mn12 O21 2.277868 1_555
Mn12 O23 2.323614 1_555
Mn13 O27 1.970021 1_554
Mn13 O17 1.970021 1_554
Mn13 O16 1.971472 1_555
Mn13 O26 1.971472 1_555
Mn13 O22 2.312687 1_554
Mn13 O20 2.347930 1_555
Mn14 O36 1.950864 1_556
Mn14 O37 1.956037 1_555
Mn14 O28 1.957045 1_565
Mn14 O29 1.961591 1_566
Mn14 O39 1.977766 1_555
Mn14 O24 1.999203 1_555
Mn15 O20 1.980142 1_555
Mn15 O21 1.981115 1_555
Mn15 O30 1.986478 1_565
Mn15 O31 1.990396 1_565
Mn15 O25 2.175435 1_555
Mn15 O26 2.310394 1_555
Mn16 O7 2.062661 1_445
Mn16 O6 2.066697 1_444
Mn16 O39 2.069043 1_544
Mn16 O33 2.069043 1_454
Mn17 O25 1.925404 1_545
Mn17 O35 1.925404 1_455
Mn17 O24 1.984888 1_545
Mn17 O34 1.984888 1_455
Mn17 O30 2.285413 1_555
Mn17 O28 2.290987 1_555
Mn18 O36 1.950864 1_556
Mn18 O37 1.956037 1_555
Mn18 O28 1.957045 1_655
Mn18 O29 1.961591 1_656
Mn18 O33 1.977766 1_555
Mn18 O34 1.999203 1_555
Mn19 O32 1.919319 1_555
Mn19 O38 1.919319 1_555
Mn19 O39 1.990528 1_554
Mn19 O33 1.990528 1_554
Mn19 O36 2.284123 1_555
Mn19 O0 2.291905 1_555
