# generated using pymatgen
data_Tm(CuGe)2
_symmetry_space_group_name_H-M   'P 1'
_cell_length_a   5.85724112
_cell_length_b   5.85724112
_cell_length_c   5.85724112
_cell_angle_alpha   140.25712940
_cell_angle_beta   140.25712940
_cell_angle_gamma   57.46309173
_symmetry_Int_Tables_number   1
_chemical_formula_structural   Tm(CuGe)2
_chemical_formula_sum   'Tm1 Cu2 Ge2'
_cell_volume   81.43479688
_cell_formula_units_Z   1
loop_
 _symmetry_equiv_pos_site_id
 _symmetry_equiv_pos_as_xyz
  1  'x, y, z'
loop_
 _atom_site_type_symbol
 _atom_site_label
 _atom_site_symmetry_multiplicity
 _atom_site_fract_x
 _atom_site_fract_y
 _atom_site_fract_z
 _atom_site_occupancy
  Tm  Tm0  1  0.00000000  -0.00000000  0.00000000  1
  Cu  Cu0  1  0.75000000  0.25000000  0.50000000  1
  Cu  Cu1  1  0.25000000  0.75000000  0.50000000  1
  Ge  Ge0  1  0.38205039  0.38205039  -0.00000000  1
  Ge  Ge1  1  0.61794961  0.61794961  0.00000000  1
loop_
_geom_bond_atom_site_label_1
_geom_bond_atom_site_label_2
_geom_bond_distance
_geom_bond_site_symmetry_2
Cu0 Ge1 2.409107 1_556
Cu0 Ge1 2.409107 1_545
Cu0 Ge0 2.409107 1_555
Cu0 Ge0 2.409107 1_656
Cu0 Tm0 3.249421 1_555
Cu0 Tm0 3.249421 1_666
Cu0 Tm0 3.249421 1_655
Cu0 Tm0 3.249421 1_656
Cu1 Ge1 2.409107 1_556
Cu1 Ge0 2.409107 1_555
Cu1 Ge1 2.409107 1_455
Cu1 Ge0 2.409107 1_566
Cu1 Tm0 3.249421 1_666
Cu1 Tm0 3.249421 1_565
Cu1 Tm0 3.249421 1_555
Cu1 Tm0 3.249421 1_566
Ge0 Ge1 2.423207 1_555
Ge0 Tm0 3.065234 1_655
Ge0 Tm0 3.065234 1_666
Ge0 Tm0 3.065234 1_554
Ge0 Tm0 3.065234 1_565
Ge1 Tm0 3.065234 1_554
Ge1 Tm0 3.065234 1_565
Ge1 Tm0 3.065234 1_655
Ge1 Tm0 3.065234 1_666
