# generated using pymatgen
data_BN(OF2)2
_symmetry_space_group_name_H-M   'P 1'
_cell_length_a   7.00022600
_cell_length_b   6.66523900
_cell_length_c   9.32462618
_cell_angle_alpha   75.46740045
_cell_angle_beta   90.00000000
_cell_angle_gamma   90.00000000
_symmetry_Int_Tables_number   1
_chemical_formula_structural   BN(OF2)2
_chemical_formula_sum   'B4 N4 O8 F16'
_cell_volume   421.15002434
_cell_formula_units_Z   4
loop_
 _symmetry_equiv_pos_site_id
 _symmetry_equiv_pos_as_xyz
  1  'x, y, z'
loop_
 _atom_site_type_symbol
 _atom_site_label
 _atom_site_symmetry_multiplicity
 _atom_site_fract_x
 _atom_site_fract_y
 _atom_site_fract_z
 _atom_site_occupancy
  B  B0  1  0.18738800  0.74461600  0.50310600  1
  B  B1  1  0.31261200  0.74461600  0.00310600  1
  B  B2  1  0.68738800  0.25538400  0.99689400  1
  B  B3  1  0.81261200  0.25538400  0.49689400  1
  N  N0  1  0.76162400  0.75647100  0.24259600  1
  N  N1  1  0.73837600  0.75647100  0.74259600  1
  N  N2  1  0.23837600  0.24352900  0.75740400  1
  N  N3  1  0.26162400  0.24352900  0.25740400  1
  O  O0  1  0.33019400  0.33700800  0.33044900  1
  O  O1  1  0.83019400  0.66299200  0.16955100  1
  O  O2  1  0.19330300  0.14909400  0.18487800  1
  O  O3  1  0.30669700  0.14909400  0.68487800  1
  O  O4  1  0.80669700  0.85090600  0.81512200  1
  O  O5  1  0.66980600  0.66299200  0.66955100  1
  O  O6  1  0.16980600  0.33700800  0.83044900  1
  O  O7  1  0.69330300  0.85090600  0.31512200  1
  F  F0  1  0.93652700  0.23592300  0.38088500  1
  F  F1  1  0.06347300  0.76407700  0.61911500  1
  F  F2  1  0.79880600  0.43780900  0.94885500  1
  F  F3  1  0.57963100  0.26628900  0.12352600  1
  F  F4  1  0.31095500  0.91880200  0.46528200  1
  F  F5  1  0.43652700  0.76407700  0.11911500  1
  F  F6  1  0.42036900  0.73371100  0.87647400  1
  F  F7  1  0.07963100  0.73371100  0.37647400  1
  F  F8  1  0.29880600  0.56219100  0.55114500  1
  F  F9  1  0.81095500  0.08119800  0.03471800  1
  F  F10  1  0.56347300  0.23592300  0.88088500  1
  F  F11  1  0.20119400  0.56219100  0.05114500  1
  F  F12  1  0.18904500  0.91880200  0.96528200  1
  F  F13  1  0.70119400  0.43780900  0.44885500  1
  F  F14  1  0.92036900  0.26628900  0.62352600  1
  F  F15  1  0.68904500  0.08119800  0.53471800  1
loop_
_geom_bond_atom_site_label_1
_geom_bond_atom_site_label_2
_geom_bond_distance
_geom_bond_site_symmetry_2
B0 F1 1.417691 1_555
B0 F7 1.418322 1_555
B0 F8 1.419177 1_555
B0 F4 1.419512 1_555
B1 F5 1.417691 1_555
B1 F6 1.418322 1_554
B1 F11 1.419177 1_555
B1 F12 1.419512 1_554
B2 F10 1.417691 1_555
B2 F3 1.418322 1_556
B2 F2 1.419177 1_555
B2 F9 1.419512 1_556
B3 F0 1.417691 1_555
B3 F14 1.418322 1_555
B3 F13 1.419177 1_555
B3 F15 1.419512 1_555
N0 O1 1.138204 1_555
N0 O7 1.138376 1_555
N1 O5 1.138204 1_555
N1 O4 1.138376 1_555
N2 O6 1.138204 1_555
N2 O3 1.138376 1_555
N3 O0 1.138204 1_555
N3 O2 1.138376 1_555
