# generated using pymatgen
data_MgV2O6
_symmetry_space_group_name_H-M   'P 1'
_cell_length_a   5.19372745
_cell_length_b   5.19372745
_cell_length_c   7.05547246
_cell_angle_alpha   74.86952389
_cell_angle_beta   74.86952389
_cell_angle_gamma   39.79573852
_symmetry_Int_Tables_number   1
_chemical_formula_structural   MgV2O6
_chemical_formula_sum   'Mg1 V2 O6'
_cell_volume   117.02743488
_cell_formula_units_Z   1
loop_
 _symmetry_equiv_pos_site_id
 _symmetry_equiv_pos_as_xyz
  1  'x, y, z'
loop_
 _atom_site_type_symbol
 _atom_site_label
 _atom_site_symmetry_multiplicity
 _atom_site_fract_x
 _atom_site_fract_y
 _atom_site_fract_z
 _atom_site_occupancy
  Mg  Mg0  1  0.00000000  0.00000000  0.50000000  1
  V  V0  1  0.22134500  0.22134500  0.82338700  1
  V  V1  1  0.77865500  0.77865500  0.17661300  1
  O  O0  1  0.71305900  0.71305900  0.91738800  1
  O  O1  1  0.28694100  0.28694100  0.08261200  1
  O  O2  1  0.92381500  0.92381500  0.25956300  1
  O  O3  1  0.36687100  0.36687100  0.62314000  1
  O  O4  1  0.07618500  0.07618500  0.74043700  1
  O  O5  1  0.63312900  0.63312900  0.37686000  1
loop_
_geom_bond_atom_site_label_1
_geom_bond_atom_site_label_2
_geom_bond_distance
_geom_bond_site_symmetry_2
Mg0 O2 2.032807 1_445
Mg0 O4 2.032807 1_555
Mg0 O5 2.223300 1_545
Mg0 O3 2.223300 1_545
Mg0 O5 2.223300 1_455
Mg0 O3 2.223300 1_455
O0 V0 1.881814 1_565
O0 V0 1.881814 1_655
O0 V1 2.099079 1_556
O1 V1 1.881814 1_455
O1 V1 1.881814 1_545
O1 V0 2.099079 1_554
O2 V1 1.677328 1_555
O3 V0 1.703400 1_555
O4 V0 1.677328 1_555
O5 V1 1.703400 1_555
