# generated using pymatgen
data_BaAg2SnS4
_symmetry_space_group_name_H-M   'P 1'
_cell_length_a   6.46721042
_cell_length_b   6.46721042
_cell_length_c   6.46721042
_cell_angle_alpha   116.07166213
_cell_angle_beta   111.92249929
_cell_angle_gamma   100.78667920
_symmetry_Int_Tables_number   1
_chemical_formula_structural   BaAg2SnS4
_chemical_formula_sum   'Ba1 Ag2 Sn1 S4'
_cell_volume   204.39579007
_cell_formula_units_Z   1
loop_
 _symmetry_equiv_pos_site_id
 _symmetry_equiv_pos_as_xyz
  1  'x, y, z'
loop_
 _atom_site_type_symbol
 _atom_site_label
 _atom_site_symmetry_multiplicity
 _atom_site_fract_x
 _atom_site_fract_y
 _atom_site_fract_z
 _atom_site_occupancy
  Ba  Ba0  1  -0.00000000  -0.00000000  -0.00000000  1
  Ag  Ag0  1  0.31443663  0.81443663  0.50000000  1
  Ag  Ag1  1  0.68556337  0.18556337  0.50000000  1
  Sn  Sn0  1  0.50000000  0.50000000  -0.00000000  1
  S  S0  1  0.47840826  0.87234077  0.01241078  1
  S  S1  1  0.85992999  0.46599748  0.98758922  1
  S  S2  1  0.52159174  0.53400252  0.39393251  1
  S  S3  1  0.14007001  0.12765923  0.60606749  1
loop_
_geom_bond_atom_site_label_1
_geom_bond_atom_site_label_2
_geom_bond_distance
_geom_bond_site_symmetry_2
Ba0 S0 3.330108 1_545
Ba0 S2 3.330108 1_444
Ba0 S3 3.330108 1_555
Ba0 S1 3.330108 1_454
Ba0 S3 3.359289 1_554
Ba0 S2 3.359289 1_555
Ba0 S1 3.359289 1_444
Ba0 S0 3.359289 1_445
Ag0 S3 2.461051 1_565
Ag0 S2 2.461051 1_555
Ag0 S0 2.895343 1_556
Ag0 S1 2.895343 1_454
Ag1 S0 2.461051 1_545
Ag1 S1 2.461051 1_555
Ag1 S2 2.895343 1_555
Ag1 S3 2.895343 1_655
S0 Sn0 2.405988 1_555
S1 Sn0 2.405988 1_556
S2 Sn0 2.405988 1_555
S3 Sn0 2.405988 1_556
