# generated using pymatgen
data_Nd4Ti9O24
_symmetry_space_group_name_H-M   'P 1'
_cell_length_a   10.16954370
_cell_length_b   10.16954347
_cell_length_c   19.16134637
_cell_angle_alpha   104.85965066
_cell_angle_beta   104.85965032
_cell_angle_gamma   91.92497945
_symmetry_Int_Tables_number   1
_chemical_formula_structural   Nd4Ti9O24
_chemical_formula_sum   'Nd16 Ti36 O96'
_cell_volume   1840.82991700
_cell_formula_units_Z   4
loop_
 _symmetry_equiv_pos_site_id
 _symmetry_equiv_pos_as_xyz
  1  'x, y, z'
loop_
 _atom_site_type_symbol
 _atom_site_label
 _atom_site_symmetry_multiplicity
 _atom_site_fract_x
 _atom_site_fract_y
 _atom_site_fract_z
 _atom_site_occupancy
  Nd  Nd0  1  0.88418714  0.43187858  0.25745079  1
  Nd  Nd1  1  0.11581286  0.56812142  0.74254921  1
  Nd  Nd2  1  0.73231440  0.98231440  0.96462880  1
  Nd  Nd3  1  0.56812142  0.11581286  0.24254921  1
  Nd  Nd4  1  0.17442779  0.12673635  0.24254921  1
  Nd  Nd5  1  0.12673635  0.17442779  0.74254921  1
  Nd  Nd6  1  0.50375957  0.75375957  0.50751915  1
  Nd  Nd7  1  0.82557221  0.87326365  0.75745079  1
  Nd  Nd8  1  0.98231440  0.73231440  0.46462880  1
  Nd  Nd9  1  0.01768560  0.26768560  0.53537120  1
  Nd  Nd10  1  0.75375957  0.50375957  0.00751915  1
  Nd  Nd11  1  0.87326365  0.82557221  0.25745079  1
  Nd  Nd12  1  0.26768560  0.01768560  0.03537120  1
  Nd  Nd13  1  0.24624043  0.49624043  0.99248085  1
  Nd  Nd14  1  0.43187858  0.88418714  0.75745079  1
  Nd  Nd15  1  0.49624043  0.24624043  0.49248085  1
  Ti  Ti0  1  0.42863079  0.73999955  0.92442029  1
  Ti  Ti1  1  0.26000045  0.57136921  0.57557971  1
  Ti  Ti2  1  0.57136921  0.26000045  0.07557971  1
  Ti  Ti3  1  0.91601223  0.40248716  0.84193784  1
  Ti  Ti4  1  0.57407440  0.56054932  0.15806216  1
  Ti  Ti5  1  0.80401787  0.55275903  0.59032796  1
  Ti  Ti6  1  0.35549874  0.35286097  0.16907214  1
  Ti  Ti7  1  0.59751284  0.08398777  0.65806216  1
  Ti  Ti8  1  0.43945068  0.42592560  0.34193784  1
  Ti  Ti9  1  0.19598213  0.44724097  0.40967204  1
  Ti  Ti10  1  0.99578950  0.18442074  0.92442029  1
  Ti  Ti11  1  0.91988976  0.16988976  0.33977952  1
  Ti  Ti12  1  0.31357340  0.81621116  0.16907214  1
  Ti  Ti13  1  0.55275903  0.80401787  0.09032796  1
  Ti  Ti14  1  0.64713903  0.64450126  0.33092786  1
  Ti  Ti15  1  0.83011024  0.08011024  0.16022048  1
  Ti  Ti16  1  0.81557926  0.00421050  0.57557971  1
  Ti  Ti17  1  0.96243107  0.71368991  0.90967204  1
  Ti  Ti18  1  0.71368991  0.96243107  0.40967204  1
  Ti  Ti19  1  0.08398777  0.59751284  0.15806216  1
  Ti  Ti20  1  0.00421050  0.81557926  0.07557971  1
  Ti  Ti21  1  0.42592560  0.43945068  0.84193784  1
  Ti  Ti22  1  0.08011024  0.83011024  0.66022048  1
  Ti  Ti23  1  0.73999955  0.42863079  0.42442029  1
  Ti  Ti24  1  0.64450126  0.64713903  0.83092786  1
  Ti  Ti25  1  0.28631009  0.03756893  0.59032796  1
  Ti  Ti26  1  0.44724097  0.19598213  0.90967204  1
  Ti  Ti27  1  0.16988976  0.91988976  0.83977952  1
  Ti  Ti28  1  0.18378884  0.68642660  0.33092786  1
  Ti  Ti29  1  0.18442074  0.99578950  0.42442029  1
  Ti  Ti30  1  0.68642660  0.18378884  0.83092786  1
  Ti  Ti31  1  0.56054932  0.57407440  0.65806216  1
  Ti  Ti32  1  0.03756893  0.28631009  0.09032796  1
  Ti  Ti33  1  0.81621116  0.31357340  0.66907214  1
  Ti  Ti34  1  0.35286097  0.35549874  0.66907214  1
  Ti  Ti35  1  0.40248716  0.91601223  0.34193784  1
  O  O0  1  0.39366279  0.97388318  0.25390012  1
  O  O1  1  0.04582422  0.11107681  0.41542748  1
  O  O2  1  0.84208382  0.07742657  0.49002116  1
  O  O3  1  0.93667569  0.69631202  0.66898669  1
  O  O4  1  0.36096007  0.35096942  0.40466276  1
  O  O5  1  0.45629731  0.94630666  0.59533724  1
  O  O6  1  0.08267901  0.58412555  0.38257567  1
  O  O7  1  0.91732099  0.41587445  0.61742433  1
  O  O8  1  0.29144047  0.53817283  0.33708084  1
  O  O9  1  0.58412555  0.08267901  0.88257567  1
  O  O10  1  0.14793734  0.41259459  0.49002116  1
  O  O11  1  0.95417578  0.88892319  0.58457252  1
  O  O12  1  0.68831670  0.40695643  0.14828646  1
  O  O13  1  0.41587445  0.91732099  0.11742433  1
  O  O14  1  0.74133003  0.95996977  0.64828646  1
  O  O15  1  0.58740541  0.85206266  0.00997884  1
  O  O16  1  0.42238856  0.42285695  0.09465046  1
  O  O17  1  0.79890802  0.54564038  0.83708084  1
  O  O18  1  0.13039674  0.69564933  0.58457252  1
  O  O19  1  0.92257343  0.15791618  0.00997884  1
  O  O20  1  0.06482808  0.83000907  0.35888381  1
  O  O21  1  0.88892319  0.95417578  0.08457252  1
  O  O22  1  0.32820649  0.82773810  0.40534954  1
  O  O23  1  0.39911750  0.68309125  0.00660542  1
  O  O24  1  0.59304357  0.31168330  0.35171354  1
  O  O25  1  0.79845012  0.79989667  0.88257567  1
  O  O26  1  0.10748792  0.32351417  0.00660542  1
  O  O27  1  0.05369334  0.54370269  0.90466276  1
  O  O28  1  0.36023733  0.28001694  0.25390012  1
  O  O29  1  0.54564038  0.79890802  0.33708084  1
  O  O30  1  0.32351417  0.10748792  0.50660542  1
  O  O31  1  0.57714305  0.57761144  0.40534954  1
  O  O32  1  0.85206266  0.58740541  0.50997884  1
  O  O33  1  0.02611682  0.60633721  0.24609988  1
  O  O34  1  0.79989667  0.79845012  0.38257567  1
  O  O35  1  0.31168330  0.59304357  0.85171354  1
  O  O36  1  0.20010333  0.20154988  0.61742433  1
  O  O37  1  0.45435962  0.20109198  0.66291916  1
  O  O38  1  0.52887474  0.79405573  0.85888381  1
  O  O39  1  0.60088250  0.31690875  0.99339458  1
  O  O40  1  0.46182717  0.70855953  0.16291916  1
  O  O41  1  0.93517192  0.16999093  0.64111619  1
  O  O42  1  0.03705007  0.96294993  0.75000000  1
  O  O43  1  0.54370269  0.05369334  0.40466276  1
  O  O44  1  0.30368798  0.06332431  0.83101331  1
  O  O45  1  0.63976267  0.71998306  0.74609988  1
  O  O46  1  0.86960326  0.30435067  0.41542748  1
  O  O47  1  0.50109964  0.49890036  0.25000000  1
  O  O48  1  0.75109964  0.24890036  0.75000000  1
  O  O49  1  0.15791618  0.92257343  0.50997884  1
  O  O50  1  0.47112526  0.20594427  0.14111619  1
  O  O51  1  0.28001694  0.36023733  0.75390012  1
  O  O52  1  0.70855953  0.46182717  0.66291916  1
  O  O53  1  0.40695643  0.68831670  0.64828646  1
  O  O54  1  0.68309125  0.39911750  0.50660542  1
  O  O55  1  0.20109198  0.45435962  0.16291916  1
  O  O56  1  0.02732533  0.76768900  0.83101331  1
  O  O57  1  0.17226190  0.67179351  0.09465046  1
  O  O58  1  0.78705007  0.21294993  0.25000000  1
  O  O59  1  0.67648583  0.89251208  0.49339458  1
  O  O60  1  0.06332431  0.30368798  0.33101331  1
  O  O61  1  0.49890036  0.50109964  0.75000000  1
  O  O62  1  0.71998306  0.63976267  0.24609988  1
  O  O63  1  0.42285695  0.42238856  0.59465046  1
  O  O64  1  0.67179351  0.17226190  0.59465046  1
  O  O65  1  0.30435067  0.86960326  0.91542748  1
  O  O66  1  0.20594427  0.47112526  0.64111619  1
  O  O67  1  0.69564933  0.13039674  0.08457252  1
  O  O68  1  0.23231100  0.97267467  0.66898669  1
  O  O69  1  0.97388318  0.39366279  0.75390012  1
  O  O70  1  0.35096942  0.36096007  0.90466276  1
  O  O71  1  0.95996977  0.74133003  0.14828646  1
  O  O72  1  0.04003023  0.25866997  0.85171354  1
  O  O73  1  0.24890036  0.75109964  0.25000000  1
  O  O74  1  0.21294993  0.78705007  0.75000000  1
  O  O75  1  0.31690875  0.60088250  0.49339458  1
  O  O76  1  0.41259459  0.14793734  0.99002116  1
  O  O77  1  0.25866997  0.04003023  0.35171354  1
  O  O78  1  0.60633721  0.02611682  0.74609988  1
  O  O79  1  0.63903993  0.64903058  0.59533724  1
  O  O80  1  0.07742657  0.84208382  0.99002116  1
  O  O81  1  0.11107681  0.04582422  0.91542748  1
  O  O82  1  0.79405573  0.52887474  0.35888381  1
  O  O83  1  0.53817283  0.29144047  0.83708084  1
  O  O84  1  0.96294993  0.03705007  0.25000000  1
  O  O85  1  0.16999093  0.93517192  0.14111619  1
  O  O86  1  0.89251208  0.67648583  0.99339458  1
  O  O87  1  0.57761144  0.57714305  0.90534954  1
  O  O88  1  0.20154988  0.20010333  0.11742433  1
  O  O89  1  0.76768900  0.02732533  0.33101331  1
  O  O90  1  0.94630666  0.45629731  0.09533724  1
  O  O91  1  0.69631202  0.93667569  0.16898669  1
  O  O92  1  0.82773810  0.32820649  0.90534954  1
  O  O93  1  0.97267467  0.23231100  0.16898669  1
  O  O94  1  0.83000907  0.06482808  0.85888381  1
  O  O95  1  0.64903058  0.63903993  0.09533724  1
loop_
_geom_bond_atom_site_label_1
_geom_bond_atom_site_label_2
_geom_bond_distance
_geom_bond_site_symmetry_2
Nd0 O33 2.337766 1_655
Nd0 O58 2.360077 1_555
Nd0 O82 2.362593 1_555
Nd0 O12 2.442220 1_555
Nd0 O60 2.605773 1_655
Nd0 O93 2.634881 1_555
Nd0 O62 2.755339 1_555
Nd0 O6 2.761144 1_655
Nd1 O69 2.337766 1_455
Nd1 O74 2.360077 1_555
Nd1 O66 2.362593 1_555
Nd1 O35 2.442220 1_555
Nd1 O3 2.605773 1_455
Nd1 O56 2.634881 1_555
Nd1 O51 2.755339 1_555
Nd1 O7 2.761144 1_455
Nd2 O25 2.344342 1_555
Nd2 O9 2.344342 1_565
Nd2 O15 2.407775 1_556
Nd2 O19 2.407775 1_566
Nd2 O67 2.528049 1_566
Nd2 O21 2.528049 1_556
Nd2 O94 2.765017 1_565
Nd2 O38 2.765017 1_555
Nd3 O0 2.337766 1_545
Nd3 O58 2.360077 1_555
Nd3 O50 2.362593 1_555
Nd3 O24 2.442220 1_555
Nd3 O91 2.605773 1_545
Nd3 O89 2.634881 1_555
Nd3 O28 2.755339 1_555
Nd3 O13 2.761144 1_545
Nd4 O28 2.337766 1_555
Nd4 O84 2.360077 1_455
Nd4 O85 2.362593 1_545
Nd4 O77 2.442220 1_555
Nd4 O93 2.605773 1_455
Nd4 O60 2.634881 1_555
Nd4 O0 2.755339 1_545
Nd4 O88 2.761143 1_555
Nd5 O51 2.337766 1_555
Nd5 O42 2.360077 1_545
Nd5 O41 2.362594 1_455
Nd5 O72 2.442220 1_555
Nd5 O68 2.605773 1_545
Nd5 O44 2.634881 1_555
Nd5 O69 2.755339 1_455
Nd5 O36 2.761143 1_555
Nd6 O75 2.328726 1_555
Nd6 O59 2.328726 1_555
Nd6 O79 2.385119 1_555
Nd6 O5 2.385119 1_555
Nd6 O31 2.576608 1_555
Nd6 O22 2.576608 1_555
Nd7 O45 2.337766 1_555
Nd7 O42 2.360077 1_655
Nd7 O94 2.362593 1_565
Nd7 O14 2.442220 1_555
Nd7 O56 2.605773 1_655
Nd7 O3 2.634881 1_555
Nd7 O78 2.755339 1_565
Nd7 O25 2.761143 1_555
Nd8 O34 2.344342 1_555
Nd8 O6 2.344342 1_655
Nd8 O32 2.407775 1_555
Nd8 O49 2.407775 1_655
Nd8 O11 2.528049 1_555
Nd8 O18 2.528049 1_655
Nd8 O20 2.765017 1_655
Nd8 O82 2.765017 1_555
Nd9 O36 2.344342 1_555
Nd9 O7 2.344342 1_455
Nd9 O10 2.407775 1_555
Nd9 O2 2.407775 1_455
Nd9 O1 2.528049 1_555
Nd9 O46 2.528049 1_455
Nd9 O41 2.765017 1_455
Nd9 O66 2.765017 1_555
Nd10 O39 2.328726 1_554
Nd10 O86 2.328726 1_554
Nd10 O95 2.385119 1_555
Nd10 O90 2.385119 1_555
Nd10 O92 2.576608 1_554
Nd10 O87 2.576608 1_554
Nd11 O62 2.337766 1_555
Nd11 O84 2.360077 1_565
Nd11 O20 2.362594 1_655
Nd11 O71 2.442220 1_555
Nd11 O89 2.605773 1_565
Nd11 O91 2.634881 1_555
Nd11 O33 2.755339 1_655
Nd11 O34 2.761143 1_555
Nd12 O88 2.344342 1_555
Nd12 O13 2.344342 1_545
Nd12 O76 2.407775 1_554
Nd12 O80 2.407775 1_544
Nd12 O65 2.528049 1_544
Nd12 O81 2.528049 1_554
Nd12 O85 2.765017 1_545
Nd12 O50 2.765017 1_555
Nd13 O23 2.328726 1_556
Nd13 O26 2.328726 1_556
Nd13 O70 2.385119 1_555
Nd13 O27 2.385119 1_555
Nd13 O57 2.576608 1_556
Nd13 O16 2.576608 1_556
Nd14 O78 2.337766 1_565
Nd14 O74 2.360077 1_555
Nd14 O38 2.362593 1_555
Nd14 O53 2.442220 1_555
Nd14 O44 2.605773 1_565
Nd14 O68 2.634881 1_555
Nd14 O45 2.755339 1_555
Nd14 O9 2.761144 1_565
Nd15 O54 2.328726 1_555
Nd15 O30 2.328726 1_555
Nd15 O4 2.385119 1_555
Nd15 O43 2.385119 1_555
Nd15 O63 2.576608 1_555
Nd15 O64 2.576608 1_555
O0 Ti35 1.906626 1_555
O0 Ti12 1.942392 1_555
O1 Ti29 1.865720 1_545
O1 Ti11 1.908660 1_455
O2 Ti18 1.840031 1_545
O2 Ti16 2.038131 1_555
O3 Ti5 1.979674 1_555
O3 Ti22 2.029011 1_655
O4 Ti8 1.893104 1_555
O4 Ti9 1.981748 1_555
O5 Ti7 1.893104 1_565
O5 Ti25 1.981748 1_565
O6 Ti9 1.925270 1_555
O6 Ti28 2.024140 1_555
O7 Ti5 1.925270 1_555
O7 Ti33 2.024140 1_555
O8 Ti28 1.902985 1_555
O8 Ti8 1.917127 1_555
O8 Ti9 2.241481 1_555
O9 Ti26 1.925270 1_555
O9 Ti30 2.024140 1_555
O10 Ti9 1.840031 1_555
O10 Ti1 2.038131 1_555
O11 Ti16 1.865720 1_565
O11 Ti22 1.908660 1_655
O12 Ti2 1.884587 1_555
O12 Ti4 1.976882 1_555
O13 Ti13 1.925270 1_555
O13 Ti12 2.024140 1_555
O14 Ti16 1.884587 1_565
O14 Ti7 1.976882 1_565
O15 Ti13 1.840031 1_555
O15 Ti0 2.038131 1_554
O16 Ti4 1.958962 1_555
O16 Ti6 1.997147 1_555
O16 Ti2 2.305212 1_555
O17 Ti24 1.902985 1_555
O17 Ti3 1.917127 1_555
O17 Ti17 2.241481 1_555
O18 Ti1 1.865720 1_555
O18 Ti22 1.908660 1_555
O19 Ti32 1.840031 1_655
O19 Ti10 2.038131 1_554
O20 Ti29 1.972670 1_555
O20 Ti28 1.983047 1_555
O21 Ti20 1.865720 1_655
O21 Ti15 1.908660 1_565
O22 Ti35 1.958962 1_555
O22 Ti28 1.997147 1_555
O22 Ti29 2.305212 1_555
O23 Ti0 1.898193 1_554
O23 Ti13 2.024996 1_555
O24 Ti23 1.884587 1_555
O24 Ti8 1.976882 1_555
O25 Ti17 1.925270 1_555
O25 Ti24 2.024140 1_555
O26 Ti10 1.898194 1_454
O26 Ti32 2.024996 1_555
O27 Ti3 1.893104 1_455
O27 Ti17 1.981748 1_455
O28 Ti8 1.906626 1_555
O28 Ti6 1.942392 1_555
O29 Ti14 1.902985 1_555
O29 Ti35 1.917127 1_555
O29 Ti18 2.241481 1_555
O30 Ti29 1.898194 1_545
O30 Ti25 2.024996 1_555
O31 Ti8 1.958962 1_555
O31 Ti14 1.997147 1_555
O31 Ti23 2.305212 1_555
O32 Ti5 1.840031 1_555
O32 Ti23 2.038131 1_555
O33 Ti19 1.906626 1_555
O33 Ti28 1.942392 1_555
O34 Ti18 1.925270 1_555
O34 Ti14 2.024140 1_555
O35 Ti0 1.884587 1_555
O35 Ti21 1.976882 1_555
O36 Ti25 1.925270 1_555
O36 Ti34 2.024140 1_555
O37 Ti34 1.902985 1_555
O37 Ti7 1.917127 1_555
O37 Ti25 2.241481 1_555
O38 Ti0 1.972670 1_555
O38 Ti24 1.983047 1_555
O39 Ti2 1.898193 1_556
O39 Ti26 2.024996 1_555
O40 Ti12 1.902985 1_555
O40 Ti4 1.917127 1_555
O40 Ti13 2.241481 1_555
O41 Ti16 1.972670 1_555
O41 Ti33 1.983047 1_555
O42 Ti22 2.051903 1_555
O42 Ti27 2.051903 1_555
O43 Ti35 1.893104 1_545
O43 Ti18 1.981748 1_545
O44 Ti26 1.979674 1_555
O44 Ti27 2.029011 1_545
O45 Ti31 1.906626 1_555
O45 Ti24 1.942392 1_555
O46 Ti23 1.865720 1_555
O46 Ti11 1.908660 1_555
O47 Ti6 2.072711 1_555
O47 Ti14 2.072711 1_555
O47 Ti8 2.291940 1_555
O47 Ti4 2.291940 1_555
O48 Ti30 2.072711 1_555
O48 Ti33 2.072711 1_555
O48 Ti7 2.291940 1_555
O48 Ti3 2.291940 1_555
O49 Ti25 1.840031 1_565
O49 Ti29 2.038131 1_555
O50 Ti2 1.972670 1_555
O50 Ti6 1.983047 1_555
O51 Ti21 1.906626 1_555
O51 Ti34 1.942392 1_555
O52 Ti33 1.902985 1_555
O52 Ti31 1.917127 1_555
O52 Ti5 2.241481 1_555
O53 Ti1 1.884587 1_555
O53 Ti31 1.976882 1_555
O54 Ti23 1.898193 1_555
O54 Ti5 2.024996 1_555
O55 Ti6 1.902985 1_555
O55 Ti19 1.917127 1_555
O55 Ti32 2.241481 1_555
O56 Ti17 1.979673 1_455
O56 Ti27 2.029011 1_555
O57 Ti19 1.958962 1_555
O57 Ti12 1.997147 1_555
O57 Ti20 2.305212 1_555
O58 Ti15 2.051903 1_555
O58 Ti11 2.051903 1_555
O59 Ti16 1.898194 1_565
O59 Ti18 2.024996 1_555
O60 Ti9 1.979674 1_555
O60 Ti11 2.029011 1_455
O61 Ti24 2.072711 1_555
O61 Ti34 2.072711 1_555
O61 Ti31 2.291940 1_555
O61 Ti21 2.291940 1_555
O62 Ti4 1.906626 1_555
O62 Ti14 1.942392 1_555
O63 Ti31 1.958962 1_555
O63 Ti34 1.997147 1_555
O63 Ti1 2.305212 1_555
O64 Ti7 1.958962 1_555
O64 Ti33 1.997147 1_555
O64 Ti16 2.305212 1_555
O65 Ti0 1.865720 1_555
O65 Ti27 1.908660 1_555
O66 Ti1 1.972670 1_555
O66 Ti34 1.983047 1_555
O67 Ti2 1.865720 1_555
O67 Ti15 1.908660 1_555
O68 Ti25 1.979673 1_565
O68 Ti22 2.029011 1_555
O69 Ti3 1.906626 1_555
O69 Ti33 1.942392 1_555
O70 Ti21 1.893104 1_555
O70 Ti26 1.981748 1_555
O71 Ti20 1.884587 1_655
O71 Ti19 1.976882 1_655
O72 Ti10 1.884587 1_455
O72 Ti3 1.976882 1_455
O73 Ti12 2.072711 1_555
O73 Ti28 2.072711 1_555
O73 Ti35 2.291940 1_555
O73 Ti19 2.291940 1_555
O74 Ti27 2.051903 1_555
O74 Ti22 2.051903 1_555
O75 Ti1 1.898193 1_555
O75 Ti9 2.024996 1_555
O76 Ti26 1.840031 1_555
O76 Ti2 2.038131 1_556
O77 Ti29 1.884587 1_545
O77 Ti35 1.976882 1_545
O78 Ti7 1.906626 1_555
O78 Ti30 1.942392 1_555
O79 Ti31 1.893104 1_555
O79 Ti5 1.981748 1_555
O80 Ti17 1.840031 1_455
O80 Ti20 2.038131 1_556
O81 Ti10 1.865720 1_455
O81 Ti27 1.908660 1_545
O82 Ti23 1.972670 1_555
O82 Ti14 1.983047 1_555
O83 Ti30 1.902985 1_555
O83 Ti21 1.917127 1_555
O83 Ti26 2.241481 1_555
O84 Ti11 2.051903 1_555
O84 Ti15 2.051903 1_555
O85 Ti20 1.972671 1_555
O85 Ti12 1.983047 1_555
O86 Ti20 1.898194 1_656
O86 Ti17 2.024996 1_555
O87 Ti21 1.958962 1_555
O87 Ti24 1.997147 1_555
O87 Ti0 2.305212 1_555
O88 Ti32 1.925270 1_555
O88 Ti6 2.024140 1_555
O89 Ti18 1.979673 1_545
O89 Ti11 2.029011 1_555
O90 Ti19 1.893104 1_655
O90 Ti32 1.981748 1_655
O91 Ti13 1.979674 1_555
O91 Ti15 2.029011 1_565
O92 Ti3 1.958962 1_555
O92 Ti30 1.997147 1_555
O92 Ti10 2.305212 1_555
O93 Ti32 1.979673 1_655
O93 Ti15 2.029011 1_555
O94 Ti10 1.972671 1_555
O94 Ti30 1.983047 1_555
O95 Ti4 1.893104 1_555
O95 Ti13 1.981748 1_555
