# generated using pymatgen
data_BaLi(BS2)3
_symmetry_space_group_name_H-M   'P 1'
_cell_length_a   8.85948852
_cell_length_b   8.85948852
_cell_length_c   8.42972128
_cell_angle_alpha   66.24950612
_cell_angle_beta   66.24950612
_cell_angle_gamma   60.50892768
_symmetry_Int_Tables_number   1
_chemical_formula_structural   BaLi(BS2)3
_chemical_formula_sum   'Ba2 Li2 B6 S12'
_cell_volume   509.48999299
_cell_formula_units_Z   2
loop_
 _symmetry_equiv_pos_site_id
 _symmetry_equiv_pos_as_xyz
  1  'x, y, z'
loop_
 _atom_site_type_symbol
 _atom_site_label
 _atom_site_symmetry_multiplicity
 _atom_site_fract_x
 _atom_site_fract_y
 _atom_site_fract_z
 _atom_site_occupancy
  Ba  Ba0  1  0.38119600  0.13718700  0.97496700  1
  Ba  Ba1  1  0.13718700  0.38119600  0.47496700  1
  Li  Li0  1  0.70367600  0.49889000  0.93114000  1
  Li  Li1  1  0.49889000  0.70367600  0.43114000  1
  B  B0  1  0.75625600  0.84275800  0.54693600  1
  B  B1  1  0.84275800  0.75625600  0.04693600  1
  B  B2  1  0.01590400  0.02056100  0.44940800  1
  B  B3  1  0.02056100  0.01590400  0.94940800  1
  B  B4  1  0.61388700  0.24490200  0.52301700  1
  B  B5  1  0.24490200  0.61388700  0.02301700  1
  S  S0  1  0.43663500  0.42090400  0.08037400  1
  S  S1  1  0.83819100  0.24511200  0.43993700  1
  S  S2  1  0.81317700  0.98657700  0.00577200  1
  S  S3  1  0.05533800  0.56069400  0.06140300  1
  S  S4  1  0.72145800  0.64787800  0.58531500  1
  S  S5  1  0.42090400  0.43663500  0.58037400  1
  S  S6  1  0.56069400  0.05533800  0.56140300  1
  S  S7  1  0.98657700  0.81317700  0.50577200  1
  S  S8  1  0.23749300  0.00652600  0.40523200  1
  S  S9  1  0.00652600  0.23749300  0.90523200  1
  S  S10  1  0.64787800  0.72145800  0.08531500  1
  S  S11  1  0.24511200  0.83819100  0.93993700  1
loop_
_geom_bond_atom_site_label_1
_geom_bond_atom_site_label_2
_geom_bond_distance
_geom_bond_site_symmetry_2
Ba0 S9 3.224946 1_555
Ba0 S10 3.233542 1_546
Ba0 S8 3.235053 1_556
Ba0 S0 3.273382 1_556
Ba0 S5 3.330814 1_555
Ba0 S6 3.412295 1_555
Ba0 S2 3.462418 1_546
Ba0 S11 3.552318 1_545
Ba0 S3 3.575767 1_556
Ba1 S8 3.224946 1_555
Ba1 S4 3.233542 1_455
Ba1 S9 3.235053 1_555
Ba1 S5 3.273382 1_555
Ba1 S0 3.330814 1_555
Ba1 S3 3.412295 1_555
Ba1 S7 3.462418 1_455
Ba1 S1 3.552318 1_455
Ba1 S6 3.575767 1_555
Li0 S0 2.483755 1_556
Li0 S10 2.531532 1_556
Li0 S9 2.535239 1_655
Li0 S4 2.645900 1_555
Li1 S5 2.483755 1_555
Li1 S4 2.531532 1_555
Li1 S8 2.535239 1_565
Li1 S10 2.645900 1_555
B0 S4 1.781693 1_555
B0 S7 1.824615 1_555
B0 S6 1.834611 1_565
B1 S10 1.781693 1_555
B1 S2 1.824615 1_555
B1 S3 1.834611 1_655
B2 S8 1.793386 1_555
B2 S1 1.825488 1_455
B2 S7 1.826575 1_445
B3 S9 1.793386 1_555
B3 S11 1.825488 1_545
B3 S2 1.826575 1_446
B4 S5 1.782870 1_555
B4 S1 1.822377 1_555
B4 S6 1.834662 1_555
B5 S0 1.782870 1_555
B5 S11 1.822377 1_554
B5 S3 1.834662 1_555
