# generated using pymatgen
data_Cs2CuH12(SO7)2
_symmetry_space_group_name_H-M   'P 1'
_cell_length_a   12.85787000
_cell_length_b   6.35846600
_cell_length_c   9.52318886
_cell_angle_alpha   74.49385957
_cell_angle_beta   90.00000000
_cell_angle_gamma   90.00000000
_symmetry_Int_Tables_number   1
_chemical_formula_structural   Cs2CuH12(SO7)2
_chemical_formula_sum   'Cs4 Cu2 H24 S4 O28'
_cell_volume   750.24202405
_cell_formula_units_Z   2
loop_
 _symmetry_equiv_pos_site_id
 _symmetry_equiv_pos_as_xyz
  1  'x, y, z'
loop_
 _atom_site_type_symbol
 _atom_site_label
 _atom_site_symmetry_multiplicity
 _atom_site_fract_x
 _atom_site_fract_y
 _atom_site_fract_z
 _atom_site_occupancy
  Cs  Cs0  1  0.35508400  0.64746100  0.11200200  1
  Cs  Cs1  1  0.85508400  0.35253900  0.38799800  1
  Cs  Cs2  1  0.64491600  0.35253900  0.88799800  1
  Cs  Cs3  1  0.14491600  0.64746100  0.61200200  1
  Cu  Cu0  1  0.00000000  0.00000000  0.00000000  1
  Cu  Cu1  1  0.50000000  0.00000000  0.50000000  1
  H  H0  1  0.09604300  0.68854100  0.18946900  1
  H  H1  1  0.59604300  0.31145900  0.31053100  1
  H  H2  1  0.90395700  0.31145900  0.81053100  1
  H  H3  1  0.40395700  0.68854100  0.68946900  1
  H  H4  1  0.12755200  0.92231900  0.21771600  1
  H  H5  1  0.62755200  0.07768100  0.28228400  1
  H  H6  1  0.87244800  0.07768100  0.78228400  1
  H  H7  1  0.37244800  0.92231900  0.71771600  1
  H  H8  1  0.10005400  0.07677300  0.69938900  1
  H  H9  1  0.60005400  0.92322700  0.80061100  1
  H  H10  1  0.89994600  0.92322700  0.30061100  1
  H  H11  1  0.39994600  0.07677300  0.19938900  1
  H  H12  1  0.18638200  0.01415200  0.81985700  1
  H  H13  1  0.68638200  0.98584800  0.68014300  1
  H  H14  1  0.81361800  0.98584800  0.18014300  1
  H  H15  1  0.31361800  0.01415200  0.31985700  1
  H  H16  1  0.93728000  0.67650000  0.90511500  1
  H  H17  1  0.43728000  0.32350000  0.59488500  1
  H  H18  1  0.06272000  0.32350000  0.09488500  1
  H  H19  1  0.56272000  0.67650000  0.40511500  1
  H  H20  1  0.86347600  0.69781800  0.03505400  1
  H  H21  1  0.36347600  0.30218200  0.46494600  1
  H  H22  1  0.13652400  0.30218200  0.96494600  1
  H  H23  1  0.63652400  0.69781800  0.53505400  1
  S  S0  1  0.14781700  0.26360300  0.37600800  1
  S  S1  1  0.64781700  0.73639700  0.12399200  1
  S  S2  1  0.85218300  0.73639700  0.62399200  1
  S  S3  1  0.35218300  0.26360300  0.87600800  1
  O  O0  1  0.24378900  0.38398800  0.39624300  1
  O  O1  1  0.74378900  0.61601200  0.10375700  1
  O  O2  1  0.75621100  0.61601200  0.60375700  1
  O  O3  1  0.25621100  0.38398800  0.89624300  1
  O  O4  1  0.08270000  0.21669900  0.50953000  1
  O  O5  1  0.58270000  0.78330100  0.99047000  1
  O  O6  1  0.91730000  0.78330100  0.49047000  1
  O  O7  1  0.41730000  0.21669900  0.00953000  1
  O  O8  1  0.08620700  0.40419700  0.25113200  1
  O  O9  1  0.58620700  0.59580300  0.24886800  1
  O  O10  1  0.91379300  0.59580300  0.74886800  1
  O  O11  1  0.41379300  0.40419700  0.75113200  1
  O  O12  1  0.17727500  0.05522300  0.34028700  1
  O  O13  1  0.67727500  0.94477700  0.15971300  1
  O  O14  1  0.82272500  0.94477700  0.65971300  1
  O  O15  1  0.32272500  0.05522300  0.84028700  1
  O  O16  1  0.11140100  0.84544700  0.14152400  1
  O  O17  1  0.61140100  0.15455300  0.35847600  1
  O  O18  1  0.88859900  0.15455300  0.85847600  1
  O  O19  1  0.38859900  0.84544700  0.64152400  1
  O  O20  1  0.11295200  0.98551400  0.79949000  1
  O  O21  1  0.61295200  0.01448600  0.70051000  1
  O  O22  1  0.88704800  0.01448600  0.20051000  1
  O  O23  1  0.38704800  0.98551400  0.29949000  1
  O  O24  1  0.93733600  0.71418300  0.00064800  1
  O  O25  1  0.43733600  0.28581700  0.49935200  1
  O  O26  1  0.06266400  0.28581700  0.99935200  1
  O  O27  1  0.56266400  0.71418300  0.50064800  1
loop_
_geom_bond_atom_site_label_1
_geom_bond_atom_site_label_2
_geom_bond_distance
_geom_bond_site_symmetry_2
Cs0 H11 3.113128 1_565
Cs0 O0 3.123605 1_555
Cs0 O15 3.162892 1_564
Cs0 O23 3.166902 1_555
Cs0 O5 3.180623 1_554
Cs0 O9 3.226318 1_555
Cs0 O3 3.238074 1_554
Cs0 O7 3.243983 1_555
Cs0 O16 3.416182 1_555
Cs1 H10 3.113128 1_545
Cs1 O1 3.123605 1_555
Cs1 O14 3.162892 1_545
Cs1 O22 3.166902 1_555
Cs1 O4 3.180623 1_655
Cs1 O8 3.226318 1_655
Cs1 O2 3.238074 1_555
Cs1 O6 3.243983 1_555
Cs1 O17 3.416182 1_555
Cs2 H9 3.113128 1_545
Cs2 O2 3.123605 1_555
Cs2 O13 3.162892 1_546
Cs2 O21 3.166902 1_555
Cs2 O7 3.180623 1_556
Cs2 O11 3.226318 1_555
Cs2 O1 3.238074 1_556
Cs2 O5 3.243983 1_555
Cs2 O18 3.416182 1_555
Cs3 H8 3.113128 1_565
Cs3 O3 3.123605 1_555
Cs3 O12 3.162892 1_565
Cs3 O20 3.166902 1_555
Cs3 O6 3.180623 1_455
Cs3 O10 3.226318 1_455
Cs3 O0 3.238074 1_555
Cs3 O4 3.243983 1_555
Cs3 O19 3.416182 1_555
Cu0 O26 1.986460 1_554
Cu0 O24 1.986460 1_445
Cu0 O16 2.031190 1_545
Cu0 O18 2.031190 1_454
Cu0 O22 2.420317 1_455
Cu0 O20 2.420317 1_544
Cu1 O27 1.986460 1_545
Cu1 O25 1.986460 1_555
Cu1 O17 2.031190 1_555
Cu1 O19 2.031190 1_545
Cu1 O21 2.420317 1_555
Cu1 O23 2.420317 1_545
H0 O16 0.999636 1_555
H1 O17 0.999636 1_555
H2 O18 0.999636 1_555
H3 O19 0.999636 1_555
H4 O16 0.999076 1_555
H5 O17 0.999076 1_555
H6 O18 0.999076 1_555
H7 O19 0.999076 1_555
H8 O20 0.988531 1_545
H9 O21 0.988531 1_565
H10 O22 0.988531 1_565
H11 O23 0.988531 1_545
H12 O20 0.990499 1_545
H13 O21 0.990499 1_565
H14 O22 0.990499 1_565
H15 O23 0.990499 1_545
H16 O24 1.000832 1_556
H17 O25 1.000832 1_555
H18 O26 1.000832 1_554
H19 O27 1.000832 1_555
H20 O24 1.000926 1_555
H21 O25 1.000926 1_555
H22 O26 1.000926 1_555
H23 O27 1.000926 1_555
O0 S0 1.491537 1_555
O1 S1 1.491537 1_555
O2 S2 1.491537 1_555
O3 S3 1.491537 1_555
O4 S0 1.484603 1_555
O5 S1 1.484603 1_556
O6 S2 1.484603 1_555
O7 S3 1.484603 1_554
O8 S0 1.507487 1_555
O9 S1 1.507487 1_555
O10 S2 1.507487 1_555
O11 S3 1.507487 1_555
O12 S0 1.501914 1_555
O13 S1 1.501914 1_555
O14 S2 1.501914 1_555
O15 S3 1.501914 1_555
