# generated using pymatgen
data_NaLi2(RuO2)6
_symmetry_space_group_name_H-M   'P 1'
_cell_length_a   9.57319246
_cell_length_b   9.57319246
_cell_length_c   2.76461900
_cell_angle_alpha   90.00000000
_cell_angle_beta   90.00000000
_cell_angle_gamma   120.00000319
_symmetry_Int_Tables_number   1
_chemical_formula_structural   NaLi2(RuO2)6
_chemical_formula_sum   'Na1 Li2 Ru6 O12'
_cell_volume   219.42165501
_cell_formula_units_Z   1
loop_
 _symmetry_equiv_pos_site_id
 _symmetry_equiv_pos_as_xyz
  1  'x, y, z'
loop_
 _atom_site_type_symbol
 _atom_site_label
 _atom_site_symmetry_multiplicity
 _atom_site_fract_x
 _atom_site_fract_y
 _atom_site_fract_z
 _atom_site_occupancy
  Na  Na0  1  0.00000000  0.00000000  0.00000000  1
  Li  Li0  1  0.66666700  0.33333300  0.74919700  1
  Li  Li1  1  0.33333300  0.66666700  0.25080300  1
  Ru  Ru0  1  0.35830200  0.34188400  0.75013500  1
  Ru  Ru1  1  0.65811600  0.01641800  0.75013500  1
  Ru  Ru2  1  0.34188400  0.98358200  0.24986500  1
  Ru  Ru3  1  0.98358200  0.64169800  0.75013500  1
  Ru  Ru4  1  0.01641800  0.35830200  0.24986500  1
  Ru  Ru5  1  0.64169800  0.65811600  0.24986500  1
  O  O0  1  0.54365200  0.41075700  0.25125300  1
  O  O1  1  0.41075700  0.86710500  0.74874700  1
  O  O2  1  0.45634800  0.58924300  0.74874700  1
  O  O3  1  0.13289500  0.54365200  0.74874700  1
  O  O4  1  0.86710500  0.45634800  0.25125300  1
  O  O5  1  0.10639800  0.81207800  0.25146800  1
  O  O6  1  0.29432100  0.10639800  0.74853200  1
  O  O7  1  0.58924300  0.13289500  0.25125300  1
  O  O8  1  0.18792200  0.29432100  0.25146800  1
  O  O9  1  0.89360200  0.18792200  0.74853200  1
  O  O10  1  0.81207800  0.70567900  0.74853200  1
  O  O11  1  0.70567900  0.89360200  0.25146800  1
loop_
_geom_bond_atom_site_label_1
_geom_bond_atom_site_label_2
_geom_bond_distance
_geom_bond_site_symmetry_2
Na0 O9 2.567036 1_454
Na0 O5 2.567036 1_545
Na0 O8 2.567043 1_555
Na0 O10 2.567043 1_444
Na0 O6 2.567044 1_554
Na0 O11 2.567044 1_445
Li0 O7 2.168906 1_555
Li0 O4 2.168907 1_555
Li0 O0 2.168913 1_555
Li0 O7 2.176139 1_556
Li0 O4 2.176140 1_556
Li0 O0 2.176146 1_556
Li1 O1 2.168906 1_555
Li1 O3 2.168907 1_555
Li1 O2 2.168913 1_555
Li1 O1 2.176139 1_554
Li1 O3 2.176140 1_554
Li1 O2 2.176146 1_554
O0 Ru5 2.065395 1_555
O0 Ru0 2.077381 1_555
O0 Ru0 2.081491 1_554
O1 Ru1 2.065395 1_565
O1 Ru2 2.077381 1_555
O1 Ru2 2.081491 1_556
O2 Ru0 2.065395 1_555
O2 Ru5 2.077381 1_555
O2 Ru5 2.081491 1_556
O3 Ru3 2.065395 1_455
O3 Ru4 2.077381 1_555
O3 Ru4 2.081491 1_556
O4 Ru4 2.065395 1_655
O4 Ru3 2.077381 1_555
O4 Ru3 2.081491 1_554
O5 Ru3 2.006407 1_455
O5 Ru3 2.011478 1_454
O5 Ru2 2.019029 1_555
O6 Ru2 2.006402 1_545
O6 Ru2 2.011473 1_546
O6 Ru0 2.019032 1_555
O7 Ru2 2.065395 1_545
O7 Ru1 2.077381 1_555
O7 Ru1 2.081491 1_554
O8 Ru0 2.006408 1_555
O8 Ru0 2.011480 1_554
O8 Ru4 2.019022 1_555
O9 Ru4 2.006407 1_655
O9 Ru4 2.011478 1_656
O9 Ru1 2.019029 1_555
O10 Ru5 2.006408 1_555
O10 Ru5 2.011480 1_556
O10 Ru3 2.019022 1_555
O11 Ru1 2.006402 1_565
O11 Ru1 2.011473 1_564
O11 Ru5 2.019032 1_555
