# generated using pymatgen
data_Nd2Fe12P7
_symmetry_space_group_name_H-M   'P 1'
_cell_length_a   9.17854615
_cell_length_b   9.17810770
_cell_length_c   3.68746501
_cell_angle_alpha   90.00000000
_cell_angle_beta   90.00000000
_cell_angle_gamma   119.99747572
_symmetry_Int_Tables_number   1
_chemical_formula_structural   Nd2Fe12P7
_chemical_formula_sum   'Nd2 Fe12 P7'
_cell_volume   269.02747246
_cell_formula_units_Z   1
loop_
 _symmetry_equiv_pos_site_id
 _symmetry_equiv_pos_as_xyz
  1  'x, y, z'
loop_
 _atom_site_type_symbol
 _atom_site_label
 _atom_site_symmetry_multiplicity
 _atom_site_fract_x
 _atom_site_fract_y
 _atom_site_fract_z
 _atom_site_occupancy
  Nd  Nd0  1  0.66663164  0.33336372  0.00000000  1
  Nd  Nd1  1  0.33330870  0.66662991  0.50000000  1
  Fe  Fe0  1  0.05218208  0.61786307  -0.00000000  1
  Fe  Fe1  1  0.56567937  0.94784076  -0.00000000  1
  Fe  Fe2  1  0.38212359  0.43431914  0.00000000  1
  Fe  Fe3  1  0.27912458  0.11938815  0.00000000  1
  Fe  Fe4  1  0.84035315  0.72095525  -0.00000000  1
  Fe  Fe5  1  0.88056698  0.15965354  0.00000000  1
  Fe  Fe6  1  0.41905471  0.05018900  0.50000000  1
  Fe  Fe7  1  0.63117313  0.58098158  0.50000000  1
  Fe  Fe8  1  0.94980227  0.36883190  0.50000000  1
  Fe  Fe9  1  0.09019740  0.87433396  0.50000000  1
  Fe  Fe10  1  0.78410130  0.90982958  0.50000000  1
  Fe  Fe11  1  0.12567312  0.21580663  0.50000000  1
  P  P0  1  0.28639623  0.87839575  -0.00000000  1
  P  P1  1  0.59201754  0.71360803  -0.00000000  1
  P  P2  1  0.12158081  0.40795101  -0.00000000  1
  P  P3  1  0.40504935  0.30659452  0.50000000  1
  P  P4  1  0.90155531  0.59495320  0.50000000  1
  P  P5  1  0.69338925  0.09849545  0.50000000  1
  P  P6  1  0.00004047  0.00001586  0.00000000  1
loop_
_geom_bond_atom_site_label_1
_geom_bond_atom_site_label_2
_geom_bond_distance
_geom_bond_site_symmetry_2
Nd0 P3 2.938436 1_555
Nd0 P3 2.938436 1_554
Nd0 P5 2.938683 1_555
Nd0 P5 2.938683 1_554
Nd0 P4 2.938800 1_554
Nd0 P4 2.938800 1_555
Nd1 P2 2.863423 1_556
Nd1 P2 2.863423 1_555
Nd1 P0 2.863426 1_556
Nd1 P0 2.863426 1_555
Nd1 P1 2.863578 1_556
Nd1 P1 2.863578 1_555
Fe0 P4 2.250396 1_455
Fe0 P4 2.250396 1_454
Fe0 P0 2.280166 1_555
Fe0 P2 2.311844 1_555
Fe0 Nd1 3.017113 1_555
Fe0 Nd1 3.017113 1_554
Fe0 Nd0 3.178297 1_455
Fe1 P5 2.250470 1_565
Fe1 P5 2.250470 1_564
Fe1 P1 2.280309 1_555
Fe1 P0 2.311624 1_555
Fe1 Nd1 3.017516 1_554
Fe1 Nd1 3.017516 1_555
Fe1 Nd0 3.178091 1_565
Fe2 P3 2.250445 1_554
Fe2 P3 2.250445 1_555
Fe2 P2 2.280062 1_555
Fe2 P1 2.311765 1_555
Fe2 Nd1 3.016871 1_554
Fe2 Nd1 3.016871 1_555
Fe2 Nd0 3.177619 1_555
Fe3 P6 2.226163 1_555
Fe3 P0 2.245967 1_545
Fe3 P3 2.387822 1_554
Fe3 P3 2.387822 1_555
Fe3 Nd0 3.085905 1_555
Fe4 P6 2.225878 1_665
Fe4 P1 2.246405 1_555
Fe4 P4 2.387865 1_555
Fe4 P4 2.387865 1_554
Fe4 Nd0 3.086331 1_555
Fe5 P6 2.226167 1_655
Fe5 P2 2.246358 1_655
Fe5 P5 2.387831 1_555
Fe5 P5 2.387831 1_554
Fe5 Nd0 3.086760 1_555
Fe6 P5 2.328209 1_555
Fe6 P0 2.334164 1_545
Fe6 P0 2.334164 1_546
Fe6 P3 2.420149 1_555
Fe6 Nd0 3.067972 1_555
Fe6 Nd0 3.067972 1_556
Fe6 Nd1 3.200291 1_545
Fe7 P3 2.328807 1_555
Fe7 P1 2.334025 1_556
Fe7 P1 2.334025 1_555
Fe7 P4 2.420153 1_555
Fe7 Nd0 3.067551 1_556
Fe7 Nd0 3.067551 1_555
Fe7 Nd1 3.200229 1_555
Fe8 P4 2.328567 1_555
Fe8 P2 2.334122 1_655
Fe8 P2 2.334122 1_656
Fe8 P5 2.419958 1_555
Fe8 Nd0 3.068321 1_555
Fe8 Nd0 3.068321 1_556
Fe8 Nd1 3.200130 1_655
Fe9 P4 2.265736 1_455
Fe9 P6 2.523730 1_566
Fe9 P6 2.523730 1_565
Fe9 P0 2.564481 1_556
Fe9 P0 2.564481 1_555
Fe10 P5 2.265674 1_565
Fe10 P6 2.524360 1_666
Fe10 P6 2.524360 1_665
Fe10 P1 2.564406 1_555
Fe10 P1 2.564406 1_556
Fe11 P3 2.265668 1_555
Fe11 P6 2.523486 1_555
Fe11 P6 2.523486 1_556
Fe11 P2 2.564567 1_555
Fe11 P2 2.564567 1_556
