# generated using pymatgen
data_TbInPt
_symmetry_space_group_name_H-M   'P 1'
_cell_length_a   7.64541455
_cell_length_b   7.64541536
_cell_length_c   3.86559646
_cell_angle_alpha   90.00000000
_cell_angle_beta   90.00000000
_cell_angle_gamma   120.00000860
_symmetry_Int_Tables_number   1
_chemical_formula_structural   TbInPt
_chemical_formula_sum   'Tb3 In3 Pt3'
_cell_volume   195.68125830
_cell_formula_units_Z   3
loop_
 _symmetry_equiv_pos_site_id
 _symmetry_equiv_pos_as_xyz
  1  'x, y, z'
loop_
 _atom_site_type_symbol
 _atom_site_label
 _atom_site_symmetry_multiplicity
 _atom_site_fract_x
 _atom_site_fract_y
 _atom_site_fract_z
 _atom_site_occupancy
  Tb  Tb0  1  0.40634671  1.00000000  0.00000000  1
  Tb  Tb1  1  1.00000000  0.40634671  0.00000000  1
  Tb  Tb2  1  0.59365329  0.59365329  -0.00000000  1
  In  In0  1  0.26016571  0.26016571  0.50000000  1
  In  In1  1  0.00000000  0.73983429  0.50000000  1
  In  In2  1  0.73983429  0.00000000  0.50000000  1
  Pt  Pt0  1  0.00000000  -0.00000000  -0.00000000  1
  Pt  Pt1  1  0.66666700  0.33333300  0.50000000  1
  Pt  Pt2  1  0.33333300  0.66666700  0.50000000  1
loop_
_geom_bond_atom_site_label_1
_geom_bond_atom_site_label_2
_geom_bond_distance
_geom_bond_site_symmetry_2
In0 Pt0 2.773468 1_556
In0 Pt0 2.773468 1_555
In0 Pt1 2.869365 1_555
In0 Pt2 2.869366 1_555
In0 Tb2 3.199442 1_555
In0 Tb2 3.199442 1_556
In0 Tb1 3.341288 1_455
In0 Tb1 3.341288 1_456
In0 Tb0 3.341289 1_545
In0 Tb0 3.341289 1_546
In1 Pt0 2.773469 1_565
In1 Pt0 2.773469 1_566
In1 Pt2 2.869358 1_555
In1 Pt1 2.869363 1_455
In1 Tb1 3.199442 1_456
In1 Tb1 3.199442 1_455
In1 Tb0 3.341288 1_555
In1 Tb0 3.341288 1_556
In1 Tb2 3.341288 1_456
In1 Tb2 3.341288 1_455
In2 Pt0 2.773468 1_656
In2 Pt0 2.773468 1_655
In2 Pt1 2.869358 1_555
In2 Pt2 2.869363 1_545
In2 Tb0 3.199442 1_546
In2 Tb0 3.199442 1_545
In2 Tb1 3.341288 1_555
In2 Tb1 3.341288 1_556
In2 Tb2 3.341288 1_546
In2 Tb2 3.341288 1_545
Pt0 Tb2 3.106689 1_445
Pt0 Tb0 3.106689 1_545
Pt0 Tb1 3.106689 1_455
Pt1 Tb1 3.019835 1_556
Pt1 Tb1 3.019835 1_555
Pt1 Tb0 3.019837 1_545
Pt1 Tb0 3.019837 1_546
Pt1 Tb2 3.019841 1_555
Pt1 Tb2 3.019841 1_556
Pt2 Tb0 3.019836 1_555
Pt2 Tb0 3.019836 1_556
Pt2 Tb1 3.019837 1_456
Pt2 Tb1 3.019837 1_455
Pt2 Tb2 3.019841 1_555
Pt2 Tb2 3.019841 1_556
