# generated using pymatgen
data_LiB(CO2)4
_symmetry_space_group_name_H-M   'P 1'
_cell_length_a   6.53195600
_cell_length_b   7.66581400
_cell_length_c   13.46607900
_cell_angle_alpha   90.00000000
_cell_angle_beta   90.00000000
_cell_angle_gamma   90.00000000
_symmetry_Int_Tables_number   1
_chemical_formula_structural   LiB(CO2)4
_chemical_formula_sum   'Li4 B4 C16 O32'
_cell_volume   674.28373857
_cell_formula_units_Z   4
loop_
 _symmetry_equiv_pos_site_id
 _symmetry_equiv_pos_as_xyz
  1  'x, y, z'
loop_
 _atom_site_type_symbol
 _atom_site_label
 _atom_site_symmetry_multiplicity
 _atom_site_fract_x
 _atom_site_fract_y
 _atom_site_fract_z
 _atom_site_occupancy
  Li  Li0  1  0.97237700  0.75000000  0.81812400  1
  Li  Li1  1  0.02762300  0.25000000  0.18187600  1
  Li  Li2  1  0.52762300  0.25000000  0.31812400  1
  Li  Li3  1  0.47237700  0.75000000  0.68187600  1
  B  B0  1  0.09659700  0.25000000  0.54201600  1
  B  B1  1  0.40340300  0.75000000  0.04201600  1
  B  B2  1  0.90340200  0.75000000  0.45798400  1
  B  B3  1  0.59659800  0.25000000  0.95798400  1
  C  C0  1  0.41925700  0.25000000  0.10541600  1
  C  C1  1  0.14578200  0.64868700  0.14385100  1
  C  C2  1  0.64578200  0.85131300  0.35614900  1
  C  C3  1  0.85421800  0.35131300  0.85614900  1
  C  C4  1  0.85421800  0.14868700  0.85614900  1
  C  C5  1  0.14578200  0.85131300  0.14385100  1
  C  C6  1  0.73164900  0.75000000  0.98134800  1
  C  C7  1  0.64578200  0.64868700  0.35614900  1
  C  C8  1  0.76835100  0.25000000  0.48134800  1
  C  C9  1  0.58074300  0.75000000  0.89458400  1
  C  C10  1  0.26835100  0.25000000  0.01865200  1
  C  C11  1  0.23164900  0.75000000  0.51865200  1
  C  C12  1  0.91925700  0.25000000  0.39458400  1
  C  C13  1  0.35421800  0.35131300  0.64385100  1
  C  C14  1  0.08074300  0.75000000  0.60541600  1
  C  C15  1  0.35421800  0.14868700  0.64385100  1
  O  O0  1  0.10716000  0.25000000  0.42971800  1
  O  O1  1  0.70086700  0.40240600  0.91578800  1
  O  O2  1  0.91797400  0.75000000  0.97087900  1
  O  O3  1  0.29913300  0.90240600  0.08421200  1
  O  O4  1  0.96956400  0.44880200  0.81204800  1
  O  O5  1  0.53043600  0.94880200  0.31204800  1
  O  O6  1  0.60716000  0.25000000  0.07028200  1
  O  O7  1  0.13456200  0.75000000  0.69289300  1
  O  O8  1  0.63456200  0.75000000  0.80710700  1
  O  O9  1  0.62699000  0.75000000  0.06501200  1
  O  O10  1  0.89284000  0.75000000  0.57028200  1
  O  O11  1  0.46956400  0.05119800  0.68795200  1
  O  O12  1  0.79913300  0.90240600  0.41578800  1
  O  O13  1  0.12699000  0.75000000  0.43498800  1
  O  O14  1  0.08202600  0.25000000  0.02912100  1
  O  O15  1  0.39284000  0.75000000  0.92971800  1
  O  O16  1  0.70086700  0.09759400  0.91578800  1
  O  O17  1  0.03043600  0.94880200  0.18795200  1
  O  O18  1  0.20086700  0.09759400  0.58421200  1
  O  O19  1  0.36543800  0.25000000  0.19289300  1
  O  O20  1  0.03043600  0.55119800  0.18795200  1
  O  O21  1  0.37301000  0.25000000  0.93498800  1
  O  O22  1  0.87301000  0.25000000  0.56501200  1
  O  O23  1  0.29913300  0.59759400  0.08421200  1
  O  O24  1  0.46956400  0.44880200  0.68795200  1
  O  O25  1  0.41797400  0.75000000  0.52912100  1
  O  O26  1  0.53043600  0.55119800  0.31204800  1
  O  O27  1  0.58202600  0.25000000  0.47087900  1
  O  O28  1  0.86543800  0.25000000  0.30710700  1
  O  O29  1  0.20086700  0.40240600  0.58421200  1
  O  O30  1  0.79913300  0.59759400  0.41578800  1
  O  O31  1  0.96956400  0.05119800  0.81204800  1
loop_
_geom_bond_atom_site_label_1
_geom_bond_atom_site_label_2
_geom_bond_distance
_geom_bond_site_symmetry_2
Li0 O7 1.991518 1_655
Li0 O2 2.087480 1_555
Li0 O8 2.211574 1_555
Li0 O4 2.310450 1_555
Li0 O31 2.310450 1_565
Li1 O28 1.991518 1_455
Li1 O14 2.087480 1_555
Li1 O19 2.211574 1_555
Li1 O20 2.310450 1_555
Li1 O17 2.310450 1_545
Li2 O19 1.991518 1_555
Li2 O27 2.087480 1_555
Li2 O28 2.211574 1_555
Li2 O26 2.310450 1_555
Li2 O5 2.310450 1_545
Li3 O8 1.991518 1_555
Li3 O25 2.087480 1_555
Li3 O7 2.211574 1_555
Li3 O24 2.310450 1_555
Li3 O11 2.310450 1_565
B0 O29 1.466871 1_555
B0 O18 1.466871 1_555
B0 O22 1.492929 1_455
B0 O0 1.513787 1_555
B1 O3 1.466871 1_555
B1 O23 1.466871 1_555
B1 O9 1.492929 1_555
B1 O15 1.513787 1_554
B2 O12 1.466868 1_555
B2 O30 1.466868 1_555
B2 O13 1.492936 1_655
B2 O10 1.513787 1_555
B3 O16 1.466868 1_555
B3 O1 1.466868 1_555
B3 O21 1.492936 1_555
B3 O6 1.513787 1_556
C0 O19 1.229309 1_555
C0 O6 1.315404 1_555
C1 O20 1.216079 1_555
C1 O23 1.342292 1_555
C2 O5 1.216079 1_555
C2 O12 1.342292 1_555
C3 O4 1.216079 1_555
C3 O1 1.342292 1_555
C4 O31 1.216079 1_555
C4 O16 1.342292 1_555
C5 O17 1.216079 1_555
C5 O3 1.342292 1_555
C6 O2 1.225204 1_555
C6 O9 1.317814 1_556
C7 O26 1.216079 1_555
C7 O30 1.342292 1_555
C8 O27 1.225204 1_555
C8 O22 1.317814 1_555
C9 O8 1.229309 1_555
C9 O15 1.315404 1_555
C10 O14 1.225204 1_555
C10 O21 1.317814 1_554
C11 O25 1.225204 1_555
C11 O13 1.317814 1_555
C12 O28 1.229309 1_555
C12 O0 1.315404 1_655
C13 O24 1.216079 1_555
C13 O29 1.342292 1_555
C14 O7 1.229309 1_555
C14 O10 1.315404 1_455
C15 O11 1.216079 1_555
C15 O18 1.342292 1_555
