# generated using pymatgen
data_Rb2Cu(BrCl)2
_symmetry_space_group_name_H-M   'P 1'
_cell_length_a   9.05374861
_cell_length_b   9.05374861
_cell_length_c   7.31605700
_cell_angle_alpha   90.00000000
_cell_angle_beta   90.00000000
_cell_angle_gamma   132.35207279
_symmetry_Int_Tables_number   1
_chemical_formula_structural   Rb2Cu(BrCl)2
_chemical_formula_sum   'Rb4 Cu2 Br4 Cl4'
_cell_volume   443.18966329
_cell_formula_units_Z   2
loop_
 _symmetry_equiv_pos_site_id
 _symmetry_equiv_pos_as_xyz
  1  'x, y, z'
loop_
 _atom_site_type_symbol
 _atom_site_label
 _atom_site_symmetry_multiplicity
 _atom_site_fract_x
 _atom_site_fract_y
 _atom_site_fract_z
 _atom_site_occupancy
  Rb  Rb0  1  0.86683200  0.13316800  0.50000000  1
  Rb  Rb1  1  0.36683200  0.63316800  0.00000000  1
  Rb  Rb2  1  0.13316800  0.86683200  0.50000000  1
  Rb  Rb3  1  0.63316800  0.36683200  0.00000000  1
  Cu  Cu0  1  0.00000000  0.00000000  0.00000000  1
  Cu  Cu1  1  0.50000000  0.50000000  0.50000000  1
  Br  Br0  1  0.84544200  0.15455800  0.00000000  1
  Br  Br1  1  0.15455800  0.84544200  0.00000000  1
  Br  Br2  1  0.34544200  0.65455800  0.50000000  1
  Br  Br3  1  0.65455800  0.34544200  0.50000000  1
  Cl  Cl0  1  0.78140100  0.78140100  0.21858000  1
  Cl  Cl1  1  0.21859900  0.21859900  0.78142000  1
  Cl  Cl2  1  0.28140100  0.28140100  0.28142000  1
  Cl  Cl3  1  0.71859900  0.71859900  0.71858000  1
loop_
_geom_bond_atom_site_label_1
_geom_bond_atom_site_label_2
_geom_bond_distance
_geom_bond_site_symmetry_2
Br0 Cu0 2.560187 1_655
Br0 Rb3 3.516228 1_555
Br0 Rb1 3.674186 1_655
Br0 Rb1 3.674186 1_545
Br0 Rb0 3.675148 1_555
Br0 Rb0 3.675148 1_554
Br1 Cu0 2.560187 1_565
Br1 Rb1 3.516228 1_555
Br1 Rb3 3.674186 1_565
Br1 Rb3 3.674186 1_455
Br1 Rb2 3.675148 1_555
Br1 Rb2 3.675148 1_554
Br2 Cu1 2.560187 1_555
Br2 Rb2 3.516228 1_555
Br2 Rb0 3.674186 1_455
Br2 Rb0 3.674186 1_565
Br2 Rb1 3.675148 1_555
Br2 Rb1 3.675148 1_556
Br3 Cu1 2.560187 1_555
Br3 Rb0 3.516228 1_555
Br3 Rb2 3.674186 1_655
Br3 Rb2 3.674186 1_545
Br3 Rb3 3.675148 1_556
Br3 Rb3 3.675148 1_555
Cl0 Cu0 2.261330 1_665
Cl0 Cu1 2.911220 1_555
Cl0 Rb1 3.414575 1_555
Cl0 Rb3 3.414575 1_555
Cl0 Rb2 3.414854 1_655
Cl0 Rb0 3.414854 1_565
Cl1 Cu0 2.261330 1_556
Cl1 Cu1 2.911220 1_555
Cl1 Rb3 3.414575 1_556
Cl1 Rb1 3.414575 1_556
Cl1 Rb2 3.414854 1_545
Cl1 Rb0 3.414854 1_455
Cl2 Cu1 2.261330 1_555
Cl2 Cu0 2.911220 1_555
Cl2 Rb0 3.414575 1_455
Cl2 Rb2 3.414575 1_545
Cl2 Rb1 3.414854 1_555
Cl2 Rb3 3.414854 1_555
Cl3 Cu1 2.261330 1_555
Cl3 Cu0 2.911220 1_666
Cl3 Rb2 3.414575 1_655
Cl3 Rb0 3.414575 1_565
Cl3 Rb3 3.414854 1_556
Cl3 Rb1 3.414854 1_556
