# generated using pymatgen
data_U2CoO6
_symmetry_space_group_name_H-M   'P 1'
_cell_length_a   9.12145187
_cell_length_b   9.12145187
_cell_length_c   5.05357000
_cell_angle_alpha   90.00000000
_cell_angle_beta   90.00000000
_cell_angle_gamma   119.99999905
_symmetry_Int_Tables_number   1
_chemical_formula_structural   U2CoO6
_chemical_formula_sum   'U6 Co3 O18'
_cell_volume   364.13033718
_cell_formula_units_Z   3
loop_
 _symmetry_equiv_pos_site_id
 _symmetry_equiv_pos_as_xyz
  1  'x, y, z'
loop_
 _atom_site_type_symbol
 _atom_site_label
 _atom_site_symmetry_multiplicity
 _atom_site_fract_x
 _atom_site_fract_y
 _atom_site_fract_z
 _atom_site_occupancy
  U  U0  1  0.65378600  0.00000000  0.00000000  1
  U  U1  1  0.00000000  0.32073900  0.50000000  1
  U  U2  1  0.67926100  0.67926100  0.50000000  1
  U  U3  1  0.32073900  0.00000000  0.50000000  1
  U  U4  1  0.34621400  0.34621400  0.00000000  1
  U  U5  1  0.00000000  0.65378600  0.00000000  1
  Co  Co0  1  0.66666700  0.33333300  0.49556100  1
  Co  Co1  1  0.33333300  0.66666700  0.50443900  1
  Co  Co2  1  0.00000000  0.00000000  0.00000000  1
  O  O0  1  0.54684000  0.10653300  0.25911600  1
  O  O1  1  0.77231100  0.89165700  0.76911400  1
  O  O2  1  0.22311300  0.43978800  0.26791400  1
  O  O3  1  0.78332500  0.56021200  0.73208600  1
  O  O4  1  0.10834300  0.88065500  0.76911400  1
  O  O5  1  0.77688700  0.21667500  0.73208600  1
  O  O6  1  0.21667500  0.77688700  0.26791400  1
  O  O7  1  0.11934500  0.22768900  0.76911400  1
  O  O8  1  0.55969300  0.45316000  0.25911600  1
  O  O9  1  0.89165700  0.77231100  0.23088600  1
  O  O10  1  0.89346700  0.44030700  0.25911600  1
  O  O11  1  0.88065500  0.10834300  0.23088600  1
  O  O12  1  0.56021200  0.78332500  0.26791400  1
  O  O13  1  0.45316000  0.55969300  0.74088400  1
  O  O14  1  0.10653300  0.54684000  0.74088400  1
  O  O15  1  0.22768900  0.11934500  0.23088600  1
  O  O16  1  0.43978800  0.22311300  0.73208600  1
  O  O17  1  0.44030700  0.89346700  0.74088400  1
loop_
_geom_bond_atom_site_label_1
_geom_bond_atom_site_label_2
_geom_bond_distance
_geom_bond_site_symmetry_2
Co0 O10 2.154294 1_555
Co0 O0 2.154294 1_555
Co0 O8 2.154300 1_555
Co0 O5 2.154433 1_555
Co0 O3 2.154440 1_555
Co0 O16 2.154440 1_555
Co1 O17 2.154294 1_555
Co1 O14 2.154294 1_555
Co1 O13 2.154300 1_555
Co1 O6 2.154433 1_555
Co1 O12 2.154440 1_555
Co1 O2 2.154440 1_555
Co2 O11 2.144505 1_455
Co2 O4 2.144505 1_544
Co2 O15 2.144511 1_555
Co2 O7 2.144511 1_554
Co2 O9 2.144512 1_445
Co2 O1 2.144512 1_444
O0 U0 2.135063 1_555
O0 U3 2.162276 1_555
O1 U0 2.138991 1_566
O1 U2 2.163092 1_555
O2 U1 2.118147 1_555
O2 U4 2.186511 1_555
O3 U2 2.118147 1_555
O3 U5 2.186511 1_656
O4 U5 2.138997 1_556
O4 U3 2.163092 1_565
O5 U1 2.118147 1_655
O5 U0 2.186511 1_556
O6 U3 2.118147 1_565
O6 U5 2.186511 1_555
O7 U4 2.138997 1_556
O7 U1 2.163086 1_555
O8 U4 2.135063 1_555
O8 U2 2.162276 1_555
O9 U5 2.138991 1_655
O9 U2 2.163092 1_555
O10 U5 2.135063 1_655
O10 U1 2.162276 1_655
O11 U0 2.138997 1_555
O11 U1 2.163092 1_655
O12 U2 2.118147 1_555
O12 U0 2.186511 1_565
O13 U4 2.135063 1_556
O13 U2 2.162276 1_555
O14 U5 2.135063 1_556
O14 U1 2.162276 1_555
O15 U4 2.138997 1_555
O15 U3 2.163086 1_555
O16 U3 2.118147 1_555
O16 U4 2.186511 1_556
O17 U0 2.135063 1_566
O17 U3 2.162276 1_565
