# generated using pymatgen
data_OsN2
_symmetry_space_group_name_H-M   'P 1'
_cell_length_a   4.93601300
_cell_length_b   4.94395900
_cell_length_c   4.97620509
_cell_angle_alpha   67.09214514
_cell_angle_beta   90.00000000
_cell_angle_gamma   90.00000000
_symmetry_Int_Tables_number   1
_chemical_formula_structural   OsN2
_chemical_formula_sum   'Os4 N8'
_cell_volume   111.85909990
_cell_formula_units_Z   4
loop_
 _symmetry_equiv_pos_site_id
 _symmetry_equiv_pos_as_xyz
  1  'x, y, z'
loop_
 _atom_site_type_symbol
 _atom_site_label
 _atom_site_symmetry_multiplicity
 _atom_site_fract_x
 _atom_site_fract_y
 _atom_site_fract_z
 _atom_site_occupancy
  Os  Os0  1  0.49919700  0.76516700  0.72462400  1
  Os  Os1  1  0.50080300  0.23483300  0.27537600  1
  Os  Os2  1  0.99919700  0.23483300  0.77537600  1
  Os  Os3  1  0.00080300  0.76516700  0.22462400  1
  N  N0  1  0.40329400  0.19201400  0.69299800  1
  N  N1  1  0.09670600  0.19201400  0.19299800  1
  N  N2  1  0.09438200  0.67869300  0.67585200  1
  N  N3  1  0.40561800  0.67869300  0.17585200  1
  N  N4  1  0.90561800  0.32130700  0.32414800  1
  N  N5  1  0.59438200  0.32130700  0.82414800  1
  N  N6  1  0.90329400  0.80798600  0.80700200  1
  N  N7  1  0.59670600  0.80798600  0.30700200  1
loop_
_geom_bond_atom_site_label_1
_geom_bond_atom_site_label_2
_geom_bond_distance
_geom_bond_site_symmetry_2
N0 N5 1.431414 1_555
N0 Os1 2.062227 1_555
N0 Os2 2.063724 1_455
N0 Os0 2.108015 1_545
N1 N4 1.431414 1_455
N1 Os2 2.062227 1_454
N1 Os1 2.063724 1_555
N1 Os3 2.108015 1_545
N2 N6 1.431414 1_455
N2 Os0 2.077294 1_555
N2 Os2 2.106052 1_455
N2 Os3 2.165788 1_555
N3 N7 1.431414 1_555
N3 Os3 2.077294 1_555
N3 Os1 2.106052 1_555
N3 Os0 2.165788 1_554
N4 Os1 2.077294 1_555
N4 Os3 2.106052 1_655
N4 Os2 2.165788 1_555
N5 Os2 2.077294 1_555
N5 Os0 2.106052 1_555
N5 Os1 2.165788 1_556
N6 Os3 2.062227 1_656
N6 Os0 2.063724 1_555
N6 Os2 2.108015 1_565
N7 Os0 2.062227 1_555
N7 Os3 2.063724 1_655
N7 Os1 2.108015 1_565
