# generated using pymatgen
data_Na16(WO3)19
_symmetry_space_group_name_H-M   'P 1'
_cell_length_a   74.22973369
_cell_length_b   5.52322996
_cell_length_c   5.52323014
_cell_angle_alpha   59.99767381
_cell_angle_beta   44.99698583
_cell_angle_gamma   44.99698405
_symmetry_Int_Tables_number   1
_chemical_formula_structural   Na16(WO3)19
_chemical_formula_sum   'Na16 W19 O57'
_cell_volume   1132.10957121
_cell_formula_units_Z   1
loop_
 _symmetry_equiv_pos_site_id
 _symmetry_equiv_pos_as_xyz
  1  'x, y, z'
loop_
 _atom_site_type_symbol
 _atom_site_label
 _atom_site_symmetry_multiplicity
 _atom_site_fract_x
 _atom_site_fract_y
 _atom_site_fract_z
 _atom_site_occupancy
  Na  Na0  1  0.05245300  0.00121100  0.00121100  1
  Na  Na1  1  0.10618200  0.99428000  0.99428000  1
  Na  Na2  1  0.20960800  0.00560900  0.00560900  1
  Na  Na3  1  0.26333800  0.99879000  0.99879000  1
  Na  Na4  1  0.36590300  0.01605000  0.01605000  1
  Na  Na5  1  0.41932300  0.01097500  0.01097500  1
  Na  Na6  1  0.47240700  0.00813300  0.00813300  1
  Na  Na7  1  0.52579500  0.00329100  0.00329100  1
  Na  Na8  1  0.57874000  0.00137900  0.00137900  1
  Na  Na9  1  0.63148300  0.00059500  0.00059500  1
  Na  Na10  1  0.68428400  0.99958900  0.99958900  1
  Na  Na11  1  0.73704400  0.99864200  0.99864200  1
  Na  Na12  1  0.78999600  0.99678400  0.99678400  1
  Na  Na13  1  0.84337300  0.99195800  0.99195800  1
  Na  Na14  1  0.89647400  0.98901300  0.98901300  1
  Na  Na15  1  0.94987900  0.98393300  0.98393300  1
  W  W0  1  0.02639200  0.49943900  0.49943900  1
  W  W1  1  0.07921500  0.49829100  0.49829100  1
  W  W2  1  0.13213300  0.49649500  0.49649500  1
  W  W3  1  0.18365000  0.50352100  0.50352100  1
  W  W4  1  0.23656800  0.50170700  0.50170700  1
  W  W5  1  0.28939000  0.50057300  0.50057300  1
  W  W6  1  0.34071900  0.50886900  0.50886900  1
  W  W7  1  0.39318600  0.50991300  0.50991300  1
  W  W8  1  0.44661600  0.50482100  0.50482100  1
  W  W9  1  0.49955400  0.50283600  0.50283600  1
  W  W10  1  0.55232000  0.50198600  0.50198600  1
  W  W11  1  0.60513500  0.50084100  0.50084100  1
  W  W12  1  0.65790100  0.50000000  0.50000000  1
  W  W13  1  0.71067000  0.49911700  0.49911700  1
  W  W14  1  0.76348000  0.49798400  0.49798400  1
  W  W15  1  0.81624100  0.49716200  0.49716200  1
  W  W16  1  0.86917600  0.49516900  0.49516900  1
  W  W17  1  0.92260300  0.49007100  0.49007100  1
  W  W18  1  0.97507000  0.49109800  0.49109800  1
  O  O0  1  0.00042900  0.49746700  0.99703000  1
  O  O1  1  0.00042900  0.99703000  0.49746700  1
  O  O2  1  0.00046700  0.49716500  0.49716500  1
  O  O3  1  0.05340600  0.49373300  0.99794300  1
  O  O4  1  0.05340600  0.99794300  0.49373300  1
  O  O5  1  0.05341300  0.49368100  0.49368100  1
  O  O6  1  0.10493100  0.50361600  0.99912100  1
  O  O7  1  0.10493100  0.99912100  0.50361600  1
  O  O8  1  0.10492800  0.50364700  0.50364700  1
  O  O9  1  0.15789500  0.99999600  0.50000800  1
  O  O10  1  0.15789500  0.50000800  0.99999600  1
  O  O11  1  0.15788500  0.50006900  0.50006900  1
  O  O12  1  0.21084800  0.00086200  0.49637900  1
  O  O13  1  0.21084800  0.49637900  0.00086200  1
  O  O14  1  0.21086600  0.49625300  0.49625300  1
  O  O15  1  0.26238500  0.00204200  0.50624800  1
  O  O16  1  0.26238500  0.50624800  0.00204200  1
  O  O17  1  0.26236100  0.50641900  0.50641900  1
  O  O18  1  0.31535100  0.00296100  0.50251900  1
  O  O19  1  0.31535100  0.50251900  0.00296100  1
  O  O20  1  0.31532800  0.50272400  0.50272400  1
  O  O21  1  0.36834500  0.00333400  0.49874900  1
  O  O22  1  0.36834500  0.49874900  0.00333400  1
  O  O23  1  0.36830600  0.49919600  0.49919600  1
  O  O24  1  0.42056100  0.00348700  0.50267500  1
  O  O25  1  0.42056100  0.50267500  0.00348700  1
  O  O26  1  0.42052200  0.50311800  0.50311800  1
  O  O27  1  0.47329800  0.00297500  0.50214200  1
  O  O28  1  0.47329800  0.50214200  0.00297500  1
  O  O29  1  0.47326700  0.50244400  0.50244400  1
  O  O30  1  0.52604600  0.00189400  0.50160400  1
  O  O31  1  0.52604600  0.50160400  0.00189400  1
  O  O32  1  0.52605600  0.50159000  0.50159000  1
  O  O33  1  0.57880400  0.00106500  0.50097300  1
  O  O34  1  0.57880400  0.50097300  0.00106500  1
  O  O35  1  0.57878600  0.50111100  0.50111100  1
  O  O36  1  0.63153000  0.00038300  0.50028100  1
  O  O37  1  0.63153000  0.50028100  0.00038300  1
  O  O38  1  0.63154900  0.50016900  0.50016900  1
  O  O39  1  0.68427000  0.99962500  0.49970900  1
  O  O40  1  0.68427000  0.49970900  0.99962500  1
  O  O41  1  0.68424800  0.49984400  0.49984400  1
  O  O42  1  0.73699300  0.99893500  0.49901300  1
  O  O43  1  0.73699300  0.49901300  0.99893500  1
  O  O44  1  0.73701400  0.49885500  0.49885500  1
  O  O45  1  0.78975100  0.99810100  0.49836800  1
  O  O46  1  0.78975100  0.49836800  0.99810100  1
  O  O47  1  0.78974200  0.49838900  0.49838900  1
  O  O48  1  0.84249600  0.99703500  0.49786200  1
  O  O49  1  0.84249600  0.49786200  0.99703500  1
  O  O50  1  0.84252200  0.49759000  0.49759000  1
  O  O51  1  0.89522400  0.99653000  0.49731400  1
  O  O52  1  0.89522400  0.49731400  0.99653000  1
  O  O53  1  0.89527200  0.49683300  0.49683300  1
  O  O54  1  0.94744300  0.99667300  0.50126600  1
  O  O55  1  0.94744300  0.50126600  0.99667300  1
  O  O56  1  0.94747300  0.50086300  0.50086300  1
loop_
_geom_bond_atom_site_label_1
_geom_bond_atom_site_label_2
_geom_bond_distance
_geom_bond_site_symmetry_2
Na0 O2 2.739118 1_555
Na0 O0 2.742106 1_554
Na0 O1 2.742106 1_545
Na0 O8 2.747981 1_544
Na0 O6 2.748579 1_544
Na0 O7 2.748579 1_544
Na0 O3 2.761644 1_554
Na0 O4 2.761645 1_545
Na0 O5 2.761859 1_545
Na0 O5 2.761859 1_554
Na0 O3 2.762253 1_544
Na0 O4 2.762253 1_544
Na1 O11 2.729543 1_555
Na1 O10 2.730064 1_555
Na1 O9 2.730064 1_555
Na1 O5 2.758160 1_566
Na1 O3 2.759901 1_565
Na1 O4 2.759901 1_556
Na1 O6 2.761443 1_565
Na1 O7 2.761443 1_556
Na1 O8 2.762074 1_565
Na1 O8 2.762074 1_556
Na1 O6 2.762906 1_555
Na1 O7 2.762906 1_555
Na2 O10 2.729777 1_554
Na2 O9 2.729777 1_545
Na2 O11 2.730922 1_555
Na2 O17 2.756997 1_544
Na2 O16 2.760217 1_545
Na2 O15 2.760217 1_554
Na2 O13 2.761167 1_545
Na2 O12 2.761167 1_554
Na2 O14 2.762076 1_545
Na2 O14 2.762076 1_554
Na2 O13 2.763165 1_555
Na2 O12 2.763165 1_555
Na3 O20 2.739740 1_555
Na3 O19 2.741500 1_556
Na3 O18 2.741500 1_565
Na3 O14 2.747425 1_566
Na3 O13 2.749258 1_566
Na3 O12 2.749258 1_566
Na3 O16 2.761799 1_556
Na3 O15 2.761800 1_565
Na3 O17 2.761870 1_565
Na3 O17 2.761870 1_556
Na3 O16 2.762099 1_566
Na3 O15 2.762099 1_566
Na4 O20 2.688243 1_555
Na4 O19 2.689887 1_555
Na4 O18 2.689887 1_555
Na4 O22 2.761137 1_555
Na4 O21 2.761137 1_555
Na4 O23 2.763481 1_545
Na4 O23 2.763481 1_554
Na4 O22 2.766120 1_545
Na4 O21 2.766120 1_554
Na4 O26 2.833243 1_544
Na4 O25 2.834487 1_545
Na4 O24 2.834487 1_554
Na5 O23 2.696500 1_555
Na5 O22 2.696879 1_555
Na5 O21 2.696879 1_555
Na5 O25 2.760586 1_555
Na5 O24 2.760586 1_555
Na5 O26 2.761997 1_545
Na5 O26 2.761997 1_554
Na5 O25 2.763664 1_545
Na5 O24 2.763664 1_554
Na5 O29 2.808718 1_544
Na5 O28 2.810989 1_545
Na5 O27 2.810990 1_554
Na6 O26 2.733766 1_555
Na6 O25 2.734060 1_555
Na6 O24 2.734060 1_555
Na6 O28 2.761314 1_555
Na6 O27 2.761315 1_555
Na6 O29 2.761765 1_545
Na6 O29 2.761765 1_554
Na6 O28 2.762445 1_545
Na6 O27 2.762445 1_554
Na6 O32 2.797674 1_544
Na6 O31 2.798150 1_545
Na6 O30 2.798150 1_554
Na7 O28 2.756209 1_555
Na7 O27 2.756209 1_555
Na7 O29 2.756744 1_555
Na7 O32 2.761541 1_545
Na7 O32 2.761541 1_554
Na7 O31 2.761635 1_555
Na7 O30 2.761636 1_555
Na7 O31 2.761637 1_545
Na7 O30 2.761637 1_554
Na7 O35 2.773482 1_544
Na7 O34 2.776075 1_545
Na7 O33 2.776075 1_554
Na8 O34 2.761367 1_545
Na8 O33 2.761367 1_554
Na8 O35 2.761519 1_545
Na8 O35 2.761519 1_554
Na8 O34 2.761866 1_555
Na8 O33 2.761866 1_555
Na8 O32 2.762589 1_555
Na8 O31 2.764254 1_555
Na8 O30 2.764254 1_555
Na8 O37 2.767966 1_545
Na8 O36 2.767966 1_554
Na8 O38 2.768108 1_544
Na9 O37 2.761468 1_545
Na9 O36 2.761469 1_554
Na9 O38 2.761519 1_545
Na9 O38 2.761519 1_554
Na9 O37 2.761763 1_555
Na9 O36 2.761763 1_555
Na9 O34 2.763591 1_555
Na9 O33 2.763591 1_555
Na9 O35 2.764272 1_555
Na9 O41 2.765574 1_544
Na9 O40 2.767881 1_544
Na9 O39 2.767881 1_544
Na10 O41 2.761518 1_565
Na10 O41 2.761518 1_556
Na10 O40 2.761588 1_555
Na10 O39 2.761588 1_555
Na10 O40 2.761642 1_565
Na10 O39 2.761642 1_556
Na10 O38 2.764628 1_566
Na10 O43 2.764658 1_555
Na10 O42 2.764658 1_555
Na10 O44 2.765477 1_555
Na10 O37 2.766634 1_566
Na10 O36 2.766634 1_566
Na11 O43 2.761435 1_555
Na11 O42 2.761435 1_555
Na11 O44 2.761518 1_565
Na11 O44 2.761518 1_556
Na11 O43 2.761797 1_565
Na11 O42 2.761797 1_556
Na11 O47 2.762822 1_555
Na11 O46 2.764865 1_555
Na11 O45 2.764865 1_555
Na11 O40 2.767162 1_565
Na11 O39 2.767162 1_556
Na11 O41 2.768063 1_566
Na12 O49 2.756187 1_555
Na12 O48 2.756187 1_555
Na12 O50 2.756970 1_555
Na12 O46 2.761161 1_565
Na12 O45 2.761161 1_556
Na12 O47 2.761539 1_565
Na12 O47 2.761539 1_556
Na12 O46 2.762109 1_555
Na12 O45 2.762109 1_555
Na12 O44 2.772881 1_566
Na12 O43 2.775967 1_565
Na12 O42 2.775967 1_556
Na13 O52 2.734116 1_555
Na13 O51 2.734116 1_555
Na13 O53 2.734540 1_555
Na13 O49 2.761276 1_555
Na13 O48 2.761276 1_555
Na13 O50 2.761760 1_565
Na13 O50 2.761760 1_556
Na13 O49 2.762468 1_565
Na13 O48 2.762468 1_556
Na13 O47 2.797051 1_566
Na13 O46 2.797520 1_565
Na13 O45 2.797520 1_556
Na14 O56 2.696116 1_555
Na14 O55 2.696460 1_555
Na14 O54 2.696460 1_555
Na14 O52 2.761140 1_555
Na14 O51 2.761140 1_555
Na14 O53 2.761999 1_565
Na14 O53 2.761999 1_556
Na14 O52 2.763130 1_565
Na14 O51 2.763130 1_556
Na14 O50 2.808975 1_566
Na14 O49 2.811087 1_565
Na14 O48 2.811087 1_556
Na15 O2 2.688758 1_655
Na15 O0 2.689804 1_655
Na15 O1 2.689804 1_655
Na15 O55 2.760568 1_555
Na15 O54 2.760568 1_555
Na15 O56 2.763489 1_565
Na15 O56 2.763489 1_556
Na15 O55 2.766666 1_565
Na15 O54 2.766666 1_556
Na15 O53 2.833056 1_566
Na15 O52 2.834238 1_565
Na15 O51 2.834238 1_556
O0 W18 1.929779 1_456
O0 W0 1.943280 1_555
O1 W18 1.929779 1_465
O1 W0 1.943280 1_555
O2 W18 1.932895 1_455
O2 W0 1.942210 1_555
O3 W1 1.951459 1_555
O3 W0 1.958773 1_556
O4 W1 1.951459 1_555
O4 W0 1.958772 1_565
O5 W1 1.951452 1_555
O5 W0 1.961041 1_555
O6 W1 1.949626 1_556
O6 W2 1.963309 1_555
O7 W1 1.949626 1_565
O7 W2 1.963309 1_555
O8 W1 1.950731 1_555
O8 W2 1.963950 1_555
O9 W3 1.938984 1_555
O9 W2 1.939075 1_565
O10 W3 1.938984 1_555
O10 W2 1.939075 1_556
O11 W2 1.939583 1_555
O11 W3 1.939588 1_555
O12 W4 1.949564 1_545
O12 W3 1.963432 1_555
O13 W4 1.949564 1_554
O13 W3 1.963432 1_555
O14 W4 1.950689 1_555
O14 W3 1.963873 1_555
O15 W4 1.951505 1_555
O15 W5 1.958660 1_545
O16 W4 1.951505 1_555
O16 W5 1.958660 1_554
O17 W4 1.951589 1_555
O17 W5 1.960956 1_555
O18 W6 1.929866 1_545
O18 W5 1.943363 1_555
O19 W6 1.929866 1_554
O19 W5 1.943363 1_555
O20 W6 1.933066 1_555
O20 W5 1.942210 1_555
O21 W7 1.927863 1_545
O21 W6 1.975004 1_555
O22 W7 1.927863 1_554
O22 W6 1.975004 1_555
O23 W7 1.931458 1_555
O23 W6 1.972939 1_555
O24 W8 1.947470 1_545
O24 W7 1.978119 1_555
O25 W8 1.947470 1_554
O25 W7 1.978119 1_555
O26 W8 1.950276 1_555
O26 W7 1.976422 1_555
O27 W9 1.953199 1_545
O27 W8 1.959916 1_555
O28 W9 1.953200 1_554
O28 W8 1.959917 1_555
O29 W9 1.954340 1_555
O29 W8 1.959773 1_555
O30 W10 1.952295 1_545
O30 W9 1.956345 1_555
O31 W10 1.952295 1_554
O31 W9 1.956345 1_555
O32 W10 1.952664 1_555
O32 W9 1.957515 1_555
O33 W11 1.953529 1_545
O33 W10 1.956262 1_555
O34 W11 1.953529 1_554
O34 W10 1.956262 1_555
O35 W11 1.953771 1_555
O35 W10 1.957735 1_555
O36 W12 1.954151 1_545
O36 W11 1.954445 1_555
O37 W12 1.954151 1_554
O37 W11 1.954445 1_555
O38 W12 1.954782 1_555
O38 W11 1.955458 1_555
O39 W12 1.954120 1_565
O39 W13 1.954641 1_555
O40 W12 1.954120 1_556
O40 W13 1.954641 1_555
O41 W12 1.954512 1_555
O41 W13 1.955623 1_555
O42 W13 1.953365 1_565
O42 W14 1.956380 1_555
O43 W13 1.953365 1_556
O43 W14 1.956380 1_555
O44 W13 1.953462 1_555
O44 W14 1.957766 1_555
O45 W14 1.952198 1_565
O45 W15 1.956333 1_555
O46 W14 1.952198 1_556
O46 W15 1.956333 1_555
O47 W14 1.952586 1_555
O47 W15 1.957441 1_555
O48 W15 1.953153 1_565
O48 W16 1.959993 1_555
O49 W15 1.953153 1_556
O49 W16 1.959994 1_555
O50 W15 1.954176 1_555
O50 W16 1.959653 1_555
O51 W16 1.947365 1_565
O51 W17 1.978250 1_555
O52 W16 1.947365 1_556
O52 W17 1.978250 1_555
O53 W16 1.950119 1_555
O53 W17 1.976305 1_555
O54 W17 1.927773 1_565
O54 W18 1.975159 1_555
O55 W17 1.927773 1_556
O55 W18 1.975159 1_555
O56 W17 1.931314 1_555
O56 W18 1.972976 1_555
