# generated using pymatgen
data_Na5WNO4
_symmetry_space_group_name_H-M   'P 1'
_cell_length_a   5.78929102
_cell_length_b   5.78929102
_cell_length_c   10.77197500
_cell_angle_alpha   90.00000000
_cell_angle_beta   90.00000000
_cell_angle_gamma   119.33674410
_symmetry_Int_Tables_number   1
_chemical_formula_structural   Na5WNO4
_chemical_formula_sum   'Na10 W2 N2 O8'
_cell_volume   314.73183318
_cell_formula_units_Z   2
loop_
 _symmetry_equiv_pos_site_id
 _symmetry_equiv_pos_as_xyz
  1  'x, y, z'
loop_
 _atom_site_type_symbol
 _atom_site_label
 _atom_site_symmetry_multiplicity
 _atom_site_fract_x
 _atom_site_fract_y
 _atom_site_fract_z
 _atom_site_occupancy
  Na  Na0  1  0.46547800  0.83610700  0.75915500  1
  Na  Na1  1  0.17608200  0.79309000  0.00914600  1
  Na  Na2  1  0.82391800  0.20691000  0.50914600  1
  Na  Na3  1  0.16389300  0.53452200  0.25915500  1
  Na  Na4  1  0.42857700  0.42857700  0.02571400  1
  Na  Na5  1  0.57142300  0.57142300  0.52571400  1
  Na  Na6  1  0.83610700  0.46547800  0.75915500  1
  Na  Na7  1  0.20691000  0.82391800  0.50914600  1
  Na  Na8  1  0.79309000  0.17608200  0.00914600  1
  Na  Na9  1  0.53452200  0.16389300  0.25915500  1
  W  W0  1  0.20819700  0.20819700  0.74780800  1
  W  W1  1  0.79180300  0.79180300  0.24780800  1
  N  N0  1  0.09756000  0.09756000  0.22322000  1
  N  N1  1  0.90244000  0.90244000  0.72322000  1
  O  O0  1  0.18782200  0.46184400  0.63139700  1
  O  O1  1  0.81217800  0.53815600  0.13139700  1
  O  O2  1  0.14405800  0.41607200  0.87693100  1
  O  O3  1  0.53815600  0.81217800  0.13139700  1
  O  O4  1  0.46184400  0.18782200  0.63139700  1
  O  O5  1  0.41607200  0.14405800  0.87693100  1
  O  O6  1  0.58392800  0.85594200  0.37693100  1
  O  O7  1  0.85594200  0.58392800  0.37693100  1
loop_
_geom_bond_atom_site_label_1
_geom_bond_atom_site_label_2
_geom_bond_distance
_geom_bond_site_symmetry_2
Na0 O5 2.317212 1_565
Na0 O0 2.399929 1_555
Na0 O4 2.466251 1_565
Na0 O2 2.559574 1_555
Na1 O1 2.303050 1_455
Na1 O5 2.306723 1_564
Na1 O3 2.431722 1_555
Na1 O2 2.535800 1_554
Na2 O0 2.303050 1_655
Na2 O6 2.306723 1_545
Na2 O4 2.431722 1_555
Na2 O7 2.535800 1_555
Na3 O7 2.317212 1_455
Na3 O3 2.399929 1_555
Na3 O1 2.466251 1_455
Na3 O6 2.559574 1_555
Na4 O2 2.273795 1_554
Na4 O5 2.273795 1_554
Na4 O3 2.291244 1_555
Na4 O1 2.291244 1_555
Na5 O6 2.273795 1_555
Na5 O7 2.273795 1_555
Na5 O4 2.291244 1_555
Na5 O0 2.291244 1_555
Na6 O2 2.317212 1_655
Na6 O4 2.399929 1_555
Na6 O0 2.466251 1_655
Na6 O5 2.559574 1_555
Na7 O4 2.303050 1_565
Na7 O7 2.306723 1_455
Na7 O0 2.431722 1_555
Na7 O6 2.535800 1_555
Na8 O3 2.303050 1_545
Na8 O2 2.306723 1_654
Na8 O1 2.431722 1_555
Na8 O5 2.535800 1_554
Na9 O6 2.317212 1_545
Na9 O1 2.399929 1_555
Na9 O3 2.466251 1_545
Na9 O7 2.559574 1_555
N0 W1 1.807345 1_445
N0 Na3 2.396827 1_555
N0 Na9 2.396827 1_555
N0 Na4 2.876225 1_555
N1 W0 1.807345 1_665
N1 Na0 2.396827 1_555
N1 Na6 2.396827 1_555
N1 Na5 2.876225 1_555
O0 W0 1.977980 1_555
O1 W1 1.977980 1_555
O2 W0 1.989641 1_555
O3 W1 1.977980 1_555
O4 W0 1.977980 1_555
O5 W0 1.989641 1_555
O6 W1 1.989641 1_555
O7 W1 1.989641 1_555
