# generated using pymatgen
data_Ba2AlCu2F11
_symmetry_space_group_name_H-M   'P 1'
_cell_length_a   7.41391771
_cell_length_b   7.41391771
_cell_length_c   14.37655300
_cell_angle_alpha   90.00000000
_cell_angle_beta   90.00000000
_cell_angle_gamma   119.99999745
_symmetry_Int_Tables_number   1
_chemical_formula_structural   Ba2AlCu2F11
_chemical_formula_sum   'Ba6 Al3 Cu6 F33'
_cell_volume   684.35419812
_cell_formula_units_Z   3
loop_
 _symmetry_equiv_pos_site_id
 _symmetry_equiv_pos_as_xyz
  1  'x, y, z'
loop_
 _atom_site_type_symbol
 _atom_site_label
 _atom_site_symmetry_multiplicity
 _atom_site_fract_x
 _atom_site_fract_y
 _atom_site_fract_z
 _atom_site_occupancy
  Ba  Ba0  1  0.53647200  0.18790400  0.66660300  1
  Ba  Ba1  1  0.17272600  0.49491400  0.80055200  1
  Ba  Ba2  1  0.65143200  0.46352800  0.99993600  1
  Ba  Ba3  1  0.50508600  0.67781100  0.46721800  1
  Ba  Ba4  1  0.32218900  0.82727400  0.13388500  1
  Ba  Ba5  1  0.81209600  0.34856800  0.33326900  1
  Al  Al0  1  0.16806600  0.00768100  0.87190300  1
  Al  Al1  1  0.83961600  0.83193400  0.20523600  1
  Al  Al2  1  0.99231900  0.16038400  0.53856900  1
  Cu  Cu0  1  0.64653900  0.99523300  0.89047900  1
  Cu  Cu1  1  0.79203200  0.76878000  0.72222300  1
  Cu  Cu2  1  0.23122000  0.02325200  0.38889000  1
  Cu  Cu3  1  0.34869400  0.35346100  0.22381300  1
  Cu  Cu4  1  0.97674800  0.20796800  0.05555600  1
  Cu  Cu5  1  0.00476700  0.65130600  0.55714600  1
  F  F0  1  0.68173000  0.09116600  0.02189200  1
  F  F1  1  0.50509500  0.71078700  0.92864300  1
  F  F2  1  0.40943600  0.31827000  0.35522500  1
  F  F3  1  0.09046900  0.41497800  0.48374200  1
  F  F4  1  0.52197100  0.24534600  0.18167200  1
  F  F5  1  0.90461400  0.62695600  0.17817800  1
  F  F6  1  0.58502200  0.67549100  0.15040900  1
  F  F7  1  0.37304400  0.27765800  0.84484400  1
  F  F8  1  0.72337400  0.47802900  0.51500500  1
  F  F9  1  0.26156800  0.34002900  0.09353400  1
  F  F10  1  0.32450900  0.90953100  0.81707600  1
  F  F11  1  0.90883400  0.59056400  0.68855900  1
  F  F12  1  0.29126800  0.02586100  0.98176600  1
  F  F13  1  0.02898100  0.47888400  0.02104300  1
  F  F14  1  0.73459300  0.70873200  0.31509900  1
  F  F15  1  0.28921300  0.79430800  0.59531000  1
  F  F16  1  0.01264800  0.12302600  0.90931600  1
  F  F17  1  0.07846100  0.73843200  0.42686700  1
  F  F18  1  0.99978600  0.06746600  0.41841800  1
  F  F19  1  0.97413900  0.26540700  0.64843300  1
  F  F20  1  0.06768000  0.00021400  0.75175200  1
  F  F21  1  0.52111600  0.55009700  0.68771000  1
  F  F22  1  0.44990300  0.97101900  0.35437600  1
  F  F23  1  0.11037800  0.98735200  0.24264900  1
  F  F24  1  0.65997100  0.92153900  0.76020100  1
  F  F25  1  0.75465400  0.27662600  0.84833900  1
  F  F26  1  0.20569200  0.49490500  0.26197600  1
  F  F27  1  0.95441700  0.74468300  0.88800600  1
  F  F28  1  0.79026600  0.04558300  0.22133900  1
  F  F29  1  0.93253400  0.93232000  0.08508500  1
  F  F30  1  0.72234200  0.09538600  0.51151100  1
  F  F31  1  0.87697400  0.88962200  0.57598200  1
  F  F32  1  0.25531700  0.20973400  0.55467300  1
loop_
_geom_bond_atom_site_label_1
_geom_bond_atom_site_label_2
_geom_bond_distance
_geom_bond_site_symmetry_2
Ba0 F32 2.701472 1_555
Ba0 F15 2.752619 1_545
Ba0 F21 2.760693 1_555
Ba0 F10 2.857530 1_545
Ba0 F30 2.878570 1_555
Ba0 F8 2.883788 1_555
Ba0 F24 2.890857 1_545
Ba0 F11 2.896802 1_555
Ba0 F25 2.968440 1_555
Ba0 F19 3.010453 1_555
Ba0 F7 3.046883 1_555
Ba0 F20 3.267754 1_555
Ba1 F10 2.704203 1_555
Ba1 F19 2.709333 1_455
Ba1 F7 2.756387 1_555
Ba1 F25 2.771661 1_455
Ba1 F1 2.842694 1_555
Ba1 F16 2.860625 1_555
Ba1 F11 2.882780 1_455
Ba1 F21 2.900687 1_555
Ba2 F27 2.701472 1_555
Ba2 F1 2.752618 1_555
Ba2 F13 2.760693 1_656
Ba2 F6 2.857530 1_556
Ba2 F7 2.878570 1_555
Ba2 F25 2.883773 1_555
Ba2 F9 2.890857 1_556
Ba2 F0 2.896802 1_556
Ba2 F4 2.968440 1_556
Ba2 F12 3.010453 1_555
Ba2 F5 3.046895 1_556
Ba2 F29 3.267754 1_556
Ba3 F3 2.704202 1_555
Ba3 F14 2.709331 1_555
Ba3 F30 2.756397 1_565
Ba3 F8 2.771649 1_555
Ba3 F15 2.842707 1_555
Ba3 F31 2.860626 1_555
Ba3 F2 2.882774 1_555
Ba3 F22 2.900693 1_555
Ba4 F6 2.704196 1_555
Ba4 F12 2.709336 1_564
Ba4 F5 2.756397 1_455
Ba4 F4 2.771662 1_565
Ba4 F26 2.842693 1_555
Ba4 F23 2.860631 1_555
Ba4 F0 2.882776 1_565
Ba4 F13 2.900690 1_555
Ba5 F28 2.701472 1_555
Ba5 F26 2.752619 1_655
Ba5 F22 2.760693 1_545
Ba5 F3 2.857530 1_655
Ba5 F5 2.878559 1_555
Ba5 F4 2.883778 1_555
Ba5 F17 2.890857 1_655
Ba5 F2 2.896802 1_555
Ba5 F8 2.968443 1_555
Ba5 F14 3.010453 1_555
Ba5 F30 3.046895 1_555
Ba5 F18 3.267754 1_555
Al0 F12 1.795560 1_555
Al0 F27 1.809963 1_445
Al0 F16 1.825830 1_555
Al0 F10 1.827586 1_545
Al0 F7 1.850770 1_555
Al0 F20 1.870706 1_555
Al1 F14 1.795561 1_555
Al1 F28 1.809967 1_565
Al1 F23 1.825824 1_655
Al1 F6 1.827592 1_555
Al1 F5 1.850762 1_555
Al1 F29 1.870704 1_555
Al2 F19 1.795576 1_555
Al2 F32 1.809962 1_655
Al2 F31 1.825824 1_545
Al2 F3 1.827593 1_655
Al2 F30 1.850769 1_555
Al2 F18 1.870703 1_555
Cu0 F1 1.906970 1_555
Cu0 F25 1.920840 1_565
Cu0 F24 1.967428 1_555
Cu0 F0 1.989395 1_566
Cu0 F10 2.387577 1_555
Cu0 F16 2.401411 1_665
Cu1 F24 1.910036 1_555
Cu1 F21 1.911181 1_555
Cu1 F20 1.947872 1_665
Cu1 F11 1.968266 1_555
Cu1 F31 2.248401 1_555
Cu2 F17 1.910032 1_545
Cu2 F22 1.911184 1_545
Cu2 F18 1.947868 1_455
Cu2 F2 1.968269 1_555
Cu2 F23 2.248401 1_545
Cu3 F26 1.906966 1_555
Cu3 F4 1.920838 1_555
Cu3 F9 1.967442 1_555
Cu3 F2 1.989382 1_555
Cu3 F6 2.387583 1_555
Cu3 F23 2.401409 1_545
Cu4 F9 1.910036 1_655
Cu4 F13 1.911181 1_655
Cu4 F29 1.947872 1_545
Cu4 F0 1.968266 1_555
Cu4 F16 2.248387 1_654
Cu5 F15 1.906970 1_555
Cu5 F8 1.920844 1_455
Cu5 F17 1.967442 1_555
Cu5 F11 1.989395 1_455
Cu5 F3 2.387583 1_555
Cu5 F31 2.401409 1_455
