# generated using pymatgen
data_Si5Pt12
_symmetry_space_group_name_H-M   'P 1'
_cell_length_a   13.57091900
_cell_length_b   13.57091900
_cell_length_c   5.61863200
_cell_angle_alpha   90.00000000
_cell_angle_beta   90.00000000
_cell_angle_gamma   90.00000000
_symmetry_Int_Tables_number   1
_chemical_formula_structural   Si5Pt12
_chemical_formula_sum   'Si20 Pt48'
_cell_volume   1034.78257053
_cell_formula_units_Z   4
loop_
 _symmetry_equiv_pos_site_id
 _symmetry_equiv_pos_as_xyz
  1  'x, y, z'
loop_
 _atom_site_type_symbol
 _atom_site_label
 _atom_site_symmetry_multiplicity
 _atom_site_fract_x
 _atom_site_fract_y
 _atom_site_fract_z
 _atom_site_occupancy
  Si  Si0  1  0.18537400  0.88443400  0.98542000  1
  Si  Si1  1  0.69298100  0.88686400  0.56560900  1
  Si  Si2  1  0.88686400  0.30701900  0.43439100  1
  Si  Si3  1  0.11313600  0.69298100  0.43439100  1
  Si  Si4  1  0.30701900  0.11313600  0.56560900  1
  Si  Si5  1  0.00000000  0.00000000  0.50000000  1
  Si  Si6  1  0.11556600  0.18537400  0.01458000  1
  Si  Si7  1  0.81462600  0.11556600  0.98542000  1
  Si  Si8  1  0.80701900  0.61313600  0.43439100  1
  Si  Si9  1  0.31462600  0.61556600  0.01458000  1
  Si  Si10  1  0.68537400  0.38443400  0.01458000  1
  Si  Si11  1  0.61556600  0.68537400  0.98542000  1
  Si  Si12  1  0.38686400  0.80701900  0.56560900  1
  Si  Si13  1  0.88443400  0.81462600  0.01458000  1
  Si  Si14  1  0.19298100  0.38686400  0.43439100  1
  Si  Si15  1  0.00000000  0.50000000  0.94531300  1
  Si  Si16  1  0.38443400  0.31462600  0.98542000  1
  Si  Si17  1  0.50000000  0.00000000  0.05468700  1
  Si  Si18  1  0.61313600  0.19298100  0.56560900  1
  Si  Si19  1  0.50000000  0.50000000  0.50000000  1
  Pt  Pt0  1  0.64680600  0.01837100  0.30715400  1
  Pt  Pt1  1  0.66601800  0.20713300  0.09792500  1
  Pt  Pt2  1  0.48162900  0.14680600  0.30715400  1
  Pt  Pt3  1  0.14680600  0.51837100  0.69284600  1
  Pt  Pt4  1  0.14713100  0.53469900  0.19295800  1
  Pt  Pt5  1  0.70713300  0.83398200  0.09792500  1
  Pt  Pt6  1  0.15332000  0.21370500  0.46300400  1
  Pt  Pt7  1  0.35319400  0.98162900  0.30715400  1
  Pt  Pt8  1  0.28629500  0.65332000  0.46300400  1
  Pt  Pt9  1  0.46292000  0.65564800  0.75507200  1
  Pt  Pt10  1  0.96292000  0.15564800  0.24492800  1
  Pt  Pt11  1  0.46530100  0.14713100  0.80704200  1
  Pt  Pt12  1  0.15564800  0.03708000  0.75507200  1
  Pt  Pt13  1  0.65564800  0.53708000  0.24492800  1
  Pt  Pt14  1  0.21370500  0.84668000  0.53699600  1
  Pt  Pt15  1  0.83398200  0.29286700  0.90207500  1
  Pt  Pt16  1  0.98162900  0.64680600  0.69284600  1
  Pt  Pt17  1  0.03708000  0.84435200  0.24492800  1
  Pt  Pt18  1  0.78629500  0.15332000  0.53699600  1
  Pt  Pt19  1  0.01837100  0.35319400  0.69284600  1
  Pt  Pt20  1  0.20713300  0.33398200  0.90207500  1
  Pt  Pt21  1  0.51968400  0.35378900  0.25425600  1
  Pt  Pt22  1  0.84668000  0.78629500  0.46300400  1
  Pt  Pt23  1  0.34435200  0.46292000  0.24492800  1
  Pt  Pt24  1  0.29286700  0.16601800  0.09792500  1
  Pt  Pt25  1  0.53708000  0.34435200  0.75507200  1
  Pt  Pt26  1  0.85286900  0.46530100  0.19295800  1
  Pt  Pt27  1  0.71370500  0.34668000  0.46300400  1
  Pt  Pt28  1  0.64713100  0.03469900  0.80704200  1
  Pt  Pt29  1  0.64621100  0.51968400  0.74574400  1
  Pt  Pt30  1  0.79286700  0.66601800  0.90207500  1
  Pt  Pt31  1  0.65332000  0.71370500  0.53699600  1
  Pt  Pt32  1  0.84435200  0.96292000  0.75507200  1
  Pt  Pt33  1  0.96530100  0.64713100  0.19295800  1
  Pt  Pt34  1  0.48031600  0.64621100  0.25425600  1
  Pt  Pt35  1  0.35286900  0.96530100  0.80704200  1
  Pt  Pt36  1  0.85378900  0.98031600  0.25425600  1
  Pt  Pt37  1  0.16601800  0.70713300  0.90207500  1
  Pt  Pt38  1  0.01968400  0.85378900  0.74574400  1
  Pt  Pt39  1  0.03469900  0.35286900  0.19295800  1
  Pt  Pt40  1  0.53469900  0.85286900  0.80704200  1
  Pt  Pt41  1  0.98031600  0.14621100  0.74574400  1
  Pt  Pt42  1  0.34668000  0.28629500  0.53699600  1
  Pt  Pt43  1  0.33398200  0.79286700  0.09792500  1
  Pt  Pt44  1  0.35378900  0.48031600  0.74574400  1
  Pt  Pt45  1  0.85319400  0.48162900  0.69284600  1
  Pt  Pt46  1  0.51837100  0.85319400  0.30715400  1
  Pt  Pt47  1  0.14621100  0.01968400  0.25425600  1
loop_
_geom_bond_atom_site_label_1
_geom_bond_atom_site_label_2
_geom_bond_distance
_geom_bond_site_symmetry_2
Pt0 Si1 2.384639 1_545
Pt0 Si17 2.458370 1_555
Pt0 Si18 2.816497 1_555
Pt1 Si7 2.451739 1_554
Pt1 Si10 2.465317 1_555
Pt1 Si18 2.730743 1_555
Pt1 Si18 3.081773 1_554
Pt2 Si18 2.384639 1_555
Pt2 Si17 2.458370 1_555
Pt2 Si4 2.816497 1_555
Pt3 Si14 2.384639 1_555
Pt3 Si15 2.458370 1_555
Pt3 Si3 2.816497 1_555
Pt4 Si15 2.478837 1_554
Pt4 Si14 2.500477 1_555
Pt4 Si3 2.582060 1_555
Pt4 Si9 2.715818 1_555
Pt5 Si11 2.451739 1_554
Pt5 Si13 2.465317 1_555
Pt5 Si1 2.730743 1_555
Pt5 Si1 3.081773 1_554
Pt6 Si14 2.416133 1_555
Pt6 Si4 2.558473 1_555
Pt6 Si6 2.599685 1_555
Pt7 Si4 2.384639 1_565
Pt7 Si17 2.458370 1_565
Pt7 Si12 2.816497 1_555
Pt8 Si3 2.416133 1_555
Pt8 Si12 2.558473 1_555
Pt8 Si9 2.599685 1_555
Pt9 Si11 2.475702 1_555
Pt9 Si12 2.533468 1_555
Pt9 Si9 2.544008 1_556
Pt9 Si19 2.601713 1_555
Pt10 Si6 2.475702 1_655
Pt10 Si2 2.533468 1_555
Pt10 Si7 2.544008 1_554
Pt10 Si5 2.601713 1_655
Pt11 Si17 2.478837 1_556
Pt11 Si18 2.500477 1_555
Pt11 Si4 2.582060 1_555
Pt11 Si16 2.715818 1_555
Pt12 Si0 2.475702 1_545
Pt12 Si4 2.533468 1_555
Pt12 Si6 2.544008 1_556
Pt12 Si5 2.601713 1_555
Pt13 Si10 2.475702 1_555
Pt13 Si8 2.533468 1_555
Pt13 Si11 2.544008 1_554
Pt13 Si19 2.601713 1_555
Pt14 Si12 2.416133 1_555
Pt14 Si3 2.558473 1_555
Pt14 Si0 2.599685 1_555
Pt15 Si10 2.451739 1_556
Pt15 Si7 2.465317 1_555
Pt15 Si2 2.730743 1_555
Pt15 Si2 3.081773 1_556
Pt16 Si3 2.384639 1_655
Pt16 Si15 2.458370 1_655
Pt16 Si8 2.816497 1_555
Pt17 Si13 2.475702 1_455
Pt17 Si3 2.533468 1_555
Pt17 Si0 2.544008 1_554
Pt17 Si5 2.601713 1_565
Pt18 Si18 2.416133 1_555
Pt18 Si2 2.558473 1_555
Pt18 Si7 2.599685 1_555
Pt19 Si2 2.384639 1_455
Pt19 Si15 2.458370 1_555
Pt19 Si14 2.816497 1_555
Pt20 Si6 2.451739 1_556
Pt20 Si16 2.465317 1_555
Pt20 Si14 2.730743 1_555
Pt20 Si14 3.081773 1_556
Pt21 Si19 2.432064 1_555
Pt21 Si16 2.435773 1_554
Pt21 Si10 2.653766 1_555
Pt21 Si18 3.071029 1_555
Pt22 Si8 2.416133 1_555
Pt22 Si1 2.558473 1_555
Pt22 Si13 2.599685 1_555
Pt23 Si9 2.475702 1_555
Pt23 Si14 2.533468 1_555
Pt23 Si16 2.544008 1_554
Pt23 Si19 2.601713 1_555
Pt24 Si16 2.451739 1_554
Pt24 Si6 2.465317 1_555
Pt24 Si4 2.730743 1_555
Pt24 Si4 3.081773 1_554
Pt25 Si16 2.475702 1_555
Pt25 Si18 2.533468 1_555
Pt25 Si10 2.544008 1_556
Pt25 Si19 2.601713 1_555
Pt26 Si15 2.478837 1_654
Pt26 Si8 2.500477 1_555
Pt26 Si2 2.582060 1_555
Pt26 Si10 2.715818 1_555
Pt27 Si2 2.416133 1_555
Pt27 Si18 2.558473 1_555
Pt27 Si10 2.599685 1_555
Pt28 Si17 2.478837 1_556
Pt28 Si1 2.500477 1_545
Pt28 Si18 2.582060 1_555
Pt28 Si7 2.715818 1_555
Pt29 Si19 2.432064 1_555
Pt29 Si10 2.435773 1_556
Pt29 Si11 2.653766 1_555
Pt29 Si8 3.071029 1_555
Pt30 Si13 2.451739 1_556
Pt30 Si11 2.465317 1_555
Pt30 Si8 2.730743 1_555
Pt30 Si8 3.081773 1_556
Pt31 Si1 2.416133 1_555
Pt31 Si8 2.558473 1_555
Pt31 Si11 2.599685 1_555
Pt32 Si7 2.475702 1_565
Pt32 Si1 2.533468 1_555
Pt32 Si13 2.544008 1_556
Pt32 Si5 2.601713 1_665
Pt33 Si15 2.478837 1_654
Pt33 Si3 2.500477 1_655
Pt33 Si8 2.582060 1_555
Pt33 Si13 2.715818 1_555
Pt34 Si19 2.432064 1_555
Pt34 Si11 2.435773 1_554
Pt34 Si9 2.653766 1_555
Pt34 Si12 3.071029 1_555
Pt35 Si17 2.478837 1_566
Pt35 Si4 2.500477 1_565
Pt35 Si12 2.582060 1_555
Pt35 Si0 2.715818 1_555
Pt36 Si5 2.432064 1_665
Pt36 Si7 2.435773 1_564
Pt36 Si13 2.653766 1_555
Pt36 Si1 3.071029 1_555
Pt37 Si9 2.451739 1_556
Pt37 Si0 2.465317 1_555
Pt37 Si3 2.730743 1_555
Pt37 Si3 3.081773 1_556
Pt38 Si5 2.432064 1_565
Pt38 Si13 2.435773 1_456
Pt38 Si0 2.653766 1_555
Pt38 Si3 3.071029 1_555
Pt39 Si15 2.478837 1_554
Pt39 Si2 2.500477 1_455
Pt39 Si14 2.582060 1_555
Pt39 Si6 2.715818 1_555
Pt40 Si17 2.478837 1_566
Pt40 Si12 2.500477 1_555
Pt40 Si1 2.582060 1_555
Pt40 Si11 2.715818 1_555
Pt41 Si5 2.432064 1_655
Pt41 Si6 2.435773 1_656
Pt41 Si7 2.653766 1_555
Pt41 Si2 3.071029 1_555
Pt42 Si4 2.416133 1_555
Pt42 Si14 2.558473 1_555
Pt42 Si16 2.599685 1_555
Pt43 Si0 2.451739 1_554
Pt43 Si9 2.465317 1_555
Pt43 Si12 2.730743 1_555
Pt43 Si12 3.081773 1_554
Pt44 Si19 2.432064 1_555
Pt44 Si9 2.435773 1_556
Pt44 Si16 2.653766 1_555
Pt44 Si14 3.071029 1_555
Pt45 Si8 2.384639 1_555
Pt45 Si15 2.458370 1_655
Pt45 Si2 2.816497 1_555
Pt46 Si12 2.384639 1_555
Pt46 Si17 2.458370 1_565
Pt46 Si1 2.816497 1_555
Pt47 Si5 2.432064 1_555
Pt47 Si0 2.435773 1_544
Pt47 Si6 2.653766 1_555
Pt47 Si4 3.071029 1_555
