# generated using pymatgen
data_Y2WO6
_symmetry_space_group_name_H-M   'P 1'
_cell_length_a   5.30077400
_cell_length_b   8.72291900
_cell_length_c   21.11898600
_cell_angle_alpha   90.00000000
_cell_angle_beta   90.00000000
_cell_angle_gamma   90.00000000
_symmetry_Int_Tables_number   1
_chemical_formula_structural   Y2WO6
_chemical_formula_sum   'Y16 W8 O48'
_cell_volume   976.50436814
_cell_formula_units_Z   8
loop_
 _symmetry_equiv_pos_site_id
 _symmetry_equiv_pos_as_xyz
  1  'x, y, z'
loop_
 _atom_site_type_symbol
 _atom_site_label
 _atom_site_symmetry_multiplicity
 _atom_site_fract_x
 _atom_site_fract_y
 _atom_site_fract_z
 _atom_site_occupancy
  Y  Y0  1  0.99006800  0.25660300  0.79939800  1
  Y  Y1  1  0.49006800  0.24339700  0.20060200  1
  Y  Y2  1  0.00993200  0.75660300  0.70060200  1
  Y  Y3  1  0.50993200  0.74339700  0.29939800  1
  Y  Y4  1  0.96035100  0.40876100  0.56435000  1
  Y  Y5  1  0.46035100  0.09123900  0.43565000  1
  Y  Y6  1  0.03964900  0.90876100  0.93565000  1
  Y  Y7  1  0.53964900  0.59123900  0.06435000  1
  Y  Y8  1  0.41278900  0.10543700  0.66599200  1
  Y  Y9  1  0.91278900  0.39456300  0.33400800  1
  Y  Y10  1  0.58721100  0.60543700  0.83400800  1
  Y  Y11  1  0.08721100  0.89456300  0.16599200  1
  Y  Y12  1  0.46384000  0.74477800  0.56874200  1
  Y  Y13  1  0.96384000  0.75522200  0.43125800  1
  Y  Y14  1  0.53616000  0.24477800  0.93125800  1
  Y  Y15  1  0.03616000  0.25522200  0.06874200  1
  W  W0  1  0.48581100  0.47850000  0.68824900  1
  W  W1  1  0.98581100  0.02150000  0.31175100  1
  W  W2  1  0.51418900  0.97850000  0.81175100  1
  W  W3  1  0.01418900  0.52150000  0.18824900  1
  W  W4  1  0.06313000  0.51570200  0.94302900  1
  W  W5  1  0.56313000  0.98429800  0.05697100  1
  W  W6  1  0.93687000  0.01570200  0.55697100  1
  W  W7  1  0.43687000  0.48429800  0.44302900  1
  O  O0  1  0.29128600  0.12878100  0.85779300  1
  O  O1  1  0.79128600  0.37121900  0.14220700  1
  O  O2  1  0.70871400  0.62878100  0.64220700  1
  O  O3  1  0.20871400  0.87121900  0.35779300  1
  O  O4  1  0.79751900  0.04614800  0.12200300  1
  O  O5  1  0.29751900  0.45385200  0.87799700  1
  O  O6  1  0.20248100  0.54614800  0.37799700  1
  O  O7  1  0.70248100  0.95385200  0.62200300  1
  O  O8  1  0.30770200  0.04269700  0.99670700  1
  O  O9  1  0.80770200  0.45730300  0.00329300  1
  O  O10  1  0.69229800  0.54269700  0.50329300  1
  O  O11  1  0.19229800  0.95730300  0.49670700  1
  O  O12  1  0.32538500  0.11113900  0.11844900  1
  O  O13  1  0.82538500  0.38886100  0.88155100  1
  O  O14  1  0.67461500  0.61113900  0.38155100  1
  O  O15  1  0.17461500  0.88886100  0.61844900  1
  O  O16  1  0.77597400  0.12652300  0.00403800  1
  O  O17  1  0.27597400  0.37347700  0.99596200  1
  O  O18  1  0.22402600  0.62652300  0.49596200  1
  O  O19  1  0.72402600  0.87347700  0.50403800  1
  O  O20  1  0.24790400  0.96924900  0.74810800  1
  O  O21  1  0.74790400  0.53075100  0.25189200  1
  O  O22  1  0.75209600  0.46924900  0.75189200  1
  O  O23  1  0.25209600  0.03075100  0.24810800  1
  O  O24  1  0.32109600  0.62447800  0.74584300  1
  O  O25  1  0.82109600  0.87552200  0.25415700  1
  O  O26  1  0.67890400  0.12447800  0.75415700  1
  O  O27  1  0.17890400  0.37552200  0.24584300  1
  O  O28  1  0.39181400  0.81836400  0.09857600  1
  O  O29  1  0.89181400  0.68163600  0.90142400  1
  O  O30  1  0.60818600  0.31836400  0.40142400  1
  O  O31  1  0.10818600  0.18163600  0.59857600  1
  O  O32  1  0.72888500  0.81826800  0.77848200  1
  O  O33  1  0.22888500  0.68173200  0.22151800  1
  O  O34  1  0.27111500  0.31826800  0.72151800  1
  O  O35  1  0.77111500  0.18173200  0.27848200  1
  O  O36  1  0.37171300  0.82581900  0.86648800  1
  O  O37  1  0.87171300  0.67418100  0.13351200  1
  O  O38  1  0.62828700  0.32581900  0.63351200  1
  O  O39  1  0.12828700  0.17418100  0.36648800  1
  O  O40  1  0.22864900  0.55267000  0.62700600  1
  O  O41  1  0.72864900  0.94733000  0.37299400  1
  O  O42  1  0.77135100  0.05267000  0.87299400  1
  O  O43  1  0.27135100  0.44733000  0.12700600  1
  O  O44  1  0.26175100  0.32684600  0.48500900  1
  O  O45  1  0.76175100  0.17315400  0.51499100  1
  O  O46  1  0.73824900  0.82684700  0.01499100  1
  O  O47  1  0.23824900  0.67315300  0.98500900  1
loop_
_geom_bond_atom_site_label_1
_geom_bond_atom_site_label_2
_geom_bond_distance
_geom_bond_site_symmetry_2
O0 W2 2.014943 1_545
O0 Y14 2.261822 1_555
O0 Y0 2.305100 1_455
O0 Y6 2.857656 1_545
O1 W3 2.014943 1_655
O1 Y15 2.261822 1_655
O1 Y1 2.305100 1_555
O1 Y7 2.857656 1_555
O2 W0 2.014943 1_555
O2 Y12 2.261822 1_555
O2 Y2 2.305100 1_655
O2 Y4 2.857656 1_555
O3 W1 2.014943 1_465
O3 Y13 2.261822 1_455
O3 Y3 2.305100 1_555
O3 Y5 2.857656 1_565
O4 W5 1.928988 1_545
O4 Y11 2.229231 1_645
O4 Y15 2.488254 1_655
O4 Y1 2.893407 1_555
O5 W4 1.928988 1_555
O5 Y10 2.229231 1_555
O5 Y14 2.488254 1_555
O5 Y0 2.893407 1_455
O6 W7 1.928988 1_555
O6 Y9 2.229231 1_455
O6 Y13 2.488254 1_455
O6 Y3 2.893407 1_555
O7 W6 1.928988 1_565
O7 Y8 2.229231 1_565
O7 Y12 2.488254 1_555
O7 Y2 2.893407 1_655
O8 W5 1.926791 1_546
O8 Y6 2.246462 1_545
O8 Y14 2.546427 1_555
O8 Y15 2.796947 1_556
O9 W4 1.926791 1_654
O9 Y7 2.246462 1_555
O9 Y15 2.546427 1_655
O9 Y14 2.796947 1_554
O10 W7 1.926791 1_555
O10 Y4 2.246462 1_555
O10 Y12 2.546427 1_555
O10 Y13 2.796947 1_555
O11 W6 1.926791 1_465
O11 Y5 2.246462 1_565
O11 Y13 2.546427 1_455
O11 Y12 2.796947 1_555
O12 W5 2.120868 1_545
O12 Y15 2.243224 1_555
O12 Y1 2.259024 1_555
O12 Y11 2.484158 1_545
O13 W4 2.120868 1_655
O13 Y14 2.243224 1_555
O13 Y0 2.259024 1_555
O13 Y10 2.484158 1_555
O14 W7 2.120868 1_555
O14 Y13 2.243224 1_555
O14 Y3 2.259024 1_555
O14 Y9 2.484158 1_555
O15 W6 2.120868 1_465
O15 Y12 2.243224 1_555
O15 Y2 2.259024 1_555
O15 Y8 2.484158 1_565
O16 W5 2.015374 1_545
O16 Y15 2.242707 1_655
O16 Y14 2.245549 1_554
O16 Y6 2.765439 1_644
O17 W4 2.015374 1_555
O17 Y14 2.242707 1_555
O17 Y15 2.245549 1_556
O17 Y7 2.765439 1_556
O18 W7 2.015374 1_555
O18 Y13 2.242707 1_455
O18 Y12 2.245549 1_555
O18 Y4 2.765439 1_455
O19 W6 2.015374 1_565
O19 Y12 2.242707 1_555
O19 Y13 2.245549 1_555
O19 Y5 2.765439 1_565
O20 W2 1.950751 1_555
O20 Y8 2.276537 1_565
O20 Y2 2.457320 1_555
O20 Y0 3.053544 1_465
O21 W3 1.950751 1_655
O21 Y9 2.276537 1_555
O21 Y3 2.457320 1_555
O21 Y1 3.053544 1_555
O22 W0 1.950751 1_555
O22 Y10 2.276537 1_555
O22 Y0 2.457320 1_555
O22 Y2 3.053544 1_655
O23 W1 1.950751 1_455
O23 Y11 2.276537 1_545
O23 Y1 2.457320 1_555
O23 Y3 3.053544 1_545
O24 W0 1.965506 1_555
O24 Y2 2.227492 1_555
O24 Y10 2.341858 1_555
O25 W1 1.965506 1_565
O25 Y3 2.227492 1_555
O25 Y11 2.341858 1_655
O26 W2 1.965506 1_545
O26 Y0 2.227492 1_555
O26 Y8 2.341858 1_555
O27 W3 1.965506 1_555
O27 Y1 2.227492 1_555
O27 Y9 2.341858 1_455
O28 W5 1.921391 1_555
O28 Y7 2.249819 1_555
O28 Y11 2.252980 1_555
O29 W4 1.921391 1_655
O29 Y6 2.249819 1_655
O29 Y10 2.252980 1_555
O30 W7 1.921391 1_555
O30 Y5 2.249819 1_555
O30 Y9 2.252980 1_555
O31 W6 1.921391 1_455
O31 Y4 2.249819 1_455
O31 Y8 2.252980 1_555
O32 W2 1.934520 1_555
O32 Y2 2.283403 1_655
O32 Y10 2.320713 1_555
O33 W3 1.934520 1_555
O33 Y3 2.283403 1_555
O33 Y11 2.320713 1_555
O34 W0 1.934520 1_555
O34 Y0 2.283403 1_455
O34 Y8 2.320713 1_555
O35 W1 1.934520 1_555
O35 Y1 2.283403 1_555
O35 Y9 2.320713 1_555
O36 W2 1.918449 1_555
O36 Y10 2.338997 1_555
O36 Y6 2.398996 1_555
O37 W3 1.918449 1_655
O37 Y11 2.338997 1_655
O37 Y7 2.398996 1_555
O38 W0 1.918449 1_555
O38 Y8 2.338997 1_555
O38 Y4 2.398996 1_555
O39 W1 1.918449 1_455
O39 Y9 2.338997 1_455
O39 Y5 2.398996 1_555
O40 W0 1.987370 1_555
O40 Y4 2.312866 1_455
O40 Y12 2.424135 1_555
O40 Y2 2.631417 1_555
O41 W1 1.987370 1_565
O41 Y5 2.312866 1_565
O41 Y13 2.424135 1_555
O41 Y3 2.631417 1_555
O42 W2 1.987370 1_545
O42 Y6 2.312866 1_645
O42 Y14 2.424135 1_555
O42 Y0 2.631417 1_555
O43 W3 1.987370 1_555
O43 Y7 2.312866 1_555
O43 Y15 2.424135 1_555
O43 Y1 2.631417 1_555
O44 W7 1.879903 1_555
O44 Y4 2.422953 1_455
O44 Y5 2.533503 1_555
O45 W6 1.879903 1_555
O45 Y5 2.422953 1_555
O45 Y4 2.533503 1_555
O46 W5 1.879896 1_555
O46 Y6 2.422950 1_654
O46 Y7 2.533510 1_555
O47 W4 1.879896 1_555
O47 Y7 2.422950 1_556
O47 Y6 2.533510 1_555
