# generated using pymatgen
data_SnO
_symmetry_space_group_name_H-M   'P 1'
_cell_length_a   3.35500500
_cell_length_b   4.22197000
_cell_length_c   5.67410400
_cell_angle_alpha   90.00000000
_cell_angle_beta   90.00000000
_cell_angle_gamma   90.00000000
_symmetry_Int_Tables_number   1
_chemical_formula_structural   SnO
_chemical_formula_sum   'Sn2 O2'
_cell_volume   80.37215376
_cell_formula_units_Z   2
loop_
 _symmetry_equiv_pos_site_id
 _symmetry_equiv_pos_as_xyz
  1  'x, y, z'
loop_
 _atom_site_type_symbol
 _atom_site_label
 _atom_site_symmetry_multiplicity
 _atom_site_fract_x
 _atom_site_fract_y
 _atom_site_fract_z
 _atom_site_occupancy
  Sn  Sn0  1  0.00000000  0.51314400  0.76809100  1
  Sn  Sn1  1  0.50000000  0.01314400  0.23190900  1
  O  O0  1  0.00000000  0.73685700  0.10875000  1
  O  O1  1  0.50000000  0.23685700  0.89125000  1
loop_
_geom_bond_atom_site_label_1
_geom_bond_atom_site_label_2
_geom_bond_distance
_geom_bond_site_symmetry_2
O0 Sn0 2.151356 1_554
O0 Sn1 2.159404 1_465
O0 Sn1 2.159404 1_565
O1 Sn1 2.151356 1_556
O1 Sn0 2.159404 1_655
O1 Sn0 2.159404 1_555
