# generated using pymatgen
data_SrCo12O19
_symmetry_space_group_name_H-M   'P 1'
_cell_length_a   5.79608538
_cell_length_b   5.79608538
_cell_length_c   22.39899800
_cell_angle_alpha   90.00000000
_cell_angle_beta   90.00000000
_cell_angle_gamma   119.99999290
_symmetry_Int_Tables_number   1
_chemical_formula_structural   SrCo12O19
_chemical_formula_sum   'Sr2 Co24 O38'
_cell_volume   651.67161084
_cell_formula_units_Z   2
loop_
 _symmetry_equiv_pos_site_id
 _symmetry_equiv_pos_as_xyz
  1  'x, y, z'
loop_
 _atom_site_type_symbol
 _atom_site_label
 _atom_site_symmetry_multiplicity
 _atom_site_fract_x
 _atom_site_fract_y
 _atom_site_fract_z
 _atom_site_occupancy
  Sr  Sr0  1  0.66666700  0.33333300  0.25000000  1
  Sr  Sr1  1  0.33333300  0.66666700  0.75000000  1
  Co  Co0  1  0.16712200  0.83287800  0.88983000  1
  Co  Co1  1  0.66666700  0.33333300  0.80671900  1
  Co  Co2  1  0.83287800  0.16712200  0.38983000  1
  Co  Co3  1  0.66575600  0.83287800  0.61017000  1
  Co  Co4  1  0.00000000  0.00000000  0.00000000  1
  Co  Co5  1  0.66666700  0.33333300  0.52709400  1
  Co  Co6  1  0.83287800  0.66575600  0.11017000  1
  Co  Co7  1  0.33333300  0.66666700  0.47290600  1
  Co  Co8  1  0.33333300  0.66666700  0.02709400  1
  Co  Co9  1  0.16712200  0.33424400  0.61017000  1
  Co  Co10  1  0.83287800  0.16712200  0.11017000  1
  Co  Co11  1  0.33424400  0.16712200  0.11017000  1
  Co  Co12  1  0.83287800  0.66575600  0.38983000  1
  Co  Co13  1  0.16712200  0.33424400  0.88983000  1
  Co  Co14  1  0.00000000  0.00000000  0.50000000  1
  Co  Co15  1  0.66575600  0.83287800  0.88983000  1
  Co  Co16  1  0.66666700  0.33333300  0.97290600  1
  Co  Co17  1  0.33333300  0.66666700  0.19328100  1
  Co  Co18  1  0.16712200  0.83287800  0.61017000  1
  Co  Co19  1  0.00000000  0.00000000  0.25000000  1
  Co  Co20  1  0.33333300  0.66666700  0.30671900  1
  Co  Co21  1  0.66666700  0.33333300  0.69328100  1
  Co  Co22  1  0.00000000  0.00000000  0.75000000  1
  Co  Co23  1  0.33424400  0.16712200  0.38983000  1
  O  O0  1  0.33333300  0.66666700  0.56060200  1
  O  O1  1  0.66666700  0.33333300  0.06060200  1
  O  O2  1  0.00000000  0.00000000  0.83895100  1
  O  O3  1  0.50152300  0.00304600  0.84727500  1
  O  O4  1  0.49847700  0.99695400  0.34727500  1
  O  O5  1  0.00000000  0.00000000  0.16104900  1
  O  O6  1  0.33333300  0.66666700  0.93939800  1
  O  O7  1  0.70363800  0.85181900  0.44605300  1
  O  O8  1  0.49847700  0.50152300  0.34727500  1
  O  O9  1  0.50152300  0.49847700  0.84727500  1
  O  O10  1  0.14818100  0.29636200  0.05394700  1
  O  O11  1  0.14818100  0.85181900  0.05394700  1
  O  O12  1  0.29636200  0.14818100  0.94605300  1
  O  O13  1  0.49847700  0.50152300  0.15272500  1
  O  O14  1  0.85181900  0.70363800  0.55394700  1
  O  O15  1  0.50152300  0.00304600  0.65272500  1
  O  O16  1  0.99695400  0.49847700  0.84727500  1
  O  O17  1  0.85181900  0.14818100  0.55394700  1
  O  O18  1  0.18884400  0.81115600  0.25000000  1
  O  O19  1  0.50152300  0.49847700  0.65272500  1
  O  O20  1  0.00304600  0.50152300  0.34727500  1
  O  O21  1  0.81115600  0.62231200  0.75000000  1
  O  O22  1  0.14818100  0.85181900  0.44605300  1
  O  O23  1  0.81115600  0.18884400  0.75000000  1
  O  O24  1  0.00304600  0.50152300  0.15272500  1
  O  O25  1  0.49847700  0.99695400  0.15272500  1
  O  O26  1  0.85181900  0.70363800  0.94605300  1
  O  O27  1  0.14818100  0.29636200  0.44605300  1
  O  O28  1  0.99695400  0.49847700  0.65272500  1
  O  O29  1  0.70363800  0.85181900  0.05394700  1
  O  O30  1  0.85181900  0.14818100  0.94605300  1
  O  O31  1  0.29636200  0.14818100  0.55394700  1
  O  O32  1  0.00000000  0.00000000  0.33895100  1
  O  O33  1  0.66666700  0.33333300  0.43939800  1
  O  O34  1  0.62231200  0.81115600  0.25000000  1
  O  O35  1  0.00000000  0.00000000  0.66104900  1
  O  O36  1  0.37768800  0.18884400  0.75000000  1
  O  O37  1  0.18884400  0.37768800  0.25000000  1
loop_
_geom_bond_atom_site_label_1
_geom_bond_atom_site_label_2
_geom_bond_distance
_geom_bond_site_symmetry_2
Co0 O16 1.930383 1_455
Co0 O3 1.930383 1_565
Co0 O6 2.004238 1_555
Co0 O2 2.028212 1_565
Co0 O26 2.029269 1_455
Co0 O12 2.029269 1_565
Co1 O3 1.890458 1_555
Co1 O16 1.890458 1_555
Co1 O9 1.890462 1_555
Co1 O23 1.928240 1_555
Co1 O36 1.928244 1_555
Co1 O21 1.928244 1_555
Co2 O4 1.930383 1_545
Co2 O20 1.930383 1_655
Co2 O33 2.004238 1_555
Co2 O32 2.028212 1_655
Co2 O7 2.029269 1_545
Co2 O27 2.029269 1_655
Co3 O15 1.930383 1_565
Co3 O19 1.930383 1_555
Co3 O0 2.004242 1_555
Co3 O35 2.028212 1_665
Co3 O14 2.029269 1_555
Co3 O17 2.029269 1_565
Co4 O30 1.916534 1_454
Co4 O11 1.916534 1_545
Co4 O26 1.916534 1_444
Co4 O12 1.916534 1_554
Co4 O29 1.916534 1_445
Co4 O10 1.916534 1_555
Co5 O17 1.953657 1_555
Co5 O31 1.953662 1_555
Co5 O14 1.953662 1_555
Co5 O33 1.964303 1_555
Co6 O24 1.930383 1_655
Co6 O13 1.930383 1_555
Co6 O1 2.004242 1_555
Co6 O5 2.028212 1_665
Co6 O29 2.029269 1_555
Co6 O11 2.029269 1_655
Co7 O22 1.953657 1_555
Co7 O7 1.953662 1_555
Co7 O27 1.953662 1_555
Co7 O0 1.964303 1_555
Co8 O11 1.953657 1_555
Co8 O10 1.953662 1_555
Co8 O29 1.953662 1_555
Co8 O6 1.964303 1_554
Co9 O28 1.930383 1_455
Co9 O19 1.930383 1_555
Co9 O0 2.004242 1_555
Co9 O35 2.028212 1_555
Co9 O31 2.029269 1_555
Co9 O17 2.029269 1_455
Co10 O25 1.930383 1_545
Co10 O24 1.930383 1_655
Co10 O1 2.004238 1_555
Co10 O5 2.028212 1_655
Co10 O29 2.029269 1_545
Co10 O10 2.029269 1_655
Co11 O25 1.930383 1_545
Co11 O13 1.930383 1_555
Co11 O1 2.004242 1_555
Co11 O5 2.028212 1_555
Co11 O10 2.029269 1_555
Co11 O11 2.029269 1_545
Co12 O20 1.930383 1_655
Co12 O8 1.930383 1_555
Co12 O33 2.004242 1_555
Co12 O32 2.028212 1_665
Co12 O7 2.029269 1_555
Co12 O22 2.029269 1_655
Co13 O16 1.930383 1_455
Co13 O9 1.930383 1_555
Co13 O6 2.004242 1_555
Co13 O2 2.028212 1_555
Co13 O12 2.029269 1_555
Co13 O30 2.029269 1_455
Co14 O17 1.916534 1_455
Co14 O22 1.916534 1_545
Co14 O31 1.916534 1_555
Co14 O14 1.916534 1_445
Co14 O27 1.916534 1_555
Co14 O7 1.916534 1_445
Co15 O3 1.930383 1_565
Co15 O9 1.930383 1_555
Co15 O6 2.004242 1_555
Co15 O2 2.028212 1_665
Co15 O26 2.029269 1_555
Co15 O30 2.029269 1_565
Co16 O30 1.953657 1_555
Co16 O26 1.953662 1_555
Co16 O12 1.953662 1_555
Co16 O1 1.964303 1_556
Co17 O24 1.890458 1_555
Co17 O25 1.890458 1_555
Co17 O13 1.890462 1_555
Co17 O18 1.928240 1_555
Co17 O37 1.928244 1_555
Co17 O34 1.928244 1_555
Co18 O28 1.930383 1_455
Co18 O15 1.930383 1_565
Co18 O0 2.004238 1_555
Co18 O35 2.028212 1_565
Co18 O14 2.029269 1_455
Co18 O31 2.029269 1_565
Co19 O18 1.895826 1_545
Co19 O37 1.895827 1_555
Co19 O34 1.895827 1_445
Co19 O32 1.992413 1_555
Co19 O5 1.992413 1_555
Co20 O20 1.890458 1_555
Co20 O4 1.890458 1_555
Co20 O8 1.890462 1_555
Co20 O18 1.928240 1_555
Co20 O37 1.928244 1_555
Co20 O34 1.928244 1_555
Co21 O15 1.890458 1_555
Co21 O28 1.890458 1_555
Co21 O19 1.890462 1_555
Co21 O23 1.928240 1_555
Co21 O36 1.928244 1_555
Co21 O21 1.928244 1_555
Co22 O23 1.895826 1_455
Co22 O21 1.895827 1_445
Co22 O36 1.895827 1_555
Co22 O35 1.992413 1_555
Co22 O2 1.992413 1_555
Co23 O4 1.930383 1_545
Co23 O8 1.930383 1_555
Co23 O33 2.004242 1_555
Co23 O32 2.028212 1_555
Co23 O27 2.029269 1_555
Co23 O22 2.029269 1_545
O3 Sr1 2.756517 1_545
O4 Sr0 2.756517 1_565
O8 Sr0 2.756520 1_555
O9 Sr1 2.756520 1_555
O13 Sr0 2.756520 1_555
O15 Sr1 2.756517 1_545
O16 Sr1 2.756517 1_655
O18 Sr0 2.906582 1_455
O18 Sr0 2.906582 1_565
O19 Sr1 2.756520 1_555
O20 Sr0 2.756517 1_455
O21 Sr1 2.906580 1_655
O21 Sr1 2.906585 1_555
O23 Sr1 2.906582 1_545
O23 Sr1 2.906582 1_655
O24 Sr0 2.756517 1_455
O25 Sr0 2.756517 1_565
O28 Sr1 2.756517 1_655
O34 Sr0 2.906580 1_565
O34 Sr0 2.906585 1_555
O36 Sr1 2.906580 1_545
O36 Sr1 2.906585 1_555
O37 Sr0 2.906580 1_455
O37 Sr0 2.906585 1_555
