# generated using pymatgen
data_V2CdO6
_symmetry_space_group_name_H-M   'P 1'
_cell_length_a   4.96966900
_cell_length_b   5.85515400
_cell_length_c   14.38215700
_cell_angle_alpha   90.00000000
_cell_angle_beta   90.00000000
_cell_angle_gamma   90.00000000
_symmetry_Int_Tables_number   1
_chemical_formula_structural   V2CdO6
_chemical_formula_sum   'V8 Cd4 O24'
_cell_volume   418.49455469
_cell_formula_units_Z   4
loop_
 _symmetry_equiv_pos_site_id
 _symmetry_equiv_pos_as_xyz
  1  'x, y, z'
loop_
 _atom_site_type_symbol
 _atom_site_label
 _atom_site_symmetry_multiplicity
 _atom_site_fract_x
 _atom_site_fract_y
 _atom_site_fract_z
 _atom_site_occupancy
  V  V0  1  0.22121500  0.18271100  0.33250800  1
  V  V1  1  0.22121500  0.68271100  0.16749200  1
  V  V2  1  0.72121500  0.31728900  0.16749200  1
  V  V3  1  0.27878500  0.18271100  0.66749200  1
  V  V4  1  0.27878500  0.68271100  0.83250800  1
  V  V5  1  0.77878500  0.31728900  0.83250800  1
  V  V6  1  0.72121500  0.81728900  0.33250800  1
  V  V7  1  0.77878500  0.81728900  0.66749200  1
  Cd  Cd0  1  0.25000000  0.21802400  0.00000000  1
  Cd  Cd1  1  0.75000000  0.28197600  0.50000000  1
  Cd  Cd2  1  0.75000000  0.78197600  0.00000000  1
  Cd  Cd3  1  0.25000000  0.71802400  0.50000000  1
  O  O0  1  0.89404400  0.65089600  0.24615600  1
  O  O1  1  0.38677000  0.88031800  0.90985800  1
  O  O2  1  0.38677000  0.38031800  0.59014200  1
  O  O3  1  0.48157400  0.42198700  0.89371200  1
  O  O4  1  0.01842600  0.92198700  0.39371200  1
  O  O5  1  0.51842600  0.07801300  0.39371200  1
  O  O6  1  0.11323000  0.88031800  0.09014200  1
  O  O7  1  0.98157400  0.07801300  0.60628800  1
  O  O8  1  0.10595600  0.34910400  0.75384400  1
  O  O9  1  0.11323000  0.38031800  0.40985800  1
  O  O10  1  0.88677000  0.61968200  0.59014200  1
  O  O11  1  0.48157400  0.92198700  0.60628800  1
  O  O12  1  0.89404400  0.15089600  0.25384400  1
  O  O13  1  0.01842600  0.42198700  0.10628800  1
  O  O14  1  0.51842600  0.57801300  0.10628800  1
  O  O15  1  0.98157400  0.57801300  0.89371200  1
  O  O16  1  0.61323000  0.11968200  0.09014200  1
  O  O17  1  0.39404400  0.84910400  0.25384400  1
  O  O18  1  0.10595600  0.84910400  0.74615600  1
  O  O19  1  0.88677000  0.11968200  0.90985800  1
  O  O20  1  0.61323000  0.61968200  0.40985800  1
  O  O21  1  0.39404400  0.34910400  0.24615600  1
  O  O22  1  0.60595600  0.65089600  0.75384400  1
  O  O23  1  0.60595600  0.15089600  0.74615600  1
loop_
_geom_bond_atom_site_label_1
_geom_bond_atom_site_label_2
_geom_bond_distance
_geom_bond_site_symmetry_2
Cd0 O3 2.255530 1_554
Cd0 O13 2.255530 1_555
Cd0 O19 2.295824 1_454
Cd0 O16 2.295824 1_555
Cd0 O6 2.460191 1_545
Cd0 O1 2.460191 1_544
Cd1 O7 2.255530 1_555
Cd1 O5 2.255530 1_555
Cd1 O2 2.295824 1_555
Cd1 O9 2.295824 1_655
Cd1 O10 2.460191 1_555
Cd1 O20 2.460191 1_555
Cd2 O15 2.255530 1_554
Cd2 O14 2.255530 1_555
Cd2 O6 2.295824 1_655
Cd2 O1 2.295824 1_554
Cd2 O16 2.460191 1_565
Cd2 O19 2.460191 1_564
Cd3 O11 2.255530 1_555
Cd3 O4 2.255530 1_555
Cd3 O10 2.295824 1_455
Cd3 O20 2.295824 1_555
Cd3 O2 2.460191 1_555
Cd3 O9 2.460191 1_555
O0 V6 1.797018 1_555
O0 V1 1.989554 1_655
O0 V2 2.415191 1_555
O1 V4 1.692411 1_555
O2 V3 1.692411 1_555
O3 V5 1.825453 1_555
O3 V4 2.030006 1_555
O4 V6 1.825453 1_455
O4 V0 2.030006 1_565
O5 V0 1.825453 1_555
O5 V6 2.030006 1_545
O6 V1 1.692411 1_555
O7 V3 1.825453 1_655
O7 V7 2.030006 1_545
O8 V3 1.797018 1_555
O8 V5 1.989554 1_455
O8 V4 2.415191 1_555
O9 V0 1.692411 1_555
O10 V7 1.692411 1_555
O11 V7 1.825453 1_555
O11 V3 2.030006 1_565
O12 V2 1.797018 1_555
O12 V0 1.989554 1_655
O12 V6 2.415191 1_545
O13 V2 1.825453 1_455
O13 V1 2.030006 1_555
O14 V1 1.825453 1_555
O14 V2 2.030006 1_555
O15 V4 1.825453 1_655
O15 V5 2.030006 1_555
O16 V2 1.692411 1_555
O17 V1 1.797018 1_555
O17 V6 1.989554 1_555
O17 V0 2.415191 1_565
O18 V4 1.797018 1_555
O18 V7 1.989554 1_455
O18 V3 2.415191 1_565
O19 V5 1.692411 1_555
O20 V6 1.692411 1_555
O21 V0 1.797018 1_555
O21 V2 1.989554 1_555
O21 V1 2.415191 1_555
O22 V7 1.797018 1_555
O22 V4 1.989554 1_555
O22 V5 2.415191 1_555
O23 V5 1.797018 1_555
O23 V3 1.989554 1_555
O23 V7 2.415191 1_545
