# generated using pymatgen
data_Ba2YbB2ClO6
_symmetry_space_group_name_H-M   'P 1'
_cell_length_a   5.44103900
_cell_length_b   6.53145600
_cell_length_c   11.44260358
_cell_angle_alpha   85.04565090
_cell_angle_beta   90.00000000
_cell_angle_gamma   90.00000000
_symmetry_Int_Tables_number   1
_chemical_formula_structural   Ba2YbB2ClO6
_chemical_formula_sum   'Ba4 Yb2 B4 Cl2 O12'
_cell_volume   405.12687817
_cell_formula_units_Z   2
loop_
 _symmetry_equiv_pos_site_id
 _symmetry_equiv_pos_as_xyz
  1  'x, y, z'
loop_
 _atom_site_type_symbol
 _atom_site_label
 _atom_site_symmetry_multiplicity
 _atom_site_fract_x
 _atom_site_fract_y
 _atom_site_fract_z
 _atom_site_occupancy
  Ba  Ba0  1  0.75000000  0.09297700  0.29764500  1
  Ba  Ba1  1  0.75000000  0.33367700  0.92414100  1
  Ba  Ba2  1  0.25000000  0.66632300  0.07585900  1
  Ba  Ba3  1  0.25000000  0.90702300  0.70235500  1
  Yb  Yb0  1  0.25000000  0.65064600  0.41415000  1
  Yb  Yb1  1  0.75000000  0.34935400  0.58585000  1
  B  B0  1  0.75000000  0.62418600  0.22503600  1
  B  B1  1  0.75000000  0.78757900  0.57202300  1
  B  B2  1  0.25000000  0.37581400  0.77496400  1
  B  B3  1  0.25000000  0.21242100  0.42797700  1
  Cl  Cl0  1  0.25000000  0.15535100  0.08246500  1
  Cl  Cl1  1  0.75000000  0.84464900  0.91753500  1
  O  O0  1  0.46841700  0.29125500  0.74071400  1
  O  O1  1  0.03214900  0.31765900  0.43484900  1
  O  O2  1  0.25000000  0.53061900  0.85104500  1
  O  O3  1  0.03158300  0.29125500  0.74071400  1
  O  O4  1  0.96785100  0.68234100  0.56515100  1
  O  O5  1  0.75000000  0.46938100  0.14895500  1
  O  O6  1  0.53158300  0.70874500  0.25928600  1
  O  O7  1  0.75000000  0.99166200  0.59150900  1
  O  O8  1  0.53214900  0.68234100  0.56515100  1
  O  O9  1  0.46785100  0.31765900  0.43484900  1
  O  O10  1  0.96841700  0.70874500  0.25928600  1
  O  O11  1  0.25000000  0.00833800  0.40849100  1
loop_
_geom_bond_atom_site_label_1
_geom_bond_atom_site_label_2
_geom_bond_distance
_geom_bond_site_symmetry_2
Ba0 O1 2.715345 1_655
Ba0 O9 2.715345 1_555
Ba0 O6 2.844875 1_545
Ba0 O10 2.844875 1_545
Ba0 O5 2.866417 1_555
Ba0 O11 3.032240 1_655
Ba0 O11 3.032240 1_555
Ba0 Cl0 3.668305 1_555
Ba0 Cl0 3.668305 1_655
Ba1 O3 2.632465 1_655
Ba1 O0 2.632465 1_555
Ba1 O5 2.792305 1_556
Ba1 O2 3.093475 1_655
Ba1 O2 3.093475 1_555
Ba1 Cl1 3.201479 1_545
Ba1 Cl1 3.331714 1_555
Ba1 Cl0 3.416928 1_656
Ba1 Cl0 3.416928 1_556
Ba2 O6 2.632465 1_555
Ba2 O10 2.632465 1_455
Ba2 O2 2.792305 1_554
Ba2 O5 3.093475 1_555
Ba2 O5 3.093475 1_455
Ba2 Cl0 3.201479 1_565
Ba2 Cl0 3.331714 1_555
Ba2 Cl1 3.416928 1_554
Ba2 Cl1 3.416928 1_454
Ba3 O8 2.715345 1_555
Ba3 O4 2.715345 1_455
Ba3 O0 2.844875 1_565
Ba3 O3 2.844875 1_565
Ba3 O2 2.866417 1_555
Ba3 O7 3.032240 1_455
Ba3 O7 3.032240 1_555
Ba3 Cl1 3.668305 1_455
Ba3 Cl1 3.668305 1_555
B0 O6 1.381426 1_555
B0 O10 1.381426 1_555
B0 O5 1.390053 1_555
B1 O7 1.370340 1_555
B1 O8 1.375863 1_555
B1 O4 1.375863 1_555
B2 O0 1.381426 1_555
B2 O3 1.381426 1_555
B2 O2 1.390053 1_555
B3 O11 1.370340 1_555
B3 O9 1.375863 1_555
B3 O1 1.375863 1_555
O0 Yb1 2.348477 1_555
O1 Yb1 2.333854 1_455
O1 Yb0 2.470282 1_555
O3 Yb1 2.348477 1_455
O4 Yb0 2.333854 1_655
O4 Yb1 2.470282 1_555
O6 Yb0 2.348477 1_555
O7 Yb1 2.331550 1_565
O8 Yb0 2.333854 1_555
O8 Yb1 2.470282 1_555
O9 Yb1 2.333854 1_555
O9 Yb0 2.470282 1_555
O10 Yb0 2.348477 1_655
O11 Yb0 2.331550 1_545
