# generated using pymatgen
data_Ho2Te5O13
_symmetry_space_group_name_H-M   'P 1'
_cell_length_a   6.93044245
_cell_length_b   8.63283291
_cell_length_c   10.55263560
_cell_angle_alpha   88.81224330
_cell_angle_beta   86.85377617
_cell_angle_gamma   74.90468080
_symmetry_Int_Tables_number   1
_chemical_formula_structural   Ho2Te5O13
_chemical_formula_sum   'Ho4 Te10 O26'
_cell_volume   608.63931355
_cell_formula_units_Z   2
loop_
 _symmetry_equiv_pos_site_id
 _symmetry_equiv_pos_as_xyz
  1  'x, y, z'
loop_
 _atom_site_type_symbol
 _atom_site_label
 _atom_site_symmetry_multiplicity
 _atom_site_fract_x
 _atom_site_fract_y
 _atom_site_fract_z
 _atom_site_occupancy
  Ho  Ho0  1  0.99854804  0.73866767  0.23807624  1
  Ho  Ho1  1  0.00145196  0.26133233  0.76192376  1
  Ho  Ho2  1  0.55214621  0.52820368  0.17925206  1
  Ho  Ho3  1  0.44785379  0.47179632  0.82074794  1
  Te  Te0  1  0.29234496  0.87857402  0.97334984  1
  Te  Te1  1  0.70765504  0.12142598  0.02665016  1
  Te  Te2  1  0.15492078  0.80409999  0.63953519  1
  Te  Te3  1  0.84507922  0.19590001  0.36046481  1
  Te  Te4  1  0.72734356  0.60435069  0.51547594  1
  Te  Te5  1  0.27265644  0.39564931  0.48452406  1
  Te  Te6  1  0.87643962  0.65025694  0.89370656  1
  Te  Te7  1  0.12356038  0.34974306  0.10629344  1
  Te  Te8  1  0.56347604  0.09779733  0.69754427  1
  Te  Te9  1  0.43652396  0.90220267  0.30245573  1
  O  O0  1  0.93919506  0.98463955  0.30569038  1
  O  O1  1  0.06080494  0.01536045  0.69430962  1
  O  O2  1  0.32910234  0.73980539  0.77187208  1
  O  O3  1  0.67089766  0.26019461  0.22812792  1
  O  O4  1  0.93804257  0.18120072  0.96442964  1
  O  O5  1  0.06195743  0.81879928  0.03557036  1
  O  O6  1  0.87567663  0.50873317  0.10394078  1
  O  O7  1  0.12432337  0.49126683  0.89605922  1
  O  O8  1  0.54190271  0.80497736  0.47968394  1
  O  O9  1  0.45809729  0.19502264  0.52031606  1
  O  O10  1  0.95511356  0.64919174  0.43492183  1
  O  O11  1  0.04488644  0.35080826  0.56507817  1
  O  O12  1  0.65458064  0.01941080  0.87499727  1
  O  O13  1  0.34541936  0.98058920  0.12500273  1
  O  O14  1  0.32940701  0.22483013  0.77711033  1
  O  O15  1  0.67059299  0.77516987  0.22288967  1
  O  O16  1  0.53340494  0.32789240  0.00174212  1
  O  O17  1  0.46659506  0.67210760  0.99825788  1
  O  O18  1  0.23403265  0.49700716  0.18434998  1
  O  O19  1  0.76596735  0.50299284  0.81565002  1
  O  O20  1  0.31387484  0.73446134  0.28904729  1
  O  O21  1  0.68612516  0.26553866  0.71095271  1
  O  O22  1  0.66548982  0.48625318  0.38294783  1
  O  O23  1  0.33451018  0.51374682  0.61705217  1
  O  O24  1  0.06231075  0.26963908  0.27814432  1
  O  O25  1  0.93768925  0.73036092  0.72185568  1
loop_
_geom_bond_atom_site_label_1
_geom_bond_atom_site_label_2
_geom_bond_distance
_geom_bond_site_symmetry_2
Ho0 O0 2.182412 1_555
Ho0 O15 2.226158 1_555
Ho0 O10 2.233414 1_555
Ho0 O20 2.270086 1_655
Ho0 O5 2.287415 1_655
Ho0 O18 2.347617 1_655
Ho0 O6 2.792509 1_555
Ho1 O1 2.182412 1_555
Ho1 O14 2.226158 1_555
Ho1 O11 2.233414 1_555
Ho1 O21 2.270086 1_455
Ho1 O4 2.287415 1_455
Ho1 O19 2.347617 1_455
Ho1 O7 2.792509 1_555
Ho2 O17 2.277083 1_554
Ho2 O18 2.287273 1_555
Ho2 O6 2.302388 1_555
Ho2 O3 2.302562 1_555
Ho2 O22 2.318095 1_555
Ho2 O20 2.363012 1_555
Ho2 O15 2.534793 1_555
Ho2 O16 2.606538 1_555
Ho3 O16 2.277083 1_556
Ho3 O19 2.287273 1_555
Ho3 O7 2.302388 1_555
Ho3 O2 2.302562 1_555
Ho3 O23 2.318095 1_555
Ho3 O21 2.363012 1_555
Ho3 O14 2.534793 1_555
Ho3 O17 2.606538 1_555
O0 Te3 1.862373 1_565
O1 Te2 1.862373 1_545
O2 Te2 1.876019 1_555
O2 Te0 2.430555 1_555
O3 Te3 1.876019 1_555
O3 Te1 2.430555 1_555
O4 Te1 1.883302 1_556
O4 Te7 2.699475 1_656
O5 Te0 1.883302 1_554
O5 Te6 2.699475 1_454
O6 Te7 1.900246 1_655
O6 Te6 2.510829 1_554
O7 Te6 1.900246 1_455
O7 Te7 2.510829 1_556
O8 Te4 1.913348 1_555
O8 Te9 2.121595 1_555
O9 Te5 1.913348 1_555
O9 Te8 2.121595 1_555
O10 Te4 1.876592 1_555
O11 Te5 1.876592 1_555
O12 Te1 1.940038 1_556
O12 Te8 2.053755 1_555
O13 Te0 1.940038 1_554
O13 Te9 2.053755 1_555
O14 Te8 1.871160 1_555
O15 Te9 1.871160 1_555
O16 Te1 1.897018 1_555
O17 Te0 1.897018 1_555
O18 Te7 1.870958 1_555
O19 Te6 1.870958 1_555
O20 Te9 1.871441 1_555
O21 Te8 1.871441 1_555
O22 Te4 1.879251 1_555
O22 Te3 2.501121 1_555
O23 Te5 1.879251 1_555
O23 Te2 2.501121 1_555
O24 Te3 1.938843 1_455
O24 Te7 1.990856 1_555
O25 Te2 1.938843 1_655
O25 Te6 1.990856 1_555
