# generated using pymatgen
data_Ag2SO4
_symmetry_space_group_name_H-M   'P 1'
_cell_length_a   5.53940732
_cell_length_b   6.17326690
_cell_length_c   6.82981243
_cell_angle_alpha   79.51685839
_cell_angle_beta   66.07555190
_cell_angle_gamma   63.34219233
_symmetry_Int_Tables_number   1
_chemical_formula_structural   Ag2SO4
_chemical_formula_sum   'Ag4 S2 O8'
_cell_volume   190.79392952
_cell_formula_units_Z   2
loop_
 _symmetry_equiv_pos_site_id
 _symmetry_equiv_pos_as_xyz
  1  'x, y, z'
loop_
 _atom_site_type_symbol
 _atom_site_label
 _atom_site_symmetry_multiplicity
 _atom_site_fract_x
 _atom_site_fract_y
 _atom_site_fract_z
 _atom_site_occupancy
  Ag  Ag0  1  0.17520032  0.64959837  0.25000000  1
  Ag  Ag1  1  0.57479968  0.85040163  0.25000000  1
  Ag  Ag2  1  0.82479968  0.35040163  0.75000000  1
  Ag  Ag3  1  0.42520032  0.14959837  0.75000000  1
  S  S0  1  0.87500000  0.25000000  0.25000000  1
  S  S1  1  0.12500000  0.75000000  0.75000000  1
  O  O0  1  0.17476421  0.09263743  0.11272041  1
  O  O1  1  0.88012405  0.40736257  0.38727959  1
  O  O2  1  0.73259736  0.09263743  0.38727959  1
  O  O3  1  0.71251338  0.40736257  0.11272041  1
  O  O4  1  0.82523579  0.90736257  0.88727959  1
  O  O5  1  0.11987595  0.59263743  0.61272041  1
  O  O6  1  0.28748662  0.59263743  0.88727959  1
  O  O7  1  0.26740264  0.90736257  0.61272041  1
loop_
_geom_bond_atom_site_label_1
_geom_bond_atom_site_label_2
_geom_bond_distance
_geom_bond_site_symmetry_2
Ag0 O6 2.349166 1_554
Ag0 O5 2.349167 1_555
Ag0 O1 2.495421 1_455
Ag0 O3 2.495425 1_555
Ag0 O2 2.724349 1_465
Ag0 O0 2.724349 1_565
Ag1 O7 2.349168 1_555
Ag1 O4 2.349168 1_554
Ag1 O2 2.495425 1_565
Ag1 O0 2.495434 1_565
Ag1 O1 2.724351 1_555
Ag1 O3 2.724352 1_555
Ag2 O3 2.349166 1_556
Ag2 O1 2.349167 1_555
Ag2 O5 2.495421 1_655
Ag2 O6 2.495425 1_555
Ag2 O7 2.724349 1_645
Ag2 O4 2.724349 1_545
Ag3 O2 2.349168 1_555
Ag3 O0 2.349168 1_556
Ag3 O7 2.495425 1_545
Ag3 O4 2.495434 1_545
Ag3 O5 2.724351 1_555
Ag3 O6 2.724352 1_555
O0 S0 1.483689 1_455
O1 S0 1.483696 1_555
O2 S0 1.483692 1_555
O3 S0 1.483695 1_555
O4 S1 1.483689 1_655
O5 S1 1.483696 1_555
O6 S1 1.483695 1_555
O7 S1 1.483692 1_555
