# generated using pymatgen
data_YbP5
_symmetry_space_group_name_H-M   'P 1'
_cell_length_a   16.65265400
_cell_length_b   5.52402400
_cell_length_c   5.60711359
_cell_angle_alpha   76.45928213
_cell_angle_beta   90.00000000
_cell_angle_gamma   90.00000000
_symmetry_Int_Tables_number   1
_chemical_formula_structural   YbP5
_chemical_formula_sum   'Yb4 P20'
_cell_volume   501.45927996
_cell_formula_units_Z   4
loop_
 _symmetry_equiv_pos_site_id
 _symmetry_equiv_pos_as_xyz
  1  'x, y, z'
loop_
 _atom_site_type_symbol
 _atom_site_label
 _atom_site_symmetry_multiplicity
 _atom_site_fract_x
 _atom_site_fract_y
 _atom_site_fract_z
 _atom_site_occupancy
  Yb  Yb0  1  0.49090200  0.11964400  0.97352200  1
  Yb  Yb1  1  0.26254500  0.42199200  0.01857200  1
  Yb  Yb2  1  0.99090200  0.88035600  0.02647800  1
  Yb  Yb3  1  0.76254500  0.57800800  0.98142800  1
  P  P0  1  0.67115200  0.83377200  0.29131300  1
  P  P1  1  0.13539500  0.78750900  0.73803200  1
  P  P2  1  0.32060200  0.79086800  0.57229200  1
  P  P3  1  0.25845200  0.87027300  0.21707600  1
  P  P4  1  0.13519000  0.77334500  0.34594800  1
  P  P5  1  0.17115200  0.16622800  0.70868700  1
  P  P6  1  0.93719900  0.28480900  0.58514600  1
  P  P7  1  0.12789400  0.37310500  0.34382300  1
  P  P8  1  0.50373600  0.67174900  0.76133900  1
  P  P9  1  0.63539500  0.21249100  0.26196800  1
  P  P10  1  0.40594300  0.34848900  0.34123000  1
  P  P11  1  0.90594300  0.65151100  0.65877000  1
  P  P12  1  0.43719900  0.71519100  0.41485400  1
  P  P13  1  0.63519000  0.22665500  0.65405200  1
  P  P14  1  0.62789400  0.62689500  0.65617700  1
  P  P15  1  0.82060200  0.20913200  0.42770800  1
  P  P16  1  0.33689000  0.16302300  0.65831800  1
  P  P17  1  0.75845200  0.12972700  0.78292400  1
  P  P18  1  0.83689000  0.83697700  0.34168200  1
  P  P19  1  0.00373600  0.32825100  0.23866100  1
loop_
_geom_bond_atom_site_label_1
_geom_bond_atom_site_label_2
_geom_bond_distance
_geom_bond_site_symmetry_2
P0 P9 2.144091 1_565
P0 P14 2.217099 1_555
P0 Yb3 2.912234 1_554
P1 P5 2.144091 1_565
P1 P4 2.218086 1_555
P1 Yb2 3.009498 1_456
P1 Yb1 3.089868 1_556
P2 P3 2.195782 1_555
P2 Yb1 2.993469 1_556
P3 P4 2.200225 1_555
P3 Yb1 2.943857 1_555
P3 Yb1 2.990576 1_565
P4 P7 2.217087 1_555
P4 Yb2 2.972490 1_455
P5 P7 2.217099 1_555
P5 Yb1 2.912234 1_556
P6 Yb2 3.053870 1_546
P7 Yb1 2.862892 1_555
P8 Yb0 2.993516 1_565
P8 Yb0 3.010573 1_555
P9 Yb0 3.009498 1_554
P9 Yb3 3.089868 1_554
P10 P16 2.163346 1_555
P10 P12 2.221770 1_555
P10 Yb1 2.965864 1_555
P10 Yb0 3.011834 1_554
P11 P18 2.163346 1_555
P11 P6 2.221770 1_555
P11 Yb3 2.965864 1_555
P11 Yb2 3.011834 1_556
P12 P8 2.200312 1_555
P12 P2 2.212885 1_555
P12 Yb0 3.053870 1_564
P13 P17 2.200225 1_555
P13 P14 2.217087 1_555
P13 P9 2.218086 1_555
P13 Yb0 2.972490 1_555
P14 P8 2.179978 1_555
P14 Yb3 2.862892 1_555
P15 P17 2.195782 1_555
P15 P6 2.212885 1_555
P15 P18 2.235369 1_545
P15 Yb3 2.993469 1_554
P16 P2 2.235369 1_545
P16 Yb1 3.002120 1_556
P16 Yb0 3.092003 1_555
P17 Yb3 2.943857 1_555
P17 Yb3 2.990576 1_545
P18 Yb3 3.002120 1_554
P18 Yb2 3.092003 1_555
P19 P7 2.179978 1_555
P19 P6 2.200312 1_455
P19 Yb2 2.993516 1_445
P19 Yb2 3.010573 1_455
