# generated using pymatgen
data_TmBRh3
_symmetry_space_group_name_H-M   'P 1'
_cell_length_a   4.15099888
_cell_length_b   4.15099888
_cell_length_c   4.15099888
_cell_angle_alpha   90.00000000
_cell_angle_beta   90.00000000
_cell_angle_gamma   90.00000000
_symmetry_Int_Tables_number   1
_chemical_formula_structural   TmBRh3
_chemical_formula_sum   'Tm1 B1 Rh3'
_cell_volume   71.52499706
_cell_formula_units_Z   1
loop_
 _symmetry_equiv_pos_site_id
 _symmetry_equiv_pos_as_xyz
  1  'x, y, z'
loop_
 _atom_site_type_symbol
 _atom_site_label
 _atom_site_symmetry_multiplicity
 _atom_site_fract_x
 _atom_site_fract_y
 _atom_site_fract_z
 _atom_site_occupancy
  Tm  Tm0  1  0.00000000  0.00000000  0.00000000  1
  B  B0  1  0.50000000  0.50000000  0.50000000  1
  Rh  Rh0  1  0.00000000  0.50000000  0.50000000  1
  Rh  Rh1  1  0.50000000  0.50000000  0.00000000  1
  Rh  Rh2  1  0.50000000  0.00000000  0.50000000  1
loop_
_geom_bond_atom_site_label_1
_geom_bond_atom_site_label_2
_geom_bond_distance
_geom_bond_site_symmetry_2
B0 Rh2 2.075499 1_555
B0 Rh1 2.075499 1_555
B0 Rh1 2.075499 1_556
B0 Rh0 2.075499 1_655
B0 Rh2 2.075499 1_565
B0 Rh0 2.075499 1_555
Rh0 Tm0 2.935199 1_555
Rh0 Tm0 2.935199 1_556
Rh0 Tm0 2.935199 1_565
Rh0 Tm0 2.935199 1_566
Rh1 Tm0 2.935199 1_555
Rh1 Tm0 2.935199 1_565
Rh1 Tm0 2.935199 1_655
Rh1 Tm0 2.935199 1_665
Rh2 Tm0 2.935199 1_555
Rh2 Tm0 2.935199 1_556
Rh2 Tm0 2.935199 1_655
Rh2 Tm0 2.935199 1_656
