# generated using pymatgen
data_Tb6CdS10
_symmetry_space_group_name_H-M   'P 1'
_cell_length_a   7.23316000
_cell_length_b   7.26718627
_cell_length_c   29.92985480
_cell_angle_alpha   94.39682344
_cell_angle_beta   94.84136637
_cell_angle_gamma   108.79817743
_symmetry_Int_Tables_number   1
_chemical_formula_structural   Tb6CdS10
_chemical_formula_sum   'Tb24 Cd4 S40'
_cell_volume   1474.99980410
_cell_formula_units_Z   4
loop_
 _symmetry_equiv_pos_site_id
 _symmetry_equiv_pos_as_xyz
  1  'x, y, z'
loop_
 _atom_site_type_symbol
 _atom_site_label
 _atom_site_symmetry_multiplicity
 _atom_site_fract_x
 _atom_site_fract_y
 _atom_site_fract_z
 _atom_site_occupancy
  Tb  Tb0  1  0.82400000  0.19514600  0.02557400  1
  Tb  Tb1  1  0.99219100  0.63234000  0.12683400  1
  Tb  Tb2  1  0.43193700  0.79407000  0.22697700  1
  Tb  Tb3  1  0.46271300  0.60892500  0.07098300  1
  Tb  Tb4  1  0.60509100  0.24102900  0.32775900  1
  Tb  Tb5  1  0.02942500  0.38207600  0.43493100  1
  Tb  Tb6  1  0.40662400  0.26529600  0.17108100  1
  Tb  Tb7  1  0.06216100  0.19837900  0.27157100  1
  Tb  Tb8  1  0.18910600  0.83561000  0.52760200  1
  Tb  Tb9  1  0.63261100  0.00741700  0.62525300  1
  Tb  Tb10  1  0.01419100  0.87971900  0.37541600  1
  Tb  Tb11  1  0.42093400  0.67247500  0.34995400  1
  Tb  Tb12  1  0.67274200  0.79970000  0.47439200  1
  Tb  Tb13  1  0.80425400  0.43085700  0.72444100  1
  Tb  Tb14  1  0.22320900  0.59597300  0.82593600  1
  Tb  Tb15  1  0.60479600  0.45457500  0.57051400  1
  Tb  Tb16  1  0.26849600  0.39893100  0.66994000  1
  Tb  Tb17  1  0.40415900  0.01811100  0.92186000  1
  Tb  Tb18  1  0.18694600  0.07670000  0.77970600  1
  Tb  Tb19  1  0.62770100  0.87404100  0.75371100  1
  Tb  Tb20  1  0.08014300  0.82362200  0.64922800  1
  Tb  Tb21  1  0.80527700  0.68097500  0.97027900  1
  Tb  Tb22  1  0.21408700  0.45336500  0.94742200  1
  Tb  Tb23  1  0.68028900  0.42866500  0.85197000  1
  Cd  Cd0  1  0.83079800  0.08140500  0.14909500  1
  Cd  Cd1  1  0.27583700  0.03053500  0.05092100  1
  Cd  Cd2  1  0.87477300  0.62599500  0.24909000  1
  Cd  Cd3  1  0.47535100  0.23161400  0.45278500  1
  S  S0  1  0.17307000  0.31109500  0.09944100  1
  S  S1  1  0.67254100  0.30415400  0.10097400  1
  S  S2  1  0.76267100  0.89906800  0.30169200  1
  S  S3  1  0.65284100  0.64318700  0.17551900  1
  S  S4  1  0.27899900  0.91797400  0.30202900  1
  S  S5  1  0.10341200  0.97353900  0.19842100  1
  S  S6  1  0.07344200  0.57079400  0.02583600  1
  S  S7  1  0.84027600  0.85758500  0.07504700  1
  S  S8  1  0.36774800  0.49951000  0.49964700  1
  S  S9  1  0.25499800  0.26503500  0.37261000  1
  S  S10  1  0.36821100  0.87944300  0.12506000  1
  S  S11  1  0.85913700  0.51690900  0.50041600  1
  S  S12  1  0.70936000  0.57562900  0.39616200  1
  S  S13  1  0.44034000  0.44882400  0.27304800  1
  S  S14  1  0.68012800  0.16613600  0.22541800  1
  S  S15  1  0.96680900  0.09916300  0.69990500  1
  S  S16  1  0.10384000  0.47789500  0.20128700  1
  S  S17  1  0.98475900  0.49063600  0.32272400  1
  S  S18  1  0.84697200  0.83831400  0.57412400  1
  S  S19  1  0.46750900  0.10169000  0.70201700  1
  S  S20  1  0.30625700  0.15036400  0.60109500  1
  S  S21  1  0.27428500  0.75340000  0.42611500  1
  S  S22  1  0.54437900  0.69473400  0.89957400  1
  S  S23  1  0.04731500  0.04043800  0.46801700  1
  S  S24  1  0.68581000  0.06768100  0.40122600  1
  S  S25  1  0.57140100  0.07306500  0.52633000  1
  S  S26  1  0.06019600  0.68950800  0.90058000  1
  S  S27  1  0.45512100  0.45387500  0.77251200  1
  S  S28  1  0.90038400  0.74425600  0.79841500  1
  S  S29  1  0.88894400  0.39474100  0.63196700  1
  S  S30  1  0.65254500  0.66394500  0.67468100  1
  S  S31  1  0.31427400  0.67287900  0.60186000  1
  S  S32  1  0.19110100  0.68335100  0.72719600  1
  S  S33  1  0.07457000  0.05965200  0.97763700  1
  S  S34  1  0.51358100  0.38129400  0.99858600  1
  S  S35  1  0.46853700  0.97705100  0.82700400  1
  S  S36  1  0.26583800  0.25804400  0.86977300  1
  S  S37  1  0.89813600  0.26252900  0.79785000  1
  S  S38  1  0.78473400  0.28595500  0.92931900  1
  S  S39  1  0.49568600  0.86411300  0.99866000  1
loop_
_geom_bond_atom_site_label_1
_geom_bond_atom_site_label_2
_geom_bond_distance
_geom_bond_site_symmetry_2
Cd0 S7 2.665873 1_545
Cd0 S1 2.697857 1_555
Cd0 S5 2.713753 1_645
Cd0 S14 2.724350 1_555
Cd0 S0 3.076054 1_655
Cd0 S16 3.124836 1_655
Cd0 S10 3.183399 1_545
Cd0 S3 3.215629 1_545
Cd1 S33 2.589544 1_554
Cd1 S10 2.678063 1_545
Cd1 S0 2.742885 1_555
Cd1 S39 2.794156 1_544
Cd1 S1 3.093907 1_555
Cd1 S7 3.161941 1_445
Cd1 S6 3.185432 1_545
Cd1 S34 3.185929 1_554
Cd2 S17 2.645428 1_555
Cd2 S3 2.648765 1_555
Cd2 S16 2.695162 1_655
Cd2 S2 2.801378 1_555
Cd2 S5 3.119700 1_655
Cd2 S13 3.156038 1_555
Cd2 S14 3.176264 1_555
Cd3 S8 2.665582 1_555
Cd3 S25 2.702244 1_555
Cd3 S24 2.720544 1_555
Cd3 S9 2.837395 1_555
Cd3 S11 3.034231 1_555
Cd3 S23 3.047427 1_555
S0 Tb6 2.724423 1_555
S0 Tb3 2.731434 1_555
S0 Tb0 3.061668 1_455
S0 Tb1 3.112883 1_455
S1 Tb1 2.737525 1_555
S1 Tb0 2.760976 1_555
S1 Tb6 2.933285 1_555
S1 Tb3 3.202487 1_555
S2 Tb10 2.780875 1_655
S2 Tb7 2.798265 1_665
S2 Tb2 2.994114 1_555
S2 Tb11 3.041751 1_555
S2 Tb4 3.124392 1_565
S3 Tb2 2.722674 1_555
S3 Tb6 2.735535 1_555
S3 Tb1 2.977446 1_555
S3 Tb3 3.267400 1_555
S4 Tb4 2.741451 1_565
S4 Tb11 2.760191 1_555
S4 Tb2 2.798503 1_555
S4 Tb10 3.005174 1_555
S4 Tb7 3.089770 1_565
S5 Tb7 2.725460 1_565
S5 Tb6 2.747215 1_565
S5 Tb1 2.999165 1_455
S5 Tb2 3.147004 1_555
S6 Tb0 2.743683 1_455
S6 Tb21 2.798053 1_454
S6 Tb22 2.815425 1_554
S6 Tb3 2.937368 1_555
S6 Tb1 3.153580 1_455
S7 Tb3 2.732804 1_555
S7 Tb1 2.747726 1_555
S7 Tb0 2.989619 1_565
S7 Tb21 3.253222 1_554
S8 Tb15 2.720018 1_555
S8 Tb12 2.762228 1_555
S8 Tb5 2.840617 1_555
S8 Tb8 3.199788 1_555
S9 Tb10 2.792719 1_545
S9 Tb5 2.833656 1_555
S9 Tb11 2.970260 1_555
S9 Tb4 3.011220 1_555
S9 Tb7 3.154872 1_555
S10 Tb1 2.741576 1_455
S10 Tb3 2.741629 1_555
S10 Tb6 2.945897 1_565
S10 Tb2 3.184217 1_555
S11 Tb5 2.685057 1_655
S11 Tb8 2.746521 1_655
S11 Tb15 2.872542 1_555
S11 Tb12 2.915756 1_555
S12 Tb11 2.714567 1_555
S12 Tb10 2.726156 1_655
S12 Tb12 2.828779 1_555
S12 Tb4 2.909824 1_555
S12 Tb5 3.252683 1_655
S13 Tb7 2.748772 1_555
S13 Tb11 2.754544 1_555
S13 Tb4 2.755235 1_555
S13 Tb2 2.968932 1_555
S13 Tb6 3.192617 1_555
S14 Tb2 2.727835 1_545
S14 Tb6 2.762820 1_555
S14 Tb7 2.913362 1_655
S14 Tb4 3.191938 1_555
S15 Tb20 2.790034 1_645
S15 Tb18 2.802141 1_655
S15 Tb16 2.806795 1_655
S15 Tb9 3.016842 1_555
S15 Tb13 3.071332 1_555
S15 Tb19 3.125829 1_545
S16 Tb2 2.722043 1_555
S16 Tb1 2.746164 1_455
S16 Tb7 3.001615 1_555
S16 Tb6 3.209601 1_555
S17 Tb7 2.753315 1_655
S17 Tb4 2.784973 1_555
S17 Tb11 3.012972 1_655
S17 Tb10 3.065795 1_655
S17 Tb5 3.520310 1_655
S18 Tb20 2.724272 1_655
S18 Tb9 2.756119 1_565
S18 Tb15 2.762357 1_555
S18 Tb8 2.944846 1_655
S18 Tb12 3.096068 1_555
S19 Tb19 2.792591 1_545
S19 Tb13 2.797911 1_555
S19 Tb9 2.814822 1_555
S19 Tb20 3.089435 1_545
S19 Tb16 3.122270 1_555
S19 Tb18 3.190869 1_555
S20 Tb16 2.725001 1_555
S20 Tb15 2.820526 1_555
S20 Tb8 2.907456 1_545
S20 Tb9 2.929452 1_555
S20 Tb20 2.967809 1_545
S21 Tb11 2.696610 1_555
S21 Tb10 2.743949 1_555
S21 Tb5 2.756118 1_555
S21 Tb12 3.017464 1_555
S21 Tb8 3.199647 1_555
S22 Tb21 2.743982 1_555
S22 Tb23 2.788216 1_555
S22 Tb17 2.899347 1_565
S22 Tb14 2.930528 1_555
S22 Tb22 3.016152 1_555
S23 Tb12 2.742506 1_445
S23 Tb8 2.744106 1_545
S23 Tb5 2.779168 1_555
S23 Tb10 2.883437 1_545
S24 Tb4 2.728528 1_555
S24 Tb5 2.824681 1_655
S24 Tb12 3.027737 1_545
S24 Tb11 3.091258 1_545
S24 Tb10 3.216082 1_645
S25 Tb12 2.749118 1_545
S25 Tb8 2.752852 1_545
S25 Tb15 2.906241 1_555
S25 Tb9 3.053049 1_555
S26 Tb22 2.736075 1_555
S26 Tb14 2.751686 1_555
S26 Tb17 2.822852 1_565
S26 Tb21 2.889782 1_455
S26 Tb23 2.967555 1_455
S27 Tb14 2.784401 1_555
S27 Tb23 2.819068 1_555
S27 Tb18 2.838399 1_555
S27 Tb19 3.020571 1_555
S27 Tb13 3.053515 1_555
S27 Tb16 3.189278 1_555
S28 Tb19 2.741699 1_555
S28 Tb18 2.760913 1_665
S28 Tb13 2.918722 1_555
S28 Tb14 2.953849 1_655
S28 Tb23 3.000825 1_555
S29 Tb15 2.802986 1_555
S29 Tb9 2.808542 1_555
S29 Tb16 2.871197 1_655
S29 Tb13 2.895324 1_555
S29 Tb20 2.957750 1_655
S30 Tb13 2.756871 1_555
S30 Tb19 2.766438 1_555
S30 Tb16 2.808840 1_555
S30 Tb9 3.033454 1_565
S30 Tb20 3.116579 1_655
S30 Tb15 3.302522 1_555
S31 Tb20 2.727767 1_555
S31 Tb9 2.749868 1_565
S31 Tb8 2.812691 1_555
S31 Tb16 2.921642 1_555
S31 Tb15 3.172689 1_555
S32 Tb20 2.775729 1_555
S32 Tb13 2.798601 1_455
S32 Tb16 2.808344 1_555
S32 Tb19 3.018457 1_555
S32 Tb14 3.075340 1_555
S32 Tb18 3.164909 1_565
S33 Tb0 2.772245 1_456
S33 Tb21 2.792085 1_445
S33 Tb22 2.951699 1_555
S33 Tb17 3.101556 1_555
S34 Tb21 2.745119 1_555
S34 Tb3 2.746684 1_556
S34 Tb22 2.757960 1_555
S34 Tb0 3.056597 1_556
S34 Tb17 3.206792 1_555
S35 Tb18 2.701482 1_565
S35 Tb19 2.725399 1_555
S35 Tb14 2.762067 1_555
S35 Tb17 2.923824 1_565
S35 Tb23 3.141135 1_565
S36 Tb22 2.745809 1_555
S36 Tb17 2.783776 1_555
S36 Tb18 2.835512 1_555
S36 Tb14 2.959930 1_555
S36 Tb23 2.963695 1_555
S37 Tb13 2.735043 1_555
S37 Tb14 2.790917 1_655
S37 Tb23 2.814493 1_555
S37 Tb18 2.894780 1_655
S37 Tb19 2.995825 1_545
S38 Tb23 2.753833 1_555
S38 Tb17 2.791547 1_555
S38 Tb22 2.932275 1_655
S38 Tb21 2.986729 1_555
S38 Tb0 3.014951 1_556
S39 Tb17 2.754889 1_565
S39 Tb0 2.788152 1_566
S39 Tb3 2.932441 1_556
S39 Tb21 3.094488 1_555
S39 Tb22 3.203617 1_555
