# generated using pymatgen
data_Eu3(BO3)2
_symmetry_space_group_name_H-M   'P 1'
_cell_length_a   6.65158524
_cell_length_b   6.65158524
_cell_length_c   6.65158642
_cell_angle_alpha   85.47425311
_cell_angle_beta   85.47425311
_cell_angle_gamma   85.47425290
_symmetry_Int_Tables_number   1
_chemical_formula_structural   Eu3(BO3)2
_chemical_formula_sum   'Eu6 B4 O12'
_cell_volume   291.67448088
_cell_formula_units_Z   2
loop_
 _symmetry_equiv_pos_site_id
 _symmetry_equiv_pos_as_xyz
  1  'x, y, z'
loop_
 _atom_site_type_symbol
 _atom_site_label
 _atom_site_symmetry_multiplicity
 _atom_site_fract_x
 _atom_site_fract_y
 _atom_site_fract_z
 _atom_site_occupancy
  Eu  Eu0  1  0.39762245  0.10237755  0.75000000  1
  Eu  Eu1  1  0.10237755  0.75000000  0.39762245  1
  Eu  Eu2  1  0.75000000  0.39762245  0.10237755  1
  Eu  Eu3  1  0.60237755  0.89762245  0.25000000  1
  Eu  Eu4  1  0.89762245  0.25000000  0.60237755  1
  Eu  Eu5  1  0.25000000  0.60237755  0.89762245  1
  B  B0  1  0.88517457  0.88517457  0.88517457  1
  B  B1  1  0.61482543  0.61482543  0.61482543  1
  B  B2  1  0.11482543  0.11482543  0.11482543  1
  B  B3  1  0.38517457  0.38517457  0.38517457  1
  O  O0  1  0.72933492  0.03657012  0.89498417  1
  O  O1  1  0.03657012  0.89498417  0.72933492  1
  O  O2  1  0.89498417  0.72933492  0.03657012  1
  O  O3  1  0.46342988  0.77066508  0.60501583  1
  O  O4  1  0.77066508  0.60501583  0.46342988  1
  O  O5  1  0.60501583  0.46342988  0.77066508  1
  O  O6  1  0.27066508  0.96342988  0.10501583  1
  O  O7  1  0.96342988  0.10501583  0.27066508  1
  O  O8  1  0.10501583  0.27066508  0.96342988  1
  O  O9  1  0.53657012  0.22933492  0.39498417  1
  O  O10  1  0.22933492  0.39498417  0.53657012  1
  O  O11  1  0.39498417  0.53657012  0.22933492  1
loop_
_geom_bond_atom_site_label_1
_geom_bond_atom_site_label_2
_geom_bond_distance
_geom_bond_site_symmetry_2
Eu0 O3 2.471163 1_545
Eu0 O0 2.471163 1_555
Eu0 O8 2.554877 1_555
Eu0 O10 2.554877 1_555
Eu0 O6 2.570535 1_546
Eu0 O9 2.570535 1_555
Eu0 O5 2.879981 1_555
Eu0 O1 2.879981 1_545
Eu1 O4 2.471163 1_455
Eu1 O1 2.471163 1_555
Eu1 O11 2.554877 1_555
Eu1 O6 2.554878 1_555
Eu1 O7 2.570535 1_465
Eu1 O10 2.570535 1_555
Eu1 O3 2.879981 1_555
Eu1 O2 2.879982 1_455
Eu2 O2 2.471163 1_555
Eu2 O5 2.471163 1_554
Eu2 O7 2.554877 1_555
Eu2 O9 2.554878 1_555
Eu2 O11 2.570535 1_555
Eu2 O8 2.570535 1_654
Eu2 O0 2.879981 1_554
Eu2 O4 2.879982 1_555
Eu3 O9 2.471163 1_565
Eu3 O6 2.471163 1_555
Eu3 O2 2.554877 1_555
Eu3 O4 2.554877 1_555
Eu3 O3 2.570535 1_555
Eu3 O0 2.570535 1_564
Eu3 O7 2.879981 1_565
Eu3 O11 2.879981 1_555
Eu4 O10 2.471163 1_655
Eu4 O7 2.471163 1_555
Eu4 O5 2.554877 1_555
Eu4 O0 2.554878 1_555
Eu4 O1 2.570535 1_645
Eu4 O4 2.570535 1_555
Eu4 O9 2.879981 1_555
Eu4 O8 2.879982 1_655
Eu5 O8 2.471163 1_555
Eu5 O11 2.471163 1_556
Eu5 O1 2.554877 1_555
Eu5 O3 2.554878 1_555
Eu5 O5 2.570535 1_555
Eu5 O2 2.570535 1_456
Eu5 O6 2.879981 1_556
Eu5 O10 2.879982 1_555
B0 O0 1.388455 1_565
B0 O2 1.388455 1_556
B0 O1 1.388455 1_655
B1 O3 1.388455 1_555
B1 O4 1.388455 1_555
B1 O5 1.388455 1_555
B2 O6 1.388455 1_545
B2 O8 1.388455 1_554
B2 O7 1.388455 1_455
B3 O9 1.388455 1_555
B3 O10 1.388455 1_555
B3 O11 1.388455 1_555
