# generated using pymatgen
data_Al2P3H9(CO3)3
_symmetry_space_group_name_H-M   'P 1'
_cell_length_a   14.28306687
_cell_length_b   14.28306687
_cell_length_c   8.70717300
_cell_angle_alpha   90.00000000
_cell_angle_beta   90.00000000
_cell_angle_gamma   120.00000401
_symmetry_Int_Tables_number   1
_chemical_formula_structural   Al2P3H9(CO3)3
_chemical_formula_sum   'Al8 P12 H36 C12 O36'
_cell_volume   1538.33430951
_cell_formula_units_Z   4
loop_
 _symmetry_equiv_pos_site_id
 _symmetry_equiv_pos_as_xyz
  1  'x, y, z'
loop_
 _atom_site_type_symbol
 _atom_site_label
 _atom_site_symmetry_multiplicity
 _atom_site_fract_x
 _atom_site_fract_y
 _atom_site_fract_z
 _atom_site_occupancy
  Al  Al0  1  0.33333300  0.66666700  0.99088900  1
  Al  Al1  1  0.90295900  0.39675900  0.05854600  1
  Al  Al2  1  0.09704100  0.49379900  0.55854600  1
  Al  Al3  1  0.66666700  0.33333300  0.49088900  1
  Al  Al4  1  0.60324100  0.50620100  0.05854600  1
  Al  Al5  1  0.39675900  0.90295900  0.55854600  1
  Al  Al6  1  0.50620100  0.60324100  0.55854600  1
  Al  Al7  1  0.49379900  0.09704100  0.05854600  1
  P  P0  1  0.34863100  0.86533300  0.20033300  1
  P  P1  1  0.86533300  0.34863100  0.70033300  1
  P  P2  1  0.81068600  0.52920500  0.23208100  1
  P  P3  1  0.71851800  0.18931400  0.23208100  1
  P  P4  1  0.18931400  0.71851800  0.73208100  1
  P  P5  1  0.13466700  0.48329800  0.20033300  1
  P  P6  1  0.47079500  0.28148200  0.23208100  1
  P  P7  1  0.52920500  0.81068600  0.73208100  1
  P  P8  1  0.48329800  0.13466700  0.70033300  1
  P  P9  1  0.51670200  0.65136900  0.20033300  1
  P  P10  1  0.28148200  0.47079500  0.73208100  1
  P  P11  1  0.65136900  0.51670200  0.70033300  1
  H  H0  1  0.96076300  0.66527100  0.37352600  1
  H  H1  1  0.93782000  0.71890800  0.20128500  1
  H  H2  1  0.61976400  0.83559600  0.11958400  1
  H  H3  1  0.28109200  0.21891100  0.20128500  1
  H  H4  1  0.16440400  0.78416800  0.11958400  1
  H  H5  1  0.17643800  0.73301700  0.30040100  1
  H  H6  1  0.84158300  0.14853300  0.36378500  1
  H  H7  1  0.21891100  0.28109200  0.70128500  1
  H  H8  1  0.18889300  0.86439500  0.28947900  1
  H  H9  1  0.73301700  0.17643800  0.80040100  1
  H  H10  1  0.33472900  0.29549200  0.37352600  1
  H  H11  1  0.15841700  0.30695000  0.86378500  1
  H  H12  1  0.71890800  0.93782000  0.70128500  1
  H  H13  1  0.55657800  0.82356200  0.30040100  1
  H  H14  1  0.13560500  0.32449800  0.28947900  1
  H  H15  1  0.69305000  0.85146700  0.86378500  1
  H  H16  1  0.32449800  0.13560500  0.78947900  1
  H  H17  1  0.83559600  0.61976400  0.61958400  1
  H  H18  1  0.86439500  0.18889300  0.78947900  1
  H  H19  1  0.70450800  0.03923700  0.37352600  1
  H  H20  1  0.78108900  0.06218000  0.20128500  1
  H  H21  1  0.67550200  0.81110700  0.28947900  1
  H  H22  1  0.21583200  0.38023600  0.11958400  1
  H  H23  1  0.82356200  0.55657800  0.80040100  1
  H  H24  1  0.14853300  0.84158300  0.86378500  1
  H  H25  1  0.81110700  0.67550200  0.78947900  1
  H  H26  1  0.78416800  0.16440400  0.61958400  1
  H  H27  1  0.29549200  0.33472900  0.87352600  1
  H  H28  1  0.03923700  0.70450800  0.87352600  1
  H  H29  1  0.85146700  0.69305000  0.36378500  1
  H  H30  1  0.26698300  0.44342200  0.30040100  1
  H  H31  1  0.30695000  0.15841700  0.36378500  1
  H  H32  1  0.44342200  0.26698300  0.80040100  1
  H  H33  1  0.06218000  0.78108900  0.70128500  1
  H  H34  1  0.66527100  0.96076300  0.87352600  1
  H  H35  1  0.38023600  0.21583200  0.61958400  1
  C  C0  1  0.60063100  0.79424900  0.23084400  1
  C  C1  1  0.39936900  0.19361800  0.73084400  1
  C  C2  1  0.23375200  0.33522100  0.79904000  1
  C  C3  1  0.89853100  0.66477900  0.29904000  1
  C  C4  1  0.10146900  0.76624800  0.79904000  1
  C  C5  1  0.66477900  0.89853100  0.79904000  1
  C  C6  1  0.80638200  0.20575100  0.73084400  1
  C  C7  1  0.20575100  0.80638200  0.23084400  1
  C  C8  1  0.76624800  0.10146900  0.29904000  1
  C  C9  1  0.33522100  0.23375200  0.29904000  1
  C  C10  1  0.79424900  0.60063100  0.73084400  1
  C  C11  1  0.19361800  0.39936900  0.23084400  1
  O  O0  1  0.58624700  0.21032300  0.61656200  1
  O  O1  1  0.58752600  0.61630200  0.10886800  1
  O  O2  1  0.70486900  0.24753900  0.36662200  1
  O  O3  1  0.54267000  0.29513100  0.36662200  1
  O  O4  1  0.24753900  0.70486900  0.86662200  1
  O  O5  1  0.41375300  0.62407600  0.11656200  1
  O  O6  1  0.53516400  0.73316800  0.61297600  1
  O  O7  1  0.89610200  0.40597400  0.85895500  1
  O  O8  1  0.38757900  0.50214100  0.64435000  1
  O  O9  1  0.21032300  0.58624700  0.11656200  1
  O  O10  1  0.40597400  0.89610200  0.35895500  1
  O  O11  1  0.97122400  0.38369800  0.60886800  1
  O  O12  1  0.62407600  0.41375300  0.61656200  1
  O  O13  1  0.29513100  0.54267000  0.86662200  1
  O  O14  1  0.59402600  0.49012800  0.85895500  1
  O  O15  1  0.37592400  0.78967700  0.11656200  1
  O  O16  1  0.49012800  0.59402600  0.35895500  1
  O  O17  1  0.19800400  0.46483600  0.61297600  1
  O  O18  1  0.61242100  0.11456100  0.14435000  1
  O  O19  1  0.02877600  0.41247400  0.10886800  1
  O  O20  1  0.50214100  0.38757900  0.14435000  1
  O  O21  1  0.46483600  0.19800400  0.11297600  1
  O  O22  1  0.11456100  0.61242100  0.64435000  1
  O  O23  1  0.78967700  0.37592400  0.61656200  1
  O  O24  1  0.61630200  0.58752600  0.60886800  1
  O  O25  1  0.75246100  0.45733000  0.36662200  1
  O  O26  1  0.38369800  0.97122400  0.10886800  1
  O  O27  1  0.80199600  0.26683200  0.11297600  1
  O  O28  1  0.10389800  0.50987200  0.35895500  1
  O  O29  1  0.41247400  0.02877600  0.60886800  1
  O  O30  1  0.50987200  0.10389800  0.85895500  1
  O  O31  1  0.49785900  0.88543900  0.64435000  1
  O  O32  1  0.73316800  0.53516400  0.11297600  1
  O  O33  1  0.45733000  0.75246100  0.86662200  1
  O  O34  1  0.26683200  0.80199600  0.61297600  1
  O  O35  1  0.88543900  0.49785900  0.14435000  1
loop_
_geom_bond_atom_site_label_1
_geom_bond_atom_site_label_2
_geom_bond_distance
_geom_bond_site_symmetry_2
Al0 O15 1.893557 1_556
Al0 O9 1.893559 1_556
Al0 O5 1.893568 1_556
Al0 O4 1.907543 1_555
Al0 O33 1.907551 1_555
Al0 O13 1.907554 1_555
Al1 O7 1.749288 1_554
Al1 O35 1.751380 1_555
Al1 O19 1.751686 1_655
Al1 O27 1.752675 1_555
Al2 O28 1.749290 1_555
Al2 O22 1.751406 1_555
Al2 O11 1.751680 1_455
Al2 O17 1.752665 1_555
Al3 O23 1.893557 1_555
Al3 O0 1.893559 1_555
Al3 O12 1.893568 1_555
Al3 O2 1.907543 1_555
Al3 O25 1.907551 1_555
Al3 O3 1.907554 1_555
Al4 O14 1.749290 1_554
Al4 O20 1.751396 1_555
Al4 O1 1.751672 1_555
Al4 O32 1.752679 1_555
Al5 O10 1.749288 1_555
Al5 O31 1.751380 1_555
Al5 O29 1.751686 1_565
Al5 O34 1.752675 1_555
Al6 O16 1.749290 1_555
Al6 O8 1.751396 1_555
Al6 O24 1.751672 1_555
Al6 O6 1.752679 1_555
Al7 O30 1.749290 1_554
Al7 O18 1.751406 1_555
Al7 O26 1.751680 1_545
Al7 O21 1.752665 1_555
C0 H2 1.095697 1_555
C0 H13 1.096104 1_555
C0 H21 1.097603 1_555
C0 P9 1.796089 1_555
C1 H35 1.095697 1_555
C1 H32 1.096094 1_555
C1 H16 1.097603 1_555
C1 P8 1.796090 1_555
C2 H7 1.096935 1_555
C2 H11 1.097350 1_555
C2 H27 1.097504 1_555
C2 P10 1.798403 1_555
C3 H1 1.096937 1_555
C3 H29 1.097350 1_555
C3 H0 1.097504 1_555
C3 P2 1.798406 1_555
C4 H33 1.096944 1_555
C4 H24 1.097350 1_555
C4 H28 1.097504 1_555
C4 P4 1.798416 1_555
C5 H12 1.096937 1_555
C5 H15 1.097350 1_555
C5 H34 1.097504 1_555
C5 P7 1.798406 1_555
C6 H26 1.095697 1_555
C6 H9 1.096093 1_555
C6 H18 1.097603 1_555
C6 P1 1.796089 1_555
C7 H4 1.095697 1_555
C7 H5 1.096093 1_555
C7 H8 1.097603 1_555
C7 P0 1.796089 1_555
C8 H20 1.096944 1_555
C8 H6 1.097350 1_555
C8 H19 1.097504 1_555
C8 P3 1.798416 1_555
C9 H3 1.096935 1_555
C9 H31 1.097350 1_555
C9 H10 1.097504 1_555
C9 P6 1.798403 1_555
C10 H17 1.095697 1_555
C10 H23 1.096104 1_555
C10 H25 1.097603 1_555
C10 P11 1.796089 1_555
C11 H22 1.095697 1_555
C11 H30 1.096094 1_555
C11 H14 1.097603 1_555
C11 P5 1.796090 1_555
O0 P8 1.507629 1_555
O1 P9 1.554056 1_555
O2 P3 1.504689 1_555
O3 P6 1.504698 1_555
O4 P4 1.504689 1_555
O5 P9 1.507629 1_555
O6 P7 1.550120 1_555
O7 P1 1.552927 1_555
O8 P10 1.549813 1_555
O9 P5 1.507629 1_555
O10 P0 1.552927 1_555
O11 P1 1.554056 1_555
O12 P11 1.507629 1_555
O13 P10 1.504698 1_555
O14 P11 1.552927 1_555
O15 P0 1.507629 1_555
O16 P9 1.552927 1_555
O17 P10 1.550130 1_555
O18 P3 1.549818 1_555
O19 P5 1.554056 1_555
O20 P6 1.549813 1_555
O21 P6 1.550130 1_555
O22 P4 1.549818 1_555
O23 P1 1.507629 1_555
O24 P11 1.554056 1_555
O25 P2 1.504695 1_555
O26 P0 1.554056 1_555
O27 P3 1.550125 1_555
O28 P5 1.552927 1_555
O29 P8 1.554056 1_555
O30 P8 1.552927 1_555
O31 P7 1.549836 1_555
O32 P2 1.550120 1_555
O33 P7 1.504695 1_555
O34 P4 1.550125 1_555
O35 P2 1.549836 1_555
