# generated using pymatgen
data_Rb3FeO3
_symmetry_space_group_name_H-M   'P 1'
_cell_length_a   6.83021425
_cell_length_b   10.24730416
_cell_length_c   8.75240898
_cell_angle_alpha   97.89726617
_cell_angle_beta   68.99763374
_cell_angle_gamma   100.65083884
_symmetry_Int_Tables_number   1
_chemical_formula_structural   Rb3FeO3
_chemical_formula_sum   'Rb12 Fe4 O12'
_cell_volume   560.34955520
_cell_formula_units_Z   4
loop_
 _symmetry_equiv_pos_site_id
 _symmetry_equiv_pos_as_xyz
  1  'x, y, z'
loop_
 _atom_site_type_symbol
 _atom_site_label
 _atom_site_symmetry_multiplicity
 _atom_site_fract_x
 _atom_site_fract_y
 _atom_site_fract_z
 _atom_site_occupancy
  Rb  Rb0  1  0.89694590  0.36769978  0.36770958  1
  Rb  Rb1  1  0.39694598  0.86769811  0.86770123  1
  Rb  Rb2  1  0.10305256  0.63230300  0.63229922  1
  Rb  Rb3  1  0.60305600  0.13229976  0.13229033  1
  Rb  Rb4  1  0.53278757  0.15575068  0.65580424  1
  Rb  Rb5  1  0.03278753  0.65575283  0.15580105  1
  Rb  Rb6  1  0.46721256  0.84424852  0.34419897  1
  Rb  Rb7  1  0.96721277  0.34424854  0.84419607  1
  Rb  Rb8  1  0.13945306  0.13941058  0.48635369  1
  Rb  Rb9  1  0.63945075  0.63941992  0.98635102  1
  Rb  Rb10  1  0.86054790  0.86058068  0.51364827  1
  Rb  Rb11  1  0.36054791  0.36058962  0.01364608  1
  Fe  Fe0  1  0.49116837  0.49111762  0.34715448  1
  Fe  Fe1  1  0.00883008  0.00888382  0.15284644  1
  Fe  Fe2  1  0.99117517  0.99111467  0.84714666  1
  Fe  Fe3  1  0.50882512  0.50888410  0.65285130  1
  O  O0  1  0.37474165  0.37481725  0.52710420  1
  O  O1  1  0.87474988  0.87481709  0.02710917  1
  O  O2  1  0.62524666  0.62518333  0.47289300  1
  O  O3  1  0.12525992  0.12518285  0.97289498  1
  O  O4  1  0.20793216  0.94275646  0.20790724  1
  O  O5  1  0.70792931  0.44275719  0.70791369  1
  O  O6  1  0.79207196  0.05724100  0.79208526  1
  O  O7  1  0.29207034  0.55724501  0.29209126  1
  O  O8  1  0.81014244  0.07535477  0.34053128  1
  O  O9  1  0.31013482  0.57536161  0.84053968  1
  O  O10  1  0.18986280  0.92463744  0.65946106  1
  O  O11  1  0.68985681  0.42464577  0.15946856  1
loop_
_geom_bond_atom_site_label_1
_geom_bond_atom_site_label_2
_geom_bond_distance
_geom_bond_site_symmetry_2
Fe0 O11 1.854822 1_555
Fe0 O7 1.854958 1_555
Fe0 O2 1.943980 1_555
Fe0 O0 1.949609 1_555
Fe1 O8 1.854811 1_455
Fe1 O4 1.854971 1_545
Fe1 O1 1.943986 1_445
Fe1 O3 1.949612 1_554
Fe2 O10 1.854839 1_655
Fe2 O6 1.854975 1_565
Fe2 O3 1.944073 1_665
Fe2 O1 1.949674 1_556
Fe3 O9 1.854863 1_555
Fe3 O5 1.854989 1_555
Fe3 O0 1.944054 1_555
Fe3 O2 1.949657 1_555
O0 Rb8 2.696373 1_555
O0 Rb7 3.150803 1_455
O0 Rb4 3.152096 1_555
O1 Rb9 2.696348 1_554
O1 Rb6 3.150824 1_555
O1 Rb5 3.152002 1_655
O2 Rb10 2.696350 1_555
O2 Rb5 3.150849 1_655
O2 Rb6 3.152006 1_555
O3 Rb11 2.696373 1_556
O3 Rb4 3.150792 1_555
O3 Rb7 3.152088 1_455
O4 Rb6 2.843263 1_555
O4 Rb1 2.847227 1_554
O4 Rb8 2.898416 1_565
O4 Rb3 2.937563 1_565
O4 Rb10 2.971374 1_455
O4 Rb5 3.001767 1_555
O5 Rb7 2.843228 1_555
O5 Rb0 2.847213 1_555
O5 Rb9 2.898415 1_555
O5 Rb2 2.937574 1_655
O5 Rb11 2.971294 1_556
O5 Rb4 3.001792 1_555
O6 Rb4 2.843230 1_555
O6 Rb3 2.847223 1_556
O6 Rb10 2.898398 1_545
O6 Rb1 2.937571 1_545
O6 Rb8 2.971294 1_655
O6 Rb7 3.001802 1_555
O7 Rb5 2.843267 1_555
O7 Rb2 2.847244 1_555
O7 Rb11 2.898416 1_555
O7 Rb0 2.937576 1_455
O7 Rb9 2.971356 1_554
O7 Rb6 3.001763 1_555
O8 Rb4 2.843742 1_555
O8 Rb3 2.847518 1_555
O8 Rb8 2.898411 1_655
O8 Rb0 2.937913 1_555
O8 Rb10 2.971274 1_545
O8 Rb6 3.002053 1_545
O9 Rb5 2.843639 1_556
O9 Rb2 2.847478 1_555
O9 Rb9 2.898377 1_555
O9 Rb1 2.937829 1_555
O9 Rb11 2.971218 1_556
O9 Rb7 3.002081 1_455
O10 Rb6 2.843643 1_555
O10 Rb1 2.847473 1_555
O10 Rb10 2.898379 1_455
O10 Rb2 2.937808 1_555
O10 Rb8 2.971224 1_565
O10 Rb4 3.002093 1_565
O11 Rb7 2.843746 1_554
O11 Rb0 2.847536 1_555
O11 Rb11 2.898401 1_555
O11 Rb3 2.937922 1_555
O11 Rb9 2.971279 1_554
O11 Rb5 3.002062 1_655
