# generated using pymatgen
data_Cu10Sn3
_symmetry_space_group_name_H-M   'P 1'
_cell_length_a   7.36170068
_cell_length_b   7.36170068
_cell_length_c   7.93468400
_cell_angle_alpha   90.00000000
_cell_angle_beta   90.00000000
_cell_angle_gamma   120.00000611
_symmetry_Int_Tables_number   1
_chemical_formula_structural   Cu10Sn3
_chemical_formula_sum   'Cu20 Sn6'
_cell_volume   372.40589878
_cell_formula_units_Z   2
loop_
 _symmetry_equiv_pos_site_id
 _symmetry_equiv_pos_as_xyz
  1  'x, y, z'
loop_
 _atom_site_type_symbol
 _atom_site_label
 _atom_site_symmetry_multiplicity
 _atom_site_fract_x
 _atom_site_fract_y
 _atom_site_fract_z
 _atom_site_occupancy
  Cu  Cu0  1  0.66666700  0.33333300  0.57421600  1
  Cu  Cu1  1  0.97231600  0.33104400  0.41350100  1
  Cu  Cu2  1  0.35872800  0.02768400  0.41350100  1
  Cu  Cu3  1  0.64127200  0.97231600  0.91350100  1
  Cu  Cu4  1  0.00000000  0.00000000  0.48807900  1
  Cu  Cu5  1  0.66666700  0.33333300  0.24674500  1
  Cu  Cu6  1  0.02775100  0.67101000  0.58074200  1
  Cu  Cu7  1  0.33333300  0.66666700  0.74674500  1
  Cu  Cu8  1  0.33333300  0.66666700  0.07421600  1
  Cu  Cu9  1  0.33333300  0.66666700  0.42002400  1
  Cu  Cu10  1  0.02768400  0.66895600  0.91350100  1
  Cu  Cu11  1  0.66666700  0.33333300  0.92002400  1
  Cu  Cu12  1  0.64325900  0.97224900  0.58074200  1
  Cu  Cu13  1  0.66895600  0.64127200  0.41350100  1
  Cu  Cu14  1  0.32899000  0.35674100  0.58074200  1
  Cu  Cu15  1  0.35674100  0.02775100  0.08074200  1
  Cu  Cu16  1  0.67101000  0.64325900  0.08074200  1
  Cu  Cu17  1  0.33104400  0.35872800  0.91350100  1
  Cu  Cu18  1  0.97224900  0.32899000  0.08074200  1
  Cu  Cu19  1  0.00000000  0.00000000  0.98807900  1
  Sn  Sn0  1  0.68364900  0.97689000  0.24680200  1
  Sn  Sn1  1  0.02311000  0.70676000  0.24680200  1
  Sn  Sn2  1  0.31635100  0.02311000  0.74680200  1
  Sn  Sn3  1  0.97689000  0.29324000  0.74680200  1
  Sn  Sn4  1  0.29324000  0.31635100  0.24680200  1
  Sn  Sn5  1  0.70676000  0.68364900  0.74680200  1
loop_
_geom_bond_atom_site_label_1
_geom_bond_atom_site_label_2
_geom_bond_distance
_geom_bond_site_symmetry_2
Cu0 Cu12 2.576877 1_545
Cu0 Cu6 2.576880 1_655
Cu0 Cu14 2.576885 1_555
Cu0 Cu1 2.593709 1_555
Cu0 Cu2 2.593712 1_555
Cu0 Cu13 2.593716 1_555
Cu0 Cu5 2.598379 1_555
Cu0 Cu11 2.743877 1_555
Cu0 Sn2 2.802155 1_555
Cu0 Sn5 2.802155 1_555
Cu0 Sn3 2.802155 1_555
Cu1 Cu9 2.569854 1_655
Cu1 Cu4 2.612963 1_655
Cu1 Cu5 2.617609 1_555
Cu1 Cu18 2.640379 1_555
Cu1 Sn3 2.661215 1_555
Cu1 Cu6 2.677644 1_655
Cu1 Sn0 2.742703 1_545
Cu1 Sn4 2.756523 1_655
Cu1 Cu14 2.862595 1_655
Cu1 Cu12 2.864839 1_545
Cu1 Sn1 2.916396 1_655
Cu2 Cu9 2.569851 1_545
Cu2 Cu4 2.612963 1_555
Cu2 Cu5 2.617612 1_555
Cu2 Sn2 2.661215 1_555
Cu2 Sn4 2.742707 1_555
Cu2 Sn1 2.756526 1_545
Cu2 Cu6 2.862595 1_545
Cu2 Sn0 2.916389 1_545
Cu3 Cu8 2.593712 1_556
Cu3 Cu7 2.617612 1_555
Cu3 Sn0 2.661215 1_556
Cu3 Sn5 2.742707 1_555
Cu3 Sn3 2.756526 1_565
Cu3 Sn2 2.916389 1_565
Cu4 Cu6 2.634927 1_545
Cu4 Sn1 2.953224 1_545
Cu4 Sn4 2.953227 1_555
Cu4 Sn0 2.953230 1_445
Cu4 Sn3 3.044787 1_455
Cu4 Sn5 3.044790 1_445
Cu4 Sn2 3.044792 1_555
Cu5 Sn0 2.688716 1_545
Cu5 Sn1 2.688723 1_655
Cu5 Sn4 2.688730 1_555
Cu6 Cu9 2.599984 1_555
Cu6 Cu7 2.620807 1_555
Cu6 Sn1 2.664653 1_555
Cu6 Sn2 2.731617 1_565
Cu6 Sn5 2.747479 1_455
Cu6 Sn3 2.927319 1_455
Cu7 Cu9 2.592428 1_555
Cu7 Cu8 2.598379 1_556
Cu7 Sn2 2.688716 1_565
Cu7 Sn3 2.688723 1_455
Cu7 Sn5 2.688730 1_555
Cu8 Cu9 2.743877 1_555
Cu8 Sn0 2.802155 1_555
Cu8 Sn4 2.802155 1_555
Cu8 Sn1 2.802155 1_555
Cu9 Sn0 2.804625 1_555
Cu9 Sn4 2.804625 1_555
Cu9 Sn1 2.804625 1_555
Cu10 Cu11 2.569854 1_455
Cu10 Cu8 2.593709 1_556
Cu10 Cu19 2.612963 1_565
Cu10 Cu7 2.617609 1_555
Cu10 Cu6 2.640379 1_555
Cu10 Sn1 2.661215 1_556
Cu10 Cu18 2.677644 1_456
Cu10 Sn2 2.742703 1_565
Cu10 Sn5 2.756523 1_455
Cu10 Cu16 2.862595 1_456
Cu10 Cu15 2.864839 1_566
Cu10 Sn3 2.916396 1_455
Cu11 Cu3 2.569851 1_545
Cu11 Cu17 2.569859 1_555
Cu11 Cu5 2.592428 1_556
Cu11 Cu18 2.599984 1_556
Cu11 Cu15 2.599987 1_556
Cu11 Cu16 2.599990 1_556
Cu11 Sn2 2.804625 1_555
Cu11 Sn5 2.804625 1_555
Cu11 Sn3 2.804625 1_555
Cu12 Cu9 2.599987 1_555
Cu12 Cu7 2.620810 1_555
Cu12 Cu4 2.634927 1_665
Cu12 Cu3 2.640379 1_555
Cu12 Sn0 2.664653 1_555
Cu12 Cu2 2.677644 1_565
Cu12 Sn5 2.731621 1_555
Cu12 Sn3 2.747482 1_565
Cu12 Cu13 2.862595 1_555
Cu12 Sn2 2.927312 1_565
Cu13 Cu9 2.569859 1_555
Cu13 Cu4 2.612963 1_665
Cu13 Cu5 2.617615 1_555
Cu13 Cu16 2.640379 1_555
Cu13 Sn5 2.661215 1_555
Cu13 Cu14 2.677644 1_555
Cu13 Sn1 2.742701 1_655
Cu13 Sn0 2.756529 1_555
Cu13 Cu6 2.864839 1_655
Cu13 Sn4 2.916393 1_555
Cu14 Cu9 2.599990 1_555
Cu14 Cu7 2.620813 1_555
Cu14 Cu4 2.634927 1_555
Cu14 Cu17 2.640379 1_555
Cu14 Sn4 2.664653 1_555
Cu14 Sn3 2.731614 1_455
Cu14 Sn2 2.747485 1_555
Cu14 Cu2 2.864839 1_555
Cu14 Sn5 2.927316 1_555
Cu15 Cu8 2.576877 1_545
Cu15 Cu5 2.620810 1_555
Cu15 Cu19 2.634927 1_554
Cu15 Cu2 2.640379 1_555
Cu15 Sn2 2.664653 1_554
Cu15 Cu3 2.677644 1_544
Cu15 Sn4 2.731621 1_555
Cu15 Sn1 2.747482 1_545
Cu15 Cu17 2.862595 1_554
Cu15 Sn0 2.927312 1_545
Cu16 Cu8 2.576885 1_555
Cu16 Cu5 2.620813 1_555
Cu16 Cu19 2.634927 1_664
Cu16 Sn5 2.664653 1_554
Cu16 Cu17 2.677644 1_554
Cu16 Sn1 2.731614 1_655
Cu16 Sn0 2.747485 1_555
Cu16 Cu3 2.864839 1_554
Cu16 Sn4 2.927316 1_555
Cu17 Cu8 2.593716 1_556
Cu17 Cu19 2.612963 1_555
Cu17 Cu7 2.617615 1_555
Cu17 Sn4 2.661215 1_556
Cu17 Sn3 2.742701 1_455
Cu17 Sn2 2.756529 1_555
Cu17 Cu18 2.864839 1_456
Cu17 Sn5 2.916393 1_555
Cu18 Cu8 2.576880 1_655
Cu18 Cu5 2.620807 1_555
Cu18 Cu19 2.634927 1_654
Cu18 Sn3 2.664653 1_554
Cu18 Sn0 2.731617 1_545
Cu18 Sn4 2.747479 1_655
Cu18 Cu3 2.862595 1_544
Cu18 Sn1 2.927319 1_655
Cu19 Cu3 2.612963 1_445
Cu19 Sn3 2.953224 1_455
Cu19 Sn5 2.953227 1_445
Cu19 Sn2 2.953230 1_555
Cu19 Sn1 3.044787 1_546
Cu19 Sn4 3.044790 1_556
Cu19 Sn0 3.044792 1_446
