# generated using pymatgen
data_Li2V2(SO4)3
_symmetry_space_group_name_H-M   'P 1'
_cell_length_a   8.01328731
_cell_length_b   8.01328731
_cell_length_c   8.85351474
_cell_angle_alpha   68.34611274
_cell_angle_beta   68.34611274
_cell_angle_gamma   66.68716731
_symmetry_Int_Tables_number   1
_chemical_formula_structural   Li2V2(SO4)3
_chemical_formula_sum   'Li4 V4 S6 O24'
_cell_volume   468.40144134
_cell_formula_units_Z   2
loop_
 _symmetry_equiv_pos_site_id
 _symmetry_equiv_pos_as_xyz
  1  'x, y, z'
loop_
 _atom_site_type_symbol
 _atom_site_label
 _atom_site_symmetry_multiplicity
 _atom_site_fract_x
 _atom_site_fract_y
 _atom_site_fract_z
 _atom_site_occupancy
  Li  Li0  1  0.13020600  0.32504500  0.45234500  1
  Li  Li1  1  0.32504500  0.13020600  0.95234500  1
  Li  Li2  1  0.67495500  0.86979400  0.04765500  1
  Li  Li3  1  0.86979400  0.67495500  0.54765500  1
  V  V0  1  0.62841500  0.12804100  0.51552500  1
  V  V1  1  0.12804100  0.62841400  0.01552500  1
  V  V2  1  0.37158600  0.87195900  0.48447500  1
  V  V3  1  0.87195900  0.37158500  0.98447500  1
  S  S0  1  0.06264900  0.93735100  0.25000000  1
  S  S1  1  0.24811300  0.45737800  0.67965000  1
  S  S2  1  0.75188700  0.54262200  0.32035000  1
  S  S3  1  0.45737800  0.24811300  0.17965000  1
  S  S4  1  0.54262200  0.75188700  0.82035000  1
  S  S5  1  0.93735100  0.06264900  0.75000000  1
  O  O0  1  0.12188100  0.05326600  0.61749400  1
  O  O1  1  0.50487300  0.87707200  0.92410800  1
  O  O2  1  0.78563600  0.10171400  0.67545400  1
  O  O3  1  0.65415100  0.40176800  0.38062900  1
  O  O4  1  0.87707200  0.50487300  0.42410800  1
  O  O5  1  0.61886600  0.73758200  0.30799000  1
  O  O6  1  0.10171400  0.78563600  0.17545400  1
  O  O7  1  0.54494600  0.86706300  0.63797700  1
  O  O8  1  0.49512700  0.12292800  0.07589200  1
  O  O9  1  0.26241800  0.38113400  0.19201000  1
  O  O10  1  0.87811900  0.94673400  0.38250600  1
  O  O11  1  0.86706300  0.54494600  0.13797700  1
  O  O12  1  0.12292800  0.49512700  0.57589200  1
  O  O13  1  0.21436400  0.89828600  0.32454600  1
  O  O14  1  0.45505400  0.13293700  0.36202300  1
  O  O15  1  0.34584900  0.59823200  0.61937100  1
  O  O16  1  0.73758200  0.61886600  0.80799000  1
  O  O17  1  0.59823200  0.34584900  0.11937100  1
  O  O18  1  0.13293700  0.45505400  0.86202300  1
  O  O19  1  0.38113400  0.26241800  0.69201000  1
  O  O20  1  0.89828600  0.21436400  0.82454600  1
  O  O21  1  0.94673400  0.87811900  0.88250600  1
  O  O22  1  0.05326600  0.12188100  0.11749400  1
  O  O23  1  0.40176800  0.65415100  0.88062900  1
loop_
_geom_bond_atom_site_label_1
_geom_bond_atom_site_label_2
_geom_bond_distance
_geom_bond_site_symmetry_2
Li0 O12 2.011866 1_555
Li0 O4 2.012059 1_455
Li0 O9 2.108831 1_555
Li0 O0 2.139699 1_555
Li0 O14 2.446613 1_555
Li1 O8 2.011866 1_556
Li1 O1 2.012059 1_545
Li1 O19 2.108831 1_555
Li1 O22 2.139699 1_556
Li1 O18 2.446613 1_555
Li2 O1 2.011866 1_554
Li2 O8 2.012059 1_565
Li2 O5 2.108831 1_555
Li2 O21 2.139699 1_554
Li2 O11 2.446613 1_555
Li3 O4 2.011866 1_555
Li3 O12 2.012059 1_655
Li3 O16 2.108831 1_555
Li3 O10 2.139699 1_555
Li3 O7 2.446613 1_555
O0 S5 1.505101 1_455
O0 V2 2.173531 1_545
O1 S4 1.475293 1_555
O2 S5 1.466307 1_555
O2 V0 2.126567 1_555
O3 S2 1.455623 1_555
O3 V0 2.126759 1_555
O4 S2 1.475293 1_555
O5 S2 1.493562 1_555
O5 V2 2.189815 1_555
O6 S0 1.466307 1_555
O6 V1 2.126574 1_555
O7 S4 1.533254 1_555
O7 V0 2.212464 1_565
O7 V2 2.255914 1_555
O8 S3 1.475293 1_555
O9 S3 1.493562 1_555
O9 V1 2.189815 1_555
O10 S0 1.505101 1_655
O10 V0 2.173527 1_565
O11 S2 1.533254 1_555
O11 V1 2.212460 1_655
O11 V3 2.255921 1_554
O12 S1 1.475293 1_555
O13 S0 1.466307 1_555
O13 V2 2.126574 1_555
O14 S3 1.533254 1_555
O14 V2 2.212460 1_545
O14 V0 2.255921 1_555
O15 S1 1.455623 1_555
O15 V2 2.126762 1_555
O16 S4 1.493562 1_555
O16 V3 2.189818 1_555
O17 S3 1.455623 1_555
O17 V3 2.126759 1_554
O18 S1 1.533254 1_555
O18 V3 2.212464 1_455
O18 V1 2.255914 1_556
O19 S1 1.493562 1_555
O19 V0 2.189818 1_555
O20 S5 1.466307 1_555
O20 V3 2.126567 1_555
O21 S5 1.505101 1_565
O21 V1 2.173531 1_656
O22 S0 1.505101 1_545
O22 V3 2.173527 1_454
O23 S4 1.455623 1_555
O23 V1 2.126762 1_556
