# generated using pymatgen
data_Ag2Se
_symmetry_space_group_name_H-M   'P 1'
_cell_length_a   4.97040300
_cell_length_b   7.14682900
_cell_length_c   7.77430800
_cell_angle_alpha   90.00000000
_cell_angle_beta   90.00000000
_cell_angle_gamma   90.00000000
_symmetry_Int_Tables_number   1
_chemical_formula_structural   Ag2Se
_chemical_formula_sum   'Ag8 Se4'
_cell_volume   276.16379120
_cell_formula_units_Z   4
loop_
 _symmetry_equiv_pos_site_id
 _symmetry_equiv_pos_as_xyz
  1  'x, y, z'
loop_
 _atom_site_type_symbol
 _atom_site_label
 _atom_site_symmetry_multiplicity
 _atom_site_fract_x
 _atom_site_fract_y
 _atom_site_fract_z
 _atom_site_occupancy
  Ag  Ag0  1  0.25000000  0.25794900  0.97378600  1
  Ag  Ag1  1  0.75000000  0.74205100  0.02621400  1
  Ag  Ag2  1  0.25000000  0.61384800  0.21090600  1
  Ag  Ag3  1  0.75000000  0.75794900  0.52621400  1
  Ag  Ag4  1  0.75000000  0.11384800  0.28909400  1
  Ag  Ag5  1  0.75000000  0.38615200  0.78909400  1
  Ag  Ag6  1  0.25000000  0.88615200  0.71090600  1
  Ag  Ag7  1  0.25000000  0.24205100  0.47378700  1
  Se  Se0  1  0.75000000  0.51513800  0.28350400  1
  Se  Se1  1  0.75000000  0.98486200  0.78350400  1
  Se  Se2  1  0.25000000  0.01513800  0.21649600  1
  Se  Se3  1  0.25000000  0.48486200  0.71649600  1
loop_
_geom_bond_atom_site_label_1
_geom_bond_atom_site_label_2
_geom_bond_distance
_geom_bond_site_symmetry_2
Ag0 Se2 2.563546 1_556
Ag0 Se3 2.575062 1_555
Ag1 Se1 2.563546 1_554
Ag1 Se0 2.575062 1_555
Ag2 Se0 2.644324 1_455
Ag2 Se0 2.644324 1_555
Ag2 Se2 2.868280 1_565
Ag3 Se0 2.563546 1_555
Ag3 Se1 2.575062 1_555
Ag4 Se2 2.644324 1_655
Ag4 Se2 2.644324 1_555
Ag4 Se0 2.868280 1_555
Ag5 Se3 2.644324 1_555
Ag5 Se3 2.644324 1_655
Ag5 Se1 2.868280 1_545
Ag6 Se1 2.644324 1_555
Ag6 Se1 2.644324 1_455
Ag6 Se3 2.868280 1_555
Ag7 Se3 2.563540 1_555
Ag7 Se2 2.575068 1_555
