# generated using pymatgen
data_K2UAs2O9
_symmetry_space_group_name_H-M   'P 1'
_cell_length_a   5.79354100
_cell_length_b   12.77036400
_cell_length_c   13.51120700
_cell_angle_alpha   90.00000000
_cell_angle_beta   90.00000000
_cell_angle_gamma   90.00000000
_symmetry_Int_Tables_number   1
_chemical_formula_structural   K2UAs2O9
_chemical_formula_sum   'K8 U4 As8 O36'
_cell_volume   999.63512708
_cell_formula_units_Z   4
loop_
 _symmetry_equiv_pos_site_id
 _symmetry_equiv_pos_as_xyz
  1  'x, y, z'
loop_
 _atom_site_type_symbol
 _atom_site_label
 _atom_site_symmetry_multiplicity
 _atom_site_fract_x
 _atom_site_fract_y
 _atom_site_fract_z
 _atom_site_occupancy
  K  K0  1  0.49552900  0.00000000  0.32929300  1
  K  K1  1  0.50447100  0.50000000  0.17070700  1
  K  K2  1  0.50447100  0.50000000  0.82929300  1
  K  K3  1  0.49552900  0.00000000  0.67070700  1
  K  K4  1  0.51648500  0.17134800  0.00000000  1
  K  K5  1  0.51648500  0.82865200  0.00000000  1
  K  K6  1  0.48351500  0.67134800  0.50000000  1
  K  K7  1  0.48351500  0.32865200  0.50000000  1
  U  U0  1  0.00000000  0.25000000  0.75000000  1
  U  U1  1  0.00000000  0.75000000  0.75000000  1
  U  U2  1  0.00000000  0.25000000  0.25000000  1
  U  U3  1  0.00000000  0.75000000  0.25000000  1
  As  As0  1  0.97844300  0.50000000  0.38032800  1
  As  As1  1  0.99526900  0.37139400  0.00000000  1
  As  As2  1  0.97844300  0.50000000  0.61967200  1
  As  As3  1  0.00473100  0.12860600  0.50000000  1
  As  As4  1  0.00473100  0.87139400  0.50000000  1
  As  As5  1  0.02155700  0.00000000  0.88032800  1
  As  As6  1  0.02155700  0.00000000  0.11967200  1
  As  As7  1  0.99526900  0.62860600  0.00000000  1
  O  O0  1  0.72868000  0.81958200  0.26840100  1
  O  O1  1  0.15395800  0.89184400  0.17111700  1
  O  O2  1  0.28298200  0.37573400  0.00000000  1
  O  O3  1  0.86317700  0.31404500  0.10110100  1
  O  O4  1  0.86049900  0.50000000  0.00000000  1
  O  O5  1  0.71701800  0.87573400  0.50000000  1
  O  O6  1  0.27132000  0.68041800  0.23159900  1
  O  O7  1  0.13682300  0.18595500  0.39889900  1
  O  O8  1  0.13682300  0.81404500  0.60110100  1
  O  O9  1  0.72868000  0.18041800  0.73159900  1
  O  O10  1  0.26519100  0.50000000  0.38826100  1
  O  O11  1  0.15395800  0.10815600  0.82888300  1
  O  O12  1  0.16223200  0.00000000  0.00000000  1
  O  O13  1  0.83776800  0.50000000  0.50000000  1
  O  O14  1  0.13950100  0.00000000  0.50000000  1
  O  O15  1  0.27132000  0.31958200  0.76840100  1
  O  O16  1  0.86317700  0.31404500  0.89889900  1
  O  O17  1  0.86317700  0.68595500  0.89889900  1
  O  O18  1  0.27132000  0.68041800  0.76840100  1
  O  O19  1  0.84604200  0.60815600  0.67111700  1
  O  O20  1  0.15395800  0.10815600  0.17111700  1
  O  O21  1  0.13682300  0.18595500  0.60110100  1
  O  O22  1  0.15395800  0.89184400  0.82888300  1
  O  O23  1  0.84604200  0.39184400  0.67111700  1
  O  O24  1  0.72868000  0.81958200  0.73159900  1
  O  O25  1  0.26519100  0.50000000  0.61173900  1
  O  O26  1  0.84604200  0.60815600  0.32888300  1
  O  O27  1  0.73480900  0.00000000  0.11173900  1
  O  O28  1  0.28298200  0.62426600  0.00000000  1
  O  O29  1  0.86317700  0.68595500  0.10110100  1
  O  O30  1  0.13682300  0.81404500  0.39889900  1
  O  O31  1  0.73480900  0.00000000  0.88826100  1
  O  O32  1  0.84604200  0.39184400  0.32888300  1
  O  O33  1  0.71701800  0.12426600  0.50000000  1
  O  O34  1  0.27132000  0.31958200  0.23159900  1
  O  O35  1  0.72868000  0.18041800  0.26840100  1
loop_
_geom_bond_atom_site_label_1
_geom_bond_atom_site_label_2
_geom_bond_distance
_geom_bond_site_symmetry_2
K0 O35 2.794618 1_555
K0 O0 2.794618 1_545
K0 O33 3.079722 1_555
K0 O5 3.079722 1_545
K0 O14 3.094241 1_555
K0 O20 3.223532 1_555
K0 O1 3.223532 1_545
K0 O27 3.249914 1_555
K0 O7 3.292803 1_555
K0 O30 3.292803 1_545
K1 O6 2.794618 1_555
K1 O34 2.794618 1_555
K1 O28 3.079722 1_555
K1 O2 3.079722 1_555
K1 O4 3.094241 1_555
K1 O26 3.223532 1_555
K1 O32 3.223532 1_555
K1 O10 3.249914 1_555
K1 O29 3.292803 1_555
K1 O3 3.292803 1_555
K2 O18 2.794618 1_555
K2 O15 2.794618 1_555
K2 O28 3.079722 1_556
K2 O2 3.079722 1_556
K2 O4 3.094241 1_556
K2 O19 3.223532 1_555
K2 O23 3.223532 1_555
K2 O25 3.249914 1_555
K2 O17 3.292803 1_555
K2 O16 3.292803 1_555
K3 O9 2.794618 1_555
K3 O24 2.794618 1_545
K3 O33 3.079722 1_555
K3 O5 3.079722 1_545
K3 O14 3.094241 1_555
K3 O11 3.223532 1_555
K3 O22 3.223532 1_545
K3 O31 3.249914 1_555
K3 O21 3.292803 1_555
K3 O8 3.292803 1_545
K4 O2 2.939835 1_555
K4 O27 2.944026 1_555
K4 O31 2.944026 1_554
K4 O12 3.000063 1_555
K4 O16 3.036621 1_554
K4 O3 3.036621 1_555
K4 O20 3.226124 1_555
K4 O11 3.226124 1_554
K5 O28 2.939835 1_555
K5 O27 2.944026 1_565
K5 O31 2.944026 1_564
K5 O12 3.000063 1_565
K5 O29 3.036621 1_555
K5 O17 3.036621 1_554
K5 O1 3.226124 1_555
K5 O22 3.226124 1_554
K6 O5 2.939835 1_555
K6 O25 2.944026 1_555
K6 O10 2.944026 1_555
K6 O13 3.000063 1_555
K6 O30 3.036621 1_555
K6 O8 3.036621 1_555
K6 O19 3.226124 1_555
K6 O26 3.226124 1_555
K7 O33 2.939835 1_555
K7 O25 2.944026 1_555
K7 O10 2.944026 1_555
K7 O13 3.000063 1_555
K7 O7 3.036621 1_555
K7 O21 3.036621 1_555
K7 O23 3.226124 1_555
K7 O32 3.226124 1_555
As0 O10 1.664740 1_655
As0 O26 1.726044 1_555
As0 O32 1.726044 1_555
As0 O13 1.810703 1_555
As1 O2 1.667798 1_655
As1 O16 1.728573 1_554
As1 O3 1.728573 1_555
As1 O4 1.818499 1_555
As2 O25 1.664740 1_655
As2 O19 1.726044 1_555
As2 O23 1.726044 1_555
As2 O13 1.810703 1_555
As3 O33 1.667798 1_455
As3 O7 1.728573 1_555
As3 O21 1.728573 1_555
As3 O14 1.818499 1_555
As4 O5 1.667798 1_455
As4 O30 1.728573 1_555
As4 O8 1.728573 1_555
As4 O14 1.818499 1_565
As5 O31 1.664740 1_455
As5 O11 1.726044 1_555
As5 O22 1.726044 1_545
As5 O12 1.810703 1_556
As6 O27 1.664740 1_455
As6 O20 1.726044 1_555
As6 O1 1.726044 1_545
As6 O12 1.810703 1_555
As7 O28 1.667798 1_655
As7 O17 1.728573 1_554
As7 O29 1.728573 1_555
As7 O4 1.818499 1_555
O0 U3 1.822712 1_655
O1 U3 2.283135 1_555
O3 U2 2.311848 1_655
O6 U3 1.822712 1_555
O7 U2 2.311848 1_555
O8 U1 2.311848 1_555
O9 U0 1.822712 1_655
O11 U0 2.283135 1_555
O15 U0 1.822712 1_555
O16 U0 2.311848 1_655
O17 U1 2.311848 1_655
O18 U1 1.822712 1_555
O19 U1 2.283135 1_655
O20 U2 2.283135 1_555
O21 U0 2.311848 1_555
O22 U1 2.283135 1_555
O23 U0 2.283135 1_655
O24 U1 1.822712 1_655
O26 U3 2.283135 1_655
O29 U3 2.311848 1_655
O30 U3 2.311848 1_555
O32 U2 2.283135 1_655
O34 U2 1.822712 1_555
O35 U2 1.822712 1_655
