# generated using pymatgen
data_Ba2Nd2Si4O13
_symmetry_space_group_name_H-M   'P 1'
_cell_length_a   6.72460300
_cell_length_b   9.03183660
_cell_length_c   10.22836370
_cell_angle_alpha   86.48489227
_cell_angle_beta   73.58255222
_cell_angle_gamma   86.45483869
_symmetry_Int_Tables_number   1
_chemical_formula_structural   Ba2Nd2Si4O13
_chemical_formula_sum   'Ba4 Nd4 Si8 O26'
_cell_volume   594.13226936
_cell_formula_units_Z   2
loop_
 _symmetry_equiv_pos_site_id
 _symmetry_equiv_pos_as_xyz
  1  'x, y, z'
loop_
 _atom_site_type_symbol
 _atom_site_label
 _atom_site_symmetry_multiplicity
 _atom_site_fract_x
 _atom_site_fract_y
 _atom_site_fract_z
 _atom_site_occupancy
  Ba  Ba0  1  0.27078000  0.17033000  0.44399500  1
  Ba  Ba1  1  0.74455400  0.67268600  0.92551700  1
  Ba  Ba2  1  0.25544600  0.32731400  0.07448300  1
  Ba  Ba3  1  0.72922000  0.82967000  0.55600500  1
  Nd  Nd0  1  0.19403900  0.87977600  0.10165100  1
  Nd  Nd1  1  0.80596100  0.12022400  0.89834900  1
  Nd  Nd2  1  0.31069300  0.60808400  0.39577700  1
  Nd  Nd3  1  0.68930700  0.39191600  0.60422300  1
  Si  Si0  1  0.10502000  0.43983100  0.68709000  1
  Si  Si1  1  0.30161100  0.62223000  0.84488900  1
  Si  Si2  1  0.82256800  0.11395700  0.32381600  1
  Si  Si3  1  0.89498000  0.56016900  0.31291000  1
  Si  Si4  1  0.38915600  0.06690800  0.82341100  1
  Si  Si5  1  0.17743200  0.88604300  0.67618400  1
  Si  Si6  1  0.69838900  0.37777000  0.15511100  1
  Si  Si7  1  0.61084400  0.93309200  0.17658900  1
  O  O0  1  0.16804900  0.77309400  0.81174100  1
  O  O1  1  0.83809100  0.90497500  0.06473100  1
  O  O2  1  0.84992300  0.51585200  0.16566800  1
  O  O3  1  0.53053700  0.60350300  0.74020500  1
  O  O4  1  0.05339400  0.03834800  0.29647600  1
  O  O5  1  0.94660600  0.96165200  0.70352400  1
  O  O6  1  0.65197000  0.98435300  0.32163800  1
  O  O7  1  0.02892600  0.42506300  0.36851800  1
  O  O8  1  0.83195100  0.22690600  0.18825900  1
  O  O9  1  0.30400300  0.63029000  0.00197900  1
  O  O10  1  0.33080800  0.41401200  0.57430900  1
  O  O11  1  0.52840700  0.21395900  0.79577700  1
  O  O12  1  0.46946300  0.39649700  0.25979500  1
  O  O13  1  0.72065600  0.18430400  0.46975500  1
  O  O14  1  0.47159300  0.78604100  0.20422300  1
  O  O15  1  0.27934400  0.81569600  0.53024500  1
  O  O16  1  0.48314100  0.07087500  0.11950500  1
  O  O17  1  0.15007700  0.48414800  0.83433200  1
  O  O18  1  0.16190900  0.09502500  0.93526900  1
  O  O19  1  0.96835000  0.29220900  0.70843200  1
  O  O20  1  0.97107400  0.57493700  0.63148200  1
  O  O21  1  0.34803000  0.01564700  0.67836200  1
  O  O22  1  0.66919200  0.58598800  0.42569100  1
  O  O23  1  0.69599700  0.36971000  0.99802100  1
  O  O24  1  0.03165000  0.70779100  0.29156800  1
  O  O25  1  0.51685900  0.92912500  0.88049500  1
loop_
_geom_bond_atom_site_label_1
_geom_bond_atom_site_label_2
_geom_bond_distance
_geom_bond_site_symmetry_2
Ba0 O4 2.741809 1_555
Ba0 O10 2.749044 1_555
Ba0 O12 2.819590 1_555
Ba0 O21 2.858615 1_555
Ba0 O7 2.926348 1_555
Ba0 O6 2.978316 1_545
Ba0 O19 3.105211 1_455
Ba0 O13 3.120783 1_555
Ba0 O15 3.271114 1_545
Ba0 O16 3.374865 1_555
Ba0 O5 3.460436 1_445
Ba1 O25 2.783901 1_555
Ba1 O3 2.802282 1_555
Ba1 O1 2.803679 1_556
Ba1 O23 2.805247 1_555
Ba1 O9 2.885956 1_556
Ba1 O0 2.933169 1_655
Ba1 O2 2.995872 1_556
Ba1 O17 3.064109 1_655
Ba1 O14 3.116345 1_556
Ba1 O20 3.116802 1_555
Ba2 O16 2.783901 1_555
Ba2 O12 2.802282 1_555
Ba2 O18 2.803679 1_554
Ba2 O9 2.805247 1_555
Ba2 O23 2.885956 1_554
Ba2 O8 2.933169 1_455
Ba2 O17 2.995872 1_554
Ba2 O2 3.064109 1_455
Ba2 O11 3.116345 1_554
Ba2 O7 3.116802 1_555
Ba3 O5 2.741809 1_555
Ba3 O22 2.749044 1_555
Ba3 O3 2.819590 1_555
Ba3 O6 2.858615 1_555
Ba3 O20 2.926348 1_555
Ba3 O21 2.978316 1_565
Ba3 O24 3.105211 1_655
Ba3 O15 3.120783 1_555
Ba3 O13 3.271114 1_565
Ba3 O25 3.374865 1_555
Ba3 O4 3.460436 1_665
Nd0 O24 2.453465 1_555
Nd0 O4 2.456379 1_565
Nd0 O14 2.470544 1_555
Nd0 O9 2.512583 1_555
Nd0 O1 2.521270 1_455
Nd0 O18 2.544123 1_564
Nd0 O25 2.692279 1_554
Nd0 O16 2.728764 1_565
Nd1 O19 2.453465 1_555
Nd1 O5 2.456379 1_545
Nd1 O11 2.470544 1_555
Nd1 O23 2.512583 1_555
Nd1 O18 2.521270 1_655
Nd1 O1 2.544123 1_546
Nd1 O16 2.692279 1_556
Nd1 O25 2.728764 1_545
Nd2 O15 2.357045 1_555
Nd2 O12 2.441438 1_555
Nd2 O10 2.478530 1_555
Nd2 O14 2.494680 1_555
Nd2 O24 2.504409 1_555
Nd2 O22 2.509023 1_555
Nd2 O7 2.672610 1_555
Nd2 O20 2.828678 1_455
Nd3 O13 2.357045 1_555
Nd3 O3 2.441438 1_555
Nd3 O22 2.478530 1_555
Nd3 O11 2.494680 1_555
Nd3 O19 2.504409 1_555
Nd3 O10 2.509023 1_555
Nd3 O20 2.672610 1_555
Nd3 O7 2.828678 1_655
O0 Si1 1.656016 1_555
O0 Si5 1.658969 1_555
O1 Si7 1.645621 1_555
O2 Si6 1.685602 1_555
O2 Si3 1.693235 1_555
O3 Si1 1.613450 1_555
O4 Si2 1.612720 1_455
O5 Si5 1.612720 1_655
O6 Si7 1.680458 1_555
O6 Si2 1.694257 1_565
O7 Si3 1.640858 1_455
O8 Si6 1.656016 1_555
O8 Si2 1.658969 1_555
O9 Si1 1.617522 1_554
O10 Si0 1.639990 1_555
O11 Si4 1.636725 1_555
O12 Si6 1.613450 1_555
O13 Si2 1.608023 1_555
O14 Si7 1.636725 1_555
O15 Si5 1.608023 1_555
O16 Si7 1.639863 1_545
O17 Si1 1.685602 1_555
O17 Si0 1.693235 1_555
O18 Si4 1.645621 1_555
O19 Si0 1.634759 1_655
O20 Si0 1.640858 1_655
O21 Si4 1.680458 1_555
O21 Si5 1.694257 1_545
O22 Si3 1.639990 1_555
O23 Si6 1.617522 1_556
O24 Si3 1.634759 1_455
O25 Si4 1.639863 1_565
