# generated using pymatgen
data_AgCSN
_symmetry_space_group_name_H-M   'P 1'
_cell_length_a   4.22133600
_cell_length_b   7.17241300
_cell_length_c   11.40674800
_cell_angle_alpha   90.00000000
_cell_angle_beta   90.00000000
_cell_angle_gamma   90.00000000
_symmetry_Int_Tables_number   1
_chemical_formula_structural   AgCSN
_chemical_formula_sum   'Ag4 C4 S4 N4'
_cell_volume   345.36399363
_cell_formula_units_Z   4
loop_
 _symmetry_equiv_pos_site_id
 _symmetry_equiv_pos_as_xyz
  1  'x, y, z'
loop_
 _atom_site_type_symbol
 _atom_site_label
 _atom_site_symmetry_multiplicity
 _atom_site_fract_x
 _atom_site_fract_y
 _atom_site_fract_z
 _atom_site_occupancy
  Ag  Ag0  1  0.50000000  0.31978200  0.65309300  1
  Ag  Ag1  1  0.00000000  0.81978200  0.84690700  1
  Ag  Ag2  1  0.50000000  0.68021800  0.34690700  1
  Ag  Ag3  1  0.00000000  0.18021800  0.15309300  1
  C  C0  1  0.00000000  0.33980000  0.87818600  1
  C  C1  1  0.00000000  0.66020000  0.12181400  1
  C  C2  1  0.50000000  0.16020000  0.37818600  1
  C  C3  1  0.50000000  0.83980000  0.62181400  1
  S  S0  1  0.00000000  0.45864300  0.75374900  1
  S  S1  1  0.50000000  0.04135700  0.25374900  1
  S  S2  1  0.50000000  0.95864300  0.74625100  1
  S  S3  1  0.00000000  0.54135700  0.24625100  1
  N  N0  1  0.00000000  0.25335900  0.96594200  1
  N  N1  1  0.50000000  0.24664100  0.46594200  1
  N  N2  1  0.50000000  0.75335900  0.53405800  1
  N  N3  1  0.00000000  0.74664100  0.03405800  1
loop_
_geom_bond_atom_site_label_1
_geom_bond_atom_site_label_2
_geom_bond_distance
_geom_bond_site_symmetry_2
Ag0 N1 2.198296 1_555
Ag0 S0 2.600988 1_655
Ag0 S0 2.600988 1_555
Ag0 S2 2.799735 1_545
Ag1 N3 2.198296 1_556
Ag1 S2 2.600988 1_555
Ag1 S2 2.600988 1_455
Ag1 S0 2.799735 1_555
Ag2 N2 2.198296 1_555
Ag2 S3 2.600988 1_555
Ag2 S3 2.600988 1_655
Ag2 S1 2.799735 1_565
Ag3 N0 2.198296 1_554
Ag3 S1 2.600988 1_555
Ag3 S1 2.600988 1_455
Ag3 S3 2.799735 1_555
C0 N0 1.177459 1_555
C0 S0 1.655696 1_555
C1 N3 1.177459 1_555
C1 S3 1.655696 1_555
C2 N1 1.177459 1_555
C2 S1 1.655696 1_555
C3 N2 1.177459 1_555
C3 S2 1.655696 1_555
