# generated using pymatgen
data_RbNO3
_symmetry_space_group_name_H-M   'P 1'
_cell_length_a   10.33967689
_cell_length_b   10.33967640
_cell_length_c   7.32885327
_cell_angle_alpha   90.00000000
_cell_angle_beta   90.00000000
_cell_angle_gamma   120.00000063
_symmetry_Int_Tables_number   1
_chemical_formula_structural   RbNO3
_chemical_formula_sum   'Rb9 N9 O27'
_cell_volume   678.54799254
_cell_formula_units_Z   9
loop_
 _symmetry_equiv_pos_site_id
 _symmetry_equiv_pos_as_xyz
  1  'x, y, z'
loop_
 _atom_site_type_symbol
 _atom_site_label
 _atom_site_symmetry_multiplicity
 _atom_site_fract_x
 _atom_site_fract_y
 _atom_site_fract_z
 _atom_site_occupancy
  Rb  Rb0  1  0.44779870  0.21833899  0.28627252  1
  Rb  Rb1  1  0.77054129  0.55220130  0.95293952  1
  Rb  Rb2  1  0.78166101  0.22945871  0.61960552  1
  Rb  Rb3  1  0.09284799  0.87491605  0.66661099  1
  Rb  Rb4  1  0.78206906  0.90715201  0.33327699  1
  Rb  Rb5  1  0.12508395  0.21793094  -0.00005601  1
  Rb  Rb6  1  0.11274826  0.55221673  0.30510410  1
  Rb  Rb7  1  0.43946747  0.88725174  0.97177110  1
  Rb  Rb8  1  0.44778427  0.56053253  0.63843810  1
  N  N0  1  0.46194660  0.24032695  0.75719892  1
  N  N1  1  0.77837935  0.53805340  0.42386592  1
  N  N2  1  0.75967305  0.22162065  0.09053292  1
  N  N3  1  0.10954128  0.90574168  0.19482880  1
  N  N4  1  0.79620040  0.89045872  0.86149580  1
  N  N5  1  0.09425832  0.20379960  0.52816180  1
  N  N6  1  0.13220746  0.53766727  0.83458465  1
  N  N7  1  0.40546181  0.86779254  0.50125165  1
  N  N8  1  0.46233273  0.59453819  0.16791765  1
  O  O0  1  0.72022653  0.14100909  0.23027163  1
  O  O1  1  0.85899091  0.57921744  0.56360563  1
  O  O2  1  0.42078256  0.27977347  0.89693863  1
  O  O3  1  0.89496937  0.30410303  0.05015821  1
  O  O4  1  0.69589697  0.59086634  0.38349121  1
  O  O5  1  0.40913366  0.10503063  0.71682521  1
  O  O6  1  0.66005982  0.21997280  0.98768281  1
  O  O7  1  0.78002720  0.44008802  0.32101681  1
  O  O8  1  0.55991198  0.33994018  0.65434981  1
  O  O9  1  0.45899353  0.69401374  0.26632865  1
  O  O10  1  0.30598626  0.76498080  0.59966265  1
  O  O11  1  0.23501920  0.54100647  0.93299565  1
  O  O12  1  0.38351390  0.46006064  0.21140518  1
  O  O13  1  0.53993936  0.92345326  0.54473918  1
  O  O14  1  0.07654674  0.61648610  0.87807218  1
  O  O15  1  0.54497975  0.63431244  0.02920754  1
  O  O16  1  0.36568756  0.91066631  0.36254154  1
  O  O17  1  0.08933369  0.45502025  0.69587454  1
  O  O18  1  0.99306166  0.10668539  0.63028434  1
  O  O19  1  0.89331461  0.88637427  0.96361834  1
  O  O20  1  0.11362573  0.00693834  0.29695134  1
  O  O21  1  0.22873105  0.25053845  0.56592137  1
  O  O22  1  0.74946155  0.97819359  0.89925437  1
  O  O23  1  0.02180641  0.77126895  0.23258837  1
  O  O24  1  0.05654290  0.25021847  0.39113528  1
  O  O25  1  0.74978153  0.80632442  0.72446928  1
  O  O26  1  0.19367558  0.94345710  0.05780228  1
loop_
_geom_bond_atom_site_label_1
_geom_bond_atom_site_label_2
_geom_bond_distance
_geom_bond_site_symmetry_2
N0 O2 1.252977 1_555
N0 O5 1.256509 1_555
N0 O8 1.269543 1_555
N1 O1 1.252982 1_555
N1 O4 1.256501 1_555
N1 O7 1.269543 1_555
N2 O0 1.252976 1_555
N2 O3 1.256509 1_555
N2 O6 1.269548 1_554
N3 O23 1.253564 1_555
N3 O26 1.256228 1_555
N3 O20 1.269877 1_565
N4 O22 1.253570 1_555
N4 O25 1.256228 1_555
N4 O19 1.269894 1_555
N5 O21 1.253562 1_555
N5 O24 1.256228 1_555
N5 O18 1.269885 1_455
N6 O14 1.251390 1_555
N6 O17 1.257532 1_555
N6 O11 1.270720 1_555
N7 O13 1.251372 1_555
N7 O16 1.257538 1_555
N7 O10 1.270733 1_555
N8 O12 1.251374 1_555
N8 O15 1.257532 1_555
N8 O9 1.270746 1_555
O0 Rb4 2.893384 1_545
O0 Rb2 2.966594 1_555
O0 Rb0 3.315786 1_555
O0 Rb7 3.359139 1_544
O1 Rb3 2.893377 1_655
O1 Rb1 2.966593 1_555
O1 Rb2 3.315795 1_555
O1 Rb6 3.359138 1_655
O2 Rb5 2.893374 1_556
O2 Rb0 2.966596 1_556
O2 Rb1 3.315792 1_555
O2 Rb8 3.359139 1_555
O3 Rb5 2.951332 1_655
O3 Rb6 3.060430 1_655
O3 Rb2 3.319781 1_554
O3 Rb1 3.470406 1_554
O4 Rb4 2.951322 1_555
O4 Rb8 3.060430 1_555
O4 Rb1 3.319777 1_554
O4 Rb0 3.470413 1_555
O5 Rb3 2.951325 1_545
O5 Rb7 3.060425 1_545
O5 Rb0 3.319781 1_555
O5 Rb2 3.470417 1_555
O6 Rb2 2.957044 1_555
O6 Rb7 3.033876 1_545
O6 Rb1 3.040696 1_555
O6 Rb0 3.093334 1_556
O7 Rb1 2.957035 1_554
O7 Rb6 3.033877 1_655
O7 Rb0 3.040701 1_555
O7 Rb2 3.093343 1_555
O8 Rb0 2.957040 1_555
O8 Rb8 3.033868 1_555
O8 Rb2 3.040717 1_555
O8 Rb1 3.093341 1_555
O9 Rb4 2.982379 1_555
O9 Rb7 3.016042 1_554
O9 Rb8 3.032419 1_555
O9 Rb6 3.130226 1_555
O10 Rb3 2.982364 1_555
O10 Rb6 3.016047 1_555
O10 Rb7 3.032410 1_555
O10 Rb8 3.130234 1_555
O11 Rb5 2.982383 1_556
O11 Rb8 3.016049 1_555
O11 Rb6 3.032410 1_556
O11 Rb7 3.130225 1_555
O12 Rb0 2.941215 1_555
O12 Rb5 3.019910 1_555
O12 Rb8 3.259638 1_555
O12 Rb6 3.447478 1_555
O13 Rb2 2.941207 1_565
O13 Rb4 3.019919 1_555
O13 Rb7 3.259631 1_555
O13 Rb8 3.447471 1_555
O14 Rb1 2.941205 1_455
O14 Rb3 3.019906 1_555
O14 Rb6 3.259628 1_556
O14 Rb7 3.447471 1_555
O15 Rb1 2.907340 1_554
O15 Rb8 3.004521 1_554
O15 Rb7 3.325725 1_554
O16 Rb0 2.907341 1_565
O16 Rb7 3.004526 1_554
O16 Rb6 3.325711 1_555
O17 Rb2 2.907341 1_455
O17 Rb6 3.004532 1_555
O17 Rb8 3.325716 1_555
O18 Rb5 2.992653 1_656
O18 Rb2 3.028222 1_555
O18 Rb4 3.041880 1_545
O18 Rb3 3.057901 1_645
O19 Rb4 2.992649 1_556
O19 Rb1 3.028213 1_555
O19 Rb3 3.041876 1_655
O19 Rb5 3.057908 1_666
O20 Rb3 2.992652 1_545
O20 Rb0 3.028214 1_555
O20 Rb5 3.041883 1_555
O20 Rb4 3.057911 1_445
O21 Rb8 2.902807 1_555
O21 Rb0 3.193128 1_555
O22 Rb7 2.902805 1_555
O22 Rb2 3.193112 1_565
O23 Rb6 2.902803 1_555
O23 Rb1 3.193118 1_454
O24 Rb6 2.944659 1_555
O24 Rb5 3.011625 1_555
O24 Rb2 3.212124 1_455
O25 Rb8 2.944649 1_555
O25 Rb4 3.011628 1_555
O25 Rb1 3.212133 1_555
O26 Rb7 2.944649 1_554
O26 Rb3 3.011622 1_554
O26 Rb0 3.212128 1_565
