# generated using pymatgen
data_GaHg2SbCl4
_symmetry_space_group_name_H-M   'P 1'
_cell_length_a   8.98096100
_cell_length_b   12.50565700
_cell_length_c   18.03982000
_cell_angle_alpha   90.00000000
_cell_angle_beta   90.00000000
_cell_angle_gamma   90.00000000
_symmetry_Int_Tables_number   1
_chemical_formula_structural   GaHg2SbCl4
_chemical_formula_sum   'Ga8 Hg16 Sb8 Cl32'
_cell_volume   2026.10301674
_cell_formula_units_Z   8
loop_
 _symmetry_equiv_pos_site_id
 _symmetry_equiv_pos_as_xyz
  1  'x, y, z'
loop_
 _atom_site_type_symbol
 _atom_site_label
 _atom_site_symmetry_multiplicity
 _atom_site_fract_x
 _atom_site_fract_y
 _atom_site_fract_z
 _atom_site_occupancy
  Ga  Ga0  1  0.33163900  0.98958000  0.62257900  1
  Ga  Ga1  1  0.33775200  0.21000200  0.86554200  1
  Ga  Ga2  1  0.16836100  0.98958000  0.12257900  1
  Ga  Ga3  1  0.66224800  0.71000200  0.13445800  1
  Ga  Ga4  1  0.83163900  0.48958000  0.87742100  1
  Ga  Ga5  1  0.66836100  0.48958000  0.37742100  1
  Ga  Ga6  1  0.83775200  0.71000200  0.63445800  1
  Ga  Ga7  1  0.16224800  0.21000200  0.36554200  1
  Hg  Hg0  1  0.91838800  0.83323000  0.37570500  1
  Hg  Hg1  1  0.58161200  0.83323000  0.87570500  1
  Hg  Hg2  1  0.75509900  0.10105000  0.49249200  1
  Hg  Hg3  1  0.70335000  0.09649500  0.24335800  1
  Hg  Hg4  1  0.20335000  0.59649500  0.25664200  1
  Hg  Hg5  1  0.25509900  0.60105000  0.00750800  1
  Hg  Hg6  1  0.41927000  0.86310100  0.37883500  1
  Hg  Hg7  1  0.79665000  0.09649500  0.74335800  1
  Hg  Hg8  1  0.08073000  0.86310100  0.87883500  1
  Hg  Hg9  1  0.91927000  0.36310100  0.12116500  1
  Hg  Hg10  1  0.08161200  0.33323000  0.62429500  1
  Hg  Hg11  1  0.41838800  0.33323000  0.12429500  1
  Hg  Hg12  1  0.58073000  0.36310100  0.62116500  1
  Hg  Hg13  1  0.74490100  0.10105000  0.99249200  1
  Hg  Hg14  1  0.29665000  0.59649500  0.75664200  1
  Hg  Hg15  1  0.24490100  0.60105000  0.50750800  1
  Sb  Sb0  1  0.18467100  0.47553700  0.12907000  1
  Sb  Sb1  1  0.81670100  0.22177400  0.61778700  1
  Sb  Sb2  1  0.31670100  0.72177400  0.88221300  1
  Sb  Sb3  1  0.68467100  0.97553700  0.37093000  1
  Sb  Sb4  1  0.18329900  0.72177400  0.38221300  1
  Sb  Sb5  1  0.31532900  0.47553700  0.62907000  1
  Sb  Sb6  1  0.81532900  0.97553700  0.87093000  1
  Sb  Sb7  1  0.68329900  0.22177400  0.11778700  1
  Cl  Cl0  1  0.92542200  0.63088300  0.93567600  1
  Cl  Cl1  1  0.63939900  0.69320500  0.70432700  1
  Cl  Cl2  1  0.09232400  0.01555800  0.63411800  1
  Cl  Cl3  1  0.59232400  0.51555800  0.86588200  1
  Cl  Cl4  1  0.62262400  0.34452600  0.44396100  1
  Cl  Cl5  1  0.05671000  0.97084400  0.23025300  1
  Cl  Cl6  1  0.13939900  0.19320500  0.79567300  1
  Cl  Cl7  1  0.61554300  0.56098400  0.07270100  1
  Cl  Cl8  1  0.87737600  0.34452600  0.94396100  1
  Cl  Cl9  1  0.30672700  0.34066600  0.94649600  1
  Cl  Cl10  1  0.55671000  0.47084400  0.26974700  1
  Cl  Cl11  1  0.46837800  0.74974400  0.20530800  1
  Cl  Cl12  1  0.03162200  0.74974400  0.70530800  1
  Cl  Cl13  1  0.40767600  0.01555800  0.13411800  1
  Cl  Cl14  1  0.19327300  0.34066600  0.44649600  1
  Cl  Cl15  1  0.86060100  0.69320500  0.20432700  1
  Cl  Cl16  1  0.42542200  0.13088300  0.56432400  1
  Cl  Cl17  1  0.90767600  0.51555800  0.36588200  1
  Cl  Cl18  1  0.53162200  0.24974400  0.79469200  1
  Cl  Cl19  1  0.80672700  0.84066600  0.55350400  1
  Cl  Cl20  1  0.11554300  0.06098400  0.42729900  1
  Cl  Cl21  1  0.12262400  0.84452600  0.05603900  1
  Cl  Cl22  1  0.88445700  0.56098400  0.57270100  1
  Cl  Cl23  1  0.96837800  0.24974400  0.29469200  1
  Cl  Cl24  1  0.94329000  0.47084400  0.76974700  1
  Cl  Cl25  1  0.07457800  0.13088300  0.06432400  1
  Cl  Cl26  1  0.38445700  0.06098400  0.92729900  1
  Cl  Cl27  1  0.36060100  0.19320500  0.29567300  1
  Cl  Cl28  1  0.57457800  0.63088300  0.43567600  1
  Cl  Cl29  1  0.37737600  0.84452600  0.55603900  1
  Cl  Cl30  1  0.69327300  0.84066600  0.05350400  1
  Cl  Cl31  1  0.44329000  0.97084400  0.73025300  1
loop_
_geom_bond_atom_site_label_1
_geom_bond_atom_site_label_2
_geom_bond_distance
_geom_bond_site_symmetry_2
Hg0 Sb3 2.753246 1_555
Hg0 Sb4 2.759878 1_655
Hg1 Sb6 2.753246 1_555
Hg1 Sb2 2.759878 1_555
Hg2 Sb3 2.769990 1_545
Hg2 Sb1 2.773865 1_555
Hg3 Sb3 2.759096 1_545
Hg3 Sb7 2.760154 1_555
Hg4 Sb0 2.759096 1_555
Hg4 Sb4 2.760154 1_555
Hg5 Sb0 2.769990 1_555
Hg5 Sb2 2.773865 1_554
Hg6 Sb4 2.760177 1_555
Hg6 Sb3 2.771056 1_555
Hg7 Sb6 2.759096 1_545
Hg7 Sb1 2.760154 1_555
Hg8 Sb2 2.760177 1_555
Hg8 Sb6 2.771056 1_455
Hg9 Sb7 2.760177 1_555
Hg9 Sb0 2.771056 1_655
Hg10 Sb5 2.753246 1_555
Hg10 Sb1 2.759878 1_455
Hg11 Sb0 2.753246 1_555
Hg11 Sb7 2.759878 1_555
Hg12 Sb1 2.760177 1_555
Hg12 Sb5 2.771056 1_555
Hg13 Sb6 2.769990 1_545
Hg13 Sb7 2.773865 1_556
Hg14 Sb5 2.759096 1_555
Hg14 Sb2 2.760154 1_555
Hg15 Sb5 2.769990 1_555
Hg15 Sb4 2.773865 1_555
Cl0 Ga4 2.221804 1_555
Cl1 Ga6 2.192300 1_555
Cl2 Ga0 2.183637 1_545
Cl3 Ga4 2.183637 1_555
Cl4 Ga5 2.213638 1_555
Cl5 Ga2 2.198492 1_555
Cl6 Ga1 2.192300 1_555
Cl7 Ga3 2.211338 1_555
Cl8 Ga4 2.213638 1_555
Cl9 Ga1 2.209180 1_555
Cl10 Ga5 2.198492 1_555
Cl11 Ga3 2.216341 1_555
Cl12 Ga6 2.216341 1_455
Cl13 Ga2 2.183637 1_545
Cl14 Ga7 2.209180 1_555
Cl15 Ga3 2.192300 1_555
Cl16 Ga0 2.221804 1_545
Cl17 Ga5 2.183637 1_555
Cl18 Ga1 2.216341 1_555
Cl19 Ga6 2.209180 1_555
Cl20 Ga7 2.211338 1_555
Cl21 Ga2 2.213638 1_555
Cl22 Ga6 2.211338 1_555
Cl23 Ga7 2.216341 1_655
Cl24 Ga4 2.198492 1_555
Cl25 Ga2 2.221804 1_545
Cl26 Ga1 2.211338 1_555
Cl27 Ga7 2.192300 1_555
Cl28 Ga5 2.221804 1_555
Cl29 Ga0 2.213638 1_555
Cl30 Ga3 2.209180 1_555
Cl31 Ga0 2.198492 1_555
