# generated using pymatgen
data_La3MgBi5
_symmetry_space_group_name_H-M   'P 1'
_cell_length_a   9.86699583
_cell_length_b   9.86699583
_cell_length_c   6.61178100
_cell_angle_alpha   90.00000000
_cell_angle_beta   90.00000000
_cell_angle_gamma   119.99999887
_symmetry_Int_Tables_number   1
_chemical_formula_structural   La3MgBi5
_chemical_formula_sum   'La6 Mg2 Bi10'
_cell_volume   557.46677198
_cell_formula_units_Z   2
loop_
 _symmetry_equiv_pos_site_id
 _symmetry_equiv_pos_as_xyz
  1  'x, y, z'
loop_
 _atom_site_type_symbol
 _atom_site_label
 _atom_site_symmetry_multiplicity
 _atom_site_fract_x
 _atom_site_fract_y
 _atom_site_fract_z
 _atom_site_occupancy
  La  La0  1  0.38042000  0.00000000  0.75000000  1
  La  La1  1  0.61958000  0.61958000  0.75000000  1
  La  La2  1  0.00000000  0.38042000  0.75000000  1
  La  La3  1  0.61958000  0.00000000  0.25000000  1
  La  La4  1  0.38042000  0.38042000  0.25000000  1
  La  La5  1  0.00000000  0.61958000  0.25000000  1
  Mg  Mg0  1  0.00000000  0.00000000  0.00000000  1
  Mg  Mg1  1  0.00000000  0.00000000  0.50000000  1
  Bi  Bi0  1  0.26572500  0.00000000  0.25000000  1
  Bi  Bi1  1  0.66666700  0.33333300  0.00000000  1
  Bi  Bi2  1  0.73427500  0.73427500  0.25000000  1
  Bi  Bi3  1  0.00000000  0.73427500  0.75000000  1
  Bi  Bi4  1  0.00000000  0.26572500  0.25000000  1
  Bi  Bi5  1  0.33333300  0.66666700  0.50000000  1
  Bi  Bi6  1  0.66666700  0.33333300  0.50000000  1
  Bi  Bi7  1  0.73427500  0.00000000  0.75000000  1
  Bi  Bi8  1  0.26572500  0.26572500  0.75000000  1
  Bi  Bi9  1  0.33333300  0.66666700  0.00000000  1
loop_
_geom_bond_atom_site_label_1
_geom_bond_atom_site_label_2
_geom_bond_distance
_geom_bond_site_symmetry_2
Bi0 Mg0 3.099456 1_555
Bi0 Mg1 3.099456 1_555
Bi0 La4 3.335016 1_555
Bi0 La5 3.335016 1_545
Bi0 La3 3.491486 1_555
Bi0 La0 3.494230 1_554
Bi0 La0 3.494230 1_555
Bi1 Bi6 3.305890 1_555
Bi1 Bi6 3.305890 1_554
Bi1 La2 3.498212 1_654
Bi1 La3 3.498212 1_555
Bi1 La5 3.498215 1_655
Bi1 La0 3.498215 1_554
Bi1 La4 3.498221 1_555
Bi1 La1 3.498221 1_554
Bi2 Mg1 3.099456 1_665
Bi2 Mg0 3.099456 1_665
Bi2 La5 3.335016 1_655
Bi2 La3 3.335016 1_565
Bi2 La4 3.491486 1_555
Bi2 La1 3.494230 1_554
Bi2 La1 3.494230 1_555
Bi3 Mg0 3.099456 1_566
Bi3 Mg1 3.099456 1_565
Bi3 La1 3.335016 1_455
Bi3 La0 3.335016 1_565
Bi3 La2 3.491486 1_555
Bi3 La5 3.494230 1_555
Bi3 La5 3.494230 1_556
Bi4 Mg0 3.099456 1_555
Bi4 Mg1 3.099456 1_555
Bi4 La4 3.335016 1_555
Bi4 La3 3.335016 1_455
Bi4 La5 3.491486 1_555
Bi4 La2 3.494230 1_554
Bi4 La2 3.494230 1_555
Bi5 Bi9 3.305890 1_555
Bi5 Bi9 3.305890 1_556
Bi5 La5 3.498212 1_555
Bi5 La0 3.498212 1_565
Bi5 La2 3.498215 1_555
Bi5 La3 3.498215 1_565
Bi5 La4 3.498221 1_555
Bi5 La1 3.498221 1_555
Bi6 La2 3.498212 1_655
Bi6 La3 3.498212 1_555
Bi6 La5 3.498215 1_655
Bi6 La0 3.498215 1_555
Bi6 La4 3.498221 1_555
Bi6 La1 3.498221 1_555
Bi7 Mg1 3.099456 1_655
Bi7 Mg0 3.099456 1_656
Bi7 La1 3.335016 1_545
Bi7 La2 3.335016 1_655
Bi7 La0 3.491486 1_555
Bi7 La3 3.494230 1_556
Bi7 La3 3.494230 1_555
Bi8 Mg1 3.099456 1_555
Bi8 Mg0 3.099456 1_556
Bi8 La2 3.335016 1_555
Bi8 La0 3.335016 1_555
Bi8 La1 3.491486 1_555
Bi8 La4 3.494230 1_555
Bi8 La4 3.494230 1_556
Bi9 La5 3.498212 1_555
Bi9 La0 3.498212 1_564
Bi9 La2 3.498215 1_554
Bi9 La3 3.498215 1_565
Bi9 La4 3.498221 1_555
Bi9 La1 3.498221 1_554
