# generated using pymatgen
data_Na2Mg5(PO4)4
_symmetry_space_group_name_H-M   'P 1'
_cell_length_a   5.22312100
_cell_length_b   8.01571674
_cell_length_c   8.21645380
_cell_angle_alpha   110.74558168
_cell_angle_beta   90.33867413
_cell_angle_gamma   101.93792731
_symmetry_Int_Tables_number   1
_chemical_formula_structural   Na2Mg5(PO4)4
_chemical_formula_sum   'Na2 Mg5 P4 O16'
_cell_volume   313.55634657
_cell_formula_units_Z   1
loop_
 _symmetry_equiv_pos_site_id
 _symmetry_equiv_pos_as_xyz
  1  'x, y, z'
loop_
 _atom_site_type_symbol
 _atom_site_label
 _atom_site_symmetry_multiplicity
 _atom_site_fract_x
 _atom_site_fract_y
 _atom_site_fract_z
 _atom_site_occupancy
  Na  Na0  1  0.43711900  0.96206700  0.70538000  1
  Na  Na1  1  0.56288100  0.03793300  0.29462000  1
  Mg  Mg0  1  0.09377600  0.25490600  0.78043300  1
  Mg  Mg1  1  0.63547000  0.40845400  0.67201800  1
  Mg  Mg2  1  0.90622400  0.74509400  0.21956700  1
  Mg  Mg3  1  0.00000000  0.00000000  0.00000000  1
  Mg  Mg4  1  0.36453000  0.59154600  0.32798200  1
  P  P0  1  0.13077600  0.21281400  0.43000500  1
  P  P1  1  0.86922400  0.78718600  0.56999500  1
  P  P2  1  0.61963700  0.30185800  0.02694300  1
  P  P3  1  0.38036300  0.69814200  0.97305700  1
  O  O0  1  0.25651000  0.82958200  0.91805700  1
  O  O1  1  0.32533000  0.18612100  0.56246100  1
  O  O2  1  0.32042300  0.21653500  0.96670900  1
  O  O3  1  0.67957700  0.78346500  0.03329100  1
  O  O4  1  0.93327600  0.96992700  0.73296500  1
  O  O5  1  0.06672400  0.03007300  0.26703500  1
  O  O6  1  0.67467000  0.81387900  0.43753900  1
  O  O7  1  0.74349000  0.17041800  0.08194300  1
  O  O8  1  0.24238600  0.67311900  0.13558200  1
  O  O9  1  0.34261700  0.50785000  0.82595300  1
  O  O10  1  0.75761400  0.32688100  0.86441800  1
  O  O11  1  0.65738300  0.49215000  0.17404700  1
  O  O12  1  0.11498700  0.75245300  0.46992600  1
  O  O13  1  0.26669200  0.36878400  0.37645300  1
  O  O14  1  0.88501300  0.24754700  0.53007400  1
  O  O15  1  0.73330800  0.63121600  0.62354700  1
loop_
_geom_bond_atom_site_label_1
_geom_bond_atom_site_label_2
_geom_bond_distance
_geom_bond_site_symmetry_2
Na0 O12 2.426080 1_555
Na0 O0 2.447642 1_555
Na0 O2 2.563117 1_565
Na0 O6 2.565856 1_555
Na0 O4 2.585835 1_555
Na0 O1 2.620136 1_565
Na0 O4 2.654498 1_455
Na0 O10 2.881475 1_565
Na1 O14 2.426080 1_555
Na1 O7 2.447642 1_555
Na1 O3 2.563117 1_545
Na1 O1 2.565856 1_555
Na1 O5 2.585835 1_555
Na1 O6 2.620136 1_545
Na1 O5 2.654498 1_655
Na1 O8 2.881475 1_545
Mg0 O10 2.010790 1_455
Mg0 O2 2.073937 1_555
Mg0 O9 2.075299 1_555
Mg0 O1 2.139201 1_555
Mg0 O4 2.155388 1_445
Mg0 O14 2.298882 1_455
Mg1 O15 1.933084 1_555
Mg1 O10 2.055860 1_555
Mg1 O1 2.064556 1_555
Mg1 O14 2.090541 1_555
Mg1 O9 2.094599 1_555
Mg2 O8 2.010790 1_655
Mg2 O3 2.073937 1_555
Mg2 O11 2.075299 1_555
Mg2 O6 2.139201 1_555
Mg2 O5 2.155388 1_665
Mg2 O12 2.298882 1_655
Mg3 O7 2.056841 1_455
Mg3 O0 2.056841 1_544
Mg3 O5 2.138941 1_555
Mg3 O4 2.138941 1_444
Mg3 O2 2.242407 1_554
Mg3 O3 2.242407 1_445
Mg4 O13 1.933084 1_555
Mg4 O8 2.055860 1_555
Mg4 O6 2.064556 1_555
Mg4 O12 2.090541 1_555
Mg4 O11 2.094599 1_555
O0 P3 1.532498 1_555
O1 P0 1.582618 1_555
O2 P2 1.569714 1_556
O3 P3 1.569714 1_554
O4 P1 1.566207 1_555
O5 P0 1.566207 1_555
O6 P1 1.582618 1_555
O7 P2 1.532498 1_555
O8 P3 1.576123 1_554
O9 P3 1.546953 1_555
O10 P2 1.576123 1_556
O11 P2 1.546953 1_555
O12 P1 1.549019 1_455
O13 P0 1.512227 1_555
O14 P0 1.549019 1_655
O15 P1 1.512227 1_555
