# generated using pymatgen
data_Na3ErV2O8
_symmetry_space_group_name_H-M   'P 1'
_cell_length_a   9.84849100
_cell_length_b   5.57486900
_cell_length_c   8.92308798
_cell_angle_alpha   54.60323646
_cell_angle_beta   90.00000000
_cell_angle_gamma   90.00000000
_symmetry_Int_Tables_number   1
_chemical_formula_structural   Na3ErV2O8
_chemical_formula_sum   'Na6 Er2 V4 O16'
_cell_volume   399.35825822
_cell_formula_units_Z   2
loop_
 _symmetry_equiv_pos_site_id
 _symmetry_equiv_pos_as_xyz
  1  'x, y, z'
loop_
 _atom_site_type_symbol
 _atom_site_label
 _atom_site_symmetry_multiplicity
 _atom_site_fract_x
 _atom_site_fract_y
 _atom_site_fract_z
 _atom_site_occupancy
  Na  Na0  1  0.14290900  0.30152000  0.70811500  1
  Na  Na1  1  0.50000000  0.00000000  0.00000000  1
  Na  Na2  1  0.64290900  0.69848000  0.79188500  1
  Na  Na3  1  0.85709100  0.69848000  0.29188500  1
  Na  Na4  1  0.35709100  0.30152000  0.20811500  1
  Na  Na5  1  0.00000000  0.00000000  0.50000000  1
  Er  Er0  1  0.00000000  0.50000000  0.00000000  1
  Er  Er1  1  0.50000000  0.50000000  0.50000000  1
  V  V0  1  0.68226800  0.20586200  0.27699300  1
  V  V1  1  0.18226800  0.79413800  0.22300700  1
  V  V2  1  0.31773200  0.79413800  0.72300700  1
  V  V3  1  0.81773200  0.20586200  0.77699300  1
  O  O0  1  0.63088500  0.86001100  0.46816800  1
  O  O1  1  0.36911500  0.13998900  0.53183200  1
  O  O2  1  0.40173900  0.73186800  0.90815400  1
  O  O3  1  0.13088500  0.13998900  0.03183200  1
  O  O4  1  0.86364100  0.48513300  0.80400900  1
  O  O5  1  0.64106600  0.19865200  0.74057500  1
  O  O6  1  0.86911500  0.86001100  0.96816800  1
  O  O7  1  0.90173900  0.26813200  0.59184600  1
  O  O8  1  0.59826100  0.26813200  0.09184600  1
  O  O9  1  0.14106600  0.80134800  0.75942500  1
  O  O10  1  0.09826100  0.73186800  0.40815400  1
  O  O11  1  0.63635900  0.48513300  0.30400900  1
  O  O12  1  0.13635900  0.51486700  0.19599100  1
  O  O13  1  0.36364100  0.51486700  0.69599100  1
  O  O14  1  0.35893400  0.80134800  0.25942500  1
  O  O15  1  0.85893400  0.19865200  0.24057500  1
loop_
_geom_bond_atom_site_label_1
_geom_bond_atom_site_label_2
_geom_bond_distance
_geom_bond_site_symmetry_2
Na0 O10 2.382054 1_555
Na0 O13 2.450104 1_555
Na0 O3 2.480989 1_556
Na0 O9 2.550711 1_545
Na0 O7 2.641232 1_455
Na1 O8 2.293857 1_555
Na1 O2 2.293857 1_544
Na1 O14 2.354853 1_545
Na1 O5 2.354853 1_554
Na1 O11 2.894946 1_545
Na1 O13 2.894946 1_554
Na2 O8 2.382054 1_556
Na2 O4 2.450104 1_555
Na2 O0 2.480989 1_555
Na2 O5 2.550711 1_565
Na2 O2 2.641232 1_555
Na3 O7 2.382054 1_555
Na3 O11 2.450104 1_555
Na3 O6 2.480989 1_554
Na3 O15 2.550711 1_565
Na3 O10 2.641232 1_655
Na4 O2 2.382054 1_554
Na4 O12 2.450104 1_555
Na4 O1 2.480989 1_555
Na4 O14 2.550711 1_545
Na4 O8 2.641232 1_555
Na5 O7 2.293857 1_455
Na5 O10 2.293857 1_545
Na5 O9 2.354853 1_545
Na5 O15 2.354853 1_455
Na5 O12 2.894946 1_555
Na5 O4 2.894946 1_445
Er0 O12 2.244261 1_555
Er0 O4 2.244261 1_454
Er0 O6 2.260519 1_454
Er0 O3 2.260519 1_555
Er0 O15 2.276572 1_455
Er0 O9 2.276572 1_554
Er1 O13 2.244261 1_555
Er1 O11 2.244261 1_555
Er1 O0 2.260519 1_555
Er1 O1 2.260519 1_555
Er1 O5 2.276572 1_555
Er1 O14 2.276572 1_555
O0 V0 1.753079 1_565
O1 V2 1.753079 1_545
O2 V2 1.694103 1_555
O3 V1 1.753079 1_545
O4 V3 1.766710 1_555
O5 V3 1.774705 1_555
O6 V3 1.753079 1_565
O7 V3 1.694103 1_555
O8 V0 1.694103 1_555
O9 V2 1.774705 1_555
O10 V1 1.694103 1_555
O11 V0 1.766710 1_555
O12 V1 1.766710 1_555
O13 V2 1.766710 1_555
O14 V1 1.774705 1_555
O15 V0 1.774705 1_555
