# generated using pymatgen
data_K3Sm(AsS4)2
_symmetry_space_group_name_H-M   'P 1'
_cell_length_a   10.97742003
_cell_length_b   10.97742003
_cell_length_c   9.06354011
_cell_angle_alpha   77.10080390
_cell_angle_beta   77.10080390
_cell_angle_gamma   122.38441136
_symmetry_Int_Tables_number   1
_chemical_formula_structural   K3Sm(AsS4)2
_chemical_formula_sum   'K6 Sm2 As4 S16'
_cell_volume   817.38213721
_cell_formula_units_Z   2
loop_
 _symmetry_equiv_pos_site_id
 _symmetry_equiv_pos_as_xyz
  1  'x, y, z'
loop_
 _atom_site_type_symbol
 _atom_site_label
 _atom_site_symmetry_multiplicity
 _atom_site_fract_x
 _atom_site_fract_y
 _atom_site_fract_z
 _atom_site_occupancy
  K  K0  1  0.00467500  0.99532500  0.75000000  1
  K  K1  1  0.73931000  0.26069000  0.25000000  1
  K  K2  1  0.50000000  0.50000000  0.00000000  1
  K  K3  1  0.26069000  0.73931000  0.75000000  1
  K  K4  1  0.99532500  0.00467500  0.25000000  1
  K  K5  1  0.50000000  0.50000000  0.50000000  1
  Sm  Sm0  1  0.24284100  0.75715900  0.25000000  1
  Sm  Sm1  1  0.75715900  0.24284100  0.75000000  1
  As  As0  1  0.65716600  0.90581500  0.10281100  1
  As  As1  1  0.90581500  0.65716600  0.60281100  1
  As  As2  1  0.09418500  0.34283400  0.39718900  1
  As  As3  1  0.34283400  0.09418500  0.89718900  1
  S  S0  1  0.23949800  0.26643100  0.37201800  1
  S  S1  1  0.13292700  0.84279300  0.02083100  1
  S  S2  1  0.14058100  0.49668100  0.15556700  1
  S  S3  1  0.26643100  0.23949800  0.87201800  1
  S  S4  1  0.84279300  0.13292700  0.52083100  1
  S  S5  1  0.49668100  0.14058100  0.65556700  1
  S  S6  1  0.12543400  0.47098600  0.55801900  1
  S  S7  1  0.47098600  0.12543400  0.05801900  1
  S  S8  1  0.85941900  0.50331900  0.84443300  1
  S  S9  1  0.87456600  0.52901400  0.44198100  1
  S  S10  1  0.52901400  0.87456600  0.94198100  1
  S  S11  1  0.50331900  0.85941900  0.34443300  1
  S  S12  1  0.76050200  0.73356900  0.62798200  1
  S  S13  1  0.73356900  0.76050200  0.12798200  1
  S  S14  1  0.15720700  0.86707300  0.47916900  1
  S  S15  1  0.86707300  0.15720700  0.97916900  1
loop_
_geom_bond_atom_site_label_1
_geom_bond_atom_site_label_2
_geom_bond_distance
_geom_bond_site_symmetry_2
K0 S13 3.244324 1_456
K0 S0 3.244324 1_565
K0 S12 3.340071 1_455
K0 S3 3.340071 1_565
K0 S15 3.588363 1_465
K0 S4 3.588363 1_465
K0 S14 3.611694 1_555
K0 S1 3.611694 1_556
K1 S4 3.270703 1_555
K1 S15 3.270703 1_554
K1 S2 3.456884 1_655
K1 S11 3.456884 1_545
K1 S5 3.470964 1_555
K1 S8 3.470964 1_554
K1 S9 3.558827 1_555
K1 S7 3.558827 1_555
K2 S0 3.178318 1_555
K2 S12 3.178318 1_554
K2 S13 3.324437 1_555
K2 S3 3.324437 1_554
K3 S1 3.270703 1_556
K3 S14 3.270703 1_555
K3 S5 3.456884 1_565
K3 S8 3.456884 1_455
K3 S2 3.470964 1_556
K3 S11 3.470964 1_555
K3 S10 3.558827 1_555
K3 S6 3.558827 1_555
K4 S12 3.244324 1_545
K4 S3 3.244324 1_654
K4 S13 3.340071 1_545
K4 S0 3.340071 1_655
K4 S14 3.588363 1_645
K4 S1 3.588363 1_645
K4 S15 3.611694 1_554
K4 S4 3.611694 1_555
K5 S3 3.178318 1_555
K5 S13 3.178318 1_555
K5 S12 3.324437 1_555
K5 S0 3.324437 1_555
As0 S13 2.157798 1_555
As0 S15 2.199029 1_564
As0 S11 2.199282 1_555
As0 S10 2.200781 1_554
As1 S12 2.157798 1_555
As1 S14 2.199029 1_655
As1 S8 2.199282 1_555
As1 S9 2.200781 1_555
As2 S0 2.157798 1_555
As2 S4 2.199029 1_455
As2 S2 2.199282 1_555
As2 S6 2.200781 1_555
As3 S3 2.157798 1_555
As3 S1 2.199029 1_546
As3 S5 2.199282 1_555
As3 S7 2.200781 1_556
S1 Sm0 2.848844 1_555
S2 Sm0 2.872635 1_555
S4 Sm1 2.848844 1_555
S5 Sm1 2.872635 1_555
S6 Sm0 3.076440 1_555
S6 Sm1 3.116336 1_455
S7 Sm1 3.076440 1_554
S7 Sm0 3.116336 1_545
S8 Sm1 2.872635 1_555
S9 Sm1 3.076440 1_555
S9 Sm0 3.116336 1_655
S10 Sm0 3.076440 1_556
S10 Sm1 3.116336 1_565
S11 Sm0 2.872635 1_555
S14 Sm0 2.848844 1_555
S15 Sm1 2.848844 1_555
