# generated using pymatgen
data_NaSm(PS3)2
_symmetry_space_group_name_H-M   'P 1'
_cell_length_a   7.40384500
_cell_length_b   11.17418700
_cell_length_c   11.75623391
_cell_angle_alpha   68.77015902
_cell_angle_beta   90.00000000
_cell_angle_gamma   90.00000000
_symmetry_Int_Tables_number   1
_chemical_formula_structural   NaSm(PS3)2
_chemical_formula_sum   'Na4 Sm4 P8 S24'
_cell_volume   906.60986771
_cell_formula_units_Z   4
loop_
 _symmetry_equiv_pos_site_id
 _symmetry_equiv_pos_as_xyz
  1  'x, y, z'
loop_
 _atom_site_type_symbol
 _atom_site_label
 _atom_site_symmetry_multiplicity
 _atom_site_fract_x
 _atom_site_fract_y
 _atom_site_fract_z
 _atom_site_occupancy
  Na  Na0  1  0.10929400  0.12102900  0.63999600  1
  Na  Na1  1  0.39070600  0.62102900  0.63999600  1
  Na  Na2  1  0.60929400  0.37897100  0.36000400  1
  Na  Na3  1  0.89070600  0.87897100  0.36000400  1
  Sm  Sm0  1  0.38982600  0.09100200  0.15259100  1
  Sm  Sm1  1  0.11017400  0.59100200  0.15259100  1
  Sm  Sm2  1  0.88982600  0.40899800  0.84740900  1
  Sm  Sm3  1  0.61017400  0.90899800  0.84740900  1
  P  P0  1  0.61549300  0.25056300  0.69386300  1
  P  P1  1  0.38450700  0.74943700  0.30613700  1
  P  P2  1  0.11549300  0.24943700  0.30613700  1
  P  P3  1  0.88450700  0.75056300  0.69386300  1
  P  P4  1  0.60294600  0.74978800  0.17540100  1
  P  P5  1  0.10294600  0.75021200  0.82459900  1
  P  P6  1  0.89705400  0.24978800  0.17540100  1
  P  P7  1  0.39705400  0.25021200  0.82459900  1
  S  S0  1  0.81391600  0.43544800  0.09219500  1
  S  S1  1  0.49173300  0.83827200  0.41075700  1
  S  S2  1  0.70405500  0.13346700  0.28116500  1
  S  S3  1  0.29594500  0.86653300  0.71883500  1
  S  S4  1  0.68639900  0.64514800  0.80646900  1
  S  S5  1  0.68608400  0.93544800  0.09219500  1
  S  S6  1  0.81360100  0.14514800  0.80646900  1
  S  S7  1  0.52074400  0.31318100  0.94914700  1
  S  S8  1  0.02074400  0.18681900  0.05085300  1
  S  S9  1  0.79594500  0.63346700  0.28116500  1
  S  S10  1  0.50826700  0.16172800  0.58924300  1
  S  S11  1  0.31360100  0.35485200  0.19353100  1
  S  S12  1  0.31391600  0.06455200  0.90780500  1
  S  S13  1  0.70061100  0.43488600  0.62175000  1
  S  S14  1  0.79938900  0.93488600  0.62175000  1
  S  S15  1  0.18639900  0.85485200  0.19353100  1
  S  S16  1  0.20405500  0.36653300  0.71883500  1
  S  S17  1  0.20061100  0.06511400  0.37825000  1
  S  S18  1  0.47925600  0.68681900  0.05085300  1
  S  S19  1  0.29938900  0.56511400  0.37825000  1
  S  S20  1  0.18608400  0.56455200  0.90780500  1
  S  S21  1  0.97925600  0.81318100  0.94914700  1
  S  S22  1  0.99173300  0.66172800  0.58924300  1
  S  S23  1  0.00826700  0.33827200  0.41075700  1
loop_
_geom_bond_atom_site_label_1
_geom_bond_atom_site_label_2
_geom_bond_distance
_geom_bond_site_symmetry_2
Na0 S3 2.991160 1_545
Na0 S23 2.996220 1_555
Na0 S6 3.012928 1_455
Na0 S10 3.015301 1_555
Na0 S14 3.155978 1_445
Na0 S16 3.273904 1_555
Na0 S12 3.341717 1_555
Na0 S17 3.421801 1_555
Na1 S16 2.991160 1_555
Na1 S1 2.996220 1_555
Na1 S4 3.012928 1_555
Na1 S22 3.015301 1_455
Na1 S13 3.155978 1_555
Na1 S3 3.273904 1_555
Na1 S20 3.341717 1_555
Na1 S19 3.421801 1_555
Na2 S9 2.991160 1_555
Na2 S10 2.996220 1_555
Na2 S11 3.012928 1_555
Na2 S23 3.015301 1_655
Na2 S19 3.155978 1_555
Na2 S2 3.273904 1_555
Na2 S0 3.341717 1_555
Na2 S13 3.421801 1_555
Na3 S2 2.991160 1_565
Na3 S22 2.996220 1_555
Na3 S15 3.012928 1_655
Na3 S1 3.015301 1_555
Na3 S17 3.155978 1_665
Na3 S9 3.273904 1_555
Na3 S5 3.341717 1_555
Na3 S14 3.421801 1_555
P0 S10 2.003142 1_555
P0 S13 2.023238 1_555
P0 S6 2.040118 1_555
P0 P7 2.230141 1_555
P1 S1 2.003142 1_555
P1 S19 2.023238 1_555
P1 S15 2.040118 1_555
P1 P4 2.230141 1_555
P2 S23 2.003142 1_555
P2 S17 2.023238 1_555
P2 S11 2.040118 1_555
P2 P6 2.230141 1_455
P3 S22 2.003142 1_555
P3 S14 2.023238 1_555
P3 S4 2.040118 1_555
P3 P5 2.230141 1_655
P4 S9 2.026544 1_555
P4 S5 2.042061 1_555
P4 S18 2.055191 1_555
P5 S3 2.026544 1_555
P5 S20 2.042061 1_555
P5 S21 2.055191 1_455
P6 S2 2.026544 1_555
P6 S0 2.042061 1_555
P6 S8 2.055191 1_655
P7 S16 2.026544 1_555
P7 S12 2.042061 1_555
P7 S7 2.055191 1_555
S0 Sm1 3.038169 1_655
S0 Sm2 3.049708 1_554
S1 Sm0 3.398341 1_565
S2 Sm0 2.905511 1_555
S3 Sm3 2.905511 1_555
S4 Sm2 2.922927 1_555
S4 Sm3 3.204740 1_555
S5 Sm0 3.038169 1_565
S5 Sm3 3.049708 1_554
S6 Sm3 2.922927 1_545
S6 Sm2 3.204740 1_555
S7 Sm0 2.919459 1_556
S7 Sm2 3.019390 1_555
S8 Sm2 2.919459 1_454
S8 Sm0 3.019390 1_555
S9 Sm1 2.905511 1_655
S10 Sm3 3.398341 1_545
S11 Sm1 2.922927 1_555
S11 Sm0 3.204740 1_555
S12 Sm3 3.038169 1_545
S12 Sm0 3.049708 1_556
S13 Sm2 2.920334 1_555
S14 Sm3 2.920334 1_555
S15 Sm0 2.922927 1_565
S15 Sm1 3.204740 1_555
S16 Sm2 2.905511 1_455
S17 Sm0 2.920334 1_555
S18 Sm3 2.919459 1_554
S18 Sm1 3.019390 1_555
S19 Sm1 2.920334 1_555
S20 Sm2 3.038169 1_455
S20 Sm1 3.049708 1_556
S21 Sm1 2.919459 1_656
S21 Sm3 3.019390 1_555
S22 Sm2 3.398341 1_555
S23 Sm1 3.398341 1_555
