# generated using pymatgen
data_V3SiP5O19
_symmetry_space_group_name_H-M   'P 1'
_cell_length_a   14.58948420
_cell_length_b   14.58948420
_cell_length_c   7.72138400
_cell_angle_alpha   90.00000000
_cell_angle_beta   90.00000000
_cell_angle_gamma   120.00000089
_symmetry_Int_Tables_number   1
_chemical_formula_structural   V3SiP5O19
_chemical_formula_sum   'V12 Si4 P20 O76'
_cell_volume   1423.33016966
_cell_formula_units_Z   4
loop_
 _symmetry_equiv_pos_site_id
 _symmetry_equiv_pos_as_xyz
  1  'x, y, z'
loop_
 _atom_site_type_symbol
 _atom_site_label
 _atom_site_symmetry_multiplicity
 _atom_site_fract_x
 _atom_site_fract_y
 _atom_site_fract_z
 _atom_site_occupancy
  V  V0  1  0.31997300  0.97720600  0.55549400  1
  V  V1  1  0.68002700  0.02279400  0.05549400  1
  V  V2  1  0.67564200  0.01435200  0.44682400  1
  V  V3  1  0.66129000  0.67564200  0.94682400  1
  V  V4  1  0.32435800  0.98564800  0.94682400  1
  V  V5  1  0.01435200  0.33871000  0.94682400  1
  V  V6  1  0.34276800  0.31997300  0.05549400  1
  V  V7  1  0.33871000  0.32435800  0.44682400  1
  V  V8  1  0.98564800  0.66129000  0.44682400  1
  V  V9  1  0.02279400  0.34276800  0.55549400  1
  V  V10  1  0.65723200  0.68002700  0.55549400  1
  V  V11  1  0.97720600  0.65723200  0.05549400  1
  Si  Si0  1  0.33333300  0.66666700  0.30153900  1
  Si  Si1  1  0.33333300  0.66666700  0.71518900  1
  Si  Si2  1  0.66666700  0.33333300  0.80153900  1
  Si  Si3  1  0.66666700  0.33333300  0.21518900  1
  P  P0  1  0.85233800  0.76883200  0.24731400  1
  P  P1  1  0.76883200  0.91649400  0.74731400  1
  P  P2  1  0.43232500  0.22173000  0.74828900  1
  P  P3  1  0.21059600  0.43232500  0.24828900  1
  P  P4  1  0.57903800  0.48379700  0.25967500  1
  P  P5  1  0.51620300  0.09524100  0.25967500  1
  P  P6  1  0.08350600  0.85233800  0.74731400  1
  P  P7  1  0.90475900  0.42096200  0.25967500  1
  P  P8  1  0.56767500  0.77827000  0.24828900  1
  P  P9  1  0.22173000  0.78940400  0.24828900  1
  P  P10  1  0.09524100  0.57903800  0.75967500  1
  P  P11  1  0.42096200  0.51620300  0.75967500  1
  P  P12  1  0.48379700  0.90475900  0.75967500  1
  P  P13  1  0.14766200  0.23116800  0.74731400  1
  P  P14  1  0.77827000  0.21059600  0.74828900  1
  P  P15  1  0.23116800  0.08350600  0.24731400  1
  P  P16  1  0.00000000  0.00000000  0.31492600  1
  P  P17  1  0.00000000  0.00000000  0.81492600  1
  P  P18  1  0.78940400  0.56767500  0.74828900  1
  P  P19  1  0.91649400  0.14766200  0.24731400  1
  O  O0  1  0.78054600  0.35778500  0.29074100  1
  O  O1  1  0.20652100  0.90302500  0.74938400  1
  O  O2  1  0.44912100  0.75458100  0.22766900  1
  O  O3  1  0.92805900  0.38564300  0.08904200  1
  O  O4  1  0.09697500  0.30349600  0.74938400  1
  O  O5  1  0.75458100  0.30546100  0.72766900  1
  O  O6  1  0.30349600  0.20652100  0.24938400  1
  O  O7  1  0.60220600  0.55078600  0.42230500  1
  O  O8  1  0.42410200  0.26691300  0.92175100  1
  O  O9  1  0.00000000  0.00000000  0.00190500  1
  O  O10  1  0.04388100  0.11665600  0.74489800  1
  O  O11  1  0.03929500  0.79561200  0.57566000  1
  O  O12  1  0.58917200  0.73186200  0.08799900  1
  O  O13  1  0.90145600  0.26549000  0.74751000  1
  O  O14  1  0.54102700  0.60181100  0.75707800  1
  O  O15  1  0.85731000  0.58917200  0.58799900  1
  O  O16  1  0.41082800  0.26813800  0.58799900  1
  O  O17  1  0.55087900  0.24541900  0.72766900  1
  O  O18  1  0.24541900  0.69453900  0.22766900  1
  O  O19  1  0.78916900  0.75826200  0.40878400  1
  O  O20  1  0.55078600  0.94858000  0.92230500  1
  O  O21  1  0.90302500  0.69650400  0.24938400  1
  O  O22  1  0.39818900  0.93921600  0.75707800  1
  O  O23  1  0.15718900  0.42410200  0.42175100  1
  O  O24  1  0.07194100  0.61435700  0.58904200  1
  O  O25  1  0.61435700  0.54241600  0.08904200  1
  O  O26  1  0.03090700  0.78916900  0.90878400  1
  O  O27  1  0.11665600  0.07277400  0.24489800  1
  O  O28  1  0.21945400  0.64221500  0.79074100  1
  O  O29  1  0.24173800  0.03090700  0.40878400  1
  O  O30  1  0.69650400  0.79347900  0.74938400  1
  O  O31  1  0.54241600  0.92805900  0.58904200  1
  O  O32  1  0.93921600  0.54102700  0.25707800  1
  O  O33  1  0.33333300  0.66666700  0.50831000  1
  O  O34  1  0.38564300  0.45758400  0.58904200  1
  O  O35  1  0.84281100  0.57589800  0.92175100  1
  O  O36  1  0.96909300  0.21083100  0.40878400  1
  O  O37  1  0.95611900  0.88334400  0.24489800  1
  O  O38  1  0.30546100  0.55087900  0.22766900  1
  O  O39  1  0.09854400  0.73451000  0.24751000  1
  O  O40  1  0.45758400  0.07194100  0.08904200  1
  O  O41  1  0.73186200  0.14269000  0.58799900  1
  O  O42  1  0.75631600  0.96070500  0.57566000  1
  O  O43  1  0.75826200  0.96909300  0.90878400  1
  O  O44  1  0.44921400  0.05142000  0.42230500  1
  O  O45  1  0.00000000  0.00000000  0.50190500  1
  O  O46  1  0.24368400  0.03929500  0.07566000  1
  O  O47  1  0.14269000  0.41082800  0.08799900  1
  O  O48  1  0.88334400  0.92722600  0.74489800  1
  O  O49  1  0.05142000  0.60220600  0.92230500  1
  O  O50  1  0.73308700  0.15718900  0.92175100  1
  O  O51  1  0.20438800  0.24368400  0.57566000  1
  O  O52  1  0.73451000  0.63596600  0.74751000  1
  O  O53  1  0.60181100  0.06078400  0.25707800  1
  O  O54  1  0.26813800  0.85731000  0.08799900  1
  O  O55  1  0.26691300  0.84281100  0.42175100  1
  O  O56  1  0.64221500  0.42276100  0.29074100  1
  O  O57  1  0.66666700  0.33333300  0.00831000  1
  O  O58  1  0.26549000  0.36403400  0.24751000  1
  O  O59  1  0.45897300  0.39818900  0.25707800  1
  O  O60  1  0.57589800  0.73308700  0.42175100  1
  O  O61  1  0.79347900  0.09697500  0.24938400  1
  O  O62  1  0.79561200  0.75631600  0.07566000  1
  O  O63  1  0.06078400  0.45897300  0.75707800  1
  O  O64  1  0.96070500  0.20438800  0.07566000  1
  O  O65  1  0.63596600  0.90145600  0.24751000  1
  O  O66  1  0.39779400  0.44921400  0.92230500  1
  O  O67  1  0.57723900  0.21945400  0.29074100  1
  O  O68  1  0.69453900  0.44912100  0.72766900  1
  O  O69  1  0.36403400  0.09854400  0.74751000  1
  O  O70  1  0.42276100  0.78054600  0.79074100  1
  O  O71  1  0.35778500  0.57723900  0.79074100  1
  O  O72  1  0.21083100  0.24173800  0.90878400  1
  O  O73  1  0.92722600  0.04388100  0.24489800  1
  O  O74  1  0.07277400  0.95611900  0.74489800  1
  O  O75  1  0.94858000  0.39779400  0.42230500  1
loop_
_geom_bond_atom_site_label_1
_geom_bond_atom_site_label_2
_geom_bond_distance
_geom_bond_site_symmetry_2
O0 P7 1.587717 1_555
O0 Si3 1.623344 1_555
O1 P6 1.562356 1_555
O1 V0 2.088286 1_555
O1 V4 2.158801 1_555
O2 P8 1.593322 1_555
O2 Si0 1.630161 1_555
O3 P7 1.513970 1_555
O3 V5 2.030216 1_654
O4 P13 1.562356 1_555
O4 V9 2.088294 1_555
O4 V5 2.158801 1_555
O5 P14 1.593322 1_555
O5 Si2 1.630142 1_555
O6 P15 1.562356 1_555
O6 V6 2.088284 1_555
O6 V7 2.158801 1_555
O7 P4 1.521821 1_555
O7 V10 1.934867 1_555
O8 P2 1.523785 1_555
O8 V6 1.998085 1_556
O9 P17 1.443737 1_554
O10 P17 1.584069 1_555
O10 P13 1.598262 1_555
O11 P6 1.524420 1_555
O11 V8 1.977061 1_455
O12 P8 1.516885 1_555
O12 V3 1.957310 1_554
O13 P14 1.559516 1_555
O13 V5 2.112587 1_655
O13 V9 2.146455 1_655
O14 P11 1.562349 1_555
O14 V3 2.120229 1_555
O14 V10 2.159754 1_555
O15 P18 1.516893 1_555
O15 V8 1.957310 1_555
O16 P2 1.516885 1_555
O16 V7 1.957310 1_555
O17 P2 1.593322 1_555
O17 Si2 1.630161 1_555
O18 P9 1.593322 1_555
O18 Si0 1.630142 1_555
O19 P0 1.511771 1_555
O19 V10 2.023408 1_555
O20 P12 1.521821 1_555
O20 V1 1.934866 1_566
O21 P0 1.562356 1_555
O21 V11 2.088294 1_555
O21 V8 2.158801 1_555
O22 P12 1.562349 1_555
O22 V4 2.120229 1_555
O22 V0 2.159762 1_555
O23 P3 1.523791 1_555
O23 V9 1.998095 1_555
O24 P10 1.513970 1_555
O24 V8 2.030216 1_455
O25 P4 1.513970 1_555
O25 V3 2.030216 1_554
O26 P6 1.511771 1_555
O26 V11 2.023410 1_456
O27 P16 1.584067 1_555
O27 P15 1.598256 1_555
O28 P10 1.587717 1_555
O28 Si1 1.623344 1_555
O29 P15 1.511771 1_555
O29 V0 2.023399 1_545
O30 P1 1.562356 1_555
O30 V10 2.088284 1_555
O30 V3 2.158801 1_555
O31 P12 1.513970 1_555
O31 V2 2.030216 1_565
O32 P7 1.562349 1_555
O32 V8 2.120229 1_555
O32 V11 2.159752 1_555
O33 Si0 1.596558 1_555
O33 Si1 1.597392 1_555
O34 P11 1.513970 1_555
O34 V7 2.030216 1_555
O35 P18 1.523791 1_555
O35 V11 1.998095 1_556
O36 P19 1.511771 1_555
O36 V9 2.023410 1_655
O37 P16 1.584069 1_665
O37 P0 1.598262 1_555
O38 P3 1.593322 1_555
O38 Si0 1.630168 1_555
O39 P9 1.559516 1_555
O39 V8 2.112587 1_455
O39 V11 2.146455 1_455
O40 P5 1.513970 1_555
O40 V4 2.030216 1_544
O41 P14 1.516891 1_555
O41 V2 1.957310 1_555
O42 P1 1.524425 1_555
O42 V2 1.977049 1_565
O43 P1 1.511771 1_555
O43 V1 2.023399 1_566
O44 P5 1.521821 1_555
O44 V0 1.934866 1_545
O45 P16 1.443737 1_555
O46 P15 1.524425 1_555
O46 V4 1.977049 1_544
O47 P3 1.516893 1_555
O47 V5 1.957310 1_554
O48 P17 1.584067 1_665
O48 P1 1.598256 1_555
O49 P10 1.521821 1_555
O49 V11 1.934855 1_456
O50 P14 1.523789 1_555
O50 V1 1.998096 1_556
O51 P13 1.524418 1_555
O51 V7 1.977059 1_555
O52 P18 1.559502 1_555
O52 V3 2.112587 1_555
O52 V10 2.146463 1_555
O53 P5 1.562349 1_555
O53 V2 2.120229 1_555
O53 V1 2.159762 1_555
O54 P9 1.516891 1_555
O54 V4 1.957310 1_554
O55 P9 1.523789 1_555
O55 V0 1.998096 1_555
O56 P4 1.587717 1_555
O56 Si3 1.623357 1_555
O57 Si2 1.596558 1_554
O57 Si3 1.597392 1_555
O58 P3 1.559502 1_555
O58 V7 2.112587 1_555
O58 V6 2.146463 1_555
O59 P4 1.562349 1_555
O59 V7 2.120229 1_555
O59 V6 2.159754 1_555
O60 P8 1.523785 1_555
O60 V10 1.998085 1_555
O61 P19 1.562356 1_555
O61 V1 2.088286 1_555
O61 V2 2.158801 1_555
O62 P0 1.524418 1_555
O62 V3 1.977059 1_554
O63 P10 1.562349 1_555
O63 V5 2.120229 1_555
O63 V9 2.159752 1_555
O64 P19 1.524420 1_555
O64 V5 1.977061 1_654
O65 P8 1.559515 1_555
O65 V2 2.112587 1_565
O65 V1 2.146453 1_565
O66 P11 1.521821 1_555
O66 V6 1.934867 1_556
O67 P5 1.587717 1_555
O67 Si3 1.623348 1_555
O68 P18 1.593322 1_555
O68 Si2 1.630168 1_555
O69 P2 1.559515 1_555
O69 V4 2.112587 1_545
O69 V0 2.146453 1_545
O70 P12 1.587717 1_555
O70 Si1 1.623348 1_555
O71 P11 1.587717 1_555
O71 Si1 1.623357 1_555
O72 P13 1.511771 1_555
O72 V6 2.023408 1_556
O73 P16 1.584056 1_655
O73 P19 1.598270 1_555
O74 P17 1.584056 1_565
O74 P6 1.598270 1_555
O75 P7 1.521821 1_555
O75 V9 1.934855 1_655
