# generated using pymatgen
data_NaFeF3
_symmetry_space_group_name_H-M   'P 1'
_cell_length_a   5.40024129
_cell_length_b   5.67492859
_cell_length_c   7.75734924
_cell_angle_alpha   90.00000000
_cell_angle_beta   90.00000000
_cell_angle_gamma   90.00000000
_symmetry_Int_Tables_number   1
_chemical_formula_structural   NaFeF3
_chemical_formula_sum   'Na4 Fe4 F12'
_cell_volume   237.73159828
_cell_formula_units_Z   4
loop_
 _symmetry_equiv_pos_site_id
 _symmetry_equiv_pos_as_xyz
  1  'x, y, z'
loop_
 _atom_site_type_symbol
 _atom_site_label
 _atom_site_symmetry_multiplicity
 _atom_site_fract_x
 _atom_site_fract_y
 _atom_site_fract_z
 _atom_site_occupancy
  Na  Na0  1  0.97864262  0.06981070  0.25000000  1
  Na  Na1  1  0.52135738  0.56981070  0.25000000  1
  Na  Na2  1  0.02135738  0.93018930  0.75000000  1
  Na  Na3  1  0.47864262  0.43018930  0.75000000  1
  Fe  Fe0  1  0.00000000  0.50000000  -0.00000000  1
  Fe  Fe1  1  0.50000000  -0.00000000  0.50000000  1
  Fe  Fe2  1  0.00000000  0.50000000  0.50000000  1
  Fe  Fe3  1  0.50000000  -0.00000000  -0.00000000  1
  F  F0  1  0.12647471  0.45211316  0.25000000  1
  F  F1  1  0.37352529  0.95211316  0.25000000  1
  F  F2  1  0.87352529  0.54788684  0.75000000  1
  F  F3  1  0.62647471  0.04788684  0.75000000  1
  F  F4  1  0.69734406  0.31111667  0.05893349  1
  F  F5  1  0.80265594  0.81111667  0.44106651  1
  F  F6  1  0.30265594  0.68888333  0.55893349  1
  F  F7  1  0.19734406  0.18888333  0.94106651  1
  F  F8  1  0.30265594  0.68888333  0.94106651  1
  F  F9  1  0.19734406  0.18888333  0.55893349  1
  F  F10  1  0.69734406  0.31111667  0.44106651  1
  F  F11  1  0.80265594  0.81111667  0.05893349  1
loop_
_geom_bond_atom_site_label_1
_geom_bond_atom_site_label_2
_geom_bond_distance
_geom_bond_site_symmetry_2
F0 Fe0 2.073972 1_555
F0 Fe2 2.073972 1_555
F0 Na1 2.234618 1_555
F0 Na0 2.311759 1_455
F1 Fe1 2.073972 1_565
F1 Fe3 2.073972 1_565
F1 Na0 2.234618 1_465
F1 Na1 2.311759 1_555
F2 Fe0 2.073972 1_656
F2 Fe2 2.073972 1_655
F2 Na3 2.234618 1_555
F2 Na2 2.311759 1_655
F3 Fe1 2.073972 1_555
F3 Fe3 2.073972 1_556
F3 Na2 2.234618 1_645
F3 Na3 2.311759 1_555
F4 Fe0 2.007307 1_655
F4 Fe3 2.112333 1_555
F4 Na1 2.292436 1_555
F4 Na0 2.525801 1_555
F4 Na3 2.755849 1_554
F5 Fe1 2.007307 1_565
F5 Fe2 2.112333 1_655
F5 Na0 2.292436 1_565
F5 Na1 2.525801 1_555
F5 Na2 2.755849 1_655
F6 Fe2 2.007307 1_555
F6 Fe1 2.112333 1_565
F6 Na3 2.292436 1_555
F6 Na2 2.525801 1_555
F6 Na1 2.755849 1_555
F7 Fe3 2.007307 1_556
F7 Fe0 2.112333 1_556
F7 Na2 2.292436 1_545
F7 Na3 2.525801 1_555
F7 Na0 2.755849 1_456
F8 Fe0 2.007307 1_556
F8 Fe3 2.112333 1_566
F8 Na3 2.292436 1_555
F8 Na2 2.525801 1_555
F8 Na1 2.755849 1_556
F9 Fe1 2.007307 1_555
F9 Fe2 2.112333 1_555
F9 Na2 2.292436 1_545
F9 Na3 2.525801 1_555
F9 Na0 2.755849 1_455
F10 Fe2 2.007307 1_655
F10 Fe1 2.112333 1_555
F10 Na1 2.292436 1_555
F10 Na0 2.525801 1_555
F10 Na3 2.755849 1_555
F11 Fe3 2.007307 1_565
F11 Fe0 2.112333 1_655
F11 Na0 2.292436 1_565
F11 Na1 2.525801 1_555
F11 Na2 2.755849 1_654
