# generated using pymatgen
data_Nd2Te4O11
_symmetry_space_group_name_H-M   'P 1'
_cell_length_a   6.84461486
_cell_length_b   6.84461486
_cell_length_c   16.34603399
_cell_angle_alpha   75.61317069
_cell_angle_beta   75.61317069
_cell_angle_gamma   44.99062043
_symmetry_Int_Tables_number   1
_chemical_formula_structural   Nd2Te4O11
_chemical_formula_sum   'Nd4 Te8 O22'
_cell_volume   521.46198547
_cell_formula_units_Z   2
loop_
 _symmetry_equiv_pos_site_id
 _symmetry_equiv_pos_as_xyz
  1  'x, y, z'
loop_
 _atom_site_type_symbol
 _atom_site_label
 _atom_site_symmetry_multiplicity
 _atom_site_fract_x
 _atom_site_fract_y
 _atom_site_fract_z
 _atom_site_occupancy
  Nd  Nd0  1  0.13656635  0.62745742  0.53727133  1
  Nd  Nd1  1  0.37254258  0.86343365  0.96272867  1
  Nd  Nd2  1  0.86343365  0.37254258  0.46272867  1
  Nd  Nd3  1  0.62745742  0.13656635  0.03727133  1
  Te  Te0  1  0.60568133  0.15499534  0.70138854  1
  Te  Te1  1  0.84500466  0.39431867  0.79861146  1
  Te  Te2  1  0.39431867  0.84500466  0.29861146  1
  Te  Te3  1  0.15499534  0.60568133  0.20138854  1
  Te  Te4  1  0.14965899  0.58949447  0.87196374  1
  Te  Te5  1  0.41050553  0.85034101  0.62803626  1
  Te  Te6  1  0.85034101  0.41050553  0.12803626  1
  Te  Te7  1  0.58949447  0.14965899  0.37196374  1
  O  O0  1  0.85085189  0.14914811  0.75000000  1
  O  O1  1  0.14914811  0.85085189  0.25000000  1
  O  O2  1  0.19885819  0.09470165  0.82874089  1
  O  O3  1  0.90529835  0.80114181  0.67125911  1
  O  O4  1  0.80114181  0.90529835  0.17125911  1
  O  O5  1  0.09470165  0.19885819  0.32874089  1
  O  O6  1  0.61901656  0.43140227  0.89990261  1
  O  O7  1  0.56859773  0.38098344  0.60009739  1
  O  O8  1  0.38098344  0.56859773  0.10009739  1
  O  O9  1  0.43140227  0.61901656  0.39990261  1
  O  O10  1  0.04805256  0.80704883  0.95288100  1
  O  O11  1  0.19295117  0.95194744  0.54711900  1
  O  O12  1  0.68118451  0.81610998  0.37182341  1
  O  O13  1  0.18389002  0.31881549  0.12817659  1
  O  O14  1  0.31881549  0.18389002  0.62817659  1
  O  O15  1  0.81610998  0.68118451  0.87182341  1
  O  O16  1  0.25394083  0.33082382  0.44294792  1
  O  O17  1  0.66917618  0.74605917  0.05705208  1
  O  O18  1  0.74605917  0.66917618  0.55705208  1
  O  O19  1  0.33082382  0.25394083  0.94294792  1
  O  O20  1  0.80704883  0.04805256  0.45288100  1
  O  O21  1  0.95194744  0.19295117  0.04711900  1
loop_
_geom_bond_atom_site_label_1
_geom_bond_atom_site_label_2
_geom_bond_distance
_geom_bond_site_symmetry_2
Nd0 O3 2.371733 1_455
Nd0 O20 2.380363 1_465
Nd0 O16 2.403709 1_555
Nd0 O18 2.422227 1_455
Nd0 O7 2.497400 1_555
Nd0 O14 2.510793 1_555
Nd0 O11 2.555127 1_555
Nd0 O9 2.601067 1_555
Nd1 O2 2.371733 1_565
Nd1 O21 2.380363 1_466
Nd1 O17 2.403709 1_556
Nd1 O19 2.422227 1_565
Nd1 O6 2.497400 1_555
Nd1 O15 2.510793 1_555
Nd1 O10 2.555127 1_555
Nd1 O8 2.601067 1_556
Nd2 O5 2.371733 1_655
Nd2 O11 2.380363 1_645
Nd2 O18 2.403709 1_555
Nd2 O16 2.422227 1_655
Nd2 O9 2.497400 1_555
Nd2 O12 2.510793 1_555
Nd2 O20 2.555127 1_555
Nd2 O7 2.601067 1_555
Nd3 O4 2.371733 1_545
Nd3 O10 2.380363 1_644
Nd3 O19 2.403709 1_554
Nd3 O17 2.422227 1_545
Nd3 O8 2.497400 1_555
Nd3 O13 2.510793 1_555
Nd3 O21 2.555127 1_555
Nd3 O6 2.601067 1_554
O0 Te1 2.000209 1_555
O0 Te0 2.000209 1_555
O1 Te2 2.000209 1_555
O1 Te3 2.000209 1_555
O2 Te1 1.838376 1_455
O3 Te0 1.838376 1_565
O4 Te3 1.838376 1_655
O5 Te2 1.838376 1_545
O6 Te1 1.891884 1_555
O6 Te4 2.695664 1_555
O7 Te0 1.891884 1_555
O7 Te5 2.695664 1_555
O8 Te3 1.891884 1_555
O8 Te6 2.695664 1_555
O9 Te2 1.891884 1_555
O9 Te7 2.695664 1_555
O10 Te4 1.872787 1_555
O11 Te5 1.872787 1_555
O12 Te7 1.892437 1_565
O12 Te2 2.413988 1_555
O13 Te6 1.892437 1_455
O13 Te3 2.413988 1_555
O14 Te5 1.892437 1_545
O14 Te0 2.413988 1_555
O15 Te4 1.892437 1_655
O15 Te1 2.413988 1_555
O16 Te7 1.876520 1_555
O17 Te6 1.876520 1_555
O18 Te5 1.876520 1_555
O19 Te4 1.876520 1_555
O20 Te7 1.872787 1_555
O21 Te6 1.872787 1_555
