# generated using pymatgen
data_Sc7CBr12
_symmetry_space_group_name_H-M   'P 1'
_cell_length_a   8.53078586
_cell_length_b   8.53089417
_cell_length_c   8.53091206
_cell_angle_alpha   107.64701235
_cell_angle_beta   107.64671733
_cell_angle_gamma   107.64555800
_symmetry_Int_Tables_number   1
_chemical_formula_structural   Sc7CBr12
_chemical_formula_sum   'Sc7 C1 Br12'
_cell_volume   507.64741359
_cell_formula_units_Z   1
loop_
 _symmetry_equiv_pos_site_id
 _symmetry_equiv_pos_as_xyz
  1  'x, y, z'
loop_
 _atom_site_type_symbol
 _atom_site_label
 _atom_site_symmetry_multiplicity
 _atom_site_fract_x
 _atom_site_fract_y
 _atom_site_fract_z
 _atom_site_occupancy
  Sc  Sc0  1  0.47926239  0.47926100  0.47925653  1
  Sc  Sc1  1  0.90922873  0.97696591  0.71052578  1
  Sc  Sc2  1  0.97697008  0.71052495  0.90922871  1
  Sc  Sc3  1  0.71052647  0.90922512  0.97697731  1
  Sc  Sc4  1  0.03870139  0.29673519  0.10469626  1
  Sc  Sc5  1  0.29673331  0.10469795  0.03869919  1
  Sc  Sc6  1  0.10469327  0.03870514  0.29673713  1
  C  C0  1  -0.00099893  -0.00099793  -0.00099692  1
  Br  Br0  1  0.22926022  0.07813075  0.69310930  1
  Br  Br1  1  0.07812568  0.69311423  0.22924734  1
  Br  Br2  1  0.69310671  0.22925058  0.07812845  1
  Br  Br3  1  0.54392290  0.84295106  0.61832576  1
  Br  Br4  1  0.84297372  0.61830193  0.54391884  1
  Br  Br5  1  0.61830824  0.54391479  0.84293990  1
  Br  Br6  1  0.92514085  0.31353982  0.78004925  1
  Br  Br7  1  0.31353841  0.78004827  0.92515049  1
  Br  Br8  1  0.78005316  0.92515830  0.31354676  1
  Br  Br9  1  0.38845095  0.46828343  0.14793604  1
  Br  Br10  1  0.46826913  0.14793375  0.38845366  1
  Br  Br11  1  0.14793231  0.38845477  0.46827121  1
loop_
_geom_bond_atom_site_label_1
_geom_bond_atom_site_label_2
_geom_bond_distance
_geom_bond_site_symmetry_2
C0 Sc3 2.273263 1_444
C0 Sc1 2.273275 1_444
C0 Sc2 2.273284 1_444
C0 Sc5 2.298631 1_555
C0 Sc4 2.298642 1_555
C0 Sc6 2.298644 1_555
Br0 Sc1 2.667525 1_445
Br0 Sc5 2.749812 1_556
Br0 Sc6 3.097019 1_555
Br1 Sc2 2.667416 1_454
Br1 Sc6 2.749795 1_565
Br1 Sc4 3.097076 1_555
Br2 Sc3 2.667493 1_544
Br2 Sc4 2.749805 1_655
Br2 Sc5 3.096994 1_555
Br3 Sc1 2.728740 1_555
Br3 Sc3 2.743809 1_555
Br3 Sc0 2.769813 1_555
Br4 Sc2 2.728759 1_555
Br4 Sc1 2.743955 1_555
Br4 Sc0 2.769950 1_555
Br5 Sc3 2.728770 1_555
Br5 Sc2 2.743846 1_555
Br5 Sc0 2.769769 1_555
Br6 Sc1 2.701261 1_545
Br6 Sc4 2.706954 1_656
Br6 Sc2 3.068099 1_555
Br7 Sc2 2.701163 1_455
Br7 Sc5 2.706958 1_566
Br7 Sc3 3.068106 1_555
Br8 Sc3 2.701166 1_554
Br8 Sc6 2.706894 1_665
Br8 Sc1 3.068108 1_555
Br9 Sc0 2.658156 1_555
Br9 Sc5 2.726785 1_555
Br9 Sc4 2.745564 1_555
Br10 Sc0 2.658156 1_555
Br10 Sc6 2.726683 1_555
Br10 Sc5 2.745605 1_555
Br11 Sc0 2.658187 1_555
Br11 Sc4 2.726696 1_555
Br11 Sc6 2.745554 1_555
