# generated using pymatgen
data_BaYFe4O7
_symmetry_space_group_name_H-M   'P 1'
_cell_length_a   6.42489666
_cell_length_b   6.42489666
_cell_length_c   6.42489666
_cell_angle_alpha   60.00000000
_cell_angle_beta   60.00000000
_cell_angle_gamma   60.00000000
_symmetry_Int_Tables_number   1
_chemical_formula_structural   BaYFe4O7
_chemical_formula_sum   'Ba1 Y1 Fe4 O7'
_cell_volume   187.53547954
_cell_formula_units_Z   1
loop_
 _symmetry_equiv_pos_site_id
 _symmetry_equiv_pos_as_xyz
  1  'x, y, z'
loop_
 _atom_site_type_symbol
 _atom_site_label
 _atom_site_symmetry_multiplicity
 _atom_site_fract_x
 _atom_site_fract_y
 _atom_site_fract_z
 _atom_site_occupancy
  Ba  Ba0  1  0.75000000  0.75000000  0.75000000  1
  Y  Y0  1  0.00000000  0.00000000  0.00000000  1
  Fe  Fe0  1  0.37812200  0.37812200  0.86563500  1
  Fe  Fe1  1  0.37812200  0.86563500  0.37812200  1
  Fe  Fe2  1  0.86563500  0.37812200  0.37812200  1
  Fe  Fe3  1  0.37812200  0.37812200  0.37812200  1
  O  O0  1  0.75162500  0.75162500  0.24837500  1
  O  O1  1  0.24837500  0.75162500  0.24837500  1
  O  O2  1  0.75162500  0.24837500  0.24837500  1
  O  O3  1  0.24837500  0.24837500  0.75162500  1
  O  O4  1  0.75162500  0.24837500  0.75162500  1
  O  O5  1  0.24837500  0.75162500  0.75162500  1
  O  O6  1  0.25000000  0.25000000  0.25000000  1
loop_
_geom_bond_atom_site_label_1
_geom_bond_atom_site_label_2
_geom_bond_distance
_geom_bond_site_symmetry_2
Ba0 O2 3.212482 1_565
Ba0 O0 3.212482 1_555
Ba0 O4 3.212482 1_555
Ba0 O1 3.212482 1_556
Ba0 O5 3.212482 1_555
Ba0 O2 3.212482 1_556
Ba0 O1 3.212482 1_655
Ba0 O5 3.212482 1_655
Ba0 O4 3.212482 1_565
Ba0 O0 3.212482 1_556
Ba0 O3 3.212482 1_565
Ba0 O3 3.212482 1_655
Fe0 O5 1.960231 1_555
Fe0 O4 1.960231 1_555
Fe0 O3 1.960236 1_555
Fe0 O6 2.016343 1_556
Fe1 O0 1.960231 1_555
Fe1 O5 1.960231 1_555
Fe1 O1 1.960236 1_555
Fe1 O6 2.016343 1_565
Fe2 O4 1.960231 1_555
Fe2 O0 1.960231 1_555
Fe2 O2 1.960236 1_555
Fe2 O6 2.016343 1_655
Fe3 O3 1.960231 1_555
Fe3 O2 1.960231 1_555
Fe3 O1 1.960231 1_555
Fe3 O6 2.016348 1_555
O0 Y0 2.256779 1_665
O1 Y0 2.256779 1_565
O2 Y0 2.256779 1_655
O3 Y0 2.256779 1_556
O4 Y0 2.256779 1_656
O5 Y0 2.256779 1_566
