# generated using pymatgen
data_U4Tc7Ge6
_symmetry_space_group_name_H-M   'P 1'
_cell_length_a   7.20954615
_cell_length_b   7.20954197
_cell_length_c   7.19300138
_cell_angle_alpha   109.42471357
_cell_angle_beta   109.42474706
_cell_angle_gamma   109.51762382
_symmetry_Int_Tables_number   1
_chemical_formula_structural   U4Tc7Ge6
_chemical_formula_sum   'U4 Tc7 Ge6'
_cell_volume   287.97378973
_cell_formula_units_Z   1
loop_
 _symmetry_equiv_pos_site_id
 _symmetry_equiv_pos_as_xyz
  1  'x, y, z'
loop_
 _atom_site_type_symbol
 _atom_site_label
 _atom_site_symmetry_multiplicity
 _atom_site_fract_x
 _atom_site_fract_y
 _atom_site_fract_z
 _atom_site_occupancy
  U  U0  1  0.50000000  0.50000000  0.50000000  1
  U  U1  1  -0.00000000  0.00000000  0.50000000  1
  U  U2  1  0.50000000  0.00000000  0.00000000  1
  U  U3  1  -0.00000000  0.50000000  0.00000000  1
  Tc  Tc0  1  0.75000261  0.24999839  0.50000100  1
  Tc  Tc1  1  0.49999578  0.24999839  0.74999839  1
  Tc  Tc2  1  0.50000422  0.75000161  0.25000161  1
  Tc  Tc3  1  0.24999739  0.49999478  0.74999839  1
  Tc  Tc4  1  0.75000261  0.50000522  0.25000161  1
  Tc  Tc5  1  0.24999739  0.75000161  0.49999900  1
  Tc  Tc6  1  -0.00000000  0.00000000  0.00000000  1
  Ge  Ge0  1  0.30958319  0.30958319  0.00015341  1
  Ge  Ge1  1  0.00000200  0.30958419  0.30943278  1
  Ge  Ge2  1  0.99999800  0.69041581  0.69056722  1
  Ge  Ge3  1  0.69041581  0.99999800  0.69056722  1
  Ge  Ge4  1  0.30958419  0.00000200  0.30943278  1
  Ge  Ge5  1  0.69041681  0.69041681  -0.00015341  1
loop_
_geom_bond_atom_site_label_1
_geom_bond_atom_site_label_2
_geom_bond_distance
_geom_bond_site_symmetry_2
Tc0 U3 2.939061 1_656
Tc0 U2 2.939073 1_555
Tc0 U1 2.944102 1_655
Tc0 U0 2.944151 1_555
Tc1 U0 2.939064 1_555
Tc1 U2 2.939064 1_556
Tc1 U1 2.944105 1_555
Tc1 U3 2.944155 1_656
Tc2 U0 2.939064 1_555
Tc2 U2 2.939064 1_565
Tc2 U1 2.944105 1_665
Tc2 U3 2.944155 1_555
Tc3 U3 2.939059 1_556
Tc3 U0 2.939071 1_555
Tc3 U1 2.944098 1_555
Tc3 U2 2.944159 1_566
Tc4 U3 2.939059 1_655
Tc4 U0 2.939071 1_555
Tc4 U1 2.944098 1_665
Tc4 U2 2.944159 1_555
Tc5 U3 2.939061 1_555
Tc5 U2 2.939073 1_566
Tc5 U1 2.944102 1_565
Tc5 U0 2.944151 1_555
Ge0 Tc6 2.575126 1_555
Ge0 Tc3 2.613364 1_554
Ge0 Tc1 2.613371 1_554
Ge0 Tc2 2.616718 1_555
Ge0 Tc4 2.616724 1_555
Ge0 U0 2.978397 1_555
Ge0 U1 2.982555 1_554
Ge0 U2 2.985466 1_555
Ge0 U3 2.985466 1_555
Ge1 Tc6 2.575134 1_555
Ge1 Tc3 2.613360 1_555
Ge1 Tc0 2.613372 1_455
Ge1 Tc5 2.616714 1_555
Ge1 Tc4 2.616731 1_455
Ge1 U3 2.978408 1_555
Ge1 U1 2.982541 1_555
Ge1 U0 2.985459 1_555
Ge1 U2 2.985483 1_455
Ge2 Tc6 2.575134 1_666
Ge2 Tc4 2.613360 1_555
Ge2 Tc5 2.613372 1_655
Ge2 Tc0 2.616714 1_555
Ge2 Tc3 2.616731 1_655
Ge2 U3 2.978408 1_656
Ge2 U1 2.982541 1_665
Ge2 U0 2.985459 1_555
Ge2 U2 2.985483 1_666
Ge3 Tc6 2.575134 1_666
Ge3 Tc2 2.613360 1_555
Ge3 Tc0 2.613365 1_565
Ge3 Tc5 2.616720 1_555
Ge3 Tc1 2.616732 1_565
Ge3 U2 2.978409 1_566
Ge3 U1 2.982543 1_665
Ge3 U0 2.985457 1_555
Ge3 U3 2.985482 1_666
Ge4 Tc6 2.575134 1_555
Ge4 Tc1 2.613360 1_555
Ge4 Tc5 2.613365 1_545
Ge4 Tc0 2.616720 1_555
Ge4 Tc2 2.616732 1_545
Ge4 U2 2.978409 1_555
Ge4 U1 2.982543 1_555
Ge4 U0 2.985457 1_555
Ge4 U3 2.985482 1_545
Ge5 Tc6 2.575126 1_665
Ge5 Tc4 2.613364 1_555
Ge5 Tc2 2.613371 1_555
Ge5 Tc1 2.616718 1_554
Ge5 Tc3 2.616724 1_554
Ge5 U0 2.978397 1_554
Ge5 U1 2.982555 1_665
Ge5 U2 2.985466 1_565
Ge5 U3 2.985466 1_655
