# generated using pymatgen
data_Gd2Br3N
_symmetry_space_group_name_H-M   'P 1'
_cell_length_a   8.33106653
_cell_length_b   8.39222684
_cell_length_c   10.33895916
_cell_angle_alpha   106.83802830
_cell_angle_beta   104.19784230
_cell_angle_gamma   98.80530296
_symmetry_Int_Tables_number   1
_chemical_formula_structural   Gd2Br3N
_chemical_formula_sum   'Gd8 Br12 N4'
_cell_volume   650.87625028
_cell_formula_units_Z   4
loop_
 _symmetry_equiv_pos_site_id
 _symmetry_equiv_pos_as_xyz
  1  'x, y, z'
loop_
 _atom_site_type_symbol
 _atom_site_label
 _atom_site_symmetry_multiplicity
 _atom_site_fract_x
 _atom_site_fract_y
 _atom_site_fract_z
 _atom_site_occupancy
  Gd  Gd0  1  0.09834222  0.84044345  0.27052146  1
  Gd  Gd1  1  0.90165732  0.15955728  0.72947845  1
  Gd  Gd2  1  0.57432995  0.91990428  0.35902394  1
  Gd  Gd3  1  0.42566987  0.08009553  0.64097617  1
  Gd  Gd4  1  0.30102841  0.24082720  0.32290286  1
  Gd  Gd5  1  0.69897101  0.75917236  0.67709621  1
  Gd  Gd6  1  0.15406895  0.92196034  0.94018601  1
  Gd  Gd7  1  0.84593007  0.07803934  0.05981445  1
  Br  Br0  1  0.73243017  0.76114989  0.11923385  1
  Br  Br1  1  0.26756945  0.23884997  0.88076729  1
  Br  Br2  1  0.53301839  0.13980188  0.17170224  1
  Br  Br3  1  0.46698128  0.86019695  0.82829728  1
  Br  Br4  1  0.28197099  0.68723848  0.09169017  1
  Br  Br5  1  0.71803093  0.31276467  0.90831032  1
  Br  Br6  1  0.42664695  0.42707504  0.63220902  1
  Br  Br7  1  0.57335104  0.57292316  0.36778939  1
  Br  Br8  1  0.04584696  0.43931713  0.25196991  1
  Br  Br9  1  0.95415549  0.56068303  0.74803030  1
  Br  Br10  1  0.07778203  0.84219806  0.56032801  1
  Br  Br11  1  0.92221838  0.15780089  0.43967100  1
  N  N0  1  0.34849245  0.02303348  0.40551882  1
  N  N1  1  0.65150825  0.97696657  0.59448094  1
  N  N2  1  0.09849146  0.02742742  0.14747009  1
  N  N3  1  0.90150799  0.97257262  0.85253081  1
loop_
_geom_bond_atom_site_label_1
_geom_bond_atom_site_label_2
_geom_bond_distance
_geom_bond_site_symmetry_2
Gd0 N0 2.235102 1_565
Gd0 N2 2.288609 1_565
Gd1 N1 2.235098 1_545
Gd1 N3 2.288622 1_545
Gd2 N1 2.243098 1_555
Gd2 N0 2.285002 1_565
Gd3 N0 2.243102 1_555
Gd3 N1 2.285009 1_545
Gd4 N2 2.244100 1_555
Gd4 N0 2.277448 1_555
Gd5 N3 2.244109 1_555
Gd5 N1 2.277446 1_555
Gd6 N3 2.233874 1_455
Gd6 N2 2.259202 1_566
Gd7 N2 2.233877 1_655
Gd7 N3 2.259199 1_544
Br0 Gd0 2.935863 1_655
Br0 Gd7 2.967414 1_565
Br0 Gd2 3.143527 1_555
Br1 Gd1 2.935867 1_455
Br1 Gd6 2.967413 1_545
Br1 Gd3 3.143536 1_555
Br2 Gd4 2.848497 1_555
Br2 Gd2 3.035288 1_545
Br2 Gd7 3.154099 1_555
Br2 Gd6 3.321082 1_544
Br3 Gd5 2.848497 1_555
Br3 Gd3 3.035290 1_565
Br3 Gd6 3.154110 1_555
Br3 Gd7 3.321083 1_566
Br4 Gd0 2.832755 1_555
Br4 Gd6 3.013420 1_554
Br4 Gd2 3.082128 1_555
Br5 Gd1 2.832750 1_555
Br5 Gd7 3.013437 1_556
Br5 Gd3 3.082146 1_555
Br6 Gd3 2.938306 1_555
Br6 Gd4 2.954087 1_555
Br6 Gd5 3.150954 1_555
Br7 Gd2 2.938312 1_555
Br7 Gd5 2.954095 1_555
Br7 Gd4 3.150941 1_555
Br8 Gd4 2.976466 1_555
Br8 Gd7 3.042155 1_455
Br8 Gd0 3.270226 1_555
Br9 Gd5 2.976483 1_555
Br9 Gd6 3.042146 1_655
Br9 Gd1 3.270219 1_555
Br10 Gd3 3.026520 1_565
Br10 Gd0 3.038804 1_555
Br10 Gd1 3.472991 1_465
Br10 Gd6 3.660370 1_555
Br10 Gd5 3.685885 1_455
Br11 Gd2 3.026522 1_545
Br11 Gd1 3.038812 1_555
Br11 Gd0 3.472972 1_645
Br11 Gd7 3.660355 1_555
Br11 Gd4 3.685878 1_655
