# generated using pymatgen
data_RbInAs2O7
_symmetry_space_group_name_H-M   'P 1'
_cell_length_a   7.99861500
_cell_length_b   8.86373573
_cell_length_c   10.69576725
_cell_angle_alpha   91.16349427
_cell_angle_beta   89.94365113
_cell_angle_gamma   105.73091060
_symmetry_Int_Tables_number   1
_chemical_formula_structural   RbInAs2O7
_chemical_formula_sum   'Rb4 In4 As8 O28'
_cell_volume   729.74396798
_cell_formula_units_Z   4
loop_
 _symmetry_equiv_pos_site_id
 _symmetry_equiv_pos_as_xyz
  1  'x, y, z'
loop_
 _atom_site_type_symbol
 _atom_site_label
 _atom_site_symmetry_multiplicity
 _atom_site_fract_x
 _atom_site_fract_y
 _atom_site_fract_z
 _atom_site_occupancy
  Rb  Rb0  1  0.30956500  0.94432600  0.18739700  1
  Rb  Rb1  1  0.69043500  0.05567400  0.81260300  1
  Rb  Rb2  1  0.66058800  0.53886400  0.68285900  1
  Rb  Rb3  1  0.33941200  0.46113600  0.31714100  1
  In  In0  1  0.73527900  0.76756000  0.10214100  1
  In  In1  1  0.26209900  0.73888300  0.59582900  1
  In  In2  1  0.73790100  0.26111700  0.40417100  1
  In  In3  1  0.26472100  0.23244000  0.89785900  1
  As  As0  1  0.05118400  0.79907800  0.86756000  1
  As  As1  1  0.65534300  0.85001200  0.42647500  1
  As  As2  1  0.37096100  0.66882800  0.90022000  1
  As  As3  1  0.06837700  0.32657300  0.64067000  1
  As  As4  1  0.94881600  0.20092200  0.13244000  1
  As  As5  1  0.62903900  0.33117200  0.09978000  1
  As  As6  1  0.34465700  0.14998800  0.57352500  1
  As  As7  1  0.93162300  0.67342700  0.35933000  1
  O  O0  1  0.15986600  0.25726900  0.08306200  1
  O  O1  1  0.13804900  0.18773300  0.54329400  1
  O  O2  1  0.04353000  0.76525900  0.70923100  1
  O  O3  1  0.68994700  0.03479800  0.48581000  1
  O  O4  1  0.95647000  0.23474100  0.29076900  1
  O  O5  1  0.12842500  0.66576500  0.41415600  1
  O  O6  1  0.57821300  0.22457000  0.23330600  1
  O  O7  1  0.49289200  0.28341100  0.48875500  1
  O  O8  1  0.60244400  0.81926700  0.27179100  1
  O  O9  1  0.04345500  0.25240300  0.78846600  1
  O  O10  1  0.50710800  0.71658900  0.51124500  1
  O  O11  1  0.16770900  0.97634000  0.92443500  1
  O  O12  1  0.95654500  0.74759700  0.21153400  1
  O  O13  1  0.39755600  0.18073300  0.72820900  1
  O  O14  1  0.76815200  0.50681700  0.37291800  1
  O  O15  1  0.39152800  0.48476200  0.88407900  1
  O  O16  1  0.85100900  0.34071700  0.06168000  1
  O  O17  1  0.87157500  0.33423500  0.58584400  1
  O  O18  1  0.50892200  0.22123700  0.98118600  1
  O  O19  1  0.42178700  0.77543000  0.76669400  1
  O  O20  1  0.14899100  0.65928300  0.93832000  1
  O  O21  1  0.60847200  0.51523800  0.11592100  1
  O  O22  1  0.31005300  0.96520200  0.51419000  1
  O  O23  1  0.23184800  0.49318300  0.62708200  1
  O  O24  1  0.84013400  0.74273100  0.91693800  1
  O  O25  1  0.49107800  0.77876300  0.01881400  1
  O  O26  1  0.86195100  0.81226700  0.45670600  1
  O  O27  1  0.83229100  0.02366000  0.07556500  1
loop_
_geom_bond_atom_site_label_1
_geom_bond_atom_site_label_2
_geom_bond_distance
_geom_bond_site_symmetry_2
In0 O12 2.171375 1_555
In0 O25 2.175232 1_555
In0 O24 2.180567 1_554
In0 O21 2.198985 1_555
In0 O8 2.204083 1_555
In0 O27 2.215057 1_565
In1 O22 2.141729 1_555
In1 O23 2.157975 1_555
In1 O2 2.188184 1_555
In1 O19 2.198284 1_555
In1 O10 2.212986 1_555
In1 O5 2.217250 1_555
In2 O3 2.141729 1_555
In2 O14 2.157975 1_555
In2 O4 2.188184 1_555
In2 O6 2.198284 1_555
In2 O7 2.212986 1_555
In2 O17 2.217250 1_555
In3 O9 2.171375 1_555
In3 O18 2.175232 1_555
In3 O0 2.180567 1_556
In3 O15 2.198985 1_555
In3 O13 2.204083 1_555
In3 O11 2.215057 1_545
As0 O11 1.695778 1_555
As0 O24 1.711685 1_455
As0 O2 1.712021 1_555
As0 O20 1.812481 1_555
As1 O3 1.695399 1_565
As1 O10 1.705167 1_555
As1 O8 1.706191 1_555
As1 O26 1.803535 1_555
As2 O15 1.689006 1_555
As2 O25 1.710593 1_556
As2 O19 1.715550 1_555
As2 O20 1.801105 1_555
As3 O23 1.694989 1_555
As3 O17 1.699357 1_455
As3 O9 1.715042 1_555
As3 O1 1.796793 1_555
As4 O27 1.695778 1_555
As4 O0 1.711685 1_655
As4 O4 1.712021 1_555
As4 O16 1.812481 1_555
As5 O21 1.689006 1_555
As5 O18 1.710593 1_554
As5 O6 1.715550 1_555
As5 O16 1.801105 1_555
As6 O22 1.695399 1_545
As6 O7 1.705167 1_555
As6 O13 1.706191 1_555
As6 O1 1.803535 1_555
As7 O14 1.694989 1_555
As7 O5 1.699357 1_655
As7 O12 1.715042 1_555
As7 O26 1.796793 1_555
O0 Rb3 3.164211 1_555
O1 Rb3 3.525873 1_555
O2 Rb2 3.183433 1_455
O4 Rb3 3.183433 1_655
O5 Rb3 2.965535 1_555
O6 Rb0 2.843774 1_545
O6 Rb3 3.307760 1_555
O7 Rb3 2.920338 1_555
O7 Rb2 3.066588 1_555
O8 Rb0 2.997384 1_555
O8 Rb3 3.343272 1_555
O9 Rb1 2.903002 1_455
O10 Rb2 2.920338 1_555
O10 Rb3 3.066588 1_555
O11 Rb0 3.080883 1_556
O12 Rb0 2.903002 1_655
O13 Rb1 2.997384 1_555
O13 Rb2 3.343272 1_555
O14 Rb3 3.394322 1_555
O14 Rb2 3.449519 1_555
O15 Rb2 2.994445 1_555
O17 Rb2 2.965535 1_555
O18 Rb1 2.924961 1_555
O19 Rb1 2.843774 1_565
O19 Rb2 3.307760 1_555
O21 Rb3 2.994445 1_555
O23 Rb2 3.394322 1_555
O23 Rb3 3.449519 1_555
O24 Rb2 3.164211 1_555
O25 Rb0 2.924961 1_555
O26 Rb2 3.525873 1_555
O27 Rb1 3.080883 1_554
