# generated using pymatgen
data_Ti11Fe13O36
_symmetry_space_group_name_H-M   'P 1'
_cell_length_a   5.17929700
_cell_length_b   5.55186928
_cell_length_c   25.76070977
_cell_angle_alpha   93.31716882
_cell_angle_beta   90.07885072
_cell_angle_gamma   117.74872948
_symmetry_Int_Tables_number   1
_chemical_formula_structural   Ti11Fe13O36
_chemical_formula_sum   'Ti11 Fe13 O36'
_cell_volume   654.12192794
_cell_formula_units_Z   1
loop_
 _symmetry_equiv_pos_site_id
 _symmetry_equiv_pos_as_xyz
  1  'x, y, z'
loop_
 _atom_site_type_symbol
 _atom_site_label
 _atom_site_symmetry_multiplicity
 _atom_site_fract_x
 _atom_site_fract_y
 _atom_site_fract_z
 _atom_site_occupancy
  Ti  Ti0  1  0.19308000  0.39083900  0.97675800  1
  Ti  Ti1  1  0.47122500  0.93502600  0.94039900  1
  Ti  Ti2  1  0.53304300  0.07931700  0.80854700  1
  Ti  Ti3  1  0.80103900  0.61605500  0.77306300  1
  Ti  Ti4  1  0.87274400  0.73639600  0.63966400  1
  Ti  Ti5  1  0.19283900  0.38765100  0.47559200  1
  Ti  Ti6  1  0.52762500  0.05454700  0.30908700  1
  Ti  Ti7  1  0.80097100  0.60606500  0.52361400  1
  Ti  Ti8  1  0.86406300  0.72361200  0.14190900  1
  Ti  Ti9  1  0.13987400  0.27881700  0.35746200  1
  Ti  Ti10  1  0.47550200  0.94462600  0.19113800  1
  Fe  Fe0  1  0.85619100  0.71258100  0.89259500  1
  Fe  Fe1  1  0.13961300  0.27341700  0.85771400  1
  Fe  Fe2  1  0.14335400  0.28601200  0.60718700  1
  Fe  Fe3  1  0.18618600  0.37969700  0.72504000  1
  Fe  Fe4  1  0.46397600  0.93892400  0.69050200  1
  Fe  Fe5  1  0.47279600  0.94768600  0.44044300  1
  Fe  Fe6  1  0.53031700  0.05128500  0.56077300  1
  Fe  Fe7  1  0.80659200  0.61454700  0.27348000  1
  Fe  Fe8  1  0.85825300  0.71787900  0.39223200  1
  Fe  Fe9  1  0.14205000  0.28281800  0.10878200  1
  Fe  Fe10  1  0.19411300  0.38537100  0.22606600  1
  Fe  Fe11  1  0.52212000  0.04828400  0.05941700  1
  Fe  Fe12  1  0.81013900  0.61318900  0.02560900  1
  O  O0  1  0.88319800  0.11136500  0.93036200  1
  O  O1  1  0.33236700  0.99574900  0.87605400  1
  O  O2  1  0.44466900  0.22546500  0.98523500  1
  O  O3  1  0.85065200  0.42119400  0.83810200  1
  O  O4  1  0.04836000  0.67481500  0.96114600  1
  O  O5  1  0.21873100  0.77856300  0.76478100  1
  O  O6  1  0.42152600  0.57683600  0.90961600  1
  O  O7  1  0.66594800  0.67672800  0.70950300  1
  O  O8  1  0.78100500  0.89041400  0.81905800  1
  O  O9  1  0.21010000  0.09341400  0.67297600  1
  O  O10  1  0.38282100  0.33831100  0.79133500  1
  O  O11  1  0.59771600  0.45174000  0.59463500  1
  O  O12  1  0.74297700  0.22379500  0.74271500  1
  O  O13  1  0.97785600  0.33290300  0.53645600  1
  O  O14  1  0.11726600  0.58015800  0.65984000  1
  O  O15  1  0.55136100  0.75476100  0.50771400  1
  O  O16  1  0.69539500  0.98681700  0.62918100  1
  O  O17  1  0.92562000  0.11723400  0.42763500  1
  O  O18  1  0.07639400  0.87443000  0.57237000  1
  O  O19  1  0.30785800  0.00154900  0.37002300  1
  O  O20  1  0.45126300  0.24734600  0.49240500  1
  O  O21  1  0.88442900  0.42170500  0.34125600  1
  O  O22  1  0.02418300  0.66248900  0.46373000  1
  O  O23  1  0.25934300  0.78270500  0.26128100  1
  O  O24  1  0.40824600  0.54868100  0.40567000  1
  O  O25  1  0.64268000  0.66877300  0.20290900  1
  O  O26  1  0.78363100  0.91435300  0.32534500  1
  O  O27  1  0.21843800  0.08670900  0.17593500  1
  O  O28  1  0.35890800  0.33094800  0.29721600  1
  O  O29  1  0.59232300  0.45506800  0.09329300  1
  O  O30  1  0.74105400  0.21437800  0.23937700  1
  O  O31  1  0.97336700  0.33217200  0.03570100  1
  O  O32  1  0.11580900  0.57892700  0.15882700  1
  O  O33  1  0.53290500  0.74970900  0.00599600  1
  O  O34  1  0.69549900  0.00007000  0.13065100  1
  O  O35  1  0.08839500  0.89508300  0.07459900  1
loop_
_geom_bond_atom_site_label_1
_geom_bond_atom_site_label_2
_geom_bond_distance
_geom_bond_site_symmetry_2
Fe0 O3 2.069389 1_555
Fe0 O6 2.071103 1_555
Fe0 O4 2.094136 1_655
Fe0 O1 2.281557 1_655
Fe0 O8 2.299448 1_555
Fe0 O0 2.308649 1_565
Fe1 O6 2.049602 1_555
Fe1 O10 2.072471 1_555
Fe1 O3 2.087462 1_455
Fe1 O8 2.243891 1_445
Fe1 O1 2.261067 1_545
Fe1 O0 2.272579 1_455
Fe2 O13 2.093053 1_455
Fe2 O14 2.115311 1_555
Fe2 O11 2.123514 1_555
Fe2 O9 2.165047 1_555
Fe2 O16 2.233151 1_445
Fe2 O18 2.273807 1_545
Fe3 O10 2.065218 1_555
Fe3 O9 2.068202 1_555
Fe3 O12 2.103375 1_455
Fe3 O14 2.184422 1_555
Fe3 O7 2.305957 1_555
Fe3 O5 2.317298 1_555
Fe4 O16 1.939002 1_555
Fe4 O9 1.939545 1_565
Fe4 O12 2.004725 1_565
Fe4 O14 2.073462 1_555
Fe4 O7 2.225280 1_555
Fe4 O5 2.284346 1_555
Fe5 O19 2.099150 1_565
Fe5 O17 2.116063 1_565
Fe5 O20 2.118373 1_565
Fe5 O24 2.213888 1_555
Fe5 O15 2.221406 1_555
Fe5 O22 2.225654 1_555
Fe6 O16 2.078076 1_545
Fe6 O18 2.113497 1_545
Fe6 O15 2.120706 1_545
Fe6 O11 2.208564 1_555
Fe6 O13 2.225399 1_555
Fe6 O20 2.255932 1_555
Fe7 O25 2.100811 1_555
Fe7 O23 2.113402 1_655
Fe7 O26 2.120650 1_555
Fe7 O30 2.212232 1_555
Fe7 O28 2.223736 1_555
Fe7 O21 2.230124 1_555
Fe8 O21 2.098760 1_555
Fe8 O24 2.106088 1_555
Fe8 O22 2.129036 1_655
Fe8 O17 2.216771 1_565
Fe8 O26 2.217293 1_555
Fe8 O19 2.218807 1_665
Fe9 O32 2.084793 1_555
Fe9 O29 2.117165 1_555
Fe9 O31 2.158865 1_455
Fe9 O35 2.170132 1_545
Fe9 O34 2.203601 1_455
Fe9 O27 2.225250 1_555
Fe10 O27 2.092889 1_555
Fe10 O28 2.116401 1_555
Fe10 O30 2.119089 1_455
Fe10 O23 2.208363 1_555
Fe10 O25 2.222060 1_555
Fe10 O32 2.222339 1_555
Fe11 O35 2.045577 1_545
Fe11 O33 2.113572 1_545
Fe11 O34 2.126388 1_555
Fe11 O29 2.236196 1_555
Fe11 O31 2.237151 1_555
Fe11 O2 2.315875 1_554
Fe12 O35 1.945544 1_655
Fe12 O33 1.986765 1_555
Fe12 O4 2.018737 1_654
Fe12 O29 2.084173 1_555
Fe12 O31 2.119194 1_555
Fe12 O2 2.289026 1_554
O0 Ti1 1.914087 1_545
O0 Ti0 1.968014 1_655
O1 Ti1 1.914574 1_555
O1 Ti2 1.992249 1_565
O2 Ti0 1.930048 1_555
O2 Ti1 1.986071 1_545
O3 Ti2 1.951962 1_555
O3 Ti3 2.123909 1_555
O4 Ti1 2.077424 1_555
O4 Ti0 2.093370 1_555
O5 Ti3 1.935365 1_455
O5 Ti2 1.988772 1_565
O6 Ti1 1.997499 1_555
O6 Ti0 2.128960 1_555
O7 Ti3 1.887875 1_555
O7 Ti4 2.058532 1_555
O8 Ti3 1.916631 1_555
O8 Ti2 2.026991 1_565
O9 Ti4 2.071760 1_445
O10 Ti2 1.996024 1_555
O10 Ti3 2.065853 1_555
O11 Ti4 1.886593 1_555
O11 Ti7 2.129877 1_555
O12 Ti2 2.012960 1_555
O12 Ti3 2.153327 1_555
O13 Ti5 1.880239 1_655
O13 Ti7 2.144694 1_555
O14 Ti4 1.923474 1_455
O15 Ti7 1.884709 1_555
O15 Ti5 2.136169 1_555
O16 Ti4 2.020283 1_555
O17 Ti5 1.881876 1_655
O17 Ti9 2.137797 1_655
O18 Ti7 1.905692 1_455
O18 Ti4 2.027575 1_455
O19 Ti6 1.895467 1_555
O19 Ti9 2.129624 1_555
O20 Ti5 1.895817 1_555
O20 Ti7 2.084462 1_555
O21 Ti9 1.888952 1_655
O21 Ti6 2.132950 1_555
O22 Ti7 1.880967 1_455
O22 Ti5 2.116378 1_555
O23 Ti6 1.884823 1_565
O23 Ti10 2.140773 1_555
O24 Ti9 1.886724 1_555
O24 Ti5 2.133431 1_555
O25 Ti8 1.900517 1_555
O25 Ti10 2.115421 1_555
O26 Ti6 1.880563 1_565
O26 Ti9 2.123381 1_665
O27 Ti10 1.886951 1_545
O27 Ti8 2.132254 1_445
O28 Ti9 1.878950 1_555
O28 Ti6 2.124656 1_555
O29 Ti8 1.896640 1_555
O30 Ti10 1.881656 1_545
O30 Ti6 2.123826 1_555
O31 Ti0 1.850261 1_654
O32 Ti8 1.884011 1_455
O32 Ti10 2.136267 1_555
O33 Ti0 2.047437 1_554
O33 Ti1 2.126472 1_554
O34 Ti10 1.885416 1_545
O34 Ti8 2.121488 1_545
O35 Ti8 2.104621 1_455
