# generated using pymatgen
data_Gd2SnS5
_symmetry_space_group_name_H-M   'P 1'
_cell_length_a   3.83976070
_cell_length_b   7.78995058
_cell_length_c   11.36557033
_cell_angle_alpha   90.00000000
_cell_angle_beta   90.00000000
_cell_angle_gamma   90.00000000
_symmetry_Int_Tables_number   1
_chemical_formula_structural   Gd2SnS5
_chemical_formula_sum   'Gd4 Sn2 S10'
_cell_volume   339.96178079
_cell_formula_units_Z   2
loop_
 _symmetry_equiv_pos_site_id
 _symmetry_equiv_pos_as_xyz
  1  'x, y, z'
loop_
 _atom_site_type_symbol
 _atom_site_label
 _atom_site_symmetry_multiplicity
 _atom_site_fract_x
 _atom_site_fract_y
 _atom_site_fract_z
 _atom_site_occupancy
  Gd  Gd0  1  0.50000000  0.53145751  0.82705751  1
  Gd  Gd1  1  0.50000000  0.96854249  0.32705751  1
  Gd  Gd2  1  0.50000000  0.46854249  0.17294249  1
  Gd  Gd3  1  0.50000000  0.03145751  0.67294249  1
  Sn  Sn0  1  -0.00000000  -0.00000000  0.00000000  1
  Sn  Sn1  1  -0.00000000  0.50000000  0.50000000  1
  S  S0  1  -0.00000000  0.82644505  0.80565929  1
  S  S1  1  -0.00000000  -0.00000000  0.50000000  1
  S  S2  1  -0.00000000  0.17355495  0.19434071  1
  S  S3  1  -0.00000000  0.32644505  0.69434071  1
  S  S4  1  0.50000000  0.82964538  0.09347743  1
  S  S5  1  0.50000000  0.32964538  0.40652257  1
  S  S6  1  -0.00000000  0.67355495  0.30565929  1
  S  S7  1  0.50000000  0.17035462  0.90652257  1
  S  S8  1  -0.00000000  0.50000000  0.00000000  1
  S  S9  1  0.50000000  0.67035462  0.59347743  1
loop_
_geom_bond_atom_site_label_1
_geom_bond_atom_site_label_2
_geom_bond_distance
_geom_bond_site_symmetry_2
Gd0 S8 2.758539 1_556
Gd0 S8 2.758539 1_656
Gd0 S9 2.866799 1_555
Gd0 S3 2.917489 1_655
Gd0 S3 2.917489 1_555
Gd0 S7 2.954408 1_555
Gd0 S0 3.004265 1_655
Gd0 S0 3.004265 1_555
Gd1 S1 2.758539 1_565
Gd1 S1 2.758539 1_665
Gd1 S4 2.866799 1_555
Gd1 S2 2.917489 1_565
Gd1 S2 2.917489 1_665
Gd1 S5 2.954408 1_565
Gd1 S6 3.004265 1_655
Gd1 S6 3.004265 1_555
Gd2 S8 2.758539 1_555
Gd2 S8 2.758539 1_655
Gd2 S5 2.866799 1_555
Gd2 S6 2.917489 1_555
Gd2 S6 2.917489 1_655
Gd2 S4 2.954408 1_555
Gd2 S2 3.004265 1_555
Gd2 S2 3.004265 1_655
Gd3 S1 2.758539 1_555
Gd3 S1 2.758539 1_655
Gd3 S7 2.866799 1_555
Gd3 S0 2.917489 1_545
Gd3 S0 2.917489 1_645
Gd3 S9 2.954408 1_545
Gd3 S3 3.004265 1_655
Gd3 S3 3.004265 1_555
S0 Sn0 2.589716 1_566
S2 Sn0 2.589716 1_555
S3 Sn1 2.589716 1_555
S4 Sn0 2.564324 1_565
S4 Sn0 2.564324 1_665
S5 Sn1 2.564324 1_555
S5 Sn1 2.564324 1_655
S6 Sn1 2.589716 1_555
S7 Sn0 2.564324 1_656
S7 Sn0 2.564324 1_556
S9 Sn1 2.564324 1_655
S9 Sn1 2.564324 1_555
