# generated using pymatgen
data_Mg2PClO4
_symmetry_space_group_name_H-M   'P 1'
_cell_length_a   4.86496100
_cell_length_b   8.01069300
_cell_length_c   11.06794900
_cell_angle_alpha   90.00000000
_cell_angle_beta   90.00000000
_cell_angle_gamma   90.00000000
_symmetry_Int_Tables_number   1
_chemical_formula_structural   Mg2PClO4
_chemical_formula_sum   'Mg8 P4 Cl4 O16'
_cell_volume   431.33688796
_cell_formula_units_Z   4
loop_
 _symmetry_equiv_pos_site_id
 _symmetry_equiv_pos_as_xyz
  1  'x, y, z'
loop_
 _atom_site_type_symbol
 _atom_site_label
 _atom_site_symmetry_multiplicity
 _atom_site_fract_x
 _atom_site_fract_y
 _atom_site_fract_z
 _atom_site_occupancy
  Mg  Mg0  1  0.50720700  0.16327900  0.62751700  1
  Mg  Mg1  1  0.00720700  0.83672100  0.37248300  1
  Mg  Mg2  1  0.00053900  0.40163800  0.37829300  1
  Mg  Mg3  1  0.00720700  0.66327900  0.87248300  1
  Mg  Mg4  1  0.50720700  0.33672100  0.12751700  1
  Mg  Mg5  1  0.50053900  0.90163800  0.12170700  1
  Mg  Mg6  1  0.00053900  0.09836200  0.87829300  1
  Mg  Mg7  1  0.50053900  0.59836200  0.62170700  1
  P  P0  1  0.95285600  0.12050100  0.16635200  1
  P  P1  1  0.45285600  0.87949900  0.83364800  1
  P  P2  1  0.95285600  0.37949900  0.66635200  1
  P  P3  1  0.45285600  0.62050100  0.33364800  1
  Cl  Cl0  1  0.25764500  0.37805000  0.93787600  1
  Cl  Cl1  1  0.75764500  0.62195000  0.06212400  1
  Cl  Cl2  1  0.75764500  0.87805000  0.56212400  1
  Cl  Cl3  1  0.25764500  0.12195000  0.43787600  1
  O  O0  1  0.34728200  0.46019900  0.27044300  1
  O  O1  1  0.34786600  0.77832200  0.26691400  1
  O  O2  1  0.76871100  0.61961200  0.34817800  1
  O  O3  1  0.84786600  0.22167800  0.73308600  1
  O  O4  1  0.79679500  0.12314000  0.04205200  1
  O  O5  1  0.26871100  0.38038800  0.65182200  1
  O  O6  1  0.76871100  0.88038800  0.84817800  1
  O  O7  1  0.84728200  0.53980100  0.72955700  1
  O  O8  1  0.79679500  0.37686000  0.54205200  1
  O  O9  1  0.34786600  0.72167800  0.76691400  1
  O  O10  1  0.29679500  0.62314000  0.45794800  1
  O  O11  1  0.26871100  0.11961200  0.15182200  1
  O  O12  1  0.29679500  0.87686000  0.95794800  1
  O  O13  1  0.84728200  0.96019900  0.22955700  1
  O  O14  1  0.84786600  0.27832200  0.23308600  1
  O  O15  1  0.34728200  0.03980100  0.77044300  1
loop_
_geom_bond_atom_site_label_1
_geom_bond_atom_site_label_2
_geom_bond_distance
_geom_bond_site_symmetry_2
Mg0 O15 2.021419 1_555
Mg0 O3 2.081035 1_555
Mg0 O5 2.107936 1_555
Mg0 O8 2.409745 1_555
Mg1 O13 2.021419 1_455
Mg1 O1 2.081035 1_555
Mg1 O2 2.107936 1_455
Mg1 O10 2.409745 1_555
Mg2 O14 2.027419 1_455
Mg2 O8 2.075321 1_455
Mg2 O2 2.105244 1_455
Mg2 O0 2.119089 1_555
Mg2 O10 2.450094 1_555
Mg3 O7 2.021419 1_455
Mg3 O9 2.081035 1_555
Mg3 O6 2.107936 1_455
Mg3 O12 2.409745 1_555
Mg4 O0 2.021419 1_555
Mg4 O14 2.081035 1_555
Mg4 O11 2.107936 1_555
Mg4 O4 2.409745 1_555
Mg5 O1 2.027419 1_555
Mg5 O12 2.075321 1_554
Mg5 O11 2.105244 1_565
Mg5 O13 2.119089 1_555
Mg5 O4 2.450094 1_565
Mg6 O3 2.027419 1_455
Mg6 O4 2.075321 1_456
Mg6 O6 2.105244 1_445
Mg6 O15 2.119089 1_555
Mg6 O12 2.450094 1_545
Mg7 O9 2.027419 1_555
Mg7 O10 2.075321 1_555
Mg7 O5 2.105244 1_555
Mg7 O7 2.119089 1_555
Mg7 O8 2.450094 1_555
Cl0 Mg4 2.447286 1_556
Cl0 Mg6 2.649384 1_555
Cl0 Mg3 2.688671 1_555
Cl1 Mg3 2.447286 1_654
Cl1 Mg5 2.649384 1_555
Cl1 Mg4 2.688671 1_555
Cl2 Mg1 2.447286 1_655
Cl2 Mg7 2.649384 1_555
Cl2 Mg0 2.688671 1_565
Cl3 Mg0 2.447286 1_555
Cl3 Mg2 2.649384 1_555
Cl3 Mg1 2.688671 1_545
O0 P3 1.549890 1_555
O1 P3 1.550733 1_555
O2 P3 1.545031 1_555
O3 P2 1.550733 1_555
O4 P0 1.571482 1_555
O5 P2 1.545031 1_455
O6 P1 1.545031 1_555
O7 P2 1.549890 1_555
O8 P2 1.571482 1_555
O9 P1 1.550733 1_555
O10 P3 1.571482 1_555
O11 P0 1.545031 1_455
O12 P1 1.571482 1_555
O13 P0 1.549890 1_565
O14 P0 1.550733 1_555
O15 P1 1.549890 1_545
