# generated using pymatgen
data_Zr(MoO4)2
_symmetry_space_group_name_H-M   'P 1'
_cell_length_a   7.08136301
_cell_length_b   7.08136301
_cell_length_c   7.61500836
_cell_angle_alpha   63.85632760
_cell_angle_beta   63.85632760
_cell_angle_gamma   69.53171179
_symmetry_Int_Tables_number   1
_chemical_formula_structural   Zr(MoO4)2
_chemical_formula_sum   'Zr2 Mo4 O16'
_cell_volume   301.93582069
_cell_formula_units_Z   2
loop_
 _symmetry_equiv_pos_site_id
 _symmetry_equiv_pos_as_xyz
  1  'x, y, z'
loop_
 _atom_site_type_symbol
 _atom_site_label
 _atom_site_symmetry_multiplicity
 _atom_site_fract_x
 _atom_site_fract_y
 _atom_site_fract_z
 _atom_site_occupancy
  Zr  Zr0  1  0.97899500  0.02100500  0.75000000  1
  Zr  Zr1  1  0.02100500  0.97899500  0.25000000  1
  Mo  Mo0  1  0.49474400  0.93652800  0.74070300  1
  Mo  Mo1  1  0.06347200  0.50525600  0.75929700  1
  Mo  Mo2  1  0.50525600  0.06347200  0.25929700  1
  Mo  Mo3  1  0.93652800  0.49474400  0.24070300  1
  O  O0  1  0.66689600  0.59079900  0.33214500  1
  O  O1  1  0.65211200  0.05052500  0.78881600  1
  O  O2  1  0.79267400  0.02194000  0.07804700  1
  O  O3  1  0.05052500  0.65211200  0.28881600  1
  O  O4  1  0.31679500  0.99060300  0.56238400  1
  O  O5  1  0.02194000  0.79267400  0.57804700  1
  O  O6  1  0.40920100  0.33310400  0.16785500  1
  O  O7  1  0.00939700  0.68320500  0.93761600  1
  O  O8  1  0.97806000  0.20732600  0.42195300  1
  O  O9  1  0.99060300  0.31679500  0.06238400  1
  O  O10  1  0.34788800  0.94947500  0.21118400  1
  O  O11  1  0.20732600  0.97806000  0.92195300  1
  O  O12  1  0.94947500  0.34788800  0.71118400  1
  O  O13  1  0.59079900  0.66689600  0.83214500  1
  O  O14  1  0.68320500  0.00939700  0.43761600  1
  O  O15  1  0.33310400  0.40920100  0.66785500  1
loop_
_geom_bond_atom_site_label_1
_geom_bond_atom_site_label_2
_geom_bond_distance
_geom_bond_site_symmetry_2
Mo0 O13 1.711910 1_555
Mo0 O1 1.810340 1_565
Mo0 O11 1.896707 1_555
Mo0 O14 2.022851 1_565
Mo0 O4 2.071389 1_555
Mo1 O15 1.711910 1_555
Mo1 O12 1.810340 1_455
Mo1 O5 1.896707 1_555
Mo1 O9 2.022851 1_456
Mo1 O7 2.071389 1_555
Mo2 O6 1.711910 1_555
Mo2 O10 1.810340 1_545
Mo2 O2 1.896707 1_555
Mo2 O4 2.022851 1_545
Mo2 O14 2.071389 1_555
Mo3 O0 1.711910 1_555
Mo3 O3 1.810340 1_655
Mo3 O8 1.896707 1_555
Mo3 O7 2.022851 1_654
Mo3 O9 2.071389 1_555
O1 Zr0 2.145305 1_555
O2 Zr0 2.255033 1_554
O2 Zr1 2.364822 1_645
O3 Zr1 2.145305 1_555
O4 Zr0 2.169967 1_465
O5 Zr1 2.255033 1_555
O5 Zr0 2.364822 1_465
O7 Zr0 2.169967 1_465
O8 Zr0 2.255033 1_555
O8 Zr1 2.364822 1_645
O9 Zr1 2.169967 1_645
O10 Zr1 2.145305 1_555
O11 Zr1 2.255033 1_556
O11 Zr0 2.364822 1_465
O12 Zr0 2.145305 1_555
O14 Zr1 2.169967 1_645
