# generated using pymatgen
data_La2AlNi9H
_symmetry_space_group_name_H-M   'P 1'
_cell_length_a   8.08988200
_cell_length_b   4.97689500
_cell_length_c   5.00964672
_cell_angle_alpha   60.60639800
_cell_angle_beta   90.00000000
_cell_angle_gamma   90.00000000
_symmetry_Int_Tables_number   1
_chemical_formula_structural   La2AlNi9H
_chemical_formula_sum   'La2 Al1 Ni9 H1'
_cell_volume   175.73563700
_cell_formula_units_Z   1
loop_
 _symmetry_equiv_pos_site_id
 _symmetry_equiv_pos_as_xyz
  1  'x, y, z'
loop_
 _atom_site_type_symbol
 _atom_site_label
 _atom_site_symmetry_multiplicity
 _atom_site_fract_x
 _atom_site_fract_y
 _atom_site_fract_z
 _atom_site_occupancy
  La  La0  1  0.26605600  0.99505600  0.00406100  1
  La  La1  1  0.73394400  0.99505600  0.00406100  1
  Al  Al0  1  0.00000000  0.49166000  0.50705500  1
  Ni  Ni0  1  0.25196700  0.33076300  0.33326900  1
  Ni  Ni1  1  0.74803300  0.33076300  0.33326900  1
  Ni  Ni2  1  0.50000000  0.49729200  0.50388100  1
  Ni  Ni3  1  0.25288900  0.65967200  0.68253800  1
  Ni  Ni4  1  0.00000000  0.49669000  0.00207200  1
  Ni  Ni5  1  0.50000000  0.99648100  0.50324300  1
  Ni  Ni6  1  0.50000000  0.49457600  0.00562300  1
  Ni  Ni7  1  0.74711100  0.65967200  0.68253800  1
  Ni  Ni8  1  0.00000000  0.99668600  0.49528900  1
  H  H0  1  0.00000000  0.92036700  0.21585900  1
loop_
_geom_bond_atom_site_label_1
_geom_bond_atom_site_label_2
_geom_bond_distance
_geom_bond_site_symmetry_2
La0 Ni3 2.833904 1_554
La0 Ni0 2.868661 1_565
La0 Ni0 2.882892 1_555
La0 Ni3 2.883912 1_564
La0 Ni0 2.930134 1_564
La0 Ni3 2.963296 1_555
La0 Ni6 3.125228 1_555
La0 Ni6 3.127539 1_565
La0 Ni5 3.138940 1_555
La0 Ni5 3.139925 1_554
La0 Ni2 3.146368 1_555
La0 Ni2 3.155995 1_564
La1 Ni7 2.833904 1_554
La1 Ni1 2.868661 1_565
La1 Ni1 2.882892 1_555
La1 Ni7 2.883912 1_564
La1 Ni1 2.930134 1_564
La1 Ni7 2.963296 1_555
La1 Ni6 3.125228 1_555
La1 Ni6 3.127539 1_565
La1 Ni5 3.138940 1_555
La1 Ni5 3.139925 1_554
La1 Ni2 3.146368 1_555
La1 Ni2 3.155995 1_564
Al0 H0 1.903984 1_555
Al0 Ni4 2.492242 1_556
Al0 Ni0 2.497704 1_555
Al0 Ni1 2.497704 1_455
Al0 Ni4 2.517594 1_555
Al0 Ni3 2.525682 1_555
Al0 Ni7 2.525682 1_455
Ni0 Ni6 2.464048 1_555
Ni0 Ni5 2.475601 1_545
Ni0 Ni2 2.477711 1_555
Ni0 Ni4 2.498974 1_555
Ni0 Ni8 2.500710 1_545
Ni0 Ni3 2.840527 1_554
Ni0 Ni3 2.912098 1_545
Ni0 Ni3 2.924495 1_555
Ni1 Ni6 2.464048 1_555
Ni1 Ni5 2.475601 1_545
Ni1 Ni2 2.477711 1_555
Ni1 Ni4 2.498974 1_655
Ni1 Ni8 2.500710 1_645
Ni1 Ni7 2.840527 1_554
Ni1 Ni7 2.912098 1_545
Ni1 Ni7 2.924495 1_555
Ni2 Ni7 2.482043 1_555
Ni2 Ni3 2.482043 1_555
Ni2 Ni5 2.482844 1_555
Ni2 Ni5 2.494054 1_545
Ni2 Ni6 2.502759 1_555
Ni2 Ni6 2.506943 1_556
Ni3 Ni6 2.446581 1_556
Ni3 Ni4 2.476140 1_556
Ni3 Ni5 2.476910 1_555
Ni3 Ni8 2.516792 1_555
Ni4 Ni7 2.476140 1_454
Ni5 Ni7 2.476910 1_555
Ni5 Ni6 2.508713 1_565
Ni5 Ni6 2.530336 1_556
Ni6 Ni7 2.446581 1_554
Ni7 Ni8 2.516792 1_655
H0 Ni8 1.620422 1_555
H0 La1 2.347227 1_455
H0 La0 2.347227 1_555
