# generated using pymatgen
data_CoH12(BrO3)2
_symmetry_space_group_name_H-M   'P 1'
_cell_length_a   6.60713618
_cell_length_b   23.45969787
_cell_length_c   6.60825846
_cell_angle_alpha   95.05408105
_cell_angle_beta   113.76350264
_cell_angle_gamma   94.58077153
_symmetry_Int_Tables_number   1
_chemical_formula_structural   CoH12(BrO3)2
_chemical_formula_sum   'Co4 H48 Br8 O24'
_cell_volume   926.29513552
_cell_formula_units_Z   4
loop_
 _symmetry_equiv_pos_site_id
 _symmetry_equiv_pos_as_xyz
  1  'x, y, z'
loop_
 _atom_site_type_symbol
 _atom_site_label
 _atom_site_symmetry_multiplicity
 _atom_site_fract_x
 _atom_site_fract_y
 _atom_site_fract_z
 _atom_site_occupancy
  Co  Co0  1  0.00005400  0.50016300  0.50010000  1
  Co  Co1  1  0.49994700  0.74982300  0.24988500  1
  Co  Co2  1  0.99993700  0.99982300  0.99989400  1
  Co  Co3  1  0.50006100  0.25018700  0.75011500  1
  H  H0  1  0.14121300  0.20526500  0.06399000  1
  H  H1  1  0.64108200  0.45533600  0.81423800  1
  H  H2  1  0.14095600  0.70523100  0.56420000  1
  H  H3  1  0.64110900  0.95514300  0.31404200  1
  H  H4  1  0.35874900  0.04474600  0.68599300  1
  H  H5  1  0.85891400  0.29485300  0.43599600  1
  H  H6  1  0.35904000  0.54476000  0.18573600  1
  H  H7  1  0.85892700  0.79466300  0.93581400  1
  H  H8  1  0.08398600  0.13761600  0.05354700  1
  H  H9  1  0.58378600  0.38769900  0.80386700  1
  H  H10  1  0.08386600  0.63759300  0.55378400  1
  H  H11  1  0.58401600  0.88747300  0.30348300  1
  H  H12  1  0.41604500  0.11240500  0.69642300  1
  H  H13  1  0.91595500  0.36251300  0.44650700  1
  H  H14  1  0.41614900  0.61240400  0.19622000  1
  H  H15  1  0.91619000  0.86229200  0.94617400  1
  H  H16  1  0.32971600  0.06702700  0.34904000  1
  H  H17  1  0.82960000  0.31729300  0.09888500  1
  H  H18  1  0.32899400  0.56703700  0.84826800  1
  H  H19  1  0.82903800  0.81680100  0.59843900  1
  H  H20  1  0.78149600  0.18293300  0.01230500  1
  H  H21  1  0.28152700  0.43318500  0.76215500  1
  H  H22  1  0.78125300  0.68294500  0.51204100  1
  H  H23  1  0.28125300  0.93264100  0.26207500  1
  H  H24  1  0.17045300  0.18297400  0.40108800  1
  H  H25  1  0.67100400  0.43319600  0.15166100  1
  H  H26  1  0.17095200  0.68295100  0.90162700  1
  H  H27  1  0.67023300  0.93271500  0.65099400  1
  H  H28  1  0.71847400  0.06710000  0.73773500  1
  H  H29  1  0.21880300  0.31733800  0.48791300  1
  H  H30  1  0.71877600  0.56705300  0.23808000  1
  H  H31  1  0.21843500  0.81680200  0.98771900  1
  H  H32  1  0.41683400  0.05485400  0.16113600  1
  H  H33  1  0.91697500  0.30505400  0.91112800  1
  H  H34  1  0.41696200  0.55475400  0.66102200  1
  H  H35  1  0.91694900  0.80455900  0.41111200  1
  H  H36  1  0.60635800  0.19523900  0.11229900  1
  H  H37  1  0.10642800  0.44545700  0.86226500  1
  H  H38  1  0.60625000  0.69525200  0.61229800  1
  H  H39  1  0.10607800  0.94501100  0.36193700  1
  H  H40  1  0.08308900  0.19516900  0.58885500  1
  H  H41  1  0.58306200  0.44544200  0.33892300  1
  H  H42  1  0.08302200  0.69523400  0.08894000  1
  H  H43  1  0.58311500  0.94493300  0.83889200  1
  H  H44  1  0.89368300  0.05477200  0.63793400  1
  H  H45  1  0.39388900  0.30498800  0.38784900  1
  H  H46  1  0.89382500  0.55474500  0.13790300  1
  H  H47  1  0.39348500  0.80453500  0.88752200  1
  Br  Br0  1  0.79510000  0.03910400  0.24431800  1
  Br  Br1  1  0.29502400  0.28938000  0.99365700  1
  Br  Br2  1  0.79473800  0.53939800  0.74483200  1
  Br  Br3  1  0.29466700  0.78931900  0.49390300  1
  Br  Br4  1  0.70492200  0.21079900  0.50634500  1
  Br  Br5  1  0.20533100  0.46075800  0.25526800  1
  Br  Br6  1  0.70535600  0.71055900  0.00600900  1
  Br  Br7  1  0.20486600  0.96073000  0.75558000  1
  O  O0  1  0.06227100  0.17538400  0.11304000  1
  O  O1  1  0.56205100  0.42547000  0.86327800  1
  O  O2  1  0.06208300  0.67534900  0.61331200  1
  O  O3  1  0.56206000  0.92522900  0.36285000  1
  O  O4  1  0.43784600  0.07462900  0.63709800  1
  O  O5  1  0.93782400  0.32476400  0.38702200  1
  O  O6  1  0.43803500  0.57465300  0.13676700  1
  O  O7  1  0.93783200  0.82452400  0.88664600  1
  O  O8  1  0.28068900  0.06098100  0.18346700  1
  O  O9  1  0.78081900  0.31129500  0.93333300  1
  O  O10  1  0.28062500  0.56107800  0.68277900  1
  O  O11  1  0.78059200  0.81077700  0.43293000  1
  O  O12  1  0.62198700  0.18899300  0.96978400  1
  O  O13  1  0.12200300  0.43922800  0.71971100  1
  O  O14  1  0.62168300  0.68890100  0.46968700  1
  O  O15  1  0.12165900  0.93859800  0.21942500  1
  O  O16  1  0.21931100  0.18903100  0.56665600  1
  O  O17  1  0.71946600  0.43924500  0.31717300  1
  O  O18  1  0.21931900  0.68890300  0.06711300  1
  O  O19  1  0.71917000  0.93867100  0.81655200  1
  O  O20  1  0.87800700  0.06106300  0.78041500  1
  O  O21  1  0.37834400  0.31133300  0.53039600  1
  O  O22  1  0.87836600  0.56110000  0.28051700  1
  O  O23  1  0.37796200  0.81077900  0.03008700  1
loop_
_geom_bond_atom_site_label_1
_geom_bond_atom_site_label_2
_geom_bond_distance
_geom_bond_site_symmetry_2
Co0 O22 2.098689 1_455
Co0 O10 2.098884 1_555
Co0 O13 2.099038 1_555
Co0 O17 2.099252 1_455
Co1 O18 2.099272 1_555
Co1 O14 2.099332 1_555
Co1 O11 2.100074 1_555
Co1 O23 2.100194 1_555
Co2 O19 2.103471 1_555
Co2 O8 2.103737 1_666
Co2 O15 2.103745 1_656
Co2 O20 2.104032 1_565
Co3 O9 2.102726 1_555
Co3 O21 2.103046 1_555
Co3 O16 2.103581 1_555
Co3 O12 2.103940 1_555
H0 O0 0.993174 1_555
H1 O1 0.993244 1_555
H2 O2 0.993162 1_555
H3 O3 0.993176 1_555
H4 O4 0.993207 1_555
H5 O5 0.993233 1_555
H6 O6 0.993258 1_555
H7 O7 0.993170 1_555
H8 O0 0.982130 1_555
H9 O1 0.982036 1_555
H10 O2 0.982141 1_555
H11 O3 0.982172 1_555
H12 O4 0.982090 1_555
H13 O5 0.982105 1_555
H14 O6 0.982109 1_555
H15 O7 0.982035 1_555
H16 O8 1.000943 1_555
H17 O9 1.000999 1_554
H18 O10 1.000943 1_555
H19 O11 1.001030 1_555
H20 O12 1.001087 1_554
H21 O13 1.001148 1_555
H22 O14 1.001007 1_555
H23 O15 1.000906 1_555
H24 O16 1.001061 1_555
H25 O17 1.001046 1_555
H26 O18 1.000923 1_556
H27 O19 1.000886 1_555
H28 O20 1.000965 1_555
H29 O21 1.000998 1_555
H30 O22 1.001042 1_555
H31 O23 1.001116 1_556
H32 O8 0.987666 1_555
H33 O9 0.987871 1_555
H34 O10 0.987969 1_555
H35 O11 0.987781 1_555
H36 O12 0.987702 1_554
H37 O13 0.987748 1_555
H38 O14 0.987860 1_555
H39 O15 0.987816 1_555
H40 O16 0.987780 1_555
H41 O17 0.987759 1_555
H42 O18 0.987975 1_555
H43 O19 0.987766 1_555
H44 O20 0.987714 1_555
H45 O21 0.987804 1_555
H46 O22 0.987972 1_555
H47 O23 0.987673 1_556
Br0 Co2 2.643576 1_544
Br1 Co3 2.639340 1_555
Br2 Co0 2.647304 1_655
Br3 Co1 2.645466 1_555
Br4 Co3 2.641148 1_555
Br5 Co0 2.648959 1_555
Br6 Co1 2.643568 1_555
Br7 Co2 2.642005 1_455
