# generated using pymatgen
data_Cs3BAs2
_symmetry_space_group_name_H-M   'P 1'
_cell_length_a   7.08300551
_cell_length_b   7.08300615
_cell_length_c   10.14612867
_cell_angle_alpha   75.64900470
_cell_angle_beta   75.64900785
_cell_angle_gamma   89.08005728
_symmetry_Int_Tables_number   1
_chemical_formula_structural   Cs3BAs2
_chemical_formula_sum   'Cs6 B2 As4'
_cell_volume   477.19026344
_cell_formula_units_Z   2
loop_
 _symmetry_equiv_pos_site_id
 _symmetry_equiv_pos_as_xyz
  1  'x, y, z'
loop_
 _atom_site_type_symbol
 _atom_site_label
 _atom_site_symmetry_multiplicity
 _atom_site_fract_x
 _atom_site_fract_y
 _atom_site_fract_z
 _atom_site_occupancy
  Cs  Cs0  1  0.25798573  0.15200359  0.01872376  1
  Cs  Cs1  1  0.34452784  0.65547216  0.75000000  1
  Cs  Cs2  1  0.74201427  0.84799641  0.98127624  1
  Cs  Cs3  1  0.65547216  0.34452784  0.25000000  1
  Cs  Cs4  1  0.15200359  0.25798573  0.51872376  1
  Cs  Cs5  1  0.84799641  0.74201427  0.48127624  1
  B  B0  1  0.71302237  0.28697763  0.75000000  1
  B  B1  1  0.28697763  0.71302237  0.25000000  1
  As  As0  1  0.40559312  0.83661286  0.35388940  1
  As  As1  1  0.83661286  0.40559312  0.85388940  1
  As  As2  1  0.16338714  0.59440688  0.14611060  1
  As  As3  1  0.59440688  0.16338714  0.64611060  1
loop_
_geom_bond_atom_site_label_1
_geom_bond_atom_site_label_2
_geom_bond_distance
_geom_bond_site_symmetry_2
B0 Cs4 3.437700 1_655
B0 Cs2 3.437701 1_545
B0 Cs0 3.631294 1_556
B0 Cs5 3.631294 1_555
B0 Cs1 3.661415 1_555
B1 Cs5 3.437700 1_455
B1 Cs0 3.437701 1_565
B1 Cs2 3.631294 1_554
B1 Cs4 3.631294 1_555
B1 Cs3 3.661415 1_555
As0 B1 1.871706 1_555
As0 Cs5 3.667363 1_555
As0 Cs1 3.819087 1_555
As0 Cs3 3.819147 1_565
As0 Cs4 3.967891 1_565
As1 B0 1.871706 1_555
As1 Cs2 3.667363 1_555
As1 Cs3 3.819087 1_556
As1 Cs1 3.819146 1_655
As1 Cs0 3.967890 1_656
As2 B1 1.871706 1_555
As2 Cs0 3.667363 1_555
As2 Cs1 3.819087 1_554
As2 Cs3 3.819146 1_455
As2 Cs2 3.967890 1_454
As3 B0 1.871706 1_555
As3 Cs4 3.667363 1_555
As3 Cs3 3.819087 1_555
As3 Cs1 3.819147 1_545
As3 Cs5 3.967891 1_545
