# generated using pymatgen
data_Na2In2Sb3
_symmetry_space_group_name_H-M   'P 1'
_cell_length_a   7.68755700
_cell_length_b   14.83001200
_cell_length_c   15.84302412
_cell_angle_alpha   89.99286109
_cell_angle_beta   90.00000000
_cell_angle_gamma   90.00000000
_symmetry_Int_Tables_number   1
_chemical_formula_structural   Na2In2Sb3
_chemical_formula_sum   'Na16 In16 Sb24'
_cell_volume   1806.20870681
_cell_formula_units_Z   8
loop_
 _symmetry_equiv_pos_site_id
 _symmetry_equiv_pos_as_xyz
  1  'x, y, z'
loop_
 _atom_site_type_symbol
 _atom_site_label
 _atom_site_symmetry_multiplicity
 _atom_site_fract_x
 _atom_site_fract_y
 _atom_site_fract_z
 _atom_site_occupancy
  Na  Na0  1  0.95318300  0.14147800  0.98744800  1
  Na  Na1  1  0.45318300  0.85852200  0.51255200  1
  Na  Na2  1  0.04681700  0.85852200  0.01255200  1
  Na  Na3  1  0.54681700  0.14147800  0.48744800  1
  Na  Na4  1  0.57511100  0.65904700  0.02497400  1
  Na  Na5  1  0.07511100  0.34095300  0.47502600  1
  Na  Na6  1  0.42488900  0.34095300  0.97502600  1
  Na  Na7  1  0.92488900  0.65904700  0.52497400  1
  Na  Na8  1  0.54759600  0.91861100  0.11585700  1
  Na  Na9  1  0.04759600  0.08138900  0.38414300  1
  Na  Na10  1  0.45240400  0.08138900  0.88414300  1
  Na  Na11  1  0.95240400  0.91861100  0.61585700  1
  Na  Na12  1  0.90945700  0.43866600  0.91159600  1
  Na  Na13  1  0.40945700  0.56133400  0.58840400  1
  Na  Na14  1  0.09054300  0.56133400  0.08840400  1
  Na  Na15  1  0.59054300  0.43866600  0.41159600  1
  In  In0  1  0.28566400  0.68038300  0.84925400  1
  In  In1  1  0.78566400  0.31961700  0.65074600  1
  In  In2  1  0.71433600  0.31961700  0.15074600  1
  In  In3  1  0.21433600  0.68038300  0.34925400  1
  In  In4  1  0.78402800  0.09220600  0.72698200  1
  In  In5  1  0.28402800  0.90779400  0.77301800  1
  In  In6  1  0.21597200  0.90779400  0.27301800  1
  In  In7  1  0.71597200  0.09220600  0.22698200  1
  In  In8  1  0.75918300  0.81522500  0.83764700  1
  In  In9  1  0.25918300  0.18477500  0.66235300  1
  In  In10  1  0.24081700  0.18477500  0.16235300  1
  In  In11  1  0.74081700  0.81522500  0.33764700  1
  In  In12  1  0.76884000  0.58645700  0.75859800  1
  In  In13  1  0.26884000  0.41354300  0.74140200  1
  In  In14  1  0.23116000  0.41354300  0.24140200  1
  In  In15  1  0.73116000  0.58645700  0.25859800  1
  Sb  Sb0  1  0.96739700  0.97718700  0.84198700  1
  Sb  Sb1  1  0.46739700  0.02281300  0.65801300  1
  Sb  Sb2  1  0.03260300  0.02281300  0.15801300  1
  Sb  Sb3  1  0.53260300  0.97718700  0.34198700  1
  Sb  Sb4  1  0.44355700  0.84510100  0.92945400  1
  Sb  Sb5  1  0.94355700  0.15489900  0.57054600  1
  Sb  Sb6  1  0.55644300  0.15489900  0.07054600  1
  Sb  Sb7  1  0.05644300  0.84510100  0.42945400  1
  Sb  Sb8  1  0.94063100  0.65673500  0.91219100  1
  Sb  Sb9  1  0.44063100  0.34326500  0.58780900  1
  Sb  Sb10  1  0.05936900  0.34326500  0.08780900  1
  Sb  Sb11  1  0.55936900  0.65673500  0.41219100  1
  Sb  Sb12  1  0.83847300  0.75179700  0.16923600  1
  Sb  Sb13  1  0.33847300  0.24820300  0.33076400  1
  Sb  Sb14  1  0.16152700  0.24820300  0.83076400  1
  Sb  Sb15  1  0.66152700  0.75179700  0.66923600  1
  Sb  Sb16  1  0.48524900  0.51438200  0.85575000  1
  Sb  Sb17  1  0.98524900  0.48561800  0.64425000  1
  Sb  Sb18  1  0.51475100  0.48561800  0.14425000  1
  Sb  Sb19  1  0.01475100  0.51438200  0.35575000  1
  Sb  Sb20  1  0.21633100  0.74179400  0.17567300  1
  Sb  Sb21  1  0.71633100  0.25820600  0.32432700  1
  Sb  Sb22  1  0.78366900  0.25820600  0.82432700  1
  Sb  Sb23  1  0.28366900  0.74179400  0.67567300  1
loop_
_geom_bond_atom_site_label_1
_geom_bond_atom_site_label_2
_geom_bond_distance
_geom_bond_site_symmetry_2
Na0 Sb2 3.281879 1_656
Na0 Sb6 3.327939 1_556
Na0 Sb14 3.351331 1_655
Na0 Sb0 3.355664 1_545
Na0 Sb22 3.372310 1_555
Na0 Sb10 3.485799 1_656
Na1 Sb3 3.281879 1_555
Na1 Sb7 3.327939 1_555
Na1 Sb15 3.351331 1_555
Na1 Sb1 3.355664 1_565
Na1 Sb23 3.372310 1_555
Na1 Sb11 3.485799 1_555
Na2 Sb0 3.281879 1_454
Na2 Sb4 3.327939 1_554
Na2 Sb12 3.351331 1_455
Na2 Sb2 3.355664 1_565
Na2 Sb20 3.372310 1_555
Na2 Sb8 3.485799 1_454
Na3 Sb1 3.281879 1_555
Na3 Sb5 3.327939 1_555
Na3 Sb13 3.351331 1_555
Na3 Sb3 3.355664 1_545
Na3 Sb21 3.372310 1_555
Na3 Sb9 3.485799 1_555
Na4 Sb18 3.224902 1_555
Na4 Sb4 3.305297 1_554
Na4 Sb8 3.330132 1_554
Na4 Sb12 3.348956 1_555
Na4 Sb16 3.502742 1_554
Na5 Sb19 3.224902 1_555
Na5 Sb5 3.305297 1_455
Na5 Sb9 3.330132 1_555
Na5 Sb13 3.348956 1_555
Na5 Sb17 3.502742 1_455
Na6 Sb16 3.224902 1_555
Na6 Sb6 3.305297 1_556
Na6 Sb10 3.330132 1_556
Na6 Sb14 3.348956 1_555
Na6 Sb18 3.502742 1_556
Na7 Sb17 3.224902 1_555
Na7 Sb7 3.305297 1_655
Na7 Sb11 3.330132 1_555
Na7 Sb15 3.348956 1_555
Na7 Sb19 3.502742 1_655
Na8 Sb4 3.248114 1_554
Na8 Sb12 3.440190 1_555
Na8 Sb6 3.577488 1_565
Na8 Sb3 3.688302 1_555
Na8 Sb20 3.776062 1_555
Na9 Sb5 3.248114 1_455
Na9 Sb13 3.440190 1_555
Na9 Sb7 3.577488 1_545
Na9 Sb2 3.688302 1_555
Na9 Sb21 3.776062 1_455
Na10 Sb6 3.248114 1_556
Na10 Sb14 3.440190 1_555
Na10 Sb4 3.577488 1_545
Na10 Sb1 3.688302 1_555
Na10 Sb22 3.776062 1_555
Na11 Sb7 3.248114 1_655
Na11 Sb15 3.440190 1_555
Na11 Sb5 3.577488 1_565
Na11 Sb0 3.688302 1_555
Na11 Sb23 3.776062 1_655
Na12 Sb22 3.163825 1_555
Na12 Sb8 3.242848 1_555
Na12 Sb10 3.335068 1_656
Na12 Sb16 3.560664 1_555
Na12 Sb14 3.657070 1_655
Na13 Sb23 3.163825 1_555
Na13 Sb9 3.242848 1_555
Na13 Sb11 3.335068 1_555
Na13 Sb17 3.560664 1_455
Na13 Sb15 3.657070 1_555
Na14 Sb20 3.163825 1_555
Na14 Sb10 3.242848 1_555
Na14 Sb8 3.335068 1_454
Na14 Sb18 3.560664 1_555
Na14 Sb12 3.657070 1_455
Na15 Sb21 3.163825 1_555
Na15 Sb11 3.242848 1_555
Na15 Sb9 3.335068 1_555
Na15 Sb19 3.560664 1_655
Na15 Sb13 3.657070 1_555
In0 Sb8 2.855291 1_455
In0 Sb23 2.896860 1_555
In0 Sb16 2.902605 1_555
In0 Sb4 3.009267 1_555
In0 Na4 3.577911 1_556
In1 Sb9 2.855291 1_555
In1 Sb22 2.896860 1_555
In1 Sb17 2.902605 1_555
In1 Sb5 3.009267 1_555
In1 Na5 3.577911 1_655
In2 Sb10 2.855291 1_655
In2 Sb21 2.896860 1_555
In2 Sb18 2.902605 1_555
In2 Sb6 3.009267 1_555
In2 Na6 3.577911 1_554
In3 Sb11 2.855291 1_555
In3 Sb20 2.896860 1_555
In3 Sb19 2.902605 1_555
In3 Sb7 3.009267 1_555
In3 Na7 3.577911 1_455
In4 Sb1 2.859756 1_555
In4 Sb0 2.866300 1_545
In4 Sb22 2.905138 1_555
In4 Sb5 2.917264 1_555
In4 Na11 3.376948 1_545
In4 Na10 3.567155 1_555
In5 Sb0 2.859756 1_455
In5 Sb1 2.866300 1_565
In5 Sb23 2.905138 1_555
In5 Sb4 2.917264 1_555
In5 Na10 3.376948 1_565
In5 Na11 3.567155 1_455
In6 Sb3 2.859756 1_555
In6 Sb2 2.866300 1_565
In6 Sb20 2.905138 1_555
In6 Sb7 2.917264 1_555
In6 Na9 3.376948 1_565
In6 Na8 3.567155 1_555
In7 Sb2 2.859756 1_655
In7 Sb3 2.866300 1_545
In7 Sb21 2.905138 1_555
In7 Sb6 2.917264 1_555
In7 Na8 3.376948 1_545
In7 Na9 3.567155 1_655
In8 Sb4 2.863463 1_555
In8 Sb0 2.887211 1_555
In8 Sb15 2.927114 1_555
In8 Sb8 2.977284 1_555
In8 Na2 3.602877 1_656
In9 Sb5 2.863463 1_455
In9 Sb1 2.887211 1_555
In9 Sb14 2.927114 1_555
In9 Sb9 2.977284 1_555
In9 Na3 3.602877 1_555
In10 Sb6 2.863463 1_555
In10 Sb2 2.887211 1_555
In10 Sb13 2.927114 1_555
In10 Sb10 2.977284 1_555
In10 Na0 3.602877 1_454
In11 Sb7 2.863463 1_655
In11 Sb3 2.887211 1_555
In11 Sb12 2.927114 1_555
In11 Sb11 2.977284 1_555
In11 Na1 3.602877 1_555
In12 Sb16 2.874733 1_555
In12 Sb17 2.878670 1_555
In12 Sb15 2.948963 1_555
In12 Sb8 2.958431 1_555
In12 Na12 3.441876 1_555
In13 Sb17 2.874733 1_455
In13 Sb16 2.878670 1_555
In13 Sb14 2.948963 1_555
In13 Sb9 2.958431 1_555
In13 Na13 3.441876 1_555
In14 Sb18 2.874733 1_555
In14 Sb19 2.878670 1_555
In14 Sb13 2.948963 1_555
In14 Sb10 2.958431 1_555
In14 Na14 3.441876 1_555
In15 Sb19 2.874733 1_655
In15 Sb18 2.878670 1_555
In15 Sb12 2.948963 1_555
In15 Sb11 2.958431 1_555
In15 Na15 3.441876 1_555
Sb12 Sb20 2.910377 1_655
Sb13 Sb21 2.910377 1_555
Sb14 Sb22 2.910377 1_455
Sb15 Sb23 2.910377 1_555
