# generated using pymatgen
data_BaUO4
_symmetry_space_group_name_H-M   'P 1'
_cell_length_a   5.83258474
_cell_length_b   8.15165958
_cell_length_c   8.24151778
_cell_angle_alpha   90.00000000
_cell_angle_beta   90.00000000
_cell_angle_gamma   90.00000000
_symmetry_Int_Tables_number   1
_chemical_formula_structural   BaUO4
_chemical_formula_sum   'Ba4 U4 O16'
_cell_volume   391.84498426
_cell_formula_units_Z   4
loop_
 _symmetry_equiv_pos_site_id
 _symmetry_equiv_pos_as_xyz
  1  'x, y, z'
loop_
 _atom_site_type_symbol
 _atom_site_label
 _atom_site_symmetry_multiplicity
 _atom_site_fract_x
 _atom_site_fract_y
 _atom_site_fract_z
 _atom_site_occupancy
  Ba  Ba0  1  0.48097731  0.19470727  0.25000000  1
  Ba  Ba1  1  0.48097731  0.30529273  0.75000000  1
  Ba  Ba2  1  0.51902269  0.69470727  0.25000000  1
  Ba  Ba3  1  0.51902269  0.80529273  0.75000000  1
  U  U0  1  -0.00000000  -0.00000000  0.00000000  1
  U  U1  1  -0.00000000  0.50000000  0.00000000  1
  U  U2  1  -0.00000000  0.50000000  0.50000000  1
  U  U3  1  -0.00000000  -0.00000000  0.50000000  1
  O  O0  1  0.11625167  0.97352923  0.75000000  1
  O  O1  1  0.11625167  0.52647077  0.25000000  1
  O  O2  1  0.88374833  0.47352923  0.75000000  1
  O  O3  1  0.88374833  0.02647077  0.25000000  1
  O  O4  1  0.14592705  0.25000000  0.50000000  1
  O  O5  1  0.85407295  0.75000000  0.00000000  1
  O  O6  1  0.85407295  0.75000000  0.50000000  1
  O  O7  1  0.14592705  0.25000000  0.00000000  1
  O  O8  1  0.29506158  0.92478872  0.06849397  1
  O  O9  1  0.29506158  0.57521128  0.93150603  1
  O  O10  1  0.70493842  0.42478872  0.43150603  1
  O  O11  1  0.70493842  0.07521128  0.56849397  1
  O  O12  1  0.70493842  0.07521128  0.93150603  1
  O  O13  1  0.70493842  0.42478872  0.06849397  1
  O  O14  1  0.29506158  0.57521128  0.56849397  1
  O  O15  1  0.29506158  0.92478872  0.43150603  1
loop_
_geom_bond_atom_site_label_1
_geom_bond_atom_site_label_2
_geom_bond_distance
_geom_bond_site_symmetry_2
Ba0 O3 2.720198 1_555
Ba0 O10 2.731610 1_555
Ba0 O13 2.731610 1_555
Ba0 O8 2.873113 1_545
Ba0 O15 2.873113 1_545
Ba0 O4 2.875283 1_555
Ba0 O7 2.875283 1_555
Ba0 O11 3.089524 1_555
Ba0 O12 3.089524 1_554
Ba0 O1 3.440826 1_555
Ba1 O2 2.720198 1_555
Ba1 O11 2.731610 1_555
Ba1 O12 2.731610 1_555
Ba1 O9 2.873113 1_555
Ba1 O14 2.873113 1_555
Ba1 O4 2.875283 1_555
Ba1 O7 2.875283 1_556
Ba1 O13 3.089524 1_556
Ba1 O10 3.089524 1_555
Ba1 O0 3.440826 1_545
Ba2 O1 2.720198 1_555
Ba2 O8 2.731610 1_555
Ba2 O15 2.731610 1_555
Ba2 O10 2.873113 1_555
Ba2 O13 2.873113 1_555
Ba2 O5 2.875283 1_555
Ba2 O6 2.875283 1_555
Ba2 O14 3.089524 1_555
Ba2 O9 3.089524 1_554
Ba2 O3 3.440826 1_565
Ba3 O0 2.720198 1_555
Ba3 O9 2.731610 1_555
Ba3 O14 2.731610 1_555
Ba3 O12 2.873113 1_565
Ba3 O11 2.873113 1_565
Ba3 O5 2.875283 1_556
Ba3 O6 2.875283 1_555
Ba3 O15 3.089524 1_555
Ba3 O8 3.089524 1_556
Ba3 O2 3.440826 1_555
O0 U0 2.179787 1_566
O0 U3 2.179787 1_565
O1 U2 2.179787 1_555
O1 U1 2.179787 1_555
O2 U2 2.179787 1_655
O2 U1 2.179787 1_656
O3 U0 2.179787 1_655
O3 U3 2.179787 1_655
O4 U3 2.208511 1_555
O4 U2 2.208511 1_555
O5 U0 2.208511 1_665
O5 U1 2.208511 1_655
O6 U2 2.208511 1_655
O6 U3 2.208511 1_665
O7 U0 2.208511 1_555
O7 U1 2.208511 1_555
O8 U0 1.912141 1_565
O9 U1 1.912141 1_556
O10 U2 1.912141 1_655
O11 U3 1.912141 1_655
O12 U0 1.912141 1_656
O13 U1 1.912141 1_655
O14 U2 1.912141 1_555
O15 U3 1.912141 1_565
