# generated using pymatgen
data_K3ScSi2O7
_symmetry_space_group_name_H-M   'P 1'
_cell_length_a   5.68077795
_cell_length_b   5.68077795
_cell_length_c   13.84420600
_cell_angle_alpha   90.00000000
_cell_angle_beta   90.00000000
_cell_angle_gamma   119.99999938
_symmetry_Int_Tables_number   1
_chemical_formula_structural   K3ScSi2O7
_chemical_formula_sum   'K6 Sc2 Si4 O14'
_cell_volume   386.91388444
_cell_formula_units_Z   2
loop_
 _symmetry_equiv_pos_site_id
 _symmetry_equiv_pos_as_xyz
  1  'x, y, z'
loop_
 _atom_site_type_symbol
 _atom_site_label
 _atom_site_symmetry_multiplicity
 _atom_site_fract_x
 _atom_site_fract_y
 _atom_site_fract_z
 _atom_site_occupancy
  K  K0  1  0.33333300  0.66666700  0.40716500  1
  K  K1  1  0.00000000  0.00000000  0.25000000  1
  K  K2  1  0.66666700  0.33333300  0.59283500  1
  K  K3  1  0.33333300  0.66666700  0.09283500  1
  K  K4  1  0.66666700  0.33333300  0.90716500  1
  K  K5  1  0.00000000  0.00000000  0.75000000  1
  Sc  Sc0  1  0.00000000  0.00000000  0.50000000  1
  Sc  Sc1  1  0.00000000  0.00000000  0.00000000  1
  Si  Si0  1  0.33333300  0.66666700  0.62904800  1
  Si  Si1  1  0.66666700  0.33333300  0.37095200  1
  Si  Si2  1  0.66666700  0.33333300  0.12904800  1
  Si  Si3  1  0.33333300  0.66666700  0.87095200  1
  O  O0  1  0.35016800  0.17508400  0.40764400  1
  O  O1  1  0.82491600  0.17508400  0.09235600  1
  O  O2  1  0.17508400  0.35016800  0.59235600  1
  O  O3  1  0.17508400  0.82491600  0.90764400  1
  O  O4  1  0.64983200  0.82491600  0.90764400  1
  O  O5  1  0.64983200  0.82491600  0.59235600  1
  O  O6  1  0.35016800  0.17508400  0.09235600  1
  O  O7  1  0.17508400  0.82491600  0.59235600  1
  O  O8  1  0.82491600  0.17508400  0.40764400  1
  O  O9  1  0.17508400  0.35016800  0.90764400  1
  O  O10  1  0.82491600  0.64983200  0.09235600  1
  O  O11  1  0.82491600  0.64983200  0.40764400  1
  O  O12  1  0.66666700  0.33333300  0.25000000  1
  O  O13  1  0.33333300  0.66666700  0.75000000  1
loop_
_geom_bond_atom_site_label_1
_geom_bond_atom_site_label_2
_geom_bond_distance
_geom_bond_site_symmetry_2
K0 O0 2.841601 1_565
K0 O11 2.841601 1_455
K0 O8 2.841604 1_455
K0 O8 2.841604 1_565
K0 O11 2.841607 1_555
K0 O0 2.841607 1_555
K0 O7 2.999611 1_555
K0 O5 2.999614 1_555
K0 O2 2.999614 1_555
K1 O1 2.780446 1_455
K1 O8 2.780446 1_455
K1 O11 2.780446 1_445
K1 O0 2.780446 1_555
K1 O6 2.780446 1_555
K1 O10 2.780446 1_445
K2 O5 2.841601 1_545
K2 O2 2.841601 1_655
K2 O7 2.841604 1_655
K2 O7 2.841604 1_545
K2 O5 2.841607 1_555
K2 O2 2.841607 1_555
K2 O8 2.999611 1_555
K2 O11 2.999614 1_555
K2 O0 2.999614 1_555
K3 O10 2.841601 1_455
K3 O6 2.841601 1_565
K3 O1 2.841604 1_455
K3 O1 2.841604 1_565
K3 O10 2.841607 1_555
K3 O6 2.841607 1_555
K3 O3 2.999611 1_554
K3 O4 2.999614 1_554
K3 O9 2.999614 1_554
K4 O4 2.841601 1_545
K4 O9 2.841601 1_655
K4 O3 2.841604 1_655
K4 O3 2.841604 1_545
K4 O4 2.841607 1_555
K4 O9 2.841607 1_555
K4 O1 2.999611 1_556
K4 O10 2.999614 1_556
K4 O6 2.999614 1_556
K5 O7 2.780446 1_545
K5 O3 2.780446 1_545
K5 O5 2.780446 1_445
K5 O9 2.780446 1_555
K5 O4 2.780446 1_445
K5 O2 2.780446 1_555
O0 Si1 1.637844 1_555
O0 Sc0 2.145361 1_555
O1 Si2 1.637839 1_555
O1 Sc1 2.145361 1_655
O2 Si0 1.637844 1_555
O2 Sc0 2.145361 1_555
O3 Si3 1.637839 1_555
O3 Sc1 2.145361 1_566
O4 Si3 1.637844 1_555
O4 Sc1 2.145361 1_666
O5 Si0 1.637844 1_555
O5 Sc0 2.145361 1_665
O6 Si2 1.637844 1_555
O6 Sc1 2.145361 1_555
O7 Si0 1.637839 1_555
O7 Sc0 2.145361 1_565
O8 Si1 1.637839 1_555
O8 Sc0 2.145361 1_655
O9 Si3 1.637844 1_555
O9 Sc1 2.145361 1_556
O10 Si2 1.637844 1_555
O10 Sc1 2.145361 1_665
O11 Si1 1.637844 1_555
O11 Sc0 2.145361 1_665
O12 Si1 1.674484 1_555
O12 Si2 1.674484 1_555
O13 Si3 1.674484 1_555
O13 Si0 1.674484 1_555
