# generated using pymatgen
data_H6C3SN3O2F3
_symmetry_space_group_name_H-M   'P 1'
_cell_length_a   8.02926900
_cell_length_b   8.99585800
_cell_length_c   12.23740200
_cell_angle_alpha   90.00000000
_cell_angle_beta   90.00000000
_cell_angle_gamma   90.00000000
_symmetry_Int_Tables_number   1
_chemical_formula_structural   H6C3SN3O2F3
_chemical_formula_sum   'H24 C12 S4 N12 O8 F12'
_cell_volume   883.90955055
_cell_formula_units_Z   4
loop_
 _symmetry_equiv_pos_site_id
 _symmetry_equiv_pos_as_xyz
  1  'x, y, z'
loop_
 _atom_site_type_symbol
 _atom_site_label
 _atom_site_symmetry_multiplicity
 _atom_site_fract_x
 _atom_site_fract_y
 _atom_site_fract_z
 _atom_site_occupancy
  H  H0  1  0.73426600  0.88309000  0.76407900  1
  H  H1  1  0.48279200  0.09523000  0.26450700  1
  H  H2  1  0.23426600  0.11691000  0.73592100  1
  H  H3  1  0.01720800  0.09523000  0.76450700  1
  H  H4  1  0.76573400  0.61691000  0.26407900  1
  H  H5  1  0.26573400  0.38309000  0.23592100  1
  H  H6  1  0.16932100  0.01635600  0.85440500  1
  H  H7  1  0.51720800  0.90477000  0.73549300  1
  H  H8  1  0.16932100  0.48364400  0.85440500  1
  H  H9  1  0.83067900  0.51635600  0.14559500  1
  H  H10  1  0.33067900  0.48364400  0.35440500  1
  H  H11  1  0.83067900  0.98364400  0.14559500  1
  H  H12  1  0.98279200  0.59523000  0.23549300  1
  H  H13  1  0.66932100  0.98364400  0.64559500  1
  H  H14  1  0.33067900  0.01635600  0.35440500  1
  H  H15  1  0.51720800  0.59523000  0.73549300  1
  H  H16  1  0.23426600  0.38309000  0.73592100  1
  H  H17  1  0.76573400  0.88309000  0.26407900  1
  H  H18  1  0.26573400  0.11691000  0.23592100  1
  H  H19  1  0.98279200  0.90477000  0.23549300  1
  H  H20  1  0.73426600  0.61691000  0.76407900  1
  H  H21  1  0.66932100  0.51635600  0.64559500  1
  H  H22  1  0.01720800  0.40477000  0.76450700  1
  H  H23  1  0.48279200  0.40477000  0.26450700  1
  C  C0  1  0.64091000  0.88921000  0.69874700  1
  C  C1  1  0.64091000  0.61079000  0.69874700  1
  C  C2  1  0.62000100  0.25000000  0.94529100  1
  C  C3  1  0.35909000  0.11079000  0.30125300  1
  C  C4  1  0.35909000  0.38921000  0.30125300  1
  C  C5  1  0.85909000  0.61079000  0.19874700  1
  C  C6  1  0.85909000  0.88921000  0.19874700  1
  C  C7  1  0.14091000  0.38921000  0.80125300  1
  C  C8  1  0.37999900  0.75000000  0.05470900  1
  C  C9  1  0.87999900  0.25000000  0.44529100  1
  C  C10  1  0.14091000  0.11079000  0.80125300  1
  C  C11  1  0.12000100  0.75000000  0.55470900  1
  S  S0  1  0.60469900  0.75000000  0.50733800  1
  S  S1  1  0.39530100  0.25000000  0.49266200  1
  S  S2  1  0.89530100  0.75000000  0.00733800  1
  S  S3  1  0.10469900  0.25000000  0.99266200  1
  N  N0  1  0.61790700  0.25000000  0.51503300  1
  N  N1  1  0.30295800  0.75000000  0.57154200  1
  N  N2  1  0.69704200  0.25000000  0.42845800  1
  N  N3  1  0.38209300  0.75000000  0.48496700  1
  N  N4  1  0.19704200  0.75000000  0.07154200  1
  N  N5  1  0.85044500  0.75000000  0.13600000  1
  N  N6  1  0.64955500  0.75000000  0.63600000  1
  N  N7  1  0.80295800  0.25000000  0.92845800  1
  N  N8  1  0.35044500  0.25000000  0.36400000  1
  N  N9  1  0.14955500  0.25000000  0.86400000  1
  N  N10  1  0.11790700  0.75000000  0.98496700  1
  N  N11  1  0.88209300  0.25000000  0.01503300  1
  O  O0  1  0.65226100  0.61047200  0.45883400  1
  O  O1  1  0.34773900  0.11047200  0.54116600  1
  O  O2  1  0.34773900  0.38952800  0.54116600  1
  O  O3  1  0.15226100  0.11047200  0.04116600  1
  O  O4  1  0.84773900  0.61047200  0.95883400  1
  O  O5  1  0.65226100  0.88952800  0.45883400  1
  O  O6  1  0.84773900  0.88952800  0.95883400  1
  O  O7  1  0.15226100  0.38952800  0.04116600  1
  F  F0  1  0.05865900  0.87228900  0.60472300  1
  F  F1  1  0.55865900  0.12771100  0.89527700  1
  F  F2  1  0.44134100  0.62771100  0.10472300  1
  F  F3  1  0.05865900  0.62771100  0.60472300  1
  F  F4  1  0.93085500  0.25000000  0.55036500  1
  F  F5  1  0.94134100  0.12771100  0.39527700  1
  F  F6  1  0.94134100  0.37228900  0.39527700  1
  F  F7  1  0.56914500  0.25000000  0.05036500  1
  F  F8  1  0.44134100  0.87228900  0.10472300  1
  F  F9  1  0.06914500  0.75000000  0.44963500  1
  F  F10  1  0.43085500  0.75000000  0.94963500  1
  F  F11  1  0.55865900  0.37228900  0.89527700  1
loop_
_geom_bond_atom_site_label_1
_geom_bond_atom_site_label_2
_geom_bond_distance
_geom_bond_site_symmetry_2
C0 H13 1.093979 1_555
C0 H0 1.097311 1_555
C0 H7 1.099236 1_555
C0 N6 1.470618 1_555
C1 H21 1.093979 1_555
C1 H20 1.097311 1_555
C1 H15 1.099236 1_555
C1 N6 1.470618 1_555
C2 F7 1.349113 1_556
C2 F11 1.351810 1_555
C2 F1 1.351810 1_555
C2 N7 1.483383 1_555
C3 H14 1.093979 1_555
C3 H18 1.097311 1_555
C3 H1 1.099236 1_555
C3 N8 1.470618 1_555
C4 H10 1.093979 1_555
C4 H5 1.097311 1_555
C4 H23 1.099236 1_555
C4 N8 1.470618 1_555
C5 H9 1.093979 1_555
C5 H4 1.097311 1_555
C5 H12 1.099236 1_555
C5 N5 1.470618 1_555
C6 H11 1.093979 1_555
C6 H17 1.097311 1_555
C6 H19 1.099236 1_555
C6 N5 1.470618 1_555
C7 H8 1.093979 1_555
C7 H16 1.097311 1_555
C7 H22 1.099236 1_555
C7 N9 1.470618 1_555
C8 F10 1.349113 1_554
C8 F8 1.351810 1_555
C8 F2 1.351810 1_555
C8 N4 1.483383 1_555
C9 F4 1.349113 1_555
C9 F6 1.351810 1_555
C9 F5 1.351810 1_555
C9 N2 1.483383 1_555
C10 H6 1.093979 1_555
C10 H2 1.097311 1_555
C10 H3 1.099236 1_555
C10 N9 1.470618 1_555
C11 F9 1.349113 1_555
C11 F0 1.351810 1_555
C11 F3 1.351810 1_555
C11 N1 1.483383 1_555
N0 N2 1.235382 1_555
N0 S1 1.808207 1_555
N1 N3 1.235382 1_555
N3 S0 1.808207 1_555
N5 S2 1.615156 1_555
N6 S0 1.615156 1_555
N8 S1 1.615156 1_555
N9 S3 1.615156 1_555
N10 N4 1.235382 1_556
N10 S2 1.808207 1_456
N11 N7 1.235382 1_554
N11 S3 1.808207 1_654
O0 S0 1.440006 1_555
O1 S1 1.440006 1_555
O2 S1 1.440006 1_555
O3 S3 1.440006 1_554
O4 S2 1.440006 1_556
O5 S0 1.440006 1_555
O6 S2 1.440006 1_556
O7 S3 1.440006 1_554
