# generated using pymatgen
data_Lu(CoGe)2
_symmetry_space_group_name_H-M   'P 1'
_cell_length_a   3.88137815
_cell_length_b   3.88137747
_cell_length_c   5.68102702
_cell_angle_alpha   109.97493289
_cell_angle_beta   109.97492101
_cell_angle_gamma   90.00001332
_symmetry_Int_Tables_number   1
_chemical_formula_structural   Lu(CoGe)2
_chemical_formula_sum   'Lu1 Co2 Ge2'
_cell_volume   74.93504809
_cell_formula_units_Z   1
loop_
 _symmetry_equiv_pos_site_id
 _symmetry_equiv_pos_as_xyz
  1  'x, y, z'
loop_
 _atom_site_type_symbol
 _atom_site_label
 _atom_site_symmetry_multiplicity
 _atom_site_fract_x
 _atom_site_fract_y
 _atom_site_fract_z
 _atom_site_occupancy
  Lu  Lu0  1  0.00000000  0.00000000  -0.00000000  1
  Co  Co0  1  0.25000000  0.75000000  0.50000000  1
  Co  Co1  1  0.75000000  0.25000000  0.50000000  1
  Ge  Ge0  1  0.37393650  0.37393650  0.74787401  1
  Ge  Ge1  1  0.62606350  0.62606350  0.25212599  1
loop_
_geom_bond_atom_site_label_1
_geom_bond_atom_site_label_2
_geom_bond_distance
_geom_bond_site_symmetry_2
Co0 Ge0 2.299222 1_565
Co0 Ge1 2.299222 1_455
Co0 Ge1 2.299226 1_555
Co0 Ge0 2.299226 1_555
Co0 Lu0 3.154623 1_555
Co0 Lu0 3.154624 1_666
Co0 Lu0 3.154624 1_566
Co0 Lu0 3.154624 1_565
Co1 Ge1 2.299222 1_545
Co1 Ge0 2.299222 1_655
Co1 Ge0 2.299226 1_555
Co1 Ge1 2.299226 1_555
Co1 Lu0 3.154623 1_666
Co1 Lu0 3.154624 1_555
Co1 Lu0 3.154624 1_655
Co1 Lu0 3.154624 1_656
Ge0 Ge1 2.508192 1_556
Ge0 Lu0 3.017497 1_556
Ge0 Lu0 3.017500 1_566
Ge0 Lu0 3.017500 1_656
Ge0 Lu0 3.017501 1_666
Ge1 Lu0 3.017497 1_665
Ge1 Lu0 3.017500 1_655
Ge1 Lu0 3.017500 1_565
Ge1 Lu0 3.017501 1_555
