# generated using pymatgen
data_La(BO2)3
_symmetry_space_group_name_H-M   'P 1'
_cell_length_a   11.74063210
_cell_length_b   4.24193927
_cell_length_c   7.30376861
_cell_angle_alpha   88.83486045
_cell_angle_beta   90.00000000
_cell_angle_gamma   90.00000000
_symmetry_Int_Tables_number   1
_chemical_formula_structural   La(BO2)3
_chemical_formula_sum   'La4 B12 O24'
_cell_volume   363.67473234
_cell_formula_units_Z   4
loop_
 _symmetry_equiv_pos_site_id
 _symmetry_equiv_pos_as_xyz
  1  'x, y, z'
loop_
 _atom_site_type_symbol
 _atom_site_label
 _atom_site_symmetry_multiplicity
 _atom_site_fract_x
 _atom_site_fract_y
 _atom_site_fract_z
 _atom_site_occupancy
  La  La0  1  0.37639541  0.78051054  0.88127276  1
  La  La1  1  0.62360459  0.21948946  0.11872724  1
  La  La2  1  0.87639541  0.21948946  0.61872724  1
  La  La3  1  0.12360459  0.78051054  0.38127276  1
  B  B0  1  0.16606205  0.32351085  0.71112766  1
  B  B1  1  0.83393795  0.67648915  0.28887234  1
  B  B2  1  0.59365307  0.19483007  0.62643695  1
  B  B3  1  0.66606205  0.67648915  0.78887234  1
  B  B4  1  0.62168230  0.68861591  0.42705202  1
  B  B5  1  0.12168230  0.31138409  0.07294798  1
  B  B6  1  0.09365307  0.80516993  0.87356305  1
  B  B7  1  0.33393795  0.32351085  0.21112766  1
  B  B8  1  0.37831770  0.31138409  0.57294798  1
  B  B9  1  0.87831770  0.68861591  0.92705202  1
  B  B10  1  0.40634693  0.80516993  0.37356305  1
  B  B11  1  0.90634693  0.19483007  0.12643695  1
  O  O0  1  0.62706366  0.84622562  0.61049835  1
  O  O1  1  0.71584969  0.77949474  0.30750547  1
  O  O2  1  0.90954468  0.74955127  0.43735875  1
  O  O3  1  0.02402733  0.20685998  0.18193072  1
  O  O4  1  0.40954468  0.25044873  0.06264125  1
  O  O5  1  0.62028037  0.34886003  0.45349950  1
  O  O6  1  0.12706366  0.15377438  0.88950165  1
  O  O7  1  0.21584969  0.22050526  0.19249453  1
  O  O8  1  0.97597267  0.79314002  0.81806928  1
  O  O9  1  0.87293634  0.84622562  0.11049835  1
  O  O10  1  0.83183341  0.33219819  0.26370308  1
  O  O11  1  0.47597267  0.20685998  0.68193072  1
  O  O12  1  0.33183341  0.66780181  0.23629692  1
  O  O13  1  0.52402733  0.79314002  0.31806928  1
  O  O14  1  0.12028037  0.65113997  0.04650050  1
  O  O15  1  0.16816659  0.66780181  0.73629692  1
  O  O16  1  0.59045532  0.74955127  0.93735875  1
  O  O17  1  0.28415031  0.22050526  0.69249453  1
  O  O18  1  0.37293634  0.15377438  0.38950165  1
  O  O19  1  0.78415031  0.77949474  0.80750547  1
  O  O20  1  0.87971963  0.34886003  0.95349950  1
  O  O21  1  0.09045532  0.25044873  0.56264125  1
  O  O22  1  0.66816659  0.33219819  0.76370308  1
  O  O23  1  0.37971963  0.65113997  0.54650050  1
loop_
_geom_bond_atom_site_label_1
_geom_bond_atom_site_label_2
_geom_bond_distance
_geom_bond_site_symmetry_2
La0 O4 2.446929 1_566
La0 O23 2.517094 1_555
La0 O17 2.540256 1_565
La0 O16 2.549320 1_555
La0 O11 2.578826 1_565
La0 O4 2.615494 1_556
La0 O12 2.678733 1_556
La0 O15 2.710557 1_555
La1 O16 2.446929 1_544
La1 O5 2.517094 1_555
La1 O1 2.540256 1_545
La1 O4 2.549320 1_555
La1 O13 2.578826 1_545
La1 O16 2.615494 1_554
La1 O22 2.678733 1_554
La1 O10 2.710557 1_555
La2 O2 2.446929 1_545
La2 O20 2.517094 1_555
La2 O19 2.540256 1_545
La2 O21 2.549320 1_655
La2 O8 2.578826 1_545
La2 O2 2.615494 1_555
La2 O10 2.678733 1_555
La2 O22 2.710557 1_555
La3 O21 2.446929 1_565
La3 O14 2.517094 1_555
La3 O7 2.540256 1_565
La3 O2 2.549320 1_455
La3 O3 2.578826 1_565
La3 O21 2.615494 1_555
La3 O15 2.678733 1_555
La3 O12 2.710557 1_555
B0 O21 1.440085 1_555
B0 O17 1.460839 1_555
B0 O15 1.475896 1_555
B0 O6 1.545058 1_555
B1 O2 1.440085 1_555
B1 O1 1.460839 1_555
B1 O10 1.475896 1_555
B1 O9 1.545058 1_555
B2 O11 1.441062 1_555
B2 O5 1.444469 1_555
B2 O22 1.460743 1_555
B2 O0 1.536603 1_545
B3 O16 1.440085 1_555
B3 O19 1.460839 1_555
B3 O22 1.475896 1_555
B3 O0 1.545058 1_555
B4 O5 1.450306 1_555
B4 O1 1.455890 1_555
B4 O13 1.459576 1_555
B4 O0 1.510829 1_555
B5 O14 1.450306 1_555
B5 O7 1.455890 1_555
B5 O3 1.459576 1_555
B5 O6 1.510829 1_554
B6 O8 1.441062 1_455
B6 O14 1.444469 1_556
B6 O15 1.460743 1_555
B6 O6 1.536603 1_565
B7 O4 1.440085 1_555
B7 O7 1.460839 1_555
B7 O12 1.475896 1_555
B7 O18 1.545058 1_555
B8 O23 1.450306 1_555
B8 O17 1.455890 1_555
B8 O11 1.459576 1_555
B8 O18 1.510829 1_555
B9 O20 1.450306 1_555
B9 O19 1.455890 1_555
B9 O8 1.459576 1_555
B9 O9 1.510829 1_556
B10 O13 1.441062 1_555
B10 O23 1.444469 1_555
B10 O12 1.460743 1_555
B10 O18 1.536603 1_565
B11 O3 1.441062 1_655
B11 O20 1.444469 1_554
B11 O10 1.460743 1_555
B11 O9 1.536603 1_545
