# generated using pymatgen
data_CdH16C4(Br2N)2
_symmetry_space_group_name_H-M   'P 1'
_cell_length_a   12.06449500
_cell_length_b   8.38590100
_cell_length_c   17.06171156
_cell_angle_alpha   65.90744032
_cell_angle_beta   90.00000000
_cell_angle_gamma   90.00000000
_symmetry_Int_Tables_number   1
_chemical_formula_structural   CdH16C4(Br2N)2
_chemical_formula_sum   'Cd4 H64 C16 Br16 N8'
_cell_volume   1575.79090492
_cell_formula_units_Z   4
loop_
 _symmetry_equiv_pos_site_id
 _symmetry_equiv_pos_as_xyz
  1  'x, y, z'
loop_
 _atom_site_type_symbol
 _atom_site_label
 _atom_site_symmetry_multiplicity
 _atom_site_fract_x
 _atom_site_fract_y
 _atom_site_fract_z
 _atom_site_occupancy
  Cd  Cd0  1  0.20586900  0.23904300  0.04791700  1
  Cd  Cd1  1  0.70586900  0.76095700  0.45208300  1
  Cd  Cd2  1  0.29413100  0.23904300  0.54791700  1
  Cd  Cd3  1  0.79413100  0.76095700  0.95208300  1
  H  H0  1  0.70266600  0.03052700  0.65550100  1
  H  H1  1  0.71877300  0.30969900  0.07015600  1
  H  H2  1  0.78587300  0.17866900  0.51626700  1
  H  H3  1  0.60651200  0.48962900  0.34512000  1
  H  H4  1  0.21877300  0.69030100  0.42984400  1
  H  H5  1  0.02215700  0.46066600  0.88289600  1
  H  H6  1  0.47784300  0.46066600  0.38289600  1
  H  H7  1  0.49245300  0.73959100  0.26818200  1
  H  H8  1  0.45509000  0.36094200  0.79997600  1
  H  H9  1  0.32905400  0.07224300  0.85441100  1
  H  H10  1  0.96227700  0.19369700  0.88088400  1
  H  H11  1  0.05120100  0.65028500  0.50893100  1
  H  H12  1  0.67274400  0.06509100  0.20363500  1
  H  H13  1  0.92565700  0.30685100  0.76973100  1
  H  H14  1  0.89348800  0.48962900  0.84512000  1
  H  H15  1  0.97528800  0.26180300  0.60447900  1
  H  H16  1  0.47528800  0.73819700  0.89552100  1
  H  H17  1  0.28587300  0.82133100  0.98373300  1
  H  H18  1  0.52009900  0.12171300  0.04835200  1
  H  H19  1  0.46227700  0.80630300  0.61911600  1
  H  H20  1  0.03772300  0.80630300  0.11911600  1
  H  H21  1  0.52471200  0.26180300  0.10447900  1
  H  H22  1  0.47990100  0.87828700  0.95164800  1
  H  H23  1  0.54491000  0.63905800  0.20002400  1
  H  H24  1  0.50754700  0.26040900  0.73181800  1
  H  H25  1  0.42565700  0.69314900  0.73026900  1
  H  H26  1  0.09622800  0.60403600  0.73705200  1
  H  H27  1  0.82725600  0.06509100  0.70363500  1
  H  H28  1  0.99245300  0.26040900  0.23181800  1
  H  H29  1  0.95509000  0.63905800  0.70002400  1
  H  H30  1  0.82905400  0.92775700  0.64558900  1
  H  H31  1  0.71412700  0.17866900  0.01626700  1
  H  H32  1  0.59622800  0.39596400  0.76294800  1
  H  H33  1  0.56886700  0.71169000  0.69873900  1
  H  H34  1  0.32725600  0.93490900  0.79636500  1
  H  H35  1  0.17274400  0.93490900  0.29636500  1
  H  H36  1  0.97784300  0.53933400  0.11710400  1
  H  H37  1  0.02009900  0.87828700  0.45164800  1
  H  H38  1  0.06886700  0.28831000  0.80126100  1
  H  H39  1  0.78122700  0.30969900  0.57015600  1
  H  H40  1  0.67094600  0.92775700  0.14558900  1
  H  H41  1  0.21412700  0.82133100  0.48373300  1
  H  H42  1  0.00754700  0.73959100  0.76818200  1
  H  H43  1  0.93113300  0.71169000  0.19873900  1
  H  H44  1  0.28122700  0.69030100  0.92984400  1
  H  H45  1  0.07434300  0.69314900  0.23026900  1
  H  H46  1  0.39348800  0.51037100  0.65488000  1
  H  H47  1  0.94879900  0.34971500  0.49106900  1
  H  H48  1  0.57434300  0.30685100  0.26973100  1
  H  H49  1  0.53772300  0.19369700  0.38088400  1
  H  H50  1  0.97990100  0.12171300  0.54835200  1
  H  H51  1  0.79733400  0.03052700  0.15550100  1
  H  H52  1  0.44879900  0.65028500  0.00893100  1
  H  H53  1  0.40377200  0.60403600  0.23705200  1
  H  H54  1  0.02471200  0.73819700  0.39552100  1
  H  H55  1  0.17094600  0.07224300  0.35441100  1
  H  H56  1  0.52215700  0.53933400  0.61710400  1
  H  H57  1  0.43113300  0.28831000  0.30126100  1
  H  H58  1  0.20266600  0.96947300  0.84449900  1
  H  H59  1  0.90377200  0.39596400  0.26294800  1
  H  H60  1  0.10651200  0.51037100  0.15488000  1
  H  H61  1  0.29733400  0.96947300  0.34449900  1
  H  H62  1  0.04491000  0.36094200  0.29997600  1
  H  H63  1  0.55120100  0.34971500  0.99106900  1
  C  C0  1  0.06061100  0.76465000  0.44797900  1
  C  C1  1  0.20712400  0.95554700  0.35092200  1
  C  C2  1  0.51115300  0.37523300  0.74694600  1
  C  C3  1  0.56061100  0.23535000  0.05202100  1
  C  C4  1  0.93938900  0.23535000  0.55202100  1
  C  C5  1  0.48371900  0.69821200  0.67995300  1
  C  C6  1  0.29287600  0.95554700  0.85092200  1
  C  C7  1  0.98371900  0.30178800  0.82004700  1
  C  C8  1  0.79287600  0.04445300  0.64907800  1
  C  C9  1  0.98884700  0.37523300  0.24694600  1
  C  C10  1  0.01115300  0.62476700  0.75305400  1
  C  C11  1  0.01628100  0.69821200  0.17995300  1
  C  C12  1  0.48884700  0.62476700  0.25305400  1
  C  C13  1  0.70712400  0.04445300  0.14907800  1
  C  C14  1  0.43938900  0.76465000  0.94797900  1
  C  C15  1  0.51628100  0.30178800  0.32004700  1
  Br  Br0  1  0.20575200  0.92868900  0.59312900  1
  Br  Br1  1  0.26648400  0.44839600  0.88888300  1
  Br  Br2  1  0.78082200  0.60200800  0.35672600  1
  Br  Br3  1  0.71917800  0.60200800  0.85672600  1
  Br  Br4  1  0.76648400  0.55160400  0.61111700  1
  Br  Br5  1  0.28082200  0.39799200  0.14327400  1
  Br  Br6  1  0.73351600  0.55160400  0.11111700  1
  Br  Br7  1  0.98866700  0.22682600  0.05845400  1
  Br  Br8  1  0.79424800  0.07131100  0.40687100  1
  Br  Br9  1  0.23351600  0.44839600  0.38888300  1
  Br  Br10  1  0.21917800  0.39799200  0.64327400  1
  Br  Br11  1  0.01133300  0.77317400  0.94154600  1
  Br  Br12  1  0.29424800  0.92868900  0.09312900  1
  Br  Br13  1  0.48866700  0.77317400  0.44154600  1
  Br  Br14  1  0.51133300  0.22682600  0.55845400  1
  Br  Br15  1  0.70575200  0.07131100  0.90687100  1
  N  N0  1  0.68135300  0.19905200  0.06815900  1
  N  N1  1  0.52477300  0.46945300  0.33048300  1
  N  N2  1  0.97522700  0.46945300  0.83048300  1
  N  N3  1  0.81864700  0.19905200  0.56815900  1
  N  N4  1  0.18135300  0.80094800  0.43184100  1
  N  N5  1  0.31864700  0.80094800  0.93184100  1
  N  N6  1  0.47522700  0.53054700  0.66951700  1
  N  N7  1  0.02477300  0.53054700  0.16951700  1
loop_
_geom_bond_atom_site_label_1
_geom_bond_atom_site_label_2
_geom_bond_distance
_geom_bond_site_symmetry_2
H1 N0 1.044861 1_555
H2 N3 1.045460 1_555
H3 N1 1.047836 1_555
H4 N4 1.044861 1_555
H5 N2 1.035322 1_455
H6 N1 1.035322 1_555
H14 N2 1.047836 1_555
H17 N5 1.045460 1_555
H31 N0 1.045460 1_555
H36 N7 1.035322 1_655
H39 N3 1.044861 1_555
H41 N4 1.045460 1_555
H44 N5 1.044861 1_555
H46 N6 1.047836 1_555
H56 N6 1.035322 1_555
H60 N7 1.047836 1_555
C0 H37 1.095270 1_555
C0 H11 1.095394 1_555
C0 H54 1.095423 1_555
C0 N4 1.490634 1_555
C1 H55 1.095112 1_565
C1 H61 1.095298 1_555
C1 H35 1.095433 1_555
C1 N4 1.490717 1_555
C2 H32 1.094068 1_555
C2 H24 1.094808 1_555
C2 H8 1.096333 1_555
C2 N6 1.491543 1_555
C3 H18 1.095270 1_555
C3 H63 1.095394 1_554
C3 H21 1.095423 1_555
C3 N0 1.490634 1_555
C4 H50 1.095270 1_555
C4 H47 1.095394 1_555
C4 H15 1.095423 1_555
C4 N3 1.490634 1_555
C5 H19 1.094447 1_555
C5 H25 1.095314 1_555
C5 H33 1.095611 1_555
C5 N6 1.491137 1_555
C6 H9 1.095112 1_565
C6 H58 1.095298 1_555
C6 H34 1.095433 1_555
C6 N5 1.490717 1_555
C7 H10 1.094447 1_555
C7 H13 1.095314 1_555
C7 H38 1.095611 1_655
C7 N2 1.491137 1_555
C8 H30 1.095112 1_545
C8 H0 1.095298 1_555
C8 H27 1.095433 1_555
C8 N3 1.490717 1_555
C9 H59 1.094068 1_555
C9 H28 1.094808 1_555
C9 H62 1.096333 1_655
C9 N7 1.491543 1_655
C10 H26 1.094068 1_555
C10 H42 1.094808 1_555
C10 H29 1.096333 1_455
C10 N2 1.491543 1_455
C11 H20 1.094447 1_555
C11 H45 1.095314 1_555
C11 H43 1.095611 1_455
C11 N7 1.491137 1_555
C12 H53 1.094068 1_555
C12 H7 1.094808 1_555
C12 H23 1.096333 1_555
C12 N1 1.491543 1_555
C13 H40 1.095112 1_545
C13 H51 1.095298 1_555
C13 H12 1.095433 1_555
C13 N0 1.490717 1_555
C14 H22 1.095270 1_555
C14 H52 1.095394 1_556
C14 H16 1.095423 1_555
C14 N5 1.490634 1_555
C15 H49 1.094447 1_555
C15 H48 1.095314 1_555
C15 H57 1.095611 1_555
C15 N1 1.491137 1_555
Br0 Cd2 2.620377 1_565
Br1 Cd0 2.662760 1_556
Br2 Cd1 2.647999 1_555
Br3 Cd3 2.647999 1_555
Br4 Cd1 2.662760 1_555
Br5 Cd0 2.647999 1_555
Br6 Cd3 2.662760 1_554
Br7 Cd0 2.625728 1_655
Br8 Cd1 2.620377 1_545
Br9 Cd2 2.662760 1_555
Br10 Cd2 2.647999 1_555
Br11 Cd3 2.625728 1_455
Br12 Cd0 2.620377 1_565
Br13 Cd1 2.625728 1_555
Br14 Cd2 2.625728 1_555
Br15 Cd3 2.620377 1_545
