# generated using pymatgen
data_SbSeCl7O
_symmetry_space_group_name_H-M   'P 1'
_cell_length_a   15.21154300
_cell_length_b   12.86604100
_cell_length_c   13.69049831
_cell_angle_alpha   74.01470965
_cell_angle_beta   90.00000000
_cell_angle_gamma   90.00000000
_symmetry_Int_Tables_number   1
_chemical_formula_structural   SbSeCl7O
_chemical_formula_sum   'Sb8 Se8 Cl56 O8'
_cell_volume   2575.79353841
_cell_formula_units_Z   8
loop_
 _symmetry_equiv_pos_site_id
 _symmetry_equiv_pos_as_xyz
  1  'x, y, z'
loop_
 _atom_site_type_symbol
 _atom_site_label
 _atom_site_symmetry_multiplicity
 _atom_site_fract_x
 _atom_site_fract_y
 _atom_site_fract_z
 _atom_site_occupancy
  Sb  Sb0  1  0.64282500  0.25604700  0.23741400  1
  Sb  Sb1  1  0.60737100  0.24685400  0.74321000  1
  Sb  Sb2  1  0.35717500  0.74395300  0.76258600  1
  Sb  Sb3  1  0.39262900  0.75314600  0.25679000  1
  Sb  Sb4  1  0.85717500  0.75604700  0.23741400  1
  Sb  Sb5  1  0.14282500  0.24395300  0.76258600  1
  Sb  Sb6  1  0.10737100  0.25314600  0.25679000  1
  Sb  Sb7  1  0.89262900  0.74685400  0.74321000  1
  Se  Se0  1  0.99796200  0.23791900  0.94880100  1
  Se  Se1  1  0.74901700  0.26883200  0.55190800  1
  Se  Se2  1  0.24901700  0.23116800  0.44809200  1
  Se  Se3  1  0.00203800  0.76208100  0.05119900  1
  Se  Se4  1  0.75098300  0.76883200  0.55190800  1
  Se  Se5  1  0.49796200  0.26208100  0.05119900  1
  Se  Se6  1  0.50203800  0.73791900  0.94880100  1
  Se  Se7  1  0.25098300  0.73116800  0.44809200  1
  Cl  Cl0  1  0.39118000  0.88636600  0.35351100  1
  Cl  Cl1  1  0.70046500  0.13207600  0.86560600  1
  Cl  Cl2  1  0.63906500  0.11166900  0.15415900  1
  Cl  Cl3  1  0.45122700  0.84845000  0.63382100  1
  Cl  Cl4  1  0.40003200  0.13869700  0.11593000  1
  Cl  Cl5  1  0.95122700  0.65155000  0.36617900  1
  Cl  Cl6  1  0.66606400  0.90557600  0.48145000  1
  Cl  Cl7  1  0.34916500  0.35496800  0.39576100  1
  Cl  Cl8  1  0.47130700  0.63491100  0.39370100  1
  Cl  Cl9  1  0.22766700  0.80973200  0.66815800  1
  Cl  Cl10  1  0.79953500  0.63207600  0.86560600  1
  Cl  Cl11  1  0.52869300  0.36508900  0.60629900  1
  Cl  Cl12  1  0.16606400  0.59442400  0.51855000  1
  Cl  Cl13  1  0.72405100  0.36180500  0.09556700  1
  Cl  Cl14  1  0.60882000  0.11363400  0.64648900  1
  Cl  Cl15  1  0.59077400  0.60719400  0.02352800  1
  Cl  Cl16  1  0.84916500  0.14503200  0.60423900  1
  Cl  Cl17  1  0.90922600  0.10719400  0.02352800  1
  Cl  Cl18  1  0.27594900  0.63819500  0.90443300  1
  Cl  Cl19  1  0.37265400  0.61106900  0.17886100  1
  Cl  Cl20  1  0.59996800  0.86130300  0.88407000  1
  Cl  Cl21  1  0.54877300  0.15155000  0.36617900  1
  Cl  Cl22  1  0.12734600  0.11106900  0.17886100  1
  Cl  Cl23  1  0.10882000  0.38636600  0.35351100  1
  Cl  Cl24  1  0.86093500  0.61166900  0.15415900  1
  Cl  Cl25  1  0.87265400  0.88893100  0.82113900  1
  Cl  Cl26  1  0.65083500  0.64503200  0.60423900  1
  Cl  Cl27  1  0.20046500  0.36792400  0.13439400  1
  Cl  Cl28  1  0.83393600  0.40557600  0.48145000  1
  Cl  Cl29  1  0.77233300  0.19026800  0.33184200  1
  Cl  Cl30  1  0.04877300  0.34845000  0.63382100  1
  Cl  Cl31  1  0.62734600  0.38893100  0.82113900  1
  Cl  Cl32  1  0.40922600  0.39280600  0.97647200  1
  Cl  Cl33  1  0.77594900  0.86180500  0.09556700  1
  Cl  Cl34  1  0.27233300  0.30973200  0.66815800  1
  Cl  Cl35  1  0.62481400  0.40842900  0.30100700  1
  Cl  Cl36  1  0.09996800  0.63869700  0.11593000  1
  Cl  Cl37  1  0.29953500  0.86792400  0.13439400  1
  Cl  Cl38  1  0.09077400  0.89280600  0.97647200  1
  Cl  Cl39  1  0.36093500  0.88833100  0.84584100  1
  Cl  Cl40  1  0.13906500  0.38833100  0.84584100  1
  Cl  Cl41  1  0.02869300  0.13491100  0.39370100  1
  Cl  Cl42  1  0.47709800  0.17691600  0.83346900  1
  Cl  Cl43  1  0.97130700  0.86508900  0.60629900  1
  Cl  Cl44  1  0.33393600  0.09442400  0.51855000  1
  Cl  Cl45  1  0.72766700  0.69026800  0.33184200  1
  Cl  Cl46  1  0.22405100  0.13819500  0.90443300  1
  Cl  Cl47  1  0.87518600  0.90842900  0.30100700  1
  Cl  Cl48  1  0.52290200  0.82308400  0.16653100  1
  Cl  Cl49  1  0.02290200  0.67691600  0.83346900  1
  Cl  Cl50  1  0.37518600  0.59157100  0.69899300  1
  Cl  Cl51  1  0.97709800  0.32308400  0.16653100  1
  Cl  Cl52  1  0.89118000  0.61363400  0.64648900  1
  Cl  Cl53  1  0.12481400  0.09157100  0.69899300  1
  Cl  Cl54  1  0.15083500  0.85496800  0.39576100  1
  Cl  Cl55  1  0.90003200  0.36130300  0.88407000  1
  O  O0  1  0.72567100  0.30784300  0.65926200  1
  O  O1  1  0.77432900  0.80784300  0.65926200  1
  O  O2  1  0.47499800  0.68698600  0.84922200  1
  O  O3  1  0.22567100  0.19215700  0.34073800  1
  O  O4  1  0.52500200  0.31301400  0.15077800  1
  O  O5  1  0.27432900  0.69215700  0.34073800  1
  O  O6  1  0.97499800  0.81301400  0.15077800  1
  O  O7  1  0.02500200  0.18698600  0.84922200  1
loop_
_geom_bond_atom_site_label_1
_geom_bond_atom_site_label_2
_geom_bond_distance
_geom_bond_site_symmetry_2
Cl0 Sb3 2.437579 1_555
Cl1 Sb1 2.372980 1_555
Cl2 Sb0 2.432930 1_555
Cl3 Sb2 2.378377 1_555
Cl4 Se5 2.179370 1_555
Cl5 Sb4 2.378377 1_555
Cl6 Se4 2.181670 1_555
Cl7 Se2 2.177748 1_555
Cl8 Sb3 2.385225 1_555
Cl9 Sb2 2.380306 1_555
Cl10 Sb7 2.372980 1_555
Cl11 Sb1 2.385225 1_555
Cl12 Se7 2.181670 1_555
Cl13 Sb0 2.386194 1_555
Cl14 Sb1 2.437579 1_555
Cl15 Se6 2.179389 1_554
Cl16 Se1 2.177748 1_555
Cl17 Se0 2.179389 1_554
Cl18 Sb2 2.386194 1_555
Cl19 Sb3 2.376172 1_555
Cl20 Se6 2.179370 1_555
Cl21 Sb0 2.378377 1_555
Cl22 Sb6 2.376172 1_555
Cl23 Sb6 2.437579 1_555
Cl24 Sb4 2.432930 1_555
Cl25 Sb7 2.376172 1_555
Cl26 Se4 2.177748 1_555
Cl27 Sb6 2.372980 1_555
Cl28 Se1 2.181670 1_555
Cl29 Sb0 2.380306 1_555
Cl30 Sb5 2.378377 1_555
Cl31 Sb1 2.376172 1_555
Cl32 Se5 2.179389 1_556
Cl33 Sb4 2.386194 1_555
Cl34 Sb5 2.380306 1_555
Cl35 Sb0 2.370008 1_555
Cl36 Se3 2.179370 1_555
Cl37 Sb3 2.372980 1_555
Cl38 Se3 2.179389 1_556
Cl39 Sb2 2.432930 1_555
Cl40 Sb5 2.432930 1_555
Cl41 Sb6 2.385225 1_555
Cl42 Sb1 2.377215 1_555
Cl43 Sb7 2.385225 1_555
Cl44 Se2 2.181670 1_555
Cl45 Sb4 2.380306 1_555
Cl46 Sb5 2.386194 1_555
Cl47 Sb4 2.370008 1_555
Cl48 Sb3 2.377215 1_555
Cl49 Sb7 2.377215 1_455
Cl50 Sb2 2.370008 1_555
Cl51 Sb6 2.377215 1_655
Cl52 Sb7 2.437579 1_555
Cl53 Sb5 2.370008 1_555
Cl54 Se7 2.177748 1_555
Cl55 Se0 2.179370 1_555
O0 Se1 1.715938 1_555
O0 Sb1 2.162910 1_555
O1 Se4 1.715938 1_555
O1 Sb7 2.162910 1_555
O2 Se6 1.717327 1_555
O2 Sb2 2.162736 1_555
O3 Se2 1.715938 1_555
O3 Sb6 2.162910 1_555
O4 Se5 1.717327 1_555
O4 Sb0 2.162736 1_555
O5 Se7 1.715938 1_555
O5 Sb3 2.162910 1_555
O6 Se3 1.717327 1_655
O6 Sb4 2.162736 1_555
O7 Se0 1.717327 1_455
O7 Sb5 2.162736 1_555
