# generated using pymatgen
data_SbO2
_symmetry_space_group_name_H-M   'P 1'
_cell_length_a   4.83777124
_cell_length_b   5.49742280
_cell_length_c   11.82896334
_cell_angle_alpha   90.00000000
_cell_angle_beta   90.00000000
_cell_angle_gamma   90.00000000
_symmetry_Int_Tables_number   1
_chemical_formula_structural   SbO2
_chemical_formula_sum   'Sb8 O16'
_cell_volume   314.59452017
_cell_formula_units_Z   8
loop_
 _symmetry_equiv_pos_site_id
 _symmetry_equiv_pos_as_xyz
  1  'x, y, z'
loop_
 _atom_site_type_symbol
 _atom_site_label
 _atom_site_symmetry_multiplicity
 _atom_site_fract_x
 _atom_site_fract_y
 _atom_site_fract_z
 _atom_site_occupancy
  Sb  Sb0  1  0.71339491  0.75000000  0.50000000  1
  Sb  Sb1  1  0.75000000  0.11702680  0.25000000  1
  Sb  Sb2  1  0.78660509  0.75000000  0.00000000  1
  Sb  Sb3  1  0.25000000  0.88297320  0.75000000  1
  Sb  Sb4  1  0.28660509  0.25000000  0.50000000  1
  Sb  Sb5  1  0.75000000  0.38297320  0.75000000  1
  Sb  Sb6  1  0.21339491  0.25000000  0.00000000  1
  Sb  Sb7  1  0.25000000  0.61702680  0.25000000  1
  O  O0  1  0.41984278  0.57996386  0.40484150  1
  O  O1  1  0.50281843  0.63808821  0.81014970  1
  O  O2  1  0.00281843  0.13808821  0.68985030  1
  O  O3  1  0.91984278  0.07996386  0.09515850  1
  O  O4  1  0.00281843  0.36191179  0.31014970  1
  O  O5  1  0.58015722  0.07996386  0.40484150  1
  O  O6  1  0.08015722  0.57996386  0.09515850  1
  O  O7  1  0.50281843  0.86191179  0.18985030  1
  O  O8  1  0.41984278  0.92003614  0.59515850  1
  O  O9  1  0.99718157  0.86191179  0.31014970  1
  O  O10  1  0.49718157  0.36191179  0.18985030  1
  O  O11  1  0.08015722  0.92003614  0.90484150  1
  O  O12  1  0.91984278  0.42003614  0.90484150  1
  O  O13  1  0.49718157  0.13808821  0.81014970  1
  O  O14  1  0.99718157  0.63808821  0.68985030  1
  O  O15  1  0.58015722  0.42003614  0.59515850  1
loop_
_geom_bond_atom_site_label_1
_geom_bond_atom_site_label_2
_geom_bond_distance
_geom_bond_site_symmetry_2
O0 Sb7 2.017784 1_555
O0 Sb0 2.039020 1_555
O0 Sb4 2.230006 1_555
O1 Sb3 1.953079 1_555
O1 Sb5 1.975636 1_555
O1 Sb2 2.703083 1_556
O2 Sb5 1.953079 1_455
O2 Sb3 1.975636 1_545
O2 Sb4 2.703083 1_555
O3 Sb1 2.017784 1_555
O3 Sb6 2.039020 1_655
O3 Sb2 2.230006 1_545
O4 Sb1 1.953079 1_455
O4 Sb7 1.975636 1_555
O4 Sb4 2.703083 1_555
O5 Sb1 2.017784 1_555
O5 Sb4 2.039020 1_555
O5 Sb0 2.230006 1_545
O6 Sb7 2.017784 1_555
O6 Sb2 2.039020 1_455
O6 Sb6 2.230006 1_555
O7 Sb7 1.953079 1_555
O7 Sb1 1.975636 1_565
O7 Sb2 2.703083 1_555
O8 Sb3 2.017784 1_555
O8 Sb0 2.039020 1_555
O8 Sb4 2.230006 1_565
O9 Sb7 1.953079 1_655
O9 Sb1 1.975636 1_565
O9 Sb0 2.703083 1_555
O10 Sb1 1.953079 1_555
O10 Sb7 1.975636 1_555
O10 Sb6 2.703083 1_555
O11 Sb3 2.017784 1_555
O11 Sb2 2.039020 1_456
O11 Sb6 2.230006 1_566
O12 Sb5 2.017784 1_555
O12 Sb6 2.039020 1_656
O12 Sb2 2.230006 1_556
O13 Sb5 1.953079 1_555
O13 Sb3 1.975636 1_545
O13 Sb6 2.703083 1_556
O14 Sb3 1.953079 1_655
O14 Sb5 1.975636 1_555
O14 Sb0 2.703083 1_555
O15 Sb5 2.017784 1_555
O15 Sb4 2.039020 1_555
O15 Sb0 2.230006 1_555
