# generated using pymatgen
data_Yb(SiNi)2
_symmetry_space_group_name_H-M   'P 1'
_cell_length_a   5.51471144
_cell_length_b   5.51471144
_cell_length_c   5.51471144
_cell_angle_alpha   137.61230588
_cell_angle_beta   137.61230588
_cell_angle_gamma   61.49729186
_symmetry_Int_Tables_number   1
_chemical_formula_structural   Yb(SiNi)2
_chemical_formula_sum   'Yb1 Si2 Ni2'
_cell_volume   75.35436316
_cell_formula_units_Z   1
loop_
 _symmetry_equiv_pos_site_id
 _symmetry_equiv_pos_as_xyz
  1  'x, y, z'
loop_
 _atom_site_type_symbol
 _atom_site_label
 _atom_site_symmetry_multiplicity
 _atom_site_fract_x
 _atom_site_fract_y
 _atom_site_fract_z
 _atom_site_occupancy
  Yb  Yb0  1  0.00000000  0.00000000  0.00000000  1
  Si  Si0  1  0.62928800  0.62928800  0.00000000  1
  Si  Si1  1  0.37071200  0.37071200  0.00000000  1
  Ni  Ni0  1  0.25000000  0.75000000  0.50000000  1
  Ni  Ni1  1  0.75000000  0.25000000  0.50000000  1
loop_
_geom_bond_atom_site_label_1
_geom_bond_atom_site_label_2
_geom_bond_distance
_geom_bond_site_symmetry_2
Si0 Si1 2.451013 1_555
Si0 Yb0 3.074341 1_565
Si0 Yb0 3.074341 1_554
Si0 Yb0 3.074341 1_666
Si0 Yb0 3.074341 1_655
Si1 Yb0 3.074341 1_554
Si1 Yb0 3.074341 1_666
Si1 Yb0 3.074341 1_655
Si1 Yb0 3.074341 1_565
Ni0 Si1 2.298713 1_566
Ni0 Si0 2.298713 1_455
Ni0 Si0 2.298713 1_556
Ni0 Si1 2.298713 1_555
Ni0 Yb0 3.096843 1_566
Ni0 Yb0 3.096843 1_565
Ni0 Yb0 3.096843 1_666
Ni0 Yb0 3.096843 1_555
Ni1 Si1 2.298713 1_656
Ni1 Si1 2.298713 1_555
Ni1 Si0 2.298713 1_545
Ni1 Si0 2.298713 1_556
Ni1 Yb0 3.096843 1_655
Ni1 Yb0 3.096843 1_666
Ni1 Yb0 3.096843 1_656
Ni1 Yb0 3.096843 1_555
