# generated using pymatgen
data_Ca3CoRhO6
_symmetry_space_group_name_H-M   'P 1'
_cell_length_a   6.44728028
_cell_length_b   6.44728028
_cell_length_c   6.44727979
_cell_angle_alpha   90.97966765
_cell_angle_beta   90.97966765
_cell_angle_gamma   90.97967605
_symmetry_Int_Tables_number   1
_chemical_formula_structural   Ca3CoRhO6
_chemical_formula_sum   'Ca6 Co2 Rh2 O12'
_cell_volume   267.87792526
_cell_formula_units_Z   2
loop_
 _symmetry_equiv_pos_site_id
 _symmetry_equiv_pos_as_xyz
  1  'x, y, z'
loop_
 _atom_site_type_symbol
 _atom_site_label
 _atom_site_symmetry_multiplicity
 _atom_site_fract_x
 _atom_site_fract_y
 _atom_site_fract_z
 _atom_site_occupancy
  Ca  Ca0  1  0.88260900  0.61739100  0.25000000  1
  Ca  Ca1  1  0.25000000  0.88260900  0.61739100  1
  Ca  Ca2  1  0.61739100  0.25000000  0.88260900  1
  Ca  Ca3  1  0.75000000  0.11739100  0.38260900  1
  Ca  Ca4  1  0.38260900  0.75000000  0.11739100  1
  Ca  Ca5  1  0.11739100  0.38260900  0.75000000  1
  Co  Co0  1  0.25000000  0.25000000  0.25000000  1
  Co  Co1  1  0.75000000  0.75000000  0.75000000  1
  Rh  Rh0  1  0.50000000  0.50000000  0.50000000  1
  Rh  Rh1  1  0.00000000  0.00000000  0.00000000  1
  O  O0  1  0.20022800  0.53541000  0.40087100  1
  O  O1  1  0.40087100  0.20022800  0.53541000  1
  O  O2  1  0.53541000  0.40087100  0.20022800  1
  O  O3  1  0.90087100  0.03541000  0.70022800  1
  O  O4  1  0.70022800  0.90087100  0.03541000  1
  O  O5  1  0.03541000  0.70022800  0.90087100  1
  O  O6  1  0.79977200  0.46459000  0.59912900  1
  O  O7  1  0.59912900  0.79977200  0.46459000  1
  O  O8  1  0.46459000  0.59912900  0.79977200  1
  O  O9  1  0.09912900  0.96459000  0.29977200  1
  O  O10  1  0.29977200  0.09912900  0.96459000  1
  O  O11  1  0.96459000  0.29977200  0.09912900  1
loop_
_geom_bond_atom_site_label_1
_geom_bond_atom_site_label_2
_geom_bond_distance
_geom_bond_site_symmetry_2
Ca0 O11 2.324953 1_555
Ca0 O0 2.324953 1_655
Ca0 O5 2.534048 1_654
Ca0 O6 2.534048 1_555
Ca0 O7 2.596441 1_555
Ca0 O4 2.596441 1_555
Ca0 O2 2.629789 1_555
Ca0 O9 2.629789 1_655
Ca1 O1 2.324953 1_565
Ca1 O9 2.324953 1_555
Ca1 O7 2.534048 1_555
Ca1 O3 2.534048 1_465
Ca1 O5 2.596441 1_555
Ca1 O8 2.596441 1_555
Ca1 O10 2.629789 1_565
Ca1 O0 2.629789 1_555
Ca2 O10 2.324953 1_555
Ca2 O2 2.324953 1_556
Ca2 O4 2.534048 1_546
Ca2 O8 2.534048 1_555
Ca2 O6 2.596441 1_555
Ca2 O3 2.596441 1_555
Ca2 O1 2.629789 1_555
Ca2 O11 2.629789 1_556
Ca3 O7 2.324953 1_545
Ca3 O3 2.324953 1_555
Ca3 O1 2.534048 1_555
Ca3 O9 2.534048 1_645
Ca3 O11 2.596441 1_555
Ca3 O2 2.596441 1_555
Ca3 O4 2.629789 1_545
Ca3 O6 2.629789 1_555
Ca4 O4 2.324953 1_555
Ca4 O8 2.324953 1_554
Ca4 O10 2.534048 1_564
Ca4 O2 2.534048 1_555
Ca4 O0 2.596441 1_555
Ca4 O9 2.596441 1_555
Ca4 O7 2.629789 1_555
Ca4 O5 2.629789 1_554
Ca5 O5 2.324953 1_555
Ca5 O6 2.324953 1_455
Ca5 O0 2.534048 1_555
Ca5 O11 2.534048 1_456
Ca5 O1 2.596441 1_555
Ca5 O10 2.596441 1_555
Ca5 O8 2.629789 1_555
Ca5 O3 2.629789 1_455
Co0 O9 2.098768 1_545
Co0 O2 2.098768 1_555
Co0 O10 2.098768 1_554
Co0 O1 2.098768 1_555
Co0 O11 2.098768 1_455
Co0 O0 2.098768 1_555
Co1 O8 2.098768 1_555
Co1 O3 2.098768 1_565
Co1 O7 2.098768 1_555
Co1 O4 2.098768 1_556
Co1 O6 2.098768 1_555
Co1 O5 2.098768 1_655
O0 Rh0 2.042990 1_555
O1 Rh0 2.042990 1_555
O2 Rh0 2.042990 1_555
O3 Rh1 2.042990 1_656
O4 Rh1 2.042990 1_665
O5 Rh1 2.042990 1_566
O6 Rh0 2.042990 1_555
O7 Rh0 2.042990 1_555
O8 Rh0 2.042990 1_555
O9 Rh1 2.042990 1_565
O10 Rh1 2.042990 1_556
O11 Rh1 2.042990 1_655
