# generated using pymatgen
data_Sr2CoSe2(ClO3)2
_symmetry_space_group_name_H-M   'P 1'
_cell_length_a   6.51151500
_cell_length_b   12.55251625
_cell_length_c   10.84900395
_cell_angle_alpha   92.89149344
_cell_angle_beta   90.00000000
_cell_angle_gamma   90.00000000
_symmetry_Int_Tables_number   1
_chemical_formula_structural   Sr2CoSe2(ClO3)2
_chemical_formula_sum   'Sr8 Co4 Se8 Cl8 O24'
_cell_volume   885.62411521
_cell_formula_units_Z   4
loop_
 _symmetry_equiv_pos_site_id
 _symmetry_equiv_pos_as_xyz
  1  'x, y, z'
loop_
 _atom_site_type_symbol
 _atom_site_label
 _atom_site_symmetry_multiplicity
 _atom_site_fract_x
 _atom_site_fract_y
 _atom_site_fract_z
 _atom_site_occupancy
  Sr  Sr0  1  0.29922900  0.23424300  0.00640700  1
  Sr  Sr1  1  0.29922900  0.23424300  0.50640700  1
  Sr  Sr2  1  0.70077100  0.76575700  0.49359300  1
  Sr  Sr3  1  0.70077100  0.76575700  0.99359300  1
  Sr  Sr4  1  0.79922900  0.26575700  0.24359300  1
  Sr  Sr5  1  0.79922900  0.26575700  0.74359300  1
  Sr  Sr6  1  0.20077100  0.73424300  0.25640700  1
  Sr  Sr7  1  0.20077100  0.73424300  0.75640700  1
  Co  Co0  1  0.00000000  0.50000000  0.50000000  1
  Co  Co1  1  0.50000000  0.00000000  0.75000000  1
  Co  Co2  1  0.00000000  0.50000000  0.00000000  1
  Co  Co3  1  0.50000000  0.00000000  0.25000000  1
  Se  Se0  1  0.76251100  0.07504100  0.49741200  1
  Se  Se1  1  0.76251100  0.07504100  0.99741200  1
  Se  Se2  1  0.73748900  0.57504100  0.24741200  1
  Se  Se3  1  0.73748900  0.57504100  0.74741200  1
  Se  Se4  1  0.26251100  0.42495900  0.25258800  1
  Se  Se5  1  0.26251100  0.42495900  0.75258800  1
  Se  Se6  1  0.23748900  0.92495900  0.00258800  1
  Se  Se7  1  0.23748900  0.92495900  0.50258800  1
  Cl  Cl0  1  0.82642100  0.89434400  0.22708900  1
  Cl  Cl1  1  0.82642100  0.89434400  0.72708900  1
  Cl  Cl2  1  0.67357900  0.39434400  0.47708900  1
  Cl  Cl3  1  0.67357900  0.39434400  0.97708900  1
  Cl  Cl4  1  0.17357900  0.10565600  0.27291100  1
  Cl  Cl5  1  0.17357900  0.10565600  0.77291100  1
  Cl  Cl6  1  0.32642100  0.60565600  0.02291100  1
  Cl  Cl7  1  0.32642100  0.60565600  0.52291100  1
  O  O0  1  0.37624000  0.87946900  0.12760600  1
  O  O1  1  0.37624000  0.87946900  0.62760600  1
  O  O2  1  0.62376000  0.12053100  0.37239400  1
  O  O3  1  0.62376000  0.12053100  0.87239400  1
  O  O4  1  0.87624000  0.62053100  0.12239400  1
  O  O5  1  0.87624000  0.62053100  0.62239400  1
  O  O6  1  0.12376000  0.37946900  0.37760600  1
  O  O7  1  0.12376000  0.37946900  0.87760600  1
  O  O8  1  0.42777500  0.32204400  0.22044400  1
  O  O9  1  0.42777500  0.32204400  0.72044400  1
  O  O10  1  0.57222500  0.67795600  0.27955600  1
  O  O11  1  0.57222500  0.67795600  0.77955600  1
  O  O12  1  0.07222500  0.82204400  0.47044400  1
  O  O13  1  0.07222500  0.82204400  0.97044400  1
  O  O14  1  0.92777500  0.17795600  0.02955600  1
  O  O15  1  0.92777500  0.17795600  0.52955600  1
  O  O16  1  0.92277400  0.60552900  0.36145500  1
  O  O17  1  0.92277400  0.60552900  0.86145500  1
  O  O18  1  0.42277400  0.89447100  0.38854500  1
  O  O19  1  0.42277400  0.89447100  0.88854500  1
  O  O20  1  0.07722600  0.39447100  0.13854500  1
  O  O21  1  0.07722600  0.39447100  0.63854500  1
  O  O22  1  0.57722600  0.10552900  0.11145500  1
  O  O23  1  0.57722600  0.10552900  0.61145500  1
loop_
_geom_bond_atom_site_label_1
_geom_bond_atom_site_label_2
_geom_bond_distance
_geom_bond_site_symmetry_2
Co0 O16 2.113690 1_455
Co0 O21 2.113690 1_555
Co0 O6 2.121084 1_555
Co0 O5 2.121084 1_455
Co1 O19 2.113690 1_545
Co1 O23 2.113690 1_555
Co1 O3 2.121084 1_555
Co1 O1 2.121084 1_545
Co2 O20 2.113690 1_555
Co2 O17 2.113690 1_454
Co2 O7 2.121084 1_554
Co2 O4 2.121084 1_455
Co3 O18 2.113690 1_545
Co3 O22 2.113690 1_555
Co3 O2 2.121084 1_555
Co3 O0 2.121084 1_545
Cl0 Co3 2.511014 1_565
Cl0 Sr3 3.046190 1_554
Cl0 Sr6 3.185319 1_655
Cl1 Co1 2.511014 1_565
Cl1 Sr2 3.046190 1_555
Cl1 Sr7 3.185319 1_655
Cl2 Co0 2.511014 1_655
Cl2 Sr4 3.046190 1_555
Cl2 Sr1 3.185319 1_555
Cl3 Co2 2.511014 1_656
Cl3 Sr5 3.046190 1_555
Cl3 Sr0 3.185319 1_556
Cl4 Co3 2.511014 1_555
Cl4 Sr1 3.046190 1_555
Cl4 Sr4 3.185319 1_455
Cl5 Co1 2.511014 1_555
Cl5 Sr0 3.046190 1_556
Cl5 Sr5 3.185319 1_455
Cl6 Co2 2.511014 1_555
Cl6 Sr6 3.046190 1_555
Cl6 Sr3 3.185319 1_554
Cl7 Co0 2.511014 1_555
Cl7 Sr7 3.046190 1_555
Cl7 Sr2 3.185319 1_555
O0 Se6 1.749307 1_555
O0 Sr6 2.615002 1_555
O0 Sr3 2.899557 1_554
O1 Se7 1.749307 1_555
O1 Sr7 2.615002 1_555
O1 Sr2 2.899557 1_555
O2 Se0 1.749307 1_555
O2 Sr4 2.615002 1_555
O2 Sr1 2.899557 1_555
O3 Se1 1.749307 1_555
O3 Sr5 2.615002 1_555
O3 Sr0 2.899557 1_556
O4 Se2 1.749307 1_555
O4 Sr3 2.615002 1_554
O4 Sr6 2.899557 1_655
O5 Se3 1.749307 1_555
O5 Sr2 2.615002 1_555
O5 Sr7 2.899557 1_655
O6 Se4 1.749307 1_555
O6 Sr1 2.615002 1_555
O6 Sr4 2.899557 1_455
O7 Se5 1.749307 1_555
O7 Sr0 2.615002 1_556
O7 Sr5 2.899557 1_455
O8 Se4 1.703834 1_555
O8 Sr4 2.535828 1_555
O8 Sr0 2.655031 1_555
O9 Se5 1.703834 1_555
O9 Sr5 2.535828 1_555
O9 Sr1 2.655031 1_555
O10 Se2 1.703834 1_555
O10 Sr6 2.535828 1_555
O10 Sr2 2.655031 1_555
O11 Se3 1.703834 1_555
O11 Sr7 2.535828 1_555
O11 Sr3 2.655031 1_555
O12 Se7 1.703834 1_555
O12 Sr2 2.535828 1_455
O12 Sr6 2.655031 1_555
O13 Se6 1.703834 1_556
O13 Sr3 2.535828 1_455
O13 Sr7 2.655031 1_555
O14 Se1 1.703834 1_554
O14 Sr0 2.535828 1_655
O14 Sr4 2.655031 1_555
O15 Se0 1.703834 1_555
O15 Sr1 2.535828 1_655
O15 Sr5 2.655031 1_555
O16 Se2 1.756443 1_555
O16 Sr6 2.715107 1_655
O16 Sr2 2.810533 1_555
O17 Se3 1.756443 1_555
O17 Sr7 2.715107 1_655
O17 Sr3 2.810533 1_555
O18 Se7 1.756443 1_555
O18 Sr2 2.715107 1_555
O18 Sr6 2.810533 1_555
O19 Se6 1.756443 1_556
O19 Sr3 2.715107 1_555
O19 Sr7 2.810533 1_555
O20 Se4 1.756443 1_555
O20 Sr4 2.715107 1_455
O20 Sr0 2.810533 1_555
O21 Se5 1.756443 1_555
O21 Sr5 2.715107 1_455
O21 Sr1 2.810533 1_555
O22 Se1 1.756443 1_554
O22 Sr0 2.715107 1_555
O22 Sr4 2.810533 1_555
O23 Se0 1.756443 1_555
O23 Sr1 2.715107 1_555
O23 Sr5 2.810533 1_555
