# generated using pymatgen
data_MoC
_symmetry_space_group_name_H-M   'P 1'
_cell_length_a   2.99296995
_cell_length_b   2.99296995
_cell_length_c   10.93028100
_cell_angle_alpha   90.00000000
_cell_angle_beta   90.00000000
_cell_angle_gamma   119.99999899
_symmetry_Int_Tables_number   1
_chemical_formula_structural   MoC
_chemical_formula_sum   'Mo4 C4'
_cell_volume   84.79430353
_cell_formula_units_Z   4
loop_
 _symmetry_equiv_pos_site_id
 _symmetry_equiv_pos_as_xyz
  1  'x, y, z'
loop_
 _atom_site_type_symbol
 _atom_site_label
 _atom_site_symmetry_multiplicity
 _atom_site_fract_x
 _atom_site_fract_y
 _atom_site_fract_z
 _atom_site_occupancy
  Mo  Mo0  1  0.33333300  0.66666700  0.37880400  1
  Mo  Mo1  1  0.66666700  0.33333300  0.62119600  1
  Mo  Mo2  1  0.66666700  0.33333300  0.87880400  1
  Mo  Mo3  1  0.33333300  0.66666700  0.12119600  1
  C  C0  1  0.00000000  0.00000000  0.50000000  1
  C  C1  1  0.00000000  0.00000000  0.00000000  1
  C  C2  1  0.33333300  0.66666700  0.75000000  1
  C  C3  1  0.66666700  0.33333300  0.25000000  1
loop_
_geom_bond_atom_site_label_1
_geom_bond_atom_site_label_2
_geom_bond_distance
_geom_bond_site_symmetry_2
C0 Mo1 2.177337 1_455
C0 Mo0 2.177337 1_545
C0 Mo1 2.177339 1_445
C0 Mo1 2.177339 1_555
C0 Mo0 2.177339 1_445
C0 Mo0 2.177339 1_555
C1 Mo3 2.177337 1_545
C1 Mo2 2.177337 1_454
C1 Mo3 2.177339 1_445
C1 Mo3 2.177339 1_555
C1 Mo2 2.177339 1_554
C1 Mo2 2.177339 1_444
C2 Mo2 2.228908 1_455
C2 Mo2 2.228908 1_565
C2 Mo1 2.228908 1_455
C2 Mo1 2.228908 1_565
C2 Mo2 2.228912 1_555
C2 Mo1 2.228912 1_555
C3 Mo3 2.228908 1_655
C3 Mo3 2.228908 1_545
C3 Mo0 2.228908 1_545
C3 Mo0 2.228908 1_655
C3 Mo3 2.228912 1_555
C3 Mo0 2.228912 1_555
