# generated using pymatgen
data_CeNbO4
_symmetry_space_group_name_H-M   'P 1'
_cell_length_a   5.38351842
_cell_length_b   5.38291594
_cell_length_c   6.88937102
_cell_angle_alpha   113.01850614
_cell_angle_beta   112.91974847
_cell_angle_gamma   90.01663753
_symmetry_Int_Tables_number   1
_chemical_formula_structural   CeNbO4
_chemical_formula_sum   'Ce2 Nb2 O8'
_cell_volume   166.48039989
_cell_formula_units_Z   2
loop_
 _symmetry_equiv_pos_site_id
 _symmetry_equiv_pos_as_xyz
  1  'x, y, z'
loop_
 _atom_site_type_symbol
 _atom_site_label
 _atom_site_symmetry_multiplicity
 _atom_site_fract_x
 _atom_site_fract_y
 _atom_site_fract_z
 _atom_site_occupancy
  Ce  Ce0  1  0.37481726  0.12551047  0.74986859  1
  Ce  Ce1  1  0.62518274  0.87448953  0.25013141  1
  Nb  Nb0  1  0.87531997  0.62513343  0.75024974  1
  Nb  Nb1  1  0.12468003  0.37486657  0.24975026  1
  O  O0  1  0.61859139  0.29291827  0.57490086  1
  O  O1  1  0.28202228  0.11831475  0.07466231  1
  O  O2  1  0.71797772  0.88168525  0.92533769  1
  O  O3  1  0.79229084  0.45644576  0.07478308  1
  O  O4  1  0.20770916  0.54355424  0.92521692  1
  O  O5  1  0.38140861  0.70708173  0.42509914  1
  O  O6  1  0.95644231  0.78247208  0.57498005  1
  O  O7  1  0.04355769  0.21752792  0.42501995  1
loop_
_geom_bond_atom_site_label_1
_geom_bond_atom_site_label_2
_geom_bond_distance
_geom_bond_site_symmetry_2
Ce0 O4 2.460528 1_555
Ce0 O0 2.463404 1_555
Ce0 O6 2.465432 1_445
Ce0 O2 2.469759 1_545
Ce0 O7 2.488602 1_555
Ce0 O3 2.489158 1_556
Ce0 O1 2.489269 1_556
Ce0 O5 2.490237 1_545
Ce1 O3 2.460528 1_555
Ce1 O5 2.463404 1_555
Ce1 O7 2.465432 1_665
Ce1 O1 2.469759 1_565
Ce1 O6 2.488602 1_555
Ce1 O4 2.489158 1_554
Ce1 O2 2.489269 1_554
Ce1 O0 2.490237 1_565
Nb0 O2 1.890350 1_555
Nb0 O0 1.891073 1_555
Nb0 O6 1.891138 1_555
Nb0 O4 1.892691 1_655
Nb1 O1 1.890350 1_555
Nb1 O5 1.891073 1_555
Nb1 O7 1.891138 1_555
Nb1 O3 1.892691 1_455
