# generated using pymatgen
data_LiZnP
_symmetry_space_group_name_H-M   'P 1'
_cell_length_a   3.99819670
_cell_length_b   3.99819670
_cell_length_c   3.99819670
_cell_angle_alpha   60.00000000
_cell_angle_beta   60.00000000
_cell_angle_gamma   60.00000000
_symmetry_Int_Tables_number   1
_chemical_formula_structural   LiZnP
_chemical_formula_sum   'Li1 Zn1 P1'
_cell_volume   45.19365560
_cell_formula_units_Z   1
loop_
 _symmetry_equiv_pos_site_id
 _symmetry_equiv_pos_as_xyz
  1  'x, y, z'
loop_
 _atom_site_type_symbol
 _atom_site_label
 _atom_site_symmetry_multiplicity
 _atom_site_fract_x
 _atom_site_fract_y
 _atom_site_fract_z
 _atom_site_occupancy
  Li  Li0  1  0.25000000  0.25000000  0.25000000  1
  Zn  Zn0  1  0.00000000  0.00000000  0.00000000  1
  P  P0  1  0.50000000  0.50000000  0.50000000  1
loop_
_geom_bond_atom_site_label_1
_geom_bond_atom_site_label_2
_geom_bond_distance
_geom_bond_site_symmetry_2
Li0 Zn0 2.448385 1_565
Li0 P0 2.448385 1_555
Li0 Zn0 2.448385 1_555
Li0 P0 2.448385 1_455
Li0 P0 2.448385 1_545
Li0 Zn0 2.448385 1_655
Li0 Zn0 2.448385 1_556
Li0 P0 2.448385 1_554
P0 Zn0 2.827152 1_565
P0 Zn0 2.827152 1_665
P0 Zn0 2.827152 1_656
P0 Zn0 2.827152 1_556
P0 Zn0 2.827152 1_566
P0 Zn0 2.827152 1_655
