# generated using pymatgen
data_Y5Mg16Cu5
_symmetry_space_group_name_H-M   'P 1'
_cell_length_a   9.76931772
_cell_length_b   9.76931772
_cell_length_c   28.89282800
_cell_angle_alpha   90.00000000
_cell_angle_beta   90.00000000
_cell_angle_gamma   155.45238291
_symmetry_Int_Tables_number   1
_chemical_formula_structural   Y5Mg16Cu5
_chemical_formula_sum   'Y10 Mg32 Cu10'
_cell_volume   1145.60948106
_cell_formula_units_Z   2
loop_
 _symmetry_equiv_pos_site_id
 _symmetry_equiv_pos_as_xyz
  1  'x, y, z'
loop_
 _atom_site_type_symbol
 _atom_site_label
 _atom_site_symmetry_multiplicity
 _atom_site_fract_x
 _atom_site_fract_y
 _atom_site_fract_z
 _atom_site_occupancy
  Y  Y0  1  0.39603100  0.60396900  0.65670100  1
  Y  Y1  1  0.58781900  0.41218100  0.62278600  1
  Y  Y2  1  0.41218100  0.58781900  0.12278600  1
  Y  Y3  1  0.41218100  0.58781900  0.37721400  1
  Y  Y4  1  0.62751900  0.37248100  0.75000000  1
  Y  Y5  1  0.60396900  0.39603100  0.15670100  1
  Y  Y6  1  0.60396900  0.39603100  0.34329900  1
  Y  Y7  1  0.37248100  0.62751900  0.25000000  1
  Y  Y8  1  0.39603100  0.60396900  0.84329900  1
  Y  Y9  1  0.58781900  0.41218100  0.87721400  1
  Mg  Mg0  1  0.92521400  0.07478600  0.03234700  1
  Mg  Mg1  1  0.45327300  0.54672700  0.54603300  1
  Mg  Mg2  1  0.75679600  0.24320400  0.83176200  1
  Mg  Mg3  1  0.16170900  0.83829100  0.07026100  1
  Mg  Mg4  1  0.01808500  0.98191500  0.69587600  1
  Mg  Mg5  1  0.69147000  0.30853000  0.98868900  1
  Mg  Mg6  1  0.07478600  0.92521400  0.96765300  1
  Mg  Mg7  1  0.22173400  0.77826600  0.90944600  1
  Mg  Mg8  1  0.12203600  0.87796400  0.25000000  1
  Mg  Mg9  1  0.83829100  0.16170900  0.92973900  1
  Mg  Mg10  1  0.01808500  0.98191500  0.80412400  1
  Mg  Mg11  1  0.30853000  0.69147000  0.01131100  1
  Mg  Mg12  1  0.30853000  0.69147000  0.48868900  1
  Mg  Mg13  1  0.54672700  0.45327300  0.04603300  1
  Mg  Mg14  1  0.24320400  0.75679600  0.16823800  1
  Mg  Mg15  1  0.87796400  0.12203600  0.75000000  1
  Mg  Mg16  1  0.26585300  0.73414700  0.75000000  1
  Mg  Mg17  1  0.98191500  0.01808500  0.19587600  1
  Mg  Mg18  1  0.77826600  0.22173400  0.09055400  1
  Mg  Mg19  1  0.54672700  0.45327300  0.45396700  1
  Mg  Mg20  1  0.24320400  0.75679600  0.33176200  1
  Mg  Mg21  1  0.77826600  0.22173400  0.40944600  1
  Mg  Mg22  1  0.83829100  0.16170900  0.57026100  1
  Mg  Mg23  1  0.22173400  0.77826600  0.59055400  1
  Mg  Mg24  1  0.07478600  0.92521400  0.53234700  1
  Mg  Mg25  1  0.98191500  0.01808500  0.30412400  1
  Mg  Mg26  1  0.69147000  0.30853000  0.51131100  1
  Mg  Mg27  1  0.16170900  0.83829100  0.42973900  1
  Mg  Mg28  1  0.92521400  0.07478600  0.46765300  1
  Mg  Mg29  1  0.75679600  0.24320400  0.66823800  1
  Mg  Mg30  1  0.45327300  0.54672700  0.95396700  1
  Mg  Mg31  1  0.73414700  0.26585300  0.25000000  1
  Cu  Cu0  1  0.02455400  0.97544600  0.10421300  1
  Cu  Cu1  1  0.83468900  0.16531100  0.17907800  1
  Cu  Cu2  1  0.16531100  0.83468900  0.67907800  1
  Cu  Cu3  1  0.47138800  0.52861200  0.75000000  1
  Cu  Cu4  1  0.97544600  0.02455400  0.60421300  1
  Cu  Cu5  1  0.52861200  0.47138800  0.25000000  1
  Cu  Cu6  1  0.97544600  0.02455400  0.89578700  1
  Cu  Cu7  1  0.83468900  0.16531100  0.32092200  1
  Cu  Cu8  1  0.16531100  0.83468900  0.82092200  1
  Cu  Cu9  1  0.02455400  0.97544600  0.39578700  1
loop_
_geom_bond_atom_site_label_1
_geom_bond_atom_site_label_2
_geom_bond_distance
_geom_bond_site_symmetry_2
Mg0 Mg11 3.105689 1_545
Mg0 Mg11 3.105689 1_655
Mg1 Mg12 3.222062 1_555
Mg3 Mg5 3.192281 1_564
Mg3 Mg5 3.192281 1_454
Mg5 Mg6 3.105689 1_655
Mg5 Mg6 3.105689 1_545
Mg5 Mg7 3.144679 1_545
Mg5 Mg7 3.144679 1_655
Mg5 Mg9 3.280006 1_555
Mg5 Y9 3.780187 1_555
Mg11 Mg5 3.120119 1_454
Mg11 Mg5 3.120119 1_564
Mg11 Mg18 3.144679 1_455
Mg11 Mg18 3.144679 1_565
Mg11 Mg9 3.192281 1_454
Mg11 Mg9 3.192281 1_564
Mg11 Mg30 3.222062 1_554
Mg11 Mg3 3.280006 1_555
Mg11 Mg7 3.377611 1_554
Mg11 Y2 3.780187 1_555
Mg12 Mg28 3.105689 1_565
Mg12 Mg28 3.105689 1_455
Mg12 Mg26 3.120119 1_455
Mg12 Mg26 3.120119 1_565
Mg12 Mg21 3.144679 1_455
Mg12 Mg21 3.144679 1_565
Mg12 Mg22 3.192281 1_565
Mg12 Mg22 3.192281 1_455
Mg12 Mg27 3.280006 1_555
Mg12 Mg23 3.377611 1_555
Mg12 Y3 3.780187 1_555
Mg13 Mg5 3.222062 1_554
Mg18 Mg5 3.377611 1_554
Mg19 Mg26 3.222062 1_555
Mg21 Mg26 3.377611 1_555
Mg22 Mg26 3.280006 1_555
Mg23 Mg26 3.144679 1_455
Mg23 Mg26 3.144679 1_565
Mg24 Mg26 3.105689 1_455
Mg24 Mg26 3.105689 1_565
Mg26 Mg27 3.192281 1_655
Mg26 Mg27 3.192281 1_545
Mg26 Y1 3.780187 1_555
Cu0 Mg13 2.705181 1_455
Cu0 Mg13 2.705181 1_565
Cu0 Mg17 2.770694 1_465
Cu0 Mg3 2.796284 1_555
Cu0 Mg0 2.812222 1_465
Cu0 Y5 2.985262 1_455
Cu0 Y5 2.985262 1_565
Cu0 Y2 3.033797 1_455
Cu0 Y2 3.033797 1_565
Cu1 Mg14 2.731651 1_655
Cu1 Mg14 2.731651 1_545
Cu1 Mg18 2.775302 1_555
Cu1 Mg31 2.807782 1_555
Cu1 Mg17 2.852438 1_555
Cu1 Y7 3.005437 1_545
Cu1 Y7 3.005437 1_655
Cu1 Y2 3.024441 1_655
Cu1 Y2 3.024441 1_545
Cu2 Mg29 2.731651 1_565
Cu2 Mg29 2.731651 1_455
Cu2 Mg23 2.775302 1_555
Cu2 Mg16 2.807782 1_555
Cu2 Mg4 2.852438 1_555
Cu2 Y4 3.005437 1_455
Cu2 Y4 3.005437 1_565
Cu2 Y1 3.024441 1_455
Cu2 Y1 3.024441 1_565
Cu3 Mg15 2.737611 1_565
Cu3 Mg15 2.737611 1_455
Cu3 Mg10 2.748343 1_655
Cu3 Mg10 2.748343 1_545
Cu3 Mg4 2.748343 1_655
Cu3 Mg4 2.748343 1_545
Cu3 Y4 2.980859 1_555
Cu3 Y8 3.055578 1_555
Cu3 Y0 3.055578 1_555
Cu4 Mg1 2.705181 1_545
Cu4 Mg1 2.705181 1_655
Cu4 Mg4 2.770694 1_645
Cu4 Mg22 2.796284 1_555
Cu4 Mg24 2.812222 1_645
Cu4 Y0 2.985262 1_545
Cu4 Y0 2.985262 1_655
Cu4 Y1 3.033797 1_545
Cu4 Y1 3.033797 1_655
Cu5 Mg8 2.737611 1_655
Cu5 Mg8 2.737611 1_545
Cu5 Mg17 2.748343 1_455
Cu5 Mg25 2.748343 1_455
Cu5 Mg25 2.748343 1_565
Cu5 Mg17 2.748343 1_565
Cu5 Y7 2.980859 1_555
Cu5 Y6 3.055578 1_555
Cu5 Y5 3.055578 1_555
Cu6 Mg30 2.705181 1_545
Cu6 Mg30 2.705181 1_655
Cu6 Mg10 2.770694 1_645
Cu6 Mg9 2.796284 1_555
Cu6 Mg6 2.812222 1_645
Cu6 Y8 2.985262 1_545
Cu6 Y8 2.985262 1_655
Cu6 Y9 3.033797 1_545
Cu6 Y9 3.033797 1_655
Cu7 Mg20 2.731651 1_655
Cu7 Mg20 2.731651 1_545
Cu7 Mg21 2.775302 1_555
Cu7 Mg31 2.807782 1_555
Cu7 Mg25 2.852438 1_555
Cu7 Y7 3.005437 1_545
Cu7 Y7 3.005437 1_655
Cu7 Y3 3.024441 1_545
Cu7 Y3 3.024441 1_655
Cu8 Mg2 2.731651 1_565
Cu8 Mg2 2.731651 1_455
Cu8 Mg7 2.775302 1_555
Cu8 Mg16 2.807782 1_555
Cu8 Mg10 2.852438 1_555
Cu8 Y4 3.005437 1_455
Cu8 Y4 3.005437 1_565
Cu8 Y9 3.024441 1_565
Cu8 Y9 3.024441 1_455
Cu9 Mg19 2.705181 1_455
Cu9 Mg19 2.705181 1_565
Cu9 Mg25 2.770694 1_465
Cu9 Mg27 2.796284 1_555
Cu9 Mg28 2.812222 1_465
Cu9 Y6 2.985262 1_455
Cu9 Y6 2.985262 1_565
Cu9 Y3 3.033797 1_455
Cu9 Y3 3.033797 1_565
