# generated using pymatgen
data_Ca18Nd2Si3P9(O16F)3
_symmetry_space_group_name_H-M   'P 1'
_cell_length_a   13.89648200
_cell_length_b   9.53799800
_cell_length_c   9.57541661
_cell_angle_alpha   60.17222626
_cell_angle_beta   90.00000000
_cell_angle_gamma   90.00000000
_symmetry_Int_Tables_number   1
_chemical_formula_structural   Ca18Nd2Si3P9(O16F)3
_chemical_formula_sum   'Ca18 Nd2 Si3 P9 O48 F3'
_cell_volume   1101.03594366
_cell_formula_units_Z   1
loop_
 _symmetry_equiv_pos_site_id
 _symmetry_equiv_pos_as_xyz
  1  'x, y, z'
loop_
 _atom_site_type_symbol
 _atom_site_label
 _atom_site_symmetry_multiplicity
 _atom_site_fract_x
 _atom_site_fract_y
 _atom_site_fract_z
 _atom_site_occupancy
  Ca  Ca0  1  0.24994100  0.00239500  0.75430700  1
  Ca  Ca1  1  0.75005900  0.00239500  0.75430700  1
  Ca  Ca2  1  0.25044000  0.24232500  0.00067100  1
  Ca  Ca3  1  0.74956000  0.24232500  0.00067100  1
  Ca  Ca4  1  0.37513600  0.66049000  0.67513400  1
  Ca  Ca5  1  0.87574400  0.66615600  0.66989400  1
  Ca  Ca6  1  0.12425600  0.66615600  0.66989400  1
  Ca  Ca7  1  0.62486400  0.66049000  0.67513400  1
  Ca  Ca8  1  0.50000000  0.27699200  0.72673800  1
  Ca  Ca9  1  0.25027600  0.75513300  0.24571100  1
  Ca  Ca10  1  0.74972400  0.75513300  0.24571100  1
  Ca  Ca11  1  0.12213100  0.32640800  0.33215000  1
  Ca  Ca12  1  0.62446700  0.33011600  0.33280500  1
  Ca  Ca13  1  0.87786900  0.32640800  0.33215000  1
  Ca  Ca14  1  0.37553300  0.33011600  0.33280500  1
  Ca  Ca15  1  0.50000000  0.71538800  0.00557800  1
  Ca  Ca16  1  0.00000000  0.00487700  0.25962500  1
  Ca  Ca17  1  0.50000000  0.01414700  0.27178900  1
  Nd  Nd0  1  0.00000000  0.24066900  0.75296500  1
  Nd  Nd1  1  0.00000000  0.74962800  0.00201800  1
  Si  Si0  1  0.00000000  0.39316200  0.97120600  1
  Si  Si1  1  0.50000000  0.38095300  0.97459500  1
  Si  Si2  1  0.00000000  0.97514900  0.63544100  1
  P  P0  1  0.50000000  0.97222000  0.64626300  1
  P  P1  1  0.25175900  0.37669800  0.59290800  1
  P  P2  1  0.74824100  0.37669800  0.59290800  1
  P  P3  1  0.00000000  0.63617300  0.38952900  1
  P  P4  1  0.50000000  0.64840800  0.37958000  1
  P  P5  1  0.24998200  0.02622800  0.37471100  1
  P  P6  1  0.75001800  0.02622800  0.37471100  1
  P  P7  1  0.25123400  0.59665400  0.02994900  1
  P  P8  1  0.74876600  0.59665400  0.02994900  1
  O  O0  1  0.90770600  0.91955600  0.76161800  1
  O  O1  1  0.41106900  0.91967600  0.75954700  1
  O  O2  1  0.09229400  0.91955600  0.76161800  1
  O  O3  1  0.58893100  0.91967600  0.75954700  1
  O  O4  1  0.25113700  0.66707000  0.84542500  1
  O  O5  1  0.74886300  0.66707000  0.84542500  1
  O  O6  1  0.00000000  0.59367800  0.87399200  1
  O  O7  1  0.50000000  0.58174200  0.87024300  1
  O  O8  1  0.09328800  0.33646900  0.90417100  1
  O  O9  1  0.59321000  0.31789600  0.91499600  1
  O  O10  1  0.90671200  0.33646900  0.90417100  1
  O  O11  1  0.40679000  0.31789600  0.91499600  1
  O  O12  1  0.00000000  0.87301500  0.53957600  1
  O  O13  1  0.50000000  0.87710700  0.55160200  1
  O  O14  1  0.25227900  0.49531800  0.65846400  1
  O  O15  1  0.74772100  0.49531800  0.65846400  1
  O  O16  1  0.25114100  0.84115400  0.49020000  1
  O  O17  1  0.74885900  0.84115400  0.49020000  1
  O  O18  1  0.00000000  0.53541200  0.57793000  1
  O  O19  1  0.50000000  0.55668700  0.56845100  1
  O  O20  1  0.34174900  0.26599000  0.64451600  1
  O  O21  1  0.83726000  0.26214400  0.65694600  1
  O  O22  1  0.65825100  0.26599000  0.64451600  1
  O  O23  1  0.16274000  0.26214400  0.65694600  1
  O  O24  1  0.91018900  0.74697600  0.33283600  1
  O  O25  1  0.41128300  0.76206700  0.31764600  1
  O  O26  1  0.08981100  0.74697600  0.33283600  1
  O  O27  1  0.58871700  0.76206700  0.31764600  1
  O  O28  1  0.24768700  0.46860700  0.40535100  1
  O  O29  1  0.75231300  0.46860700  0.40535100  1
  O  O30  1  0.00000000  0.17206000  0.51865600  1
  O  O31  1  0.50000000  0.15614100  0.52428800  1
  O  O32  1  0.00000000  0.52283400  0.31607800  1
  O  O33  1  0.50000000  0.52309900  0.32089800  1
  O  O34  1  0.24853200  0.12017200  0.46971800  1
  O  O35  1  0.75146800  0.12017200  0.46971800  1
  O  O36  1  0.34040500  0.65275400  0.08654600  1
  O  O37  1  0.83864500  0.65561300  0.08402100  1
  O  O38  1  0.16135500  0.65561300  0.08402100  1
  O  O39  1  0.65959500  0.65275400  0.08654600  1
  O  O40  1  0.75028100  0.40864900  0.12227400  1
  O  O41  1  0.24971900  0.40864900  0.12227400  1
  O  O42  1  0.00000000  0.31799500  0.16586100  1
  O  O43  1  0.50000000  0.31758600  0.16907200  1
  O  O44  1  0.16122500  0.07996100  0.26147500  1
  O  O45  1  0.65957200  0.08317400  0.26508400  1
  O  O46  1  0.34042800  0.08317400  0.26508400  1
  O  O47  1  0.83877500  0.07996100  0.26147500  1
  F  F0  1  0.25143900  0.99661700  0.00050900  1
  F  F1  1  0.74856100  0.99661700  0.00050900  1
  F  F2  1  0.00000000  0.99994200  0.00886300  1
loop_
_geom_bond_atom_site_label_1
_geom_bond_atom_site_label_2
_geom_bond_distance
_geom_bond_site_symmetry_2
Ca0 O2 2.318081 1_545
Ca0 F0 2.330658 1_546
Ca0 O1 2.366271 1_545
Ca0 O34 2.375499 1_555
Ca0 O23 2.485526 1_555
Ca0 O20 2.534678 1_555
Ca0 O4 2.866156 1_545
Ca1 O0 2.318081 1_545
Ca1 F1 2.330658 1_546
Ca1 O3 2.366271 1_545
Ca1 O35 2.375499 1_555
Ca1 O21 2.485526 1_555
Ca1 O22 2.534678 1_555
Ca1 O5 2.866156 1_545
Ca2 O11 2.307598 1_554
Ca2 F0 2.344375 1_545
Ca2 O8 2.367272 1_554
Ca2 O41 2.389594 1_555
Ca2 O44 2.514873 1_555
Ca2 O46 2.540689 1_555
Ca2 O14 2.948710 1_554
Ca3 O9 2.307598 1_554
Ca3 F1 2.344375 1_545
Ca3 O10 2.367272 1_554
Ca3 O40 2.389594 1_555
Ca3 O47 2.514873 1_555
Ca3 O45 2.540689 1_555
Ca3 O15 2.948710 1_554
Ca4 O7 2.381049 1_555
Ca4 O14 2.381672 1_555
Ca4 O4 2.394550 1_555
Ca4 O16 2.457367 1_555
Ca4 O19 2.457787 1_555
Ca4 O13 2.499510 1_555
Ca5 O6 2.436157 1_655
Ca5 O5 2.438966 1_555
Ca5 O12 2.445874 1_655
Ca5 O17 2.449218 1_555
Ca5 O15 2.451447 1_555
Ca5 O18 2.530715 1_655
Ca5 O10 2.844010 1_555
Ca5 O24 2.960565 1_555
Ca5 O0 2.986962 1_555
Ca6 O6 2.436157 1_555
Ca6 O4 2.438966 1_555
Ca6 O12 2.445874 1_555
Ca6 O16 2.449218 1_555
Ca6 O14 2.451447 1_555
Ca6 O18 2.530715 1_555
Ca6 O8 2.844010 1_555
Ca6 O26 2.960565 1_555
Ca6 O2 2.986962 1_555
Ca7 O7 2.381049 1_555
Ca7 O15 2.381672 1_555
Ca7 O5 2.394550 1_555
Ca7 O17 2.457367 1_555
Ca7 O19 2.457787 1_555
Ca7 O13 2.499510 1_555
Ca8 O19 2.322005 1_555
Ca8 O20 2.355682 1_555
Ca8 O22 2.355682 1_555
Ca8 O9 2.403988 1_555
Ca8 O11 2.403988 1_555
Ca8 O31 2.703605 1_555
Ca9 F0 2.332020 1_555
Ca9 O25 2.351647 1_555
Ca9 O26 2.368527 1_555
Ca9 O28 2.377153 1_555
Ca9 O38 2.507389 1_555
Ca9 O36 2.515057 1_555
Ca9 O16 2.839853 1_555
Ca10 F1 2.332020 1_555
Ca10 O27 2.351647 1_555
Ca10 O24 2.368527 1_555
Ca10 O29 2.377153 1_555
Ca10 O37 2.507389 1_555
Ca10 O39 2.515057 1_555
Ca10 O17 2.839853 1_555
Ca11 O42 2.355712 1_555
Ca11 O30 2.371008 1_555
Ca11 O34 2.472311 1_555
Ca11 O32 2.475351 1_555
Ca11 O41 2.495883 1_555
Ca11 O28 2.514126 1_555
Ca11 O44 2.803741 1_555
Ca11 O38 2.894832 1_555
Ca11 O23 2.910369 1_555
Ca12 O43 2.377060 1_555
Ca12 O31 2.465846 1_555
Ca12 O40 2.485893 1_555
Ca12 O33 2.486765 1_555
Ca12 O35 2.496345 1_555
Ca12 O29 2.509293 1_555
Ca12 O22 2.772588 1_555
Ca12 O45 2.779468 1_555
Ca12 O39 2.837236 1_555
Ca13 O42 2.355712 1_655
Ca13 O30 2.371008 1_655
Ca13 O35 2.472311 1_555
Ca13 O32 2.475351 1_655
Ca13 O40 2.495883 1_555
Ca13 O29 2.514126 1_555
Ca13 O47 2.803741 1_555
Ca13 O37 2.894832 1_555
Ca13 O21 2.910369 1_555
Ca14 O43 2.377060 1_555
Ca14 O31 2.465846 1_555
Ca14 O41 2.485893 1_555
Ca14 O33 2.486765 1_555
Ca14 O34 2.496345 1_555
Ca14 O28 2.509293 1_555
Ca14 O20 2.772588 1_555
Ca14 O46 2.779468 1_555
Ca14 O36 2.837236 1_555
Ca15 O7 2.224300 1_554
Ca15 O36 2.327210 1_555
Ca15 O39 2.327210 1_555
Ca15 O3 2.511473 1_554
Ca15 O1 2.511473 1_554
Ca15 O33 2.640323 1_555
Ca16 O12 2.326757 1_545
Ca16 O47 2.354882 1_455
Ca16 O44 2.354882 1_555
Ca16 F2 2.424907 1_545
Ca16 O26 2.526767 1_545
Ca16 O24 2.526767 1_445
Ca16 O42 2.656686 1_555
Ca17 O46 2.304950 1_555
Ca17 O45 2.304950 1_555
Ca17 O13 2.324522 1_545
Ca17 O25 2.538373 1_545
Ca17 O27 2.538373 1_545
Ca17 O43 2.551863 1_555
Nd0 O23 2.411305 1_555
Nd0 O21 2.411305 1_455
Nd0 O8 2.434725 1_555
Nd0 O10 2.434725 1_455
Nd0 O18 2.454598 1_555
Nd0 O30 2.631073 1_555
Nd1 O6 2.351449 1_554
Nd1 O37 2.397493 1_455
Nd1 O38 2.397493 1_555
Nd1 O0 2.420597 1_454
Nd1 O2 2.420597 1_554
Nd1 O32 2.692874 1_555
O0 Si2 1.657879 1_655
O1 P0 1.553802 1_555
O2 Si2 1.657879 1_555
O3 P0 1.553802 1_555
O4 P7 1.546767 1_556
O5 P8 1.546767 1_556
O6 Si0 1.659284 1_555
O7 Si1 1.662072 1_555
O8 Si0 1.652359 1_555
O9 Si1 1.645184 1_555
O10 Si0 1.652359 1_655
O11 Si1 1.645184 1_555
O12 Si2 1.637426 1_555
O13 P0 1.569264 1_555
O14 P1 1.542938 1_555
O15 P2 1.542938 1_555
O16 P5 1.548324 1_565
O17 P6 1.548324 1_565
O18 P3 1.566328 1_555
O19 P4 1.569129 1_555
O20 P1 1.550474 1_555
O21 P2 1.560005 1_555
O22 P2 1.550474 1_555
O23 P1 1.560005 1_555
O24 P3 1.548717 1_655
O25 P4 1.551548 1_555
O26 P3 1.548717 1_555
O27 P4 1.551548 1_555
O28 P1 1.559135 1_555
O29 P2 1.559135 1_555
O30 Si2 1.639696 1_545
O31 P0 1.550251 1_545
O32 P3 1.555517 1_555
O33 P4 1.553164 1_555
O34 P5 1.562628 1_555
O35 P6 1.562628 1_555
O36 P7 1.550486 1_555
O37 P8 1.560118 1_555
O38 P7 1.560118 1_555
O39 P8 1.550486 1_555
O40 P8 1.555800 1_555
O41 P7 1.555800 1_555
O42 Si0 1.630580 1_554
O43 Si1 1.647252 1_554
O44 P5 1.551394 1_555
O45 P6 1.552255 1_555
O46 P5 1.552255 1_555
O47 P6 1.551394 1_555
F2 Nd0 2.383109 1_564
F2 Nd1 2.420763 1_555
