# generated using pymatgen
data_MgAl6O10
_symmetry_space_group_name_H-M   'P 1'
_cell_length_a   5.70707525
_cell_length_b   5.70707525
_cell_length_c   23.36448779
_cell_angle_alpha   82.67015310
_cell_angle_beta   82.67015310
_cell_angle_gamma   60.21702381
_symmetry_Int_Tables_number   1
_chemical_formula_structural   MgAl6O10
_chemical_formula_sum   'Mg4 Al24 O40'
_cell_volume   653.25773893
_cell_formula_units_Z   4
loop_
 _symmetry_equiv_pos_site_id
 _symmetry_equiv_pos_as_xyz
  1  'x, y, z'
loop_
 _atom_site_type_symbol
 _atom_site_label
 _atom_site_symmetry_multiplicity
 _atom_site_fract_x
 _atom_site_fract_y
 _atom_site_fract_z
 _atom_site_occupancy
  Mg  Mg0  1  0.12626900  0.12626900  0.62490100  1
  Mg  Mg1  1  0.72328700  0.72328700  0.83167400  1
  Mg  Mg2  1  0.47525700  0.47525700  0.57447900  1
  Mg  Mg3  1  0.07247700  0.07247700  0.78019400  1
  Al  Al0  1  0.32287600  0.32287600  0.03026600  1
  Al  Al1  1  0.80158500  0.80158500  0.09697000  1
  Al  Al2  1  0.93085900  0.93085900  0.22444800  1
  Al  Al3  1  0.80303600  0.29218000  0.09609700  1
  Al  Al4  1  0.29218000  0.80303600  0.09609700  1
  Al  Al5  1  0.58430400  0.58430400  0.20211600  1
  Al  Al6  1  0.40261700  0.90210100  0.29605000  1
  Al  Al7  1  0.53469100  0.53469100  0.41835900  1
  Al  Al8  1  0.90210100  0.40261700  0.29605000  1
  Al  Al9  1  0.00214300  0.00214300  0.49673900  1
  Al  Al10  1  0.21707700  0.21707700  0.39100100  1
  Al  Al11  1  0.26710000  0.26710000  0.17422600  1
  Al  Al12  1  0.00055000  0.50545800  0.49716800  1
  Al  Al13  1  0.50545800  0.00055000  0.49716800  1
  Al  Al14  1  0.59908300  0.59908300  0.70211500  1
  Al  Al15  1  0.87453500  0.87453500  0.36872300  1
  Al  Al16  1  0.80076400  0.80076400  0.60031400  1
  Al  Al17  1  0.10024500  0.59892300  0.70215700  1
  Al  Al18  1  0.19412000  0.19412000  0.90732100  1
  Al  Al19  1  0.19437600  0.70306000  0.90710100  1
  Al  Al20  1  0.39830300  0.39830300  0.80492000  1
  Al  Al21  1  0.59892300  0.10024500  0.70215700  1
  Al  Al22  1  0.70306000  0.19437600  0.90710100  1
  Al  Al23  1  0.67438800  0.67438800  0.97292800  1
  O  O0  1  0.64555900  0.14495100  0.05933300  1
  O  O1  1  0.14495100  0.64555900  0.05933300  1
  O  O2  1  0.94888000  0.94888000  0.14539200  1
  O  O3  1  0.14591300  0.14591300  0.05930300  1
  O  O4  1  0.26501300  0.76381100  0.24731400  1
  O  O5  1  0.45598900  0.45598900  0.14965300  1
  O  O6  1  0.76381100  0.26501300  0.24731400  1
  O  O7  1  0.56563800  0.56563800  0.34346500  1
  O  O8  1  0.46280000  0.91755100  0.14844100  1
  O  O9  1  0.64572200  0.64572200  0.05454100  1
  O  O10  1  0.74333800  0.74333800  0.24928900  1
  O  O11  1  0.91755100  0.46280000  0.14844100  1
  O  O12  1  0.87074800  0.34261500  0.44949700  1
  O  O13  1  0.06177100  0.06177100  0.34784600  1
  O  O14  1  0.34261500  0.87074800  0.44949700  1
  O  O15  1  0.23747000  0.23747000  0.25106200  1
  O  O16  1  0.15686800  0.15686800  0.53726200  1
  O  O17  1  0.03731700  0.53662600  0.34977500  1
  O  O18  1  0.34638400  0.34638400  0.44751500  1
  O  O19  1  0.53662600  0.03731700  0.34977500  1
  O  O20  1  0.48649500  0.93179500  0.65141600  1
  O  O21  1  0.67143500  0.67143500  0.54358900  1
  O  O22  1  0.75202000  0.75202000  0.74372400  1
  O  O23  1  0.93179500  0.48649500  0.65141600  1
  O  O24  1  0.85287700  0.85287700  0.44966400  1
  O  O25  1  0.67177100  0.11648400  0.54335700  1
  O  O26  1  0.93203500  0.93203500  0.65125500  1
  O  O27  1  0.11648400  0.67177100  0.54335700  1
  O  O28  1  0.08917600  0.52720400  0.85634200  1
  O  O29  1  0.26703700  0.26703700  0.74834700  1
  O  O30  1  0.34848700  0.34848700  0.95235000  1
  O  O31  1  0.52720400  0.08917600  0.85634200  1
  O  O32  1  0.26722200  0.71697700  0.74821900  1
  O  O33  1  0.44786500  0.44786500  0.65773400  1
  O  O34  1  0.52733500  0.52733500  0.85617700  1
  O  O35  1  0.71697700  0.26722200  0.74821900  1
  O  O36  1  0.85040900  0.85040900  0.94730400  1
  O  O37  1  0.85011500  0.34954800  0.94735500  1
  O  O38  1  0.04561200  0.04561200  0.86361700  1
  O  O39  1  0.34954800  0.85011500  0.94735500  1
loop_
_geom_bond_atom_site_label_1
_geom_bond_atom_site_label_2
_geom_bond_distance
_geom_bond_site_symmetry_2
Mg0 O26 1.925907 1_445
Mg0 O23 1.929994 1_455
Mg0 O20 1.929994 1_545
Mg0 O16 2.025250 1_555
Mg1 O34 1.935119 1_555
Mg1 O28 1.940611 1_655
Mg1 O31 1.940611 1_565
Mg1 O22 2.032529 1_555
Mg2 O33 1.924010 1_555
Mg2 O21 1.964897 1_555
Mg2 O27 1.967112 1_555
Mg2 O25 1.967112 1_555
Mg3 O38 1.927950 1_555
Mg3 O29 1.955170 1_555
Mg3 O35 1.960728 1_455
Mg3 O32 1.960728 1_545
Al0 O3 1.778723 1_555
Al0 O0 1.780219 1_555
Al0 O1 1.780219 1_555
Al0 O30 1.800628 1_554
Al1 O1 1.852810 1_655
Al1 O0 1.852810 1_565
Al1 O9 1.949692 1_555
Al1 O2 1.969926 1_555
Al1 O11 1.990258 1_555
Al1 O8 1.990258 1_555
Al2 O4 1.776227 1_655
Al2 O6 1.776227 1_565
Al2 O2 1.829346 1_555
Al2 O10 1.856965 1_555
Al3 O0 1.839270 1_555
Al3 O3 1.842863 1_655
Al3 O9 1.934632 1_555
Al3 O2 1.976543 1_545
Al3 O11 2.002753 1_555
Al3 O5 2.046769 1_555
Al4 O1 1.839270 1_555
Al4 O3 1.842863 1_565
Al4 O9 1.934632 1_555
Al4 O2 1.976543 1_455
Al4 O8 2.002753 1_555
Al4 O5 2.046769 1_555
Al5 O6 1.848161 1_555
Al5 O4 1.848161 1_555
Al5 O5 1.888355 1_555
Al5 O8 1.993447 1_555
Al5 O11 1.993447 1_555
Al5 O10 2.047241 1_555
Al6 O15 1.898378 1_565
Al6 O4 1.899853 1_555
Al6 O7 1.930162 1_555
Al6 O10 1.938036 1_555
Al6 O19 1.958196 1_565
Al6 O13 1.999656 1_565
Al7 O7 1.731377 1_555
Al7 O12 1.863662 1_555
Al7 O14 1.863662 1_555
Al7 O18 1.883531 1_555
Al8 O15 1.898378 1_655
Al8 O6 1.899853 1_555
Al8 O7 1.930162 1_555
Al8 O10 1.938036 1_555
Al8 O17 1.958196 1_655
Al8 O13 1.999656 1_655
Al9 O27 1.897949 1_545
Al9 O25 1.897949 1_455
Al9 O16 1.912374 1_555
Al9 O14 1.942347 1_545
Al9 O12 1.942347 1_455
Al9 O24 1.964737 1_445
Al10 O19 1.803165 1_555
Al10 O17 1.803165 1_555
Al10 O13 1.955603 1_555
Al10 O18 1.967481 1_555
Al10 O14 2.107530 1_545
Al10 O12 2.107530 1_455
Al11 O15 1.775821 1_555
Al11 O5 1.868803 1_555
Al11 O8 1.873912 1_545
Al11 O11 1.873912 1_455
Al12 O27 1.889645 1_555
Al12 O21 1.891140 1_455
Al12 O16 1.898898 1_555
Al12 O12 1.952342 1_455
Al12 O24 1.972451 1_455
Al12 O18 1.992483 1_555
Al13 O25 1.889645 1_555
Al13 O21 1.891140 1_545
Al13 O16 1.898898 1_555
Al13 O14 1.952342 1_545
Al13 O24 1.972451 1_545
Al13 O18 1.992483 1_555
Al14 O35 1.896982 1_555
Al14 O32 1.896982 1_555
Al14 O22 1.912748 1_555
Al14 O33 1.939435 1_555
Al14 O23 1.956976 1_555
Al14 O20 1.956976 1_555
Al15 O19 1.763847 1_565
Al15 O17 1.763847 1_655
Al15 O13 1.841184 1_665
Al15 O24 1.871596 1_555
Al16 O20 1.884306 1_555
Al16 O23 1.884306 1_555
Al16 O26 1.884606 1_555
Al16 O25 1.969749 1_565
Al16 O27 1.969749 1_655
Al16 O21 1.971427 1_555
Al17 O32 1.898635 1_555
Al17 O29 1.899421 1_555
Al17 O22 1.911857 1_455
Al17 O33 1.939111 1_555
Al17 O23 1.959363 1_455
Al17 O26 1.962533 1_455
Al18 O39 1.878628 1_545
Al18 O37 1.878628 1_455
Al18 O38 1.906472 1_555
Al18 O28 1.965765 1_555
Al18 O31 1.965765 1_555
Al18 O30 1.975646 1_555
Al19 O39 1.877615 1_555
Al19 O36 1.879933 1_455
Al19 O38 1.907707 1_565
Al19 O28 1.964233 1_555
Al19 O34 1.966382 1_555
Al19 O30 1.977224 1_555
Al20 O31 1.868813 1_555
Al20 O28 1.868813 1_555
Al20 O34 1.872848 1_555
Al20 O35 1.977080 1_555
Al20 O32 1.977080 1_555
Al20 O29 1.983042 1_555
Al21 O35 1.898635 1_555
Al21 O29 1.899421 1_555
Al21 O22 1.911857 1_545
Al21 O33 1.939111 1_555
Al21 O20 1.959363 1_545
Al21 O26 1.962533 1_545
Al22 O37 1.877615 1_555
Al22 O36 1.879933 1_545
Al22 O38 1.907707 1_655
Al22 O31 1.964233 1_555
Al22 O34 1.966382 1_555
Al22 O30 1.977224 1_555
Al23 O36 1.752808 1_555
Al23 O39 1.755676 1_555
Al23 O37 1.755676 1_555
Al23 O9 1.885996 1_556
