# generated using pymatgen
data_Nb(Te2I3)2
_symmetry_space_group_name_H-M   'P 1'
_cell_length_a   8.32470400
_cell_length_b   11.52733528
_cell_length_c   12.34792085
_cell_angle_alpha   111.46366136
_cell_angle_beta   107.38856816
_cell_angle_gamma   98.41749988
_symmetry_Int_Tables_number   1
_chemical_formula_structural   Nb(Te2I3)2
_chemical_formula_sum   'Nb2 Te8 I12'
_cell_volume   1007.78274299
_cell_formula_units_Z   2
loop_
 _symmetry_equiv_pos_site_id
 _symmetry_equiv_pos_as_xyz
  1  'x, y, z'
loop_
 _atom_site_type_symbol
 _atom_site_label
 _atom_site_symmetry_multiplicity
 _atom_site_fract_x
 _atom_site_fract_y
 _atom_site_fract_z
 _atom_site_occupancy
  Nb  Nb0  1  0.48721400  0.35365000  0.45861800  1
  Nb  Nb1  1  0.51278600  0.64635000  0.54138200  1
  Te  Te0  1  0.58330300  0.83726100  0.80082600  1
  Te  Te1  1  0.71858000  0.52292100  0.41553800  1
  Te  Te2  1  0.28142000  0.47707900  0.58446200  1
  Te  Te3  1  0.52485600  0.21811400  0.62321900  1
  Te  Te4  1  0.78517700  0.55668200  0.65562000  1
  Te  Te5  1  0.47514400  0.78188600  0.37678100  1
  Te  Te6  1  0.41669700  0.16273900  0.19917400  1
  Te  Te7  1  0.21482300  0.44331800  0.34438000  1
  I  I0  1  0.79338200  0.89644700  0.63926600  1
  I  I1  1  0.15931400  0.65011900  0.15845400  1
  I  I2  1  0.20661800  0.10355300  0.36073400  1
  I  I3  1  0.66862000  0.23246400  0.10803600  1
  I  I4  1  0.70314100  0.74338400  0.24755300  1
  I  I5  1  0.29685900  0.25661600  0.75244700  1
  I  I6  1  0.86238800  0.80352500  0.97266500  1
  I  I7  1  0.84068600  0.34988100  0.84154600  1
  I  I8  1  0.27130200  0.81436600  0.56200600  1
  I  I9  1  0.13761200  0.19647500  0.02733500  1
  I  I10  1  0.33138000  0.76753600  0.89196400  1
  I  I11  1  0.72869800  0.18563400  0.43799400  1
loop_
_geom_bond_atom_site_label_1
_geom_bond_atom_site_label_2
_geom_bond_distance
_geom_bond_site_symmetry_2
Nb0 Te7 2.835753 1_555
Nb0 Te2 2.839150 1_555
Nb0 Te1 2.841073 1_555
Nb0 Te4 2.841670 1_555
Nb0 Te3 2.959175 1_555
Nb0 Te6 2.964619 1_555
Nb1 Te4 2.835753 1_555
Nb1 Te1 2.839150 1_555
Nb1 Te2 2.841073 1_555
Nb1 Te7 2.841670 1_555
Nb1 Te5 2.959175 1_555
Nb1 Te0 2.964619 1_555
Te1 Te4 2.712442 1_555
Te2 Te7 2.712442 1_555
I0 Nb1 3.003247 1_555
I0 Te5 3.158893 1_555
I0 Te0 3.199325 1_555
I1 Te5 2.843445 1_555
I2 Nb0 3.003247 1_555
I2 Te3 3.158893 1_555
I2 Te6 3.199325 1_555
I3 Te6 2.808862 1_555
I4 Te5 2.807887 1_555
I5 Te3 2.807887 1_555
I6 Te0 2.823672 1_555
I7 Te3 2.843445 1_555
I8 Nb1 2.990338 1_555
I8 Te5 3.182740 1_555
I8 Te0 3.188052 1_555
I9 Te6 2.823672 1_555
I10 Te0 2.808862 1_555
I11 Nb0 2.990338 1_555
I11 Te3 3.182740 1_555
I11 Te6 3.188052 1_555
