# generated using pymatgen
data_Ba13Dy8Zn4Pt4O37
_symmetry_space_group_name_H-M   'P 1'
_cell_length_a   13.68853112
_cell_length_b   13.68853112
_cell_length_c   13.68853112
_cell_angle_alpha   92.55331973
_cell_angle_beta   92.55331973
_cell_angle_gamma   155.63027609
_symmetry_Int_Tables_number   1
_chemical_formula_structural   Ba13Dy8Zn4Pt4O37
_chemical_formula_sum   'Ba13 Dy8 Zn4 Pt4 O37'
_cell_volume   1034.49482787
_cell_formula_units_Z   1
loop_
 _symmetry_equiv_pos_site_id
 _symmetry_equiv_pos_as_xyz
  1  'x, y, z'
loop_
 _atom_site_type_symbol
 _atom_site_label
 _atom_site_symmetry_multiplicity
 _atom_site_fract_x
 _atom_site_fract_y
 _atom_site_fract_z
 _atom_site_occupancy
  Ba  Ba0  1  0.20398900  0.07170600  0.27569500  1
  Ba  Ba1  1  0.98333000  0.60842000  0.59175000  1
  Ba  Ba2  1  0.63714400  0.43602800  0.07317300  1
  Ba  Ba3  1  0.60842000  0.01667000  0.62509000  1
  Ba  Ba4  1  0.01667000  0.39158000  0.40825000  1
  Ba  Ba5  1  0.36285600  0.56397200  0.92682700  1
  Ba  Ba6  1  0.43602800  0.36285600  0.79888400  1
  Ba  Ba7  1  0.56397200  0.63714400  0.20111600  1
  Ba  Ba8  1  0.92829400  0.20398900  0.13228400  1
  Ba  Ba9  1  0.39158000  0.98333000  0.37491000  1
  Ba  Ba10  1  0.00000000  0.00000000  0.00000000  1
  Ba  Ba11  1  0.07170600  0.79601100  0.86771600  1
  Ba  Ba12  1  0.79601100  0.92829400  0.72430500  1
  Dy  Dy0  1  0.69288200  0.23799100  0.93087300  1
  Dy  Dy1  1  0.81598800  0.37847900  0.19446700  1
  Dy  Dy2  1  0.37847900  0.18401200  0.56249100  1
  Dy  Dy3  1  0.30711800  0.76200900  0.06912700  1
  Dy  Dy4  1  0.23799100  0.30711800  0.54510800  1
  Dy  Dy5  1  0.62152100  0.81598800  0.43750900  1
  Dy  Dy6  1  0.18401200  0.62152100  0.80553300  1
  Dy  Dy7  1  0.76200900  0.69288200  0.45489200  1
  Zn  Zn0  1  0.21836000  0.89750500  0.11586500  1
  Zn  Zn1  1  0.10249500  0.21836000  0.32085500  1
  Zn  Zn2  1  0.78164000  0.10249500  0.88413500  1
  Zn  Zn3  1  0.89750500  0.78164000  0.67914500  1
  Pt  Pt0  1  0.46231600  0.79974200  0.26205700  1
  Pt  Pt1  1  0.79974200  0.53768400  0.33742600  1
  Pt  Pt2  1  0.20025800  0.46231600  0.66257400  1
  Pt  Pt3  1  0.53768400  0.20025800  0.73794300  1
  O  O0  1  0.58262400  0.30135400  0.88397700  1
  O  O1  1  0.52700200  0.22154800  0.23400300  1
  O  O2  1  0.10255200  0.51610400  0.61865600  1
  O  O3  1  0.48389600  0.10255200  0.58644700  1
  O  O4  1  0.06897600  0.85378700  0.43920300  1
  O  O5  1  0.01805200  0.42908500  0.94321600  1
  O  O6  1  0.77845200  0.01245500  0.30545400  1
  O  O7  1  0.98194800  0.57091500  0.05678400  1
  O  O8  1  0.89744800  0.48389600  0.38134400  1
  O  O9  1  0.93778600  0.87596800  0.81375400  1
  O  O10  1  0.07483500  0.01805200  0.58896600  1
  O  O11  1  0.47299800  0.77845200  0.76599700  1
  O  O12  1  0.41458400  0.62977300  0.56079700  1
  O  O13  1  0.58541600  0.37022700  0.43920300  1
  O  O14  1  0.51610400  0.89744800  0.41355300  1
  O  O15  1  0.87596800  0.06221400  0.93818300  1
  O  O16  1  0.14621300  0.58541600  0.21519000  1
  O  O17  1  0.70700100  0.47299800  0.69454600  1
  O  O18  1  0.57091500  0.51413100  0.58896600  1
  O  O19  1  0.85378700  0.41458400  0.78481000  1
  O  O20  1  0.22154800  0.98754500  0.69454600  1
  O  O21  1  0.06221400  0.12403200  0.18624600  1
  O  O22  1  0.62977300  0.06897600  0.21519000  1
  O  O23  1  0.41737600  0.69864600  0.11602300  1
  O  O24  1  0.51413100  0.92516500  0.94321600  1
  O  O25  1  0.69864600  0.58262400  0.28127000  1
  O  O26  1  0.37022700  0.93102400  0.78481000  1
  O  O27  1  0.98754500  0.29299900  0.76599700  1
  O  O28  1  0.01245500  0.70700100  0.23400300  1
  O  O29  1  0.42908500  0.48586900  0.41103400  1
  O  O30  1  0.48586900  0.07483500  0.05678400  1
  O  O31  1  0.50000000  0.50000000  0.00000000  1
  O  O32  1  0.93102400  0.14621300  0.56079700  1
  O  O33  1  0.29299900  0.52700200  0.30545400  1
  O  O34  1  0.12403200  0.93778600  0.06181700  1
  O  O35  1  0.92516500  0.98194800  0.41103400  1
  O  O36  1  0.30135400  0.41737600  0.71873000  1
loop_
_geom_bond_atom_site_label_1
_geom_bond_atom_site_label_2
_geom_bond_distance
_geom_bond_site_symmetry_2
Ba0 O28 2.808912 1_545
Ba0 O1 2.808912 1_555
Ba0 O21 2.859609 1_555
Ba0 O13 2.871094 1_555
Ba0 O4 2.871094 1_545
Ba0 O25 2.898332 1_555
Ba0 O25 2.898332 1_445
Ba0 O34 2.951402 1_545
Ba1 O20 2.767024 1_655
Ba1 O17 2.767024 1_555
Ba1 O2 2.853214 1_655
Ba1 O8 2.862348 1_555
Ba1 O3 2.891341 1_555
Ba1 O3 2.891347 1_665
Ba1 O19 3.104697 1_555
Ba1 O26 3.104700 1_655
Ba1 O4 3.268813 1_655
Ba1 O13 3.268813 1_555
Ba2 O0 2.749281 1_554
Ba2 O31 2.863538 1_555
Ba2 O34 2.900011 1_545
Ba2 O34 2.900023 1_655
Ba2 O1 2.923519 1_555
Ba2 O28 2.923522 1_655
Ba2 O25 3.008165 1_555
Ba2 O7 3.160896 1_555
Ba2 O30 3.160907 1_555
Ba3 O27 2.767024 1_555
Ba3 O11 2.767024 1_545
Ba3 O14 2.853200 1_545
Ba3 O3 2.862351 1_555
Ba3 O2 2.891344 1_655
Ba3 O2 2.891344 1_545
Ba3 O32 3.104710 1_555
Ba3 O12 3.104710 1_545
Ba3 O26 3.268803 1_545
Ba3 O19 3.268805 1_555
Ba4 O33 2.767024 1_555
Ba4 O6 2.767024 1_455
Ba4 O8 2.853214 1_455
Ba4 O2 2.862348 1_555
Ba4 O14 2.891341 1_555
Ba4 O14 2.891347 1_445
Ba4 O16 3.104697 1_555
Ba4 O22 3.104700 1_455
Ba4 O12 3.268813 1_555
Ba4 O32 3.268813 1_455
Ba5 O23 2.749281 1_556
Ba5 O31 2.863538 1_556
Ba5 O15 2.900011 1_565
Ba5 O15 2.900023 1_455
Ba5 O11 2.923519 1_555
Ba5 O27 2.923522 1_455
Ba5 O36 3.008165 1_555
Ba5 O5 3.160896 1_555
Ba5 O24 3.160907 1_555
Ba6 O36 2.749256 1_555
Ba6 O31 2.863533 1_556
Ba6 O9 2.900016 1_445
Ba6 O9 2.900016 1_555
Ba6 O20 2.923531 1_545
Ba6 O17 2.923531 1_555
Ba6 O0 3.008172 1_555
Ba6 O10 3.160907 1_555
Ba6 O18 3.160907 1_555
Ba7 O25 2.749256 1_555
Ba7 O31 2.863533 1_555
Ba7 O21 2.900016 1_555
Ba7 O21 2.900016 1_665
Ba7 O6 2.923531 1_565
Ba7 O33 2.923531 1_555
Ba7 O23 3.008172 1_555
Ba7 O35 3.160907 1_555
Ba7 O29 3.160907 1_555
Ba8 O6 2.808899 1_555
Ba8 O33 2.808902 1_655
Ba8 O15 2.859609 1_554
Ba8 O16 2.871094 1_655
Ba8 O22 2.871094 1_555
Ba8 O23 2.898332 1_655
Ba8 O23 2.898332 1_545
Ba8 O21 2.951386 1_655
Ba9 O1 2.767024 1_565
Ba9 O28 2.767024 1_555
Ba9 O3 2.853200 1_565
Ba9 O14 2.862351 1_555
Ba9 O8 2.891344 1_565
Ba9 O8 2.891344 1_455
Ba9 O4 3.104710 1_555
Ba9 O13 3.104710 1_565
Ba9 O22 3.268803 1_565
Ba9 O16 3.268805 1_555
Ba10 O34 2.625679 1_545
Ba10 O15 2.625679 1_454
Ba10 O21 2.625683 1_555
Ba10 O9 2.625683 1_444
Ba10 O31 2.889191 1_555
Ba10 O31 2.889191 1_445
Ba11 O20 2.808899 1_555
Ba11 O17 2.808902 1_455
Ba11 O34 2.859609 1_556
Ba11 O19 2.871094 1_455
Ba11 O26 2.871094 1_555
Ba11 O0 2.898332 1_565
Ba11 O0 2.898332 1_455
Ba11 O9 2.951386 1_455
Ba12 O11 2.808912 1_555
Ba12 O27 2.808912 1_565
Ba12 O9 2.859609 1_555
Ba12 O12 2.871094 1_555
Ba12 O32 2.871094 1_565
Ba12 O36 2.898332 1_665
Ba12 O36 2.898332 1_555
Ba12 O15 2.951402 1_565
Dy0 O30 2.288417 1_556
Dy0 O7 2.288419 1_556
Dy0 O24 2.316294 1_545
Dy0 O5 2.316306 1_655
Dy0 O0 2.406326 1_555
Dy0 O26 2.411514 1_545
Dy0 O19 2.411517 1_555
Dy1 O16 2.241526 1_655
Dy1 O22 2.241530 1_555
Dy1 O1 2.317115 1_555
Dy1 O28 2.317115 1_655
Dy1 O30 2.360830 1_555
Dy1 O7 2.360831 1_555
Dy1 O8 2.520905 1_555
Dy2 O4 2.241526 1_545
Dy2 O13 2.241526 1_555
Dy2 O20 2.317115 1_545
Dy2 O17 2.317115 1_555
Dy2 O18 2.360830 1_555
Dy2 O10 2.360839 1_555
Dy2 O3 2.520904 1_555
Dy3 O24 2.288417 1_554
Dy3 O5 2.288419 1_554
Dy3 O30 2.316294 1_565
Dy3 O7 2.316306 1_455
Dy3 O23 2.406326 1_555
Dy3 O22 2.411514 1_565
Dy3 O16 2.411517 1_555
Dy4 O10 2.288411 1_555
Dy4 O18 2.288419 1_555
Dy4 O29 2.316281 1_555
Dy4 O35 2.316288 1_445
Dy4 O36 2.406335 1_555
Dy4 O12 2.411504 1_555
Dy4 O32 2.411507 1_455
Dy5 O32 2.241526 1_565
Dy5 O12 2.241526 1_555
Dy5 O6 2.317115 1_565
Dy5 O33 2.317115 1_555
Dy5 O29 2.360830 1_555
Dy5 O35 2.360839 1_555
Dy5 O14 2.520904 1_555
Dy6 O19 2.241526 1_455
Dy6 O26 2.241530 1_555
Dy6 O27 2.317115 1_455
Dy6 O11 2.317115 1_555
Dy6 O24 2.360830 1_555
Dy6 O5 2.360831 1_555
Dy6 O2 2.520905 1_555
Dy7 O35 2.288411 1_555
Dy7 O29 2.288419 1_555
Dy7 O18 2.316281 1_555
Dy7 O10 2.316288 1_665
Dy7 O25 2.406335 1_555
Dy7 O13 2.411504 1_555
Dy7 O4 2.411507 1_655
O0 Pt3 2.093445 1_555
O1 Pt1 2.054090 1_555
O1 Zn0 2.179712 1_545
O2 Pt2 2.110471 1_555
O3 Pt3 2.110497 1_555
O4 Pt1 2.049300 1_455
O5 Zn2 2.049512 1_455
O6 Pt0 2.054092 1_545
O6 Zn1 2.179712 1_655
O7 Zn0 2.049512 1_655
O8 Pt1 2.110471 1_555
O9 Zn3 1.940844 1_555
O10 Zn3 2.049525 1_445
O11 Pt2 2.054090 1_555
O11 Zn2 2.179712 1_565
O12 Pt2 2.049300 1_555
O13 Pt1 2.049300 1_555
O14 Pt0 2.110497 1_555
O15 Zn2 1.940849 1_555
O16 Pt0 2.049296 1_555
O17 Pt3 2.054096 1_555
O17 Zn3 2.179712 1_555
O18 Zn3 2.049517 1_555
O19 Pt3 2.049296 1_555
O20 Pt3 2.054092 1_565
O20 Zn3 2.179712 1_455
O21 Zn1 1.940844 1_555
O22 Pt0 2.049288 1_545
O23 Pt0 2.093445 1_555
O24 Zn2 2.049517 1_565
O25 Pt1 2.093470 1_555
O26 Pt3 2.049288 1_565
O27 Pt2 2.054090 1_655
O27 Zn2 2.179712 1_555
O28 Pt1 2.054090 1_455
O28 Zn0 2.179712 1_555
O29 Zn1 2.049517 1_555
O30 Zn0 2.049517 1_545
O32 Pt2 2.049300 1_655
O33 Pt0 2.054096 1_555
O33 Zn1 2.179712 1_555
O34 Zn0 1.940849 1_555
O35 Zn1 2.049525 1_665
O36 Pt2 2.093470 1_555
