# generated using pymatgen
data_La3RuO7
_symmetry_space_group_name_H-M   'P 1'
_cell_length_a   5.69748922
_cell_length_b   8.84298322
_cell_length_c   12.54358683
_cell_angle_alpha   104.59894484
_cell_angle_beta   90.01148577
_cell_angle_gamma   90.00563774
_symmetry_Int_Tables_number   1
_chemical_formula_structural   La3RuO7
_chemical_formula_sum   'La12 Ru4 O28'
_cell_volume   611.57676734
_cell_formula_units_Z   4
loop_
 _symmetry_equiv_pos_site_id
 _symmetry_equiv_pos_as_xyz
  1  'x, y, z'
loop_
 _atom_site_type_symbol
 _atom_site_label
 _atom_site_symmetry_multiplicity
 _atom_site_fract_x
 _atom_site_fract_y
 _atom_site_fract_z
 _atom_site_occupancy
  La  La0  1  0.98159796  0.70353900  0.57292889  1
  La  La1  1  0.50898150  0.43115974  0.63276935  1
  La  La2  1  0.00896216  0.56884301  0.86723842  1
  La  La3  1  0.01840204  0.29646100  0.42707111  1
  La  La4  1  0.51841047  0.70353902  0.07293426  1
  La  La5  1  0.98334406  0.00157701  0.85977387  1
  La  La6  1  0.48332436  -0.00159116  0.64022523  1
  La  La7  1  0.99103784  0.43115699  0.13276158  1
  La  La8  1  0.48158953  0.29646098  0.92706574  1
  La  La9  1  0.51667564  0.00159116  0.35977477  1
  La  La10  1  0.49101850  0.56884026  0.36723065  1
  La  La11  1  0.01665594  -0.00157701  0.14022613  1
  Ru  Ru0  1  0.45351310  0.78524266  0.83176999  1
  Ru  Ru1  1  0.54648690  0.21475634  0.16823001  1
  Ru  Ru2  1  0.04649829  0.78523881  0.33177418  1
  Ru  Ru3  1  0.95350171  0.21476119  0.66822582  1
  O  O0  1  0.23852032  0.82906475  0.96569585  1
  O  O1  1  0.73975922  0.81020167  0.92247776  1
  O  O2  1  0.15034962  0.76099295  0.75328869  1
  O  O3  1  0.95079222  0.43434775  0.67549001  1
  O  O4  1  0.56660492  0.99264392  0.16967434  1
  O  O5  1  0.38493447  0.25226542  0.30753024  1
  O  O6  1  0.61506553  0.74773458  0.69246976  1
  O  O7  1  0.88492342  0.74772869  0.19245480  1
  O  O8  1  0.04920778  0.56565225  0.32450999  1
  O  O9  1  0.23972477  0.18981529  0.57754451  1
  O  O10  1  0.84965038  0.23900705  0.24671131  1
  O  O11  1  0.93338202  0.99264139  0.66967418  1
  O  O12  1  0.34962346  0.76098995  0.25328695  1
  O  O13  1  0.43339508  0.00735608  0.83032566  1
  O  O14  1  0.76027523  0.81018471  0.42245549  1
  O  O15  1  0.76147968  0.17093525  0.03430415  1
  O  O16  1  0.73849102  0.17092140  0.53429640  1
  O  O17  1  0.23987197  0.50732037  0.01031017  1
  O  O18  1  0.73987073  0.49266793  0.48968706  1
  O  O19  1  0.54922309  0.43435202  0.17549081  1
  O  O20  1  0.06661798  0.00735861  0.33032582  1
  O  O21  1  0.26150898  0.82907860  0.46570360  1
  O  O22  1  0.11507658  0.25227131  0.80754520  1
  O  O23  1  0.76012803  0.49267963  0.98968983  1
  O  O24  1  0.45077691  0.56564798  0.82450919  1
  O  O25  1  0.26024078  0.18979833  0.07752224  1
  O  O26  1  0.65037654  0.23901005  0.74671305  1
  O  O27  1  0.26012927  0.50733207  0.51031294  1
loop_
_geom_bond_atom_site_label_1
_geom_bond_atom_site_label_2
_geom_bond_distance
_geom_bond_site_symmetry_2
La0 O27 2.336606 1_655
La0 O18 2.341293 1_555
La0 O2 2.391737 1_655
La0 O21 2.517534 1_655
La0 O6 2.543268 1_555
La0 O11 2.553485 1_555
La0 O14 2.634124 1_555
La1 O27 2.311773 1_555
La1 O18 2.395923 1_555
La1 O24 2.422267 1_555
La1 O3 2.572185 1_555
La1 O9 2.577164 1_555
La1 O26 2.608263 1_555
La1 O16 2.664550 1_555
La1 O6 2.775931 1_555
La2 O23 2.311923 1_455
La2 O17 2.395598 1_556
La2 O3 2.422184 1_455
La2 O24 2.572443 1_555
La2 O1 2.577504 1_455
La2 O2 2.608379 1_555
La2 O0 2.664063 1_555
La2 O22 2.776127 1_555
La3 O18 2.336606 1_455
La3 O27 2.341293 1_555
La3 O10 2.391737 1_455
La3 O16 2.517534 1_455
La3 O5 2.543268 1_555
La3 O20 2.553485 1_555
La3 O9 2.634124 1_555
La4 O17 2.336271 1_555
La4 O23 2.341660 1_554
La4 O12 2.392144 1_555
La4 O0 2.517291 1_554
La4 O7 2.542479 1_555
La4 O4 2.553371 1_555
La4 O1 2.634378 1_554
La5 O11 2.382857 1_545
La5 O2 2.405008 1_645
La5 O1 2.465691 1_545
La5 O22 2.576647 1_655
La5 O13 2.593038 1_655
La5 O15 2.642389 1_556
La5 O0 2.688428 1_645
La6 O13 2.382937 1_555
La6 O26 2.404860 1_555
La6 O9 2.465816 1_555
La6 O6 2.576642 1_545
La6 O11 2.592935 1_545
La6 O21 2.641532 1_545
La6 O16 2.688581 1_555
La7 O17 2.311923 1_655
La7 O23 2.395598 1_554
La7 O8 2.422184 1_655
La7 O19 2.572443 1_555
La7 O25 2.577504 1_655
La7 O10 2.608379 1_555
La7 O15 2.664063 1_555
La7 O7 2.776127 1_555
La8 O23 2.336271 1_555
La8 O17 2.341660 1_556
La8 O26 2.392144 1_555
La8 O15 2.517291 1_556
La8 O22 2.542479 1_555
La8 O13 2.553371 1_555
La8 O25 2.634378 1_556
La9 O4 2.382937 1_545
La9 O12 2.404860 1_545
La9 O14 2.465816 1_545
La9 O5 2.576642 1_555
La9 O20 2.592935 1_555
La9 O16 2.641532 1_555
La9 O21 2.688581 1_545
La10 O18 2.311773 1_555
La10 O27 2.395923 1_555
La10 O19 2.422267 1_555
La10 O8 2.572185 1_555
La10 O14 2.577164 1_555
La10 O12 2.608263 1_555
La10 O21 2.664550 1_555
La10 O5 2.775931 1_555
La11 O20 2.382857 1_555
La11 O10 2.405008 1_455
La11 O25 2.465691 1_555
La11 O7 2.576647 1_445
La11 O4 2.593038 1_445
La11 O0 2.642389 1_544
La11 O15 2.688428 1_455
O0 Ru0 2.036037 1_555
O1 Ru0 1.968674 1_555
O2 Ru0 1.972661 1_555
O3 Ru3 1.920922 1_555
O4 Ru1 1.972126 1_565
O5 Ru1 1.928450 1_555
O6 Ru0 1.928450 1_555
O7 Ru2 1.928352 1_655
O8 Ru2 1.920922 1_555
O9 Ru3 1.968801 1_455
O10 Ru1 1.972661 1_555
O11 Ru3 1.972183 1_565
O12 Ru2 1.972888 1_555
O13 Ru0 1.972135 1_545
O14 Ru2 1.968801 1_655
O15 Ru1 2.036037 1_555
O16 Ru3 2.035679 1_555
O19 Ru1 1.921009 1_555
O20 Ru2 1.972183 1_545
O21 Ru2 2.035679 1_555
O22 Ru3 1.928352 1_455
O24 Ru0 1.921001 1_555
O25 Ru1 1.968675 1_555
O26 Ru3 1.972888 1_555
