# generated using pymatgen
data_Rb2BaNb2Se11
_symmetry_space_group_name_H-M   'P 1'
_cell_length_a   14.04128630
_cell_length_b   7.96267352
_cell_length_c   17.29234146
_cell_angle_alpha   83.39818674
_cell_angle_beta   90.00000000
_cell_angle_gamma   90.00000000
_symmetry_Int_Tables_number   1
_chemical_formula_structural   Rb2BaNb2Se11
_chemical_formula_sum   'Rb8 Ba4 Nb8 Se44'
_cell_volume   1920.57055237
_cell_formula_units_Z   4
loop_
 _symmetry_equiv_pos_site_id
 _symmetry_equiv_pos_as_xyz
  1  'x, y, z'
loop_
 _atom_site_type_symbol
 _atom_site_label
 _atom_site_symmetry_multiplicity
 _atom_site_fract_x
 _atom_site_fract_y
 _atom_site_fract_z
 _atom_site_occupancy
  Rb  Rb0  1  0.54163128  0.26395656  0.91565986  1
  Rb  Rb1  1  0.45836872  0.73604344  0.08434014  1
  Rb  Rb2  1  0.95836872  0.26395656  0.41565986  1
  Rb  Rb3  1  0.88244807  0.29456633  0.73274372  1
  Rb  Rb4  1  0.04163128  0.73604344  0.58434014  1
  Rb  Rb5  1  0.38244807  0.70543367  0.76725628  1
  Rb  Rb6  1  0.61755193  0.29456633  0.23274372  1
  Rb  Rb7  1  0.11755193  0.70543367  0.26725628  1
  Ba  Ba0  1  0.87885610  0.25042560  0.03207054  1
  Ba  Ba1  1  0.62114390  0.25042560  0.53207054  1
  Ba  Ba2  1  0.37885610  0.74957440  0.46792946  1
  Ba  Ba3  1  0.12114390  0.74957440  0.96792946  1
  Nb  Nb0  1  0.32767384  0.14396612  0.19524059  1
  Nb  Nb1  1  0.17232616  0.14396612  0.69524059  1
  Nb  Nb2  1  0.71619830  0.72152866  0.60458758  1
  Nb  Nb3  1  0.67232616  0.85603388  0.80475941  1
  Nb  Nb4  1  0.21619830  0.27847134  0.89541242  1
  Nb  Nb5  1  0.78380170  0.72152866  0.10458758  1
  Nb  Nb6  1  0.82767384  0.85603388  0.30475941  1
  Nb  Nb7  1  0.28380170  0.27847134  0.39541242  1
  Se  Se0  1  0.16147032  0.14527624  0.30435149  1
  Se  Se1  1  0.12285302  0.15951712  0.02475593  1
  Se  Se2  1  0.28364960  0.96041322  0.61238350  1
  Se  Se3  1  0.87714698  0.84048288  0.97524407  1
  Se  Se4  1  0.19214389  0.49484264  0.44476910  1
  Se  Se5  1  0.82417973  0.55823281  0.25069422  1
  Se  Se6  1  0.44773385  0.20449366  0.10172499  1
  Se  Se7  1  0.54396587  0.59849259  0.60545151  1
  Se  Se8  1  0.78364960  0.03958678  0.88761650  1
  Se  Se9  1  0.21635040  0.96041322  0.11238350  1
  Se  Se10  1  0.29472413  0.38263020  0.65576647  1
  Se  Se11  1  0.57319251  0.92508651  0.67588794  1
  Se  Se12  1  0.81425607  0.99150087  0.56645517  1
  Se  Se13  1  0.45603413  0.40150741  0.39454849  1
  Se  Se14  1  0.04396587  0.40150741  0.89454849  1
  Se  Se15  1  0.70527587  0.61736980  0.34423353  1
  Se  Se16  1  0.62285302  0.84048288  0.47524407  1
  Se  Se17  1  0.63580574  0.15995615  0.73507875  1
  Se  Se18  1  0.66147032  0.85472376  0.19564851  1
  Se  Se19  1  0.05226615  0.20449366  0.60172499  1
  Se  Se20  1  0.83852968  0.85472376  0.69564851  1
  Se  Se21  1  0.20527587  0.38263020  0.15576647  1
  Se  Se22  1  0.30785611  0.49484264  0.94476910  1
  Se  Se23  1  0.13580574  0.84004385  0.76492125  1
  Se  Se24  1  0.86419426  0.15995615  0.23507875  1
  Se  Se25  1  0.42680749  0.07491349  0.32411206  1
  Se  Se26  1  0.94773385  0.79550634  0.39827501  1
  Se  Se27  1  0.36419426  0.84004385  0.26492125  1
  Se  Se28  1  0.33852968  0.14527624  0.80435149  1
  Se  Se29  1  0.95603413  0.59849259  0.10545151  1
  Se  Se30  1  0.32417973  0.44176719  0.24930578  1
  Se  Se31  1  0.17582027  0.44176719  0.74930578  1
  Se  Se32  1  0.92680749  0.92508651  0.17588794  1
  Se  Se33  1  0.55226615  0.79550634  0.89827501  1
  Se  Se34  1  0.79472413  0.61736980  0.84423353  1
  Se  Se35  1  0.67582027  0.55823281  0.75069422  1
  Se  Se36  1  0.18574393  0.00849913  0.43354483  1
  Se  Se37  1  0.71635040  0.03958678  0.38761650  1
  Se  Se38  1  0.68574393  0.99150087  0.06645517  1
  Se  Se39  1  0.80785611  0.50515736  0.55523090  1
  Se  Se40  1  0.07319251  0.07491349  0.82411206  1
  Se  Se41  1  0.31425607  0.00849913  0.93354483  1
  Se  Se42  1  0.69214389  0.50515736  0.05523090  1
  Se  Se43  1  0.37714698  0.15951712  0.52475593  1
loop_
_geom_bond_atom_site_label_1
_geom_bond_atom_site_label_2
_geom_bond_distance
_geom_bond_site_symmetry_2
Rb0 Se6 3.458973 1_556
Rb0 Se17 3.574915 1_555
Rb0 Se28 3.626139 1_555
Rb0 Se41 3.779102 1_555
Rb0 Se33 3.779456 1_545
Rb0 Se38 3.781547 1_546
Rb0 Se22 3.823738 1_555
Rb0 Se42 3.878920 1_556
Rb0 Se8 3.895426 1_555
Rb0 Se35 3.954926 1_555
Rb1 Se33 3.458973 1_554
Rb1 Se27 3.574915 1_555
Rb1 Se18 3.626139 1_555
Rb1 Se38 3.779102 1_555
Rb1 Se6 3.779456 1_565
Rb1 Se41 3.781547 1_564
Rb1 Se42 3.823738 1_555
Rb1 Se22 3.878920 1_554
Rb1 Se9 3.895426 1_555
Rb1 Se30 3.954926 1_555
Rb2 Se19 3.458973 1_655
Rb2 Se24 3.574915 1_555
Rb2 Se0 3.626139 1_655
Rb2 Se36 3.779102 1_655
Rb2 Se26 3.779456 1_545
Rb2 Se12 3.781547 1_545
Rb2 Se4 3.823738 1_655
Rb2 Se39 3.878920 1_555
Rb2 Se37 3.895426 1_555
Rb2 Se5 3.954926 1_555
Rb3 Se19 3.421512 1_655
Rb3 Se8 3.459581 1_555
Rb3 Se40 3.477537 1_655
Rb3 Se39 3.485372 1_555
Rb3 Se34 3.602832 1_555
Rb3 Se35 3.615483 1_555
Rb3 Se17 3.624106 1_555
Rb3 Se20 3.684373 1_545
Rb3 Se14 3.774271 1_655
Rb4 Se26 3.458973 1_455
Rb4 Se23 3.574915 1_555
Rb4 Se20 3.626139 1_455
Rb4 Se12 3.779102 1_455
Rb4 Se19 3.779456 1_565
Rb4 Se36 3.781547 1_565
Rb4 Se39 3.823738 1_455
Rb4 Se4 3.878920 1_555
Rb4 Se2 3.895426 1_555
Rb4 Se31 3.954926 1_555
Rb5 Se33 3.421512 1_555
Rb5 Se2 3.459581 1_555
Rb5 Se11 3.477537 1_555
Rb5 Se22 3.485372 1_555
Rb5 Se10 3.602832 1_555
Rb5 Se31 3.615483 1_555
Rb5 Se23 3.624106 1_555
Rb5 Se28 3.684373 1_565
Rb5 Se7 3.774271 1_555
Rb6 Se6 3.421512 1_555
Rb6 Se37 3.459581 1_555
Rb6 Se25 3.477537 1_555
Rb6 Se42 3.485372 1_555
Rb6 Se15 3.602832 1_555
Rb6 Se5 3.615483 1_555
Rb6 Se24 3.624106 1_555
Rb6 Se18 3.684373 1_545
Rb6 Se13 3.774271 1_555
Rb7 Se26 3.421512 1_455
Rb7 Se9 3.459581 1_555
Rb7 Se32 3.477537 1_455
Rb7 Se4 3.485372 1_555
Rb7 Se21 3.602832 1_555
Rb7 Se30 3.615483 1_555
Rb7 Se27 3.624106 1_555
Rb7 Se0 3.684373 1_565
Rb7 Se29 3.774271 1_455
Ba0 Se29 3.357776 1_555
Ba0 Se42 3.366686 1_555
Ba0 Se38 3.416851 1_545
Ba0 Se8 3.436513 1_554
Ba0 Se14 3.437942 1_654
Ba0 Se32 3.444976 1_545
Ba0 Se1 3.506955 1_655
Ba0 Se24 3.507615 1_555
Ba0 Se3 3.515540 1_544
Ba1 Se7 3.357776 1_555
Ba1 Se39 3.366686 1_555
Ba1 Se12 3.416851 1_545
Ba1 Se37 3.436513 1_555
Ba1 Se13 3.437942 1_555
Ba1 Se11 3.444976 1_545
Ba1 Se43 3.506955 1_555
Ba1 Se17 3.507615 1_555
Ba1 Se16 3.515540 1_545
Ba2 Se13 3.357776 1_555
Ba2 Se4 3.366686 1_555
Ba2 Se36 3.416851 1_565
Ba2 Se2 3.436513 1_555
Ba2 Se7 3.437942 1_555
Ba2 Se25 3.444976 1_565
Ba2 Se16 3.506955 1_555
Ba2 Se27 3.507615 1_555
Ba2 Se43 3.515540 1_565
Ba3 Se14 3.357776 1_555
Ba3 Se22 3.366686 1_555
Ba3 Se41 3.416851 1_565
Ba3 Se9 3.436513 1_556
Ba3 Se29 3.437942 1_456
Ba3 Se40 3.444976 1_565
Ba3 Se3 3.506955 1_455
Ba3 Se23 3.507615 1_555
Ba3 Se1 3.515540 1_566
Nb0 Se6 2.347342 1_555
Nb0 Se21 2.594778 1_555
Nb0 Se27 2.626958 1_545
Nb0 Se25 2.631408 1_555
Nb0 Se30 2.647501 1_555
Nb0 Se9 2.667202 1_545
Nb0 Se0 3.001798 1_555
Nb1 Se19 2.347342 1_555
Nb1 Se10 2.594778 1_555
Nb1 Se23 2.626958 1_545
Nb1 Se40 2.631408 1_555
Nb1 Se31 2.647501 1_555
Nb1 Se2 2.667202 1_545
Nb1 Se28 3.001798 1_555
Nb2 Se39 2.385641 1_555
Nb2 Se12 2.574066 1_555
Nb2 Se7 2.608668 1_555
Nb2 Se20 2.634172 1_555
Nb2 Se16 2.670311 1_555
Nb2 Se35 2.764073 1_555
Nb2 Se11 2.939199 1_555
Nb3 Se33 2.347342 1_555
Nb3 Se34 2.594778 1_555
Nb3 Se17 2.626958 1_565
Nb3 Se11 2.631408 1_555
Nb3 Se35 2.647501 1_555
Nb3 Se8 2.667202 1_565
Nb3 Se20 3.001798 1_555
Nb4 Se22 2.385641 1_555
Nb4 Se41 2.574066 1_555
Nb4 Se14 2.608668 1_555
Nb4 Se28 2.634172 1_555
Nb4 Se1 2.670311 1_556
Nb4 Se31 2.764073 1_555
Nb4 Se40 2.939199 1_555
Nb5 Se42 2.385641 1_555
Nb5 Se38 2.574066 1_555
Nb5 Se29 2.608668 1_555
Nb5 Se18 2.634172 1_555
Nb5 Se3 2.670311 1_554
Nb5 Se5 2.764073 1_555
Nb5 Se32 2.939199 1_555
Nb6 Se26 2.347342 1_555
Nb6 Se15 2.594778 1_555
Nb6 Se24 2.626958 1_565
Nb6 Se32 2.631408 1_555
Nb6 Se5 2.647501 1_555
Nb6 Se37 2.667202 1_565
Nb6 Se18 3.001798 1_555
Nb7 Se4 2.385641 1_555
Nb7 Se36 2.574066 1_555
Nb7 Se13 2.608668 1_555
Nb7 Se0 2.634172 1_555
Nb7 Se43 2.670311 1_555
Nb7 Se30 2.764073 1_555
Nb7 Se25 2.939199 1_555
Se0 Se36 2.394549 1_555
Se1 Se9 2.445547 1_545
Se2 Se43 2.445547 1_565
Se3 Se8 2.445547 1_565
Se11 Se17 2.399657 1_565
Se12 Se20 2.394549 1_555
Se16 Se37 2.445547 1_565
Se18 Se38 2.394549 1_555
Se23 Se40 2.399657 1_565
Se24 Se32 2.399657 1_545
Se25 Se27 2.399657 1_545
Se28 Se41 2.394549 1_555
