# generated using pymatgen
data_CsLi3Cl4
_symmetry_space_group_name_H-M   'P 1'
_cell_length_a   15.66970412
_cell_length_b   15.66970412
_cell_length_c   5.07763300
_cell_angle_alpha   90.00000000
_cell_angle_beta   90.00000000
_cell_angle_gamma   162.45590369
_symmetry_Int_Tables_number   1
_chemical_formula_structural   CsLi3Cl4
_chemical_formula_sum   'Cs2 Li6 Cl8'
_cell_volume   375.82301418
_cell_formula_units_Z   2
loop_
 _symmetry_equiv_pos_site_id
 _symmetry_equiv_pos_as_xyz
  1  'x, y, z'
loop_
 _atom_site_type_symbol
 _atom_site_label
 _atom_site_symmetry_multiplicity
 _atom_site_fract_x
 _atom_site_fract_y
 _atom_site_fract_z
 _atom_site_occupancy
  Cs  Cs0  1  0.65160100  0.34839900  0.75000000  1
  Cs  Cs1  1  0.34839900  0.65160100  0.25000000  1
  Li  Li0  1  0.77450300  0.22549700  0.75000000  1
  Li  Li1  1  0.06765600  0.93234400  0.25000000  1
  Li  Li2  1  0.53080400  0.46919600  0.75000000  1
  Li  Li3  1  0.22549700  0.77450300  0.25000000  1
  Li  Li4  1  0.46919600  0.53080400  0.25000000  1
  Li  Li5  1  0.93234400  0.06765600  0.75000000  1
  Cl  Cl0  1  0.85198100  0.14801900  0.75000000  1
  Cl  Cl1  1  0.75192300  0.24807700  0.25000000  1
  Cl  Cl2  1  0.54634500  0.45365500  0.25000000  1
  Cl  Cl3  1  0.45365500  0.54634500  0.75000000  1
  Cl  Cl4  1  0.05464000  0.94536000  0.75000000  1
  Cl  Cl5  1  0.14801900  0.85198100  0.25000000  1
  Cl  Cl6  1  0.24807700  0.75192300  0.75000000  1
  Cl  Cl7  1  0.94536000  0.05464000  0.25000000  1
loop_
_geom_bond_atom_site_label_1
_geom_bond_atom_site_label_2
_geom_bond_distance
_geom_bond_site_symmetry_2
Cl0 Li0 2.399713 1_555
Cl0 Li5 2.489069 1_555
Cl0 Cs1 3.488339 1_546
Cl0 Cs1 3.488339 1_545
Cl0 Cs1 3.488339 1_656
Cl0 Cs1 3.488339 1_655
Cl1 Li3 2.525971 1_545
Cl1 Li3 2.525971 1_655
Cl1 Li0 2.633382 1_554
Cl1 Li0 2.633382 1_555
Cl2 Li4 2.389523 1_555
Cl2 Li1 2.479171 1_655
Cl2 Li1 2.479171 1_545
Cl2 Li2 2.584044 1_554
Cl2 Li2 2.584044 1_555
Cl3 Li2 2.389523 1_555
Cl3 Li5 2.479171 1_565
Cl3 Li5 2.479171 1_455
Cl3 Li4 2.584044 1_555
Cl3 Li4 2.584044 1_556
Cl4 Li2 2.501130 1_565
Cl4 Li2 2.501130 1_455
Cl4 Li1 2.570625 1_556
Cl4 Li1 2.570625 1_555
Cl5 Li3 2.399713 1_555
Cl5 Li1 2.489069 1_555
Cl5 Cs0 3.488339 1_455
Cl5 Cs0 3.488339 1_454
Cl5 Cs0 3.488339 1_564
Cl5 Cs0 3.488339 1_565
Cl6 Li0 2.525971 1_565
Cl6 Li0 2.525971 1_455
Cl6 Li3 2.633382 1_555
Cl6 Li3 2.633382 1_556
Cl7 Li4 2.501130 1_655
Cl7 Li4 2.501130 1_545
Cl7 Li5 2.570625 1_554
Cl7 Li5 2.570625 1_555
