# generated using pymatgen
data_Cs2U2Mo3O16
_symmetry_space_group_name_H-M   'P 1'
_cell_length_a   10.34783800
_cell_length_b   10.34783800
_cell_length_c   16.98591400
_cell_angle_alpha   90.00000000
_cell_angle_beta   90.00000000
_cell_angle_gamma   90.00000000
_symmetry_Int_Tables_number   1
_chemical_formula_structural   Cs2U2Mo3O16
_chemical_formula_sum   'Cs8 U8 Mo12 O64'
_cell_volume   1818.81347446
_cell_formula_units_Z   4
loop_
 _symmetry_equiv_pos_site_id
 _symmetry_equiv_pos_as_xyz
  1  'x, y, z'
loop_
 _atom_site_type_symbol
 _atom_site_label
 _atom_site_symmetry_multiplicity
 _atom_site_fract_x
 _atom_site_fract_y
 _atom_site_fract_z
 _atom_site_occupancy
  Cs  Cs0  1  0.50000000  0.00000000  0.84719000  1
  Cs  Cs1  1  0.50000000  0.00000000  0.34719000  1
  Cs  Cs2  1  0.00000000  0.50000000  0.15281000  1
  Cs  Cs3  1  0.50000000  0.50000000  0.24663900  1
  Cs  Cs4  1  0.00000000  0.00000000  0.25336100  1
  Cs  Cs5  1  0.50000000  0.50000000  0.75336100  1
  Cs  Cs6  1  0.00000000  0.00000000  0.74663900  1
  Cs  Cs7  1  0.00000000  0.50000000  0.65281000  1
  U  U0  1  0.29243700  0.19442100  0.08394600  1
  U  U1  1  0.70756300  0.80557900  0.08394600  1
  U  U2  1  0.79243700  0.69442100  0.41605400  1
  U  U3  1  0.69442100  0.20756300  0.58394600  1
  U  U4  1  0.20756300  0.30557900  0.41605400  1
  U  U5  1  0.80557900  0.29243700  0.91605400  1
  U  U6  1  0.30557900  0.79243700  0.58394600  1
  U  U7  1  0.19442100  0.70756300  0.91605400  1
  Mo  Mo0  1  0.84284900  0.33164400  0.38151900  1
  Mo  Mo1  1  0.65715100  0.16835600  0.11848100  1
  Mo  Mo2  1  0.15715100  0.66835600  0.38151900  1
  Mo  Mo3  1  0.33164400  0.15715100  0.61848100  1
  Mo  Mo4  1  0.34284900  0.83164400  0.11848100  1
  Mo  Mo5  1  0.83164400  0.65715100  0.88151900  1
  Mo  Mo6  1  0.50000000  0.50000000  0.50000000  1
  Mo  Mo7  1  0.50000000  0.50000000  0.00000000  1
  Mo  Mo8  1  0.16835600  0.34284900  0.88151900  1
  Mo  Mo9  1  0.00000000  0.00000000  0.50000000  1
  Mo  Mo10  1  0.66835600  0.84284900  0.61848100  1
  Mo  Mo11  1  0.00000000  0.00000000  0.00000000  1
  O  O0  1  0.23406400  0.79651900  0.33360500  1
  O  O1  1  0.48420700  0.23358600  0.64554600  1
  O  O2  1  0.20348100  0.23406400  0.66639500  1
  O  O3  1  0.89269800  0.36202900  0.99845300  1
  O  O4  1  0.69544500  0.82621300  0.51369200  1
  O  O5  1  0.98420700  0.73358600  0.85445400  1
  O  O6  1  0.61932000  0.42901700  0.93693100  1
  O  O7  1  0.66477300  0.01178500  0.65035500  1
  O  O8  1  0.77921900  0.71537400  0.16484900  1
  O  O9  1  0.72078100  0.78462600  0.33515100  1
  O  O10  1  0.26641400  0.98420700  0.14554600  1
  O  O11  1  0.23358600  0.51579300  0.35445400  1
  O  O12  1  0.32621300  0.80455500  0.01369200  1
  O  O13  1  0.36202900  0.10730200  0.00154700  1
  O  O14  1  0.57098300  0.61932000  0.06306900  1
  O  O15  1  0.86202900  0.60730200  0.49845300  1
  O  O16  1  0.76593600  0.20348100  0.33360500  1
  O  O17  1  0.38068000  0.57098300  0.93693100  1
  O  O18  1  0.83522700  0.48821500  0.84964500  1
  O  O19  1  0.70348100  0.73406400  0.83360500  1
  O  O20  1  0.38333700  0.57773600  0.56205000  1
  O  O21  1  0.11666300  0.92226400  0.93795000  1
  O  O22  1  0.98821500  0.66477300  0.34964500  1
  O  O23  1  0.21537400  0.72078100  0.66484900  1
  O  O24  1  0.29651900  0.26593600  0.83360500  1
  O  O25  1  0.60730200  0.13797100  0.50154700  1
  O  O26  1  0.82621300  0.30455500  0.48630800  1
  O  O27  1  0.22078100  0.28462600  0.16484900  1
  O  O28  1  0.67378700  0.19544500  0.01369200  1
  O  O29  1  0.07773600  0.11666300  0.06205000  1
  O  O30  1  0.42226400  0.38333700  0.43795000  1
  O  O31  1  0.27921900  0.21537400  0.33515100  1
  O  O32  1  0.42901700  0.38068000  0.06306900  1
  O  O33  1  0.63797100  0.89269800  0.00154700  1
  O  O34  1  0.39269800  0.86202900  0.50154700  1
  O  O35  1  0.07098300  0.11932000  0.43693100  1
  O  O36  1  0.88068000  0.07098300  0.56306900  1
  O  O37  1  0.16477300  0.51178500  0.84964500  1
  O  O38  1  0.79651900  0.76593600  0.66639500  1
  O  O39  1  0.01579300  0.26641400  0.85445400  1
  O  O40  1  0.80455500  0.67378700  0.98630800  1
  O  O41  1  0.01178500  0.33522700  0.34964500  1
  O  O42  1  0.11932000  0.92901700  0.56306900  1
  O  O43  1  0.48821500  0.16477300  0.15035500  1
  O  O44  1  0.73406400  0.29651900  0.16639500  1
  O  O45  1  0.88333700  0.07773600  0.93795000  1
  O  O46  1  0.26593600  0.70348100  0.16639500  1
  O  O47  1  0.51178500  0.83522700  0.15035500  1
  O  O48  1  0.33522700  0.98821500  0.65035500  1
  O  O49  1  0.19544500  0.32621300  0.98630800  1
  O  O50  1  0.51579300  0.76641400  0.64554600  1
  O  O51  1  0.78462600  0.27921900  0.66484900  1
  O  O52  1  0.76641400  0.48420700  0.35445400  1
  O  O53  1  0.92226400  0.88333700  0.06205000  1
  O  O54  1  0.92901700  0.88068000  0.43693100  1
  O  O55  1  0.30455500  0.17378700  0.51369200  1
  O  O56  1  0.28462600  0.77921900  0.83515100  1
  O  O57  1  0.57773600  0.61666300  0.43795000  1
  O  O58  1  0.10730200  0.63797100  0.99845300  1
  O  O59  1  0.71537400  0.22078100  0.83515100  1
  O  O60  1  0.73358600  0.01579300  0.14554600  1
  O  O61  1  0.17378700  0.69544500  0.48630800  1
  O  O62  1  0.61666300  0.42226400  0.56205000  1
  O  O63  1  0.13797100  0.39269800  0.49845300  1
loop_
_geom_bond_atom_site_label_1
_geom_bond_atom_site_label_2
_geom_bond_distance
_geom_bond_site_symmetry_2
Cs0 O13 3.185204 1_556
Cs0 O33 3.185204 1_546
Cs0 O59 3.198147 1_555
Cs0 O56 3.198147 1_545
Cs0 O19 3.472679 1_545
Cs0 O24 3.472679 1_555
Cs0 O7 3.755066 1_555
Cs0 O48 3.755066 1_545
Cs1 O34 3.185204 1_545
Cs1 O25 3.185204 1_555
Cs1 O31 3.198147 1_555
Cs1 O9 3.198147 1_545
Cs1 O16 3.472679 1_555
Cs1 O0 3.472679 1_545
Cs1 O47 3.755066 1_545
Cs1 O43 3.755066 1_555
Cs2 O58 3.185204 1_554
Cs2 O3 3.185204 1_454
Cs2 O8 3.198147 1_455
Cs2 O27 3.198147 1_555
Cs2 O44 3.472679 1_455
Cs2 O46 3.472679 1_555
Cs2 O22 3.755066 1_455
Cs2 O41 3.755066 1_555
Cs3 O11 3.313683 1_555
Cs3 O52 3.313683 1_555
Cs3 O14 3.433160 1_555
Cs3 O32 3.433160 1_555
Cs3 O46 3.486786 1_555
Cs3 O44 3.486786 1_555
Cs3 O57 3.558688 1_555
Cs3 O30 3.558688 1_555
Cs4 O10 3.313683 1_545
Cs4 O60 3.313683 1_455
Cs4 O54 3.433160 1_445
Cs4 O35 3.433160 1_555
Cs4 O0 3.486786 1_545
Cs4 O16 3.486786 1_455
Cs4 O29 3.558688 1_555
Cs4 O53 3.558688 1_445
Cs5 O50 3.313683 1_555
Cs5 O1 3.313683 1_555
Cs5 O17 3.433160 1_555
Cs5 O6 3.433160 1_555
Cs5 O24 3.486786 1_555
Cs5 O19 3.486786 1_555
Cs5 O62 3.558688 1_555
Cs5 O20 3.558688 1_555
Cs6 O5 3.313683 1_445
Cs6 O39 3.313683 1_555
Cs6 O42 3.433160 1_545
Cs6 O36 3.433160 1_455
Cs6 O2 3.486786 1_555
Cs6 O38 3.486786 1_445
Cs6 O45 3.558688 1_455
Cs6 O21 3.558688 1_545
Cs7 O15 3.185204 1_455
Cs7 O63 3.185204 1_555
Cs7 O51 3.198147 1_455
Cs7 O23 3.198147 1_555
Cs7 O2 3.472679 1_555
Cs7 O38 3.472679 1_455
Cs7 O18 3.755066 1_455
Cs7 O37 3.755066 1_555
Mo0 O16 1.747752 1_555
Mo0 O26 1.810079 1_555
Mo0 O52 1.824613 1_555
Mo0 O41 1.830418 1_655
Mo1 O44 1.747752 1_555
Mo1 O28 1.810079 1_555
Mo1 O60 1.824613 1_555
Mo1 O43 1.830418 1_555
Mo2 O0 1.747752 1_555
Mo2 O61 1.810079 1_555
Mo2 O11 1.824613 1_555
Mo2 O22 1.830418 1_455
Mo3 O2 1.747752 1_555
Mo3 O55 1.810079 1_555
Mo3 O1 1.824613 1_555
Mo3 O48 1.830418 1_545
Mo4 O46 1.747752 1_555
Mo4 O12 1.810079 1_555
Mo4 O10 1.824613 1_555
Mo4 O47 1.830418 1_555
Mo5 O19 1.747752 1_555
Mo5 O40 1.810079 1_555
Mo5 O5 1.824613 1_555
Mo5 O18 1.830418 1_555
Mo6 O57 1.793120 1_555
Mo6 O30 1.793120 1_555
Mo6 O62 1.793120 1_555
Mo6 O20 1.793120 1_555
Mo7 O14 1.792112 1_555
Mo7 O32 1.792112 1_555
Mo7 O17 1.792112 1_554
Mo7 O6 1.792112 1_554
Mo8 O24 1.747752 1_555
Mo8 O49 1.810079 1_555
Mo8 O39 1.824613 1_555
Mo8 O37 1.830418 1_555
Mo9 O35 1.792112 1_555
Mo9 O54 1.792112 1_445
Mo9 O36 1.792112 1_455
Mo9 O42 1.792112 1_545
Mo10 O38 1.747752 1_555
Mo10 O4 1.810079 1_555
Mo10 O50 1.824613 1_555
Mo10 O7 1.830418 1_565
Mo11 O53 1.793120 1_445
Mo11 O29 1.793120 1_555
Mo11 O45 1.793120 1_454
Mo11 O21 1.793120 1_544
O1 U3 2.428803 1_555
O3 U5 1.813895 1_555
O4 U2 2.370169 1_555
O5 U7 2.428803 1_655
O6 U5 2.416190 1_555
O7 U3 2.338959 1_555
O8 U1 1.819215 1_555
O9 U2 1.819215 1_555
O10 U0 2.428803 1_565
O11 U4 2.428803 1_555
O12 U7 2.370169 1_554
O13 U0 1.813895 1_555
O14 U1 2.416190 1_555
O15 U2 1.813895 1_555
O17 U7 2.416190 1_555
O18 U5 2.338959 1_555
O20 U6 2.392000 1_555
O21 U7 2.392000 1_555
O22 U2 2.338959 1_555
O23 U6 1.819215 1_555
O25 U3 1.813895 1_555
O26 U3 2.370169 1_555
O27 U0 1.819215 1_555
O28 U5 2.370169 1_554
O29 U0 2.392000 1_555
O30 U4 2.392000 1_555
O31 U4 1.819215 1_555
O32 U0 2.416190 1_555
O33 U1 1.813895 1_555
O34 U6 1.813895 1_555
O35 U4 2.416190 1_555
O36 U3 2.416190 1_555
O37 U7 2.338959 1_555
O39 U5 2.428803 1_455
O40 U1 2.370169 1_556
O41 U4 2.338959 1_555
O42 U6 2.416190 1_555
O43 U0 2.338959 1_555
O45 U5 2.392000 1_555
O47 U1 2.338959 1_555
O48 U6 2.338959 1_555
O49 U0 2.370169 1_556
O50 U6 2.428803 1_555
O51 U3 1.819215 1_555
O52 U2 2.428803 1_555
O53 U1 2.392000 1_555
O54 U2 2.416190 1_555
O55 U4 2.370169 1_555
O56 U7 1.819215 1_555
O57 U2 2.392000 1_555
O58 U7 1.813895 1_555
O59 U5 1.819215 1_555
O60 U1 2.428803 1_545
O61 U6 2.370169 1_555
O62 U3 2.392000 1_555
O63 U4 1.813895 1_555
