# generated using pymatgen
data_Li4CO4
_symmetry_space_group_name_H-M   'P 1'
_cell_length_a   4.88438900
_cell_length_b   5.07559000
_cell_length_c   5.89025700
_cell_angle_alpha   90.00000000
_cell_angle_beta   90.00000000
_cell_angle_gamma   90.00000000
_symmetry_Int_Tables_number   1
_chemical_formula_structural   Li4CO4
_chemical_formula_sum   'Li8 C2 O8'
_cell_volume   146.02627996
_cell_formula_units_Z   2
loop_
 _symmetry_equiv_pos_site_id
 _symmetry_equiv_pos_as_xyz
  1  'x, y, z'
loop_
 _atom_site_type_symbol
 _atom_site_label
 _atom_site_symmetry_multiplicity
 _atom_site_fract_x
 _atom_site_fract_y
 _atom_site_fract_z
 _atom_site_occupancy
  Li  Li0  1  0.59018000  0.43127600  0.29963200  1
  Li  Li1  1  0.09018000  0.56872400  0.79963200  1
  Li  Li2  1  0.59018000  0.43127600  0.70036800  1
  Li  Li3  1  0.97466800  0.08271500  0.00000000  1
  Li  Li4  1  0.96610800  0.90539700  0.50000000  1
  Li  Li5  1  0.46610800  0.09460300  0.00000000  1
  Li  Li6  1  0.47466800  0.91728500  0.50000000  1
  Li  Li7  1  0.09018000  0.56872400  0.20036800  1
  C  C0  1  0.65838000  0.68951600  0.00000000  1
  C  C1  1  0.15838000  0.31048400  0.50000000  1
  O  O0  1  0.76214300  0.81838500  0.80274200  1
  O  O1  1  0.37595400  0.69075200  0.00000000  1
  O  O2  1  0.26214300  0.18161500  0.30274200  1
  O  O3  1  0.26296700  0.57933200  0.50000000  1
  O  O4  1  0.76214300  0.81838500  0.19725800  1
  O  O5  1  0.76296700  0.42066800  0.00000000  1
  O  O6  1  0.26214300  0.18161500  0.69725800  1
  O  O7  1  0.87595400  0.30924800  0.50000000  1
loop_
_geom_bond_atom_site_label_1
_geom_bond_atom_site_label_2
_geom_bond_distance
_geom_bond_site_symmetry_2
Li0 O7 1.929993 1_555
Li0 O5 1.957057 1_555
Li0 O2 2.042868 1_555
Li0 O3 2.124143 1_555
Li0 O4 2.220264 1_555
Li1 O1 1.929993 1_556
Li1 O3 1.957057 1_555
Li1 O0 2.042868 1_455
Li1 O5 2.124143 1_456
Li1 O6 2.220264 1_555
Li2 O7 1.929993 1_555
Li2 O5 1.957057 1_556
Li2 O6 2.042868 1_555
Li2 O3 2.124143 1_555
Li2 O0 2.220264 1_555
Li3 O5 2.002875 1_555
Li3 O0 2.056099 1_544
Li3 O4 2.056099 1_545
Li3 O6 2.324541 1_654
Li3 O2 2.324541 1_655
Li4 O0 2.089844 1_555
Li4 O4 2.089844 1_555
Li4 O7 2.096548 1_565
Li4 O3 2.200309 1_655
Li4 O2 2.325146 1_665
Li4 O6 2.325146 1_665
Li5 O6 2.089844 1_554
Li5 O2 2.089844 1_555
Li5 O1 2.096548 1_545
Li5 O5 2.200309 1_555
Li5 O0 2.325146 1_544
Li5 O4 2.325146 1_545
Li6 O3 2.002875 1_555
Li6 O2 2.056099 1_565
Li6 O6 2.056099 1_565
Li6 O0 2.324541 1_555
Li6 O4 2.324541 1_555
Li7 O1 1.929993 1_555
Li7 O3 1.957057 1_555
Li7 O4 2.042868 1_455
Li7 O5 2.124143 1_455
Li7 O2 2.220264 1_555
C0 O1 1.379493 1_555
C0 O4 1.426431 1_555
C0 O0 1.426431 1_554
C0 O5 1.457049 1_555
C1 O7 1.379493 1_455
C1 O2 1.426431 1_555
C1 O6 1.426431 1_555
C1 O3 1.457049 1_555
