# generated using pymatgen
data_Sn3PO4F3
_symmetry_space_group_name_H-M   'P 1'
_cell_length_a   7.19990350
_cell_length_b   7.19990350
_cell_length_c   7.19990343
_cell_angle_alpha   115.37341955
_cell_angle_beta   115.37341955
_cell_angle_gamma   115.37341770
_symmetry_Int_Tables_number   1
_chemical_formula_structural   Sn3PO4F3
_chemical_formula_sum   'Sn3 P1 O4 F3'
_cell_volume   201.59721973
_cell_formula_units_Z   1
loop_
 _symmetry_equiv_pos_site_id
 _symmetry_equiv_pos_as_xyz
  1  'x, y, z'
loop_
 _atom_site_type_symbol
 _atom_site_label
 _atom_site_symmetry_multiplicity
 _atom_site_fract_x
 _atom_site_fract_y
 _atom_site_fract_z
 _atom_site_occupancy
  Sn  Sn0  1  0.72331800  0.37159000  0.37252600  1
  Sn  Sn1  1  0.37159000  0.37252600  0.72331800  1
  Sn  Sn2  1  0.37252600  0.72331800  0.37159000  1
  P  P0  1  0.99140700  0.99140700  0.99140700  1
  O  O0  1  0.32538100  0.32538100  0.32538100  1
  O  O1  1  0.03564700  0.82459600  0.82482900  1
  O  O2  1  0.82482900  0.03564700  0.82459600  1
  O  O3  1  0.82459600  0.82482900  0.03564700  1
  F  F0  1  0.17549300  0.63885700  0.51535800  1
  F  F1  1  0.63885700  0.51535800  0.17549300  1
  F  F2  1  0.51535800  0.17549300  0.63885700  1
loop_
_geom_bond_atom_site_label_1
_geom_bond_atom_site_label_2
_geom_bond_distance
_geom_bond_site_symmetry_2
O0 P0 1.574778 1_444
O0 Sn1 2.586027 1_555
O0 Sn0 2.586027 1_555
O0 Sn2 2.586027 1_555
O1 P0 1.550195 1_455
O1 Sn0 2.152879 1_455
O2 P0 1.550195 1_545
O2 Sn2 2.152879 1_545
O3 P0 1.550195 1_554
O3 Sn1 2.152879 1_554
F0 Sn2 2.124233 1_555
F0 Sn0 2.329180 1_455
F1 Sn0 2.124233 1_555
F1 Sn1 2.329180 1_554
F2 Sn1 2.124233 1_555
F2 Sn2 2.329180 1_545
