# generated using pymatgen
data_Ge8Pd21
_symmetry_space_group_name_H-M   'P 1'
_cell_length_a   9.99900025
_cell_length_b   10.52585394
_cell_length_c   10.52456098
_cell_angle_alpha   76.95796383
_cell_angle_beta   61.64474194
_cell_angle_gamma   61.63841970
_symmetry_Int_Tables_number   1
_chemical_formula_structural   Ge8Pd21
_chemical_formula_sum   'Ge16 Pd42'
_cell_volume   857.78183490
_cell_formula_units_Z   2
loop_
 _symmetry_equiv_pos_site_id
 _symmetry_equiv_pos_as_xyz
  1  'x, y, z'
loop_
 _atom_site_type_symbol
 _atom_site_label
 _atom_site_symmetry_multiplicity
 _atom_site_fract_x
 _atom_site_fract_y
 _atom_site_fract_z
 _atom_site_occupancy
  Ge  Ge0  1  0.56708245  0.03029205  0.77810231  1
  Ge  Ge1  1  0.72622621  0.64367830  0.55011585  1
  Ge  Ge2  1  0.65484761  0.27807753  0.96973379  1
  Ge  Ge3  1  0.43291755  0.96970795  0.22189769  1
  Ge  Ge4  1  0.08009614  0.14354723  0.05017119  1
  Ge  Ge5  1  0.13012413  0.44978252  0.14360110  1
  Ge  Ge6  1  0.86987587  0.55021748  0.85639890  1
  Ge  Ge7  1  0.91990386  0.85645177  0.94982881  1
  Ge  Ge8  1  0.27644269  0.94976497  0.64355057  1
  Ge  Ge9  1  0.09726071  0.77816583  0.46984631  1
  Ge  Ge10  1  0.27377379  0.35632170  0.44988415  1
  Ge  Ge11  1  0.72355731  0.05023503  0.35644943  1
  Ge  Ge12  1  0.34515239  0.72192247  0.03026621  1
  Ge  Ge13  1  0.37551633  0.46977154  0.72183594  1
  Ge  Ge14  1  0.62448367  0.53022846  0.27816406  1
  Ge  Ge15  1  0.90273929  0.22183417  0.53015369  1
  Pd  Pd0  1  0.01823251  0.40551961  0.41197755  1
  Pd  Pd1  1  0.83158247  0.23130866  0.32618219  1
  Pd  Pd2  1  0.15777641  0.17388043  0.23124304  1
  Pd  Pd3  1  0.38893273  0.26881118  0.17394865  1
  Pd  Pd4  1  0.56983394  0.91196438  0.59445331  1
  Pd  Pd5  1  0.60598655  0.51626331  0.04381092  1
  Pd  Pd6  1  0.93276190  0.28549598  0.89296154  1
  Pd  Pd7  1  0.83388075  0.01629611  0.54391930  1
  Pd  Pd8  1  0.17427246  0.39300080  0.71447990  1
  Pd  Pd9  1  0.23595286  0.55945509  0.27493804  1
  Pd  Pd10  1  0.39401345  0.48373669  0.95618908  1
  Pd  Pd11  1  0.29556415  0.27478076  0.94050246  1
  Pd  Pd12  1  0.51082995  0.22509193  0.55950957  1
  Pd  Pd13  1  0.43713170  0.67388589  0.73123135  1
  Pd  Pd14  1  0.92969356  0.05930441  0.77465282  1
  Pd  Pd15  1  0.88870060  0.78566734  0.39303570  1
  Pd  Pd16  1  0.28176945  0.10683994  0.78559449  1
  Pd  Pd17  1  0.92368706  0.41194694  0.09444741  1
  Pd  Pd18  1  0.98176749  0.59448039  0.58802245  1
  Pd  Pd19  1  0.35016386  0.54378613  0.48376991  1
  Pd  Pd20  1  0.76404714  0.44054491  0.72506196  1
  Pd  Pd21  1  0.64983614  0.45621387  0.51623009  1
  Pd  Pd22  1  0.71823055  0.89316006  0.21440451  1
  Pd  Pd23  1  0.84222359  0.82611957  0.76875696  1
  Pd  Pd24  1  0.06723810  0.71450402  0.10703846  1
  Pd  Pd25  1  0.61106727  0.73118882  0.82605135  1
  Pd  Pd26  1  0.83580692  0.09450943  0.08809593  1
  Pd  Pd27  1  0.16419308  0.90549057  0.91190407  1
  Pd  Pd28  1  0.62505401  0.25005808  0.74991551  1
  Pd  Pd29  1  0.16611925  0.98370389  0.45608070  1
  Pd  Pd30  1  0.37788471  0.95598926  0.01627848  1
  Pd  Pd31  1  0.70443585  0.72521924  0.05949754  1
  Pd  Pd32  1  0.56286830  0.32611411  0.26876865  1
  Pd  Pd33  1  0.62211529  0.04401074  0.98372152  1
  Pd  Pd34  1  0.07030644  0.94069559  0.22534718  1
  Pd  Pd35  1  0.11129940  0.21433266  0.60696430  1
  Pd  Pd36  1  0.07631194  0.58805306  0.90555259  1
  Pd  Pd37  1  0.16841753  0.76869134  0.67381781  1
  Pd  Pd38  1  0.43016606  0.08803562  0.40554669  1
  Pd  Pd39  1  0.37494599  0.74994192  0.25008449  1
  Pd  Pd40  1  0.48916905  0.77490807  0.44049043  1
  Pd  Pd41  1  0.82572754  0.60699920  0.28552010  1
loop_
_geom_bond_atom_site_label_1
_geom_bond_atom_site_label_2
_geom_bond_distance
_geom_bond_site_symmetry_2
Ge0 Pd4 2.508242 1_545
Ge0 Pd33 2.520800 1_555
Ge0 Pd23 2.533409 1_545
Ge0 Pd16 2.534815 1_555
Ge0 Pd30 2.547647 1_546
Ge0 Pd28 2.564350 1_555
Ge0 Pd7 2.599625 1_555
Ge0 Pd12 2.796030 1_555
Ge0 Pd11 2.802567 1_555
Ge0 Pd25 2.922027 1_545
Ge1 Pd20 2.494235 1_555
Ge1 Pd15 2.499308 1_555
Ge1 Pd13 2.501380 1_555
Ge1 Pd4 2.518705 1_555
Ge1 Pd41 2.526333 1_555
Ge1 Pd18 2.563997 1_555
Ge1 Pd21 2.571483 1_555
Ge1 Pd0 2.753504 1_655
Ge1 Pd40 2.761414 1_555
Ge1 Pd25 2.762502 1_555
Ge2 Pd26 2.508442 1_556
Ge2 Pd10 2.521600 1_555
Ge2 Pd3 2.534187 1_556
Ge2 Pd6 2.534948 1_555
Ge2 Pd5 2.547306 1_556
Ge2 Pd28 2.563991 1_555
Ge2 Pd33 2.599135 1_555
Ge2 Pd14 2.798660 1_555
Ge2 Pd20 2.804177 1_555
Ge2 Pd32 2.921206 1_556
Ge3 Pd38 2.508242 1_565
Ge3 Pd30 2.520800 1_555
Ge3 Pd2 2.533409 1_565
Ge3 Pd22 2.534811 1_555
Ge3 Pd33 2.547647 1_564
Ge3 Pd39 2.564350 1_555
Ge3 Pd29 2.599625 1_555
Ge3 Pd40 2.796027 1_555
Ge3 Pd31 2.802567 1_555
Ge3 Pd3 2.922027 1_565
Ge4 Pd34 2.493615 1_545
Ge4 Pd6 2.499726 1_454
Ge4 Pd2 2.500636 1_555
Ge4 Pd17 2.519651 1_455
Ge4 Pd16 2.526082 1_554
Ge4 Pd26 2.563406 1_455
Ge4 Pd30 2.571936 1_545
Ge4 Pd27 2.754095 1_544
Ge4 Pd11 2.761856 1_554
Ge4 Pd1 2.764090 1_455
Ge5 Pd11 2.494385 1_554
Ge5 Pd41 2.499073 1_455
Ge5 Pd3 2.500916 1_555
Ge5 Pd0 2.519211 1_555
Ge5 Pd24 2.527626 1_555
Ge5 Pd17 2.564236 1_455
Ge5 Pd10 2.571912 1_554
Ge5 Pd36 2.752331 1_554
Ge5 Pd2 2.762511 1_555
Ge5 Pd9 2.762816 1_555
Ge6 Pd31 2.494385 1_556
Ge6 Pd8 2.499073 1_655
Ge6 Pd25 2.500916 1_555
Ge6 Pd18 2.519211 1_555
Ge6 Pd6 2.527626 1_555
Ge6 Pd36 2.564226 1_655
Ge6 Pd5 2.571912 1_556
Ge6 Pd17 2.752327 1_556
Ge6 Pd23 2.762511 1_555
Ge6 Pd20 2.762816 1_555
Ge7 Pd14 2.493622 1_565
Ge7 Pd24 2.499724 1_656
Ge7 Pd23 2.500631 1_555
Ge7 Pd36 2.519642 1_655
Ge7 Pd22 2.526075 1_556
Ge7 Pd27 2.563412 1_655
Ge7 Pd33 2.571938 1_565
Ge7 Pd26 2.754104 1_566
Ge7 Pd31 2.761848 1_556
Ge7 Pd37 2.764088 1_655
Ge8 Pd40 2.493411 1_555
Ge8 Pd16 2.499223 1_565
Ge8 Pd37 2.501180 1_555
Ge8 Pd27 2.519019 1_555
Ge8 Pd35 2.526107 1_565
Ge8 Pd4 2.564250 1_555
Ge8 Pd29 2.571434 1_555
Ge8 Pd38 2.752832 1_565
Ge8 Pd14 2.762282 1_465
Ge8 Pd13 2.762562 1_555
Ge9 Pd18 2.508064 1_455
Ge9 Pd29 2.520835 1_555
Ge9 Pd37 2.532059 1_555
Ge9 Pd15 2.534695 1_455
Ge9 Pd7 2.546817 1_465
Ge9 Pd39 2.563889 1_555
Ge9 Pd19 2.600813 1_555
Ge9 Pd9 2.797665 1_555
Ge9 Pd34 2.802641 1_555
Ge9 Pd23 2.920283 1_455
Ge10 Pd9 2.494235 1_555
Ge10 Pd35 2.499308 1_555
Ge10 Pd32 2.501380 1_555
Ge10 Pd38 2.518705 1_555
Ge10 Pd8 2.526333 1_555
Ge10 Pd0 2.563997 1_555
Ge10 Pd19 2.571483 1_555
Ge10 Pd18 2.753504 1_455
Ge10 Pd12 2.761406 1_555
Ge10 Pd3 2.762502 1_555
Ge11 Pd12 2.493412 1_555
Ge11 Pd22 2.499231 1_545
Ge11 Pd1 2.501180 1_555
Ge11 Pd26 2.519019 1_555
Ge11 Pd15 2.526107 1_545
Ge11 Pd38 2.564250 1_555
Ge11 Pd7 2.571434 1_555
Ge11 Pd4 2.752832 1_545
Ge11 Pd34 2.762282 1_645
Ge11 Pd32 2.762562 1_555
Ge12 Pd27 2.508442 1_554
Ge12 Pd5 2.521600 1_555
Ge12 Pd25 2.534187 1_554
Ge12 Pd24 2.534948 1_555
Ge12 Pd10 2.547306 1_554
Ge12 Pd39 2.563991 1_555
Ge12 Pd30 2.599135 1_555
Ge12 Pd34 2.798660 1_555
Ge12 Pd9 2.804177 1_555
Ge12 Pd13 2.921206 1_554
Ge13 Pd36 2.508421 1_555
Ge13 Pd21 2.521124 1_555
Ge13 Pd13 2.533105 1_555
Ge13 Pd8 2.535577 1_555
Ge13 Pd19 2.546298 1_555
Ge13 Pd28 2.563417 1_555
Ge13 Pd10 2.600391 1_555
Ge13 Pd11 2.797748 1_555
Ge13 Pd12 2.803908 1_555
Ge13 Pd37 2.920535 1_555
Ge14 Pd17 2.508415 1_555
Ge14 Pd19 2.521124 1_555
Ge14 Pd32 2.533105 1_555
Ge14 Pd41 2.535577 1_555
Ge14 Pd21 2.546298 1_555
Ge14 Pd39 2.563417 1_555
Ge14 Pd5 2.600391 1_555
Ge14 Pd31 2.797748 1_555
Ge14 Pd40 2.803906 1_555
Ge14 Pd1 2.920535 1_555
Ge15 Pd0 2.508064 1_655
Ge15 Pd7 2.520835 1_555
Ge15 Pd1 2.532059 1_555
Ge15 Pd35 2.534695 1_655
Ge15 Pd29 2.546817 1_645
Ge15 Pd28 2.563889 1_555
Ge15 Pd21 2.600813 1_555
Ge15 Pd20 2.797665 1_555
Ge15 Pd14 2.802641 1_555
Ge15 Pd2 2.920283 1_655
