# generated using pymatgen
data_InBi2Se4Br
_symmetry_space_group_name_H-M   'P 1'
_cell_length_a   10.83216415
_cell_length_b   10.83216415
_cell_length_c   12.34930066
_cell_angle_alpha   61.54121199
_cell_angle_beta   61.54121199
_cell_angle_gamma   22.20649481
_symmetry_Int_Tables_number   1
_chemical_formula_structural   InBi2Se4Br
_chemical_formula_sum   'In2 Bi4 Se8 Br2'
_cell_volume   478.73940811
_cell_formula_units_Z   2
loop_
 _symmetry_equiv_pos_site_id
 _symmetry_equiv_pos_as_xyz
  1  'x, y, z'
loop_
 _atom_site_type_symbol
 _atom_site_label
 _atom_site_symmetry_multiplicity
 _atom_site_fract_x
 _atom_site_fract_y
 _atom_site_fract_z
 _atom_site_occupancy
  In  In0  1  0.83709000  0.83709000  0.43724900  1
  In  In1  1  0.16291000  0.16291000  0.56275100  1
  Bi  Bi0  1  0.20265900  0.20265900  0.90307800  1
  Bi  Bi1  1  0.79734100  0.79734100  0.09692200  1
  Bi  Bi2  1  0.45049500  0.45049500  0.77113700  1
  Bi  Bi3  1  0.54950500  0.54950500  0.22886300  1
  Se  Se0  1  0.96091900  0.96091900  0.22170100  1
  Se  Se1  1  0.17807200  0.17807200  0.14359200  1
  Se  Se2  1  0.71474100  0.71474100  0.65175400  1
  Se  Se3  1  0.59647600  0.59647600  0.97719300  1
  Se  Se4  1  0.40352400  0.40352400  0.02280700  1
  Se  Se5  1  0.82192800  0.82192800  0.85640800  1
  Se  Se6  1  0.03908100  0.03908100  0.77829900  1
  Se  Se7  1  0.28525900  0.28525900  0.34824600  1
  Br  Br0  1  0.39791200  0.39791200  0.52983400  1
  Br  Br1  1  0.60208800  0.60208800  0.47016600  1
loop_
_geom_bond_atom_site_label_1
_geom_bond_atom_site_label_2
_geom_bond_distance
_geom_bond_site_symmetry_2
In0 Se2 2.662801 1_555
In0 Se0 2.685088 1_555
In0 Se7 2.819567 1_565
In0 Se7 2.819567 1_655
In1 Se7 2.662801 1_555
In1 Se6 2.685088 1_555
In1 Se2 2.819567 1_545
In1 Se2 2.819567 1_455
Bi0 Se1 2.754514 1_556
Bi0 Se3 2.877175 1_455
Bi0 Se3 2.877175 1_545
Bi0 Se5 3.113400 1_455
Bi0 Se5 3.113400 1_545
Bi1 Se5 2.754514 1_554
Bi1 Se4 2.877175 1_565
Bi1 Se4 2.877175 1_655
Bi1 Se1 3.113400 1_565
Bi1 Se1 3.113400 1_655
Bi2 Se4 2.764468 1_556
Bi2 Se6 2.840368 1_565
Bi2 Se6 2.840368 1_655
Bi2 Se5 3.183607 1_545
Bi2 Se5 3.183607 1_455
Bi3 Se3 2.764468 1_554
Bi3 Se0 2.840368 1_455
Bi3 Se0 2.840368 1_545
Bi3 Se1 3.183607 1_655
Bi3 Se1 3.183607 1_565
Br0 In0 2.960827 1_545
Br0 In0 2.960827 1_455
Br1 In1 2.960827 1_565
Br1 In1 2.960827 1_655
