# generated using pymatgen
data_LiAl(SiO3)2
_symmetry_space_group_name_H-M   'P 1'
_cell_length_a   5.03859700
_cell_length_b   7.70105302
_cell_length_c   8.70549208
_cell_angle_alpha   114.10120662
_cell_angle_beta   90.06845489
_cell_angle_gamma   90.14604722
_symmetry_Int_Tables_number   1
_chemical_formula_structural   LiAl(SiO3)2
_chemical_formula_sum   'Li2 Al2 Si4 O12'
_cell_volume   308.34587925
_cell_formula_units_Z   2
loop_
 _symmetry_equiv_pos_site_id
 _symmetry_equiv_pos_as_xyz
  1  'x, y, z'
loop_
 _atom_site_type_symbol
 _atom_site_label
 _atom_site_symmetry_multiplicity
 _atom_site_fract_x
 _atom_site_fract_y
 _atom_site_fract_z
 _atom_site_occupancy
  Li  Li0  1  0.36143700  0.89221900  0.70982100  1
  Li  Li1  1  0.86466500  0.07066500  0.28039000  1
  Al  Al0  1  0.35490900  0.08929900  0.10382600  1
  Al  Al1  1  0.87147100  0.06489000  0.62225700  1
  Si  Si0  1  0.31239000  0.50839400  0.11540400  1
  Si  Si1  1  0.37172800  0.92841000  0.38348400  1
  Si  Si2  1  0.81568400  0.49441900  0.89793500  1
  Si  Si3  1  0.85442700  0.89870500  0.89412100  1
  O  O0  1  0.01788800  0.55016800  0.05861600  1
  O  O1  1  0.30713800  0.32995000  0.16660800  1
  O  O2  1  0.18892300  0.96463800  0.54952900  1
  O  O3  1  0.90331100  0.30556200  0.74070300  1
  O  O4  1  0.66884900  0.01969700  0.44290300  1
  O  O5  1  0.40472000  0.69941400  0.27833700  1
  O  O6  1  0.17186100  0.95364000  0.91711000  1
  O  O7  1  0.73202700  0.94502700  0.74003300  1
  O  O8  1  0.51698800  0.47128200  0.95973700  1
  O  O9  1  0.81060600  0.67206200  0.83952500  1
  O  O10  1  0.69483200  0.02199200  0.07021900  1
  O  O11  1  0.23574800  0.02766900  0.26763700  1
loop_
_geom_bond_atom_site_label_1
_geom_bond_atom_site_label_2
_geom_bond_distance
_geom_bond_site_symmetry_2
Li0 O7 1.904940 1_555
Li0 O2 1.910220 1_555
Li0 O6 1.924023 1_555
Li1 O4 1.893126 1_555
Li1 O11 1.895128 1_655
Li1 O10 1.911771 1_555
Al0 O1 1.722382 1_555
Al0 O10 1.780337 1_555
Al0 O11 1.781218 1_555
Al0 O6 1.785726 1_544
Al1 O3 1.720882 1_555
Al1 O4 1.775349 1_555
Al1 O2 1.779005 1_645
Al1 O7 1.779973 1_545
O0 Si0 1.637178 1_555
O0 Si2 1.637952 1_454
O1 Si0 1.608715 1_555
O2 Si1 1.640377 1_555
O3 Si2 1.600826 1_555
O4 Si1 1.642806 1_545
O5 Si1 1.630641 1_555
O5 Si0 1.638035 1_555
O6 Si3 1.644329 1_455
O7 Si3 1.642237 1_555
O8 Si2 1.632520 1_555
O8 Si0 1.633827 1_556
O9 Si3 1.625213 1_555
O9 Si2 1.642867 1_555
O10 Si3 1.648133 1_544
O11 Si1 1.643602 1_545
