# generated using pymatgen
data_V4O7
_symmetry_space_group_name_H-M   'P 1'
_cell_length_a   5.55058212
_cell_length_b   6.78641364
_cell_length_c   6.98693040
_cell_angle_alpha   64.37373990
_cell_angle_beta   70.29505849
_cell_angle_gamma   75.17998096
_symmetry_Int_Tables_number   1
_chemical_formula_structural   V4O7
_chemical_formula_sum   'V8 O14'
_cell_volume   221.52079523
_cell_formula_units_Z   2
loop_
 _symmetry_equiv_pos_site_id
 _symmetry_equiv_pos_as_xyz
  1  'x, y, z'
loop_
 _atom_site_type_symbol
 _atom_site_label
 _atom_site_symmetry_multiplicity
 _atom_site_fract_x
 _atom_site_fract_y
 _atom_site_fract_z
 _atom_site_occupancy
  V  V0  1  0.18942649  0.09843254  0.25562265  1
  V  V1  1  0.71888154  0.37314962  0.41340335  1
  V  V2  1  0.28115890  0.62685619  0.58655718  1
  V  V3  1  0.28626385  0.62441652  0.08475941  1
  V  V4  1  0.71369405  0.37559669  0.91525465  1
  V  V5  1  0.18494216  0.09359052  0.75882490  1
  V  V6  1  0.81509894  0.90642188  0.24115213  1
  V  V7  1  0.81055731  0.90159177  0.74437687  1
  O  O0  1  0.79641386  0.05421550  0.43476307  1
  O  O1  1  0.82626764  0.22413992  0.70253556  1
  O  O2  1  0.97506323  0.82790315  0.98001187  1
  O  O3  1  0.08348560  0.38796779  0.25756567  1
  O  O4  1  0.47275416  0.89594468  0.86214578  1
  O  O5  1  0.02492502  0.17207286  0.02000726  1
  O  O6  1  0.40122990  0.53280418  0.83878865  1
  O  O7  1  0.17373975  0.77582784  0.29744289  1
  O  O8  1  0.35382632  0.33254268  0.59151351  1
  O  O9  1  0.91653848  0.61201042  0.74242197  1
  O  O10  1  0.64614773  0.66747365  0.40848407  1
  O  O11  1  0.20359329  0.94576731  0.56523646  1
  O  O12  1  0.52729429  0.10398698  0.13791321  1
  O  O13  1  0.59869552  0.46728934  0.16121789  1
loop_
_geom_bond_atom_site_label_1
_geom_bond_atom_site_label_2
_geom_bond_distance
_geom_bond_site_symmetry_2
O0 V6 1.967857 1_545
O0 V7 1.973175 1_545
O0 V1 2.044403 1_555
O0 V0 2.141054 1_655
O1 V4 2.005605 1_555
O1 V1 2.048284 1_555
O1 V5 2.056063 1_655
O1 V7 2.100351 1_545
O2 V7 1.965287 1_555
O2 V6 1.976824 1_556
O2 V3 2.045570 1_656
O2 V5 2.108705 1_665
O3 V3 1.905553 1_555
O3 V0 1.906157 1_555
O3 V1 1.953131 1_455
O4 V7 1.778552 1_555
O4 V5 1.927766 1_565
O4 V3 2.072955 1_556
O5 V0 1.965223 1_555
O5 V5 1.976968 1_554
O5 V4 2.045793 1_454
O5 V6 2.108331 1_445
O6 V2 1.886476 1_555
O6 V4 1.901814 1_555
O6 V3 1.931058 1_556
O7 V3 2.005178 1_555
O7 V2 2.048268 1_555
O7 V6 2.055924 1_455
O7 V0 2.100746 1_565
O8 V5 1.809385 1_555
O8 V2 1.921117 1_555
O8 V1 2.004726 1_555
O9 V4 1.905613 1_555
O9 V7 1.906494 1_555
O9 V2 1.953259 1_655
O10 V6 1.809574 1_555
O10 V1 1.921262 1_555
O10 V2 2.004370 1_555
O11 V5 1.967934 1_565
O11 V0 1.973222 1_565
O11 V2 2.044330 1_555
O11 V7 2.141124 1_455
O12 V0 1.778779 1_555
O12 V6 1.927356 1_545
O12 V4 2.073163 1_554
O13 V1 1.886464 1_555
O13 V3 1.901528 1_555
O13 V4 1.931340 1_554
