# generated using pymatgen
data_V(CoO2)2
_symmetry_space_group_name_H-M   'P 1'
_cell_length_a   6.01735506
_cell_length_b   6.00122042
_cell_length_c   35.94093109
_cell_angle_alpha   59.93887945
_cell_angle_beta   60.48281816
_cell_angle_gamma   60.08866651
_symmetry_Int_Tables_number   1
_chemical_formula_structural   V(CoO2)2
_chemical_formula_sum   'V12 Co24 O48'
_cell_volume   921.23154517
_cell_formula_units_Z   12
loop_
 _symmetry_equiv_pos_site_id
 _symmetry_equiv_pos_as_xyz
  1  'x, y, z'
loop_
 _atom_site_type_symbol
 _atom_site_label
 _atom_site_symmetry_multiplicity
 _atom_site_fract_x
 _atom_site_fract_y
 _atom_site_fract_z
 _atom_site_occupancy
  V  V0  1  0.01258319  0.98966249  0.00134864  1
  V  V1  1  0.14046623  0.61551132  0.10475219  1
  V  V2  1  0.14541115  0.61750836  0.26992836  1
  V  V3  1  0.01532968  0.99316824  0.16638931  1
  V  V4  1  0.12829123  0.62665227  0.43640071  1
  V  V5  1  0.63076029  0.62598014  0.35288024  1
  V  V6  1  0.12631144  0.62659229  0.60341766  1
  V  V7  1  0.62705942  0.62584592  0.52020779  1
  V  V8  1  0.12881264  0.62645066  0.76971401  1
  V  V9  1  0.62663211  0.62688624  0.68659924  1
  V  V10  1  0.13528765  0.62103399  0.93710739  1
  V  V11  1  0.62943579  0.62666302  0.85287336  1
  Co  Co0  1  0.22763206  0.25710263  0.04302745  1
  Co  Co1  1  0.61878276  0.62266168  0.02264865  1
  Co  Co2  1  0.23139831  0.25400668  0.21009772  1
  Co  Co3  1  0.62294118  0.12906003  0.10464666  1
  Co  Co4  1  0.62294118  0.62012086  0.10464666  1
  Co  Co5  1  0.62199303  0.62036296  0.18954684  1
  Co  Co6  1  0.24222690  0.25633236  0.37418473  1
  Co  Co7  1  0.62935210  0.12695529  0.27053239  1
  Co  Co8  1  0.62935210  0.62049627  0.27053239  1
  Co  Co9  1  0.00946965  0.99594063  0.33310785  1
  Co  Co10  1  0.24029953  0.25850220  0.54044968  1
  Co  Co11  1  0.62535056  0.12585021  0.43731172  1
  Co  Co12  1  0.62535056  0.62492888  0.43731172  1
  Co  Co13  1  0.00585340  0.99367550  0.50113260  1
  Co  Co14  1  0.24158095  0.25780367  0.70713495  1
  Co  Co15  1  0.62262041  0.12618291  0.60436355  1
  Co  Co16  1  0.62262041  0.62501740  0.60436355  1
  Co  Co17  1  0.00567538  0.99546177  0.66723385  1
  Co  Co18  1  0.62689282  0.12636684  0.77023134  1
  Co  Co19  1  0.24435916  0.25834305  0.87315912  1
  Co  Co20  1  0.62689282  0.62535031  0.77023134  1
  Co  Co21  1  0.00753252  0.99279765  0.83447836  1
  Co  Co22  1  0.62689051  0.12598981  0.93729492  1
  Co  Co23  1  0.62689051  0.62335017  0.93729492  1
  O  O0  1  0.35198666  0.40049784  0.06560936  1
  O  O1  1  0.36295176  0.39119078  0.14244411  1
  O  O2  1  0.35198666  0.85385731  0.06560936  1
  O  O3  1  0.83520596  0.38746123  0.06497826  1
  O  O4  1  0.35452320  0.39234469  0.23323324  1
  O  O5  1  0.38941111  0.87184002  0.14448481  1
  O  O6  1  0.37106284  0.39004075  0.30814261  1
  O  O7  1  0.35452320  0.85373266  0.23323324  1
  O  O8  1  0.89488468  0.37966127  0.14450865  1
  O  O9  1  0.87642558  0.86955062  0.06407886  1
  O  O10  1  0.84005467  0.38584006  0.23137754  1
  O  O11  1  0.89488468  0.85840216  0.14450865  1
  O  O12  1  0.37370304  0.40643320  0.39531456  1
  O  O13  1  0.41453213  0.85082055  0.31397146  1
  O  O14  1  0.36412779  0.39806003  0.47329236  1
  O  O15  1  0.37370304  0.84797839  0.39531456  1
  O  O16  1  0.88356750  0.40474942  0.31150168  1
  O  O17  1  0.88259605  0.87343226  0.22842357  1
  O  O18  1  0.83797136  0.39957278  0.39381418  1
  O  O19  1  0.88356750  0.84267502  0.31150168  1
  O  O20  1  0.37050512  0.40568526  0.56233059  1
  O  O21  1  0.40947112  0.85104577  0.48140589  1
  O  O22  1  0.36216815  0.39835853  0.64018547  1
  O  O23  1  0.37050512  0.84982408  0.56233059  1
  O  O24  1  0.87810997  0.40021020  0.47975599  1
  O  O25  1  0.88598443  0.85261187  0.40146497  1
  O  O26  1  0.83585933  0.39838740  0.56122731  1
  O  O27  1  0.87810997  0.84314188  0.47975599  1
  O  O28  1  0.37310331  0.40554215  0.72858237  1
  O  O29  1  0.40760118  0.85179118  0.64813608  1
  O  O30  1  0.36539443  0.39857435  0.80624281  1
  O  O31  1  0.87682774  0.40073790  0.64639335  1
  O  O32  1  0.37310331  0.84986031  0.72858237  1
  O  O33  1  0.88189630  0.85226650  0.56892845  1
  O  O34  1  0.83859431  0.39827637  0.72747549  1
  O  O35  1  0.87682774  0.84407425  0.64639335  1
  O  O36  1  0.37436162  0.40759417  0.89492565  1
  O  O37  1  0.41099484  0.85226591  0.81407923  1
  O  O38  1  0.36306664  0.39708123  0.97379548  1
  O  O39  1  0.87978055  0.39989002  0.81268679  1
  O  O40  1  0.37436162  0.84849230  0.89492565  1
  O  O41  1  0.88680849  0.85189570  0.73490035  1
  O  O42  1  0.83939077  0.39868241  0.89387440  1
  O  O43  1  0.87978055  0.84421069  0.81268679  1
  O  O44  1  0.38704719  0.87320334  0.97775736  1
  O  O45  1  0.89587840  0.37305695  0.97815878  1
  O  O46  1  0.88564044  0.84837361  0.90293506  1
  O  O47  1  0.89587840  0.86210994  0.97815878  1
loop_
_geom_bond_atom_site_label_1
_geom_bond_atom_site_label_2
_geom_bond_distance
_geom_bond_site_symmetry_2
Co0 O3 1.936682 1_455
Co0 O0 1.974729 1_555
Co0 O2 1.974749 1_545
Co0 O38 2.037589 1_554
Co1 O3 1.992612 1_555
Co1 O2 2.090141 1_555
Co1 O0 2.090141 1_555
Co1 O44 2.122229 1_554
Co1 O47 2.205072 1_554
Co1 O45 2.205072 1_554
Co2 O10 1.931236 1_455
Co2 O7 1.959995 1_545
Co2 O4 1.960005 1_555
Co2 O1 1.991122 1_555
Co3 O3 2.008695 1_555
Co3 O1 2.088055 1_555
Co3 O5 2.091424 1_545
Co3 O9 2.142954 1_545
Co3 O0 2.143808 1_555
Co3 O11 2.167144 1_545
Co4 O3 2.008713 1_555
Co4 O1 2.088072 1_555
Co4 O5 2.091415 1_555
Co4 O9 2.142945 1_555
Co4 O2 2.143809 1_555
Co4 O8 2.167144 1_555
Co5 O10 1.986227 1_555
Co5 O4 2.117077 1_555
Co5 O7 2.117077 1_555
Co5 O5 2.130158 1_555
Co5 O11 2.181975 1_555
Co5 O8 2.181975 1_555
Co6 O6 1.943700 1_555
Co6 O18 1.996256 1_455
Co6 O15 2.000528 1_545
Co6 O12 2.000538 1_555
Co7 O10 2.004403 1_555
Co7 O6 2.087154 1_555
Co7 O13 2.100075 1_545
Co7 O4 2.118317 1_555
Co7 O19 2.125738 1_545
Co7 O17 2.156273 1_545
Co8 O10 2.004394 1_555
Co8 O6 2.087145 1_555
Co8 O13 2.100092 1_555
Co8 O7 2.118317 1_555
Co8 O16 2.125740 1_555
Co8 O17 2.156289 1_555
Co9 O13 2.000907 1_555
Co9 O19 2.003298 1_455
Co9 O16 2.003319 1_465
Co9 O25 2.012310 1_455
Co10 O14 1.976745 1_555
Co10 O26 1.996203 1_455
Co10 O20 2.001433 1_555
Co10 O23 2.001454 1_545
Co11 O18 2.081256 1_555
Co11 O14 2.089080 1_555
Co11 O25 2.090233 1_545
Co11 O21 2.099607 1_545
Co11 O12 2.137658 1_555
Co11 O27 2.153747 1_545
Co12 O18 2.081247 1_555
Co12 O14 2.089071 1_555
Co12 O25 2.090224 1_555
Co12 O21 2.099598 1_555
Co12 O15 2.137657 1_555
Co12 O24 2.153746 1_555
Co13 O24 1.991743 1_465
Co13 O27 1.991752 1_455
Co13 O21 1.992967 1_555
Co13 O33 1.995632 1_455
Co14 O22 1.970914 1_555
Co14 O34 1.989268 1_455
Co14 O32 1.998049 1_545
Co14 O28 1.998059 1_555
Co15 O26 2.076421 1_555
Co15 O33 2.083267 1_545
Co15 O22 2.085018 1_555
Co15 O29 2.093889 1_545
Co15 O20 2.139870 1_555
Co15 O35 2.149404 1_545
Co16 O26 2.076438 1_555
Co16 O33 2.083258 1_555
Co16 O22 2.085035 1_555
Co16 O29 2.093881 1_555
Co16 O23 2.139872 1_555
Co16 O31 2.149403 1_555
Co17 O29 1.985265 1_555
Co17 O31 1.985953 1_465
Co17 O35 1.985963 1_455
Co17 O41 1.992445 1_455
Co18 O34 2.068563 1_555
Co18 O41 2.083500 1_545
Co18 O30 2.089875 1_555
Co18 O37 2.096167 1_545
Co18 O28 2.137317 1_555
Co18 O43 2.154260 1_545
Co19 O30 1.969878 1_555
Co19 O42 1.998863 1_455
Co19 O40 2.007484 1_545
Co19 O36 2.007494 1_555
Co20 O34 2.068555 1_555
Co20 O41 2.083517 1_555
Co20 O30 2.089866 1_555
Co20 O37 2.096184 1_555
Co20 O32 2.137316 1_555
Co20 O39 2.154262 1_555
Co21 O37 1.991590 1_555
Co21 O43 1.994012 1_455
Co21 O39 1.994032 1_465
Co21 O46 2.015467 1_455
Co22 O46 2.074725 1_545
Co22 O42 2.076201 1_555
Co22 O38 2.097192 1_555
Co22 O44 2.098650 1_545
Co22 O36 2.150514 1_555
Co22 O47 2.177306 1_545
Co23 O46 2.074716 1_555
Co23 O42 2.076192 1_555
Co23 O38 2.097183 1_555
Co23 O44 2.098642 1_555
Co23 O40 2.150513 1_555
Co23 O45 2.177306 1_555
O0 V1 1.918453 1_555
O1 V1 1.897985 1_555
O2 V1 1.918436 1_555
O4 V2 1.898167 1_555
O5 V3 1.846717 1_555
O6 V2 1.924639 1_555
O7 V2 1.898176 1_555
O8 V3 1.892400 1_645
O8 V1 2.051332 1_655
O9 V0 1.847879 1_655
O9 V1 2.150745 1_655
O11 V3 1.892410 1_655
O11 V1 2.051324 1_655
O12 V4 1.991959 1_555
O12 V5 2.037003 1_555
O13 V5 1.902820 1_555
O14 V4 1.934969 1_555
O15 V4 1.991967 1_555
O15 V5 2.037003 1_555
O16 V5 2.005776 1_555
O16 V2 2.029930 1_655
O17 V3 1.826982 1_655
O17 V2 2.166097 1_655
O18 V5 1.918473 1_555
O19 V5 2.005776 1_555
O19 V2 2.029945 1_655
O20 V6 1.994421 1_555
O20 V7 2.036710 1_555
O21 V7 1.905743 1_555
O22 V6 1.931980 1_555
O23 V6 1.994405 1_555
O23 V7 2.036710 1_555
O24 V7 1.999365 1_555
O24 V4 2.036775 1_655
O25 V4 1.915102 1_655
O26 V7 1.927178 1_555
O27 V7 1.999365 1_555
O27 V4 2.036767 1_655
O28 V8 1.995588 1_555
O28 V9 2.028147 1_555
O29 V9 1.903091 1_555
O30 V8 1.929190 1_555
O31 V9 1.994978 1_555
O31 V6 2.030669 1_655
O32 V8 1.995596 1_555
O32 V9 2.028147 1_555
O33 V6 1.913585 1_655
O34 V9 1.936310 1_555
O35 V9 1.994977 1_555
O35 V6 2.030661 1_655
O36 V10 1.991818 1_555
O36 V11 2.025946 1_555
O37 V11 1.909106 1_555
O38 V10 1.895226 1_555
O39 V11 1.997050 1_555
O39 V8 2.031547 1_655
O40 V10 1.991826 1_555
O40 V11 2.025946 1_555
O41 V8 1.910805 1_655
O42 V11 1.931393 1_555
O43 V11 1.997050 1_555
O43 V8 2.031563 1_655
O44 V0 1.850721 1_556
O45 V0 1.877701 1_646
O45 V10 2.076257 1_655
O46 V10 1.929178 1_655
O47 V0 1.877711 1_656
O47 V10 2.076249 1_655
