# generated using pymatgen
data_LiNdGeO4
_symmetry_space_group_name_H-M   'P 1'
_cell_length_a   5.15458200
_cell_length_b   5.45643500
_cell_length_c   12.04876600
_cell_angle_alpha   90.00000000
_cell_angle_beta   90.00000000
_cell_angle_gamma   90.00000000
_symmetry_Int_Tables_number   1
_chemical_formula_structural   LiNdGeO4
_chemical_formula_sum   'Li4 Nd4 Ge4 O16'
_cell_volume   338.87927466
_cell_formula_units_Z   4
loop_
 _symmetry_equiv_pos_site_id
 _symmetry_equiv_pos_as_xyz
  1  'x, y, z'
loop_
 _atom_site_type_symbol
 _atom_site_label
 _atom_site_symmetry_multiplicity
 _atom_site_fract_x
 _atom_site_fract_y
 _atom_site_fract_z
 _atom_site_occupancy
  Li  Li0  1  0.50000000  0.25000000  0.73301400  1
  Li  Li1  1  0.50000000  0.75000000  0.26698600  1
  Li  Li2  1  0.00000000  0.75000000  0.76698600  1
  Li  Li3  1  0.00000000  0.25000000  0.23301400  1
  Nd  Nd0  1  0.50000000  0.25000000  0.38747100  1
  Nd  Nd1  1  0.50000000  0.75000000  0.61252900  1
  Nd  Nd2  1  0.00000000  0.25000000  0.88747100  1
  Nd  Nd3  1  0.00000000  0.75000000  0.11252900  1
  Ge  Ge0  1  0.50000000  0.75000000  0.88952900  1
  Ge  Ge1  1  0.50000000  0.25000000  0.11047100  1
  Ge  Ge2  1  0.00000000  0.75000000  0.38952900  1
  Ge  Ge3  1  0.00000000  0.25000000  0.61047100  1
  O  O0  1  0.24914800  0.58515300  0.95708400  1
  O  O1  1  0.25085200  0.58515300  0.45708400  1
  O  O2  1  0.67616400  0.54714800  0.79752500  1
  O  O3  1  0.67616400  0.04714800  0.20247500  1
  O  O4  1  0.82383600  0.04714800  0.70247500  1
  O  O5  1  0.32383600  0.45285200  0.20247500  1
  O  O6  1  0.32383600  0.95285200  0.79752500  1
  O  O7  1  0.74914800  0.91484700  0.45708400  1
  O  O8  1  0.82383600  0.54714800  0.29752500  1
  O  O9  1  0.25085200  0.08515300  0.54291600  1
  O  O10  1  0.24914800  0.08515300  0.04291600  1
  O  O11  1  0.17616400  0.95285200  0.29752500  1
  O  O12  1  0.75085200  0.91484700  0.95708400  1
  O  O13  1  0.75085200  0.41484700  0.04291600  1
  O  O14  1  0.74914800  0.41484700  0.54291600  1
  O  O15  1  0.17616400  0.45285200  0.70247500  1
loop_
_geom_bond_atom_site_label_1
_geom_bond_atom_site_label_2
_geom_bond_distance
_geom_bond_site_symmetry_2
Li0 O2 2.014338 1_555
Li0 O6 2.014338 1_545
Li0 O15 2.036386 1_555
Li0 O4 2.036386 1_555
Li1 O3 2.014338 1_565
Li1 O5 2.014338 1_555
Li1 O11 2.036386 1_555
Li1 O8 2.036386 1_555
Li2 O4 2.014338 1_465
Li2 O15 2.014338 1_555
Li2 O6 2.036386 1_555
Li2 O2 2.036386 1_455
Li3 O8 2.014338 1_455
Li3 O11 2.014338 1_545
Li3 O5 2.036386 1_555
Li3 O3 2.036386 1_455
Nd0 O7 2.386860 1_545
Nd0 O1 2.386860 1_555
Nd0 O14 2.442580 1_555
Nd0 O9 2.442580 1_555
Nd0 O8 2.567038 1_555
Nd0 O11 2.567038 1_545
Nd0 O5 2.649150 1_555
Nd0 O3 2.649150 1_555
Nd1 O9 2.386860 1_565
Nd1 O14 2.386860 1_555
Nd1 O7 2.442580 1_555
Nd1 O1 2.442580 1_555
Nd1 O4 2.567038 1_565
Nd1 O15 2.567038 1_555
Nd1 O6 2.649150 1_555
Nd1 O2 2.649150 1_555
Nd2 O0 2.386860 1_555
Nd2 O12 2.386860 1_445
Nd2 O13 2.442580 1_456
Nd2 O10 2.442580 1_556
Nd2 O2 2.567038 1_455
Nd2 O6 2.567038 1_545
Nd2 O15 2.649150 1_555
Nd2 O4 2.649150 1_455
Nd3 O10 2.386860 1_565
Nd3 O13 2.386860 1_455
Nd3 O0 2.442580 1_554
Nd3 O12 2.442580 1_454
Nd3 O3 2.567038 1_465
Nd3 O5 2.567038 1_555
Nd3 O11 2.649150 1_555
Nd3 O8 2.649150 1_455
Ge0 O12 1.772999 1_555
Ge0 O0 1.772999 1_555
Ge0 O6 1.810669 1_555
Ge0 O2 1.810669 1_555
Ge1 O13 1.772999 1_555
Ge1 O10 1.772999 1_555
Ge1 O5 1.810669 1_555
Ge1 O3 1.810669 1_555
Ge2 O1 1.772999 1_555
Ge2 O7 1.772999 1_455
Ge2 O11 1.810669 1_555
Ge2 O8 1.810669 1_455
Ge3 O9 1.772999 1_555
Ge3 O14 1.772999 1_455
Ge3 O15 1.810669 1_555
Ge3 O4 1.810669 1_455
