# generated using pymatgen
data_KSbF4
_symmetry_space_group_name_H-M   'P 1'
_cell_length_a   4.50002489
_cell_length_b   11.51715664
_cell_length_c   16.10213906
_cell_angle_alpha   90.00000000
_cell_angle_beta   90.00000000
_cell_angle_gamma   90.00000000
_symmetry_Int_Tables_number   1
_chemical_formula_structural   KSbF4
_chemical_formula_sum   'K8 Sb8 F32'
_cell_volume   834.53347594
_cell_formula_units_Z   8
loop_
 _symmetry_equiv_pos_site_id
 _symmetry_equiv_pos_as_xyz
  1  'x, y, z'
loop_
 _atom_site_type_symbol
 _atom_site_label
 _atom_site_symmetry_multiplicity
 _atom_site_fract_x
 _atom_site_fract_y
 _atom_site_fract_z
 _atom_site_occupancy
  K  K0  1  0.59984589  -0.00000000  0.61658593  1
  K  K1  1  0.59984589  -0.00000000  0.38341407  1
  K  K2  1  0.40015411  0.50000000  0.88341407  1
  K  K3  1  0.40015411  0.50000000  0.11658593  1
  K  K4  1  -0.00000000  0.25000000  0.75000000  1
  K  K5  1  -0.00000000  0.75000000  0.25000000  1
  K  K6  1  -0.00000000  0.75000000  0.75000000  1
  K  K7  1  -0.00000000  0.25000000  0.25000000  1
  Sb  Sb0  1  0.43738736  -0.00000000  0.84686406  1
  Sb  Sb1  1  0.43738736  -0.00000000  0.15313594  1
  Sb  Sb2  1  0.56261264  0.50000000  0.65313594  1
  Sb  Sb3  1  0.56261264  0.50000000  0.34686406  1
  Sb  Sb4  1  0.95184843  0.24928903  0.00000000  1
  Sb  Sb5  1  0.95184843  0.75071097  0.00000000  1
  Sb  Sb6  1  0.04815157  0.74928903  0.50000000  1
  Sb  Sb7  1  0.04815157  0.25071097  0.50000000  1
  F  F0  1  0.33982768  0.32849925  0.00000000  1
  F  F1  1  0.33982768  0.67150075  0.00000000  1
  F  F2  1  0.66017232  0.82849925  0.50000000  1
  F  F3  1  0.66017232  0.17150075  0.50000000  1
  F  F4  1  0.04916860  -0.00000000  0.79211756  1
  F  F5  1  0.04916860  -0.00000000  0.20788244  1
  F  F6  1  0.95083140  0.50000000  0.70788244  1
  F  F7  1  0.95083140  0.50000000  0.29211756  1
  F  F8  1  0.79932144  0.34692835  0.59722321  1
  F  F9  1  0.79932144  0.65307165  0.40277679  1
  F  F10  1  0.20067856  0.84692835  0.90277679  1
  F  F11  1  0.20067856  0.15307165  0.09722321  1
  F  F12  1  0.20067856  0.15307165  0.90277679  1
  F  F13  1  0.20067856  0.84692835  0.09722321  1
  F  F14  1  0.79932144  0.65307165  0.59722321  1
  F  F15  1  0.79932144  0.34692835  0.40277679  1
  F  F16  1  0.48035555  0.38187948  0.25817529  1
  F  F17  1  0.48035555  0.61812052  0.74182471  1
  F  F18  1  0.51964445  0.88187948  0.24182471  1
  F  F19  1  0.51964445  0.11812052  0.75817529  1
  F  F20  1  0.51964445  0.11812052  0.24182471  1
  F  F21  1  0.51964445  0.88187948  0.75817529  1
  F  F22  1  0.48035555  0.61812052  0.25817529  1
  F  F23  1  0.48035555  0.38187948  0.74182471  1
  F  F24  1  0.11079619  0.13405105  0.40778258  1
  F  F25  1  0.11079619  0.86594895  0.59221742  1
  F  F26  1  0.88920381  0.63405105  0.09221742  1
  F  F27  1  0.88920381  0.36594895  0.90778258  1
  F  F28  1  0.88920381  0.36594895  0.09221742  1
  F  F29  1  0.88920381  0.63405105  0.90778258  1
  F  F30  1  0.11079619  0.86594895  0.40778258  1
  F  F31  1  0.11079619  0.13405105  0.59221742  1
loop_
_geom_bond_atom_site_label_1
_geom_bond_atom_site_label_2
_geom_bond_distance
_geom_bond_site_symmetry_2
F0 Sb4 1.969891 1_455
F0 K2 2.738486 1_554
F0 K3 2.738486 1_555
F1 Sb5 1.969891 1_455
F1 K2 2.738486 1_554
F1 K3 2.738486 1_555
F2 Sb6 1.969891 1_655
F2 K0 2.738486 1_565
F2 K1 2.738486 1_565
F3 Sb7 1.969891 1_655
F3 K0 2.738486 1_555
F3 K1 2.738486 1_555
F4 Sb0 1.956807 1_555
F4 K4 2.966344 1_555
F4 K6 2.966344 1_545
F5 Sb1 1.956807 1_555
F5 K7 2.966344 1_555
F5 K5 2.966344 1_545
F6 Sb2 1.956807 1_555
F6 K6 2.966344 1_655
F6 K4 2.966344 1_655
F7 Sb3 1.956807 1_555
F7 K7 2.966344 1_655
F7 K5 2.966344 1_655
F8 Sb7 2.220949 1_655
F8 Sb2 2.247933 1_555
F8 K4 2.848419 1_655
F9 Sb6 2.220949 1_655
F9 Sb3 2.247933 1_555
F9 K5 2.848419 1_655
F10 Sb5 2.220949 1_456
F10 Sb0 2.247933 1_565
F10 K6 2.848419 1_555
F11 Sb4 2.220949 1_455
F11 Sb1 2.247933 1_555
F11 K7 2.848419 1_555
F12 Sb4 2.220949 1_456
F12 Sb0 2.247933 1_555
F12 K4 2.848419 1_555
F13 Sb5 2.220949 1_455
F13 Sb1 2.247933 1_565
F13 K5 2.848419 1_555
F14 Sb6 2.220949 1_655
F14 Sb2 2.247933 1_555
F14 K6 2.848419 1_655
F15 Sb7 2.220949 1_655
F15 Sb3 2.247933 1_555
F15 K7 2.848419 1_655
F16 Sb3 2.006776 1_555
F16 K7 2.645162 1_555
F16 K3 2.679344 1_555
F16 K7 2.791503 1_655
F17 Sb2 2.006776 1_555
F17 K6 2.645162 1_555
F17 K2 2.679344 1_555
F17 K6 2.791503 1_655
F18 Sb1 2.006776 1_565
F18 K5 2.645162 1_655
F18 K1 2.679344 1_565
F18 K5 2.791503 1_555
F19 Sb0 2.006776 1_555
F19 K4 2.645162 1_655
F19 K0 2.679344 1_555
F19 K4 2.791503 1_555
F20 Sb1 2.006776 1_555
F20 K7 2.645162 1_655
F20 K1 2.679344 1_555
F20 K7 2.791503 1_555
F21 Sb0 2.006776 1_565
F21 K6 2.645162 1_655
F21 K0 2.679344 1_565
F21 K6 2.791503 1_555
F22 Sb3 2.006776 1_555
F22 K5 2.645162 1_555
F22 K3 2.679344 1_555
F22 K5 2.791503 1_655
F23 Sb2 2.006776 1_555
F23 K4 2.645162 1_555
F23 K2 2.679344 1_555
F23 K4 2.791503 1_655
F24 Sb7 2.022282 1_555
F24 K1 2.716761 1_555
F24 K1 2.797192 1_455
F24 K7 2.913198 1_555
F25 Sb6 2.022282 1_555
F25 K0 2.716761 1_565
F25 K0 2.797192 1_465
F25 K6 2.913198 1_555
F26 Sb5 2.022282 1_555
F26 K3 2.716761 1_555
F26 K3 2.797192 1_655
F26 K5 2.913198 1_655
F27 Sb4 2.022282 1_556
F27 K2 2.716761 1_555
F27 K2 2.797192 1_655
F27 K4 2.913198 1_655
F28 Sb4 2.022282 1_555
F28 K3 2.716761 1_555
F28 K3 2.797192 1_655
F28 K7 2.913198 1_655
F29 Sb5 2.022282 1_556
F29 K2 2.716761 1_555
F29 K2 2.797192 1_655
F29 K6 2.913198 1_655
F30 Sb6 2.022282 1_555
F30 K1 2.716761 1_565
F30 K1 2.797192 1_465
F30 K5 2.913198 1_555
F31 Sb7 2.022282 1_555
F31 K0 2.716761 1_555
F31 K0 2.797192 1_455
F31 K4 2.913198 1_555
