# generated using pymatgen
data_LuCoO3
_symmetry_space_group_name_H-M   'P 1'
_cell_length_a   5.06722900
_cell_length_b   5.45033600
_cell_length_c   7.30563900
_cell_angle_alpha   90.00000000
_cell_angle_beta   90.00000000
_cell_angle_gamma   90.00000000
_symmetry_Int_Tables_number   1
_chemical_formula_structural   LuCoO3
_chemical_formula_sum   'Lu4 Co4 O12'
_cell_volume   201.76787313
_cell_formula_units_Z   4
loop_
 _symmetry_equiv_pos_site_id
 _symmetry_equiv_pos_as_xyz
  1  'x, y, z'
loop_
 _atom_site_type_symbol
 _atom_site_label
 _atom_site_symmetry_multiplicity
 _atom_site_fract_x
 _atom_site_fract_y
 _atom_site_fract_z
 _atom_site_occupancy
  Lu  Lu0  1  0.02412000  0.57995900  0.25000000  1
  Lu  Lu1  1  0.47588000  0.07995900  0.25000000  1
  Lu  Lu2  1  0.97588000  0.42004100  0.75000000  1
  Lu  Lu3  1  0.52412000  0.92004100  0.75000000  1
  Co  Co0  1  0.50000000  0.50000000  0.50000000  1
  Co  Co1  1  0.50000000  0.50000000  0.00000000  1
  Co  Co2  1  0.00000000  0.00000000  0.00000000  1
  Co  Co3  1  0.00000000  0.00000000  0.50000000  1
  O  O0  1  0.81322400  0.69463500  0.55611500  1
  O  O1  1  0.38522900  0.53729100  0.75000000  1
  O  O2  1  0.31322400  0.80536500  0.05611500  1
  O  O3  1  0.81322400  0.69463500  0.94388500  1
  O  O4  1  0.31322400  0.80536500  0.44388500  1
  O  O5  1  0.61477100  0.46270900  0.25000000  1
  O  O6  1  0.18677600  0.30536500  0.05611500  1
  O  O7  1  0.68677600  0.19463500  0.55611500  1
  O  O8  1  0.18677600  0.30536500  0.44388500  1
  O  O9  1  0.11477100  0.03729100  0.75000000  1
  O  O10  1  0.88522900  0.96270900  0.25000000  1
  O  O11  1  0.68677600  0.19463500  0.94388500  1
loop_
_geom_bond_atom_site_label_1
_geom_bond_atom_site_label_2
_geom_bond_distance
_geom_bond_site_symmetry_2
Lu0 O5 2.170475 1_455
Lu0 O10 2.201637 1_455
Lu0 O8 2.219363 1_555
Lu0 O6 2.219363 1_555
Lu0 O2 2.379442 1_555
Lu0 O4 2.379442 1_555
Lu0 O3 2.556172 1_454
Lu0 O0 2.556172 1_455
Lu1 O10 2.170475 1_545
Lu1 O5 2.201637 1_555
Lu1 O4 2.219363 1_545
Lu1 O2 2.219363 1_545
Lu1 O6 2.379442 1_555
Lu1 O8 2.379442 1_555
Lu1 O7 2.556172 1_555
Lu1 O11 2.556172 1_554
Lu2 O1 2.170475 1_655
Lu2 O9 2.201637 1_655
Lu2 O3 2.219363 1_555
Lu2 O0 2.219363 1_555
Lu2 O11 2.379442 1_555
Lu2 O7 2.379442 1_555
Lu2 O6 2.556172 1_656
Lu2 O8 2.556172 1_655
Lu3 O9 2.170475 1_565
Lu3 O1 2.201637 1_555
Lu3 O7 2.219363 1_565
Lu3 O11 2.219363 1_565
Lu3 O3 2.379442 1_555
Lu3 O0 2.379442 1_555
Lu3 O2 2.556172 1_556
Lu3 O4 2.556172 1_555
Co0 O1 1.927513 1_555
Co0 O5 1.927513 1_555
Co0 O0 1.952575 1_555
Co0 O8 1.952575 1_555
Co0 O4 1.958019 1_555
Co0 O7 1.958019 1_555
Co1 O1 1.927513 1_554
Co1 O5 1.927513 1_555
Co1 O3 1.952575 1_554
Co1 O6 1.952575 1_555
Co1 O2 1.958019 1_555
Co1 O11 1.958019 1_554
Co2 O10 1.927513 1_445
Co2 O9 1.927513 1_554
Co2 O11 1.952575 1_454
Co2 O2 1.952575 1_545
Co2 O6 1.958019 1_555
Co2 O3 1.958019 1_444
Co3 O9 1.927513 1_555
Co3 O10 1.927513 1_445
Co3 O7 1.952575 1_455
Co3 O4 1.952575 1_545
Co3 O8 1.958019 1_555
Co3 O0 1.958019 1_445
