# generated using pymatgen
data_Li6Br3N
_symmetry_space_group_name_H-M   'P 1'
_cell_length_a   13.85012043
_cell_length_b   13.85001117
_cell_length_c   13.85024856
_cell_angle_alpha   131.51011630
_cell_angle_beta   131.11005428
_cell_angle_gamma   71.32241573
_symmetry_Int_Tables_number   1
_chemical_formula_structural   Li6Br3N
_chemical_formula_sum   'Li48 Br24 N8'
_cell_volume   1467.24669495
_cell_formula_units_Z   8
loop_
 _symmetry_equiv_pos_site_id
 _symmetry_equiv_pos_as_xyz
  1  'x, y, z'
loop_
 _atom_site_type_symbol
 _atom_site_label
 _atom_site_symmetry_multiplicity
 _atom_site_fract_x
 _atom_site_fract_y
 _atom_site_fract_z
 _atom_site_occupancy
  Li  Li0  1  0.33619811  0.37583038  0.82779978  1
  Li  Li1  1  0.54928666  0.01126909  0.17355982  1
  Li  Li2  1  0.42338347  0.64214642  0.99433938  1
  Li  Li3  1  0.16375544  0.99159291  0.03959003  1
  Li  Li4  1  0.04932048  0.87577806  0.53809576  1
  Li  Li5  1  0.51502330  0.54562042  0.67488090  1
  Li  Li6  1  0.87885788  0.33379305  0.32064779  1
  Li  Li7  1  0.48686551  0.44179427  0.82068591  1
  Li  Li8  1  0.87074612  0.04562181  0.53059448  1
  Li  Li9  1  0.64781424  0.14214043  0.71878044  1
  Li  Li10  1  0.51313512  0.55820588  0.17931527  1
  Li  Li11  1  0.45071517  0.98872932  0.82642996  1
  Li  Li12  1  0.63870178  0.91512756  0.99298985  1
  Li  Li13  1  0.01314544  0.83381091  0.95494706  1
  Li  Li14  1  0.07657555  0.07094736  0.21871547  1
  Li  Li15  1  0.66231509  0.62428657  0.67358608  1
  Li  Li16  1  0.95201623  0.49159977  0.32785436  1
  Li  Li17  1  0.48497762  0.45438074  0.32511836  1
  Li  Li18  1  0.12114345  0.66620757  0.67935422  1
  Li  Li19  1  0.83624978  0.00840947  0.96041565  1
  Li  Li20  1  0.66379641  0.62417048  0.17219684  1
  Li  Li21  1  0.42212202  0.64570598  0.50699609  1
  Li  Li22  1  0.07787307  0.58488062  0.22358736  1
  Li  Li23  1  0.86127682  0.85426582  0.27640146  1
  Li  Li24  1  0.37073750  0.84013725  0.82513375  1
  Li  Li25  1  0.01495497  0.34009474  0.96934794  1
  Li  Li26  1  0.36129748  0.08487471  0.00701087  1
  Li  Li27  1  0.54800024  0.87582495  0.53960814  1
  Li  Li28  1  0.12925603  0.95437923  0.46940575  1
  Li  Li29  1  0.85220897  0.57094826  0.49434973  1
  Li  Li30  1  0.14778892  0.42905481  0.50564802  1
  Li  Li31  1  0.33768253  0.37570475  0.32640656  1
  Li  Li32  1  0.95067883  0.12421983  0.46190534  1
  Li  Li33  1  0.62926691  0.15986289  0.17487434  1
  Li  Li34  1  0.98504514  0.65990297  0.03065124  1
  Li  Li35  1  0.92212602  0.41512148  0.77641446  1
  Li  Li36  1  0.04797947  0.50840258  0.67214246  1
  Li  Li37  1  0.57661149  0.35785375  0.00565689  1
  Li  Li38  1  0.98685345  0.16618941  0.04505142  1
  Li  Li39  1  0.35218654  0.85785286  0.28122278  1
  Li  Li40  1  0.92342926  0.92905353  0.78129083  1
  Li  Li41  1  0.83769899  0.51129991  0.96202127  1
  Li  Li42  1  0.45200111  0.12417473  0.46039471  1
  Li  Li43  1  0.57787765  0.35429682  0.49300634  1
  Li  Li44  1  0.62108529  0.94177799  0.45489767  1
  Li  Li45  1  0.13872315  0.14573659  0.72360086  1
  Li  Li46  1  0.16230167  0.48869903  0.03797754  1
  Li  Li47  1  0.37891146  0.05822183  0.54509946  1
  Br  Br0  1  0.25000884  0.77956679  0.52958218  1
  Br  Br1  1  0.63596274  0.38593876  0.25003115  1
  Br  Br2  1  0.38297398  0.64199720  0.27971961  1
  Br  Br3  1  0.72983378  0.75000549  0.47983494  1
  Br  Br4  1  0.86226872  0.10324881  0.22024220  1
  Br  Br5  1  0.88705235  0.63704624  0.25001696  1
  Br  Br6  1  0.24999895  0.27955186  0.02955602  1
  Br  Br7  1  0.88297506  0.60323847  0.74096718  1
  Br  Br8  1  0.27016741  0.25000172  0.52017068  1
  Br  Br9  1  0.13773513  0.89675488  0.77976222  1
  Br  Br10  1  0.38702995  0.13704791  0.24999030  1
  Br  Br11  1  0.77015746  0.25000131  0.02016680  1
  Br  Br12  1  0.75000530  0.72045728  0.97045106  1
  Br  Br13  1  0.13594161  0.88595852  0.25000640  1
  Br  Br14  1  0.86405928  0.11404505  0.74999441  1
  Br  Br15  1  0.11293762  0.36295779  0.74998229  1
  Br  Br16  1  0.22984427  0.75000644  0.97983478  1
  Br  Br17  1  0.63770115  0.85794256  0.24091135  1
  Br  Br18  1  0.36229922  0.14202391  0.75905745  1
  Br  Br19  1  0.74999072  0.22043634  0.47042466  1
  Br  Br20  1  0.36403849  0.61405948  0.74996966  1
  Br  Br21  1  0.61297711  0.86294862  0.75000925  1
  Br  Br22  1  0.61702324  0.35800372  0.72027774  1
  Br  Br23  1  0.11702572  0.39674998  0.25903072  1
  N  N0  1  0.00000069  0.50000077  0.00000169  1
  N  N1  1  -0.00000019  0.00000295  0.00000186  1
  N  N2  1  0.49999916  0.49999979  0.00000139  1
  N  N3  1  -0.00000033  0.00000121  0.50000047  1
  N  N4  1  0.00000162  0.50000287  0.50000305  1
  N  N5  1  0.49999784  -0.00000020  0.49999966  1
  N  N6  1  0.50000082  -0.00000019  -0.00000195  1
  N  N7  1  0.49999947  0.49999989  0.50000012  1
loop_
_geom_bond_atom_site_label_1
_geom_bond_atom_site_label_2
_geom_bond_distance
_geom_bond_site_symmetry_2
Li0 N2 1.933785 1_556
Li1 N6 1.918857 1_555
Li2 N2 1.940425 1_556
Li3 N1 1.933474 1_565
Li4 N3 1.918770 1_565
Li5 N7 1.924099 1_555
Li6 N4 1.923096 1_655
Li7 N2 1.922778 1_556
Li8 N3 1.923977 1_655
Li9 N5 1.940446 1_555
Li10 N2 1.922734 1_555
Li11 N6 1.918932 1_566
Li12 N6 1.931110 1_566
Li13 N1 1.922957 1_566
Li14 N1 1.940074 1_555
Li15 N7 1.919024 1_555
Li16 N4 1.933409 1_655
Li17 N7 1.924138 1_555
Li18 N4 1.923046 1_555
Li19 N1 1.933417 1_656
Li20 N2 1.933770 1_555
Li21 N7 1.931156 1_555
Li22 N0 1.931186 1_555
Li23 N3 1.931344 1_665
Li24 N6 1.924122 1_566
Li25 N0 1.924460 1_556
Li26 N6 1.931166 1_555
Li27 N5 1.933747 1_565
Li28 N3 1.924018 1_565
Li29 N4 1.940260 1_655
Li30 N4 1.940239 1_555
Li31 N7 1.919076 1_555
Li32 N3 1.918708 1_655
Li33 N6 1.924125 1_555
Li34 N0 1.924434 1_655
Li35 N0 1.931197 1_656
Li36 N4 1.933362 1_555
Li37 N2 1.940377 1_555
Li38 N1 1.922913 1_655
Li39 N5 1.940438 1_565
Li40 N1 1.940041 1_666
Li41 N0 1.919135 1_656
Li42 N5 1.933727 1_555
Li43 N7 1.931132 1_555
Li44 N5 1.922717 1_565
Li45 N3 1.931351 1_555
Li46 N0 1.919150 1_555
Li47 N5 1.922683 1_555
Br0 Li21 2.568809 1_555
Br0 Li22 2.568857 1_555
Br0 Li11 2.713733 1_555
Br0 Li4 2.714029 1_555
Br0 Li24 2.757149 1_555
Br0 Li28 2.757171 1_555
Br1 Li33 2.575857 1_555
Br1 Li17 2.576159 1_555
Br1 Li29 2.661091 1_555
Br1 Li37 2.661548 1_555
Br1 Li6 2.801588 1_555
Br1 Li10 2.802250 1_555
Br2 Li46 2.517163 1_555
Br2 Li10 2.519540 1_555
Br2 Li27 2.671918 1_555
Br2 Li21 2.786499 1_555
Br2 Li17 2.791010 1_555
Br2 Li39 2.869263 1_555
Br3 Li29 2.565908 1_555
Br3 Li40 2.566019 1_555
Br3 Li10 2.722511 1_555
Br3 Li44 2.722519 1_555
Br3 Li20 2.842895 1_555
Br3 Li27 2.843079 1_555
Br4 Li32 2.517220 1_555
Br4 Li6 2.519158 1_555
Br4 Li19 2.671671 1_554
Br4 Li12 2.786415 1_544
Br4 Li33 2.791003 1_555
Br4 Li14 2.868826 1_655
Br5 Li20 2.543714 1_555
Br5 Li16 2.543991 1_555
Br5 Li23 2.708952 1_555
Br5 Li22 2.709155 1_655
Br5 Li41 2.716597 1_554
Br5 Li4 2.717344 1_655
Br6 Li45 2.568704 1_554
Br6 Li26 2.568771 1_555
Br6 Li46 2.713800 1_555
Br6 Li31 2.713801 1_555
Br6 Li17 2.757097 1_555
Br6 Li25 2.757669 1_554
Br7 Li15 2.517032 1_555
Br7 Li13 2.519517 1_655
Br7 Li36 2.671923 1_655
Br7 Li35 2.786370 1_555
Br7 Li34 2.791105 1_556
Br7 Li29 2.869136 1_555
Br8 Li30 2.565907 1_555
Br8 Li14 2.566021 1_555
Br8 Li7 2.722468 1_555
Br8 Li47 2.722551 1_555
Br8 Li0 2.842853 1_555
Br8 Li42 2.843113 1_555
Br9 Li4 2.517192 1_555
Br9 Li18 2.519191 1_555
Br9 Li3 2.671683 1_556
Br9 Li26 2.786373 1_566
Br9 Li24 2.790995 1_555
Br9 Li40 2.868835 1_455
Br10 Li42 2.543888 1_555
Br10 Li3 2.543915 1_545
Br10 Li26 2.709053 1_555
Br10 Li43 2.709195 1_555
Br10 Li31 2.716644 1_555
Br10 Li1 2.717004 1_555
Br11 Li9 2.565495 1_554
Br11 Li37 2.565609 1_555
Br11 Li6 2.722369 1_555
Br11 Li38 2.722593 1_555
Br11 Li19 2.843034 1_554
Br11 Li16 2.843100 1_555
Br12 Li23 2.568684 1_556
Br12 Li12 2.568737 1_555
Br12 Li15 2.713852 1_555
Br12 Li41 2.713877 1_555
Br12 Li5 2.757163 1_555
Br12 Li34 2.757668 1_556
Br13 Li34 2.575548 1_455
Br13 Li28 2.576313 1_555
Br13 Li39 2.661229 1_555
Br13 Li14 2.661237 1_565
Br13 Li13 2.801692 1_554
Br13 Li47 2.802076 1_565
Br14 Li25 2.575491 1_655
Br14 Li8 2.576318 1_555
Br14 Li9 2.661261 1_555
Br14 Li40 2.661313 1_545
Br14 Li38 2.801694 1_556
Br14 Li44 2.802125 1_545
Br15 Li0 2.543782 1_555
Br15 Li36 2.544007 1_555
Br15 Li45 2.708977 1_555
Br15 Li35 2.709056 1_455
Br15 Li46 2.716535 1_556
Br15 Li32 2.717352 1_455
Br16 Li39 2.565573 1_556
Br16 Li2 2.565581 1_555
Br16 Li18 2.722321 1_555
Br16 Li13 2.722598 1_555
Br16 Li3 2.842946 1_556
Br16 Li36 2.843168 1_555
Br17 Li1 2.517409 1_565
Br17 Li44 2.519798 1_555
Br17 Li20 2.671666 1_555
Br17 Li23 2.786294 1_555
Br17 Li8 2.791512 1_565
Br17 Li2 2.868620 1_554
Br18 Li11 2.517172 1_545
Br18 Li47 2.519558 1_555
Br18 Li0 2.671971 1_555
Br18 Li45 2.786441 1_555
Br18 Li28 2.791306 1_545
Br18 Li37 2.868780 1_556
Br19 Li43 2.568790 1_555
Br19 Li35 2.568828 1_555
Br19 Li1 2.713779 1_555
Br19 Li32 2.714067 1_555
Br19 Li33 2.757132 1_555
Br19 Li8 2.757156 1_555
Br20 Li24 2.575847 1_555
Br20 Li5 2.576176 1_555
Br20 Li30 2.661082 1_555
Br20 Li2 2.661512 1_555
Br20 Li18 2.801594 1_555
Br20 Li7 2.802229 1_555
Br21 Li27 2.543842 1_555
Br21 Li19 2.543916 1_565
Br21 Li12 2.709093 1_555
Br21 Li21 2.709201 1_555
Br21 Li15 2.716668 1_555
Br21 Li11 2.717002 1_555
Br22 Li41 2.517182 1_555
Br22 Li7 2.519536 1_555
Br22 Li42 2.671910 1_555
Br22 Li43 2.786465 1_555
Br22 Li5 2.790996 1_555
Br22 Li9 2.869407 1_555
Br23 Li31 2.517018 1_555
Br23 Li38 2.519409 1_455
Br23 Li16 2.671976 1_455
Br23 Li22 2.786515 1_555
Br23 Li25 2.791151 1_554
Br23 Li30 2.869038 1_555
