# generated using pymatgen
data_KSnS4
_symmetry_space_group_name_H-M   'P 1'
_cell_length_a   10.06523343
_cell_length_b   9.65782084
_cell_length_c   14.61250626
_cell_angle_alpha   68.70655087
_cell_angle_beta   90.00000000
_cell_angle_gamma   90.00000000
_symmetry_Int_Tables_number   1
_chemical_formula_structural   KSnS4
_chemical_formula_sum   'K8 Sn8 S32'
_cell_volume   1323.48513875
_cell_formula_units_Z   8
loop_
 _symmetry_equiv_pos_site_id
 _symmetry_equiv_pos_as_xyz
  1  'x, y, z'
loop_
 _atom_site_type_symbol
 _atom_site_label
 _atom_site_symmetry_multiplicity
 _atom_site_fract_x
 _atom_site_fract_y
 _atom_site_fract_z
 _atom_site_occupancy
  K  K0  1  0.36187492  0.85566640  0.79725671  1
  K  K1  1  0.86187492  0.14433360  0.70274329  1
  K  K2  1  0.63812508  0.14433360  0.20274329  1
  K  K3  1  0.13812508  0.85566640  0.29725671  1
  K  K4  1  0.27286700  0.37332329  0.59630720  1
  K  K5  1  0.77286700  0.62667671  0.90369280  1
  K  K6  1  0.72713300  0.62667671  0.40369280  1
  K  K7  1  0.22713300  0.37332329  0.09630720  1
  Sn  Sn0  1  0.17309378  0.98668858  0.98412314  1
  Sn  Sn1  1  0.67309378  0.01331142  0.51587686  1
  Sn  Sn2  1  0.82690622  0.01331142  0.01587686  1
  Sn  Sn3  1  0.32690622  0.98668858  0.48412314  1
  Sn  Sn4  1  0.00012877  0.81030656  0.59450525  1
  Sn  Sn5  1  0.50012877  0.18969344  0.90549475  1
  Sn  Sn6  1  -0.00012877  0.18969344  0.40549475  1
  Sn  Sn7  1  0.49987123  0.81030656  0.09450525  1
  S  S0  1  0.27508871  0.74458684  0.03561228  1
  S  S1  1  0.77508871  0.25541316  0.46438772  1
  S  S2  1  0.72491129  0.25541316  0.96438772  1
  S  S3  1  0.22491129  0.74458684  0.53561228  1
  S  S4  1  0.04029267  0.07996097  0.08613284  1
  S  S5  1  0.54029267  0.92003903  0.41386716  1
  S  S6  1  0.95970733  0.92003903  0.91386716  1
  S  S7  1  0.45970733  0.07996097  0.58613284  1
  S  S8  1  0.89952785  0.93518202  0.42300056  1
  S  S9  1  0.39952785  0.06481798  0.07699944  1
  S  S10  1  0.10047215  0.06481798  0.57699944  1
  S  S11  1  0.60047215  0.93518202  0.92300056  1
  S  S12  1  0.06689395  0.71119926  0.77935170  1
  S  S13  1  0.56689395  0.28880074  0.72064830  1
  S  S14  1  0.93310605  0.28880074  0.22064830  1
  S  S15  1  0.43310605  0.71119926  0.27935170  1
  S  S16  1  0.27176279  0.15308521  0.83448824  1
  S  S17  1  0.77176279  0.84691479  0.66551176  1
  S  S18  1  0.72823721  0.84691479  0.16551176  1
  S  S19  1  0.22823721  0.15308521  0.33448824  1
  S  S20  1  0.14338835  0.50590274  0.80393002  1
  S  S21  1  0.64338835  0.49409726  0.69606998  1
  S  S22  1  0.85661165  0.49409726  0.19606998  1
  S  S23  1  0.35661165  0.50590274  0.30393002  1
  S  S24  1  0.34403019  0.53899107  0.77187194  1
  S  S25  1  0.84403019  0.46100893  0.72812806  1
  S  S26  1  0.65596981  0.46100893  0.22812806  1
  S  S27  1  0.15596981  0.53899107  0.27187194  1
  S  S28  1  0.44043794  0.45297218  0.90321110  1
  S  S29  1  0.94043794  0.54702782  0.59678890  1
  S  S30  1  0.55956206  0.54702782  0.09678890  1
  S  S31  1  0.05956206  0.45297218  0.40321110  1
loop_
_geom_bond_atom_site_label_1
_geom_bond_atom_site_label_2
_geom_bond_distance
_geom_bond_site_symmetry_2
K0 S7 3.213397 1_565
K0 S24 3.216765 1_555
K0 S16 3.241051 1_565
K0 S11 3.279956 1_555
K0 S12 3.330997 1_555
K0 S0 3.366191 1_556
K1 S6 3.213397 1_545
K1 S25 3.216765 1_555
K1 S17 3.241051 1_545
K1 S10 3.279956 1_655
K1 S13 3.330997 1_555
K1 S1 3.366191 1_555
K2 S5 3.213397 1_545
K2 S26 3.216765 1_555
K2 S18 3.241051 1_545
K2 S9 3.279956 1_555
K2 S14 3.330997 1_555
K2 S2 3.366191 1_554
K3 S4 3.213397 1_565
K3 S27 3.216765 1_555
K3 S19 3.241051 1_565
K3 S8 3.279956 1_455
K3 S15 3.330997 1_555
K3 S3 3.366191 1_555
K4 S16 3.355742 1_555
K4 S3 3.400945 1_555
K4 S31 3.403866 1_555
K4 S13 3.413025 1_555
K4 S7 3.448465 1_555
K4 S10 3.546602 1_555
K4 S24 3.554671 1_555
K4 S29 3.744135 1_455
K5 S17 3.355742 1_555
K5 S2 3.400945 1_555
K5 S30 3.403866 1_556
K5 S12 3.413025 1_655
K5 S6 3.448465 1_555
K5 S11 3.546602 1_555
K5 S25 3.554671 1_555
K5 S28 3.744135 1_555
K6 S18 3.355742 1_555
K6 S1 3.400945 1_555
K6 S29 3.403866 1_555
K6 S15 3.413025 1_555
K6 S5 3.448465 1_555
K6 S8 3.546602 1_555
K6 S26 3.554671 1_555
K6 S31 3.744135 1_655
K7 S19 3.355742 1_555
K7 S0 3.400945 1_555
K7 S28 3.403866 1_554
K7 S14 3.413025 1_455
K7 S4 3.448465 1_555
K7 S9 3.546602 1_555
K7 S27 3.554671 1_555
K7 S30 3.744135 1_555
S0 Sn0 2.410263 1_554
S0 Sn7 2.580505 1_555
S1 Sn1 2.410263 1_555
S1 Sn6 2.580505 1_655
S2 Sn2 2.410263 1_556
S2 Sn5 2.580505 1_555
S3 Sn3 2.410263 1_555
S3 Sn4 2.580505 1_555
S4 Sn0 2.407348 1_544
S4 Sn2 2.561484 1_455
S5 Sn1 2.407348 1_565
S5 Sn3 2.561484 1_555
S6 Sn2 2.407348 1_566
S6 Sn0 2.561484 1_655
S7 Sn3 2.407348 1_545
S7 Sn1 2.561484 1_555
S8 Sn4 2.562272 1_655
S8 Sn6 2.582773 1_665
S8 Sn1 2.889523 1_565
S9 Sn5 2.562272 1_554
S9 Sn7 2.582773 1_545
S9 Sn0 2.889523 1_544
S10 Sn6 2.562272 1_555
S10 Sn4 2.582773 1_545
S10 Sn3 2.889523 1_545
S11 Sn7 2.562272 1_556
S11 Sn5 2.582773 1_565
S11 Sn2 2.889523 1_566
S12 S20 2.033659 1_555
S12 Sn4 2.604959 1_555
S13 S21 2.033659 1_555
S13 Sn5 2.604959 1_555
S14 S22 2.033659 1_555
S14 Sn6 2.604959 1_655
S15 S23 2.033659 1_555
S15 Sn7 2.604959 1_555
S16 Sn0 2.407850 1_545
S16 Sn5 2.598342 1_555
S17 Sn1 2.407850 1_565
S17 Sn4 2.598342 1_655
S18 Sn2 2.407850 1_565
S18 Sn7 2.598342 1_555
S19 Sn3 2.407850 1_545
S19 Sn6 2.598342 1_555
S20 S24 2.071533 1_555
S21 S25 2.071533 1_555
S22 S26 2.071533 1_555
S23 S27 2.071533 1_555
S24 S28 2.038894 1_555
S25 S29 2.038894 1_555
S26 S30 2.038894 1_555
S27 S31 2.038894 1_555
S28 Sn5 2.601109 1_555
S29 Sn4 2.601109 1_655
S30 Sn7 2.601109 1_555
S31 Sn6 2.601109 1_555
