# generated using pymatgen
data_TlBiP2S7
_symmetry_space_group_name_H-M   'P 1'
_cell_length_a   12.62594400
_cell_length_b   9.19640100
_cell_length_c   9.76927840
_cell_angle_alpha   89.55142489
_cell_angle_beta   90.00000000
_cell_angle_gamma   90.00000000
_symmetry_Int_Tables_number   1
_chemical_formula_structural   TlBiP2S7
_chemical_formula_sum   'Tl4 Bi4 P8 S28'
_cell_volume   1134.30784253
_cell_formula_units_Z   4
loop_
 _symmetry_equiv_pos_site_id
 _symmetry_equiv_pos_as_xyz
  1  'x, y, z'
loop_
 _atom_site_type_symbol
 _atom_site_label
 _atom_site_symmetry_multiplicity
 _atom_site_fract_x
 _atom_site_fract_y
 _atom_site_fract_z
 _atom_site_occupancy
  Tl  Tl0  1  0.31208100  0.87989100  0.11724700  1
  Tl  Tl1  1  0.81208100  0.62010900  0.88275300  1
  Tl  Tl2  1  0.68791900  0.12010900  0.88275300  1
  Tl  Tl3  1  0.18791900  0.37989100  0.11724700  1
  Bi  Bi0  1  0.36311200  0.12250000  0.65545800  1
  Bi  Bi1  1  0.63688800  0.87750000  0.34454200  1
  Bi  Bi2  1  0.13688800  0.62250000  0.65545800  1
  Bi  Bi3  1  0.86311200  0.37750000  0.34454200  1
  P  P0  1  0.60585900  0.51868300  0.22463600  1
  P  P1  1  0.10585900  0.98131700  0.77536400  1
  P  P2  1  0.03627700  0.69884100  0.32052400  1
  P  P3  1  0.53627700  0.80115900  0.67947600  1
  P  P4  1  0.39414100  0.48131700  0.77536400  1
  P  P5  1  0.46372300  0.19884100  0.32052400  1
  P  P6  1  0.96372300  0.30115900  0.67947600  1
  P  P7  1  0.89414100  0.01868300  0.22463600  1
  S  S0  1  0.67418800  0.57139700  0.40647100  1
  S  S1  1  0.19144400  0.65213600  0.34852900  1
  S  S2  1  0.52856700  0.07241700  0.17006100  1
  S  S3  1  0.05545000  0.79514400  0.87062100  1
  S  S4  1  0.97143300  0.57241700  0.17006100  1
  S  S5  1  0.79145600  0.88953300  0.12135200  1
  S  S6  1  0.94455000  0.20485600  0.12937900  1
  S  S7  1  0.47143300  0.92758300  0.82993900  1
  S  S8  1  0.54687900  0.58085500  0.75153500  1
  S  S9  1  0.44787500  0.81623600  0.50588400  1
  S  S10  1  0.04687900  0.91914500  0.24846500  1
  S  S11  1  0.69144400  0.84786400  0.65147100  1
  S  S12  1  0.05212500  0.31623600  0.50588400  1
  S  S13  1  0.30855600  0.15213600  0.34852900  1
  S  S14  1  0.70854400  0.38953300  0.12135200  1
  S  S15  1  0.82581200  0.07139700  0.40647100  1
  S  S16  1  0.29145600  0.61046700  0.87864800  1
  S  S17  1  0.95312100  0.08085500  0.75153500  1
  S  S18  1  0.80855600  0.34786400  0.65147100  1
  S  S19  1  0.20854400  0.11046700  0.87864800  1
  S  S20  1  0.32581200  0.42860300  0.59352900  1
  S  S21  1  0.45312100  0.41914500  0.24846500  1
  S  S22  1  0.02856700  0.42758300  0.82993900  1
  S  S23  1  0.55212500  0.18376400  0.49411600  1
  S  S24  1  0.55545000  0.70485600  0.12937900  1
  S  S25  1  0.44455000  0.29514400  0.87062100  1
  S  S26  1  0.94787500  0.68376400  0.49411600  1
  S  S27  1  0.17418800  0.92860300  0.59352900  1
loop_
_geom_bond_atom_site_label_1
_geom_bond_atom_site_label_2
_geom_bond_distance
_geom_bond_site_symmetry_2
Bi0 S7 2.818035 1_545
Bi0 S25 2.837018 1_555
Bi0 S23 2.912583 1_555
Bi0 S20 2.913011 1_555
Bi0 S19 2.927669 1_555
Bi0 S27 3.041780 1_545
Bi0 S13 3.086553 1_555
Bi1 S2 2.818035 1_565
Bi1 S24 2.837018 1_555
Bi1 S9 2.912583 1_555
Bi1 S0 2.913011 1_555
Bi1 S5 2.927669 1_555
Bi1 S15 3.041780 1_565
Bi1 S11 3.086553 1_555
Bi2 S22 2.818035 1_555
Bi2 S3 2.837018 1_555
Bi2 S26 2.912583 1_455
Bi2 S27 2.913011 1_555
Bi2 S16 2.927669 1_555
Bi2 S20 3.041780 1_555
Bi2 S1 3.086553 1_555
Bi3 S4 2.818035 1_555
Bi3 S6 2.837018 1_555
Bi3 S12 2.912583 1_655
Bi3 S15 2.913011 1_555
Bi3 S14 2.927669 1_555
Bi3 S0 3.041780 1_555
Bi3 S18 3.086553 1_555
P0 S14 2.031855 1_555
P0 S0 2.036753 1_555
P0 S24 2.043893 1_555
P0 S21 2.146569 1_555
P1 S19 2.031855 1_565
P1 S27 2.036753 1_555
P1 S3 2.043893 1_555
P1 S17 2.146569 1_465
P2 S1 2.023780 1_555
P2 S26 2.034041 1_455
P2 S4 2.051695 1_455
P2 S10 2.143792 1_555
P3 S11 2.023780 1_555
P3 S9 2.034041 1_555
P3 S7 2.051695 1_555
P3 S8 2.143792 1_555
P4 S16 2.031855 1_555
P4 S20 2.036753 1_555
P4 S25 2.043893 1_555
P4 S8 2.146569 1_555
P5 S13 2.023780 1_555
P5 S23 2.034041 1_555
P5 S2 2.051695 1_555
P5 S21 2.143792 1_555
P6 S18 2.023780 1_555
P6 S12 2.034041 1_655
P6 S22 2.051695 1_655
P6 S17 2.143792 1_555
P7 S5 2.031855 1_545
P7 S15 2.036753 1_555
P7 S6 2.043893 1_555
P7 S10 2.146569 1_645
