# generated using pymatgen
data_KNaThF6
_symmetry_space_group_name_H-M   'P 1'
_cell_length_a   6.27193812
_cell_length_b   6.27193811
_cell_length_c   7.85930958
_cell_angle_alpha   90.00000000
_cell_angle_beta   90.00000000
_cell_angle_gamma   119.99999429
_symmetry_Int_Tables_number   1
_chemical_formula_structural   KNaThF6
_chemical_formula_sum   'K2 Na2 Th2 F12'
_cell_volume   267.74328176
_cell_formula_units_Z   2
loop_
 _symmetry_equiv_pos_site_id
 _symmetry_equiv_pos_as_xyz
  1  'x, y, z'
loop_
 _atom_site_type_symbol
 _atom_site_label
 _atom_site_symmetry_multiplicity
 _atom_site_fract_x
 _atom_site_fract_y
 _atom_site_fract_z
 _atom_site_occupancy
  K  K0  1  0.66666700  0.33333300  0.39155438  1
  K  K1  1  0.33333300  0.66666700  0.60844562  1
  Na  Na0  1  0.00000000  -0.00000000  0.23378602  1
  Na  Na1  1  0.00000000  -0.00000000  0.76621398  1
  Th  Th0  1  0.33333300  0.66666700  0.12356646  1
  Th  Th1  1  0.66666700  0.33333300  0.87643354  1
  F  F0  1  0.27588378  0.89560481  0.32518145  1
  F  F1  1  0.92227197  0.61283060  0.09884931  1
  F  F2  1  0.38716940  0.30944037  0.09884931  1
  F  F3  1  0.61283060  0.69055963  0.90115069  1
  F  F4  1  0.89560481  0.61972104  0.67481855  1
  F  F5  1  0.72411622  0.10439519  0.67481855  1
  F  F6  1  0.30944037  0.92227197  0.90115069  1
  F  F7  1  0.07772803  0.38716940  0.90115069  1
  F  F8  1  0.10439519  0.38027896  0.32518145  1
  F  F9  1  0.69055963  0.07772803  0.09884931  1
  F  F10  1  0.61972104  0.72411622  0.32518145  1
  F  F11  1  0.38027896  0.27588378  0.67481855  1
loop_
_geom_bond_atom_site_label_1
_geom_bond_atom_site_label_2
_geom_bond_distance
_geom_bond_site_symmetry_2
F0 Na0 2.252032 1_565
F0 Th0 2.284684 1_555
F0 K0 2.662275 1_565
F0 K1 2.768610 1_555
F1 Th1 2.426596 1_554
F1 Th0 2.434763 1_655
F1 Na0 2.464789 1_665
F1 K0 2.850414 1_555
F2 Th1 2.426596 1_554
F2 Th0 2.434775 1_555
F2 Na0 2.464787 1_555
F2 K0 2.850414 1_555
F3 Th0 2.426596 1_556
F3 Th1 2.434775 1_555
F3 Na1 2.464787 1_665
F3 K1 2.850414 1_555
F4 Na1 2.252032 1_665
F4 Th1 2.284687 1_555
F4 K1 2.662272 1_655
F4 K0 2.768613 1_555
F5 Na1 2.252032 1_655
F5 Th1 2.284684 1_555
F5 K1 2.662275 1_545
F5 K0 2.768610 1_555
F6 Th0 2.426596 1_556
F6 Th1 2.434768 1_565
F6 Na1 2.464783 1_565
F6 K1 2.850414 1_555
F7 Th0 2.426596 1_556
F7 Th1 2.434763 1_455
F7 Na1 2.464789 1_555
F7 K1 2.850414 1_555
F8 Na0 2.252032 1_555
F8 Th0 2.284687 1_555
F8 K0 2.662272 1_455
F8 K1 2.768613 1_555
F9 Th1 2.426596 1_554
F9 Th0 2.434768 1_545
F9 Na0 2.464783 1_655
F9 K0 2.850414 1_555
F10 Na0 2.252032 1_665
F10 Th0 2.284688 1_555
F10 K0 2.662278 1_555
F10 K1 2.768614 1_555
F11 Na1 2.252032 1_555
F11 Th1 2.284688 1_555
F11 K1 2.662278 1_555
F11 K0 2.768614 1_555
