# generated using pymatgen
data_CaAlSi
_symmetry_space_group_name_H-M   'P 1'
_cell_length_a   4.19095953
_cell_length_b   4.19093121
_cell_length_c   26.38071511
_cell_angle_alpha   90.00050920
_cell_angle_beta   90.00001965
_cell_angle_gamma   120.00015740
_symmetry_Int_Tables_number   1
_chemical_formula_structural   CaAlSi
_chemical_formula_sum   'Ca6 Al6 Si6'
_cell_volume   401.27352438
_cell_formula_units_Z   6
loop_
 _symmetry_equiv_pos_site_id
 _symmetry_equiv_pos_as_xyz
  1  'x, y, z'
loop_
 _atom_site_type_symbol
 _atom_site_label
 _atom_site_symmetry_multiplicity
 _atom_site_fract_x
 _atom_site_fract_y
 _atom_site_fract_z
 _atom_site_occupancy
  Ca  Ca0  1  0.00000267  0.00000376  0.33232167  1
  Ca  Ca1  1  0.00000263  0.00000318  0.83216547  1
  Ca  Ca2  1  0.00000193  0.00000391  0.16780247  1
  Ca  Ca3  1  0.00000159  0.00000262  0.99995831  1
  Ca  Ca4  1  -0.00000113  -0.00000006  0.66771209  1
  Ca  Ca5  1  0.00000331  0.00000270  0.50005470  1
  Al  Al0  1  0.33333536  0.66666921  0.41053030  1
  Al  Al1  1  0.33333407  0.66667121  0.25003292  1
  Al  Al2  1  0.33330575  0.66661331  0.08950424  1
  Al  Al3  1  0.66666686  0.33333503  0.91044502  1
  Al  Al4  1  0.66667006  0.33333402  0.74996894  1
  Al  Al5  1  0.66666818  0.33333538  0.58949549  1
  Si  Si0  1  0.33333506  0.66667071  0.57896094  1
  Si  Si1  1  0.33333701  0.66667100  0.92101068  1
  Si  Si2  1  0.33333337  0.66667311  0.74994641  1
  Si  Si3  1  0.66666811  0.33333532  0.25003333  1
  Si  Si4  1  0.66666952  0.33333727  0.07895080  1
  Si  Si5  1  0.66666766  0.33333631  0.42110622  1
loop_
_geom_bond_atom_site_label_1
_geom_bond_atom_site_label_2
_geom_bond_distance
_geom_bond_site_symmetry_2
Ca0 Si3 3.250695 1_445
Ca0 Si3 3.250724 1_455
Ca0 Si3 3.250725 1_555
Ca0 Si5 3.367566 1_555
Ca0 Si5 3.367572 1_455
Ca0 Si5 3.367588 1_445
Ca1 Si2 3.249474 1_545
Ca1 Si2 3.249497 1_445
Ca1 Si2 3.249513 1_555
Ca1 Si1 3.368667 1_555
Ca1 Si1 3.368700 1_545
Ca1 Si1 3.368700 1_445
Ca2 Si3 3.249693 1_455
Ca2 Si3 3.249697 1_555
Ca2 Si3 3.249717 1_445
Ca2 Si4 3.368782 1_445
Ca2 Si4 3.368816 1_455
Ca2 Si4 3.368824 1_555
Ca3 Si1 3.192526 1_445
Ca3 Si1 3.192532 1_545
Ca3 Si1 3.192549 1_555
Ca3 Si4 3.193303 1_456
Ca3 Si4 3.193307 1_556
Ca3 Si4 3.193313 1_446
Ca4 Si2 3.249757 1_555
Ca4 Si2 3.249760 1_545
Ca4 Si2 3.249774 1_445
Ca4 Si0 3.366951 1_445
Ca4 Si0 3.366954 1_545
Ca4 Si0 3.366984 1_555
Ca5 Si0 3.191803 1_555
Ca5 Si0 3.191826 1_545
Ca5 Si0 3.191841 1_445
Ca5 Si5 3.192525 1_445
Ca5 Si5 3.192557 1_555
Ca5 Si5 3.192568 1_455
Al0 Si5 2.435662 1_565
Al0 Si5 2.435674 1_555
Al0 Si5 2.435685 1_455
Al0 Ca0 3.179824 1_555
Al0 Ca0 3.179864 1_565
Al0 Ca0 3.179867 1_665
Al0 Ca5 3.381171 1_565
Al0 Ca5 3.381178 1_665
Al0 Ca5 3.381190 1_555
Al1 Si3 2.419622 1_565
Al1 Si3 2.419645 1_455
Al1 Si3 2.419657 1_555
Al1 Ca2 3.249673 1_555
Al1 Ca2 3.249701 1_565
Al1 Ca2 3.249712 1_665
Al1 Ca0 3.250710 1_565
Al1 Ca0 3.250723 1_665
Al1 Ca0 3.250734 1_555
Al2 Si4 2.435501 1_455
Al2 Si4 2.435511 1_555
Al2 Si4 2.435805 1_565
Al2 Ca2 3.181237 1_555
Al2 Ca2 3.181458 1_565
Al2 Ca2 3.181464 1_665
Al2 Ca3 3.381406 1_554
Al2 Ca3 3.381657 1_564
Al2 Ca3 3.381666 1_664
Al3 Si1 2.435626 1_545
Al3 Si1 2.435642 1_555
Al3 Si1 2.435660 1_655
Al3 Ca1 3.181055 1_555
Al3 Ca1 3.181064 1_655
Al3 Ca1 3.181079 1_665
Al3 Ca3 3.380952 1_665
Al3 Ca3 3.380985 1_555
Al3 Ca3 3.380987 1_655
Al4 Si2 2.419611 1_545
Al4 Si2 2.419636 1_655
Al4 Si2 2.419679 1_555
Al4 Ca1 3.249080 1_665
Al4 Ca1 3.249100 1_655
Al4 Ca1 3.249114 1_555
Al4 Ca4 3.250145 1_655
Al4 Ca4 3.250168 1_665
Al4 Ca4 3.250168 1_555
Al5 Si0 2.435529 1_545
Al5 Si0 2.435557 1_655
Al5 Si0 2.435561 1_555
Al5 Ca4 3.179958 1_665
Al5 Ca4 3.179997 1_655
Al5 Ca4 3.180009 1_555
Al5 Ca5 3.379630 1_555
Al5 Ca5 3.379637 1_655
Al5 Ca5 3.379651 1_665
