# generated using pymatgen
data_CaCO3
_symmetry_space_group_name_H-M   'P 1'
_cell_length_a   5.02851577
_cell_length_b   6.34189696
_cell_length_c   8.03480384
_cell_angle_alpha   72.94075117
_cell_angle_beta   90.00000000
_cell_angle_gamma   90.00000000
_symmetry_Int_Tables_number   1
_chemical_formula_structural   CaCO3
_chemical_formula_sum   'Ca4 C4 O12'
_cell_volume   244.95879368
_cell_formula_units_Z   4
loop_
 _symmetry_equiv_pos_site_id
 _symmetry_equiv_pos_as_xyz
  1  'x, y, z'
loop_
 _atom_site_type_symbol
 _atom_site_label
 _atom_site_symmetry_multiplicity
 _atom_site_fract_x
 _atom_site_fract_y
 _atom_site_fract_z
 _atom_site_occupancy
  Ca  Ca0  1  0.75370090  0.75697401  0.73422641  1
  Ca  Ca1  1  0.74629910  0.75697401  0.23422641  1
  Ca  Ca2  1  0.25370090  0.24302599  0.76577359  1
  Ca  Ca3  1  0.24629910  0.24302599  0.26577359  1
  C  C0  1  0.25297691  0.74633567  0.99871480  1
  C  C1  1  0.74702309  0.25366433  0.00128520  1
  C  C2  1  0.24702309  0.74633567  0.49871480  1
  C  C3  1  0.75297691  0.25366433  0.50128520  1
  O  O0  1  0.89891641  0.12770000  0.62269088  1
  O  O1  1  0.10108359  0.87230000  0.37730912  1
  O  O2  1  0.63652542  0.38641566  0.86599475  1
  O  O3  1  0.13652542  0.61358434  0.63400525  1
  O  O4  1  0.50274619  0.75744883  0.48573538  1
  O  O5  1  0.00274619  0.24255117  0.01426462  1
  O  O6  1  0.39891641  0.87230000  0.87730912  1
  O  O7  1  0.49725381  0.24255117  0.51426462  1
  O  O8  1  0.60108359  0.12770000  0.12269088  1
  O  O9  1  0.86347458  0.38641566  0.36599475  1
  O  O10  1  0.99725381  0.75744883  0.98573538  1
  O  O11  1  0.36347458  0.61358434  0.13400525  1
loop_
_geom_bond_atom_site_label_1
_geom_bond_atom_site_label_2
_geom_bond_distance
_geom_bond_site_symmetry_2
Ca0 O2 2.351807 1_555
Ca0 O6 2.352176 1_555
Ca0 O4 2.361200 1_555
Ca0 O10 2.363732 1_555
Ca0 O3 2.368711 1_655
Ca0 O0 2.372303 1_565
Ca1 O9 2.351807 1_555
Ca1 O1 2.352176 1_655
Ca1 O10 2.361200 1_554
Ca1 O4 2.363732 1_555
Ca1 O11 2.368711 1_555
Ca1 O8 2.372303 1_565
Ca2 O3 2.351807 1_555
Ca2 O0 2.352176 1_455
Ca2 O5 2.361200 1_556
Ca2 O7 2.363732 1_555
Ca2 O2 2.368711 1_555
Ca2 O6 2.372303 1_545
Ca3 O11 2.351807 1_555
Ca3 O8 2.352176 1_555
Ca3 O7 2.361200 1_555
Ca3 O5 2.363732 1_555
Ca3 O9 2.368711 1_455
Ca3 O1 2.372303 1_545
C0 O11 1.289269 1_556
C0 O10 1.290383 1_455
C0 O6 1.292692 1_555
C1 O2 1.289269 1_554
C1 O5 1.290383 1_655
C1 O8 1.292692 1_555
C2 O3 1.289269 1_555
C2 O4 1.290383 1_555
C2 O1 1.292692 1_555
C3 O9 1.289269 1_555
C3 O7 1.290383 1_555
C3 O0 1.292692 1_555
