# generated using pymatgen
data_NaHfCuSe3
_symmetry_space_group_name_H-M   'P 1'
_cell_length_a   3.82389632
_cell_length_b   10.24781809
_cell_length_c   13.55338593
_cell_angle_alpha   90.00000000
_cell_angle_beta   90.00000000
_cell_angle_gamma   90.00000000
_symmetry_Int_Tables_number   1
_chemical_formula_structural   NaHfCuSe3
_chemical_formula_sum   'Na4 Hf4 Cu4 Se12'
_cell_volume   531.11103017
_cell_formula_units_Z   4
loop_
 _symmetry_equiv_pos_site_id
 _symmetry_equiv_pos_as_xyz
  1  'x, y, z'
loop_
 _atom_site_type_symbol
 _atom_site_label
 _atom_site_symmetry_multiplicity
 _atom_site_fract_x
 _atom_site_fract_y
 _atom_site_fract_z
 _atom_site_occupancy
  Na  Na0  1  0.25000000  0.04203851  0.22888619  1
  Na  Na1  1  0.75000000  0.95796149  0.77111381  1
  Na  Na2  1  0.75000000  0.54203851  0.27111381  1
  Na  Na3  1  0.25000000  0.45796149  0.72888619  1
  Hf  Hf0  1  0.25000000  0.32176765  0.01046712  1
  Hf  Hf1  1  0.75000000  0.67823235  0.98953288  1
  Hf  Hf2  1  0.75000000  0.82176765  0.48953288  1
  Hf  Hf3  1  0.25000000  0.17823235  0.51046712  1
  Cu  Cu0  1  0.25000000  0.58920520  0.49226862  1
  Cu  Cu1  1  0.75000000  0.41079480  0.50773138  1
  Cu  Cu2  1  0.75000000  0.08920520  0.00773138  1
  Cu  Cu3  1  0.25000000  0.91079480  0.99226862  1
  Se  Se0  1  0.25000000  0.56408316  0.10175544  1
  Se  Se1  1  0.75000000  0.43591684  0.89824456  1
  Se  Se2  1  0.75000000  0.06408316  0.39824456  1
  Se  Se3  1  0.25000000  0.93591684  0.60175544  1
  Se  Se4  1  0.25000000  0.37959012  0.39483643  1
  Se  Se5  1  0.75000000  0.62040988  0.60516357  1
  Se  Se6  1  0.75000000  0.87959012  0.10516357  1
  Se  Se7  1  0.25000000  0.12040988  0.89483643  1
  Se  Se8  1  0.25000000  0.75244544  0.36326282  1
  Se  Se9  1  0.75000000  0.24755456  0.63673718  1
  Se  Se10  1  0.75000000  0.25244544  0.13673718  1
  Se  Se11  1  0.25000000  0.74755456  0.86326282  1
loop_
_geom_bond_atom_site_label_1
_geom_bond_atom_site_label_2
_geom_bond_distance
_geom_bond_site_symmetry_2
Na0 Se2 2.995888 1_555
Na0 Se2 2.995888 1_455
Na0 Se6 3.039535 1_445
Na0 Se6 3.039535 1_545
Na0 Se10 3.140800 1_555
Na0 Se10 3.140800 1_455
Na0 Se8 3.481983 1_545
Na1 Se3 2.995888 1_555
Na1 Se3 2.995888 1_655
Na1 Se7 3.039535 1_665
Na1 Se7 3.039535 1_565
Na1 Se11 3.140800 1_555
Na1 Se11 3.140800 1_655
Na1 Se9 3.481983 1_565
Na2 Se0 2.995888 1_655
Na2 Se0 2.995888 1_555
Na2 Se4 3.039535 1_655
Na2 Se4 3.039535 1_555
Na2 Se8 3.140800 1_555
Na2 Se8 3.140800 1_655
Na2 Se10 3.481983 1_555
Na3 Se1 2.995888 1_455
Na3 Se1 2.995888 1_555
Na3 Se5 3.039535 1_455
Na3 Se5 3.039535 1_555
Na3 Se9 3.140800 1_455
Na3 Se9 3.140800 1_555
Na3 Se11 3.481983 1_555
Hf0 Se7 2.591142 1_554
Hf0 Se10 2.662529 1_455
Hf0 Se10 2.662529 1_555
Hf0 Se1 2.708756 1_454
Hf0 Se1 2.708756 1_554
Hf0 Se0 2.774371 1_555
Hf1 Se6 2.591142 1_556
Hf1 Se11 2.662529 1_555
Hf1 Se11 2.662529 1_655
Hf1 Se0 2.708756 1_556
Hf1 Se0 2.708756 1_656
Hf1 Se1 2.774371 1_555
Hf2 Se5 2.591142 1_555
Hf2 Se8 2.662529 1_555
Hf2 Se8 2.662529 1_655
Hf2 Se3 2.708756 1_655
Hf2 Se3 2.708756 1_555
Hf2 Se2 2.774371 1_565
Hf3 Se4 2.591142 1_555
Hf3 Se9 2.662529 1_455
Hf3 Se9 2.662529 1_555
Hf3 Se2 2.708756 1_455
Hf3 Se2 2.708756 1_555
Hf3 Se3 2.774371 1_545
Cu0 Se8 2.419830 1_555
Cu0 Se5 2.469623 1_455
Cu0 Se5 2.469623 1_555
Cu0 Se4 2.521535 1_555
Cu1 Se9 2.419830 1_555
Cu1 Se4 2.469623 1_555
Cu1 Se4 2.469623 1_655
Cu1 Se5 2.521535 1_555
Cu2 Se10 2.419830 1_555
Cu2 Se7 2.469623 1_654
Cu2 Se7 2.469623 1_554
Cu2 Se6 2.521535 1_545
Cu3 Se11 2.419830 1_555
Cu3 Se6 2.469623 1_556
Cu3 Se6 2.469623 1_456
Cu3 Se7 2.521535 1_565
