# generated using pymatgen
data_Bi2Au5F21
_symmetry_space_group_name_H-M   'P 1'
_cell_length_a   8.40960500
_cell_length_b   8.40960500
_cell_length_c   26.15705500
_cell_angle_alpha   90.00000000
_cell_angle_beta   90.00000000
_cell_angle_gamma   90.00000000
_symmetry_Int_Tables_number   1
_chemical_formula_structural   Bi2Au5F21
_chemical_formula_sum   'Bi8 Au20 F84'
_cell_volume   1849.86502097
_cell_formula_units_Z   4
loop_
 _symmetry_equiv_pos_site_id
 _symmetry_equiv_pos_as_xyz
  1  'x, y, z'
loop_
 _atom_site_type_symbol
 _atom_site_label
 _atom_site_symmetry_multiplicity
 _atom_site_fract_x
 _atom_site_fract_y
 _atom_site_fract_z
 _atom_site_occupancy
  Bi  Bi0  1  0.05710300  0.57125400  0.75209600  1
  Bi  Bi1  1  0.07125400  0.44289700  0.50209600  1
  Bi  Bi2  1  0.42874600  0.94289700  0.74790400  1
  Bi  Bi3  1  0.44289700  0.07125400  0.49790400  1
  Bi  Bi4  1  0.94289700  0.42874600  0.25209600  1
  Bi  Bi5  1  0.92874600  0.55710300  0.00209600  1
  Bi  Bi6  1  0.55710300  0.92874600  0.99790400  1
  Bi  Bi7  1  0.57125400  0.05710300  0.24790400  1
  Au  Au0  1  0.82125400  0.20770300  0.11104100  1
  Au  Au1  1  0.41092100  0.35544600  0.84328000  1
  Au  Au2  1  0.35544600  0.41092100  0.15672000  1
  Au  Au3  1  0.29229700  0.32125400  0.36104100  1
  Au  Au4  1  0.94190500  0.05809500  0.75000000  1
  Au  Au5  1  0.44190500  0.44190500  0.00000000  1
  Au  Au6  1  0.70770300  0.67874600  0.86104100  1
  Au  Au7  1  0.32125400  0.29229700  0.63895900  1
  Au  Au8  1  0.08907900  0.85544600  0.40672000  1
  Au  Au9  1  0.91092100  0.14455400  0.90672000  1
  Au  Au10  1  0.79229700  0.17874600  0.38895900  1
  Au  Au11  1  0.20770300  0.82125400  0.88895900  1
  Au  Au12  1  0.05809500  0.94190500  0.25000000  1
  Au  Au13  1  0.17874600  0.79229700  0.61104100  1
  Au  Au14  1  0.64455400  0.58907900  0.65672000  1
  Au  Au15  1  0.58907900  0.64455400  0.34328000  1
  Au  Au16  1  0.67874600  0.70770300  0.13895900  1
  Au  Au17  1  0.55809500  0.55809500  0.50000000  1
  Au  Au18  1  0.85544600  0.08907900  0.59328000  1
  Au  Au19  1  0.14455400  0.91092100  0.09328000  1
  F  F0  1  0.55896300  0.79107900  0.49815800  1
  F  F1  1  0.90666400  0.80239800  0.36510500  1
  F  F2  1  0.36575700  0.52749700  0.89110900  1
  F  F3  1  0.41332500  0.22473900  0.20022100  1
  F  F4  1  0.94103700  0.29107900  0.75184200  1
  F  F5  1  0.09333600  0.19760200  0.86510500  1
  F  F6  1  0.68410000  0.03225700  0.54480400  1
  F  F7  1  0.30239800  0.59333600  0.11510500  1
  F  F8  1  0.32227700  0.93252800  0.83393100  1
  F  F9  1  0.18410000  0.46774300  0.20519600  1
  F  F10  1  0.81590000  0.53225700  0.70519600  1
  F  F11  1  0.82151000  0.54488500  0.81085200  1
  F  F12  1  0.41009700  0.22272600  0.30376500  1
  F  F13  1  0.93554000  0.82190800  0.75116900  1
  F  F14  1  0.63424300  0.47250300  0.39110900  1
  F  F15  1  0.20892100  0.44103700  0.00184200  1
  F  F16  1  0.91472800  0.30661600  0.33915100  1
  F  F17  1  0.03225700  0.68410000  0.45519600  1
  F  F18  1  0.27526100  0.91332500  0.45022100  1
  F  F19  1  0.71966600  0.28033400  0.25000000  1
  F  F20  1  0.43252800  0.17772300  0.58393100  1
  F  F21  1  0.56747200  0.82227700  0.08393100  1
  F  F22  1  0.96774300  0.31590000  0.95519600  1
  F  F23  1  0.58527200  0.80661600  0.91084900  1
  F  F24  1  0.69760200  0.40666400  0.61510500  1
  F  F25  1  0.47250300  0.63424300  0.60889100  1
  F  F26  1  0.72272600  0.08990300  0.05376500  1
  F  F27  1  0.79107900  0.55896300  0.50184200  1
  F  F28  1  0.80239800  0.90666400  0.63489500  1
  F  F29  1  0.19338400  0.41472800  0.58915100  1
  F  F30  1  0.67809200  0.43554000  0.00116900  1
  F  F31  1  0.91009700  0.27727400  0.44623500  1
  F  F32  1  0.82190800  0.93554000  0.24883100  1
  F  F33  1  0.58990300  0.77727400  0.80376500  1
  F  F34  1  0.30661600  0.91472800  0.66084900  1
  F  F35  1  0.17772300  0.43252800  0.41606900  1
  F  F36  1  0.32151000  0.95511500  0.93914800  1
  F  F37  1  0.22473900  0.41332500  0.79977900  1
  F  F38  1  0.58667500  0.77526100  0.70022100  1
  F  F39  1  0.45511500  0.17849000  0.68914800  1
  F  F40  1  0.02749700  0.13424300  0.64110900  1
  F  F41  1  0.54488500  0.82151000  0.18914800  1
  F  F42  1  0.67849000  0.04488500  0.43914800  1
  F  F43  1  0.04488500  0.67849000  0.56085200  1
  F  F44  1  0.93252800  0.32227700  0.16606900  1
  F  F45  1  0.82227700  0.56747200  0.91606900  1
  F  F46  1  0.08990300  0.72272600  0.94623500  1
  F  F47  1  0.46774300  0.18410000  0.79480400  1
  F  F48  1  0.97250300  0.86575700  0.14110900  1
  F  F49  1  0.91332500  0.27526100  0.54977900  1
  F  F50  1  0.05896300  0.70892100  0.25184200  1
  F  F51  1  0.08667500  0.72473900  0.04977900  1
  F  F52  1  0.13424300  0.02749700  0.35889100  1
  F  F53  1  0.53225700  0.81590000  0.29480400  1
  F  F54  1  0.95511500  0.32151000  0.06085200  1
  F  F55  1  0.52749700  0.36575700  0.10889100  1
  F  F56  1  0.72473900  0.08667500  0.95022100  1
  F  F57  1  0.29107900  0.94103700  0.24815800  1
  F  F58  1  0.59333600  0.30239800  0.88489500  1
  F  F59  1  0.44103700  0.20892100  0.99815800  1
  F  F60  1  0.17809200  0.06446000  0.74883100  1
  F  F61  1  0.43554000  0.67809200  0.99883100  1
  F  F62  1  0.86575700  0.97250300  0.85889100  1
  F  F63  1  0.17849000  0.45511500  0.31085200  1
  F  F64  1  0.28033400  0.71966600  0.75000000  1
  F  F65  1  0.40666400  0.69760200  0.38489500  1
  F  F66  1  0.41472800  0.19338400  0.41084900  1
  F  F67  1  0.21966600  0.21966600  0.50000000  1
  F  F68  1  0.78033400  0.78033400  0.00000000  1
  F  F69  1  0.22272600  0.41009700  0.69623500  1
  F  F70  1  0.67772300  0.06747200  0.33393100  1
  F  F71  1  0.56446000  0.32190800  0.49883100  1
  F  F72  1  0.08527200  0.69338400  0.83915100  1
  F  F73  1  0.80661600  0.58527200  0.08915100  1
  F  F74  1  0.70892100  0.05896300  0.74815800  1
  F  F75  1  0.31590000  0.96774300  0.04480400  1
  F  F76  1  0.06747200  0.67772300  0.66606900  1
  F  F77  1  0.32190800  0.56446000  0.50116900  1
  F  F78  1  0.19760200  0.09333600  0.13489500  1
  F  F79  1  0.69338400  0.08527200  0.16084900  1
  F  F80  1  0.06446000  0.17809200  0.25116900  1
  F  F81  1  0.77526100  0.58667500  0.29977900  1
  F  F82  1  0.77727400  0.58990300  0.19623500  1
  F  F83  1  0.27727400  0.91009700  0.55376500  1
loop_
_geom_bond_atom_site_label_1
_geom_bond_atom_site_label_2
_geom_bond_distance
_geom_bond_site_symmetry_2
Bi0 F64 2.254977 1_555
Bi0 F37 2.303678 1_555
Bi0 F13 2.342846 1_455
Bi0 F10 2.393115 1_455
Bi0 F76 2.423373 1_555
Bi0 F69 2.431397 1_555
Bi0 F72 2.509218 1_555
Bi0 F11 2.517243 1_455
Bi0 F4 2.550343 1_455
Bi1 F67 2.254977 1_555
Bi1 F49 2.303678 1_455
Bi1 F77 2.342846 1_555
Bi1 F17 2.393115 1_555
Bi1 F35 2.423373 1_555
Bi1 F31 2.431397 1_455
Bi1 F29 2.509218 1_555
Bi1 F43 2.517243 1_555
Bi1 F27 2.550343 1_455
Bi2 F64 2.254977 1_555
Bi2 F38 2.303678 1_555
Bi2 F60 2.342846 1_565
Bi2 F47 2.393115 1_565
Bi2 F8 2.423373 1_555
Bi2 F33 2.431397 1_555
Bi2 F34 2.509218 1_555
Bi2 F39 2.517243 1_565
Bi2 F74 2.550343 1_565
Bi3 F67 2.254977 1_555
Bi3 F18 2.303678 1_545
Bi3 F71 2.342846 1_555
Bi3 F6 2.393115 1_555
Bi3 F20 2.423373 1_555
Bi3 F83 2.431397 1_545
Bi3 F66 2.509218 1_555
Bi3 F42 2.517243 1_555
Bi3 F0 2.550343 1_545
Bi4 F19 2.254977 1_555
Bi4 F81 2.303678 1_555
Bi4 F80 2.342846 1_655
Bi4 F9 2.393115 1_655
Bi4 F44 2.423373 1_555
Bi4 F82 2.431397 1_555
Bi4 F16 2.509218 1_555
Bi4 F63 2.517243 1_655
Bi4 F50 2.550343 1_655
Bi5 F68 2.254977 1_555
Bi5 F51 2.303678 1_655
Bi5 F30 2.342846 1_555
Bi5 F22 2.393115 1_554
Bi5 F45 2.423373 1_554
Bi5 F46 2.431397 1_654
Bi5 F73 2.509218 1_555
Bi5 F54 2.517243 1_555
Bi5 F15 2.550343 1_655
Bi6 F68 2.254977 1_556
Bi6 F56 2.303678 1_565
Bi6 F61 2.342846 1_555
Bi6 F75 2.393115 1_556
Bi6 F21 2.423373 1_556
Bi6 F26 2.431397 1_566
Bi6 F23 2.509218 1_555
Bi6 F36 2.517243 1_555
Bi6 F59 2.550343 1_565
Bi7 F19 2.254977 1_555
Bi7 F3 2.303678 1_555
Bi7 F32 2.342846 1_545
Bi7 F53 2.393115 1_545
Bi7 F70 2.423373 1_555
Bi7 F12 2.431397 1_555
Bi7 F79 2.509218 1_555
Bi7 F41 2.517243 1_545
Bi7 F57 2.550343 1_545
Au0 F44 1.968712 1_555
Au0 F54 1.976528 1_555
Au0 F26 1.977993 1_555
Au0 F79 1.978329 1_555
Au1 F58 1.933178 1_555
Au1 F2 1.950099 1_555
Au1 F47 1.977999 1_555
Au1 F37 1.995772 1_555
Au2 F7 1.933178 1_555
Au2 F55 1.950099 1_555
Au2 F9 1.977999 1_555
Au2 F3 1.995772 1_555
Au3 F35 1.968712 1_555
Au3 F63 1.976528 1_555
Au3 F12 1.977993 1_555
Au3 F66 1.978329 1_555
Au4 F4 1.959909 1_555
Au4 F74 1.959909 1_555
Au4 F60 1.987196 1_655
Au4 F13 1.987196 1_545
Au5 F59 1.959909 1_554
Au5 F15 1.959909 1_555
Au5 F61 1.987196 1_554
Au5 F30 1.987196 1_555
Au6 F45 1.968712 1_555
Au6 F11 1.976528 1_555
Au6 F33 1.977993 1_555
Au6 F23 1.978329 1_555
Au7 F20 1.968712 1_555
Au7 F39 1.976528 1_555
Au7 F69 1.977993 1_555
Au7 F29 1.978329 1_555
Au8 F1 1.933178 1_455
Au8 F52 1.950099 1_565
Au8 F17 1.977999 1_555
Au8 F18 1.995772 1_555
Au9 F5 1.933178 1_655
Au9 F62 1.950099 1_545
Au9 F22 1.977999 1_555
Au9 F56 1.995772 1_555
Au10 F70 1.968712 1_555
Au10 F42 1.976528 1_555
Au10 F31 1.977993 1_555
Au10 F16 1.978329 1_555
Au11 F8 1.968712 1_555
Au11 F36 1.976528 1_555
Au11 F46 1.977993 1_555
Au11 F72 1.978329 1_555
Au12 F50 1.959909 1_555
Au12 F57 1.959909 1_555
Au12 F80 1.987196 1_565
Au12 F32 1.987196 1_455
Au13 F76 1.968712 1_555
Au13 F43 1.976528 1_555
Au13 F83 1.977993 1_555
Au13 F34 1.978329 1_555
Au14 F24 1.933178 1_555
Au14 F25 1.950099 1_555
Au14 F10 1.977999 1_555
Au14 F38 1.995772 1_555
Au15 F65 1.933178 1_555
Au15 F14 1.950099 1_555
Au15 F53 1.977999 1_555
Au15 F81 1.995772 1_555
Au16 F21 1.968712 1_555
Au16 F41 1.976528 1_555
Au16 F82 1.977993 1_555
Au16 F73 1.978329 1_555
Au17 F0 1.959909 1_555
Au17 F27 1.959909 1_555
Au17 F71 1.987196 1_555
Au17 F77 1.987196 1_555
Au18 F28 1.933178 1_545
Au18 F40 1.950099 1_655
Au18 F6 1.977999 1_555
Au18 F49 1.995772 1_555
Au19 F78 1.933178 1_565
Au19 F48 1.950099 1_455
Au19 F75 1.977999 1_555
Au19 F51 1.995772 1_555
