# generated using pymatgen
data_CeNi3
_symmetry_space_group_name_H-M   'P 1'
_cell_length_a   4.88682845
_cell_length_b   4.88683236
_cell_length_c   16.39470822
_cell_angle_alpha   90.00000000
_cell_angle_beta   90.00000000
_cell_angle_gamma   119.99999924
_symmetry_Int_Tables_number   1
_chemical_formula_structural   CeNi3
_chemical_formula_sum   'Ce6 Ni18'
_cell_volume   339.06960589
_cell_formula_units_Z   6
loop_
 _symmetry_equiv_pos_site_id
 _symmetry_equiv_pos_as_xyz
  1  'x, y, z'
loop_
 _atom_site_type_symbol
 _atom_site_label
 _atom_site_symmetry_multiplicity
 _atom_site_fract_x
 _atom_site_fract_y
 _atom_site_fract_z
 _atom_site_occupancy
  Ce  Ce0  1  0.33333300  0.66666700  0.45821843  1
  Ce  Ce1  1  0.66666700  0.33333300  0.95821843  1
  Ce  Ce2  1  0.66666700  0.33333300  0.54178157  1
  Ce  Ce3  1  0.33333300  0.66666700  0.04178157  1
  Ce  Ce4  1  0.33333300  0.66666700  0.25000000  1
  Ce  Ce5  1  0.66666700  0.33333300  0.75000000  1
  Ni  Ni0  1  0.83380874  0.16619126  0.37294478  1
  Ni  Ni1  1  0.16619126  0.83380874  0.87294478  1
  Ni  Ni2  1  0.83380874  0.66761947  0.12705522  1
  Ni  Ni3  1  0.16619126  0.33238053  0.62705522  1
  Ni  Ni4  1  0.00000000  0.00000000  0.50000000  1
  Ni  Ni5  1  0.66761947  0.83380874  0.87294478  1
  Ni  Ni6  1  0.83380874  0.66761947  0.37294478  1
  Ni  Ni7  1  0.16619126  0.33238053  0.87294478  1
  Ni  Ni8  1  0.33238053  0.16619126  0.12705522  1
  Ni  Ni9  1  0.66666700  0.33333300  0.25000000  1
  Ni  Ni10  1  0.83380874  0.16619126  0.12705522  1
  Ni  Ni11  1  0.00000000  0.00000000  0.75000000  1
  Ni  Ni12  1  0.66761947  0.83380874  0.62705522  1
  Ni  Ni13  1  0.33238053  0.16619126  0.37294478  1
  Ni  Ni14  1  0.00000000  -0.00000000  -0.00000000  1
  Ni  Ni15  1  0.16619126  0.83380874  0.62705522  1
  Ni  Ni16  1  0.33333300  0.66666700  0.75000000  1
  Ni  Ni17  1  0.00000000  -0.00000000  0.25000000  1
loop_
_geom_bond_atom_site_label_1
_geom_bond_atom_site_label_2
_geom_bond_distance
_geom_bond_site_symmetry_2
Ce0 Ni6 2.815099 1_555
Ce0 Ni13 2.815101 1_555
Ce0 Ni0 2.815102 1_565
Ce0 Ni0 2.815102 1_455
Ce0 Ni6 2.815103 1_455
Ce0 Ni13 2.815105 1_565
Ce0 Ni4 2.903373 1_565
Ce0 Ni4 2.903376 1_665
Ce0 Ni4 2.903378 1_555
Ce0 Ni15 3.108608 1_555
Ce0 Ni12 3.108613 1_555
Ce0 Ni3 3.108614 1_555
Ce1 Ni7 2.815099 1_555
Ce1 Ni5 2.815101 1_555
Ce1 Ni1 2.815102 1_545
Ce1 Ni1 2.815102 1_655
Ce1 Ni7 2.815103 1_655
Ce1 Ni5 2.815105 1_545
Ce1 Ni14 2.903373 1_656
Ce1 Ni14 2.903376 1_556
Ce1 Ni14 2.903378 1_666
Ce1 Ni10 3.108608 1_556
Ce1 Ni8 3.108613 1_556
Ce1 Ni2 3.108614 1_556
Ce2 Ni3 2.815099 1_555
Ce2 Ni12 2.815101 1_555
Ce2 Ni15 2.815102 1_545
Ce2 Ni15 2.815102 1_655
Ce2 Ni3 2.815103 1_655
Ce2 Ni12 2.815105 1_545
Ce2 Ni4 2.903373 1_655
Ce2 Ni4 2.903376 1_555
Ce2 Ni4 2.903378 1_665
Ce2 Ni0 3.108608 1_555
Ce2 Ni13 3.108613 1_555
Ce2 Ni6 3.108614 1_555
Ce3 Ni2 2.815099 1_555
Ce3 Ni8 2.815101 1_555
Ce3 Ni10 2.815102 1_565
Ce3 Ni10 2.815102 1_455
Ce3 Ni2 2.815103 1_455
Ce3 Ni8 2.815105 1_565
Ce3 Ni14 2.903373 1_565
Ce3 Ni14 2.903376 1_665
Ce3 Ni14 2.903378 1_555
Ce3 Ni1 3.108608 1_554
Ce3 Ni5 3.108613 1_554
Ce3 Ni7 3.108614 1_554
Ce4 Ni9 2.821409 1_455
Ce4 Ni17 2.821410 1_565
Ce4 Ni9 2.821411 1_565
Ce4 Ni17 2.821413 1_665
Ce4 Ni17 2.821415 1_555
Ce4 Ni9 2.821418 1_555
Ce4 Ni2 3.167506 1_555
Ce4 Ni6 3.167506 1_555
Ce4 Ni13 3.167508 1_555
Ce4 Ni8 3.167508 1_555
Ce4 Ni0 3.167509 1_565
Ce4 Ni10 3.167509 1_565
Ce4 Ni0 3.167509 1_455
Ce4 Ni10 3.167509 1_455
Ce4 Ni6 3.167510 1_455
Ce4 Ni2 3.167510 1_455
Ce4 Ni13 3.167512 1_565
Ce4 Ni8 3.167512 1_565
Ce5 Ni16 2.821409 1_655
Ce5 Ni11 2.821410 1_655
Ce5 Ni16 2.821411 1_545
Ce5 Ni11 2.821413 1_555
Ce5 Ni11 2.821415 1_665
Ce5 Ni16 2.821418 1_555
Ce5 Ni7 3.167506 1_555
Ce5 Ni3 3.167506 1_555
Ce5 Ni5 3.167508 1_555
Ce5 Ni12 3.167508 1_555
Ce5 Ni1 3.167509 1_545
Ce5 Ni15 3.167509 1_545
Ce5 Ni1 3.167509 1_655
Ce5 Ni15 3.167509 1_655
Ce5 Ni3 3.167510 1_655
Ce5 Ni7 3.167510 1_655
Ce5 Ni5 3.167512 1_545
Ce5 Ni12 3.167512 1_545
Ni0 Ni13 2.436435 1_655
Ni0 Ni6 2.436437 1_545
Ni0 Ni13 2.450394 1_555
Ni0 Ni6 2.450396 1_555
Ni0 Ni17 2.457962 1_655
Ni0 Ni9 2.462575 1_555
Ni0 Ni4 2.513520 1_655
Ni1 Ni5 2.436435 1_455
Ni1 Ni7 2.436437 1_565
Ni1 Ni5 2.450394 1_555
Ni1 Ni7 2.450396 1_555
Ni1 Ni11 2.457962 1_565
Ni1 Ni16 2.462575 1_555
Ni1 Ni14 2.513520 1_566
Ni2 Ni8 2.436436 1_665
Ni2 Ni8 2.450395 1_555
Ni2 Ni9 2.462582 1_555
Ni3 Ni4 2.513516 1_555
Ni4 Ni6 2.513516 1_445
Ni5 Ni7 2.436436 1_665
Ni5 Ni7 2.450395 1_555
Ni6 Ni9 2.462582 1_555
Ni8 Ni9 2.462582 1_555
Ni10 Ni8 2.436435 1_655
Ni10 Ni2 2.436437 1_545
Ni10 Ni8 2.450394 1_555
Ni10 Ni2 2.450396 1_555
Ni10 Ni17 2.457962 1_655
Ni10 Ni9 2.462575 1_555
Ni10 Ni14 2.513520 1_655
Ni11 Ni12 2.457957 1_445
Ni11 Ni5 2.457957 1_445
Ni11 Ni3 2.457957 1_555
Ni11 Ni7 2.457957 1_555
Ni11 Ni15 2.457962 1_545
Ni11 Ni16 2.821410 1_545
Ni11 Ni16 2.821413 1_445
Ni11 Ni16 2.821415 1_555
Ni12 Ni15 2.436435 1_655
Ni12 Ni3 2.436436 1_665
Ni12 Ni15 2.450394 1_555
Ni12 Ni3 2.450395 1_555
Ni12 Ni16 2.462582 1_555
Ni12 Ni4 2.513515 1_665
Ni13 Ni6 2.436436 1_445
Ni13 Ni6 2.450395 1_555
Ni13 Ni17 2.457957 1_555
Ni13 Ni9 2.462582 1_555
Ni13 Ni4 2.513515 1_555
Ni14 Ni8 2.513515 1_555
Ni14 Ni5 2.513515 1_444
Ni14 Ni2 2.513516 1_445
Ni14 Ni7 2.513516 1_554
Ni15 Ni3 2.436437 1_565
Ni15 Ni3 2.450396 1_555
Ni15 Ni16 2.462575 1_555
Ni15 Ni4 2.513520 1_565
Ni16 Ni5 2.462582 1_555
Ni16 Ni3 2.462582 1_555
Ni16 Ni7 2.462582 1_555
Ni17 Ni8 2.457957 1_555
Ni17 Ni6 2.457957 1_445
Ni17 Ni2 2.457957 1_445
Ni17 Ni9 2.821410 1_455
Ni17 Ni9 2.821413 1_555
Ni17 Ni9 2.821415 1_445
