# generated using pymatgen
data_KRb2CrF6
_symmetry_space_group_name_H-M   'P 1'
_cell_length_a   6.20135603
_cell_length_b   6.20135589
_cell_length_c   6.20135631
_cell_angle_alpha   59.99999489
_cell_angle_beta   59.99999301
_cell_angle_gamma   59.99999111
_symmetry_Int_Tables_number   1
_chemical_formula_structural   KRb2CrF6
_chemical_formula_sum   'K1 Rb2 Cr1 F6'
_cell_volume   168.63392175
_cell_formula_units_Z   1
loop_
 _symmetry_equiv_pos_site_id
 _symmetry_equiv_pos_as_xyz
  1  'x, y, z'
loop_
 _atom_site_type_symbol
 _atom_site_label
 _atom_site_symmetry_multiplicity
 _atom_site_fract_x
 _atom_site_fract_y
 _atom_site_fract_z
 _atom_site_occupancy
  K  K0  1  0.50000000  0.50000000  0.50000000  1
  Rb  Rb0  1  0.75000000  0.75000000  0.75000000  1
  Rb  Rb1  1  0.25000000  0.25000000  0.25000000  1
  Cr  Cr0  1  -0.00000000  0.00000000  0.00000000  1
  F  F0  1  0.21754200  0.78245800  0.78245800  1
  F  F1  1  0.21754384  0.78245616  0.21754384  1
  F  F2  1  0.78245616  0.21754384  0.78245616  1
  F  F3  1  0.21754200  0.21754200  0.78245800  1
  F  F4  1  0.78245800  0.21754200  0.21754200  1
  F  F5  1  0.78245800  0.78245800  0.21754200  1
loop_
_geom_bond_atom_site_label_1
_geom_bond_atom_site_label_2
_geom_bond_distance
_geom_bond_site_symmetry_2
Cr0 F0 1.907852 1_544
Cr0 F4 1.907852 1_455
Cr0 F3 1.907852 1_554
Cr0 F5 1.907852 1_445
Cr0 F1 1.907869 1_545
Cr0 F2 1.907869 1_454
F0 K0 2.477168 1_555
F0 Rb1 3.113717 1_556
F0 Rb1 3.113717 1_565
F0 Rb0 3.113717 1_555
F0 Rb0 3.113717 1_455
F1 K0 2.477152 1_555
F1 Rb0 3.113715 1_554
F1 Rb0 3.113715 1_455
F1 Rb1 3.113716 1_555
F1 Rb1 3.113716 1_565
F2 K0 2.477152 1_555
F2 Rb1 3.113715 1_556
F2 Rb1 3.113715 1_655
F2 Rb0 3.113716 1_555
F2 Rb0 3.113716 1_545
F3 K0 2.477168 1_555
F3 Rb0 3.113717 1_455
F3 Rb0 3.113717 1_545
F3 Rb1 3.113717 1_555
F3 Rb1 3.113717 1_556
F4 K0 2.477168 1_555
F4 Rb0 3.113717 1_554
F4 Rb0 3.113717 1_545
F4 Rb1 3.113717 1_555
F4 Rb1 3.113717 1_655
F5 K0 2.477168 1_555
F5 Rb1 3.113717 1_655
F5 Rb1 3.113717 1_565
F5 Rb0 3.113717 1_555
F5 Rb0 3.113717 1_554
