# generated using pymatgen
data_Cs3SbO3
_symmetry_space_group_name_H-M   'P 1'
_cell_length_a   9.20222971
_cell_length_b   9.20222971
_cell_length_c   9.20222971
_cell_angle_alpha   90.00000000
_cell_angle_beta   90.00000000
_cell_angle_gamma   90.00000000
_symmetry_Int_Tables_number   1
_chemical_formula_structural   Cs3SbO3
_chemical_formula_sum   'Cs12 Sb4 O12'
_cell_volume   779.25430519
_cell_formula_units_Z   4
loop_
 _symmetry_equiv_pos_site_id
 _symmetry_equiv_pos_as_xyz
  1  'x, y, z'
loop_
 _atom_site_type_symbol
 _atom_site_label
 _atom_site_symmetry_multiplicity
 _atom_site_fract_x
 _atom_site_fract_y
 _atom_site_fract_z
 _atom_site_occupancy
  Cs  Cs0  1  0.27765822  0.72234178  0.22234178  1
  Cs  Cs1  1  0.48308710  0.98308710  0.51691290  1
  Cs  Cs2  1  0.22234178  0.27765822  0.72234178  1
  Cs  Cs3  1  0.01691290  0.01691290  0.01691290  1
  Cs  Cs4  1  0.77299642  0.22700358  0.72700358  1
  Cs  Cs5  1  0.72700358  0.77299642  0.22700358  1
  Cs  Cs6  1  0.51691290  0.48308710  0.98308710  1
  Cs  Cs7  1  0.98308710  0.51691290  0.48308710  1
  Cs  Cs8  1  0.22700358  0.72700358  0.77299642  1
  Cs  Cs9  1  0.72234178  0.22234178  0.27765822  1
  Cs  Cs10  1  0.77765822  0.77765822  0.77765822  1
  Cs  Cs11  1  0.27299642  0.27299642  0.27299642  1
  Sb  Sb0  1  0.50259875  0.50259875  0.50259875  1
  Sb  Sb1  1  0.99740125  0.49740125  0.00259875  1
  Sb  Sb2  1  0.49740125  0.00259875  0.99740125  1
  Sb  Sb3  1  0.00259875  0.99740125  0.49740125  1
  O  O0  1  0.46223272  0.00469998  0.20602832  1
  O  O1  1  0.70602832  0.03776728  0.99530002  1
  O  O2  1  0.00469998  0.20602832  0.46223272  1
  O  O3  1  0.96223272  0.49530002  0.79397168  1
  O  O4  1  0.03776728  0.99530002  0.70602832  1
  O  O5  1  0.49530002  0.79397168  0.96223272  1
  O  O6  1  0.79397168  0.96223272  0.49530002  1
  O  O7  1  0.20602832  0.46223272  0.00469998  1
  O  O8  1  0.99530002  0.70602832  0.03776728  1
  O  O9  1  0.53776728  0.50469998  0.29397168  1
  O  O10  1  0.29397168  0.53776728  0.50469998  1
  O  O11  1  0.50469998  0.29397168  0.53776728  1
loop_
_geom_bond_atom_site_label_1
_geom_bond_atom_site_label_2
_geom_bond_distance
_geom_bond_site_symmetry_2
Cs0 O0 3.107848 1_565
Cs0 O8 3.107848 1_455
Cs0 O10 3.107848 1_555
Cs0 O5 3.189811 1_554
Cs0 O9 3.189811 1_555
Cs0 O7 3.189811 1_555
Cs1 O6 2.874150 1_555
Cs1 O0 2.874150 1_565
Cs1 O11 2.874150 1_565
Cs2 O7 3.107848 1_556
Cs2 O4 3.107848 1_545
Cs2 O11 3.107848 1_555
Cs2 O3 3.189811 1_455
Cs2 O10 3.189811 1_555
Cs2 O2 3.189811 1_555
Cs3 O1 2.874150 1_454
Cs3 O4 2.874150 1_544
Cs3 O8 2.874150 1_445
Cs4 O3 3.083476 1_555
Cs4 O11 3.083476 1_555
Cs4 O1 3.083476 1_555
Cs4 O6 3.243445 1_545
Cs4 O2 3.243445 1_655
Cs4 O4 3.243445 1_645
Cs5 O9 3.083476 1_555
Cs5 O6 3.083476 1_555
Cs5 O8 3.083476 1_555
Cs5 O5 3.243445 1_554
Cs5 O1 3.243445 1_564
Cs5 O0 3.243445 1_565
Cs6 O7 2.874150 1_556
Cs6 O5 2.874150 1_555
Cs6 O9 2.874150 1_556
Cs7 O2 2.874150 1_655
Cs7 O3 2.874150 1_555
Cs7 O10 2.874150 1_655
Cs8 O5 3.083476 1_555
Cs8 O10 3.083476 1_555
Cs8 O4 3.083476 1_555
Cs8 O3 3.243445 1_455
Cs8 O8 3.243445 1_456
Cs8 O7 3.243445 1_556
Cs9 O1 3.107848 1_554
Cs9 O2 3.107848 1_655
Cs9 O9 3.107848 1_555
Cs9 O6 3.189811 1_545
Cs9 O11 3.189811 1_555
Cs9 O0 3.189811 1_555
Cs10 O3 3.107848 1_555
Cs10 O5 3.107848 1_555
Cs10 O6 3.107848 1_555
Cs10 O8 3.189811 1_556
Cs10 O1 3.189811 1_565
Cs10 O4 3.189811 1_655
Cs11 O7 3.083476 1_555
Cs11 O2 3.083476 1_555
Cs11 O0 3.083476 1_555
Cs11 O9 3.243445 1_555
Cs11 O10 3.243445 1_555
Cs11 O11 3.243445 1_555
O0 Sb2 1.947016 1_554
O1 Sb2 1.947016 1_555
O2 Sb3 1.947016 1_545
O3 Sb1 1.947016 1_556
O4 Sb3 1.947016 1_555
O5 Sb2 1.947016 1_565
O6 Sb3 1.947016 1_655
O7 Sb1 1.947016 1_455
O8 Sb1 1.947016 1_555
O9 Sb0 1.947016 1_555
O10 Sb0 1.947016 1_555
O11 Sb0 1.947016 1_555
