# generated using pymatgen
data_CaNb2(P2O7)3
_symmetry_space_group_name_H-M   'P 1'
_cell_length_a   8.55152380
_cell_length_b   8.55152380
_cell_length_c   12.43938610
_cell_angle_alpha   85.22972523
_cell_angle_beta   85.22972523
_cell_angle_gamma   77.29924124
_symmetry_Int_Tables_number   1
_chemical_formula_structural   CaNb2(P2O7)3
_chemical_formula_sum   'Ca2 Nb4 P12 O42'
_cell_volume   882.37078135
_cell_formula_units_Z   2
loop_
 _symmetry_equiv_pos_site_id
 _symmetry_equiv_pos_as_xyz
  1  'x, y, z'
loop_
 _atom_site_type_symbol
 _atom_site_label
 _atom_site_symmetry_multiplicity
 _atom_site_fract_x
 _atom_site_fract_y
 _atom_site_fract_z
 _atom_site_occupancy
  Ca  Ca0  1  0.22391733  0.22391733  0.86251012  1
  Ca  Ca1  1  0.77608267  0.77608267  0.13748988  1
  Nb  Nb0  1  0.28659588  0.28659588  0.17801123  1
  Nb  Nb1  1  0.24495922  0.75504078  0.50000000  1
  Nb  Nb2  1  0.75504078  0.24495922  0.50000000  1
  Nb  Nb3  1  0.71340412  0.71340412  0.82198877  1
  P  P0  1  0.67768112  0.20348450  0.10267629  1
  P  P1  1  0.14081071  0.14081071  0.59033461  1
  P  P2  1  0.34275475  0.34275475  0.45698874  1
  P  P3  1  0.20348450  0.67768112  0.10267629  1
  P  P4  1  0.35071317  0.87035956  0.23228054  1
  P  P5  1  0.64928683  0.12964044  0.76771946  1
  P  P6  1  0.32231888  0.79651550  0.89732371  1
  P  P7  1  0.65724525  0.65724525  0.54301126  1
  P  P8  1  0.12964044  0.64928683  0.76771946  1
  P  P9  1  0.87035956  0.35071317  0.23228054  1
  P  P10  1  0.85918929  0.85918929  0.40966539  1
  P  P11  1  0.79651550  0.32231888  0.89732371  1
  O  O0  1  0.29664777  0.81733681  0.34888949  1
  O  O1  1  0.18266319  0.70335223  0.65111051  1
  O  O2  1  0.82889563  0.22069378  0.16118691  1
  O  O3  1  0.17110437  0.77930622  0.83881309  1
  O  O4  1  0.01570836  0.78480578  0.46507625  1
  O  O5  1  0.72253802  0.72253802  0.96138759  1
  O  O6  1  0.26764318  0.53058874  0.17518448  1
  O  O7  1  0.29827934  0.96117162  0.93031162  1
  O  O8  1  0.98429164  0.21519422  0.53492375  1
  O  O9  1  0.21519422  0.98429164  0.53492375  1
  O  O10  1  0.81733681  0.29664777  0.34888949  1
  O  O11  1  0.53058874  0.26764318  0.17518448  1
  O  O12  1  0.47769496  0.71287983  0.52760032  1
  O  O13  1  0.70335223  0.18266319  0.65111051  1
  O  O14  1  0.22069378  0.82889563  0.16118691  1
  O  O15  1  0.96117162  0.29827934  0.93031162  1
  O  O16  1  0.78798587  0.51488793  0.19983625  1
  O  O17  1  0.29697097  0.29697097  0.35433277  1
  O  O18  1  0.73235682  0.46941126  0.82481552  1
  O  O19  1  0.48511207  0.21201413  0.80016375  1
  O  O20  1  0.12673710  0.12673710  0.70923697  1
  O  O21  1  0.94812014  0.68356932  0.77773422  1
  O  O22  1  0.70172066  0.03882838  0.06968838  1
  O  O23  1  0.46941126  0.73235682  0.82481552  1
  O  O24  1  0.21201413  0.48511207  0.80016375  1
  O  O25  1  0.52230504  0.28712017  0.47239968  1
  O  O26  1  0.71287983  0.47769496  0.52760032  1
  O  O27  1  0.68356932  0.94812014  0.77773422  1
  O  O28  1  0.78480578  0.01570836  0.46507625  1
  O  O29  1  0.67076746  0.32923254  0.00000000  1
  O  O30  1  0.77930622  0.17110437  0.83881309  1
  O  O31  1  0.25925486  0.25925486  0.55690905  1
  O  O32  1  0.51488793  0.78798587  0.19983625  1
  O  O33  1  0.31643068  0.05187986  0.22226578  1
  O  O34  1  0.27746198  0.27746198  0.03861241  1
  O  O35  1  0.28712017  0.52230504  0.47239968  1
  O  O36  1  0.03882838  0.70172066  0.06968838  1
  O  O37  1  0.87326290  0.87326290  0.29076303  1
  O  O38  1  0.74074514  0.74074514  0.44309095  1
  O  O39  1  0.70302903  0.70302903  0.64566723  1
  O  O40  1  0.05187986  0.31643068  0.22226578  1
  O  O41  1  0.32923254  0.67076746  0.00000000  1
loop_
_geom_bond_atom_site_label_1
_geom_bond_atom_site_label_2
_geom_bond_distance
_geom_bond_site_symmetry_2
Ca0 O24 2.286024 1_555
Ca0 O19 2.286024 1_555
Ca0 O15 2.304326 1_455
Ca0 O7 2.304326 1_545
Ca0 O34 2.375694 1_556
Ca0 O20 2.418101 1_555
Ca1 O32 2.286024 1_555
Ca1 O16 2.286024 1_555
Ca1 O22 2.304326 1_565
Ca1 O36 2.304326 1_655
Ca1 O5 2.375694 1_554
Ca1 O37 2.418101 1_555
Nb0 O34 1.751234 1_555
Nb0 O40 2.002827 1_555
Nb0 O33 2.002827 1_555
Nb0 O6 2.054526 1_555
Nb0 O11 2.054526 1_555
Nb0 O17 2.212384 1_555
Nb1 O1 1.952263 1_555
Nb1 O0 1.952263 1_555
Nb1 O35 1.996616 1_555
Nb1 O12 1.996616 1_555
Nb1 O4 2.000175 1_555
Nb1 O9 2.000175 1_555
Nb2 O13 1.952263 1_555
Nb2 O10 1.952263 1_555
Nb2 O25 1.996616 1_555
Nb2 O26 1.996616 1_555
Nb2 O28 2.000175 1_555
Nb2 O8 2.000175 1_555
Nb3 O5 1.751234 1_555
Nb3 O21 2.002827 1_555
Nb3 O27 2.002827 1_555
Nb3 O23 2.054526 1_555
Nb3 O18 2.054526 1_555
Nb3 O39 2.212384 1_555
O0 P4 1.547475 1_555
O1 P8 1.547475 1_555
O2 P0 1.575303 1_555
O2 P9 1.591577 1_555
O3 P6 1.575303 1_555
O3 P8 1.591577 1_555
O4 P10 1.541877 1_455
O6 P3 1.512255 1_555
O7 P6 1.465630 1_555
O8 P1 1.541877 1_655
O9 P1 1.541877 1_565
O10 P9 1.547475 1_555
O11 P0 1.512255 1_555
O12 P7 1.527486 1_555
O13 P5 1.547475 1_555
O14 P3 1.575303 1_555
O14 P4 1.591577 1_555
O15 P11 1.465630 1_555
O16 P9 1.465718 1_555
O17 P2 1.473418 1_555
O18 P11 1.512255 1_555
O19 P5 1.465718 1_555
O20 P1 1.470979 1_555
O21 P8 1.511566 1_655
O22 P0 1.465630 1_555
O23 P6 1.512255 1_555
O24 P8 1.465718 1_555
O25 P2 1.527486 1_555
O26 P7 1.527486 1_555
O27 P5 1.511566 1_565
O28 P10 1.541877 1_545
O29 P11 1.596036 1_554
O29 P0 1.596036 1_555
O30 P11 1.575303 1_555
O30 P5 1.591577 1_555
O31 P2 1.579122 1_555
O31 P1 1.592405 1_555
O32 P4 1.465718 1_555
O33 P4 1.511566 1_545
O35 P2 1.527486 1_555
O36 P3 1.465630 1_555
O37 P10 1.470979 1_555
O38 P7 1.579122 1_555
O38 P10 1.592405 1_555
O39 P7 1.473418 1_555
O40 P9 1.511566 1_455
O41 P6 1.596036 1_554
O41 P3 1.596036 1_555
