# generated using pymatgen
data_MgH2
_symmetry_space_group_name_H-M   'P 1'
_cell_length_a   4.64600823
_cell_length_b   4.73867255
_cell_length_c   4.86375152
_cell_angle_alpha   90.00000000
_cell_angle_beta   90.00000000
_cell_angle_gamma   90.00000000
_symmetry_Int_Tables_number   1
_chemical_formula_structural   MgH2
_chemical_formula_sum   'Mg4 H8'
_cell_volume   107.07992383
_cell_formula_units_Z   4
loop_
 _symmetry_equiv_pos_site_id
 _symmetry_equiv_pos_as_xyz
  1  'x, y, z'
loop_
 _atom_site_type_symbol
 _atom_site_label
 _atom_site_symmetry_multiplicity
 _atom_site_fract_x
 _atom_site_fract_y
 _atom_site_fract_z
 _atom_site_occupancy
  Mg  Mg0  1  0.73606758  0.74844114  0.97038885  1
  Mg  Mg1  1  0.26393242  0.74844114  0.47038885  1
  Mg  Mg2  1  0.73606758  0.24844114  0.52961115  1
  Mg  Mg3  1  0.26393242  0.24844114  0.02961115  1
  H  H0  1  0.55397354  0.02881875  0.24279368  1
  H  H1  1  0.09363131  0.36114111  0.37977886  1
  H  H2  1  0.55397354  0.52881875  0.25720632  1
  H  H3  1  0.90636869  0.86114111  0.62022114  1
  H  H4  1  0.09363131  0.86114111  0.12022114  1
  H  H5  1  0.44602646  0.52881875  0.75720632  1
  H  H6  1  0.44602646  0.02881875  0.74279368  1
  H  H7  1  0.90636869  0.36114111  0.87977886  1
loop_
_geom_bond_atom_site_label_1
_geom_bond_atom_site_label_2
_geom_bond_distance
_geom_bond_site_symmetry_2
H0 Mg2 1.935169 1_555
H0 Mg3 1.993498 1_555
H0 Mg0 2.058238 1_544
H0 Mg1 2.192361 1_545
H1 Mg2 1.891035 1_455
H1 Mg3 1.952405 1_555
H1 Mg1 2.046590 1_555
H2 Mg0 1.935169 1_554
H2 Mg1 1.993498 1_555
H2 Mg2 2.058238 1_555
H2 Mg3 2.192361 1_555
H3 Mg1 1.891035 1_655
H3 Mg0 1.952405 1_555
H3 Mg2 2.046590 1_565
H4 Mg0 1.891035 1_454
H4 Mg1 1.952405 1_555
H4 Mg3 2.046590 1_565
H5 Mg1 1.935169 1_555
H5 Mg0 1.993498 1_555
H5 Mg3 2.058238 1_556
H5 Mg2 2.192361 1_555
H6 Mg3 1.935169 1_556
H6 Mg2 1.993498 1_555
H6 Mg1 2.058238 1_545
H6 Mg0 2.192361 1_545
H7 Mg3 1.891035 1_656
H7 Mg2 1.952405 1_555
H7 Mg0 2.046590 1_555
