# generated using pymatgen
data_Ta4BTe8
_symmetry_space_group_name_H-M   'P 1'
_cell_length_a   3.62502640
_cell_length_b   11.59802183
_cell_length_c   16.91638026
_cell_angle_alpha   89.99782179
_cell_angle_beta   90.00258926
_cell_angle_gamma   89.99759954
_symmetry_Int_Tables_number   1
_chemical_formula_structural   Ta4BTe8
_chemical_formula_sum   'Ta8 B2 Te16'
_cell_volume   711.21766307
_cell_formula_units_Z   2
loop_
 _symmetry_equiv_pos_site_id
 _symmetry_equiv_pos_as_xyz
  1  'x, y, z'
loop_
 _atom_site_type_symbol
 _atom_site_label
 _atom_site_symmetry_multiplicity
 _atom_site_fract_x
 _atom_site_fract_y
 _atom_site_fract_z
 _atom_site_occupancy
  Ta  Ta0  1  0.49997408  0.07396964  0.07070472  1
  Ta  Ta1  1  0.50000820  0.92600572  0.92922946  1
  Ta  Ta2  1  0.49999418  0.57399565  0.42928787  1
  Ta  Ta3  1  0.50001813  0.42605879  0.57076165  1
  Ta  Ta4  1  0.00003285  0.34414601  0.42431798  1
  Ta  Ta5  1  -0.00002934  0.65580715  0.57574927  1
  Ta  Ta6  1  0.00003637  0.84419710  0.07568834  1
  Ta  Ta7  1  -0.00003681  0.15579451  0.92420065  1
  B  B0  1  0.00000438  0.00001552  -0.00004153  1
  B  B1  1  0.00000312  0.49998442  0.50001241  1
  Te  Te0  1  0.49996785  0.29823404  0.00413752  1
  Te  Te1  1  0.49995172  0.70167242  0.99576926  1
  Te  Te2  1  0.49982856  0.79829147  0.49587630  1
  Te  Te3  1  0.50010802  0.20176530  0.50427610  1
  Te  Te4  1  0.50002328  0.41330231  0.30938018  1
  Te  Te5  1  0.50007527  0.58668901  0.69073159  1
  Te  Te6  1  0.50011918  0.91335040  0.19065328  1
  Te  Te7  1  0.50002547  0.08666935  0.80924196  1
  Te  Te8  1  -0.00003079  0.13026706  0.32763906  1
  Te  Te9  1  -0.00007663  0.86967255  0.67238529  1
  Te  Te10  1  -0.00000268  0.63039481  0.17242515  1
  Te  Te11  1  0.00005095  0.36969505  0.82757038  1
  Te  Te12  1  -0.00008682  0.20390671  0.17049817  1
  Te  Te13  1  0.00001336  0.79608198  0.82950609  1
  Te  Te14  1  0.00001876  0.70398934  0.32951747  1
  Te  Te15  1  0.00000833  0.29604367  0.67048339  1
loop_
_geom_bond_atom_site_label_1
_geom_bond_atom_site_label_2
_geom_bond_distance
_geom_bond_site_symmetry_2
Ta0 Te6 2.754489 1_545
Ta0 Te0 2.834281 1_555
Ta0 Te12 2.899218 1_655
Ta0 Te12 2.899511 1_555
Ta1 Te7 2.755322 1_565
Ta1 Te1 2.834830 1_555
Ta1 Te13 2.898574 1_555
Ta1 Te13 2.898614 1_655
Ta2 Te4 2.754665 1_555
Ta2 Te2 2.834836 1_555
Ta2 Te14 2.899270 1_555
Ta2 Te14 2.899555 1_655
Ta3 Te5 2.754946 1_555
Ta3 Te3 2.834120 1_555
Ta3 Te15 2.898953 1_655
Ta3 Te15 2.899172 1_555
Ta4 Te4 2.776423 1_455
Ta4 Te4 2.776536 1_555
Ta4 Te3 2.800171 1_455
Ta4 Te3 2.800355 1_555
Ta4 Te8 2.971241 1_555
Ta5 Te5 2.776711 1_455
Ta5 Te5 2.777047 1_555
Ta5 Te2 2.800027 1_555
Ta5 Te2 2.800525 1_455
Ta5 Te9 2.970710 1_555
Ta6 Te6 2.776673 1_455
Ta6 Te6 2.776994 1_555
Ta6 Te1 2.800786 1_554
Ta6 Te1 2.801194 1_454
Ta6 Te10 2.970934 1_555
Ta7 Te7 2.776482 1_455
Ta7 Te7 2.776848 1_555
Ta7 Te0 2.800536 1_456
Ta7 Te0 2.800568 1_556
Ta7 Te11 2.970893 1_555
B0 Ta7 2.215052 1_554
B0 Ta6 2.215152 1_545
B0 Ta0 2.335115 1_555
B0 Ta1 2.335278 1_444
B0 Ta0 2.335314 1_455
B0 Ta1 2.335327 1_544
B1 Ta4 2.215074 1_555
B1 Ta5 2.215340 1_555
B1 Ta3 2.335058 1_555
B1 Ta3 2.335114 1_455
B1 Ta2 2.335192 1_455
B1 Ta2 2.335281 1_555
Te10 Te14 2.791178 1_555
Te11 Te15 2.791294 1_555
Te12 Te8 2.792058 1_555
Te13 Te9 2.791561 1_555
