# generated using pymatgen
data_RbNd(PO3)4
_symmetry_space_group_name_H-M   'P 1'
_cell_length_a   9.17061800
_cell_length_b   10.64689100
_cell_length_c   13.06285871
_cell_angle_alpha   54.95649346
_cell_angle_beta   90.00000000
_cell_angle_gamma   90.00000000
_symmetry_Int_Tables_number   1
_chemical_formula_structural   RbNd(PO3)4
_chemical_formula_sum   'Rb4 Nd4 P16 O48'
_cell_volume   1044.22254013
_cell_formula_units_Z   4
loop_
 _symmetry_equiv_pos_site_id
 _symmetry_equiv_pos_as_xyz
  1  'x, y, z'
loop_
 _atom_site_type_symbol
 _atom_site_label
 _atom_site_symmetry_multiplicity
 _atom_site_fract_x
 _atom_site_fract_y
 _atom_site_fract_z
 _atom_site_occupancy
  Rb  Rb0  1  0.07084800  0.75939900  0.04146900  1
  Rb  Rb1  1  0.57084800  0.24060100  0.45853100  1
  Rb  Rb2  1  0.92915200  0.24060100  0.95853100  1
  Rb  Rb3  1  0.42915200  0.75939900  0.54146900  1
  Nd  Nd0  1  0.72673800  0.68460200  0.81591800  1
  Nd  Nd1  1  0.22673800  0.31539800  0.68408200  1
  Nd  Nd2  1  0.27326200  0.31539800  0.18408200  1
  Nd  Nd3  1  0.77326200  0.68460200  0.31591800  1
  P  P0  1  0.97254700  0.02615800  0.72469100  1
  P  P1  1  0.47254700  0.97384200  0.77530900  1
  P  P2  1  0.02745300  0.97384200  0.27530900  1
  P  P3  1  0.52745300  0.02615800  0.22469100  1
  P  P4  1  0.17282900  0.67986000  0.35900300  1
  P  P5  1  0.67282900  0.32014000  0.14099700  1
  P  P6  1  0.82717100  0.32014000  0.64099700  1
  P  P7  1  0.32717100  0.67986000  0.85900300  1
  P  P8  1  0.40566500  0.61532200  0.23986000  1
  P  P9  1  0.90566500  0.38467800  0.26014000  1
  P  P10  1  0.59433500  0.38467800  0.76014000  1
  P  P11  1  0.09433500  0.61532200  0.73986000  1
  P  P12  1  0.60299900  0.80144100  0.02109100  1
  P  P13  1  0.10299900  0.19855900  0.47890900  1
  P  P14  1  0.39700100  0.19855900  0.97890900  1
  P  P15  1  0.89700100  0.80144100  0.52109100  1
  O  O0  1  0.29304900  0.72471200  0.25153900  1
  O  O1  1  0.79304900  0.27528800  0.24846100  1
  O  O2  1  0.70695100  0.27528800  0.74846100  1
  O  O3  1  0.20695100  0.72471200  0.75153900  1
  O  O4  1  0.91699900  0.93224700  0.21404700  1
  O  O5  1  0.41699900  0.06775300  0.28595300  1
  O  O6  1  0.08300100  0.06775300  0.78595300  1
  O  O7  1  0.58300100  0.93224700  0.71404700  1
  O  O8  1  0.32161500  0.48644800  0.25253100  1
  O  O9  1  0.82161500  0.51355200  0.24746900  1
  O  O10  1  0.67838500  0.51355200  0.74746900  1
  O  O11  1  0.17838500  0.48644800  0.75253100  1
  O  O12  1  0.03478300  0.63794300  0.32370800  1
  O  O13  1  0.53478300  0.36205700  0.17629200  1
  O  O14  1  0.96521700  0.36205700  0.67629200  1
  O  O15  1  0.46521700  0.63794300  0.82370800  1
  O  O16  1  0.03513200  0.42339500  0.17654800  1
  O  O17  1  0.53513200  0.57660500  0.32345200  1
  O  O18  1  0.96486800  0.57660500  0.82345200  1
  O  O19  1  0.46486800  0.42339500  0.67654800  1
  O  O20  1  0.90522100  0.86982300  0.80417100  1
  O  O21  1  0.40522100  0.13017700  0.69582900  1
  O  O22  1  0.09477900  0.13017700  0.19582900  1
  O  O23  1  0.59477900  0.86982300  0.30417100  1
  O  O24  1  0.65529000  0.69945500  0.98417600  1
  O  O25  1  0.15529000  0.30054500  0.51582400  1
  O  O26  1  0.34471000  0.30054500  0.01582400  1
  O  O27  1  0.84471000  0.69945500  0.48417600  1
  O  O28  1  0.34253400  0.84661200  0.83570700  1
  O  O29  1  0.84253400  0.15338800  0.66429300  1
  O  O30  1  0.65746600  0.15338800  0.16429300  1
  O  O31  1  0.15746600  0.84661200  0.33570700  1
  O  O32  1  0.44928300  0.73726000  0.09560800  1
  O  O33  1  0.94928300  0.26274000  0.40439200  1
  O  O34  1  0.55071700  0.26274000  0.90439200  1
  O  O35  1  0.05071700  0.73726000  0.59560800  1
  O  O36  1  0.73989700  0.42421200  0.01407500  1
  O  O37  1  0.23989700  0.57578800  0.48592500  1
  O  O38  1  0.26010300  0.57578800  0.98592500  1
  O  O39  1  0.76010300  0.42421200  0.51407500  1
  O  O40  1  0.79412800  0.83790200  0.59013400  1
  O  O41  1  0.29412800  0.16209800  0.90986600  1
  O  O42  1  0.20587200  0.16209800  0.40986600  1
  O  O43  1  0.70587200  0.83790200  0.09013400  1
  O  O44  1  0.04127700  0.04171100  0.60305300  1
  O  O45  1  0.54127700  0.95828900  0.89694700  1
  O  O46  1  0.95872300  0.95828900  0.39694700  1
  O  O47  1  0.45872300  0.04171100  0.10305300  1
loop_
_geom_bond_atom_site_label_1
_geom_bond_atom_site_label_2
_geom_bond_distance
_geom_bond_site_symmetry_2
Nd0 O24 2.384193 1_555
Nd0 O15 2.439462 1_555
Nd0 O18 2.443527 1_555
Nd0 O36 2.481863 1_556
Nd0 O10 2.486505 1_555
Nd0 O40 2.493295 1_555
Nd0 O20 2.498808 1_555
Nd0 O7 2.535934 1_555
Nd1 O25 2.384193 1_555
Nd1 O14 2.439462 1_455
Nd1 O19 2.443527 1_555
Nd1 O37 2.481863 1_555
Nd1 O11 2.486505 1_555
Nd1 O41 2.493295 1_555
Nd1 O21 2.498808 1_555
Nd1 O6 2.535934 1_555
Nd2 O26 2.384193 1_555
Nd2 O13 2.439462 1_555
Nd2 O16 2.443527 1_555
Nd2 O38 2.481863 1_554
Nd2 O8 2.486505 1_555
Nd2 O42 2.493295 1_555
Nd2 O22 2.498808 1_555
Nd2 O5 2.535934 1_555
Nd3 O27 2.384193 1_555
Nd3 O12 2.439462 1_655
Nd3 O17 2.443527 1_555
Nd3 O39 2.481863 1_555
Nd3 O9 2.486505 1_555
Nd3 O43 2.493295 1_555
Nd3 O23 2.498808 1_555
Nd3 O4 2.535934 1_555
O0 P4 1.626133 1_555
O0 P8 1.627991 1_555
O0 Rb0 3.264207 1_555
O1 P5 1.626133 1_555
O1 P9 1.627991 1_555
O1 Rb1 3.264207 1_555
O2 P6 1.626133 1_555
O2 P10 1.627991 1_555
O2 Rb2 3.264207 1_555
O3 P7 1.626133 1_555
O3 P11 1.627991 1_555
O3 Rb3 3.264207 1_555
O4 P2 1.506504 1_655
O4 Rb2 3.057325 1_564
O5 P3 1.506504 1_555
O5 Rb3 3.057325 1_545
O6 P0 1.506504 1_455
O6 Rb0 3.057325 1_546
O7 P1 1.506504 1_555
O7 Rb1 3.057325 1_565
O8 P8 1.497792 1_555
O8 Rb1 3.350789 1_555
O8 Rb0 3.483396 1_555
O9 P9 1.497792 1_555
O9 Rb0 3.350789 1_655
O9 Rb1 3.483396 1_555
O10 P10 1.497792 1_555
O10 Rb3 3.350789 1_555
O10 Rb2 3.483396 1_555
O11 P11 1.497792 1_555
O11 Rb2 3.350789 1_455
O11 Rb3 3.483396 1_555
O12 P4 1.500237 1_555
O12 Rb0 3.146325 1_555
O13 P5 1.500237 1_555
O13 Rb1 3.146325 1_555
O14 P6 1.500237 1_555
O14 Rb2 3.146325 1_555
O15 P7 1.500237 1_555
O15 Rb3 3.146325 1_555
O16 P9 1.501674 1_455
O16 Rb0 2.961328 1_555
O17 P8 1.501674 1_555
O17 Rb1 2.961328 1_555
O18 P11 1.501674 1_655
O18 Rb2 2.961328 1_555
O19 P10 1.501674 1_555
O19 Rb3 2.961328 1_555
O20 P0 1.498356 1_565
O20 Rb0 3.018745 1_656
O21 P1 1.498356 1_545
O21 Rb1 3.018745 1_555
O22 P2 1.498356 1_545
O22 Rb2 3.018745 1_454
O23 P3 1.498356 1_565
O23 Rb3 3.018745 1_555
O24 P12 1.497609 1_556
O25 P13 1.497609 1_555
O26 P14 1.497609 1_554
O27 P15 1.497609 1_555
O28 P7 1.626044 1_555
O28 P1 1.628393 1_555
O28 Rb0 3.380569 1_556
O29 P6 1.626044 1_555
O29 P0 1.628393 1_555
O29 Rb1 3.380569 1_555
O30 P5 1.626044 1_555
O30 P3 1.628393 1_555
O30 Rb2 3.380569 1_554
O31 P4 1.626044 1_555
O31 P2 1.628393 1_555
O31 Rb3 3.380569 1_555
O32 P8 1.608363 1_555
O32 P12 1.624120 1_555
O32 Rb0 3.522573 1_555
O33 P9 1.608363 1_555
O33 P13 1.624120 1_655
O33 Rb1 3.522573 1_555
O34 P10 1.608363 1_555
O34 P14 1.624120 1_555
O34 Rb2 3.522573 1_555
O35 P11 1.608363 1_555
O35 P15 1.624120 1_455
O35 Rb3 3.522573 1_555
O36 P5 1.498393 1_555
O36 Rb2 2.998192 1_554
O37 P4 1.498393 1_555
O37 Rb3 2.998192 1_555
O38 P7 1.498393 1_555
O38 Rb0 2.998192 1_556
O39 P6 1.498393 1_555
O39 Rb1 2.998192 1_555
O40 P15 1.502068 1_555
O40 Rb3 3.593836 1_555
O41 P14 1.502068 1_555
O41 Rb2 3.593836 1_455
O42 P13 1.502068 1_555
O42 Rb1 3.593836 1_555
O43 P12 1.502068 1_555
O43 Rb0 3.593836 1_655
O44 P13 1.621404 1_555
O44 P0 1.627042 1_455
O45 P12 1.621404 1_556
O45 P1 1.627042 1_555
O46 P15 1.621404 1_555
O46 P2 1.627042 1_655
O47 P14 1.621404 1_554
O47 P3 1.627042 1_555
