# generated using pymatgen
data_Pr3RuO7
_symmetry_space_group_name_H-M   'P 1'
_cell_length_a   6.66046435
_cell_length_b   6.66046435
_cell_length_c   7.57852050
_cell_angle_alpha   90.00000000
_cell_angle_beta   90.00000000
_cell_angle_gamma   112.46760385
_symmetry_Int_Tables_number   1
_chemical_formula_structural   Pr3RuO7
_chemical_formula_sum   'Pr6 Ru2 O14'
_cell_volume   310.67794492
_cell_formula_units_Z   2
loop_
 _symmetry_equiv_pos_site_id
 _symmetry_equiv_pos_as_xyz
  1  'x, y, z'
loop_
 _atom_site_type_symbol
 _atom_site_label
 _atom_site_symmetry_multiplicity
 _atom_site_fract_x
 _atom_site_fract_y
 _atom_site_fract_z
 _atom_site_occupancy
  Pr  Pr0  1  0.46607250  0.90535393  0.75000000  1
  Pr  Pr1  1  0.53392750  0.09464607  0.25000000  1
  Pr  Pr2  1  0.90535393  0.46607250  0.75000000  1
  Pr  Pr3  1  0.09464607  0.53392750  0.25000000  1
  Pr  Pr4  1  -0.00000000  -0.00000000  0.50000000  1
  Pr  Pr5  1  -0.00000000  -0.00000000  0.00000000  1
  Ru  Ru0  1  0.50000000  0.50000000  0.50000000  1
  Ru  Ru1  1  0.50000000  0.50000000  0.00000000  1
  O  O0  1  0.58147160  0.58147160  0.75000000  1
  O  O1  1  0.41852840  0.41852840  0.25000000  1
  O  O2  1  0.83878701  0.10055035  0.75000000  1
  O  O3  1  0.16121299  0.89944965  0.25000000  1
  O  O4  1  0.10055035  0.83878701  0.75000000  1
  O  O5  1  0.89944965  0.16121299  0.25000000  1
  O  O6  1  0.44125205  0.19269838  0.95833583  1
  O  O7  1  0.55874795  0.80730162  0.45833583  1
  O  O8  1  0.19269838  0.44125205  0.95833583  1
  O  O9  1  0.80730162  0.55874795  0.45833583  1
  O  O10  1  0.44125205  0.19269838  0.54166417  1
  O  O11  1  0.55874795  0.80730162  0.04166417  1
  O  O12  1  0.80730162  0.55874795  0.04166417  1
  O  O13  1  0.19269838  0.44125205  0.54166417  1
loop_
_geom_bond_atom_site_label_1
_geom_bond_atom_site_label_2
_geom_bond_distance
_geom_bond_site_symmetry_2
O0 Ru1 1.988335 1_556
O0 Ru0 1.988335 1_555
O0 Pr2 2.551782 1_555
O0 Pr0 2.551782 1_555
O1 Ru0 1.988335 1_555
O1 Ru1 1.988335 1_555
O1 Pr1 2.551782 1_555
O1 Pr3 2.551782 1_555
O2 Pr2 2.301866 1_555
O2 Pr0 2.320781 1_545
O2 Pr4 2.395978 1_655
O2 Pr5 2.395978 1_656
O3 Pr3 2.301866 1_555
O3 Pr1 2.320781 1_565
O3 Pr4 2.395978 1_565
O3 Pr5 2.395978 1_565
O4 Pr0 2.301866 1_555
O4 Pr2 2.320781 1_455
O4 Pr5 2.395978 1_566
O4 Pr4 2.395978 1_565
O5 Pr1 2.301866 1_555
O5 Pr3 2.320781 1_655
O5 Pr5 2.395978 1_655
O5 Pr4 2.395978 1_655
O6 Ru1 1.957026 1_556
O6 Pr1 2.449780 1_556
O6 Pr0 2.534723 1_545
O6 Pr5 2.738854 1_556
O7 Ru0 1.957026 1_555
O7 Pr0 2.449780 1_555
O7 Pr1 2.534723 1_565
O7 Pr4 2.738854 1_665
O8 Ru1 1.957026 1_556
O8 Pr3 2.449780 1_556
O8 Pr2 2.534723 1_455
O8 Pr5 2.738854 1_556
O9 Ru0 1.957026 1_555
O9 Pr2 2.449780 1_555
O9 Pr3 2.534723 1_655
O9 Pr4 2.738854 1_665
O10 Ru0 1.957026 1_555
O10 Pr1 2.449780 1_555
O10 Pr0 2.534723 1_545
O10 Pr4 2.738854 1_555
O11 Ru1 1.957026 1_555
O11 Pr0 2.449780 1_554
O11 Pr1 2.534723 1_565
O11 Pr5 2.738854 1_665
O12 Ru1 1.957026 1_555
O12 Pr2 2.449780 1_554
O12 Pr3 2.534723 1_655
O12 Pr5 2.738854 1_665
O13 Ru0 1.957026 1_555
O13 Pr3 2.449780 1_555
O13 Pr2 2.534723 1_455
O13 Pr4 2.738854 1_555
