# generated using pymatgen
data_Y5Mg13Cu5
_symmetry_space_group_name_H-M   'P 1'
_cell_length_a   9.74753576
_cell_length_b   9.74753576
_cell_length_c   25.54792700
_cell_angle_alpha   90.00000000
_cell_angle_beta   90.00000000
_cell_angle_gamma   155.39378304
_symmetry_Int_Tables_number   1
_chemical_formula_structural   Y5Mg13Cu5
_chemical_formula_sum   'Y10 Mg26 Cu10'
_cell_volume   1010.72876380
_cell_formula_units_Z   2
loop_
 _symmetry_equiv_pos_site_id
 _symmetry_equiv_pos_as_xyz
  1  'x, y, z'
loop_
 _atom_site_type_symbol
 _atom_site_label
 _atom_site_symmetry_multiplicity
 _atom_site_fract_x
 _atom_site_fract_y
 _atom_site_fract_z
 _atom_site_occupancy
  Y  Y0  1  0.67477500  0.32522500  0.35617800  1
  Y  Y1  1  0.32522500  0.67477500  0.85617800  1
  Y  Y2  1  0.55560900  0.44439100  0.75000000  1
  Y  Y3  1  0.51577000  0.48423000  0.60599500  1
  Y  Y4  1  0.48423000  0.51577000  0.10599500  1
  Y  Y5  1  0.48423000  0.51577000  0.39400500  1
  Y  Y6  1  0.67477500  0.32522500  0.14382200  1
  Y  Y7  1  0.51577000  0.48423000  0.89400500  1
  Y  Y8  1  0.44439100  0.55560900  0.25000000  1
  Y  Y9  1  0.32522500  0.67477500  0.64382200  1
  Mg  Mg0  1  0.38307000  0.61693000  0.98298100  1
  Mg  Mg1  1  0.68549000  0.31451000  0.65768100  1
  Mg  Mg2  1  0.94661000  0.05339000  0.81098000  1
  Mg  Mg3  1  0.14978100  0.85021900  0.92902600  1
  Mg  Mg4  1  0.23279100  0.76720900  0.04580600  1
  Mg  Mg5  1  0.76720900  0.23279100  0.95419400  1
  Mg  Mg6  1  0.80664000  0.19336000  0.75000000  1
  Mg  Mg7  1  0.85021900  0.14978100  0.42902600  1
  Mg  Mg8  1  0.31451000  0.68549000  0.15768100  1
  Mg  Mg9  1  0.80564100  0.19435900  0.25000000  1
  Mg  Mg10  1  0.14978100  0.85021900  0.57097400  1
  Mg  Mg11  1  0.61693000  0.38307000  0.01701900  1
  Mg  Mg12  1  0.05339000  0.94661000  0.18902000  1
  Mg  Mg13  1  0.85021900  0.14978100  0.07097400  1
  Mg  Mg14  1  0.05339000  0.94661000  0.31098000  1
  Mg  Mg15  1  0.00000000  0.00000000  0.50000000  1
  Mg  Mg16  1  0.19336000  0.80664000  0.25000000  1
  Mg  Mg17  1  0.61693000  0.38307000  0.48298100  1
  Mg  Mg18  1  0.76720900  0.23279100  0.54580600  1
  Mg  Mg19  1  0.38307000  0.61693000  0.51701900  1
  Mg  Mg20  1  0.23279100  0.76720900  0.45419400  1
  Mg  Mg21  1  0.19435900  0.80564100  0.75000000  1
  Mg  Mg22  1  0.00000000  0.00000000  0.00000000  1
  Mg  Mg23  1  0.31451000  0.68549000  0.34231900  1
  Mg  Mg24  1  0.94661000  0.05339000  0.68902000  1
  Mg  Mg25  1  0.68549000  0.31451000  0.84231900  1
  Cu  Cu0  1  0.90667100  0.09332900  0.17057000  1
  Cu  Cu1  1  0.90437900  0.09562100  0.91460200  1
  Cu  Cu2  1  0.39962900  0.60037100  0.75000000  1
  Cu  Cu3  1  0.60037100  0.39962900  0.25000000  1
  Cu  Cu4  1  0.09332900  0.90667100  0.82943000  1
  Cu  Cu5  1  0.09562100  0.90437900  0.41460200  1
  Cu  Cu6  1  0.90667100  0.09332900  0.32943000  1
  Cu  Cu7  1  0.09332900  0.90667100  0.67057000  1
  Cu  Cu8  1  0.09562100  0.90437900  0.08539800  1
  Cu  Cu9  1  0.90437900  0.09562100  0.58539800  1
loop_
_geom_bond_atom_site_label_1
_geom_bond_atom_site_label_2
_geom_bond_distance
_geom_bond_site_symmetry_2
Y0 Y5 3.755837 1_555
Y1 Y7 3.755837 1_555
Y2 Y7 3.756471 1_555
Y2 Y3 3.756471 1_555
Y3 Y9 3.755837 1_555
Y4 Y6 3.755837 1_555
Y4 Y8 3.756471 1_555
Y5 Y8 3.756471 1_555
Mg0 Mg22 3.076294 1_666
Mg0 Mg22 3.076294 1_556
Mg0 Mg5 3.118515 1_565
Mg0 Mg5 3.118515 1_455
Mg0 Mg13 3.123987 1_566
Mg0 Mg13 3.123987 1_456
Mg0 Mg4 3.281708 1_556
Mg0 Y7 3.399397 1_555
Mg0 Y1 3.421792 1_555
Mg0 Y4 3.686403 1_556
Mg1 Mg10 3.111872 1_545
Mg1 Mg10 3.111872 1_655
Mg1 Mg21 3.147289 1_655
Mg1 Mg21 3.147289 1_545
Mg1 Mg18 3.254527 1_555
Mg1 Mg6 3.299660 1_555
Mg1 Y9 3.394623 1_545
Mg1 Y9 3.394623 1_655
Mg1 Y2 3.418030 1_555
Mg1 Y3 3.492004 1_555
Mg2 Mg6 3.087872 1_555
Mg2 Mg24 3.115825 1_555
Mg2 Y7 3.247852 1_655
Mg2 Y7 3.247852 1_545
Mg2 Y1 3.315582 1_655
Mg2 Y1 3.315582 1_545
Mg2 Y2 3.324386 1_655
Mg2 Y2 3.324386 1_545
Mg3 Mg5 3.119345 1_565
Mg3 Mg5 3.119345 1_455
Mg3 Mg4 3.376557 1_556
Mg3 Y7 3.410298 1_455
Mg3 Y7 3.410298 1_565
Mg3 Y1 3.825049 1_555
Mg4 Mg5 3.197153 1_564
Mg4 Mg5 3.197153 1_454
Mg4 Mg8 3.254527 1_555
Mg4 Y6 3.435952 1_455
Mg4 Y6 3.435952 1_565
Mg5 Y1 3.435952 1_545
Mg5 Y1 3.435952 1_655
Mg6 Y1 3.434785 1_545
Mg6 Y9 3.434785 1_655
Mg6 Y1 3.434785 1_655
Mg6 Y9 3.434785 1_545
Mg7 Y5 3.410298 1_545
Mg7 Y5 3.410298 1_655
Mg7 Y0 3.825049 1_555
Mg8 Mg9 3.147289 1_565
Mg8 Mg9 3.147289 1_455
Mg8 Y6 3.394623 1_455
Mg8 Y6 3.394623 1_565
Mg8 Y8 3.418030 1_555
Mg8 Y4 3.492004 1_555
Mg9 Y8 3.361336 1_545
Mg9 Y8 3.361336 1_655
Mg9 Y6 3.683973 1_555
Mg9 Y0 3.683973 1_555
Mg10 Mg18 3.119345 1_565
Mg10 Mg18 3.119345 1_455
Mg10 Mg17 3.123987 1_455
Mg10 Mg17 3.123987 1_565
Mg10 Mg20 3.376557 1_555
Mg10 Mg15 3.380392 1_565
Mg10 Y3 3.410298 1_455
Mg10 Y3 3.410298 1_565
Mg10 Y9 3.825049 1_555
Mg11 Mg22 3.076294 1_665
Mg11 Mg22 3.076294 1_555
Mg11 Mg4 3.118515 1_655
Mg11 Mg4 3.118515 1_545
Mg11 Mg3 3.123987 1_654
Mg11 Mg3 3.123987 1_544
Mg11 Mg5 3.281708 1_554
Mg11 Y4 3.399397 1_555
Mg11 Y6 3.421792 1_555
Mg11 Y7 3.686403 1_554
Mg12 Mg16 3.087872 1_555
Mg12 Mg14 3.115825 1_555
Mg12 Y4 3.247852 1_565
Mg12 Y4 3.247852 1_455
Mg12 Y6 3.315582 1_565
Mg12 Y6 3.315582 1_455
Mg12 Y8 3.324386 1_455
Mg12 Y8 3.324386 1_565
Mg13 Mg8 3.111872 1_655
Mg13 Mg8 3.111872 1_545
Mg13 Mg4 3.119345 1_655
Mg13 Mg4 3.119345 1_545
Mg13 Mg5 3.376557 1_554
Mg13 Mg22 3.380392 1_655
Mg13 Y4 3.410298 1_545
Mg13 Y4 3.410298 1_655
Mg13 Y6 3.825049 1_555
Mg14 Mg16 3.087872 1_555
Mg14 Y5 3.247852 1_565
Mg14 Y5 3.247852 1_455
Mg14 Y0 3.315582 1_565
Mg14 Y0 3.315582 1_455
Mg14 Y8 3.324386 1_565
Mg14 Y8 3.324386 1_455
Mg15 Mg17 3.076294 1_445
Mg15 Mg19 3.076294 1_445
Mg15 Mg19 3.076294 1_555
Mg15 Mg17 3.076294 1_555
Mg15 Mg7 3.380392 1_455
Mg15 Y3 3.425977 1_555
Mg15 Y3 3.425977 1_445
Mg15 Y5 3.425977 1_445
Mg15 Y5 3.425977 1_555
Mg16 Mg9 2.981264 1_565
Mg16 Mg9 2.981264 1_455
Mg16 Mg23 3.299660 1_555
Mg16 Mg8 3.299660 1_555
Mg16 Y6 3.434785 1_455
Mg16 Y0 3.434785 1_455
Mg16 Y6 3.434785 1_565
Mg16 Y0 3.434785 1_565
Mg17 Mg20 3.118515 1_655
Mg17 Mg20 3.118515 1_545
Mg17 Mg18 3.281708 1_555
Mg17 Y5 3.399397 1_555
Mg17 Y0 3.421792 1_555
Mg17 Y3 3.686403 1_555
Mg18 Mg19 3.118515 1_545
Mg18 Mg19 3.118515 1_655
Mg18 Mg20 3.197153 1_655
Mg18 Mg20 3.197153 1_545
Mg18 Mg7 3.376557 1_555
Mg18 Y9 3.435952 1_545
Mg18 Y9 3.435952 1_655
Mg19 Mg7 3.123987 1_565
Mg19 Mg7 3.123987 1_455
Mg19 Mg20 3.281708 1_555
Mg19 Y3 3.399397 1_555
Mg19 Y9 3.421792 1_555
Mg19 Y5 3.686403 1_555
Mg20 Mg7 3.119345 1_455
Mg20 Mg7 3.119345 1_565
Mg20 Mg23 3.254527 1_555
Mg20 Y0 3.435952 1_455
Mg20 Y0 3.435952 1_565
Mg21 Mg6 2.981264 1_455
Mg21 Mg6 2.981264 1_565
Mg21 Mg25 3.147289 1_455
Mg21 Mg25 3.147289 1_565
Mg21 Y2 3.361336 1_455
Mg21 Y2 3.361336 1_565
Mg21 Y9 3.683973 1_555
Mg21 Y1 3.683973 1_555
Mg22 Mg3 3.380392 1_544
Mg22 Y4 3.425977 1_445
Mg22 Y4 3.425977 1_555
Mg22 Y7 3.425977 1_554
Mg22 Y7 3.425977 1_444
Mg23 Mg7 3.111872 1_565
Mg23 Mg7 3.111872 1_455
Mg23 Mg9 3.147289 1_565
Mg23 Mg9 3.147289 1_455
Mg23 Y0 3.394623 1_455
Mg23 Y0 3.394623 1_565
Mg23 Y8 3.418030 1_555
Mg23 Y5 3.492004 1_555
Mg24 Mg6 3.087872 1_555
Mg24 Y3 3.247852 1_655
Mg24 Y3 3.247852 1_545
Mg24 Y9 3.315582 1_655
Mg24 Y9 3.315582 1_545
Mg24 Y2 3.324386 1_655
Mg24 Y2 3.324386 1_545
Mg25 Mg3 3.111872 1_545
Mg25 Mg3 3.111872 1_655
Mg25 Mg5 3.254527 1_555
Mg25 Mg6 3.299660 1_555
Mg25 Y1 3.394623 1_545
Mg25 Y1 3.394623 1_655
Mg25 Y2 3.418030 1_555
Mg25 Y7 3.492004 1_555
Cu0 Mg8 2.739348 1_545
Cu0 Mg8 2.739348 1_655
Cu0 Mg13 2.762340 1_555
Cu0 Mg9 2.796620 1_555
Cu0 Mg12 2.834081 1_645
Cu0 Y8 2.991358 1_545
Cu0 Y8 2.991358 1_655
Cu0 Y4 3.036146 1_545
Cu0 Y4 3.036146 1_655
Cu1 Mg0 2.744199 1_545
Cu1 Mg0 2.744199 1_655
Cu1 Mg2 2.766836 1_555
Cu1 Mg5 2.801687 1_555
Cu1 Mg22 2.842046 1_656
Cu1 Y1 2.969016 1_545
Cu1 Y1 2.969016 1_655
Cu1 Y7 3.015395 1_545
Cu1 Y7 3.015395 1_655
Cu2 Mg6 2.729691 1_455
Cu2 Mg6 2.729691 1_565
Cu2 Mg24 2.746263 1_455
Cu2 Mg2 2.746263 1_455
Cu2 Mg24 2.746263 1_565
Cu2 Mg2 2.746263 1_565
Cu2 Y2 2.971005 1_555
Cu2 Y9 3.060523 1_555
Cu2 Y1 3.060523 1_555
Cu3 Mg16 2.729691 1_545
Cu3 Mg16 2.729691 1_655
Cu3 Mg12 2.746263 1_545
Cu3 Mg14 2.746263 1_545
Cu3 Mg12 2.746263 1_655
Cu3 Mg14 2.746263 1_655
Cu3 Y8 2.971005 1_555
Cu3 Y0 3.060523 1_555
Cu3 Y6 3.060523 1_555
Cu4 Mg25 2.739348 1_455
Cu4 Mg25 2.739348 1_565
Cu4 Mg3 2.762340 1_555
Cu4 Mg21 2.796620 1_555
Cu4 Mg2 2.834081 1_465
Cu4 Y2 2.991358 1_565
Cu4 Y2 2.991358 1_455
Cu4 Y7 3.036146 1_455
Cu4 Y7 3.036146 1_565
Cu5 Mg17 2.744199 1_455
Cu5 Mg17 2.744199 1_565
Cu5 Mg14 2.766836 1_555
Cu5 Mg20 2.801687 1_555
Cu5 Mg15 2.842046 1_565
Cu5 Y0 2.969016 1_455
Cu5 Y0 2.969016 1_565
Cu5 Y5 3.015395 1_455
Cu5 Y5 3.015395 1_565
Cu6 Mg23 2.739348 1_545
Cu6 Mg23 2.739348 1_655
Cu6 Mg7 2.762340 1_555
Cu6 Mg9 2.796620 1_555
Cu6 Mg14 2.834081 1_645
Cu6 Y8 2.991358 1_545
Cu6 Y8 2.991358 1_655
Cu6 Y5 3.036146 1_545
Cu6 Y5 3.036146 1_655
Cu7 Mg1 2.739348 1_455
Cu7 Mg1 2.739348 1_565
Cu7 Mg10 2.762340 1_555
Cu7 Mg21 2.796620 1_555
Cu7 Mg24 2.834081 1_465
Cu7 Y2 2.991358 1_455
Cu7 Y2 2.991358 1_565
Cu7 Y3 3.036146 1_455
Cu7 Y3 3.036146 1_565
Cu8 Mg11 2.744199 1_455
Cu8 Mg11 2.744199 1_565
Cu8 Mg12 2.766836 1_555
Cu8 Mg4 2.801687 1_555
Cu8 Mg22 2.842046 1_565
Cu8 Y6 2.969016 1_455
Cu8 Y6 2.969016 1_565
Cu8 Y4 3.015395 1_455
Cu8 Y4 3.015395 1_565
Cu9 Mg19 2.744199 1_545
Cu9 Mg19 2.744199 1_655
Cu9 Mg24 2.766836 1_555
Cu9 Mg18 2.801687 1_555
Cu9 Mg15 2.842046 1_655
Cu9 Y9 2.969016 1_545
Cu9 Y9 2.969016 1_655
Cu9 Y3 3.015395 1_545
Cu9 Y3 3.015395 1_655
