# generated using pymatgen
data_SiO2
_symmetry_space_group_name_H-M   'P 1'
_cell_length_a   15.98728102
_cell_length_b   15.98728102
_cell_length_c   15.98728102
_cell_angle_alpha   109.47122063
_cell_angle_beta   109.47122063
_cell_angle_gamma   109.47122063
_symmetry_Int_Tables_number   1
_chemical_formula_structural   SiO2
_chemical_formula_sum   'Si24 O48'
_cell_volume   3145.58869971
_cell_formula_units_Z   24
loop_
 _symmetry_equiv_pos_site_id
 _symmetry_equiv_pos_as_xyz
  1  'x, y, z'
loop_
 _atom_site_type_symbol
 _atom_site_label
 _atom_site_symmetry_multiplicity
 _atom_site_fract_x
 _atom_site_fract_y
 _atom_site_fract_z
 _atom_site_occupancy
  Si  Si0  1  0.42429300  0.12088500  0.69659100  1
  Si  Si1  1  0.42429300  0.69659100  0.12088500  1
  Si  Si2  1  0.87911500  0.30340900  0.57570700  1
  Si  Si3  1  0.12088500  0.42429300  0.69659100  1
  Si  Si4  1  0.42429300  0.30340900  0.72770200  1
  Si  Si5  1  0.30340900  0.57570700  0.87911500  1
  Si  Si6  1  0.30340900  0.87911500  0.57570700  1
  Si  Si7  1  0.69659100  0.57570700  0.27229800  1
  Si  Si8  1  0.30340900  0.72770200  0.42429300  1
  Si  Si9  1  0.87911500  0.57570700  0.30340900  1
  Si  Si10  1  0.69659100  0.12088500  0.42429300  1
  Si  Si11  1  0.69659100  0.42429300  0.12088500  1
  Si  Si12  1  0.57570700  0.27229800  0.69659100  1
  Si  Si13  1  0.42429300  0.72770200  0.30340900  1
  Si  Si14  1  0.72770200  0.42429300  0.30340900  1
  Si  Si15  1  0.27229800  0.69659100  0.57570700  1
  Si  Si16  1  0.57570700  0.87911500  0.30340900  1
  Si  Si17  1  0.69659100  0.27229800  0.57570700  1
  Si  Si18  1  0.57570700  0.30340900  0.87911500  1
  Si  Si19  1  0.57570700  0.69659100  0.27229800  1
  Si  Si20  1  0.72770200  0.30340900  0.42429300  1
  Si  Si21  1  0.27229800  0.57570700  0.69659100  1
  Si  Si22  1  0.30340900  0.42429300  0.72770200  1
  Si  Si23  1  0.12088500  0.69659100  0.42429300  1
  O  O0  1  0.64740400  0.00000000  0.35259600  1
  O  O1  1  0.35176200  0.85176200  0.50000000  1
  O  O2  1  0.32203700  0.67796300  0.50000000  1
  O  O3  1  0.67796300  0.50000000  0.32203700  1
  O  O4  1  0.35259600  0.35259600  0.70519100  1
  O  O5  1  0.32203700  0.82203700  0.64407300  1
  O  O6  1  0.70519100  0.35259600  0.35259600  1
  O  O7  1  0.82203700  0.17796300  0.50000000  1
  O  O8  1  0.35592700  0.67796300  0.17796300  1
  O  O9  1  0.85176200  0.50000000  0.35176200  1
  O  O10  1  0.50000000  0.82203700  0.17796300  1
  O  O11  1  0.17796300  0.82203700  0.50000000  1
  O  O12  1  0.64823800  0.14823800  0.50000000  1
  O  O13  1  0.82203700  0.50000000  0.17796300  1
  O  O14  1  0.64740400  0.35259600  0.00000000  1
  O  O15  1  0.00000000  0.35259600  0.64740400  1
  O  O16  1  0.50000000  0.32203700  0.67796300  1
  O  O17  1  0.64740400  0.29480900  0.64740400  1
  O  O18  1  0.35176200  0.50000000  0.85176200  1
  O  O19  1  0.50000000  0.64823800  0.14823800  1
  O  O20  1  0.82203700  0.64407300  0.32203700  1
  O  O21  1  0.67796300  0.17796300  0.35592700  1
  O  O22  1  0.67796300  0.35592700  0.17796300  1
  O  O23  1  0.64407300  0.32203700  0.82203700  1
  O  O24  1  0.35259600  0.00000000  0.64740400  1
  O  O25  1  0.50000000  0.67796300  0.32203700  1
  O  O26  1  0.50000000  0.85176200  0.35176200  1
  O  O27  1  0.17796300  0.35592700  0.67796300  1
  O  O28  1  0.32203700  0.64407300  0.82203700  1
  O  O29  1  0.64407300  0.82203700  0.32203700  1
  O  O30  1  0.17796300  0.50000000  0.82203700  1
  O  O31  1  0.29480900  0.64740400  0.64740400  1
  O  O32  1  0.64740400  0.64740400  0.29480900  1
  O  O33  1  0.00000000  0.64740400  0.35259600  1
  O  O34  1  0.35259600  0.70519100  0.35259600  1
  O  O35  1  0.35592700  0.17796300  0.67796300  1
  O  O36  1  0.17796300  0.67796300  0.35592700  1
  O  O37  1  0.67796300  0.32203700  0.50000000  1
  O  O38  1  0.32203700  0.50000000  0.67796300  1
  O  O39  1  0.50000000  0.17796300  0.82203700  1
  O  O40  1  0.64823800  0.50000000  0.14823800  1
  O  O41  1  0.50000000  0.35176200  0.85176200  1
  O  O42  1  0.82203700  0.32203700  0.64407300  1
  O  O43  1  0.85176200  0.35176200  0.50000000  1
  O  O44  1  0.14823800  0.50000000  0.64823800  1
  O  O45  1  0.14823800  0.64823800  0.50000000  1
  O  O46  1  0.50000000  0.14823800  0.64823800  1
  O  O47  1  0.35259600  0.64740400  0.00000000  1
loop_
_geom_bond_atom_site_label_1
_geom_bond_atom_site_label_2
_geom_bond_distance
_geom_bond_site_symmetry_2
O0 Si10 1.605104 1_555
O0 Si16 1.605104 1_545
O1 Si6 1.658320 1_555
O1 Si8 1.658322 1_555
O2 Si15 1.656858 1_555
O2 Si8 1.656858 1_555
O3 Si7 1.656858 1_555
O3 Si14 1.656858 1_555
O4 Si22 1.605094 1_555
O4 Si4 1.605094 1_555
O5 Si6 1.656832 1_555
O5 Si15 1.656857 1_555
O6 Si20 1.605094 1_555
O6 Si14 1.605094 1_555
O7 Si10 1.656860 1_555
O7 Si2 1.656860 1_555
O8 Si1 1.656832 1_555
O8 Si13 1.656857 1_555
O9 Si9 1.658320 1_555
O9 Si14 1.658322 1_555
O10 Si1 1.656860 1_555
O10 Si16 1.656860 1_555
O11 Si23 1.656860 1_555
O11 Si6 1.656860 1_555
O12 Si10 1.658320 1_555
O12 Si17 1.658322 1_555
O13 Si11 1.656860 1_555
O13 Si9 1.656860 1_555
O14 Si11 1.605104 1_555
O14 Si18 1.605104 1_554
O15 Si3 1.605104 1_555
O15 Si2 1.605104 1_455
O16 Si12 1.656858 1_555
O16 Si4 1.656858 1_555
O17 Si17 1.605094 1_555
O17 Si12 1.605094 1_555
O18 Si5 1.658320 1_555
O18 Si22 1.658322 1_555
O19 Si1 1.658320 1_555
O19 Si19 1.658322 1_555
O20 Si9 1.656832 1_555
O20 Si7 1.656857 1_555
O21 Si10 1.656832 1_555
O21 Si20 1.656857 1_555
O22 Si11 1.656832 1_555
O22 Si14 1.656857 1_555
O23 Si18 1.656832 1_555
O23 Si12 1.656857 1_555
O24 Si0 1.605104 1_555
O24 Si6 1.605104 1_545
O25 Si19 1.656858 1_555
O25 Si13 1.656858 1_555
O26 Si16 1.658320 1_555
O26 Si13 1.658322 1_555
O27 Si3 1.656832 1_555
O27 Si22 1.656857 1_555
O28 Si5 1.656832 1_555
O28 Si21 1.656857 1_555
O29 Si16 1.656832 1_555
O29 Si19 1.656857 1_555
O30 Si3 1.656860 1_555
O30 Si5 1.656860 1_555
O31 Si15 1.605094 1_555
O31 Si21 1.605094 1_555
O32 Si7 1.605094 1_555
O32 Si19 1.605094 1_555
O33 Si23 1.605104 1_555
O33 Si9 1.605104 1_455
O34 Si13 1.605094 1_555
O34 Si8 1.605094 1_555
O35 Si0 1.656832 1_555
O35 Si4 1.656857 1_555
O36 Si23 1.656832 1_555
O36 Si8 1.656857 1_555
O37 Si17 1.656858 1_555
O37 Si20 1.656858 1_555
O38 Si21 1.656858 1_555
O38 Si22 1.656858 1_555
O39 Si0 1.656860 1_555
O39 Si18 1.656860 1_555
O40 Si11 1.658320 1_555
O40 Si7 1.658322 1_555
O41 Si18 1.658320 1_555
O41 Si4 1.658322 1_555
O42 Si2 1.656832 1_555
O42 Si17 1.656857 1_555
O43 Si2 1.658320 1_555
O43 Si20 1.658322 1_555
O44 Si3 1.658320 1_555
O44 Si21 1.658322 1_555
O45 Si23 1.658320 1_555
O45 Si15 1.658322 1_555
O46 Si0 1.658320 1_555
O46 Si12 1.658322 1_555
O47 Si1 1.605104 1_555
O47 Si5 1.605104 1_554
