# generated using pymatgen
data_LaNb2ClO6
_symmetry_space_group_name_H-M   'P 1'
_cell_length_a   7.40815200
_cell_length_b   8.43792100
_cell_length_c   9.95731400
_cell_angle_alpha   90.00000000
_cell_angle_beta   90.00000000
_cell_angle_gamma   90.00000000
_symmetry_Int_Tables_number   1
_chemical_formula_structural   LaNb2ClO6
_chemical_formula_sum   'La4 Nb8 Cl4 O24'
_cell_volume   622.42573701
_cell_formula_units_Z   4
loop_
 _symmetry_equiv_pos_site_id
 _symmetry_equiv_pos_as_xyz
  1  'x, y, z'
loop_
 _atom_site_type_symbol
 _atom_site_label
 _atom_site_symmetry_multiplicity
 _atom_site_fract_x
 _atom_site_fract_y
 _atom_site_fract_z
 _atom_site_occupancy
  La  La0  1  0.75000000  0.31001500  0.32235600  1
  La  La1  1  0.25000000  0.68998500  0.67764400  1
  La  La2  1  0.25000000  0.81001500  0.17764400  1
  La  La3  1  0.75000000  0.18998500  0.82235600  1
  Nb  Nb0  1  0.50000000  0.00000000  0.50000000  1
  Nb  Nb1  1  0.75000000  0.73220100  0.73565300  1
  Nb  Nb2  1  0.25000000  0.23220100  0.76434700  1
  Nb  Nb3  1  0.75000000  0.76779900  0.23565300  1
  Nb  Nb4  1  0.25000000  0.26779900  0.26434700  1
  Nb  Nb5  1  0.00000000  0.50000000  0.00000000  1
  Nb  Nb6  1  0.50000000  0.50000000  0.00000000  1
  Nb  Nb7  1  0.00000000  0.00000000  0.50000000  1
  Cl  Cl0  1  0.75000000  0.07327500  0.10523500  1
  Cl  Cl1  1  0.75000000  0.42672500  0.60523500  1
  Cl  Cl2  1  0.25000000  0.92672500  0.89476500  1
  Cl  Cl3  1  0.25000000  0.57327500  0.39476500  1
  O  O0  1  0.44510500  0.20008000  0.39589400  1
  O  O1  1  0.45174400  0.11474300  0.67381500  1
  O  O2  1  0.94510500  0.70008000  0.10410600  1
  O  O3  1  0.75000000  0.42006300  0.00323400  1
  O  O4  1  0.25000000  0.08424100  0.17082500  1
  O  O5  1  0.44510500  0.29992000  0.89589400  1
  O  O6  1  0.05489500  0.20008000  0.39589400  1
  O  O7  1  0.25000000  0.57993700  0.99676600  1
  O  O8  1  0.45174400  0.38525700  0.17381500  1
  O  O9  1  0.75000000  0.07993700  0.50323400  1
  O  O10  1  0.55489500  0.70008000  0.10410600  1
  O  O11  1  0.04825600  0.38525700  0.17381500  1
  O  O12  1  0.25000000  0.92006300  0.49676600  1
  O  O13  1  0.54825600  0.61474300  0.82618500  1
  O  O14  1  0.95174400  0.61474300  0.82618500  1
  O  O15  1  0.05489500  0.29992000  0.89589400  1
  O  O16  1  0.25000000  0.41575900  0.67082500  1
  O  O17  1  0.94510500  0.79992000  0.60410600  1
  O  O18  1  0.75000000  0.58424100  0.32917500  1
  O  O19  1  0.75000000  0.91575900  0.82917500  1
  O  O20  1  0.95174400  0.88525700  0.32618500  1
  O  O21  1  0.55489500  0.79992000  0.60410600  1
  O  O22  1  0.04825600  0.11474300  0.67381500  1
  O  O23  1  0.54825600  0.88525700  0.32618500  1
loop_
_geom_bond_atom_site_label_1
_geom_bond_atom_site_label_2
_geom_bond_distance
_geom_bond_site_symmetry_2
La0 O18 2.314893 1_555
La0 O6 2.549201 1_655
La0 O0 2.549201 1_555
La0 O9 2.648164 1_555
La0 O8 2.733630 1_555
La0 O11 2.733630 1_655
La1 O16 2.314893 1_555
La1 O17 2.549201 1_455
La1 O21 2.549201 1_555
La1 O12 2.648164 1_555
La1 O13 2.733630 1_555
La1 O14 2.733630 1_455
La2 O4 2.314893 1_565
La2 O2 2.549201 1_455
La2 O10 2.549201 1_555
La2 O7 2.648164 1_554
La2 O23 2.733630 1_555
La2 O20 2.733630 1_455
La3 O19 2.314893 1_545
La3 O15 2.549201 1_655
La3 O5 2.549201 1_555
La3 O3 2.648164 1_556
La3 O1 2.733630 1_555
La3 O22 2.733630 1_655
Nb0 O12 1.971303 1_545
Nb0 O9 1.971303 1_555
Nb0 O23 2.015099 1_545
Nb0 O1 2.015099 1_555
Nb0 O0 2.022418 1_555
Nb0 O21 2.022418 1_545
Nb1 O19 1.807240 1_555
Nb1 O14 2.007133 1_555
Nb1 O13 2.007133 1_555
Nb1 O17 2.032563 1_555
Nb1 O21 2.032563 1_555
Nb2 O16 1.807240 1_555
Nb2 O22 2.007133 1_555
Nb2 O1 2.007133 1_555
Nb2 O15 2.032563 1_555
Nb2 O5 2.032563 1_555
Nb3 O18 1.807240 1_555
Nb3 O23 2.007133 1_555
Nb3 O20 2.007133 1_555
Nb3 O2 2.032563 1_555
Nb3 O10 2.032563 1_555
Nb4 O4 1.807240 1_555
Nb4 O8 2.007133 1_555
Nb4 O11 2.007133 1_555
Nb4 O0 2.032563 1_555
Nb4 O6 2.032563 1_555
Nb5 O3 1.971303 1_455
Nb5 O7 1.971303 1_554
Nb5 O11 2.015099 1_555
Nb5 O14 2.015099 1_454
Nb5 O15 2.022418 1_554
Nb5 O2 2.022418 1_455
Nb6 O3 1.971303 1_555
Nb6 O7 1.971303 1_554
Nb6 O8 2.015099 1_555
Nb6 O13 2.015099 1_554
Nb6 O5 2.022418 1_554
Nb6 O10 2.022418 1_555
Nb7 O12 1.971303 1_545
Nb7 O9 1.971303 1_455
Nb7 O20 2.015099 1_445
Nb7 O22 2.015099 1_555
Nb7 O6 2.022418 1_555
Nb7 O17 2.022418 1_445
Cl0 Nb3 2.886230 1_545
Cl0 La0 2.943531 1_555
Cl0 La3 2.983906 1_554
Cl1 Nb1 2.886230 1_555
Cl1 La3 2.943531 1_555
Cl1 La0 2.983906 1_555
Cl2 Nb2 2.886230 1_565
Cl2 La1 2.943531 1_555
Cl2 La2 2.983906 1_556
Cl3 Nb4 2.886230 1_555
Cl3 La2 2.943531 1_555
Cl3 La1 2.983906 1_555
