# generated using pymatgen
data_SbIrC2(OF3)2
_symmetry_space_group_name_H-M   'P 1'
_cell_length_a   13.23311300
_cell_length_b   13.23311300
_cell_length_c   9.73898300
_cell_angle_alpha   90.00000000
_cell_angle_beta   90.00000000
_cell_angle_gamma   90.00000000
_symmetry_Int_Tables_number   1
_chemical_formula_structural   SbIrC2(OF3)2
_chemical_formula_sum   'Sb8 Ir8 C16 O16 F48'
_cell_volume   1705.44473175
_cell_formula_units_Z   8
loop_
 _symmetry_equiv_pos_site_id
 _symmetry_equiv_pos_as_xyz
  1  'x, y, z'
loop_
 _atom_site_type_symbol
 _atom_site_label
 _atom_site_symmetry_multiplicity
 _atom_site_fract_x
 _atom_site_fract_y
 _atom_site_fract_z
 _atom_site_occupancy
  Sb  Sb0  1  0.94732200  0.70056700  0.39779300  1
  Sb  Sb1  1  0.55267800  0.20056700  0.89779300  1
  Sb  Sb2  1  0.70056700  0.05267800  0.60220700  1
  Sb  Sb3  1  0.20056700  0.44732200  0.10220700  1
  Sb  Sb4  1  0.44732200  0.79943300  0.89779300  1
  Sb  Sb5  1  0.29943300  0.94732200  0.60220700  1
  Sb  Sb6  1  0.05267800  0.29943300  0.39779300  1
  Sb  Sb7  1  0.79943300  0.55267800  0.10220700  1
  Ir  Ir0  1  0.08507100  0.08543100  0.07365400  1
  Ir  Ir1  1  0.91492900  0.91456900  0.07365400  1
  Ir  Ir2  1  0.58543100  0.58507100  0.42634600  1
  Ir  Ir3  1  0.58507100  0.41456900  0.57365400  1
  Ir  Ir4  1  0.41492900  0.58543100  0.57365400  1
  Ir  Ir5  1  0.41456900  0.41492900  0.42634600  1
  Ir  Ir6  1  0.91456900  0.08507100  0.92634600  1
  Ir  Ir7  1  0.08543100  0.91492900  0.92634600  1
  C  C0  1  0.06676500  0.78927600  0.83537100  1
  C  C1  1  0.43323500  0.28927600  0.33537100  1
  C  C2  1  0.65702300  0.64980300  0.56326300  1
  C  C3  1  0.21072400  0.06676500  0.16462900  1
  C  C4  1  0.56676500  0.71072400  0.33537100  1
  C  C5  1  0.93323500  0.21072400  0.83537100  1
  C  C6  1  0.35019700  0.65702300  0.43673700  1
  C  C7  1  0.15702300  0.85019700  0.06326300  1
  C  C8  1  0.84297700  0.14980300  0.06326300  1
  C  C9  1  0.64980300  0.34297700  0.43673700  1
  C  C10  1  0.78927600  0.93323500  0.16462900  1
  C  C11  1  0.28927600  0.56676500  0.66462900  1
  C  C12  1  0.14980300  0.15702300  0.93673700  1
  C  C13  1  0.85019700  0.84297700  0.93673700  1
  C  C14  1  0.71072400  0.43323500  0.66462900  1
  C  C15  1  0.34297700  0.35019700  0.56326300  1
  O  O0  1  0.70067200  0.68813500  0.65150600  1
  O  O1  1  0.55534800  0.78966100  0.28837400  1
  O  O2  1  0.31186500  0.70067200  0.34849400  1
  O  O3  1  0.78966100  0.44465200  0.71162600  1
  O  O4  1  0.94465200  0.28966100  0.78837400  1
  O  O5  1  0.29932800  0.31186500  0.65150600  1
  O  O6  1  0.28966100  0.05534800  0.21162600  1
  O  O7  1  0.18813500  0.20067200  0.84849400  1
  O  O8  1  0.44465200  0.21033900  0.28837400  1
  O  O9  1  0.71033900  0.94465200  0.21162600  1
  O  O10  1  0.68813500  0.29932800  0.34849400  1
  O  O11  1  0.21033900  0.55534800  0.71162600  1
  O  O12  1  0.05534800  0.71033900  0.78837400  1
  O  O13  1  0.81186500  0.79932800  0.84849400  1
  O  O14  1  0.20067200  0.81186500  0.15150600  1
  O  O15  1  0.79932800  0.18813500  0.15150600  1
  F  F0  1  0.40581700  0.90581700  0.75000000  1
  F  F1  1  0.40063400  0.89474200  0.02847400  1
  F  F2  1  0.98706800  0.80179500  0.52374600  1
  F  F3  1  0.00000000  0.00000000  0.78697600  1
  F  F4  1  0.01778500  0.21910000  0.23773300  1
  F  F5  1  0.28090000  0.48221500  0.26226700  1
  F  F6  1  0.50000000  0.50000000  0.28697600  1
  F  F7  1  0.98221500  0.78090000  0.23773300  1
  F  F8  1  0.07628900  0.63917900  0.39164000  1
  F  F9  1  0.39474200  0.90063400  0.47152600  1
  F  F10  1  0.75289000  0.18637500  0.61835400  1
  F  F11  1  0.63917900  0.92371100  0.60836000  1
  F  F12  1  0.24711000  0.81362500  0.61835400  1
  F  F13  1  0.59418300  0.09418300  0.75000000  1
  F  F14  1  0.81362500  0.75289000  0.38164600  1
  F  F15  1  0.86082100  0.42371100  0.10836000  1
  F  F16  1  0.78090000  0.01778500  0.76226700  1
  F  F17  1  0.90581700  0.59418300  0.25000000  1
  F  F18  1  0.09418300  0.40581700  0.25000000  1
  F  F19  1  0.19820500  0.98706800  0.47625400  1
  F  F20  1  0.48706800  0.69820500  0.02374600  1
  F  F21  1  0.60525800  0.09936600  0.47152600  1
  F  F22  1  0.18637500  0.24711000  0.38164600  1
  F  F23  1  0.36082100  0.07628900  0.60836000  1
  F  F24  1  0.00000000  0.00000000  0.21302400  1
  F  F25  1  0.21910000  0.98221500  0.76226700  1
  F  F26  1  0.13917900  0.57628900  0.10836000  1
  F  F27  1  0.69820500  0.51293200  0.97625400  1
  F  F28  1  0.30179500  0.48706800  0.97625400  1
  F  F29  1  0.25289000  0.31362500  0.11835400  1
  F  F30  1  0.89474200  0.59936600  0.97152600  1
  F  F31  1  0.10525800  0.40063400  0.97152600  1
  F  F32  1  0.09936600  0.39474200  0.52847400  1
  F  F33  1  0.80179500  0.01293200  0.47625400  1
  F  F34  1  0.42371100  0.13917900  0.89164000  1
  F  F35  1  0.59936600  0.10525800  0.02847400  1
  F  F36  1  0.51293200  0.30179500  0.02374600  1
  F  F37  1  0.57628900  0.86082100  0.89164000  1
  F  F38  1  0.68637500  0.25289000  0.88164600  1
  F  F39  1  0.31362500  0.74711000  0.88164600  1
  F  F40  1  0.48221500  0.71910000  0.73773300  1
  F  F41  1  0.71910000  0.51778500  0.26226700  1
  F  F42  1  0.01293200  0.19820500  0.52374600  1
  F  F43  1  0.51778500  0.28090000  0.73773300  1
  F  F44  1  0.74711000  0.68637500  0.11835400  1
  F  F45  1  0.50000000  0.50000000  0.71302400  1
  F  F46  1  0.90063400  0.60525800  0.52847400  1
  F  F47  1  0.92371100  0.36082100  0.39164000  1
loop_
_geom_bond_atom_site_label_1
_geom_bond_atom_site_label_2
_geom_bond_distance
_geom_bond_site_symmetry_2
C0 O12 1.150422 1_555
C0 Ir7 1.900225 1_555
C1 O8 1.150422 1_555
C1 Ir5 1.900225 1_555
C2 O0 1.153041 1_555
C2 Ir2 1.846444 1_555
C3 O6 1.150422 1_555
C3 Ir0 1.900225 1_555
C4 O1 1.150422 1_555
C4 Ir2 1.900225 1_555
C5 O4 1.150422 1_555
C5 Ir6 1.900225 1_555
C6 O2 1.153041 1_555
C6 Ir4 1.846444 1_555
C7 O14 1.153041 1_555
C7 Ir7 1.846444 1_554
C8 O15 1.153041 1_555
C8 Ir6 1.846444 1_554
C9 O10 1.153041 1_555
C9 Ir3 1.846444 1_555
C10 O9 1.150422 1_555
C10 Ir1 1.900225 1_555
C11 O11 1.150422 1_555
C11 Ir4 1.900225 1_555
C12 O7 1.153041 1_555
C12 Ir0 1.846444 1_556
C13 O13 1.153041 1_555
C13 Ir1 1.846444 1_556
C14 O3 1.150422 1_555
C14 Ir3 1.900225 1_555
C15 O5 1.153041 1_555
C15 Ir5 1.846444 1_555
F0 Sb4 2.086931 1_555
F0 Sb5 2.086931 1_555
F1 Sb4 1.895307 1_554
F2 Sb0 1.890963 1_555
F3 Ir7 2.094688 1_545
F3 Ir6 2.094688 1_455
F4 Sb6 1.942477 1_555
F4 Ir0 2.544633 1_555
F5 Sb3 1.942477 1_555
F5 Ir5 2.544633 1_555
F6 Ir2 2.094688 1_555
F6 Ir5 2.094688 1_555
F7 Sb0 1.942477 1_555
F7 Ir1 2.544633 1_555
F8 Sb0 1.891061 1_455
F9 Sb5 1.895307 1_555
F10 Sb2 1.906386 1_555
F11 Sb2 1.891061 1_565
F12 Sb5 1.906386 1_555
F13 Sb2 2.086931 1_555
F13 Sb1 2.086931 1_555
F14 Sb0 1.906386 1_555
F15 Sb7 1.891061 1_555
F16 Sb2 1.942477 1_555
F16 Ir6 2.544633 1_555
F17 Sb0 2.086931 1_555
F17 Sb7 2.086931 1_555
F18 Sb6 2.086931 1_555
F18 Sb3 2.086931 1_555
F19 Sb5 1.890963 1_555
F20 Sb4 1.890963 1_554
F21 Sb2 1.895307 1_555
F22 Sb6 1.906386 1_555
F23 Sb5 1.891061 1_545
F24 Ir0 2.094688 1_555
F24 Ir1 2.094688 1_445
F25 Sb5 1.942477 1_555
F25 Ir7 2.544633 1_555
F26 Sb3 1.891061 1_555
F27 Sb7 1.890963 1_556
F28 Sb3 1.890963 1_556
F29 Sb3 1.906386 1_555
F30 Sb7 1.895307 1_556
F31 Sb3 1.895307 1_556
F32 Sb6 1.895307 1_555
F33 Sb2 1.890963 1_555
F34 Sb1 1.891061 1_555
F35 Sb1 1.895307 1_554
F36 Sb1 1.890963 1_554
F37 Sb4 1.891061 1_555
F38 Sb1 1.906386 1_555
F39 Sb4 1.906386 1_555
F40 Sb4 1.942477 1_555
F40 Ir4 2.544633 1_555
F41 Sb7 1.942477 1_555
F41 Ir2 2.544633 1_555
F42 Sb6 1.890963 1_555
F43 Sb1 1.942477 1_555
F43 Ir3 2.544633 1_555
F44 Sb7 1.906386 1_555
F45 Ir4 2.094688 1_555
F45 Ir3 2.094688 1_555
F46 Sb0 1.895307 1_555
F47 Sb6 1.891061 1_655
