# generated using pymatgen
data_ThTl
_symmetry_space_group_name_H-M   'P 1'
_cell_length_a   6.58624009
_cell_length_b   9.99606008
_cell_length_c   10.89655407
_cell_angle_alpha   90.00000000
_cell_angle_beta   90.00000000
_cell_angle_gamma   90.00000000
_symmetry_Int_Tables_number   1
_chemical_formula_structural   ThTl
_chemical_formula_sum   'Th12 Tl12'
_cell_volume   717.39045508
_cell_formula_units_Z   12
loop_
 _symmetry_equiv_pos_site_id
 _symmetry_equiv_pos_as_xyz
  1  'x, y, z'
loop_
 _atom_site_type_symbol
 _atom_site_label
 _atom_site_symmetry_multiplicity
 _atom_site_fract_x
 _atom_site_fract_y
 _atom_site_fract_z
 _atom_site_occupancy
  Th  Th0  1  0.00000000  0.75000000  0.39035643  1
  Th  Th1  1  0.50000000  0.25000000  0.60964357  1
  Th  Th2  1  -0.00000000  0.25000000  0.60964357  1
  Th  Th3  1  0.50000000  0.75000000  0.39035643  1
  Th  Th4  1  0.75000000  0.62822239  0.68932885  1
  Th  Th5  1  0.25000000  0.37177761  0.31067115  1
  Th  Th6  1  0.75000000  0.12822239  0.31067115  1
  Th  Th7  1  0.25000000  0.87177761  0.68932885  1
  Th  Th8  1  0.75000000  0.53397102  0.11318238  1
  Th  Th9  1  0.25000000  0.46602898  0.88681762  1
  Th  Th10  1  0.75000000  0.03397102  0.88681762  1
  Th  Th11  1  0.25000000  0.96602898  0.11318238  1
  Tl  Tl0  1  -0.00000000  0.75000000  0.92483511  1
  Tl  Tl1  1  0.50000000  0.25000000  0.07516489  1
  Tl  Tl2  1  0.00000000  0.25000000  0.07516489  1
  Tl  Tl3  1  0.50000000  0.75000000  0.92483511  1
  Tl  Tl4  1  0.75000000  0.94626649  0.59593963  1
  Tl  Tl5  1  0.25000000  0.05373351  0.40406037  1
  Tl  Tl6  1  0.75000000  0.44626649  0.40406037  1
  Tl  Tl7  1  0.25000000  0.55373351  0.59593963  1
  Tl  Tl8  1  0.75000000  0.86938302  0.14778585  1
  Tl  Tl9  1  0.25000000  0.13061698  0.85221415  1
  Tl  Tl10  1  0.75000000  0.36938302  0.85221415  1
  Tl  Tl11  1  0.25000000  0.63061698  0.14778585  1
loop_
_geom_bond_atom_site_label_1
_geom_bond_atom_site_label_2
_geom_bond_distance
_geom_bond_site_symmetry_2
Th0 Th3 3.293120 1_555
Th0 Th3 3.293120 1_455
Th0 Tl11 3.334919 1_555
Th0 Tl8 3.334919 1_455
Th0 Tl7 3.402711 1_555
Th0 Tl4 3.402711 1_455
Th0 Tl6 3.457108 1_455
Th0 Tl5 3.457108 1_565
Th1 Th2 3.293120 1_655
Th1 Th2 3.293120 1_555
Th1 Tl9 3.334919 1_555
Th1 Tl10 3.334919 1_555
Th1 Tl6 3.402711 1_555
Th1 Tl5 3.402711 1_555
Th1 Tl4 3.457108 1_545
Th1 Tl7 3.457108 1_555
Th2 Tl10 3.334919 1_455
Th2 Tl9 3.334919 1_555
Th2 Tl6 3.402711 1_455
Th2 Tl5 3.402711 1_555
Th2 Tl4 3.457108 1_445
Th2 Tl7 3.457108 1_555
Th3 Tl8 3.334919 1_555
Th3 Tl11 3.334919 1_555
Th3 Tl7 3.402711 1_555
Th3 Tl4 3.402711 1_555
Th3 Tl6 3.457108 1_555
Th3 Tl5 3.457108 1_565
Th4 Tl10 3.137632 1_555
Th4 Tl0 3.283045 1_655
Th4 Tl3 3.283045 1_555
Th4 Tl4 3.338081 1_555
Th4 Tl7 3.526275 1_555
Th4 Tl7 3.526275 1_655
Th4 Tl6 3.601473 1_555
Th5 Tl11 3.137632 1_555
Th5 Tl1 3.283045 1_555
Th5 Tl2 3.283045 1_555
Th5 Tl5 3.338081 1_555
Th5 Tl6 3.526275 1_455
Th5 Tl6 3.526275 1_555
Th5 Tl7 3.601473 1_555
Th6 Tl8 3.137632 1_545
Th6 Tl1 3.283045 1_555
Th6 Tl2 3.283045 1_655
Th6 Tl6 3.338081 1_555
Th6 Tl5 3.526275 1_655
Th6 Tl5 3.526275 1_555
Th6 Tl4 3.601473 1_545
Th7 Tl9 3.137632 1_565
Th7 Tl0 3.283045 1_555
Th7 Tl3 3.283045 1_555
Th7 Tl7 3.338081 1_555
Th7 Tl4 3.526275 1_555
Th7 Tl4 3.526275 1_455
Th7 Tl5 3.601473 1_565
Th8 Tl10 3.285294 1_554
Th8 Tl6 3.288581 1_555
Th8 Tl1 3.307623 1_555
Th8 Tl2 3.307623 1_655
Th8 Tl8 3.373934 1_555
Th8 Tl0 3.403883 1_654
Th8 Tl3 3.403883 1_554
Th8 Tl11 3.452553 1_655
Th8 Tl11 3.452553 1_555
Th9 Tl11 3.285294 1_556
Th9 Tl7 3.288581 1_555
Th9 Tl0 3.307623 1_555
Th9 Tl3 3.307623 1_555
Th9 Tl9 3.373934 1_555
Th9 Tl2 3.403883 1_556
Th9 Tl1 3.403883 1_556
Th9 Tl10 3.452553 1_555
Th9 Tl10 3.452553 1_455
Th10 Tl8 3.285294 1_546
Th10 Tl4 3.288581 1_545
Th10 Tl0 3.307623 1_645
Th10 Tl3 3.307623 1_545
Th10 Tl10 3.373934 1_555
Th10 Tl2 3.403883 1_656
Th10 Tl1 3.403883 1_556
Th10 Tl9 3.452553 1_655
Th10 Tl9 3.452553 1_555
Th11 Tl9 3.285294 1_564
Th11 Tl5 3.288581 1_565
Th11 Tl2 3.307623 1_565
Th11 Tl1 3.307623 1_565
Th11 Tl11 3.373934 1_555
Th11 Tl3 3.403883 1_554
Th11 Tl0 3.403883 1_554
Th11 Tl8 3.452553 1_455
Th11 Tl8 3.452553 1_555
Tl0 Tl8 3.168158 1_456
Tl0 Tl11 3.168158 1_556
Tl0 Tl3 3.293120 1_555
Tl0 Tl3 3.293120 1_455
Tl1 Tl9 3.168158 1_554
Tl1 Tl10 3.168158 1_554
Tl1 Tl2 3.293120 1_555
Tl1 Tl2 3.293120 1_655
Tl2 Tl9 3.168158 1_554
Tl3 Tl8 3.168158 1_556
Tl10 Tl2 3.168158 1_656
Tl11 Tl3 3.168158 1_554
