# generated using pymatgen
data_Pr6S4BrN3
_symmetry_space_group_name_H-M   'P 1'
_cell_length_a   4.06881100
_cell_length_b   11.61117300
_cell_length_c   27.60688100
_cell_angle_alpha   90.00000000
_cell_angle_beta   90.00000000
_cell_angle_gamma   90.00000000
_symmetry_Int_Tables_number   1
_chemical_formula_structural   Pr6S4BrN3
_chemical_formula_sum   'Pr24 S16 Br4 N12'
_cell_volume   1304.25033222
_cell_formula_units_Z   4
loop_
 _symmetry_equiv_pos_site_id
 _symmetry_equiv_pos_as_xyz
  1  'x, y, z'
loop_
 _atom_site_type_symbol
 _atom_site_label
 _atom_site_symmetry_multiplicity
 _atom_site_fract_x
 _atom_site_fract_y
 _atom_site_fract_z
 _atom_site_occupancy
  Pr  Pr0  1  0.75000000  0.25479100  0.17100600  1
  Pr  Pr1  1  0.25000000  0.24846500  0.93597900  1
  Pr  Pr2  1  0.25000000  0.74846500  0.56402100  1
  Pr  Pr3  1  0.25000000  0.37426400  0.28322500  1
  Pr  Pr4  1  0.25000000  0.90047000  0.96449800  1
  Pr  Pr5  1  0.25000000  0.40047000  0.53550200  1
  Pr  Pr6  1  0.25000000  0.24520900  0.67100600  1
  Pr  Pr7  1  0.25000000  0.44127900  0.07797700  1
  Pr  Pr8  1  0.25000000  0.87426400  0.21677500  1
  Pr  Pr9  1  0.75000000  0.75153500  0.06402100  1
  Pr  Pr10  1  0.25000000  0.74520900  0.82899400  1
  Pr  Pr11  1  0.75000000  0.06106900  0.30757500  1
  Pr  Pr12  1  0.75000000  0.75479100  0.32899400  1
  Pr  Pr13  1  0.75000000  0.25153500  0.43597900  1
  Pr  Pr14  1  0.25000000  0.43893100  0.80757500  1
  Pr  Pr15  1  0.75000000  0.59953000  0.46449800  1
  Pr  Pr16  1  0.25000000  0.93893100  0.69242500  1
  Pr  Pr17  1  0.75000000  0.56106900  0.19242500  1
  Pr  Pr18  1  0.75000000  0.62573600  0.71677500  1
  Pr  Pr19  1  0.75000000  0.55872100  0.92202300  1
  Pr  Pr20  1  0.75000000  0.12573600  0.78322500  1
  Pr  Pr21  1  0.75000000  0.09953000  0.03550200  1
  Pr  Pr22  1  0.75000000  0.05872100  0.57797700  1
  Pr  Pr23  1  0.25000000  0.94127900  0.42202300  1
  S  S0  1  0.75000000  0.80987800  0.63761600  1
  S  S1  1  0.75000000  0.79365500  0.89748800  1
  S  S2  1  0.25000000  0.20634500  0.10251200  1
  S  S3  1  0.75000000  0.85618200  0.50582500  1
  S  S4  1  0.25000000  0.19012200  0.36238400  1
  S  S5  1  0.25000000  0.14381800  0.49417500  1
  S  S6  1  0.75000000  0.29365500  0.60251200  1
  S  S7  1  0.25000000  0.70634500  0.39748800  1
  S  S8  1  0.75000000  0.35618200  0.99417500  1
  S  S9  1  0.25000000  0.13482100  0.23587600  1
  S  S10  1  0.75000000  0.36517900  0.73587600  1
  S  S11  1  0.25000000  0.64381800  0.00582500  1
  S  S12  1  0.25000000  0.69012200  0.13761600  1
  S  S13  1  0.25000000  0.63482100  0.26412400  1
  S  S14  1  0.75000000  0.86517900  0.76412400  1
  S  S15  1  0.75000000  0.30987800  0.86238400  1
  Br  Br0  1  0.75000000  0.96112300  0.13744800  1
  Br  Br1  1  0.25000000  0.53887700  0.63744800  1
  Br  Br2  1  0.25000000  0.03887700  0.86255200  1
  Br  Br3  1  0.75000000  0.46112300  0.36255200  1
  N  N0  1  0.25000000  0.06248900  0.62512300  1
  N  N1  1  0.75000000  0.38630300  0.23764000  1
  N  N2  1  0.25000000  0.09836200  0.98620700  1
  N  N3  1  0.25000000  0.61369700  0.76236000  1
  N  N4  1  0.75000000  0.93751100  0.37487700  1
  N  N5  1  0.75000000  0.90163800  0.01379300  1
  N  N6  1  0.75000000  0.40163800  0.48620700  1
  N  N7  1  0.25000000  0.11369700  0.73764000  1
  N  N8  1  0.75000000  0.88630300  0.26236000  1
  N  N9  1  0.25000000  0.56248900  0.87487700  1
  N  N10  1  0.25000000  0.59836200  0.51379300  1
  N  N11  1  0.75000000  0.43751100  0.12512300  1
loop_
_geom_bond_atom_site_label_1
_geom_bond_atom_site_label_2
_geom_bond_distance
_geom_bond_site_symmetry_2
Pr0 S2 2.833858 1_555
Pr0 S2 2.833858 1_655
Pr0 S9 3.047361 1_555
Pr0 S9 3.047361 1_655
Pr1 S8 2.878247 1_455
Pr1 S8 2.878247 1_555
Pr1 S15 2.962297 1_455
Pr1 S15 2.962297 1_555
Pr2 S3 2.878247 1_555
Pr2 S3 2.878247 1_455
Pr2 S0 2.962297 1_555
Pr2 S0 2.962297 1_455
Pr3 S4 3.057315 1_555
Pr3 S13 3.070984 1_555
Pr3 S9 3.072174 1_555
Pr4 S1 3.016502 1_455
Pr4 S1 3.016502 1_555
Pr4 S11 3.190965 1_556
Pr5 S6 3.016502 1_555
Pr5 S6 3.016502 1_455
Pr5 S5 3.190965 1_555
Pr6 S6 2.833858 1_455
Pr6 S6 2.833858 1_555
Pr6 S10 3.047361 1_455
Pr6 S10 3.047361 1_555
Pr7 S2 2.810694 1_555
Pr7 S11 3.081915 1_555
Pr7 S8 3.235342 1_454
Pr7 S8 3.235342 1_554
Pr7 S12 3.325535 1_555
Pr8 S12 3.057315 1_555
Pr8 S9 3.070984 1_565
Pr8 S13 3.072174 1_555
Pr9 S11 2.878247 1_555
Pr9 S11 2.878247 1_655
Pr9 S12 2.962297 1_555
Pr9 S12 2.962297 1_655
Pr10 S1 2.833858 1_455
Pr10 S1 2.833858 1_555
Pr10 S14 3.047361 1_555
Pr10 S14 3.047361 1_455
Pr11 S4 2.945109 1_555
Pr11 S4 2.945109 1_655
Pr11 S9 2.964811 1_555
Pr11 S9 2.964811 1_655
Pr12 S7 2.833858 1_655
Pr12 S7 2.833858 1_555
Pr12 S13 3.047361 1_555
Pr12 S13 3.047361 1_655
Pr13 S5 2.878247 1_555
Pr13 S5 2.878247 1_655
Pr13 S4 2.962297 1_555
Pr13 S4 2.962297 1_655
Pr14 S15 2.945109 1_455
Pr14 S15 2.945109 1_555
Pr14 S10 2.964811 1_455
Pr14 S10 2.964811 1_555
Pr15 S7 3.016502 1_655
Pr15 S7 3.016502 1_555
Pr15 S3 3.190965 1_555
Pr16 S0 2.945109 1_455
Pr16 S0 2.945109 1_555
Pr16 S14 2.964811 1_455
Pr16 S14 2.964811 1_555
Pr17 S12 2.945109 1_655
Pr17 S12 2.945109 1_555
Pr17 S13 2.964811 1_555
Pr17 S13 2.964811 1_655
Pr18 S0 3.057315 1_555
Pr18 S10 3.070984 1_555
Pr18 S14 3.072174 1_555
Pr19 S1 2.810694 1_555
Pr19 S8 3.081915 1_555
Pr19 S11 3.235342 1_556
Pr19 S11 3.235342 1_656
Pr19 S15 3.325535 1_555
Pr20 S15 3.057315 1_555
Pr20 S14 3.070984 1_545
Pr20 S10 3.072174 1_555
Pr21 S2 3.016502 1_555
Pr21 S2 3.016502 1_655
Pr21 S8 3.190965 1_554
Pr22 S6 2.810694 1_555
Pr22 S3 3.081915 1_545
Pr22 S5 3.235342 1_655
Pr22 S5 3.235342 1_555
Pr22 S0 3.325535 1_545
Pr23 S7 2.810694 1_555
Pr23 S5 3.081915 1_565
Pr23 S3 3.235342 1_455
Pr23 S3 3.235342 1_555
Pr23 S4 3.325535 1_565
Br0 Pr8 3.154667 1_655
Br0 Pr8 3.154667 1_555
Br0 Pr9 3.167226 1_555
Br0 Pr21 3.240922 1_565
Br0 Pr0 3.533443 1_565
Br1 Pr18 3.154667 1_455
Br1 Pr18 3.154667 1_555
Br1 Pr2 3.167226 1_555
Br1 Pr5 3.240922 1_555
Br1 Pr6 3.533443 1_555
Br2 Pr20 3.154667 1_455
Br2 Pr20 3.154667 1_555
Br2 Pr1 3.167226 1_555
Br2 Pr4 3.240922 1_545
Br2 Pr10 3.533443 1_545
Br3 Pr3 3.154667 1_555
Br3 Pr3 3.154667 1_655
Br3 Pr13 3.167226 1_555
Br3 Pr15 3.240922 1_555
Br3 Pr12 3.533443 1_555
N0 Pr16 2.347422 1_545
N0 Pr22 2.415525 1_455
N0 Pr22 2.415525 1_555
N0 Pr6 2.470962 1_555
N1 Pr17 2.382420 1_555
N1 Pr0 2.390758 1_555
N1 Pr3 2.396261 1_655
N1 Pr3 2.396261 1_555
N2 Pr1 2.227188 1_555
N2 Pr4 2.374632 1_545
N2 Pr21 2.447649 1_556
N2 Pr21 2.447649 1_456
N3 Pr14 2.382420 1_555
N3 Pr10 2.390758 1_555
N3 Pr18 2.396261 1_455
N3 Pr18 2.396261 1_555
N4 Pr11 2.347422 1_565
N4 Pr23 2.415525 1_655
N4 Pr23 2.415525 1_555
N4 Pr12 2.470962 1_555
N5 Pr9 2.227188 1_555
N5 Pr21 2.374632 1_565
N5 Pr4 2.447649 1_654
N5 Pr4 2.447649 1_554
N6 Pr13 2.227188 1_555
N6 Pr15 2.374632 1_555
N6 Pr5 2.447649 1_655
N6 Pr5 2.447649 1_555
N7 Pr16 2.382420 1_545
N7 Pr6 2.390758 1_555
N7 Pr20 2.396261 1_555
N7 Pr20 2.396261 1_455
N8 Pr11 2.382420 1_565
N8 Pr12 2.390758 1_555
N8 Pr8 2.396261 1_555
N8 Pr8 2.396261 1_655
N9 Pr14 2.347422 1_555
N9 Pr19 2.415525 1_455
N9 Pr19 2.415525 1_555
N9 Pr10 2.470962 1_555
N10 Pr2 2.227188 1_555
N10 Pr5 2.374632 1_555
N10 Pr15 2.447649 1_555
N10 Pr15 2.447649 1_455
N11 Pr17 2.347422 1_555
N11 Pr7 2.415525 1_655
N11 Pr7 2.415525 1_555
N11 Pr0 2.470962 1_555
