# generated using pymatgen
data_K3Cr(CN)6
_symmetry_space_group_name_H-M   'P 1'
_cell_length_a   13.80029700
_cell_length_b   8.54993400
_cell_length_c   13.75363929
_cell_angle_alpha   51.50785513
_cell_angle_beta   90.00000000
_cell_angle_gamma   90.00000000
_symmetry_Int_Tables_number   1
_chemical_formula_structural   K3Cr(CN)6
_chemical_formula_sum   'K12 Cr4 C24 N24'
_cell_volume   1270.16619410
_cell_formula_units_Z   4
loop_
 _symmetry_equiv_pos_site_id
 _symmetry_equiv_pos_as_xyz
  1  'x, y, z'
loop_
 _atom_site_type_symbol
 _atom_site_label
 _atom_site_symmetry_multiplicity
 _atom_site_fract_x
 _atom_site_fract_y
 _atom_site_fract_z
 _atom_site_occupancy
  K  K0  1  0.50213200  0.11055500  0.76401900  1
  K  K1  1  0.49952700  0.41637600  0.20709600  1
  K  K2  1  0.26091300  0.35519200  0.51772100  1
  K  K3  1  0.00047300  0.41637600  0.70709600  1
  K  K4  1  0.99952700  0.58362400  0.29290400  1
  K  K5  1  0.23908700  0.35519200  0.01772100  1
  K  K6  1  0.00213200  0.88944500  0.73598100  1
  K  K7  1  0.76091300  0.64480800  0.98227900  1
  K  K8  1  0.50047300  0.58362400  0.79290400  1
  K  K9  1  0.99786800  0.11055500  0.26401900  1
  K  K10  1  0.49786800  0.88944500  0.23598100  1
  K  K11  1  0.73908700  0.64480800  0.48227900  1
  Cr  Cr0  1  0.25681300  0.85888100  0.51757900  1
  Cr  Cr1  1  0.74318700  0.14111900  0.48242100  1
  Cr  Cr2  1  0.75681300  0.14111900  0.98242100  1
  Cr  Cr3  1  0.24318700  0.85888100  0.01757900  1
  C  C0  1  0.34983500  0.62811400  0.57910600  1
  C  C1  1  0.85109400  0.03632600  0.92010900  1
  C  C2  1  0.30895300  0.68782100  0.18596300  1
  C  C3  1  0.80895300  0.31217900  0.31403700  1
  C  C4  1  0.35109400  0.96367400  0.57989100  1
  C  C5  1  0.15016500  0.62811400  0.07910600  1
  C  C6  1  0.84179500  0.92399600  0.53286800  1
  C  C7  1  0.65016500  0.37188600  0.42089400  1
  C  C8  1  0.33793100  0.74508800  0.96157200  1
  C  C9  1  0.19104700  0.68782100  0.68596300  1
  C  C10  1  0.31716100  0.03403600  0.34400000  1
  C  C11  1  0.18283900  0.03403600  0.84400000  1
  C  C12  1  0.69104700  0.31217900  0.81403700  1
  C  C13  1  0.68283900  0.96596400  0.65600000  1
  C  C14  1  0.15820500  0.07600400  0.46713200  1
  C  C15  1  0.66206900  0.25491200  0.03842800  1
  C  C16  1  0.64890600  0.03632600  0.42010900  1
  C  C17  1  0.81716100  0.96596400  0.15600000  1
  C  C18  1  0.84983500  0.37188600  0.92089400  1
  C  C19  1  0.83793100  0.25491200  0.53842800  1
  C  C20  1  0.14890600  0.96367400  0.07989100  1
  C  C21  1  0.34179500  0.07600400  0.96713200  1
  C  C22  1  0.16206900  0.74508800  0.46157200  1
  C  C23  1  0.65820500  0.92399600  0.03286800  1
  N  N0  1  0.60066100  0.51344200  0.38018000  1
  N  N1  1  0.35088000  0.59097300  0.28118200  1
  N  N2  1  0.89287600  0.33186700  0.56281900  1
  N  N3  1  0.10105400  0.20093300  0.43906700  1
  N  N4  1  0.59664400  0.97605300  0.38240600  1
  N  N5  1  0.10712400  0.66813300  0.43718100  1
  N  N6  1  0.35198600  0.13437000  0.24419200  1
  N  N7  1  0.39933900  0.48655800  0.61982000  1
  N  N8  1  0.85198600  0.86563000  0.25580800  1
  N  N9  1  0.60712400  0.33186700  0.06281900  1
  N  N10  1  0.85088000  0.40902700  0.21881800  1
  N  N11  1  0.39894600  0.20093300  0.93906700  1
  N  N12  1  0.39287600  0.66813300  0.93718100  1
  N  N13  1  0.10066100  0.48655800  0.11982000  1
  N  N14  1  0.90335600  0.97605300  0.88240600  1
  N  N15  1  0.40335600  0.02394700  0.61759400  1
  N  N16  1  0.14912000  0.59097300  0.78118200  1
  N  N17  1  0.64801400  0.86563000  0.75580800  1
  N  N18  1  0.09664400  0.02394700  0.11759400  1
  N  N19  1  0.64912000  0.40902700  0.71881800  1
  N  N20  1  0.89933900  0.51344200  0.88018000  1
  N  N21  1  0.89894600  0.79906700  0.56093300  1
  N  N22  1  0.60105400  0.79906700  0.06093300  1
  N  N23  1  0.14801400  0.13437000  0.74419200  1
loop_
_geom_bond_atom_site_label_1
_geom_bond_atom_site_label_2
_geom_bond_distance
_geom_bond_site_symmetry_2
K0 N15 2.884184 1_555
K0 N7 2.888589 1_555
K0 N17 2.957261 1_545
K0 N19 3.006430 1_555
K1 N9 2.906764 1_555
K1 N22 2.919296 1_555
K1 N6 2.947588 1_555
K1 N1 3.060767 1_555
K1 N4 3.237825 1_545
K1 N12 3.260944 1_554
K1 N0 3.280686 1_555
K2 N1 2.832896 1_555
K2 N23 2.893713 1_555
K2 N7 2.974225 1_555
K2 N15 2.988193 1_555
K2 N5 3.033295 1_555
K2 N3 3.090743 1_555
K3 N2 2.906764 1_455
K3 N21 2.919296 1_455
K3 N23 2.947588 1_555
K3 N16 3.060767 1_555
K3 N14 3.237825 1_445
K3 N5 3.260944 1_555
K3 N20 3.280686 1_455
K4 N5 2.906764 1_655
K4 N3 2.919296 1_655
K4 N8 2.947588 1_555
K4 N10 3.060767 1_555
K4 N18 3.237825 1_665
K4 N2 3.260944 1_555
K4 N13 3.280686 1_655
K5 N16 2.832896 1_554
K5 N6 2.893713 1_555
K5 N13 2.974225 1_555
K5 N18 2.988193 1_555
K5 N12 3.033295 1_554
K5 N11 3.090743 1_554
K6 N14 2.884184 1_455
K6 N20 2.888589 1_455
K6 N23 2.957261 1_565
K6 N16 3.006430 1_555
K7 N10 2.832896 1_556
K7 N17 2.893713 1_555
K7 N20 2.974225 1_555
K7 N14 2.988193 1_555
K7 N9 3.033295 1_556
K7 N22 3.090743 1_556
K8 N12 2.906764 1_555
K8 N11 2.919296 1_555
K8 N17 2.947588 1_555
K8 N19 3.060767 1_555
K8 N15 3.237825 1_565
K8 N9 3.260944 1_556
K8 N7 3.280686 1_555
K9 N18 2.884184 1_655
K9 N13 2.888589 1_655
K9 N8 2.957261 1_545
K9 N10 3.006430 1_555
K10 N4 2.884184 1_555
K10 N0 2.888589 1_555
K10 N6 2.957261 1_565
K10 N1 3.006430 1_555
K11 N19 2.832896 1_555
K11 N8 2.893713 1_555
K11 N0 2.974225 1_555
K11 N4 2.988193 1_555
K11 N2 3.033295 1_555
K11 N21 3.090743 1_555
C0 N7 1.183831 1_555
C0 Cr0 2.044156 1_555
C0 K2 3.180584 1_555
C1 N14 1.177830 1_545
C1 Cr2 2.045964 1_555
C1 K7 3.149984 1_545
C2 N1 1.177124 1_555
C2 Cr3 2.027266 1_555
C3 N10 1.177124 1_555
C3 Cr1 2.027266 1_555
C4 N15 1.177830 1_565
C4 Cr0 2.045964 1_555
C4 K2 3.149984 1_565
C5 N13 1.183831 1_555
C5 Cr3 2.044156 1_555
C5 K5 3.180584 1_555
C6 N21 1.182676 1_555
C6 Cr1 2.043541 1_565
C6 K11 3.202898 1_555
C7 N0 1.183831 1_555
C7 Cr1 2.044156 1_555
C7 K11 3.180584 1_555
C8 N12 1.181169 1_555
C8 Cr3 2.045092 1_556
C8 K5 3.219511 1_556
C9 N16 1.177124 1_555
C9 Cr0 2.027266 1_555
C10 N6 1.177015 1_555
C10 Cr0 2.045784 1_545
C11 N23 1.177015 1_555
C11 Cr3 2.045784 1_546
C12 N19 1.177124 1_555
C12 Cr2 2.027266 1_555
C13 N17 1.177015 1_555
C13 Cr1 2.045784 1_565
C14 N3 1.182676 1_555
C14 Cr0 2.043541 1_545
C14 K2 3.202898 1_555
C15 N9 1.181169 1_555
C15 Cr2 2.045092 1_554
C15 K7 3.219511 1_554
C16 N4 1.177830 1_545
C16 Cr1 2.045964 1_555
C16 K11 3.149984 1_545
C17 N8 1.177015 1_555
C17 Cr2 2.045784 1_564
C18 N20 1.183831 1_555
C18 Cr2 2.044156 1_555
C18 K7 3.180584 1_555
C19 N2 1.181169 1_555
C19 Cr1 2.045092 1_555
C19 K11 3.219511 1_555
C20 N18 1.177830 1_565
C20 Cr3 2.045964 1_555
C20 K5 3.149984 1_565
C21 N11 1.182676 1_555
C21 Cr3 2.043541 1_546
C21 K5 3.202898 1_556
C22 N5 1.181169 1_555
C22 Cr0 2.045092 1_555
C22 K2 3.219511 1_555
C23 N22 1.182676 1_555
C23 Cr2 2.043541 1_564
C23 K7 3.202898 1_554
