# generated using pymatgen
data_RbMnBr3
_symmetry_space_group_name_H-M   'P 1'
_cell_length_a   12.99505335
_cell_length_b   12.99517330
_cell_length_c   6.53335065
_cell_angle_alpha   90.00063838
_cell_angle_beta   89.99892932
_cell_angle_gamma   119.99494390
_symmetry_Int_Tables_number   1
_chemical_formula_structural   RbMnBr3
_chemical_formula_sum   'Rb6 Mn6 Br18'
_cell_volume   955.53998785
_cell_formula_units_Z   6
loop_
 _symmetry_equiv_pos_site_id
 _symmetry_equiv_pos_as_xyz
  1  'x, y, z'
loop_
 _atom_site_type_symbol
 _atom_site_label
 _atom_site_symmetry_multiplicity
 _atom_site_fract_x
 _atom_site_fract_y
 _atom_site_fract_z
 _atom_site_occupancy
  Rb  Rb0  1  0.66628914  0.66628969  0.30972289  1
  Rb  Rb1  1  -0.00000391  0.66628517  0.80971763  1
  Rb  Rb2  1  0.66628418  -0.00000207  0.80971776  1
  Rb  Rb3  1  0.33370774  0.33370935  0.80972395  1
  Rb  Rb4  1  0.00000068  0.33371344  0.30971691  1
  Rb  Rb5  1  0.33371294  0.00000202  0.30971929  1
  Mn  Mn0  1  0.66666695  0.33333370  0.60898016  1
  Mn  Mn1  1  0.33333791  0.66666706  0.60898526  1
  Mn  Mn2  1  0.66666070  0.33332941  0.10898637  1
  Mn  Mn3  1  0.33333062  0.66666032  0.10898778  1
  Mn  Mn4  1  0.00001106  0.00001257  -0.00194408  1
  Mn  Mn5  1  -0.00001134  -0.00000822  0.49805960  1
  Br  Br0  1  0.82966861  0.33112546  0.86053323  1
  Br  Br1  1  0.83617430  0.83619683  0.74294229  1
  Br  Br2  1  0.49852937  0.82966050  0.36052063  1
  Br  Br3  1  0.17033832  0.50147215  0.86052005  1
  Br  Br4  1  0.00001650  0.83618027  0.24292398  1
  Br  Br5  1  0.50146645  0.17033601  0.86052167  1
  Br  Br6  1  0.83617995  0.00002290  0.24292907  1
  Br  Br7  1  0.49853356  0.66883072  0.86056819  1
  Br  Br8  1  0.33112875  0.82966764  0.86053223  1
  Br  Br9  1  0.17033115  0.66886998  0.36053534  1
  Br  Br10  1  -0.00001331  0.16382802  0.74292784  1
  Br  Br11  1  0.66886506  0.49853426  0.86052940  1
  Br  Br12  1  0.33116657  0.50146633  0.36056506  1
  Br  Br13  1  0.82966218  0.49852770  0.36051222  1
  Br  Br14  1  0.66886842  0.17032984  0.36053452  1
  Br  Br15  1  0.16381654  0.16381608  0.24294335  1
  Br  Br16  1  0.16381892  -0.00002129  0.74293260  1
  Br  Br17  1  0.50146400  0.33116516  0.36055979  1
loop_
_geom_bond_atom_site_label_1
_geom_bond_atom_site_label_2
_geom_bond_distance
_geom_bond_site_symmetry_2
Br0 Mn2 2.680189 1_556
Br0 Mn0 2.692510 1_555
Br0 Rb4 3.665887 1_656
Br0 Rb2 3.741612 1_555
Br0 Rb1 3.786884 1_655
Br1 Mn5 2.662993 1_665
Br1 Mn4 2.703919 1_666
Br1 Rb0 3.589753 1_555
Br1 Rb2 3.780754 1_565
Br1 Rb1 3.781242 1_655
Br2 Mn1 2.680206 1_555
Br2 Mn3 2.692487 1_555
Br2 Rb2 3.666104 1_565
Br2 Rb0 3.741333 1_555
Br2 Rb5 3.786556 1_565
Br3 Mn3 2.680215 1_556
Br3 Mn1 2.692452 1_555
Br3 Rb4 3.666092 1_556
Br3 Rb3 3.741351 1_555
Br3 Rb1 3.786525 1_555
Br4 Mn4 2.663152 1_565
Br4 Mn5 2.703855 1_565
Br4 Rb1 3.589466 1_554
Br4 Rb5 3.781103 1_565
Br4 Rb0 3.781446 1_455
Br5 Mn2 2.680241 1_556
Br5 Mn0 2.692498 1_555
Br5 Rb5 3.666063 1_556
Br5 Rb3 3.741361 1_555
Br5 Rb2 3.786521 1_555
Br6 Mn4 2.663131 1_655
Br6 Mn5 2.703846 1_655
Br6 Rb2 3.589518 1_554
Br6 Rb4 3.781059 1_655
Br6 Rb0 3.781548 1_545
Br7 Mn3 2.680137 1_556
Br7 Mn1 2.692710 1_555
Br7 Rb0 3.665635 1_556
Br7 Rb2 3.742081 1_565
Br7 Rb3 3.786461 1_555
Br8 Mn3 2.680235 1_556
Br8 Mn1 2.692455 1_555
Br8 Rb5 3.665897 1_566
Br8 Rb1 3.741640 1_555
Br8 Rb2 3.786796 1_565
Br9 Mn1 2.680207 1_555
Br9 Mn3 2.692424 1_555
Br9 Rb1 3.665849 1_555
Br9 Rb5 3.741664 1_565
Br9 Rb4 3.786849 1_555
Br10 Mn5 2.663147 1_555
Br10 Mn4 2.703876 1_556
Br10 Rb4 3.589476 1_555
Br10 Rb2 3.781153 1_455
Br10 Rb3 3.781385 1_555
Br11 Mn2 2.680187 1_556
Br11 Mn0 2.692430 1_555
Br11 Rb0 3.665934 1_556
Br11 Rb1 3.741616 1_655
Br11 Rb3 3.786815 1_555
Br12 Mn1 2.680138 1_555
Br12 Mn3 2.692674 1_555
Br12 Rb3 3.665667 1_555
Br12 Rb4 3.742036 1_555
Br12 Rb0 3.786435 1_555
Br13 Mn0 2.680243 1_555
Br13 Mn2 2.692463 1_555
Br13 Rb1 3.666144 1_655
Br13 Rb0 3.741390 1_555
Br13 Rb4 3.786482 1_655
Br14 Mn0 2.680129 1_555
Br14 Mn2 2.692471 1_555
Br14 Rb2 3.665896 1_555
Br14 Rb4 3.741627 1_655
Br14 Rb5 3.786806 1_555
Br15 Mn4 2.663029 1_555
Br15 Mn5 2.703908 1_555
Br15 Rb3 3.589695 1_554
Br15 Rb5 3.780984 1_555
Br15 Rb4 3.780999 1_555
Br16 Mn5 2.663184 1_555
Br16 Mn4 2.703773 1_556
Br16 Rb5 3.589456 1_555
Br16 Rb1 3.781092 1_545
Br16 Rb3 3.781516 1_555
Br17 Mn0 2.680198 1_555
Br17 Mn2 2.692631 1_555
Br17 Rb3 3.665636 1_555
Br17 Rb5 3.742029 1_555
Br17 Rb0 3.786494 1_555
