# generated using pymatgen
data_KSm2Sb3Se8
_symmetry_space_group_name_H-M   'P 1'
_cell_length_a   4.13961000
_cell_length_b   17.13508800
_cell_length_c   22.31865900
_cell_angle_alpha   90.00000000
_cell_angle_beta   90.00000000
_cell_angle_gamma   90.00000000
_symmetry_Int_Tables_number   1
_chemical_formula_structural   KSm2Sb3Se8
_chemical_formula_sum   'K4 Sm8 Sb12 Se32'
_cell_volume   1583.12010152
_cell_formula_units_Z   4
loop_
 _symmetry_equiv_pos_site_id
 _symmetry_equiv_pos_as_xyz
  1  'x, y, z'
loop_
 _atom_site_type_symbol
 _atom_site_label
 _atom_site_symmetry_multiplicity
 _atom_site_fract_x
 _atom_site_fract_y
 _atom_site_fract_z
 _atom_site_occupancy
  K  K0  1  0.75000000  0.29773600  0.24407000  1
  K  K1  1  0.25000000  0.70226400  0.75593000  1
  K  K2  1  0.75000000  0.79773600  0.25593000  1
  K  K3  1  0.25000000  0.20226400  0.74407000  1
  Sm  Sm0  1  0.75000000  0.96328500  0.08979000  1
  Sm  Sm1  1  0.75000000  0.46328500  0.41021000  1
  Sm  Sm2  1  0.25000000  0.29115600  0.54454500  1
  Sm  Sm3  1  0.25000000  0.53671500  0.58979000  1
  Sm  Sm4  1  0.25000000  0.79115600  0.95545500  1
  Sm  Sm5  1  0.75000000  0.70884400  0.45545500  1
  Sm  Sm6  1  0.75000000  0.20884400  0.04454500  1
  Sm  Sm7  1  0.25000000  0.03671500  0.91021000  1
  Sb  Sb0  1  0.25000000  0.42282700  0.08689100  1
  Sb  Sb1  1  0.25000000  0.03587700  0.24218300  1
  Sb  Sb2  1  0.25000000  0.35535100  0.90052600  1
  Sb  Sb3  1  0.75000000  0.64464900  0.09947400  1
  Sb  Sb4  1  0.25000000  0.85535100  0.59947400  1
  Sb  Sb5  1  0.25000000  0.53587700  0.25781700  1
  Sb  Sb6  1  0.75000000  0.46412300  0.74218300  1
  Sb  Sb7  1  0.75000000  0.57717300  0.91310900  1
  Sb  Sb8  1  0.75000000  0.14464900  0.40052600  1
  Sb  Sb9  1  0.75000000  0.07717300  0.58689100  1
  Sb  Sb10  1  0.75000000  0.96412300  0.75781700  1
  Sb  Sb11  1  0.25000000  0.92282700  0.41310900  1
  Se  Se0  1  0.25000000  0.89692600  0.82406700  1
  Se  Se1  1  0.25000000  0.21165000  0.94733100  1
  Se  Se2  1  0.25000000  0.61808500  0.99747400  1
  Se  Se3  1  0.25000000  0.67897600  0.17630900  1
  Se  Se4  1  0.25000000  0.11808500  0.50252600  1
  Se  Se5  1  0.75000000  0.28835000  0.44733100  1
  Se  Se6  1  0.25000000  0.52814000  0.82967600  1
  Se  Se7  1  0.75000000  0.22219800  0.62569500  1
  Se  Se8  1  0.75000000  0.88191500  0.49747400  1
  Se  Se9  1  0.75000000  0.32102400  0.82369100  1
  Se  Se10  1  0.75000000  0.60307400  0.32406700  1
  Se  Se11  1  0.75000000  0.92563800  0.95806300  1
  Se  Se12  1  0.25000000  0.40665300  0.33068600  1
  Se  Se13  1  0.75000000  0.82102400  0.67630900  1
  Se  Se14  1  0.25000000  0.02814000  0.67032400  1
  Se  Se15  1  0.75000000  0.10307400  0.17593300  1
  Se  Se16  1  0.25000000  0.90665300  0.16931400  1
  Se  Se17  1  0.25000000  0.77780200  0.37430500  1
  Se  Se18  1  0.75000000  0.97186000  0.32967600  1
  Se  Se19  1  0.25000000  0.07436200  0.04193700  1
  Se  Se20  1  0.75000000  0.59334700  0.66931400  1
  Se  Se21  1  0.25000000  0.71165000  0.55266900  1
  Se  Se22  1  0.25000000  0.17897600  0.32369100  1
  Se  Se23  1  0.25000000  0.39692600  0.67593300  1
  Se  Se24  1  0.75000000  0.72219800  0.87430500  1
  Se  Se25  1  0.75000000  0.38191500  0.00252600  1
  Se  Se26  1  0.75000000  0.09334700  0.83068600  1
  Se  Se27  1  0.75000000  0.47186000  0.17032400  1
  Se  Se28  1  0.25000000  0.27780200  0.12569500  1
  Se  Se29  1  0.25000000  0.57436200  0.45806300  1
  Se  Se30  1  0.75000000  0.42563800  0.54193700  1
  Se  Se31  1  0.75000000  0.78835000  0.05266900  1
loop_
_geom_bond_atom_site_label_1
_geom_bond_atom_site_label_2
_geom_bond_distance
_geom_bond_site_symmetry_2
K0 Se28 3.373541 1_655
K0 Se28 3.373541 1_555
K0 Se12 3.391793 1_555
K0 Se12 3.391793 1_655
K0 Se22 3.403383 1_655
K0 Se22 3.403383 1_555
K0 Se27 3.407503 1_555
K0 Se15 3.665857 1_555
K1 Se24 3.373541 1_555
K1 Se24 3.373541 1_455
K1 Se20 3.391793 1_455
K1 Se20 3.391793 1_555
K1 Se13 3.403383 1_455
K1 Se13 3.403383 1_555
K1 Se6 3.407503 1_555
K1 Se0 3.665857 1_555
K2 Se17 3.373541 1_655
K2 Se17 3.373541 1_555
K2 Se16 3.391793 1_555
K2 Se16 3.391793 1_655
K2 Se3 3.403383 1_655
K2 Se3 3.403383 1_555
K2 Se18 3.407503 1_555
K2 Se10 3.665857 1_555
K3 Se7 3.373541 1_455
K3 Se7 3.373541 1_555
K3 Se26 3.391793 1_555
K3 Se26 3.391793 1_455
K3 Se9 3.403383 1_455
K3 Se9 3.403383 1_555
K3 Se14 3.407503 1_555
K3 Se23 3.665857 1_555
Sb0 Se28 2.631607 1_555
Sb0 Se25 2.884597 1_555
Sb0 Se25 2.884597 1_455
Sb0 Se27 2.908172 1_555
Sb0 Se27 2.908172 1_455
Sb1 Se16 2.747352 1_545
Sb1 Se15 2.792162 1_555
Sb1 Se15 2.792162 1_455
Sb1 Se18 3.049673 1_445
Sb1 Se18 3.049673 1_545
Sb1 Se22 3.053142 1_555
Sb2 Se1 2.674754 1_555
Sb2 Se9 2.751507 1_455
Sb2 Se9 2.751507 1_555
Sb2 Se25 3.110265 1_456
Sb2 Se25 3.110265 1_556
Sb3 Se31 2.674754 1_555
Sb3 Se3 2.751507 1_655
Sb3 Se3 2.751507 1_555
Sb3 Se2 3.110265 1_554
Sb3 Se2 3.110265 1_654
Sb4 Se21 2.674754 1_555
Sb4 Se13 2.751507 1_555
Sb4 Se13 2.751507 1_455
Sb4 Se8 3.110265 1_455
Sb4 Se8 3.110265 1_555
Sb5 Se12 2.747352 1_555
Sb5 Se10 2.792162 1_455
Sb5 Se10 2.792162 1_555
Sb5 Se27 3.049673 1_555
Sb5 Se27 3.049673 1_455
Sb5 Se3 3.053142 1_555
Sb6 Se20 2.747352 1_555
Sb6 Se23 2.792162 1_555
Sb6 Se23 2.792162 1_655
Sb6 Se6 3.049673 1_655
Sb6 Se6 3.049673 1_555
Sb6 Se9 3.053142 1_555
Sb7 Se24 2.631607 1_555
Sb7 Se2 2.884597 1_655
Sb7 Se2 2.884597 1_555
Sb7 Se6 2.908172 1_555
Sb7 Se6 2.908172 1_655
Sb8 Se5 2.674754 1_555
Sb8 Se22 2.751507 1_655
Sb8 Se22 2.751507 1_555
Sb8 Se4 3.110265 1_555
Sb8 Se4 3.110265 1_655
Sb9 Se7 2.631607 1_555
Sb9 Se4 2.884597 1_555
Sb9 Se4 2.884597 1_655
Sb9 Se14 2.908172 1_655
Sb9 Se14 2.908172 1_555
Sb10 Se26 2.747352 1_565
Sb10 Se0 2.792162 1_655
Sb10 Se0 2.792162 1_555
Sb10 Se14 3.049673 1_565
Sb10 Se14 3.049673 1_665
Sb10 Se13 3.053142 1_555
Sb11 Se17 2.631607 1_555
Sb11 Se8 2.884597 1_455
Sb11 Se8 2.884597 1_555
Sb11 Se18 2.908172 1_455
Sb11 Se18 2.908172 1_555
Se0 Sm7 3.071453 1_565
Se0 Sm4 3.447275 1_555
Se1 Sm6 2.998990 1_556
Se1 Sm6 2.998990 1_456
Se1 Sm7 3.109914 1_555
Se2 Sm4 3.110336 1_555
Se4 Sm2 3.110336 1_555
Se5 Sm2 2.998990 1_555
Se5 Sm2 2.998990 1_655
Se5 Sm1 3.109914 1_555
Se7 Sm2 2.993421 1_555
Se7 Sm2 2.993421 1_655
Se8 Sm5 3.110336 1_555
Se10 Sm1 3.071453 1_555
Se10 Sm5 3.447275 1_555
Se11 Sm7 3.007882 1_665
Se11 Sm7 3.007882 1_565
Se11 Sm0 3.009910 1_556
Se11 Sm4 3.097993 1_555
Se11 Sm4 3.097993 1_655
Se12 Sm1 2.894118 1_455
Se12 Sm1 2.894118 1_555
Se15 Sm0 3.071453 1_545
Se15 Sm6 3.447275 1_555
Se16 Sm0 2.894118 1_455
Se16 Sm0 2.894118 1_555
Se17 Sm5 2.993421 1_455
Se17 Sm5 2.993421 1_555
Se19 Sm0 3.007882 1_545
Se19 Sm0 3.007882 1_445
Se19 Sm7 3.009910 1_554
Se19 Sm6 3.097993 1_555
Se19 Sm6 3.097993 1_455
Se20 Sm3 2.894118 1_555
Se20 Sm3 2.894118 1_655
Se21 Sm5 2.998990 1_555
Se21 Sm5 2.998990 1_455
Se21 Sm3 3.109914 1_555
Se23 Sm3 3.071453 1_555
Se23 Sm2 3.447275 1_555
Se24 Sm4 2.993421 1_655
Se24 Sm4 2.993421 1_555
Se25 Sm6 3.110336 1_555
Se26 Sm7 2.894118 1_655
Se26 Sm7 2.894118 1_555
Se28 Sm6 2.993421 1_555
Se28 Sm6 2.993421 1_455
Se29 Sm1 3.007882 1_455
Se29 Sm1 3.007882 1_555
Se29 Sm3 3.009910 1_555
Se29 Sm5 3.097993 1_455
Se29 Sm5 3.097993 1_555
Se30 Sm3 3.007882 1_555
Se30 Sm3 3.007882 1_655
Se30 Sm1 3.009910 1_555
Se30 Sm2 3.097993 1_555
Se30 Sm2 3.097993 1_655
Se31 Sm4 2.998990 1_654
Se31 Sm4 2.998990 1_554
Se31 Sm0 3.109914 1_555
