# generated using pymatgen
data_Ce2Ni12P7
_symmetry_space_group_name_H-M   'P 1'
_cell_length_a   9.06819951
_cell_length_b   9.06819951
_cell_length_c   3.72566200
_cell_angle_alpha   90.00000000
_cell_angle_beta   90.00000000
_cell_angle_gamma   119.99999642
_symmetry_Int_Tables_number   1
_chemical_formula_structural   Ce2Ni12P7
_chemical_formula_sum   'Ce2 Ni12 P7'
_cell_volume   265.32381456
_cell_formula_units_Z   1
loop_
 _symmetry_equiv_pos_site_id
 _symmetry_equiv_pos_as_xyz
  1  'x, y, z'
loop_
 _atom_site_type_symbol
 _atom_site_label
 _atom_site_symmetry_multiplicity
 _atom_site_fract_x
 _atom_site_fract_y
 _atom_site_fract_z
 _atom_site_occupancy
  Ce  Ce0  1  0.66666700  0.33333300  0.50000000  1
  Ce  Ce1  1  0.33333300  0.66666700  0.00000000  1
  Ni  Ni0  1  0.38120000  0.42934900  0.50000000  1
  Ni  Ni1  1  0.14827500  0.27352500  0.00000000  1
  Ni  Ni2  1  0.12525100  0.85172500  0.00000000  1
  Ni  Ni3  1  0.72647500  0.87474900  0.00000000  1
  Ni  Ni4  1  0.88160500  0.78559800  0.50000000  1
  Ni  Ni5  1  0.90399300  0.11839500  0.50000000  1
  Ni  Ni6  1  0.04815000  0.61880000  0.50000000  1
  Ni  Ni7  1  0.94060600  0.37646600  0.00000000  1
  Ni  Ni8  1  0.21440200  0.09600700  0.50000000  1
  Ni  Ni9  1  0.57065100  0.95185000  0.50000000  1
  Ni  Ni10  1  0.62353400  0.56414100  0.00000000  1
  Ni  Ni11  1  0.43585900  0.05939400  0.00000000  1
  P  P0  1  0.59955700  0.70472400  0.50000000  1
  P  P1  1  0.10516600  0.40044300  0.50000000  1
  P  P2  1  0.89083600  0.59866000  0.00000000  1
  P  P3  1  0.29527600  0.89483400  0.50000000  1
  P  P4  1  0.00000000  0.00000000  0.00000000  1
  P  P5  1  0.70782400  0.10916400  0.00000000  1
  P  P6  1  0.40134000  0.29217600  0.00000000  1
loop_
_geom_bond_atom_site_label_1
_geom_bond_atom_site_label_2
_geom_bond_distance
_geom_bond_site_symmetry_2
Ce0 P5 2.915550 1_555
Ce0 P5 2.915550 1_556
Ce0 P2 2.915554 1_556
Ce0 P2 2.915554 1_555
Ce0 P6 2.915557 1_555
Ce0 P6 2.915557 1_556
Ce0 Ni7 2.970254 1_556
Ce0 Ni7 2.970254 1_555
Ce0 Ni11 2.970259 1_556
Ce0 Ni11 2.970259 1_555
Ce0 Ni10 2.970268 1_556
Ce0 Ni10 2.970268 1_555
Ce0 Ni0 3.116611 1_555
Ce0 Ni9 3.116611 1_545
Ce0 Ni6 3.116611 1_655
Ce1 P3 2.929900 1_554
Ce1 P3 2.929900 1_555
Ce1 P0 2.929900 1_555
Ce1 P0 2.929900 1_554
Ce1 P1 2.929900 1_554
Ce1 P1 2.929900 1_555
Ce1 Ni6 3.037089 1_555
Ce1 Ni6 3.037089 1_554
Ce1 Ni9 3.037094 1_554
Ce1 Ni9 3.037094 1_555
Ce1 Ni0 3.037103 1_554
Ce1 Ni0 3.037103 1_555
Ce1 Ni2 3.089207 1_555
Ce1 Ni3 3.089223 1_555
Ce1 Ni1 3.089223 1_555
Ce1 Ni10 3.199434 1_555
Ce1 Ni11 3.199434 1_565
Ce1 Ni7 3.199435 1_455
Ni0 P0 2.282974 1_555
Ni0 P6 2.297388 1_555
Ni0 P6 2.297388 1_556
Ni0 P1 2.382906 1_555
Ni1 P4 2.150607 1_555
Ni1 P6 2.215126 1_555
Ni1 P1 2.323249 1_555
Ni1 P1 2.323249 1_554
Ni2 P4 2.150614 1_565
Ni2 P2 2.215130 1_455
Ni2 P3 2.323239 1_554
Ni2 P3 2.323239 1_555
Ni3 P4 2.150606 1_665
Ni3 P5 2.215135 1_565
Ni3 P0 2.323242 1_554
Ni3 P0 2.323242 1_555
Ni4 P0 2.281176 1_555
Ni4 P4 2.513065 1_665
Ni4 P4 2.513065 1_666
Ni4 P2 2.548082 1_556
Ni4 P2 2.548082 1_555
Ni5 P1 2.281174 1_655
Ni5 P4 2.513065 1_655
Ni5 P4 2.513065 1_656
Ni5 P5 2.548082 1_556
Ni5 P5 2.548082 1_555
Ni6 P1 2.282962 1_555
Ni6 P2 2.297393 1_455
Ni6 P2 2.297393 1_456
Ni6 P3 2.382899 1_555
Ni7 P2 2.274398 1_555
Ni7 P5 2.283580 1_555
Ni7 P1 2.328047 1_655
Ni7 P1 2.328047 1_654
Ni8 P3 2.281168 1_545
Ni8 P4 2.513065 1_556
Ni8 P4 2.513065 1_555
Ni8 P6 2.548082 1_555
Ni8 P6 2.548082 1_556
Ni9 P3 2.282980 1_555
Ni9 P5 2.297391 1_566
Ni9 P5 2.297391 1_565
Ni9 P0 2.382888 1_555
Ni10 P6 2.274404 1_555
Ni10 P2 2.283583 1_555
Ni10 P0 2.328047 1_554
Ni10 P0 2.328047 1_555
Ni11 P5 2.274407 1_555
Ni11 P6 2.283574 1_555
Ni11 P3 2.328047 1_544
Ni11 P3 2.328047 1_545
