# generated using pymatgen
data_NbTe4Ir
_symmetry_space_group_name_H-M   'P 1'
_cell_length_a   3.80783891
_cell_length_b   12.67967275
_cell_length_c   13.91601961
_cell_angle_alpha   90.00000000
_cell_angle_beta   90.00000000
_cell_angle_gamma   90.00000000
_symmetry_Int_Tables_number   1
_chemical_formula_structural   NbTe4Ir
_chemical_formula_sum   'Nb4 Te16 Ir4'
_cell_volume   671.89536380
_cell_formula_units_Z   4
loop_
 _symmetry_equiv_pos_site_id
 _symmetry_equiv_pos_as_xyz
  1  'x, y, z'
loop_
 _atom_site_type_symbol
 _atom_site_label
 _atom_site_symmetry_multiplicity
 _atom_site_fract_x
 _atom_site_fract_y
 _atom_site_fract_z
 _atom_site_occupancy
  Nb  Nb0  1  0.00000000  0.05436548  0.00508242  1
  Nb  Nb1  1  0.50000000  0.94563452  0.50508242  1
  Nb  Nb2  1  -0.00000000  0.26854452  0.49071467  1
  Nb  Nb3  1  0.50000000  0.73145548  0.99071467  1
  Te  Te0  1  -0.00000000  0.06524854  0.39389388  1
  Te  Te1  1  0.50000000  0.93475146  0.89389388  1
  Te  Te2  1  -0.00000000  0.19483585  0.86325311  1
  Te  Te3  1  0.50000000  0.80516415  0.36325311  1
  Te  Te4  1  0.00000000  0.34775424  0.09174152  1
  Te  Te5  1  0.50000000  0.65224576  0.59174152  1
  Te  Te6  1  -0.00000000  0.41206065  0.62989996  1
  Te  Te7  1  0.50000000  0.58793935  0.12989996  1
  Te  Te8  1  -0.00000000  0.56402391  0.40094511  1
  Te  Te9  1  0.50000000  0.43597609  0.90094511  1
  Te  Te10  1  0.00000000  0.67519767  0.85454482  1
  Te  Te11  1  0.50000000  0.32480233  0.35454482  1
  Te  Te12  1  0.00000000  0.85028695  0.10356446  1
  Te  Te13  1  0.50000000  0.14971305  0.60356446  1
  Te  Te14  1  0.00000000  0.89036562  0.64121724  1
  Te  Te15  1  0.50000000  0.10963438  0.14121724  1
  Ir  Ir0  1  0.00000000  0.53474732  -0.00052098  1
  Ir  Ir1  1  0.50000000  0.46525268  0.49947902  1
  Ir  Ir2  1  0.00000000  0.75142330  0.49386278  1
  Ir  Ir3  1  0.50000000  0.24857670  0.99386278  1
loop_
_geom_bond_atom_site_label_1
_geom_bond_atom_site_label_2
_geom_bond_distance
_geom_bond_site_symmetry_2
Nb0 Te2 2.658547 1_554
Nb0 Te15 2.775784 1_455
Nb0 Te15 2.775784 1_555
Nb0 Te1 2.884325 1_544
Nb0 Te1 2.884325 1_444
Nb0 Te12 2.928163 1_545
Nb1 Te3 2.658547 1_555
Nb1 Te14 2.775784 1_555
Nb1 Te14 2.775784 1_655
Nb1 Te0 2.884325 1_665
Nb1 Te0 2.884325 1_565
Nb1 Te13 2.928163 1_565
Nb2 Te6 2.657639 1_555
Nb2 Te11 2.779309 1_555
Nb2 Te11 2.779309 1_455
Nb2 Te13 2.891610 1_555
Nb2 Te13 2.891610 1_455
Nb2 Te0 2.908617 1_555
Nb3 Te7 2.657639 1_556
Nb3 Te10 2.779309 1_555
Nb3 Te10 2.779309 1_655
Nb3 Te12 2.891610 1_556
Nb3 Te12 2.891610 1_656
Nb3 Te1 2.908617 1_555
Ir0 Te9 2.659619 1_554
Ir0 Te9 2.659619 1_454
Ir0 Te10 2.690612 1_554
Ir0 Te4 2.696324 1_555
Ir0 Te7 2.715476 1_455
Ir0 Te7 2.715476 1_555
Ir0 Nb3 3.140190 1_454
Ir0 Nb3 3.140190 1_554
Ir1 Te8 2.659619 1_555
Ir1 Te8 2.659619 1_655
Ir1 Te11 2.690612 1_555
Ir1 Te5 2.696324 1_555
Ir1 Te6 2.715476 1_555
Ir1 Te6 2.715476 1_655
Ir1 Nb2 3.140190 1_555
Ir1 Nb2 3.140190 1_655
Ir2 Te5 2.657364 1_455
Ir2 Te5 2.657364 1_555
Ir2 Te14 2.703451 1_555
Ir2 Te8 2.705201 1_555
Ir2 Te3 2.718968 1_455
Ir2 Te3 2.718968 1_555
Ir2 Nb1 3.116627 1_455
Ir2 Nb1 3.116627 1_555
Ir3 Te4 2.657364 1_556
Ir3 Te4 2.657364 1_656
Ir3 Te15 2.703451 1_556
Ir3 Te9 2.705201 1_555
Ir3 Te2 2.718968 1_555
Ir3 Te2 2.718968 1_655
Ir3 Nb0 3.116627 1_556
Ir3 Nb0 3.116627 1_656
