# generated using pymatgen
data_SiO2
_symmetry_space_group_name_H-M   'P 1'
_cell_length_a   11.59348600
_cell_length_b   11.59348600
_cell_length_c   5.19220000
_cell_angle_alpha   90.00000000
_cell_angle_beta   90.00000000
_cell_angle_gamma   90.00000000
_symmetry_Int_Tables_number   1
_chemical_formula_structural   SiO2
_chemical_formula_sum   'Si16 O32'
_cell_volume   697.87798213
_cell_formula_units_Z   16
loop_
 _symmetry_equiv_pos_site_id
 _symmetry_equiv_pos_as_xyz
  1  'x, y, z'
loop_
 _atom_site_type_symbol
 _atom_site_label
 _atom_site_symmetry_multiplicity
 _atom_site_fract_x
 _atom_site_fract_y
 _atom_site_fract_z
 _atom_site_occupancy
  Si  Si0  1  0.15565200  0.07594600  0.98929500  1
  Si  Si1  1  0.59746200  0.19990600  0.72310100  1
  Si  Si2  1  0.65565200  0.42405400  0.51070500  1
  Si  Si3  1  0.57594600  0.65565200  0.48929500  1
  Si  Si4  1  0.69990600  0.09746200  0.22310100  1
  Si  Si5  1  0.92405400  0.15565200  0.01070500  1
  Si  Si6  1  0.34434800  0.57594600  0.51070500  1
  Si  Si7  1  0.40253800  0.80009400  0.72310100  1
  Si  Si8  1  0.90253800  0.69990600  0.77689900  1
  Si  Si9  1  0.80009400  0.59746200  0.27689900  1
  Si  Si10  1  0.30009400  0.90253800  0.22310100  1
  Si  Si11  1  0.09746200  0.30009400  0.77689900  1
  Si  Si12  1  0.19990600  0.40253800  0.27689900  1
  Si  Si13  1  0.42405400  0.34434800  0.48929500  1
  Si  Si14  1  0.84434800  0.92405400  0.98929500  1
  Si  Si15  1  0.07594600  0.84434800  0.01070500  1
  O  O0  1  0.82009900  0.81680700  0.79248800  1
  O  O1  1  0.18319300  0.82009900  0.20751200  1
  O  O2  1  0.86030400  0.60852600  0.99877100  1
  O  O3  1  0.60852600  0.13969600  0.00122900  1
  O  O4  1  0.61896900  0.54404700  0.66600200  1
  O  O5  1  0.23542000  0.53850100  0.32962200  1
  O  O6  1  0.26458000  0.03850100  0.17037800  1
  O  O7  1  0.11896900  0.95595300  0.83399800  1
  O  O8  1  0.45595300  0.61896900  0.33399800  1
  O  O9  1  0.53850100  0.76458000  0.67037800  1
  O  O10  1  0.38103100  0.45595300  0.66600200  1
  O  O11  1  0.95595300  0.88103100  0.16600200  1
  O  O12  1  0.76458000  0.46149900  0.32962200  1
  O  O13  1  0.17990100  0.18319300  0.79248800  1
  O  O14  1  0.81680700  0.17990100  0.20751200  1
  O  O15  1  0.46149900  0.23542000  0.67037800  1
  O  O16  1  0.10852600  0.36030400  0.49877100  1
  O  O17  1  0.89147400  0.63969600  0.49877100  1
  O  O18  1  0.31680700  0.32009900  0.29248800  1
  O  O19  1  0.03850100  0.73542000  0.82962200  1
  O  O20  1  0.68319300  0.67990100  0.29248800  1
  O  O21  1  0.04404700  0.11896900  0.16600200  1
  O  O22  1  0.63969600  0.10852600  0.50122900  1
  O  O23  1  0.36030400  0.89147400  0.50122900  1
  O  O24  1  0.96149900  0.26458000  0.82962200  1
  O  O25  1  0.73542000  0.96149900  0.17037800  1
  O  O26  1  0.88103100  0.04404700  0.83399800  1
  O  O27  1  0.32009900  0.68319300  0.70751200  1
  O  O28  1  0.67990100  0.31680700  0.70751200  1
  O  O29  1  0.54404700  0.38103100  0.33399800  1
  O  O30  1  0.39147400  0.86030400  0.00122900  1
  O  O31  1  0.13969600  0.39147400  0.99877100  1
loop_
_geom_bond_atom_site_label_1
_geom_bond_atom_site_label_2
_geom_bond_distance
_geom_bond_site_symmetry_2
O0 Si14 1.633767 1_555
O0 Si8 1.660371 1_555
O1 Si15 1.633767 1_555
O1 Si10 1.660371 1_555
O2 Si9 1.609078 1_556
O2 Si8 1.639883 1_555
O3 Si1 1.609078 1_554
O3 Si4 1.639883 1_555
O4 Si3 1.662752 1_555
O4 Si2 1.663220 1_555
O5 Si6 1.633179 1_555
O5 Si12 1.652010 1_555
O6 Si0 1.633179 1_554
O6 Si10 1.652010 1_545
O7 Si15 1.662752 1_556
O7 Si0 1.663220 1_565
O8 Si6 1.662752 1_555
O8 Si3 1.663220 1_555
O9 Si3 1.633179 1_555
O9 Si7 1.652010 1_555
O10 Si13 1.662752 1_555
O10 Si6 1.663220 1_555
O11 Si14 1.662752 1_554
O11 Si15 1.663220 1_655
O12 Si2 1.633179 1_555
O12 Si9 1.652010 1_555
O13 Si0 1.633767 1_555
O13 Si11 1.660371 1_555
O14 Si5 1.633767 1_555
O14 Si4 1.660371 1_555
O15 Si13 1.633179 1_555
O15 Si1 1.652010 1_555
O16 Si11 1.609078 1_555
O16 Si12 1.639883 1_555
O17 Si8 1.609078 1_555
O17 Si9 1.639883 1_555
O18 Si13 1.633767 1_555
O18 Si12 1.660371 1_555
O19 Si15 1.633179 1_556
O19 Si8 1.652010 1_455
O20 Si3 1.633767 1_555
O20 Si9 1.660371 1_555
O21 Si0 1.662752 1_554
O21 Si5 1.663220 1_455
O22 Si4 1.609078 1_555
O22 Si1 1.639883 1_555
O23 Si10 1.609078 1_555
O23 Si7 1.639883 1_555
O24 Si5 1.633179 1_556
O24 Si11 1.652010 1_655
O25 Si14 1.633179 1_554
O25 Si4 1.652010 1_565
O26 Si5 1.662752 1_556
O26 Si14 1.663220 1_545
O27 Si6 1.633767 1_555
O27 Si7 1.660371 1_555
O28 Si2 1.633767 1_555
O28 Si1 1.660371 1_555
O29 Si2 1.662752 1_555
O29 Si13 1.663220 1_555
O30 Si7 1.609078 1_554
O30 Si10 1.639883 1_555
O31 Si12 1.609078 1_556
O31 Si11 1.639883 1_555
