# generated using pymatgen
data_DyGa3Ni2
_symmetry_space_group_name_H-M   'P 1'
_cell_length_a   8.90727622
_cell_length_b   8.90727677
_cell_length_c   4.02433261
_cell_angle_alpha   90.00000000
_cell_angle_beta   90.00000000
_cell_angle_gamma   119.99999796
_symmetry_Int_Tables_number   1
_chemical_formula_structural   DyGa3Ni2
_chemical_formula_sum   'Dy3 Ga9 Ni6'
_cell_volume   276.51224981
_cell_formula_units_Z   3
loop_
 _symmetry_equiv_pos_site_id
 _symmetry_equiv_pos_as_xyz
  1  'x, y, z'
loop_
 _atom_site_type_symbol
 _atom_site_label
 _atom_site_symmetry_multiplicity
 _atom_site_fract_x
 _atom_site_fract_y
 _atom_site_fract_z
 _atom_site_occupancy
  Dy  Dy0  1  0.33333300  0.66666700  0.00000000  1
  Dy  Dy1  1  0.66666700  0.33333300  0.00000000  1
  Dy  Dy2  1  0.00000000  -0.00000000  0.50000000  1
  Ga  Ga0  1  0.29312408  -0.00000000  -0.00000000  1
  Ga  Ga1  1  0.29312408  0.29312408  -0.00000000  1
  Ga  Ga2  1  0.00000000  0.70687592  -0.00000000  1
  Ga  Ga3  1  -0.00000000  0.29312408  0.00000000  1
  Ga  Ga4  1  0.70687592  0.70687592  0.00000000  1
  Ga  Ga5  1  0.70687592  -0.00000000  0.00000000  1
  Ga  Ga6  1  0.50000000  -0.00000000  0.50000000  1
  Ga  Ga7  1  0.50000000  0.50000000  0.50000000  1
  Ga  Ga8  1  0.00000000  0.50000000  0.50000000  1
  Ni  Ni0  1  0.18267011  0.36534122  0.50000000  1
  Ni  Ni1  1  0.81732989  0.18267011  0.50000000  1
  Ni  Ni2  1  0.36534122  0.18267011  0.50000000  1
  Ni  Ni3  1  0.63465878  0.81732989  0.50000000  1
  Ni  Ni4  1  0.18267011  0.81732989  0.50000000  1
  Ni  Ni5  1  0.81732989  0.63465878  0.50000000  1
loop_
_geom_bond_atom_site_label_1
_geom_bond_atom_site_label_2
_geom_bond_distance
_geom_bond_site_symmetry_2
Dy0 Ni4 3.074357 1_554
Dy0 Ni4 3.074357 1_555
Dy0 Ni3 3.074357 1_554
Dy0 Ni3 3.074357 1_555
Dy0 Ni0 3.074357 1_554
Dy0 Ni0 3.074357 1_555
Dy0 Ga2 3.163408 1_555
Dy0 Ga0 3.163408 1_565
Dy0 Ga5 3.163413 1_565
Dy0 Ga3 3.163413 1_555
Dy0 Ga4 3.163417 1_555
Dy0 Ga1 3.163417 1_555
Dy0 Ga8 3.265032 1_554
Dy0 Ga8 3.265032 1_555
Dy0 Ga6 3.265032 1_565
Dy0 Ga6 3.265032 1_564
Dy0 Ga7 3.265038 1_554
Dy0 Ga7 3.265038 1_555
Dy1 Ni1 3.074357 1_554
Dy1 Ni1 3.074357 1_555
Dy1 Ni2 3.074357 1_554
Dy1 Ni2 3.074357 1_555
Dy1 Ni5 3.074357 1_555
Dy1 Ni5 3.074357 1_554
Dy1 Ga3 3.163408 1_655
Dy1 Ga5 3.163408 1_555
Dy1 Ga0 3.163413 1_555
Dy1 Ga2 3.163413 1_655
Dy1 Ga1 3.163417 1_555
Dy1 Ga4 3.163417 1_555
Dy1 Ga8 3.265032 1_655
Dy1 Ga8 3.265032 1_654
Dy1 Ga6 3.265032 1_555
Dy1 Ga6 3.265032 1_554
Dy1 Ga7 3.265038 1_554
Dy1 Ga7 3.265038 1_555
Dy2 Ni4 2.818208 1_545
Dy2 Ni1 2.818208 1_455
Dy2 Ni2 2.818216 1_555
Dy2 Ni3 2.818216 1_445
Dy2 Ni0 2.818216 1_555
Dy2 Ni5 2.818216 1_445
Ga0 Ni2 2.462394 1_555
Ga0 Ni2 2.462394 1_554
Ga0 Ni4 2.462395 1_544
Ga0 Ni4 2.462395 1_545
Ga0 Ga2 2.610937 1_545
Ga0 Ga1 2.610937 1_555
Ga0 Ga6 2.728435 1_554
Ga0 Ga6 2.728435 1_555
Ga1 Ni0 2.462399 1_554
Ga1 Ni0 2.462399 1_555
Ga1 Ni2 2.462399 1_555
Ga1 Ni2 2.462399 1_554
Ga1 Ga3 2.610937 1_555
Ga1 Ga7 2.728436 1_555
Ga1 Ga7 2.728436 1_554
Ga2 Ni5 2.462394 1_454
Ga2 Ni5 2.462394 1_455
Ga2 Ni4 2.462395 1_554
Ga2 Ni4 2.462395 1_555
Ga2 Ga4 2.610937 1_455
Ga2 Ga8 2.728436 1_554
Ga2 Ga8 2.728436 1_555
Ga3 Ni0 2.462394 1_554
Ga3 Ni0 2.462394 1_555
Ga3 Ni1 2.462395 1_455
Ga3 Ni1 2.462395 1_454
Ga3 Ga5 2.610937 1_455
Ga3 Ga8 2.728436 1_554
Ga3 Ga8 2.728436 1_555
Ga4 Ni5 2.462399 1_554
Ga4 Ni5 2.462399 1_555
Ga4 Ni3 2.462399 1_554
Ga4 Ni3 2.462399 1_555
Ga4 Ga5 2.610937 1_565
Ga4 Ga7 2.728436 1_555
Ga4 Ga7 2.728436 1_554
Ga5 Ni3 2.462394 1_544
Ga5 Ni3 2.462394 1_545
Ga5 Ni1 2.462395 1_554
Ga5 Ni1 2.462395 1_555
Ga5 Ga6 2.728435 1_554
Ga5 Ga6 2.728435 1_555
Ga6 Ni3 2.457173 1_545
Ga6 Ni2 2.457173 1_555
Ga6 Ni4 2.457181 1_545
Ga6 Ni1 2.457181 1_555
Ga7 Ni5 2.457181 1_555
Ga7 Ni0 2.457181 1_555
Ga7 Ni3 2.457182 1_555
Ga7 Ni2 2.457182 1_555
Ga8 Ni0 2.457173 1_555
Ga8 Ni5 2.457173 1_455
Ga8 Ni1 2.457181 1_455
Ga8 Ni4 2.457181 1_555
Ni0 Ni1 2.818208 1_455
Ni0 Ni2 2.818223 1_555
Ni1 Ni3 2.818208 1_545
Ni2 Ni4 2.818208 1_545
Ni3 Ni5 2.818223 1_555
Ni4 Ni5 2.818208 1_455
