# generated using pymatgen
data_Na2UBr6
_symmetry_space_group_name_H-M   'P 1'
_cell_length_a   12.49095762
_cell_length_b   12.51422808
_cell_length_c   6.55120546
_cell_angle_alpha   90.00734249
_cell_angle_beta   89.97813747
_cell_angle_gamma   120.00618234
_symmetry_Int_Tables_number   1
_chemical_formula_structural   Na2UBr6
_chemical_formula_sum   'Na6 U3 Br18'
_cell_volume   886.79770604
_cell_formula_units_Z   3
loop_
 _symmetry_equiv_pos_site_id
 _symmetry_equiv_pos_as_xyz
  1  'x, y, z'
loop_
 _atom_site_type_symbol
 _atom_site_label
 _atom_site_symmetry_multiplicity
 _atom_site_fract_x
 _atom_site_fract_y
 _atom_site_fract_z
 _atom_site_occupancy
  Na  Na0  1  -0.00029595  0.33681461  0.00229181  1
  Na  Na1  1  0.66286716  0.66188766  0.99526875  1
  Na  Na2  1  0.33678207  0.99919823  0.99927582  1
  Na  Na3  1  0.99973063  0.66244380  0.99934475  1
  Na  Na4  1  0.33749845  0.33885272  0.00122633  1
  Na  Na5  1  0.66369631  0.00130486  0.00186714  1
  U  U0  1  0.33335022  0.66717170  0.49812844  1
  U  U1  1  0.66651836  0.33282007  0.50175565  1
  U  U2  1  0.00011426  -0.00005060  0.00012357  1
  Br  Br0  1  0.44219338  0.56394887  0.25526885  1
  Br  Br1  1  0.77379783  0.22534995  0.26104865  1
  Br  Br2  1  0.22493916  0.77203376  0.73715710  1
  Br  Br3  1  0.77308753  0.54498556  0.26481334  1
  Br  Br4  1  0.21257301  0.10609493  0.76062325  1
  Br  Br5  1  0.45350570  0.22580120  0.26501659  1
  Br  Br6  1  0.54585878  0.77571275  0.73834913  1
  Br  Br7  1  0.89251670  0.78425946  0.76147196  1
  Br  Br8  1  0.55833494  0.43803578  0.74790153  1
  Br  Br9  1  0.56018065  0.12116426  0.74327528  1
  Br  Br10  1  0.87846506  0.43851121  0.74302171  1
  Br  Br11  1  0.12194741  0.56126310  0.25313375  1
  Br  Br12  1  0.43859133  0.87903831  0.25469397  1
  Br  Br13  1  0.22656022  0.45493569  0.73730635  1
  Br  Br14  1  0.10870960  0.21541748  0.23842371  1
  Br  Br15  1  0.10632547  0.89393242  0.24012514  1
  Br  Br16  1  0.78772120  0.89303316  0.23938425  1
  Br  Br17  1  0.89443054  0.10603703  0.75970218  1
loop_
_geom_bond_atom_site_label_1
_geom_bond_atom_site_label_2
_geom_bond_distance
_geom_bond_site_symmetry_2
Br0 U0 2.793338 1_555
Br0 Na1 2.935864 1_554
Br0 Na4 2.954822 1_555
Br1 U1 2.809181 1_555
Br1 Na5 2.962997 1_555
Br1 Na0 2.973538 1_655
Br2 U0 2.789824 1_555
Br2 Na3 2.980395 1_455
Br2 Na2 3.001711 1_555
Br3 U1 2.774068 1_555
Br3 Na3 3.005755 1_554
Br3 Na1 3.028343 1_554
Br4 U2 2.782185 1_556
Br4 Na2 2.952847 1_545
Br4 Na4 2.976314 1_556
Br5 U1 2.777953 1_555
Br5 Na2 3.010561 1_544
Br5 Na4 3.023357 1_555
Br6 U0 2.786413 1_555
Br6 Na5 2.993550 1_566
Br6 Na1 3.013772 1_555
Br7 U2 2.812206 1_666
Br7 Na1 2.919455 1_555
Br7 Na3 2.930857 1_555
Br8 U1 2.817348 1_555
Br8 Na4 2.911440 1_556
Br8 Na1 2.919003 1_555
Br9 U1 2.786408 1_555
Br9 Na2 2.943838 1_545
Br9 Na5 2.955298 1_556
Br10 U1 2.785114 1_555
Br10 Na3 2.953384 1_555
Br10 Na0 2.954355 1_656
Br11 U0 2.794242 1_555
Br11 Na0 2.938104 1_555
Br11 Na3 2.938353 1_454
Br12 U0 2.795450 1_555
Br12 Na2 2.931408 1_554
Br12 Na5 2.946978 1_565
Br13 U0 2.782924 1_555
Br13 Na0 3.005940 1_556
Br13 Na4 3.005966 1_556
Br14 U2 2.808935 1_555
Br14 Na4 2.923993 1_555
Br14 Na0 2.937006 1_555
Br15 U2 2.784777 1_565
Br15 Na2 2.952239 1_554
Br15 Na3 2.965741 1_454
Br16 U2 2.780737 1_665
Br16 Na5 2.959540 1_565
Br16 Na1 2.974170 1_554
Br17 U2 2.782259 1_656
Br17 Na5 2.959743 1_556
Br17 Na0 2.966060 1_656
