# generated using pymatgen
data_VOF3
_symmetry_space_group_name_H-M   'P 1'
_cell_length_a   5.06642859
_cell_length_b   5.57441146
_cell_length_c   9.31507320
_cell_angle_alpha   91.01902994
_cell_angle_beta   90.00000000
_cell_angle_gamma   90.00000000
_symmetry_Int_Tables_number   1
_chemical_formula_structural   VOF3
_chemical_formula_sum   'V4 O4 F12'
_cell_volume   263.03802071
_cell_formula_units_Z   4
loop_
 _symmetry_equiv_pos_site_id
 _symmetry_equiv_pos_as_xyz
  1  'x, y, z'
loop_
 _atom_site_type_symbol
 _atom_site_label
 _atom_site_symmetry_multiplicity
 _atom_site_fract_x
 _atom_site_fract_y
 _atom_site_fract_z
 _atom_site_occupancy
  V  V0  1  0.58715358  0.67149237  0.87613246  1
  V  V1  1  0.91284642  0.67149237  0.37613246  1
  V  V2  1  0.08715358  0.32850763  0.62386754  1
  V  V3  1  0.41284642  0.32850763  0.12386754  1
  O  O0  1  0.16561795  0.19941832  0.05612205  1
  O  O1  1  0.66561795  0.80058168  0.44387795  1
  O  O2  1  0.33438205  0.19941832  0.55612205  1
  O  O3  1  0.83438205  0.80058168  0.94387795  1
  F  F0  1  0.39800589  0.90518069  0.81183288  1
  F  F1  1  0.60199411  0.09481931  0.18816712  1
  F  F2  1  0.21745998  0.45439864  0.78697042  1
  F  F3  1  0.28254002  0.45439864  0.28697042  1
  F  F4  1  0.36400901  0.65163823  0.04348587  1
  F  F5  1  0.78254002  0.54560136  0.21302958  1
  F  F6  1  0.86400901  0.34836177  0.45651413  1
  F  F7  1  0.13599099  0.65163823  0.54348587  1
  F  F8  1  0.89800589  0.09481931  0.68816712  1
  F  F9  1  0.71745998  0.54560136  0.71302958  1
  F  F10  1  0.63599099  0.34836177  0.95651413  1
  F  F11  1  0.10199411  0.90518069  0.31183288  1
loop_
_geom_bond_atom_site_label_1
_geom_bond_atom_site_label_2
_geom_bond_distance
_geom_bond_site_symmetry_2
O0 V3 1.571247 1_555
O1 V1 1.571247 1_555
O2 V2 1.571247 1_555
O3 V0 1.571247 1_555
F0 V0 1.732572 1_555
F1 V3 1.732572 1_555
F2 V2 1.788497 1_555
F2 V0 2.372088 1_555
F3 V3 1.788497 1_555
F3 V1 2.372088 1_455
F4 V0 1.930471 1_554
F4 V3 1.978481 1_555
F5 V1 1.788497 1_555
F5 V3 2.372088 1_555
F6 V2 1.930471 1_655
F6 V1 1.978481 1_555
F7 V1 1.930471 1_455
F7 V2 1.978481 1_555
F8 V2 1.732572 1_655
F9 V0 1.788497 1_555
F9 V2 2.372088 1_655
F10 V3 1.930471 1_556
F10 V0 1.978481 1_555
F11 V1 1.732572 1_455
