# generated using pymatgen
data_Ag9Ge2IO8
_symmetry_space_group_name_H-M   'P 1'
_cell_length_a   9.64383560
_cell_length_b   9.64383560
_cell_length_c   5.77899579
_cell_angle_alpha   75.33111671
_cell_angle_beta   75.33111671
_cell_angle_gamma   42.63060819
_symmetry_Int_Tables_number   1
_chemical_formula_structural   Ag9Ge2IO8
_chemical_formula_sum   'Ag9 Ge2 I1 O8'
_cell_volume   350.30354030
_cell_formula_units_Z   1
loop_
 _symmetry_equiv_pos_site_id
 _symmetry_equiv_pos_as_xyz
  1  'x, y, z'
loop_
 _atom_site_type_symbol
 _atom_site_label
 _atom_site_symmetry_multiplicity
 _atom_site_fract_x
 _atom_site_fract_y
 _atom_site_fract_z
 _atom_site_occupancy
  Ag  Ag0  1  0.82131400  0.82131400  0.71616300  1
  Ag  Ag1  1  0.71900100  0.28099900  0.50000000  1
  Ag  Ag2  1  0.17868600  0.17868600  0.28383700  1
  Ag  Ag3  1  0.40135500  0.95350700  0.70885400  1
  Ag  Ag4  1  0.95350700  0.40135500  0.70885400  1
  Ag  Ag5  1  0.50000000  0.50000000  0.00000000  1
  Ag  Ag6  1  0.04649300  0.59864500  0.29114600  1
  Ag  Ag7  1  0.59864500  0.04649300  0.29114600  1
  Ag  Ag8  1  0.28099900  0.71900100  0.50000000  1
  Ge  Ge0  1  0.34094500  0.34094500  0.78490000  1
  Ge  Ge1  1  0.65905500  0.65905500  0.21510000  1
  I  I0  1  0.00000000  0.00000000  0.00000000  1
  O  O0  1  0.76216200  0.76216200  0.12573800  1
  O  O1  1  0.23783800  0.23783800  0.87426200  1
  O  O2  1  0.58006300  0.17040000  0.60201700  1
  O  O3  1  0.82960000  0.41993700  0.39798300  1
  O  O4  1  0.62603800  0.62603800  0.95147900  1
  O  O5  1  0.17040000  0.58006300  0.60201700  1
  O  O6  1  0.37396200  0.37396200  0.04852100  1
  O  O7  1  0.41993700  0.82960000  0.39798300  1
loop_
_geom_bond_atom_site_label_1
_geom_bond_atom_site_label_2
_geom_bond_distance
_geom_bond_site_symmetry_2
Ag0 O5 2.304104 1_655
Ag0 O2 2.304104 1_565
Ag0 O0 2.316108 1_556
Ag1 O3 2.159837 1_555
Ag1 O2 2.159837 1_555
Ag1 I0 3.497214 1_656
Ag1 I0 3.497214 1_655
Ag2 O3 2.304104 1_455
Ag2 O7 2.304104 1_545
Ag2 O1 2.316108 1_554
Ag3 O1 2.262883 1_565
Ag3 O7 2.301431 1_555
Ag3 O4 2.421012 1_555
Ag3 I0 3.541693 1_566
Ag4 O1 2.262883 1_655
Ag4 O3 2.301431 1_555
Ag4 O4 2.421012 1_555
Ag4 I0 3.541693 1_656
Ag5 O4 2.205039 1_554
Ag5 O6 2.205039 1_555
Ag5 I0 3.505535 1_655
Ag5 I0 3.505535 1_565
Ag6 O0 2.262883 1_455
Ag6 O5 2.301431 1_555
Ag6 O6 2.421012 1_555
Ag6 I0 3.541693 1_565
Ag7 O0 2.262883 1_545
Ag7 O2 2.301431 1_555
Ag7 O6 2.421012 1_555
Ag7 I0 3.541693 1_655
Ag8 O7 2.159837 1_555
Ag8 O5 2.159837 1_555
Ag8 I0 3.497214 1_565
Ag8 I0 3.497214 1_566
Ge0 O6 1.778837 1_556
Ge0 O1 1.782942 1_555
Ge0 O5 1.790225 1_555
Ge0 O2 1.790225 1_555
Ge1 O4 1.778837 1_554
Ge1 O0 1.782942 1_555
Ge1 O7 1.790225 1_555
Ge1 O3 1.790225 1_555
