# generated using pymatgen
data_RbNa2AuO2
_symmetry_space_group_name_H-M   'P 1'
_cell_length_a   4.12824300
_cell_length_b   5.66298800
_cell_length_c   10.08263500
_cell_angle_alpha   90.00000000
_cell_angle_beta   90.00000000
_cell_angle_gamma   90.00000000
_symmetry_Int_Tables_number   1
_chemical_formula_structural   RbNa2AuO2
_chemical_formula_sum   'Rb2 Na4 Au2 O4'
_cell_volume   235.71376248
_cell_formula_units_Z   2
loop_
 _symmetry_equiv_pos_site_id
 _symmetry_equiv_pos_as_xyz
  1  'x, y, z'
loop_
 _atom_site_type_symbol
 _atom_site_label
 _atom_site_symmetry_multiplicity
 _atom_site_fract_x
 _atom_site_fract_y
 _atom_site_fract_z
 _atom_site_occupancy
  Rb  Rb0  1  0.50000000  0.50000000  0.00000000  1
  Rb  Rb1  1  0.00000000  0.00000000  0.50000000  1
  Na  Na0  1  0.50000000  0.07761200  0.22985700  1
  Na  Na1  1  0.00000000  0.57761200  0.27014300  1
  Na  Na2  1  0.50000000  0.92238800  0.77014300  1
  Na  Na3  1  0.00000000  0.42238800  0.72985700  1
  Au  Au0  1  0.00000000  0.00000000  0.00000000  1
  Au  Au1  1  0.50000000  0.50000000  0.50000000  1
  O  O0  1  0.50000000  0.72726200  0.34265300  1
  O  O1  1  0.50000000  0.27273800  0.65734700  1
  O  O2  1  0.00000000  0.77273800  0.84265300  1
  O  O3  1  0.00000000  0.22726200  0.15734700  1
loop_
_geom_bond_atom_site_label_1
_geom_bond_atom_site_label_2
_geom_bond_distance
_geom_bond_site_symmetry_2
Na0 O0 2.286870 1_545
Na0 O3 2.348040 1_655
Na0 O3 2.348040 1_555
Na1 O3 2.286870 1_555
Na1 O0 2.348040 1_555
Na1 O0 2.348040 1_455
Na2 O1 2.286870 1_565
Na2 O2 2.348040 1_555
Na2 O2 2.348040 1_655
Na3 O2 2.286870 1_555
Na3 O1 2.348040 1_555
Na3 O1 2.348040 1_455
Au0 O3 2.042845 1_555
Au0 O2 2.042845 1_544
Au1 O1 2.042845 1_555
Au1 O0 2.042845 1_555
O0 Rb1 3.027046 1_565
O0 Rb1 3.027046 1_665
O1 Rb1 3.027046 1_555
O1 Rb1 3.027046 1_655
O2 Rb0 3.027046 1_556
O2 Rb0 3.027046 1_456
O3 Rb0 3.027046 1_455
O3 Rb0 3.027046 1_555
