# generated using pymatgen
data_BaLa(BiS3)2
_symmetry_space_group_name_H-M   'P 1'
_cell_length_a   14.95890600
_cell_length_b   4.23187900
_cell_length_c   16.62162559
_cell_angle_alpha   87.28020478
_cell_angle_beta   90.00000000
_cell_angle_gamma   90.00000000
_symmetry_Int_Tables_number   1
_chemical_formula_structural   BaLa(BiS3)2
_chemical_formula_sum   'Ba4 La4 Bi8 S24'
_cell_volume   1051.03475975
_cell_formula_units_Z   4
loop_
 _symmetry_equiv_pos_site_id
 _symmetry_equiv_pos_as_xyz
  1  'x, y, z'
loop_
 _atom_site_type_symbol
 _atom_site_label
 _atom_site_symmetry_multiplicity
 _atom_site_fract_x
 _atom_site_fract_y
 _atom_site_fract_z
 _atom_site_occupancy
  Ba  Ba0  1  0.28873400  0.74386000  0.67000600  1
  Ba  Ba1  1  0.78873400  0.25614000  0.82999400  1
  Ba  Ba2  1  0.71126600  0.25614000  0.32999400  1
  Ba  Ba3  1  0.21126600  0.74386000  0.17000600  1
  La  La0  1  0.12581700  0.70524000  0.90623600  1
  La  La1  1  0.62581700  0.29476000  0.59376400  1
  La  La2  1  0.37418300  0.70524000  0.40623600  1
  La  La3  1  0.87418300  0.29476000  0.09376400  1
  Bi  Bi0  1  0.47855900  0.24203700  0.20030200  1
  Bi  Bi1  1  0.52144100  0.75796300  0.79969800  1
  Bi  Bi2  1  0.12781900  0.26293000  0.47014400  1
  Bi  Bi3  1  0.02144100  0.24203700  0.70030200  1
  Bi  Bi4  1  0.97855900  0.75796300  0.29969800  1
  Bi  Bi5  1  0.37218100  0.26293000  0.97014400  1
  Bi  Bi6  1  0.87218100  0.73707000  0.52985600  1
  Bi  Bi7  1  0.62781900  0.73707000  0.02985600  1
  S  S0  1  0.96333800  0.68139500  0.79769200  1
  S  S1  1  0.70700400  0.76478200  0.48034900  1
  S  S2  1  0.20700400  0.23521800  0.01965100  1
  S  S3  1  0.08361500  0.70533500  0.58915700  1
  S  S4  1  0.98813300  0.15780900  0.94977900  1
  S  S5  1  0.91638500  0.29466500  0.41084300  1
  S  S6  1  0.82704800  0.77671000  0.21781900  1
  S  S7  1  0.48813300  0.84219100  0.55022100  1
  S  S8  1  0.67295200  0.77671000  0.71781900  1
  S  S9  1  0.01186700  0.84219100  0.05022100  1
  S  S10  1  0.17295200  0.22329000  0.78218100  1
  S  S11  1  0.58361500  0.29466500  0.91084300  1
  S  S12  1  0.41638500  0.70533500  0.08915700  1
  S  S13  1  0.51186700  0.15780900  0.44977900  1
  S  S14  1  0.16944700  0.75253000  0.36921800  1
  S  S15  1  0.03666200  0.31860500  0.20230800  1
  S  S16  1  0.29299600  0.23521800  0.51965100  1
  S  S17  1  0.46333800  0.31860500  0.70230800  1
  S  S18  1  0.33055300  0.75253000  0.86921800  1
  S  S19  1  0.79299600  0.76478200  0.98034900  1
  S  S20  1  0.66944700  0.24747000  0.13078200  1
  S  S21  1  0.32704800  0.22329000  0.28218100  1
  S  S22  1  0.83055300  0.24747000  0.63078200  1
  S  S23  1  0.53666200  0.68139500  0.29769200  1
loop_
_geom_bond_atom_site_label_1
_geom_bond_atom_site_label_2
_geom_bond_distance
_geom_bond_site_symmetry_2
Ba0 S16 3.174961 1_565
Ba0 S17 3.202683 1_555
Ba0 S10 3.307498 1_555
Ba0 S10 3.309321 1_565
Ba0 S3 3.356798 1_555
Ba0 S18 3.371711 1_555
Ba0 S16 3.375443 1_555
Ba0 S7 3.599408 1_555
Ba0 S17 3.626293 1_565
Ba1 S19 3.174961 1_545
Ba1 S0 3.202683 1_555
Ba1 S8 3.307498 1_555
Ba1 S8 3.309321 1_545
Ba1 S11 3.356798 1_555
Ba1 S22 3.371711 1_555
Ba1 S19 3.375443 1_555
Ba1 S4 3.599408 1_555
Ba1 S0 3.626293 1_545
Ba2 S1 3.174961 1_545
Ba2 S23 3.202683 1_555
Ba2 S6 3.307498 1_555
Ba2 S6 3.309321 1_545
Ba2 S5 3.356798 1_555
Ba2 S20 3.371711 1_555
Ba2 S1 3.375443 1_555
Ba2 S13 3.599408 1_555
Ba2 S23 3.626293 1_545
Ba3 S2 3.174961 1_565
Ba3 S15 3.202683 1_555
Ba3 S21 3.307498 1_555
Ba3 S21 3.309321 1_565
Ba3 S12 3.356798 1_555
Ba3 S14 3.371711 1_555
Ba3 S2 3.375443 1_555
Ba3 S9 3.599408 1_555
Ba3 S15 3.626293 1_565
La0 S4 2.926669 1_465
La0 S2 2.937560 1_556
La0 S9 3.016752 1_556
La0 S10 3.020968 1_565
La0 S0 3.031483 1_455
La0 S10 3.050881 1_555
La0 S18 3.128360 1_555
La0 S4 3.158098 1_455
La0 S2 3.234209 1_566
La1 S7 2.926669 1_545
La1 S1 2.937560 1_555
La1 S13 3.016752 1_555
La1 S8 3.020968 1_545
La1 S17 3.031483 1_555
La1 S8 3.050881 1_555
La1 S22 3.128360 1_555
La1 S7 3.158098 1_555
La1 S1 3.234209 1_545
La2 S13 2.926669 1_565
La2 S16 2.937560 1_555
La2 S7 3.016752 1_555
La2 S21 3.020968 1_565
La2 S23 3.031483 1_555
La2 S21 3.050881 1_555
La2 S14 3.128360 1_555
La2 S13 3.158098 1_555
La2 S16 3.234209 1_565
La3 S9 2.926669 1_645
La3 S19 2.937560 1_554
La3 S4 3.016752 1_554
La3 S6 3.020968 1_545
La3 S15 3.031483 1_655
La3 S6 3.050881 1_555
La3 S20 3.128360 1_555
La3 S9 3.158098 1_655
La3 S19 3.234209 1_544
Bi0 S21 2.642917 1_555
Bi0 S23 2.668062 1_555
Bi0 S12 2.788946 1_555
Bi0 S23 2.939469 1_545
Bi0 S20 3.080099 1_555
Bi0 S12 3.136040 1_545
Bi1 S8 2.642917 1_555
Bi1 S17 2.668062 1_555
Bi1 S11 2.788946 1_555
Bi1 S17 2.939469 1_565
Bi1 S18 3.080099 1_555
Bi1 S11 3.136040 1_565
Bi2 S16 2.605172 1_555
Bi2 S14 2.676748 1_555
Bi2 S3 2.864805 1_555
Bi2 S14 2.865522 1_545
Bi2 S3 3.078237 1_545
Bi3 S10 2.642917 1_555
Bi3 S0 2.668062 1_455
Bi3 S3 2.788946 1_555
Bi3 S0 2.939469 1_445
Bi3 S22 3.080099 1_455
Bi3 S3 3.136040 1_545
Bi4 S6 2.642917 1_555
Bi4 S15 2.668062 1_655
Bi4 S5 2.788946 1_555
Bi4 S15 2.939469 1_665
Bi4 S14 3.080099 1_655
Bi4 S5 3.136040 1_565
Bi5 S2 2.605172 1_556
Bi5 S18 2.676748 1_555
Bi5 S12 2.864805 1_556
Bi5 S18 2.865522 1_545
Bi5 S12 3.078237 1_546
Bi6 S1 2.605172 1_555
Bi6 S22 2.676748 1_555
Bi6 S5 2.864805 1_555
Bi6 S22 2.865522 1_565
Bi6 S5 3.078237 1_565
Bi7 S19 2.605172 1_554
Bi7 S20 2.676748 1_555
Bi7 S11 2.864805 1_554
Bi7 S20 2.865522 1_565
Bi7 S11 3.078237 1_564
S4 S9 2.117939 1_646
S13 S7 2.117939 1_545
