# generated using pymatgen
data_B2W
_symmetry_space_group_name_H-M   'P 1'
_cell_length_a   3.01515494
_cell_length_b   3.01515486
_cell_length_c   13.95671110
_cell_angle_alpha   90.00000000
_cell_angle_beta   90.00000000
_cell_angle_gamma   120.00000090
_symmetry_Int_Tables_number   1
_chemical_formula_structural   B2W
_chemical_formula_sum   'B8 W4'
_cell_volume   109.88362375
_cell_formula_units_Z   4
loop_
 _symmetry_equiv_pos_site_id
 _symmetry_equiv_pos_as_xyz
  1  'x, y, z'
loop_
 _atom_site_type_symbol
 _atom_site_label
 _atom_site_symmetry_multiplicity
 _atom_site_fract_x
 _atom_site_fract_y
 _atom_site_fract_z
 _atom_site_occupancy
  B  B0  1  0.33333300  0.66666700  0.52328069  1
  B  B1  1  0.66666700  0.33333300  0.47671931  1
  B  B2  1  0.00000000  0.00000000  0.25000000  1
  B  B3  1  0.33333300  0.66666700  0.97671931  1
  B  B4  1  0.66666700  0.33333300  0.25000000  1
  B  B5  1  0.66666700  0.33333300  0.02328069  1
  B  B6  1  0.33333300  0.66666700  0.75000000  1
  B  B7  1  0.00000000  0.00000000  0.75000000  1
  W  W0  1  0.33333300  0.66666700  0.13557818  1
  W  W1  1  0.66666700  0.33333300  0.63557718  1
  W  W2  1  0.33333300  0.66666700  0.36442182  1
  W  W3  1  0.66666700  0.33333300  0.86442282  1
loop_
_geom_bond_atom_site_label_1
_geom_bond_atom_site_label_2
_geom_bond_distance
_geom_bond_site_symmetry_2
B0 B1 1.858138 1_565
B0 B1 1.858138 1_455
B0 B1 1.858143 1_555
B0 W2 2.217147 1_555
B0 W1 2.342387 1_565
B0 W1 2.342387 1_455
B0 W1 2.342391 1_555
B1 W1 2.217133 1_555
B1 W2 2.342396 1_545
B1 W2 2.342396 1_655
B1 W2 2.342400 1_555
B2 B4 1.740799 1_455
B2 B4 1.740801 1_445
B2 B4 1.740801 1_555
B2 W0 2.362337 1_545
B2 W2 2.362337 1_545
B2 W2 2.362339 1_555
B2 W0 2.362339 1_555
B2 W2 2.362339 1_445
B2 W0 2.362339 1_445
B3 B5 1.858138 1_566
B3 B5 1.858138 1_456
B3 B5 1.858143 1_556
B3 W0 2.217147 1_556
B3 W3 2.342387 1_565
B3 W3 2.342387 1_455
B3 W3 2.342391 1_555
B4 W0 2.362337 1_545
B4 W2 2.362337 1_545
B4 W0 2.362337 1_655
B4 W2 2.362337 1_655
B4 W2 2.362341 1_555
B4 W0 2.362341 1_555
B5 W3 2.217133 1_554
B5 W0 2.342396 1_545
B5 W0 2.342396 1_655
B5 W0 2.342400 1_555
B6 B7 1.740799 1_565
B6 B7 1.740801 1_555
B6 B7 1.740801 1_665
B6 W3 2.362347 1_565
B6 W1 2.362347 1_565
B6 W3 2.362347 1_455
B6 W1 2.362347 1_455
B6 W1 2.362350 1_555
B6 W3 2.362350 1_555
B7 W3 2.362347 1_455
B7 W1 2.362347 1_455
B7 W1 2.362348 1_445
B7 W3 2.362348 1_445
B7 W3 2.362349 1_555
B7 W1 2.362349 1_555
