# generated using pymatgen
data_CsPH3O3F
_symmetry_space_group_name_H-M   'P 1'
_cell_length_a   4.96940800
_cell_length_b   5.75090700
_cell_length_c   18.65610034
_cell_angle_alpha   87.06401150
_cell_angle_beta   90.00000000
_cell_angle_gamma   90.00000000
_symmetry_Int_Tables_number   1
_chemical_formula_structural   CsPH3O3F
_chemical_formula_sum   'Cs4 P4 H12 O12 F4'
_cell_volume   532.46544731
_cell_formula_units_Z   4
loop_
 _symmetry_equiv_pos_site_id
 _symmetry_equiv_pos_as_xyz
  1  'x, y, z'
loop_
 _atom_site_type_symbol
 _atom_site_label
 _atom_site_symmetry_multiplicity
 _atom_site_fract_x
 _atom_site_fract_y
 _atom_site_fract_z
 _atom_site_occupancy
  Cs  Cs0  1  0.66044100  0.27836500  0.91524200  1
  Cs  Cs1  1  0.33955900  0.72163500  0.08475800  1
  Cs  Cs2  1  0.16044100  0.72163500  0.58475800  1
  Cs  Cs3  1  0.83955900  0.27836500  0.41524200  1
  P  P0  1  0.21196200  0.80044200  0.82469500  1
  P  P1  1  0.78803800  0.19955800  0.17530500  1
  P  P2  1  0.28803800  0.80044200  0.32469500  1
  P  P3  1  0.71196200  0.19955800  0.67530500  1
  H  H0  1  0.07432100  0.17671300  0.74419100  1
  H  H1  1  0.47263800  0.25625300  0.55859400  1
  H  H2  1  0.42567900  0.17671300  0.24419100  1
  H  H3  1  0.97263800  0.74374700  0.94140600  1
  H  H4  1  0.05490000  0.68210700  0.77506900  1
  H  H5  1  0.92567900  0.82328700  0.25580900  1
  H  H6  1  0.44510000  0.68210700  0.27506900  1
  H  H7  1  0.94510000  0.31789300  0.22493100  1
  H  H8  1  0.52736200  0.74374700  0.44140600  1
  H  H9  1  0.02736200  0.25625300  0.05859400  1
  H  H10  1  0.55490000  0.31789300  0.72493100  1
  H  H11  1  0.57432100  0.82328700  0.75580900  1
  O  O0  1  0.65133500  0.94030800  0.68350700  1
  O  O1  1  0.83223700  0.31565800  0.10057700  1
  O  O2  1  0.84866500  0.94030800  0.18350700  1
  O  O3  1  0.51404600  0.74177000  0.80412000  1
  O  O4  1  0.34866500  0.05969200  0.31649300  1
  O  O5  1  0.33223700  0.68434200  0.39942300  1
  O  O6  1  0.15133500  0.05969200  0.81649300  1
  O  O7  1  0.01404600  0.25823000  0.69588000  1
  O  O8  1  0.48595400  0.25823000  0.19588000  1
  O  O9  1  0.98595400  0.74177000  0.30412000  1
  O  O10  1  0.66776300  0.31565800  0.60057700  1
  O  O11  1  0.16776300  0.68434200  0.89942300  1
  F  F0  1  0.68485200  0.77879200  0.47871800  1
  F  F1  1  0.18485200  0.22120800  0.02128200  1
  F  F2  1  0.31514800  0.22120800  0.52128200  1
  F  F3  1  0.81514800  0.77879200  0.97871800  1
loop_
_geom_bond_atom_site_label_1
_geom_bond_atom_site_label_2
_geom_bond_distance
_geom_bond_site_symmetry_2
Cs0 F1 3.088805 1_556
Cs0 F3 3.146269 1_545
Cs1 F3 3.088805 1_554
Cs1 F1 3.146269 1_565
Cs2 F0 3.088805 1_455
Cs2 F2 3.146269 1_565
Cs3 F2 3.088805 1_655
Cs3 F0 3.146269 1_545
H0 O7 1.038527 1_555
H0 O6 1.525069 1_555
H1 O10 1.303004 1_555
H2 O8 1.038527 1_555
H2 O4 1.525069 1_555
H3 O11 1.303004 1_655
H4 P0 1.412096 1_555
H5 O9 1.038527 1_555
H5 O2 1.525069 1_555
H6 P2 1.412096 1_555
H7 P1 1.412096 1_555
H8 O5 1.303004 1_555
H9 O1 1.303004 1_455
H10 P3 1.412096 1_555
H11 O3 1.038527 1_555
H11 O0 1.525069 1_555
O0 P3 1.521073 1_565
O1 P1 1.530455 1_555
O2 P1 1.521073 1_565
O3 P0 1.589967 1_555
O4 P2 1.521073 1_545
O5 P2 1.530455 1_555
O6 P0 1.521073 1_545
O7 P3 1.589967 1_455
O8 P1 1.589967 1_555
O9 P2 1.589967 1_655
O10 P3 1.530455 1_555
O11 P0 1.530455 1_555
F0 H8 1.073337 1_555
F1 H9 1.073337 1_555
F2 H1 1.073337 1_555
F3 H3 1.073337 1_555
