# generated using pymatgen
data_Sr7Mn4O13
_symmetry_space_group_name_H-M   'P 1'
_cell_length_a   9.98434000
_cell_length_b   6.94116400
_cell_length_c   10.29548345
_cell_angle_alpha   85.43507620
_cell_angle_beta   90.00000000
_cell_angle_gamma   90.00000000
_symmetry_Int_Tables_number   1
_chemical_formula_structural   Sr7Mn4O13
_chemical_formula_sum   'Sr14 Mn8 O26'
_cell_volume   711.24388998
_cell_formula_units_Z   2
loop_
 _symmetry_equiv_pos_site_id
 _symmetry_equiv_pos_as_xyz
  1  'x, y, z'
loop_
 _atom_site_type_symbol
 _atom_site_label
 _atom_site_symmetry_multiplicity
 _atom_site_fract_x
 _atom_site_fract_y
 _atom_site_fract_z
 _atom_site_occupancy
  Sr  Sr0  1  0.67737500  0.99288700  0.96141300  1
  Sr  Sr1  1  0.85915100  0.66318400  0.19726900  1
  Sr  Sr2  1  0.49127200  0.16218100  0.65754600  1
  Sr  Sr3  1  0.50872800  0.83781900  0.34245400  1
  Sr  Sr4  1  0.99127200  0.83781900  0.84245400  1
  Sr  Sr5  1  0.50000000  0.50000000  0.00000000  1
  Sr  Sr6  1  0.32262500  0.00711300  0.03858700  1
  Sr  Sr7  1  0.17737500  0.00711300  0.53858700  1
  Sr  Sr8  1  0.82262500  0.99288700  0.46141300  1
  Sr  Sr9  1  0.35915100  0.33681600  0.30273100  1
  Sr  Sr10  1  0.14084900  0.33681600  0.80273100  1
  Sr  Sr11  1  0.64084900  0.66318400  0.69726900  1
  Sr  Sr12  1  0.00872800  0.16218100  0.15754600  1
  Sr  Sr13  1  0.00000000  0.50000000  0.50000000  1
  Mn  Mn0  1  0.16467100  0.57327000  0.07873200  1
  Mn  Mn1  1  0.66467100  0.42673000  0.42126800  1
  Mn  Mn2  1  0.83532900  0.42673000  0.92126800  1
  Mn  Mn3  1  0.17556700  0.77276600  0.28103200  1
  Mn  Mn4  1  0.67556700  0.22723400  0.21896800  1
  Mn  Mn5  1  0.33532900  0.57327000  0.57873200  1
  Mn  Mn6  1  0.32443300  0.77276600  0.78103200  1
  Mn  Mn7  1  0.82443300  0.22723400  0.71896800  1
  O  O0  1  0.52849300  0.15194600  0.11867500  1
  O  O1  1  0.59041500  0.15956600  0.41709400  1
  O  O2  1  0.50000000  0.50000000  0.50000000  1
  O  O3  1  0.67537100  0.32648900  0.82983200  1
  O  O4  1  0.77396300  0.99602100  0.19756500  1
  O  O5  1  0.75278000  0.66068900  0.95689900  1
  O  O6  1  0.72603700  0.99602100  0.69756500  1
  O  O7  1  0.25278000  0.33931100  0.54310100  1
  O  O8  1  0.02849300  0.84805400  0.38132500  1
  O  O9  1  0.97150700  0.15194600  0.61867500  1
  O  O10  1  0.74722000  0.66068900  0.45689900  1
  O  O11  1  0.40958500  0.84043400  0.58290600  1
  O  O12  1  0.17537100  0.67351100  0.67016800  1
  O  O13  1  0.10338500  0.50728800  0.27527300  1
  O  O14  1  0.24722000  0.33931100  0.04310100  1
  O  O15  1  0.09041500  0.84043400  0.08290600  1
  O  O16  1  0.82462900  0.32648900  0.32983200  1
  O  O17  1  0.22603700  0.00397900  0.80243500  1
  O  O18  1  0.27396300  0.00397900  0.30243500  1
  O  O19  1  0.47150700  0.84805400  0.88132500  1
  O  O20  1  0.32462900  0.67351100  0.17016800  1
  O  O21  1  0.39661500  0.50728800  0.77527300  1
  O  O22  1  0.60338500  0.49271200  0.22472700  1
  O  O23  1  0.90958500  0.15956600  0.91709400  1
  O  O24  1  0.89661500  0.49271200  0.72472700  1
  O  O25  1  0.00000000  0.50000000  0.00000000  1
loop_
_geom_bond_atom_site_label_1
_geom_bond_atom_site_label_2
_geom_bond_distance
_geom_bond_site_symmetry_2
Mn0 O14 1.883057 1_555
Mn0 O25 1.919502 1_555
Mn0 O15 2.000777 1_555
Mn0 O20 2.006296 1_555
Mn0 O13 2.128650 1_555
Mn1 O10 1.883057 1_555
Mn1 O2 1.919502 1_555
Mn1 O1 2.000777 1_555
Mn1 O16 2.006296 1_555
Mn1 O22 2.128650 1_555
Mn2 O5 1.883057 1_555
Mn2 O25 1.919502 1_656
Mn2 O23 2.000777 1_555
Mn2 O3 2.006296 1_555
Mn2 O24 2.128650 1_555
Mn3 O8 1.892482 1_555
Mn3 O18 1.909361 1_565
Mn3 O13 1.983921 1_555
Mn3 O20 2.029187 1_555
Mn3 O15 2.225246 1_555
Mn4 O0 1.892482 1_555
Mn4 O4 1.909361 1_545
Mn4 O22 1.983921 1_555
Mn4 O16 2.029187 1_555
Mn4 O1 2.225246 1_555
Mn5 O7 1.883057 1_555
Mn5 O2 1.919502 1_555
Mn5 O11 2.000777 1_555
Mn5 O12 2.006296 1_555
Mn5 O21 2.128650 1_555
Mn6 O19 1.892482 1_555
Mn6 O17 1.909361 1_565
Mn6 O21 1.983921 1_555
Mn6 O12 2.029187 1_555
Mn6 O11 2.225246 1_555
Mn7 O9 1.892482 1_555
Mn7 O6 1.909361 1_545
Mn7 O24 1.983921 1_555
Mn7 O3 2.029187 1_555
Mn7 O23 2.225246 1_555
O0 Sr6 2.459139 1_555
O0 Sr0 2.516857 1_544
O0 Sr5 2.634479 1_555
O0 Sr9 2.912595 1_555
O0 Sr3 3.049838 1_545
O1 Sr3 2.552746 1_545
O1 Sr8 2.614950 1_545
O1 Sr2 2.667543 1_555
O1 Sr9 2.828603 1_555
O2 Sr2 2.744350 1_555
O2 Sr3 2.744350 1_555
O2 Sr11 2.784183 1_555
O2 Sr9 2.784183 1_555
O3 Sr0 2.588088 1_545
O3 Sr11 2.633552 1_555
O3 Sr5 2.814536 1_556
O3 Sr2 2.854402 1_555
O4 Sr1 2.462100 1_555
O4 Sr0 2.617272 1_554
O4 Sr12 2.630310 1_665
O4 Sr8 2.757931 1_555
O4 Sr3 3.191115 1_555
O5 Sr0 2.429595 1_555
O5 Sr1 2.694314 1_556
O5 Sr5 2.780638 1_556
O5 Sr4 2.887802 1_555
O5 Sr11 2.896011 1_555
O6 Sr11 2.462100 1_555
O6 Sr8 2.617272 1_555
O6 Sr2 2.630310 1_565
O6 Sr0 2.757931 1_555
O6 Sr4 3.191115 1_555
O7 Sr7 2.429595 1_555
O7 Sr9 2.694314 1_555
O7 Sr13 2.780638 1_555
O7 Sr2 2.887802 1_555
O7 Sr10 2.896011 1_555
O8 Sr8 2.459139 1_455
O8 Sr7 2.516857 1_565
O8 Sr13 2.634479 1_555
O8 Sr1 2.912595 1_455
O8 Sr12 3.049838 1_565
O9 Sr7 2.459139 1_655
O9 Sr8 2.516857 1_545
O9 Sr13 2.634479 1_655
O9 Sr10 2.912595 1_655
O9 Sr4 3.049838 1_545
O10 Sr8 2.429595 1_555
O10 Sr11 2.694314 1_555
O10 Sr13 2.780638 1_655
O10 Sr3 2.887802 1_555
O10 Sr1 2.896011 1_555
O11 Sr2 2.552746 1_565
O11 Sr7 2.614950 1_565
O11 Sr3 2.667543 1_555
O11 Sr11 2.828603 1_555
O12 Sr7 2.588088 1_565
O12 Sr10 2.633552 1_555
O12 Sr13 2.814536 1_555
O12 Sr4 2.854402 1_455
O13 Sr13 2.530319 1_555
O13 Sr1 2.761145 1_455
O13 Sr9 2.819213 1_555
O13 Sr12 2.926189 1_555
O14 Sr6 2.429595 1_555
O14 Sr10 2.694314 1_554
O14 Sr5 2.780638 1_555
O14 Sr12 2.887802 1_555
O14 Sr9 2.896011 1_555
O15 Sr12 2.552746 1_565
O15 Sr6 2.614950 1_565
O15 Sr4 2.667543 1_454
O15 Sr1 2.828603 1_455
O16 Sr8 2.588088 1_545
O16 Sr1 2.633552 1_555
O16 Sr13 2.814536 1_655
O16 Sr12 2.854402 1_655
O17 Sr10 2.462100 1_555
O17 Sr6 2.617272 1_556
O17 Sr4 2.630310 1_445
O17 Sr7 2.757931 1_555
O17 Sr2 3.191115 1_555
O18 Sr9 2.462100 1_555
O18 Sr7 2.617272 1_555
O18 Sr3 2.630310 1_545
O18 Sr6 2.757931 1_555
O18 Sr12 3.191115 1_555
O19 Sr0 2.459139 1_555
O19 Sr6 2.516857 1_566
O19 Sr5 2.634479 1_556
O19 Sr11 2.912595 1_555
O19 Sr2 3.049838 1_565
O20 Sr6 2.588088 1_565
O20 Sr9 2.633552 1_555
O20 Sr5 2.814536 1_555
O20 Sr3 2.854402 1_555
O21 Sr5 2.530319 1_556
O21 Sr11 2.761145 1_555
O21 Sr10 2.819213 1_555
O21 Sr2 2.926189 1_555
O22 Sr5 2.530319 1_555
O22 Sr9 2.761145 1_555
O22 Sr1 2.819213 1_555
O22 Sr3 2.926189 1_555
O23 Sr4 2.552746 1_545
O23 Sr0 2.614950 1_545
O23 Sr12 2.667543 1_656
O23 Sr10 2.828603 1_655
O24 Sr13 2.530319 1_655
O24 Sr10 2.761145 1_655
O24 Sr11 2.819213 1_555
O24 Sr4 2.926189 1_555
O25 Sr12 2.744350 1_555
O25 Sr4 2.744350 1_454
O25 Sr10 2.784183 1_554
O25 Sr1 2.784183 1_455
