# generated using pymatgen
data_Sc3RhC4
_symmetry_space_group_name_H-M   'P 1'
_cell_length_a   5.61342751
_cell_length_b   5.61323461
_cell_length_c   6.74758986
_cell_angle_alpha   83.63495072
_cell_angle_beta   65.42032963
_cell_angle_gamma   74.54246929
_symmetry_Int_Tables_number   1
_chemical_formula_structural   Sc3RhC4
_chemical_formula_sum   'Sc6 Rh2 C8'
_cell_volume   186.35319543
_cell_formula_units_Z   2
loop_
 _symmetry_equiv_pos_site_id
 _symmetry_equiv_pos_as_xyz
  1  'x, y, z'
loop_
 _atom_site_type_symbol
 _atom_site_label
 _atom_site_symmetry_multiplicity
 _atom_site_fract_x
 _atom_site_fract_y
 _atom_site_fract_z
 _atom_site_occupancy
  Sc  Sc0  1  0.75991424  0.76102729  0.00000000  1
  Sc  Sc1  1  0.18854356  0.00000000  0.62291387  1
  Sc  Sc2  1  0.68965011  0.50000000  0.62069979  1
  Sc  Sc3  1  0.24008576  0.23897271  -0.00000000  1
  Sc  Sc4  1  0.31034989  0.50000000  0.37930021  1
  Sc  Sc5  1  0.81145644  -0.00000000  0.37708613  1
  Rh  Rh0  1  0.27039919  0.72907147  -0.00000000  1
  Rh  Rh1  1  0.72960081  0.27092853  0.00000000  1
  C  C0  1  0.95048831  0.58168003  0.25689916  1
  C  C1  1  0.71081194  0.07885781  0.74154730  1
  C  C2  1  0.79261253  0.41831997  0.25689916  1
  C  C3  1  0.04951169  0.41831997  0.74310084  1
  C  C4  1  0.28918806  0.92114219  0.25845270  1
  C  C5  1  0.54764277  0.92114219  0.74154730  1
  C  C6  1  0.45235723  0.07885781  0.25845270  1
  C  C7  1  0.20738747  0.58168003  0.74310084  1
loop_
_geom_bond_atom_site_label_1
_geom_bond_atom_site_label_2
_geom_bond_distance
_geom_bond_site_symmetry_2
Rh0 Sc0 2.801006 1_555
Rh0 Sc3 2.801197 1_555
Rh0 Sc3 2.821613 1_565
Rh0 Sc0 2.823061 1_455
Rh1 Sc3 2.801006 1_555
Rh1 Sc0 2.801197 1_555
Rh1 Sc0 2.821613 1_545
Rh1 Sc3 2.823061 1_655
C0 C2 1.435069 1_555
C0 Rh0 2.190552 1_655
C0 Sc2 2.344819 1_555
C0 Sc5 2.387323 1_565
C0 Sc0 2.396758 1_555
C0 Sc4 2.404844 1_655
C0 Sc3 2.465005 1_655
C1 C5 1.433501 1_545
C1 Rh1 2.201210 1_556
C1 Sc5 2.348440 1_555
C1 Sc1 2.385005 1_655
C1 Sc0 2.397510 1_546
C1 Sc2 2.402265 1_555
C1 Sc3 2.465623 1_556
C2 Rh1 2.190553 1_555
C2 Sc2 2.344819 1_555
C2 Sc5 2.387323 1_555
C2 Sc3 2.396757 1_655
C2 Sc4 2.404844 1_555
C2 Sc0 2.465006 1_555
C3 C7 1.435069 1_555
C3 Rh1 2.190552 1_456
C3 Sc4 2.344819 1_555
C3 Sc1 2.387323 1_555
C3 Sc3 2.396758 1_556
C3 Sc2 2.404844 1_455
C3 Sc0 2.465005 1_456
C4 C6 1.433501 1_565
C4 Rh0 2.201210 1_555
C4 Sc1 2.348440 1_565
C4 Sc5 2.385005 1_465
C4 Sc3 2.397510 1_565
C4 Sc4 2.402265 1_555
C4 Sc0 2.465623 1_555
C5 Rh0 2.201216 1_556
C5 Sc5 2.348436 1_565
C5 Sc1 2.385010 1_565
C5 Sc3 2.397512 1_566
C5 Sc2 2.402265 1_555
C5 Sc0 2.465616 1_556
C6 Rh1 2.201216 1_555
C6 Sc1 2.348436 1_555
C6 Sc5 2.385010 1_555
C6 Sc0 2.397512 1_545
C6 Sc4 2.402265 1_555
C6 Sc3 2.465616 1_555
C7 Rh0 2.190553 1_556
C7 Sc4 2.344819 1_555
C7 Sc1 2.387323 1_565
C7 Sc0 2.396757 1_456
C7 Sc2 2.404844 1_555
C7 Sc3 2.465006 1_556
