# generated using pymatgen
data_CuCSN
_symmetry_space_group_name_H-M   'P 1'
_cell_length_a   6.65889300
_cell_length_b   7.22270300
_cell_length_c   11.00475300
_cell_angle_alpha   90.00000000
_cell_angle_beta   90.00000000
_cell_angle_gamma   90.00000000
_symmetry_Int_Tables_number   1
_chemical_formula_structural   CuCSN
_chemical_formula_sum   'Cu8 C8 S8 N8'
_cell_volume   529.27586744
_cell_formula_units_Z   8
loop_
 _symmetry_equiv_pos_site_id
 _symmetry_equiv_pos_as_xyz
  1  'x, y, z'
loop_
 _atom_site_type_symbol
 _atom_site_label
 _atom_site_symmetry_multiplicity
 _atom_site_fract_x
 _atom_site_fract_y
 _atom_site_fract_z
 _atom_site_occupancy
  Cu  Cu0  1  0.63631600  0.84391000  0.68409500  1
  Cu  Cu1  1  0.63631600  0.34391000  0.81590500  1
  Cu  Cu2  1  0.86368400  0.34391000  0.31590500  1
  Cu  Cu3  1  0.36368400  0.15609000  0.31590500  1
  Cu  Cu4  1  0.13631600  0.15609000  0.81590500  1
  Cu  Cu5  1  0.36368400  0.65609000  0.18409500  1
  Cu  Cu6  1  0.13631600  0.65609000  0.68409500  1
  Cu  Cu7  1  0.86368400  0.84391000  0.18409500  1
  C  C0  1  0.63971600  0.20457000  0.07818100  1
  C  C1  1  0.86028400  0.20457000  0.57818100  1
  C  C2  1  0.86028400  0.70457000  0.92181900  1
  C  C3  1  0.13971600  0.79543000  0.42181900  1
  C  C4  1  0.63971600  0.70457000  0.42181900  1
  C  C5  1  0.36028400  0.79543000  0.92181900  1
  C  C6  1  0.36028400  0.29543000  0.57818100  1
  C  C7  1  0.13971600  0.29543000  0.07818100  1
  S  S0  1  0.17381200  0.38247800  0.21646600  1
  S  S1  1  0.82618800  0.61752200  0.78353400  1
  S  S2  1  0.67381200  0.11752200  0.21646600  1
  S  S3  1  0.82618800  0.11752200  0.71646600  1
  S  S4  1  0.32618800  0.88247800  0.78353400  1
  S  S5  1  0.67381200  0.61752200  0.28353400  1
  S  S6  1  0.32618800  0.38247800  0.71646600  1
  S  S7  1  0.17381200  0.88247800  0.28353400  1
  N  N0  1  0.38202500  0.73190800  0.01937100  1
  N  N1  1  0.88202500  0.76809200  0.01937100  1
  N  N2  1  0.88202500  0.26809200  0.48062900  1
  N  N3  1  0.61797500  0.26809200  0.98062900  1
  N  N4  1  0.11797500  0.73190800  0.51937100  1
  N  N5  1  0.61797500  0.76809200  0.51937100  1
  N  N6  1  0.38202500  0.23190800  0.48062900  1
  N  N7  1  0.11797500  0.23190800  0.98062900  1
loop_
_geom_bond_atom_site_label_1
_geom_bond_atom_site_label_2
_geom_bond_distance
_geom_bond_site_symmetry_2
Cu0 N5 1.897589 1_555
Cu0 S1 2.338740 1_555
Cu0 S4 2.353672 1_555
Cu0 S3 2.372950 1_565
Cu1 N3 1.897589 1_555
Cu1 S3 2.338740 1_555
Cu1 S6 2.353672 1_555
Cu1 S1 2.372950 1_555
Cu2 N2 1.897589 1_555
Cu2 S2 2.338740 1_555
Cu2 S0 2.353672 1_655
Cu2 S5 2.372950 1_555
Cu3 N6 1.897589 1_555
Cu3 S0 2.338740 1_555
Cu3 S2 2.353672 1_555
Cu3 S7 2.372950 1_545
Cu4 N7 1.897589 1_555
Cu4 S6 2.338740 1_555
Cu4 S3 2.353672 1_455
Cu4 S4 2.372950 1_545
Cu5 N0 1.897589 1_555
Cu5 S7 2.338740 1_555
Cu5 S5 2.353672 1_555
Cu5 S0 2.372950 1_555
Cu6 N4 1.897589 1_555
Cu6 S4 2.338740 1_555
Cu6 S1 2.353672 1_455
Cu6 S6 2.372950 1_555
Cu7 N1 1.897589 1_555
Cu7 S5 2.338740 1_555
Cu7 S7 2.353672 1_655
Cu7 S2 2.372950 1_565
C0 N3 1.176408 1_554
C0 S2 1.662134 1_555
C1 N2 1.176408 1_555
C1 S3 1.662134 1_555
C2 N1 1.176408 1_556
C2 S1 1.662134 1_555
C3 N4 1.176408 1_555
C3 S7 1.662134 1_555
C4 N5 1.176408 1_555
C4 S5 1.662134 1_555
C5 N0 1.176408 1_556
C5 S4 1.662134 1_555
C6 N6 1.176408 1_555
C6 S6 1.662134 1_555
C7 N7 1.176408 1_554
C7 S0 1.662134 1_555
