# generated using pymatgen
data_Fe
_symmetry_space_group_name_H-M   'P 1'
_cell_length_a   3.37646167
_cell_length_b   3.37646223
_cell_length_c   7.55037944
_cell_angle_alpha   102.92031221
_cell_angle_beta   102.92030772
_cell_angle_gamma   89.99999412
_symmetry_Int_Tables_number   1
_chemical_formula_structural   Fe
_chemical_formula_sum   Fe6
_cell_volume   81.66127665
_cell_formula_units_Z   6
loop_
 _symmetry_equiv_pos_site_id
 _symmetry_equiv_pos_as_xyz
  1  'x, y, z'
loop_
 _atom_site_type_symbol
 _atom_site_label
 _atom_site_symmetry_multiplicity
 _atom_site_fract_x
 _atom_site_fract_y
 _atom_site_fract_z
 _atom_site_occupancy
  Fe  Fe0  1  0.41667517  0.91667517  0.83335135  1
  Fe  Fe1  1  0.58332483  0.08332483  0.16664865  1
  Fe  Fe2  1  0.08332483  0.58332483  0.16664865  1
  Fe  Fe3  1  0.75000000  0.25000000  0.50000000  1
  Fe  Fe4  1  0.91667517  0.41667517  0.83335135  1
  Fe  Fe5  1  0.25000000  0.75000000  0.50000000  1
loop_
_geom_bond_atom_site_label_1
_geom_bond_atom_site_label_2
_geom_bond_distance
_geom_bond_site_symmetry_2
Fe0 Fe1 2.387395 1_566
Fe0 Fe4 2.387519 1_555
Fe0 Fe4 2.387519 1_465
Fe0 Fe4 2.387519 1_455
Fe0 Fe4 2.387519 1_565
Fe0 Fe5 2.387782 1_555
Fe1 Fe2 2.387519 1_645
Fe1 Fe2 2.387519 1_555
Fe1 Fe2 2.387519 1_655
Fe1 Fe2 2.387519 1_545
Fe1 Fe3 2.387782 1_555
Fe2 Fe4 2.387395 1_454
Fe2 Fe5 2.387782 1_555
Fe3 Fe5 2.387519 1_645
Fe3 Fe5 2.387519 1_555
Fe3 Fe5 2.387519 1_545
Fe3 Fe5 2.387519 1_655
Fe3 Fe4 2.387782 1_555
