# generated using pymatgen
data_Hg2C2N2O
_symmetry_space_group_name_H-M   'P 1'
_cell_length_a   4.22622000
_cell_length_b   7.16279300
_cell_length_c   19.09468700
_cell_angle_alpha   90.00000000
_cell_angle_beta   90.00000000
_cell_angle_gamma   90.00000000
_symmetry_Int_Tables_number   1
_chemical_formula_structural   Hg2C2N2O
_chemical_formula_sum   'Hg8 C8 N8 O4'
_cell_volume   578.02556283
_cell_formula_units_Z   4
loop_
 _symmetry_equiv_pos_site_id
 _symmetry_equiv_pos_as_xyz
  1  'x, y, z'
loop_
 _atom_site_type_symbol
 _atom_site_label
 _atom_site_symmetry_multiplicity
 _atom_site_fract_x
 _atom_site_fract_y
 _atom_site_fract_z
 _atom_site_occupancy
  Hg  Hg0  1  0.25000000  0.13384300  0.84646700  1
  Hg  Hg1  1  0.75000000  0.86615700  0.15353300  1
  Hg  Hg2  1  0.75000000  0.80139900  0.97839100  1
  Hg  Hg3  1  0.25000000  0.19860100  0.02160900  1
  Hg  Hg4  1  0.75000000  0.69860100  0.47839100  1
  Hg  Hg5  1  0.75000000  0.63384300  0.65353300  1
  Hg  Hg6  1  0.25000000  0.30139900  0.52160900  1
  Hg  Hg7  1  0.25000000  0.36615700  0.34646700  1
  C  C0  1  0.25000000  0.06415400  0.58049300  1
  C  C1  1  0.75000000  0.71776600  0.24448400  1
  C  C2  1  0.25000000  0.21776600  0.25551600  1
  C  C3  1  0.75000000  0.56415400  0.91950700  1
  C  C4  1  0.75000000  0.93584600  0.41950700  1
  C  C5  1  0.25000000  0.43584600  0.08049300  1
  C  C6  1  0.25000000  0.28223400  0.75551600  1
  C  C7  1  0.75000000  0.78223400  0.74448400  1
  N  N0  1  0.25000000  0.37846800  0.70608700  1
  N  N1  1  0.25000000  0.12153200  0.20608700  1
  N  N2  1  0.75000000  0.08235500  0.39247200  1
  N  N3  1  0.75000000  0.87846800  0.79391300  1
  N  N4  1  0.25000000  0.58235500  0.10752800  1
  N  N5  1  0.25000000  0.91764500  0.60752800  1
  N  N6  1  0.75000000  0.62153200  0.29391300  1
  N  N7  1  0.75000000  0.41764500  0.89247200  1
  O  O0  1  0.75000000  0.50097000  0.55849000  1
  O  O1  1  0.75000000  0.99903000  0.05849000  1
  O  O2  1  0.25000000  0.49903000  0.44151000  1
  O  O3  1  0.25000000  0.00097000  0.94151000  1
loop_
_geom_bond_atom_site_label_1
_geom_bond_atom_site_label_2
_geom_bond_distance
_geom_bond_site_symmetry_2
Hg0 O3 2.049237 1_555
Hg1 O1 2.049237 1_555
Hg2 O1 2.084025 1_556
Hg2 O3 2.646621 1_565
Hg2 O3 2.646621 1_665
Hg3 O3 2.084025 1_554
Hg3 O1 2.646621 1_545
Hg3 O1 2.646621 1_445
Hg4 O0 2.084025 1_555
Hg4 O2 2.646621 1_555
Hg4 O2 2.646621 1_655
Hg5 O0 2.049237 1_555
Hg6 O2 2.084025 1_555
Hg6 O0 2.646621 1_555
Hg6 O0 2.646621 1_455
Hg7 O2 2.049237 1_555
C0 N5 1.169511 1_545
C0 Hg6 2.037635 1_555
C1 N6 1.168742 1_555
C1 Hg1 2.036125 1_555
C2 N1 1.168742 1_555
C2 Hg7 2.036125 1_555
C3 N7 1.169511 1_555
C3 Hg2 2.037635 1_555
C4 N2 1.169511 1_565
C4 Hg4 2.037635 1_555
C5 N4 1.169511 1_555
C5 Hg3 2.037635 1_555
C6 N0 1.168742 1_555
C6 Hg0 2.036125 1_555
C7 N3 1.168742 1_555
C7 Hg5 2.036125 1_555
