# generated using pymatgen
data_Ca3Nb2CoO9
_symmetry_space_group_name_H-M   'P 1'
_cell_length_a   5.50045100
_cell_length_b   9.72595500
_cell_length_c   16.80534492
_cell_angle_alpha   55.70530158
_cell_angle_beta   90.00000000
_cell_angle_gamma   90.00000000
_symmetry_Int_Tables_number   1
_chemical_formula_structural   Ca3Nb2CoO9
_chemical_formula_sum   'Ca12 Nb8 Co4 O36'
_cell_volume   742.74052780
_cell_formula_units_Z   4
loop_
 _symmetry_equiv_pos_site_id
 _symmetry_equiv_pos_as_xyz
  1  'x, y, z'
loop_
 _atom_site_type_symbol
 _atom_site_label
 _atom_site_symmetry_multiplicity
 _atom_site_fract_x
 _atom_site_fract_y
 _atom_site_fract_z
 _atom_site_occupancy
  Ca  Ca0  1  0.48579000  0.45107300  0.39965800  1
  Ca  Ca1  1  0.99216100  0.21299400  0.77271700  1
  Ca  Ca2  1  0.01421000  0.45107300  0.89965800  1
  Ca  Ca3  1  0.50783900  0.21299400  0.27271700  1
  Ca  Ca4  1  0.98174600  0.87737300  0.43185700  1
  Ca  Ca5  1  0.51421000  0.54892700  0.60034200  1
  Ca  Ca6  1  0.49216100  0.78700600  0.72728300  1
  Ca  Ca7  1  0.98579000  0.54892700  0.10034200  1
  Ca  Ca8  1  0.48174600  0.12262700  0.06814300  1
  Ca  Ca9  1  0.51825400  0.87737300  0.93185700  1
  Ca  Ca10  1  0.01825400  0.12262700  0.56814300  1
  Ca  Ca11  1  0.00783900  0.78700600  0.22728300  1
  Nb  Nb0  1  0.01039800  0.82677600  0.84007900  1
  Nb  Nb1  1  0.00322600  0.67582600  0.66042200  1
  Nb  Nb2  1  0.98960200  0.17322400  0.15992100  1
  Nb  Nb3  1  0.48960200  0.82677600  0.34007900  1
  Nb  Nb4  1  0.99677400  0.32417400  0.33957800  1
  Nb  Nb5  1  0.50322600  0.32417400  0.83957800  1
  Nb  Nb6  1  0.51039800  0.17322400  0.65992100  1
  Nb  Nb7  1  0.49677400  0.67582600  0.16042200  1
  Co  Co0  1  0.50000000  0.00000000  0.50000000  1
  Co  Co1  1  0.00000000  0.00000000  0.00000000  1
  Co  Co2  1  0.50000000  0.50000000  0.00000000  1
  Co  Co3  1  0.00000000  0.50000000  0.50000000  1
  O  O0  1  0.80847600  0.12021100  0.40959500  1
  O  O1  1  0.70026200  0.31289700  0.11963500  1
  O  O2  1  0.29802000  0.22080900  0.41189100  1
  O  O3  1  0.79802000  0.77919100  0.08810900  1
  O  O4  1  0.80981200  0.65855800  0.94733600  1
  O  O5  1  0.59318600  0.72800400  0.26192900  1
  O  O6  1  0.70198000  0.77919100  0.58810900  1
  O  O7  1  0.90681400  0.72800400  0.76192900  1
  O  O8  1  0.89882300  0.06495800  0.09548900  1
  O  O9  1  0.59700400  0.39145900  0.92499000  1
  O  O10  1  0.20198000  0.22080900  0.91189100  1
  O  O11  1  0.20026200  0.68710300  0.38036500  1
  O  O12  1  0.29196800  0.01434200  0.21904300  1
  O  O13  1  0.10117700  0.93504200  0.90451100  1
  O  O14  1  0.19152400  0.87978900  0.59040500  1
  O  O15  1  0.20537900  0.54604900  0.25085100  1
  O  O16  1  0.29973800  0.68710300  0.88036500  1
  O  O17  1  0.09700400  0.60854100  0.57501000  1
  O  O18  1  0.79196800  0.98565800  0.28095700  1
  O  O19  1  0.30981200  0.34144200  0.55266400  1
  O  O20  1  0.69018800  0.65855800  0.44733600  1
  O  O21  1  0.79973800  0.31289700  0.61963500  1
  O  O22  1  0.09318600  0.27199600  0.23807100  1
  O  O23  1  0.70537900  0.45395100  0.24914900  1
  O  O24  1  0.79462100  0.45395100  0.74914900  1
  O  O25  1  0.30847600  0.87978900  0.09040500  1
  O  O26  1  0.39882300  0.93504200  0.40451100  1
  O  O27  1  0.19018800  0.34144200  0.05266400  1
  O  O28  1  0.70803200  0.98565800  0.78095700  1
  O  O29  1  0.60117700  0.06495800  0.59548900  1
  O  O30  1  0.90299600  0.39145900  0.42499000  1
  O  O31  1  0.20803200  0.01434200  0.71904300  1
  O  O32  1  0.29462100  0.54604900  0.75085100  1
  O  O33  1  0.40681400  0.27199600  0.73807100  1
  O  O34  1  0.40299600  0.60854100  0.07501000  1
  O  O35  1  0.69152400  0.12021100  0.90959500  1
loop_
_geom_bond_atom_site_label_1
_geom_bond_atom_site_label_2
_geom_bond_distance
_geom_bond_site_symmetry_2
Ca0 O30 2.346371 1_555
Ca0 O19 2.365569 1_555
Ca0 O2 2.367631 1_555
Ca0 O5 2.436290 1_555
Ca0 O15 2.623516 1_555
Ca0 O11 2.646281 1_555
Ca0 O23 2.788819 1_555
Ca0 O20 2.792915 1_555
Ca1 O33 2.343873 1_655
Ca1 O24 2.404924 1_555
Ca1 O13 2.413688 1_645
Ca1 O21 2.421925 1_555
Ca1 O35 2.549697 1_555
Ca1 O28 2.646770 1_545
Ca1 O10 2.647330 1_655
Ca1 O31 2.814313 1_655
Ca2 O9 2.346371 1_455
Ca2 O27 2.365569 1_556
Ca2 O10 2.367631 1_555
Ca2 O7 2.436290 1_455
Ca2 O32 2.623516 1_555
Ca2 O16 2.646281 1_555
Ca2 O24 2.788819 1_455
Ca2 O4 2.792915 1_455
Ca3 O22 2.343873 1_555
Ca3 O23 2.404924 1_555
Ca3 O26 2.413688 1_545
Ca3 O1 2.421925 1_555
Ca3 O0 2.549697 1_555
Ca3 O18 2.646770 1_545
Ca3 O2 2.647330 1_555
Ca3 O12 2.814313 1_555
Ca4 O26 2.344838 1_655
Ca4 O18 2.370667 1_555
Ca4 O0 2.372932 1_565
Ca4 O17 2.436699 1_655
Ca4 O20 2.558288 1_555
Ca4 O6 2.710977 1_555
Ca4 O11 2.724446 1_655
Ca4 O14 2.915792 1_655
Ca5 O17 2.346371 1_555
Ca5 O20 2.365569 1_555
Ca5 O6 2.367631 1_555
Ca5 O33 2.436290 1_555
Ca5 O24 2.623516 1_555
Ca5 O21 2.646281 1_555
Ca5 O32 2.788819 1_555
Ca5 O19 2.792915 1_555
Ca6 O7 2.343873 1_555
Ca6 O32 2.404924 1_555
Ca6 O29 2.413688 1_565
Ca6 O16 2.421925 1_555
Ca6 O14 2.549697 1_555
Ca6 O31 2.646770 1_565
Ca6 O6 2.647330 1_555
Ca6 O28 2.814313 1_555
Ca7 O34 2.346371 1_655
Ca7 O4 2.365569 1_554
Ca7 O3 2.367631 1_555
Ca7 O22 2.436290 1_655
Ca7 O23 2.623516 1_555
Ca7 O1 2.646281 1_555
Ca7 O15 2.788819 1_655
Ca7 O27 2.792915 1_655
Ca8 O8 2.344838 1_555
Ca8 O12 2.370667 1_555
Ca8 O25 2.372932 1_545
Ca8 O9 2.436699 1_554
Ca8 O27 2.558288 1_555
Ca8 O10 2.710977 1_554
Ca8 O1 2.724446 1_555
Ca8 O35 2.915792 1_554
Ca9 O13 2.344838 1_555
Ca9 O28 2.370667 1_555
Ca9 O35 2.372932 1_565
Ca9 O34 2.436699 1_556
Ca9 O4 2.558288 1_555
Ca9 O3 2.710977 1_556
Ca9 O16 2.724446 1_555
Ca9 O25 2.915792 1_556
Ca10 O29 2.344838 1_455
Ca10 O31 2.370667 1_555
Ca10 O14 2.372932 1_545
Ca10 O30 2.436699 1_455
Ca10 O19 2.558288 1_555
Ca10 O2 2.710977 1_555
Ca10 O21 2.724446 1_455
Ca10 O0 2.915792 1_455
Ca11 O5 2.343873 1_455
Ca11 O15 2.404924 1_555
Ca11 O8 2.413688 1_465
Ca11 O11 2.421925 1_555
Ca11 O25 2.549697 1_555
Ca11 O12 2.646770 1_565
Ca11 O3 2.647330 1_455
Ca11 O18 2.814313 1_455
Nb0 O16 1.949414 1_555
Nb0 O13 1.953316 1_555
Nb0 O4 1.954427 1_455
Nb0 O7 2.096210 1_455
Nb0 O28 2.100228 1_455
Nb0 O31 2.113175 1_565
Nb1 O14 1.939606 1_555
Nb1 O17 1.952732 1_555
Nb1 O6 1.963761 1_455
Nb1 O32 2.076061 1_555
Nb1 O7 2.103395 1_455
Nb1 O24 2.137906 1_455
Nb2 O1 1.949414 1_555
Nb2 O8 1.953316 1_555
Nb2 O27 1.954427 1_655
Nb2 O22 2.096210 1_655
Nb2 O12 2.100228 1_655
Nb2 O18 2.113175 1_545
Nb3 O11 1.949414 1_555
Nb3 O26 1.953316 1_555
Nb3 O20 1.954427 1_555
Nb3 O5 2.096210 1_555
Nb3 O18 2.100228 1_555
Nb3 O12 2.113175 1_565
Nb4 O0 1.939606 1_555
Nb4 O30 1.952732 1_555
Nb4 O2 1.963761 1_655
Nb4 O23 2.076061 1_555
Nb4 O22 2.103395 1_655
Nb4 O15 2.137906 1_655
Nb5 O35 1.939606 1_555
Nb5 O9 1.952732 1_555
Nb5 O10 1.963761 1_555
Nb5 O24 2.076061 1_555
Nb5 O33 2.103395 1_555
Nb5 O32 2.137906 1_555
Nb6 O21 1.949414 1_555
Nb6 O29 1.953316 1_555
Nb6 O19 1.954427 1_555
Nb6 O33 2.096210 1_555
Nb6 O31 2.100228 1_555
Nb6 O28 2.113175 1_545
Nb7 O25 1.939606 1_555
Nb7 O34 1.952732 1_555
Nb7 O3 1.963761 1_555
Nb7 O15 2.076061 1_555
Nb7 O5 2.103395 1_555
Nb7 O23 2.137906 1_555
Co0 O26 2.103922 1_545
Co0 O29 2.103922 1_555
Co0 O2 2.110781 1_555
Co0 O6 2.110781 1_545
Co0 O14 2.133649 1_545
Co0 O0 2.133649 1_555
Co1 O8 2.103922 1_455
Co1 O13 2.103922 1_544
Co1 O10 2.110781 1_554
Co1 O3 2.110781 1_445
Co1 O25 2.133649 1_545
Co1 O35 2.133649 1_454
Co2 O1 2.108106 1_555
Co2 O16 2.108106 1_554
Co2 O34 2.118434 1_555
Co2 O9 2.118434 1_554
Co2 O27 2.127766 1_555
Co2 O4 2.127766 1_554
Co3 O11 2.108106 1_555
Co3 O21 2.108106 1_455
Co3 O30 2.118434 1_455
Co3 O17 2.118434 1_555
Co3 O20 2.127766 1_455
Co3 O19 2.127766 1_555
