# generated using pymatgen
data_Tm2Ni12P7
_symmetry_space_group_name_H-M   'P 1'
_cell_length_a   8.95021444
_cell_length_b   8.95019988
_cell_length_c   3.64485851
_cell_angle_alpha   89.99999178
_cell_angle_beta   90.00000702
_cell_angle_gamma   119.99714151
_symmetry_Int_Tables_number   1
_chemical_formula_structural   Tm2Ni12P7
_chemical_formula_sum   'Tm2 Ni12 P7'
_cell_volume   252.86573849
_cell_formula_units_Z   1
loop_
 _symmetry_equiv_pos_site_id
 _symmetry_equiv_pos_as_xyz
  1  'x, y, z'
loop_
 _atom_site_type_symbol
 _atom_site_label
 _atom_site_symmetry_multiplicity
 _atom_site_fract_x
 _atom_site_fract_y
 _atom_site_fract_z
 _atom_site_occupancy
  Tm  Tm0  1  0.66666538  0.33334083  0.49999997  1
  Tm  Tm1  1  0.33333058  0.66666012  -0.00000004  1
  Ni  Ni0  1  0.43438022  0.06220033  -0.00000047  1
  Ni  Ni1  1  0.62782104  0.56562507  -0.00000030  1
  Ni  Ni2  1  0.93779175  0.37216262  -0.00000004  1
  Ni  Ni3  1  0.15266318  0.27517933  -0.00000007  1
  Ni  Ni4  1  0.12251130  0.84734436  0.00000016  1
  Ni  Ni5  1  0.72482231  0.87749250  -0.00000018  1
  Ni  Ni6  1  0.38143188  0.43183615  0.49999997  1
  Ni  Ni7  1  0.05040573  0.61856930  0.50000009  1
  Ni  Ni8  1  0.56816789  0.94959168  0.49999986  1
  Ni  Ni9  1  0.21562773  0.09390425  0.49999999  1
  Ni  Ni10  1  0.87827518  0.78437648  0.50000151  1
  Ni  Ni11  1  0.90611282  0.12170938  0.50000089  1
  P  P0  1  0.00001291  -0.00000133  0.00000000  1
  P  P1  1  0.40857234  0.29528733  -0.00000009  1
  P  P2  1  0.88671973  0.59144330  -0.00000008  1
  P  P3  1  0.70468956  0.11327847  -0.00000006  1
  P  P4  1  0.11141903  0.40599292  0.50000009  1
  P  P5  1  0.29456238  0.88859464  0.49999986  1
  P  P6  1  0.59402005  0.70541226  0.49999994  1
loop_
_geom_bond_atom_site_label_1
_geom_bond_atom_site_label_2
_geom_bond_distance
_geom_bond_site_symmetry_2
Ni0 P1 2.210728 1_555
Ni0 P3 2.226255 1_555
Ni0 P5 2.314583 1_544
Ni0 P5 2.314585 1_545
Ni0 Tm0 2.913393 1_554
Ni0 Tm0 2.913395 1_555
Ni0 Tm1 3.185785 1_545
Ni1 P2 2.210746 1_555
Ni1 P1 2.226540 1_555
Ni1 P6 2.314420 1_554
Ni1 P6 2.314422 1_555
Ni1 Tm0 2.913254 1_554
Ni1 Tm0 2.913255 1_555
Ni1 Tm1 3.185622 1_555
Ni2 P3 2.210835 1_555
Ni2 P2 2.226614 1_555
Ni2 P4 2.314596 1_654
Ni2 P4 2.314597 1_655
Ni2 Tm0 2.913325 1_554
Ni2 Tm0 2.913325 1_555
Ni2 Tm1 3.185881 1_655
Ni3 P0 2.137276 1_555
Ni3 P1 2.205977 1_555
Ni3 P4 2.293570 1_554
Ni3 P4 2.293571 1_555
Ni3 Tm1 3.037485 1_555
Ni4 P0 2.136973 1_565
Ni4 P2 2.205984 1_455
Ni4 P5 2.293545 1_555
Ni4 P5 2.293547 1_554
Ni4 Tm1 3.037537 1_555
Ni5 P0 2.137359 1_665
Ni5 P3 2.205947 1_565
Ni5 P6 2.293679 1_554
Ni5 P6 2.293679 1_555
Ni5 Tm1 3.037593 1_555
Ni6 P6 2.226490 1_555
Ni6 P1 2.273923 1_556
Ni6 P1 2.273924 1_555
Ni6 P4 2.309735 1_555
Ni6 Tm1 2.971292 1_555
Ni6 Tm1 2.971292 1_556
Ni6 Tm0 3.089460 1_555
Ni7 P4 2.226428 1_555
Ni7 P2 2.273947 1_456
Ni7 P2 2.273948 1_455
Ni7 P5 2.309836 1_555
Ni7 Tm1 2.971347 1_556
Ni7 Tm1 2.971348 1_555
Ni7 Tm0 3.089674 1_455
Ni8 P5 2.226661 1_555
Ni8 P3 2.273902 1_565
Ni8 P3 2.273903 1_566
Ni8 P6 2.309845 1_555
Ni8 Tm1 2.971444 1_555
Ni8 Tm1 2.971445 1_556
Ni8 Tm0 3.089700 1_565
Ni9 P5 2.274608 1_545
Ni9 P0 2.475876 1_555
Ni9 P0 2.475876 1_556
Ni9 P1 2.537678 1_556
Ni9 P1 2.537678 1_555
Ni10 P6 2.274698 1_555
Ni10 P0 2.475929 1_666
Ni10 P0 2.475936 1_665
Ni10 P2 2.537567 1_556
Ni10 P2 2.537575 1_555
Ni11 P4 2.274965 1_655
Ni11 P0 2.475809 1_656
Ni11 P0 2.475814 1_655
Ni11 P3 2.537898 1_556
Ni11 P3 2.537903 1_555
P1 Tm0 2.826059 1_555
P1 Tm0 2.826059 1_554
P2 Tm0 2.826192 1_554
P2 Tm0 2.826192 1_555
P3 Tm0 2.826065 1_554
P3 Tm0 2.826066 1_555
P4 Tm1 2.841780 1_556
P4 Tm1 2.841780 1_555
P5 Tm1 2.841908 1_555
P5 Tm1 2.841908 1_556
P6 Tm1 2.841884 1_555
P6 Tm1 2.841885 1_556
