# generated using pymatgen
data_Eu2Re6S11
_symmetry_space_group_name_H-M   'P 1'
_cell_length_a   11.81392455
_cell_length_b   11.81392455
_cell_length_c   11.81392371
_cell_angle_alpha   45.35388970
_cell_angle_beta   45.35388970
_cell_angle_gamma   45.35389020
_symmetry_Int_Tables_number   1
_chemical_formula_structural   Eu2Re6S11
_chemical_formula_sum   'Eu4 Re12 S22'
_cell_volume   760.21777612
_cell_formula_units_Z   2
loop_
 _symmetry_equiv_pos_site_id
 _symmetry_equiv_pos_as_xyz
  1  'x, y, z'
loop_
 _atom_site_type_symbol
 _atom_site_label
 _atom_site_symmetry_multiplicity
 _atom_site_fract_x
 _atom_site_fract_y
 _atom_site_fract_z
 _atom_site_occupancy
  Eu  Eu0  1  0.80977800  0.80977800  0.80977800  1
  Eu  Eu1  1  0.69022200  0.69022200  0.69022200  1
  Eu  Eu2  1  0.19022200  0.19022200  0.19022200  1
  Eu  Eu3  1  0.30977800  0.30977800  0.30977800  1
  Re  Re0  1  0.71377600  0.50556900  0.38378300  1
  Re  Re1  1  0.50556900  0.38378300  0.71377600  1
  Re  Re2  1  0.78622400  0.11621700  0.99443100  1
  Re  Re3  1  0.00556900  0.21377600  0.88378300  1
  Re  Re4  1  0.21377600  0.88378300  0.00556900  1
  Re  Re5  1  0.99443100  0.78622400  0.11621700  1
  Re  Re6  1  0.61621700  0.28622400  0.49443100  1
  Re  Re7  1  0.38378300  0.71377600  0.50556900  1
  Re  Re8  1  0.88378300  0.00556900  0.21377600  1
  Re  Re9  1  0.28622400  0.49443100  0.61621700  1
  Re  Re10  1  0.49443100  0.61621700  0.28622400  1
  Re  Re11  1  0.11621700  0.99443100  0.78622400  1
  S  S0  1  0.80064600  0.41678800  0.19167900  1
  S  S1  1  0.19935400  0.58321200  0.80832100  1
  S  S2  1  0.75000000  0.00006400  0.49993600  1
  S  S3  1  0.91678800  0.30064600  0.69167900  1
  S  S4  1  0.90720700  0.90720700  0.90720700  1
  S  S5  1  0.58321200  0.80832100  0.19935400  1
  S  S6  1  0.69935400  0.30832100  0.08321200  1
  S  S7  1  0.30832100  0.08321200  0.69935400  1
  S  S8  1  0.30064600  0.69167900  0.91678800  1
  S  S9  1  0.69167900  0.91678800  0.30064600  1
  S  S10  1  0.25000000  0.99993600  0.50006400  1
  S  S11  1  0.08321200  0.69935400  0.30832100  1
  S  S12  1  0.49993600  0.75000000  0.00006400  1
  S  S13  1  0.00006400  0.49993600  0.75000000  1
  S  S14  1  0.09279300  0.09279300  0.09279300  1
  S  S15  1  0.19167900  0.80064600  0.41678800  1
  S  S16  1  0.80832100  0.19935400  0.58321200  1
  S  S17  1  0.41678800  0.19167900  0.80064600  1
  S  S18  1  0.40720700  0.40720700  0.40720700  1
  S  S19  1  0.99993600  0.50006400  0.25000000  1
  S  S20  1  0.59279300  0.59279300  0.59279300  1
  S  S21  1  0.50006400  0.25000000  0.99993600  1
loop_
_geom_bond_atom_site_label_1
_geom_bond_atom_site_label_2
_geom_bond_distance
_geom_bond_site_symmetry_2
Eu0 S2 2.964454 1_565
Eu0 S13 2.964454 1_655
Eu0 S12 2.964455 1_556
Eu0 S4 3.092013 1_555
Eu0 S5 3.314605 1_556
Eu0 S1 3.314605 1_655
Eu0 S16 3.314605 1_565
Eu0 S15 3.535906 1_655
Eu0 S0 3.535906 1_556
Eu0 S17 3.535907 1_565
Eu1 S12 2.964454 1_556
Eu1 S13 2.964454 1_655
Eu1 S2 2.964455 1_565
Eu1 S20 3.092013 1_555
Eu1 S9 3.314605 1_555
Eu1 S3 3.314605 1_555
Eu1 S8 3.314605 1_555
Eu1 S6 3.535906 1_556
Eu1 S11 3.535906 1_655
Eu1 S7 3.535907 1_565
Eu2 S10 2.964454 1_545
Eu2 S19 2.964454 1_455
Eu2 S21 2.964455 1_554
Eu2 S14 3.092013 1_555
Eu2 S17 3.314605 1_554
Eu2 S0 3.314605 1_455
Eu2 S15 3.314605 1_545
Eu2 S16 3.535906 1_455
Eu2 S1 3.535906 1_554
Eu2 S5 3.535907 1_545
Eu3 S21 2.964454 1_554
Eu3 S19 2.964454 1_455
Eu3 S10 2.964455 1_545
Eu3 S18 3.092013 1_555
Eu3 S7 3.314605 1_555
Eu3 S11 3.314605 1_555
Eu3 S6 3.314605 1_555
Eu3 S8 3.535906 1_554
Eu3 S3 3.535906 1_455
Eu3 S9 3.535907 1_545
Re0 S20 2.397443 1_555
Re0 S0 2.421392 1_555
Re0 S16 2.434368 1_555
Re0 S5 2.436425 1_555
Re0 S19 2.501413 1_555
Re1 S20 2.397443 1_555
Re1 S17 2.421392 1_555
Re1 S1 2.434369 1_555
Re1 S16 2.436425 1_555
Re1 S21 2.501413 1_555
Re2 S4 2.397443 1_545
Re2 S6 2.421392 1_556
Re2 S9 2.434368 1_546
Re2 S3 2.436425 1_555
Re2 S21 2.501413 1_555
Re3 S14 2.397443 1_556
Re3 S3 2.421392 1_455
Re3 S6 2.434368 1_456
Re3 S7 2.436425 1_555
Re3 S13 2.501413 1_555
Re4 S14 2.397443 1_565
Re4 S8 2.421392 1_554
Re4 S7 2.434368 1_564
Re4 S11 2.436425 1_555
Re4 S12 2.501413 1_555
Re5 S4 2.397443 1_554
Re5 S11 2.421392 1_655
Re5 S8 2.434368 1_654
Re5 S9 2.436425 1_555
Re5 S19 2.501413 1_555
Re6 S18 2.397443 1_555
Re6 S16 2.421392 1_555
Re6 S17 2.434368 1_555
Re6 S0 2.436425 1_555
Re6 S2 2.501413 1_555
Re7 S20 2.397443 1_555
Re7 S15 2.421392 1_555
Re7 S5 2.434368 1_555
Re7 S1 2.436425 1_555
Re7 S10 2.501413 1_555
Re8 S14 2.397443 1_655
Re8 S9 2.421392 1_545
Re8 S11 2.434369 1_645
Re8 S6 2.436425 1_555
Re8 S2 2.501413 1_555
Re9 S18 2.397443 1_555
Re9 S1 2.421392 1_555
Re9 S15 2.434368 1_555
Re9 S17 2.436425 1_555
Re9 S13 2.501413 1_555
Re10 S18 2.397443 1_555
Re10 S5 2.421392 1_555
Re10 S0 2.434369 1_555
Re10 S15 2.436425 1_555
Re10 S12 2.501413 1_555
Re11 S4 2.397443 1_455
Re11 S7 2.421392 1_565
Re11 S3 2.434369 1_465
Re11 S8 2.436425 1_555
Re11 S10 2.501413 1_555
