# generated using pymatgen
data_Li3Ni2(PO4)3
_symmetry_space_group_name_H-M   'P 1'
_cell_length_a   9.75254642
_cell_length_b   9.75254642
_cell_length_c   9.69638154
_cell_angle_alpha   85.86009675
_cell_angle_beta   85.86009675
_cell_angle_gamma   85.14725025
_symmetry_Int_Tables_number   1
_chemical_formula_structural   Li3Ni2(PO4)3
_chemical_formula_sum   'Li12 Ni8 P12 O48'
_cell_volume   914.51159078
_cell_formula_units_Z   4
loop_
 _symmetry_equiv_pos_site_id
 _symmetry_equiv_pos_as_xyz
  1  'x, y, z'
loop_
 _atom_site_type_symbol
 _atom_site_label
 _atom_site_symmetry_multiplicity
 _atom_site_fract_x
 _atom_site_fract_y
 _atom_site_fract_z
 _atom_site_occupancy
  Li  Li0  1  0.24971200  0.37561100  0.19726800  1
  Li  Li1  1  0.62438900  0.75028800  0.80273200  1
  Li  Li2  1  0.98154400  0.50238300  0.24278000  1
  Li  Li3  1  0.49761700  0.01845600  0.75722000  1
  Li  Li4  1  0.44443900  0.22540200  0.52097300  1
  Li  Li5  1  0.77459800  0.55556100  0.47902700  1
  Li  Li6  1  0.75776700  0.98103800  0.60175100  1
  Li  Li7  1  0.76762600  0.73307800  0.18121100  1
  Li  Li8  1  0.01896200  0.24223300  0.39824900  1
  Li  Li9  1  0.07063100  0.70103000  0.01831300  1
  Li  Li10  1  0.26692200  0.23237400  0.81878900  1
  Li  Li11  1  0.29897000  0.92936900  0.98168700  1
  Ni  Ni0  1  0.46737000  0.53263000  0.50000000  1
  Ni  Ni1  1  0.25024500  0.74975500  0.50000000  1
  Ni  Ni2  1  0.74645400  0.03016900  0.21490400  1
  Ni  Ni3  1  0.96983100  0.25354600  0.78509600  1
  Ni  Ni4  1  0.03576600  0.75028700  0.71727200  1
  Ni  Ni5  1  0.24971300  0.96423400  0.28272800  1
  Ni  Ni6  1  0.75173000  0.24827000  0.00000000  1
  Ni  Ni7  1  0.53378700  0.46621300  0.00000000  1
  P  P0  1  0.05077200  0.17274300  0.09729300  1
  P  P1  1  0.16266500  0.44779800  0.57252000  1
  P  P2  1  0.44960900  0.15710400  0.07269900  1
  P  P3  1  0.94851300  0.82105200  0.40597700  1
  P  P4  1  0.66053700  0.32111300  0.69917000  1
  P  P5  1  0.82725700  0.94922800  0.90270700  1
  P  P6  1  0.34755100  0.68034000  0.80131500  1
  P  P7  1  0.55220200  0.83733500  0.42748000  1
  P  P8  1  0.31966000  0.65244900  0.19868500  1
  P  P9  1  0.84289600  0.55039100  0.92730100  1
  P  P10  1  0.17894800  0.05148700  0.59402300  1
  P  P11  1  0.67888700  0.33946300  0.30083000  1
  O  O0  1  0.80048500  0.90537100  0.05867400  1
  O  O1  1  0.10907200  0.82434600  0.37248500  1
  O  O2  1  0.91072500  0.81989800  0.56480400  1
  O  O3  1  0.59341500  0.19714000  0.65218100  1
  O  O4  1  0.37726100  0.67132200  0.63922900  1
  O  O5  1  0.08551800  0.28601900  0.18786200  1
  O  O6  1  0.59437400  0.90463400  0.55372700  1
  O  O7  1  0.40975000  0.31479000  0.07261700  1
  O  O8  1  0.71398100  0.91448200  0.81213800  1
  O  O9  1  0.61037100  0.12297000  0.07591100  1
  O  O10  1  0.88464600  0.96226900  0.34866700  1
  O  O11  1  0.89042900  0.16198200  0.12419500  1
  O  O12  1  0.46125900  0.59465100  0.13853100  1
  O  O13  1  0.67221900  0.37574700  0.13989900  1
  O  O14  1  0.30353700  0.10368100  0.65721500  1
  O  O15  1  0.83801800  0.10957100  0.87580500  1
  O  O16  1  0.68745000  0.18168500  0.33797100  1
  O  O17  1  0.11553900  0.37561300  0.71282200  1
  O  O18  1  0.81831500  0.31255000  0.66202900  1
  O  O19  1  0.39936000  0.09856900  0.94315100  1
  O  O20  1  0.62438700  0.88446100  0.28717800  1
  O  O21  1  0.17565400  0.89092800  0.62751500  1
  O  O22  1  0.97020000  0.87616200  0.86351300  1
  O  O23  1  0.12840400  0.60774300  0.58271500  1
  O  O24  1  0.68521000  0.59025000  0.92738300  1
  O  O25  1  0.19152800  0.69510700  0.84477400  1
  O  O26  1  0.03773100  0.11535400  0.65133300  1
  O  O27  1  0.09536600  0.40562600  0.44627300  1
  O  O28  1  0.12383800  0.02980000  0.13648700  1
  O  O29  1  0.89631900  0.69646300  0.34278500  1
  O  O30  1  0.90143100  0.60064000  0.05684900  1
  O  O31  1  0.19734500  0.57937400  0.15550500  1
  O  O32  1  0.32867800  0.62273900  0.36077100  1
  O  O33  1  0.32163600  0.40683800  0.56172900  1
  O  O34  1  0.40534900  0.53874100  0.86146900  1
  O  O35  1  0.62425300  0.32778100  0.86010100  1
  O  O36  1  0.38675300  0.09488400  0.21097900  1
  O  O37  1  0.87703000  0.38962900  0.92408900  1
  O  O38  1  0.53754100  0.38838400  0.37163600  1
  O  O39  1  0.42062600  0.80265500  0.84449500  1
  O  O40  1  0.61161600  0.46245900  0.62836400  1
  O  O41  1  0.59316200  0.67836400  0.43827100  1
  O  O42  1  0.18010200  0.08927500  0.43519600  1
  O  O43  1  0.90511600  0.61324700  0.78902100  1
  O  O44  1  0.39225700  0.87159600  0.41728500  1
  O  O45  1  0.30489300  0.80847200  0.15522600  1
  O  O46  1  0.09462900  0.19951500  0.94132600  1
  O  O47  1  0.80286000  0.40658500  0.34781900  1
loop_
_geom_bond_atom_site_label_1
_geom_bond_atom_site_label_2
_geom_bond_distance
_geom_bond_site_symmetry_2
Li0 O5 1.898753 1_555
Li0 O7 1.980717 1_555
Li0 O31 2.028736 1_555
Li1 O8 1.898753 1_555
Li1 O24 1.980717 1_555
Li1 O39 2.028736 1_555
Li2 O30 2.146219 1_555
Li2 O47 2.197442 1_555
Li2 O29 2.257472 1_555
Li2 O5 2.342342 1_655
Li2 O31 2.372294 1_655
Li2 O27 2.426138 1_655
Li3 O19 2.146219 1_555
Li3 O3 2.197442 1_555
Li3 O14 2.257472 1_555
Li3 O8 2.342342 1_545
Li3 O39 2.372294 1_545
Li3 O6 2.426138 1_545
Li4 O3 1.988461 1_555
Li4 O33 2.096568 1_555
Li4 O14 2.197755 1_555
Li4 O38 2.273702 1_555
Li5 O47 1.988461 1_555
Li5 O41 2.096568 1_555
Li5 O29 2.197755 1_555
Li5 O40 2.273702 1_555
Li6 O6 1.915574 1_555
Li6 O2 2.104944 1_555
Li6 O8 2.120182 1_555
Li6 O3 2.591154 1_565
Li7 O0 2.021310 1_555
Li7 O29 2.069915 1_555
Li7 O30 2.130195 1_555
Li7 O20 2.202207 1_555
Li8 O27 1.915574 1_555
Li8 O42 2.104944 1_555
Li8 O5 2.120182 1_555
Li8 O47 2.591154 1_455
Li9 O25 1.985205 1_554
Li9 O30 1.988115 1_455
Li9 O31 2.113257 1_555
Li9 O22 2.385083 1_454
Li10 O46 2.021310 1_555
Li10 O14 2.069915 1_555
Li10 O19 2.130195 1_555
Li10 O17 2.202207 1_555
Li11 O45 1.985205 1_556
Li11 O19 1.988115 1_565
Li11 O39 2.113257 1_555
Li11 O28 2.385083 1_566
Ni0 O33 1.987326 1_555
Ni0 O41 1.987326 1_555
Ni0 O40 1.990843 1_555
Ni0 O38 1.990843 1_555
Ni0 O4 2.077401 1_555
Ni0 O32 2.077401 1_555
Ni1 O4 1.968285 1_555
Ni1 O32 1.968285 1_555
Ni1 O21 1.974840 1_555
Ni1 O1 1.974840 1_555
Ni1 O44 1.988428 1_555
Ni1 O23 1.988428 1_555
Ni2 O10 1.978510 1_545
Ni2 O20 1.987361 1_545
Ni2 O16 1.987509 1_555
Ni2 O0 2.023921 1_545
Ni2 O9 2.067787 1_555
Ni2 O11 2.088429 1_555
Ni3 O26 1.978510 1_655
Ni3 O17 1.987361 1_655
Ni3 O18 1.987509 1_555
Ni3 O46 2.023921 1_655
Ni3 O37 2.067787 1_555
Ni3 O15 2.088429 1_555
Ni4 O22 1.978444 1_455
Ni4 O43 1.979797 1_455
Ni4 O2 2.027052 1_455
Ni4 O25 2.040206 1_555
Ni4 O23 2.080931 1_555
Ni4 O21 2.114896 1_555
Ni5 O28 1.978444 1_565
Ni5 O36 1.979797 1_565
Ni5 O42 2.027052 1_565
Ni5 O45 2.040206 1_555
Ni5 O44 2.080931 1_555
Ni5 O1 2.114896 1_555
Ni6 O11 1.970879 1_555
Ni6 O15 1.970879 1_554
Ni6 O13 1.978776 1_555
Ni6 O35 1.978776 1_554
Ni6 O9 1.986018 1_555
Ni6 O37 1.986018 1_554
Ni7 O12 1.956907 1_555
Ni7 O34 1.956907 1_554
Ni7 O7 2.041826 1_555
Ni7 O24 2.041826 1_554
Ni7 O35 2.081179 1_554
Ni7 O13 2.081179 1_555
O0 P5 1.551354 1_554
O1 P3 1.578605 1_455
O2 P3 1.556901 1_555
O3 P4 1.534413 1_555
O4 P6 1.584822 1_555
O5 P0 1.533902 1_555
O6 P7 1.527357 1_555
O7 P2 1.553959 1_555
O8 P5 1.533902 1_555
O9 P2 1.577072 1_555
O10 P3 1.545268 1_555
O11 P0 1.577751 1_655
O12 P8 1.537674 1_555
O13 P11 1.579708 1_555
O14 P10 1.538860 1_555
O15 P5 1.577751 1_545
O16 P11 1.551442 1_555
O17 P1 1.543944 1_555
O18 P4 1.551442 1_555
O19 P2 1.543922 1_556
O20 P7 1.543944 1_555
O21 P10 1.578605 1_565
O22 P5 1.546006 1_555
O23 P1 1.576048 1_555
O24 P9 1.553959 1_555
O25 P6 1.546853 1_555
O26 P10 1.545268 1_555
O27 P1 1.527357 1_555
O28 P0 1.546006 1_555
O29 P3 1.538860 1_555
O30 P9 1.543922 1_554
O31 P8 1.537918 1_555
O32 P8 1.584822 1_555
O33 P1 1.565887 1_555
O34 P6 1.537674 1_555
O35 P4 1.579708 1_555
O36 P2 1.539013 1_555
O37 P9 1.577072 1_555
O38 P11 1.548737 1_555
O39 P6 1.537918 1_555
O40 P4 1.548737 1_555
O41 P7 1.565887 1_555
O42 P10 1.556901 1_555
O43 P9 1.539013 1_555
O44 P7 1.576048 1_555
O45 P8 1.546853 1_555
O46 P0 1.551354 1_556
O47 P11 1.534413 1_555
