# generated using pymatgen
data_Mg3B(HO2)3
_symmetry_space_group_name_H-M   'P 1'
_cell_length_a   9.11638971
_cell_length_b   9.11638971
_cell_length_c   3.20620900
_cell_angle_alpha   90.00000000
_cell_angle_beta   90.00000000
_cell_angle_gamma   119.99999792
_symmetry_Int_Tables_number   1
_chemical_formula_structural   Mg3B(HO2)3
_chemical_formula_sum   'Mg6 B2 H6 O12'
_cell_volume   230.76409363
_cell_formula_units_Z   2
loop_
 _symmetry_equiv_pos_site_id
 _symmetry_equiv_pos_as_xyz
  1  'x, y, z'
loop_
 _atom_site_type_symbol
 _atom_site_label
 _atom_site_symmetry_multiplicity
 _atom_site_fract_x
 _atom_site_fract_y
 _atom_site_fract_z
 _atom_site_occupancy
  Mg  Mg0  1  0.96732000  0.62397700  0.25000000  1
  Mg  Mg1  1  0.62397700  0.65665700  0.75000000  1
  Mg  Mg2  1  0.37602300  0.34334300  0.25000000  1
  Mg  Mg3  1  0.03268000  0.37602300  0.75000000  1
  Mg  Mg4  1  0.34334300  0.96732000  0.75000000  1
  Mg  Mg5  1  0.65665700  0.03268000  0.25000000  1
  B  B0  1  0.66666700  0.33333300  0.75000000  1
  B  B1  1  0.33333300  0.66666700  0.25000000  1
  H  H0  1  0.99527000  0.16632300  0.25000000  1
  H  H1  1  0.83367700  0.82894700  0.25000000  1
  H  H2  1  0.16632300  0.17105300  0.75000000  1
  H  H3  1  0.82894700  0.99527000  0.75000000  1
  H  H4  1  0.17105300  0.00473000  0.25000000  1
  H  H5  1  0.00473000  0.83367700  0.75000000  1
  O  O0  1  0.55606100  0.39839400  0.75000000  1
  O  O1  1  0.39839400  0.84233300  0.25000000  1
  O  O2  1  0.70794000  0.91397700  0.75000000  1
  O  O3  1  0.91397700  0.20603700  0.25000000  1
  O  O4  1  0.60160600  0.15766700  0.75000000  1
  O  O5  1  0.84233300  0.44393900  0.75000000  1
  O  O6  1  0.20603700  0.29206000  0.75000000  1
  O  O7  1  0.15766700  0.55606100  0.25000000  1
  O  O8  1  0.08602300  0.79396300  0.75000000  1
  O  O9  1  0.29206000  0.08602300  0.25000000  1
  O  O10  1  0.44393900  0.60160600  0.25000000  1
  O  O11  1  0.79396300  0.70794000  0.25000000  1
loop_
_geom_bond_atom_site_label_1
_geom_bond_atom_site_label_2
_geom_bond_distance
_geom_bond_site_symmetry_2
Mg0 O11 2.072009 1_555
Mg0 O8 2.113165 1_655
Mg0 O8 2.113165 1_654
Mg0 O7 2.113984 1_655
Mg0 O5 2.166093 1_554
Mg0 O5 2.166093 1_555
Mg1 O2 2.072009 1_555
Mg1 O11 2.113165 1_555
Mg1 O11 2.113165 1_556
Mg1 O0 2.113984 1_555
Mg1 O10 2.166093 1_556
Mg1 O10 2.166093 1_555
Mg2 O9 2.072009 1_555
Mg2 O6 2.113165 1_554
Mg2 O6 2.113165 1_555
Mg2 O10 2.113984 1_555
Mg2 O0 2.166093 1_555
Mg2 O0 2.166093 1_554
Mg3 O6 2.072009 1_555
Mg3 O3 2.113165 1_456
Mg3 O3 2.113165 1_455
Mg3 O5 2.113984 1_455
Mg3 O7 2.166093 1_555
Mg3 O7 2.166093 1_556
Mg4 O8 2.072009 1_555
Mg4 O9 2.113165 1_565
Mg4 O9 2.113165 1_566
Mg4 O4 2.113984 1_565
Mg4 O1 2.166093 1_555
Mg4 O1 2.166093 1_556
Mg5 O3 2.072009 1_555
Mg5 O2 2.113165 1_544
Mg5 O2 2.113165 1_545
Mg5 O1 2.113984 1_545
Mg5 O4 2.166093 1_555
Mg5 O4 2.166093 1_554
B0 O4 1.402339 1_555
B0 O5 1.402340 1_555
B0 O0 1.402347 1_555
B1 O1 1.402339 1_555
B1 O7 1.402340 1_555
B1 O10 1.402347 1_555
H0 O3 0.973971 1_555
H1 O11 0.973971 1_555
H2 O6 0.973971 1_555
H3 O2 0.973971 1_555
H4 O9 0.973971 1_555
H5 O8 0.973971 1_555
