# generated using pymatgen
data_VPO5
_symmetry_space_group_name_H-M   'P 1'
_cell_length_a   6.18453933
_cell_length_b   6.18453933
_cell_length_c   4.21732884
_cell_angle_alpha   90.00000000
_cell_angle_beta   90.00000000
_cell_angle_gamma   90.00000000
_symmetry_Int_Tables_number   1
_chemical_formula_structural   VPO5
_chemical_formula_sum   'V2 P2 O10'
_cell_volume   161.30661484
_cell_formula_units_Z   2
loop_
 _symmetry_equiv_pos_site_id
 _symmetry_equiv_pos_as_xyz
  1  'x, y, z'
loop_
 _atom_site_type_symbol
 _atom_site_label
 _atom_site_symmetry_multiplicity
 _atom_site_fract_x
 _atom_site_fract_y
 _atom_site_fract_z
 _atom_site_occupancy
  V  V0  1  0.50000000  0.00000000  0.37743037  1
  V  V1  1  -0.00000000  0.50000000  0.62256963  1
  P  P0  1  0.50000000  0.50000000  0.50000000  1
  P  P1  1  -0.00000000  0.00000000  0.50000000  1
  O  O0  1  -0.00000000  0.50000000  0.24532372  1
  O  O1  1  0.70092119  0.51214558  0.71199577  1
  O  O2  1  0.50000000  0.00000000  0.75467628  1
  O  O3  1  0.01214558  0.79907881  0.71199577  1
  O  O4  1  0.79907881  0.98785442  0.28800423  1
  O  O5  1  0.51214558  0.29907881  0.28800423  1
  O  O6  1  0.48785442  0.70092119  0.28800423  1
  O  O7  1  0.98785442  0.20092119  0.71199577  1
  O  O8  1  0.29907881  0.48785442  0.71199577  1
  O  O9  1  0.20092119  0.01214558  0.28800423  1
loop_
_geom_bond_atom_site_label_1
_geom_bond_atom_site_label_2
_geom_bond_distance
_geom_bond_site_symmetry_2
O0 V1 1.590970 1_555
O1 P0 1.532660 1_555
O1 V1 1.889216 1_655
O2 V0 1.590970 1_555
O3 P1 1.532660 1_565
O3 V1 1.889216 1_555
O4 P1 1.532660 1_665
O4 V0 1.889216 1_565
O5 P0 1.532660 1_555
O5 V0 1.889216 1_555
O6 P0 1.532660 1_555
O6 V0 1.889216 1_565
O7 P1 1.532660 1_655
O7 V1 1.889216 1_655
O8 P0 1.532660 1_555
O8 V1 1.889216 1_555
O9 P1 1.532660 1_555
O9 V0 1.889216 1_555
