# generated using pymatgen
data_Ce(IO3)3
_symmetry_space_group_name_H-M   'P 1'
_cell_length_a   6.06245100
_cell_length_b   8.97103300
_cell_length_c   17.05991382
_cell_angle_alpha   64.94443947
_cell_angle_beta   90.00000000
_cell_angle_gamma   90.00000000
_symmetry_Int_Tables_number   1
_chemical_formula_structural   Ce(IO3)3
_chemical_formula_sum   'Ce4 I12 O36'
_cell_volume   840.51720948
_cell_formula_units_Z   4
loop_
 _symmetry_equiv_pos_site_id
 _symmetry_equiv_pos_as_xyz
  1  'x, y, z'
loop_
 _atom_site_type_symbol
 _atom_site_label
 _atom_site_symmetry_multiplicity
 _atom_site_fract_x
 _atom_site_fract_y
 _atom_site_fract_z
 _atom_site_occupancy
  Ce  Ce0  1  0.76746400  0.86156100  0.09936500  1
  Ce  Ce1  1  0.26746400  0.13843900  0.40063500  1
  Ce  Ce2  1  0.23253600  0.13843900  0.90063500  1
  Ce  Ce3  1  0.73253600  0.86156100  0.59936500  1
  I  I0  1  0.09044000  0.58448700  0.30165800  1
  I  I1  1  0.59044000  0.41551300  0.19834200  1
  I  I2  1  0.90956000  0.41551300  0.69834200  1
  I  I3  1  0.40956000  0.58448700  0.80165800  1
  I  I4  1  0.13690600  0.64004100  0.02252000  1
  I  I5  1  0.63690600  0.35995900  0.47748000  1
  I  I6  1  0.86309400  0.35995900  0.97748000  1
  I  I7  1  0.36309400  0.64004100  0.52252000  1
  I  I8  1  0.31216400  0.06949100  0.14921700  1
  I  I9  1  0.81216400  0.93050900  0.35078300  1
  I  I10  1  0.68783600  0.93050900  0.85078300  1
  I  I11  1  0.18783600  0.06949100  0.64921700  1
  O  O0  1  0.81730600  0.65660100  0.25427100  1
  O  O1  1  0.31730600  0.34339900  0.24572900  1
  O  O2  1  0.18269400  0.34339900  0.74572900  1
  O  O3  1  0.68269400  0.65660100  0.75427100  1
  O  O4  1  0.08610500  0.66802100  0.38287700  1
  O  O5  1  0.58610500  0.33197900  0.11712300  1
  O  O6  1  0.91389500  0.33197900  0.61712300  1
  O  O7  1  0.41389500  0.66802100  0.88287700  1
  O  O8  1  0.00110500  0.37000600  0.36849300  1
  O  O9  1  0.50110500  0.62999400  0.13150700  1
  O  O10  1  0.99889500  0.62999400  0.63150700  1
  O  O11  1  0.49889500  0.37000600  0.86849300  1
  O  O12  1  0.96775100  0.59791200  0.11923600  1
  O  O13  1  0.46775100  0.40208800  0.38076400  1
  O  O14  1  0.03224900  0.40208800  0.88076400  1
  O  O15  1  0.53224900  0.59791200  0.61923600  1
  O  O16  1  0.91352100  0.64167600  0.94636800  1
  O  O17  1  0.41352100  0.35832400  0.55363200  1
  O  O18  1  0.08647900  0.35832400  0.05363200  1
  O  O19  1  0.58647900  0.64167600  0.44636800  1
  O  O20  1  0.10056400  0.86628600  0.99024900  1
  O  O21  1  0.60056400  0.13371400  0.50975100  1
  O  O22  1  0.89943600  0.13371400  0.00975100  1
  O  O23  1  0.39943600  0.86628600  0.49024900  1
  O  O24  1  0.55061100  0.93715600  0.20235900  1
  O  O25  1  0.05061100  0.06284400  0.29764100  1
  O  O26  1  0.44938900  0.06284400  0.79764100  1
  O  O27  1  0.94938900  0.93715600  0.70235900  1
  O  O28  1  0.10563700  0.90483200  0.17076200  1
  O  O29  1  0.60563700  0.09516800  0.32923800  1
  O  O30  1  0.89436300  0.09516800  0.82923800  1
  O  O31  1  0.39436300  0.90483200  0.67076200  1
  O  O32  1  0.40568900  0.09228500  0.04131500  1
  O  O33  1  0.90568900  0.90771500  0.45868500  1
  O  O34  1  0.59431100  0.90771500  0.95868500  1
  O  O35  1  0.09431100  0.09228500  0.54131500  1
loop_
_geom_bond_atom_site_label_1
_geom_bond_atom_site_label_2
_geom_bond_distance
_geom_bond_site_symmetry_2
Ce0 O22 2.403496 1_565
Ce0 O34 2.488303 1_554
Ce0 O28 2.497578 1_655
Ce0 O9 2.501792 1_555
Ce0 O24 2.506949 1_555
Ce0 O0 2.517989 1_555
Ce0 O12 2.550362 1_555
Ce0 O20 2.734624 1_654
Ce0 O32 2.887749 1_565
Ce1 O23 2.403496 1_545
Ce1 O35 2.488303 1_555
Ce1 O29 2.497578 1_555
Ce1 O8 2.501792 1_555
Ce1 O25 2.506949 1_555
Ce1 O1 2.517989 1_555
Ce1 O13 2.550362 1_555
Ce1 O21 2.734624 1_555
Ce1 O33 2.887749 1_445
Ce2 O20 2.403496 1_545
Ce2 O32 2.488303 1_556
Ce2 O30 2.497578 1_455
Ce2 O11 2.501792 1_555
Ce2 O26 2.506949 1_555
Ce2 O2 2.517989 1_555
Ce2 O14 2.550362 1_555
Ce2 O22 2.734624 1_456
Ce2 O34 2.887749 1_545
Ce3 O21 2.403496 1_565
Ce3 O33 2.488303 1_555
Ce3 O31 2.497578 1_555
Ce3 O10 2.501792 1_555
Ce3 O27 2.506949 1_555
Ce3 O3 2.517989 1_555
Ce3 O15 2.550362 1_555
Ce3 O23 2.734624 1_555
Ce3 O35 2.887749 1_665
I0 O4 1.833466 1_555
I0 O0 1.836020 1_455
I0 O8 1.854022 1_555
I1 O5 1.833466 1_555
I1 O1 1.836020 1_555
I1 O9 1.854022 1_555
I2 O6 1.833466 1_555
I2 O2 1.836020 1_655
I2 O10 1.854022 1_555
I3 O7 1.833466 1_555
I3 O3 1.836020 1_555
I3 O11 1.854022 1_555
I4 O12 1.840840 1_455
I4 O16 1.872399 1_454
I4 O20 1.877415 1_554
I4 O18 2.371965 1_555
I5 O13 1.840840 1_555
I5 O17 1.872399 1_555
I5 O21 1.877415 1_555
I5 O19 2.371965 1_555
I6 O14 1.840840 1_655
I6 O18 1.872399 1_656
I6 O22 1.877415 1_556
I6 O16 2.371965 1_555
I7 O15 1.840840 1_555
I7 O19 1.872399 1_555
I7 O23 1.877415 1_555
I7 O17 2.371965 1_555
I8 O24 1.846452 1_545
I8 O28 1.850646 1_545
I8 O32 1.852838 1_555
I9 O25 1.846452 1_665
I9 O29 1.850646 1_565
I9 O33 1.852838 1_555
I10 O26 1.846452 1_565
I10 O30 1.850646 1_565
I10 O34 1.852838 1_555
I11 O27 1.846452 1_445
I11 O31 1.850646 1_545
I11 O35 1.852838 1_555
