# generated using pymatgen
data_Ge3Os2
_symmetry_space_group_name_H-M   'P 1'
_cell_length_a   5.77819146
_cell_length_b   5.77819146
_cell_length_c   9.30200365
_cell_angle_alpha   90.00000000
_cell_angle_beta   90.00000000
_cell_angle_gamma   90.00000000
_symmetry_Int_Tables_number   1
_chemical_formula_structural   Ge3Os2
_chemical_formula_sum   'Ge12 Os8'
_cell_volume   310.57061476
_cell_formula_units_Z   4
loop_
 _symmetry_equiv_pos_site_id
 _symmetry_equiv_pos_as_xyz
  1  'x, y, z'
loop_
 _atom_site_type_symbol
 _atom_site_label
 _atom_site_symmetry_multiplicity
 _atom_site_fract_x
 _atom_site_fract_y
 _atom_site_fract_z
 _atom_site_occupancy
  Ge  Ge0  1  0.21761742  0.34960242  0.08527257  1
  Ge  Ge1  1  0.34960242  0.78238258  0.91472743  1
  Ge  Ge2  1  0.65039758  0.21761742  0.91472743  1
  Ge  Ge3  1  0.78238258  0.65039758  0.08527257  1
  Ge  Ge4  1  0.34960242  0.21761742  0.41472743  1
  Ge  Ge5  1  0.65039758  0.78238258  0.41472743  1
  Ge  Ge6  1  0.78238258  0.34960242  0.58527257  1
  Ge  Ge7  1  0.21761742  0.65039758  0.58527257  1
  Ge  Ge8  1  0.17132469  0.17132469  0.75000000  1
  Ge  Ge9  1  0.17132469  0.82867531  0.25000000  1
  Ge  Ge10  1  0.82867531  0.17132469  0.25000000  1
  Ge  Ge11  1  0.82867531  0.82867531  0.75000000  1
  Os  Os0  1  0.00000000  0.50000000  0.37659059  1
  Os  Os1  1  0.50000000  0.00000000  0.62340941  1
  Os  Os2  1  0.50000000  0.00000000  0.12340941  1
  Os  Os3  1  0.00000000  0.50000000  0.87659059  1
  Os  Os4  1  0.50000000  0.50000000  0.25000000  1
  Os  Os5  1  0.50000000  0.50000000  0.75000000  1
  Os  Os6  1  0.00000000  0.00000000  0.00000000  1
  Os  Os7  1  0.00000000  0.00000000  0.50000000  1
loop_
_geom_bond_atom_site_label_1
_geom_bond_atom_site_label_2
_geom_bond_distance
_geom_bond_site_symmetry_2
Ge0 Os4 2.401135 1_555
Ge0 Os3 2.470719 1_554
Ge0 Os6 2.508187 1_555
Ge0 Os2 2.620848 1_555
Ge1 Os5 2.401135 1_555
Ge1 Os2 2.470719 1_566
Ge1 Os6 2.508187 1_566
Ge1 Os3 2.620848 1_555
Ge2 Os5 2.401135 1_555
Ge2 Os2 2.470719 1_556
Ge2 Os6 2.508187 1_656
Ge2 Os3 2.620848 1_655
Ge3 Os4 2.401135 1_555
Ge3 Os3 2.470719 1_654
Ge3 Os6 2.508187 1_665
Ge3 Os2 2.620848 1_565
Ge4 Os4 2.401135 1_555
Ge4 Os1 2.470719 1_555
Ge4 Os7 2.508187 1_555
Ge4 Os0 2.620848 1_555
Ge5 Os4 2.401135 1_555
Ge5 Os1 2.470719 1_565
Ge5 Os7 2.508187 1_665
Ge5 Os0 2.620848 1_655
Ge6 Os5 2.401135 1_555
Ge6 Os0 2.470719 1_655
Ge6 Os7 2.508187 1_655
Ge6 Os1 2.620848 1_555
Ge7 Os5 2.401135 1_555
Ge7 Os0 2.470719 1_555
Ge7 Os7 2.508187 1_565
Ge7 Os1 2.620848 1_565
Ge8 Os1 2.444049 1_555
Ge8 Os3 2.444049 1_555
Ge8 Os5 2.685802 1_555
Ge8 Os6 2.714396 1_556
Ge8 Os7 2.714396 1_555
Ge9 Os2 2.444049 1_565
Ge9 Os0 2.444049 1_555
Ge9 Os4 2.685802 1_555
Ge9 Os7 2.714396 1_565
Ge9 Os6 2.714396 1_565
Ge10 Os0 2.444049 1_655
Ge10 Os2 2.444049 1_555
Ge10 Os4 2.685802 1_555
Ge10 Os6 2.714396 1_655
Ge10 Os7 2.714396 1_655
Ge11 Os1 2.444049 1_565
Ge11 Os3 2.444049 1_655
Ge11 Os5 2.685802 1_555
Ge11 Os6 2.714396 1_666
Ge11 Os7 2.714396 1_665
