# generated using pymatgen
data_RbCdC3(SN)3
_symmetry_space_group_name_H-M   'P 1'
_cell_length_a   13.66392200
_cell_length_b   5.80792600
_cell_length_c   13.88958423
_cell_angle_alpha   68.49146802
_cell_angle_beta   90.00000000
_cell_angle_gamma   90.00000000
_symmetry_Int_Tables_number   1
_chemical_formula_structural   RbCdC3(SN)3
_chemical_formula_sum   'Rb4 Cd4 C12 S12 N12'
_cell_volume   1025.50578873
_cell_formula_units_Z   4
loop_
 _symmetry_equiv_pos_site_id
 _symmetry_equiv_pos_as_xyz
  1  'x, y, z'
loop_
 _atom_site_type_symbol
 _atom_site_label
 _atom_site_symmetry_multiplicity
 _atom_site_fract_x
 _atom_site_fract_y
 _atom_site_fract_z
 _atom_site_occupancy
  Rb  Rb0  1  0.28546400  0.09036100  0.28715400  1
  Rb  Rb1  1  0.78546400  0.90963900  0.21284600  1
  Rb  Rb2  1  0.71453600  0.90963900  0.71284600  1
  Rb  Rb3  1  0.21453600  0.09036100  0.78715400  1
  Cd  Cd0  1  0.00000000  0.00000000  0.00000000  1
  Cd  Cd1  1  0.50000000  0.00000000  0.50000000  1
  Cd  Cd2  1  0.00000000  0.50000000  0.50000000  1
  Cd  Cd3  1  0.50000000  0.50000000  0.00000000  1
  C  C0  1  0.12756200  0.51039900  0.98975100  1
  C  C1  1  0.62756200  0.48960100  0.51024900  1
  C  C2  1  0.87243800  0.48960100  0.01024900  1
  C  C3  1  0.37243800  0.51039900  0.48975100  1
  C  C4  1  0.40500400  0.92931800  0.09019800  1
  C  C5  1  0.90500400  0.07068200  0.40980200  1
  C  C6  1  0.59499600  0.07068200  0.90980200  1
  C  C7  1  0.09499600  0.92931800  0.59019800  1
  C  C8  1  0.05567200  0.64941200  0.24382300  1
  C  C9  1  0.55567200  0.35058800  0.25617700  1
  C  C10  1  0.94432800  0.35058800  0.75617700  1
  C  C11  1  0.44432800  0.64941200  0.74382300  1
  S  S0  1  0.17038700  0.22812900  0.02930900  1
  S  S1  1  0.67038700  0.77187100  0.47069100  1
  S  S2  1  0.82961300  0.77187100  0.97069100  1
  S  S3  1  0.32961300  0.22812900  0.52930900  1
  S  S4  1  0.34986300  0.68867500  0.08121300  1
  S  S5  1  0.84986300  0.31132500  0.41878700  1
  S  S6  1  0.65013700  0.31132500  0.91878700  1
  S  S7  1  0.15013700  0.68867500  0.58121300  1
  S  S8  1  0.12994200  0.52056600  0.34124200  1
  S  S9  1  0.62994200  0.47943400  0.15875800  1
  S  S10  1  0.87005800  0.47943400  0.65875800  1
  S  S11  1  0.37005800  0.52056600  0.84124200  1
  N  N0  1  0.40086100  0.71757300  0.45944300  1
  N  N1  1  0.90086100  0.28242700  0.04055700  1
  N  N2  1  0.59913900  0.28242700  0.54055700  1
  N  N3  1  0.09913900  0.71757300  0.95944300  1
  N  N4  1  0.44186700  0.10671500  0.09786500  1
  N  N5  1  0.94186700  0.89328500  0.40213500  1
  N  N6  1  0.55813300  0.89328500  0.90213500  1
  N  N7  1  0.05813300  0.10671500  0.59786500  1
  N  N8  1  0.00166600  0.74362600  0.17371400  1
  N  N9  1  0.50166600  0.25637400  0.32628600  1
  N  N10  1  0.99833400  0.25637400  0.82628600  1
  N  N11  1  0.49833400  0.74362600  0.67371400  1
loop_
_geom_bond_atom_site_label_1
_geom_bond_atom_site_label_2
_geom_bond_distance
_geom_bond_site_symmetry_2
Rb0 S8 3.563653 1_555
Rb0 S4 3.707159 1_555
Rb0 S0 3.719883 1_555
Rb0 S8 3.769454 1_545
Rb0 S3 3.780245 1_555
Rb1 S9 3.563653 1_555
Rb1 S5 3.707159 1_555
Rb1 S1 3.719883 1_555
Rb1 S9 3.769454 1_565
Rb1 S2 3.780245 1_554
Rb2 S10 3.563653 1_555
Rb2 S6 3.707159 1_555
Rb2 S2 3.719883 1_555
Rb2 S10 3.769454 1_565
Rb2 S1 3.780245 1_555
Rb3 S11 3.563653 1_555
Rb3 S7 3.707159 1_555
Rb3 S3 3.719883 1_555
Rb3 S11 3.769454 1_545
Rb3 S0 3.780245 1_556
Cd0 N8 2.324839 1_545
Cd0 N10 2.324839 1_454
Cd0 N1 2.349584 1_455
Cd0 N3 2.349584 1_544
Cd0 S2 2.781555 1_444
Cd0 S0 2.781555 1_555
Cd1 N9 2.324839 1_555
Cd1 N11 2.324839 1_545
Cd1 N2 2.349584 1_555
Cd1 N0 2.349584 1_545
Cd1 S1 2.781555 1_545
Cd1 S3 2.781555 1_555
Cd2 N5 2.327949 1_455
Cd2 N7 2.327949 1_555
Cd2 S5 2.754652 1_455
Cd2 S7 2.754652 1_555
Cd2 S10 2.799282 1_455
Cd2 S8 2.799282 1_555
Cd3 N4 2.327949 1_555
Cd3 N6 2.327949 1_554
Cd3 S6 2.754652 1_554
Cd3 S4 2.754652 1_555
Cd3 S11 2.799282 1_554
Cd3 S9 2.799282 1_555
C0 N3 1.185087 1_555
C0 S0 1.634452 1_556
C1 N2 1.185087 1_555
C1 S1 1.634452 1_555
C2 N1 1.185087 1_555
C2 S2 1.634452 1_554
C3 N0 1.185087 1_555
C3 S3 1.634452 1_555
C4 N4 1.186186 1_565
C4 S4 1.632341 1_555
C4 Rb0 3.592039 1_565
C5 N5 1.186186 1_545
C5 S5 1.632341 1_555
C5 Rb1 3.592039 1_545
C6 N6 1.186186 1_545
C6 S6 1.632341 1_555
C6 Rb2 3.592039 1_545
C7 N7 1.186186 1_565
C7 S7 1.632341 1_555
C7 Rb3 3.592039 1_565
C8 N8 1.183847 1_555
C8 S8 1.636540 1_555
C9 N9 1.183847 1_555
C9 S9 1.636540 1_555
C10 N10 1.183847 1_555
C10 S10 1.636540 1_555
C11 N11 1.183847 1_555
C11 S11 1.636540 1_555
N0 Rb0 3.016833 1_565
N1 Rb1 3.016833 1_545
N2 Rb2 3.016833 1_545
N3 Rb3 3.016833 1_565
N4 Rb0 3.362353 1_555
N5 Rb1 3.362353 1_555
N6 Rb2 3.362353 1_555
N7 Rb3 3.362353 1_555
N8 Rb1 3.215039 1_455
N9 Rb0 3.215039 1_555
N10 Rb3 3.215039 1_655
N11 Rb2 3.215039 1_555
