# generated using pymatgen
data_NaAg(NO2)2
_symmetry_space_group_name_H-M   'P 1'
_cell_length_a   7.62576951
_cell_length_b   6.63950308
_cell_length_c   6.47874973
_cell_angle_alpha   71.07340064
_cell_angle_beta   55.44619614
_cell_angle_gamma   53.48040322
_symmetry_Int_Tables_number   1
_chemical_formula_structural   NaAg(NO2)2
_chemical_formula_sum   'Na2 Ag2 N4 O8'
_cell_volume   217.07327811
_cell_formula_units_Z   2
loop_
 _symmetry_equiv_pos_site_id
 _symmetry_equiv_pos_as_xyz
  1  'x, y, z'
loop_
 _atom_site_type_symbol
 _atom_site_label
 _atom_site_symmetry_multiplicity
 _atom_site_fract_x
 _atom_site_fract_y
 _atom_site_fract_z
 _atom_site_occupancy
  Na  Na0  1  0.73583630  0.26416370  0.73583630  1
  Na  Na1  1  0.98583630  0.51416370  0.98583630  1
  Ag  Ag0  1  0.25009752  0.74990248  0.25009752  1
  Ag  Ag1  1  0.50009752  0.99990248  0.50009752  1
  N  N0  1  0.97962351  0.02037649  0.97962351  1
  N  N1  1  0.22962351  0.27037649  0.22962351  1
  N  N2  1  0.70756499  0.79243501  0.70756499  1
  N  N3  1  0.45756499  0.54243501  0.45756499  1
  O  O0  1  0.70475491  0.60482230  0.83704499  1
  O  O1  1  0.83704499  0.85337879  0.70475491  1
  O  O2  1  0.64517770  0.54524509  0.39662121  1
  O  O3  1  0.09671621  0.08762853  0.99346256  1
  O  O4  1  0.39662121  0.41295501  0.64517770  1
  O  O5  1  0.42780730  0.25653744  0.16237147  1
  O  O6  1  0.99346256  0.82219270  0.09671621  1
  O  O7  1  0.16237147  0.15328379  0.42780730  1
loop_
_geom_bond_atom_site_label_1
_geom_bond_atom_site_label_2
_geom_bond_distance
_geom_bond_site_symmetry_2
Na0 O1 2.397832 1_545
Na0 O0 2.397838 1_555
Na0 O5 2.417462 1_556
Na0 O7 2.417462 1_655
Na0 O2 2.513543 1_555
Na0 O4 2.513544 1_555
Na1 O4 2.397833 1_655
Na1 O2 2.397835 1_556
Na1 O6 2.417462 1_556
Na1 O3 2.417462 1_655
Na1 O0 2.513537 1_555
Na1 O1 2.513540 1_555
Ag0 N3 2.196483 1_555
Ag0 O3 2.413816 1_564
Ag0 O6 2.413816 1_455
Ag0 O1 2.698612 1_455
Ag0 O0 2.698612 1_554
Ag0 O7 2.817858 1_565
Ag0 O5 2.817858 1_555
Ag1 N2 2.196483 1_555
Ag1 O5 2.413816 1_565
Ag1 O7 2.413816 1_565
Ag1 O4 2.698609 1_565
Ag1 O2 2.698615 1_555
Ag1 O6 2.817858 1_555
Ag1 O3 2.817858 1_565
N0 O6 1.263351 1_546
N0 O3 1.263351 1_655
N0 Na0 2.581005 1_555
N1 O5 1.263351 1_555
N1 O7 1.263351 1_555
N1 Na1 2.581005 1_454
N2 O0 1.260686 1_555
N2 O1 1.260691 1_555
N3 O2 1.260683 1_555
N3 O4 1.260687 1_555
