# generated using pymatgen
data_Rb4CO4
_symmetry_space_group_name_H-M   'P 1'
_cell_length_a   6.74249470
_cell_length_b   6.74249470
_cell_length_c   6.74249470
_cell_angle_alpha   131.40230074
_cell_angle_beta   122.86971969
_cell_angle_gamma   78.22478301
_symmetry_Int_Tables_number   1
_chemical_formula_structural   Rb4CO4
_chemical_formula_sum   'Rb4 C1 O4'
_cell_volume   187.18451086
_cell_formula_units_Z   1
loop_
 _symmetry_equiv_pos_site_id
 _symmetry_equiv_pos_as_xyz
  1  'x, y, z'
loop_
 _atom_site_type_symbol
 _atom_site_label
 _atom_site_symmetry_multiplicity
 _atom_site_fract_x
 _atom_site_fract_y
 _atom_site_fract_z
 _atom_site_occupancy
  Rb  Rb0  1  0.88084700  0.46600000  0.05948300  1
  Rb  Rb1  1  0.40651600  0.82136400  0.94051700  1
  Rb  Rb2  1  0.11915300  0.17863600  0.58515300  1
  Rb  Rb3  1  0.59348400  0.53400000  0.41484700  1
  C  C0  1  0.00000000  0.00000000  0.00000000  1
  O  O0  1  0.04685900  0.77037700  0.98069200  1
  O  O1  1  0.95314100  0.93383300  0.72351800  1
  O  O2  1  0.21031500  0.22962300  0.27648200  1
  O  O3  1  0.78968500  0.06616700  0.01930800  1
loop_
_geom_bond_atom_site_label_1
_geom_bond_atom_site_label_2
_geom_bond_distance
_geom_bond_site_symmetry_2
C0 O1 1.446443 1_444
C0 O2 1.446443 1_555
C0 O0 1.446443 1_544
C0 O3 1.446443 1_455
O0 Rb1 2.692315 1_555
O0 Rb3 2.779729 1_455
O0 Rb2 2.824455 1_566
O0 Rb0 2.961759 1_456
O0 Rb2 3.132400 1_555
O1 Rb3 2.692317 1_555
O1 Rb1 2.779727 1_655
O1 Rb0 2.824455 1_566
O1 Rb2 2.961759 1_665
O1 Rb0 3.132400 1_555
O2 Rb2 2.692321 1_555
O2 Rb0 2.779732 1_455
O2 Rb1 2.824451 1_544
O2 Rb3 2.961765 1_555
O2 Rb1 3.132400 1_555
O3 Rb0 2.692321 1_555
O3 Rb2 2.779732 1_655
O3 Rb3 2.824456 1_544
O3 Rb1 2.961765 1_544
O3 Rb3 3.132395 1_555
