# generated using pymatgen
data_Co2Mo4C
_symmetry_space_group_name_H-M   'P 1'
_cell_length_a   7.98947790
_cell_length_b   7.98947790
_cell_length_c   7.98947790
_cell_angle_alpha   60.00000000
_cell_angle_beta   60.00000000
_cell_angle_gamma   60.00000000
_symmetry_Int_Tables_number   1
_chemical_formula_structural   Co2Mo4C
_chemical_formula_sum   'Co8 Mo16 C4'
_cell_volume   360.61202213
_cell_formula_units_Z   4
loop_
 _symmetry_equiv_pos_site_id
 _symmetry_equiv_pos_as_xyz
  1  'x, y, z'
loop_
 _atom_site_type_symbol
 _atom_site_label
 _atom_site_symmetry_multiplicity
 _atom_site_fract_x
 _atom_site_fract_y
 _atom_site_fract_z
 _atom_site_occupancy
  Co  Co0  1  0.91876200  0.24371300  0.91876200  1
  Co  Co1  1  0.33123800  0.33123800  0.00628700  1
  Co  Co2  1  0.00628700  0.33123800  0.33123800  1
  Co  Co3  1  0.33123800  0.33123800  0.33123800  1
  Co  Co4  1  0.24371300  0.91876200  0.91876200  1
  Co  Co5  1  0.91876200  0.91876200  0.91876200  1
  Co  Co6  1  0.91876200  0.91876200  0.24371300  1
  Co  Co7  1  0.33123800  0.00628700  0.33123800  1
  Mo  Mo0  1  0.12500000  0.62500000  0.12500000  1
  Mo  Mo1  1  0.12500000  0.12500000  0.62500000  1
  Mo  Mo2  1  0.62500000  0.12500000  0.12500000  1
  Mo  Mo3  1  0.12500000  0.12500000  0.12500000  1
  Mo  Mo4  1  0.93776900  0.93776900  0.56223100  1
  Mo  Mo5  1  0.68776900  0.31223100  0.31223100  1
  Mo  Mo6  1  0.31223100  0.68776900  0.68776900  1
  Mo  Mo7  1  0.68776900  0.68776900  0.31223100  1
  Mo  Mo8  1  0.68776900  0.31223100  0.68776900  1
  Mo  Mo9  1  0.31223100  0.68776900  0.31223100  1
  Mo  Mo10  1  0.56223100  0.93776900  0.56223100  1
  Mo  Mo11  1  0.56223100  0.93776900  0.93776900  1
  Mo  Mo12  1  0.93776900  0.56223100  0.56223100  1
  Mo  Mo13  1  0.93776900  0.56223100  0.93776900  1
  Mo  Mo14  1  0.31223100  0.31223100  0.68776900  1
  Mo  Mo15  1  0.56223100  0.56223100  0.93776900  1
  C  C0  1  0.62500000  0.12500000  0.62500000  1
  C  C1  1  0.62500000  0.62500000  0.12500000  1
  C  C2  1  0.12500000  0.62500000  0.62500000  1
  C  C3  1  0.62500000  0.62500000  0.62500000  1
loop_
_geom_bond_atom_site_label_1
_geom_bond_atom_site_label_2
_geom_bond_distance
_geom_bond_site_symmetry_2
Co0 Mo1 2.432902 1_655
Co0 Mo2 2.432902 1_556
Co0 Mo3 2.432909 1_656
Co0 Co5 2.596189 1_545
Co0 Co4 2.596189 1_645
Co0 Co6 2.596189 1_546
Co0 Mo15 2.705182 1_555
Co0 Mo12 2.705182 1_555
Co0 Mo13 2.705186 1_555
Co0 Mo8 2.914941 1_555
Co0 Mo5 2.914947 1_556
Co0 Mo14 2.914947 1_655
Co1 Mo0 2.432902 1_555
Co1 Mo2 2.432902 1_555
Co1 Mo3 2.432909 1_555
Co1 Co3 2.596189 1_555
Co1 Co2 2.596189 1_555
Co1 Co7 2.596189 1_555
Co1 Mo6 2.705182 1_554
Co1 Mo8 2.705182 1_554
Co1 Mo14 2.705186 1_554
Co1 Mo15 2.914941 1_554
Co1 Mo13 2.914947 1_454
Co1 Mo11 2.914947 1_544
Co2 Mo0 2.432902 1_555
Co2 Mo1 2.432902 1_555
Co2 Mo3 2.432909 1_555
Co2 Co7 2.596189 1_555
Co2 Co3 2.596189 1_555
Co2 Mo7 2.705182 1_455
Co2 Mo8 2.705182 1_455
Co2 Mo5 2.705186 1_455
Co2 Mo12 2.914941 1_455
Co2 Mo4 2.914947 1_445
Co2 Mo13 2.914947 1_454
Co3 Mo0 2.432907 1_555
Co3 Mo1 2.432907 1_555
Co3 Mo2 2.432907 1_555
Co3 Co7 2.596189 1_555
Co3 Mo14 2.705178 1_555
Co3 Mo5 2.705178 1_555
Co3 Mo9 2.705178 1_555
Co3 Mo15 2.914944 1_554
Co3 Mo10 2.914944 1_545
Co3 Mo12 2.914944 1_455
Co4 Mo0 2.432902 1_556
Co4 Mo1 2.432902 1_565
Co4 Mo3 2.432909 1_566
Co4 Co5 2.596189 1_455
Co4 Co6 2.596189 1_456
Co4 Mo15 2.705182 1_555
Co4 Mo10 2.705182 1_555
Co4 Mo11 2.705186 1_555
Co4 Mo6 2.914941 1_555
Co4 Mo14 2.914947 1_565
Co4 Mo9 2.914947 1_556
Co5 Mo1 2.432907 1_665
Co5 Mo2 2.432907 1_566
Co5 Mo0 2.432907 1_656
Co5 Co6 2.596189 1_556
Co5 Mo13 2.705178 1_555
Co5 Mo4 2.705178 1_555
Co5 Mo11 2.705178 1_555
Co5 Mo6 2.914944 1_655
Co5 Mo7 2.914944 1_556
Co5 Mo8 2.914944 1_565
Co6 Mo2 2.432902 1_565
Co6 Mo0 2.432902 1_655
Co6 Mo3 2.432909 1_665
Co6 Mo12 2.705182 1_555
Co6 Mo10 2.705182 1_555
Co6 Mo4 2.705186 1_555
Co6 Mo7 2.914941 1_555
Co6 Mo9 2.914947 1_655
Co6 Mo5 2.914947 1_565
Co7 Mo1 2.432902 1_555
Co7 Mo2 2.432902 1_555
Co7 Mo3 2.432909 1_555
Co7 Mo7 2.705182 1_545
Co7 Mo6 2.705182 1_545
Co7 Mo9 2.705186 1_545
Co7 Mo10 2.914941 1_545
Co7 Mo4 2.914947 1_445
Co7 Mo11 2.914947 1_544
C0 Mo8 2.119545 1_555
C0 Mo14 2.119545 1_555
C0 Mo5 2.119545 1_555
C0 Mo10 2.119545 1_545
C0 Mo4 2.119545 1_545
C0 Mo11 2.119545 1_545
C1 Mo7 2.119545 1_555
C1 Mo13 2.119545 1_554
C1 Mo5 2.119545 1_555
C1 Mo11 2.119545 1_554
C1 Mo15 2.119545 1_554
C1 Mo9 2.119545 1_555
C2 Mo6 2.119545 1_555
C2 Mo4 2.119545 1_455
C2 Mo13 2.119545 1_455
C2 Mo14 2.119545 1_555
C2 Mo9 2.119545 1_555
C2 Mo12 2.119545 1_455
C3 Mo10 2.119545 1_555
C3 Mo15 2.119545 1_555
C3 Mo12 2.119545 1_555
C3 Mo7 2.119545 1_555
C3 Mo6 2.119545 1_555
C3 Mo8 2.119545 1_555
