# generated using pymatgen
data_K2OsNCl5
_symmetry_space_group_name_H-M   'P 1'
_cell_length_a   9.44761446
_cell_length_b   9.44761446
_cell_length_c   8.11284000
_cell_angle_alpha   90.00000000
_cell_angle_beta   90.00000000
_cell_angle_gamma   119.17860835
_symmetry_Int_Tables_number   1
_chemical_formula_structural   K2OsNCl5
_chemical_formula_sum   'K4 Os2 N2 Cl10'
_cell_volume   632.24192788
_cell_formula_units_Z   2
loop_
 _symmetry_equiv_pos_site_id
 _symmetry_equiv_pos_as_xyz
  1  'x, y, z'
loop_
 _atom_site_type_symbol
 _atom_site_label
 _atom_site_symmetry_multiplicity
 _atom_site_fract_x
 _atom_site_fract_y
 _atom_site_fract_z
 _atom_site_occupancy
  K  K0  1  0.32893500  0.67106500  0.10417900  1
  K  K1  1  0.93335600  0.06664400  0.44738500  1
  K  K2  1  0.67106500  0.32893500  0.60417900  1
  K  K3  1  0.06664400  0.93335600  0.94738500  1
  Os  Os0  1  0.17432000  0.82568000  0.48611900  1
  Os  Os1  1  0.82568000  0.17432000  0.98611900  1
  N  N0  1  0.86963100  0.13036900  0.80045400  1
  N  N1  1  0.13036900  0.86963100  0.30045400  1
  Cl  Cl0  1  0.76858500  0.23141500  0.28095600  1
  Cl  Cl1  1  0.26066400  0.09600400  0.59516700  1
  Cl  Cl2  1  0.44516700  0.89462100  0.43828600  1
  Cl  Cl3  1  0.89462100  0.44516700  0.93828600  1
  Cl  Cl4  1  0.90399600  0.73933600  0.59516700  1
  Cl  Cl5  1  0.23141500  0.76858500  0.78095600  1
  Cl  Cl6  1  0.10537900  0.55483300  0.43828600  1
  Cl  Cl7  1  0.73933600  0.90399600  0.09516700  1
  Cl  Cl8  1  0.55483300  0.10537900  0.93828600  1
  Cl  Cl9  1  0.09600400  0.26066400  0.09516700  1
loop_
_geom_bond_atom_site_label_1
_geom_bond_atom_site_label_2
_geom_bond_distance
_geom_bond_site_symmetry_2
K1 N0 3.046817 1_555
K1 N1 3.424602 1_645
K3 N1 3.046817 1_556
K3 N0 3.424602 1_465
N0 Os1 1.667874 1_555
N1 Os0 1.667874 1_555
Cl0 Os1 2.566542 1_554
Cl0 K1 3.005417 1_555
Cl0 K2 3.066206 1_555
Cl1 Os0 2.437048 1_545
Cl1 K1 3.200034 1_455
Cl1 K3 3.337665 1_545
Cl1 K2 3.400276 1_555
Cl2 Os0 2.344669 1_555
Cl2 K0 3.279077 1_555
Cl3 Os1 2.344669 1_555
Cl3 K2 3.279077 1_555
Cl4 Os0 2.437048 1_655
Cl4 K1 3.200034 1_565
Cl4 K3 3.337665 1_655
Cl4 K2 3.400276 1_555
Cl5 Os0 2.566542 1_555
Cl5 K3 3.005417 1_555
Cl5 K0 3.066206 1_556
Cl6 Os0 2.344669 1_555
Cl6 K0 3.279077 1_555
Cl7 Os1 2.437048 1_564
Cl7 K3 3.200034 1_654
Cl7 K1 3.337665 1_565
Cl7 K0 3.400276 1_555
Cl8 Os1 2.344669 1_555
Cl8 K2 3.279077 1_555
Cl9 Os1 2.437048 1_454
Cl9 K3 3.200034 1_544
Cl9 K1 3.337665 1_455
Cl9 K0 3.400276 1_555
