# generated using pymatgen
data_Yb3Ag2
_symmetry_space_group_name_H-M   'P 1'
_cell_length_a   7.48900131
_cell_length_b   16.14482664
_cell_length_c   16.14482664
_cell_angle_alpha   90.00000000
_cell_angle_beta   90.00000000
_cell_angle_gamma   90.00000000
_symmetry_Int_Tables_number   1
_chemical_formula_structural   Yb3Ag2
_chemical_formula_sum   'Yb48 Ag32'
_cell_volume   1952.04883590
_cell_formula_units_Z   16
loop_
 _symmetry_equiv_pos_site_id
 _symmetry_equiv_pos_as_xyz
  1  'x, y, z'
loop_
 _atom_site_type_symbol
 _atom_site_label
 _atom_site_symmetry_multiplicity
 _atom_site_fract_x
 _atom_site_fract_y
 _atom_site_fract_z
 _atom_site_occupancy
  Yb  Yb0_0  1  0.25000000  0.16751274  0.41751274  1
  Yb  Yb0_1  1  0.25000000  0.16751274  0.91751274  1
  Yb  Yb0_2  1  0.25000000  0.66751274  0.41751274  1
  Yb  Yb0_3  1  0.25000000  0.66751274  0.91751274  1
  Yb  Yb0_4  1  0.75000000  0.16751274  0.41751274  1
  Yb  Yb0_5  1  0.75000000  0.16751274  0.91751274  1
  Yb  Yb0_6  1  0.75000000  0.66751274  0.41751274  1
  Yb  Yb0_7  1  0.75000000  0.66751274  0.91751274  1
  Yb  Yb1_0  1  0.25000000  0.41751274  0.33248726  1
  Yb  Yb1_1  1  0.25000000  0.41751274  0.83248726  1
  Yb  Yb1_2  1  0.25000000  0.91751274  0.33248726  1
  Yb  Yb1_3  1  0.25000000  0.91751274  0.83248726  1
  Yb  Yb1_4  1  0.75000000  0.41751274  0.33248726  1
  Yb  Yb1_5  1  0.75000000  0.41751274  0.83248726  1
  Yb  Yb1_6  1  0.75000000  0.91751274  0.33248726  1
  Yb  Yb1_7  1  0.75000000  0.91751274  0.83248726  1
  Yb  Yb2_0  1  0.00000000  0.00000000  0.00000000  1
  Yb  Yb2_1  1  0.00000000  0.00000000  0.50000000  1
  Yb  Yb2_2  1  0.00000000  0.50000000  0.00000000  1
  Yb  Yb2_3  1  0.00000000  0.50000000  0.50000000  1
  Yb  Yb2_4  1  0.50000000  0.00000000  0.00000000  1
  Yb  Yb2_5  1  0.50000000  0.00000000  0.50000000  1
  Yb  Yb2_6  1  0.50000000  0.50000000  0.00000000  1
  Yb  Yb2_7  1  0.50000000  0.50000000  0.50000000  1
  Yb  Yb3_0  1  0.25000000  0.33248726  0.08248726  1
  Yb  Yb3_1  1  0.25000000  0.33248726  0.58248726  1
  Yb  Yb3_2  1  0.25000000  0.83248726  0.08248726  1
  Yb  Yb3_3  1  0.25000000  0.83248726  0.58248726  1
  Yb  Yb3_4  1  0.75000000  0.33248726  0.08248726  1
  Yb  Yb3_5  1  0.75000000  0.33248726  0.58248726  1
  Yb  Yb3_6  1  0.75000000  0.83248726  0.08248726  1
  Yb  Yb3_7  1  0.75000000  0.83248726  0.58248726  1
  Yb  Yb4_0  1  0.25000000  0.08248726  0.16751274  1
  Yb  Yb4_1  1  0.25000000  0.08248726  0.66751274  1
  Yb  Yb4_2  1  0.25000000  0.58248726  0.16751274  1
  Yb  Yb4_3  1  0.25000000  0.58248726  0.66751274  1
  Yb  Yb4_4  1  0.75000000  0.08248726  0.16751274  1
  Yb  Yb4_5  1  0.75000000  0.08248726  0.66751274  1
  Yb  Yb4_6  1  0.75000000  0.58248726  0.16751274  1
  Yb  Yb4_7  1  0.75000000  0.58248726  0.66751274  1
  Yb  Yb5_0  1  0.00000000  0.25000000  0.25000000  1
  Yb  Yb5_1  1  0.00000000  0.25000000  0.75000000  1
  Yb  Yb5_2  1  0.00000000  0.75000000  0.25000000  1
  Yb  Yb5_3  1  0.00000000  0.75000000  0.75000000  1
  Yb  Yb5_4  1  0.50000000  0.25000000  0.25000000  1
  Yb  Yb5_5  1  0.50000000  0.25000000  0.75000000  1
  Yb  Yb5_6  1  0.50000000  0.75000000  0.25000000  1
  Yb  Yb5_7  1  0.50000000  0.75000000  0.75000000  1
  Ag  Ag0_0  1  0.00000000  0.43539999  0.18539999  1
  Ag  Ag0_1  1  0.00000000  0.43539999  0.68539999  1
  Ag  Ag0_2  1  0.00000000  0.93539999  0.18539999  1
  Ag  Ag0_3  1  0.00000000  0.93539999  0.68539999  1
  Ag  Ag0_4  1  0.50000000  0.43539999  0.18539999  1
  Ag  Ag0_5  1  0.50000000  0.43539999  0.68539999  1
  Ag  Ag0_6  1  0.50000000  0.93539999  0.18539999  1
  Ag  Ag0_7  1  0.50000000  0.93539999  0.68539999  1
  Ag  Ag1_0  1  0.00000000  0.06460001  0.31460001  1
  Ag  Ag1_1  1  0.00000000  0.06460001  0.81460001  1
  Ag  Ag1_2  1  0.00000000  0.56460001  0.31460001  1
  Ag  Ag1_3  1  0.00000000  0.56460001  0.81460001  1
  Ag  Ag1_4  1  0.50000000  0.06460001  0.31460001  1
  Ag  Ag1_5  1  0.50000000  0.06460001  0.81460001  1
  Ag  Ag1_6  1  0.50000000  0.56460001  0.31460001  1
  Ag  Ag1_7  1  0.50000000  0.56460001  0.81460001  1
  Ag  Ag2_0  1  0.00000000  0.18539999  0.06460001  1
  Ag  Ag2_1  1  0.00000000  0.18539999  0.56460001  1
  Ag  Ag2_2  1  0.00000000  0.68539999  0.06460001  1
  Ag  Ag2_3  1  0.00000000  0.68539999  0.56460001  1
  Ag  Ag2_4  1  0.50000000  0.18539999  0.06460001  1
  Ag  Ag2_5  1  0.50000000  0.18539999  0.56460001  1
  Ag  Ag2_6  1  0.50000000  0.68539999  0.06460001  1
  Ag  Ag2_7  1  0.50000000  0.68539999  0.56460001  1
  Ag  Ag3_0  1  0.00000000  0.31460001  0.43539999  1
  Ag  Ag3_1  1  0.00000000  0.31460001  0.93539999  1
  Ag  Ag3_2  1  0.00000000  0.81460001  0.43539999  1
  Ag  Ag3_3  1  0.00000000  0.81460001  0.93539999  1
  Ag  Ag3_4  1  0.50000000  0.31460001  0.43539999  1
  Ag  Ag3_5  1  0.50000000  0.31460001  0.93539999  1
  Ag  Ag3_6  1  0.50000000  0.81460001  0.43539999  1
  Ag  Ag3_7  1  0.50000000  0.81460001  0.93539999  1
loop_
_geom_bond_atom_site_label_1
_geom_bond_atom_site_label_2
_geom_bond_distance
_geom_bond_site_symmetry_2
Yb0_0 Yb5_0 3.548660 1_555
Yb0_0 Yb5_4 3.548660 1_555
Yb0_0 Yb2_5 3.548660 1_555
Yb0_0 Yb2_1 3.548660 1_555
Yb0_1 Yb5_5 3.548660 1_555
Yb0_1 Yb5_1 3.548660 1_555
Yb0_1 Yb2_4 3.548660 1_556
Yb0_1 Yb2_0 3.548660 1_556
Yb0_2 Yb5_2 3.548660 1_555
Yb0_2 Yb5_6 3.548660 1_555
Yb0_2 Yb2_3 3.548660 1_555
Yb0_2 Yb2_7 3.548660 1_555
Yb0_3 Yb5_7 3.548660 1_555
Yb0_3 Yb5_3 3.548660 1_555
Yb0_3 Yb2_2 3.548660 1_556
Yb0_3 Yb2_6 3.548660 1_556
Yb0_4 Yb5_4 3.548660 1_555
Yb0_4 Yb5_0 3.548660 1_655
Yb0_4 Yb2_5 3.548660 1_555
Yb0_4 Yb2_1 3.548660 1_655
Yb0_5 Yb5_1 3.548660 1_655
Yb0_5 Yb5_5 3.548660 1_555
Yb0_5 Yb2_0 3.548660 1_656
Yb0_5 Yb2_4 3.548660 1_556
Yb0_6 Yb5_6 3.548660 1_555
Yb0_6 Yb5_2 3.548660 1_655
Yb0_6 Yb2_7 3.548660 1_555
Yb0_6 Yb2_3 3.548660 1_655
Yb0_7 Yb5_3 3.548660 1_655
Yb0_7 Yb5_7 3.548660 1_555
Yb0_7 Yb2_2 3.548660 1_656
Yb0_7 Yb2_6 3.548660 1_556
Yb1_0 Yb5_0 3.548660 1_555
Yb1_0 Yb5_4 3.548660 1_555
Yb1_0 Yb2_3 3.548660 1_555
Yb1_0 Yb2_7 3.548660 1_555
Yb1_1 Yb5_1 3.548660 1_555
Yb1_1 Yb5_5 3.548660 1_555
Yb1_1 Yb2_2 3.548660 1_556
Yb1_1 Yb2_6 3.548660 1_556
Yb1_2 Yb5_2 3.548660 1_555
Yb1_2 Yb5_6 3.548660 1_555
Yb1_2 Yb2_1 3.548660 1_565
Yb1_2 Yb2_5 3.548660 1_565
Yb1_3 Yb5_7 3.548660 1_555
Yb1_3 Yb5_3 3.548660 1_555
Yb1_3 Yb2_0 3.548660 1_566
Yb1_3 Yb2_4 3.548660 1_566
Yb1_4 Yb5_0 3.548660 1_655
Yb1_4 Yb5_4 3.548660 1_555
Yb1_4 Yb2_7 3.548660 1_555
Yb1_4 Yb2_3 3.548660 1_655
Yb1_5 Yb5_1 3.548660 1_655
Yb1_5 Yb5_5 3.548660 1_555
Yb1_5 Yb2_6 3.548660 1_556
Yb1_5 Yb2_2 3.548660 1_656
Yb1_6 Yb5_2 3.548660 1_655
Yb1_6 Yb5_6 3.548660 1_555
Yb1_6 Yb2_5 3.548660 1_565
Yb1_6 Yb2_1 3.548660 1_665
Yb1_7 Yb5_3 3.548660 1_655
Yb1_7 Yb5_7 3.548660 1_555
Yb1_7 Yb2_0 3.548660 1_666
Yb1_7 Yb2_4 3.548660 1_566
Yb2_0 Yb3_6 3.548660 1_445
Yb2_0 Yb3_2 3.548660 1_545
Yb2_0 Yb4_0 3.548660 1_555
Yb2_0 Yb4_4 3.548660 1_455
Yb2_0 Yb2_4 3.744501 1_555
Yb2_0 Yb2_4 3.744501 1_455
Yb2_1 Yb3_7 3.548660 1_445
Yb2_1 Yb3_3 3.548660 1_545
Yb2_1 Yb4_1 3.548660 1_555
Yb2_1 Yb4_5 3.548660 1_455
Yb2_1 Yb2_5 3.744501 1_455
Yb2_1 Yb2_5 3.744501 1_555
Yb2_2 Yb3_0 3.548660 1_555
Yb2_2 Yb3_4 3.548660 1_455
Yb2_2 Yb4_2 3.548660 1_555
Yb2_2 Yb4_6 3.548660 1_455
Yb2_2 Yb2_6 3.744501 1_455
Yb2_2 Yb2_6 3.744501 1_555
Yb2_3 Yb3_1 3.548660 1_555
Yb2_3 Yb3_5 3.548660 1_455
Yb2_3 Yb4_3 3.548660 1_555
Yb2_3 Yb4_7 3.548660 1_455
Yb2_3 Yb2_7 3.744501 1_555
Yb2_3 Yb2_7 3.744501 1_455
Yb2_4 Yb3_2 3.548660 1_545
Yb2_4 Yb3_6 3.548660 1_545
Yb2_4 Yb4_0 3.548660 1_555
Yb2_4 Yb4_4 3.548660 1_555
Yb2_5 Yb3_7 3.548660 1_545
Yb2_5 Yb3_3 3.548660 1_545
Yb2_5 Yb4_1 3.548660 1_555
Yb2_5 Yb4_5 3.548660 1_555
Yb2_6 Yb3_4 3.548660 1_555
Yb2_6 Yb3_0 3.548660 1_555
Yb2_6 Yb4_6 3.548660 1_555
Yb2_6 Yb4_2 3.548660 1_555
Yb2_7 Yb3_1 3.548660 1_555
Yb2_7 Yb3_5 3.548660 1_555
Yb2_7 Yb4_3 3.548660 1_555
Yb2_7 Yb4_7 3.548660 1_555
Yb3_0 Yb5_0 3.548660 1_555
Yb3_0 Yb5_4 3.548660 1_555
Yb3_1 Yb5_5 3.548660 1_555
Yb3_1 Yb5_1 3.548660 1_555
Yb3_2 Yb5_2 3.548660 1_555
Yb3_2 Yb5_6 3.548660 1_555
Yb3_3 Yb5_7 3.548660 1_555
Yb3_3 Yb5_3 3.548660 1_555
Yb3_4 Yb5_4 3.548660 1_555
Yb3_4 Yb5_0 3.548660 1_655
Yb3_5 Yb5_1 3.548660 1_655
Yb3_5 Yb5_5 3.548660 1_555
Yb3_6 Yb5_2 3.548660 1_655
Yb3_6 Yb5_6 3.548660 1_555
Yb3_7 Yb5_3 3.548660 1_655
Yb3_7 Yb5_7 3.548660 1_555
Yb4_0 Yb5_0 3.548660 1_555
Yb4_0 Yb5_4 3.548660 1_555
Yb4_1 Yb5_1 3.548660 1_555
Yb4_1 Yb5_5 3.548660 1_555
Yb4_2 Yb5_2 3.548660 1_555
Yb4_2 Yb5_6 3.548660 1_555
Yb4_3 Yb5_7 3.548660 1_555
Yb4_3 Yb5_3 3.548660 1_555
Yb4_4 Yb5_0 3.548660 1_655
Yb4_4 Yb5_4 3.548660 1_555
Yb4_5 Yb5_1 3.548660 1_655
Yb4_5 Yb5_5 3.548660 1_555
Yb4_6 Yb5_6 3.548660 1_555
Yb4_6 Yb5_2 3.548660 1_655
Yb4_7 Yb5_7 3.548660 1_555
Yb4_7 Yb5_3 3.548660 1_655
Yb5_0 Yb5_4 3.744501 1_455
Yb5_0 Yb5_4 3.744501 1_555
Yb5_1 Yb5_5 3.744501 1_555
Yb5_1 Yb5_5 3.744501 1_455
Yb5_2 Yb5_6 3.744501 1_455
Yb5_2 Yb5_6 3.744501 1_555
Yb5_3 Yb5_7 3.744501 1_555
Yb5_3 Yb5_7 3.744501 1_455
Ag0_0 Ag1_2 2.949925 1_555
Ag0_0 Yb3_0 3.004420 1_555
Ag0_0 Yb3_4 3.004420 1_455
Ag0_0 Yb4_2 3.037748 1_555
Ag0_0 Yb4_6 3.037748 1_455
Ag0_0 Yb1_4 3.037748 1_455
Ag0_0 Yb1_0 3.037748 1_555
Ag0_0 Yb5_0 3.169749 1_555
Ag0_0 Yb2_2 3.169749 1_555
Ag0_1 Ag1_3 2.949925 1_555
Ag0_1 Yb3_5 3.004420 1_455
Ag0_1 Yb3_1 3.004420 1_555
Ag0_1 Yb4_7 3.037748 1_455
Ag0_1 Yb4_3 3.037748 1_555
Ag0_1 Yb1_5 3.037748 1_455
Ag0_1 Yb1_1 3.037748 1_555
Ag0_1 Yb5_1 3.169749 1_555
Ag0_1 Yb2_3 3.169749 1_555
Ag0_2 Ag1_0 2.949925 1_565
Ag0_2 Yb3_2 3.004420 1_555
Ag0_2 Yb3_6 3.004420 1_455
Ag0_2 Yb4_0 3.037748 1_565
Ag0_2 Yb4_4 3.037748 1_465
Ag0_2 Yb1_2 3.037748 1_555
Ag0_2 Yb1_6 3.037748 1_455
Ag0_2 Yb2_0 3.169749 1_565
Ag0_2 Yb5_2 3.169749 1_555
Ag0_3 Ag1_1 2.949925 1_565
Ag0_3 Yb3_7 3.004420 1_455
Ag0_3 Yb3_3 3.004420 1_555
Ag0_3 Yb4_1 3.037748 1_565
Ag0_3 Yb4_5 3.037748 1_465
Ag0_3 Yb1_3 3.037748 1_555
Ag0_3 Yb1_7 3.037748 1_455
Ag0_3 Yb2_1 3.169749 1_565
Ag0_3 Yb5_3 3.169749 1_555
Ag0_4 Ag1_6 2.949925 1_555
Ag0_4 Yb3_0 3.004420 1_555
Ag0_4 Yb3_4 3.004420 1_555
Ag0_4 Yb4_2 3.037748 1_555
Ag0_4 Yb4_6 3.037748 1_555
Ag0_4 Yb1_0 3.037748 1_555
Ag0_4 Yb1_4 3.037748 1_555
Ag0_4 Yb5_4 3.169749 1_555
Ag0_4 Yb2_6 3.169749 1_555
Ag0_5 Ag1_7 2.949925 1_555
Ag0_5 Yb3_1 3.004420 1_555
Ag0_5 Yb3_5 3.004420 1_555
Ag0_5 Yb4_3 3.037748 1_555
Ag0_5 Yb4_7 3.037748 1_555
Ag0_5 Yb1_1 3.037748 1_555
Ag0_5 Yb1_5 3.037748 1_555
Ag0_5 Yb5_5 3.169749 1_555
Ag0_5 Yb2_7 3.169749 1_555
Ag0_6 Ag1_4 2.949925 1_565
Ag0_6 Yb3_2 3.004420 1_555
Ag0_6 Yb3_6 3.004420 1_555
Ag0_6 Yb4_0 3.037748 1_565
Ag0_6 Yb4_4 3.037748 1_565
Ag0_6 Yb1_2 3.037748 1_555
Ag0_6 Yb1_6 3.037748 1_555
Ag0_6 Yb2_4 3.169749 1_565
Ag0_6 Yb5_6 3.169749 1_555
Ag0_7 Ag1_5 2.949925 1_565
Ag0_7 Yb3_3 3.004420 1_555
Ag0_7 Yb3_7 3.004420 1_555
Ag0_7 Yb4_5 3.037748 1_565
Ag0_7 Yb4_1 3.037748 1_565
Ag0_7 Yb1_3 3.037748 1_555
Ag0_7 Yb1_7 3.037748 1_555
Ag0_7 Yb2_5 3.169749 1_565
Ag0_7 Yb5_7 3.169749 1_555
Ag1_0 Yb0_4 3.004420 1_455
Ag1_0 Yb0_0 3.004420 1_555
Ag1_0 Yb4_4 3.037748 1_455
Ag1_0 Yb4_0 3.037748 1_555
Ag1_0 Yb1_6 3.037748 1_445
Ag1_0 Yb1_2 3.037748 1_545
Ag1_0 Yb2_1 3.169749 1_555
Ag1_0 Yb5_0 3.169749 1_555
Ag1_1 Yb0_1 3.004420 1_555
Ag1_1 Yb0_5 3.004420 1_455
Ag1_1 Yb4_1 3.037748 1_555
Ag1_1 Yb4_5 3.037748 1_455
Ag1_1 Yb1_3 3.037748 1_545
Ag1_1 Yb1_7 3.037748 1_445
Ag1_1 Yb5_1 3.169749 1_555
Ag1_1 Yb2_0 3.169749 1_556
Ag1_2 Yb0_2 3.004420 1_555
Ag1_2 Yb0_6 3.004420 1_455
Ag1_2 Yb4_6 3.037748 1_455
Ag1_2 Yb4_2 3.037748 1_555
Ag1_2 Yb1_4 3.037748 1_455
Ag1_2 Yb1_0 3.037748 1_555
Ag1_2 Yb5_2 3.169749 1_555
Ag1_2 Yb2_3 3.169749 1_555
Ag1_3 Yb0_7 3.004420 1_455
Ag1_3 Yb0_3 3.004420 1_555
Ag1_3 Yb4_7 3.037748 1_455
Ag1_3 Yb4_3 3.037748 1_555
Ag1_3 Yb1_5 3.037748 1_455
Ag1_3 Yb1_1 3.037748 1_555
Ag1_3 Yb5_3 3.169749 1_555
Ag1_3 Yb2_2 3.169749 1_556
Ag1_4 Yb0_4 3.004420 1_555
Ag1_4 Yb0_0 3.004420 1_555
Ag1_4 Yb4_4 3.037748 1_555
Ag1_4 Yb4_0 3.037748 1_555
Ag1_4 Yb1_6 3.037748 1_545
Ag1_4 Yb1_2 3.037748 1_545
Ag1_4 Yb2_5 3.169749 1_555
Ag1_4 Yb5_4 3.169749 1_555
Ag1_5 Yb0_1 3.004420 1_555
Ag1_5 Yb0_5 3.004420 1_555
Ag1_5 Yb4_1 3.037748 1_555
Ag1_5 Yb4_5 3.037748 1_555
Ag1_5 Yb1_3 3.037748 1_545
Ag1_5 Yb1_7 3.037748 1_545
Ag1_5 Yb2_4 3.169749 1_556
Ag1_5 Yb5_5 3.169749 1_555
Ag1_6 Yb0_6 3.004420 1_555
Ag1_6 Yb0_2 3.004420 1_555
Ag1_6 Yb4_2 3.037748 1_555
Ag1_6 Yb4_6 3.037748 1_555
Ag1_6 Yb1_4 3.037748 1_555
Ag1_6 Yb1_0 3.037748 1_555
Ag1_6 Yb5_6 3.169749 1_555
Ag1_6 Yb2_7 3.169749 1_555
Ag1_7 Yb0_3 3.004420 1_555
Ag1_7 Yb0_7 3.004420 1_555
Ag1_7 Yb4_3 3.037748 1_555
Ag1_7 Yb4_7 3.037748 1_555
Ag1_7 Yb1_1 3.037748 1_555
Ag1_7 Yb1_5 3.037748 1_555
Ag1_7 Yb5_7 3.169749 1_555
Ag1_7 Yb2_6 3.169749 1_556
Ag2_0 Ag3_1 2.949925 1_554
Ag2_0 Yb4_4 3.004420 1_455
Ag2_0 Yb4_0 3.004420 1_555
Ag2_0 Yb3_0 3.037748 1_555
Ag2_0 Yb3_4 3.037748 1_455
Ag2_0 Yb0_5 3.037748 1_454
Ag2_0 Yb0_1 3.037748 1_554
Ag2_0 Yb2_0 3.169749 1_555
Ag2_0 Yb5_0 3.169749 1_555
Ag2_1 Ag3_0 2.949925 1_555
Ag2_1 Yb4_1 3.004420 1_555
Ag2_1 Yb4_5 3.004420 1_455
Ag2_1 Yb0_4 3.037748 1_455
Ag2_1 Yb0_0 3.037748 1_555
Ag2_1 Yb3_5 3.037748 1_455
Ag2_1 Yb3_1 3.037748 1_555
Ag2_1 Yb2_1 3.169749 1_555
Ag2_1 Yb5_1 3.169749 1_555
Ag2_2 Ag3_3 2.949925 1_554
Ag2_2 Yb4_2 3.004420 1_555
Ag2_2 Yb4_6 3.004420 1_455
Ag2_2 Yb3_2 3.037748 1_555
Ag2_2 Yb3_6 3.037748 1_455
Ag2_2 Yb0_7 3.037748 1_454
Ag2_2 Yb0_3 3.037748 1_554
Ag2_2 Yb2_2 3.169749 1_555
Ag2_2 Yb5_2 3.169749 1_555
Ag2_3 Ag3_2 2.949925 1_555
Ag2_3 Yb4_3 3.004420 1_555
Ag2_3 Yb4_7 3.004420 1_455
Ag2_3 Yb0_2 3.037748 1_555
Ag2_3 Yb0_6 3.037748 1_455
Ag2_3 Yb3_7 3.037748 1_455
Ag2_3 Yb3_3 3.037748 1_555
Ag2_3 Yb2_3 3.169749 1_555
Ag2_3 Yb5_3 3.169749 1_555
Ag2_4 Ag3_5 2.949925 1_554
Ag2_4 Yb4_0 3.004420 1_555
Ag2_4 Yb4_4 3.004420 1_555
Ag2_4 Yb3_0 3.037748 1_555
Ag2_4 Yb3_4 3.037748 1_555
Ag2_4 Yb0_1 3.037748 1_554
Ag2_4 Yb0_5 3.037748 1_554
Ag2_4 Yb2_4 3.169749 1_555
Ag2_4 Yb5_4 3.169749 1_555
Ag2_5 Ag3_4 2.949925 1_555
Ag2_5 Yb4_5 3.004420 1_555
Ag2_5 Yb4_1 3.004420 1_555
Ag2_5 Yb0_4 3.037748 1_555
Ag2_5 Yb0_0 3.037748 1_555
Ag2_5 Yb3_1 3.037748 1_555
Ag2_5 Yb3_5 3.037748 1_555
Ag2_5 Yb2_5 3.169749 1_555
Ag2_5 Yb5_5 3.169749 1_555
Ag2_6 Ag3_7 2.949925 1_554
Ag2_6 Yb4_2 3.004420 1_555
Ag2_6 Yb4_6 3.004420 1_555
Ag2_6 Yb3_2 3.037748 1_555
Ag2_6 Yb3_6 3.037748 1_555
Ag2_6 Yb0_7 3.037748 1_554
Ag2_6 Yb0_3 3.037748 1_554
Ag2_6 Yb2_6 3.169749 1_555
Ag2_6 Yb5_6 3.169749 1_555
Ag2_7 Ag3_6 2.949925 1_555
Ag2_7 Yb4_3 3.004420 1_555
Ag2_7 Yb4_7 3.004420 1_555
Ag2_7 Yb0_6 3.037748 1_555
Ag2_7 Yb0_2 3.037748 1_555
Ag2_7 Yb3_3 3.037748 1_555
Ag2_7 Yb3_7 3.037748 1_555
Ag2_7 Yb2_7 3.169749 1_555
Ag2_7 Yb5_7 3.169749 1_555
Ag3_0 Yb1_4 3.004420 1_455
Ag3_0 Yb1_0 3.004420 1_555
Ag3_0 Yb3_5 3.037748 1_455
Ag3_0 Yb0_0 3.037748 1_555
Ag3_0 Yb3_1 3.037748 1_555
Ag3_0 Yb0_4 3.037748 1_455
Ag3_0 Yb5_0 3.169749 1_555
Ag3_0 Yb2_3 3.169749 1_555
Ag3_1 Yb1_5 3.004420 1_455
Ag3_1 Yb1_1 3.004420 1_555
Ag3_1 Yb3_4 3.037748 1_456
Ag3_1 Yb3_0 3.037748 1_556
Ag3_1 Yb0_5 3.037748 1_455
Ag3_1 Yb0_1 3.037748 1_555
Ag3_1 Yb5_1 3.169749 1_555
Ag3_1 Yb2_2 3.169749 1_556
Ag3_2 Yb1_6 3.004420 1_455
Ag3_2 Yb1_2 3.004420 1_555
Ag3_2 Yb0_6 3.037748 1_455
Ag3_2 Yb0_2 3.037748 1_555
Ag3_2 Yb3_7 3.037748 1_455
Ag3_2 Yb3_3 3.037748 1_555
Ag3_2 Yb5_2 3.169749 1_555
Ag3_2 Yb2_1 3.169749 1_565
Ag3_3 Yb1_7 3.004420 1_455
Ag3_3 Yb1_3 3.004420 1_555
Ag3_3 Yb3_2 3.037748 1_556
Ag3_3 Yb3_6 3.037748 1_456
Ag3_3 Yb0_7 3.037748 1_455
Ag3_3 Yb0_3 3.037748 1_555
Ag3_3 Yb5_3 3.169749 1_555
Ag3_3 Yb2_0 3.169749 1_566
Ag3_4 Yb1_0 3.004420 1_555
Ag3_4 Yb1_4 3.004420 1_555
Ag3_4 Yb0_0 3.037748 1_555
Ag3_4 Yb3_1 3.037748 1_555
Ag3_4 Yb3_5 3.037748 1_555
Ag3_4 Yb0_4 3.037748 1_555
Ag3_4 Yb5_4 3.169749 1_555
Ag3_4 Yb2_7 3.169749 1_555
Ag3_5 Yb1_1 3.004420 1_555
Ag3_5 Yb1_5 3.004420 1_555
Ag3_5 Yb3_4 3.037748 1_556
Ag3_5 Yb3_0 3.037748 1_556
Ag3_5 Yb0_1 3.037748 1_555
Ag3_5 Yb0_5 3.037748 1_555
Ag3_5 Yb5_5 3.169749 1_555
Ag3_5 Yb2_6 3.169749 1_556
Ag3_6 Yb1_2 3.004420 1_555
Ag3_6 Yb1_6 3.004420 1_555
Ag3_6 Yb0_2 3.037748 1_555
Ag3_6 Yb0_6 3.037748 1_555
Ag3_6 Yb3_3 3.037748 1_555
Ag3_6 Yb3_7 3.037748 1_555
Ag3_6 Yb5_6 3.169749 1_555
Ag3_6 Yb2_5 3.169749 1_565
Ag3_7 Yb1_7 3.004420 1_555
Ag3_7 Yb1_3 3.004420 1_555
Ag3_7 Yb3_2 3.037748 1_556
Ag3_7 Yb3_6 3.037748 1_556
Ag3_7 Yb0_7 3.037748 1_555
Ag3_7 Yb0_3 3.037748 1_555
Ag3_7 Yb5_7 3.169749 1_555
Ag3_7 Yb2_4 3.169749 1_566
