# generated using pymatgen
data_CeP2
_symmetry_space_group_name_H-M   'P 1'
_cell_length_a   4.08018333
_cell_length_b   6.56582129
_cell_length_c   9.83976311
_cell_angle_alpha   90.00000000
_cell_angle_beta   97.56484031
_cell_angle_gamma   90.00000000
_symmetry_Int_Tables_number   1
_chemical_formula_structural   CeP2
_chemical_formula_sum   'Ce4 P8'
_cell_volume   261.31055776
_cell_formula_units_Z   4
loop_
 _symmetry_equiv_pos_site_id
 _symmetry_equiv_pos_as_xyz
  1  'x, y, z'
loop_
 _atom_site_type_symbol
 _atom_site_label
 _atom_site_symmetry_multiplicity
 _atom_site_fract_x
 _atom_site_fract_y
 _atom_site_fract_z
 _atom_site_occupancy
  Ce  Ce0  1  0.22061886  0.31711840  0.14008070  1
  Ce  Ce1  1  0.77938114  0.68288160  0.85991930  1
  Ce  Ce2  1  0.27938114  0.81711840  0.35991930  1
  Ce  Ce3  1  0.72061886  0.18288160  0.64008070  1
  P  P0  1  0.19665923  0.83782453  0.66476352  1
  P  P1  1  0.80334077  0.16217547  0.33523648  1
  P  P2  1  0.14581488  0.37848431  0.45265182  1
  P  P3  1  0.35418512  0.87848431  0.04734818  1
  P  P4  1  0.69665923  0.66217547  0.16476352  1
  P  P5  1  0.64581488  0.12151569  0.95265182  1
  P  P6  1  0.85418512  0.62151569  0.54734818  1
  P  P7  1  0.30334077  0.33782453  0.83523648  1
loop_
_geom_bond_atom_site_label_1
_geom_bond_atom_site_label_2
_geom_bond_distance
_geom_bond_site_symmetry_2
Ce0 P1 2.912393 1_455
Ce0 P4 2.973264 1_555
Ce0 P5 2.983776 1_554
Ce0 P1 3.028756 1_555
Ce0 P7 3.065378 1_554
Ce0 P5 3.067947 1_454
Ce0 P3 3.091097 1_545
Ce0 P4 3.146263 1_455
Ce0 P2 3.156285 1_555
Ce1 P0 2.912393 1_655
Ce1 P7 2.973264 1_555
Ce1 P3 2.983776 1_556
Ce1 P0 3.028756 1_555
Ce1 P4 3.065378 1_556
Ce1 P3 3.067947 1_656
Ce1 P5 3.091097 1_565
Ce1 P7 3.146263 1_655
Ce1 P6 3.156285 1_555
Ce2 P4 2.912393 1_555
Ce2 P1 2.973264 1_465
Ce2 P6 2.983776 1_455
Ce2 P4 3.028756 1_455
Ce2 P0 3.065378 1_555
Ce2 P6 3.067947 1_555
Ce2 P2 3.091097 1_555
Ce2 P1 3.146263 1_565
Ce2 P3 3.156285 1_555
Ce3 P7 2.912393 1_555
Ce3 P0 2.973264 1_645
Ce3 P2 2.983776 1_655
Ce3 P7 3.028756 1_655
Ce3 P1 3.065378 1_555
Ce3 P2 3.067947 1_555
Ce3 P6 3.091097 1_555
Ce3 P0 3.146263 1_545
Ce3 P5 3.156285 1_555
P0 P6 2.208946 1_455
P1 P2 2.208946 1_655
P2 P6 2.263247 1_455
P3 P4 2.208946 1_555
P3 P5 2.263247 1_564
P5 P7 2.208946 1_555
