# generated using pymatgen
data_Ba3SrTa2O9
_symmetry_space_group_name_H-M   'P 1'
_cell_length_a   6.09507275
_cell_length_b   6.09507241
_cell_length_c   15.39206311
_cell_angle_alpha   90.00000000
_cell_angle_beta   90.00000000
_cell_angle_gamma   119.99999998
_symmetry_Int_Tables_number   1
_chemical_formula_structural   Ba3SrTa2O9
_chemical_formula_sum   'Ba6 Sr2 Ta4 O18'
_cell_volume   495.20523850
_cell_formula_units_Z   2
loop_
 _symmetry_equiv_pos_site_id
 _symmetry_equiv_pos_as_xyz
  1  'x, y, z'
loop_
 _atom_site_type_symbol
 _atom_site_label
 _atom_site_symmetry_multiplicity
 _atom_site_fract_x
 _atom_site_fract_y
 _atom_site_fract_z
 _atom_site_occupancy
  Ba  Ba0  1  0.00000000  0.00000000  0.25000000  1
  Ba  Ba1  1  0.00000000  0.00000000  0.75000000  1
  Ba  Ba2  1  0.33333300  0.66666700  0.11788170  1
  Ba  Ba3  1  0.66666700  0.33333300  0.61788170  1
  Ba  Ba4  1  0.66666700  0.33333300  0.88211830  1
  Ba  Ba5  1  0.33333300  0.66666700  0.38211830  1
  Sr  Sr0  1  0.00000000  0.00000000  -0.00000000  1
  Sr  Sr1  1  0.00000000  0.00000000  0.50000000  1
  Ta  Ta0  1  0.33333300  0.66666700  0.84584450  1
  Ta  Ta1  1  0.66666700  0.33333300  0.34584450  1
  Ta  Ta2  1  0.66666700  0.33333300  0.15415550  1
  Ta  Ta3  1  0.33333300  0.66666700  0.65415550  1
  O  O0  1  0.56869556  0.04516784  0.25000000  1
  O  O1  1  0.52352672  0.56869556  0.75000000  1
  O  O2  1  0.04516784  0.47647328  0.75000000  1
  O  O3  1  0.95483216  0.52352672  0.25000000  1
  O  O4  1  0.47647328  0.43130444  0.25000000  1
  O  O5  1  0.43130444  0.95483216  0.75000000  1
  O  O6  1  0.76062050  0.64376967  0.09799479  1
  O  O7  1  0.11684883  0.76062050  0.59799479  1
  O  O8  1  0.64376967  0.88315117  0.59799479  1
  O  O9  1  0.35623033  0.11684883  0.09799479  1
  O  O10  1  0.88315117  0.23937950  0.09799479  1
  O  O11  1  0.23937950  0.35623033  0.59799479  1
  O  O12  1  0.23937950  0.35623033  0.90200521  1
  O  O13  1  0.88315117  0.23937950  0.40200521  1
  O  O14  1  0.35623033  0.11684883  0.40200521  1
  O  O15  1  0.64376967  0.88315117  0.90200521  1
  O  O16  1  0.11684883  0.76062050  0.90200521  1
  O  O17  1  0.76062050  0.64376967  0.40200521  1
loop_
_geom_bond_atom_site_label_1
_geom_bond_atom_site_label_2
_geom_bond_distance
_geom_bond_site_symmetry_2
Ba0 O0 2.776737 1_455
Ba0 O4 2.776741 1_555
Ba0 O3 2.776743 1_445
Ba0 O10 3.024767 1_455
Ba0 O13 3.024767 1_455
Ba0 O6 3.024773 1_445
Ba0 O17 3.024773 1_445
Ba0 O9 3.024775 1_555
Ba0 O14 3.024775 1_555
Ba1 O5 2.776737 1_545
Ba1 O1 2.776741 1_445
Ba1 O2 2.776743 1_555
Ba1 O7 3.024767 1_545
Ba1 O16 3.024767 1_545
Ba1 O11 3.024773 1_555
Ba1 O12 3.024773 1_555
Ba1 O8 3.024775 1_445
Ba1 O15 3.024775 1_445
Ba2 O9 2.694285 1_565
Ba2 O10 2.694294 1_455
Ba2 O6 2.694303 1_555
Ba2 O3 2.864622 1_455
Ba2 O0 2.864623 1_565
Ba2 O4 2.864630 1_555
Ba3 O8 2.694285 1_545
Ba3 O7 2.694294 1_655
Ba3 O11 2.694303 1_555
Ba3 O2 2.864622 1_655
Ba3 O5 2.864623 1_545
Ba3 O1 2.864630 1_555
Ba4 O15 2.694285 1_545
Ba4 O16 2.694294 1_655
Ba4 O12 2.694303 1_555
Ba4 O2 2.864622 1_655
Ba4 O5 2.864623 1_545
Ba4 O1 2.864630 1_555
Ba5 O14 2.694285 1_565
Ba5 O13 2.694294 1_455
Ba5 O17 2.694303 1_555
Ba5 O3 2.864622 1_455
Ba5 O0 2.864623 1_565
Ba5 O4 2.864630 1_555
O0 Ta2 2.137524 1_555
O0 Ta1 2.137524 1_555
O1 Ta0 2.137524 1_555
O1 Ta3 2.137524 1_555
O2 Ta3 2.137524 1_555
O2 Ta0 2.137524 1_555
O3 Ta1 2.137524 1_555
O3 Ta2 2.137524 1_555
O4 Ta2 2.137524 1_555
O4 Ta1 2.137524 1_555
O5 Ta3 2.137524 1_555
O5 Ta0 2.137524 1_555
O6 Ta2 1.889922 1_555
O6 Sr0 2.439319 1_665
O7 Ta3 1.889927 1_555
O7 Sr1 2.439311 1_565
O8 Ta3 1.889923 1_555
O8 Sr1 2.439320 1_665
O9 Ta2 1.889923 1_555
O9 Sr0 2.439320 1_555
O10 Ta2 1.889927 1_555
O10 Sr0 2.439311 1_655
O11 Ta3 1.889922 1_555
O11 Sr1 2.439319 1_555
O12 Ta0 1.889922 1_555
O12 Sr0 2.439319 1_556
O13 Ta1 1.889927 1_555
O13 Sr1 2.439311 1_655
O14 Ta1 1.889923 1_555
O14 Sr1 2.439320 1_555
O15 Ta0 1.889923 1_555
O15 Sr0 2.439320 1_666
O16 Ta0 1.889927 1_555
O16 Sr0 2.439311 1_566
O17 Ta1 1.889922 1_555
O17 Sr1 2.439319 1_665
