# generated using pymatgen
data_Tb(NiP)2
_symmetry_space_group_name_H-M   'P 1'
_cell_length_a   3.86659478
_cell_length_b   3.86659521
_cell_length_c   5.40487886
_cell_angle_alpha   110.95868529
_cell_angle_beta   110.95869872
_cell_angle_gamma   89.99998990
_symmetry_Int_Tables_number   1
_chemical_formula_structural   Tb(NiP)2
_chemical_formula_sum   'Tb1 Ni2 P2'
_cell_volume   69.70462450
_cell_formula_units_Z   1
loop_
 _symmetry_equiv_pos_site_id
 _symmetry_equiv_pos_as_xyz
  1  'x, y, z'
loop_
 _atom_site_type_symbol
 _atom_site_label
 _atom_site_symmetry_multiplicity
 _atom_site_fract_x
 _atom_site_fract_y
 _atom_site_fract_z
 _atom_site_occupancy
  Tb  Tb0  1  -0.00000000  0.00000000  -0.00000000  1
  Ni  Ni0  1  0.75000000  0.25000000  0.50000000  1
  Ni  Ni1  1  0.25000000  0.75000000  0.50000000  1
  P  P0  1  0.62421760  0.62421760  0.24843720  1
  P  P1  1  0.37578240  0.37578240  0.75156280  1
loop_
_geom_bond_atom_site_label_1
_geom_bond_atom_site_label_2
_geom_bond_distance
_geom_bond_site_symmetry_2
Ni0 P0 2.261250 1_555
Ni0 P1 2.261250 1_555
Ni0 P1 2.261257 1_655
Ni0 P0 2.261257 1_545
Ni0 Tb0 3.028531 1_656
Ni0 Tb0 3.028531 1_655
Ni0 Tb0 3.028531 1_555
Ni0 Tb0 3.028532 1_666
Ni1 P1 2.261250 1_555
Ni1 P0 2.261250 1_555
Ni1 P0 2.261257 1_455
Ni1 P1 2.261257 1_565
Ni1 Tb0 3.028531 1_565
Ni1 Tb0 3.028531 1_566
Ni1 Tb0 3.028531 1_666
Ni1 Tb0 3.028532 1_555
P0 P1 2.316599 1_554
P0 Tb0 2.969328 1_555
P0 Tb0 2.969332 1_565
P0 Tb0 2.969333 1_655
P0 Tb0 2.969338 1_665
P1 Tb0 2.969328 1_666
P1 Tb0 2.969332 1_656
P1 Tb0 2.969333 1_566
P1 Tb0 2.969338 1_556
