# generated using pymatgen
data_K2RuNCl5O
_symmetry_space_group_name_H-M   'P 1'
_cell_length_a   7.05910700
_cell_length_b   10.58472500
_cell_length_c   13.64137900
_cell_angle_alpha   90.00000000
_cell_angle_beta   90.00000000
_cell_angle_gamma   90.00000000
_symmetry_Int_Tables_number   1
_chemical_formula_structural   K2RuNCl5O
_chemical_formula_sum   'K8 Ru4 N4 Cl20 O4'
_cell_volume   1019.26619158
_cell_formula_units_Z   4
loop_
 _symmetry_equiv_pos_site_id
 _symmetry_equiv_pos_as_xyz
  1  'x, y, z'
loop_
 _atom_site_type_symbol
 _atom_site_label
 _atom_site_symmetry_multiplicity
 _atom_site_fract_x
 _atom_site_fract_y
 _atom_site_fract_z
 _atom_site_occupancy
  K  K0  1  0.64529800  0.24974600  0.10437500  1
  K  K1  1  0.85470200  0.75025400  0.60437500  1
  K  K2  1  0.64622000  0.75018900  0.10275600  1
  K  K3  1  0.14529800  0.25025400  0.89562500  1
  K  K4  1  0.35378000  0.25018900  0.39724400  1
  K  K5  1  0.85378000  0.24981100  0.60275600  1
  K  K6  1  0.35470200  0.74974600  0.39562500  1
  K  K7  1  0.14622000  0.74981100  0.89724400  1
  Ru  Ru0  1  0.32889200  0.99827000  0.64204800  1
  Ru  Ru1  1  0.67110800  0.49827000  0.85795200  1
  Ru  Ru2  1  0.82889200  0.50173000  0.35795200  1
  Ru  Ru3  1  0.17110800  0.00173000  0.14204800  1
  N  N0  1  0.98879900  0.50268200  0.26083700  1
  N  N1  1  0.51120100  0.49731800  0.76083700  1
  N  N2  1  0.01120100  0.00268200  0.23916300  1
  N  N3  1  0.48879900  0.99731800  0.73916300  1
  Cl  Cl0  1  0.91046400  0.00062200  0.02773800  1
  Cl  Cl1  1  0.31649300  0.22479200  0.63654400  1
  Cl  Cl2  1  0.37650300  0.00116000  0.00348500  1
  Cl  Cl3  1  0.31767000  0.77159600  0.63540700  1
  Cl  Cl4  1  0.68233000  0.27159600  0.86459300  1
  Cl  Cl5  1  0.58953600  0.99937800  0.52773800  1
  Cl  Cl6  1  0.62349800  0.50116000  0.49651500  1
  Cl  Cl7  1  0.81649300  0.27520800  0.36345600  1
  Cl  Cl8  1  0.55141700  0.50206100  0.25508200  1
  Cl  Cl9  1  0.87650200  0.49884000  0.99651500  1
  Cl  Cl10  1  0.41046400  0.49937800  0.97226200  1
  Cl  Cl11  1  0.18233000  0.22840400  0.13540700  1
  Cl  Cl12  1  0.44858300  0.00206100  0.24491800  1
  Cl  Cl13  1  0.08953600  0.50062200  0.47226200  1
  Cl  Cl14  1  0.68350700  0.72479200  0.86345600  1
  Cl  Cl15  1  0.18350700  0.77520800  0.13654400  1
  Cl  Cl16  1  0.94858300  0.49793900  0.75508200  1
  Cl  Cl17  1  0.05141700  0.99793900  0.74491800  1
  Cl  Cl18  1  0.12349700  0.99884000  0.50348500  1
  Cl  Cl19  1  0.81767000  0.72840400  0.36459300  1
  O  O0  1  0.89502000  0.00396900  0.29989000  1
  O  O1  1  0.60498000  0.99603100  0.79989000  1
  O  O2  1  0.10498000  0.50396900  0.20011000  1
  O  O3  1  0.39502000  0.49603100  0.70011000  1
loop_
_geom_bond_atom_site_label_1
_geom_bond_atom_site_label_2
_geom_bond_distance
_geom_bond_site_symmetry_2
N0 O2 1.165784 1_655
N0 Ru2 1.740500 1_555
N1 O3 1.165784 1_555
N1 Ru1 1.740500 1_555
N2 O0 1.165784 1_455
N2 Ru3 1.740500 1_555
N3 O1 1.165784 1_555
N3 Ru0 1.740500 1_555
Cl0 Ru3 2.411842 1_655
Cl0 K0 3.398527 1_555
Cl0 K2 3.399006 1_545
Cl0 K3 3.602450 1_654
Cl0 K7 3.603644 1_644
Cl1 Ru0 2.400445 1_545
Cl1 K4 3.285991 1_555
Cl1 K5 3.309313 1_455
Cl1 K3 3.744836 1_555
Cl2 Ru3 2.382243 1_555
Cl2 K3 3.432239 1_554
Cl2 K7 3.438167 1_544
Cl2 K0 3.523884 1_555
Cl2 K2 3.537751 1_545
Cl3 Ru0 2.402298 1_555
Cl3 K6 3.289527 1_555
Cl3 K1 3.303176 1_455
Cl3 K1 3.821211 1_555
Cl4 Ru1 2.402298 1_555
Cl4 K0 3.289527 1_556
Cl4 K3 3.303176 1_655
Cl4 K3 3.821211 1_555
Cl5 Ru0 2.411842 1_555
Cl5 K1 3.398527 1_555
Cl5 K5 3.399006 1_565
Cl5 K6 3.602450 1_555
Cl5 K4 3.603644 1_565
Cl6 Ru2 2.382239 1_555
Cl6 K1 3.432236 1_555
Cl6 K5 3.438164 1_555
Cl6 K6 3.523888 1_555
Cl6 K4 3.537755 1_555
Cl7 Ru2 2.400445 1_555
Cl7 K5 3.285991 1_555
Cl7 K4 3.309313 1_555
Cl7 K0 3.744836 1_555
Cl8 Ru2 2.409531 1_555
Cl8 K2 3.415184 1_555
Cl8 K0 3.434862 1_555
Cl8 K6 3.532301 1_555
Cl8 K4 3.579774 1_555
Cl9 Ru1 2.382239 1_555
Cl9 K0 3.432236 1_556
Cl9 K2 3.438164 1_556
Cl9 K3 3.523888 1_655
Cl9 K7 3.537755 1_655
Cl10 Ru1 2.411842 1_555
Cl10 K3 3.398527 1_555
Cl10 K7 3.399006 1_555
Cl10 K0 3.602450 1_556
Cl10 K2 3.603644 1_556
Cl11 Ru3 2.402298 1_555
Cl11 K3 3.289527 1_554
Cl11 K0 3.303176 1_555
Cl11 K0 3.821211 1_455
Cl12 Ru3 2.409531 1_555
Cl12 K4 3.415184 1_555
Cl12 K6 3.434862 1_545
Cl12 K0 3.532301 1_555
Cl12 K2 3.579774 1_545
Cl13 Ru2 2.411842 1_455
Cl13 K6 3.398527 1_555
Cl13 K4 3.399006 1_555
Cl13 K1 3.602450 1_455
Cl13 K5 3.603644 1_455
Cl14 Ru1 2.400445 1_555
Cl14 K2 3.285991 1_556
Cl14 K7 3.309313 1_655
Cl14 K1 3.744836 1_555
Cl15 Ru3 2.400445 1_565
Cl15 K7 3.285991 1_554
Cl15 K2 3.309313 1_555
Cl15 K6 3.744836 1_555
Cl16 Ru1 2.409531 1_555
Cl16 K5 3.415184 1_555
Cl16 K1 3.434862 1_555
Cl16 K3 3.532301 1_655
Cl16 K7 3.579774 1_655
Cl17 Ru0 2.409531 1_555
Cl17 K7 3.415184 1_555
Cl17 K3 3.434862 1_565
Cl17 K1 3.532301 1_455
Cl17 K5 3.579774 1_465
Cl18 Ru0 2.382243 1_555
Cl18 K6 3.432239 1_555
Cl18 K4 3.438167 1_565
Cl18 K1 3.523884 1_455
Cl18 K5 3.537751 1_465
Cl19 Ru2 2.402298 1_555
Cl19 K1 3.289527 1_555
Cl19 K6 3.303176 1_555
Cl19 K6 3.821211 1_655
