# generated using pymatgen
data_K3U3Si2O13
_symmetry_space_group_name_H-M   'P 1'
_cell_length_a   9.66601788
_cell_length_b   9.66601788
_cell_length_c   8.46371200
_cell_angle_alpha   90.00000000
_cell_angle_beta   90.00000000
_cell_angle_gamma   119.99999916
_symmetry_Int_Tables_number   1
_chemical_formula_structural   K3U3Si2O13
_chemical_formula_sum   'K6 U6 Si4 O26'
_cell_volume   684.83618672
_cell_formula_units_Z   2
loop_
 _symmetry_equiv_pos_site_id
 _symmetry_equiv_pos_as_xyz
  1  'x, y, z'
loop_
 _atom_site_type_symbol
 _atom_site_label
 _atom_site_symmetry_multiplicity
 _atom_site_fract_x
 _atom_site_fract_y
 _atom_site_fract_z
 _atom_site_occupancy
  K  K0  1  0.95894400  0.57383500  0.75000000  1
  K  K1  1  0.04105600  0.61489000  0.25000000  1
  K  K2  1  0.42616500  0.38511000  0.75000000  1
  K  K3  1  0.38511000  0.42616500  0.25000000  1
  K  K4  1  0.61489000  0.04105600  0.75000000  1
  K  K5  1  0.57383500  0.95894400  0.25000000  1
  U  U0  1  0.75614200  0.75614200  0.00000000  1
  U  U1  1  0.00000000  0.24385800  0.00000000  1
  U  U2  1  0.24385800  0.00000000  0.50000000  1
  U  U3  1  0.24385800  0.00000000  0.00000000  1
  U  U4  1  0.75614200  0.75614200  0.50000000  1
  U  U5  1  0.00000000  0.24385800  0.50000000  1
  Si  Si0  1  0.33333300  0.66666700  0.55518800  1
  Si  Si1  1  0.66666700  0.33333300  0.05518800  1
  Si  Si2  1  0.33333300  0.66666700  0.94481200  1
  Si  Si3  1  0.66666700  0.33333300  0.44481200  1
  O  O0  1  0.00120100  0.25397100  0.25000000  1
  O  O1  1  0.32345600  0.82114200  0.00796200  1
  O  O2  1  0.32345600  0.82114200  0.49203800  1
  O  O3  1  0.00000000  0.80890800  0.00000000  1
  O  O4  1  0.25277000  0.99879900  0.25000000  1
  O  O5  1  0.80890800  0.00000000  0.50000000  1
  O  O6  1  0.50231400  0.17885800  0.50796200  1
  O  O7  1  0.00000000  0.80890800  0.50000000  1
  O  O8  1  0.67654400  0.49768600  0.99203800  1
  O  O9  1  0.82114200  0.32345600  0.99203800  1
  O  O10  1  0.49768600  0.67654400  0.00796200  1
  O  O11  1  0.80890800  0.00000000  0.00000000  1
  O  O12  1  0.49768600  0.67654400  0.49203800  1
  O  O13  1  0.17885800  0.50231400  0.00796200  1
  O  O14  1  0.74602900  0.74723000  0.25000000  1
  O  O15  1  0.19109200  0.19109200  0.00000000  1
  O  O16  1  0.82114200  0.32345600  0.50796200  1
  O  O17  1  0.25397100  0.00120100  0.75000000  1
  O  O18  1  0.99879900  0.25277000  0.75000000  1
  O  O19  1  0.67654400  0.49768600  0.50796200  1
  O  O20  1  0.50231400  0.17885800  0.99203800  1
  O  O21  1  0.74723000  0.74602900  0.75000000  1
  O  O22  1  0.19109200  0.19109200  0.50000000  1
  O  O23  1  0.17885800  0.50231400  0.49203800  1
  O  O24  1  0.66666700  0.33333300  0.25000000  1
  O  O25  1  0.33333300  0.66666700  0.75000000  1
loop_
_geom_bond_atom_site_label_1
_geom_bond_atom_site_label_2
_geom_bond_distance
_geom_bond_site_symmetry_2
K0 O9 2.933307 1_555
K0 O16 2.933307 1_555
K0 O3 2.982599 1_656
K0 O7 2.982599 1_655
K0 O8 3.190653 1_555
K0 O19 3.190653 1_555
K0 O21 3.219371 1_555
K0 O25 3.264047 1_655
K0 O18 3.312882 1_555
K0 O13 3.351553 1_656
K0 O23 3.351553 1_655
K1 O13 2.933301 1_555
K1 O23 2.933301 1_555
K1 O7 2.982606 1_555
K1 O3 2.982606 1_555
K1 O2 3.190655 1_555
K1 O1 3.190655 1_555
K1 O4 3.219379 1_555
K1 O24 3.264047 1_455
K1 O0 3.312872 1_555
K1 O9 3.351548 1_454
K1 O16 3.351548 1_455
K2 O19 2.933307 1_555
K2 O8 2.933307 1_555
K2 O15 2.982601 1_556
K2 O22 2.982601 1_555
K2 O6 3.190660 1_555
K2 O20 3.190660 1_555
K2 O17 3.219380 1_555
K2 O25 3.264047 1_555
K2 O21 3.312876 1_555
K2 O12 3.351546 1_555
K2 O10 3.351546 1_556
K3 O12 2.933307 1_555
K3 O10 2.933307 1_555
K3 O15 2.982601 1_555
K3 O22 2.982601 1_555
K3 O13 3.190660 1_555
K3 O23 3.190660 1_555
K3 O0 3.219380 1_555
K3 O24 3.264047 1_555
K3 O14 3.312876 1_555
K3 O19 3.351546 1_555
K3 O8 3.351546 1_554
K4 O6 2.933301 1_555
K4 O20 2.933301 1_555
K4 O11 2.982606 1_556
K4 O5 2.982606 1_555
K4 O9 3.190655 1_555
K4 O16 3.190655 1_555
K4 O18 3.219379 1_555
K4 O25 3.264047 1_545
K4 O17 3.312872 1_555
K4 O2 3.351548 1_545
K4 O1 3.351548 1_546
K5 O1 2.933307 1_555
K5 O2 2.933307 1_555
K5 O5 2.982599 1_565
K5 O11 2.982599 1_565
K5 O10 3.190653 1_555
K5 O12 3.190653 1_555
K5 O14 3.219371 1_555
K5 O24 3.264047 1_565
K5 O4 3.312882 1_555
K5 O20 3.351553 1_564
K5 O6 3.351553 1_565
O0 U5 2.117949 1_555
O0 U1 2.117949 1_555
O1 Si2 1.633053 1_554
O1 U3 2.217111 1_565
O2 Si0 1.633053 1_555
O2 U2 2.217111 1_565
O3 U0 2.148022 1_455
O3 U3 2.148022 1_565
O4 U3 2.117949 1_565
O4 U2 2.117949 1_565
O5 U4 2.148022 1_545
O5 U5 2.148022 1_655
O6 Si3 1.633058 1_555
O6 U2 2.217111 1_555
O7 U4 2.148022 1_455
O7 U2 2.148022 1_565
O8 Si1 1.633062 1_556
O8 U0 2.217111 1_556
O9 Si1 1.633053 1_556
O9 U1 2.217111 1_656
O10 Si2 1.633062 1_554
O10 U0 2.217111 1_555
O11 U0 2.148022 1_545
O11 U1 2.148022 1_655
O12 Si0 1.633062 1_555
O12 U4 2.217111 1_555
O13 Si2 1.633058 1_554
O13 U1 2.217111 1_555
O14 U0 2.117949 1_555
O14 U4 2.117949 1_555
O15 U3 2.148022 1_555
O15 U1 2.148022 1_555
O16 Si3 1.633053 1_555
O16 U5 2.217111 1_655
O17 U2 2.117949 1_555
O17 U3 2.117949 1_556
O18 U1 2.117949 1_656
O18 U5 2.117949 1_655
O19 Si3 1.633062 1_555
O19 U4 2.217111 1_555
O20 Si1 1.633058 1_556
O20 U3 2.217111 1_556
O21 U4 2.117949 1_555
O21 U0 2.117949 1_556
O22 U5 2.148022 1_555
O22 U2 2.148022 1_555
O23 Si0 1.633058 1_555
O23 U5 2.217111 1_555
O24 Si3 1.648833 1_555
O24 Si1 1.648833 1_555
O25 Si2 1.648833 1_555
O25 Si0 1.648833 1_555
