# generated using pymatgen
data_Ba3Ho2(PS4)4
_symmetry_space_group_name_H-M   'P 1'
_cell_length_a   10.41221300
_cell_length_b   12.74290700
_cell_length_c   19.43586900
_cell_angle_alpha   90.00000000
_cell_angle_beta   90.00000000
_cell_angle_gamma   90.00000000
_symmetry_Int_Tables_number   1
_chemical_formula_structural   Ba3Ho2(PS4)4
_chemical_formula_sum   'Ba12 Ho8 P16 S64'
_cell_volume   2578.78728702
_cell_formula_units_Z   4
loop_
 _symmetry_equiv_pos_site_id
 _symmetry_equiv_pos_as_xyz
  1  'x, y, z'
loop_
 _atom_site_type_symbol
 _atom_site_label
 _atom_site_symmetry_multiplicity
 _atom_site_fract_x
 _atom_site_fract_y
 _atom_site_fract_z
 _atom_site_occupancy
  Ba  Ba0  1  0.78981600  0.10806600  0.22705400  1
  Ba  Ba1  1  0.11673200  0.25000000  0.00000000  1
  Ba  Ba2  1  0.71018400  0.89193400  0.72705400  1
  Ba  Ba3  1  0.88326800  0.75000000  0.00000000  1
  Ba  Ba4  1  0.38326800  0.75000000  0.50000000  1
  Ba  Ba5  1  0.28981600  0.39193400  0.72705400  1
  Ba  Ba6  1  0.21018400  0.89193400  0.77294600  1
  Ba  Ba7  1  0.78981600  0.39193400  0.77294600  1
  Ba  Ba8  1  0.71018400  0.60806600  0.27294600  1
  Ba  Ba9  1  0.28981600  0.10806600  0.27294600  1
  Ba  Ba10  1  0.21018400  0.60806600  0.22705400  1
  Ba  Ba11  1  0.61673200  0.25000000  0.50000000  1
  Ho  Ho0  1  0.62838800  0.38736100  0.07333500  1
  Ho  Ho1  1  0.62838800  0.11263900  0.92666500  1
  Ho  Ho2  1  0.37161200  0.61263900  0.92666500  1
  Ho  Ho3  1  0.87161200  0.88736100  0.42666500  1
  Ho  Ho4  1  0.37161200  0.88736100  0.07333500  1
  Ho  Ho5  1  0.87161200  0.61263900  0.57333500  1
  Ho  Ho6  1  0.12838800  0.38736100  0.42666500  1
  Ho  Ho7  1  0.12838800  0.11263900  0.57333500  1
  P  P0  1  0.49565300  0.36010700  0.89812200  1
  P  P1  1  0.93623900  0.45142800  0.13096000  1
  P  P2  1  0.43623900  0.45142800  0.36904000  1
  P  P3  1  0.93623900  0.04857200  0.86904000  1
  P  P4  1  0.06376100  0.54857200  0.86904000  1
  P  P5  1  0.56376100  0.95142800  0.36904000  1
  P  P6  1  0.50434700  0.86010700  0.89812200  1
  P  P7  1  0.49565300  0.13989300  0.10187800  1
  P  P8  1  0.00434700  0.86010700  0.60187800  1
  P  P9  1  0.56376100  0.54857200  0.63096000  1
  P  P10  1  0.99565300  0.36010700  0.60187800  1
  P  P11  1  0.99565300  0.13989300  0.39812200  1
  P  P12  1  0.00434700  0.63989300  0.39812200  1
  P  P13  1  0.50434700  0.63989300  0.10187800  1
  P  P14  1  0.06376100  0.95142800  0.13096000  1
  P  P15  1  0.43623900  0.04857200  0.63096000  1
  S  S0  1  0.00423400  0.48586000  0.66652900  1
  S  S1  1  0.12112200  0.58533000  0.96748400  1
  S  S2  1  0.93004600  0.61215200  0.14718600  1
  S  S3  1  0.70985800  0.61377800  0.69085400  1
  S  S4  1  0.88614800  0.89402600  0.14964200  1
  S  S5  1  0.43577900  0.27021600  0.15078100  1
  S  S6  1  0.93004600  0.88784800  0.85281400  1
  S  S7  1  0.11154800  0.59834900  0.48348800  1
  S  S8  1  0.67935400  0.16993400  0.06775200  1
  S  S9  1  0.62112200  0.91467000  0.46748400  1
  S  S10  1  0.49576600  0.98586000  0.83347100  1
  S  S11  1  0.06995400  0.11215200  0.14718600  1
  S  S12  1  0.11385200  0.10597400  0.85035800  1
  S  S13  1  0.87887800  0.41467000  0.03251600  1
  S  S14  1  0.06422100  0.77021600  0.34921900  1
  S  S15  1  0.32064600  0.83006600  0.93224800  1
  S  S16  1  0.56422100  0.77021600  0.15078100  1
  S  S17  1  0.29014200  0.38622200  0.30914600  1
  S  S18  1  0.50423400  0.01414000  0.16652900  1
  S  S19  1  0.37887800  0.41467000  0.46748400  1
  S  S20  1  0.17935400  0.16993400  0.43224800  1
  S  S21  1  0.43004600  0.88784800  0.64718600  1
  S  S22  1  0.82064600  0.66993400  0.43224800  1
  S  S23  1  0.43004600  0.61215200  0.35281400  1
  S  S24  1  0.67935400  0.33006600  0.93224800  1
  S  S25  1  0.38845200  0.40165100  0.98348800  1
  S  S26  1  0.79014200  0.11377800  0.80914600  1
  S  S27  1  0.38614800  0.89402600  0.35035800  1
  S  S28  1  0.88845200  0.09834900  0.48348800  1
  S  S29  1  0.06422100  0.72978400  0.65078100  1
  S  S30  1  0.43577900  0.22978400  0.84921900  1
  S  S31  1  0.38845200  0.09834900  0.01651200  1
  S  S32  1  0.93577900  0.27021600  0.34921900  1
  S  S33  1  0.29014200  0.11377800  0.69085400  1
  S  S34  1  0.17935400  0.33006600  0.56775200  1
  S  S35  1  0.00423400  0.01414000  0.33347100  1
  S  S36  1  0.38614800  0.60597400  0.64964200  1
  S  S37  1  0.93577900  0.22978400  0.65078100  1
  S  S38  1  0.99576600  0.51414000  0.33347100  1
  S  S39  1  0.56995400  0.11215200  0.35281400  1
  S  S40  1  0.56422100  0.72978400  0.84921900  1
  S  S41  1  0.82064600  0.83006600  0.56775200  1
  S  S42  1  0.11154800  0.90165100  0.51651200  1
  S  S43  1  0.62112200  0.58533000  0.53251600  1
  S  S44  1  0.12112200  0.91467000  0.03251600  1
  S  S45  1  0.79014200  0.38622200  0.19085400  1
  S  S46  1  0.49576600  0.51414000  0.16652900  1
  S  S47  1  0.37887800  0.08533000  0.53251600  1
  S  S48  1  0.88845200  0.40165100  0.51651200  1
  S  S49  1  0.88614800  0.60597400  0.85035800  1
  S  S50  1  0.20985800  0.88622200  0.19085400  1
  S  S51  1  0.61385200  0.10597400  0.64964200  1
  S  S52  1  0.70985800  0.88622200  0.30914600  1
  S  S53  1  0.20985800  0.61377800  0.80914600  1
  S  S54  1  0.61385200  0.39402600  0.35035800  1
  S  S55  1  0.56995400  0.38784800  0.64718600  1
  S  S56  1  0.50423400  0.48586000  0.83347100  1
  S  S57  1  0.06995400  0.38784800  0.85281400  1
  S  S58  1  0.61154800  0.90165100  0.98348800  1
  S  S59  1  0.32064600  0.66993400  0.06775200  1
  S  S60  1  0.99576600  0.98586000  0.66652900  1
  S  S61  1  0.11385200  0.39402600  0.14964200  1
  S  S62  1  0.87887800  0.08533000  0.96748400  1
  S  S63  1  0.61154800  0.59834900  0.01651200  1
loop_
_geom_bond_atom_site_label_1
_geom_bond_atom_site_label_2
_geom_bond_distance
_geom_bond_site_symmetry_2
Ba0 S35 3.270289 1_655
Ba0 S4 3.272462 1_545
Ba0 S11 3.304604 1_655
Ba0 S39 3.349292 1_555
Ba0 S52 3.351181 1_545
Ba0 S8 3.395686 1_555
Ba0 S18 3.414426 1_555
Ba0 S32 3.495271 1_555
Ba0 S45 3.613672 1_555
Ba1 S62 3.306970 1_454
Ba1 S13 3.306970 1_455
Ba1 S11 3.392102 1_555
Ba1 S57 3.392102 1_554
Ba1 S61 3.439212 1_555
Ba1 S12 3.439212 1_554
Ba1 S25 3.441200 1_554
Ba1 S31 3.441200 1_555
Ba2 S10 3.270289 1_555
Ba2 S51 3.272462 1_565
Ba2 S21 3.304604 1_555
Ba2 S6 3.349292 1_555
Ba2 S26 3.351181 1_565
Ba2 S41 3.395686 1_555
Ba2 S60 3.414426 1_555
Ba2 S40 3.495271 1_555
Ba2 S3 3.613672 1_555
Ba3 S44 3.306970 1_655
Ba3 S1 3.306970 1_654
Ba3 S2 3.392102 1_555
Ba3 S6 3.392102 1_554
Ba3 S4 3.439212 1_555
Ba3 S49 3.439212 1_554
Ba3 S63 3.441200 1_555
Ba3 S58 3.441200 1_554
Ba4 S43 3.306970 1_555
Ba4 S9 3.306970 1_555
Ba4 S23 3.392102 1_555
Ba4 S21 3.392102 1_555
Ba4 S27 3.439212 1_555
Ba4 S36 3.439212 1_555
Ba4 S7 3.441200 1_555
Ba4 S42 3.441200 1_555
Ba5 S56 3.270289 1_555
Ba5 S36 3.272462 1_555
Ba5 S55 3.304604 1_555
Ba5 S57 3.349292 1_555
Ba5 S53 3.351181 1_555
Ba5 S34 3.395686 1_555
Ba5 S0 3.414426 1_555
Ba5 S30 3.495271 1_555
Ba5 S33 3.613672 1_555
Ba6 S60 3.270289 1_455
Ba6 S12 3.272462 1_565
Ba6 S6 3.304604 1_455
Ba6 S21 3.349292 1_555
Ba6 S33 3.351181 1_565
Ba6 S15 3.395686 1_555
Ba6 S10 3.414426 1_555
Ba6 S29 3.495271 1_555
Ba6 S53 3.613672 1_555
Ba7 S0 3.270289 1_655
Ba7 S49 3.272462 1_555
Ba7 S57 3.304604 1_655
Ba7 S55 3.349292 1_555
Ba7 S3 3.351181 1_555
Ba7 S24 3.395686 1_555
Ba7 S56 3.414426 1_555
Ba7 S37 3.495271 1_555
Ba7 S26 3.613672 1_555
Ba8 S46 3.270289 1_555
Ba8 S54 3.272462 1_555
Ba8 S23 3.304604 1_555
Ba8 S2 3.349292 1_555
Ba8 S45 3.351181 1_555
Ba8 S22 3.395686 1_555
Ba8 S38 3.414426 1_555
Ba8 S16 3.495271 1_555
Ba8 S52 3.613672 1_555
Ba9 S18 3.270289 1_555
Ba9 S27 3.272462 1_545
Ba9 S39 3.304604 1_555
Ba9 S11 3.349292 1_555
Ba9 S50 3.351181 1_545
Ba9 S20 3.395686 1_555
Ba9 S35 3.414426 1_555
Ba9 S5 3.495271 1_555
Ba9 S17 3.613672 1_555
Ba10 S38 3.270289 1_455
Ba10 S61 3.272462 1_555
Ba10 S2 3.304604 1_455
Ba10 S23 3.349292 1_555
Ba10 S17 3.351181 1_555
Ba10 S59 3.395686 1_555
Ba10 S46 3.414426 1_555
Ba10 S14 3.495271 1_555
Ba10 S50 3.613672 1_555
Ba11 S47 3.306970 1_555
Ba11 S19 3.306970 1_555
Ba11 S39 3.392102 1_555
Ba11 S55 3.392102 1_555
Ba11 S54 3.439212 1_555
Ba11 S51 3.439212 1_555
Ba11 S48 3.441200 1_555
Ba11 S28 3.441200 1_555
Ho0 S13 2.748269 1_555
Ho0 S46 2.792424 1_555
Ho0 S8 2.823101 1_555
Ho0 S45 2.837928 1_555
Ho0 S24 2.886874 1_554
Ho0 S63 2.911877 1_555
Ho0 S5 2.918227 1_555
Ho0 S25 3.053505 1_554
Ho1 S62 2.748269 1_555
Ho1 S10 2.792424 1_545
Ho1 S24 2.823101 1_555
Ho1 S26 2.837928 1_555
Ho1 S8 2.886874 1_556
Ho1 S58 2.911877 1_545
Ho1 S30 2.918227 1_555
Ho1 S31 3.053505 1_556
Ho2 S1 2.748269 1_555
Ho2 S56 2.792424 1_555
Ho2 S15 2.823101 1_555
Ho2 S53 2.837928 1_555
Ho2 S59 2.886874 1_556
Ho2 S25 2.911877 1_555
Ho2 S40 2.918227 1_555
Ho2 S63 3.053505 1_556
Ho3 S9 2.748269 1_555
Ho3 S35 2.792424 1_665
Ho3 S22 2.823101 1_555
Ho3 S52 2.837928 1_555
Ho3 S41 2.886874 1_555
Ho3 S28 2.911877 1_565
Ho3 S14 2.918227 1_655
Ho3 S42 3.053505 1_655
Ho4 S44 2.748269 1_555
Ho4 S18 2.792424 1_565
Ho4 S59 2.823101 1_555
Ho4 S50 2.837928 1_555
Ho4 S15 2.886874 1_554
Ho4 S31 2.911877 1_565
Ho4 S16 2.918227 1_555
Ho4 S58 3.053505 1_554
Ho5 S43 2.748269 1_555
Ho5 S0 2.792424 1_655
Ho5 S41 2.823101 1_555
Ho5 S3 2.837928 1_555
Ho5 S22 2.886874 1_555
Ho5 S48 2.911877 1_555
Ho5 S29 2.918227 1_655
Ho5 S7 3.053505 1_655
Ho6 S19 2.748269 1_555
Ho6 S38 2.792424 1_455
Ho6 S20 2.823101 1_555
Ho6 S17 2.837928 1_555
Ho6 S34 2.886874 1_555
Ho6 S7 2.911877 1_555
Ho6 S32 2.918227 1_455
Ho6 S48 3.053505 1_455
Ho7 S47 2.748269 1_555
Ho7 S60 2.792424 1_445
Ho7 S34 2.823101 1_555
Ho7 S33 2.837928 1_555
Ho7 S20 2.886874 1_555
Ho7 S42 2.911877 1_545
Ho7 S37 2.918227 1_455
Ho7 S28 3.053505 1_455
P0 S30 2.012450 1_555
P0 S56 2.038326 1_555
P0 S24 2.060344 1_555
P0 S25 2.068569 1_555
P1 S61 2.021624 1_655
P1 S13 2.058398 1_555
P1 S2 2.073232 1_555
P1 S45 2.087955 1_555
P2 S54 2.021624 1_555
P2 S19 2.058398 1_555
P2 S23 2.073232 1_555
P2 S17 2.087955 1_555
P3 S12 2.021624 1_655
P3 S62 2.058398 1_555
P3 S6 2.073232 1_545
P3 S26 2.087955 1_555
P4 S49 2.021624 1_455
P4 S1 2.058398 1_555
P4 S57 2.073232 1_555
P4 S53 2.087955 1_555
P5 S27 2.021624 1_555
P5 S9 2.058398 1_555
P5 S39 2.073232 1_565
P5 S52 2.087955 1_555
P6 S40 2.012450 1_555
P6 S10 2.038326 1_555
P6 S15 2.060344 1_555
P6 S58 2.068569 1_555
P7 S5 2.012450 1_555
P7 S18 2.038326 1_555
P7 S8 2.060344 1_555
P7 S31 2.068569 1_555
P8 S29 2.012450 1_555
P8 S60 2.038326 1_455
P8 S41 2.060344 1_455
P8 S42 2.068569 1_555
P9 S36 2.021624 1_555
P9 S43 2.058398 1_555
P9 S55 2.073232 1_555
P9 S3 2.087955 1_555
P10 S37 2.012450 1_555
P10 S0 2.038326 1_655
P10 S34 2.060344 1_655
P10 S48 2.068569 1_555
P11 S32 2.012450 1_555
P11 S35 2.038326 1_655
P11 S20 2.060344 1_655
P11 S28 2.068569 1_555
P12 S14 2.012450 1_555
P12 S38 2.038326 1_455
P12 S22 2.060344 1_455
P12 S7 2.068569 1_555
P13 S16 2.012450 1_555
P13 S46 2.038326 1_555
P13 S59 2.060344 1_555
P13 S63 2.068569 1_555
P14 S4 2.021624 1_455
P14 S44 2.058398 1_555
P14 S11 2.073232 1_565
P14 S50 2.087955 1_555
P15 S51 2.021624 1_555
P15 S47 2.058398 1_555
P15 S21 2.073232 1_545
P15 S33 2.087955 1_555
