# generated using pymatgen
data_NaGe2(PO4)3
_symmetry_space_group_name_H-M   'P 1'
_cell_length_a   8.68919216
_cell_length_b   8.68919216
_cell_length_c   8.68919250
_cell_angle_alpha   56.45788729
_cell_angle_beta   56.45788729
_cell_angle_gamma   56.45788260
_symmetry_Int_Tables_number   1
_chemical_formula_structural   NaGe2(PO4)3
_chemical_formula_sum   'Na2 Ge4 P6 O24'
_cell_volume   425.91141154
_cell_formula_units_Z   2
loop_
 _symmetry_equiv_pos_site_id
 _symmetry_equiv_pos_as_xyz
  1  'x, y, z'
loop_
 _atom_site_type_symbol
 _atom_site_label
 _atom_site_symmetry_multiplicity
 _atom_site_fract_x
 _atom_site_fract_y
 _atom_site_fract_z
 _atom_site_occupancy
  Na  Na0  1  0.00000000  0.00000000  0.00000000  1
  Na  Na1  1  0.50000000  0.50000000  0.50000000  1
  Ge  Ge0  1  0.64801100  0.64801100  0.64801100  1
  Ge  Ge1  1  0.35198900  0.35198900  0.35198900  1
  Ge  Ge2  1  0.85572600  0.85572600  0.85572600  1
  Ge  Ge3  1  0.14427400  0.14427400  0.14427400  1
  P  P0  1  0.53644800  0.96554200  0.24921600  1
  P  P1  1  0.24921600  0.53644800  0.96554200  1
  P  P2  1  0.96554200  0.24921600  0.53644800  1
  P  P3  1  0.46355200  0.03445800  0.75078400  1
  P  P4  1  0.75078400  0.46355200  0.03445800  1
  P  P5  1  0.03445800  0.75078400  0.46355200  1
  O  O0  1  0.52208400  0.80181600  0.45731700  1
  O  O1  1  0.45731700  0.52208400  0.80181600  1
  O  O2  1  0.80181600  0.45731700  0.52208400  1
  O  O3  1  0.47791600  0.19818400  0.54268300  1
  O  O4  1  0.54268300  0.47791600  0.19818400  1
  O  O5  1  0.19818400  0.54268300  0.47791600  1
  O  O6  1  0.74189200  0.89559300  0.09722200  1
  O  O7  1  0.09722200  0.74189200  0.89559300  1
  O  O8  1  0.89559300  0.09722200  0.74189200  1
  O  O9  1  0.25810800  0.10440700  0.90277800  1
  O  O10  1  0.90277800  0.25810800  0.10440700  1
  O  O11  1  0.10440700  0.90277800  0.25810800  1
  O  O12  1  0.52151200  0.15936600  0.23310500  1
  O  O13  1  0.23310500  0.52151200  0.15936600  1
  O  O14  1  0.15936600  0.23310500  0.52151200  1
  O  O15  1  0.47848800  0.84063400  0.76689500  1
  O  O16  1  0.76689500  0.47848800  0.84063400  1
  O  O17  1  0.84063400  0.76689500  0.47848800  1
  O  O18  1  0.37473300  0.99018600  0.20422700  1
  O  O19  1  0.20422700  0.37473300  0.99018600  1
  O  O20  1  0.99018600  0.20422700  0.37473300  1
  O  O21  1  0.62526700  0.00981400  0.79577300  1
  O  O22  1  0.79577300  0.62526700  0.00981400  1
  O  O23  1  0.00981400  0.79577300  0.62526700  1
loop_
_geom_bond_atom_site_label_1
_geom_bond_atom_site_label_2
_geom_bond_distance
_geom_bond_site_symmetry_2
Na0 O10 2.423718 1_455
Na0 O7 2.423718 1_544
Na0 O9 2.423718 1_554
Na0 O6 2.423718 1_445
Na0 O11 2.423718 1_545
Na0 O8 2.423718 1_454
Na1 O2 2.540608 1_555
Na1 O5 2.540608 1_555
Na1 O0 2.540608 1_555
Na1 O3 2.540608 1_555
Na1 O1 2.540608 1_555
Na1 O4 2.540608 1_555
Ge0 O15 1.882248 1_555
Ge0 O16 1.882248 1_555
Ge0 O17 1.882248 1_555
Ge0 O2 1.915550 1_555
Ge0 O0 1.915550 1_555
Ge0 O1 1.915550 1_555
Ge1 O12 1.882248 1_555
Ge1 O13 1.882248 1_555
Ge1 O14 1.882248 1_555
Ge1 O5 1.915550 1_555
Ge1 O3 1.915550 1_555
Ge1 O4 1.915550 1_555
Ge2 O21 1.868996 1_565
Ge2 O22 1.868996 1_556
Ge2 O23 1.868996 1_655
Ge2 O7 1.905938 1_655
Ge2 O8 1.905938 1_565
Ge2 O6 1.905938 1_556
Ge3 O18 1.868996 1_545
Ge3 O19 1.868996 1_554
Ge3 O20 1.868996 1_455
Ge3 O10 1.905938 1_455
Ge3 O11 1.905938 1_545
Ge3 O9 1.905938 1_554
O0 P0 1.553440 1_555
O1 P1 1.553440 1_555
O2 P2 1.553440 1_555
O3 P3 1.553440 1_555
O4 P4 1.553440 1_555
O5 P5 1.553440 1_555
O6 P0 1.543706 1_555
O7 P1 1.543706 1_555
O8 P2 1.543706 1_555
O9 P3 1.543706 1_555
O10 P4 1.543706 1_555
O11 P5 1.543706 1_555
O12 P0 1.546242 1_545
O13 P1 1.546242 1_554
O14 P2 1.546242 1_455
O15 P3 1.546242 1_565
O16 P4 1.546242 1_556
O17 P5 1.546242 1_655
O18 P0 1.534663 1_555
O19 P1 1.534663 1_555
O20 P2 1.534663 1_555
O21 P3 1.534663 1_555
O22 P4 1.534663 1_555
O23 P5 1.534663 1_555
