# generated using pymatgen
data_Ce3S2O3
_symmetry_space_group_name_H-M   'P 1'
_cell_length_a   3.96620300
_cell_length_b   6.84150100
_cell_length_c   21.52434100
_cell_angle_alpha   90.00000000
_cell_angle_beta   90.00000000
_cell_angle_gamma   90.00000000
_symmetry_Int_Tables_number   1
_chemical_formula_structural   Ce3S2O3
_chemical_formula_sum   'Ce12 S8 O12'
_cell_volume   584.05829622
_cell_formula_units_Z   4
loop_
 _symmetry_equiv_pos_site_id
 _symmetry_equiv_pos_as_xyz
  1  'x, y, z'
loop_
 _atom_site_type_symbol
 _atom_site_label
 _atom_site_symmetry_multiplicity
 _atom_site_fract_x
 _atom_site_fract_y
 _atom_site_fract_z
 _atom_site_occupancy
  Ce  Ce0  1  0.75000000  0.72264900  0.47363000  1
  Ce  Ce1  1  0.25000000  0.27735100  0.52637000  1
  Ce  Ce2  1  0.75000000  0.22264900  0.02637000  1
  Ce  Ce3  1  0.25000000  0.77735100  0.97363000  1
  Ce  Ce4  1  0.75000000  0.78559500  0.13305000  1
  Ce  Ce5  1  0.25000000  0.21440500  0.86695000  1
  Ce  Ce6  1  0.75000000  0.28559500  0.36695000  1
  Ce  Ce7  1  0.25000000  0.71440500  0.63305000  1
  Ce  Ce8  1  0.75000000  0.78998000  0.81171000  1
  Ce  Ce9  1  0.25000000  0.21002000  0.18829000  1
  Ce  Ce10  1  0.75000000  0.28998000  0.68829000  1
  Ce  Ce11  1  0.25000000  0.71002000  0.31171000  1
  S  S0  1  0.75000000  0.50459600  0.22915200  1
  S  S1  1  0.25000000  0.49540400  0.77084800  1
  S  S2  1  0.75000000  0.00459600  0.27084800  1
  S  S3  1  0.25000000  0.99540400  0.72915200  1
  S  S4  1  0.75000000  0.00451600  0.57845800  1
  S  S5  1  0.25000000  0.99548400  0.42154200  1
  S  S6  1  0.75000000  0.50451600  0.92154200  1
  S  S7  1  0.25000000  0.49548400  0.07845800  1
  O  O0  1  0.75000000  0.64109400  0.37202200  1
  O  O1  1  0.25000000  0.35890600  0.62797800  1
  O  O2  1  0.75000000  0.14109400  0.12797800  1
  O  O3  1  0.25000000  0.85890600  0.87202200  1
  O  O4  1  0.75000000  0.87230000  0.02491100  1
  O  O5  1  0.25000000  0.12770000  0.97508900  1
  O  O6  1  0.75000000  0.37230000  0.47508900  1
  O  O7  1  0.25000000  0.62770000  0.52491100  1
  O  O8  1  0.75000000  0.61741000  0.66492400  1
  O  O9  1  0.25000000  0.38259000  0.33507600  1
  O  O10  1  0.75000000  0.11741000  0.83507600  1
  O  O11  1  0.25000000  0.88259000  0.16492400  1
loop_
_geom_bond_atom_site_label_1
_geom_bond_atom_site_label_2
_geom_bond_distance
_geom_bond_site_symmetry_2
Ce0 O0 2.257097 1_555
Ce0 O7 2.360723 1_555
Ce0 O7 2.360723 1_655
Ce0 O6 2.397119 1_555
Ce0 S5 2.945147 1_555
Ce0 S5 2.945147 1_655
Ce0 S4 2.968136 1_565
Ce1 O1 2.257097 1_555
Ce1 O6 2.360723 1_455
Ce1 O6 2.360723 1_555
Ce1 O7 2.397119 1_555
Ce1 S4 2.945147 1_455
Ce1 S4 2.945147 1_555
Ce1 S5 2.968136 1_545
Ce2 O2 2.257097 1_555
Ce2 O5 2.360723 1_654
Ce2 O5 2.360723 1_554
Ce2 O4 2.397119 1_545
Ce2 S7 2.945147 1_555
Ce2 S7 2.945147 1_655
Ce2 S6 2.968136 1_554
Ce3 O3 2.257097 1_555
Ce3 O4 2.360723 1_456
Ce3 O4 2.360723 1_556
Ce3 O5 2.397119 1_565
Ce3 S6 2.945147 1_555
Ce3 S6 2.945147 1_455
Ce3 S7 2.968136 1_556
Ce4 O11 2.200848 1_555
Ce4 O11 2.200848 1_655
Ce4 O4 2.402019 1_555
Ce4 O2 2.434596 1_565
Ce4 S0 2.823944 1_555
Ce4 S7 3.041851 1_555
Ce4 S7 3.041851 1_655
Ce5 O10 2.200848 1_455
Ce5 O10 2.200848 1_555
Ce5 O5 2.402019 1_555
Ce5 O3 2.434596 1_545
Ce5 S1 2.823944 1_555
Ce5 S6 3.041851 1_455
Ce5 S6 3.041851 1_555
Ce6 O9 2.200848 1_655
Ce6 O9 2.200848 1_555
Ce6 O6 2.402019 1_555
Ce6 O0 2.434596 1_555
Ce6 S2 2.823944 1_555
Ce6 S5 3.041851 1_545
Ce6 S5 3.041851 1_645
Ce7 O8 2.200848 1_555
Ce7 O8 2.200848 1_455
Ce7 O7 2.402019 1_555
Ce7 O1 2.434596 1_555
Ce7 S3 2.823944 1_555
Ce7 S4 3.041851 1_465
Ce7 S4 3.041851 1_565
Ce8 O10 2.295877 1_565
Ce8 O3 2.416675 1_555
Ce8 O3 2.416675 1_655
Ce8 S1 2.961058 1_555
Ce8 S1 2.961058 1_655
Ce8 S3 3.010916 1_655
Ce8 S3 3.010916 1_555
Ce8 S6 3.066432 1_555
Ce9 O11 2.295877 1_545
Ce9 O2 2.416675 1_555
Ce9 O2 2.416675 1_455
Ce9 S0 2.961058 1_455
Ce9 S0 2.961058 1_555
Ce9 S2 3.010916 1_455
Ce9 S2 3.010916 1_555
Ce9 S7 3.066432 1_555
Ce10 O8 2.295877 1_555
Ce10 O1 2.416675 1_555
Ce10 O1 2.416675 1_655
Ce10 S3 2.961058 1_545
Ce10 S3 2.961058 1_645
Ce10 S1 3.010916 1_655
Ce10 S1 3.010916 1_555
Ce10 S4 3.066432 1_555
Ce11 O9 2.295877 1_555
Ce11 O0 2.416675 1_555
Ce11 O0 2.416675 1_455
Ce11 S2 2.961058 1_565
Ce11 S2 2.961058 1_465
Ce11 S0 3.010916 1_555
Ce11 S0 3.010916 1_455
Ce11 S5 3.066432 1_555
