# generated using pymatgen
data_Rb2TeH6SO10
_symmetry_space_group_name_H-M   'P 1'
_cell_length_a   6.80641100
_cell_length_b   11.69528200
_cell_length_c   13.70941347
_cell_angle_alpha   72.62283383
_cell_angle_beta   90.00000000
_cell_angle_gamma   90.00000000
_symmetry_Int_Tables_number   1
_chemical_formula_structural   Rb2TeH6SO10
_chemical_formula_sum   'Rb8 Te4 H24 S4 O40'
_cell_volume   1041.50104791
_cell_formula_units_Z   4
loop_
 _symmetry_equiv_pos_site_id
 _symmetry_equiv_pos_as_xyz
  1  'x, y, z'
loop_
 _atom_site_type_symbol
 _atom_site_label
 _atom_site_symmetry_multiplicity
 _atom_site_fract_x
 _atom_site_fract_y
 _atom_site_fract_z
 _atom_site_occupancy
  Rb  Rb0  1  0.52157700  0.34417500  0.36020700  1
  Rb  Rb1  1  0.00109900  0.40131100  0.86061700  1
  Rb  Rb2  1  0.49890100  0.90131100  0.86061700  1
  Rb  Rb3  1  0.99890100  0.59868900  0.13938300  1
  Rb  Rb4  1  0.97842300  0.84417500  0.36020700  1
  Rb  Rb5  1  0.47842300  0.65582500  0.63979300  1
  Rb  Rb6  1  0.50109900  0.09868900  0.13938300  1
  Rb  Rb7  1  0.02157700  0.15582500  0.63979300  1
  Te  Te0  1  0.00000000  0.50000000  0.50000000  1
  Te  Te1  1  0.50000000  0.50000000  0.00000000  1
  Te  Te2  1  0.00000000  0.00000000  0.00000000  1
  Te  Te3  1  0.50000000  0.00000000  0.50000000  1
  H  H0  1  0.70785400  0.36264000  0.13549400  1
  H  H1  1  0.06256800  0.37035200  0.38896000  1
  H  H2  1  0.99182800  0.16530800  0.08472400  1
  H  H3  1  0.24290900  0.40827700  0.63709800  1
  H  H4  1  0.50817200  0.66530800  0.08472400  1
  H  H5  1  0.24793300  0.36292200  0.10862300  1
  H  H6  1  0.20785400  0.13736000  0.86450600  1
  H  H7  1  0.49182800  0.33469200  0.91527600  1
  H  H8  1  0.25206700  0.86292200  0.10862300  1
  H  H9  1  0.75709100  0.59172300  0.36290200  1
  H  H10  1  0.43743200  0.87035200  0.38896000  1
  H  H11  1  0.74290900  0.09172300  0.36290200  1
  H  H12  1  0.56256800  0.12964800  0.61104000  1
  H  H13  1  0.29214600  0.63736000  0.86450600  1
  H  H14  1  0.18159100  0.09896900  0.42456500  1
  H  H15  1  0.68159100  0.40103100  0.57543500  1
  H  H16  1  0.75206700  0.63707800  0.89137700  1
  H  H17  1  0.74793300  0.13707800  0.89137700  1
  H  H18  1  0.93743200  0.62964800  0.61104000  1
  H  H19  1  0.81840900  0.90103100  0.57543500  1
  H  H20  1  0.79214600  0.86264000  0.13549400  1
  H  H21  1  0.31840900  0.59896900  0.42456500  1
  H  H22  1  0.25709100  0.90827700  0.63709800  1
  H  H23  1  0.00817200  0.83469200  0.91527600  1
  S  S0  1  0.01005400  0.23681800  0.25327700  1
  S  S1  1  0.51005400  0.26318200  0.74672300  1
  S  S2  1  0.98994600  0.76318200  0.74672300  1
  S  S3  1  0.48994600  0.73681800  0.25327700  1
  O  O0  1  0.40427500  0.91320100  0.63687500  1
  O  O1  1  0.37573800  0.26339900  0.83389200  1
  O  O2  1  0.77238700  0.39377900  0.52011900  1
  O  O3  1  0.58494700  0.35934800  0.96186800  1
  O  O4  1  0.62426200  0.73660100  0.16610800  1
  O  O5  1  0.64240000  0.11076600  0.55582100  1
  O  O6  1  0.75858000  0.56995300  0.95756900  1
  O  O7  1  0.59572500  0.08679900  0.36312500  1
  O  O8  1  0.14240000  0.38923400  0.44417900  1
  O  O9  1  0.74142000  0.06995300  0.95756900  1
  O  O10  1  0.94992400  0.33742700  0.29271100  1
  O  O11  1  0.91505300  0.85934800  0.96186800  1
  O  O12  1  0.61354300  0.42822600  0.13562700  1
  O  O13  1  0.44992400  0.16257300  0.70728900  1
  O  O14  1  0.27238700  0.10622100  0.47988100  1
  O  O15  1  0.49030600  0.38096700  0.66422700  1
  O  O16  1  0.38645700  0.57177400  0.86437300  1
  O  O17  1  0.09572500  0.41320100  0.63687500  1
  O  O18  1  0.99030600  0.11903300  0.33577300  1
  O  O19  1  0.71812900  0.24821900  0.78176900  1
  O  O20  1  0.21812900  0.25178100  0.21823100  1
  O  O21  1  0.25858000  0.93004700  0.04243100  1
  O  O22  1  0.72761300  0.89377900  0.52011900  1
  O  O23  1  0.00969400  0.88096700  0.66422700  1
  O  O24  1  0.78187100  0.74821900  0.78176900  1
  O  O25  1  0.22761300  0.60622100  0.47988100  1
  O  O26  1  0.28187100  0.75178100  0.21823100  1
  O  O27  1  0.90427500  0.58679900  0.36312500  1
  O  O28  1  0.08494700  0.14065200  0.03813200  1
  O  O29  1  0.85760000  0.61076600  0.55582100  1
  O  O30  1  0.55007600  0.83742700  0.29271100  1
  O  O31  1  0.88645700  0.92822600  0.13562700  1
  O  O32  1  0.12426200  0.76339900  0.83389200  1
  O  O33  1  0.87573800  0.23660100  0.16610800  1
  O  O34  1  0.05007600  0.66257300  0.70728900  1
  O  O35  1  0.50969400  0.61903300  0.33577300  1
  O  O36  1  0.35760000  0.88923400  0.44417900  1
  O  O37  1  0.24142000  0.43004700  0.04243100  1
  O  O38  1  0.11354300  0.07177400  0.86437300  1
  O  O39  1  0.41505300  0.64065200  0.03813200  1
loop_
_geom_bond_atom_site_label_1
_geom_bond_atom_site_label_2
_geom_bond_distance
_geom_bond_site_symmetry_2
H0 O12 1.000630 1_555
H1 O8 1.008440 1_555
H2 O28 1.001440 1_655
H3 O17 1.003401 1_555
H4 O39 1.001440 1_555
H5 O37 1.008071 1_555
H6 O38 1.000630 1_555
H7 O3 1.001440 1_555
H8 O21 1.008071 1_555
H9 O27 1.003401 1_555
H10 O36 1.008440 1_555
H11 O7 1.003401 1_555
H12 O5 1.008440 1_555
H13 O16 1.000630 1_555
H14 O14 1.001311 1_555
H15 O2 1.001311 1_555
H16 O6 1.008071 1_555
H17 O9 1.008071 1_555
H18 O29 1.008440 1_555
H19 O22 1.001311 1_555
H20 O31 1.000630 1_555
H21 O25 1.001311 1_555
H22 O0 1.003401 1_555
H23 O11 1.001440 1_455
O0 Te3 1.959171 1_565
O0 Rb5 3.040557 1_555
O0 Rb2 3.096473 1_555
O1 S1 1.505227 1_555
O1 Rb1 3.096928 1_555
O2 Te0 1.953147 1_655
O2 Rb0 2.969287 1_555
O2 Rb7 3.253606 1_655
O3 Te1 1.956310 1_556
O3 Rb1 3.127907 1_655
O3 Rb6 3.333171 1_556
O4 S3 1.505227 1_555
O4 Rb3 3.096928 1_555
O5 Te3 1.948174 1_555
O5 Rb7 2.937016 1_655
O5 Rb0 3.308635 1_555
O6 Te1 1.954748 1_556
O6 Rb3 3.082496 1_556
O6 Rb1 3.153938 1_655
O7 Te3 1.959171 1_555
O7 Rb0 3.040557 1_555
O7 Rb6 3.096473 1_555
O8 Te0 1.948174 1_555
O8 Rb0 2.937016 1_555
O8 Rb7 3.308635 1_555
O9 Te2 1.954748 1_656
O9 Rb6 3.082496 1_556
O9 Rb2 3.153938 1_545
O10 S0 1.491389 1_655
O10 Rb0 3.066963 1_555
O10 Rb3 3.166934 1_555
O11 Te2 1.956310 1_666
O11 Rb2 3.127907 1_555
O11 Rb3 3.333171 1_556
O12 Te1 1.956228 1_555
O12 Rb0 3.004944 1_555
O12 Rb3 3.304254 1_555
O13 S1 1.491389 1_555
O13 Rb7 3.066963 1_555
O13 Rb2 3.166934 1_545
O14 Te3 1.953147 1_555
O14 Rb7 2.969287 1_555
O14 Rb0 3.253606 1_555
O15 S1 1.504711 1_555
O15 Rb5 3.131906 1_555
O16 Te1 1.956228 1_556
O16 Rb5 3.004944 1_555
O16 Rb1 3.304254 1_555
O17 Te0 1.959171 1_555
O17 Rb7 3.040557 1_555
O17 Rb1 3.096473 1_555
O18 S0 1.504711 1_655
O18 Rb4 3.131906 1_545
O19 S1 1.488956 1_555
O19 Rb1 3.039700 1_655
O19 Rb7 3.237019 1_655
O20 S0 1.488956 1_555
O20 Rb6 3.039700 1_555
O20 Rb0 3.237019 1_555
O21 Te2 1.954748 1_565
O21 Rb2 3.082496 1_554
O21 Rb6 3.153938 1_565
O22 Te3 1.953147 1_565
O22 Rb4 2.969287 1_555
O22 Rb5 3.253606 1_555
O23 S2 1.504711 1_455
O23 Rb7 3.131906 1_565
O24 S2 1.488956 1_555
O24 Rb2 3.039700 1_555
O24 Rb5 3.237019 1_555
O25 Te0 1.953147 1_555
O25 Rb5 2.969287 1_555
O25 Rb4 3.253606 1_455
O26 S3 1.488956 1_555
O26 Rb3 3.039700 1_455
O26 Rb4 3.237019 1_455
O27 Te0 1.959171 1_655
O27 Rb4 3.040557 1_555
O27 Rb3 3.096473 1_555
O28 Te2 1.956310 1_555
O28 Rb6 3.127907 1_555
O28 Rb1 3.333171 1_554
O29 Te0 1.948174 1_655
O29 Rb5 2.937016 1_555
O29 Rb4 3.308635 1_555
O30 S3 1.491389 1_555
O30 Rb4 3.066963 1_555
O30 Rb6 3.166934 1_565
O31 Te2 1.956228 1_665
O31 Rb4 3.004944 1_555
O31 Rb6 3.304254 1_565
O32 S2 1.505227 1_455
O32 Rb2 3.096928 1_555
O33 S0 1.505227 1_655
O33 Rb6 3.096928 1_555
O34 S2 1.491389 1_455
O34 Rb5 3.066963 1_555
O34 Rb1 3.166934 1_555
O35 S3 1.504711 1_555
O35 Rb0 3.131906 1_555
O36 Te3 1.948174 1_565
O36 Rb4 2.937016 1_455
O36 Rb5 3.308635 1_555
O37 Te1 1.954748 1_555
O37 Rb1 3.082496 1_554
O37 Rb3 3.153938 1_455
O38 Te2 1.956228 1_556
O38 Rb7 3.004944 1_555
O38 Rb2 3.304254 1_545
O39 Te1 1.956310 1_555
O39 Rb3 3.127907 1_455
O39 Rb2 3.333171 1_554
