# generated using pymatgen
data_Dy5Sn11
_symmetry_space_group_name_H-M   'P 1'
_cell_length_a   4.34849283
_cell_length_b   4.40804708
_cell_length_c   21.83735788
_cell_angle_alpha   95.72747222
_cell_angle_beta   95.63857895
_cell_angle_gamma   89.99497776
_symmetry_Int_Tables_number   1
_chemical_formula_structural   Dy5Sn11
_chemical_formula_sum   'Dy5 Sn11'
_cell_volume   414.46151603
_cell_formula_units_Z   1
loop_
 _symmetry_equiv_pos_site_id
 _symmetry_equiv_pos_as_xyz
  1  'x, y, z'
loop_
 _atom_site_type_symbol
 _atom_site_label
 _atom_site_symmetry_multiplicity
 _atom_site_fract_x
 _atom_site_fract_y
 _atom_site_fract_z
 _atom_site_occupancy
  Dy  Dy0  1  0.80671626  0.30680900  0.61356371  1
  Dy  Dy1  1  0.61722757  0.61654070  0.23394141  1
  Dy  Dy2  1  0.00000000  -0.00000000  0.00000000  1
  Dy  Dy3  1  0.19328374  0.69319100  0.38643629  1
  Dy  Dy4  1  0.38277243  0.38345930  0.76605859  1
  Sn  Sn0  1  0.43885738  0.94025271  0.87977095  1
  Sn  Sn1  1  0.13296746  0.13202426  0.26541409  1
  Sn  Sn2  1  0.24927419  0.24954391  0.49877728  1
  Sn  Sn3  1  0.56114262  0.05974729  0.12022905  1
  Sn  Sn4  1  0.32071007  0.82055767  0.64099968  1
  Sn  Sn5  1  0.75072581  0.75045509  0.50122272  1
  Sn  Sn6  1  0.06038360  0.56024365  0.11951691  1
  Sn  Sn7  1  0.93961640  0.43975735  0.88048409  1
  Sn  Sn8  1  0.86703254  0.86797574  0.73458591  1
  Sn  Sn9  1  0.50000000  0.50000000  0.00000000  1
  Sn  Sn10  1  0.67928893  0.17944233  0.35900032  1
loop_
_geom_bond_atom_site_label_1
_geom_bond_atom_site_label_2
_geom_bond_distance
_geom_bond_site_symmetry_2
Dy0 Sn4 3.150486 1_545
Dy0 Sn4 3.151365 1_555
Dy0 Sn4 3.152966 1_645
Dy0 Sn4 3.154377 1_655
Dy0 Sn5 3.277522 1_555
Dy0 Sn5 3.282370 1_545
Dy0 Sn2 3.297275 1_655
Dy0 Sn2 3.301920 1_555
Dy0 Sn8 3.417481 1_545
Dy0 Sn8 3.425089 1_555
Dy1 Sn1 3.168887 1_565
Dy1 Sn1 3.169612 1_555
Dy1 Sn1 3.170419 1_665
Dy1 Sn1 3.170613 1_655
Dy1 Sn6 3.292592 1_655
Dy1 Sn6 3.294836 1_555
Dy1 Sn3 3.300258 1_565
Dy1 Sn3 3.303670 1_555
Dy1 Sn10 3.485490 1_555
Dy1 Sn10 3.491499 1_565
Dy2 Sn9 3.095840 1_545
Dy2 Sn9 3.095840 1_455
Dy2 Sn9 3.096112 1_555
Dy2 Sn9 3.096112 1_445
Dy2 Sn0 3.383914 1_544
Dy2 Sn3 3.383914 1_455
Dy2 Sn7 3.393124 1_454
Dy2 Sn6 3.393139 1_545
Dy2 Sn0 3.394101 1_444
Dy2 Sn3 3.394101 1_555
Dy2 Sn7 3.399762 1_444
Dy2 Sn6 3.399780 1_555
Dy3 Sn10 3.150483 1_565
Dy3 Sn10 3.151362 1_555
Dy3 Sn10 3.152969 1_465
Dy3 Sn10 3.154380 1_455
Dy3 Sn2 3.277525 1_555
Dy3 Sn2 3.282367 1_565
Dy3 Sn5 3.297275 1_455
Dy3 Sn5 3.301920 1_555
Dy3 Sn1 3.417481 1_565
Dy3 Sn1 3.425089 1_555
Dy4 Sn8 3.168887 1_545
Dy4 Sn8 3.169612 1_555
Dy4 Sn8 3.170419 1_445
Dy4 Sn8 3.170613 1_455
Dy4 Sn7 3.292609 1_455
Dy4 Sn7 3.294851 1_555
Dy4 Sn0 3.300258 1_545
Dy4 Sn0 3.303670 1_555
Dy4 Sn4 3.485490 1_555
Dy4 Sn4 3.491499 1_545
Sn0 Sn7 3.091975 1_465
Sn0 Sn7 3.094735 1_565
Sn0 Sn7 3.097570 1_455
Sn0 Sn7 3.099783 1_555
Sn0 Sn9 3.407301 1_556
Sn0 Sn9 3.409082 1_566
Sn1 Sn10 2.969722 1_455
Sn1 Sn10 2.970674 1_555
Sn2 Sn5 3.094609 1_455
Sn2 Sn5 3.096378 1_555
Sn2 Sn5 3.096749 1_445
Sn2 Sn5 3.097974 1_545
Sn3 Sn6 3.091972 1_645
Sn3 Sn6 3.094735 1_545
Sn3 Sn6 3.097570 1_655
Sn3 Sn6 3.099786 1_555
Sn3 Sn9 3.407301 1_555
Sn3 Sn9 3.409082 1_545
Sn4 Sn8 2.969719 1_455
Sn4 Sn8 2.970677 1_555
Sn6 Sn9 3.373242 1_555
Sn6 Sn9 3.381182 1_455
Sn7 Sn9 3.373224 1_556
Sn7 Sn9 3.381167 1_656
