# generated using pymatgen
data_Gd2Si2O7
_symmetry_space_group_name_H-M   'P 1'
_cell_length_a   6.66220409
_cell_length_b   6.69428689
_cell_length_c   12.10739958
_cell_angle_alpha   94.26234415
_cell_angle_beta   90.63944122
_cell_angle_gamma   91.49528853
_symmetry_Int_Tables_number   1
_chemical_formula_structural   Gd2Si2O7
_chemical_formula_sum   'Gd8 Si8 O28'
_cell_volume   538.25104294
_cell_formula_units_Z   4
loop_
 _symmetry_equiv_pos_site_id
 _symmetry_equiv_pos_as_xyz
  1  'x, y, z'
loop_
 _atom_site_type_symbol
 _atom_site_label
 _atom_site_symmetry_multiplicity
 _atom_site_fract_x
 _atom_site_fract_y
 _atom_site_fract_z
 _atom_site_occupancy
  Gd  Gd0  1  0.04993416  0.32735780  0.11665723  1
  Gd  Gd1  1  0.95006584  0.67264220  0.88334277  1
  Gd  Gd2  1  0.11954672  0.08967338  0.35974119  1
  Gd  Gd3  1  0.88045328  0.91032662  0.64025881  1
  Gd  Gd4  1  0.63277075  0.77476837  0.36801040  1
  Gd  Gd5  1  0.36722925  0.22523163  0.63198960  1
  Gd  Gd6  1  0.32999278  0.82512565  0.10661600  1
  Gd  Gd7  1  0.67000722  0.17487435  0.89338400  1
  Si  Si0  1  0.84646503  0.84976472  0.11610888  1
  Si  Si1  1  0.15353497  0.15023528  0.88389112  1
  Si  Si2  1  0.51102706  0.33118314  0.17558186  1
  Si  Si3  1  0.48897294  0.66881686  0.82441814  1
  Si  Si4  1  0.62538147  0.27227215  0.40448958  1
  Si  Si5  1  0.37461853  0.72772785  0.59551042  1
  Si  Si6  1  0.85402803  0.37450964  0.61636227  1
  Si  Si7  1  0.14597197  0.62549036  0.38363873  1
  O  O0  1  0.35792939  0.48691436  0.12731898  1
  O  O1  1  0.64206961  0.51308564  0.87268102  1
  O  O2  1  0.37829575  0.13842033  0.21032105  1
  O  O3  1  0.62170425  0.86157967  0.78967895  1
  O  O4  1  0.69713927  0.28992882  0.09445119  1
  O  O5  1  0.30286073  0.71007118  0.90554881  1
  O  O6  1  0.59942900  0.42349898  0.30373579  1
  O  O7  1  0.40057100  0.57650102  0.69626421  1
  O  O8  1  0.41892762  0.17226645  0.44545238  1
  O  O9  1  0.58107238  0.82773355  0.55454762  1
  O  O10  1  0.77410147  0.09357895  0.37690245  1
  O  O11  1  0.22589853  0.90642105  0.62309755  1
  O  O12  1  0.71259511  0.42502859  0.50795989  1
  O  O13  1  0.28740489  0.57497141  0.49204011  1
  O  O14  1  0.71180382  0.22276202  0.68457489  1
  O  O15  1  0.28819618  0.77723798  0.31542511  1
  O  O16  1  0.03436994  0.23037167  0.57147261  1
  O  O17  1  0.96563006  0.76962833  0.42852739  1
  O  O18  1  0.92459713  0.57988797  0.68453998  1
  O  O19  1  0.07540287  0.42011203  0.31546002  1
  O  O20  1  0.76799083  0.91369790  0.99764247  1
  O  O21  1  0.23200917  0.08630210  0.00235753  1
  O  O22  1  0.65481046  0.78705574  0.18621079  1
  O  O23  1  0.34518954  0.21294426  0.81378921  1
  O  O24  1  -0.00034134  0.66613396  0.08165828  1
  O  O25  1  0.00034134  0.33386604  0.91834172  1
  O  O26  1  0.99782228  0.00930938  0.18504782  1
  O  O27  1  0.00217772  0.99069062  0.81495218  1
loop_
_geom_bond_atom_site_label_1
_geom_bond_atom_site_label_2
_geom_bond_distance
_geom_bond_site_symmetry_2
Gd0 O0 2.286297 1_555
Gd0 O26 2.359908 1_455
Gd0 O4 2.367393 1_455
Gd0 O24 2.369448 1_555
Gd0 O21 2.407948 1_555
Gd0 O25 2.423812 1_554
Gd0 O19 2.443591 1_555
Gd1 O1 2.286302 1_555
Gd1 O27 2.359908 1_655
Gd1 O5 2.367393 1_655
Gd1 O25 2.369448 1_655
Gd1 O20 2.407948 1_555
Gd1 O24 2.423812 1_656
Gd1 O18 2.443591 1_555
Gd2 O8 2.274146 1_555
Gd2 O26 2.278255 1_455
Gd2 O10 2.313747 1_455
Gd2 O19 2.339619 1_555
Gd2 O15 2.427778 1_545
Gd2 O2 2.545372 1_555
Gd2 O17 2.550473 1_445
Gd2 O16 2.735364 1_555
Gd3 O9 2.274146 1_555
Gd3 O27 2.278255 1_655
Gd3 O11 2.313747 1_655
Gd3 O18 2.339619 1_555
Gd3 O14 2.427778 1_565
Gd3 O3 2.545372 1_555
Gd3 O16 2.550473 1_665
Gd3 O17 2.735364 1_555
Gd4 O22 2.215119 1_555
Gd4 O9 2.291240 1_555
Gd4 O10 2.304715 1_565
Gd4 O17 2.329624 1_555
Gd4 O15 2.376225 1_555
Gd4 O6 2.425149 1_555
Gd5 O23 2.215119 1_555
Gd5 O8 2.291240 1_555
Gd5 O11 2.304715 1_545
Gd5 O16 2.329624 1_555
Gd5 O14 2.376225 1_555
Gd5 O7 2.425149 1_555
Gd6 O0 2.308431 1_555
Gd6 O21 2.333588 1_565
Gd6 O2 2.375501 1_565
Gd6 O22 2.386480 1_555
Gd6 O24 2.425395 1_555
Gd6 O5 2.501280 1_554
Gd6 O15 2.589073 1_555
Gd6 O26 2.708241 1_465
Gd7 O1 2.308432 1_555
Gd7 O20 2.333588 1_545
Gd7 O3 2.375501 1_545
Gd7 O23 2.386480 1_555
Gd7 O25 2.425395 1_655
Gd7 O4 2.501280 1_556
Gd7 O14 2.589073 1_555
Gd7 O27 2.708241 1_645
O0 Si2 1.612872 1_555
O1 Si3 1.612867 1_555
O2 Si2 1.628940 1_555
O3 Si3 1.628940 1_555
O4 Si2 1.607256 1_555
O5 Si3 1.607256 1_555
O6 Si4 1.652522 1_555
O6 Si2 1.718821 1_555
O7 Si5 1.652522 1_555
O7 Si3 1.718821 1_555
O8 Si4 1.613229 1_555
O9 Si5 1.613229 1_555
O10 Si4 1.591871 1_555
O11 Si5 1.591871 1_555
O12 Si4 1.647732 1_555
O12 Si6 1.667274 1_555
O13 Si5 1.647732 1_555
O13 Si7 1.667264 1_555
O14 Si6 1.644310 1_555
O15 Si7 1.644317 1_555
O16 Si6 1.633123 1_455
O17 Si7 1.633119 1_655
O18 Si6 1.606724 1_555
O19 Si7 1.606730 1_555
O20 Si0 1.612442 1_556
O21 Si1 1.612442 1_554
O22 Si0 1.605026 1_555
O23 Si1 1.605026 1_555
O24 Si0 1.650909 1_455
O25 Si1 1.650909 1_555
O26 Si0 1.626865 1_545
O27 Si1 1.626865 1_565
