# generated using pymatgen
data_Tb9(SbO)5
_symmetry_space_group_name_H-M   'P 1'
_cell_length_a   9.87452231
_cell_length_b   9.87452231
_cell_length_c   8.88707647
_cell_angle_alpha   90.00000000
_cell_angle_beta   90.00000000
_cell_angle_gamma   90.00000000
_symmetry_Int_Tables_number   1
_chemical_formula_structural   Tb9(SbO)5
_chemical_formula_sum   'Tb18 Sb10 O10'
_cell_volume   866.54497439
_cell_formula_units_Z   2
loop_
 _symmetry_equiv_pos_site_id
 _symmetry_equiv_pos_as_xyz
  1  'x, y, z'
loop_
 _atom_site_type_symbol
 _atom_site_label
 _atom_site_symmetry_multiplicity
 _atom_site_fract_x
 _atom_site_fract_y
 _atom_site_fract_z
 _atom_site_occupancy
  Tb  Tb0  1  0.20515749  0.89577432  0.34133160  1
  Tb  Tb1  1  0.50000000  -0.00000000  0.67199267  1
  Tb  Tb2  1  0.29484251  0.60422568  0.65866840  1
  Tb  Tb3  1  0.70515749  0.39577432  0.65866840  1
  Tb  Tb4  1  0.72606673  0.91745187  0.00167347  1
  Tb  Tb5  1  0.39577432  0.29484251  0.34133160  1
  Tb  Tb6  1  0.10422568  0.20515749  0.65866840  1
  Tb  Tb7  1  0.60422568  0.70515749  0.34133160  1
  Tb  Tb8  1  0.00000000  0.50000000  0.32800733  1
  Tb  Tb9  1  0.89577432  0.79484251  0.65866840  1
  Tb  Tb10  1  0.27393327  0.08254813  0.00167347  1
  Tb  Tb11  1  0.77393327  0.58254813  0.99832653  1
  Tb  Tb12  1  0.22606673  0.41745187  0.99832653  1
  Tb  Tb13  1  0.79484251  0.10422568  0.34133160  1
  Tb  Tb14  1  0.58254813  0.22606673  0.00167347  1
  Tb  Tb15  1  0.91745187  0.27393327  0.99832653  1
  Tb  Tb16  1  0.08254813  0.72606673  0.99832653  1
  Tb  Tb17  1  0.41745187  0.77393327  0.00167347  1
  Sb  Sb0  1  0.59579440  0.69579187  0.69838507  1
  Sb  Sb1  1  0.90420560  0.80420813  0.30161493  1
  Sb  Sb2  1  0.69579187  0.40420560  0.30161493  1
  Sb  Sb3  1  0.00000000  0.50000000  0.68214802  1
  Sb  Sb4  1  0.19579187  0.90420560  0.69838507  1
  Sb  Sb5  1  0.80420813  0.09579440  0.69838507  1
  Sb  Sb6  1  0.30420813  0.59579440  0.30161493  1
  Sb  Sb7  1  0.40420560  0.30420813  0.69838507  1
  Sb  Sb8  1  0.09579440  0.19579187  0.30161493  1
  Sb  Sb9  1  0.50000000  -0.00000000  0.31785198  1
  O  O0  1  0.22516103  0.87984347  0.08695426  1
  O  O1  1  0.72516103  0.37984347  0.91304574  1
  O  O2  1  0.50000000  -0.00000000  0.93523507  1
  O  O3  1  0.62015653  0.72516103  0.08695426  1
  O  O4  1  0.00000000  0.50000000  0.06476493  1
  O  O5  1  0.87984347  0.77483897  0.91304574  1
  O  O6  1  0.12015653  0.22516103  0.91304574  1
  O  O7  1  0.37984347  0.27483897  0.08695426  1
  O  O8  1  0.77483897  0.12015653  0.08695426  1
  O  O9  1  0.27483897  0.62015653  0.91304574  1
loop_
_geom_bond_atom_site_label_1
_geom_bond_atom_site_label_2
_geom_bond_distance
_geom_bond_site_symmetry_2
Sb0 Tb2 3.126251 1_555
Sb0 Tb9 3.139363 1_555
Sb0 Tb1 3.158047 1_565
Sb0 Tb3 3.172912 1_555
Sb0 Tb7 3.175600 1_555
Sb0 Tb17 3.310825 1_556
Sb0 Tb11 3.383797 1_555
Sb1 Tb0 3.126251 1_655
Sb1 Tb7 3.139363 1_555
Sb1 Tb8 3.158047 1_655
Sb1 Tb13 3.172912 1_565
Sb1 Tb9 3.175600 1_555
Sb1 Tb16 3.310825 1_654
Sb1 Tb4 3.383797 1_555
Sb2 Tb7 3.126251 1_555
Sb2 Tb13 3.139363 1_555
Sb2 Tb8 3.158047 1_655
Sb2 Tb5 3.172912 1_555
Sb2 Tb3 3.175600 1_555
Sb2 Tb11 3.310825 1_554
Sb2 Tb14 3.383797 1_555
Sb3 Tb3 3.095023 1_455
Sb3 Tb6 3.095023 1_555
Sb3 Tb2 3.095023 1_555
Sb3 Tb9 3.095023 1_455
Sb3 Tb8 3.147275 1_555
Sb4 Tb6 3.126251 1_565
Sb4 Tb2 3.139363 1_555
Sb4 Tb1 3.158047 1_565
Sb4 Tb9 3.172912 1_455
Sb4 Tb0 3.175600 1_555
Sb4 Tb10 3.310825 1_566
Sb4 Tb16 3.383797 1_555
Sb5 Tb9 3.126251 1_545
Sb5 Tb3 3.139363 1_555
Sb5 Tb1 3.158047 1_555
Sb5 Tb6 3.172912 1_655
Sb5 Tb13 3.175600 1_555
Sb5 Tb4 3.310825 1_546
Sb5 Tb15 3.383797 1_555
Sb6 Tb5 3.126251 1_555
Sb6 Tb0 3.139363 1_555
Sb6 Tb8 3.158047 1_555
Sb6 Tb7 3.172912 1_555
Sb6 Tb2 3.175600 1_555
Sb6 Tb12 3.310825 1_554
Sb6 Tb17 3.383797 1_555
Sb7 Tb3 3.126251 1_555
Sb7 Tb6 3.139363 1_555
Sb7 Tb1 3.158047 1_555
Sb7 Tb2 3.172912 1_555
Sb7 Tb5 3.175600 1_555
Sb7 Tb14 3.310825 1_556
Sb7 Tb12 3.383797 1_555
Sb8 Tb13 3.126251 1_455
Sb8 Tb5 3.139363 1_555
Sb8 Tb8 3.158047 1_555
Sb8 Tb0 3.172912 1_545
Sb8 Tb6 3.175600 1_555
Sb8 Tb15 3.310825 1_454
Sb8 Tb10 3.383797 1_555
Sb9 Tb7 3.095023 1_545
Sb9 Tb5 3.095023 1_555
Sb9 Tb0 3.095023 1_545
Sb9 Tb13 3.095023 1_555
Sb9 Tb1 3.147275 1_555
O0 Tb10 2.193809 1_565
O0 Tb16 2.215685 1_554
O0 Tb0 2.274730 1_555
O0 Tb17 2.296410 1_555
O1 Tb11 2.193809 1_555
O1 Tb14 2.215685 1_556
O1 Tb3 2.274730 1_555
O1 Tb15 2.296410 1_555
O2 Tb1 2.339455 1_555
O2 Tb14 2.448717 1_556
O2 Tb17 2.448717 1_546
O2 Tb4 2.448717 1_546
O2 Tb10 2.448717 1_556
O3 Tb17 2.193809 1_555
O3 Tb11 2.215685 1_554
O3 Tb7 2.274730 1_555
O3 Tb4 2.296410 1_555
O4 Tb8 2.339455 1_555
O4 Tb15 2.448717 1_454
O4 Tb11 2.448717 1_454
O4 Tb12 2.448717 1_554
O4 Tb16 2.448717 1_554
O5 Tb16 2.193809 1_655
O5 Tb4 2.215685 1_556
O5 Tb9 2.274730 1_555
O5 Tb11 2.296410 1_555
O6 Tb15 2.193809 1_455
O6 Tb10 2.215685 1_556
O6 Tb6 2.274730 1_555
O6 Tb12 2.296410 1_555
O7 Tb14 2.193809 1_555
O7 Tb12 2.215685 1_554
O7 Tb5 2.274730 1_555
O7 Tb10 2.296410 1_555
O8 Tb4 2.193809 1_545
O8 Tb15 2.215685 1_554
O8 Tb13 2.274730 1_555
O8 Tb14 2.296410 1_555
O9 Tb12 2.193809 1_555
O9 Tb17 2.215685 1_556
O9 Tb2 2.274730 1_555
O9 Tb16 2.296410 1_555
