# generated using pymatgen
data_Rb3Ti3(PO4)5
_symmetry_space_group_name_H-M   'P 1'
_cell_length_a   6.37505800
_cell_length_b   15.08531800
_cell_length_c   18.67948600
_cell_angle_alpha   90.00000000
_cell_angle_beta   90.00000000
_cell_angle_gamma   90.00000000
_symmetry_Int_Tables_number   1
_chemical_formula_structural   Rb3Ti3(PO4)5
_chemical_formula_sum   'Rb12 Ti12 P20 O80'
_cell_volume   1796.40200680
_cell_formula_units_Z   4
loop_
 _symmetry_equiv_pos_site_id
 _symmetry_equiv_pos_as_xyz
  1  'x, y, z'
loop_
 _atom_site_type_symbol
 _atom_site_label
 _atom_site_symmetry_multiplicity
 _atom_site_fract_x
 _atom_site_fract_y
 _atom_site_fract_z
 _atom_site_occupancy
  Rb  Rb0  1  0.63300100  0.47222500  0.84905600  1
  Rb  Rb1  1  0.65953000  0.75000000  0.82664400  1
  Rb  Rb2  1  0.36699900  0.02777500  0.34905600  1
  Rb  Rb3  1  0.63300100  0.52777500  0.65094400  1
  Rb  Rb4  1  0.36699900  0.52777500  0.15094400  1
  Rb  Rb5  1  0.63300100  0.02777500  0.84905600  1
  Rb  Rb6  1  0.63300100  0.97222500  0.65094400  1
  Rb  Rb7  1  0.65953000  0.25000000  0.67335600  1
  Rb  Rb8  1  0.34047000  0.75000000  0.32664400  1
  Rb  Rb9  1  0.34047000  0.25000000  0.17335600  1
  Rb  Rb10  1  0.36699900  0.97222500  0.15094400  1
  Rb  Rb11  1  0.36699900  0.47222500  0.34905600  1
  Ti  Ti0  1  0.25472300  0.25000000  0.85307400  1
  Ti  Ti1  1  0.75641900  0.36820300  0.04711700  1
  Ti  Ti2  1  0.75641900  0.63179700  0.45288300  1
  Ti  Ti3  1  0.24358100  0.13179700  0.54711700  1
  Ti  Ti4  1  0.75641900  0.86820300  0.45288300  1
  Ti  Ti5  1  0.25472300  0.75000000  0.64692600  1
  Ti  Ti6  1  0.24358100  0.63179700  0.95288300  1
  Ti  Ti7  1  0.24358100  0.36820300  0.54711700  1
  Ti  Ti8  1  0.74527700  0.75000000  0.14692600  1
  Ti  Ti9  1  0.74527700  0.25000000  0.35307400  1
  Ti  Ti10  1  0.75641900  0.13179700  0.04711700  1
  Ti  Ti11  1  0.24358100  0.86820300  0.95288300  1
  P  P0  1  0.74559500  0.10103100  0.49555800  1
  P  P1  1  0.24306600  0.25000000  0.39837900  1
  P  P2  1  0.74559500  0.39896900  0.49555800  1
  P  P3  1  0.25440500  0.60103100  0.50444200  1
  P  P4  1  0.14646800  0.59589900  0.77566700  1
  P  P5  1  0.74559500  0.60103100  0.00444200  1
  P  P6  1  0.14646800  0.40410100  0.72433300  1
  P  P7  1  0.85353200  0.90410100  0.27566700  1
  P  P8  1  0.85353200  0.09589900  0.22433300  1
  P  P9  1  0.24306600  0.75000000  0.10162100  1
  P  P10  1  0.74559500  0.89896900  0.00444200  1
  P  P11  1  0.25440500  0.89896900  0.50444200  1
  P  P12  1  0.85353200  0.40410100  0.22433300  1
  P  P13  1  0.14646800  0.90410100  0.77566700  1
  P  P14  1  0.25440500  0.10103100  0.99555800  1
  P  P15  1  0.75693400  0.25000000  0.89837900  1
  P  P16  1  0.25440500  0.39896900  0.99555800  1
  P  P17  1  0.85353200  0.59589900  0.27566700  1
  P  P18  1  0.75693400  0.75000000  0.60162100  1
  P  P19  1  0.14646800  0.09589900  0.72433300  1
  O  O0  1  0.74427700  0.00203700  0.47748900  1
  O  O1  1  0.08847100  0.09880500  0.22508800  1
  O  O2  1  0.75393900  0.83557700  0.55644300  1
  O  O3  1  0.95492500  0.25000000  0.85041100  1
  O  O4  1  0.25572300  0.99796300  0.52251100  1
  O  O5  1  0.91152900  0.40119500  0.72508800  1
  O  O6  1  0.26157300  0.34334100  0.92557500  1
  O  O7  1  0.43299400  0.25000000  0.34672800  1
  O  O8  1  0.74841300  0.39659400  0.14999600  1
  O  O9  1  0.24606100  0.33557700  0.44355700  1
  O  O10  1  0.05990400  0.87469800  0.45862600  1
  O  O11  1  0.94009600  0.37469800  0.54137400  1
  O  O12  1  0.24606100  0.66442300  0.05644300  1
  O  O13  1  0.25572300  0.49796300  0.97748900  1
  O  O14  1  0.25158700  0.60340600  0.85000400  1
  O  O15  1  0.74427700  0.50203700  0.02251100  1
  O  O16  1  0.73825200  0.84061700  0.22407400  1
  O  O17  1  0.55567300  0.37489600  0.54398200  1
  O  O18  1  0.25158700  0.10340600  0.64999600  1
  O  O19  1  0.26174800  0.65938300  0.72407400  1
  O  O20  1  0.26174800  0.15938300  0.77592600  1
  O  O21  1  0.26157300  0.84334100  0.57442500  1
  O  O22  1  0.43299400  0.75000000  0.15327200  1
  O  O23  1  0.25572300  0.50203700  0.52251100  1
  O  O24  1  0.23668600  0.50000000  0.75000000  1
  O  O25  1  0.73825200  0.65938300  0.22407400  1
  O  O26  1  0.73825200  0.15938300  0.27592600  1
  O  O27  1  0.23668600  0.00000000  0.75000000  1
  O  O28  1  0.25158700  0.89659400  0.85000400  1
  O  O29  1  0.76331400  0.50000000  0.25000000  1
  O  O30  1  0.08847100  0.90119500  0.27491200  1
  O  O31  1  0.24862500  0.75000000  0.93150500  1
  O  O32  1  0.24606100  0.16442300  0.44355700  1
  O  O33  1  0.91152900  0.59880500  0.77491200  1
  O  O34  1  0.74427700  0.49796300  0.47748900  1
  O  O35  1  0.75393900  0.33557700  0.94355700  1
  O  O36  1  0.94009600  0.12530200  0.54137400  1
  O  O37  1  0.44432700  0.62510400  0.45601800  1
  O  O38  1  0.05990400  0.37469800  0.04137400  1
  O  O39  1  0.73842700  0.15665900  0.42557500  1
  O  O40  1  0.75393900  0.66442300  0.55644300  1
  O  O41  1  0.75393900  0.16442300  0.94355700  1
  O  O42  1  0.44432700  0.87489600  0.45601800  1
  O  O43  1  0.04507500  0.75000000  0.14958900  1
  O  O44  1  0.95492500  0.75000000  0.64958900  1
  O  O45  1  0.26157300  0.65665900  0.57442500  1
  O  O46  1  0.55567300  0.12510400  0.54398200  1
  O  O47  1  0.73842700  0.84334100  0.07442500  1
  O  O48  1  0.56700600  0.75000000  0.65327200  1
  O  O49  1  0.26174800  0.34061700  0.77592600  1
  O  O50  1  0.75137500  0.25000000  0.06849500  1
  O  O51  1  0.73842700  0.34334100  0.42557500  1
  O  O52  1  0.05990400  0.12530200  0.04137400  1
  O  O53  1  0.94009600  0.62530200  0.95862600  1
  O  O54  1  0.05990400  0.62530200  0.45862600  1
  O  O55  1  0.44432700  0.12510400  0.04398200  1
  O  O56  1  0.76331400  0.00000000  0.25000000  1
  O  O57  1  0.55567300  0.62510400  0.95601800  1
  O  O58  1  0.26157300  0.15665900  0.92557500  1
  O  O59  1  0.25572300  0.00203700  0.97748900  1
  O  O60  1  0.44432700  0.37489600  0.04398200  1
  O  O61  1  0.56700600  0.25000000  0.84672800  1
  O  O62  1  0.24862500  0.25000000  0.56849500  1
  O  O63  1  0.74841300  0.60340600  0.35000400  1
  O  O64  1  0.26174800  0.84061700  0.72407400  1
  O  O65  1  0.94009600  0.87469800  0.95862600  1
  O  O66  1  0.74427700  0.99796300  0.02251100  1
  O  O67  1  0.73825200  0.34061700  0.27592600  1
  O  O68  1  0.25158700  0.39659400  0.64999600  1
  O  O69  1  0.24606100  0.83557700  0.05644300  1
  O  O70  1  0.04507500  0.25000000  0.35041100  1
  O  O71  1  0.74841300  0.89659400  0.35000400  1
  O  O72  1  0.55567300  0.87489600  0.95601800  1
  O  O73  1  0.91152900  0.90119500  0.77491200  1
  O  O74  1  0.75137500  0.75000000  0.43150500  1
  O  O75  1  0.74841300  0.10340600  0.14999600  1
  O  O76  1  0.08847100  0.59880500  0.27491200  1
  O  O77  1  0.91152900  0.09880500  0.72508800  1
  O  O78  1  0.73842700  0.65665900  0.07442500  1
  O  O79  1  0.08847100  0.40119500  0.22508800  1
loop_
_geom_bond_atom_site_label_1
_geom_bond_atom_site_label_2
_geom_bond_distance
_geom_bond_site_symmetry_2
O0 P0 1.531046 1_555
O0 Ti4 2.072033 1_545
O0 Rb6 3.347150 1_545
O0 Rb2 3.419224 1_555
O1 P8 1.498458 1_455
O1 Rb9 2.952426 1_555
O1 Rb10 2.952491 1_545
O1 Rb2 3.108581 1_555
O2 P18 1.542434 1_555
O2 Ti4 1.996139 1_555
O2 Rb6 2.821301 1_555
O3 P15 1.547904 1_555
O3 Ti0 1.911877 1_655
O4 P11 1.531046 1_555
O4 Ti3 2.072033 1_565
O4 Rb2 3.347150 1_565
O4 Rb6 3.419224 1_555
O5 P6 1.498458 1_655
O5 Rb7 2.952426 1_555
O5 Rb3 2.952491 1_555
O5 Rb0 3.108581 1_555
O6 P16 1.554085 1_555
O6 Ti0 1.954142 1_555
O6 Rb0 3.380823 1_555
O7 P1 1.548195 1_555
O7 Ti9 1.994348 1_555
O7 Rb9 3.291778 1_555
O7 Rb11 3.378912 1_555
O7 Rb2 3.378912 1_555
O8 P12 1.545981 1_555
O8 Ti1 1.969535 1_555
O8 Rb4 3.135085 1_555
O8 Rb9 3.441541 1_555
O9 P1 1.542434 1_555
O9 Ti7 1.996139 1_555
O9 Rb11 2.821301 1_555
O10 P11 1.550474 1_555
O10 Ti4 1.940182 1_455
O10 Rb8 3.579906 1_555
O11 P2 1.550474 1_555
O11 Ti7 1.940182 1_655
O11 Rb7 3.579906 1_555
O12 P9 1.542434 1_555
O12 Ti6 1.996139 1_554
O12 Rb4 2.821301 1_555
O13 P16 1.531046 1_555
O13 Ti6 2.072033 1_555
O13 Rb4 3.347150 1_556
O13 Rb0 3.419224 1_555
O14 P4 1.545981 1_555
O14 Ti6 1.969535 1_555
O14 Rb0 3.135085 1_555
O14 Rb1 3.441541 1_555
O15 P5 1.531046 1_555
O15 Ti1 2.072033 1_555
O15 Rb0 3.347150 1_554
O15 Rb4 3.419224 1_555
O16 P7 1.544676 1_555
O16 Ti8 1.986802 1_555
O16 Rb10 3.377751 1_555
O16 Rb8 3.459803 1_555
O17 P2 1.554352 1_555
O17 Ti7 1.993025 1_555
O17 Rb3 3.090905 1_555
O17 Rb7 3.135017 1_555
O18 P19 1.545981 1_555
O18 Ti3 1.969535 1_555
O18 Rb6 3.135085 1_545
O18 Rb7 3.441541 1_555
O19 P4 1.544676 1_555
O19 Ti5 1.986802 1_555
O19 Rb3 3.377751 1_555
O19 Rb1 3.459803 1_555
O20 P19 1.544676 1_555
O20 Ti0 1.986802 1_555
O20 Rb5 3.377751 1_555
O20 Rb7 3.459803 1_555
O21 P11 1.554085 1_555
O21 Ti5 1.954142 1_555
O21 Rb6 3.380823 1_555
O22 P9 1.548195 1_555
O22 Ti8 1.994348 1_555
O22 Rb8 3.291778 1_555
O22 Rb10 3.378912 1_555
O22 Rb4 3.378912 1_555
O23 P3 1.531046 1_555
O23 Ti7 2.072033 1_555
O23 Rb11 3.347150 1_555
O23 Rb3 3.419224 1_555
O24 P4 1.628958 1_555
O24 P6 1.628958 1_555
O24 Rb0 3.159522 1_555
O24 Rb3 3.159522 1_555
O25 P17 1.544676 1_555
O25 Ti8 1.986802 1_555
O25 Rb4 3.377751 1_555
O25 Rb8 3.459803 1_555
O26 P8 1.544676 1_555
O26 Ti9 1.986802 1_555
O26 Rb2 3.377751 1_555
O26 Rb9 3.459803 1_555
O27 P19 1.628958 1_555
O27 P13 1.628958 1_545
O27 Rb5 3.159522 1_555
O27 Rb6 3.159522 1_545
O28 P13 1.545981 1_555
O28 Ti11 1.969535 1_555
O28 Rb5 3.135085 1_565
O28 Rb1 3.441541 1_555
O29 P17 1.628958 1_555
O29 P12 1.628958 1_555
O29 Rb11 3.159522 1_555
O29 Rb4 3.159522 1_555
O30 P7 1.498458 1_455
O30 Rb8 2.952426 1_555
O30 Rb2 2.952491 1_565
O30 Rb10 3.108581 1_555
O31 Ti11 1.827581 1_555
O31 Ti6 1.827581 1_555
O31 Rb1 3.270888 1_555
O32 P1 1.542434 1_555
O32 Ti3 1.996139 1_555
O32 Rb2 2.821301 1_555
O33 P4 1.498458 1_655
O33 Rb1 2.952426 1_555
O33 Rb0 2.952491 1_555
O33 Rb3 3.108581 1_555
O34 P2 1.531046 1_555
O34 Ti2 2.072033 1_555
O34 Rb3 3.347150 1_555
O34 Rb11 3.419224 1_555
O35 P15 1.542434 1_555
O35 Ti1 1.996139 1_556
O35 Rb0 2.821301 1_555
O36 P0 1.550474 1_555
O36 Ti3 1.940182 1_655
O36 Rb7 3.579906 1_555
O37 P3 1.554352 1_555
O37 Ti2 1.993025 1_555
O37 Rb11 3.090905 1_555
O37 Rb8 3.135017 1_555
O38 P16 1.550474 1_554
O38 Ti1 1.940182 1_455
O38 Rb9 3.579906 1_555
O39 P0 1.554085 1_555
O39 Ti9 1.954142 1_555
O39 Rb2 3.380823 1_555
O40 P18 1.542434 1_555
O40 Ti2 1.996139 1_555
O40 Rb3 2.821301 1_555
O41 P15 1.542434 1_555
O41 Ti10 1.996139 1_556
O41 Rb5 2.821301 1_555
O42 P11 1.554352 1_555
O42 Ti4 1.993025 1_555
O42 Rb2 3.090905 1_565
O42 Rb8 3.135017 1_555
O43 P9 1.547904 1_555
O43 Ti8 1.911877 1_455
O44 P18 1.547904 1_555
O44 Ti5 1.911877 1_655
O45 P3 1.554085 1_555
O45 Ti5 1.954142 1_555
O45 Rb3 3.380823 1_555
O46 P0 1.554352 1_555
O46 Ti3 1.993025 1_555
O46 Rb6 3.090905 1_545
O46 Rb7 3.135017 1_555
O47 P10 1.554085 1_555
O47 Ti8 1.954142 1_555
O47 Rb10 3.380823 1_555
O48 P18 1.548195 1_555
O48 Ti5 1.994348 1_555
O48 Rb1 3.291778 1_555
O48 Rb6 3.378912 1_555
O48 Rb3 3.378912 1_555
O49 P6 1.544676 1_555
O49 Ti0 1.986802 1_555
O49 Rb0 3.377751 1_555
O49 Rb7 3.459803 1_555
O50 Ti10 1.827581 1_555
O50 Ti1 1.827581 1_555
O50 Rb9 3.270888 1_555
O51 P2 1.554085 1_555
O51 Ti9 1.954142 1_555
O51 Rb11 3.380823 1_555
O52 P14 1.550474 1_554
O52 Ti10 1.940182 1_455
O52 Rb9 3.579906 1_555
O53 P5 1.550474 1_556
O53 Ti6 1.940182 1_655
O53 Rb1 3.579906 1_555
O54 P3 1.550474 1_555
O54 Ti2 1.940182 1_455
O54 Rb8 3.579906 1_555
O55 P14 1.554352 1_554
O55 Ti10 1.993025 1_555
O55 Rb10 3.090905 1_545
O55 Rb9 3.135017 1_555
O56 P8 1.628958 1_555
O56 P7 1.628958 1_545
O56 Rb2 3.159522 1_555
O56 Rb10 3.159522 1_545
O57 P5 1.554352 1_556
O57 Ti6 1.993025 1_555
O57 Rb0 3.090905 1_555
O57 Rb1 3.135017 1_555
O58 P14 1.554085 1_555
O58 Ti0 1.954142 1_555
O58 Rb5 3.380823 1_555
O59 P14 1.531046 1_555
O59 Ti11 2.072033 1_545
O59 Rb10 3.347150 1_546
O59 Rb5 3.419224 1_555
O60 P16 1.554352 1_554
O60 Ti1 1.993025 1_555
O60 Rb4 3.090905 1_555
O60 Rb9 3.135017 1_555
O61 P15 1.548195 1_555
O61 Ti0 1.994348 1_555
O61 Rb7 3.291778 1_555
O61 Rb0 3.378912 1_555
O61 Rb5 3.378912 1_555
O62 Ti3 1.827581 1_555
O62 Ti7 1.827581 1_555
O62 Rb7 3.270888 1_555
O63 P17 1.545981 1_555
O63 Ti2 1.969535 1_555
O63 Rb11 3.135085 1_555
O63 Rb8 3.441541 1_555
O64 P13 1.544676 1_555
O64 Ti5 1.986802 1_555
O64 Rb6 3.377751 1_555
O64 Rb1 3.459803 1_555
O65 P10 1.550474 1_556
O65 Ti11 1.940182 1_655
O65 Rb1 3.579906 1_555
O66 P10 1.531046 1_555
O66 Ti10 2.072033 1_565
O66 Rb5 3.347150 1_564
O66 Rb10 3.419224 1_555
O67 P12 1.544676 1_555
O67 Ti9 1.986802 1_555
O67 Rb11 3.377751 1_555
O67 Rb9 3.459803 1_555
O68 P6 1.545981 1_555
O68 Ti7 1.969535 1_555
O68 Rb3 3.135085 1_555
O68 Rb7 3.441541 1_555
O69 P9 1.542434 1_555
O69 Ti11 1.996139 1_554
O69 Rb10 2.821301 1_555
O70 P1 1.547904 1_555
O70 Ti9 1.911877 1_455
O71 P7 1.545981 1_555
O71 Ti4 1.969535 1_555
O71 Rb2 3.135085 1_565
O71 Rb8 3.441541 1_555
O72 P10 1.554352 1_556
O72 Ti11 1.993025 1_555
O72 Rb5 3.090905 1_565
O72 Rb1 3.135017 1_555
O73 P13 1.498458 1_655
O73 Rb1 2.952426 1_555
O73 Rb5 2.952491 1_565
O73 Rb6 3.108581 1_555
O74 Ti4 1.827581 1_555
O74 Ti2 1.827581 1_555
O74 Rb8 3.270888 1_555
O75 P8 1.545981 1_555
O75 Ti10 1.969535 1_555
O75 Rb10 3.135085 1_545
O75 Rb9 3.441541 1_555
O76 P17 1.498458 1_455
O76 Rb8 2.952426 1_555
O76 Rb11 2.952491 1_555
O76 Rb4 3.108581 1_555
O77 P19 1.498458 1_655
O77 Rb7 2.952426 1_555
O77 Rb6 2.952491 1_545
O77 Rb5 3.108581 1_555
O78 P5 1.554085 1_555
O78 Ti8 1.954142 1_555
O78 Rb4 3.380823 1_555
O79 P12 1.498458 1_455
O79 Rb9 2.952426 1_555
O79 Rb4 2.952491 1_555
O79 Rb11 3.108581 1_555
