# generated using pymatgen
data_Gd3OsO7
_symmetry_space_group_name_H-M   'P 1'
_cell_length_a   7.45264488
_cell_length_b   10.69734114
_cell_length_c   14.98256648
_cell_angle_alpha   90.00000000
_cell_angle_beta   90.00000000
_cell_angle_gamma   90.00000000
_symmetry_Int_Tables_number   1
_chemical_formula_structural   Gd3OsO7
_chemical_formula_sum   'Gd24 Os8 O56'
_cell_volume   1194.46240918
_cell_formula_units_Z   8
loop_
 _symmetry_equiv_pos_site_id
 _symmetry_equiv_pos_as_xyz
  1  'x, y, z'
loop_
 _atom_site_type_symbol
 _atom_site_label
 _atom_site_symmetry_multiplicity
 _atom_site_fract_x
 _atom_site_fract_y
 _atom_site_fract_z
 _atom_site_occupancy
  Gd  Gd0  1  0.75032522  0.94356257  0.97519484  1
  Gd  Gd1  1  0.00380668  0.68903445  0.36128718  1
  Gd  Gd2  1  0.49619332  0.68903445  0.86128718  1
  Gd  Gd3  1  0.49594448  0.17056349  0.61067681  1
  Gd  Gd4  1  0.26036618  0.90235622  0.01708846  1
  Gd  Gd5  1  0.50405552  0.67056349  0.38932319  1
  Gd  Gd6  1  0.74533326  0.91572299  0.22538907  1
  Gd  Gd7  1  0.99594448  0.67056349  0.88932319  1
  Gd  Gd8  1  0.75575441  0.45683562  0.73258716  1
  Gd  Gd9  1  0.24533326  0.41572299  0.27461093  1
  Gd  Gd10  1  0.23963382  0.90235622  0.51708846  1
  Gd  Gd11  1  0.24424559  0.95683562  0.26741284  1
  Gd  Gd12  1  0.73963382  0.40235622  0.98291154  1
  Gd  Gd13  1  0.76036618  0.40235622  0.48291154  1
  Gd  Gd14  1  0.75466674  0.91572299  0.72538907  1
  Gd  Gd15  1  0.25575441  0.95683562  0.76741284  1
  Gd  Gd16  1  0.99619332  0.18903445  0.63871282  1
  Gd  Gd17  1  0.50380668  0.18903445  0.13871282  1
  Gd  Gd18  1  0.74424559  0.45683562  0.23258716  1
  Gd  Gd19  1  0.24967478  0.44356257  0.02480516  1
  Gd  Gd20  1  0.25032522  0.44356257  0.52480516  1
  Gd  Gd21  1  0.00405552  0.17056349  0.11067681  1
  Gd  Gd22  1  0.25466674  0.41572299  0.77461093  1
  Gd  Gd23  1  0.74967478  0.94356257  0.47519484  1
  Os  Os0  1  0.00190403  0.67854398  0.62629825  1
  Os  Os1  1  0.00172669  0.18012194  0.87520415  1
  Os  Os2  1  0.99827331  0.68012194  0.12479585  1
  Os  Os3  1  0.99809597  0.17854398  0.37370175  1
  Os  Os4  1  0.49809597  0.67854398  0.12629825  1
  Os  Os5  1  0.50172669  0.68012194  0.62479585  1
  Os  Os6  1  0.49827331  0.18012194  0.37520415  1
  Os  Os7  1  0.50190403  0.17854398  0.87370175  1
  O  O0  1  0.03595917  0.05096387  0.97004905  1
  O  O1  1  0.25099355  0.66775740  0.59118963  1
  O  O2  1  0.46757077  0.28083077  0.98648633  1
  O  O3  1  0.23948322  0.04859239  0.62795887  1
  O  O4  1  0.74819069  0.69030141  0.15914445  1
  O  O5  1  0.54530986  0.33077828  0.80862684  1
  O  O6  1  0.45469014  0.83077828  0.19137316  1
  O  O7  1  0.03128530  0.81117604  0.22083029  1
  O  O8  1  0.47086981  0.55661502  0.72309467  1
  O  O9  1  0.52913019  0.05661502  0.27690533  1
  O  O10  1  0.25180931  0.19030141  0.84085555  1
  O  O11  1  0.53344823  0.07438403  0.76144919  1
  O  O12  1  0.76429437  0.81384584  0.85633761  1
  O  O13  1  0.96871470  0.31117604  0.77916971  1
  O  O14  1  0.03974994  0.02222547  0.43774763  1
  O  O15  1  0.23370065  0.81083031  0.87813856  1
  O  O16  1  0.96655177  0.07438403  0.26144919  1
  O  O17  1  0.73370065  0.31083031  0.62186144  1
  O  O18  1  0.52893316  0.80616511  0.52786834  1
  O  O19  1  0.75180931  0.69030141  0.65914445  1
  O  O20  1  0.53595917  0.55096387  0.52995095  1
  O  O21  1  0.96757077  0.78083077  0.51351367  1
  O  O22  1  0.23315022  0.54479282  0.39431009  1
  O  O23  1  0.76051678  0.54859239  0.37204113  1
  O  O24  1  0.03344823  0.57438403  0.73855081  1
  O  O25  1  0.23570563  0.31384584  0.14366239  1
  O  O26  1  0.73315022  0.04479282  0.10568991  1
  O  O27  1  0.53974994  0.52222547  0.06225237  1
  O  O28  1  0.26684978  0.54479282  0.89431009  1
  O  O29  1  0.76629935  0.31083031  0.12186144  1
  O  O30  1  0.04530986  0.83077828  0.69137316  1
  O  O31  1  0.47106684  0.30616511  0.47213166  1
  O  O32  1  0.26429437  0.31384584  0.64366239  1
  O  O33  1  0.26629935  0.81083031  0.37813856  1
  O  O34  1  0.26051678  0.04859239  0.12795887  1
  O  O35  1  0.75099355  0.16775740  0.90881037  1
  O  O36  1  0.73570563  0.81384584  0.35633761  1
  O  O37  1  0.24900645  0.66775740  0.09118963  1
  O  O38  1  0.53242923  0.78083077  0.01351367  1
  O  O39  1  0.46025006  0.02222547  0.93774763  1
  O  O40  1  0.76684978  0.04479282  0.60568991  1
  O  O41  1  0.96025006  0.52222547  0.56225237  1
  O  O42  1  0.97086981  0.05661502  0.77690533  1
  O  O43  1  0.46404083  0.05096387  0.47004905  1
  O  O44  1  0.46655177  0.57438403  0.23855081  1
  O  O45  1  0.02893316  0.30616511  0.97213166  1
  O  O46  1  0.53128530  0.31117604  0.27916971  1
  O  O47  1  0.24819069  0.19030141  0.34085555  1
  O  O48  1  0.46871470  0.81117604  0.72083029  1
  O  O49  1  0.73948322  0.54859239  0.87204113  1
  O  O50  1  0.74900645  0.16775740  0.40881037  1
  O  O51  1  0.02913019  0.55661502  0.22309467  1
  O  O52  1  0.97106684  0.80616511  0.02786834  1
  O  O53  1  0.96404083  0.55096387  0.02995095  1
  O  O54  1  0.95469014  0.33077828  0.30862684  1
  O  O55  1  0.03242923  0.28083077  0.48648633  1
loop_
_geom_bond_atom_site_label_1
_geom_bond_atom_site_label_2
_geom_bond_distance
_geom_bond_site_symmetry_2
Gd0 O26 2.238674 1_566
Gd0 O12 2.259987 1_555
Gd0 O52 2.342962 1_556
Gd0 O39 2.386708 1_565
Gd0 O0 2.420211 1_665
Gd0 O38 2.448885 1_556
Gd0 O35 2.596355 1_565
Gd1 O22 2.355222 1_555
Gd1 O23 2.360203 1_455
Gd1 O33 2.363947 1_555
Gd1 O36 2.404241 1_455
Gd1 O7 2.485485 1_555
Gd1 O21 2.497799 1_455
Gd1 O51 2.515765 1_555
Gd2 O28 2.355222 1_555
Gd2 O49 2.360203 1_555
Gd2 O15 2.363947 1_555
Gd2 O12 2.404241 1_555
Gd2 O48 2.485485 1_555
Gd2 O38 2.497799 1_556
Gd2 O8 2.515765 1_555
Gd3 O17 2.327918 1_555
Gd3 O3 2.328644 1_555
Gd3 O32 2.360935 1_555
Gd3 O40 2.427328 1_555
Gd3 O43 2.476427 1_555
Gd3 O11 2.497913 1_555
Gd3 O31 2.539160 1_555
Gd4 O34 2.281773 1_565
Gd4 O39 2.297046 1_564
Gd4 O15 2.309134 1_554
Gd4 O52 2.394459 1_455
Gd4 O38 2.409146 1_555
Gd4 O0 2.412650 1_564
Gd4 O37 2.745501 1_555
Gd5 O33 2.327918 1_555
Gd5 O23 2.328644 1_555
Gd5 O36 2.360935 1_555
Gd5 O22 2.427328 1_555
Gd5 O20 2.476427 1_555
Gd5 O44 2.497913 1_555
Gd5 O18 2.539160 1_555
Gd6 O36 2.245456 1_555
Gd6 O26 2.265143 1_565
Gd6 O9 2.337423 1_565
Gd6 O6 2.403593 1_555
Gd6 O7 2.407698 1_655
Gd6 O16 2.427065 1_565
Gd6 O4 2.607766 1_555
Gd7 O15 2.327918 1_655
Gd7 O49 2.328644 1_555
Gd7 O12 2.360935 1_555
Gd7 O28 2.427328 1_655
Gd7 O53 2.476427 1_556
Gd7 O24 2.497913 1_655
Gd7 O52 2.539160 1_556
Gd8 O17 2.284421 1_555
Gd8 O49 2.311634 1_555
Gd8 O13 2.331081 1_555
Gd8 O5 2.361379 1_555
Gd8 O8 2.380600 1_555
Gd8 O24 2.423268 1_655
Gd8 O19 2.729282 1_555
Gd8 O41 3.053677 1_555
Gd9 O25 2.245456 1_555
Gd9 O22 2.265143 1_555
Gd9 O51 2.337423 1_555
Gd9 O54 2.403593 1_455
Gd9 O46 2.407698 1_555
Gd9 O44 2.427065 1_555
Gd9 O47 2.607766 1_555
Gd10 O3 2.281773 1_565
Gd10 O14 2.297046 1_565
Gd10 O33 2.309134 1_555
Gd10 O18 2.394459 1_555
Gd10 O21 2.409146 1_455
Gd10 O43 2.412650 1_565
Gd10 O1 2.745501 1_555
Gd11 O33 2.284421 1_555
Gd11 O34 2.311634 1_565
Gd11 O7 2.331081 1_555
Gd11 O6 2.361379 1_555
Gd11 O9 2.380600 1_565
Gd11 O16 2.423268 1_465
Gd11 O47 2.729282 1_565
Gd11 O14 3.053677 1_565
Gd12 O49 2.281773 1_555
Gd12 O27 2.297046 1_556
Gd12 O29 2.309134 1_556
Gd12 O45 2.394459 1_655
Gd12 O2 2.409146 1_555
Gd12 O53 2.412650 1_556
Gd12 O35 2.745501 1_555
Gd13 O23 2.281773 1_555
Gd13 O41 2.297046 1_555
Gd13 O17 2.309134 1_555
Gd13 O31 2.394459 1_555
Gd13 O55 2.409146 1_655
Gd13 O20 2.412650 1_555
Gd13 O50 2.745501 1_555
Gd14 O12 2.245456 1_555
Gd14 O40 2.265143 1_565
Gd14 O42 2.337423 1_565
Gd14 O30 2.403593 1_655
Gd14 O48 2.407698 1_555
Gd14 O11 2.427065 1_565
Gd14 O19 2.607766 1_555
Gd15 O15 2.284421 1_555
Gd15 O3 2.311634 1_565
Gd15 O48 2.331081 1_555
Gd15 O30 2.361379 1_555
Gd15 O42 2.380600 1_465
Gd15 O11 2.423268 1_565
Gd15 O10 2.729282 1_565
Gd15 O39 3.053677 1_565
Gd16 O40 2.355222 1_555
Gd16 O3 2.360203 1_655
Gd16 O17 2.363947 1_555
Gd16 O32 2.404241 1_655
Gd16 O13 2.485485 1_555
Gd16 O55 2.497799 1_655
Gd16 O42 2.515765 1_555
Gd17 O26 2.355222 1_555
Gd17 O34 2.360203 1_555
Gd17 O29 2.363947 1_555
Gd17 O25 2.404241 1_555
Gd17 O46 2.485485 1_555
Gd17 O2 2.497799 1_554
Gd17 O9 2.515765 1_555
Gd18 O29 2.284421 1_555
Gd18 O23 2.311634 1_555
Gd18 O46 2.331081 1_555
Gd18 O54 2.361379 1_555
Gd18 O51 2.380600 1_655
Gd18 O44 2.423268 1_555
Gd18 O4 2.729282 1_555
Gd18 O27 3.053677 1_555
Gd19 O28 2.238674 1_554
Gd19 O25 2.259987 1_555
Gd19 O45 2.342962 1_554
Gd19 O27 2.386708 1_555
Gd19 O53 2.420211 1_455
Gd19 O2 2.448885 1_554
Gd19 O37 2.596355 1_555
Gd20 O22 2.238674 1_555
Gd20 O32 2.259987 1_555
Gd20 O31 2.342962 1_555
Gd20 O41 2.386708 1_455
Gd20 O20 2.420211 1_555
Gd20 O55 2.448885 1_555
Gd20 O1 2.596355 1_555
Gd21 O29 2.327918 1_455
Gd21 O34 2.328644 1_555
Gd21 O25 2.360935 1_555
Gd21 O26 2.427328 1_455
Gd21 O0 2.476427 1_554
Gd21 O16 2.497913 1_455
Gd21 O45 2.539160 1_554
Gd22 O32 2.245456 1_555
Gd22 O28 2.265143 1_555
Gd22 O8 2.337423 1_555
Gd22 O5 2.403593 1_555
Gd22 O13 2.407698 1_455
Gd22 O24 2.427065 1_555
Gd22 O10 2.607766 1_555
Gd23 O40 2.238674 1_565
Gd23 O36 2.259987 1_555
Gd23 O18 2.342962 1_555
Gd23 O14 2.386708 1_665
Gd23 O43 2.420211 1_565
Gd23 O21 2.448885 1_555
Gd23 O50 2.596355 1_565
O0 Os1 1.998333 1_555
O1 Os0 1.932910 1_555
O1 Os5 1.939787 1_555
O2 Os7 2.029327 1_555
O4 Os4 1.931839 1_555
O4 Os2 1.936586 1_555
O5 Os7 1.925427 1_555
O6 Os4 1.925427 1_555
O7 Os2 2.023908 1_455
O8 Os5 1.991856 1_555
O9 Os6 1.991856 1_555
O10 Os7 1.931839 1_555
O10 Os1 1.936586 1_555
O11 Os7 2.031094 1_555
O13 Os1 2.023908 1_655
O14 Os3 1.952786 1_455
O16 Os3 2.031094 1_555
O18 Os5 1.991996 1_555
O19 Os0 1.931839 1_655
O19 Os5 1.936586 1_555
O20 Os5 1.998333 1_555
O21 Os0 2.029327 1_655
O24 Os0 2.031094 1_555
O27 Os4 1.952786 1_555
O30 Os0 1.925427 1_555
O31 Os6 1.991996 1_555
O35 Os7 1.932910 1_555
O35 Os1 1.939787 1_655
O37 Os4 1.932910 1_555
O37 Os2 1.939787 1_455
O38 Os4 2.029327 1_555
O39 Os7 1.952786 1_555
O41 Os0 1.952786 1_655
O42 Os1 1.991856 1_655
O43 Os6 1.998333 1_555
O44 Os4 2.031094 1_555
O45 Os1 1.991996 1_555
O46 Os6 2.023908 1_555
O47 Os3 1.931839 1_455
O47 Os6 1.936586 1_555
O48 Os5 2.023908 1_555
O50 Os3 1.932910 1_555
O50 Os6 1.939787 1_555
O51 Os2 1.991856 1_455
O52 Os2 1.991996 1_555
O53 Os2 1.998333 1_555
O54 Os3 1.925427 1_555
O55 Os3 2.029327 1_455
