# generated using pymatgen
data_SbP(Cl2F3)2
_symmetry_space_group_name_H-M   'P 1'
_cell_length_a   8.71610100
_cell_length_b   8.71610100
_cell_length_c   6.94341200
_cell_angle_alpha   90.00000000
_cell_angle_beta   90.00000000
_cell_angle_gamma   90.00000000
_symmetry_Int_Tables_number   1
_chemical_formula_structural   SbP(Cl2F3)2
_chemical_formula_sum   'Sb2 P2 Cl8 F12'
_cell_volume   527.49390256
_cell_formula_units_Z   2
loop_
 _symmetry_equiv_pos_site_id
 _symmetry_equiv_pos_as_xyz
  1  'x, y, z'
loop_
 _atom_site_type_symbol
 _atom_site_label
 _atom_site_symmetry_multiplicity
 _atom_site_fract_x
 _atom_site_fract_y
 _atom_site_fract_z
 _atom_site_occupancy
  Sb  Sb0  1  0.00000000  0.50000000  0.14671800  1
  Sb  Sb1  1  0.50000000  0.00000000  0.85328200  1
  P  P0  1  0.50000000  0.50000000  0.50000000  1
  P  P1  1  0.00000000  0.00000000  0.50000000  1
  Cl  Cl0  1  0.04687900  0.17697700  0.66235200  1
  Cl  Cl1  1  0.45312100  0.32302300  0.33764800  1
  Cl  Cl2  1  0.32302300  0.54687900  0.66235200  1
  Cl  Cl3  1  0.82302300  0.04687900  0.33764800  1
  Cl  Cl4  1  0.54687900  0.67697700  0.33764800  1
  Cl  Cl5  1  0.17697700  0.95312100  0.33764800  1
  Cl  Cl6  1  0.67697700  0.45312100  0.66235200  1
  Cl  Cl7  1  0.95312100  0.82302300  0.66235200  1
  F  F0  1  0.29075600  0.93020300  0.85354400  1
  F  F1  1  0.79075600  0.43020300  0.14645600  1
  F  F2  1  0.20924400  0.56979700  0.14645600  1
  F  F3  1  0.93020300  0.70924400  0.14645600  1
  F  F4  1  0.56979700  0.79075600  0.85354400  1
  F  F5  1  0.70924400  0.06979700  0.85354400  1
  F  F6  1  0.43020300  0.20924400  0.85354400  1
  F  F7  1  0.00000000  0.50000000  0.86878100  1
  F  F8  1  0.06979700  0.29075600  0.14645600  1
  F  F9  1  0.50000000  0.00000000  0.57680400  1
  F  F10  1  0.00000000  0.50000000  0.42319600  1
  F  F11  1  0.50000000  0.00000000  0.13121900  1
loop_
_geom_bond_atom_site_label_1
_geom_bond_atom_site_label_2
_geom_bond_distance
_geom_bond_site_symmetry_2
Cl0 P1 1.953757 1_555
Cl1 P0 1.953757 1_555
Cl2 P0 1.953757 1_555
Cl3 P1 1.953757 1_655
Cl4 P0 1.953757 1_555
Cl5 P1 1.953757 1_565
Cl6 P0 1.953757 1_555
Cl7 P1 1.953757 1_665
F0 Sb1 1.922581 1_565
F1 Sb0 1.922581 1_655
F2 Sb0 1.922581 1_555
F3 Sb0 1.922581 1_655
F4 Sb1 1.922581 1_565
F5 Sb1 1.922581 1_555
F6 Sb1 1.922581 1_555
F7 Sb0 1.929831 1_556
F8 Sb0 1.922581 1_555
F9 Sb1 1.919701 1_555
F10 Sb0 1.919701 1_555
F11 Sb1 1.929831 1_554
