# generated using pymatgen
data_NbPCl8O
_symmetry_space_group_name_H-M   'P 1'
_cell_length_a   8.26547298
_cell_length_b   9.03418190
_cell_length_c   16.47483587
_cell_angle_alpha   90.00000000
_cell_angle_beta   90.00000000
_cell_angle_gamma   90.00000000
_symmetry_Int_Tables_number   1
_chemical_formula_structural   NbPCl8O
_chemical_formula_sum   'Nb4 P4 Cl32 O4'
_cell_volume   1230.20542491
_cell_formula_units_Z   4
loop_
 _symmetry_equiv_pos_site_id
 _symmetry_equiv_pos_as_xyz
  1  'x, y, z'
loop_
 _atom_site_type_symbol
 _atom_site_label
 _atom_site_symmetry_multiplicity
 _atom_site_fract_x
 _atom_site_fract_y
 _atom_site_fract_z
 _atom_site_occupancy
  Nb  Nb0  1  0.25000000  0.08680316  0.85184043  1
  Nb  Nb1  1  0.75000000  0.58680316  0.64815957  1
  Nb  Nb2  1  0.25000000  0.41319684  0.35184043  1
  Nb  Nb3  1  0.75000000  0.91319684  0.14815957  1
  P  P0  1  0.75000000  0.28438031  0.07766783  1
  P  P1  1  0.25000000  0.71561969  0.92233217  1
  P  P2  1  0.25000000  0.78438031  0.42233217  1
  P  P3  1  0.75000000  0.21561969  0.57766783  1
  Cl  Cl0  1  0.94002455  0.13087898  0.63229096  1
  Cl  Cl1  1  0.25000000  0.63843190  0.03368824  1
  Cl  Cl2  1  0.46864291  0.55959641  0.64067411  1
  Cl  Cl3  1  0.96864291  0.44040359  0.35932589  1
  Cl  Cl4  1  0.96864291  0.05959641  0.85932589  1
  Cl  Cl5  1  0.05997545  0.86912102  0.36770904  1
  Cl  Cl6  1  0.03135709  0.55959641  0.64067411  1
  Cl  Cl7  1  0.25000000  0.92695047  0.73585429  1
  Cl  Cl8  1  0.75000000  0.36156810  0.96631176  1
  Cl  Cl9  1  0.75000000  0.70967239  0.52290180  1
  Cl  Cl10  1  0.75000000  0.79032761  0.02290180  1
  Cl  Cl11  1  0.44002455  0.63087898  0.86770904  1
  Cl  Cl12  1  0.25000000  0.57304953  0.23585429  1
  Cl  Cl13  1  0.53135709  0.05959641  0.85932589  1
  Cl  Cl14  1  0.75000000  0.07304953  0.26414571  1
  Cl  Cl15  1  0.25000000  0.20425967  0.27345836  1
  Cl  Cl16  1  0.25000000  0.86156810  0.53368824  1
  Cl  Cl17  1  0.75000000  0.42695047  0.76414571  1
  Cl  Cl18  1  0.44002455  0.86912102  0.36770904  1
  Cl  Cl19  1  0.25000000  0.29032761  0.47709820  1
  Cl  Cl20  1  0.53135709  0.44040359  0.35932589  1
  Cl  Cl21  1  0.55997545  0.13087898  0.63229096  1
  Cl  Cl22  1  0.75000000  0.79574033  0.72654164  1
  Cl  Cl23  1  0.03135709  0.94040359  0.14067411  1
  Cl  Cl24  1  0.94002455  0.36912102  0.13229096  1
  Cl  Cl25  1  0.05997545  0.63087898  0.86770904  1
  Cl  Cl26  1  0.25000000  0.29574033  0.77345836  1
  Cl  Cl27  1  0.25000000  0.20967239  0.97709820  1
  Cl  Cl28  1  0.75000000  0.13843190  0.46631176  1
  Cl  Cl29  1  0.55997545  0.36912102  0.13229096  1
  Cl  Cl30  1  0.46864291  0.94040359  0.14067411  1
  Cl  Cl31  1  0.75000000  0.70425967  0.22654164  1
  O  O0  1  0.75000000  0.37906243  0.57735685  1
  O  O1  1  0.25000000  0.62093757  0.42264315  1
  O  O2  1  0.25000000  0.87906243  0.92264315  1
  O  O3  1  0.75000000  0.12093757  0.07735685  1
loop_
_geom_bond_atom_site_label_1
_geom_bond_atom_site_label_2
_geom_bond_distance
_geom_bond_site_symmetry_2
Nb0 O2 2.209727 1_545
Nb1 O0 2.209727 1_555
Nb2 O1 2.209727 1_555
Nb3 O3 2.209727 1_565
Cl0 P3 1.965410 1_555
Cl1 P1 1.962632 1_554
Cl2 Nb1 2.341752 1_555
Cl3 Nb2 2.341752 1_655
Cl4 Nb0 2.341752 1_655
Cl5 P2 1.965410 1_555
Cl6 Nb1 2.341752 1_455
Cl7 Nb0 2.395181 1_565
Cl8 P0 1.962632 1_556
Cl9 Nb1 2.343203 1_555
Cl10 Nb3 2.343203 1_555
Cl11 P1 1.965410 1_555
Cl12 Nb2 2.395181 1_555
Cl13 Nb0 2.341752 1_555
Cl14 Nb3 2.395181 1_545
Cl15 Nb2 2.287025 1_555
Cl16 P2 1.962632 1_555
Cl17 Nb1 2.395181 1_555
Cl18 P2 1.965410 1_555
Cl19 Nb2 2.343203 1_555
Cl20 Nb2 2.341752 1_555
Cl21 P3 1.965410 1_555
Cl22 Nb1 2.287025 1_555
Cl23 Nb3 2.341752 1_455
Cl24 P0 1.965410 1_555
Cl25 P1 1.965410 1_555
Cl26 Nb0 2.287025 1_555
Cl27 Nb0 2.343203 1_555
Cl28 P3 1.962632 1_555
Cl29 P0 1.965410 1_555
Cl30 Nb3 2.341752 1_555
Cl31 Nb3 2.287025 1_555
O0 P3 1.476580 1_555
O1 P2 1.476580 1_555
O2 P1 1.476580 1_555
O3 P0 1.476580 1_555
