# generated using pymatgen
data_Ca3CuRhO6
_symmetry_space_group_name_H-M   'P 1'
_cell_length_a   6.53169561
_cell_length_b   6.53169561
_cell_length_c   6.46442559
_cell_angle_alpha   89.75179603
_cell_angle_beta   89.75179603
_cell_angle_gamma   91.50864266
_symmetry_Int_Tables_number   1
_chemical_formula_structural   Ca3CuRhO6
_chemical_formula_sum   'Ca6 Cu2 Rh2 O12'
_cell_volume   275.69118372
_cell_formula_units_Z   2
loop_
 _symmetry_equiv_pos_site_id
 _symmetry_equiv_pos_as_xyz
  1  'x, y, z'
loop_
 _atom_site_type_symbol
 _atom_site_label
 _atom_site_symmetry_multiplicity
 _atom_site_fract_x
 _atom_site_fract_y
 _atom_site_fract_z
 _atom_site_occupancy
  Ca  Ca0  1  0.23595000  0.38565200  0.37606300  1
  Ca  Ca1  1  0.38565200  0.23595000  0.87606300  1
  Ca  Ca2  1  0.09834400  0.90165600  0.25000000  1
  Ca  Ca3  1  0.76405000  0.61434800  0.62393700  1
  Ca  Ca4  1  0.90165600  0.09834400  0.75000000  1
  Ca  Ca5  1  0.61434800  0.76405000  0.12393700  1
  Cu  Cu0  1  0.31017100  0.68982900  0.75000000  1
  Cu  Cu1  1  0.68982900  0.31017100  0.25000000  1
  Rh  Rh0  1  0.00000000  0.50000000  0.00000000  1
  Rh  Rh1  1  0.50000000  0.00000000  0.50000000  1
  O  O0  1  0.08001000  0.20863000  0.06558200  1
  O  O1  1  0.89426100  0.52719100  0.29451800  1
  O  O2  1  0.20863000  0.08001000  0.56558200  1
  O  O3  1  0.79137000  0.91999000  0.43441800  1
  O  O4  1  0.60652500  0.29253700  0.54249700  1
  O  O5  1  0.29253700  0.60652500  0.04249700  1
  O  O6  1  0.52719100  0.89426100  0.79451800  1
  O  O7  1  0.91999000  0.79137000  0.93441800  1
  O  O8  1  0.10573900  0.47280900  0.70548200  1
  O  O9  1  0.70746300  0.39347500  0.95750300  1
  O  O10  1  0.39347500  0.70746300  0.45750300  1
  O  O11  1  0.47280900  0.10573900  0.20548200  1
loop_
_geom_bond_atom_site_label_1
_geom_bond_atom_site_label_2
_geom_bond_distance
_geom_bond_site_symmetry_2
Ca0 O2 2.340172 1_555
Ca0 O8 2.366966 1_555
Ca0 O10 2.377918 1_555
Ca0 O1 2.495625 1_455
Ca0 O0 2.525580 1_555
Ca0 O5 2.608768 1_555
Ca0 O11 2.665293 1_555
Ca0 O4 2.735071 1_555
Ca1 O0 2.340172 1_556
Ca1 O11 2.366966 1_556
Ca1 O9 2.377918 1_555
Ca1 O6 2.495625 1_545
Ca1 O2 2.525580 1_555
Ca1 O4 2.608768 1_555
Ca1 O8 2.665293 1_555
Ca1 O5 2.735071 1_556
Ca2 O3 2.334313 1_455
Ca2 O0 2.334313 1_565
Ca2 O7 2.454994 1_454
Ca2 O2 2.454994 1_565
Ca2 O10 2.694558 1_555
Ca2 O5 2.694558 1_555
Ca2 O11 2.767854 1_565
Ca2 O1 2.767854 1_455
Ca3 O3 2.340172 1_555
Ca3 O1 2.366966 1_555
Ca3 O4 2.377918 1_555
Ca3 O8 2.495625 1_655
Ca3 O7 2.525580 1_555
Ca3 O9 2.608768 1_555
Ca3 O6 2.665293 1_555
Ca3 O10 2.735071 1_555
Ca4 O7 2.334313 1_545
Ca4 O2 2.334313 1_655
Ca4 O0 2.454994 1_656
Ca4 O3 2.454994 1_545
Ca4 O9 2.694558 1_555
Ca4 O4 2.694558 1_555
Ca4 O6 2.767854 1_545
Ca4 O8 2.767854 1_655
Ca5 O7 2.340172 1_554
Ca5 O6 2.366966 1_554
Ca5 O5 2.377918 1_555
Ca5 O11 2.495625 1_565
Ca5 O3 2.525580 1_555
Ca5 O10 2.608768 1_555
Ca5 O1 2.665293 1_555
Ca5 O9 2.735071 1_554
Cu0 O8 1.944824 1_555
Cu0 O6 1.944824 1_555
Cu0 O5 1.967345 1_556
Cu0 O10 1.967345 1_555
Cu1 O11 1.944824 1_555
Cu1 O1 1.944824 1_555
Cu1 O4 1.967345 1_555
Cu1 O9 1.967345 1_554
O0 Rh0 2.030292 1_555
O1 Rh0 2.032570 1_655
O2 Rh1 2.030292 1_555
O3 Rh1 2.030292 1_565
O4 Rh1 2.036371 1_555
O5 Rh0 2.036371 1_555
O6 Rh1 2.032570 1_565
O7 Rh0 2.030292 1_656
O8 Rh0 2.032570 1_556
O9 Rh0 2.036371 1_656
O10 Rh1 2.036371 1_565
O11 Rh1 2.032570 1_555
