# generated using pymatgen
data_BaAl2(GeO4)2
_symmetry_space_group_name_H-M   'P 1'
_cell_length_a   9.57497590
_cell_length_b   9.57497590
_cell_length_c   8.84169017
_cell_angle_alpha   82.14823689
_cell_angle_beta   82.14823689
_cell_angle_gamma   88.98888734
_symmetry_Int_Tables_number   1
_chemical_formula_structural   BaAl2(GeO4)2
_chemical_formula_sum   'Ba4 Al8 Ge8 O32'
_cell_volume   795.47924733
_cell_formula_units_Z   4
loop_
 _symmetry_equiv_pos_site_id
 _symmetry_equiv_pos_as_xyz
  1  'x, y, z'
loop_
 _atom_site_type_symbol
 _atom_site_label
 _atom_site_symmetry_multiplicity
 _atom_site_fract_x
 _atom_site_fract_y
 _atom_site_fract_z
 _atom_site_occupancy
  Ba  Ba0  1  0.43382253  0.93437915  0.28876363  1
  Ba  Ba1  1  0.56617747  0.06562085  0.71123637  1
  Ba  Ba2  1  0.93437915  0.43382253  0.78876363  1
  Ba  Ba3  1  0.06562085  0.56617747  0.21123637  1
  Al  Al0  1  0.29386944  0.43222218  0.89133212  1
  Al  Al1  1  0.56777782  0.70613056  0.60866788  1
  Al  Al2  1  0.94586759  0.20763069  0.47457386  1
  Al  Al3  1  0.20763069  0.94586759  0.97457386  1
  Al  Al4  1  0.43222218  0.29386944  0.39133212  1
  Al  Al5  1  0.70613056  0.56777782  0.10866788  1
  Al  Al6  1  0.79236931  0.05413241  0.02542614  1
  Al  Al7  1  0.05413241  0.79236931  0.52542614  1
  Ge  Ge0  1  0.29130109  0.55548593  0.52286401  1
  Ge  Ge1  1  0.55548593  0.29130109  0.02286401  1
  Ge  Ge2  1  0.06985378  0.20760552  0.10582844  1
  Ge  Ge3  1  0.79239448  0.93014622  0.39417156  1
  Ge  Ge4  1  0.70869891  0.44451407  0.47713599  1
  Ge  Ge5  1  0.93014622  0.79239448  0.89417156  1
  Ge  Ge6  1  0.44451407  0.70869891  0.97713599  1
  Ge  Ge7  1  0.20760552  0.06985378  0.60582844  1
  O  O0  1  0.36754744  0.13424854  0.49868937  1
  O  O1  1  0.13424854  0.36754744  0.99868937  1
  O  O2  1  0.64634295  0.14429859  0.96129136  1
  O  O3  1  0.47625028  0.23891051  0.21085863  1
  O  O4  1  0.23891051  0.47625028  0.71085863  1
  O  O5  1  0.02302821  0.26072820  0.28616914  1
  O  O6  1  0.93321170  0.81416210  0.39180681  1
  O  O7  1  0.76108949  0.52374972  0.28914137  1
  O  O8  1  0.67743205  0.42686507  0.00883865  1
  O  O9  1  0.26072820  0.02302821  0.78616914  1
  O  O10  1  0.81416210  0.93321170  0.89180681  1
  O  O11  1  0.06678830  0.18583790  0.60819319  1
  O  O12  1  0.86575146  0.63245256  0.00131063  1
  O  O13  1  0.68170961  0.56310424  0.61136013  1
  O  O14  1  0.82415661  0.07141035  0.49130321  1
  O  O15  1  0.97697179  0.73927180  0.71383086  1
  O  O16  1  0.52374972  0.76108949  0.78914137  1
  O  O17  1  0.32256795  0.57313493  0.99116135  1
  O  O18  1  0.57313493  0.32256795  0.49116135  1
  O  O19  1  0.85570141  0.35365705  0.53870864  1
  O  O20  1  0.43689576  0.31829039  0.88863987  1
  O  O21  1  0.31829039  0.43689576  0.38863987  1
  O  O22  1  0.73927180  0.97697179  0.21383086  1
  O  O23  1  0.42686507  0.67743205  0.50883865  1
  O  O24  1  0.35365705  0.85570141  0.03870864  1
  O  O25  1  0.92858965  0.17584339  0.00869679  1
  O  O26  1  0.18583790  0.06678830  0.10819319  1
  O  O27  1  0.63245256  0.86575146  0.50131063  1
  O  O28  1  0.17584339  0.92858965  0.50869679  1
  O  O29  1  0.56310424  0.68170961  0.11136013  1
  O  O30  1  0.14429859  0.64634295  0.46129136  1
  O  O31  1  0.07141035  0.82415661  0.99130321  1
loop_
_geom_bond_atom_site_label_1
_geom_bond_atom_site_label_2
_geom_bond_distance
_geom_bond_site_symmetry_2
Ba0 O24 2.642719 1_555
Ba0 O0 2.848868 1_565
Ba0 O27 2.859307 1_555
Ba0 O23 2.916503 1_555
Ba0 O28 2.923879 1_555
Ba0 O3 2.925482 1_565
Ba0 O22 2.932203 1_555
Ba0 O26 3.189169 1_565
Ba0 O29 3.200987 1_555
Ba1 O2 2.642719 1_555
Ba1 O27 2.848868 1_545
Ba1 O0 2.859307 1_555
Ba1 O18 2.916503 1_555
Ba1 O14 2.923879 1_555
Ba1 O16 2.925482 1_545
Ba1 O9 2.932203 1_555
Ba1 O10 3.189169 1_545
Ba1 O20 3.200987 1_555
Ba2 O19 2.642719 1_555
Ba2 O1 2.848868 1_655
Ba2 O12 2.859307 1_556
Ba2 O8 2.916503 1_556
Ba2 O25 2.923879 1_556
Ba2 O4 2.925482 1_655
Ba2 O15 2.932203 1_555
Ba2 O11 3.189169 1_655
Ba2 O13 3.200987 1_555
Ba3 O30 2.642719 1_555
Ba3 O12 2.848868 1_455
Ba3 O1 2.859307 1_554
Ba3 O17 2.916503 1_554
Ba3 O31 2.923879 1_554
Ba3 O7 2.925482 1_455
Ba3 O5 2.932203 1_555
Ba3 O6 3.189169 1_455
Ba3 O21 3.200987 1_555
Al0 O20 1.735378 1_555
Al0 O4 1.743177 1_555
Al0 O17 1.754927 1_555
Al0 O1 1.759780 1_555
Al1 O13 1.735378 1_555
Al1 O16 1.743177 1_555
Al1 O23 1.754927 1_555
Al1 O27 1.759780 1_555
Al2 O5 1.739214 1_655
Al2 O14 1.742137 1_555
Al2 O19 1.749896 1_555
Al2 O11 1.754330 1_655
Al3 O9 1.739214 1_565
Al3 O31 1.742137 1_555
Al3 O24 1.749896 1_556
Al3 O26 1.754330 1_566
Al4 O21 1.735378 1_555
Al4 O3 1.743177 1_555
Al4 O18 1.754927 1_555
Al4 O0 1.759780 1_555
Al5 O29 1.735378 1_555
Al5 O7 1.743177 1_555
Al5 O8 1.754927 1_555
Al5 O12 1.759780 1_555
Al6 O22 1.739214 1_545
Al6 O25 1.742137 1_555
Al6 O2 1.749896 1_554
Al6 O10 1.754330 1_544
Al7 O15 1.739214 1_455
Al7 O28 1.742137 1_555
Al7 O30 1.749896 1_555
Al7 O6 1.754330 1_455
Ge0 O4 1.741027 1_555
Ge0 O23 1.741709 1_555
Ge0 O21 1.743156 1_555
Ge0 O30 1.752464 1_555
Ge1 O3 1.741027 1_555
Ge1 O8 1.741709 1_555
Ge1 O20 1.743156 1_554
Ge1 O2 1.752464 1_554
Ge2 O26 1.731333 1_555
Ge2 O5 1.737943 1_555
Ge2 O25 1.750094 1_455
Ge2 O1 1.760742 1_554
Ge3 O6 1.731333 1_555
Ge3 O22 1.737943 1_555
Ge3 O14 1.750094 1_565
Ge3 O27 1.760742 1_555
Ge4 O7 1.741027 1_555
Ge4 O18 1.741709 1_555
Ge4 O13 1.743156 1_555
Ge4 O19 1.752464 1_555
Ge5 O10 1.731333 1_555
Ge5 O15 1.737943 1_555
Ge5 O31 1.750094 1_655
Ge5 O12 1.760742 1_556
Ge6 O16 1.741027 1_555
Ge6 O17 1.741709 1_555
Ge6 O29 1.743156 1_556
Ge6 O24 1.752464 1_556
Ge7 O11 1.731333 1_555
Ge7 O9 1.737943 1_555
Ge7 O28 1.750094 1_545
Ge7 O0 1.760742 1_555
