# generated using pymatgen
data_KCoAu3(CN)6
_symmetry_space_group_name_H-M   'P 1'
_cell_length_a   7.05334169
_cell_length_b   7.05334169
_cell_length_c   7.37103000
_cell_angle_alpha   90.00000000
_cell_angle_beta   90.00000000
_cell_angle_gamma   119.99999713
_symmetry_Int_Tables_number   1
_chemical_formula_structural   KCoAu3(CN)6
_chemical_formula_sum   'K1 Co1 Au3 C6 N6'
_cell_volume   317.57672802
_cell_formula_units_Z   1
loop_
 _symmetry_equiv_pos_site_id
 _symmetry_equiv_pos_as_xyz
  1  'x, y, z'
loop_
 _atom_site_type_symbol
 _atom_site_label
 _atom_site_symmetry_multiplicity
 _atom_site_fract_x
 _atom_site_fract_y
 _atom_site_fract_z
 _atom_site_occupancy
  K  K0  1  0.33333300  0.66666700  0.50000000  1
  Co  Co0  1  0.00000000  0.00000000  0.50000000  1
  Au  Au0  1  0.50623800  0.01247600  0.00000000  1
  Au  Au1  1  0.98752400  0.49376200  0.00000000  1
  Au  Au2  1  0.50623800  0.49376200  0.00000000  1
  C  C0  1  0.67289600  0.00791600  0.21696100  1
  C  C1  1  0.33502100  0.00791600  0.78303900  1
  C  C2  1  0.99208400  0.66497900  0.21696100  1
  C  C3  1  0.33502100  0.32710400  0.21696100  1
  C  C4  1  0.99208400  0.32710400  0.78303900  1
  C  C5  1  0.67289600  0.66497900  0.78303900  1
  N  N0  1  0.99922000  0.77476200  0.33931500  1
  N  N1  1  0.77554200  0.00078000  0.33931500  1
  N  N2  1  0.22523800  0.22445800  0.33931500  1
  N  N3  1  0.77554200  0.77476200  0.66068500  1
  N  N4  1  0.22523800  0.00078000  0.66068500  1
  N  N5  1  0.99922000  0.22445800  0.66068500  1
loop_
_geom_bond_atom_site_label_1
_geom_bond_atom_site_label_2
_geom_bond_distance
_geom_bond_site_symmetry_2
K0 N4 3.055244 1_565
K0 N0 3.055244 1_455
K0 N5 3.055249 1_455
K0 N1 3.055249 1_565
K0 N3 3.055251 1_555
K0 N2 3.055251 1_555
Co0 N5 1.979402 1_455
Co0 N1 1.979402 1_455
Co0 N4 1.979402 1_555
Co0 N0 1.979402 1_445
Co0 N2 1.979402 1_555
Co0 N3 1.979402 1_445
Au0 C1 1.994527 1_554
Au0 C0 1.994532 1_555
Au1 C2 1.994527 1_555
Au1 C4 1.994532 1_554
Au2 C3 1.994530 1_555
Au2 C5 1.994530 1_554
C0 N1 1.173254 1_555
C0 K0 3.180803 1_545
C1 N4 1.173258 1_555
C1 K0 3.180798 1_545
C2 N0 1.173258 1_555
C2 K0 3.180798 1_655
C3 N2 1.173256 1_555
C3 K0 3.180808 1_555
C4 N5 1.173254 1_555
C4 K0 3.180803 1_655
C5 N3 1.173256 1_555
C5 K0 3.180808 1_555
