# generated using pymatgen
data_Dy4CdRh
_symmetry_space_group_name_H-M   'P 1'
_cell_length_a   9.56517433
_cell_length_b   9.56521426
_cell_length_c   9.56525016
_cell_angle_alpha   60.00029714
_cell_angle_beta   60.00026481
_cell_angle_gamma   60.00006691
_symmetry_Int_Tables_number   1
_chemical_formula_structural   Dy4CdRh
_chemical_formula_sum   'Dy16 Cd4 Rh4'
_cell_volume   618.82947500
_cell_formula_units_Z   4
loop_
 _symmetry_equiv_pos_site_id
 _symmetry_equiv_pos_as_xyz
  1  'x, y, z'
loop_
 _atom_site_type_symbol
 _atom_site_label
 _atom_site_symmetry_multiplicity
 _atom_site_fract_x
 _atom_site_fract_y
 _atom_site_fract_z
 _atom_site_occupancy
  Dy  Dy0  1  0.56335141  0.56337225  0.93663983  1
  Dy  Dy1  1  0.15079954  0.54760170  0.15080651  1
  Dy  Dy2  1  0.68961414  0.31037745  0.31038952  1
  Dy  Dy3  1  0.93664074  0.56336366  0.56335141  1
  Dy  Dy4  1  0.93663356  0.56336813  0.93664079  1
  Dy  Dy5  1  0.68960818  0.68963051  0.31038154  1
  Dy  Dy6  1  0.56335436  0.93663757  0.93664412  1
  Dy  Dy7  1  0.15080879  0.15078727  0.15081607  1
  Dy  Dy8  1  0.31038230  0.68962706  0.31037861  1
  Dy  Dy9  1  0.54759094  0.15078783  0.15081641  1
  Dy  Dy10  1  0.31039059  0.31037487  0.68960956  1
  Dy  Dy11  1  0.31038248  0.68963670  0.68960386  1
  Dy  Dy12  1  0.15081205  0.15079092  0.54758855  1
  Dy  Dy13  1  0.68962223  0.31037844  0.68961108  1
  Dy  Dy14  1  0.93664449  0.93664521  0.56335408  1
  Dy  Dy15  1  0.56334944  0.93664597  0.56335798  1
  Cd  Cd0  1  0.91940939  0.91941352  0.91942020  1
  Cd  Cd1  1  0.24175564  0.91941737  0.91941151  1
  Cd  Cd2  1  0.91940934  0.91941299  0.24176650  1
  Cd  Cd3  1  0.91941877  0.24174425  0.91941575  1
  Rh  Rh0  1  0.35777050  0.35776079  0.92670354  1
  Rh  Rh1  1  0.35777135  0.35775895  0.35776592  1
  Rh  Rh2  1  0.92671014  0.35776013  0.35776406  1
  Rh  Rh3  1  0.35776765  0.92670544  0.35776259  1
loop_
_geom_bond_atom_site_label_1
_geom_bond_atom_site_label_2
_geom_bond_distance
_geom_bond_site_symmetry_2
Dy0 Rh0 3.461936 1_555
Dy0 Rh1 3.461958 1_556
Dy1 Rh1 2.804464 1_555
Dy1 Rh2 2.804466 1_455
Dy1 Rh0 2.804560 1_554
Dy2 Rh1 2.795409 1_555
Dy2 Rh2 2.795509 1_555
Dy3 Rh2 3.461901 1_555
Dy3 Rh1 3.461949 1_655
Dy4 Rh2 3.461957 1_556
Dy4 Rh0 3.461999 1_655
Dy5 Rh3 2.795369 1_555
Dy5 Rh2 2.795644 1_555
Dy6 Rh0 3.461891 1_565
Dy6 Rh3 3.461894 1_556
Dy7 Rh3 2.804295 1_545
Dy7 Rh2 2.804408 1_455
Dy7 Rh0 2.804509 1_554
Dy8 Rh3 2.795428 1_555
Dy8 Rh1 2.795601 1_555
Dy9 Rh3 2.804300 1_545
Dy9 Rh1 2.804408 1_555
Dy9 Rh0 2.804494 1_554
Dy10 Rh1 2.795423 1_555
Dy10 Rh0 2.795558 1_555
Dy11 Rh3 2.795381 1_555
Dy11 Rh0 2.795685 1_555
Dy12 Rh3 2.804339 1_545
Dy12 Rh2 2.804439 1_455
Dy12 Rh1 2.804450 1_555
Dy13 Rh2 2.795472 1_555
Dy13 Rh0 2.795502 1_555
Dy14 Rh2 3.461846 1_565
Dy14 Rh3 3.461885 1_655
Dy15 Rh1 3.461806 1_565
Dy15 Rh3 3.461838 1_555
Cd0 Cd3 3.083186 1_565
Cd0 Cd1 3.083275 1_655
Cd0 Cd2 3.083320 1_556
Cd0 Dy4 3.249278 1_555
Cd0 Dy6 3.249342 1_555
Cd0 Dy14 3.249395 1_555
Cd0 Dy9 3.406076 1_566
Cd0 Dy1 3.406080 1_656
Cd0 Dy12 3.406183 1_665
Cd0 Dy5 3.469760 1_556
Cd0 Dy13 3.469809 1_565
Cd0 Dy11 3.469826 1_655
Cd1 Cd3 3.083170 1_465
Cd1 Cd2 3.083365 1_456
Cd1 Dy0 3.249253 1_555
Cd1 Dy6 3.249288 1_555
Cd1 Dy15 3.249306 1_555
Cd1 Dy1 3.406078 1_556
Cd1 Dy12 3.406090 1_565
Cd1 Dy7 3.406129 1_566
Cd1 Dy11 3.469760 1_555
Cd1 Dy10 3.469766 1_565
Cd1 Dy8 3.469820 1_556
Cd2 Cd3 3.083280 1_564
Cd2 Dy3 3.249250 1_555
Cd2 Dy14 3.249282 1_555
Cd2 Dy15 3.249324 1_555
Cd2 Dy1 3.406051 1_655
Cd2 Dy9 3.406054 1_565
Cd2 Dy7 3.406099 1_665
Cd2 Dy5 3.469761 1_555
Cd2 Dy2 3.469767 1_565
Cd2 Dy8 3.469781 1_655
Cd3 Dy4 3.249472 1_555
Cd3 Dy3 3.249480 1_555
Cd3 Dy0 3.249506 1_555
Cd3 Dy9 3.406166 1_556
Cd3 Dy12 3.406166 1_655
Cd3 Dy7 3.406211 1_656
Cd3 Dy13 3.469826 1_555
Cd3 Dy10 3.469853 1_655
Cd3 Dy2 3.469900 1_556
