# generated using pymatgen
data_Li9Mn15O32
_symmetry_space_group_name_H-M   'P 1'
_cell_length_a   5.87102200
_cell_length_b   8.43774456
_cell_length_c   11.79305866
_cell_angle_alpha   89.97562755
_cell_angle_beta   89.26563268
_cell_angle_gamma   89.93422124
_symmetry_Int_Tables_number   1
_chemical_formula_structural   Li9Mn15O32
_chemical_formula_sum   'Li9 Mn15 O32'
_cell_volume   584.15828902
_cell_formula_units_Z   1
loop_
 _symmetry_equiv_pos_site_id
 _symmetry_equiv_pos_as_xyz
  1  'x, y, z'
loop_
 _atom_site_type_symbol
 _atom_site_label
 _atom_site_symmetry_multiplicity
 _atom_site_fract_x
 _atom_site_fract_y
 _atom_site_fract_z
 _atom_site_occupancy
  Li  Li0  1  0.75591000  0.63027600  0.75598200  1
  Li  Li1  1  0.25385800  0.11751200  0.49661800  1
  Li  Li2  1  0.75227400  0.25462100  0.87229100  1
  Li  Li3  1  0.73597600  0.62376300  0.25356800  1
  Li  Li4  1  0.25276500  0.36702400  0.74488800  1
  Li  Li5  1  0.49981800  0.99717800  0.25275900  1
  Li  Li6  1  0.73891000  0.87727500  0.49287600  1
  Li  Li7  1  0.25927400  0.37567600  0.25162600  1
  Li  Li8  1  0.75563600  0.87718300  0.99859300  1
  Mn  Mn0  1  0.00120700  0.00860600  0.74912000  1
  Mn  Mn1  1  0.25798600  0.74892200  0.87488400  1
  Mn  Mn2  1  0.50938900  0.00603600  0.74967400  1
  Mn  Mn3  1  0.49422900  0.49734300  0.49876400  1
  Mn  Mn4  1  0.75542800  0.24641400  0.62466400  1
  Mn  Mn5  1  0.99540700  0.99895000  0.25027100  1
  Mn  Mn6  1  0.99523000  0.49857400  0.49774700  1
  Mn  Mn7  1  0.23513600  0.75195100  0.37200000  1
  Mn  Mn8  1  0.24556900  0.75696600  0.62208100  1
  Mn  Mn9  1  0.24911800  0.12949500  0.00632600  1
  Mn  Mn10  1  0.50483800  0.49785300  0.00314000  1
  Mn  Mn11  1  0.75179900  0.24971600  0.13037900  1
  Mn  Mn12  1  0.75158600  0.24213800  0.37486800  1
  Mn  Mn13  1  0.99873500  0.49878900  0.00112800  1
  Mn  Mn14  1  0.24907400  0.74753600  0.12756900  1
  O  O0  1  0.75222500  0.50064200  0.89775100  1
  O  O1  1  0.03295500  0.77177200  0.75103300  1
  O  O2  1  0.25700800  0.49139100  0.89552700  1
  O  O3  1  0.25233100  0.01163900  0.85714200  1
  O  O4  1  0.25670600  0.99116800  0.63957900  1
  O  O5  1  0.48868400  0.77455600  0.75833000  1
  O  O6  1  0.52531300  0.23127600  0.73658500  1
  O  O7  1  0.53919400  0.24468200  0.49892900  1
  O  O8  1  0.75353600  0.00731900  0.85536800  1
  O  O9  1  0.75858300  0.01241900  0.63657400  1
  O  O10  1  0.75579300  0.47760500  0.61477000  1
  O  O11  1  0.74792000  0.48016000  0.39014800  1
  O  O12  1  0.98282600  0.23168000  0.73663100  1
  O  O13  1  0.98012500  0.26518700  0.49715300  1
  O  O14  1  0.99702500  0.72559100  0.48996100  1
  O  O15  1  0.01345200  0.76484600  0.24692700  1
  O  O16  1  0.23332900  0.51577500  0.38464600  1
  O  O17  1  0.22193400  0.97464100  0.36436100  1
  O  O18  1  0.24310500  0.51359100  0.60680200  1
  O  O19  1  0.23857200  0.97436800  0.13431900  1
  O  O20  1  0.45276200  0.75125000  0.49237600  1
  O  O21  1  0.45186700  0.74503200  0.25039600  1
  O  O22  1  0.54172700  0.25147000  0.25497400  1
  O  O23  1  0.52276800  0.27093100  0.01630500  1
  O  O24  1  0.76451900  0.02005800  0.36380800  1
  O  O25  1  0.77093600  0.02649000  0.13205600  1
  O  O26  1  0.75112800  0.48932400  0.11423000  1
  O  O27  1  0.98251200  0.23262300  0.25125400  1
  O  O28  1  0.97944600  0.27379000  0.01090900  1
  O  O29  1  0.03072000  0.73219900  0.00027000  1
  O  O30  1  0.24599400  0.51453300  0.11361600  1
  O  O31  1  0.47584900  0.73219700  0.00545400  1
loop_
_geom_bond_atom_site_label_1
_geom_bond_atom_site_label_2
_geom_bond_distance
_geom_bond_site_symmetry_2
Li0 O5 1.984633 1_555
Li0 O0 1.997422 1_555
Li0 O1 2.019012 1_655
Li0 O10 2.105851 1_555
Li1 O17 1.982600 1_545
Li1 O7 1.990928 1_555
Li1 O4 1.994576 1_545
Li1 O13 2.032378 1_455
Li2 O12 2.091243 1_555
Li2 O8 2.096273 1_555
Li2 O0 2.097590 1_555
Li2 O6 2.105022 1_555
Li2 O28 2.129308 1_556
Li2 O23 2.158721 1_556
Li3 O21 1.956609 1_555
Li3 O26 1.998117 1_555
Li3 O11 2.017047 1_555
Li3 O15 2.019456 1_655
Li4 O12 1.957931 1_455
Li4 O6 1.968210 1_555
Li4 O18 2.045726 1_555
Li4 O2 2.064104 1_555
Li5 O24 2.054394 1_565
Li5 O17 2.091767 1_555
Li5 O19 2.096739 1_555
Li5 O25 2.136250 1_565
Li5 O21 2.146648 1_555
Li5 O22 2.160200 1_565
Li6 O24 1.945216 1_565
Li6 O14 1.982406 1_555
Li6 O20 1.989342 1_555
Li6 O9 2.047538 1_565
Li7 O22 1.961498 1_555
Li7 O16 1.968885 1_555
Li7 O30 2.007285 1_555
Li7 O27 2.025312 1_455
Li8 O8 2.014380 1_565
Li8 O25 2.019418 1_566
Li8 O29 2.025219 1_656
Li8 O31 2.050005 1_556
Mn0 O12 1.890999 1_455
Mn0 O8 1.907295 1_455
Mn0 O9 1.959602 1_455
Mn0 O3 1.960990 1_555
Mn0 O4 1.972450 1_545
Mn0 O1 2.006950 1_545
Mn1 O5 1.929585 1_555
Mn1 O29 1.984039 1_556
Mn1 O1 1.991126 1_555
Mn1 O31 2.019131 1_556
Mn1 O2 2.186478 1_555
Mn1 O3 2.226752 1_565
Mn2 O6 1.909011 1_555
Mn2 O8 1.911604 1_555
Mn2 O3 1.958826 1_555
Mn2 O5 1.959623 1_545
Mn2 O9 1.967853 1_555
Mn2 O4 1.988015 1_545
Mn3 O18 1.940973 1_555
Mn3 O11 1.957271 1_555
Mn3 O16 2.057605 1_555
Mn3 O10 2.076205 1_555
Mn3 O7 2.147874 1_555
Mn3 O20 2.157306 1_555
Mn4 O6 1.881010 1_555
Mn4 O12 1.893687 1_555
Mn4 O10 1.954169 1_555
Mn4 O7 1.964406 1_555
Mn4 O9 1.979402 1_555
Mn4 O13 1.994005 1_555
Mn5 O24 1.901352 1_565
Mn5 O17 1.914712 1_655
Mn5 O25 1.944343 1_565
Mn5 O27 1.973072 1_565
Mn5 O19 1.974974 1_655
Mn5 O15 1.978410 1_655
Mn6 O14 1.917706 1_555
Mn6 O16 1.925278 1_655
Mn6 O11 1.946898 1_555
Mn6 O18 1.958690 1_655
Mn6 O10 1.965352 1_555
Mn6 O13 1.971377 1_555
Mn7 O17 1.882676 1_555
Mn7 O21 1.905836 1_555
Mn7 O20 1.922045 1_555
Mn7 O14 1.972198 1_455
Mn7 O15 1.982454 1_555
Mn7 O16 1.998332 1_555
Mn8 O20 1.942680 1_555
Mn8 O1 1.958967 1_555
Mn8 O4 1.988206 1_555
Mn8 O18 2.061586 1_555
Mn8 O14 2.164847 1_455
Mn8 O5 2.168080 1_555
Mn9 O28 1.996348 1_455
Mn9 O19 1.997898 1_545
Mn9 O23 2.007138 1_555
Mn9 O3 2.021168 1_554
Mn10 O0 1.899616 1_554
Mn10 O23 1.923799 1_555
Mn10 O2 1.943759 1_554
Mn10 O26 1.964840 1_555
Mn10 O31 1.984620 1_555
Mn10 O30 1.993881 1_555
Mn11 O25 1.886854 1_555
Mn11 O22 1.906271 1_555
Mn11 O23 1.922371 1_555
Mn11 O28 1.940285 1_555
Mn11 O27 1.984039 1_555
Mn11 O26 2.030625 1_555
Mn12 O24 1.879823 1_555
Mn12 O22 1.888845 1_555
Mn12 O7 1.910263 1_555
Mn12 O27 1.979619 1_555
Mn12 O13 1.992051 1_555
Mn12 O11 2.016579 1_555
Mn13 O0 1.904275 1_554
Mn13 O28 1.905346 1_555
Mn13 O2 1.950770 1_654
Mn13 O26 1.961934 1_555
Mn13 O29 1.978610 1_655
Mn13 O30 1.983617 1_655
Mn14 O21 1.886869 1_555
Mn14 O19 1.916527 1_555
Mn14 O31 1.952923 1_555
Mn14 O15 1.966238 1_555
Mn14 O30 1.973086 1_555
Mn14 O29 1.990926 1_555
