# generated using pymatgen
data_Ca51W12N56O3
_symmetry_space_group_name_H-M   'P 1'
_cell_length_a   10.61206300
_cell_length_b   12.49080486
_cell_length_c   16.09527539
_cell_angle_alpha   102.82375582
_cell_angle_beta   95.08103629
_cell_angle_gamma   109.86654530
_symmetry_Int_Tables_number   1
_chemical_formula_structural   Ca51W12N56O3
_chemical_formula_sum   'Ca51 W12 N56 O3'
_cell_volume   1924.92470162
_cell_formula_units_Z   1
loop_
 _symmetry_equiv_pos_site_id
 _symmetry_equiv_pos_as_xyz
  1  'x, y, z'
loop_
 _atom_site_type_symbol
 _atom_site_label
 _atom_site_symmetry_multiplicity
 _atom_site_fract_x
 _atom_site_fract_y
 _atom_site_fract_z
 _atom_site_occupancy
  Ca  Ca0  1  0.47179800  0.52296400  0.40134700  1
  Ca  Ca1  1  0.93087600  0.17398200  0.16216200  1
  Ca  Ca2  1  0.40621700  0.76489300  0.37210700  1
  Ca  Ca3  1  0.54122700  0.39365900  0.02157700  1
  Ca  Ca4  1  0.43742300  0.67829300  0.78479300  1
  Ca  Ca5  1  0.45877300  0.60634100  0.97842300  1
  Ca  Ca6  1  0.28760600  0.13577300  0.71699700  1
  Ca  Ca7  1  0.69317500  0.95759500  0.87805800  1
  Ca  Ca8  1  0.36152000  0.90449400  0.74793900  1
  Ca  Ca9  1  0.76686000  0.72119700  0.90381100  1
  Ca  Ca10  1  0.63848000  0.09550600  0.25206100  1
  Ca  Ca11  1  0.30682500  0.04240500  0.12194200  1
  Ca  Ca12  1  0.35560400  0.85627200  0.94588700  1
  Ca  Ca13  1  0.52820200  0.47703600  0.59865300  1
  Ca  Ca14  1  0.08844200  0.69432600  0.25406700  1
  Ca  Ca15  1  0.75395400  0.77338600  0.70712800  1
  Ca  Ca16  1  0.01334900  0.94929700  0.20056100  1
  Ca  Ca17  1  0.23314000  0.27880300  0.09618900  1
  Ca  Ca18  1  0.03050800  0.88016000  0.41475700  1
  Ca  Ca19  1  0.89964700  0.36849100  0.33116300  1
  Ca  Ca20  1  0.64430000  0.03582900  0.45570800  1
  Ca  Ca21  1  0.64439600  0.14372800  0.05411300  1
  Ca  Ca22  1  0.21995800  0.32962600  0.90291300  1
  Ca  Ca23  1  0.67773800  0.02106900  0.67167500  1
  Ca  Ca24  1  0.39861500  0.80579300  0.16899300  1
  Ca  Ca25  1  0.51970400  0.43040700  0.82015800  1
  Ca  Ca26  1  0.26312400  0.19326500  0.50588500  1
  Ca  Ca27  1  0.60138500  0.19420700  0.83100700  1
  Ca  Ca28  1  0.85620800  0.41891100  0.14269000  1
  Ca  Ca29  1  0.48029600  0.56959300  0.17984200  1
  Ca  Ca30  1  0.24604600  0.22661400  0.29287200  1
  Ca  Ca31  1  0.88139100  0.34020300  0.54256300  1
  Ca  Ca32  1  0.15845500  0.51216800  0.06533200  1
  Ca  Ca33  1  0.35570000  0.96417100  0.54429200  1
  Ca  Ca34  1  0.91155800  0.30567400  0.74593300  1
  Ca  Ca35  1  0.84154500  0.48783200  0.93466800  1
  Ca  Ca36  1  0.14379200  0.58108900  0.85731000  1
  Ca  Ca37  1  0.11860900  0.65979700  0.45743700  1
  Ca  Ca38  1  0.73687600  0.80673500  0.49411500  1
  Ca  Ca39  1  0.59378300  0.23510700  0.62789300  1
  Ca  Ca40  1  0.18670100  0.45665600  0.51532700  1
  Ca  Ca41  1  0.96949200  0.11984000  0.58524300  1
  Ca  Ca42  1  0.98665100  0.05070300  0.79943900  1
  Ca  Ca43  1  0.06912400  0.82601800  0.83783800  1
  Ca  Ca44  1  0.71239400  0.86422700  0.28300300  1
  Ca  Ca45  1  0.56257700  0.32170700  0.21520700  1
  Ca  Ca46  1  0.32226200  0.97893100  0.32832500  1
  Ca  Ca47  1  0.00000000  0.00000000  0.00000000  1
  Ca  Ca48  1  0.81329900  0.54334400  0.48467300  1
  Ca  Ca49  1  0.78004200  0.67037400  0.09708700  1
  Ca  Ca50  1  0.10035300  0.63150900  0.66883700  1
  W  W0  1  0.90904200  0.25670400  0.92814600  1
  W  W1  1  0.96820700  0.09742900  0.38435500  1
  W  W2  1  0.22759500  0.48672300  0.26482900  1
  W  W3  1  0.37254700  0.11750100  0.94364300  1
  W  W4  1  0.47785600  0.75624600  0.59078400  1
  W  W5  1  0.77240500  0.51327700  0.73517100  1
  W  W6  1  0.22053100  0.37583000  0.71446300  1
  W  W7  1  0.09095800  0.74329600  0.07185400  1
  W  W8  1  0.77946900  0.62417000  0.28553700  1
  W  W9  1  0.03179300  0.90257100  0.61564500  1
  W  W10  1  0.62745300  0.88249900  0.05635700  1
  W  W11  1  0.52214400  0.24375400  0.40921600  1
  N  N0  1  0.55573000  0.79251200  0.93761800  1
  N  N1  1  0.14541100  0.01871200  0.56580300  1
  N  N2  1  0.49380000  0.04276800  0.90513700  1
  N  N3  1  0.05765100  0.38664400  0.19592500  1
  N  N4  1  0.98640800  0.60293500  0.09943800  1
  N  N5  1  0.76106300  0.46696700  0.61287100  1
  N  N6  1  0.23893700  0.53303300  0.38712900  1
  N  N7  1  0.09504900  0.43341800  0.66576600  1
  N  N8  1  0.80880600  0.14445900  0.81911800  1
  N  N9  1  0.64242700  0.58755700  0.75212700  1
  N  N10  1  0.78084800  0.30158200  0.99078600  1
  N  N11  1  0.70785300  0.37168200  0.77342400  1
  N  N12  1  0.53501800  0.87317000  0.52618200  1
  N  N13  1  0.34795900  0.33811300  0.64661600  1
  N  N14  1  0.65188800  0.54373000  0.95751300  1
  N  N15  1  0.44427000  0.20748800  0.06238200  1
  N  N16  1  0.86740500  0.88620400  0.84568000  1
  N  N17  1  0.55891200  0.83469200  0.71008600  1
  N  N18  1  0.43317100  0.35076400  0.44851600  1
  N  N19  1  0.04018100  0.20226900  0.97302300  1
  N  N20  1  0.61397500  0.76941100  0.12485900  1
  N  N21  1  0.67981900  0.51437700  0.17609000  1
  N  N22  1  0.12142100  0.05490800  0.36029000  1
  N  N23  1  0.56682900  0.64923600  0.55148400  1
  N  N24  1  0.29214700  0.62831800  0.22657600  1
  N  N25  1  0.52195500  0.91846100  0.31506800  1
  N  N26  1  0.21442500  0.99409900  0.95152800  1
  N  N27  1  0.44108800  0.16530800  0.28991400  1
  N  N28  1  0.50620000  0.95723200  0.09486300  1
  N  N29  1  0.78557500  0.00590100  0.04847200  1
  N  N30  1  0.65204100  0.66188700  0.35338400  1
  N  N31  1  0.95867400  0.75395000  0.52947000  1
  N  N32  1  0.21915200  0.69841800  0.00921400  1
  N  N33  1  0.35757300  0.41244300  0.24787300  1
  N  N34  1  0.88733900  0.76571600  0.26064700  1
  N  N35  1  0.01359200  0.39706500  0.90056200  1
  N  N36  1  0.74232600  0.25879000  0.19729900  1
  N  N37  1  0.87857900  0.94509200  0.63971000  1
  N  N38  1  0.32018100  0.48562300  0.82391000  1
  N  N39  1  0.38602500  0.23058900  0.87514100  1
  N  N40  1  0.47804500  0.08153900  0.68493200  1
  N  N41  1  0.46498200  0.12683000  0.47381800  1
  N  N42  1  0.90495100  0.56658200  0.33423400  1
  N  N43  1  0.25767400  0.74121000  0.80270100  1
  N  N44  1  0.19119400  0.85554100  0.18088200  1
  N  N45  1  0.34811200  0.45627000  0.04248700  1
  N  N46  1  0.94234900  0.61335600  0.80407500  1
  N  N47  1  0.11266100  0.23428400  0.73935300  1
  N  N48  1  0.71244100  0.30689900  0.41406400  1
  N  N49  1  0.13259500  0.11379600  0.15432000  1
  N  N50  1  0.95981900  0.79773100  0.02697700  1
  N  N51  1  0.28755900  0.69310100  0.58593600  1
  N  N52  1  0.13533700  0.92072500  0.72292800  1
  N  N53  1  0.86466300  0.07927500  0.27707200  1
  N  N54  1  0.85458900  0.98128800  0.43419700  1
  N  N55  1  0.04132600  0.24605000  0.47053000  1
  O  O0  1  0.78209300  0.17729700  0.60507000  1
  O  O1  1  0.00000000  0.50000000  0.50000000  1
  O  O2  1  0.21790700  0.82270300  0.39493000  1
loop_
_geom_bond_atom_site_label_1
_geom_bond_atom_site_label_2
_geom_bond_distance
_geom_bond_site_symmetry_2
Ca0 N18 2.356186 1_555
Ca0 N30 2.421985 1_555
Ca0 N23 2.477807 1_555
Ca0 N33 2.509093 1_555
Ca0 N6 2.509690 1_555
Ca1 N29 2.393405 1_555
Ca1 N53 2.439321 1_555
Ca1 N3 2.441748 1_655
Ca1 N49 2.502598 1_655
Ca1 N36 2.611651 1_555
Ca2 N25 2.326155 1_555
Ca2 O2 2.375463 1_555
Ca2 N24 2.486488 1_555
Ca2 N12 2.549817 1_555
Ca2 N6 2.913738 1_555
Ca3 N14 2.352111 1_554
Ca3 N45 2.453437 1_555
Ca3 N15 2.463548 1_555
Ca3 N21 2.608025 1_555
Ca3 N39 2.705150 1_554
Ca4 N43 2.314083 1_555
Ca4 N0 2.517913 1_555
Ca4 N38 2.551940 1_555
Ca4 N17 2.555363 1_555
Ca4 N9 2.812065 1_555
Ca5 N45 2.352111 1_556
Ca5 N14 2.453437 1_555
Ca5 N0 2.463548 1_555
Ca5 N38 2.608025 1_555
Ca5 N20 2.705150 1_556
Ca6 N40 2.401986 1_555
Ca6 N39 2.514479 1_555
Ca6 N47 2.562161 1_555
Ca6 N1 2.570487 1_555
Ca6 N52 2.650766 1_545
Ca6 N13 2.894890 1_555
Ca7 N16 2.360153 1_555
Ca7 N0 2.525735 1_555
Ca7 N8 2.663850 1_565
Ca7 N29 2.689919 1_566
Ca7 N2 2.699204 1_565
Ca7 N17 2.772126 1_555
Ca8 N43 2.365062 1_555
Ca8 N52 2.481988 1_555
Ca8 N17 2.598241 1_555
Ca8 N40 2.609029 1_565
Ca8 N2 2.671786 1_565
Ca8 N51 3.091881 1_555
Ca9 N16 2.408336 1_555
Ca9 N50 2.479126 1_556
Ca9 N14 2.519648 1_555
Ca9 N9 2.571443 1_555
Ca9 N0 2.732542 1_555
Ca9 N46 3.022279 1_555
Ca10 N36 2.365062 1_555
Ca10 N53 2.481988 1_555
Ca10 N27 2.598241 1_555
Ca10 N25 2.609029 1_545
Ca10 N28 2.671786 1_545
Ca10 N48 3.091881 1_555
Ca11 N49 2.360153 1_555
Ca11 N15 2.525735 1_555
Ca11 N44 2.663850 1_545
Ca11 N26 2.689919 1_544
Ca11 N28 2.699204 1_545
Ca11 N27 2.772126 1_555
Ca12 N43 2.355244 1_555
Ca12 N32 2.497287 1_556
Ca12 N0 2.512943 1_555
Ca12 N28 2.550101 1_556
Ca12 N2 2.556193 1_565
Ca12 N26 2.631422 1_555
Ca13 N23 2.356186 1_555
Ca13 N13 2.421985 1_555
Ca13 N18 2.477807 1_555
Ca13 N9 2.509093 1_555
Ca13 N5 2.509690 1_555
Ca14 O2 2.436447 1_555
Ca14 N4 2.468009 1_455
Ca14 N44 2.533695 1_555
Ca14 N34 2.579218 1_455
Ca14 N24 2.601445 1_555
Ca14 N42 2.692550 1_455
Ca15 N16 2.320493 1_555
Ca15 N17 2.439515 1_555
Ca15 N9 2.518738 1_555
Ca15 N37 2.624105 1_555
Ca15 N23 2.815173 1_555
Ca16 N49 2.335728 1_565
Ca16 N44 2.545013 1_555
Ca16 N22 2.570787 1_565
Ca16 N34 2.666656 1_455
Ca16 N53 2.799960 1_465
Ca16 N50 2.890084 1_455
Ca17 N49 2.408336 1_555
Ca17 N19 2.479126 1_554
Ca17 N45 2.519648 1_555
Ca17 N33 2.571443 1_555
Ca17 N15 2.732542 1_555
Ca17 N3 3.022279 1_555
Ca18 O2 2.356393 1_555
Ca18 N22 2.455944 1_565
Ca18 N1 2.562277 1_565
Ca18 N54 2.590261 1_455
Ca18 N34 2.605137 1_455
Ca18 N31 2.683264 1_455
Ca19 N36 2.409257 1_555
Ca19 N42 2.445079 1_555
Ca19 N48 2.491073 1_555
Ca19 O1 2.744815 1_655
Ca19 N3 2.864971 1_655
Ca20 N25 2.381512 1_545
Ca20 N12 2.532612 1_545
Ca20 N41 2.533662 1_555
Ca20 N54 2.574776 1_545
Ca20 O0 2.602969 1_555
Ca21 N36 2.355244 1_555
Ca21 N10 2.497287 1_554
Ca21 N15 2.512943 1_555
Ca21 N2 2.550101 1_554
Ca21 N28 2.556193 1_545
Ca21 N29 2.631422 1_555
Ca22 N45 2.412002 1_556
Ca22 N39 2.492315 1_555
Ca22 N38 2.544747 1_555
Ca22 N19 2.561091 1_555
Ca22 N35 2.600050 1_555
Ca22 N47 2.607829 1_555
Ca23 O0 2.419460 1_555
Ca23 N17 2.484686 1_545
Ca23 N40 2.490641 1_555
Ca23 N8 2.505298 1_555
Ca23 N12 2.596191 1_545
Ca23 N37 2.657093 1_545
Ca24 N25 2.440423 1_555
Ca24 N28 2.465874 1_555
Ca24 N44 2.493858 1_555
Ca24 N24 2.538694 1_555
Ca24 N20 2.604683 1_555
Ca24 N32 2.811537 1_555
Ca25 N14 2.360267 1_555
Ca25 N38 2.441143 1_555
Ca25 N11 2.471231 1_555
Ca25 N9 2.493469 1_555
Ca25 N39 2.796688 1_555
Ca25 N13 2.948488 1_555
Ca26 N13 2.434579 1_555
Ca26 N1 2.557324 1_555
Ca26 N22 2.559532 1_555
Ca26 N18 2.582229 1_555
Ca26 N41 2.599538 1_555
Ca26 N55 2.698639 1_555
Ca27 N40 2.440423 1_555
Ca27 N2 2.465874 1_555
Ca27 N8 2.493858 1_555
Ca27 N11 2.538694 1_555
Ca27 N39 2.604683 1_555
Ca27 N10 2.811537 1_555
Ca28 N36 2.357740 1_555
Ca28 N3 2.425061 1_655
Ca28 N10 2.455926 1_554
Ca28 N4 2.529708 1_555
Ca28 N21 2.574003 1_555
Ca29 N45 2.360267 1_555
Ca29 N21 2.441143 1_555
Ca29 N24 2.471231 1_555
Ca29 N33 2.493469 1_555
Ca29 N20 2.796688 1_555
Ca29 N30 2.948488 1_555
Ca30 N49 2.320493 1_555
Ca30 N27 2.439515 1_555
Ca30 N33 2.518738 1_555
Ca30 N22 2.624105 1_555
Ca30 N18 2.815173 1_555
Ca31 O1 2.256055 1_655
Ca31 O0 2.429464 1_555
Ca31 N48 2.473757 1_555
Ca31 N5 2.500596 1_555
Ca31 N55 2.589944 1_655
Ca31 N7 2.610212 1_655
Ca32 N45 2.376065 1_555
Ca32 N4 2.495661 1_455
Ca32 N32 2.580752 1_555
Ca32 N24 2.670305 1_555
Ca32 N35 2.747115 1_554
Ca32 N3 2.956689 1_555
Ca33 N40 2.381512 1_565
Ca33 N41 2.532612 1_565
Ca33 N12 2.533662 1_555
Ca33 N1 2.574776 1_565
Ca33 O2 2.602969 1_555
Ca34 O0 2.436447 1_555
Ca34 N35 2.468009 1_655
Ca34 N8 2.533695 1_555
Ca34 N47 2.579218 1_655
Ca34 N11 2.601445 1_555
Ca34 N7 2.692550 1_655
Ca35 N14 2.376065 1_555
Ca35 N35 2.495661 1_655
Ca35 N10 2.580752 1_555
Ca35 N11 2.670305 1_555
Ca35 N4 2.747115 1_556
Ca35 N46 2.956689 1_555
Ca36 N43 2.357740 1_555
Ca36 N46 2.425061 1_455
Ca36 N32 2.455926 1_556
Ca36 N35 2.529708 1_555
Ca36 N38 2.574003 1_555
Ca37 O1 2.256055 1_555
Ca37 O2 2.429464 1_555
Ca37 N51 2.473757 1_555
Ca37 N6 2.500596 1_555
Ca37 N31 2.589944 1_455
Ca37 N42 2.610212 1_455
Ca38 N30 2.434579 1_555
Ca38 N54 2.557324 1_555
Ca38 N37 2.559532 1_555
Ca38 N23 2.582229 1_555
Ca38 N12 2.599538 1_555
Ca38 N31 2.698639 1_555
Ca39 N40 2.326155 1_555
Ca39 O0 2.375463 1_555
Ca39 N11 2.486488 1_555
Ca39 N41 2.549817 1_555
Ca39 N5 2.913738 1_555
Ca40 O1 2.231864 1_555
Ca40 N55 2.454145 1_555
Ca40 N6 2.488364 1_555
Ca40 N51 2.702924 1_555
Ca40 N7 2.725888 1_555
Ca41 O0 2.356393 1_555
Ca41 N37 2.455944 1_545
Ca41 N54 2.562277 1_545
Ca41 N1 2.590261 1_655
Ca41 N47 2.605137 1_655
Ca41 N55 2.683264 1_655
Ca42 N16 2.335728 1_545
Ca42 N8 2.545013 1_555
Ca42 N37 2.570787 1_545
Ca42 N47 2.666656 1_655
Ca42 N52 2.799960 1_645
Ca42 N19 2.890084 1_655
Ca43 N26 2.393405 1_555
Ca43 N52 2.439321 1_555
Ca43 N46 2.441748 1_455
Ca43 N16 2.502598 1_455
Ca43 N43 2.611651 1_555
Ca44 N25 2.401986 1_555
Ca44 N20 2.514479 1_555
Ca44 N34 2.562161 1_555
Ca44 N54 2.570487 1_555
Ca44 N53 2.650766 1_565
Ca44 N30 2.894890 1_555
Ca45 N36 2.314083 1_555
Ca45 N15 2.517913 1_555
Ca45 N21 2.551940 1_555
Ca45 N27 2.555363 1_555
Ca45 N33 2.812065 1_555
Ca46 O2 2.419460 1_555
Ca46 N27 2.484686 1_565
Ca46 N25 2.490641 1_555
Ca46 N44 2.505298 1_555
Ca46 N41 2.596191 1_565
Ca46 N22 2.657093 1_565
Ca47 N29 2.488952 1_455
Ca47 N26 2.488952 1_544
Ca47 N19 2.557563 1_554
Ca47 N50 2.557563 1_445
Ca47 N49 2.573726 1_555
Ca47 N16 2.573726 1_444
Ca48 O1 2.231864 1_655
Ca48 N31 2.454145 1_555
Ca48 N5 2.488364 1_555
Ca48 N48 2.702924 1_555
Ca48 N42 2.725888 1_555
Ca49 N14 2.412002 1_554
Ca49 N20 2.492315 1_555
Ca49 N21 2.544747 1_555
Ca49 N50 2.561091 1_555
Ca49 N4 2.600050 1_555
Ca49 N34 2.607829 1_555
Ca50 N43 2.409257 1_555
Ca50 N7 2.445079 1_555
Ca50 N51 2.491073 1_555
Ca50 O1 2.744815 1_555
Ca50 N46 2.864971 1_455
N0 W10 1.924181 1_556
N1 W9 1.923787 1_545
N2 W3 1.900528 1_555
N3 W2 1.882319 1_555
N4 W7 1.900679 1_655
N5 W5 1.905034 1_555
N6 W2 1.905034 1_555
N7 W6 1.902996 1_555
N8 W0 1.933962 1_555
N9 W5 1.913629 1_555
N10 W0 1.921400 1_555
N11 W5 1.926409 1_555
N12 W4 1.940570 1_555
N13 W6 1.925950 1_555
N15 W3 1.924181 1_554
N17 W4 1.920038 1_555
N18 W11 1.914796 1_555
N19 W0 1.898376 1_455
N20 W10 1.952789 1_555
N21 W8 1.927214 1_555
N22 W1 1.919083 1_455
N23 W4 1.914796 1_555
N24 W2 1.926409 1_555
N26 W3 1.890588 1_565
N27 W11 1.920038 1_555
N28 W10 1.900528 1_555
N29 W10 1.890588 1_545
N30 W8 1.925950 1_555
N31 W9 1.912969 1_655
N32 W7 1.921400 1_555
N33 W2 1.913629 1_555
N34 W8 1.901806 1_555
N35 W0 1.900679 1_455
N37 W9 1.919083 1_655
N38 W6 1.927214 1_555
N39 W3 1.952789 1_555
N41 W11 1.940570 1_555
N42 W8 1.902996 1_555
N44 W7 1.933962 1_555
N46 W5 1.882319 1_555
N47 W6 1.901806 1_555
N48 W11 1.889059 1_555
N50 W7 1.898376 1_655
N51 W4 1.889059 1_555
N52 W9 1.887124 1_555
N53 W1 1.887124 1_555
N54 W1 1.923787 1_565
N55 W1 1.912969 1_455
