# generated using pymatgen
data_Na4Cu(AsO4)2
_symmetry_space_group_name_H-M   'P 1'
_cell_length_a   4.84640873
_cell_length_b   5.83359608
_cell_length_c   6.93117476
_cell_angle_alpha   98.00557240
_cell_angle_beta   90.81137203
_cell_angle_gamma   105.89480696
_symmetry_Int_Tables_number   1
_chemical_formula_structural   Na4Cu(AsO4)2
_chemical_formula_sum   'Na4 Cu1 As2 O8'
_cell_volume   186.34754714
_cell_formula_units_Z   1
loop_
 _symmetry_equiv_pos_site_id
 _symmetry_equiv_pos_as_xyz
  1  'x, y, z'
loop_
 _atom_site_type_symbol
 _atom_site_label
 _atom_site_symmetry_multiplicity
 _atom_site_fract_x
 _atom_site_fract_y
 _atom_site_fract_z
 _atom_site_occupancy
  Na  Na0  1  0.28747935  0.57128072  0.16860626  1
  Na  Na1  1  0.71252065  0.42871928  0.83139374  1
  Na  Na2  1  0.16284208  0.26033364  0.57617055  1
  Na  Na3  1  0.83715792  0.73966636  0.42382945  1
  Cu  Cu0  1  0.00000000  -0.00000000  0.00000000  1
  As  As0  1  0.40025049  0.80389740  0.73357388  1
  As  As1  1  0.59974951  0.19610260  0.26642612  1
  O  O0  1  0.68622833  0.27409097  0.50778518  1
  O  O1  1  0.23275652  0.14804143  0.23997733  1
  O  O2  1  0.23463140  0.56634284  0.84486106  1
  O  O3  1  0.76724348  0.85195857  0.76002267  1
  O  O4  1  0.76536860  0.43365716  0.15513894  1
  O  O5  1  0.67813615  0.93632889  0.16729602  1
  O  O6  1  0.32186385  0.06367111  0.83270398  1
  O  O7  1  0.31377167  0.72590903  0.49221482  1
loop_
_geom_bond_atom_site_label_1
_geom_bond_atom_site_label_2
_geom_bond_distance
_geom_bond_site_symmetry_2
Na0 O2 2.250189 1_554
Na0 O7 2.286109 1_555
Na0 O4 2.432222 1_455
Na0 O5 2.432493 1_555
Na0 O1 2.529090 1_555
Na0 O4 2.649730 1_555
Na1 O4 2.250189 1_556
Na1 O0 2.286109 1_555
Na1 O2 2.432222 1_655
Na1 O6 2.432493 1_555
Na1 O3 2.529090 1_555
Na1 O2 2.649730 1_555
Na2 O2 2.343397 1_555
Na2 O0 2.376492 1_455
Na2 O1 2.385913 1_555
Na2 O6 2.466856 1_555
Na2 O0 2.568716 1_555
Na2 O7 2.759403 1_555
Na3 O4 2.343397 1_555
Na3 O7 2.376492 1_655
Na3 O3 2.385913 1_555
Na3 O5 2.466856 1_555
Na3 O7 2.568716 1_555
Na3 O0 2.759403 1_555
Cu0 O5 1.941548 1_445
Cu0 O6 1.941548 1_554
Cu0 O3 1.948867 1_444
Cu0 O1 1.948867 1_555
As0 O7 1.686696 1_555
As0 O2 1.692833 1_555
As0 O6 1.716274 1_565
As0 O3 1.725959 1_555
As1 O0 1.686696 1_555
As1 O4 1.692833 1_555
As1 O5 1.716274 1_545
As1 O1 1.725959 1_555
