# generated using pymatgen
data_Sr7GeN6
_symmetry_space_group_name_H-M   'P 1'
_cell_length_a   6.62644600
_cell_length_b   11.67779500
_cell_length_c   13.93855100
_cell_angle_alpha   90.00000000
_cell_angle_beta   90.00000000
_cell_angle_gamma   90.00000000
_symmetry_Int_Tables_number   1
_chemical_formula_structural   Sr7GeN6
_chemical_formula_sum   'Sr28 Ge4 N24'
_cell_volume   1078.59682793
_cell_formula_units_Z   4
loop_
 _symmetry_equiv_pos_site_id
 _symmetry_equiv_pos_as_xyz
  1  'x, y, z'
loop_
 _atom_site_type_symbol
 _atom_site_label
 _atom_site_symmetry_multiplicity
 _atom_site_fract_x
 _atom_site_fract_y
 _atom_site_fract_z
 _atom_site_occupancy
  Sr  Sr0  1  0.64512200  0.72414200  0.37435300  1
  Sr  Sr1  1  0.73610000  0.96211800  0.52022100  1
  Sr  Sr2  1  0.14512200  0.77585800  0.37435300  1
  Sr  Sr3  1  0.94093800  0.50000000  0.75000000  1
  Sr  Sr4  1  0.61075900  0.29427400  0.87697000  1
  Sr  Sr5  1  0.23610000  0.46211800  0.97977900  1
  Sr  Sr6  1  0.05906200  0.50000000  0.25000000  1
  Sr  Sr7  1  0.73610000  0.03788200  0.97977900  1
  Sr  Sr8  1  0.61075900  0.70572600  0.62303000  1
  Sr  Sr9  1  0.55906200  0.00000000  0.25000000  1
  Sr  Sr10  1  0.35487800  0.27585800  0.62564700  1
  Sr  Sr11  1  0.85487800  0.77585800  0.87435300  1
  Sr  Sr12  1  0.88924100  0.20572600  0.37697000  1
  Sr  Sr13  1  0.11075900  0.79427400  0.62303000  1
  Sr  Sr14  1  0.23610000  0.53788200  0.52022100  1
  Sr  Sr15  1  0.64512200  0.27585800  0.12564700  1
  Sr  Sr16  1  0.26390000  0.96211800  0.02022100  1
  Sr  Sr17  1  0.14512200  0.22414200  0.12564700  1
  Sr  Sr18  1  0.26390000  0.03788200  0.47977900  1
  Sr  Sr19  1  0.44093800  0.00000000  0.75000000  1
  Sr  Sr20  1  0.88924100  0.79427400  0.12303000  1
  Sr  Sr21  1  0.85487800  0.22414200  0.62564700  1
  Sr  Sr22  1  0.35487800  0.72414200  0.87435300  1
  Sr  Sr23  1  0.38924100  0.70572600  0.12303000  1
  Sr  Sr24  1  0.76390000  0.53788200  0.02022100  1
  Sr  Sr25  1  0.38924100  0.29427400  0.37697000  1
  Sr  Sr26  1  0.11075900  0.20572600  0.87697000  1
  Sr  Sr27  1  0.76390000  0.46211800  0.47977900  1
  Ge  Ge0  1  0.56976800  0.50000000  0.25000000  1
  Ge  Ge1  1  0.93023200  0.00000000  0.75000000  1
  Ge  Ge2  1  0.43023200  0.50000000  0.75000000  1
  Ge  Ge3  1  0.06976800  0.00000000  0.25000000  1
  N  N0  1  0.90182900  0.04550500  0.14391400  1
  N  N1  1  0.74058900  0.62628600  0.20844700  1
  N  N2  1  0.40182900  0.54550500  0.35608600  1
  N  N3  1  0.24058900  0.87371400  0.20844700  1
  N  N4  1  0.59350500  0.83398600  0.99733100  1
  N  N5  1  0.59350500  0.16601400  0.50266900  1
  N  N6  1  0.90182900  0.95449500  0.35608600  1
  N  N7  1  0.90649500  0.33398600  0.00266900  1
  N  N8  1  0.40649500  0.83398600  0.49733100  1
  N  N9  1  0.75941100  0.12628600  0.79155300  1
  N  N10  1  0.74058900  0.37371400  0.29155300  1
  N  N11  1  0.40649500  0.16601400  0.00266900  1
  N  N12  1  0.59817100  0.54550500  0.85608600  1
  N  N13  1  0.59817100  0.45449500  0.64391400  1
  N  N14  1  0.25941100  0.62628600  0.70844700  1
  N  N15  1  0.75941100  0.87371400  0.70844700  1
  N  N16  1  0.09350500  0.66601400  0.99733100  1
  N  N17  1  0.09817100  0.04550500  0.64391400  1
  N  N18  1  0.24058900  0.12628600  0.29155300  1
  N  N19  1  0.09817100  0.95449500  0.85608600  1
  N  N20  1  0.90649500  0.66601400  0.49733100  1
  N  N21  1  0.09350500  0.33398600  0.50266900  1
  N  N22  1  0.40182900  0.45449500  0.14391400  1
  N  N23  1  0.25941100  0.37371400  0.79155300  1
loop_
_geom_bond_atom_site_label_1
_geom_bond_atom_site_label_2
_geom_bond_distance
_geom_bond_site_symmetry_2
Ge0 N2 1.925436 1_555
Ge0 N22 1.925436 1_555
Ge0 N10 1.947204 1_555
Ge0 N1 1.947204 1_555
Ge1 N17 1.925436 1_655
Ge1 N19 1.925436 1_645
Ge1 N9 1.947204 1_555
Ge1 N15 1.947204 1_545
Ge2 N13 1.925436 1_555
Ge2 N12 1.925436 1_555
Ge2 N23 1.947204 1_555
Ge2 N14 1.947204 1_555
Ge3 N6 1.925436 1_445
Ge3 N0 1.925436 1_455
Ge3 N18 1.947204 1_555
Ge3 N3 1.947204 1_545
N0 Sr7 2.539292 1_554
N0 Sr17 2.648711 1_655
N0 Sr9 2.761851 1_555
N0 Sr20 2.949410 1_545
N0 Sr16 3.110810 1_645
N0 Sr15 3.192898 1_555
N1 Sr20 2.497234 1_555
N1 Sr6 2.638916 1_655
N1 Sr0 2.655872 1_555
N1 Sr23 2.774628 1_555
N1 Sr24 2.823633 1_555
N2 Sr14 2.539292 1_555
N2 Sr0 2.648711 1_555
N2 Sr6 2.761851 1_555
N2 Sr25 2.949410 1_555
N2 Sr27 3.110810 1_555
N2 Sr2 3.192898 1_555
N3 Sr23 2.497234 1_555
N3 Sr9 2.638916 1_565
N3 Sr2 2.655872 1_555
N3 Sr20 2.774628 1_455
N3 Sr16 2.823633 1_555
N4 Sr11 2.529579 1_555
N4 Sr7 2.573346 1_565
N4 Sr22 2.661582 1_555
N4 Sr16 2.666654 1_556
N4 Sr20 2.669293 1_556
N4 Sr23 2.673049 1_556
N5 Sr21 2.529579 1_555
N5 Sr1 2.573346 1_545
N5 Sr10 2.661582 1_555
N5 Sr18 2.666654 1_555
N5 Sr12 2.669293 1_555
N5 Sr25 2.673049 1_555
N6 Sr1 2.539292 1_555
N6 Sr2 2.648711 1_655
N6 Sr9 2.761851 1_565
N6 Sr12 2.949410 1_565
N6 Sr18 3.110810 1_665
N6 Sr0 3.192898 1_555
N7 Sr15 2.529579 1_555
N7 Sr24 2.573346 1_555
N7 Sr17 2.661582 1_655
N7 Sr5 2.666654 1_654
N7 Sr4 2.669293 1_554
N7 Sr26 2.673049 1_654
N8 Sr2 2.529579 1_555
N8 Sr18 2.573346 1_565
N8 Sr0 2.661582 1_555
N8 Sr1 2.666654 1_555
N8 Sr13 2.669293 1_555
N8 Sr8 2.673049 1_555
N9 Sr4 2.497234 1_555
N9 Sr19 2.638916 1_555
N9 Sr21 2.655872 1_555
N9 Sr26 2.774628 1_655
N9 Sr7 2.823633 1_555
N10 Sr12 2.497234 1_555
N10 Sr6 2.638916 1_655
N10 Sr15 2.655872 1_555
N10 Sr25 2.774628 1_555
N10 Sr27 2.823633 1_555
N11 Sr17 2.529579 1_555
N11 Sr16 2.573346 1_545
N11 Sr15 2.661582 1_555
N11 Sr7 2.666654 1_554
N11 Sr26 2.669293 1_554
N11 Sr4 2.673049 1_554
N12 Sr24 2.539292 1_556
N12 Sr22 2.648711 1_555
N12 Sr3 2.761851 1_555
N12 Sr4 2.949410 1_555
N12 Sr5 3.110810 1_555
N12 Sr11 3.192898 1_555
N13 Sr27 2.539292 1_555
N13 Sr10 2.648711 1_555
N13 Sr3 2.761851 1_555
N13 Sr8 2.949410 1_555
N13 Sr14 3.110810 1_555
N13 Sr21 3.192898 1_555
N14 Sr13 2.497234 1_555
N14 Sr3 2.638916 1_455
N14 Sr22 2.655872 1_555
N14 Sr8 2.774628 1_555
N14 Sr14 2.823633 1_555
N15 Sr8 2.497234 1_555
N15 Sr19 2.638916 1_565
N15 Sr11 2.655872 1_555
N15 Sr13 2.774628 1_655
N15 Sr1 2.823633 1_555
N16 Sr22 2.529579 1_555
N16 Sr5 2.573346 1_555
N16 Sr11 2.661582 1_455
N16 Sr24 2.666654 1_456
N16 Sr23 2.669293 1_556
N16 Sr20 2.673049 1_456
N17 Sr18 2.539292 1_555
N17 Sr21 2.648711 1_455
N17 Sr19 2.761851 1_555
N17 Sr13 2.949410 1_545
N17 Sr1 3.110810 1_445
N17 Sr10 3.192898 1_555
N18 Sr25 2.497234 1_555
N18 Sr9 2.638916 1_555
N18 Sr17 2.655872 1_555
N18 Sr12 2.774628 1_455
N18 Sr18 2.823633 1_555
N19 Sr16 2.539292 1_556
N19 Sr11 2.648711 1_455
N19 Sr19 2.761851 1_565
N19 Sr26 2.949410 1_565
N19 Sr7 3.110810 1_465
N19 Sr22 3.192898 1_555
N20 Sr0 2.529579 1_555
N20 Sr27 2.573346 1_555
N20 Sr2 2.661582 1_655
N20 Sr14 2.666654 1_655
N20 Sr8 2.669293 1_555
N20 Sr13 2.673049 1_655
N21 Sr10 2.529579 1_555
N21 Sr14 2.573346 1_555
N21 Sr21 2.661582 1_455
N21 Sr27 2.666654 1_455
N21 Sr25 2.669293 1_555
N21 Sr12 2.673049 1_455
N22 Sr5 2.539292 1_554
N22 Sr15 2.648711 1_555
N22 Sr6 2.761851 1_555
N22 Sr23 2.949410 1_555
N22 Sr24 3.110810 1_555
N22 Sr17 3.192898 1_555
N23 Sr26 2.497234 1_555
N23 Sr3 2.638916 1_455
N23 Sr10 2.655872 1_555
N23 Sr4 2.774628 1_555
N23 Sr5 2.823633 1_555
