# generated using pymatgen
data_DyGa3
_symmetry_space_group_name_H-M   'P 1'
_cell_length_a   4.24020432
_cell_length_b   4.24020432
_cell_length_c   4.24020432
_cell_angle_alpha   90.00000000
_cell_angle_beta   90.00000000
_cell_angle_gamma   90.00000000
_symmetry_Int_Tables_number   1
_chemical_formula_structural   DyGa3
_chemical_formula_sum   'Dy1 Ga3'
_cell_volume   76.23604408
_cell_formula_units_Z   1
loop_
 _symmetry_equiv_pos_site_id
 _symmetry_equiv_pos_as_xyz
  1  'x, y, z'
loop_
 _atom_site_type_symbol
 _atom_site_label
 _atom_site_symmetry_multiplicity
 _atom_site_fract_x
 _atom_site_fract_y
 _atom_site_fract_z
 _atom_site_occupancy
  Dy  Dy0  1  -0.00000000  0.00000000  0.00000000  1
  Ga  Ga0  1  0.50000000  0.50000000  0.00000000  1
  Ga  Ga1  1  0.50000000  0.00000000  0.50000000  1
  Ga  Ga2  1  -0.00000000  0.50000000  0.50000000  1
loop_
_geom_bond_atom_site_label_1
_geom_bond_atom_site_label_2
_geom_bond_distance
_geom_bond_site_symmetry_2
Dy0 Ga2 2.998277 1_544
Dy0 Ga1 2.998277 1_554
Dy0 Ga2 2.998277 1_555
Dy0 Ga2 2.998277 1_545
Dy0 Ga1 2.998277 1_455
Dy0 Ga0 2.998277 1_555
Dy0 Ga1 2.998277 1_454
Dy0 Ga2 2.998277 1_554
Dy0 Ga0 2.998277 1_445
Dy0 Ga0 2.998277 1_545
Dy0 Ga0 2.998277 1_455
Dy0 Ga1 2.998277 1_555
Ga0 Ga1 2.998277 1_554
Ga0 Ga2 2.998277 1_555
Ga0 Ga1 2.998277 1_564
Ga0 Ga2 2.998277 1_554
Ga0 Ga2 2.998277 1_655
Ga0 Ga2 2.998277 1_654
Ga0 Ga1 2.998277 1_565
Ga0 Ga1 2.998277 1_555
Ga1 Ga2 2.998277 1_555
Ga1 Ga2 2.998277 1_545
Ga1 Ga2 2.998277 1_645
Ga1 Ga2 2.998277 1_655
