# generated using pymatgen
data_ZnCoTeBr2O3
_symmetry_space_group_name_H-M   'P 1'
_cell_length_a   7.80623900
_cell_length_b   10.79540300
_cell_length_c   16.43975300
_cell_angle_alpha   90.00000000
_cell_angle_beta   90.00000000
_cell_angle_gamma   90.00000000
_symmetry_Int_Tables_number   1
_chemical_formula_structural   ZnCoTeBr2O3
_chemical_formula_sum   'Zn8 Co8 Te8 Br16 O24'
_cell_volume   1385.40257785
_cell_formula_units_Z   8
loop_
 _symmetry_equiv_pos_site_id
 _symmetry_equiv_pos_as_xyz
  1  'x, y, z'
loop_
 _atom_site_type_symbol
 _atom_site_label
 _atom_site_symmetry_multiplicity
 _atom_site_fract_x
 _atom_site_fract_y
 _atom_site_fract_z
 _atom_site_occupancy
  Zn  Zn0  1  0.34356600  0.99699100  0.60226800  1
  Zn  Zn1  1  0.65643400  0.49699100  0.10226800  1
  Zn  Zn2  1  0.15643400  0.00300900  0.10226800  1
  Zn  Zn3  1  0.84356600  0.50300900  0.60226800  1
  Zn  Zn4  1  0.84356600  0.99699100  0.89773200  1
  Zn  Zn5  1  0.34356600  0.50300900  0.89773200  1
  Zn  Zn6  1  0.15643400  0.49699100  0.39773200  1
  Zn  Zn7  1  0.65643400  0.00300900  0.39773200  1
  Co  Co0  1  0.60752300  0.77116200  0.96502400  1
  Co  Co1  1  0.39247700  0.27116200  0.46502400  1
  Co  Co2  1  0.89247700  0.27116200  0.03497600  1
  Co  Co3  1  0.60752300  0.72883800  0.53497600  1
  Co  Co4  1  0.10752300  0.72883800  0.96502400  1
  Co  Co5  1  0.89247700  0.22883800  0.46502400  1
  Co  Co6  1  0.10752300  0.77116200  0.53497600  1
  Co  Co7  1  0.39247700  0.22883800  0.03497600  1
  Te  Te0  1  0.78689800  0.97100600  0.59595300  1
  Te  Te1  1  0.28689800  0.52899400  0.59595300  1
  Te  Te2  1  0.28689800  0.97100600  0.90404700  1
  Te  Te3  1  0.21310200  0.02899400  0.40404700  1
  Te  Te4  1  0.78689800  0.52899400  0.90404700  1
  Te  Te5  1  0.71310200  0.47100600  0.40404700  1
  Te  Te6  1  0.21310200  0.47100600  0.09595300  1
  Te  Te7  1  0.71310200  0.02899400  0.09595300  1
  Br  Br0  1  0.65709400  0.90825400  0.79815000  1
  Br  Br1  1  0.15709400  0.90825400  0.70185000  1
  Br  Br2  1  0.43936900  0.29188000  0.88247000  1
  Br  Br3  1  0.43936900  0.20812000  0.61753000  1
  Br  Br4  1  0.15709400  0.59174600  0.79815000  1
  Br  Br5  1  0.34290600  0.40825400  0.29815000  1
  Br  Br6  1  0.06063100  0.79188000  0.11753000  1
  Br  Br7  1  0.56063100  0.70812000  0.11753000  1
  Br  Br8  1  0.84290600  0.09174600  0.29815000  1
  Br  Br9  1  0.56063100  0.79188000  0.38247000  1
  Br  Br10  1  0.93936900  0.20812000  0.88247000  1
  Br  Br11  1  0.34290600  0.09174600  0.20185000  1
  Br  Br12  1  0.06063100  0.70812000  0.38247000  1
  Br  Br13  1  0.65709400  0.59174600  0.70185000  1
  Br  Br14  1  0.84290600  0.40825400  0.20185000  1
  Br  Br15  1  0.93936900  0.29188000  0.61753000  1
  O  O0  1  0.19677000  0.94403500  0.50712800  1
  O  O1  1  0.56101700  0.59194800  0.91910600  1
  O  O2  1  0.85742300  0.68742900  0.94305900  1
  O  O3  1  0.30323000  0.44403500  0.49287200  1
  O  O4  1  0.14257700  0.18742900  0.44305900  1
  O  O5  1  0.06101700  0.59194800  0.58089400  1
  O  O6  1  0.43898300  0.09194800  0.41910600  1
  O  O7  1  0.64257700  0.31257100  0.44305900  1
  O  O8  1  0.69677000  0.55596500  0.50712800  1
  O  O9  1  0.19677000  0.55596500  0.99287200  1
  O  O10  1  0.06101700  0.90805200  0.91910600  1
  O  O11  1  0.93898300  0.40805200  0.41910600  1
  O  O12  1  0.30323000  0.05596500  0.00712800  1
  O  O13  1  0.93898300  0.09194800  0.08089400  1
  O  O14  1  0.56101700  0.90805200  0.58089400  1
  O  O15  1  0.64257700  0.18742900  0.05694100  1
  O  O16  1  0.69677000  0.94403500  0.99287200  1
  O  O17  1  0.80323000  0.44403500  0.00712800  1
  O  O18  1  0.35742300  0.81257100  0.94305900  1
  O  O19  1  0.85742300  0.81257100  0.55694100  1
  O  O20  1  0.35742300  0.68742900  0.55694100  1
  O  O21  1  0.80323000  0.05596500  0.49287200  1
  O  O22  1  0.14257700  0.31257100  0.05694100  1
  O  O23  1  0.43898300  0.40805200  0.08089400  1
loop_
_geom_bond_atom_site_label_1
_geom_bond_atom_site_label_2
_geom_bond_distance
_geom_bond_site_symmetry_2
Co0 O18 2.035156 1_555
Co0 O16 2.043964 1_555
Co0 O1 2.108235 1_555
Co0 O2 2.180143 1_555
Co1 O7 2.035156 1_555
Co1 O3 2.043964 1_555
Co1 O6 2.108235 1_555
Co1 O4 2.180143 1_555
Co2 O22 2.035156 1_655
Co2 O17 2.043964 1_555
Co2 O13 2.108235 1_555
Co2 O15 2.180143 1_555
Co3 O20 2.035156 1_555
Co3 O8 2.043964 1_555
Co3 O14 2.108235 1_555
Co3 O19 2.180143 1_555
Co4 O2 2.035156 1_455
Co4 O9 2.043964 1_555
Co4 O10 2.108235 1_555
Co4 O18 2.180143 1_555
Co5 O4 2.035156 1_655
Co5 O21 2.043964 1_555
Co5 O11 2.108235 1_555
Co5 O7 2.180143 1_555
Co6 O19 2.035156 1_455
Co6 O0 2.043964 1_555
Co6 O5 2.108235 1_555
Co6 O20 2.180143 1_555
Co7 O15 2.035156 1_555
Co7 O12 2.043964 1_555
Co7 O23 2.108235 1_555
Co7 O22 2.180143 1_555
Br0 Zn4 2.390958 1_555
Br1 Zn0 2.390958 1_555
Br2 Zn5 2.411867 1_555
Br2 Co7 2.623550 1_556
Br3 Zn0 2.411867 1_545
Br3 Co1 2.623550 1_555
Br4 Zn5 2.390958 1_555
Br5 Zn6 2.390958 1_555
Br6 Zn2 2.411867 1_565
Br6 Co4 2.623550 1_554
Br7 Zn1 2.411867 1_555
Br7 Co0 2.623550 1_554
Br8 Zn7 2.390958 1_555
Br9 Zn7 2.411867 1_565
Br9 Co3 2.623550 1_555
Br10 Zn4 2.411867 1_545
Br10 Co2 2.623550 1_556
Br11 Zn2 2.390958 1_555
Br12 Zn6 2.411867 1_555
Br12 Co6 2.623550 1_555
Br13 Zn3 2.390958 1_555
Br14 Zn1 2.390958 1_555
Br15 Zn3 2.411867 1_555
Br15 Co5 2.623550 1_555
O0 Te3 1.931115 1_565
O0 Zn0 2.021461 1_555
O1 Te4 1.905866 1_555
O1 Zn5 1.981601 1_555
O2 Te4 1.907821 1_555
O3 Te1 1.931115 1_555
O3 Zn6 2.021461 1_555
O4 Te3 1.907821 1_555
O5 Te1 1.905866 1_555
O5 Zn3 1.981601 1_455
O6 Te3 1.905866 1_555
O6 Zn7 1.981601 1_555
O7 Te5 1.907821 1_555
O8 Te5 1.931115 1_555
O8 Zn3 2.021461 1_555
O9 Te6 1.931115 1_556
O9 Zn5 2.021461 1_555
O10 Te2 1.905866 1_555
O10 Zn4 1.981601 1_455
O11 Te5 1.905866 1_555
O11 Zn6 1.981601 1_655
O12 Te2 1.931115 1_544
O12 Zn2 2.021461 1_555
O13 Te7 1.905866 1_555
O13 Zn2 1.981601 1_655
O14 Te0 1.905866 1_555
O14 Zn0 1.981601 1_555
O15 Te7 1.907821 1_555
O16 Te7 1.931115 1_566
O16 Zn4 2.021461 1_555
O17 Te4 1.931115 1_554
O17 Zn1 2.021461 1_555
O18 Te2 1.907821 1_555
O19 Te0 1.907821 1_555
O20 Te1 1.907821 1_555
O21 Te0 1.931115 1_545
O21 Zn7 2.021461 1_555
O22 Te6 1.907821 1_555
O23 Te6 1.905866 1_555
O23 Zn1 1.981601 1_555
