# generated using pymatgen
data_Cs2V(PO4)2
_symmetry_space_group_name_H-M   'P 1'
_cell_length_a   7.37288400
_cell_length_b   9.66028500
_cell_length_c   13.63813000
_cell_angle_alpha   90.00000000
_cell_angle_beta   90.00000000
_cell_angle_gamma   90.00000000
_symmetry_Int_Tables_number   1
_chemical_formula_structural   Cs2V(PO4)2
_chemical_formula_sum   'Cs8 V4 P8 O32'
_cell_volume   971.36436293
_cell_formula_units_Z   4
loop_
 _symmetry_equiv_pos_site_id
 _symmetry_equiv_pos_as_xyz
  1  'x, y, z'
loop_
 _atom_site_type_symbol
 _atom_site_label
 _atom_site_symmetry_multiplicity
 _atom_site_fract_x
 _atom_site_fract_y
 _atom_site_fract_z
 _atom_site_occupancy
  Cs  Cs0  1  0.25000000  0.91802400  0.40174400  1
  Cs  Cs1  1  0.75000000  0.08197600  0.59825600  1
  Cs  Cs2  1  0.75000000  0.41802400  0.09825600  1
  Cs  Cs3  1  0.25000000  0.58197600  0.90174400  1
  Cs  Cs4  1  0.25000000  0.12982700  0.09153500  1
  Cs  Cs5  1  0.75000000  0.87017300  0.90846500  1
  Cs  Cs6  1  0.75000000  0.62982700  0.40846500  1
  Cs  Cs7  1  0.25000000  0.37017300  0.59153500  1
  V  V0  1  0.25000000  0.48512400  0.28851800  1
  V  V1  1  0.75000000  0.51487600  0.71148200  1
  V  V2  1  0.75000000  0.98512400  0.21148200  1
  V  V3  1  0.25000000  0.01487600  0.78851800  1
  P  P0  1  0.04796500  0.73187000  0.15910400  1
  P  P1  1  0.54796500  0.26813000  0.84089600  1
  P  P2  1  0.95203500  0.23187000  0.34089600  1
  P  P3  1  0.45203500  0.76813000  0.65910400  1
  P  P4  1  0.95203500  0.26813000  0.84089600  1
  P  P5  1  0.45203500  0.73187000  0.15910400  1
  P  P6  1  0.04796500  0.76813000  0.65910400  1
  P  P7  1  0.54796500  0.23187000  0.34089600  1
  O  O0  1  0.25000000  0.54498000  0.40111800  1
  O  O1  1  0.75000000  0.45502000  0.59888200  1
  O  O2  1  0.75000000  0.04498000  0.09888200  1
  O  O3  1  0.25000000  0.95502000  0.90111800  1
  O  O4  1  0.93502200  0.83373700  0.22095900  1
  O  O5  1  0.43502200  0.16626300  0.77904100  1
  O  O6  1  0.06497800  0.33373700  0.27904100  1
  O  O7  1  0.56497800  0.66626300  0.72095900  1
  O  O8  1  0.06497800  0.16626300  0.77904100  1
  O  O9  1  0.56497800  0.83373700  0.22095900  1
  O  O10  1  0.93502200  0.66626300  0.72095900  1
  O  O11  1  0.43502200  0.33373700  0.27904100  1
  O  O12  1  0.98999300  0.71130300  0.05461500  1
  O  O13  1  0.48999300  0.28869700  0.94538500  1
  O  O14  1  0.01000700  0.21130300  0.44538500  1
  O  O15  1  0.51000700  0.78869700  0.55461500  1
  O  O16  1  0.01000700  0.28869700  0.94538500  1
  O  O17  1  0.51000700  0.71130300  0.05461500  1
  O  O18  1  0.98999300  0.78869700  0.55461500  1
  O  O19  1  0.48999300  0.21130300  0.44538500  1
  O  O20  1  0.06323800  0.59342800  0.21654500  1
  O  O21  1  0.56323800  0.40657200  0.78345500  1
  O  O22  1  0.93676200  0.09342800  0.28345500  1
  O  O23  1  0.43676200  0.90657200  0.71654500  1
  O  O24  1  0.93676200  0.40657200  0.78345500  1
  O  O25  1  0.43676200  0.59342800  0.21654500  1
  O  O26  1  0.06323800  0.90657200  0.71654500  1
  O  O27  1  0.56323800  0.09342800  0.28345500  1
  O  O28  1  0.25000000  0.80368000  0.16325500  1
  O  O29  1  0.75000000  0.19632000  0.83674500  1
  O  O30  1  0.75000000  0.30368000  0.33674500  1
  O  O31  1  0.25000000  0.69632000  0.66325500  1
loop_
_geom_bond_atom_site_label_1
_geom_bond_atom_site_label_2
_geom_bond_distance
_geom_bond_site_symmetry_2
Cs0 O15 3.095551 1_555
Cs0 O18 3.095551 1_455
Cs0 O27 3.287454 1_565
Cs0 O22 3.287454 1_465
Cs0 O19 3.392926 1_565
Cs0 O14 3.392926 1_565
Cs0 O28 3.434993 1_555
Cs0 O9 3.483543 1_555
Cs0 O4 3.483543 1_455
Cs0 O0 3.603721 1_555
Cs1 O14 3.095551 1_655
Cs1 O19 3.095551 1_555
Cs1 O26 3.287454 1_645
Cs1 O23 3.287454 1_545
Cs1 O18 3.392926 1_545
Cs1 O15 3.392926 1_545
Cs1 O29 3.434993 1_555
Cs1 O8 3.483543 1_655
Cs1 O5 3.483543 1_555
Cs1 O1 3.603721 1_555
Cs2 O16 3.095551 1_654
Cs2 O13 3.095551 1_554
Cs2 O20 3.287454 1_655
Cs2 O25 3.287454 1_555
Cs2 O12 3.392926 1_555
Cs2 O17 3.392926 1_555
Cs2 O30 3.434993 1_555
Cs2 O6 3.483543 1_655
Cs2 O11 3.483543 1_555
Cs2 O2 3.603721 1_555
Cs3 O17 3.095551 1_556
Cs3 O12 3.095551 1_456
Cs3 O24 3.287454 1_455
Cs3 O21 3.287454 1_555
Cs3 O13 3.392926 1_555
Cs3 O16 3.392926 1_555
Cs3 O31 3.434993 1_555
Cs3 O7 3.483543 1_555
Cs3 O10 3.483543 1_455
Cs3 O3 3.603721 1_555
Cs4 O13 3.075583 1_554
Cs4 O16 3.075583 1_554
Cs4 O3 3.097695 1_544
Cs4 O28 3.299011 1_545
Cs4 O11 3.504362 1_555
Cs4 O6 3.504362 1_555
Cs4 O27 3.508307 1_555
Cs4 O22 3.508307 1_455
Cs4 O2 3.777792 1_455
Cs4 O2 3.777792 1_555
Cs5 O12 3.075583 1_556
Cs5 O17 3.075583 1_556
Cs5 O2 3.097695 1_566
Cs5 O29 3.299011 1_565
Cs5 O10 3.504362 1_555
Cs5 O7 3.504362 1_555
Cs5 O26 3.508307 1_655
Cs5 O23 3.508307 1_555
Cs5 O3 3.777792 1_555
Cs5 O3 3.777792 1_655
Cs6 O18 3.075583 1_555
Cs6 O15 3.075583 1_555
Cs6 O1 3.097695 1_555
Cs6 O30 3.299011 1_555
Cs6 O4 3.504362 1_555
Cs6 O9 3.504362 1_555
Cs6 O20 3.508307 1_655
Cs6 O25 3.508307 1_555
Cs6 O0 3.777792 1_555
Cs6 O0 3.777792 1_655
Cs7 O19 3.075583 1_555
Cs7 O14 3.075583 1_555
Cs7 O0 3.097695 1_555
Cs7 O31 3.299011 1_555
Cs7 O5 3.504362 1_555
Cs7 O8 3.504362 1_555
Cs7 O21 3.508307 1_555
Cs7 O24 3.508307 1_455
Cs7 O1 3.777792 1_455
Cs7 O1 3.777792 1_555
O0 V0 1.640907 1_555
O1 V1 1.640907 1_555
O2 V2 1.640907 1_545
O3 V3 1.640907 1_565
O4 P0 1.540596 1_655
O4 V2 2.004079 1_555
O5 P1 1.540596 1_555
O5 V3 2.004079 1_555
O6 P2 1.540596 1_455
O6 V0 2.004079 1_555
O7 P3 1.540596 1_555
O7 V1 2.004079 1_555
O8 P4 1.540596 1_455
O8 V3 2.004079 1_555
O9 P5 1.540596 1_555
O9 V2 2.004079 1_555
O10 P6 1.540596 1_655
O10 V1 2.004079 1_555
O11 P7 1.540596 1_555
O11 V0 2.004079 1_555
O12 P0 1.500962 1_655
O13 P1 1.500962 1_555
O14 P2 1.500962 1_455
O15 P3 1.500962 1_555
O16 P4 1.500962 1_455
O17 P5 1.500962 1_555
O18 P6 1.500962 1_655
O19 P7 1.500962 1_555
O20 P0 1.554023 1_555
O20 V0 1.988514 1_555
O21 P1 1.554023 1_555
O21 V1 1.988514 1_555
O22 P2 1.554023 1_555
O22 V2 1.988514 1_545
O23 P3 1.554023 1_555
O23 V3 1.988514 1_565
O24 P4 1.554023 1_555
O24 V1 1.988514 1_555
O25 P5 1.554023 1_555
O25 V0 1.988514 1_555
O26 P6 1.554023 1_555
O26 V3 1.988514 1_565
O27 P7 1.554023 1_555
O27 V2 1.988514 1_545
O28 P5 1.644166 1_555
O28 P0 1.644166 1_555
O29 P4 1.644166 1_555
O29 P1 1.644166 1_555
O30 P2 1.644166 1_555
O30 P7 1.644166 1_555
O31 P3 1.644166 1_555
O31 P6 1.644166 1_555
