# generated using pymatgen
data_CsK4TlO4
_symmetry_space_group_name_H-M   'P 1'
_cell_length_a   6.84062137
_cell_length_b   11.98793526
_cell_length_c   21.45028458
_cell_angle_alpha   90.00000000
_cell_angle_beta   90.00000000
_cell_angle_gamma   90.00000000
_symmetry_Int_Tables_number   1
_chemical_formula_structural   CsK4TlO4
_chemical_formula_sum   'Cs8 K32 Tl8 O32'
_cell_volume   1759.02900227
_cell_formula_units_Z   8
loop_
 _symmetry_equiv_pos_site_id
 _symmetry_equiv_pos_as_xyz
  1  'x, y, z'
loop_
 _atom_site_type_symbol
 _atom_site_label
 _atom_site_symmetry_multiplicity
 _atom_site_fract_x
 _atom_site_fract_y
 _atom_site_fract_z
 _atom_site_occupancy
  Cs  Cs0  1  0.41441169  0.65852673  0.00036351  1
  Cs  Cs1  1  0.58558831  0.34147327  -0.00036351  1
  Cs  Cs2  1  0.08558831  0.65852673  0.50036351  1
  Cs  Cs3  1  0.91441169  0.84147327  0.00036351  1
  Cs  Cs4  1  0.91441169  0.34147327  0.49963649  1
  Cs  Cs5  1  0.58558831  0.84147327  0.50036351  1
  Cs  Cs6  1  0.08558831  0.15852673  -0.00036351  1
  Cs  Cs7  1  0.41441169  0.15852673  0.49963649  1
  K  K0  1  0.41602131  0.58034254  0.74893099  1
  K  K1  1  0.91018737  0.17179197  0.82515305  1
  K  K2  1  0.08981263  0.82820803  0.17484695  1
  K  K3  1  0.91027848  0.05890865  0.43345022  1
  K  K4  1  0.40672508  0.19831340  0.14364462  1
  K  K5  1  0.91027848  0.55890865  0.06654978  1
  K  K6  1  0.41027848  0.44109135  0.43345022  1
  K  K7  1  0.09327492  0.69831340  0.85635538  1
  K  K8  1  0.58397869  0.41965746  0.25106901  1
  K  K9  1  0.91018737  0.67179197  0.67484695  1
  K  K10  1  0.58981263  0.67179197  0.17484695  1
  K  K11  1  0.41018737  0.32820803  0.82515305  1
  K  K12  1  0.41602131  0.08034254  0.75106901  1
  K  K13  1  0.08972152  0.94109135  0.56654978  1
  K  K14  1  0.59327492  0.30168660  0.64364462  1
  K  K15  1  0.08981263  0.32820803  0.32515305  1
  K  K16  1  0.40672508  0.69831340  0.35635538  1
  K  K17  1  0.08972152  0.44109135  0.93345022  1
  K  K18  1  0.08397869  0.08034254  0.25106901  1
  K  K19  1  0.58972152  0.05890865  0.93345022  1
  K  K20  1  0.90672508  0.80168660  0.35635538  1
  K  K21  1  0.09327492  0.19831340  0.64364462  1
  K  K22  1  0.41018737  0.82820803  0.67484695  1
  K  K23  1  0.58397869  0.91965746  0.24893099  1
  K  K24  1  0.59327492  0.80168660  0.85635538  1
  K  K25  1  0.08397869  0.58034254  0.24893099  1
  K  K26  1  0.91602131  0.41965746  0.75106901  1
  K  K27  1  0.91602131  0.91965746  0.74893099  1
  K  K28  1  0.90672508  0.30168660  0.14364462  1
  K  K29  1  0.58972152  0.55890865  0.56654978  1
  K  K30  1  0.58981263  0.17179197  0.32515305  1
  K  K31  1  0.41027848  0.94109135  0.06654978  1
  Tl  Tl0  1  0.80657313  0.03724606  0.12779414  1
  Tl  Tl1  1  0.69342687  0.03724606  0.62779414  1
  Tl  Tl2  1  0.19342687  0.46275394  0.62779414  1
  Tl  Tl3  1  0.80657313  0.53724606  0.37220586  1
  Tl  Tl4  1  0.30657313  0.96275394  0.37220586  1
  Tl  Tl5  1  0.30657313  0.46275394  0.12779414  1
  Tl  Tl6  1  0.69342687  0.53724606  0.87220586  1
  Tl  Tl7  1  0.19342687  0.96275394  0.87220586  1
  O  O0  1  0.33654818  0.88028461  0.95061483  1
  O  O1  1  0.21477634  0.87182558  0.28765849  1
  O  O2  1  0.71503357  0.36229643  0.36671250  1
  O  O3  1  0.37549579  0.04304908  0.62468551  1
  O  O4  1  0.28496643  0.63770357  0.63328750  1
  O  O5  1  0.28522366  0.87182558  0.78765849  1
  O  O6  1  0.78522366  0.12817442  0.71234151  1
  O  O7  1  0.71477634  0.12817442  0.21234151  1
  O  O8  1  0.16345182  0.88028461  0.45061483  1
  O  O9  1  0.16345182  0.38028461  0.04938517  1
  O  O10  1  0.66345182  0.11971539  0.04938517  1
  O  O11  1  0.37549579  0.54304908  0.87531449  1
  O  O12  1  0.21477634  0.37182558  0.21234151  1
  O  O13  1  0.33654818  0.38028461  0.54938517  1
  O  O14  1  0.28496643  0.13770357  0.86671250  1
  O  O15  1  0.87549579  0.95695092  0.87531449  1
  O  O16  1  0.71503357  0.86229643  0.13328750  1
  O  O17  1  0.21503357  0.63770357  0.13328750  1
  O  O18  1  0.83654818  0.11971539  0.54938517  1
  O  O19  1  0.87549579  0.45695092  0.62468551  1
  O  O20  1  0.62450421  0.45695092  0.12468551  1
  O  O21  1  0.66345182  0.61971539  0.45061483  1
  O  O22  1  0.12450421  0.54304908  0.37531449  1
  O  O23  1  0.78496643  0.86229643  0.63328750  1
  O  O24  1  0.62450421  0.95695092  0.37531449  1
  O  O25  1  0.28522366  0.37182558  0.71234151  1
  O  O26  1  0.78496643  0.36229643  0.86671250  1
  O  O27  1  0.78522366  0.62817442  0.78765849  1
  O  O28  1  0.12450421  0.04304908  0.12468551  1
  O  O29  1  0.83654818  0.61971539  0.95061483  1
  O  O30  1  0.71477634  0.62817442  0.28765849  1
  O  O31  1  0.21503357  0.13770357  0.36671250  1
loop_
_geom_bond_atom_site_label_1
_geom_bond_atom_site_label_2
_geom_bond_distance
_geom_bond_site_symmetry_2
Cs0 O0 2.913699 1_554
Cs0 O11 3.030213 1_554
Cs0 O29 3.113503 1_554
Cs0 O17 3.170509 1_555
Cs1 O10 2.913699 1_555
Cs1 O20 3.030213 1_555
Cs1 O9 3.113503 1_555
Cs1 O26 3.170509 1_554
Cs2 O8 2.913699 1_555
Cs2 O22 3.030213 1_555
Cs2 O21 3.113503 1_455
Cs2 O4 3.170509 1_555
Cs3 O29 2.913699 1_554
Cs3 O15 3.030213 1_554
Cs3 O0 3.113503 1_654
Cs3 O16 3.170509 1_555
Cs4 O18 2.913699 1_555
Cs4 O19 3.030213 1_555
Cs4 O13 3.113503 1_655
Cs4 O2 3.170509 1_555
Cs5 O21 2.913699 1_555
Cs5 O24 3.030213 1_555
Cs5 O8 3.113503 1_555
Cs5 O23 3.170509 1_555
Cs6 O9 2.913699 1_555
Cs6 O28 3.030213 1_555
Cs6 O10 3.113503 1_455
Cs6 O14 3.170509 1_554
Cs7 O13 2.913699 1_555
Cs7 O3 3.030213 1_555
Cs7 O18 3.113503 1_555
Cs7 O31 3.170509 1_555
K0 O27 2.719817 1_555
K0 O4 2.725777 1_555
K0 O11 2.761528 1_555
K0 O25 2.768572 1_555
K1 O26 2.596919 1_555
K1 O6 2.619115 1_555
K1 O14 2.744880 1_655
K1 O15 2.801294 1_545
K2 O17 2.596919 1_555
K2 O1 2.619115 1_555
K2 O16 2.744880 1_455
K2 O28 2.801294 1_565
K3 O24 2.621171 1_545
K3 O18 2.640096 1_555
K3 O31 2.699555 1_655
K3 O8 2.778528 1_645
K4 O7 2.705353 1_555
K4 O28 2.712362 1_555
K4 O10 2.839010 1_555
K4 O12 2.867424 1_555
K5 O20 2.621171 1_555
K5 O29 2.640096 1_554
K5 O17 2.699555 1_655
K5 O9 2.778528 1_655
K6 O22 2.621171 1_555
K6 O13 2.640096 1_555
K6 O2 2.699555 1_555
K6 O21 2.778528 1_555
K7 O27 2.705353 1_455
K7 O11 2.712362 1_555
K7 O29 2.839010 1_455
K7 O5 2.867424 1_555
K8 O12 2.719817 1_555
K8 O2 2.725777 1_555
K8 O20 2.761528 1_555
K8 O30 2.768572 1_555
K9 O23 2.596919 1_555
K9 O27 2.619115 1_555
K9 O4 2.744880 1_655
K9 O19 2.801294 1_555
K10 O16 2.596919 1_555
K10 O30 2.619115 1_555
K10 O17 2.744880 1_555
K10 O20 2.801294 1_555
K11 O14 2.596919 1_555
K11 O25 2.619115 1_555
K11 O26 2.744880 1_555
K11 O11 2.801294 1_555
K12 O6 2.719817 1_555
K12 O14 2.725777 1_555
K12 O3 2.761528 1_555
K12 O5 2.768572 1_545
K13 O3 2.621171 1_565
K13 O8 2.640096 1_555
K13 O23 2.699555 1_455
K13 O18 2.778528 1_465
K14 O25 2.705353 1_555
K14 O19 2.712362 1_555
K14 O13 2.839010 1_555
K14 O6 2.867424 1_555
K15 O31 2.596919 1_555
K15 O12 2.619115 1_555
K15 O2 2.744880 1_455
K15 O22 2.801294 1_555
K16 O30 2.705353 1_555
K16 O22 2.712362 1_555
K16 O21 2.839010 1_555
K16 O1 2.867424 1_555
K17 O11 2.621171 1_555
K17 O9 2.640096 1_556
K17 O26 2.699555 1_455
K17 O29 2.778528 1_455
K18 O7 2.719817 1_455
K18 O31 2.725777 1_555
K18 O28 2.761528 1_555
K18 O1 2.768572 1_545
K19 O15 2.621171 1_545
K19 O10 2.640096 1_556
K19 O14 2.699555 1_555
K19 O0 2.778528 1_545
K20 O1 2.705353 1_655
K20 O24 2.712362 1_555
K20 O8 2.839010 1_655
K20 O30 2.867424 1_555
K21 O6 2.705353 1_455
K21 O3 2.712362 1_555
K21 O18 2.839010 1_455
K21 O25 2.867424 1_555
K22 O4 2.596919 1_555
K22 O5 2.619115 1_555
K22 O23 2.744880 1_555
K22 O3 2.801294 1_565
K23 O1 2.719817 1_555
K23 O16 2.725777 1_555
K23 O24 2.761528 1_555
K23 O7 2.768572 1_565
K24 O5 2.705353 1_555
K24 O15 2.712362 1_555
K24 O0 2.839010 1_555
K24 O27 2.867424 1_555
K25 O30 2.719817 1_455
K25 O17 2.725777 1_555
K25 O22 2.761528 1_555
K25 O12 2.768572 1_555
K26 O25 2.719817 1_655
K26 O26 2.725777 1_555
K26 O19 2.761528 1_555
K26 O27 2.768572 1_555
K27 O5 2.719817 1_655
K27 O23 2.725777 1_555
K27 O15 2.761528 1_555
K27 O6 2.768572 1_565
K28 O12 2.705353 1_655
K28 O20 2.712362 1_555
K28 O9 2.839010 1_655
K28 O7 2.867424 1_555
K29 O19 2.621171 1_555
K29 O21 2.640096 1_555
K29 O4 2.699555 1_555
K29 O13 2.778528 1_555
K30 O2 2.596919 1_555
K30 O7 2.619115 1_555
K30 O31 2.744880 1_555
K30 O24 2.801294 1_545
K31 O28 2.621171 1_565
K31 O0 2.640096 1_554
K31 O16 2.699555 1_555
K31 O10 2.778528 1_565
O0 Tl7 2.182817 1_555
O1 Tl4 2.207154 1_555
O2 Tl3 2.191940 1_555
O3 Tl1 2.176980 1_555
O4 Tl2 2.191940 1_555
O5 Tl7 2.207154 1_555
O6 Tl1 2.207154 1_555
O7 Tl0 2.207154 1_555
O8 Tl4 2.182817 1_555
O9 Tl5 2.182817 1_555
O10 Tl0 2.182817 1_555
O11 Tl6 2.176980 1_555
O12 Tl5 2.207154 1_555
O13 Tl2 2.182817 1_555
O14 Tl7 2.191940 1_545
O15 Tl7 2.176980 1_655
O16 Tl0 2.191940 1_565
O17 Tl5 2.191940 1_555
O18 Tl1 2.182817 1_555
O19 Tl2 2.176980 1_655
O20 Tl5 2.176980 1_555
O21 Tl3 2.182817 1_555
O22 Tl3 2.176980 1_455
O23 Tl1 2.191940 1_565
O24 Tl4 2.176980 1_555
O25 Tl2 2.207154 1_555
O26 Tl6 2.191940 1_555
O27 Tl6 2.207154 1_555
O28 Tl0 2.176980 1_455
O29 Tl6 2.182817 1_555
O30 Tl3 2.207154 1_555
O31 Tl4 2.191940 1_545
