# generated using pymatgen
data_ScBrO
_symmetry_space_group_name_H-M   'P 1'
_cell_length_a   3.56143271
_cell_length_b   3.96256963
_cell_length_c   8.93591378
_cell_angle_alpha   90.00000000
_cell_angle_beta   90.00000000
_cell_angle_gamma   90.00000000
_symmetry_Int_Tables_number   1
_chemical_formula_structural   ScBrO
_chemical_formula_sum   'Sc2 Br2 O2'
_cell_volume   126.10741388
_cell_formula_units_Z   2
loop_
 _symmetry_equiv_pos_site_id
 _symmetry_equiv_pos_as_xyz
  1  'x, y, z'
loop_
 _atom_site_type_symbol
 _atom_site_label
 _atom_site_symmetry_multiplicity
 _atom_site_fract_x
 _atom_site_fract_y
 _atom_site_fract_z
 _atom_site_occupancy
  Sc  Sc0  1  0.25000000  0.75000000  0.60380664  1
  Sc  Sc1  1  0.75000000  0.25000000  0.39619236  1
  Br  Br0  1  0.75000000  0.75000000  0.82530391  1
  Br  Br1  1  0.25000000  0.25000000  0.17469709  1
  O  O0  1  0.75000000  0.75000000  0.46921817  1
  O  O1  1  0.25000000  0.25000000  0.53078183  1
loop_
_geom_bond_atom_site_label_1
_geom_bond_atom_site_label_2
_geom_bond_distance
_geom_bond_site_symmetry_2
Br0 Sc0 2.662424 1_655
Br0 Sc0 2.662424 1_555
Br1 Sc1 2.662411 1_555
Br1 Sc1 2.662411 1_455
O0 Sc1 2.085980 1_555
O0 Sc1 2.085980 1_565
O0 Sc0 2.148806 1_555
O0 Sc0 2.148806 1_655
O1 Sc0 2.085978 1_545
O1 Sc0 2.085978 1_555
O1 Sc1 2.148811 1_455
O1 Sc1 2.148811 1_555
