# generated using pymatgen
data_B2H12C3(NO)6
_symmetry_space_group_name_H-M   'P 1'
_cell_length_a   20.01524500
_cell_length_b   3.82169400
_cell_length_c   14.11796713
_cell_angle_alpha   89.64886046
_cell_angle_beta   90.00000000
_cell_angle_gamma   90.00000000
_symmetry_Int_Tables_number   1
_chemical_formula_structural   B2H12C3(NO)6
_chemical_formula_sum   'B8 H48 C12 N24 O24'
_cell_volume   1079.89326222
_cell_formula_units_Z   4
loop_
 _symmetry_equiv_pos_site_id
 _symmetry_equiv_pos_as_xyz
  1  'x, y, z'
loop_
 _atom_site_type_symbol
 _atom_site_label
 _atom_site_symmetry_multiplicity
 _atom_site_fract_x
 _atom_site_fract_y
 _atom_site_fract_z
 _atom_site_occupancy
  B  B0  1  0.63233100  0.44639100  0.16744100  1
  B  B1  1  0.98986900  0.34113000  0.13799900  1
  B  B2  1  0.13233100  0.55360900  0.33255900  1
  B  B3  1  0.01013100  0.65887000  0.86200100  1
  B  B4  1  0.86766900  0.44639100  0.66744100  1
  B  B5  1  0.51013100  0.34113000  0.63799900  1
  B  B6  1  0.36766900  0.55360900  0.83255900  1
  B  B7  1  0.48986900  0.65887000  0.36200100  1
  H  H0  1  0.07988500  0.57093400  0.15599100  1
  H  H1  1  0.79473500  0.73900800  0.01765200  1
  H  H2  1  0.47512500  0.20539700  0.10408200  1
  H  H3  1  0.94083900  0.13740900  0.25426900  1
  H  H4  1  0.92011500  0.42906600  0.84400900  1
  H  H5  1  0.65758400  0.86279600  0.41968100  1
  H  H6  1  0.35357800  0.81468600  0.36321000  1
  H  H7  1  0.97512500  0.79460300  0.39591800  1
  H  H8  1  0.57988500  0.42906600  0.34400900  1
  H  H9  1  0.06683300  0.30009200  0.49715200  1
  H  H10  1  0.42011500  0.57093400  0.65599100  1
  H  H11  1  0.45975000  0.35248400  0.81408500  1
  H  H12  1  0.05916100  0.86259100  0.74573100  1
  H  H13  1  0.68103100  0.20969300  0.27628500  1
  H  H14  1  0.81896900  0.20969300  0.77628500  1
  H  H15  1  0.70526500  0.73900800  0.51765200  1
  H  H16  1  0.56683300  0.69990800  0.00284800  1
  H  H17  1  0.94477300  0.34668400  0.01027200  1
  H  H18  1  0.14642200  0.81468600  0.86321000  1
  H  H19  1  0.04025000  0.35248400  0.31408500  1
  H  H20  1  0.31836100  0.45198800  0.95497200  1
  H  H21  1  0.20526500  0.26099200  0.98234800  1
  H  H22  1  0.18163900  0.45198800  0.45497200  1
  H  H23  1  0.55522700  0.34668400  0.51027200  1
  H  H24  1  0.55916100  0.13740900  0.75426900  1
  H  H25  1  0.44477300  0.65331600  0.48972800  1
  H  H26  1  0.31896900  0.79030700  0.72371500  1
  H  H27  1  0.05522700  0.65331600  0.98972800  1
  H  H28  1  0.23492300  0.77170200  0.85430300  1
  H  H29  1  0.43316700  0.30009200  0.99715200  1
  H  H30  1  0.52487500  0.79460300  0.89591800  1
  H  H31  1  0.26507700  0.77170200  0.35430300  1
  H  H32  1  0.02487500  0.20539700  0.60408200  1
  H  H33  1  0.29473500  0.26099200  0.48234800  1
  H  H34  1  0.81836100  0.54801200  0.54502800  1
  H  H35  1  0.44083900  0.86259100  0.24573100  1
  H  H36  1  0.95975000  0.64751600  0.68591500  1
  H  H37  1  0.76507700  0.22829800  0.14569700  1
  H  H38  1  0.84241600  0.86279600  0.91968100  1
  H  H39  1  0.54025000  0.64751600  0.18591500  1
  H  H40  1  0.68163900  0.54801200  0.04502800  1
  H  H41  1  0.73492300  0.22829800  0.64569700  1
  H  H42  1  0.85357800  0.18531400  0.13679000  1
  H  H43  1  0.64642200  0.18531400  0.63679000  1
  H  H44  1  0.93316700  0.69990800  0.50284800  1
  H  H45  1  0.15758400  0.13720400  0.08031900  1
  H  H46  1  0.34241600  0.13720400  0.58031900  1
  H  H47  1  0.18103100  0.79030700  0.22371500  1
  C  C0  1  0.18753200  0.96514900  0.73679800  1
  C  C1  1  0.81246800  0.03485100  0.26320200  1
  C  C2  1  0.75947100  0.87056400  0.39950600  1
  C  C3  1  0.12682500  0.16074000  0.60934000  1
  C  C4  1  0.25947100  0.12943600  0.10049400  1
  C  C5  1  0.31246800  0.96514900  0.23679800  1
  C  C6  1  0.62682500  0.83926000  0.89066000  1
  C  C7  1  0.74052900  0.87056400  0.89950600  1
  C  C8  1  0.87317500  0.83926000  0.39066000  1
  C  C9  1  0.68753200  0.03485100  0.76320200  1
  C  C10  1  0.37317500  0.16074000  0.10934000  1
  C  C11  1  0.24052900  0.12943600  0.60049400  1
  N  N0  1  0.81713900  0.77219200  0.44121400  1
  N  N1  1  0.56807700  0.77289900  0.93285400  1
  N  N2  1  0.30987500  0.85976200  0.32731500  1
  N  N3  1  0.06807700  0.22710100  0.56714600  1
  N  N4  1  0.75405900  0.00543600  0.31140300  1
  N  N5  1  0.18286100  0.22780800  0.55878600  1
  N  N6  1  0.12669700  0.03372500  0.69883200  1
  N  N7  1  0.80987500  0.14023800  0.17268500  1
  N  N8  1  0.79712200  0.83198500  0.95046400  1
  N  N9  1  0.24594100  0.99456400  0.68859700  1
  N  N10  1  0.29712200  0.16801500  0.54953600  1
  N  N11  1  0.93192300  0.77289900  0.43285400  1
  N  N12  1  0.68286100  0.77219200  0.94121400  1
  N  N13  1  0.69012500  0.14023800  0.67268500  1
  N  N14  1  0.70287800  0.83198500  0.45046400  1
  N  N15  1  0.19012500  0.85976200  0.82731500  1
  N  N16  1  0.43192300  0.22710100  0.06714600  1
  N  N17  1  0.37330300  0.03372500  0.19883200  1
  N  N18  1  0.25405900  0.99456400  0.18859700  1
  N  N19  1  0.74594100  0.00543600  0.81140300  1
  N  N20  1  0.20287800  0.16801500  0.04953600  1
  N  N21  1  0.31713900  0.22780800  0.05878600  1
  N  N22  1  0.87330300  0.96627500  0.30116800  1
  N  N23  1  0.62669700  0.96627500  0.80116800  1
  O  O0  1  0.81378100  0.41893300  0.60796600  1
  O  O1  1  0.07361200  0.40537900  0.36504200  1
  O  O2  1  0.51543400  0.25463100  0.73226800  1
  O  O3  1  0.43831700  0.73334800  0.42310200  1
  O  O4  1  0.92638800  0.59462100  0.63495800  1
  O  O5  1  0.48456600  0.74536900  0.26773200  1
  O  O6  1  0.06168300  0.73334800  0.92310200  1
  O  O7  1  0.95248100  0.49702900  0.89499300  1
  O  O8  1  0.86346000  0.32345900  0.75979700  1
  O  O9  1  0.57361200  0.59462100  0.13495800  1
  O  O10  1  0.31378100  0.58106700  0.89203400  1
  O  O11  1  0.04751900  0.50297100  0.10500700  1
  O  O12  1  0.63654000  0.32345900  0.25979700  1
  O  O13  1  0.68621900  0.41893300  0.10796600  1
  O  O14  1  0.13654000  0.67654100  0.24020300  1
  O  O15  1  0.42638800  0.40537900  0.86504200  1
  O  O16  1  0.54751900  0.49702900  0.39499300  1
  O  O17  1  0.36346000  0.67654100  0.74020300  1
  O  O18  1  0.93831700  0.26665200  0.07689800  1
  O  O19  1  0.98456600  0.25463100  0.23226800  1
  O  O20  1  0.56168300  0.26665200  0.57689800  1
  O  O21  1  0.01543400  0.74536900  0.76773200  1
  O  O22  1  0.45248100  0.50297100  0.60500700  1
  O  O23  1  0.18621900  0.58106700  0.39203400  1
loop_
_geom_bond_atom_site_label_1
_geom_bond_atom_site_label_2
_geom_bond_distance
_geom_bond_site_symmetry_2
B0 O13 1.371302 1_555
B0 O9 1.381777 1_555
B0 O12 1.385788 1_555
B1 O19 1.373467 1_555
B1 O18 1.375793 1_555
B1 O11 1.388311 1_655
B2 O23 1.371302 1_555
B2 O1 1.381777 1_555
B2 O14 1.385788 1_555
B3 O21 1.373467 1_555
B3 O6 1.375793 1_555
B3 O7 1.388311 1_455
B4 O0 1.371302 1_555
B4 O4 1.381777 1_555
B4 O8 1.385788 1_555
B5 O2 1.373467 1_555
B5 O20 1.375793 1_555
B5 O22 1.388311 1_555
B6 O10 1.371302 1_555
B6 O15 1.381777 1_555
B6 O17 1.385788 1_555
B7 O5 1.373467 1_555
B7 O3 1.375793 1_555
B7 O16 1.388311 1_555
H0 O11 1.003750 1_555
H1 N8 1.012014 1_554
H2 N16 1.012904 1_555
H3 O19 1.030268 1_555
H3 N22 1.639532 1_545
H4 O7 1.003750 1_555
H5 N14 1.011919 1_555
H6 N2 1.024969 1_555
H7 N11 1.012904 1_555
H8 O16 1.003750 1_555
H9 N3 1.025446 1_555
H10 O22 1.003750 1_555
H11 O15 1.003038 1_555
H11 O2 1.649712 1_555
H12 O21 1.030268 1_555
H12 N6 1.639532 1_565
H13 O12 1.017332 1_555
H13 N4 1.728267 1_555
H14 O8 1.017332 1_555
H14 N19 1.728267 1_555
H15 N14 1.012014 1_555
H16 N1 1.025446 1_554
H17 O18 0.995737 1_555
H18 N15 1.024969 1_555
H19 O1 1.003038 1_555
H19 O19 1.649712 1_455
H20 O10 1.017796 1_555
H20 N21 1.693320 1_556
H21 N20 1.012014 1_556
H22 O23 1.017796 1_555
H22 N5 1.693320 1_555
H23 O20 0.995737 1_555
H24 O2 1.030268 1_555
H24 N23 1.639532 1_545
H25 O3 0.995737 1_555
H26 O17 1.017332 1_555
H26 N9 1.728267 1_555
H27 O6 0.995737 1_555
H28 N15 1.029965 1_555
H29 N16 1.025446 1_556
H30 N1 1.012904 1_555
H31 N2 1.029965 1_555
H32 N3 1.012904 1_555
H33 N10 1.012014 1_555
H34 O0 1.017796 1_555
H34 N0 1.693320 1_555
H35 O5 1.030268 1_555
H35 N17 1.639532 1_565
H36 O4 1.003038 1_555
H36 O21 1.649712 1_655
H37 N7 1.029965 1_555
H38 N8 1.011919 1_555
H39 O9 1.003038 1_555
H39 O5 1.649712 1_555
H40 O13 1.017796 1_555
H40 N12 1.693320 1_554
H41 N13 1.029965 1_555
H42 N7 1.024969 1_555
H43 N13 1.024969 1_555
H44 N11 1.025446 1_555
H45 N20 1.011919 1_555
H46 N10 1.011919 1_555
H47 O14 1.017332 1_555
H47 N18 1.728267 1_555
C0 N15 1.338532 1_555
C0 N6 1.355315 1_565
C0 N9 1.357021 1_555
C1 N7 1.338532 1_555
C1 N22 1.355315 1_545
C1 N4 1.357021 1_555
C2 N4 1.347843 1_565
C2 N0 1.348189 1_555
C2 N14 1.349470 1_555
C3 N3 1.341624 1_555
C3 N6 1.350707 1_555
C3 N5 1.353063 1_555
C4 N18 1.347843 1_545
C4 N21 1.348189 1_555
C4 N20 1.349470 1_555
C5 N2 1.338532 1_555
C5 N17 1.355315 1_565
C5 N18 1.357021 1_555
C6 N1 1.341624 1_555
C6 N23 1.350707 1_555
C6 N12 1.353063 1_555
C7 N19 1.347843 1_565
C7 N12 1.348189 1_555
C7 N8 1.349470 1_555
C8 N11 1.341624 1_555
C8 N22 1.350707 1_555
C8 N0 1.353063 1_555
C9 N13 1.338532 1_555
C9 N23 1.355315 1_545
C9 N19 1.357021 1_555
C10 N16 1.341624 1_555
C10 N17 1.350707 1_555
C10 N21 1.353063 1_555
C11 N9 1.347843 1_545
C11 N5 1.348189 1_555
C11 N10 1.349470 1_555
