# generated using pymatgen
data_ZnS
_symmetry_space_group_name_H-M   'P 1'
_cell_length_a   3.80731566
_cell_length_b   3.80731553
_cell_length_c   31.14240284
_cell_angle_alpha   90.00000000
_cell_angle_beta   90.00000000
_cell_angle_gamma   120.00000114
_symmetry_Int_Tables_number   1
_chemical_formula_structural   ZnS
_chemical_formula_sum   'Zn10 S10'
_cell_volume   390.94935430
_cell_formula_units_Z   10
loop_
 _symmetry_equiv_pos_site_id
 _symmetry_equiv_pos_as_xyz
  1  'x, y, z'
loop_
 _atom_site_type_symbol
 _atom_site_label
 _atom_site_symmetry_multiplicity
 _atom_site_fract_x
 _atom_site_fract_y
 _atom_site_fract_z
 _atom_site_occupancy
  Zn  Zn0  1  0.66666700  0.33333300  0.20003375  1
  Zn  Zn1  1  -0.00000000  0.00000000  0.79997348  1
  Zn  Zn2  1  0.66666700  0.33333300  0.90003160  1
  Zn  Zn3  1  0.33333300  0.66666700  0.70003375  1
  Zn  Zn4  1  0.33333300  0.66666700  0.10004845  1
  Zn  Zn5  1  0.66666700  0.33333300  0.60004945  1
  Zn  Zn6  1  0.00000000  -0.00000000  0.00010105  1
  Zn  Zn7  1  0.33333300  0.66666700  0.40003160  1
  Zn  Zn8  1  0.00000000  -0.00000000  0.29997348  1
  Zn  Zn9  1  0.00000000  0.00000000  0.50010105  1
  S  S0  1  0.66666700  0.33333300  0.27493853  1
  S  S1  1  0.00000000  -0.00000000  0.07498882  1
  S  S2  1  0.66666700  0.33333300  0.67496975  1
  S  S3  1  0.00000000  0.00000000  0.87485692  1
  S  S4  1  0.33333300  0.66666700  0.77493853  1
  S  S5  1  0.00000000  0.00000000  0.57498882  1
  S  S6  1  0.33333300  0.66666700  0.17496875  1
  S  S7  1  0.33333300  0.66666700  0.47505566  1
  S  S8  1  0.66666700  0.33333300  0.97505566  1
  S  S9  1  0.00000000  -0.00000000  0.37485692  1
loop_
_geom_bond_atom_site_label_1
_geom_bond_atom_site_label_2
_geom_bond_distance
_geom_bond_site_symmetry_2
S0 Zn8 2.332322 1_655
S0 Zn8 2.332325 1_665
S0 Zn8 2.332325 1_555
S0 Zn0 2.332715 1_555
S1 Zn6 2.332185 1_555
S1 Zn4 2.332579 1_545
S1 Zn4 2.332582 1_555
S1 Zn4 2.332582 1_445
S2 Zn3 2.332625 1_545
S2 Zn3 2.332625 1_655
S2 Zn3 2.332631 1_555
S2 Zn5 2.333198 1_555
S3 Zn1 2.332050 1_555
S3 Zn2 2.333780 1_455
S3 Zn2 2.333783 1_445
S3 Zn2 2.333783 1_555
S4 Zn1 2.332322 1_565
S4 Zn1 2.332325 1_555
S4 Zn1 2.332325 1_665
S4 Zn3 2.332715 1_555
S5 Zn9 2.332185 1_555
S5 Zn5 2.332590 1_455
S5 Zn5 2.332593 1_445
S5 Zn5 2.332593 1_555
S6 Zn0 2.332635 1_565
S6 Zn0 2.332635 1_455
S6 Zn0 2.332641 1_555
S6 Zn4 2.333198 1_555
S7 Zn9 2.332431 1_565
S7 Zn9 2.332434 1_555
S7 Zn9 2.332434 1_665
S7 Zn7 2.336429 1_555
S8 Zn6 2.332431 1_656
S8 Zn6 2.332434 1_666
S8 Zn6 2.332434 1_556
S8 Zn2 2.336429 1_555
S9 Zn8 2.332050 1_555
S9 Zn7 2.333780 1_545
S9 Zn7 2.333783 1_555
S9 Zn7 2.333783 1_445
