# generated using pymatgen
data_Ge5Ir4
_symmetry_space_group_name_H-M   'P 1'
_cell_length_a   5.64895521
_cell_length_b   5.64895521
_cell_length_c   18.37100551
_cell_angle_alpha   90.00000000
_cell_angle_beta   90.00000000
_cell_angle_gamma   90.00000000
_symmetry_Int_Tables_number   1
_chemical_formula_structural   Ge5Ir4
_chemical_formula_sum   'Ge20 Ir16'
_cell_volume   586.23155302
_cell_formula_units_Z   4
loop_
 _symmetry_equiv_pos_site_id
 _symmetry_equiv_pos_as_xyz
  1  'x, y, z'
loop_
 _atom_site_type_symbol
 _atom_site_label
 _atom_site_symmetry_multiplicity
 _atom_site_fract_x
 _atom_site_fract_y
 _atom_site_fract_z
 _atom_site_occupancy
  Ge  Ge0  1  0.32186427  0.32186427  0.25000000  1
  Ge  Ge1  1  0.32186427  0.67813573  0.75000000  1
  Ge  Ge2  1  0.67813573  0.32186427  0.75000000  1
  Ge  Ge3  1  0.67813573  0.67813573  0.25000000  1
  Ge  Ge4  1  0.34093113  0.19632869  0.05545609  1
  Ge  Ge5  1  0.19632869  0.65906887  0.94454391  1
  Ge  Ge6  1  0.80367131  0.34093113  0.94454391  1
  Ge  Ge7  1  0.65906887  0.80367131  0.05545609  1
  Ge  Ge8  1  0.19632869  0.34093113  0.44454391  1
  Ge  Ge9  1  0.80367131  0.65906887  0.44454391  1
  Ge  Ge10  1  0.65906887  0.19632869  0.55545609  1
  Ge  Ge11  1  0.34093113  0.80367131  0.55545609  1
  Ge  Ge12  1  0.85336796  0.22491077  0.14474712  1
  Ge  Ge13  1  0.22491077  0.14663204  0.85525288  1
  Ge  Ge14  1  0.77508923  0.85336796  0.85525288  1
  Ge  Ge15  1  0.14663204  0.77508923  0.14474712  1
  Ge  Ge16  1  0.22491077  0.85336796  0.35525288  1
  Ge  Ge17  1  0.77508923  0.14663204  0.35525288  1
  Ge  Ge18  1  0.14663204  0.22491077  0.64474712  1
  Ge  Ge19  1  0.85336796  0.77508923  0.64474712  1
  Ir  Ir0  1  0.00000000  -0.00000000  0.25000000  1
  Ir  Ir1  1  0.00000000  -0.00000000  0.75000000  1
  Ir  Ir2  1  0.00000000  -0.00000000  0.00000000  1
  Ir  Ir3  1  0.00000000  -0.00000000  0.50000000  1
  Ir  Ir4  1  0.50000000  0.50000000  0.13621084  1
  Ir  Ir5  1  0.50000000  0.50000000  0.86378916  1
  Ir  Ir6  1  0.50000000  0.50000000  0.36378916  1
  Ir  Ir7  1  0.50000000  0.50000000  0.63621084  1
  Ir  Ir8  1  0.00000000  0.50000000  0.05564388  1
  Ir  Ir9  1  0.50000000  -0.00000000  0.94435612  1
  Ir  Ir10  1  0.50000000  -0.00000000  0.44435512  1
  Ir  Ir11  1  0.00000000  0.50000000  0.55564388  1
  Ir  Ir12  1  0.00000000  0.50000000  0.32382311  1
  Ir  Ir13  1  0.50000000  -0.00000000  0.67617689  1
  Ir  Ir14  1  0.50000000  -0.00000000  0.17617689  1
  Ir  Ir15  1  0.00000000  0.50000000  0.82382311  1
loop_
_geom_bond_atom_site_label_1
_geom_bond_atom_site_label_2
_geom_bond_distance
_geom_bond_site_symmetry_2
Ge0 Ir14 2.481478 1_555
Ge0 Ir12 2.481478 1_555
Ge0 Ir6 2.528846 1_555
Ge0 Ir4 2.528846 1_555
Ge0 Ir0 2.571319 1_555
Ge1 Ir13 2.481478 1_565
Ge1 Ir15 2.481478 1_555
Ge1 Ir7 2.528846 1_555
Ge1 Ir5 2.528846 1_555
Ge1 Ir1 2.571319 1_565
Ge2 Ir15 2.481478 1_655
Ge2 Ir13 2.481478 1_555
Ge2 Ir7 2.528846 1_555
Ge2 Ir5 2.528846 1_555
Ge2 Ir1 2.571319 1_655
Ge3 Ir14 2.481478 1_565
Ge3 Ir12 2.481478 1_655
Ge3 Ir4 2.528846 1_555
Ge3 Ir6 2.528846 1_555
Ge3 Ir0 2.571319 1_665
Ge4 Ir4 2.439473 1_555
Ge4 Ir2 2.444796 1_555
Ge4 Ir9 2.490619 1_554
Ge4 Ir8 2.579110 1_555
Ge4 Ir14 2.637404 1_555
Ge5 Ir5 2.439473 1_555
Ge5 Ir2 2.444796 1_566
Ge5 Ir8 2.490619 1_556
Ge5 Ir9 2.579110 1_565
Ge5 Ir15 2.637404 1_555
Ge6 Ir5 2.439473 1_555
Ge6 Ir2 2.444796 1_656
Ge6 Ir8 2.490619 1_656
Ge6 Ir9 2.579110 1_555
Ge6 Ir15 2.637404 1_655
Ge7 Ir4 2.439473 1_555
Ge7 Ir2 2.444796 1_665
Ge7 Ir9 2.490619 1_564
Ge7 Ir8 2.579110 1_655
Ge7 Ir14 2.637404 1_565
Ge8 Ir6 2.439473 1_555
Ge8 Ir3 2.444796 1_555
Ge8 Ir11 2.490619 1_555
Ge8 Ir10 2.579110 1_555
Ge8 Ir12 2.637404 1_555
Ge9 Ir6 2.439473 1_555
Ge9 Ir3 2.444796 1_665
Ge9 Ir11 2.490619 1_655
Ge9 Ir10 2.579110 1_565
Ge9 Ir12 2.637404 1_655
Ge10 Ir7 2.439473 1_555
Ge10 Ir3 2.444796 1_655
Ge10 Ir10 2.490634 1_555
Ge10 Ir11 2.579110 1_655
Ge10 Ir13 2.637404 1_555
Ge11 Ir7 2.439473 1_555
Ge11 Ir3 2.444796 1_565
Ge11 Ir10 2.490634 1_565
Ge11 Ir11 2.579110 1_555
Ge11 Ir13 2.637404 1_565
Ge12 Ir8 2.404250 1_655
Ge12 Ir14 2.435619 1_555
Ge12 Ir0 2.457463 1_655
Ge12 Ir4 2.534573 1_555
Ge13 Ir9 2.404250 1_555
Ge13 Ir15 2.435619 1_555
Ge13 Ir1 2.457463 1_555
Ge13 Ir5 2.534573 1_555
Ge14 Ir9 2.404250 1_565
Ge14 Ir15 2.435619 1_655
Ge14 Ir1 2.457463 1_665
Ge14 Ir5 2.534573 1_555
Ge15 Ir8 2.404250 1_555
Ge15 Ir14 2.435619 1_565
Ge15 Ir0 2.457463 1_565
Ge15 Ir4 2.534573 1_555
Ge16 Ir10 2.404237 1_565
Ge16 Ir12 2.435619 1_555
Ge16 Ir0 2.457463 1_565
Ge16 Ir6 2.534573 1_555
Ge17 Ir10 2.404237 1_555
Ge17 Ir12 2.435619 1_655
Ge17 Ir0 2.457463 1_655
Ge17 Ir6 2.534573 1_555
Ge18 Ir11 2.404250 1_555
Ge18 Ir13 2.435619 1_555
Ge18 Ir1 2.457463 1_555
Ge18 Ir7 2.534573 1_555
Ge19 Ir11 2.404250 1_655
Ge19 Ir13 2.435619 1_565
Ge19 Ir1 2.457463 1_665
Ge19 Ir7 2.534573 1_555
