# generated using pymatgen
data_Na5AlP2(O4F)2
_symmetry_space_group_name_H-M   'P 1'
_cell_length_a   10.58568154
_cell_length_b   10.58568154
_cell_length_c   6.67456800
_cell_angle_alpha   90.00000000
_cell_angle_beta   90.00000000
_cell_angle_gamma   119.99999714
_symmetry_Int_Tables_number   1
_chemical_formula_structural   Na5AlP2(O4F)2
_chemical_formula_sum   'Na15 Al3 P6 O24 F6'
_cell_volume   647.72618682
_cell_formula_units_Z   3
loop_
 _symmetry_equiv_pos_site_id
 _symmetry_equiv_pos_as_xyz
  1  'x, y, z'
loop_
 _atom_site_type_symbol
 _atom_site_label
 _atom_site_symmetry_multiplicity
 _atom_site_fract_x
 _atom_site_fract_y
 _atom_site_fract_z
 _atom_site_occupancy
  Na  Na0  1  0.66666700  0.33333300  0.91656500  1
  Na  Na1  1  0.33333300  0.66666700  0.52739500  1
  Na  Na2  1  0.16907700  0.85340900  0.26608100  1
  Na  Na3  1  0.14659100  0.31566900  0.26608100  1
  Na  Na4  1  0.83092300  0.14659100  0.73391900  1
  Na  Na5  1  0.85340900  0.68433100  0.73391900  1
  Na  Na6  1  0.68433100  0.83092300  0.26608100  1
  Na  Na7  1  0.00000000  0.50000000  0.00000000  1
  Na  Na8  1  0.66666700  0.33333300  0.47260500  1
  Na  Na9  1  0.31566900  0.16907700  0.73391900  1
  Na  Na10  1  0.00000000  0.00000000  0.00000000  1
  Na  Na11  1  0.33333300  0.66666700  0.08343500  1
  Na  Na12  1  0.50000000  0.00000000  0.00000000  1
  Na  Na13  1  0.00000000  0.00000000  0.50000000  1
  Na  Na14  1  0.50000000  0.50000000  0.00000000  1
  Al  Al0  1  0.50000000  0.50000000  0.50000000  1
  Al  Al1  1  0.50000000  0.00000000  0.50000000  1
  Al  Al2  1  0.00000000  0.50000000  0.50000000  1
  P  P0  1  0.81371800  0.18440500  0.25066500  1
  P  P1  1  0.37068700  0.18628200  0.25066500  1
  P  P2  1  0.62931300  0.81371800  0.74933500  1
  P  P3  1  0.18628200  0.81559500  0.74933500  1
  P  P4  1  0.81559500  0.62931300  0.25066500  1
  P  P5  1  0.18440500  0.37068700  0.74933500  1
  O  O0  1  0.56933700  0.69591500  0.57905900  1
  O  O1  1  0.42982700  0.08030400  0.29988000  1
  O  O2  1  0.12657800  0.43066300  0.57905900  1
  O  O3  1  0.69591500  0.12657800  0.42094100  1
  O  O4  1  0.57017300  0.91969600  0.70012000  1
  O  O5  1  0.90112800  0.79793500  0.25634900  1
  O  O6  1  0.43121700  0.25597300  0.04512200  1
  O  O7  1  0.08030400  0.65047600  0.70012000  1
  O  O8  1  0.56878300  0.74402700  0.95487800  1
  O  O9  1  0.89680700  0.09887200  0.25634900  1
  O  O10  1  0.10319300  0.90112800  0.74365100  1
  O  O11  1  0.65047600  0.57017300  0.29988000  1
  O  O12  1  0.20206500  0.10319300  0.25634900  1
  O  O13  1  0.87342200  0.56933700  0.42094100  1
  O  O14  1  0.91969600  0.34952400  0.29988000  1
  O  O15  1  0.30408500  0.87342200  0.57905900  1
  O  O16  1  0.74402700  0.17524400  0.04512200  1
  O  O17  1  0.43066300  0.30408500  0.42094100  1
  O  O18  1  0.25597300  0.82475600  0.95487800  1
  O  O19  1  0.09887200  0.20206500  0.74365100  1
  O  O20  1  0.82475600  0.56878300  0.04512200  1
  O  O21  1  0.79793500  0.89680700  0.74365100  1
  O  O22  1  0.34952400  0.42982700  0.70012000  1
  O  O23  1  0.17524400  0.43121700  0.95487800  1
  F  F0  1  0.86280600  0.38453300  0.68983100  1
  F  F1  1  0.61546700  0.47827300  0.68983100  1
  F  F2  1  0.38453300  0.52172700  0.31016900  1
  F  F3  1  0.47827300  0.86280600  0.31016900  1
  F  F4  1  0.52172700  0.13719400  0.68983100  1
  F  F5  1  0.13719400  0.61546700  0.31016900  1
loop_
_geom_bond_atom_site_label_1
_geom_bond_atom_site_label_2
_geom_bond_distance
_geom_bond_site_symmetry_2
Na0 O16 2.361746 1_556
Na0 O20 2.361753 1_556
Na0 O6 2.361755 1_556
Na1 O15 2.383810 1_555
Na1 O2 2.383817 1_555
Na1 O0 2.383821 1_555
Na1 O7 2.841422 1_555
Na1 O4 2.841431 1_555
Na1 O22 2.841441 1_555
Na2 O18 2.351949 1_554
Na2 O15 2.479613 1_555
Na2 O12 2.488829 1_565
Na2 O5 2.593978 1_455
Na2 O1 2.609391 1_565
Na3 O23 2.351944 1_554
Na3 O2 2.479607 1_555
Na3 O9 2.488834 1_455
Na3 O12 2.593988 1_555
Na3 O14 2.609391 1_455
Na4 O16 2.351949 1_556
Na4 O3 2.479613 1_555
Na4 O21 2.488829 1_545
Na4 O19 2.593978 1_655
Na4 O4 2.609391 1_545
Na5 O20 2.351944 1_556
Na5 O13 2.479607 1_555
Na5 O10 2.488834 1_655
Na5 O21 2.593988 1_555
Na5 O7 2.609391 1_655
Na6 O8 2.351946 1_554
Na6 O0 2.479611 1_555
Na6 O5 2.488840 1_555
Na6 O9 2.593981 1_565
Na6 O11 2.609391 1_555
Na7 O23 2.326559 1_554
Na7 O20 2.326559 1_455
Na7 O7 2.431488 1_554
Na7 O14 2.431488 1_455
Na8 O3 2.383810 1_555
Na8 O13 2.383817 1_555
Na8 O17 2.383821 1_555
Na8 O14 2.841422 1_555
Na8 O1 2.841431 1_555
Na8 O11 2.841441 1_555
Na9 O6 2.351946 1_556
Na9 O17 2.479611 1_555
Na9 O19 2.488840 1_555
Na9 O10 2.593981 1_545
Na9 O22 2.609391 1_555
Na10 O10 2.521822 1_544
Na10 O9 2.521822 1_455
Na10 O5 2.521822 1_445
Na10 O19 2.521822 1_554
Na10 O12 2.521822 1_555
Na10 O21 2.521822 1_444
Na11 O18 2.361746 1_554
Na11 O23 2.361753 1_554
Na11 O8 2.361755 1_554
Na12 O16 2.326559 1_555
Na12 O18 2.326559 1_544
Na12 O4 2.431493 1_544
Na12 O1 2.431493 1_555
Na13 O10 2.465104 1_545
Na13 O9 2.465104 1_455
Na13 O19 2.465104 1_555
Na13 O5 2.465104 1_445
Na13 O12 2.465104 1_555
Na13 O21 2.465104 1_445
Na14 O6 2.326559 1_555
Na14 O8 2.326559 1_554
Na14 O11 2.431487 1_555
Na14 O22 2.431487 1_554
Al0 F1 1.852949 1_555
Al0 F2 1.852949 1_555
Al0 O0 1.896317 1_555
Al0 O17 1.896317 1_555
Al0 O11 1.920933 1_555
Al0 O22 1.920933 1_555
Al1 F4 1.852949 1_555
Al1 F3 1.852949 1_545
Al1 O3 1.896317 1_555
Al1 O15 1.896317 1_545
Al1 O4 1.920940 1_545
Al1 O1 1.920940 1_555
Al2 F5 1.852949 1_555
Al2 F0 1.852949 1_455
Al2 O2 1.896317 1_555
Al2 O13 1.896317 1_455
Al2 O7 1.920934 1_555
Al2 O14 1.920934 1_455
O0 P2 1.567835 1_555
O1 P1 1.568660 1_555
O2 P5 1.567835 1_555
O3 P0 1.567835 1_555
O4 P2 1.568660 1_555
O5 P4 1.546357 1_555
O6 P1 1.537609 1_555
O7 P3 1.568668 1_555
O8 P2 1.537609 1_555
O9 P0 1.546357 1_555
O10 P3 1.546357 1_555
O11 P4 1.568669 1_555
O12 P1 1.546357 1_555
O13 P4 1.567835 1_555
O14 P0 1.568668 1_555
O15 P3 1.567835 1_555
O16 P0 1.537609 1_555
O17 P1 1.567835 1_555
O18 P3 1.537609 1_555
O19 P5 1.546357 1_555
O20 P4 1.537609 1_555
O21 P2 1.546357 1_555
O22 P5 1.568669 1_555
O23 P5 1.537609 1_555
F0 Na8 2.362519 1_555
F0 Na4 2.386347 1_555
F0 Na0 2.401989 1_555
F0 Na7 2.472638 1_656
F1 Na8 2.362527 1_555
F1 Na5 2.386343 1_555
F1 Na0 2.401997 1_555
F1 Na14 2.472638 1_556
F2 Na1 2.362527 1_555
F2 Na3 2.386343 1_555
F2 Na11 2.401997 1_555
F2 Na14 2.472638 1_555
F3 Na1 2.362522 1_555
F3 Na6 2.386336 1_555
F3 Na11 2.401991 1_555
F3 Na12 2.472638 1_565
F4 Na8 2.362522 1_555
F4 Na9 2.386336 1_555
F4 Na0 2.401991 1_555
F4 Na12 2.472638 1_556
F5 Na1 2.362519 1_555
F5 Na2 2.386347 1_555
F5 Na11 2.401989 1_555
F5 Na7 2.472638 1_555
