# generated using pymatgen
data_LaCo9Si4
_symmetry_space_group_name_H-M   'P 1'
_cell_length_a   7.96860753
_cell_length_b   7.96861194
_cell_length_c   7.96950582
_cell_angle_alpha   122.05540262
_cell_angle_beta   122.05534169
_cell_angle_gamma   86.48776512
_symmetry_Int_Tables_number   1
_chemical_formula_structural   LaCo9Si4
_chemical_formula_sum   'La2 Co18 Si8'
_cell_volume   345.96930077
_cell_formula_units_Z   2
loop_
 _symmetry_equiv_pos_site_id
 _symmetry_equiv_pos_as_xyz
  1  'x, y, z'
loop_
 _atom_site_type_symbol
 _atom_site_label
 _atom_site_symmetry_multiplicity
 _atom_site_fract_x
 _atom_site_fract_y
 _atom_site_fract_z
 _atom_site_occupancy
  La  La0  1  0.75001849  0.74998470  -0.00000212  1
  La  La1  1  0.24998764  0.25001930  0.00000426  1
  Co  Co0  1  0.93244091  0.80290190  0.73532129  1
  Co  Co1  1  0.80722687  0.30722610  0.75459211  1
  Co  Co2  1  0.30715098  0.55266602  0.49998165  1
  Co  Co3  1  0.19277170  0.69277252  0.24540512  1
  Co  Co4  1  0.69284586  0.44734151  0.50001758  1
  Co  Co5  1  0.94734076  0.19284539  0.50001598  1
  Co  Co6  1  0.06755565  0.19709534  0.26468116  1
  Co  Co7  1  0.30290054  0.43244037  0.73531958  1
  Co  Co8  1  0.05266628  0.80715216  0.49998258  1
  Co  Co9  1  0.56755083  0.30291791  0.87045505  1
  Co  Co10  1  0.44727593  0.94727445  0.75433598  1
  Co  Co11  1  0.80292087  0.06755233  0.87045920  1
  Co  Co12  1  0.43245322  0.69708673  0.12954407  1
  Co  Co13  1  0.69709414  0.56755591  0.26468054  1
  Co  Co14  1  0.19708768  0.93245370  0.12954567  1
  Co  Co15  1  0.00000445  0.50000479  0.49999661  1
  Co  Co16  1  0.55271968  0.05271989  0.24565667  1
  Co  Co17  1  0.49999090  -0.00000893  0.50000655  1
  Si  Si0  1  0.29101243  0.79101425  0.83484541  1
  Si  Si1  1  0.79101423  0.95615210  0.50001118  1
  Si  Si2  1  0.95614900  0.45614961  0.16519295  1
  Si  Si3  1  0.45615372  0.29101361  0.50001035  1
  Si  Si4  1  0.04385611  0.54385776  0.83481628  1
  Si  Si5  1  0.20898537  0.04384003  0.49998673  1
  Si  Si6  1  0.70898502  0.20898362  0.16514850  1
  Si  Si7  1  0.54384072  0.70898693  0.49998907  1
loop_
_geom_bond_atom_site_label_1
_geom_bond_atom_site_label_2
_geom_bond_distance
_geom_bond_site_symmetry_2
La0 Si5 3.226879 1_665
La0 Si3 3.226904 1_554
La0 Si6 3.227611 1_565
La0 Si0 3.227652 1_554
La0 Si4 3.227823 1_654
La0 Si2 3.227870 1_555
La0 Si7 3.227909 1_554
La0 Si1 3.227960 1_555
La1 Si7 3.226871 1_555
La1 Si1 3.226928 1_444
La1 Si6 3.227611 1_555
La1 Si0 3.227629 1_544
La1 Si2 3.227866 1_455
La1 Si4 3.227867 1_554
La1 Si3 3.227916 1_555
La1 Si5 3.227950 1_554
Co0 Co14 2.274829 1_656
Co0 Co11 2.274836 1_565
Co0 Co15 2.395932 1_655
Co0 Si7 2.509159 1_555
Co0 Si1 2.509398 1_555
Co0 Co4 2.532197 1_555
Co0 Co8 2.532838 1_655
Co0 Si0 2.538364 1_655
Co0 Si4 2.538420 1_655
Co0 Co13 2.569085 1_555
Co0 La1 3.317836 1_666
Co0 La0 3.318770 1_556
Co1 Si4 2.322959 1_655
Co1 Si2 2.335165 1_556
Co1 Si3 2.387597 1_555
Co1 Si1 2.387599 1_545
Co1 Co17 2.508654 1_555
Co1 Co9 2.532800 1_555
Co1 Co11 2.532806 1_555
Co1 Co5 2.551565 1_555
Co1 Co4 2.551566 1_555
Co1 La0 3.147326 1_556
Co1 La1 3.147340 1_656
Co2 Si7 2.323071 1_555
Co2 Si3 2.335366 1_555
Co2 Si2 2.386922 1_455
Co2 Si0 2.387454 1_555
Co2 Co6 2.532267 1_555
Co2 Co7 2.532836 1_555
Co2 Co3 2.551521 1_555
Co2 La0 3.147600 1_556
Co2 La1 3.147732 1_555
Co3 Si2 2.322928 1_455
Co3 Si4 2.335107 1_554
Co3 Si5 2.387560 1_565
Co3 Si7 2.387571 1_555
Co3 Co8 2.551518 1_555
Co3 La0 3.147307 1_455
Co3 La1 3.147313 1_555
Co4 Si3 2.323121 1_555
Co4 Si7 2.335327 1_555
Co4 Si4 2.386988 1_655
Co4 Si6 2.387503 1_555
Co4 La1 3.147552 1_555
Co4 La0 3.147711 1_556
Co5 Si1 2.323137 1_545
Co5 Si5 2.335322 1_655
Co5 Si4 2.387002 1_655
Co5 Si6 2.387488 1_555
Co5 Co7 2.532193 1_655
Co5 Co6 2.532743 1_655
Co5 La0 3.147576 1_545
Co5 La1 3.147761 1_656
Co6 Si3 2.509145 1_555
Co6 Si5 2.509406 1_555
Co6 Si6 2.538339 1_455
Co6 Si2 2.538458 1_455
Co6 Co7 2.569072 1_555
Co6 La0 3.317756 1_445
Co6 La1 3.318859 1_555
Co7 Co9 2.274844 1_555
Co7 Si5 2.509159 1_555
Co7 Si3 2.509411 1_555
Co7 Si0 2.538379 1_555
Co7 Si4 2.538430 1_555
Co7 La0 3.317843 1_556
Co7 La1 3.318807 1_556
Co8 Si5 2.323069 1_565
Co8 Si1 2.335353 1_455
Co8 Si2 2.386925 1_455
Co8 Si0 2.387444 1_555
Co8 La1 3.147613 1_566
Co8 La0 3.147764 1_455
Co9 Si2 2.509031 1_556
Co9 Si6 2.509836 1_556
Co9 Si5 2.537956 1_555
Co9 Si3 2.538522 1_555
Co9 La0 3.317931 1_556
Co9 La1 3.318606 1_556
Co10 Si0 2.323522 1_555
Co10 Si6 2.335610 1_566
Co10 Si7 2.386943 1_555
Co10 Si5 2.386969 1_565
Co10 Co17 2.508055 1_565
Co10 Co9 2.532573 1_565
Co10 Co11 2.532576 1_565
Co10 Co2 2.550537 1_555
Co10 Co8 2.550544 1_555
Co10 La0 3.148561 1_556
Co10 La1 3.148582 1_566
Co11 Co6 2.274811 1_656
Co11 Co17 2.395906 1_555
Co11 Si2 2.509023 1_556
Co11 Si6 2.509817 1_556
Co11 Si7 2.537962 1_545
Co11 Si1 2.538530 1_545
Co11 Co9 2.569904 1_555
Co11 La1 3.317919 1_656
Co11 La0 3.318585 1_546
Co12 Co7 2.274826 1_554
Co12 Co13 2.274841 1_555
Co12 Co17 2.395944 1_565
Co12 Si4 2.509021 1_554
Co12 Si0 2.509827 1_554
Co12 Co16 2.532501 1_565
Co12 Co3 2.532842 1_555
Co12 Si1 2.537908 1_555
Co12 Si7 2.538563 1_555
Co12 Co14 2.569887 1_555
Co12 La1 3.317942 1_555
Co12 La0 3.318601 1_555
Co13 Co9 2.274833 1_554
Co13 Co15 2.395911 1_655
Co13 Si1 2.509131 1_555
Co13 Si7 2.509409 1_555
Co13 Co8 2.532276 1_655
Co13 Co4 2.532752 1_555
Co13 Si6 2.538357 1_555
Co13 Si2 2.538458 1_555
Co13 La1 3.317747 1_555
Co13 La0 3.318884 1_555
Co14 Co6 2.274848 1_565
Co14 Co17 2.395935 1_565
Co14 Si4 2.509016 1_554
Co14 Si0 2.509820 1_554
Co14 Co16 2.532496 1_565
Co14 Co3 2.532835 1_555
Co14 Si3 2.537902 1_565
Co14 Si5 2.538546 1_565
Co14 La0 3.317932 1_455
Co14 La1 3.318581 1_565
Co15 Si0 2.323295 1_555
Co15 Si6 2.323378 1_455
Co15 Si2 2.323588 1_455
Co15 Si4 2.323735 1_555
Co15 Co6 2.395905 1_555
Co15 Co7 2.395927 1_555
Co15 Co2 2.508526 1_555
Co15 Co8 2.508530 1_555
Co15 Co4 2.508653 1_455
Co15 Co5 2.508654 1_455
Co16 Si6 2.323544 1_555
Co16 Si0 2.335597 1_544
Co16 Si3 2.386998 1_555
Co16 Si1 2.387017 1_545
Co16 Co17 2.508341 1_555
Co16 Co5 2.550618 1_555
Co16 Co4 2.550621 1_555
Co16 La1 3.148551 1_555
Co16 La0 3.148580 1_545
Co17 Si7 2.323751 1_545
Co17 Si5 2.323752 1_555
Co17 Si3 2.323936 1_555
Co17 Si1 2.323940 1_545
Co17 Co9 2.395880 1_555
Co17 Co3 2.508465 1_545
