# generated using pymatgen
data_MgB4(H9O8)2
_symmetry_space_group_name_H-M   'P 1'
_cell_length_a   7.87413300
_cell_length_b   8.85661653
_cell_length_c   10.66171159
_cell_angle_alpha   97.65603491
_cell_angle_beta   102.89997051
_cell_angle_gamma   108.64297857
_symmetry_Int_Tables_number   1
_chemical_formula_structural   MgB4(H9O8)2
_chemical_formula_sum   'Mg2 B8 H36 O32'
_cell_volume   669.67341595
_cell_formula_units_Z   2
loop_
 _symmetry_equiv_pos_site_id
 _symmetry_equiv_pos_as_xyz
  1  'x, y, z'
loop_
 _atom_site_type_symbol
 _atom_site_label
 _atom_site_symmetry_multiplicity
 _atom_site_fract_x
 _atom_site_fract_y
 _atom_site_fract_z
 _atom_site_occupancy
  Mg  Mg0  1  0.12973100  0.82696000  0.22558600  1
  Mg  Mg1  1  0.87026900  0.17304000  0.77441400  1
  B  B0  1  0.48370200  0.18269100  0.30345200  1
  B  B1  1  0.51629800  0.81730900  0.69654800  1
  B  B2  1  0.52780200  0.22635900  0.08201100  1
  B  B3  1  0.47219800  0.77364100  0.91798900  1
  B  B4  1  0.79712500  0.28130100  0.27646900  1
  B  B5  1  0.20287500  0.71869900  0.72353100  1
  B  B6  1  0.69182100  0.46680100  0.41227800  1
  B  B7  1  0.30817900  0.53319900  0.58772200  1
  H  H0  1  0.34427300  0.07457400  0.42773700  1
  H  H1  1  0.65572700  0.92542600  0.57226300  1
  H  H2  1  0.53233800  0.23465700  0.89460700  1
  H  H3  1  0.46766200  0.76534300  0.10539300  1
  H  H4  1  0.06501000  0.30136000  0.37631300  1
  H  H5  1  0.93499000  0.69864000  0.62368700  1
  H  H6  1  0.63376100  0.62757200  0.53334100  1
  H  H7  1  0.36623900  0.37242800  0.46665900  1
  H  H8  1  0.85592500  0.50268100  0.12533900  1
  H  H9  1  0.14407500  0.49731900  0.87466100  1
  H  H10  1  0.87676200  0.60574100  0.01388500  1
  H  H11  1  0.12323800  0.39425900  0.98611500  1
  H  H12  1  0.18924800  0.83363800  0.98198100  1
  H  H13  1  0.81075200  0.16636200  0.01801900  1
  H  H14  1  0.22477700  0.00793500  0.06768800  1
  H  H15  1  0.77522300  0.99206500  0.93231200  1
  H  H16  1  0.29864600  0.60071500  0.20105100  1
  H  H17  1  0.70135400  0.39928500  0.79894900  1
  H  H18  1  0.45368700  0.77159000  0.29575200  1
  H  H19  1  0.54631300  0.22841000  0.70424800  1
  H  H20  1  0.18989500  0.77392900  0.48544400  1
  H  H21  1  0.81010500  0.22607100  0.51455600  1
  H  H22  1  0.01014500  0.62911200  0.38617000  1
  H  H23  1  0.98985500  0.37088800  0.61383000  1
  H  H24  1  0.94575900  0.04606300  0.24891800  1
  H  H25  1  0.05424100  0.95393700  0.75108200  1
  H  H26  1  0.80017500  0.87557800  0.16083200  1
  H  H27  1  0.19982500  0.12442200  0.83916800  1
  H  H28  1  0.28458300  0.33044300  0.15462400  1
  H  H29  1  0.71541700  0.66955700  0.84537600  1
  H  H30  1  0.11011200  0.34777800  0.19472100  1
  H  H31  1  0.88988800  0.65222200  0.80527900  1
  H  H32  1  0.67084400  0.99352900  0.37060000  1
  H  H33  1  0.32915600  0.00647100  0.62940000  1
  H  H34  1  0.75666200  0.85596300  0.39726400  1
  H  H35  1  0.24333800  0.14403700  0.60273600  1
  O  O0  1  0.41040500  0.19265200  0.16194000  1
  O  O1  1  0.58959500  0.80734800  0.83806000  1
  O  O2  1  0.71928000  0.27524900  0.13179800  1
  O  O3  1  0.28072000  0.72475100  0.86820200  1
  O  O4  1  0.82650100  0.44673500  0.35537200  1
  O  O5  1  0.17349900  0.55326500  0.64462800  1
  O  O6  1  0.52102600  0.34431100  0.39121100  1
  O  O7  1  0.47897400  0.65568900  0.60878900  1
  O  O8  1  0.66285600  0.15722900  0.32045600  1
  O  O9  1  0.33714400  0.84277100  0.67954400  1
  O  O10  1  0.33951400  0.05265800  0.33257000  1
  O  O11  1  0.66048600  0.94734200  0.66743000  1
  O  O12  1  0.44401300  0.20807000  0.95023700  1
  O  O13  1  0.55598700  0.79193000  0.04976300  1
  O  O14  1  0.97350800  0.25621200  0.28728400  1
  O  O15  1  0.02649200  0.74378800  0.71271600  1
  O  O16  1  0.73466500  0.61725600  0.49315600  1
  O  O17  1  0.26533500  0.38274400  0.50684400  1
  O  O18  1  0.92174500  0.61004000  0.11015900  1
  O  O19  1  0.07825500  0.38996000  0.88984100  1
  O  O20  1  0.14438300  0.89103000  0.04582300  1
  O  O21  1  0.85561700  0.10897000  0.95417700  1
  O  O22  1  0.34377700  0.72328200  0.21479000  1
  O  O23  1  0.65622300  0.27671800  0.78521000  1
  O  O24  1  0.10829600  0.73730800  0.39439900  1
  O  O25  1  0.89170400  0.26269200  0.60560100  1
  O  O26  1  0.91994800  0.92631300  0.23115300  1
  O  O27  1  0.08005200  0.07368700  0.76884700  1
  O  O28  1  0.20615600  0.39887900  0.14964000  1
  O  O29  1  0.79384400  0.60112100  0.85036000  1
  O  O30  1  0.65572800  0.89311800  0.40900800  1
  O  O31  1  0.34427200  0.10688200  0.59099200  1
loop_
_geom_bond_atom_site_label_1
_geom_bond_atom_site_label_2
_geom_bond_distance
_geom_bond_site_symmetry_2
Mg0 O24 2.080647 1_555
Mg0 O18 2.084723 1_455
Mg0 O20 2.086921 1_555
Mg0 O10 2.113175 1_565
Mg0 O26 2.113196 1_455
Mg0 O22 2.178298 1_555
Mg1 O25 2.080647 1_555
Mg1 O19 2.084723 1_655
Mg1 O21 2.086921 1_555
Mg1 O11 2.113175 1_545
Mg1 O27 2.113196 1_655
Mg1 O23 2.178298 1_555
B0 O10 1.458902 1_555
B0 O8 1.474393 1_555
B0 O6 1.504047 1_555
B0 O0 1.515407 1_555
B1 O11 1.458902 1_555
B1 O9 1.474393 1_555
B1 O7 1.504047 1_555
B1 O1 1.515407 1_555
B2 O12 1.375696 1_554
B2 O2 1.380764 1_555
B2 O0 1.383087 1_555
B3 O13 1.375696 1_556
B3 O3 1.380764 1_555
B3 O1 1.383087 1_555
B4 O14 1.457477 1_555
B4 O8 1.470083 1_555
B4 O4 1.508633 1_555
B4 O2 1.514113 1_555
B5 O15 1.457477 1_555
B5 O9 1.470083 1_555
B5 O5 1.508633 1_555
B5 O3 1.514113 1_555
B6 O4 1.379627 1_555
B6 O6 1.379645 1_555
B6 O16 1.381856 1_555
B7 O5 1.379627 1_555
B7 O7 1.379645 1_555
B7 O17 1.381856 1_555
H0 O10 0.997235 1_555
H1 O11 0.997235 1_555
H2 O12 1.003800 1_555
H3 O13 1.003800 1_555
H4 O14 0.994638 1_455
H5 O15 0.994638 1_655
H6 O16 1.005566 1_555
H6 O7 1.665237 1_555
H7 O17 1.005566 1_555
H7 O6 1.665237 1_555
H8 O18 0.980962 1_555
H9 O19 0.980962 1_555
H10 O18 0.999565 1_555
H11 O19 0.999565 1_555
H12 O20 0.988159 1_556
H13 O21 0.988159 1_554
H14 O20 0.988861 1_545
H15 O21 0.988861 1_565
H16 O22 1.006912 1_555
H17 O23 1.006912 1_555
H18 O22 1.004220 1_555
H19 O23 1.004220 1_555
H20 O24 0.982180 1_555
H21 O25 0.982180 1_555
H22 O24 0.998539 1_555
H23 O25 0.998539 1_555
H24 O26 0.996738 1_545
H25 O27 0.996738 1_565
H26 O26 0.988462 1_555
H27 O27 0.988462 1_555
H28 O28 0.992367 1_555
H29 O29 0.992367 1_555
H30 O28 1.004595 1_555
H31 O29 1.004595 1_555
H32 O30 1.011846 1_555
H32 O8 1.625298 1_565
H33 O31 1.011846 1_555
H33 O9 1.625298 1_545
H34 O30 0.977896 1_555
H35 O31 0.977896 1_555
