# generated using pymatgen
data_Ba9Sm6Cl34
_symmetry_space_group_name_H-M   'P 1'
_cell_length_a   13.49228580
_cell_length_b   13.49228580
_cell_length_c   13.49228580
_cell_angle_alpha   130.23414193
_cell_angle_beta   130.23414193
_cell_angle_gamma   73.03272700
_symmetry_Int_Tables_number   1
_chemical_formula_structural   Ba9Sm6Cl34
_chemical_formula_sum   'Ba9 Sm6 Cl34'
_cell_volume   1397.92491196
_cell_formula_units_Z   1
loop_
 _symmetry_equiv_pos_site_id
 _symmetry_equiv_pos_as_xyz
  1  'x, y, z'
loop_
 _atom_site_type_symbol
 _atom_site_label
 _atom_site_symmetry_multiplicity
 _atom_site_fract_x
 _atom_site_fract_y
 _atom_site_fract_z
 _atom_site_occupancy
  Ba  Ba0  1  0.79369900  0.97435100  0.45295300  1
  Ba  Ba1  1  0.02564900  0.47860100  0.81934700  1
  Ba  Ba2  1  0.65925400  0.20630100  0.18065300  1
  Ba  Ba3  1  0.20630100  0.02564900  0.54704700  1
  Ba  Ba4  1  0.47860100  0.65925400  0.45295300  1
  Ba  Ba5  1  0.97435100  0.52139900  0.18065300  1
  Ba  Ba6  1  0.50000000  0.50000000  0.00000000  1
  Ba  Ba7  1  0.34074600  0.79369900  0.81934700  1
  Ba  Ba8  1  0.52139900  0.34074600  0.54704700  1
  Sm  Sm0  1  0.81414000  0.81414000  0.00000000  1
  Sm  Sm1  1  0.68069800  0.10611400  0.78681200  1
  Sm  Sm2  1  0.31930200  0.89388600  0.21318800  1
  Sm  Sm3  1  0.18586000  0.18586000  0.00000000  1
  Sm  Sm4  1  0.10611400  0.31930200  0.42541600  1
  Sm  Sm5  1  0.89388600  0.68069800  0.57458400  1
  Cl  Cl0  1  0.55012100  0.65241500  0.72060400  1
  Cl  Cl1  1  0.92430400  0.42430400  0.50000000  1
  Cl  Cl2  1  0.07569600  0.57569600  0.50000000  1
  Cl  Cl3  1  0.33171100  0.63442800  0.12595800  1
  Cl  Cl4  1  0.14067500  0.72294700  0.86362100  1
  Cl  Cl5  1  0.44987900  0.34758500  0.27939600  1
  Cl  Cl6  1  0.72294700  0.85932500  0.58227200  1
  Cl  Cl7  1  0.33029200  0.05085200  0.13929700  1
  Cl  Cl8  1  0.65241500  0.93181100  0.10229500  1
  Cl  Cl9  1  0.91155500  0.19099500  0.86070300  1
  Cl  Cl10  1  0.17048300  0.44987900  0.10229500  1
  Cl  Cl11  1  0.34758500  0.06818900  0.89770500  1
  Cl  Cl12  1  0.57569600  0.07569600  0.50000000  1
  Cl  Cl13  1  0.49153000  0.79424600  0.12595800  1
  Cl  Cl14  1  0.94914800  0.08844500  0.27944000  1
  Cl  Cl15  1  0.66828900  0.36557200  0.87404200  1
  Cl  Cl16  1  0.19099500  0.33029200  0.27944000  1
  Cl  Cl17  1  0.42430400  0.92430400  0.50000000  1
  Cl  Cl18  1  0.27705300  0.14067500  0.41772800  1
  Cl  Cl19  1  0.05085200  0.91155500  0.72056000  1
  Cl  Cl20  1  0.25000000  0.75000000  0.50000000  1
  Cl  Cl21  1  0.06818900  0.17048300  0.72060400  1
  Cl  Cl22  1  0.50847000  0.20575400  0.87404200  1
  Cl  Cl23  1  0.20575400  0.33171100  0.69728300  1
  Cl  Cl24  1  0.80900500  0.66970800  0.72056000  1
  Cl  Cl25  1  0.85932500  0.27705300  0.13637900  1
  Cl  Cl26  1  0.08844500  0.80900500  0.13929700  1
  Cl  Cl27  1  0.79424600  0.66828900  0.30271700  1
  Cl  Cl28  1  0.66970800  0.94914800  0.86070300  1
  Cl  Cl29  1  0.36557200  0.49153000  0.69728300  1
  Cl  Cl30  1  0.63442800  0.50847000  0.30271700  1
  Cl  Cl31  1  0.82951700  0.55012100  0.89770500  1
  Cl  Cl32  1  0.93181100  0.82951700  0.27939600  1
  Cl  Cl33  1  0.75000000  0.25000000  0.50000000  1
loop_
_geom_bond_atom_site_label_1
_geom_bond_atom_site_label_2
_geom_bond_distance
_geom_bond_site_symmetry_2
Ba0 Cl21 3.139666 1_665
Ba0 Cl12 3.141261 1_565
Ba0 Cl27 3.217095 1_555
Ba0 Cl32 3.221007 1_555
Ba0 Cl13 3.269222 1_555
Ba0 Cl33 3.276650 1_565
Ba0 Cl8 3.439064 1_555
Ba0 Cl19 3.441726 1_655
Ba0 Cl9 3.460760 1_565
Ba0 Cl6 3.588689 1_555
Ba1 Cl31 3.139664 1_455
Ba1 Cl1 3.141255 1_455
Ba1 Cl3 3.217099 1_556
Ba1 Cl10 3.221021 1_556
Ba1 Cl23 3.269222 1_555
Ba1 Cl33 3.276645 1_455
Ba1 Cl21 3.439068 1_555
Ba1 Cl26 3.441737 1_556
Ba1 Cl24 3.460766 1_455
Ba1 Cl4 3.588702 1_555
Ba2 Cl8 3.139666 1_545
Ba2 Cl1 3.141261 1_555
Ba2 Cl22 3.217116 1_554
Ba2 Cl11 3.221006 1_554
Ba2 Cl30 3.269222 1_555
Ba2 Cl33 3.276637 1_555
Ba2 Cl5 3.439069 1_555
Ba2 Cl28 3.441734 1_544
Ba2 Cl14 3.460761 1_555
Ba2 Cl25 3.588689 1_555
Ba3 Cl32 3.139666 1_445
Ba3 Cl17 3.141261 1_545
Ba3 Cl23 3.217095 1_555
Ba3 Cl21 3.221007 1_555
Ba3 Cl22 3.269222 1_555
Ba3 Cl20 3.276650 1_545
Ba3 Cl11 3.439064 1_555
Ba3 Cl14 3.441726 1_455
Ba3 Cl26 3.460760 1_545
Ba3 Cl18 3.588689 1_555
Ba4 Cl0 3.139660 1_555
Ba4 Cl17 3.141261 1_555
Ba4 Cl30 3.217107 1_555
Ba4 Cl5 3.221007 1_555
Ba4 Cl3 3.269222 1_555
Ba4 Cl20 3.276637 1_555
Ba4 Cl10 3.439068 1_555
Ba4 Cl24 3.441734 1_555
Ba4 Cl28 3.460761 1_555
Ba4 Cl6 3.588700 1_555
Ba5 Cl10 3.139664 1_655
Ba5 Cl2 3.141255 1_655
Ba5 Cl15 3.217099 1_554
Ba5 Cl31 3.221021 1_554
Ba5 Cl27 3.269222 1_555
Ba5 Cl20 3.276645 1_655
Ba5 Cl32 3.439068 1_555
Ba5 Cl9 3.441737 1_554
Ba5 Cl16 3.460766 1_655
Ba5 Cl25 3.588702 1_555
Ba6 Cl13 3.151626 1_555
Ba6 Cl22 3.151626 1_554
Ba6 Cl27 3.151629 1_555
Ba6 Cl23 3.151629 1_554
Ba6 Cl3 3.151638 1_555
Ba6 Cl30 3.151638 1_555
Ba6 Cl15 3.151638 1_554
Ba6 Cl29 3.151638 1_554
Ba7 Cl11 3.139666 1_565
Ba7 Cl2 3.141261 1_555
Ba7 Cl13 3.217116 1_556
Ba7 Cl8 3.221006 1_556
Ba7 Cl29 3.269222 1_555
Ba7 Cl20 3.276637 1_555
Ba7 Cl0 3.439069 1_555
Ba7 Cl7 3.441734 1_566
Ba7 Cl19 3.460761 1_555
Ba7 Cl4 3.588689 1_555
Ba8 Cl5 3.139660 1_555
Ba8 Cl12 3.141261 1_555
Ba8 Cl29 3.217107 1_555
Ba8 Cl0 3.221007 1_555
Ba8 Cl15 3.269222 1_555
Ba8 Cl33 3.276637 1_555
Ba8 Cl31 3.439068 1_555
Ba8 Cl16 3.441734 1_555
Ba8 Cl7 3.460761 1_555
Ba8 Cl18 3.588700 1_555
Cl0 Sm0 2.867864 1_556
Cl1 Sm5 2.890668 1_555
Cl1 Sm4 2.890668 1_655
Cl2 Sm4 2.890668 1_555
Cl2 Sm5 2.890668 1_455
Cl3 Sm2 2.873681 1_555
Cl4 Sm2 2.807218 1_556
Cl4 Sm5 2.842844 1_455
Cl5 Sm3 2.867864 1_555
Cl6 Sm5 2.807210 1_555
Cl6 Sm1 2.842851 1_565
Cl7 Sm3 2.875304 1_555
Cl7 Sm2 2.933073 1_545
Cl8 Sm0 2.867872 1_555
Cl9 Sm3 2.875304 1_656
Cl9 Sm1 2.933073 1_555
Cl10 Sm3 2.867860 1_555
Cl11 Sm3 2.867872 1_556
Cl12 Sm1 2.890668 1_555
Cl12 Sm2 2.890668 1_545
Cl13 Sm2 2.873680 1_555
Cl14 Sm0 2.875304 1_545
Cl14 Sm4 2.933073 1_655
Cl15 Sm1 2.873681 1_555
Cl16 Sm3 2.875304 1_555
Cl16 Sm4 2.933073 1_555
Cl17 Sm2 2.890668 1_555
Cl17 Sm1 2.890668 1_565
Cl18 Sm4 2.807210 1_555
Cl18 Sm2 2.842851 1_545
Cl19 Sm3 2.875304 1_566
Cl19 Sm5 2.933073 1_455
Cl21 Sm3 2.867864 1_556
Cl22 Sm1 2.873680 1_555
Cl23 Sm4 2.873676 1_555
Cl24 Sm0 2.875304 1_556
Cl24 Sm5 2.933073 1_555
Cl25 Sm1 2.807218 1_554
Cl25 Sm4 2.842844 1_655
Cl26 Sm0 2.875304 1_455
Cl26 Sm2 2.933073 1_555
Cl27 Sm5 2.873676 1_555
Cl28 Sm0 2.875304 1_556
Cl28 Sm1 2.933073 1_565
Cl29 Sm4 2.873681 1_555
Cl30 Sm5 2.873681 1_555
Cl31 Sm0 2.867860 1_556
Cl32 Sm0 2.867864 1_555
