# generated using pymatgen
data_CeCu6
_symmetry_space_group_name_H-M   'P 1'
_cell_length_a   10.04758807
_cell_length_b   5.03792451
_cell_length_c   8.01178449
_cell_angle_alpha   88.41185964
_cell_angle_beta   90.00000000
_cell_angle_gamma   90.00000000
_symmetry_Int_Tables_number   1
_chemical_formula_structural   CeCu6
_chemical_formula_sum   'Ce4 Cu24'
_cell_volume   405.39265874
_cell_formula_units_Z   4
loop_
 _symmetry_equiv_pos_site_id
 _symmetry_equiv_pos_as_xyz
  1  'x, y, z'
loop_
 _atom_site_type_symbol
 _atom_site_label
 _atom_site_symmetry_multiplicity
 _atom_site_fract_x
 _atom_site_fract_y
 _atom_site_fract_z
 _atom_site_occupancy
  Ce  Ce0  1  0.43587789  0.74003351  0.26062923  1
  Ce  Ce1  1  0.06412211  0.74003351  0.76062923  1
  Ce  Ce2  1  0.93587789  0.25996649  0.23937077  1
  Ce  Ce3  1  0.56412211  0.25996649  0.73937077  1
  Cu  Cu0  1  0.14325883  0.75749787  0.14936879  1
  Cu  Cu1  1  0.64325883  0.24250213  0.35063121  1
  Cu  Cu2  1  0.40414223  0.22361877  0.43726283  1
  Cu  Cu3  1  0.74454758  0.75112792  0.31807062  1
  Cu  Cu4  1  0.80622864  0.49975413  0.56709949  1
  Cu  Cu5  1  0.48426331  0.25012581  0.09910917  1
  Cu  Cu6  1  0.51573669  0.74987419  0.90089083  1
  Cu  Cu7  1  0.30622864  0.50024587  0.93290051  1
  Cu  Cu8  1  0.69377136  0.49975413  0.06709949  1
  Cu  Cu9  1  0.98426331  0.74987419  0.40089083  1
  Cu  Cu10  1  0.81055351  0.00878795  0.56201064  1
  Cu  Cu11  1  0.85674117  0.24250213  0.85063121  1
  Cu  Cu12  1  0.09585777  0.22361877  0.93726283  1
  Cu  Cu13  1  0.90414223  0.77638123  0.06273717  1
  Cu  Cu14  1  0.35674117  0.75749787  0.64936879  1
  Cu  Cu15  1  0.01573669  0.25012581  0.59910917  1
  Cu  Cu16  1  0.25545242  0.24887208  0.68192938  1
  Cu  Cu17  1  0.19377136  0.50024587  0.43290051  1
  Cu  Cu18  1  0.18944649  0.99121205  0.43798936  1
  Cu  Cu19  1  0.75545242  0.75112792  0.81807062  1
  Cu  Cu20  1  0.59585777  0.77638123  0.56273717  1
  Cu  Cu21  1  0.68944649  0.00878795  0.06201064  1
  Cu  Cu22  1  0.31055351  0.99121205  0.93798936  1
  Cu  Cu23  1  0.24454758  0.24887208  0.18192938  1
loop_
_geom_bond_atom_site_label_1
_geom_bond_atom_site_label_2
_geom_bond_distance
_geom_bond_site_symmetry_2
Ce0 Cu5 2.859999 1_555
Ce0 Cu2 2.868941 1_565
Ce0 Cu5 2.886265 1_565
Ce0 Cu20 2.915531 1_555
Ce0 Cu2 2.944296 1_555
Ce0 Cu6 2.990842 1_554
Ce0 Cu17 3.031395 1_555
Ce0 Cu0 3.072826 1_555
Ce0 Cu22 3.112458 1_554
Ce0 Cu3 3.136070 1_555
Ce0 Cu18 3.138613 1_555
Ce0 Cu7 3.197866 1_554
Ce0 Cu23 3.209754 1_555
Ce0 Cu14 3.217959 1_555
Ce0 Cu23 3.251939 1_565
Ce0 Cu8 3.269225 1_555
Ce0 Cu21 3.276742 1_565
Ce0 Cu1 3.323275 1_555
Ce0 Cu1 3.372065 1_565
Ce1 Cu15 2.859999 1_555
Ce1 Cu12 2.868941 1_565
Ce1 Cu15 2.886265 1_565
Ce1 Cu13 2.915531 1_456
Ce1 Cu12 2.944296 1_555
Ce1 Cu9 2.990842 1_455
Ce1 Cu7 3.031395 1_555
Ce1 Cu14 3.072826 1_555
Ce1 Cu18 3.112458 1_555
Ce1 Cu19 3.136070 1_455
Ce1 Cu22 3.138613 1_555
Ce1 Cu17 3.197866 1_555
Ce1 Cu16 3.209754 1_555
Ce1 Cu0 3.217959 1_556
Ce1 Cu16 3.251939 1_565
Ce1 Cu4 3.269225 1_455
Ce1 Cu10 3.276742 1_465
Ce1 Cu11 3.323275 1_455
Ce1 Cu11 3.372065 1_465
Ce2 Cu9 2.859999 1_555
Ce2 Cu13 2.868941 1_545
Ce2 Cu9 2.886265 1_545
Ce2 Cu12 2.915531 1_654
Ce2 Cu13 2.944296 1_555
Ce2 Cu15 2.990842 1_655
Ce2 Cu8 3.031395 1_555
Ce2 Cu1 3.072826 1_555
Ce2 Cu10 3.112458 1_555
Ce2 Cu23 3.136070 1_655
Ce2 Cu21 3.138613 1_555
Ce2 Cu4 3.197866 1_555
Ce2 Cu3 3.209754 1_555
Ce2 Cu11 3.217959 1_554
Ce2 Cu3 3.251939 1_545
Ce2 Cu17 3.269225 1_655
Ce2 Cu18 3.276742 1_645
Ce2 Cu0 3.323275 1_655
Ce2 Cu0 3.372065 1_645
Ce3 Cu6 2.859999 1_555
Ce3 Cu20 2.868941 1_545
Ce3 Cu6 2.886265 1_545
Ce3 Cu2 2.915531 1_555
Ce3 Cu20 2.944296 1_555
Ce3 Cu5 2.990842 1_556
Ce3 Cu4 3.031395 1_555
Ce3 Cu11 3.072826 1_555
Ce3 Cu21 3.112458 1_556
Ce3 Cu16 3.136070 1_555
Ce3 Cu10 3.138613 1_555
Ce3 Cu8 3.197866 1_556
Ce3 Cu19 3.209754 1_555
Ce3 Cu1 3.217959 1_555
Ce3 Cu19 3.251939 1_545
Ce3 Cu7 3.269225 1_555
Ce3 Cu22 3.276742 1_545
Ce3 Cu14 3.323275 1_555
Ce3 Cu14 3.372065 1_545
Cu0 Cu13 2.501870 1_455
Cu0 Cu9 2.571002 1_455
Cu0 Cu17 2.633287 1_555
Cu0 Cu22 2.639945 1_554
Cu0 Cu18 2.664520 1_555
Cu0 Cu23 2.695869 1_565
Cu0 Cu7 2.737387 1_554
Cu0 Cu23 2.762737 1_555
Cu0 Cu12 2.899628 1_564
Cu0 Cu12 3.256092 1_554
Cu1 Cu2 2.501870 1_555
Cu1 Cu5 2.571002 1_555
Cu1 Cu8 2.633287 1_555
Cu1 Cu10 2.639945 1_555
Cu1 Cu21 2.664520 1_555
Cu1 Cu3 2.695869 1_545
Cu1 Cu4 2.737387 1_555
Cu1 Cu3 2.762737 1_555
Cu1 Cu20 2.899628 1_545
Cu1 Cu20 3.256092 1_555
Cu2 Cu23 2.599596 1_555
Cu2 Cu5 2.825895 1_555
Cu2 Cu20 3.110025 1_545
Cu3 Cu4 2.414227 1_555
Cu3 Cu8 2.459314 1_555
Cu3 Cu9 2.498254 1_555
Cu4 Cu9 2.543209 1_555
Cu5 Cu8 2.461851 1_555
Cu5 Cu7 2.543209 1_554
Cu5 Cu6 2.956209 1_554
Cu5 Cu6 3.032394 1_544
Cu6 Cu7 2.461851 1_555
Cu6 Cu8 2.543209 1_556
Cu10 Cu15 2.415952 1_655
Cu10 Cu20 2.454372 1_545
Cu10 Cu19 2.460190 1_545
Cu10 Cu3 2.466801 1_545
Cu10 Cu4 2.475298 1_555
Cu10 Cu9 2.550954 1_545
Cu10 Cu4 2.564036 1_545
Cu10 Cu11 2.664520 1_555
Cu11 Cu12 2.501870 1_655
Cu11 Cu15 2.571002 1_655
Cu11 Cu4 2.633287 1_555
Cu11 Cu21 2.639945 1_556
Cu11 Cu19 2.695869 1_545
Cu11 Cu8 2.737387 1_556
Cu11 Cu19 2.762737 1_555
Cu11 Cu13 2.899628 1_546
Cu11 Cu13 3.256092 1_556
Cu12 Cu22 2.454372 1_545
Cu12 Cu23 2.470711 1_556
Cu12 Cu7 2.531507 1_555
Cu12 Cu16 2.599596 1_555
Cu12 Cu15 2.825895 1_555
Cu12 Cu13 3.110025 1_446
Cu13 Cu21 2.454372 1_565
Cu13 Cu19 2.470711 1_554
Cu13 Cu8 2.531507 1_555
Cu13 Cu3 2.599596 1_555
Cu13 Cu9 2.825895 1_555
Cu14 Cu20 2.501870 1_555
Cu14 Cu6 2.571002 1_555
Cu14 Cu7 2.633287 1_555
Cu14 Cu18 2.639945 1_555
Cu14 Cu22 2.664520 1_555
Cu14 Cu16 2.695869 1_565
Cu14 Cu17 2.737387 1_555
Cu14 Cu16 2.762737 1_555
Cu14 Cu2 2.899628 1_565
Cu14 Cu2 3.256092 1_555
Cu15 Cu4 2.461851 1_455
Cu15 Cu16 2.498254 1_555
Cu15 Cu17 2.543209 1_555
Cu15 Cu18 2.550954 1_545
Cu15 Cu9 2.956209 1_455
Cu15 Cu9 3.032394 1_445
Cu16 Cu17 2.414227 1_555
Cu16 Cu7 2.459314 1_555
Cu16 Cu22 2.460190 1_545
Cu16 Cu18 2.466801 1_545
Cu16 Cu2 2.470711 1_555
Cu17 Cu23 2.459314 1_555
Cu17 Cu9 2.461851 1_455
Cu17 Cu18 2.475298 1_555
Cu17 Cu2 2.531507 1_555
Cu17 Cu18 2.564036 1_545
Cu18 Cu9 2.415952 1_455
Cu18 Cu2 2.454372 1_565
Cu18 Cu23 2.460190 1_565
Cu19 Cu8 2.414227 1_556
Cu19 Cu4 2.459314 1_555
Cu19 Cu21 2.466801 1_566
Cu19 Cu6 2.498254 1_555
Cu19 Cu20 2.599596 1_555
Cu20 Cu3 2.470711 1_555
Cu20 Cu4 2.531507 1_555
Cu20 Cu6 2.825895 1_555
Cu21 Cu5 2.415952 1_555
Cu21 Cu3 2.460190 1_545
Cu21 Cu8 2.475298 1_555
Cu21 Cu6 2.550954 1_544
Cu21 Cu8 2.564036 1_545
Cu22 Cu6 2.415952 1_555
Cu22 Cu23 2.466801 1_566
Cu22 Cu7 2.475298 1_555
Cu22 Cu5 2.550954 1_566
Cu22 Cu7 2.564036 1_565
Cu23 Cu7 2.414227 1_554
Cu23 Cu5 2.498254 1_555
