# generated using pymatgen
data_Rb2Nb2P2S11
_symmetry_space_group_name_H-M   'P 1'
_cell_length_a   7.14772100
_cell_length_b   7.13492000
_cell_length_c   18.88364577
_cell_angle_alpha   81.40577962
_cell_angle_beta   90.00000000
_cell_angle_gamma   90.00000000
_symmetry_Int_Tables_number   1
_chemical_formula_structural   Rb2Nb2P2S11
_chemical_formula_sum   'Rb4 Nb4 P4 S22'
_cell_volume   952.22256250
_cell_formula_units_Z   2
loop_
 _symmetry_equiv_pos_site_id
 _symmetry_equiv_pos_as_xyz
  1  'x, y, z'
loop_
 _atom_site_type_symbol
 _atom_site_label
 _atom_site_symmetry_multiplicity
 _atom_site_fract_x
 _atom_site_fract_y
 _atom_site_fract_z
 _atom_site_occupancy
  Rb  Rb0  1  0.25000000  0.74833700  0.99607500  1
  Rb  Rb1  1  0.75000000  0.25166300  0.00392500  1
  Rb  Rb2  1  0.25000000  0.77245900  0.50768800  1
  Rb  Rb3  1  0.75000000  0.22754100  0.49231200  1
  Nb  Nb0  1  0.95091700  0.30266200  0.75547400  1
  Nb  Nb1  1  0.45091700  0.69733800  0.24452600  1
  Nb  Nb2  1  0.04908300  0.69733800  0.24452600  1
  Nb  Nb3  1  0.54908300  0.30266200  0.75547400  1
  P  P0  1  0.25000000  0.31266900  0.89240500  1
  P  P1  1  0.25000000  0.20810100  0.62645800  1
  P  P2  1  0.75000000  0.68733100  0.10759500  1
  P  P3  1  0.75000000  0.79189900  0.37354200  1
  S  S0  1  0.75000000  0.59975600  0.73266700  1
  S  S1  1  0.75000000  0.73706000  0.48101100  1
  S  S2  1  0.52215000  0.52003600  0.14246400  1
  S  S3  1  0.25000000  0.93601500  0.18725000  1
  S  S4  1  0.75000000  0.77017600  0.00216400  1
  S  S5  1  0.75000000  0.43917000  0.65386300  1
  S  S6  1  0.25000000  0.56083000  0.34613700  1
  S  S7  1  0.25000000  0.22982400  0.99783600  1
  S  S8  1  0.25000000  0.45408600  0.67600700  1
  S  S9  1  0.75000000  0.89142700  0.17487500  1
  S  S10  1  0.75000000  0.06398500  0.81275000  1
  S  S11  1  0.01646800  0.06165200  0.66692200  1
  S  S12  1  0.97785000  0.52003600  0.14246400  1
  S  S13  1  0.25000000  0.40024400  0.26733300  1
  S  S14  1  0.25000000  0.26294000  0.51898900  1
  S  S15  1  0.48353200  0.06165200  0.66692200  1
  S  S16  1  0.02215000  0.47996400  0.85753600  1
  S  S17  1  0.47785000  0.47996400  0.85753600  1
  S  S18  1  0.98353200  0.93834800  0.33307800  1
  S  S19  1  0.25000000  0.10857300  0.82512500  1
  S  S20  1  0.75000000  0.54591400  0.32399300  1
  S  S21  1  0.51646800  0.93834800  0.33307800  1
loop_
_geom_bond_atom_site_label_1
_geom_bond_atom_site_label_2
_geom_bond_distance
_geom_bond_site_symmetry_2
Rb0 S7 3.440498 1_565
Rb0 S2 3.568367 1_556
Rb0 S12 3.568367 1_456
Rb0 S4 3.579851 1_456
Rb0 S4 3.579851 1_556
Rb0 S7 3.694726 1_555
Rb0 S19 3.814109 1_565
Rb0 S16 3.828858 1_555
Rb0 S17 3.828858 1_555
Rb1 S4 3.440498 1_545
Rb1 S16 3.568367 1_654
Rb1 S17 3.568367 1_554
Rb1 S7 3.579851 1_554
Rb1 S7 3.579851 1_654
Rb1 S4 3.694726 1_555
Rb1 S9 3.814109 1_545
Rb1 S2 3.828858 1_555
Rb1 S12 3.828858 1_555
Rb2 S14 3.537731 1_565
Rb2 S6 3.600456 1_555
Rb2 S14 3.609660 1_555
Rb2 S8 3.620061 1_555
Rb2 S1 3.623268 1_555
Rb2 S1 3.623268 1_455
Rb2 S21 3.838514 1_555
Rb2 S18 3.838514 1_455
Rb3 S1 3.537731 1_545
Rb3 S5 3.600456 1_555
Rb3 S1 3.609660 1_555
Rb3 S20 3.620061 1_555
Rb3 S14 3.623268 1_655
Rb3 S14 3.623268 1_555
Rb3 S11 3.838514 1_655
Rb3 S15 3.838514 1_555
Nb0 S10 2.362567 1_555
Nb0 S5 2.476732 1_555
Nb0 S16 2.510523 1_655
Nb0 S0 2.543290 1_555
Nb0 S11 2.613830 1_655
Nb0 S8 2.739455 1_655
Nb0 S19 2.770069 1_655
Nb1 S3 2.362567 1_555
Nb1 S6 2.476732 1_555
Nb1 S2 2.510523 1_555
Nb1 S13 2.543290 1_555
Nb1 S21 2.613830 1_555
Nb1 S20 2.739455 1_555
Nb1 S9 2.770069 1_555
Nb2 S3 2.362567 1_555
Nb2 S6 2.476732 1_555
Nb2 S12 2.510523 1_455
Nb2 S13 2.543290 1_555
Nb2 S18 2.613830 1_455
Nb2 S20 2.739455 1_455
Nb2 S9 2.770069 1_455
Nb3 S10 2.362567 1_555
Nb3 S5 2.476732 1_555
Nb3 S17 2.510523 1_555
Nb3 S0 2.543290 1_555
Nb3 S15 2.613830 1_555
Nb3 S8 2.739455 1_555
Nb3 S19 2.770069 1_555
P0 S7 1.990337 1_555
P0 S16 2.067800 1_555
P0 S17 2.067800 1_555
P0 S19 2.070660 1_555
P1 S14 2.008548 1_555
P1 S15 2.055081 1_555
P1 S11 2.055081 1_555
P1 S8 2.108693 1_555
P2 S4 1.990337 1_555
P2 S2 2.067800 1_555
P2 S12 2.067800 1_555
P2 S9 2.070660 1_555
P3 S1 2.008548 1_555
P3 S18 2.055081 1_555
P3 S21 2.055081 1_555
P3 S20 2.108693 1_555
S0 S5 2.009186 1_555
S13 S6 2.009186 1_555
