# generated using pymatgen
data_Cs3Y2Br9
_symmetry_space_group_name_H-M   'P 1'
_cell_length_a   10.27000672
_cell_length_b   10.27000672
_cell_length_c   10.27000758
_cell_angle_alpha   83.77250645
_cell_angle_beta   83.77250645
_cell_angle_gamma   83.77250436
_symmetry_Int_Tables_number   1
_chemical_formula_structural   Cs3Y2Br9
_chemical_formula_sum   'Cs6 Y4 Br18'
_cell_volume   1065.32453978
_cell_formula_units_Z   2
loop_
 _symmetry_equiv_pos_site_id
 _symmetry_equiv_pos_as_xyz
  1  'x, y, z'
loop_
 _atom_site_type_symbol
 _atom_site_label
 _atom_site_symmetry_multiplicity
 _atom_site_fract_x
 _atom_site_fract_y
 _atom_site_fract_z
 _atom_site_occupancy
  Cs  Cs0  1  0.08932508  0.75000000  0.41067492  1
  Cs  Cs1  1  0.75000000  0.41067492  0.08932508  1
  Cs  Cs2  1  0.25000000  0.58932508  0.91067492  1
  Cs  Cs3  1  0.41067492  0.08932508  0.75000000  1
  Cs  Cs4  1  0.91067492  0.25000000  0.58932508  1
  Cs  Cs5  1  0.58932508  0.91067492  0.25000000  1
  Y  Y0  1  0.34906727  0.34906727  0.34906727  1
  Y  Y1  1  0.65093273  0.65093273  0.65093273  1
  Y  Y2  1  0.84906727  0.84906727  0.84906727  1
  Y  Y3  1  0.15093273  0.15093273  0.15093273  1
  Br  Br0  1  0.26605769  0.91528584  0.08047973  1
  Br  Br1  1  0.73394231  0.08471416  0.91952027  1
  Br  Br2  1  0.90694167  0.59305833  0.75000000  1
  Br  Br3  1  0.08471416  0.91952027  0.73394231  1
  Br  Br4  1  0.59305833  0.75000000  0.90694167  1
  Br  Br5  1  0.41952027  0.58471416  0.23394231  1
  Br  Br6  1  0.25000000  0.09305833  0.40694167  1
  Br  Br7  1  0.91528584  0.08047973  0.26605769  1
  Br  Br8  1  0.58047973  0.41528584  0.76605769  1
  Br  Br9  1  0.08047973  0.26605769  0.91528584  1
  Br  Br10  1  0.91952027  0.73394231  0.08471416  1
  Br  Br11  1  0.41528584  0.76605769  0.58047973  1
  Br  Br12  1  0.23394231  0.41952027  0.58471416  1
  Br  Br13  1  0.75000000  0.90694167  0.59305833  1
  Br  Br14  1  0.09305833  0.40694167  0.25000000  1
  Br  Br15  1  0.76605769  0.58047973  0.41528584  1
  Br  Br16  1  0.40694167  0.25000000  0.09305833  1
  Br  Br17  1  0.58471416  0.23394231  0.41952027  1
loop_
_geom_bond_atom_site_label_1
_geom_bond_atom_site_label_2
_geom_bond_distance
_geom_bond_site_symmetry_2
Br0 Y3 2.711424 1_565
Br0 Cs3 3.884099 1_564
Br0 Cs5 3.906065 1_555
Br0 Cs2 3.965305 1_554
Br0 Cs0 3.969847 1_555
Br1 Y2 2.711424 1_545
Br1 Cs5 3.884099 1_546
Br1 Cs3 3.906065 1_555
Br1 Cs1 3.965305 1_556
Br1 Cs4 3.969847 1_555
Br2 Y1 2.900225 1_555
Br2 Y2 2.900225 1_555
Br2 Cs0 4.033716 1_655
Br2 Cs1 4.033716 1_556
Br2 Cs4 4.044219 1_555
Br2 Cs2 4.044219 1_655
Br3 Y2 2.711425 1_455
Br3 Cs4 3.884099 1_465
Br3 Cs0 3.906065 1_555
Br3 Cs3 3.965305 1_565
Br3 Cs2 3.969847 1_555
Br4 Y2 2.900225 1_555
Br4 Y1 2.900225 1_555
Br4 Cs3 4.033716 1_565
Br4 Cs1 4.033716 1_556
Br4 Cs2 4.044219 1_555
Br4 Cs5 4.044219 1_556
Br5 Y0 2.711425 1_555
Br5 Cs1 3.884099 1_555
Br5 Cs2 3.906065 1_554
Br5 Cs5 3.965305 1_555
Br5 Cs0 3.969847 1_555
Br6 Y0 2.900225 1_555
Br6 Y3 2.900225 1_555
Br6 Cs5 4.033716 1_545
Br6 Cs4 4.033716 1_455
Br6 Cs0 4.044219 1_545
Br6 Cs3 4.044219 1_555
Br7 Y3 2.711425 1_655
Br7 Cs0 3.884099 1_645
Br7 Cs4 3.906065 1_555
Br7 Cs5 3.965305 1_545
Br7 Cs1 3.969847 1_555
Br8 Y1 2.711425 1_555
Br8 Cs2 3.884099 1_555
Br8 Cs1 3.906065 1_556
Br8 Cs3 3.965305 1_555
Br8 Cs4 3.969847 1_555
Br9 Y3 2.711425 1_556
Br9 Cs1 3.884099 1_456
Br9 Cs2 3.906065 1_555
Br9 Cs4 3.965305 1_455
Br9 Cs3 3.969847 1_555
Br10 Y2 2.711425 1_554
Br10 Cs2 3.884099 1_654
Br10 Cs1 3.906065 1_555
Br10 Cs0 3.965305 1_655
Br10 Cs5 3.969847 1_555
Br11 Y1 2.711424 1_555
Br11 Cs5 3.884099 1_555
Br11 Cs3 3.906065 1_565
Br11 Cs0 3.965305 1_555
Br11 Cs2 3.969847 1_555
Br12 Y0 2.711425 1_555
Br12 Cs0 3.884099 1_555
Br12 Cs4 3.906065 1_455
Br12 Cs2 3.965305 1_555
Br12 Cs3 3.969847 1_555
Br13 Y1 2.900225 1_555
Br13 Y2 2.900225 1_555
Br13 Cs3 4.033716 1_565
Br13 Cs0 4.033716 1_655
Br13 Cs4 4.044219 1_565
Br13 Cs5 4.044219 1_555
Br14 Y3 2.900225 1_555
Br14 Y0 2.900225 1_555
Br14 Cs2 4.033716 1_554
Br14 Cs4 4.033716 1_455
Br14 Cs0 4.044219 1_555
Br14 Cs1 4.044219 1_455
Br15 Y1 2.711425 1_555
Br15 Cs4 3.884099 1_555
Br15 Cs0 3.906065 1_655
Br15 Cs1 3.965305 1_555
Br15 Cs5 3.969847 1_555
Br16 Y3 2.900225 1_555
Br16 Y0 2.900225 1_555
Br16 Cs5 4.033716 1_545
Br16 Cs2 4.033716 1_554
Br16 Cs1 4.044219 1_555
Br16 Cs3 4.044219 1_554
Br17 Y0 2.711424 1_555
Br17 Cs3 3.884099 1_555
Br17 Cs5 3.906065 1_545
Br17 Cs4 3.965305 1_555
Br17 Cs1 3.969847 1_555
