# generated using pymatgen
data_TiAs2O7
_symmetry_space_group_name_H-M   'P 1'
_cell_length_a   5.27302978
_cell_length_b   5.27302978
_cell_length_c   9.48717605
_cell_angle_alpha   80.85362896
_cell_angle_beta   80.85362896
_cell_angle_gamma   98.14727542
_symmetry_Int_Tables_number   1
_chemical_formula_structural   TiAs2O7
_chemical_formula_sum   'Ti2 As4 O14'
_cell_volume   253.32296915
_cell_formula_units_Z   2
loop_
 _symmetry_equiv_pos_site_id
 _symmetry_equiv_pos_as_xyz
  1  'x, y, z'
loop_
 _atom_site_type_symbol
 _atom_site_label
 _atom_site_symmetry_multiplicity
 _atom_site_fract_x
 _atom_site_fract_y
 _atom_site_fract_z
 _atom_site_occupancy
  Ti  Ti0  1  0.00000000  0.00000000  -0.00000000  1
  Ti  Ti1  1  0.00000000  0.00000000  0.50000000  1
  As  As0  1  0.17216502  0.43837285  0.19878613  1
  As  As1  1  0.43837285  0.17216502  0.69878613  1
  As  As2  1  0.56162715  0.82783498  0.30121387  1
  As  As3  1  0.82783498  0.56162715  0.80121387  1
  O  O0  1  0.07531497  0.71335430  0.13054063  1
  O  O1  1  0.76597759  0.75085962  0.92372321  1
  O  O2  1  0.29004273  0.96681741  0.85357099  1
  O  O3  1  0.03318259  0.70995727  0.64642901  1
  O  O4  1  0.47269163  0.52730837  0.25000000  1
  O  O5  1  0.71335430  0.07531497  0.63054063  1
  O  O6  1  0.75085962  0.76597759  0.42372321  1
  O  O7  1  0.24914038  0.23402241  0.57627679  1
  O  O8  1  0.23402241  0.24914038  0.07627679  1
  O  O9  1  0.70995727  0.03318259  0.14642901  1
  O  O10  1  0.92468503  0.28664570  0.86945937  1
  O  O11  1  0.96681741  0.29004273  0.35357099  1
  O  O12  1  0.28664570  0.92468503  0.36945937  1
  O  O13  1  0.52730837  0.47269163  0.75000000  1
loop_
_geom_bond_atom_site_label_1
_geom_bond_atom_site_label_2
_geom_bond_distance
_geom_bond_site_symmetry_2
As0 O8 1.671330 1_555
As0 O0 1.673024 1_555
As0 O11 1.682241 1_455
As0 O4 1.753228 1_555
As1 O7 1.671330 1_555
As1 O5 1.673024 1_555
As1 O2 1.682241 1_545
As1 O13 1.753228 1_555
As2 O6 1.671330 1_555
As2 O12 1.673024 1_555
As2 O9 1.682241 1_565
As2 O4 1.753228 1_555
As3 O1 1.671330 1_555
As3 O10 1.673024 1_555
As3 O3 1.682241 1_655
As3 O13 1.753228 1_555
O0 Ti0 1.925488 1_565
O1 Ti0 1.974577 1_666
O2 Ti0 1.943510 1_566
O3 Ti1 1.943510 1_565
O5 Ti1 1.925488 1_655
O6 Ti1 1.974577 1_665
O7 Ti1 1.974577 1_555
O8 Ti0 1.974577 1_555
O9 Ti0 1.943510 1_655
O10 Ti0 1.925488 1_656
O11 Ti1 1.943510 1_655
O12 Ti1 1.925488 1_565
