# generated using pymatgen
data_Cu2HgI4
_symmetry_space_group_name_H-M   'P 1'
_cell_length_a   6.08397661
_cell_length_b   6.08397661
_cell_length_c   6.33929997
_cell_angle_alpha   90.00000000
_cell_angle_beta   90.00000000
_cell_angle_gamma   90.00000000
_symmetry_Int_Tables_number   1
_chemical_formula_structural   Cu2HgI4
_chemical_formula_sum   'Cu2 Hg1 I4'
_cell_volume   234.64773917
_cell_formula_units_Z   1
loop_
 _symmetry_equiv_pos_site_id
 _symmetry_equiv_pos_as_xyz
  1  'x, y, z'
loop_
 _atom_site_type_symbol
 _atom_site_label
 _atom_site_symmetry_multiplicity
 _atom_site_fract_x
 _atom_site_fract_y
 _atom_site_fract_z
 _atom_site_occupancy
  Cu  Cu0  1  -0.00000000  0.50000000  0.50000000  1
  Cu  Cu1  1  0.50000000  -0.00000000  0.50000000  1
  Hg  Hg0  1  -0.00000000  0.00000000  0.00000000  1
  I  I0  1  0.26678502  0.26678502  0.26686433  1
  I  I1  1  0.73321498  0.73321498  0.26686433  1
  I  I2  1  0.26678502  0.73321498  0.73313567  1
  I  I3  1  0.73321498  0.26678502  0.73313567  1
loop_
_geom_bond_atom_site_label_1
_geom_bond_atom_site_label_2
_geom_bond_distance
_geom_bond_site_symmetry_2
Cu0 I2 2.613798 1_555
Cu0 I1 2.613798 1_455
Cu0 I3 2.613798 1_455
Cu0 I0 2.613798 1_555
Cu1 I3 2.613798 1_555
Cu1 I0 2.613798 1_555
Cu1 I2 2.613798 1_545
Cu1 I1 2.613798 1_545
Hg0 I0 2.851483 1_555
Hg0 I3 2.851483 1_454
Hg0 I2 2.851483 1_544
Hg0 I1 2.851483 1_445
