# generated using pymatgen
data_CdI2
_symmetry_space_group_name_H-M   'P 1'
_cell_length_a   4.28647573
_cell_length_b   4.28647646
_cell_length_c   57.32428686
_cell_angle_alpha   90.00000000
_cell_angle_beta   90.00000000
_cell_angle_gamma   120.00000245
_symmetry_Int_Tables_number   1
_chemical_formula_structural   CdI2
_chemical_formula_sum   'Cd8 I16'
_cell_volume   912.15804677
_cell_formula_units_Z   8
loop_
 _symmetry_equiv_pos_site_id
 _symmetry_equiv_pos_as_xyz
  1  'x, y, z'
loop_
 _atom_site_type_symbol
 _atom_site_label
 _atom_site_symmetry_multiplicity
 _atom_site_fract_x
 _atom_site_fract_y
 _atom_site_fract_z
 _atom_site_occupancy
  Cd  Cd0  1  0.66666700  0.33333300  0.90636188  1
  Cd  Cd1  1  0.66666700  0.33333300  0.78128993  1
  Cd  Cd2  1  0.66666700  0.33333300  0.53085093  1
  Cd  Cd3  1  0.66666700  0.33333300  0.28173756  1
  Cd  Cd4  1  0.00000000  0.00000000  0.15631053  1
  Cd  Cd5  1  0.66666700  0.33333300  0.03206961  1
  Cd  Cd6  1  0.66666700  0.33333300  0.65603120  1
  Cd  Cd7  1  0.66666700  0.33333300  0.40557581  1
  I  I0  1  0.33333300  0.66666700  0.81131514  1
  I  I1  1  0.00000000  0.00000000  0.00186272  1
  I  I2  1  0.33333300  0.66666700  0.56074063  1
  I  I3  1  0.00000000  0.00000000  0.25178391  1
  I  I4  1  0.00000000  0.00000000  0.37540834  1
  I  I5  1  0.33333300  0.66666700  0.06217489  1
  I  I6  1  0.66666700  0.33333300  0.12624386  1
  I  I7  1  0.33333300  0.66666700  0.43567462  1
  I  I8  1  0.33333300  0.66666700  0.18631449  1
  I  I9  1  0.00000000  -0.00000000  0.62613894  1
  I  I10  1  0.33333300  0.66666700  0.31161483  1
  I  I11  1  0.33333300  0.66666700  0.93631783  1
  I  I12  1  0.00000000  -0.00000000  0.75119918  1
  I  I13  1  0.00000000  -0.00000000  0.87624291  1
  I  I14  1  0.33333300  0.66666700  0.68583640  1
  I  I15  1  0.00000000  -0.00000000  0.50089984  1
loop_
_geom_bond_atom_site_label_1
_geom_bond_atom_site_label_2
_geom_bond_distance
_geom_bond_site_symmetry_2
Cd0 I11 3.012208 1_655
Cd0 I11 3.012209 1_545
Cd0 I11 3.012215 1_555
Cd0 I13 3.017546 1_655
Cd0 I13 3.017549 1_555
Cd0 I13 3.017549 1_665
Cd1 I0 3.014474 1_655
Cd1 I0 3.014474 1_545
Cd1 I0 3.014480 1_555
Cd1 I12 3.016621 1_655
Cd1 I12 3.016623 1_555
Cd1 I12 3.016624 1_665
Cd2 I2 3.010045 1_655
Cd2 I2 3.010045 1_545
Cd2 I2 3.010051 1_555
Cd2 I15 3.012050 1_655
Cd2 I15 3.012053 1_555
Cd2 I15 3.012053 1_665
Cd3 I10 3.009640 1_655
Cd3 I10 3.009640 1_545
Cd3 I10 3.009646 1_555
Cd3 I3 3.012134 1_655
Cd3 I3 3.012136 1_555
Cd3 I3 3.012137 1_665
Cd4 I8 3.013779 1_545
Cd4 I8 3.013781 1_445
Cd4 I8 3.013782 1_555
Cd4 I6 3.015832 1_455
Cd4 I6 3.015834 1_555
Cd4 I6 3.015835 1_445
Cd5 I5 3.017097 1_655
Cd5 I5 3.017097 1_545
Cd5 I5 3.017103 1_555
Cd5 I1 3.020432 1_655
Cd5 I1 3.020435 1_555
Cd5 I1 3.020436 1_665
Cd6 I14 3.007290 1_655
Cd6 I14 3.007291 1_545
Cd6 I14 3.007297 1_555
Cd6 I9 3.010129 1_655
Cd6 I9 3.010132 1_555
Cd6 I9 3.010132 1_665
Cd7 I7 3.016885 1_655
Cd7 I7 3.016885 1_545
Cd7 I7 3.016891 1_555
Cd7 I4 3.019138 1_655
Cd7 I4 3.019140 1_555
Cd7 I4 3.019141 1_665
