# generated using pymatgen
data_SrCrSn(PO4)3
_symmetry_space_group_name_H-M   'P 1'
_cell_length_a   9.15501490
_cell_length_b   9.15501490
_cell_length_c   9.15501480
_cell_angle_alpha   55.95127826
_cell_angle_beta   55.95127826
_cell_angle_gamma   55.95127987
_symmetry_Int_Tables_number   1
_chemical_formula_structural   SrCrSn(PO4)3
_chemical_formula_sum   'Sr2 Cr2 Sn2 P6 O24'
_cell_volume   491.67462653
_cell_formula_units_Z   2
loop_
 _symmetry_equiv_pos_site_id
 _symmetry_equiv_pos_as_xyz
  1  'x, y, z'
loop_
 _atom_site_type_symbol
 _atom_site_label
 _atom_site_symmetry_multiplicity
 _atom_site_fract_x
 _atom_site_fract_y
 _atom_site_fract_z
 _atom_site_occupancy
  Sr  Sr0  1  0.00000000  0.00000000  0.00000000  1
  Sr  Sr1  1  0.50000000  0.50000000  0.50000000  1
  Cr  Cr0  1  0.84993500  0.84993500  0.84993500  1
  Cr  Cr1  1  0.15006500  0.15006500  0.15006500  1
  Sn  Sn0  1  0.35075200  0.35075200  0.35075200  1
  Sn  Sn1  1  0.64924800  0.64924800  0.64924800  1
  P  P0  1  0.53957300  0.96053900  0.24489300  1
  P  P1  1  0.03946100  0.75510700  0.46042700  1
  P  P2  1  0.75510700  0.46042700  0.03946100  1
  P  P3  1  0.96053900  0.24489300  0.53957300  1
  P  P4  1  0.46042700  0.03946100  0.75510700  1
  P  P5  1  0.24489300  0.53957300  0.96053900  1
  O  O0  1  0.71916700  0.47551300  0.88341600  1
  O  O1  1  0.11658400  0.28083300  0.52448700  1
  O  O2  1  0.35871300  0.98297300  0.25041000  1
  O  O3  1  0.70899600  0.95512100  0.05810700  1
  O  O4  1  0.25041000  0.35871300  0.98297300  1
  O  O5  1  0.59069600  0.76732900  0.40697200  1
  O  O6  1  0.28083300  0.52448700  0.11658400  1
  O  O7  1  0.40930400  0.23267100  0.59302800  1
  O  O8  1  0.23267100  0.59302800  0.40930400  1
  O  O9  1  0.59302800  0.40930400  0.23267100  1
  O  O10  1  0.94189300  0.29100400  0.04487900  1
  O  O11  1  0.40697200  0.59069600  0.76732900  1
  O  O12  1  0.04487900  0.94189300  0.29100400  1
  O  O13  1  0.29100400  0.04487900  0.94189300  1
  O  O14  1  0.76732900  0.40697200  0.59069600  1
  O  O15  1  0.47551300  0.88341600  0.71916700  1
  O  O16  1  0.74959000  0.64128700  0.01702700  1
  O  O17  1  0.95512100  0.05810700  0.70899600  1
  O  O18  1  0.01702700  0.74959000  0.64128700  1
  O  O19  1  0.05810700  0.70899600  0.95512100  1
  O  O20  1  0.64128700  0.01702700  0.74959000  1
  O  O21  1  0.98297300  0.25041000  0.35871300  1
  O  O22  1  0.88341600  0.71916700  0.47551300  1
  O  O23  1  0.52448700  0.11658400  0.28083300  1
loop_
_geom_bond_atom_site_label_1
_geom_bond_atom_site_label_2
_geom_bond_distance
_geom_bond_site_symmetry_2
Cr0 O16 1.987976 1_556
Cr0 O18 1.987976 1_655
Cr0 O20 1.987976 1_565
Cr0 O17 2.033327 1_565
Cr0 O3 2.033327 1_556
Cr0 O19 2.033327 1_655
Cr1 O4 1.987976 1_554
Cr1 O21 1.987976 1_455
Cr1 O2 1.987976 1_545
Cr1 O12 2.033327 1_545
Cr1 O13 2.033327 1_554
Cr1 O10 2.033327 1_455
O0 P2 1.556519 1_556
O0 Sn1 2.028243 1_555
O1 P3 1.556519 1_455
O1 Sn0 2.028243 1_555
O2 P0 1.524299 1_555
O3 P0 1.539867 1_555
O3 Sr0 2.635041 1_665
O4 P5 1.524299 1_555
O5 P0 1.568807 1_555
O5 Sn1 2.091211 1_555
O5 Sr1 2.560111 1_555
O6 P5 1.556519 1_554
O6 Sn0 2.028243 1_555
O7 P4 1.568807 1_555
O7 Sn0 2.091211 1_555
O7 Sr1 2.560111 1_555
O8 P1 1.568807 1_555
O8 Sn0 2.091211 1_555
O8 Sr1 2.560111 1_555
O9 P2 1.568807 1_555
O9 Sn0 2.091211 1_555
O9 Sr1 2.560111 1_555
O10 P2 1.539867 1_555
O10 Sr0 2.635041 1_655
O11 P5 1.568807 1_555
O11 Sn1 2.091211 1_555
O11 Sr1 2.560111 1_555
O12 P1 1.539867 1_555
O12 Sr0 2.635041 1_565
O13 P4 1.539867 1_555
O13 Sr0 2.635041 1_556
O14 P3 1.568807 1_555
O14 Sn1 2.091211 1_555
O14 Sr1 2.560111 1_555
O15 P4 1.556519 1_565
O15 Sn1 2.028243 1_555
O16 P2 1.524299 1_555
O17 P3 1.539867 1_555
O17 Sr0 2.635041 1_656
O18 P1 1.524299 1_555
O19 P5 1.539867 1_555
O19 Sr0 2.635041 1_566
O20 P4 1.524299 1_555
O21 P3 1.524299 1_555
O22 P1 1.556519 1_655
O22 Sn1 2.028243 1_555
O23 P0 1.556519 1_545
O23 Sn0 2.028243 1_555
