# generated using pymatgen
data_La2B3Br
_symmetry_space_group_name_H-M   'P 1'
_cell_length_a   7.85487416
_cell_length_b   7.85383172
_cell_length_c   8.54802579
_cell_angle_alpha   90.00249127
_cell_angle_beta   89.99620042
_cell_angle_gamma   119.99645535
_symmetry_Int_Tables_number   1
_chemical_formula_structural   La2B3Br
_chemical_formula_sum   'La8 B12 Br4'
_cell_volume   456.70186932
_cell_formula_units_Z   4
loop_
 _symmetry_equiv_pos_site_id
 _symmetry_equiv_pos_as_xyz
  1  'x, y, z'
loop_
 _atom_site_type_symbol
 _atom_site_label
 _atom_site_symmetry_multiplicity
 _atom_site_fract_x
 _atom_site_fract_y
 _atom_site_fract_z
 _atom_site_occupancy
  La  La0  1  0.16671225  0.33377202  0.21763139  1
  La  La1  1  0.16752692  0.83343502  0.21754213  1
  La  La2  1  0.66673928  0.33326619  0.76866481  1
  La  La3  1  0.66599524  0.83359496  0.21752534  1
  La  La4  1  0.16760509  0.83336345  0.78248679  1
  La  La5  1  0.66659424  0.33321896  0.23126928  1
  La  La6  1  0.16682947  0.33373169  0.78239984  1
  La  La7  1  0.66601647  0.83370387  0.78249970  1
  B  B0  1  0.40368921  0.80730537  0.00001042  1
  B  B1  1  0.19222319  0.59595922  -0.00000578  1
  B  B2  1  0.52743460  0.47254512  -0.00000834  1
  B  B3  1  0.14076240  0.07025768  -0.00002126  1
  B  B4  1  0.38728516  0.19358210  -0.00001199  1
  B  B5  1  0.52721827  0.05450949  -0.00001066  1
  B  B6  1  0.40375272  0.59600413  -0.00000449  1
  B  B7  1  0.80627894  0.19354055  0.00000490  1
  B  B8  1  0.80626301  0.61258356  0.00000237  1
  B  B9  1  0.92959567  0.07026201  -0.00000503  1
  B  B10  1  0.94513766  0.47260074  -0.00000008  1
  B  B11  1  0.92963751  0.85916366  -0.00003341  1
  Br  Br0  1  0.00524302  0.50283661  0.50001783  1
  Br  Br1  1  0.49734694  0.99476310  0.50000057  1
  Br  Br2  1  0.49753893  0.50282285  0.50001248  1
  Br  Br3  1  -0.00009619  -0.00015532  0.50003419  1
loop_
_geom_bond_atom_site_label_1
_geom_bond_atom_site_label_2
_geom_bond_distance
_geom_bond_site_symmetry_2
B0 B6 1.659774 1_555
B0 B1 1.660547 1_555
B0 B5 1.681448 1_565
B0 La4 2.705189 1_554
B0 La7 2.705208 1_554
B0 La3 2.705548 1_555
B0 La1 2.705735 1_555
B1 B6 1.661362 1_555
B1 B10 1.680865 1_455
B1 La0 2.707217 1_555
B1 La6 2.707372 1_554
B1 La4 2.707689 1_554
B1 La1 2.708460 1_555
B2 B6 1.681040 1_555
B2 B8 1.896810 1_555
B2 B4 1.897476 1_555
B2 La5 2.738072 1_555
B2 La2 2.738663 1_554
B3 B9 1.658705 1_455
B3 B4 1.677036 1_555
B3 La1 2.711757 1_545
B3 La4 2.711874 1_544
B3 La6 2.712858 1_554
B3 La0 2.713697 1_555
B4 B5 1.897786 1_555
B4 La5 2.742114 1_555
B4 La2 2.742915 1_554
B5 B7 1.898388 1_555
B5 La5 2.739020 1_555
B5 La2 2.739550 1_554
B6 La6 2.707969 1_554
B6 La0 2.708310 1_555
B6 La3 2.709152 1_555
B6 La7 2.709209 1_554
B7 B9 1.677328 1_555
B7 La5 2.741949 1_555
B7 La2 2.742129 1_554
B8 La5 2.742058 1_555
B8 La2 2.742238 1_554
B9 La7 2.710862 1_544
B9 La3 2.711320 1_545
B9 La6 2.712600 1_654
B9 La0 2.712739 1_655
B10 B8 1.896778 1_555
B10 B7 1.898135 1_555
B10 La2 2.738157 1_554
B10 La5 2.738293 1_555
B11 B9 1.658095 1_565
B11 B3 1.658217 1_665
B11 B8 1.677204 1_555
B11 La4 2.714623 1_654
B11 La1 2.714684 1_655
B11 La7 2.714747 1_554
B11 La3 2.714966 1_555
Br0 La2 3.252019 1_455
Br0 La5 3.253498 1_455
Br0 La0 3.298723 1_555
Br0 La4 3.299215 1_555
Br0 La6 3.299631 1_555
Br0 La1 3.299637 1_555
Br1 La2 3.251968 1_565
Br1 La5 3.252183 1_565
Br1 La4 3.295862 1_555
Br1 La7 3.295914 1_555
Br1 La3 3.295957 1_555
Br1 La1 3.296228 1_555
Br2 La5 3.253133 1_555
Br2 La2 3.253262 1_555
Br2 La6 3.299746 1_555
Br2 La0 3.300411 1_555
Br2 La3 3.300519 1_555
Br2 La7 3.300986 1_555
Br3 La6 3.314113 1_555
Br3 La0 3.314572 1_555
Br3 La7 3.314884 1_445
Br3 La3 3.315422 1_445
Br3 La1 3.315518 1_545
Br3 La4 3.316181 1_545
