# generated using pymatgen
data_K2Cr2O7
_symmetry_space_group_name_H-M   'P 1'
_cell_length_a   7.44587935
_cell_length_b   7.44587935
_cell_length_c   7.41267749
_cell_angle_alpha   88.46756565
_cell_angle_beta   88.46756565
_cell_angle_gamma   59.28280854
_symmetry_Int_Tables_number   1
_chemical_formula_structural   K2Cr2O7
_chemical_formula_sum   'K4 Cr4 O14'
_cell_volume   353.14076760
_cell_formula_units_Z   2
loop_
 _symmetry_equiv_pos_site_id
 _symmetry_equiv_pos_as_xyz
  1  'x, y, z'
loop_
 _atom_site_type_symbol
 _atom_site_label
 _atom_site_symmetry_multiplicity
 _atom_site_fract_x
 _atom_site_fract_y
 _atom_site_fract_z
 _atom_site_occupancy
  K  K0  1  -0.00158253  0.70892703  0.85982740  1
  K  K1  1  0.29107297  0.00158253  0.64017260  1
  K  K2  1  0.00158253  0.29107297  0.14017260  1
  K  K3  1  0.70892703  -0.00158253  0.35982740  1
  Cr  Cr0  1  0.77648255  0.42978503  0.63243867  1
  Cr  Cr1  1  0.57021497  0.22351745  0.86756133  1
  Cr  Cr2  1  0.22351745  0.57021497  0.36756133  1
  Cr  Cr3  1  0.42978503  0.77648255  0.13243867  1
  O  O0  1  0.86358414  0.25226208  0.47859935  1
  O  O1  1  0.74773792  0.13641586  0.02140065  1
  O  O2  1  0.13641586  0.74773792  0.52140065  1
  O  O3  1  0.25226208  0.86358414  0.97859935  1
  O  O4  1  0.96172005  0.36676521  0.77481300  1
  O  O5  1  0.63323479  0.03827995  0.72518700  1
  O  O6  1  0.03827995  0.63323479  0.22518700  1
  O  O7  1  0.36676521  0.96172005  0.27481300  1
  O  O8  1  0.56312593  0.43687407  0.75000000  1
  O  O9  1  0.43687407  0.56312593  0.25000000  1
  O  O10  1  0.70054954  0.65782486  0.54549571  1
  O  O11  1  0.34217514  0.29945046  0.95450429  1
  O  O12  1  0.29945046  0.34217514  0.45450429  1
  O  O13  1  0.65782486  0.70054954  0.04549571  1
loop_
_geom_bond_atom_site_label_1
_geom_bond_atom_site_label_2
_geom_bond_distance
_geom_bond_site_symmetry_2
K0 O6 2.744275 1_556
K0 O2 2.749423 1_555
K0 O5 2.757824 1_465
K0 O4 2.787259 1_455
K0 O3 2.835576 1_555
K0 O13 2.880934 1_456
K0 O11 2.889458 1_555
K0 O1 3.010789 1_466
K1 O7 2.744275 1_545
K1 O3 2.749423 1_545
K1 O4 2.757824 1_455
K1 O5 2.787259 1_555
K1 O2 2.835576 1_545
K1 O12 2.880934 1_555
K1 O10 2.889458 1_545
K1 O0 3.010789 1_455
K2 O4 2.744275 1_454
K2 O0 2.749423 1_455
K2 O7 2.757824 1_545
K2 O6 2.787259 1_555
K2 O1 2.835576 1_455
K2 O11 2.880934 1_554
K2 O13 2.889458 1_455
K2 O3 3.010789 1_544
K3 O5 2.744275 1_555
K3 O1 2.749423 1_555
K3 O6 2.757824 1_645
K3 O7 2.787259 1_545
K3 O0 2.835576 1_555
K3 O10 2.880934 1_545
K3 O12 2.889458 1_555
K3 O2 3.010789 1_645
Cr0 O10 1.611922 1_555
Cr0 O4 1.620659 1_555
Cr0 O0 1.622812 1_555
Cr0 O8 1.768810 1_555
Cr1 O11 1.611922 1_555
Cr1 O5 1.620659 1_555
Cr1 O1 1.622812 1_556
Cr1 O8 1.768810 1_555
Cr2 O12 1.611922 1_555
Cr2 O6 1.620659 1_555
Cr2 O2 1.622812 1_555
Cr2 O9 1.768810 1_555
Cr3 O13 1.611922 1_555
Cr3 O7 1.620659 1_555
Cr3 O3 1.622812 1_554
Cr3 O9 1.768810 1_555
