# generated using pymatgen
data_Cu2WO4
_symmetry_space_group_name_H-M   'P 1'
_cell_length_a   5.93354000
_cell_length_b   8.11352510
_cell_length_c   8.29737188
_cell_angle_alpha   109.77970345
_cell_angle_beta   95.24075683
_cell_angle_gamma   92.21425802
_symmetry_Int_Tables_number   1
_chemical_formula_structural   Cu2WO4
_chemical_formula_sum   'Cu8 W4 O16'
_cell_volume   373.28046648
_cell_formula_units_Z   4
loop_
 _symmetry_equiv_pos_site_id
 _symmetry_equiv_pos_as_xyz
  1  'x, y, z'
loop_
 _atom_site_type_symbol
 _atom_site_label
 _atom_site_symmetry_multiplicity
 _atom_site_fract_x
 _atom_site_fract_y
 _atom_site_fract_z
 _atom_site_occupancy
  Cu  Cu0  1  0.22428700  0.70870000  0.90294000  1
  Cu  Cu1  1  0.77571300  0.29130000  0.09706000  1
  Cu  Cu2  1  0.12666800  0.35911700  0.55173100  1
  Cu  Cu3  1  0.00000000  0.00000000  0.00000000  1
  Cu  Cu4  1  0.85593600  0.76198500  0.16318100  1
  Cu  Cu5  1  0.87333200  0.64088300  0.44826900  1
  Cu  Cu6  1  0.14406400  0.23801500  0.83681900  1
  Cu  Cu7  1  0.00000000  0.00000000  0.50000000  1
  W  W0  1  0.51337600  0.92718700  0.67770700  1
  W  W1  1  0.65050900  0.35508300  0.72530000  1
  W  W2  1  0.48662400  0.07281300  0.32229300  1
  W  W3  1  0.34949100  0.64491700  0.27470000  1
  O  O0  1  0.28894200  0.82267100  0.75082600  1
  O  O1  1  0.49290700  0.46141400  0.16004100  1
  O  O2  1  0.50709300  0.53858600  0.83995900  1
  O  O3  1  0.56377200  0.82906900  0.21313100  1
  O  O4  1  0.43622800  0.17093100  0.78686900  1
  O  O5  1  0.71105800  0.17732900  0.24917400  1
  O  O6  1  0.85889100  0.45139100  0.62427500  1
  O  O7  1  0.41694000  0.28609200  0.50944200  1
  O  O8  1  0.24043900  0.06685900  0.17328700  1
  O  O9  1  0.75956100  0.93314100  0.82671300  1
  O  O10  1  0.13203100  0.66913000  0.10010200  1
  O  O11  1  0.14110900  0.54860900  0.37572500  1
  O  O12  1  0.70602500  0.07583600  0.54970600  1
  O  O13  1  0.86796900  0.33087000  0.89989800  1
  O  O14  1  0.58306000  0.71390800  0.49055800  1
  O  O15  1  0.29397500  0.92416400  0.45029400  1
loop_
_geom_bond_atom_site_label_1
_geom_bond_atom_site_label_2
_geom_bond_distance
_geom_bond_site_symmetry_2
Cu0 O0 1.856402 1_555
Cu0 O10 1.893269 1_556
Cu0 O2 2.201119 1_555
Cu1 O5 1.856402 1_555
Cu1 O13 1.893269 1_554
Cu1 O1 2.201119 1_555
Cu2 O6 1.846332 1_455
Cu2 O7 1.867933 1_555
Cu2 O11 2.456851 1_555
Cu3 O8 1.853249 1_555
Cu3 O9 1.853249 1_444
Cu4 O10 1.873612 1_655
Cu4 O3 1.877436 1_555
Cu5 O11 1.846332 1_655
Cu5 O14 1.867933 1_555
Cu5 O6 2.456851 1_555
Cu6 O13 1.873612 1_455
Cu6 O4 1.877436 1_555
Cu7 O12 1.906284 1_455
Cu7 O15 1.906284 1_545
O0 W0 1.808065 1_555
O1 W3 1.770047 1_555
O2 W1 1.770047 1_555
O3 W2 1.968324 1_565
O3 W3 2.144391 1_555
O4 W0 1.968324 1_545
O4 W1 2.144391 1_555
O5 W2 1.808065 1_555
O6 W1 1.843913 1_555
O7 W2 1.982585 1_555
O7 W1 2.061543 1_555
O8 W2 1.813533 1_555
O9 W0 1.813533 1_555
O10 W3 1.916496 1_555
O11 W3 1.843913 1_555
O12 W2 2.184792 1_555
O12 W0 2.207136 1_545
O12 W1 2.296899 1_555
O13 W1 1.916496 1_555
O14 W0 1.982585 1_555
O14 W3 2.061543 1_555
O15 W0 2.184792 1_555
O15 W2 2.207136 1_565
O15 W3 2.296899 1_555
