# generated using pymatgen
data_GdMgGa
_symmetry_space_group_name_H-M   'P 1'
_cell_length_a   7.31644051
_cell_length_b   7.31589764
_cell_length_c   4.45240932
_cell_angle_alpha   90.00000000
_cell_angle_beta   90.00000000
_cell_angle_gamma   120.00444840
_symmetry_Int_Tables_number   1
_chemical_formula_structural   GdMgGa
_chemical_formula_sum   'Gd3 Mg3 Ga3'
_cell_volume   206.38290062
_cell_formula_units_Z   3
loop_
 _symmetry_equiv_pos_site_id
 _symmetry_equiv_pos_as_xyz
  1  'x, y, z'
loop_
 _atom_site_type_symbol
 _atom_site_label
 _atom_site_symmetry_multiplicity
 _atom_site_fract_x
 _atom_site_fract_y
 _atom_site_fract_z
 _atom_site_occupancy
  Gd  Gd0  1  0.42620853  0.42612935  -0.00000000  1
  Gd  Gd1  1  0.00012905  0.57395494  -0.00000000  1
  Gd  Gd2  1  0.57397040  0.00006569  -0.00000000  1
  Mg  Mg0  1  0.24328917  0.99976118  0.50000000  1
  Mg  Mg1  1  0.75661581  0.75675241  0.50000000  1
  Mg  Mg2  1  0.99971945  0.24324407  0.50000000  1
  Ga  Ga0  1  0.99993576  0.00003858  0.00000000  1
  Ga  Ga1  1  0.66672298  0.33343341  0.50000000  1
  Ga  Ga2  1  0.33340986  0.66661736  0.50000000  1
loop_
_geom_bond_atom_site_label_1
_geom_bond_atom_site_label_2
_geom_bond_distance
_geom_bond_site_symmetry_2
Ga0 Mg1 2.850285 1_545
Ga0 Mg1 2.850285 1_544
Ga0 Mg2 2.850368 1_555
Ga0 Mg2 2.850368 1_554
Ga0 Mg0 2.851266 1_644
Ga0 Mg0 2.851266 1_645
Ga0 Gd2 3.116649 1_555
Ga0 Gd0 3.117809 1_655
Ga0 Gd1 3.117892 1_645
Ga1 Mg2 2.824697 1_555
Ga1 Mg1 2.826055 1_555
Ga1 Mg0 2.827217 1_545
Ga1 Gd0 3.115441 1_555
Ga1 Gd0 3.115441 1_556
Ga1 Gd2 3.115986 1_555
Ga1 Gd2 3.115986 1_556
Ga1 Gd1 3.116050 1_656
Ga1 Gd1 3.116050 1_655
Ga2 Mg1 2.824927 1_555
Ga2 Mg0 2.825274 1_555
Ga2 Mg2 2.826870 1_455
Ga2 Gd0 3.115624 1_555
Ga2 Gd0 3.115624 1_556
Ga2 Gd1 3.115803 1_556
Ga2 Gd1 3.115803 1_555
Ga2 Gd2 3.116187 1_566
Ga2 Gd2 3.116187 1_565
