# generated using pymatgen
data_Na2Ti2Si2O9
_symmetry_space_group_name_H-M   'P 1'
_cell_length_a   5.28700700
_cell_length_b   8.79768900
_cell_length_c   14.73470800
_cell_angle_alpha   90.00000000
_cell_angle_beta   90.00000000
_cell_angle_gamma   90.00000000
_symmetry_Int_Tables_number   1
_chemical_formula_structural   Na2Ti2Si2O9
_chemical_formula_sum   'Na8 Ti8 Si8 O36'
_cell_volume   685.36200550
_cell_formula_units_Z   4
loop_
 _symmetry_equiv_pos_site_id
 _symmetry_equiv_pos_as_xyz
  1  'x, y, z'
loop_
 _atom_site_type_symbol
 _atom_site_label
 _atom_site_symmetry_multiplicity
 _atom_site_fract_x
 _atom_site_fract_y
 _atom_site_fract_z
 _atom_site_occupancy
  Na  Na0  1  0.64059500  0.93668700  0.65434300  1
  Na  Na1  1  0.64059500  0.06331300  0.84565700  1
  Na  Na2  1  0.85940500  0.43668700  0.34565700  1
  Na  Na3  1  0.85940500  0.56331300  0.15434300  1
  Na  Na4  1  0.35940500  0.06331300  0.34565700  1
  Na  Na5  1  0.35940500  0.93668700  0.15434300  1
  Na  Na6  1  0.14059500  0.56331300  0.65434300  1
  Na  Na7  1  0.14059500  0.43668700  0.84565700  1
  Ti  Ti0  1  0.13019200  0.15035400  0.66891300  1
  Ti  Ti1  1  0.13019200  0.84964600  0.83108700  1
  Ti  Ti2  1  0.36980800  0.65035400  0.33108700  1
  Ti  Ti3  1  0.36980800  0.34964600  0.16891300  1
  Ti  Ti4  1  0.86980800  0.84964600  0.33108700  1
  Ti  Ti5  1  0.86980800  0.15035400  0.16891300  1
  Ti  Ti6  1  0.63019200  0.34964600  0.66891300  1
  Ti  Ti7  1  0.63019200  0.65035400  0.83108700  1
  Si  Si0  1  0.19980300  0.84197500  0.52651800  1
  Si  Si1  1  0.19980300  0.15802500  0.97348200  1
  Si  Si2  1  0.30019700  0.34197500  0.47348200  1
  Si  Si3  1  0.30019700  0.65802500  0.02651800  1
  Si  Si4  1  0.80019700  0.15802500  0.47348200  1
  Si  Si5  1  0.80019700  0.84197500  0.02651800  1
  Si  Si6  1  0.69980300  0.65802500  0.52651800  1
  Si  Si7  1  0.69980300  0.34197500  0.97348200  1
  O  O0  1  0.00807500  0.00000000  0.75000000  1
  O  O1  1  0.49192500  0.50000000  0.25000000  1
  O  O2  1  0.99192500  0.00000000  0.25000000  1
  O  O3  1  0.50807500  0.50000000  0.75000000  1
  O  O4  1  0.44052300  0.18328500  0.72200800  1
  O  O5  1  0.44052300  0.81671500  0.77799200  1
  O  O6  1  0.05947700  0.68328500  0.27799200  1
  O  O7  1  0.05947700  0.31671500  0.22200800  1
  O  O8  1  0.55947700  0.81671500  0.27799200  1
  O  O9  1  0.55947700  0.18328500  0.22200800  1
  O  O10  1  0.94052300  0.31671500  0.72200800  1
  O  O11  1  0.94052300  0.68328500  0.77799200  1
  O  O12  1  0.43559300  0.73500800  0.56689200  1
  O  O13  1  0.43559300  0.26499200  0.93310800  1
  O  O14  1  0.75940500  0.99381000  0.42607400  1
  O  O15  1  0.06440700  0.23500800  0.43310800  1
  O  O16  1  0.56440700  0.26499200  0.43310800  1
  O  O17  1  0.56440700  0.73500800  0.06689200  1
  O  O18  1  0.93559300  0.76499200  0.56689200  1
  O  O19  1  0.93559300  0.23500800  0.93310800  1
  O  O20  1  0.24059500  0.00619000  0.57392600  1
  O  O21  1  0.24059500  0.99381000  0.92607400  1
  O  O22  1  0.25940500  0.50619000  0.42607400  1
  O  O23  1  0.25940500  0.49381000  0.07392600  1
  O  O24  1  0.70105500  0.33480600  0.08392200  1
  O  O25  1  0.70105500  0.66519400  0.41607800  1
  O  O26  1  0.79894500  0.83480600  0.91607800  1
  O  O27  1  0.79894500  0.16519400  0.58392200  1
  O  O28  1  0.29894500  0.66519400  0.91607800  1
  O  O29  1  0.29894500  0.33480600  0.58392200  1
  O  O30  1  0.20105500  0.16519400  0.08392200  1
  O  O31  1  0.20105500  0.83480600  0.41607800  1
  O  O32  1  0.74059500  0.50619000  0.92607400  1
  O  O33  1  0.74059500  0.49381000  0.57392600  1
  O  O34  1  0.75940500  0.00619000  0.07392600  1
  O  O35  1  0.06440700  0.76499200  0.06689200  1
loop_
_geom_bond_atom_site_label_1
_geom_bond_atom_site_label_2
_geom_bond_distance
_geom_bond_site_symmetry_2
Na0 O5 2.356347 1_555
Na0 O27 2.412265 1_565
Na0 O12 2.446078 1_555
Na0 O0 2.464067 1_665
Na0 O20 2.500064 1_565
Na0 O18 2.524796 1_555
Na0 O4 2.611447 1_565
Na1 O4 2.356347 1_555
Na1 O26 2.412265 1_545
Na1 O13 2.446078 1_555
Na1 O0 2.464067 1_655
Na1 O21 2.500064 1_545
Na1 O19 2.524796 1_555
Na1 O5 2.611447 1_545
Na2 O7 2.356347 1_655
Na2 O25 2.412265 1_555
Na2 O15 2.446078 1_655
Na2 O1 2.464067 1_555
Na2 O22 2.500064 1_655
Na2 O16 2.524796 1_555
Na2 O6 2.611447 1_655
Na3 O6 2.356347 1_655
Na3 O24 2.412265 1_555
Na3 O35 2.446078 1_655
Na3 O1 2.464067 1_555
Na3 O23 2.500064 1_655
Na3 O17 2.524796 1_555
Na3 O7 2.611447 1_655
Na4 O9 2.356347 1_555
Na4 O31 2.412265 1_545
Na4 O16 2.446078 1_555
Na4 O2 2.464067 1_455
Na4 O14 2.500064 1_545
Na4 O15 2.524796 1_555
Na4 O8 2.611447 1_545
Na5 O8 2.356347 1_555
Na5 O30 2.412265 1_565
Na5 O17 2.446078 1_555
Na5 O2 2.464067 1_465
Na5 O34 2.500064 1_565
Na5 O35 2.524796 1_555
Na5 O9 2.611447 1_565
Na6 O11 2.356347 1_455
Na6 O29 2.412265 1_555
Na6 O18 2.446078 1_455
Na6 O3 2.464067 1_555
Na6 O33 2.500064 1_455
Na6 O12 2.524796 1_555
Na6 O10 2.611447 1_455
Na7 O10 2.356347 1_455
Na7 O28 2.412265 1_555
Na7 O19 2.446078 1_455
Na7 O3 2.464067 1_555
Na7 O32 2.500064 1_455
Na7 O13 2.524796 1_555
Na7 O11 2.611447 1_455
O0 Ti1 1.895808 1_545
O0 Ti0 1.895808 1_555
O1 Ti2 1.895808 1_555
O1 Ti3 1.895808 1_555
O2 Ti4 1.895808 1_545
O2 Ti5 1.895808 1_555
O3 Ti7 1.895808 1_555
O3 Ti6 1.895808 1_555
O4 Ti0 1.840641 1_555
O4 Ti6 1.939002 1_555
O5 Ti1 1.840641 1_555
O5 Ti7 1.939002 1_555
O6 Ti2 1.840641 1_555
O6 Ti4 1.939002 1_455
O7 Ti3 1.840641 1_555
O7 Ti5 1.939002 1_455
O8 Ti4 1.840641 1_555
O8 Ti2 1.939002 1_555
O9 Ti5 1.840641 1_555
O9 Ti3 1.939002 1_555
O10 Ti6 1.840641 1_555
O10 Ti0 1.939002 1_655
O11 Ti7 1.840641 1_555
O11 Ti1 1.939002 1_655
O12 Si6 1.662491 1_555
O12 Si0 1.671399 1_555
O13 Si7 1.662491 1_555
O13 Si1 1.671399 1_555
O14 Si4 1.619157 1_565
O14 Ti4 1.976920 1_555
O15 Si4 1.662491 1_455
O15 Si2 1.671399 1_555
O16 Si2 1.662491 1_555
O16 Si4 1.671399 1_555
O17 Si3 1.662491 1_555
O17 Si5 1.671399 1_555
O18 Si0 1.662491 1_655
O18 Si6 1.671399 1_555
O19 Si1 1.662491 1_655
O19 Si7 1.671399 1_555
O20 Si0 1.619157 1_545
O20 Ti0 1.976920 1_555
O21 Si1 1.619157 1_565
O21 Ti1 1.976920 1_555
O22 Si2 1.619157 1_555
O22 Ti2 1.976920 1_555
O23 Si3 1.619157 1_555
O23 Ti3 1.976920 1_555
O24 Si7 1.628536 1_554
O24 Ti3 2.156946 1_555
O24 Ti5 2.235540 1_555
O25 Si6 1.628536 1_555
O25 Ti2 2.156946 1_555
O25 Ti4 2.235540 1_555
O26 Si5 1.628536 1_556
O26 Ti1 2.156946 1_655
O26 Ti7 2.235540 1_555
O27 Si4 1.628536 1_555
O27 Ti0 2.156946 1_655
O27 Ti6 2.235540 1_555
O28 Si3 1.628536 1_556
O28 Ti7 2.156946 1_555
O28 Ti1 2.235540 1_555
O29 Si2 1.628536 1_555
O29 Ti6 2.156946 1_555
O29 Ti0 2.235540 1_555
O30 Si1 1.628536 1_554
O30 Ti5 2.156946 1_455
O30 Ti3 2.235540 1_555
O31 Si0 1.628536 1_555
O31 Ti4 2.156946 1_455
O31 Ti2 2.235540 1_555
O32 Si7 1.619157 1_555
O32 Ti7 1.976920 1_555
O33 Si6 1.619157 1_555
O33 Ti6 1.976920 1_555
O34 Si5 1.619157 1_545
O34 Ti5 1.976920 1_555
O35 Si5 1.662491 1_455
O35 Si3 1.671399 1_555
