# generated using pymatgen
data_Ho2(Ni5B3)3
_symmetry_space_group_name_H-M   'P 1'
_cell_length_a   9.81824413
_cell_length_b   9.81824413
_cell_length_c   11.23353900
_cell_angle_alpha   90.00000000
_cell_angle_beta   90.00000000
_cell_angle_gamma   107.66972106
_symmetry_Int_Tables_number   1
_chemical_formula_structural   Ho2(Ni5B3)3
_chemical_formula_sum   'Ho8 Ni60 B36'
_cell_volume   1031.80121775
_cell_formula_units_Z   4
loop_
 _symmetry_equiv_pos_site_id
 _symmetry_equiv_pos_as_xyz
  1  'x, y, z'
loop_
 _atom_site_type_symbol
 _atom_site_label
 _atom_site_symmetry_multiplicity
 _atom_site_fract_x
 _atom_site_fract_y
 _atom_site_fract_z
 _atom_site_occupancy
  Ho  Ho0  1  0.30752300  0.80752300  0.25000000  1
  Ho  Ho1  1  0.19247700  0.69247700  0.75000000  1
  Ho  Ho2  1  0.69247700  0.19247700  0.75000000  1
  Ho  Ho3  1  0.80752300  0.30752300  0.25000000  1
  Ho  Ho4  1  0.23909500  0.23909500  0.45905300  1
  Ho  Ho5  1  0.26090500  0.26090500  0.95905300  1
  Ho  Ho6  1  0.73909500  0.73909500  0.04094700  1
  Ho  Ho7  1  0.76090500  0.76090500  0.54094700  1
  Ni  Ni0  1  0.00000000  0.00000000  0.00000000  1
  Ni  Ni1  1  0.50000000  0.50000000  0.50000000  1
  Ni  Ni2  1  0.50789700  0.31539000  0.33968800  1
  Ni  Ni3  1  0.99210300  0.18461000  0.83968800  1
  Ni  Ni4  1  0.81539000  0.00789700  0.16031200  1
  Ni  Ni5  1  0.68461000  0.49210300  0.66031200  1
  Ni  Ni6  1  0.49210300  0.68461000  0.66031200  1
  Ni  Ni7  1  0.00789700  0.81539000  0.16031200  1
  Ni  Ni8  1  0.18461000  0.99210300  0.83968800  1
  Ni  Ni9  1  0.31539000  0.50789700  0.33968800  1
  Ni  Ni10  1  0.50000000  0.50000000  0.00000000  1
  Ni  Ni11  1  0.00000000  0.00000000  0.50000000  1
  Ni  Ni12  1  0.56827500  0.06827500  0.25000000  1
  Ni  Ni13  1  0.93172500  0.43172500  0.75000000  1
  Ni  Ni14  1  0.43172500  0.93172500  0.75000000  1
  Ni  Ni15  1  0.06827500  0.56827500  0.25000000  1
  Ni  Ni16  1  0.26484000  0.26484000  0.21170200  1
  Ni  Ni17  1  0.23516000  0.23516000  0.71170200  1
  Ni  Ni18  1  0.76484000  0.76484000  0.28829800  1
  Ni  Ni19  1  0.73516000  0.73516000  0.78829800  1
  Ni  Ni20  1  0.66242900  0.13543300  0.02984700  1
  Ni  Ni21  1  0.83757100  0.36456700  0.52984700  1
  Ni  Ni22  1  0.63543300  0.16242900  0.47015300  1
  Ni  Ni23  1  0.86456700  0.33757100  0.97015300  1
  Ni  Ni24  1  0.33757100  0.86456700  0.97015300  1
  Ni  Ni25  1  0.16242900  0.63543300  0.47015300  1
  Ni  Ni26  1  0.36456700  0.83757100  0.52984700  1
  Ni  Ni27  1  0.13543300  0.66242900  0.02984700  1
  Ni  Ni28  1  0.16742900  0.00973500  0.30671700  1
  Ni  Ni29  1  0.33257100  0.49026500  0.80671700  1
  Ni  Ni30  1  0.50973500  0.66742900  0.19328300  1
  Ni  Ni31  1  0.99026500  0.83257100  0.69328300  1
  Ni  Ni32  1  0.83257100  0.99026500  0.69328300  1
  Ni  Ni33  1  0.66742900  0.50973500  0.19328300  1
  Ni  Ni34  1  0.49026500  0.33257100  0.80671700  1
  Ni  Ni35  1  0.00973500  0.16742900  0.30671700  1
  Ni  Ni36  1  0.39232700  0.05245900  0.41446300  1
  Ni  Ni37  1  0.10767300  0.44754100  0.91446300  1
  Ni  Ni38  1  0.55245900  0.89232700  0.08553700  1
  Ni  Ni39  1  0.94754100  0.60767300  0.58553700  1
  Ni  Ni40  1  0.60767300  0.94754100  0.58553700  1
  Ni  Ni41  1  0.89232700  0.55245900  0.08553700  1
  Ni  Ni42  1  0.44754100  0.10767300  0.91446300  1
  Ni  Ni43  1  0.05245900  0.39232700  0.41446300  1
  Ni  Ni44  1  0.50436900  0.27173000  0.11749400  1
  Ni  Ni45  1  0.99563100  0.22827000  0.61749400  1
  Ni  Ni46  1  0.77173000  0.00436900  0.38250600  1
  Ni  Ni47  1  0.72827000  0.49563100  0.88250600  1
  Ni  Ni48  1  0.49563100  0.72827000  0.88250600  1
  Ni  Ni49  1  0.00436900  0.77173000  0.38250600  1
  Ni  Ni50  1  0.22827000  0.99563100  0.61749400  1
  Ni  Ni51  1  0.27173000  0.50436900  0.11749400  1
  Ni  Ni52  1  0.24221800  0.02873000  0.09744500  1
  Ni  Ni53  1  0.25778200  0.47127000  0.59744500  1
  Ni  Ni54  1  0.52873000  0.74221800  0.40255500  1
  Ni  Ni55  1  0.97127000  0.75778200  0.90255500  1
  Ni  Ni56  1  0.75778200  0.97127000  0.90255500  1
  Ni  Ni57  1  0.74221800  0.52873000  0.40255500  1
  Ni  Ni58  1  0.47127000  0.25778200  0.59744500  1
  Ni  Ni59  1  0.02873000  0.24221800  0.09744500  1
  B  B0  1  0.13484800  0.86515200  0.00000000  1
  B  B1  1  0.36515200  0.63484800  0.50000000  1
  B  B2  1  0.86515200  0.13484800  0.00000000  1
  B  B3  1  0.63484800  0.36515200  0.50000000  1
  B  B4  1  0.04387500  0.04387500  0.17251300  1
  B  B5  1  0.45612500  0.45612500  0.67251300  1
  B  B6  1  0.54387500  0.54387500  0.32748700  1
  B  B7  1  0.95612500  0.95612500  0.82748700  1
  B  B8  1  0.44143300  0.44143300  0.19890600  1
  B  B9  1  0.05856700  0.05856700  0.69890600  1
  B  B10  1  0.94143300  0.94143300  0.30109400  1
  B  B11  1  0.55856700  0.55856700  0.80109400  1
  B  B12  1  0.37828600  0.12024300  0.24372900  1
  B  B13  1  0.12171400  0.37975700  0.74372900  1
  B  B14  1  0.62024300  0.87828600  0.25627100  1
  B  B15  1  0.87975700  0.62171400  0.75627100  1
  B  B16  1  0.62171400  0.87975700  0.75627100  1
  B  B17  1  0.87828600  0.62024300  0.25627100  1
  B  B18  1  0.37975700  0.12171400  0.74372900  1
  B  B19  1  0.12024300  0.37828600  0.24372900  1
  B  B20  1  0.20252600  0.90565300  0.44902600  1
  B  B21  1  0.29747400  0.59434700  0.94902600  1
  B  B22  1  0.40565300  0.70252600  0.05097400  1
  B  B23  1  0.09434700  0.79747400  0.55097400  1
  B  B24  1  0.79747400  0.09434700  0.55097400  1
  B  B25  1  0.70252600  0.40565300  0.05097400  1
  B  B26  1  0.59434700  0.29747400  0.94902600  1
  B  B27  1  0.90565300  0.20252600  0.44902600  1
  B  B28  1  0.44984200  0.04922400  0.09956100  1
  B  B29  1  0.05015800  0.45077600  0.59956100  1
  B  B30  1  0.54922400  0.94984200  0.40043900  1
  B  B31  1  0.95077600  0.55015800  0.90043900  1
  B  B32  1  0.55015800  0.95077600  0.90043900  1
  B  B33  1  0.94984200  0.54922400  0.40043900  1
  B  B34  1  0.45077600  0.05015800  0.59956100  1
  B  B35  1  0.04922400  0.44984200  0.09956100  1
loop_
_geom_bond_atom_site_label_1
_geom_bond_atom_site_label_2
_geom_bond_distance
_geom_bond_site_symmetry_2
Ho0 Ni15 2.772353 1_555
Ho0 Ni30 2.810219 1_555
Ho0 Ni28 2.810219 1_565
Ho0 Ni38 2.945209 1_555
Ho0 Ni36 2.945209 1_565
Ho0 Ni52 2.985021 1_565
Ho0 Ni54 2.985021 1_555
Ho0 Ni12 3.021536 1_565
Ho0 Ni27 3.088567 1_555
Ho0 Ni25 3.088567 1_555
Ho0 Ni9 3.132600 1_555
Ho0 Ni7 3.132600 1_555
Ho0 Ni24 3.191095 1_554
Ho0 Ni26 3.191095 1_555
Ho0 Ni49 3.250135 1_555
Ho0 Ni51 3.250135 1_555
Ho1 Ni14 2.772353 1_555
Ho1 Ni29 2.810219 1_555
Ho1 Ni31 2.810219 1_455
Ho1 Ni37 2.945209 1_555
Ho1 Ni39 2.945209 1_455
Ho1 Ni55 2.985021 1_455
Ho1 Ni53 2.985021 1_555
Ho1 Ni13 3.021536 1_455
Ho1 Ni26 3.088567 1_555
Ho1 Ni24 3.088567 1_555
Ho1 Ni6 3.132600 1_555
Ho1 Ni8 3.132600 1_555
Ho1 Ni27 3.191095 1_556
Ho1 Ni25 3.191095 1_555
Ho1 Ni48 3.250135 1_555
Ho1 Ni50 3.250135 1_555
Ho2 Ni13 2.772353 1_555
Ho2 Ni34 2.810219 1_555
Ho2 Ni32 2.810219 1_545
Ho2 Ni42 2.945209 1_555
Ho2 Ni40 2.945209 1_545
Ho2 Ni56 2.985021 1_545
Ho2 Ni58 2.985021 1_555
Ho2 Ni14 3.021536 1_545
Ho2 Ni21 3.088567 1_555
Ho2 Ni23 3.088567 1_555
Ho2 Ni3 3.132600 1_555
Ho2 Ni5 3.132600 1_555
Ho2 Ni20 3.191095 1_556
Ho2 Ni22 3.191095 1_555
Ho2 Ni47 3.250135 1_555
Ho2 Ni45 3.250135 1_555
Ho3 Ni12 2.772353 1_555
Ho3 Ni33 2.810219 1_555
Ho3 Ni35 2.810219 1_655
Ho3 Ni41 2.945209 1_555
Ho3 Ni43 2.945209 1_655
Ho3 Ni59 2.985021 1_655
Ho3 Ni57 2.985021 1_555
Ho3 Ni15 3.021536 1_655
Ho3 Ni22 3.088567 1_555
Ho3 Ni20 3.088567 1_555
Ho3 Ni2 3.132600 1_555
Ho3 Ni4 3.132600 1_555
Ho3 Ni21 3.191095 1_555
Ho3 Ni23 3.191095 1_554
Ho3 Ni46 3.250135 1_555
Ho3 Ni44 3.250135 1_555
Ho4 Ni53 2.719007 1_555
Ho4 Ni58 2.719007 1_555
Ho4 Ni35 2.744588 1_555
Ho4 Ni28 2.744588 1_555
Ho4 Ni36 2.746949 1_555
Ho4 Ni43 2.746949 1_555
Ho4 Ni16 2.794596 1_555
Ho4 Ni11 2.808504 1_555
Ho4 Ni17 2.838509 1_555
Ho4 Ni9 2.850293 1_555
Ho4 Ni2 2.850293 1_555
Ho4 Ni45 2.956164 1_455
Ho4 Ni50 2.956164 1_545
Ho4 Ni1 3.058101 1_555
Ho5 Ni52 2.719007 1_556
Ho5 Ni59 2.719007 1_556
Ho5 Ni34 2.744588 1_555
Ho5 Ni29 2.744588 1_555
Ho5 Ni42 2.746949 1_555
Ho5 Ni37 2.746949 1_555
Ho5 Ni17 2.794596 1_555
Ho5 Ni10 2.808504 1_556
Ho5 Ni16 2.838509 1_556
Ho5 Ni8 2.850293 1_545
Ho5 Ni3 2.850293 1_455
Ho5 Ni44 2.956164 1_556
Ho5 Ni51 2.956164 1_556
Ho5 Ni0 3.058101 1_556
Ho6 Ni55 2.719007 1_554
Ho6 Ni56 2.719007 1_554
Ho6 Ni30 2.744588 1_555
Ho6 Ni33 2.744588 1_555
Ho6 Ni38 2.746949 1_555
Ho6 Ni41 2.746949 1_555
Ho6 Ni18 2.794596 1_555
Ho6 Ni10 2.808504 1_555
Ho6 Ni19 2.838509 1_554
Ho6 Ni4 2.850293 1_565
Ho6 Ni7 2.850293 1_655
Ho6 Ni48 2.956164 1_554
Ho6 Ni47 2.956164 1_554
Ho6 Ni0 3.058101 1_665
Ho7 Ni57 2.719007 1_555
Ho7 Ni54 2.719007 1_555
Ho7 Ni31 2.744588 1_555
Ho7 Ni32 2.744588 1_555
Ho7 Ni39 2.746949 1_555
Ho7 Ni40 2.746949 1_555
Ho7 Ni19 2.794596 1_555
Ho7 Ni11 2.808504 1_665
Ho7 Ni18 2.838509 1_555
Ho7 Ni6 2.850293 1_555
Ho7 Ni5 2.850293 1_555
Ho7 Ni49 2.956164 1_655
Ho7 Ni46 2.956164 1_565
Ho7 Ni1 3.058101 1_555
B0 Ni52 1.964985 1_565
B0 Ni55 1.964985 1_454
B0 Ni27 2.020153 1_555
B0 Ni24 2.020153 1_554
B0 Ni0 2.137735 1_565
B0 Ni8 2.160037 1_554
B0 Ni7 2.160037 1_555
B1 Ni53 1.964985 1_555
B1 Ni54 1.964985 1_555
B1 Ni26 2.020153 1_555
B1 Ni25 2.020153 1_555
B1 Ni1 2.137735 1_555
B1 Ni9 2.160037 1_555
B1 Ni6 2.160037 1_555
B2 Ni59 1.964985 1_655
B2 Ni56 1.964985 1_544
B2 Ni20 2.020153 1_555
B2 Ni23 2.020153 1_554
B2 Ni0 2.137735 1_655
B2 Ni3 2.160037 1_554
B2 Ni4 2.160037 1_555
B3 Ni58 1.964985 1_555
B3 Ni57 1.964985 1_555
B3 Ni21 2.020153 1_555
B3 Ni22 2.020153 1_555
B3 Ni1 2.137735 1_555
B3 Ni2 2.160037 1_555
B3 Ni5 2.160037 1_555
B4 Ni0 2.003513 1_555
B4 Ni35 2.025730 1_555
B4 Ni28 2.025730 1_555
B4 Ni4 2.166795 1_455
B4 Ni7 2.166795 1_545
B4 Ni59 2.168250 1_555
B4 Ni52 2.168250 1_555
B4 Ni16 2.598063 1_555
B5 Ni1 2.003513 1_555
B5 Ni34 2.025730 1_555
B5 Ni29 2.025730 1_555
B5 Ni6 2.166795 1_555
B5 Ni5 2.166795 1_555
B5 Ni53 2.168250 1_555
B5 Ni58 2.168250 1_555
B5 Ni17 2.598063 1_555
B6 B8 1.869624 1_555
B6 Ni1 2.003513 1_555
B6 Ni33 2.025730 1_555
B6 Ni30 2.025730 1_555
B6 Ni2 2.166795 1_555
B6 Ni9 2.166795 1_555
B6 Ni57 2.168250 1_555
B6 Ni54 2.168250 1_555
B6 Ni18 2.598063 1_555
B7 B9 1.869624 1_665
B7 Ni0 2.003513 1_666
B7 Ni31 2.025730 1_555
B7 Ni32 2.025730 1_555
B7 Ni8 2.166795 1_655
B7 Ni3 2.166795 1_565
B7 Ni56 2.168250 1_555
B7 Ni55 2.168250 1_555
B7 Ni19 2.598063 1_555
B8 Ni16 2.051363 1_555
B8 Ni30 2.115147 1_555
B8 Ni33 2.115147 1_555
B8 Ni51 2.149280 1_555
B8 Ni44 2.149280 1_555
B8 Ni2 2.224546 1_555
B8 Ni9 2.224546 1_555
B8 Ni10 2.335210 1_555
B9 Ni17 2.051363 1_555
B9 Ni32 2.115147 1_445
B9 Ni31 2.115147 1_445
B9 Ni45 2.149280 1_455
B9 Ni50 2.149280 1_545
B9 Ni8 2.224546 1_545
B9 Ni3 2.224546 1_455
B9 Ni11 2.335210 1_555
B10 B4 1.869624 1_665
B10 Ni18 2.051363 1_555
B10 Ni35 2.115147 1_665
B10 Ni28 2.115147 1_665
B10 Ni46 2.149280 1_565
B10 Ni49 2.149280 1_655
B10 Ni7 2.224546 1_655
B10 Ni4 2.224546 1_565
B10 Ni11 2.335210 1_665
B11 B5 1.869624 1_555
B11 Ni19 2.051363 1_555
B11 Ni34 2.115147 1_555
B11 Ni29 2.115147 1_555
B11 Ni48 2.149280 1_555
B11 Ni47 2.149280 1_555
B11 Ni5 2.224546 1_555
B11 Ni6 2.224546 1_555
B11 Ni10 2.335210 1_556
B12 B28 1.974843 1_555
B12 Ni36 2.048448 1_555
B12 Ni12 2.079097 1_555
B12 Ni16 2.084596 1_555
B12 Ni52 2.136298 1_555
B12 Ni28 2.144812 1_555
B12 Ni44 2.153554 1_555
B12 Ni2 2.229867 1_555
B12 Ho0 2.935952 1_545
B13 B29 1.974843 1_555
B13 Ni37 2.048448 1_555
B13 Ni13 2.079097 1_455
B13 Ni17 2.084596 1_555
B13 Ni53 2.136298 1_555
B13 Ni29 2.144812 1_555
B13 Ni45 2.153554 1_455
B13 Ni3 2.229867 1_455
B13 Ho1 2.935952 1_555
B14 B30 1.974843 1_555
B14 Ni38 2.048448 1_555
B14 Ni12 2.079097 1_565
B14 Ni18 2.084596 1_555
B14 Ni54 2.136298 1_555
B14 Ni30 2.144812 1_555
B14 Ni46 2.153554 1_565
B14 Ni4 2.229867 1_565
B14 Ho0 2.935952 1_555
B15 B31 1.974843 1_555
B15 Ni39 2.048448 1_555
B15 Ni13 2.079097 1_555
B15 Ni19 2.084596 1_555
B15 Ni55 2.136298 1_555
B15 Ni31 2.144812 1_555
B15 Ni47 2.153554 1_555
B15 Ni5 2.229867 1_555
B15 Ho1 2.935952 1_655
B16 B32 1.974843 1_555
B16 Ni40 2.048448 1_555
B16 Ni14 2.079097 1_555
B16 Ni19 2.084596 1_555
B16 Ni56 2.136298 1_555
B16 Ni32 2.144812 1_555
B16 Ni48 2.153554 1_555
B16 Ni6 2.229867 1_555
B16 Ho2 2.935952 1_565
B17 B33 1.974843 1_555
B17 Ni41 2.048448 1_555
B17 Ni15 2.079097 1_655
B17 Ni18 2.084596 1_555
B17 Ni57 2.136298 1_555
B17 Ni33 2.144812 1_555
B17 Ni49 2.153554 1_655
B17 Ni7 2.229867 1_655
B17 Ho3 2.935952 1_555
B18 B34 1.974843 1_555
B18 Ni42 2.048448 1_555
B18 Ni14 2.079097 1_545
B18 Ni17 2.084596 1_555
B18 Ni58 2.136298 1_555
B18 Ni34 2.144812 1_555
B18 Ni50 2.153554 1_545
B18 Ni8 2.229867 1_545
B18 Ho2 2.935952 1_555
B19 B35 1.974843 1_555
B19 Ni43 2.048448 1_555
B19 Ni15 2.079097 1_555
B19 Ni16 2.084596 1_555
B19 Ni59 2.136298 1_555
B19 Ni35 2.144812 1_555
B19 Ni51 2.153554 1_555
B19 Ni9 2.229867 1_555
B19 Ho3 2.935952 1_455
B20 B23 1.697930 1_555
B20 Ni28 1.983035 1_565
B20 Ni36 2.017528 1_565
B20 Ni50 2.071304 1_555
B20 Ni26 2.108992 1_555
B20 Ni49 2.125919 1_555
B20 Ni11 2.501613 1_565
B20 Ni25 2.572182 1_555
B20 Ho0 2.755465 1_555
B21 B22 1.697930 1_556
B21 Ni29 1.983035 1_555
B21 Ni37 2.017528 1_555
B21 Ni51 2.071304 1_556
B21 Ni27 2.108992 1_556
B21 Ni48 2.125919 1_555
B21 Ni10 2.501613 1_556
B21 Ni24 2.572182 1_555
B21 Ho1 2.755465 1_555
B22 Ni30 1.983035 1_555
B22 Ni38 2.017528 1_555
B22 Ni48 2.071304 1_554
B22 Ni24 2.108992 1_554
B22 Ni51 2.125919 1_555
B22 Ni10 2.501613 1_555
B22 Ni27 2.572182 1_555
B22 Ho0 2.755465 1_555
B23 Ni31 1.983035 1_455
B23 Ni39 2.017528 1_455
B23 Ni49 2.071304 1_555
B23 Ni25 2.108992 1_555
B23 Ni50 2.125919 1_555
B23 Ni11 2.501613 1_565
B23 Ni26 2.572182 1_555
B23 Ho1 2.755465 1_555
B24 B27 1.697930 1_555
B24 Ni32 1.983035 1_545
B24 Ni40 2.017528 1_545
B24 Ni46 2.071304 1_555
B24 Ni22 2.108992 1_555
B24 Ni45 2.125919 1_555
B24 Ni11 2.501613 1_655
B24 Ni21 2.572182 1_555
B24 Ho2 2.755465 1_555
B25 B26 1.697930 1_554
B25 Ni33 1.983035 1_555
B25 Ni41 2.017528 1_555
B25 Ni47 2.071304 1_554
B25 Ni23 2.108992 1_554
B25 Ni44 2.125919 1_555
B25 Ni10 2.501613 1_555
B25 Ni20 2.572182 1_555
B25 Ho3 2.755465 1_555
B26 Ni34 1.983035 1_555
B26 Ni42 2.017528 1_555
B26 Ni44 2.071304 1_556
B26 Ni20 2.108992 1_556
B26 Ni47 2.125919 1_555
B26 Ni10 2.501613 1_556
B26 Ni23 2.572182 1_555
B26 Ho2 2.755465 1_555
B27 Ni35 1.983035 1_655
B27 Ni43 2.017528 1_655
B27 Ni45 2.071304 1_555
B27 Ni21 2.108992 1_555
B27 Ni46 2.125919 1_555
B27 Ni11 2.501613 1_655
B27 Ni22 2.572182 1_555
B27 Ho3 2.755465 1_555
B28 Ni52 1.986843 1_555
B28 Ni12 2.027569 1_555
B28 Ni38 2.086884 1_545
B28 Ni44 2.095175 1_555
B28 Ni20 2.147972 1_555
B28 Ni42 2.158985 1_554
B28 Ni24 2.324251 1_544
B28 Ho0 2.902931 1_545
B29 Ni53 1.986843 1_555
B29 Ni13 2.027569 1_455
B29 Ni39 2.086884 1_455
B29 Ni45 2.095175 1_455
B29 Ni21 2.147972 1_455
B29 Ni43 2.158985 1_555
B29 Ni25 2.324251 1_555
B29 Ho1 2.902931 1_555
B30 Ni54 1.986843 1_555
B30 Ni12 2.027569 1_565
B30 Ni36 2.086884 1_565
B30 Ni46 2.095175 1_565
B30 Ni22 2.147972 1_565
B30 Ni40 2.158985 1_555
B30 Ni26 2.324251 1_555
B30 Ho0 2.902931 1_555
B31 Ni55 1.986843 1_555
B31 Ni13 2.027569 1_555
B31 Ni37 2.086884 1_655
B31 Ni47 2.095175 1_555
B31 Ni23 2.147972 1_555
B31 Ni41 2.158985 1_556
B31 Ni27 2.324251 1_656
B31 Ho1 2.902931 1_655
B32 Ni56 1.986843 1_555
B32 Ni14 2.027569 1_555
B32 Ni42 2.086884 1_565
B32 Ni48 2.095175 1_555
B32 Ni24 2.147972 1_555
B32 Ni38 2.158985 1_556
B32 Ni20 2.324251 1_566
B32 Ho2 2.902931 1_565
B33 Ni57 1.986843 1_555
B33 Ni15 2.027569 1_655
B33 Ni43 2.086884 1_655
B33 Ni49 2.095175 1_655
B33 Ni25 2.147972 1_655
B33 Ni39 2.158985 1_555
B33 Ni21 2.324251 1_555
B33 Ho3 2.902931 1_555
B34 Ni58 1.986843 1_555
B34 Ni14 2.027569 1_545
B34 Ni40 2.086884 1_545
B34 Ni50 2.095175 1_545
B34 Ni26 2.147972 1_545
B34 Ni36 2.158985 1_555
B34 Ni22 2.324251 1_555
B34 Ho2 2.902931 1_555
B35 Ni59 1.986843 1_555
B35 Ni15 2.027569 1_555
B35 Ni41 2.086884 1_455
B35 Ni51 2.095175 1_555
B35 Ni27 2.147972 1_555
B35 Ni37 2.158985 1_554
B35 Ni23 2.324251 1_454
B35 Ho3 2.902931 1_455
