# generated using pymatgen
data_K14In4O13
_symmetry_space_group_name_H-M   'P 1'
_cell_length_a   31.32018360
_cell_length_b   6.82883879
_cell_length_c   6.84307395
_cell_angle_alpha   60.94325641
_cell_angle_beta   90.00000000
_cell_angle_gamma   90.00000000
_symmetry_Int_Tables_number   1
_chemical_formula_structural   K14In4O13
_chemical_formula_sum   'K28 In8 O26'
_cell_volume   1279.39002482
_cell_formula_units_Z   2
loop_
 _symmetry_equiv_pos_site_id
 _symmetry_equiv_pos_as_xyz
  1  'x, y, z'
loop_
 _atom_site_type_symbol
 _atom_site_label
 _atom_site_symmetry_multiplicity
 _atom_site_fract_x
 _atom_site_fract_y
 _atom_site_fract_z
 _atom_site_occupancy
  K  K0  1  0.21827799  0.71069296  0.05479876  1
  K  K1  1  0.28172201  0.71069296  0.55479876  1
  K  K2  1  0.00081748  0.27072358  0.95911781  1
  K  K3  1  0.27445700  0.27743571  0.43985659  1
  K  K4  1  0.44750717  0.15646567  0.00071976  1
  K  K5  1  0.11125262  0.74802522  0.04131571  1
  K  K6  1  0.50081748  0.72927642  0.54088219  1
  K  K7  1  0.94750717  0.84353433  0.49928024  1
  K  K8  1  0.61281054  0.71502909  0.54137261  1
  K  K9  1  0.71827799  0.28930704  0.44520124  1
  K  K10  1  0.11281054  0.28497091  0.95862739  1
  K  K11  1  0.65755374  0.13357961  0.00450323  1
  K  K12  1  0.55249283  0.84353433  0.99928024  1
  K  K13  1  0.61125262  0.25197478  0.45868429  1
  K  K14  1  0.77445700  0.72256429  0.06014341  1
  K  K15  1  0.99918252  0.72927642  0.04088219  1
  K  K16  1  0.49918252  0.27072358  0.45911781  1
  K  K17  1  0.38874738  0.74802522  0.54131571  1
  K  K18  1  0.15755374  0.86642039  0.49549677  1
  K  K19  1  0.72554300  0.72256429  0.56014341  1
  K  K20  1  0.05249283  0.15646567  0.50071976  1
  K  K21  1  0.88718946  0.71502909  0.04137261  1
  K  K22  1  0.88874738  0.25197478  0.95868429  1
  K  K23  1  0.84244626  0.13357961  0.50450323  1
  K  K24  1  0.78172201  0.28930704  0.94520124  1
  K  K25  1  0.22554300  0.27743571  0.93985659  1
  K  K26  1  0.34244626  0.86642039  0.99549677  1
  K  K27  1  0.38718946  0.28497091  0.45862739  1
  In  In0  1  0.33404270  0.34236712  0.00086474  1
  In  In1  1  0.94483771  0.32804915  0.49968680  1
  In  In2  1  0.66595730  0.65763288  0.99913526  1
  In  In3  1  0.55516229  0.32804915  0.99968680  1
  In  In4  1  0.05516229  0.67195085  0.50031320  1
  In  In5  1  0.16595730  0.34236712  0.50086474  1
  In  In6  1  0.44483771  0.67195085  0.00031320  1
  In  In7  1  0.83404270  0.65763288  0.49913526  1
  O  O0  1  0.67017726  0.95698008  0.70698818  1
  O  O1  1  0.17220661  0.32023956  0.21228739  1
  O  O2  1  0.60409131  0.53227371  0.00332318  1
  O  O3  1  0.94246916  0.02911100  0.78946716  1
  O  O4  1  0.10409131  0.46772629  0.49667682  1
  O  O5  1  0.21033461  0.56767968  0.49877217  1
  O  O6  1  0.94298862  0.31927903  0.20648601  1
  O  O7  1  0.71033461  0.43232032  0.00122783  1
  O  O8  1  0.44246916  0.97088900  0.71053284  1
  O  O9  1  0.32779339  0.32023956  0.71228739  1
  O  O10  1  0.55701138  0.31927903  0.70648601  1
  O  O11  1  0.05753084  0.97088900  0.21053284  1
  O  O12  1  0.44298862  0.68072097  0.29351399  1
  O  O13  1  0.17017726  0.04301992  0.79301182  1
  O  O14  1  0.55753084  0.02911100  0.28946716  1
  O  O15  1  0.89590869  0.53227371  0.50332318  1
  O  O16  1  0.32982274  0.04301992  0.29301182  1
  O  O17  1  0.00000000  0.50000000  0.50000000  1
  O  O18  1  0.82982274  0.95698008  0.20698818  1
  O  O19  1  0.82779339  0.67976044  0.78771261  1
  O  O20  1  0.28966539  0.56767968  0.99877217  1
  O  O21  1  0.39590869  0.46772629  0.99667682  1
  O  O22  1  0.05701138  0.68072097  0.79351399  1
  O  O23  1  0.50000000  0.50000000  -0.00000000  1
  O  O24  1  0.78966539  0.43232032  0.50122783  1
  O  O25  1  0.67220661  0.67976044  0.28771261  1
loop_
_geom_bond_atom_site_label_1
_geom_bond_atom_site_label_2
_geom_bond_distance
_geom_bond_site_symmetry_2
K0 O20 2.542355 1_554
K0 O13 2.584575 1_564
K0 O5 2.713649 1_555
K0 O1 2.749868 1_555
K1 O5 2.542355 1_555
K1 O16 2.584575 1_565
K1 O20 2.713649 1_555
K1 O9 2.749868 1_555
K2 O6 2.607884 1_456
K2 O11 2.624062 1_546
K2 O17 2.746758 1_555
K2 O22 3.023046 1_555
K2 O3 3.044719 1_455
K3 O9 2.623132 1_555
K3 O20 2.730347 1_554
K3 O16 2.853378 1_555
K3 O5 2.983377 1_555
K4 O21 2.659567 1_554
K4 O8 2.831710 1_544
K4 O23 2.862735 1_555
K4 O12 2.875112 1_545
K5 O22 2.594195 1_554
K5 O13 2.650732 1_564
K5 O4 2.762317 1_555
K5 O11 2.863555 1_555
K5 O1 3.198036 1_555
K6 O12 2.607884 1_555
K6 O14 2.624062 1_565
K6 O23 2.746758 1_556
K6 O10 3.023046 1_555
K6 O8 3.044719 1_555
K7 O15 2.659567 1_555
K7 O3 2.831710 1_565
K7 O17 2.862735 1_655
K7 O6 2.875112 1_565
K8 O25 2.633978 1_555
K8 O14 2.641602 1_565
K8 O2 2.791579 1_556
K8 O10 2.944217 1_555
K8 O0 3.010226 1_555
K9 O24 2.542355 1_555
K9 O0 2.584575 1_545
K9 O7 2.713649 1_555
K9 O25 2.749868 1_555
K10 O1 2.633978 1_556
K10 O11 2.641602 1_546
K10 O4 2.791579 1_555
K10 O22 2.944217 1_555
K10 O13 3.010226 1_555
K11 O7 2.617377 1_555
K11 O25 2.781498 1_545
K11 O0 2.853166 1_544
K11 O2 3.192985 1_555
K12 O2 2.659567 1_556
K12 O14 2.831710 1_566
K12 O23 2.862735 1_556
K12 O10 2.875112 1_565
K13 O10 2.594195 1_555
K13 O0 2.650732 1_545
K13 O2 2.762317 1_555
K13 O14 2.863555 1_555
K13 O25 3.198036 1_555
K14 O19 2.623132 1_554
K14 O24 2.730347 1_555
K14 O18 2.853378 1_555
K14 O7 2.983377 1_555
K15 O22 2.607884 1_654
K15 O3 2.624062 1_564
K15 O17 2.746758 1_655
K15 O6 3.023046 1_555
K15 O11 3.044719 1_655
K16 O10 2.607884 1_555
K16 O8 2.624062 1_545
K16 O23 2.746758 1_555
K16 O12 3.023046 1_555
K16 O14 3.044719 1_555
K17 O12 2.594195 1_555
K17 O16 2.650732 1_565
K17 O21 2.762317 1_555
K17 O8 2.863555 1_555
K17 O9 3.198036 1_555
K18 O5 2.617377 1_555
K18 O1 2.781498 1_565
K18 O13 2.853166 1_565
K18 O4 3.192985 1_555
K19 O25 2.623132 1_555
K19 O7 2.730347 1_556
K19 O0 2.853378 1_555
K19 O24 2.983377 1_555
K20 O4 2.659567 1_555
K20 O11 2.831710 1_545
K20 O17 2.862735 1_555
K20 O22 2.875112 1_545
K21 O19 2.633978 1_554
K21 O3 2.641602 1_564
K21 O15 2.791579 1_555
K21 O6 2.944217 1_555
K21 O18 3.010226 1_555
K22 O6 2.594195 1_556
K22 O18 2.650732 1_546
K22 O15 2.762317 1_555
K22 O3 2.863555 1_555
K22 O19 3.198036 1_555
K23 O24 2.617377 1_555
K23 O19 2.781498 1_545
K23 O18 2.853166 1_545
K23 O15 3.192985 1_555
K24 O7 2.542355 1_556
K24 O18 2.584575 1_546
K24 O24 2.713649 1_555
K24 O19 2.749868 1_555
K25 O1 2.623132 1_556
K25 O5 2.730347 1_555
K25 O13 2.853378 1_555
K25 O20 2.983377 1_555
K26 O20 2.617377 1_555
K26 O9 2.781498 1_565
K26 O16 2.853166 1_566
K26 O21 3.192985 1_555
K27 O9 2.633978 1_555
K27 O8 2.641602 1_545
K27 O21 2.791579 1_554
K27 O12 2.944217 1_555
K27 O16 3.010226 1_555
In0 O16 2.055066 1_555
In0 O9 2.061711 1_554
In0 O20 2.068333 1_554
In0 O21 2.112896 1_554
In1 O6 2.036978 1_555
In1 O3 2.042783 1_555
In1 O15 2.080321 1_555
In1 O17 2.089540 1_655
In2 O0 2.055066 1_555
In2 O25 2.061711 1_556
In2 O7 2.068333 1_556
In2 O2 2.112896 1_556
In3 O10 2.036978 1_555
In3 O14 2.042783 1_556
In3 O2 2.080321 1_556
In3 O23 2.089540 1_556
In4 O22 2.036978 1_555
In4 O11 2.042783 1_555
In4 O4 2.080321 1_555
In4 O17 2.089540 1_555
In5 O13 2.055066 1_555
In5 O1 2.061711 1_555
In5 O5 2.068333 1_555
In5 O4 2.112896 1_555
In6 O12 2.036978 1_555
In6 O8 2.042783 1_554
In6 O21 2.080321 1_554
In6 O23 2.089540 1_555
In7 O18 2.055066 1_555
In7 O19 2.061711 1_555
In7 O24 2.068333 1_555
In7 O15 2.112896 1_555
