# generated using pymatgen
data_Sr2CoMoO6
_symmetry_space_group_name_H-M   'P 1'
_cell_length_a   5.64573484
_cell_length_b   9.81087245
_cell_length_c   5.67006749
_cell_angle_alpha   90.23915460
_cell_angle_beta   60.11654328
_cell_angle_gamma   106.67162780
_symmetry_Int_Tables_number   1
_chemical_formula_structural   Sr2CoMoO6
_chemical_formula_sum   'Sr4 Co2 Mo2 O12'
_cell_volume   257.19252861
_cell_formula_units_Z   2
loop_
 _symmetry_equiv_pos_site_id
 _symmetry_equiv_pos_as_xyz
  1  'x, y, z'
loop_
 _atom_site_type_symbol
 _atom_site_label
 _atom_site_symmetry_multiplicity
 _atom_site_fract_x
 _atom_site_fract_y
 _atom_site_fract_z
 _atom_site_occupancy
  Sr  Sr0  1  0.25023600  0.37558400  0.87502000  1
  Sr  Sr1  1  0.25003000  0.87562300  0.37506200  1
  Sr  Sr2  1  0.74997000  0.12437800  0.62493800  1
  Sr  Sr3  1  0.74976400  0.62441700  0.12498000  1
  Co  Co0  1  0.00000000  0.50000000  0.50000000  1
  Co  Co1  1  0.00000000  0.00000000  0.00000000  1
  Mo  Mo0  1  0.49997800  0.24999000  0.25000800  1
  Mo  Mo1  1  0.50002200  0.75001000  0.74999200  1
  O  O0  1  0.25825600  0.12941400  0.61193600  1
  O  O1  1  0.25808600  0.62942900  0.11218200  1
  O  O2  1  0.25733100  0.12864600  0.12968500  1
  O  O3  1  0.25699200  0.62847000  0.62947400  1
  O  O4  1  0.74300800  0.37153000  0.37052700  1
  O  O5  1  0.74266800  0.87135400  0.87031500  1
  O  O6  1  0.74191500  0.37057100  0.88781900  1
  O  O7  1  0.74174500  0.87058500  0.38806400  1
  O  O8  1  0.25848800  0.37171300  0.36991000  1
  O  O9  1  0.25785700  0.87184600  0.87042100  1
  O  O10  1  0.74214300  0.12815500  0.12957800  1
  O  O11  1  0.74151200  0.62828700  0.63009100  1
loop_
_geom_bond_atom_site_label_1
_geom_bond_atom_site_label_2
_geom_bond_distance
_geom_bond_site_symmetry_2
Co0 O8 2.057029 1_555
Co0 O11 2.057029 1_455
Co0 O4 2.058415 1_455
Co0 O3 2.058419 1_555
Co0 O1 2.083231 1_555
Co0 O6 2.083235 1_455
Co1 O9 2.053443 1_544
Co1 O10 2.053451 1_455
Co1 O2 2.061321 1_555
Co1 O5 2.061325 1_444
Co1 O0 2.084159 1_554
Co1 O7 2.084163 1_445
Mo0 O2 1.936024 1_555
Mo0 O8 1.936737 1_555
Mo0 O4 1.939122 1_555
Mo0 O10 1.940319 1_555
Mo0 O0 1.943299 1_555
Mo0 O6 1.944370 1_554
Mo1 O5 1.936020 1_555
Mo1 O11 1.936737 1_555
Mo1 O3 1.939118 1_555
Mo1 O9 1.940327 1_555
Mo1 O7 1.943295 1_555
Mo1 O1 1.944374 1_556
O0 Sr2 2.819685 1_455
O0 Sr1 2.823756 1_545
O0 Sr2 2.827932 1_555
O0 Sr0 2.832933 1_555
O1 Sr3 2.820509 1_455
O1 Sr0 2.825003 1_554
O1 Sr3 2.827063 1_555
O1 Sr1 2.832538 1_555
O2 Sr2 2.830033 1_455
O2 Sr1 2.830653 1_545
O2 Sr2 2.839385 1_554
O2 Sr0 2.845792 1_554
O3 Sr3 2.830921 1_456
O3 Sr0 2.831429 1_555
O3 Sr3 2.838387 1_555
O3 Sr1 2.846475 1_555
O4 Sr0 2.830921 1_654
O4 Sr3 2.831441 1_555
O4 Sr0 2.838386 1_555
O4 Sr2 2.846464 1_555
O5 Sr1 2.830033 1_655
O5 Sr2 2.830658 1_565
O5 Sr1 2.839385 1_556
O5 Sr3 2.845787 1_556
O6 Sr0 2.820498 1_655
O6 Sr3 2.825009 1_556
O6 Sr0 2.827074 1_555
O6 Sr2 2.832533 1_555
O7 Sr1 2.819674 1_655
O7 Sr2 2.823773 1_565
O7 Sr1 2.827944 1_555
O7 Sr3 2.832916 1_555
O8 Sr0 2.830152 1_554
O8 Sr3 2.830753 1_555
O8 Sr0 2.841355 1_555
O8 Sr2 2.849009 1_455
O9 Sr1 2.831557 1_555
O9 Sr2 2.832056 1_565
O9 Sr1 2.839842 1_556
O9 Sr3 2.848283 1_456
O10 Sr2 2.831562 1_555
O10 Sr1 2.832056 1_545
O10 Sr2 2.839836 1_554
O10 Sr0 2.848283 1_654
O11 Sr3 2.830146 1_556
O11 Sr0 2.830747 1_555
O11 Sr3 2.841361 1_555
O11 Sr1 2.849015 1_655
