# generated using pymatgen
data_PrNiSb3
_symmetry_space_group_name_H-M   'P 1'
_cell_length_a   6.25385066
_cell_length_b   12.82277019
_cell_length_c   18.39441120
_cell_angle_alpha   90.00000000
_cell_angle_beta   90.00000000
_cell_angle_gamma   90.00000000
_symmetry_Int_Tables_number   1
_chemical_formula_structural   PrNiSb3
_chemical_formula_sum   'Pr12 Ni12 Sb36'
_cell_volume   1475.07891729
_cell_formula_units_Z   12
loop_
 _symmetry_equiv_pos_site_id
 _symmetry_equiv_pos_as_xyz
  1  'x, y, z'
loop_
 _atom_site_type_symbol
 _atom_site_label
 _atom_site_symmetry_multiplicity
 _atom_site_fract_x
 _atom_site_fract_y
 _atom_site_fract_z
 _atom_site_occupancy
  Pr  Pr0  1  0.97337666  0.70069465  0.58355643  1
  Pr  Pr1  1  0.02662334  0.29930535  0.08355643  1
  Pr  Pr2  1  0.52662334  0.70069465  0.41644357  1
  Pr  Pr3  1  0.47337666  0.29930535  0.91644357  1
  Pr  Pr4  1  0.44316768  0.69471999  0.75000000  1
  Pr  Pr5  1  0.05683232  0.69471999  0.25000000  1
  Pr  Pr6  1  0.52662334  0.70069465  0.08355643  1
  Pr  Pr7  1  0.02662334  0.29930535  0.41644357  1
  Pr  Pr8  1  0.55683232  0.30528001  0.25000000  1
  Pr  Pr9  1  0.94316768  0.30528001  0.75000000  1
  Pr  Pr10  1  0.47337666  0.29930535  0.58355643  1
  Pr  Pr11  1  0.97337666  0.70069465  0.91644357  1
  Ni  Ni0  1  0.17405152  0.09508265  0.67524976  1
  Ni  Ni1  1  0.32594848  0.09508265  0.17524976  1
  Ni  Ni2  1  0.25000000  0.90071691  0.50000000  1
  Ni  Ni3  1  0.82594848  0.90491635  0.32475024  1
  Ni  Ni4  1  0.82594848  0.90491635  0.17524976  1
  Ni  Ni5  1  0.32594848  0.09508265  0.32475024  1
  Ni  Ni6  1  0.67405152  0.90491635  0.82475024  1
  Ni  Ni7  1  0.67405152  0.90491635  0.67524976  1
  Ni  Ni8  1  0.17405152  0.09508265  0.82475024  1
  Ni  Ni9  1  0.75000000  0.09928309  -0.00000000  1
  Ni  Ni10  1  0.25000000  0.90071691  -0.00000000  1
  Ni  Ni11  1  0.75000000  0.09928309  0.50000000  1
  Sb  Sb0  1  0.52646399  0.21984748  0.41594644  1
  Sb  Sb1  1  0.55494955  0.78422320  0.25000000  1
  Sb  Sb2  1  0.79196463  0.50339627  0.33389352  1
  Sb  Sb3  1  0.95908404  0.97475740  0.58648234  1
  Sb  Sb4  1  0.31903285  0.94323160  0.75000000  1
  Sb  Sb5  1  0.81903285  0.05676840  0.75000000  1
  Sb  Sb6  1  0.05494955  0.21577680  0.25000000  1
  Sb  Sb7  1  0.94505045  0.78422320  0.75000000  1
  Sb  Sb8  1  0.18096715  0.94323160  0.25000000  1
  Sb  Sb9  1  0.68096715  0.05676840  0.25000000  1
  Sb  Sb10  1  0.97353601  0.21984748  0.91594644  1
  Sb  Sb11  1  0.70803537  0.50339627  0.66610648  1
  Sb  Sb12  1  0.29196463  0.49660373  0.16610648  1
  Sb  Sb13  1  0.75000000  0.49683861  -0.00000000  1
  Sb  Sb14  1  0.45908404  0.02524260  0.58648234  1
  Sb  Sb15  1  0.75000000  0.49683861  0.50000000  1
  Sb  Sb16  1  0.44505045  0.21577680  0.75000000  1
  Sb  Sb17  1  0.02646399  0.78015252  0.41594644  1
  Sb  Sb18  1  0.45908404  0.02524260  0.91351766  1
  Sb  Sb19  1  0.20803537  0.49660373  0.66610648  1
  Sb  Sb20  1  0.79196463  0.50339627  0.16610648  1
  Sb  Sb21  1  0.25000000  0.50316139  -0.00000000  1
  Sb  Sb22  1  0.70803537  0.50339627  0.83389352  1
  Sb  Sb23  1  0.95908404  0.97475740  0.91351766  1
  Sb  Sb24  1  0.02646399  0.78015252  0.08405356  1
  Sb  Sb25  1  0.54091596  0.97475740  0.08648234  1
  Sb  Sb26  1  0.54091596  0.97475740  0.41351766  1
  Sb  Sb27  1  0.52646399  0.21984748  0.08405356  1
  Sb  Sb28  1  0.04091596  0.02524260  0.08648234  1
  Sb  Sb29  1  0.20803537  0.49660373  0.83389352  1
  Sb  Sb30  1  0.04091596  0.02524260  0.41351766  1
  Sb  Sb31  1  0.29196463  0.49660373  0.33389352  1
  Sb  Sb32  1  0.97353601  0.21984748  0.58405356  1
  Sb  Sb33  1  0.25000000  0.50316139  0.50000000  1
  Sb  Sb34  1  0.47353601  0.78015252  0.91594644  1
  Sb  Sb35  1  0.47353601  0.78015252  0.58405356  1
loop_
_geom_bond_atom_site_label_1
_geom_bond_atom_site_label_2
_geom_bond_distance
_geom_bond_site_symmetry_2
Pr0 Sb7 3.248408 1_555
Pr0 Sb17 3.264008 1_655
Pr0 Sb35 3.287797 1_555
Pr0 Sb35 3.289692 1_655
Pr0 Sb15 3.338680 1_555
Pr0 Sb19 3.362749 1_655
Pr0 Sb11 3.385232 1_555
Pr0 Sb33 3.430852 1_655
Pr0 Sb3 3.515792 1_555
Pr1 Sb6 3.248408 1_555
Pr1 Sb10 3.264008 1_454
Pr1 Sb27 3.287797 1_555
Pr1 Sb27 3.289692 1_455
Pr1 Sb21 3.338680 1_555
Pr1 Sb20 3.362749 1_455
Pr1 Sb12 3.385232 1_555
Pr1 Sb13 3.430852 1_455
Pr1 Sb28 3.515792 1_555
Pr2 Sb1 3.248408 1_555
Pr2 Sb35 3.264008 1_555
Pr2 Sb17 3.287797 1_655
Pr2 Sb17 3.289692 1_555
Pr2 Sb15 3.338680 1_555
Pr2 Sb31 3.362749 1_555
Pr2 Sb2 3.385232 1_555
Pr2 Sb33 3.430852 1_555
Pr2 Sb26 3.515792 1_555
Pr3 Sb16 3.248408 1_555
Pr3 Sb27 3.264008 1_556
Pr3 Sb10 3.287797 1_455
Pr3 Sb10 3.289692 1_555
Pr3 Sb21 3.338680 1_556
Pr3 Sb22 3.362749 1_555
Pr3 Sb29 3.385232 1_555
Pr3 Sb13 3.430852 1_556
Pr3 Sb18 3.515792 1_555
Pr4 Sb35 3.248665 1_555
Pr4 Sb34 3.248665 1_555
Pr4 Sb4 3.279808 1_555
Pr4 Sb19 3.316222 1_555
Pr4 Sb29 3.316222 1_555
Pr4 Sb7 3.319839 1_455
Pr4 Sb22 3.338243 1_555
Pr4 Sb11 3.338243 1_555
Pr4 Sb7 3.341946 1_555
Pr5 Sb17 3.248665 1_555
Pr5 Sb24 3.248665 1_555
Pr5 Sb8 3.279808 1_555
Pr5 Sb12 3.316222 1_555
Pr5 Sb31 3.316222 1_555
Pr5 Sb1 3.319839 1_555
Pr5 Sb20 3.338243 1_455
Pr5 Sb2 3.338243 1_455
Pr5 Sb1 3.341946 1_455
Pr6 Sb1 3.248408 1_555
Pr6 Sb34 3.264008 1_554
Pr6 Sb24 3.287797 1_655
Pr6 Sb24 3.289692 1_555
Pr6 Sb13 3.338680 1_555
Pr6 Sb12 3.362749 1_555
Pr6 Sb20 3.385232 1_555
Pr6 Sb21 3.430852 1_555
Pr6 Sb25 3.515792 1_555
Pr7 Sb6 3.248408 1_555
Pr7 Sb32 3.264008 1_455
Pr7 Sb0 3.287797 1_555
Pr7 Sb0 3.289692 1_455
Pr7 Sb33 3.338680 1_555
Pr7 Sb2 3.362749 1_455
Pr7 Sb31 3.385232 1_555
Pr7 Sb15 3.430852 1_455
Pr7 Sb30 3.515792 1_555
Pr8 Sb0 3.248665 1_555
Pr8 Sb27 3.248665 1_555
Pr8 Sb9 3.279808 1_555
Pr8 Sb20 3.316222 1_555
Pr8 Sb2 3.316222 1_555
Pr8 Sb6 3.319839 1_655
Pr8 Sb12 3.338243 1_555
Pr8 Sb31 3.338243 1_555
Pr8 Sb6 3.341946 1_555
Pr9 Sb32 3.248665 1_555
Pr9 Sb10 3.248665 1_555
Pr9 Sb5 3.279808 1_555
Pr9 Sb11 3.316222 1_555
Pr9 Sb22 3.316222 1_555
Pr9 Sb16 3.319839 1_555
Pr9 Sb29 3.338243 1_655
Pr9 Sb19 3.338243 1_655
Pr9 Sb16 3.341946 1_655
Pr10 Sb16 3.248408 1_555
Pr10 Sb0 3.264008 1_555
Pr10 Sb32 3.287797 1_455
Pr10 Sb32 3.289692 1_555
Pr10 Sb33 3.338680 1_555
Pr10 Sb11 3.362749 1_555
Pr10 Sb19 3.385232 1_555
Pr10 Sb15 3.430852 1_555
Pr10 Sb14 3.515792 1_555
Pr11 Sb7 3.248408 1_555
Pr11 Sb24 3.264008 1_656
Pr11 Sb34 3.287797 1_555
Pr11 Sb34 3.289692 1_655
Pr11 Sb13 3.338680 1_556
Pr11 Sb29 3.362749 1_655
Pr11 Sb22 3.385232 1_555
Pr11 Sb21 3.430852 1_656
Pr11 Sb23 3.515792 1_555
Ni0 Sb4 2.550309 1_545
Ni0 Sb14 2.577906 1_555
Ni0 Sb3 2.618016 1_445
Ni0 Sb32 2.635520 1_455
Ni0 Sb5 2.657329 1_455
Ni0 Sb16 2.675455 1_555
Ni0 Pr9 3.352638 1_455
Ni0 Pr10 3.634075 1_555
Ni1 Sb8 2.550309 1_545
Ni1 Sb28 2.577906 1_555
Ni1 Sb25 2.618016 1_545
Ni1 Sb27 2.635520 1_555
Ni1 Sb9 2.657329 1_555
Ni1 Sb6 2.675455 1_555
Ni1 Pr8 3.352638 1_555
Ni1 Pr1 3.634075 1_555
Ni2 Sb35 2.595147 1_555
Ni2 Sb17 2.595147 1_555
Ni2 Sb3 2.596537 1_455
Ni2 Sb26 2.596537 1_555
Ni2 Sb30 2.605771 1_565
Ni2 Sb14 2.605771 1_565
Ni2 Pr2 3.454482 1_555
Ni2 Pr0 3.454482 1_455
Ni3 Sb9 2.550319 1_565
Ni3 Sb26 2.577911 1_555
Ni3 Sb30 2.618024 1_665
Ni3 Sb17 2.635512 1_655
Ni3 Sb8 2.657331 1_655
Ni3 Sb1 2.675448 1_555
Ni3 Pr5 3.352628 1_655
Ni3 Pr2 3.634066 1_555
Ni4 Sb9 2.550319 1_565
Ni4 Sb25 2.577911 1_555
Ni4 Sb28 2.618024 1_665
Ni4 Sb24 2.635512 1_655
Ni4 Sb8 2.657331 1_655
Ni4 Sb1 2.675448 1_555
Ni4 Pr5 3.352628 1_655
Ni4 Pr6 3.634066 1_555
Ni5 Sb8 2.550309 1_545
Ni5 Sb30 2.577906 1_555
Ni5 Sb26 2.618016 1_545
Ni5 Sb0 2.635520 1_555
Ni5 Sb9 2.657329 1_555
Ni5 Sb6 2.675455 1_555
Ni5 Pr8 3.352638 1_555
Ni5 Pr7 3.634075 1_555
Ni6 Sb5 2.550319 1_565
Ni6 Sb23 2.577911 1_555
Ni6 Sb18 2.618024 1_565
Ni6 Sb34 2.635512 1_555
Ni6 Sb4 2.657331 1_555
Ni6 Sb7 2.675448 1_555
Ni6 Pr4 3.352628 1_555
Ni6 Pr11 3.634066 1_555
Ni7 Sb5 2.550319 1_565
Ni7 Sb3 2.577911 1_555
Ni7 Sb14 2.618024 1_565
Ni7 Sb35 2.635512 1_555
Ni7 Sb4 2.657331 1_555
Ni7 Sb7 2.675448 1_555
Ni7 Pr4 3.352628 1_555
Ni7 Pr0 3.634066 1_555
Ni8 Sb4 2.550309 1_545
Ni8 Sb18 2.577906 1_555
Ni8 Sb23 2.618016 1_445
Ni8 Sb10 2.635520 1_455
Ni8 Sb5 2.657329 1_455
Ni8 Sb16 2.675455 1_555
Ni8 Pr9 3.352638 1_455
Ni8 Pr3 3.634075 1_555
Ni9 Sb10 2.595147 1_554
Ni9 Sb27 2.595147 1_555
Ni9 Sb28 2.596537 1_655
Ni9 Sb18 2.596537 1_554
Ni9 Sb23 2.605771 1_544
Ni9 Sb25 2.605771 1_545
Ni9 Pr1 3.454482 1_655
Ni9 Pr3 3.454482 1_554
Ni10 Sb34 2.595147 1_554
Ni10 Sb24 2.595147 1_555
Ni10 Sb25 2.596537 1_555
Ni10 Sb23 2.596537 1_454
Ni10 Sb18 2.605771 1_564
Ni10 Sb28 2.605771 1_565
Ni10 Pr11 3.454482 1_454
Ni10 Pr6 3.454482 1_555
Ni11 Sb32 2.595147 1_555
Ni11 Sb0 2.595147 1_555
Ni11 Sb14 2.596537 1_555
Ni11 Sb30 2.596537 1_655
Ni11 Sb26 2.605771 1_545
Ni11 Sb3 2.605771 1_545
Ni11 Pr7 3.454482 1_655
Ni11 Pr10 3.454482 1_555
Sb1 Sb8 3.102798 1_555
Sb2 Sb20 3.086344 1_555
Sb2 Sb31 3.128138 1_555
Sb2 Sb31 3.128138 1_655
Sb4 Sb7 3.102798 1_455
Sb6 Sb9 3.102798 1_455
Sb11 Sb15 3.067834 1_555
Sb11 Sb22 3.086344 1_555
Sb11 Sb19 3.128138 1_655
Sb11 Sb19 3.128138 1_555
Sb12 Sb21 3.067834 1_555
Sb12 Sb31 3.086344 1_555
Sb12 Sb20 3.128138 1_555
Sb12 Sb20 3.128138 1_455
Sb13 Sb22 3.067834 1_554
Sb13 Sb20 3.067834 1_555
Sb13 Sb21 3.127976 1_655
Sb13 Sb21 3.127976 1_555
Sb15 Sb2 3.067834 1_555
Sb15 Sb33 3.127976 1_555
Sb15 Sb33 3.127976 1_655
Sb16 Sb5 3.102798 1_555
Sb19 Sb33 3.067834 1_555
Sb19 Sb29 3.086344 1_555
Sb21 Sb29 3.067834 1_554
Sb22 Sb29 3.128138 1_655
Sb22 Sb29 3.128138 1_555
Sb31 Sb33 3.067834 1_555
