# generated using pymatgen
data_SiO2
_symmetry_space_group_name_H-M   'P 1'
_cell_length_a   7.53229033
_cell_length_b   11.82303978
_cell_length_c   11.82303831
_cell_angle_alpha   105.52135400
_cell_angle_beta   90.00000000
_cell_angle_gamma   90.00000000
_symmetry_Int_Tables_number   1
_chemical_formula_structural   SiO2
_chemical_formula_sum   'Si18 O36'
_cell_volume   1014.49729936
_cell_formula_units_Z   18
loop_
 _symmetry_equiv_pos_site_id
 _symmetry_equiv_pos_as_xyz
  1  'x, y, z'
loop_
 _atom_site_type_symbol
 _atom_site_label
 _atom_site_symmetry_multiplicity
 _atom_site_fract_x
 _atom_site_fract_y
 _atom_site_fract_z
 _atom_site_occupancy
  Si  Si0  1  0.70640505  0.11654307  0.28118672  1
  Si  Si1  1  0.29359495  0.11654307  0.28118672  1
  Si  Si2  1  0.70542809  0.85082034  0.14917966  1
  Si  Si3  1  0.70640505  0.28118672  0.11654307  1
  Si  Si4  1  0.00000000  0.26884831  0.73115169  1
  Si  Si5  1  0.00000000  0.73115169  0.26884831  1
  Si  Si6  1  0.29359495  0.28118672  0.11654307  1
  Si  Si7  1  0.00000000  0.52913184  0.87484671  1
  Si  Si8  1  0.70640505  0.71881328  0.88345693  1
  Si  Si9  1  0.29457191  0.14917966  0.85082034  1
  Si  Si10  1  0.70640505  0.88345693  0.71881328  1
  Si  Si11  1  0.00000000  0.47086816  0.12515329  1
  Si  Si12  1  0.70542809  0.14917966  0.85082034  1
  Si  Si13  1  0.29359495  0.88345693  0.71881328  1
  Si  Si14  1  0.00000000  0.87484671  0.52913184  1
  Si  Si15  1  0.00000000  0.12515329  0.47086816  1
  Si  Si16  1  0.29359495  0.71881328  0.88345693  1
  Si  Si17  1  0.29457191  0.85082034  0.14917966  1
  O  O0  1  0.74769542  0.01067462  0.80727075  1
  O  O1  1  0.75399111  0.21590054  0.21590054  1
  O  O2  1  0.17565092  0.86308480  0.60235358  1
  O  O3  1  0.82434908  0.13691520  0.39764642  1
  O  O4  1  0.74769542  0.98932538  0.19272925  1
  O  O5  1  0.50000000  0.87532068  0.68133642  1
  O  O6  1  0.25230458  0.98932538  0.19272925  1
  O  O7  1  0.17565092  0.39764642  0.13691520  1
  O  O8  1  0.82506878  0.21962043  0.78037957  1
  O  O9  1  0.17565092  0.13691520  0.39764642  1
  O  O10  1  0.50000000  0.31866358  0.12467932  1
  O  O11  1  0.50000000  0.82654876  0.17345124  1
  O  O12  1  0.24600889  0.21590054  0.21590054  1
  O  O13  1  0.50000000  0.12467932  0.31866358  1
  O  O14  1  0.25230458  0.01067462  0.80727075  1
  O  O15  1  0.74769542  0.80727075  0.01067462  1
  O  O16  1  0.00000000  0.77116292  0.40960754  1
  O  O17  1  0.25230458  0.19272925  0.98932538  1
  O  O18  1  0.50000000  0.17345124  0.82654876  1
  O  O19  1  0.17493122  0.78037957  0.21962043  1
  O  O20  1  0.00000000  0.50000000  -0.00000000  1
  O  O21  1  0.50000000  0.68133642  0.87532068  1
  O  O22  1  0.82434908  0.39764642  0.13691520  1
  O  O23  1  0.00000000  0.40960754  0.77116292  1
  O  O24  1  0.17493122  0.21962043  0.78037957  1
  O  O25  1  0.82506878  0.78037957  0.21962043  1
  O  O26  1  0.00000000  0.59039246  0.22883708  1
  O  O27  1  0.24600889  0.78409946  0.78409946  1
  O  O28  1  0.82434908  0.60235358  0.86308480  1
  O  O29  1  0.75399111  0.78409946  0.78409946  1
  O  O30  1  0.00000000  -0.00000000  0.50000000  1
  O  O31  1  0.25230458  0.80727075  0.01067462  1
  O  O32  1  0.00000000  0.22883708  0.59039246  1
  O  O33  1  0.82434908  0.86308480  0.60235358  1
  O  O34  1  0.17565092  0.60235358  0.86308480  1
  O  O35  1  0.74769542  0.19272925  0.98932538  1
loop_
_geom_bond_atom_site_label_1
_geom_bond_atom_site_label_2
_geom_bond_distance
_geom_bond_site_symmetry_2
O0 Si12 1.611455 1_555
O0 Si10 1.615838 1_545
O1 Si3 1.609189 1_555
O1 Si0 1.609189 1_555
O2 Si13 1.601758 1_555
O2 Si14 1.607384 1_555
O3 Si0 1.601758 1_555
O3 Si15 1.607384 1_655
O4 Si2 1.611455 1_555
O4 Si0 1.615838 1_565
O5 Si13 1.612412 1_555
O5 Si10 1.612412 1_555
O6 Si17 1.611455 1_555
O6 Si1 1.615838 1_565
O7 Si6 1.601758 1_555
O7 Si11 1.607384 1_555
O8 Si12 1.603279 1_555
O8 Si4 1.610887 1_655
O9 Si1 1.601758 1_555
O9 Si15 1.607384 1_555
O10 Si6 1.612412 1_555
O10 Si3 1.612412 1_555
O11 Si17 1.613395 1_555
O11 Si2 1.613395 1_555
O12 Si6 1.609189 1_555
O12 Si1 1.609189 1_555
O13 Si0 1.612412 1_555
O13 Si1 1.612412 1_555
O14 Si9 1.611455 1_555
O14 Si13 1.615838 1_545
O15 Si2 1.611455 1_555
O15 Si8 1.615838 1_554
O16 Si5 1.603749 1_555
O16 Si14 1.603923 1_555
O17 Si9 1.611455 1_555
O17 Si6 1.615838 1_556
O18 Si9 1.613395 1_555
O18 Si12 1.613395 1_555
O19 Si17 1.603279 1_555
O19 Si5 1.610887 1_555
O20 Si7 1.606511 1_554
O20 Si11 1.606511 1_555
O21 Si16 1.612412 1_555
O21 Si8 1.612412 1_555
O22 Si3 1.601758 1_555
O22 Si11 1.607384 1_655
O23 Si4 1.603749 1_555
O23 Si7 1.603923 1_555
O24 Si9 1.603279 1_555
O24 Si4 1.610887 1_555
O25 Si2 1.603279 1_555
O25 Si5 1.610887 1_655
O26 Si5 1.603749 1_555
O26 Si11 1.603923 1_555
O27 Si16 1.609189 1_555
O27 Si13 1.609189 1_555
O28 Si8 1.601758 1_555
O28 Si7 1.607384 1_655
O29 Si8 1.609189 1_555
O29 Si10 1.609189 1_555
O30 Si15 1.606511 1_555
O30 Si14 1.606511 1_545
O31 Si17 1.611455 1_555
O31 Si16 1.615838 1_554
O32 Si4 1.603749 1_555
O32 Si15 1.603923 1_555
O33 Si10 1.601758 1_555
O33 Si14 1.607384 1_655
O34 Si16 1.601758 1_555
O34 Si7 1.607384 1_555
O35 Si12 1.611455 1_555
O35 Si3 1.615838 1_556
