# generated using pymatgen
data_GeS2
_symmetry_space_group_name_H-M   'P 1'
_cell_length_a   6.76490721
_cell_length_b   11.91384517
_cell_length_c   16.28843163
_cell_angle_alpha   90.00000000
_cell_angle_beta   90.00000000
_cell_angle_gamma   91.26904238
_symmetry_Int_Tables_number   1
_chemical_formula_structural   GeS2
_chemical_formula_sum   'Ge16 S32'
_cell_volume   1312.46136763
_cell_formula_units_Z   16
loop_
 _symmetry_equiv_pos_site_id
 _symmetry_equiv_pos_as_xyz
  1  'x, y, z'
loop_
 _atom_site_type_symbol
 _atom_site_label
 _atom_site_symmetry_multiplicity
 _atom_site_fract_x
 _atom_site_fract_y
 _atom_site_fract_z
 _atom_site_occupancy
  Ge  Ge0  1  0.16739585  0.28861276  0.99764943  1
  Ge  Ge1  1  0.83260415  0.21138724  0.49764943  1
  Ge  Ge2  1  0.16739585  0.78861276  0.50235057  1
  Ge  Ge3  1  0.66523183  0.77938149  0.84537566  1
  Ge  Ge4  1  0.83260415  0.71138724  0.00235057  1
  Ge  Ge5  1  0.16001966  0.28110542  0.34699970  1
  Ge  Ge6  1  0.33888477  0.72078325  0.69116701  1
  Ge  Ge7  1  0.83998034  0.71889458  0.65300030  1
  Ge  Ge8  1  0.33888477  0.22078325  0.80883299  1
  Ge  Ge9  1  0.33476817  0.22061851  0.15462434  1
  Ge  Ge10  1  0.66111523  0.77921675  0.19116701  1
  Ge  Ge11  1  0.83998034  0.21889458  0.84699970  1
  Ge  Ge12  1  0.16001966  0.78110542  0.15300030  1
  Ge  Ge13  1  0.33476817  0.72061851  0.34537566  1
  Ge  Ge14  1  0.66111523  0.27921675  0.30883299  1
  Ge  Ge15  1  0.66523183  0.27938149  0.65462434  1
  S  S0  1  0.66049350  0.63383203  0.10607741  1
  S  S1  1  0.65749965  0.71505132  0.31915990  1
  S  S2  1  0.58413491  0.10195012  0.82984892  1
  S  S3  1  0.33950650  0.86616797  0.60607741  1
  S  S4  1  0.84471156  0.79415822  0.52811587  1
  S  S5  1  0.83869708  0.35830471  0.75708837  1
  S  S6  1  0.83869708  0.85830471  0.74291163  1
  S  S7  1  0.08804428  0.10135581  0.83034962  1
  S  S8  1  0.27824467  0.12294590  0.04021203  1
  S  S9  1  0.77477586  0.61364653  0.88827519  1
  S  S10  1  0.72175533  0.37705410  0.54021203  1
  S  S11  1  0.72175533  0.87705410  0.95978797  1
  S  S12  1  0.34250035  0.28494868  0.68084010  1
  S  S13  1  0.16130292  0.64169529  0.24291163  1
  S  S14  1  0.08804428  0.60135581  0.66965038  1
  S  S15  1  0.91195572  0.89864419  0.16965038  1
  S  S16  1  0.15528844  0.20584178  0.47188413  1
  S  S17  1  0.33950650  0.36616797  0.89392259  1
  S  S18  1  0.65749965  0.21505132  0.18084010  1
  S  S19  1  0.91195572  0.39864419  0.33034962  1
  S  S20  1  0.84471156  0.29415822  0.97188413  1
  S  S21  1  0.22522414  0.38635347  0.11172481  1
  S  S22  1  0.27824467  0.62294590  0.45978797  1
  S  S23  1  0.58413491  0.60195012  0.67015108  1
  S  S24  1  0.77477586  0.11364653  0.61172481  1
  S  S25  1  0.41586509  0.89804988  0.17015108  1
  S  S26  1  0.15528844  0.70584178  0.02811587  1
  S  S27  1  0.34250035  0.78494868  0.81915990  1
  S  S28  1  0.22522414  0.88635347  0.38827519  1
  S  S29  1  0.66049350  0.13383203  0.39392259  1
  S  S30  1  0.16130292  0.14169529  0.25708837  1
  S  S31  1  0.41586509  0.39804988  0.32984892  1
loop_
_geom_bond_atom_site_label_1
_geom_bond_atom_site_label_2
_geom_bond_distance
_geom_bond_site_symmetry_2
Ge0 S21 2.222930 1_556
Ge0 S20 2.225323 1_455
Ge0 S8 2.236990 1_556
Ge0 S17 2.239706 1_555
Ge1 S24 2.222930 1_555
Ge1 S16 2.225323 1_655
Ge1 S10 2.236990 1_555
Ge1 S29 2.239706 1_555
Ge2 S28 2.222930 1_555
Ge2 S4 2.225323 1_455
Ge2 S22 2.236990 1_555
Ge2 S3 2.239706 1_555
Ge3 S11 2.225667 1_555
Ge3 S27 2.227045 1_555
Ge3 S6 2.235573 1_555
Ge3 S9 2.236305 1_555
Ge4 S9 2.222930 1_554
Ge4 S26 2.225323 1_655
Ge4 S11 2.236990 1_554
Ge4 S0 2.239706 1_555
Ge5 S30 2.214530 1_555
Ge5 S31 2.215393 1_555
Ge5 S16 2.222980 1_555
Ge5 S19 2.225917 1_455
Ge6 S14 2.218078 1_555
Ge6 S3 2.218280 1_555
Ge6 S27 2.220489 1_555
Ge6 S23 2.231186 1_555
Ge7 S6 2.214530 1_555
Ge7 S23 2.215393 1_555
Ge7 S4 2.222980 1_555
Ge7 S14 2.225917 1_655
Ge8 S7 2.218078 1_555
Ge8 S17 2.218280 1_555
Ge8 S12 2.220489 1_555
Ge8 S2 2.231186 1_555
Ge9 S8 2.225667 1_555
Ge9 S18 2.227045 1_555
Ge9 S30 2.235573 1_555
Ge9 S21 2.236305 1_555
Ge10 S15 2.218078 1_555
Ge10 S0 2.218280 1_555
Ge10 S1 2.220489 1_555
Ge10 S25 2.231186 1_555
Ge11 S5 2.214530 1_555
Ge11 S2 2.215393 1_555
Ge11 S20 2.222980 1_555
Ge11 S7 2.225917 1_655
Ge12 S13 2.214530 1_555
Ge12 S25 2.215393 1_555
Ge12 S26 2.222980 1_555
Ge12 S15 2.225917 1_455
Ge13 S22 2.225667 1_555
Ge13 S1 2.227045 1_555
Ge13 S13 2.235573 1_555
Ge13 S28 2.236305 1_555
Ge14 S19 2.218078 1_555
Ge14 S29 2.218280 1_555
Ge14 S18 2.220489 1_555
Ge14 S31 2.231186 1_555
Ge15 S10 2.225667 1_555
Ge15 S12 2.227045 1_555
Ge15 S5 2.235573 1_555
Ge15 S24 2.236305 1_555
