# generated using pymatgen
data_K2U7O22
_symmetry_space_group_name_H-M   'P 1'
_cell_length_a   6.98241200
_cell_length_b   7.36974700
_cell_length_c   19.78732000
_cell_angle_alpha   90.00000000
_cell_angle_beta   90.00000000
_cell_angle_gamma   90.00000000
_symmetry_Int_Tables_number   1
_chemical_formula_structural   K2U7O22
_chemical_formula_sum   'K4 U14 O44'
_cell_volume   1018.22798064
_cell_formula_units_Z   2
loop_
 _symmetry_equiv_pos_site_id
 _symmetry_equiv_pos_as_xyz
  1  'x, y, z'
loop_
 _atom_site_type_symbol
 _atom_site_label
 _atom_site_symmetry_multiplicity
 _atom_site_fract_x
 _atom_site_fract_y
 _atom_site_fract_z
 _atom_site_occupancy
  K  K0  1  0.82121500  0.50000000  0.69199500  1
  K  K1  1  0.32121500  0.50000000  0.80800500  1
  K  K2  1  0.17878500  0.50000000  0.30800500  1
  K  K3  1  0.67878500  0.50000000  0.19199500  1
  U  U0  1  0.00000000  0.00000000  0.00000000  1
  U  U1  1  0.50000000  0.00000000  0.50000000  1
  U  U2  1  0.02819100  0.00000000  0.78465800  1
  U  U3  1  0.52819100  0.00000000  0.71534200  1
  U  U4  1  0.97180900  0.00000000  0.21534200  1
  U  U5  1  0.47180900  0.00000000  0.28465800  1
  U  U6  1  0.05638900  0.00000000  0.59696700  1
  U  U7  1  0.55638900  0.00000000  0.90303300  1
  U  U8  1  0.94361100  0.00000000  0.40303300  1
  U  U9  1  0.44361100  0.00000000  0.09696700  1
  U  U10  1  0.76948600  0.50000000  0.95692600  1
  U  U11  1  0.26948600  0.50000000  0.54307400  1
  U  U12  1  0.23051400  0.50000000  0.04307400  1
  U  U13  1  0.73051400  0.50000000  0.45692600  1
  O  O0  1  0.00000000  0.30744000  0.00000000  1
  O  O1  1  0.50000000  0.69256000  0.50000000  1
  O  O2  1  0.00000000  0.69256000  0.00000000  1
  O  O3  1  0.50000000  0.30744000  0.50000000  1
  O  O4  1  0.03125300  0.24922000  0.78105000  1
  O  O5  1  0.53125300  0.75078000  0.71895000  1
  O  O6  1  0.96874700  0.24922000  0.21895000  1
  O  O7  1  0.46874700  0.75078000  0.28105000  1
  O  O8  1  0.96874700  0.75078000  0.21895000  1
  O  O9  1  0.46874700  0.24922000  0.28105000  1
  O  O10  1  0.03125300  0.75078000  0.78105000  1
  O  O11  1  0.53125300  0.24922000  0.71895000  1
  O  O12  1  0.08501800  0.25771300  0.59138100  1
  O  O13  1  0.58501800  0.74228700  0.90861900  1
  O  O14  1  0.91498200  0.25771300  0.40861900  1
  O  O15  1  0.41498200  0.74228700  0.09138100  1
  O  O16  1  0.91498200  0.74228700  0.40861900  1
  O  O17  1  0.41498200  0.25771300  0.09138100  1
  O  O18  1  0.08501800  0.74228700  0.59138100  1
  O  O19  1  0.58501800  0.25771300  0.90861900  1
  O  O20  1  0.69497300  0.00000000  0.01328000  1
  O  O21  1  0.19497300  0.00000000  0.48672000  1
  O  O22  1  0.30502700  0.00000000  0.98672000  1
  O  O23  1  0.80502700  0.00000000  0.51328000  1
  O  O24  1  0.93318900  0.00000000  0.90531100  1
  O  O25  1  0.43318900  0.00000000  0.59468900  1
  O  O26  1  0.06681100  0.00000000  0.09468900  1
  O  O27  1  0.56681100  0.00000000  0.40531100  1
  O  O28  1  0.70821900  0.00000000  0.80655700  1
  O  O29  1  0.20821900  0.00000000  0.69344300  1
  O  O30  1  0.29178100  0.00000000  0.19344300  1
  O  O31  1  0.79178100  0.00000000  0.30655700  1
  O  O32  1  0.84099700  0.00000000  0.67358500  1
  O  O33  1  0.34099700  0.00000000  0.82641500  1
  O  O34  1  0.15900300  0.00000000  0.32641500  1
  O  O35  1  0.65900300  0.00000000  0.17358500  1
  O  O36  1  0.88450200  0.50000000  0.87551200  1
  O  O37  1  0.38450200  0.50000000  0.62448800  1
  O  O38  1  0.11549800  0.50000000  0.12448800  1
  O  O39  1  0.61549800  0.50000000  0.37551200  1
  O  O40  1  0.83704900  0.50000000  0.54116200  1
  O  O41  1  0.33704900  0.50000000  0.95883800  1
  O  O42  1  0.16295100  0.50000000  0.45883800  1
  O  O43  1  0.66295100  0.50000000  0.04116200  1
loop_
_geom_bond_atom_site_label_1
_geom_bond_atom_site_label_2
_geom_bond_distance
_geom_bond_site_symmetry_2
K0 O11 2.792743 1_555
K0 O5 2.792743 1_555
K0 O4 2.944797 1_655
K0 O10 2.944797 1_655
K0 O40 2.986628 1_555
K0 O18 3.247283 1_655
K0 O12 3.247283 1_655
K0 O37 3.329055 1_555
K1 O4 2.792743 1_555
K1 O10 2.792743 1_555
K1 O11 2.944797 1_555
K1 O5 2.944797 1_555
K1 O41 2.986628 1_555
K1 O13 3.247283 1_555
K1 O19 3.247283 1_555
K1 O36 3.329055 1_455
K2 O9 2.792743 1_555
K2 O7 2.792743 1_555
K2 O6 2.944797 1_455
K2 O8 2.944797 1_455
K2 O42 2.986628 1_555
K2 O16 3.247283 1_455
K2 O14 3.247283 1_455
K2 O39 3.329055 1_555
K3 O6 2.792743 1_555
K3 O8 2.792743 1_555
K3 O9 2.944797 1_555
K3 O7 2.944797 1_555
K3 O43 2.986628 1_555
K3 O15 3.247283 1_555
K3 O17 3.247283 1_555
K3 O38 3.329055 1_655
O0 U0 2.265755 1_555
O0 U12 2.308891 1_555
O0 U10 2.308891 1_454
O1 U1 2.265755 1_565
O1 U11 2.308891 1_555
O1 U13 2.308891 1_555
O2 U0 2.265755 1_565
O2 U12 2.308891 1_555
O2 U10 2.308891 1_454
O3 U1 2.265755 1_555
O3 U11 2.308891 1_555
O3 U13 2.308891 1_555
O4 U2 1.838200 1_555
O5 U3 1.838200 1_565
O6 U4 1.838200 1_555
O7 U5 1.838200 1_565
O8 U4 1.838200 1_565
O9 U5 1.838200 1_555
O10 U2 1.838200 1_565
O11 U3 1.838200 1_555
O12 U6 1.912966 1_555
O12 U11 2.400219 1_555
O13 U7 1.912966 1_565
O13 U10 2.400219 1_555
O14 U8 1.912966 1_555
O14 U13 2.400219 1_555
O15 U9 1.912966 1_565
O15 U12 2.400219 1_555
O16 U8 1.912966 1_565
O16 U13 2.400219 1_555
O17 U9 1.912966 1_555
O17 U12 2.400219 1_555
O18 U6 1.912966 1_565
O18 U11 2.400219 1_555
O19 U7 1.912966 1_555
O19 U10 2.400219 1_555
O20 U0 2.145973 1_655
O20 U7 2.386474 1_554
O20 U9 2.412999 1_555
O21 U1 2.145973 1_555
O21 U6 2.386474 1_555
O21 U8 2.412999 1_455
O22 U0 2.145973 1_556
O22 U9 2.386474 1_556
O22 U7 2.412999 1_555
O23 U1 2.145973 1_555
O23 U8 2.386474 1_555
O23 U6 2.412999 1_655
O24 U0 1.930844 1_656
O24 U2 2.477842 1_655
O24 U7 2.631359 1_555
O25 U1 1.930844 1_555
O25 U3 2.477842 1_555
O25 U6 2.631359 1_555
O26 U0 1.930844 1_555
O26 U4 2.477842 1_455
O26 U9 2.631359 1_555
O27 U1 1.930844 1_555
O27 U5 2.477842 1_555
O27 U8 2.631359 1_555
O28 U7 2.183617 1_555
O28 U3 2.199497 1_555
O28 U2 2.275810 1_655
O29 U6 2.183617 1_555
O29 U2 2.199497 1_555
O29 U3 2.275810 1_555
O30 U9 2.183617 1_555
O30 U5 2.199497 1_555
O30 U4 2.275810 1_455
O31 U8 2.183617 1_555
O31 U4 2.199497 1_555
O31 U5 2.275810 1_555
O32 U6 2.135494 1_655
O32 U3 2.335203 1_555
O32 U2 2.557129 1_655
O33 U7 2.135494 1_555
O33 U2 2.335203 1_555
O33 U3 2.557129 1_555
O34 U8 2.135494 1_455
O34 U5 2.335203 1_555
O34 U4 2.557129 1_455
O35 U9 2.135494 1_555
O35 U4 2.335203 1_555
O35 U5 2.557129 1_555
O36 U10 1.800044 1_555
O37 U11 1.800044 1_555
O38 U12 1.800044 1_555
O39 U13 1.800044 1_555
O40 U13 1.825262 1_555
O41 U12 1.825262 1_556
O42 U11 1.825262 1_555
O43 U10 1.825262 1_554
