# generated using pymatgen
data_NaLa(SO4)2
_symmetry_space_group_name_H-M   'P 1'
_cell_length_a   6.49764300
_cell_length_b   6.84179370
_cell_length_c   7.16575500
_cell_angle_alpha   86.52723010
_cell_angle_beta   88.87800083
_cell_angle_gamma   78.21156464
_symmetry_Int_Tables_number   1
_chemical_formula_structural   NaLa(SO4)2
_chemical_formula_sum   'Na2 La2 S4 O16'
_cell_volume   311.25755443
_cell_formula_units_Z   2
loop_
 _symmetry_equiv_pos_site_id
 _symmetry_equiv_pos_as_xyz
  1  'x, y, z'
loop_
 _atom_site_type_symbol
 _atom_site_label
 _atom_site_symmetry_multiplicity
 _atom_site_fract_x
 _atom_site_fract_y
 _atom_site_fract_z
 _atom_site_occupancy
  Na  Na0  1  0.42252000  0.78116200  0.34548700  1
  Na  Na1  1  0.57748000  0.21883800  0.65451300  1
  La  La0  1  0.11923200  0.72983500  0.82310300  1
  La  La1  1  0.88076800  0.27016500  0.17689700  1
  S  S0  1  0.90156100  0.79576200  0.32162400  1
  S  S1  1  0.62003300  0.70382900  0.83751800  1
  S  S2  1  0.09843900  0.20423800  0.67837600  1
  S  S3  1  0.37996700  0.29617100  0.16248200  1
  O  O0  1  0.06394100  0.74539000  0.46969100  1
  O  O1  1  0.19779800  0.37666300  0.70455500  1
  O  O2  1  0.80105100  0.54438200  0.90929600  1
  O  O3  1  0.73677300  0.97275300  0.36453000  1
  O  O4  1  0.93605900  0.25461000  0.53030900  1
  O  O5  1  0.50863900  0.62768000  0.68588900  1
  O  O6  1  0.26322700  0.02724700  0.63547000  1
  O  O7  1  0.19894900  0.45561800  0.09070400  1
  O  O8  1  0.46060600  0.76153400  0.98677300  1
  O  O9  1  0.00649100  0.85866700  0.14422600  1
  O  O10  1  0.80220200  0.62333700  0.29544500  1
  O  O11  1  0.27962400  0.12851100  0.23043800  1
  O  O12  1  0.99350900  0.14133300  0.85577400  1
  O  O13  1  0.49136100  0.37232000  0.31411100  1
  O  O14  1  0.53939400  0.23846600  0.01322700  1
  O  O15  1  0.72037600  0.87148900  0.76956200  1
loop_
_geom_bond_atom_site_label_1
_geom_bond_atom_site_label_2
_geom_bond_distance
_geom_bond_site_symmetry_2
Na0 O11 2.465864 1_565
Na0 O10 2.510904 1_555
Na0 O0 2.530997 1_555
Na0 O8 2.586475 1_554
Na0 O5 2.620828 1_555
Na0 O3 2.651883 1_555
Na0 O13 2.763339 1_555
Na0 O6 2.802044 1_565
Na1 O15 2.465864 1_545
Na1 O1 2.510904 1_555
Na1 O4 2.530997 1_555
Na1 O14 2.586475 1_556
Na1 O13 2.620828 1_555
Na1 O6 2.651883 1_555
Na1 O5 2.763339 1_555
Na1 O3 2.802044 1_545
La0 O9 2.554301 1_556
La0 O0 2.557562 1_555
La0 O1 2.559015 1_555
La0 O7 2.582870 1_556
La0 O8 2.582999 1_555
La0 O15 2.602039 1_455
La0 O5 2.668437 1_555
La0 O2 2.681893 1_455
La0 O6 2.687173 1_565
La0 O12 2.789473 1_465
La1 O12 2.554301 1_554
La1 O4 2.557562 1_555
La1 O10 2.559015 1_555
La1 O2 2.582870 1_554
La1 O14 2.582999 1_555
La1 O11 2.602039 1_655
La1 O13 2.668437 1_555
La1 O7 2.681893 1_655
La1 O3 2.687173 1_545
La1 O9 2.789473 1_645
O0 S0 1.486168 1_455
O1 S2 1.478654 1_555
O2 S1 1.506481 1_555
O3 S0 1.486537 1_555
O4 S2 1.486168 1_655
O5 S1 1.493098 1_555
O6 S2 1.486537 1_555
O7 S3 1.506481 1_555
O8 S1 1.487784 1_555
O9 S0 1.511846 1_455
O10 S0 1.478654 1_555
O11 S3 1.484430 1_555
O12 S2 1.511846 1_655
O13 S3 1.493098 1_555
O14 S3 1.487784 1_555
O15 S1 1.484430 1_555
