# generated using pymatgen
data_Pr2Fe14B
_symmetry_space_group_name_H-M   'P 1'
_cell_length_a   8.78314700
_cell_length_b   8.78314700
_cell_length_c   12.17150300
_cell_angle_alpha   90.00000000
_cell_angle_beta   90.00000000
_cell_angle_gamma   90.00000000
_symmetry_Int_Tables_number   1
_chemical_formula_structural   Pr2Fe14B
_chemical_formula_sum   'Pr8 Fe56 B4'
_cell_volume   938.95442573
_cell_formula_units_Z   4
loop_
 _symmetry_equiv_pos_site_id
 _symmetry_equiv_pos_as_xyz
  1  'x, y, z'
loop_
 _atom_site_type_symbol
 _atom_site_label
 _atom_site_symmetry_multiplicity
 _atom_site_fract_x
 _atom_site_fract_y
 _atom_site_fract_z
 _atom_site_occupancy
  Pr  Pr0  1  0.23110400  0.76889600  0.50000000  1
  Pr  Pr1  1  0.85761500  0.14238500  0.00000000  1
  Pr  Pr2  1  0.64238500  0.64238500  0.50000000  1
  Pr  Pr3  1  0.14238500  0.85761500  0.00000000  1
  Pr  Pr4  1  0.35761500  0.35761500  0.50000000  1
  Pr  Pr5  1  0.73110400  0.73110400  0.00000000  1
  Pr  Pr6  1  0.26889600  0.26889600  0.00000000  1
  Pr  Pr7  1  0.76889600  0.23110400  0.50000000  1
  Fe  Fe0  1  0.18194200  0.81805800  0.74567200  1
  Fe  Fe1  1  0.13960600  0.53695700  0.67660800  1
  Fe  Fe2  1  0.40184600  0.59815400  0.29376900  1
  Fe  Fe3  1  0.46304300  0.86039400  0.67660800  1
  Fe  Fe4  1  0.96304300  0.63960600  0.17660800  1
  Fe  Fe5  1  0.50000000  0.00000000  0.00000000  1
  Fe  Fe6  1  0.50000000  0.50000000  0.88569800  1
  Fe  Fe7  1  0.68194200  0.68194200  0.24567200  1
  Fe  Fe8  1  0.53695700  0.13960600  0.67660800  1
  Fe  Fe9  1  0.77536900  0.43238600  0.87237100  1
  Fe  Fe10  1  0.36039400  0.03695700  0.17660800  1
  Fe  Fe11  1  0.90184600  0.90184600  0.20623100  1
  Fe  Fe12  1  0.00000000  0.00000000  0.61430200  1
  Fe  Fe13  1  0.96304300  0.63960600  0.82339200  1
  Fe  Fe14  1  0.81805800  0.18194200  0.25432800  1
  Fe  Fe15  1  0.00000000  0.00000000  0.38569800  1
  Fe  Fe16  1  0.50000000  0.50000000  0.11430200  1
  Fe  Fe17  1  0.13960600  0.53695700  0.32339200  1
  Fe  Fe18  1  0.31805800  0.31805800  0.24567200  1
  Fe  Fe19  1  0.06761400  0.27536900  0.37237100  1
  Fe  Fe20  1  0.53695700  0.13960600  0.32339200  1
  Fe  Fe21  1  0.03695700  0.36039400  0.82339200  1
  Fe  Fe22  1  0.09815400  0.09815400  0.79376900  1
  Fe  Fe23  1  0.72463100  0.93238600  0.62762900  1
  Fe  Fe24  1  0.43238600  0.77536900  0.12762900  1
  Fe  Fe25  1  0.93238600  0.72463100  0.62762900  1
  Fe  Fe26  1  0.93238600  0.72463100  0.37237100  1
  Fe  Fe27  1  0.68194200  0.68194200  0.75432800  1
  Fe  Fe28  1  0.46304300  0.86039400  0.32339200  1
  Fe  Fe29  1  0.63960600  0.96304300  0.17660800  1
  Fe  Fe30  1  0.09815400  0.09815400  0.20623100  1
  Fe  Fe31  1  0.03695700  0.36039400  0.17660800  1
  Fe  Fe32  1  0.22463100  0.56761400  0.87237100  1
  Fe  Fe33  1  0.56761400  0.22463100  0.12762900  1
  Fe  Fe34  1  0.81805800  0.18194200  0.74567200  1
  Fe  Fe35  1  0.86039400  0.46304300  0.32339200  1
  Fe  Fe36  1  0.06761400  0.27536900  0.62762900  1
  Fe  Fe37  1  0.86039400  0.46304300  0.67660800  1
  Fe  Fe38  1  0.31805800  0.31805800  0.75432800  1
  Fe  Fe39  1  0.36039400  0.03695700  0.82339200  1
  Fe  Fe40  1  0.27536900  0.06761400  0.37237100  1
  Fe  Fe41  1  0.90184600  0.90184600  0.79376900  1
  Fe  Fe42  1  0.63960600  0.96304300  0.82339200  1
  Fe  Fe43  1  0.22463100  0.56761400  0.12762900  1
  Fe  Fe44  1  0.27536900  0.06761400  0.62762900  1
  Fe  Fe45  1  0.77536900  0.43238600  0.12762900  1
  Fe  Fe46  1  0.59815400  0.40184600  0.29376900  1
  Fe  Fe47  1  0.00000000  0.50000000  0.00000000  1
  Fe  Fe48  1  0.72463100  0.93238600  0.37237100  1
  Fe  Fe49  1  0.18194200  0.81805800  0.25432800  1
  Fe  Fe50  1  0.40184600  0.59815400  0.70623100  1
  Fe  Fe51  1  0.56761400  0.22463100  0.87237100  1
  Fe  Fe52  1  0.50000000  0.00000000  0.50000000  1
  Fe  Fe53  1  0.59815400  0.40184600  0.70623100  1
  Fe  Fe54  1  0.00000000  0.50000000  0.50000000  1
  Fe  Fe55  1  0.43238600  0.77536900  0.87237100  1
  B  B0  1  0.87667700  0.87667700  0.50000000  1
  B  B1  1  0.12332300  0.12332300  0.50000000  1
  B  B2  1  0.62332300  0.37667700  0.00000000  1
  B  B3  1  0.37667700  0.62332300  0.00000000  1
loop_
_geom_bond_atom_site_label_1
_geom_bond_atom_site_label_2
_geom_bond_distance
_geom_bond_site_symmetry_2
Fe0 Fe22 2.633724 1_565
Fe0 Fe41 2.633724 1_455
Fe0 Fe3 2.634505 1_555
Fe0 Fe1 2.634505 1_555
Fe0 Fe39 2.654804 1_565
Fe0 Fe13 2.654804 1_455
Fe0 Fe32 2.712440 1_555
Fe0 Fe55 2.712440 1_555
Fe0 Fe44 2.746271 1_565
Fe0 Fe25 2.746271 1_455
Fe0 Fe12 2.768404 1_565
Fe0 Fe50 2.773346 1_555
Fe0 Pr0 3.051914 1_555
Fe0 Pr3 3.134306 1_556
Fe1 Fe50 2.392502 1_555
Fe1 Fe36 2.456425 1_555
Fe1 Fe54 2.495916 1_555
Fe1 Fe32 2.511493 1_555
Fe1 Fe25 2.526870 1_455
Fe1 Fe13 2.531726 1_455
Fe1 Fe21 2.531726 1_555
Fe1 Fe37 2.536834 1_455
Fe1 Fe38 2.654804 1_555
Fe1 Pr0 3.068640 1_555
Fe1 Pr4 3.281525 1_555
Fe2 Fe28 2.392502 1_555
Fe2 Fe46 2.438390 1_555
Fe2 Fe43 2.565901 1_555
Fe2 Fe24 2.565901 1_555
Fe2 Fe7 2.633724 1_555
Fe2 Fe49 2.773346 1_555
Fe2 Pr0 3.286141 1_555
Fe2 Pr2 3.303814 1_555
Fe2 Pr4 3.303814 1_555
Fe3 Fe50 2.392502 1_555
Fe3 Fe52 2.495916 1_565
Fe3 Fe55 2.511493 1_555
Fe3 Fe44 2.526870 1_565
Fe3 Fe39 2.531726 1_565
Fe3 Fe42 2.531726 1_555
Fe3 Fe8 2.536834 1_565
Fe3 Pr0 3.068640 1_555
Fe3 Pr2 3.281525 1_555
Fe4 Fe43 2.456425 1_655
Fe4 Fe47 2.495916 1_655
Fe4 Fe45 2.526870 1_555
Fe4 Fe7 2.634505 1_555
Fe4 Fe49 2.654804 1_655
Fe4 Pr5 3.068640 1_555
Fe4 Pr3 3.281525 1_655
Fe5 Fe51 2.580395 1_554
Fe5 Fe55 2.580395 1_544
Fe5 Pr6 3.114169 1_555
Fe5 Pr5 3.114169 1_545
Fe5 Pr1 3.380793 1_555
Fe5 Pr3 3.380793 1_545
Fe6 Pr5 3.189962 1_556
Fe6 Pr6 3.189962 1_556
Fe7 Pr5 3.051914 1_555
Fe7 Pr2 3.134306 1_555
Fe8 Pr7 3.068640 1_555
Fe8 Pr4 3.281525 1_555
Fe9 Pr1 3.069662 1_556
Fe9 Pr5 3.073766 1_556
Fe10 Fe30 2.392502 1_555
Fe10 Fe24 2.456425 1_545
Fe10 Fe5 2.495916 1_555
Fe10 Fe40 2.511493 1_555
Fe10 Fe33 2.526870 1_555
Fe10 Fe20 2.531726 1_555
Fe10 Fe28 2.531726 1_545
Fe10 Fe29 2.536834 1_545
Fe10 Fe18 2.634505 1_555
Fe10 Fe49 2.654804 1_545
Fe10 Pr6 3.068640 1_555
Fe10 Pr3 3.281525 1_545
Fe11 Fe29 2.392502 1_555
Fe11 Fe4 2.392502 1_555
Fe11 Fe30 2.438390 1_665
Fe11 Fe15 2.501593 1_665
Fe11 Fe48 2.565901 1_555
Fe11 Fe26 2.565901 1_555
Fe11 Fe49 2.633724 1_655
Fe11 Fe14 2.633724 1_565
Fe11 Fe7 2.773346 1_555
Fe11 Pr5 3.286141 1_555
Fe11 Pr3 3.303814 1_655
Fe11 Pr1 3.303814 1_565
Fe12 Fe22 2.501593 1_555
Fe12 Fe41 2.501593 1_445
Fe12 Fe34 2.768404 1_455
Fe12 Pr0 3.189962 1_545
Fe12 Pr7 3.189962 1_455
Fe13 Fe41 2.392502 1_555
Fe13 Fe32 2.456425 1_655
Fe13 Fe47 2.495916 1_656
Fe13 Fe25 2.511493 1_555
Fe13 Fe9 2.526870 1_555
Fe13 Fe37 2.531726 1_555
Fe13 Fe21 2.536834 1_655
Fe13 Fe27 2.634505 1_555
Fe13 Pr5 3.068640 1_556
Fe13 Pr3 3.281525 1_656
Fe14 Fe30 2.633724 1_655
Fe14 Fe35 2.634505 1_555
Fe14 Fe20 2.634505 1_555
Fe14 Fe31 2.654804 1_655
Fe14 Fe29 2.654804 1_545
Fe14 Fe33 2.712440 1_555
Fe14 Fe45 2.712440 1_555
Fe14 Fe19 2.746271 1_655
Fe14 Fe48 2.746271 1_545
Fe14 Fe15 2.768404 1_655
Fe14 Fe46 2.773346 1_555
Fe14 Pr7 3.051914 1_555
Fe14 Pr1 3.134306 1_555
Fe15 Fe30 2.501593 1_555
Fe15 Fe49 2.768404 1_545
Fe15 Pr0 3.189962 1_545
Fe15 Pr7 3.189962 1_455
Fe16 Fe2 2.501593 1_555
Fe16 Fe46 2.501593 1_555
Fe16 Fe7 2.768404 1_555
Fe16 Fe18 2.768404 1_555
Fe16 Pr5 3.189962 1_555
Fe16 Pr6 3.189962 1_555
Fe17 Fe2 2.392502 1_555
Fe17 Fe19 2.456425 1_555
Fe17 Fe54 2.495916 1_555
Fe17 Fe43 2.511493 1_555
Fe17 Fe26 2.526870 1_455
Fe17 Fe4 2.531726 1_455
Fe17 Fe31 2.531726 1_555
Fe17 Fe35 2.536834 1_455
Fe17 Fe49 2.634505 1_555
Fe17 Fe18 2.654804 1_555
Fe17 Pr0 3.068640 1_555
Fe17 Pr4 3.281525 1_555
Fe18 Fe2 2.633724 1_555
Fe18 Fe46 2.633724 1_555
Fe18 Fe31 2.634505 1_555
Fe18 Fe20 2.654804 1_555
Fe18 Fe19 2.712440 1_555
Fe18 Fe40 2.712440 1_555
Fe18 Fe33 2.746271 1_555
Fe18 Fe43 2.746271 1_555
Fe18 Fe30 2.773346 1_555
Fe18 Pr6 3.051914 1_555
Fe18 Pr4 3.134306 1_555
Fe19 Fe31 2.511493 1_555
Fe19 Fe35 2.526870 1_455
Fe19 Fe30 2.565901 1_555
Fe19 Fe54 2.580395 1_555
Fe19 Pr4 3.069662 1_555
Fe19 Pr7 3.073766 1_455
Fe20 Fe46 2.392502 1_555
Fe20 Fe40 2.456425 1_555
Fe20 Fe52 2.495916 1_555
Fe20 Fe33 2.511493 1_555
Fe20 Fe48 2.526870 1_545
Fe20 Fe29 2.531726 1_545
Fe20 Fe28 2.536834 1_545
Fe20 Pr7 3.068640 1_555
Fe20 Pr4 3.281525 1_555
Fe21 Fe22 2.392502 1_555
Fe21 Fe9 2.456425 1_455
Fe21 Fe47 2.495916 1_556
Fe21 Fe36 2.511493 1_555
Fe21 Fe32 2.526870 1_555
Fe21 Fe37 2.531726 1_455
Fe21 Fe38 2.634505 1_555
Fe21 Fe34 2.654804 1_455
Fe21 Pr6 3.068640 1_556
Fe21 Pr1 3.281525 1_456
Fe22 Fe39 2.392502 1_555
Fe22 Fe41 2.438390 1_445
Fe22 Fe36 2.565901 1_555
Fe22 Fe44 2.565901 1_555
Fe22 Fe34 2.633724 1_455
Fe22 Fe38 2.773346 1_555
Fe22 Pr6 3.286141 1_556
Fe22 Pr3 3.303814 1_546
Fe22 Pr1 3.303814 1_456
Fe23 Fe3 2.456425 1_555
Fe23 Fe42 2.511493 1_555
Fe23 Fe8 2.526870 1_565
Fe23 Fe41 2.565901 1_555
Fe23 Fe52 2.580395 1_565
Fe23 Fe27 2.712440 1_555
Fe23 Fe34 2.746271 1_565
Fe23 Pr2 3.069662 1_555
Fe23 Pr7 3.073766 1_565
Fe24 Fe28 2.511493 1_555
Fe24 Fe29 2.526870 1_555
Fe24 Fe5 2.580395 1_565
Fe24 Fe49 2.712440 1_555
Fe24 Fe7 2.746271 1_555
Fe24 Pr3 3.069662 1_555
Fe24 Pr5 3.073766 1_555
Fe25 Fe37 2.456425 1_555
Fe25 Fe41 2.565901 1_555
Fe25 Fe54 2.580395 1_655
Fe25 Fe27 2.712440 1_555
Fe25 Pr2 3.069662 1_555
Fe25 Pr0 3.073766 1_655
Fe26 Fe35 2.456425 1_555
Fe26 Fe4 2.511493 1_555
Fe26 Fe54 2.580395 1_655
Fe26 Fe7 2.712440 1_555
Fe26 Fe49 2.746271 1_655
Fe26 Pr2 3.069662 1_555
Fe26 Pr0 3.073766 1_655
Fe27 Fe50 2.633724 1_555
Fe27 Fe53 2.633724 1_555
Fe27 Fe42 2.634505 1_555
Fe27 Fe37 2.654804 1_555
Fe27 Fe3 2.654804 1_555
Fe27 Fe9 2.746271 1_555
Fe27 Fe55 2.746271 1_555
Fe27 Fe6 2.768404 1_555
Fe27 Fe41 2.773346 1_555
Fe27 Pr5 3.051914 1_556
Fe27 Pr2 3.134306 1_555
Fe28 Fe48 2.456425 1_555
Fe28 Fe52 2.495916 1_565
Fe28 Fe40 2.526870 1_565
Fe28 Fe29 2.531726 1_555
Fe28 Fe49 2.634505 1_555
Fe28 Fe7 2.654804 1_555
Fe28 Pr0 3.068640 1_555
Fe28 Pr2 3.281525 1_555
Fe29 Fe33 2.456425 1_565
Fe29 Fe5 2.495916 1_565
Fe29 Fe48 2.511493 1_555
Fe29 Fe7 2.634505 1_555
Fe29 Pr5 3.068640 1_555
Fe29 Pr1 3.281525 1_565
Fe30 Fe31 2.392502 1_555
Fe30 Fe40 2.565901 1_555
Fe30 Fe49 2.633724 1_545
Fe30 Pr6 3.286141 1_555
Fe30 Pr1 3.303814 1_455
Fe30 Pr3 3.303814 1_545
Fe31 Fe45 2.456425 1_455
Fe31 Fe47 2.495916 1_555
Fe31 Fe43 2.526870 1_555
Fe31 Fe35 2.531726 1_455
Fe31 Fe4 2.536834 1_455
Fe31 Pr6 3.068640 1_555
Fe31 Pr1 3.281525 1_455
Fe32 Fe50 2.565901 1_555
Fe32 Fe47 2.580395 1_556
Fe32 Fe38 2.746271 1_555
Fe32 Pr3 3.069662 1_556
Fe32 Pr6 3.073766 1_556
Fe33 Fe46 2.565901 1_555
Fe33 Fe5 2.580395 1_555
Fe33 Pr1 3.069662 1_555
Fe33 Pr6 3.073766 1_555
Fe34 Fe41 2.633724 1_545
Fe34 Fe37 2.634505 1_555
Fe34 Fe8 2.634505 1_555
Fe34 Fe42 2.654804 1_545
Fe34 Fe9 2.712440 1_555
Fe34 Fe51 2.712440 1_555
Fe34 Fe36 2.746271 1_655
Fe34 Fe53 2.773346 1_555
Fe34 Pr7 3.051914 1_555
Fe34 Pr1 3.134306 1_556
Fe35 Fe46 2.392502 1_555
Fe35 Fe54 2.495916 1_655
Fe35 Fe45 2.511493 1_555
Fe35 Fe4 2.531726 1_555
Fe35 Fe7 2.654804 1_555
Fe35 Pr7 3.068640 1_555
Fe35 Pr2 3.281525 1_555
Fe36 Fe37 2.526870 1_455
Fe36 Fe54 2.580395 1_555
Fe36 Fe38 2.712440 1_555
Fe36 Pr4 3.069662 1_555
Fe36 Pr7 3.073766 1_455
Fe37 Fe53 2.392502 1_555
Fe37 Fe54 2.495916 1_655
Fe37 Fe9 2.511493 1_555
Fe37 Pr7 3.068640 1_555
Fe37 Pr2 3.281525 1_555
Fe38 Fe50 2.633724 1_555
Fe38 Fe53 2.633724 1_555
Fe38 Fe39 2.634505 1_555
Fe38 Fe8 2.654804 1_555
Fe38 Fe44 2.712440 1_555
Fe38 Fe51 2.746271 1_555
Fe38 Fe6 2.768404 1_555
Fe38 Pr6 3.051914 1_556
Fe38 Pr4 3.134306 1_555
Fe39 Fe55 2.456425 1_545
Fe39 Fe5 2.495916 1_556
Fe39 Fe44 2.511493 1_555
Fe39 Fe51 2.526870 1_555
Fe39 Fe8 2.531726 1_555
Fe39 Fe42 2.536834 1_545
Fe39 Pr6 3.068640 1_556
Fe39 Pr3 3.281525 1_546
Fe40 Fe52 2.580395 1_555
Fe40 Fe49 2.746271 1_545
Fe40 Pr4 3.069662 1_555
Fe40 Pr0 3.073766 1_545
Fe41 Fe42 2.392502 1_555
Fe41 Pr5 3.286141 1_556
Fe41 Pr3 3.303814 1_656
Fe41 Pr1 3.303814 1_566
Fe42 Fe51 2.456425 1_565
Fe42 Fe5 2.495916 1_566
Fe42 Fe55 2.526870 1_555
Fe42 Fe8 2.531726 1_565
Fe42 Pr5 3.068640 1_556
Fe42 Pr1 3.281525 1_566
Fe43 Fe47 2.580395 1_555
Fe43 Fe49 2.712440 1_555
Fe43 Pr3 3.069662 1_555
Fe43 Pr6 3.073766 1_555
Fe44 Fe8 2.456425 1_555
Fe44 Fe52 2.580395 1_555
Fe44 Pr4 3.069662 1_555
Fe44 Pr0 3.073766 1_545
Fe45 Fe46 2.565901 1_555
Fe45 Fe47 2.580395 1_655
Fe45 Fe7 2.746271 1_555
Fe45 Pr1 3.069662 1_555
Fe45 Pr5 3.073766 1_555
Fe46 Fe7 2.633724 1_555
Fe46 Pr7 3.286141 1_555
Fe46 Pr2 3.303814 1_555
Fe46 Pr4 3.303814 1_555
Fe47 Fe9 2.580395 1_454
Fe47 Pr6 3.114169 1_555
Fe47 Pr5 3.114169 1_455
Fe47 Pr3 3.380793 1_555
Fe47 Pr1 3.380793 1_455
Fe48 Fe52 2.580395 1_565
Fe48 Fe7 2.712440 1_555
Fe48 Pr2 3.069662 1_555
Fe48 Pr7 3.073766 1_565
Fe49 Pr0 3.051914 1_555
Fe49 Pr3 3.134306 1_555
Fe50 Fe53 2.438390 1_555
Fe50 Fe6 2.501593 1_555
Fe50 Fe55 2.565901 1_555
Fe50 Pr0 3.286141 1_555
Fe50 Pr2 3.303814 1_555
Fe50 Pr4 3.303814 1_555
Fe51 Fe8 2.511493 1_555
Fe51 Fe53 2.565901 1_555
Fe51 Pr1 3.069662 1_556
Fe51 Pr6 3.073766 1_556
Fe52 Fe8 2.495916 1_555
Fe52 Pr7 3.114169 1_555
Fe52 Pr0 3.114169 1_545
Fe52 Pr4 3.380793 1_555
Fe52 Pr2 3.380793 1_545
Fe53 Fe8 2.392502 1_555
Fe53 Fe6 2.501593 1_555
Fe53 Fe9 2.565901 1_555
Fe53 Pr7 3.286141 1_555
Fe53 Pr2 3.303814 1_555
Fe53 Pr4 3.303814 1_555
Fe54 Pr0 3.114169 1_555
Fe54 Pr7 3.114169 1_455
Fe54 Pr4 3.380793 1_555
Fe54 Pr2 3.380793 1_455
Fe55 Pr3 3.069662 1_556
Fe55 Pr5 3.073766 1_556
B0 Fe12 2.069300 1_665
B0 Fe15 2.069300 1_665
B0 Fe25 2.106178 1_555
B0 Fe48 2.106178 1_555
B0 Fe23 2.106178 1_555
B0 Fe26 2.106178 1_555
B0 Pr2 2.910198 1_555
B0 Pr7 3.253741 1_565
B0 Pr0 3.253741 1_655
B1 Fe12 2.069300 1_555
B1 Fe15 2.069300 1_555
B1 Fe36 2.106178 1_555
B1 Fe40 2.106178 1_555
B1 Fe44 2.106178 1_555
B1 Fe19 2.106178 1_555
B1 Pr4 2.910198 1_555
B1 Pr0 3.253741 1_545
B1 Pr7 3.253741 1_455
B2 Fe6 2.069300 1_554
B2 Fe16 2.069300 1_555
B2 Fe9 2.106178 1_554
B2 Fe51 2.106178 1_554
B2 Fe45 2.106178 1_555
B2 Fe33 2.106178 1_555
B2 Pr1 2.910198 1_555
B2 Pr5 3.253741 1_555
B2 Pr6 3.253741 1_555
B3 Fe6 2.069300 1_554
B3 Fe16 2.069300 1_555
B3 Fe24 2.106178 1_555
B3 Fe43 2.106178 1_555
B3 Fe32 2.106178 1_554
B3 Fe55 2.106178 1_554
B3 Pr3 2.910198 1_555
B3 Pr5 3.253741 1_555
B3 Pr6 3.253741 1_555
