# generated using pymatgen
data_Rb2HfS4
_symmetry_space_group_name_H-M   'P 1'
_cell_length_a   6.72324309
_cell_length_b   9.82932311
_cell_length_c   23.92059371
_cell_angle_alpha   90.00000000
_cell_angle_beta   90.00000000
_cell_angle_gamma   90.00000000
_symmetry_Int_Tables_number   1
_chemical_formula_structural   Rb2HfS4
_chemical_formula_sum   'Rb16 Hf8 S32'
_cell_volume   1580.79072928
_cell_formula_units_Z   8
loop_
 _symmetry_equiv_pos_site_id
 _symmetry_equiv_pos_as_xyz
  1  'x, y, z'
loop_
 _atom_site_type_symbol
 _atom_site_label
 _atom_site_symmetry_multiplicity
 _atom_site_fract_x
 _atom_site_fract_y
 _atom_site_fract_z
 _atom_site_occupancy
  Rb  Rb0  1  0.30720946  0.85824169  0.46600290  1
  Rb  Rb1  1  0.54694924  0.92779221  0.30069339  1
  Rb  Rb2  1  0.04694924  0.07220779  0.19930661  1
  Rb  Rb3  1  0.80720946  0.64175831  0.46600290  1
  Rb  Rb4  1  0.04694924  0.57220779  0.30069339  1
  Rb  Rb5  1  0.19279054  0.35824169  0.53399710  1
  Rb  Rb6  1  0.45305076  0.57220779  0.80069339  1
  Rb  Rb7  1  0.30720946  0.35824169  0.03399710  1
  Rb  Rb8  1  0.95305076  0.92779221  0.80069339  1
  Rb  Rb9  1  0.19279054  0.85824169  0.96600290  1
  Rb  Rb10  1  0.69279054  0.64175831  0.96600290  1
  Rb  Rb11  1  0.45305076  0.07220779  0.69930661  1
  Rb  Rb12  1  0.80720946  0.14175831  0.03399710  1
  Rb  Rb13  1  0.54694924  0.42779221  0.19930661  1
  Rb  Rb14  1  0.95305076  0.42779221  0.69930661  1
  Rb  Rb15  1  0.69279054  0.14175831  0.53399710  1
  Hf  Hf0  1  0.03399041  0.67385487  0.13087734  1
  Hf  Hf1  1  0.53399041  0.82614513  0.13087734  1
  Hf  Hf2  1  0.46600959  0.67385487  0.63087734  1
  Hf  Hf3  1  0.46600959  0.17385487  0.86912266  1
  Hf  Hf4  1  0.53399041  0.32614513  0.36912266  1
  Hf  Hf5  1  0.96600959  0.82614513  0.63087734  1
  Hf  Hf6  1  0.96600959  0.32614513  0.86912266  1
  Hf  Hf7  1  0.03399041  0.17385487  0.36912266  1
  S  S0  1  0.05273274  0.42093519  0.15902927  1
  S  S1  1  0.44726726  0.42093519  0.65902927  1
  S  S2  1  0.94726726  0.57906481  0.84097073  1
  S  S3  1  0.87414824  0.45980674  0.08868337  1
  S  S4  1  0.76876195  0.72899934  0.20075093  1
  S  S5  1  0.12585176  0.54019326  0.91131663  1
  S  S6  1  0.65360288  0.32912953  0.93142290  1
  S  S7  1  0.55273274  0.57906481  0.34097073  1
  S  S8  1  0.12585176  0.04019326  0.58868337  1
  S  S9  1  0.65360288  0.82912953  0.56857710  1
  S  S10  1  0.34639712  0.17087047  0.43142290  1
  S  S11  1  0.23123805  0.27100066  0.79924907  1
  S  S12  1  0.05273274  0.92093519  0.34097073  1
  S  S13  1  0.15360288  0.17087047  0.93142290  1
  S  S14  1  0.37414824  0.54019326  0.41131663  1
  S  S15  1  0.26876195  0.27100066  0.29924907  1
  S  S16  1  0.73123805  0.72899934  0.70075093  1
  S  S17  1  0.62585176  0.95980674  0.91131663  1
  S  S18  1  0.87414824  0.95980674  0.41131663  1
  S  S19  1  0.23123805  0.77100066  0.70075093  1
  S  S20  1  0.76876195  0.22899934  0.29924907  1
  S  S21  1  0.62585176  0.45980674  0.58868337  1
  S  S22  1  0.73123805  0.22899934  0.79924907  1
  S  S23  1  0.94726726  0.07906481  0.65902927  1
  S  S24  1  0.84639712  0.32912953  0.43142290  1
  S  S25  1  0.55273274  0.07906481  0.15902927  1
  S  S26  1  0.15360288  0.67087047  0.56857710  1
  S  S27  1  0.84639712  0.82912953  0.06857710  1
  S  S28  1  0.34639712  0.67087047  0.06857710  1
  S  S29  1  0.44726726  0.92093519  0.84097073  1
  S  S30  1  0.26876195  0.77100066  0.20075093  1
  S  S31  1  0.37414824  0.04019326  0.08868337  1
loop_
_geom_bond_atom_site_label_1
_geom_bond_atom_site_label_2
_geom_bond_distance
_geom_bond_site_symmetry_2
Rb0 S10 3.193200 1_565
Rb0 S26 3.237105 1_555
Rb0 S18 3.344414 1_455
Rb0 S9 3.394986 1_555
Rb0 S14 3.418607 1_555
Rb0 S12 3.500300 1_555
Rb0 S8 3.646523 1_565
Rb1 S20 3.315221 1_565
Rb1 S30 3.404207 1_555
Rb1 S4 3.428915 1_555
Rb1 S18 3.455510 1_555
Rb1 S12 3.460257 1_555
Rb1 S12 3.535001 1_655
Rb1 S7 3.560795 1_555
Rb1 S25 3.700760 1_565
Rb1 S15 3.857440 1_565
Rb2 S30 3.315221 1_545
Rb2 S20 3.404207 1_455
Rb2 S15 3.428915 1_555
Rb2 S31 3.455510 1_555
Rb2 S25 3.460257 1_455
Rb2 S25 3.535001 1_555
Rb2 S0 3.560795 1_555
Rb2 S12 3.700760 1_545
Rb2 S4 3.857440 1_445
Rb3 S24 3.193200 1_555
Rb3 S9 3.237105 1_555
Rb3 S14 3.344414 1_555
Rb3 S26 3.394986 1_655
Rb3 S18 3.418607 1_555
Rb3 S7 3.500300 1_555
Rb3 S21 3.646523 1_555
Rb4 S15 3.315221 1_555
Rb4 S4 3.404207 1_455
Rb4 S30 3.428915 1_555
Rb4 S14 3.455510 1_555
Rb4 S7 3.460257 1_455
Rb4 S7 3.535001 1_555
Rb4 S12 3.560795 1_555
Rb4 S0 3.700760 1_555
Rb4 S20 3.857440 1_455
Rb5 S26 3.193200 1_555
Rb5 S10 3.237105 1_555
Rb5 S21 3.344414 1_555
Rb5 S24 3.394986 1_455
Rb5 S8 3.418607 1_555
Rb5 S1 3.500300 1_555
Rb5 S14 3.646523 1_555
Rb6 S11 3.315221 1_555
Rb6 S16 3.404207 1_555
Rb6 S19 3.428915 1_555
Rb6 S5 3.455510 1_555
Rb6 S2 3.460257 1_555
Rb6 S2 3.535001 1_455
Rb6 S29 3.560795 1_555
Rb6 S1 3.700760 1_555
Rb6 S22 3.857440 1_555
Rb7 S28 3.193200 1_555
Rb7 S13 3.237105 1_554
Rb7 S3 3.344414 1_455
Rb7 S6 3.394986 1_554
Rb7 S31 3.418607 1_555
Rb7 S0 3.500300 1_555
Rb7 S5 3.646523 1_554
Rb8 S22 3.315221 1_565
Rb8 S19 3.404207 1_655
Rb8 S16 3.428915 1_555
Rb8 S17 3.455510 1_555
Rb8 S29 3.460257 1_655
Rb8 S29 3.535001 1_555
Rb8 S2 3.560795 1_555
Rb8 S23 3.700760 1_565
Rb8 S11 3.857440 1_665
Rb9 S13 3.193200 1_565
Rb9 S28 3.237105 1_556
Rb9 S17 3.344414 1_555
Rb9 S27 3.394986 1_456
Rb9 S5 3.418607 1_555
Rb9 S29 3.500300 1_555
Rb9 S31 3.646523 1_566
Rb10 S6 3.193200 1_555
Rb10 S27 3.237105 1_556
Rb10 S5 3.344414 1_655
Rb10 S28 3.394986 1_556
Rb10 S17 3.418607 1_555
Rb10 S2 3.500300 1_555
Rb10 S3 3.646523 1_556
Rb11 S19 3.315221 1_545
Rb11 S22 3.404207 1_555
Rb11 S11 3.428915 1_555
Rb11 S8 3.455510 1_555
Rb11 S23 3.460257 1_555
Rb11 S23 3.535001 1_455
Rb11 S1 3.560795 1_555
Rb11 S29 3.700760 1_545
Rb11 S16 3.857440 1_545
Rb12 S27 3.193200 1_545
Rb12 S6 3.237105 1_554
Rb12 S31 3.344414 1_555
Rb12 S13 3.394986 1_654
Rb12 S3 3.418607 1_555
Rb12 S25 3.500300 1_555
Rb12 S17 3.646523 1_544
Rb13 S4 3.315221 1_555
Rb13 S15 3.404207 1_555
Rb13 S20 3.428915 1_555
Rb13 S3 3.455510 1_555
Rb13 S0 3.460257 1_555
Rb13 S0 3.535001 1_655
Rb13 S25 3.560795 1_555
Rb13 S7 3.700760 1_555
Rb13 S30 3.857440 1_555
Rb14 S16 3.315221 1_555
Rb14 S11 3.404207 1_655
Rb14 S22 3.428915 1_555
Rb14 S21 3.455510 1_555
Rb14 S1 3.460257 1_655
Rb14 S1 3.535001 1_555
Rb14 S23 3.560795 1_555
Rb14 S2 3.700760 1_555
Rb14 S19 3.857440 1_655
Rb15 S9 3.193200 1_545
Rb15 S24 3.237105 1_555
Rb15 S8 3.344414 1_655
Rb15 S10 3.394986 1_555
Rb15 S21 3.418607 1_555
Rb15 S23 3.500300 1_555
Rb15 S18 3.646523 1_545
Hf0 S27 2.478106 1_455
Hf0 S30 2.489349 1_555
Hf0 S4 2.503442 1_455
Hf0 S3 2.569082 1_455
Hf0 S28 2.575530 1_555
Hf0 S0 2.578702 1_555
Hf1 S28 2.478106 1_555
Hf1 S4 2.489349 1_555
Hf1 S30 2.503442 1_555
Hf1 S31 2.569082 1_565
Hf1 S27 2.575530 1_555
Hf1 S25 2.578702 1_565
Hf2 S9 2.478106 1_555
Hf2 S19 2.489349 1_555
Hf2 S16 2.503442 1_555
Hf2 S21 2.569082 1_555
Hf2 S26 2.575530 1_555
Hf2 S1 2.578702 1_555
Hf3 S6 2.478106 1_555
Hf3 S11 2.489349 1_555
Hf3 S22 2.503442 1_555
Hf3 S17 2.569082 1_545
Hf3 S13 2.575530 1_555
Hf3 S29 2.578702 1_545
Hf4 S10 2.478106 1_555
Hf4 S20 2.489349 1_555
Hf4 S15 2.503442 1_555
Hf4 S14 2.569082 1_555
Hf4 S24 2.575530 1_555
Hf4 S7 2.578702 1_555
Hf5 S26 2.478106 1_655
Hf5 S16 2.489349 1_555
Hf5 S19 2.503442 1_655
Hf5 S8 2.569082 1_665
Hf5 S9 2.575530 1_555
Hf5 S23 2.578702 1_565
Hf6 S13 2.478106 1_655
Hf6 S22 2.489349 1_555
Hf6 S11 2.503442 1_655
Hf6 S5 2.569082 1_655
Hf6 S6 2.575530 1_555
Hf6 S2 2.578702 1_555
Hf7 S24 2.478106 1_455
Hf7 S15 2.489349 1_555
Hf7 S20 2.503442 1_455
Hf7 S18 2.569082 1_445
Hf7 S10 2.575530 1_555
Hf7 S12 2.578702 1_545
S0 S3 2.102170 1_455
S1 S21 2.102170 1_555
S2 S5 2.102170 1_655
S12 S18 2.102170 1_455
S14 S7 2.102170 1_555
S17 S29 2.102170 1_555
S23 S8 2.102170 1_655
S25 S31 2.102170 1_555
