# generated using pymatgen
data_Sb2OsC4(OF3)4
_symmetry_space_group_name_H-M   'P 1'
_cell_length_a   9.00271500
_cell_length_b   10.67607900
_cell_length_c   16.34168800
_cell_angle_alpha   90.00000000
_cell_angle_beta   90.00000000
_cell_angle_gamma   90.00000000
_symmetry_Int_Tables_number   1
_chemical_formula_structural   Sb2OsC4(OF3)4
_chemical_formula_sum   'Sb8 Os4 C16 O16 F48'
_cell_volume   1570.66004162
_cell_formula_units_Z   4
loop_
 _symmetry_equiv_pos_site_id
 _symmetry_equiv_pos_as_xyz
  1  'x, y, z'
loop_
 _atom_site_type_symbol
 _atom_site_label
 _atom_site_symmetry_multiplicity
 _atom_site_fract_x
 _atom_site_fract_y
 _atom_site_fract_z
 _atom_site_occupancy
  Sb  Sb0  1  0.29597800  0.58880400  0.11332600  1
  Sb  Sb1  1  0.51768900  0.11679000  0.10658800  1
  Sb  Sb2  1  0.79597800  0.41119600  0.88667400  1
  Sb  Sb3  1  0.29597800  0.91119600  0.61332600  1
  Sb  Sb4  1  0.01768900  0.88321000  0.89341200  1
  Sb  Sb5  1  0.01768900  0.61679000  0.39341200  1
  Sb  Sb6  1  0.51768900  0.38321000  0.60658800  1
  Sb  Sb7  1  0.79597800  0.08880400  0.38667400  1
  Os  Os0  1  0.43340000  0.81559600  0.83355600  1
  Os  Os1  1  0.93340000  0.31559600  0.66644400  1
  Os  Os2  1  0.43340000  0.68440400  0.33355600  1
  Os  Os3  1  0.93340000  0.18440400  0.16644400  1
  C  C0  1  0.09838800  0.22479500  0.23387400  1
  C  C1  1  0.50533800  0.99298300  0.84324400  1
  C  C2  1  0.00533800  0.00701700  0.15675600  1
  C  C3  1  0.09838800  0.27520500  0.73387400  1
  C  C4  1  0.00533800  0.49298300  0.65675600  1
  C  C5  1  0.59838800  0.77520500  0.76612600  1
  C  C6  1  0.54188300  0.73604800  0.42767400  1
  C  C7  1  0.35029400  0.85665700  0.31964300  1
  C  C8  1  0.85029400  0.14334300  0.68035700  1
  C  C9  1  0.54188300  0.76395200  0.92767400  1
  C  C10  1  0.35029400  0.64334300  0.81964300  1
  C  C11  1  0.85029400  0.35665700  0.18035700  1
  C  C12  1  0.04188300  0.26395200  0.57232600  1
  C  C13  1  0.04188300  0.23604800  0.07232600  1
  C  C14  1  0.50533800  0.50701700  0.34324400  1
  C  C15  1  0.59838800  0.72479500  0.26612600  1
  O  O0  1  0.69755400  0.75296800  0.72444300  1
  O  O1  1  0.10507700  0.23291700  0.51486700  1
  O  O2  1  0.54188100  0.09519000  0.84435500  1
  O  O3  1  0.10507700  0.26708300  0.01486700  1
  O  O4  1  0.04188100  0.59519000  0.65564500  1
  O  O5  1  0.80388800  0.45507300  0.18966000  1
  O  O6  1  0.69755400  0.74703200  0.22444300  1
  O  O7  1  0.80388800  0.04492700  0.68966000  1
  O  O8  1  0.04188100  0.90481000  0.15564500  1
  O  O9  1  0.60507700  0.73291700  0.98513300  1
  O  O10  1  0.30388800  0.95507300  0.31034000  1
  O  O11  1  0.19755400  0.24703200  0.27555700  1
  O  O12  1  0.54188100  0.40481000  0.34435500  1
  O  O13  1  0.60507700  0.76708300  0.48513300  1
  O  O14  1  0.19755400  0.25296800  0.77555700  1
  O  O15  1  0.30388800  0.54492700  0.81034000  1
  F  F0  1  0.00430900  0.43385800  0.87044100  1
  F  F1  1  0.29398600  0.88274500  0.73831500  1
  F  F2  1  0.26764500  0.41549700  0.13715200  1
  F  F3  1  0.80781400  0.60077000  0.37930900  1
  F  F4  1  0.52614700  0.99829800  0.01922500  1
  F  F5  1  0.50239700  0.25336100  0.52818800  1
  F  F6  1  0.24476500  0.62926600  0.40564000  1
  F  F7  1  0.02614700  0.49829800  0.48077500  1
  F  F8  1  0.80684300  0.43179100  0.00208200  1
  F  F9  1  0.74476500  0.12926600  0.09436000  1
  F  F10  1  0.29398600  0.61725500  0.23831500  1
  F  F11  1  0.55358300  0.51581000  0.68207200  1
  F  F12  1  0.02614700  0.00170200  0.98077500  1
  F  F13  1  0.03944700  0.76216000  0.80856000  1
  F  F14  1  0.00239700  0.75336100  0.97181200  1
  F  F15  1  0.30781400  0.39923000  0.62069100  1
  F  F16  1  0.55358300  0.98419000  0.18207200  1
  F  F17  1  0.82541500  0.26545300  0.39291000  1
  F  F18  1  0.24476500  0.87073400  0.90564000  1
  F  F19  1  0.52614700  0.50170200  0.51922500  1
  F  F20  1  0.80781400  0.89923000  0.87930900  1
  F  F21  1  0.30684300  0.56820900  0.99791800  1
  F  F22  1  0.79398600  0.38274500  0.76168500  1
  F  F23  1  0.00239700  0.74663900  0.47181200  1
  F  F24  1  0.05358300  0.01581000  0.81792800  1
  F  F25  1  0.58705900  0.10878900  0.38142800  1
  F  F26  1  0.82541500  0.23454700  0.89291000  1
  F  F27  1  0.76764500  0.58450300  0.86284800  1
  F  F28  1  0.26764500  0.08450300  0.63715200  1
  F  F29  1  0.79398600  0.11725500  0.26168500  1
  F  F30  1  0.32541500  0.73454700  0.60709000  1
  F  F31  1  0.03944700  0.73784000  0.30856000  1
  F  F32  1  0.30781400  0.10077000  0.12069100  1
  F  F33  1  0.05358300  0.48419000  0.31792800  1
  F  F34  1  0.50239700  0.24663900  0.02818800  1
  F  F35  1  0.76764500  0.91549700  0.36284800  1
  F  F36  1  0.30684300  0.93179100  0.49791800  1
  F  F37  1  0.58705900  0.39121100  0.88142800  1
  F  F38  1  0.08705900  0.89121100  0.61857200  1
  F  F39  1  0.53944700  0.23784000  0.19144000  1
  F  F40  1  0.50430900  0.56614200  0.12955900  1
  F  F41  1  0.74476500  0.37073400  0.59436000  1
  F  F42  1  0.00430900  0.06614200  0.37044100  1
  F  F43  1  0.08705900  0.60878900  0.11857200  1
  F  F44  1  0.50430900  0.93385800  0.62955900  1
  F  F45  1  0.53944700  0.26216000  0.69144000  1
  F  F46  1  0.32541500  0.76545300  0.10709000  1
  F  F47  1  0.80684300  0.06820900  0.50208200  1
loop_
_geom_bond_atom_site_label_1
_geom_bond_atom_site_label_2
_geom_bond_distance
_geom_bond_site_symmetry_2
C0 O11 1.147772 1_555
C0 Os3 1.899055 1_455
C1 O2 1.139830 1_565
C1 Os0 2.007727 1_555
C2 O8 1.139830 1_545
C2 Os3 2.007727 1_455
C3 O14 1.147772 1_555
C3 Os1 1.899055 1_455
C4 O4 1.139830 1_555
C4 Os1 2.007727 1_455
C5 O0 1.147772 1_555
C5 Os0 1.899055 1_555
C6 O13 1.146789 1_555
C6 Os2 1.903526 1_555
C7 O10 1.140884 1_555
C7 Os2 1.998334 1_555
C8 O7 1.140884 1_555
C8 Os1 1.998334 1_555
C9 O9 1.146789 1_555
C9 Os0 1.903526 1_555
C10 O15 1.140884 1_555
C10 Os0 1.998334 1_555
C11 O5 1.140884 1_555
C11 Os3 1.998334 1_555
C12 O1 1.146789 1_555
C12 Os1 1.903526 1_455
C13 O3 1.146789 1_555
C13 Os3 1.903526 1_455
C14 O12 1.139830 1_555
C14 Os2 2.007727 1_555
C15 O6 1.147772 1_555
C15 Os2 1.899055 1_555
F0 Sb2 1.909600 1_455
F1 Sb3 2.065071 1_555
F1 Os0 2.124051 1_555
F2 Sb0 1.907891 1_555
F3 Sb5 1.911117 1_655
F4 Sb1 1.909007 1_565
F5 Sb6 1.892660 1_555
F6 Sb5 2.058358 1_555
F6 Os2 2.148980 1_555
F7 Sb5 1.909007 1_555
F8 Sb2 1.901253 1_554
F9 Sb1 2.058358 1_555
F9 Os3 2.148980 1_555
F10 Sb0 2.065071 1_555
F10 Os2 2.124051 1_555
F11 Sb6 1.905280 1_555
F12 Sb4 1.909007 1_545
F13 Sb4 1.905581 1_555
F14 Sb4 1.892660 1_555
F15 Sb6 1.911117 1_555
F16 Sb1 1.905280 1_565
F17 Sb7 1.907172 1_555
F18 Sb4 2.058358 1_555
F18 Os0 2.148980 1_555
F19 Sb6 1.909007 1_555
F20 Sb4 1.911117 1_655
F21 Sb0 1.901253 1_556
F22 Sb2 2.065071 1_555
F22 Os1 2.124051 1_555
F23 Sb5 1.892660 1_555
F24 Sb4 1.905280 1_545
F25 Sb7 1.894842 1_555
F26 Sb2 1.907172 1_555
F27 Sb2 1.907891 1_555
F28 Sb3 1.907891 1_545
F29 Sb7 2.065071 1_555
F29 Os3 2.124051 1_555
F30 Sb3 1.907172 1_555
F31 Sb5 1.905581 1_555
F32 Sb1 1.911117 1_555
F33 Sb5 1.905280 1_555
F34 Sb1 1.892660 1_555
F35 Sb7 1.907891 1_565
F36 Sb3 1.901253 1_555
F37 Sb2 1.894842 1_555
F38 Sb3 1.894842 1_555
F39 Sb1 1.905581 1_555
F40 Sb0 1.909600 1_555
F41 Sb6 2.058358 1_555
F41 Os1 2.148980 1_555
F42 Sb7 1.909600 1_455
F43 Sb0 1.894842 1_555
F44 Sb3 1.909600 1_555
F45 Sb6 1.905581 1_555
F46 Sb0 1.907172 1_555
F47 Sb7 1.901253 1_555
