# generated using pymatgen
data_Tb3CuSiSe7
_symmetry_space_group_name_H-M   'P 1'
_cell_length_a   10.32302365
_cell_length_b   10.32302365
_cell_length_c   6.02065597
_cell_angle_alpha   90.00000000
_cell_angle_beta   90.00000000
_cell_angle_gamma   119.99999814
_symmetry_Int_Tables_number   1
_chemical_formula_structural   Tb3CuSiSe7
_chemical_formula_sum   'Tb6 Cu2 Si2 Se14'
_cell_volume   555.63333865
_cell_formula_units_Z   2
loop_
 _symmetry_equiv_pos_site_id
 _symmetry_equiv_pos_as_xyz
  1  'x, y, z'
loop_
 _atom_site_type_symbol
 _atom_site_label
 _atom_site_symmetry_multiplicity
 _atom_site_fract_x
 _atom_site_fract_y
 _atom_site_fract_z
 _atom_site_occupancy
  Tb  Tb0  1  0.13312122  0.35631758  0.74058896  1
  Tb  Tb1  1  0.64368242  0.77680363  0.74058896  1
  Tb  Tb2  1  0.22319637  0.86687878  0.74058896  1
  Tb  Tb3  1  0.77680363  0.13312122  0.24058896  1
  Tb  Tb4  1  0.86687878  0.64368242  0.24058896  1
  Tb  Tb5  1  0.35631758  0.22319637  0.24058896  1
  Cu  Cu0  1  -0.00000000  -0.00000000  0.19335255  1
  Cu  Cu1  1  -0.00000000  -0.00000000  0.69335255  1
  Si  Si0  1  0.66666700  0.33333300  0.83044175  1
  Si  Si1  1  0.33333300  0.66666700  0.33044175  1
  Se  Se0  1  0.66666700  0.33333300  0.45651904  1
  Se  Se1  1  0.83933061  0.09901653  0.70825295  1
  Se  Se2  1  0.16066939  0.90098347  0.20825295  1
  Se  Se3  1  0.89850519  0.42096241  0.98285331  1
  Se  Se4  1  0.90098347  0.74031408  0.70825295  1
  Se  Se5  1  0.52245722  0.10149481  0.98285331  1
  Se  Se6  1  0.33333300  0.66666700  0.95651904  1
  Se  Se7  1  0.25968592  0.16066939  0.70825295  1
  Se  Se8  1  0.09901653  0.25968592  0.20825295  1
  Se  Se9  1  0.74031408  0.83933061  0.20825295  1
  Se  Se10  1  0.47754278  0.89850519  0.48285331  1
  Se  Se11  1  0.42096241  0.52245722  0.48285331  1
  Se  Se12  1  0.57903759  0.47754278  0.98285331  1
  Se  Se13  1  0.10149481  0.57903759  0.48285331  1
loop_
_geom_bond_atom_site_label_1
_geom_bond_atom_site_label_2
_geom_bond_distance
_geom_bond_site_symmetry_2
Cu0 Se2 2.345017 1_545
Cu0 Se8 2.345017 1_555
Cu0 Se9 2.345017 1_445
Cu0 Tb4 3.231766 1_445
Cu0 Tb3 3.231766 1_455
Cu0 Tb5 3.231766 1_555
Cu1 Se1 2.345017 1_455
Cu1 Se4 2.345017 1_445
Cu1 Se7 2.345017 1_555
Cu1 Tb0 3.231766 1_555
Cu1 Tb2 3.231766 1_545
Cu1 Tb1 3.231766 1_445
Se0 Si0 2.251260 1_555
Se0 Tb3 3.099063 1_555
Se0 Tb4 3.099071 1_555
Se0 Tb5 3.099072 1_555
Se1 Tb0 2.869722 1_655
Se1 Tb1 2.909091 1_545
Se1 Tb3 2.948843 1_555
Se1 Tb3 3.322638 1_556
Se2 Tb4 2.869722 1_455
Se2 Tb5 2.909091 1_565
Se2 Tb2 2.948843 1_554
Se2 Tb2 3.322638 1_555
Se3 Si0 2.285414 1_555
Se3 Tb4 2.924238 1_556
Se3 Tb3 3.013698 1_556
Se3 Tb0 3.170943 1_655
Se4 Tb1 2.869722 1_555
Se4 Tb2 2.909091 1_655
Se4 Tb4 2.948843 1_555
Se4 Tb4 3.322638 1_556
Se5 Si0 2.285415 1_555
Se5 Tb3 2.924238 1_556
Se5 Tb5 3.013698 1_556
Se5 Tb2 3.170943 1_545
Se6 Si1 2.251260 1_556
Se6 Tb2 3.099063 1_555
Se6 Tb0 3.099071 1_555
Se6 Tb1 3.099072 1_555
Se7 Tb2 2.869722 1_545
Se7 Tb0 2.909091 1_555
Se7 Tb5 2.948843 1_555
Se7 Tb5 3.322638 1_556
Se8 Tb5 2.869722 1_555
Se8 Tb3 2.909091 1_455
Se8 Tb0 2.948843 1_554
Se8 Tb0 3.322638 1_555
Se9 Tb3 2.869722 1_565
Se9 Tb4 2.909091 1_555
Se9 Tb1 2.948843 1_554
Se9 Tb1 3.322638 1_555
Se10 Si1 2.285415 1_555
Se10 Tb2 2.924238 1_555
Se10 Tb1 3.013698 1_555
Se10 Tb3 3.170943 1_565
Se11 Si1 2.285423 1_555
Se11 Tb1 2.924238 1_555
Se11 Tb0 3.013698 1_555
Se11 Tb5 3.170943 1_555
Se12 Si0 2.285423 1_555
Se12 Tb5 2.924238 1_556
Se12 Tb4 3.013698 1_556
Se12 Tb1 3.170943 1_555
Se13 Si1 2.285414 1_555
Se13 Tb0 2.924238 1_555
Se13 Tb2 3.013698 1_555
Se13 Tb4 3.170943 1_455
