# generated using pymatgen
data_Sr3Fe2(SeO3)6
_symmetry_space_group_name_H-M   'P 1'
_cell_length_a   14.35921045
_cell_length_b   14.35921045
_cell_length_c   14.35921042
_cell_angle_alpha   36.19376963
_cell_angle_beta   36.19376963
_cell_angle_gamma   36.19376840
_symmetry_Int_Tables_number   1
_chemical_formula_structural   Sr3Fe2(SeO3)6
_chemical_formula_sum   'Sr6 Fe4 Se12 O36'
_cell_volume   923.74190615
_cell_formula_units_Z   2
loop_
 _symmetry_equiv_pos_site_id
 _symmetry_equiv_pos_as_xyz
  1  'x, y, z'
loop_
 _atom_site_type_symbol
 _atom_site_label
 _atom_site_symmetry_multiplicity
 _atom_site_fract_x
 _atom_site_fract_y
 _atom_site_fract_z
 _atom_site_occupancy
  Sr  Sr0  1  0.83834600  0.66165400  0.25000000  1
  Sr  Sr1  1  0.25000000  0.83834600  0.66165400  1
  Sr  Sr2  1  0.16165400  0.33834600  0.75000000  1
  Sr  Sr3  1  0.75000000  0.16165400  0.33834600  1
  Sr  Sr4  1  0.33834600  0.75000000  0.16165400  1
  Sr  Sr5  1  0.66165400  0.25000000  0.83834600  1
  Fe  Fe0  1  0.50000000  0.50000000  0.50000000  1
  Fe  Fe1  1  0.00000000  0.00000000  0.00000000  1
  Fe  Fe2  1  0.25000000  0.25000000  0.25000000  1
  Fe  Fe3  1  0.75000000  0.75000000  0.75000000  1
  Se  Se0  1  0.91204400  0.19339600  0.48299700  1
  Se  Se1  1  0.80660400  0.51700300  0.08795600  1
  Se  Se2  1  0.01700300  0.30660400  0.58795600  1
  Se  Se3  1  0.19339600  0.48299700  0.91204400  1
  Se  Se4  1  0.58795600  0.01700300  0.30660400  1
  Se  Se5  1  0.48299700  0.91204400  0.19339600  1
  Se  Se6  1  0.98299700  0.69339600  0.41204400  1
  Se  Se7  1  0.51700300  0.08795600  0.80660400  1
  Se  Se8  1  0.69339600  0.41204400  0.98299700  1
  Se  Se9  1  0.08795600  0.80660400  0.51700300  1
  Se  Se10  1  0.41204400  0.98299700  0.69339600  1
  Se  Se11  1  0.30660400  0.58795600  0.01700300  1
  O  O0  1  0.55131800  0.84664000  0.43717800  1
  O  O1  1  0.66245300  0.68356300  0.99462400  1
  O  O2  1  0.15336000  0.56282200  0.44868200  1
  O  O3  1  0.93717800  0.34664000  0.05131800  1
  O  O4  1  0.33289600  0.57233200  0.68801100  1
  O  O5  1  0.81198900  0.92766800  0.16710400  1
  O  O6  1  0.06282200  0.65336000  0.94868200  1
  O  O7  1  0.00537600  0.33754700  0.31643700  1
  O  O8  1  0.94868200  0.06282200  0.65336000  1
  O  O9  1  0.07233200  0.83289600  0.18801100  1
  O  O10  1  0.81643700  0.83754700  0.50537600  1
  O  O11  1  0.16245300  0.49462400  0.18356300  1
  O  O12  1  0.31198900  0.66710400  0.42766800  1
  O  O13  1  0.99462400  0.66245300  0.68356300  1
  O  O14  1  0.68801100  0.33289600  0.57233200  1
  O  O15  1  0.50537600  0.81643700  0.83754700  1
  O  O16  1  0.44868200  0.15336000  0.56282200  1
  O  O17  1  0.57233200  0.68801100  0.33289600  1
  O  O18  1  0.66710400  0.42766800  0.31198900  1
  O  O19  1  0.84664000  0.43717800  0.55131800  1
  O  O20  1  0.05131800  0.93717800  0.34664000  1
  O  O21  1  0.31643700  0.00537600  0.33754700  1
  O  O22  1  0.56282200  0.44868200  0.15336000  1
  O  O23  1  0.34664000  0.05131800  0.93717800  1
  O  O24  1  0.18356300  0.16245300  0.49462400  1
  O  O25  1  0.49462400  0.18356300  0.16245300  1
  O  O26  1  0.33754700  0.31643700  0.00537600  1
  O  O27  1  0.92766800  0.16710400  0.81198900  1
  O  O28  1  0.43717800  0.55131800  0.84664000  1
  O  O29  1  0.83289600  0.18801100  0.07233200  1
  O  O30  1  0.65336000  0.94868200  0.06282200  1
  O  O31  1  0.18801100  0.07233200  0.83289600  1
  O  O32  1  0.83754700  0.50537600  0.81643700  1
  O  O33  1  0.68356300  0.99462400  0.66245300  1
  O  O34  1  0.16710400  0.81198900  0.92766800  1
  O  O35  1  0.42766800  0.31198900  0.66710400  1
loop_
_geom_bond_atom_site_label_1
_geom_bond_atom_site_label_2
_geom_bond_distance
_geom_bond_site_symmetry_2
Fe0 O12 2.042616 1_555
Fe0 O14 2.042616 1_555
Fe0 O18 2.042616 1_555
Fe0 O4 2.042616 1_555
Fe0 O35 2.042616 1_555
Fe0 O17 2.042616 1_555
Fe1 O29 2.042616 1_455
Fe1 O34 2.042616 1_544
Fe1 O9 2.042616 1_545
Fe1 O27 2.042616 1_454
Fe1 O31 2.042616 1_554
Fe1 O5 2.042616 1_445
Fe2 O11 2.056370 1_555
Fe2 O7 2.056370 1_555
Fe2 O21 2.056370 1_555
Fe2 O25 2.056370 1_555
Fe2 O24 2.056370 1_555
Fe2 O26 2.056370 1_555
Fe3 O13 2.056370 1_555
Fe3 O32 2.056370 1_555
Fe3 O15 2.056370 1_555
Fe3 O33 2.056370 1_555
Fe3 O1 2.056370 1_555
Fe3 O10 2.056370 1_555
O0 Se4 1.690727 1_565
O0 Sr1 2.612720 1_555
O0 Sr0 2.690669 1_555
O1 Se1 1.764716 1_556
O1 Sr4 2.613888 1_556
O2 Se6 1.690727 1_455
O2 Sr2 2.612720 1_555
O2 Sr4 2.690669 1_555
O3 Se1 1.690727 1_555
O3 Sr2 2.612720 1_654
O3 Sr3 2.690669 1_555
O4 Se3 1.758616 1_555
O4 Sr1 2.684350 1_555
O5 Se4 1.758616 1_565
O5 Sr0 2.684350 1_555
O6 Se3 1.690727 1_555
O6 Sr0 2.612720 1_456
O6 Sr1 2.690669 1_555
O7 Se0 1.764716 1_455
O7 Sr0 2.613888 1_455
O8 Se0 1.690727 1_555
O8 Sr1 2.612720 1_645
O8 Sr5 2.690669 1_555
O9 Se6 1.758616 1_455
O9 Sr4 2.684350 1_555
O10 Se6 1.764716 1_555
O10 Sr3 2.613888 1_565
O11 Se11 1.764716 1_555
O11 Sr0 2.613888 1_455
O12 Se9 1.758616 1_555
O12 Sr4 2.684350 1_555
O13 Se9 1.764716 1_655
O13 Sr2 2.613888 1_655
O14 Se0 1.758616 1_555
O14 Sr5 2.684350 1_555
O15 Se10 1.764716 1_555
O15 Sr4 2.613888 1_556
O16 Se10 1.690727 1_545
O16 Sr3 2.612720 1_555
O16 Sr2 2.690669 1_555
O17 Se5 1.758616 1_555
O17 Sr0 2.684350 1_555
O18 Se1 1.758616 1_555
O18 Sr3 2.684350 1_555
O19 Se2 1.690727 1_655
O19 Sr0 2.612720 1_555
O19 Sr5 2.690669 1_555
O20 Se9 1.690727 1_555
O20 Sr3 2.612720 1_465
O20 Sr4 2.690669 1_555
O21 Se5 1.764716 1_545
O21 Sr1 2.613888 1_545
O22 Se8 1.690727 1_554
O22 Sr4 2.612720 1_555
O22 Sr3 2.690669 1_555
O23 Se7 1.690727 1_555
O23 Sr4 2.612720 1_546
O23 Sr2 2.690669 1_555
O24 Se2 1.764716 1_555
O24 Sr1 2.613888 1_545
O25 Se4 1.764716 1_555
O25 Sr5 2.613888 1_554
O26 Se3 1.764716 1_554
O26 Sr5 2.613888 1_554
O27 Se2 1.758616 1_655
O27 Sr5 2.684350 1_555
O28 Se11 1.690727 1_556
O28 Sr5 2.612720 1_555
O28 Sr1 2.690669 1_555
O29 Se8 1.758616 1_554
O29 Sr3 2.684350 1_555
O30 Se5 1.690727 1_555
O30 Sr5 2.612720 1_564
O30 Sr0 2.690669 1_555
O31 Se10 1.758616 1_545
O31 Sr2 2.684350 1_555
O32 Se8 1.764716 1_555
O32 Sr2 2.613888 1_655
O33 Se7 1.764716 1_565
O33 Sr3 2.613888 1_565
O34 Se11 1.758616 1_556
O34 Sr1 2.684350 1_555
O35 Se7 1.758616 1_555
O35 Sr2 2.684350 1_555
