# generated using pymatgen
data_Nb3As
_symmetry_space_group_name_H-M   'P 1'
_cell_length_a   5.24691737
_cell_length_b   10.34645639
_cell_length_c   10.34645639
_cell_angle_alpha   90.00000000
_cell_angle_beta   90.00000000
_cell_angle_gamma   90.00000000
_symmetry_Int_Tables_number   1
_chemical_formula_structural   Nb3As
_chemical_formula_sum   'Nb24 As8'
_cell_volume   561.67809579
_cell_formula_units_Z   8
loop_
 _symmetry_equiv_pos_site_id
 _symmetry_equiv_pos_as_xyz
  1  'x, y, z'
loop_
 _atom_site_type_symbol
 _atom_site_label
 _atom_site_symmetry_multiplicity
 _atom_site_fract_x
 _atom_site_fract_y
 _atom_site_fract_z
 _atom_site_occupancy
  Nb  Nb0  1  0.72651577  0.16542370  0.65580456  1
  Nb  Nb1  1  0.22651577  0.34419544  0.66542270  1
  Nb  Nb2  1  0.22651577  0.15580456  0.83457730  1
  Nb  Nb3  1  0.72651577  0.33457730  0.84419544  1
  Nb  Nb4  1  0.27348423  0.83457730  0.34419544  1
  Nb  Nb5  1  0.77348423  0.65580456  0.33457730  1
  Nb  Nb6  1  0.77348423  0.84419544  0.16542370  1
  Nb  Nb7  1  0.27348423  0.66542270  0.15580456  1
  Nb  Nb8  1  0.51942216  0.10121829  0.26175775  1
  Nb  Nb9  1  0.01942216  0.73824225  0.60121729  1
  Nb  Nb10  1  0.01942216  0.76175775  0.89878271  1
  Nb  Nb11  1  0.51942216  0.39878271  0.23824225  1
  Nb  Nb12  1  0.48057784  0.89878271  0.73824225  1
  Nb  Nb13  1  0.98057784  0.26175775  0.39878271  1
  Nb  Nb14  1  0.98057784  0.23824225  0.10121829  1
  Nb  Nb15  1  0.48057784  0.60121729  0.76175775  1
  Nb  Nb16  1  0.23955310  0.05630208  0.53631601  1
  Nb  Nb17  1  0.73955310  0.46368399  0.55630208  1
  Nb  Nb18  1  0.73955310  0.03631601  0.94369792  1
  Nb  Nb19  1  0.23955310  0.44369792  0.96368399  1
  Nb  Nb20  1  0.76044690  0.94369792  0.46368399  1
  Nb  Nb21  1  0.26044590  0.53631601  0.44369792  1
  Nb  Nb22  1  0.26044590  0.96368399  0.05630208  1
  Nb  Nb23  1  0.76044690  0.55630208  0.03631601  1
  As  As0  1  0.02103156  0.04343575  0.27170575  1
  As  As1  1  0.52103156  0.72829425  0.54343575  1
  As  As2  1  0.52103156  0.77170575  0.95656425  1
  As  As3  1  0.02103156  0.45656425  0.22829425  1
  As  As4  1  0.97896844  0.95656425  0.72829425  1
  As  As5  1  0.47896844  0.27170575  0.45656425  1
  As  As6  1  0.47896844  0.22829425  0.04343575  1
  As  As7  1  0.97896844  0.54343575  0.77170575  1
loop_
_geom_bond_atom_site_label_1
_geom_bond_atom_site_label_2
_geom_bond_distance
_geom_bond_site_symmetry_2
As0 Nb13 2.622248 1_455
As0 Nb20 2.622912 1_445
As0 Nb4 2.643248 1_545
As0 Nb6 2.673154 1_445
As0 Nb8 2.684457 1_555
As0 Nb14 2.686822 1_455
As0 Nb22 2.688089 1_545
As0 Nb8 2.700912 1_455
As0 Nb16 2.971155 1_555
As1 Nb15 2.622248 1_555
As1 Nb21 2.622915 1_555
As1 Nb5 2.643248 1_555
As1 Nb4 2.673158 1_555
As1 Nb9 2.684455 1_655
As1 Nb12 2.686829 1_555
As1 Nb20 2.688091 1_555
As1 Nb9 2.700910 1_555
As1 Nb17 2.971155 1_555
As2 Nb12 2.622248 1_555
As2 Nb22 2.622915 1_556
As2 Nb6 2.643257 1_556
As2 Nb7 2.673158 1_556
As2 Nb10 2.684455 1_655
As2 Nb15 2.686829 1_555
As2 Nb23 2.688091 1_556
As2 Nb10 2.700910 1_555
As2 Nb18 2.971155 1_565
As3 Nb14 2.622243 1_455
As3 Nb23 2.622912 1_455
As3 Nb7 2.643248 1_555
As3 Nb5 2.673158 1_455
As3 Nb11 2.684455 1_555
As3 Nb13 2.686829 1_455
As3 Nb21 2.688089 1_555
As3 Nb11 2.700910 1_455
As3 Nb19 2.971155 1_554
As4 Nb9 2.622248 1_655
As4 Nb16 2.622912 1_665
As4 Nb0 2.643257 1_565
As4 Nb2 2.673158 1_665
As4 Nb12 2.684455 1_555
As4 Nb10 2.686829 1_655
As4 Nb18 2.688091 1_565
As4 Nb12 2.700910 1_655
As4 Nb20 2.971155 1_555
As5 Nb11 2.622248 1_555
As5 Nb17 2.622912 1_555
As5 Nb1 2.643248 1_555
As5 Nb0 2.673154 1_555
As5 Nb13 2.684455 1_455
As5 Nb8 2.686822 1_555
As5 Nb16 2.688091 1_555
As5 Nb13 2.700910 1_555
As5 Nb21 2.971157 1_555
As6 Nb8 2.622243 1_555
As6 Nb18 2.622912 1_554
As6 Nb2 2.643248 1_554
As6 Nb3 2.673158 1_554
As6 Nb14 2.684457 1_455
As6 Nb11 2.686829 1_555
As6 Nb19 2.688091 1_554
As6 Nb14 2.700912 1_555
As6 Nb22 2.971157 1_545
As7 Nb10 2.622248 1_655
As7 Nb19 2.622912 1_655
As7 Nb3 2.643248 1_555
As7 Nb1 2.673158 1_655
As7 Nb15 2.684455 1_555
As7 Nb9 2.686829 1_655
As7 Nb17 2.688091 1_555
As7 Nb15 2.700910 1_655
As7 Nb23 2.971155 1_556
