# generated using pymatgen
data_ErGe3
_symmetry_space_group_name_H-M   'P 1'
_cell_length_a   3.87459034
_cell_length_b   3.99284480
_cell_length_c   10.57665956
_cell_angle_alpha   100.88027326
_cell_angle_beta   90.00000000
_cell_angle_gamma   90.00000000
_symmetry_Int_Tables_number   1
_chemical_formula_structural   ErGe3
_chemical_formula_sum   'Er2 Ge6'
_cell_volume   160.68626001
_cell_formula_units_Z   2
loop_
 _symmetry_equiv_pos_site_id
 _symmetry_equiv_pos_as_xyz
  1  'x, y, z'
loop_
 _atom_site_type_symbol
 _atom_site_label
 _atom_site_symmetry_multiplicity
 _atom_site_fract_x
 _atom_site_fract_y
 _atom_site_fract_z
 _atom_site_occupancy
  Er  Er0  1  0.25000000  0.58318556  0.16637012  1
  Er  Er1  1  0.75000000  0.41681444  0.83362988  1
  Ge  Ge0  1  0.25000000  0.18943866  0.37887632  1
  Ge  Ge1  1  0.75000000  0.81056134  0.62112368  1
  Ge  Ge2  1  0.75000000  0.03890064  0.07780128  1
  Ge  Ge3  1  0.25000000  0.96109936  0.92219872  1
  Ge  Ge4  1  0.75000000  0.69146176  0.38292351  1
  Ge  Ge5  1  0.25000000  0.30853824  0.61707649  1
loop_
_geom_bond_atom_site_label_1
_geom_bond_atom_site_label_2
_geom_bond_distance
_geom_bond_site_symmetry_2
Er0 Ge2 2.930028 1_565
Er0 Ge2 2.930028 1_465
Er0 Ge2 2.930031 1_555
Er0 Ge2 2.930031 1_455
Er0 Ge4 2.968533 1_455
Er0 Ge4 2.968533 1_555
Er0 Ge0 2.976146 1_555
Er0 Ge0 2.976146 1_565
Er0 Ge3 3.227610 1_554
Er0 Ge3 3.227612 1_544
Er1 Ge3 2.930028 1_545
Er1 Ge3 2.930028 1_645
Er1 Ge3 2.930031 1_555
Er1 Ge3 2.930031 1_655
Er1 Ge5 2.968533 1_555
Er1 Ge5 2.968533 1_655
Er1 Ge1 2.976146 1_555
Er1 Ge1 2.976146 1_545
Er1 Ge2 3.227610 1_556
Er1 Ge2 3.227612 1_566
Ge0 Ge5 2.474073 1_555
Ge0 Ge4 2.782189 1_455
Ge0 Ge4 2.782189 1_555
Ge0 Ge4 2.782192 1_445
Ge0 Ge4 2.782192 1_545
Ge1 Ge4 2.474073 1_555
Ge1 Ge5 2.782189 1_655
Ge1 Ge5 2.782189 1_555
Ge1 Ge5 2.782192 1_665
Ge1 Ge5 2.782192 1_565
Ge2 Ge3 2.522919 1_544
Ge2 Ge3 2.522919 1_644
