# generated using pymatgen
data_K4CO4
_symmetry_space_group_name_H-M   'P 1'
_cell_length_a   5.47210378
_cell_length_b   5.47210378
_cell_length_c   5.47210374
_cell_angle_alpha   84.59483911
_cell_angle_beta   84.59483911
_cell_angle_gamma   84.59483815
_symmetry_Int_Tables_number   1
_chemical_formula_structural   K4CO4
_chemical_formula_sum   'K4 C1 O4'
_cell_volume   161.79937483
_cell_formula_units_Z   1
loop_
 _symmetry_equiv_pos_site_id
 _symmetry_equiv_pos_as_xyz
  1  'x, y, z'
loop_
 _atom_site_type_symbol
 _atom_site_label
 _atom_site_symmetry_multiplicity
 _atom_site_fract_x
 _atom_site_fract_y
 _atom_site_fract_z
 _atom_site_occupancy
  K  K0  1  0.60941300  0.16191000  0.60941300  1
  K  K1  1  0.60941300  0.60941300  0.16191000  1
  K  K2  1  0.16191000  0.60941300  0.60941300  1
  K  K3  1  0.18429200  0.18429200  0.18429200  1
  C  C0  1  0.92611200  0.92611200  0.92611200  1
  O  O0  1  0.07882500  0.75570000  0.07882500  1
  O  O1  1  0.78715100  0.78715100  0.78715100  1
  O  O2  1  0.07882500  0.07882500  0.75570000  1
  O  O3  1  0.75570000  0.07882500  0.07882500  1
loop_
_geom_bond_atom_site_label_1
_geom_bond_atom_site_label_2
_geom_bond_distance
_geom_bond_site_symmetry_2
K0 O1 2.350329 1_545
K0 O3 2.746702 1_556
K0 O2 2.746702 1_655
K0 O3 3.003278 1_555
K0 O2 3.003278 1_555
K1 O1 2.350329 1_554
K1 O0 2.746702 1_655
K1 O3 2.746702 1_565
K1 O3 3.003278 1_555
K1 O0 3.003278 1_555
K2 O1 2.350329 1_455
K2 O0 2.746702 1_556
K2 O2 2.746702 1_565
K2 O0 3.003278 1_555
K2 O2 3.003278 1_555
K3 O2 2.596022 1_554
K3 O3 2.596022 1_455
K3 O0 2.596022 1_545
K3 O2 3.134622 1_555
K3 O3 3.134622 1_555
K3 O0 3.134622 1_555
C0 O1 1.435782 1_555
C0 O0 1.450579 1_656
C0 O3 1.450579 1_566
C0 O2 1.450579 1_665
