# generated using pymatgen
data_Sr3Ca6V7BiO28
_symmetry_space_group_name_H-M   'P 1'
_cell_length_a   11.14276668
_cell_length_b   11.14276668
_cell_length_c   14.39770686
_cell_angle_alpha   67.41620941
_cell_angle_beta   67.41620941
_cell_angle_gamma   60.07560579
_symmetry_Int_Tables_number   1
_chemical_formula_structural   Sr3Ca6V7BiO28
_chemical_formula_sum   'Sr6 Ca12 V14 Bi2 O56'
_cell_volume   1388.52645743
_cell_formula_units_Z   2
loop_
 _symmetry_equiv_pos_site_id
 _symmetry_equiv_pos_as_xyz
  1  'x, y, z'
loop_
 _atom_site_type_symbol
 _atom_site_label
 _atom_site_symmetry_multiplicity
 _atom_site_fract_x
 _atom_site_fract_y
 _atom_site_fract_z
 _atom_site_occupancy
  Sr  Sr0  1  0.55417000  0.46896500  0.02083100  1
  Sr  Sr1  1  0.95532200  0.05554500  0.01987000  1
  Sr  Sr2  1  0.97032900  0.45280900  0.01653900  1
  Sr  Sr3  1  0.05554500  0.95532200  0.51987000  1
  Sr  Sr4  1  0.45280900  0.97032900  0.51653900  1
  Sr  Sr5  1  0.46896500  0.55417000  0.52083100  1
  Ca  Ca0  1  0.50171800  0.00510300  0.99846300  1
  Ca  Ca1  1  0.56620300  0.07599400  0.20176800  1
  Ca  Ca2  1  0.56818000  0.66188700  0.20025600  1
  Ca  Ca3  1  0.15828200  0.06437200  0.20088300  1
  Ca  Ca4  1  0.66188700  0.56818000  0.70025600  1
  Ca  Ca5  1  0.06437200  0.15828200  0.70088300  1
  Ca  Ca6  1  0.07599400  0.56620300  0.70176800  1
  Ca  Ca7  1  0.00510300  0.50171800  0.49846300  1
  Ca  Ca8  1  0.94523600  0.84868200  0.29652000  1
  Ca  Ca9  1  0.34920800  0.41476900  0.29671700  1
  Ca  Ca10  1  0.84868200  0.94523600  0.79652000  1
  Ca  Ca11  1  0.41476900  0.34920800  0.79671700  1
  V  V0  1  0.76958400  0.26793200  0.19466000  1
  V  V1  1  0.69208900  0.22076000  0.89687300  1
  V  V2  1  0.71977100  0.69300700  0.89657500  1
  V  V3  1  0.19248000  0.19029200  0.89649600  1
  V  V4  1  0.77938500  0.30741900  0.59580000  1
  V  V5  1  0.80869100  0.81473100  0.59844900  1
  V  V6  1  0.69300700  0.71977100  0.39657500  1
  V  V7  1  0.31563500  0.27844300  0.59798300  1
  V  V8  1  0.19029200  0.19248000  0.39649600  1
  V  V9  1  0.22076000  0.69208900  0.39687300  1
  V  V10  1  0.81473100  0.80869100  0.09844900  1
  V  V11  1  0.27844300  0.31563500  0.09798300  1
  V  V12  1  0.30741900  0.77938500  0.09580000  1
  V  V13  1  0.26793200  0.76958400  0.69466000  1
  Bi  Bi0  1  0.90846800  0.44363000  0.29279700  1
  Bi  Bi1  1  0.44363000  0.90846800  0.79279700  1
  O  O0  1  0.60188000  0.26976500  0.23022200  1
  O  O1  1  0.77279700  0.40281800  0.22985700  1
  O  O2  1  0.90046700  0.10100000  0.22957000  1
  O  O3  1  0.66582200  0.18318300  0.02932500  1
  O  O4  1  0.68407000  0.62013300  0.02812400  1
  O  O5  1  0.81299800  0.31338700  0.06076000  1
  O  O6  1  0.61898600  0.14077700  0.86508100  1
  O  O7  1  0.64018000  0.87826500  0.86710200  1
  O  O8  1  0.64450300  0.64356200  0.83990300  1
  O  O9  1  0.60507900  0.40327800  0.85506500  1
  O  O10  1  0.12129600  0.16649600  0.02838000  1
  O  O11  1  0.87319700  0.15120500  0.84379800  1
  O  O12  1  0.90140000  0.63826600  0.85399800  1
  O  O13  1  0.60432100  0.39723200  0.66012800  1
  O  O14  1  0.13099100  0.37069000  0.84300400  1
  O  O15  1  0.62132100  0.88585000  0.64161100  1
  O  O16  1  0.14496900  0.09746500  0.85438800  1
  O  O17  1  0.37785900  0.11937700  0.86563300  1
  O  O18  1  0.85412000  0.12514500  0.63954000  1
  O  O19  1  0.89824600  0.84022000  0.65966500  1
  O  O20  1  0.62013300  0.68407000  0.52812400  1
  O  O21  1  0.87520200  0.37195500  0.62074400  1
  O  O22  1  0.87006200  0.63018400  0.62676300  1
  O  O23  1  0.13078300  0.37166600  0.62758500  1
  O  O24  1  0.78315200  0.35960100  0.46603300  1
  O  O25  1  0.85960000  0.87876200  0.46908000  1
  O  O26  1  0.64356200  0.64450300  0.33990300  1
  O  O27  1  0.34178400  0.09771900  0.65996500  1
  O  O28  1  0.63826600  0.90140000  0.35399800  1
  O  O29  1  0.38331800  0.35196600  0.63985200  1
  O  O30  1  0.16649600  0.12129600  0.52838000  1
  O  O31  1  0.18318300  0.66582200  0.52932500  1
  O  O32  1  0.87826500  0.64018000  0.36710200  1
  O  O33  1  0.11937700  0.37785900  0.36563300  1
  O  O34  1  0.14077700  0.61898600  0.36508100  1
  O  O35  1  0.37733100  0.29180900  0.46844100  1
  O  O36  1  0.15120500  0.87319700  0.34379800  1
  O  O37  1  0.09746500  0.14496900  0.35438800  1
  O  O38  1  0.63018400  0.87006200  0.12676300  1
  O  O39  1  0.84022000  0.89824600  0.15966500  1
  O  O40  1  0.37069000  0.13099100  0.34300400  1
  O  O41  1  0.88585000  0.62132100  0.14161100  1
  O  O42  1  0.40327800  0.60507900  0.35506500  1
  O  O43  1  0.09771900  0.34178400  0.15996500  1
  O  O44  1  0.12514500  0.85412000  0.13954000  1
  O  O45  1  0.87876200  0.85960000  0.96908000  1
  O  O46  1  0.35196600  0.38331800  0.13985200  1
  O  O47  1  0.39723200  0.60432100  0.16012800  1
  O  O48  1  0.37166600  0.13078300  0.12758500  1
  O  O49  1  0.37195500  0.87520200  0.12074400  1
  O  O50  1  0.29180900  0.37733100  0.96844100  1
  O  O51  1  0.35960100  0.78315200  0.96603300  1
  O  O52  1  0.10100000  0.90046700  0.72957000  1
  O  O53  1  0.26976500  0.60188000  0.73022200  1
  O  O54  1  0.40281800  0.77279700  0.72985700  1
  O  O55  1  0.31338700  0.81299800  0.56076000  1
loop_
_geom_bond_atom_site_label_1
_geom_bond_atom_site_label_2
_geom_bond_distance
_geom_bond_site_symmetry_2
Ca0 O48 2.328726 1_556
Ca0 O49 2.336878 1_546
Ca0 O38 2.339350 1_546
Ca0 O6 2.344041 1_555
Ca0 O17 2.363710 1_555
Ca0 O7 2.364565 1_545
Ca1 O40 2.340774 1_555
Ca1 O3 2.398189 1_555
Ca1 O28 2.398238 1_545
Ca1 O48 2.483827 1_555
Ca1 O38 2.572867 1_545
Ca1 O0 2.578496 1_555
Ca1 O39 2.660814 1_545
Ca2 O26 2.370913 1_555
Ca2 O42 2.382456 1_555
Ca2 O4 2.419532 1_555
Ca2 O38 2.475881 1_555
Ca2 O49 2.527520 1_555
Ca2 O47 2.592799 1_555
Ca2 O1 2.635904 1_555
Ca3 O36 2.335446 1_545
Ca3 O10 2.404327 1_555
Ca3 O37 2.432558 1_555
Ca3 O49 2.488778 1_545
Ca3 O48 2.557950 1_555
Ca3 O2 2.576494 1_455
Ca3 O43 2.680113 1_555
Ca3 O44 3.017918 1_545
Ca4 O8 2.370913 1_555
Ca4 O9 2.382456 1_555
Ca4 O20 2.419532 1_555
Ca4 O22 2.475881 1_555
Ca4 O21 2.527520 1_555
Ca4 O13 2.592799 1_555
Ca4 O54 2.635904 1_555
Ca5 O11 2.335446 1_455
Ca5 O30 2.404327 1_555
Ca5 O16 2.432558 1_555
Ca5 O21 2.488778 1_455
Ca5 O23 2.557950 1_555
Ca5 O52 2.576494 1_545
Ca5 O27 2.680113 1_555
Ca5 O18 3.017918 1_455
Ca6 O14 2.340774 1_555
Ca6 O31 2.398189 1_555
Ca6 O12 2.398238 1_455
Ca6 O23 2.483827 1_555
Ca6 O22 2.572867 1_455
Ca6 O53 2.578496 1_555
Ca6 O19 2.660814 1_455
Ca7 O23 2.328726 1_555
Ca7 O21 2.336878 1_455
Ca7 O22 2.339350 1_455
Ca7 O34 2.344041 1_555
Ca7 O33 2.363710 1_555
Ca7 O32 2.364565 1_455
Ca8 O44 2.380481 1_655
Ca8 O25 2.386435 1_555
Ca8 O39 2.418079 1_555
Ca8 O2 2.443588 1_565
Ca8 O32 2.514195 1_555
Ca8 O34 2.533802 1_655
Ca8 O36 2.788101 1_655
Ca8 O28 2.987350 1_555
Ca9 O35 2.377647 1_555
Ca9 O47 2.396653 1_555
Ca9 O46 2.401756 1_555
Ca9 O0 2.456254 1_555
Ca9 O34 2.496507 1_555
Ca9 O33 2.549092 1_555
Ca9 O40 2.872095 1_555
Ca9 O42 2.932117 1_555
Ca10 O18 2.380481 1_565
Ca10 O45 2.386435 1_555
Ca10 O19 2.418079 1_555
Ca10 O52 2.443588 1_655
Ca10 O7 2.514195 1_555
Ca10 O6 2.533802 1_565
Ca10 O11 2.788101 1_565
Ca10 O12 2.987350 1_555
Ca11 O50 2.377647 1_555
Ca11 O13 2.396653 1_555
Ca11 O29 2.401756 1_555
Ca11 O53 2.456254 1_555
Ca11 O6 2.496507 1_555
Ca11 O17 2.549092 1_555
Ca11 O14 2.872095 1_555
Ca11 O9 2.932117 1_555
Bi0 O41 2.309801 1_555
Bi0 O1 2.316897 1_555
Bi0 O43 2.360953 1_655
Bi0 O24 2.425543 1_555
Bi0 O33 2.596930 1_655
Bi0 O32 2.615731 1_555
Bi0 O26 2.686899 1_555
Bi1 O15 2.309801 1_555
Bi1 O54 2.316897 1_555
Bi1 O27 2.360953 1_565
Bi1 O51 2.425543 1_555
Bi1 O17 2.596930 1_565
Bi1 O7 2.615731 1_555
Bi1 O8 2.686899 1_555
O0 V0 1.729056 1_555
O0 Sr0 3.035155 1_555
O1 V0 1.780373 1_555
O1 Sr2 3.050375 1_555
O2 V0 1.725647 1_555
O2 Sr1 3.032151 1_555
O3 V1 1.725669 1_554
O3 Sr0 2.751044 1_555
O3 Sr1 2.771514 1_555
O4 V2 1.722556 1_554
O4 Sr2 2.752279 1_555
O4 Sr0 2.761984 1_555
O5 V0 1.727816 1_555
O5 Sr2 2.644341 1_555
O5 Sr1 2.674373 1_555
O5 Sr0 2.678297 1_555
O6 V1 1.729553 1_555
O7 V2 1.737115 1_555
O8 V2 1.733392 1_555
O8 Sr0 2.762470 1_556
O9 V1 1.726030 1_555
O9 Sr0 2.537956 1_556
O10 V3 1.723751 1_554
O10 Sr2 2.735879 1_455
O10 Sr1 2.745060 1_455
O11 V1 1.722523 1_555
O11 Sr1 2.670793 1_556
O12 V2 1.716522 1_555
O12 Sr2 2.533677 1_556
O13 V4 1.743868 1_555
O13 Sr5 2.520551 1_555
O14 V3 1.716200 1_555
O14 Sr2 2.640234 1_456
O15 V5 1.761861 1_555
O15 Sr4 2.680693 1_555
O16 V3 1.729796 1_555
O16 Sr1 2.573582 1_456
O17 V3 1.739219 1_555
O18 V4 1.717001 1_555
O18 Sr3 2.623639 1_645
O19 V5 1.733155 1_555
O19 Sr3 2.513699 1_655
O20 V6 1.722556 1_555
O20 Sr4 2.752279 1_555
O20 Sr5 2.761984 1_555
O21 V4 1.744961 1_555
O22 V5 1.740602 1_555
O23 V7 1.741941 1_555
O24 V4 1.720550 1_555
O24 Sr5 3.032951 1_555
O25 V5 1.694621 1_555
O25 Sr3 3.097323 1_655
O26 V6 1.733392 1_555
O26 Sr5 2.762470 1_555
O27 V7 1.780602 1_555
O27 Sr4 2.519287 1_545
O28 V6 1.716522 1_555
O28 Sr4 2.533677 1_555
O29 V7 1.717058 1_555
O29 Sr5 2.616780 1_555
O30 V8 1.723751 1_555
O30 Sr4 2.735879 1_545
O30 Sr3 2.745060 1_545
O31 V9 1.725669 1_555
O31 Sr5 2.751044 1_555
O31 Sr3 2.771514 1_555
O32 V6 1.737115 1_555
O33 V8 1.739219 1_555
O34 V9 1.729553 1_555
O35 V7 1.696291 1_555
O35 Sr4 3.091126 1_545
O36 V9 1.722523 1_555
O36 Sr3 2.670793 1_555
O37 V8 1.729796 1_555
O37 Sr3 2.573582 1_545
O38 V10 1.740602 1_555
O39 V10 1.733155 1_555
O39 Sr1 2.513699 1_565
O40 V8 1.716200 1_555
O40 Sr4 2.640234 1_545
O41 V10 1.761861 1_555
O41 Sr2 2.680693 1_555
O42 V9 1.726030 1_555
O42 Sr5 2.537956 1_555
O43 V11 1.780602 1_555
O43 Sr2 2.519287 1_455
O44 V12 1.717001 1_555
O44 Sr1 2.623639 1_465
O45 V10 1.694621 1_556
O45 Sr1 3.097323 1_566
O46 V11 1.717058 1_555
O46 Sr0 2.616780 1_555
O47 V12 1.743868 1_555
O47 Sr0 2.520551 1_555
O48 V11 1.741941 1_555
O49 V12 1.744961 1_555
O50 V11 1.696291 1_556
O50 Sr2 3.091126 1_456
O51 V12 1.720550 1_556
O51 Sr0 3.032951 1_556
O52 V13 1.725647 1_555
O52 Sr3 3.032151 1_555
O53 V13 1.729056 1_555
O53 Sr5 3.035155 1_555
O54 V13 1.780373 1_555
O54 Sr4 3.050375 1_555
O55 V13 1.727816 1_555
O55 Sr4 2.644341 1_555
O55 Sr3 2.674373 1_555
O55 Sr5 2.678297 1_555
