# generated using pymatgen
data_K4V2O7
_symmetry_space_group_name_H-M   'P 1'
_cell_length_a   6.03779683
_cell_length_b   6.03779773
_cell_length_c   7.20436808
_cell_angle_alpha   79.53777726
_cell_angle_beta   79.53777365
_cell_angle_gamma   61.78735540
_symmetry_Int_Tables_number   1
_chemical_formula_structural   K4V2O7
_chemical_formula_sum   'K4 V2 O7'
_cell_volume   226.19290601
_cell_formula_units_Z   1
loop_
 _symmetry_equiv_pos_site_id
 _symmetry_equiv_pos_as_xyz
  1  'x, y, z'
loop_
 _atom_site_type_symbol
 _atom_site_label
 _atom_site_symmetry_multiplicity
 _atom_site_fract_x
 _atom_site_fract_y
 _atom_site_fract_z
 _atom_site_occupancy
  K  K0  1  0.67665993  0.67665993  0.30096537  1
  K  K1  1  0.32334007  0.32334007  0.69903463  1
  K  K2  1  -0.00000000  0.00000000  0.50000000  1
  K  K3  1  -0.00000000  0.00000000  0.00000000  1
  V  V0  1  0.63809526  0.63809526  0.79742316  1
  V  V1  1  0.36190474  0.36190474  0.20257684  1
  O  O0  1  0.78680795  0.78680795  0.85952633  1
  O  O1  1  0.84379320  0.39736692  0.66994047  1
  O  O2  1  0.21319205  0.21319205  0.14047367  1
  O  O3  1  0.60263308  0.15620680  0.33005953  1
  O  O4  1  0.39736692  0.84379320  0.66994047  1
  O  O5  1  0.50000000  0.50000000  0.00000000  1
  O  O6  1  0.15620680  0.60263308  0.33005953  1
loop_
_geom_bond_atom_site_label_1
_geom_bond_atom_site_label_2
_geom_bond_distance
_geom_bond_site_symmetry_2
K0 O6 2.754974 1_655
K0 O3 2.754975 1_565
K0 O4 2.943718 1_555
K0 O1 2.943718 1_555
K0 O5 3.119674 1_555
K0 O0 3.143365 1_554
K0 O2 3.302346 1_655
K0 O2 3.302346 1_565
K0 O6 3.342611 1_555
K0 O3 3.342612 1_555
K1 O1 2.754974 1_455
K1 O4 2.754975 1_545
K1 O3 2.943718 1_555
K1 O6 2.943718 1_555
K1 O5 3.119674 1_556
K1 O2 3.143365 1_556
K1 O0 3.302346 1_455
K1 O0 3.302346 1_545
K1 O1 3.342611 1_555
K1 O4 3.342612 1_555
K2 O3 2.579280 1_455
K2 O4 2.579280 1_545
K2 O6 2.579281 1_545
K2 O1 2.579281 1_455
K2 O0 3.027811 1_445
K2 O2 3.027811 1_555
K3 O0 2.617406 1_444
K3 O2 2.617406 1_555
K3 O3 2.983813 1_455
K3 O4 2.983813 1_544
K3 O6 2.983813 1_545
K3 O1 2.983813 1_454
K3 O5 3.100086 1_455
K3 O5 3.100086 1_545
O0 V0 1.693130 1_555
O1 V0 1.691849 1_555
O2 V1 1.693130 1_555
O3 V1 1.691849 1_555
O4 V0 1.691849 1_555
O5 V1 1.814888 1_555
O5 V0 1.814888 1_554
O6 V1 1.691849 1_555
