# generated using pymatgen
data_V2FeS4
_symmetry_space_group_name_H-M   'P 1'
_cell_length_a   6.29322759
_cell_length_b   6.29322759
_cell_length_c   5.83325016
_cell_angle_alpha   65.02777910
_cell_angle_beta   65.02777910
_cell_angle_gamma   29.45377667
_symmetry_Int_Tables_number   1
_chemical_formula_structural   V2FeS4
_chemical_formula_sum   'V2 Fe1 S4'
_cell_volume   102.20490830
_cell_formula_units_Z   1
loop_
 _symmetry_equiv_pos_site_id
 _symmetry_equiv_pos_as_xyz
  1  'x, y, z'
loop_
 _atom_site_type_symbol
 _atom_site_label
 _atom_site_symmetry_multiplicity
 _atom_site_fract_x
 _atom_site_fract_y
 _atom_site_fract_z
 _atom_site_occupancy
  V  V0  1  0.74039100  0.74039100  0.31375300  1
  V  V1  1  0.25960900  0.25960900  0.68624700  1
  Fe  Fe0  1  0.00000000  0.00000000  0.00000000  1
  S  S0  1  0.10461300  0.10461300  0.56286400  1
  S  S1  1  0.89538700  0.89538700  0.43713600  1
  S  S2  1  0.63654500  0.63654500  0.02308200  1
  S  S3  1  0.36345500  0.36345500  0.97691800  1
loop_
_geom_bond_atom_site_label_1
_geom_bond_atom_site_label_2
_geom_bond_distance
_geom_bond_site_symmetry_2
Fe0 S0 2.299751 1_554
Fe0 S1 2.299751 1_445
Fe0 S2 2.352804 1_545
Fe0 S3 2.352804 1_454
Fe0 S3 2.352804 1_544
Fe0 S2 2.352804 1_455
S0 V1 2.294213 1_555
S0 V0 2.303469 1_455
S0 V0 2.303469 1_545
S1 V0 2.294213 1_555
S1 V1 2.303469 1_565
S1 V1 2.303469 1_655
S2 V1 2.468692 1_654
S2 V1 2.468692 1_564
S2 V0 2.518759 1_555
S3 V0 2.468692 1_546
S3 V0 2.468692 1_456
S3 V1 2.518759 1_555
