# generated using pymatgen
data_C37F21
_symmetry_space_group_name_H-M   'P 1'
_cell_length_a   11.29745500
_cell_length_b   11.34937726
_cell_length_c   12.51415293
_cell_angle_alpha   69.58924377
_cell_angle_beta   69.72392719
_cell_angle_gamma   76.53407925
_symmetry_Int_Tables_number   1
_chemical_formula_structural   C37F21
_chemical_formula_sum   'C74 F42'
_cell_volume   1399.13178618
_cell_formula_units_Z   2
loop_
 _symmetry_equiv_pos_site_id
 _symmetry_equiv_pos_as_xyz
  1  'x, y, z'
loop_
 _atom_site_type_symbol
 _atom_site_label
 _atom_site_symmetry_multiplicity
 _atom_site_fract_x
 _atom_site_fract_y
 _atom_site_fract_z
 _atom_site_occupancy
  C  C0  1  0.48160400  0.60994900  0.46611900  1
  C  C1  1  0.25898900  0.63782800  0.74502200  1
  C  C2  1  0.41142100  0.49372700  0.24742300  1
  C  C3  1  0.69195000  0.01233800  0.37597500  1
  C  C4  1  0.28184300  0.53990600  0.49055700  1
  C  C5  1  0.99296000  0.10147300  0.33128700  1
  C  C6  1  0.51185200  0.17114300  0.82925500  1
  C  C7  1  0.45654200  0.57214200  0.58799100  1
  C  C8  1  0.30667300  0.42079300  0.34677800  1
  C  C9  1  0.16748900  0.39808700  0.66633500  1
  C  C10  1  0.64912600  0.13545500  0.28631500  1
  C  C11  1  0.32223800  0.29412200  0.34792300  1
  C  C12  1  0.69159000  0.78676100  0.70178900  1
  C  C13  1  0.82466900  0.31480300  0.49155200  1
  C  C14  1  0.38295600  0.62134800  0.40380800  1
  C  C15  1  0.46493100  0.05114100  0.41407700  1
  C  C16  1  0.63620200  0.92715900  0.64987100  1
  C  C17  1  0.25136200  0.50698100  0.61148500  1
  C  C18  1  0.69123200  0.47192900  0.22098200  1
  C  C19  1  0.50946700  0.38117400  0.21704000  1
  C  C20  1  0.63352800  0.37158000  0.20523900  1
  C  C21  1  0.53734800  0.93852600  0.58769600  1
  C  C22  1  0.75900000  0.56698300  0.09980600  1
  C  C23  1  0.55589300  0.49928100  0.63902500  1
  C  C24  1  0.93659800  0.49789500  0.32515100  1
  C  C25  1  0.38474800  0.18139900  0.84079000  1
  C  C26  1  0.55620000  0.98630600  0.75174800  1
  C  C27  1  0.81581900  0.42820200  0.38159600  1
  C  C28  1  0.44172900  0.26443700  0.25115800  1
  C  C29  1  0.36954900  0.41302500  0.76312400  1
  C  C30  1  0.08050300  0.05095200  0.72092200  1
  C  C31  1  0.40557200  0.24336200  0.15023600  1
  C  C32  1  0.69896800  0.25625800  0.70238800  1
  C  C33  1  0.67813700  0.47168800  0.56557100  1
  C  C34  1  0.75153400  0.34893300  0.59776200  1
  C  C35  1  0.60473200  0.57516200  0.39241500  1
  C  C36  1  0.02642200  0.44804800  0.72195000  1
  C  C37  1  0.61001900  0.05728300  0.80326100  1
  C  C38  1  0.24186800  0.45106900  0.45303900  1
  C  C39  1  0.85016400  0.15220400  0.38324600  1
  C  C40  1  0.41434000  0.97382200  0.66041400  1
  C  C41  1  0.18169800  0.35918300  0.55689600  1
  C  C42  1  0.52190100  0.14706100  0.30574600  1
  C  C43  1  0.25331300  0.99527500  0.95417900  1
  C  C44  1  0.32697500  0.76118300  0.35459700  1
  C  C45  1  0.46296100  0.56244600  0.30234800  1
  C  C46  1  0.27056800  0.20197100  0.45221700  1
  C  C47  1  0.32620400  0.53696100  0.67669100  1
  C  C48  1  0.31455700  0.30283200  0.80238900  1
  C  C49  1  0.75746800  0.90237700  0.31759900  1
  C  C50  1  0.32571700  0.07977500  0.82950800  1
  C  C51  1  0.31540500  0.03488400  0.61151400  1
  C  C52  1  0.20119500  0.12019200  0.66830300  1
  C  C53  1  0.65728800  0.97712700  0.91412200  1
  C  C54  1  0.57272400  0.28350300  0.77851900  1
  C  C55  1  0.19525900  0.23491200  0.55764300  1
  C  C56  1  0.34259300  0.07715600  0.48584500  1
  C  C57  1  0.56245500  0.97781600  0.46534700  1
  C  C58  1  0.36882100  0.58616900  0.13545200  1
  C  C59  1  0.50222100  0.40278500  0.74669200  1
  C  C60  1  0.77995500  0.38561900  0.29528100  1
  C  C61  1  0.79600100  0.26364600  0.29513200  1
  C  C62  1  0.73674100  0.00974200  0.56174900  1
  C  C63  1  0.70373800  0.51393600  0.43972200  1
  C  C64  1  0.81204600  0.23673200  0.08958900  1
  C  C65  1  0.83685200  0.19145700  0.49236100  1
  C  C66  1  0.77883500  0.09816600  0.59805500  1
  C  C67  1  0.22345900  0.28595000  0.75108600  1
  C  C68  1  0.76566600  0.04371100  0.44057300  1
  C  C69  1  0.43072100  0.00168000  0.75964200  1
  C  C70  1  0.71725500  0.12753800  0.70388100  1
  C  C71  1  0.72449900  0.24642000  0.21711800  1
  C  C72  1  0.58754500  0.54729500  0.29402200  1
  C  C73  1  0.23458400  0.16229100  0.75553900  1
  F  F0  1  0.60308800  0.72547500  0.79871900  1
  F  F1  1  0.01704300  0.08421800  0.22382300  1
  F  F2  1  0.19935200  0.74042200  0.67940900  1
  F  F3  1  0.97502300  0.12320900  0.76809100  1
  F  F4  1  0.72735300  0.72039700  0.62185000  1
  F  F5  1  0.41882000  0.83022200  0.27089600  1
  F  F6  1  0.76980600  0.90428100  0.88349900  1
  F  F7  1  0.88088900  0.91177200  0.25509700  1
  F  F8  1  0.91785700  0.60998000  0.24266700  1
  F  F9  1  0.31388300  0.97539600  0.03666500  1
  F  F10  1  0.50338200  0.25751600  0.04835300  1
  F  F11  1  0.03967100  0.42825500  0.27156200  1
  F  F12  1  0.75429100  0.78826500  0.40271300  1
  F  F13  1  0.23544800  0.76760600  0.30450000  1
  F  F14  1  0.41120500  0.53665500  0.04225200  1
  F  F15  1  0.27316700  0.81785900  0.44257900  1
  F  F16  1  0.70100100  0.58463300  0.01566400  1
  F  F17  1  0.09491900  0.94169800  0.80783400  1
  F  F18  1  0.88342900  0.52523400  0.05702000  1
  F  F19  1  0.94697500  0.36211700  0.74854600  1
  F  F20  1  0.07146900  0.18344000  0.31728800  1
  F  F21  1  0.13350500  0.05179100  0.99422300  1
  F  F22  1  0.75241100  0.30415100  0.00492300  1
  F  F23  1  0.67619100  0.05467100  0.96714700  1
  F  F24  1  0.24031800  0.61227000  0.16132800  1
  F  F25  1  0.41723000  0.69755700  0.09628100  1
  F  F26  1  0.17184100  0.58989400  0.84944400  1
  F  F27  1  0.83954800  0.11564600  0.08496500  1
  F  F28  1  0.01088200  0.47486400  0.82358600  1
  F  F29  1  0.02643500  0.98898800  0.40687200  1
  F  F30  1  0.24463000  0.87998300  0.94942700  1
  F  F31  1  0.75233400  0.68232400  0.11315800  1
  F  F32  1  0.96534300  0.52366400  0.41134900  1
  F  F33  1  0.92368200  0.28285700  0.05760900  1
  F  F34  1  0.30313000  0.32444100  0.12472800  1
  F  F35  1  0.34656300  0.67892500  0.77201000  1
  F  F36  1  0.98738900  0.55559900  0.64408900  1
  F  F37  1  0.79556100  0.78090400  0.73497700  1
  F  F38  1  0.05788200  0.02077300  0.63391100  1
  F  F39  1  0.69452700  0.89922000  0.24381700  1
  F  F40  1  0.57186500  0.90006400  0.99629500  1
  F  F41  1  0.37477400  0.12369800  0.18435100  1
loop_
_geom_bond_atom_site_label_1
_geom_bond_atom_site_label_2
_geom_bond_distance
_geom_bond_site_symmetry_2
C0 C7 1.375184 1_555
C0 C35 1.431971 1_555
C0 C14 1.526966 1_555
C1 F26 1.354549 1_555
C1 F2 1.354661 1_555
C1 F35 1.366323 1_555
C1 C47 1.564041 1_555
C2 C45 1.510808 1_555
C2 C8 1.532992 1_555
C2 C58 1.581968 1_555
C3 C68 1.509740 1_555
C3 C57 1.540100 1_545
C3 C49 1.571601 1_545
C5 F1 1.351370 1_655
C5 F20 1.358566 1_655
C5 F29 1.359531 1_645
C10 C42 1.354361 1_555
C10 C71 1.512854 1_555
C10 C3 1.553479 1_555
C11 C46 1.393627 1_555
C11 C8 1.402700 1_555
C11 C28 1.530349 1_555
C12 F4 1.354605 1_555
C12 F37 1.356136 1_555
C12 F0 1.360031 1_555
C12 C16 1.564610 1_555
C13 C65 1.371171 1_555
C13 C34 1.431156 1_555
C13 C27 1.536224 1_555
C14 C4 1.506696 1_555
C14 C45 1.546340 1_555
C14 C44 1.555221 1_555
C15 C56 1.392332 1_555
C15 C57 1.417251 1_545
C15 C42 1.459247 1_555
C16 C62 1.513750 1_565
C16 C21 1.527878 1_555
C16 C26 1.551972 1_555
C17 C4 1.361121 1_555
C17 C47 1.517358 1_555
C17 C9 1.548975 1_555
C18 C72 1.508593 1_555
C18 C20 1.533685 1_555
C18 C60 1.543414 1_555
C18 C22 1.577482 1_555
C19 C20 1.339685 1_555
C19 C28 1.540928 1_555
C19 C2 1.546334 1_555
C20 C71 1.541044 1_555
C21 C57 1.380306 1_555
C21 C40 1.427686 1_555
C22 F18 1.353644 1_555
C22 F31 1.358354 1_555
C22 F16 1.359466 1_555
C23 C33 1.403500 1_555
C23 C7 1.430973 1_555
C23 C59 1.447849 1_555
C24 F11 1.352852 1_655
C24 F8 1.355984 1_555
C24 F32 1.364421 1_555
C24 C27 1.559285 1_555
C25 C6 1.373519 1_555
C25 C48 1.432596 1_555
C25 C50 1.527095 1_555
C26 C69 1.359978 1_565
C26 C37 1.515295 1_565
C27 C60 1.524178 1_555
C27 C63 1.536460 1_555
C28 C42 1.514525 1_555
C28 C31 1.559771 1_555
C29 C48 1.383161 1_555
C29 C59 1.422773 1_555
C29 C47 1.540573 1_555
C30 F17 1.354635 1_545
C30 F3 1.354979 1_455
C30 F38 1.364561 1_555
C30 C52 1.557599 1_555
C31 F10 1.354904 1_555
C31 F34 1.357665 1_555
C31 F41 1.364003 1_555
C32 C34 1.401678 1_555
C32 C70 1.421375 1_555
C32 C54 1.447669 1_555
C33 C63 1.419869 1_555
C33 C34 1.446673 1_555
C35 C63 1.376384 1_555
C35 C72 1.455944 1_555
C36 F28 1.353328 1_555
C36 F19 1.357106 1_455
C36 F36 1.360641 1_455
C36 C9 1.559297 1_555
C37 C70 1.537575 1_555
C37 C6 1.543165 1_555
C37 C53 1.563452 1_545
C38 C8 1.396116 1_555
C38 C41 1.418186 1_555
C38 C4 1.459505 1_555
C39 C61 1.524617 1_555
C39 C65 1.528526 1_555
C39 C68 1.548796 1_555
C39 C5 1.567904 1_555
C40 C51 1.386193 1_565
C40 C69 1.461688 1_565
C41 C55 1.379835 1_555
C41 C9 1.527333 1_555
C43 F9 1.356428 1_556
C43 F30 1.357722 1_555
C43 F21 1.358057 1_565
C43 C50 1.568481 1_565
C44 F5 1.356709 1_555
C44 F15 1.357761 1_555
C44 F13 1.360095 1_555
C45 C72 1.348914 1_555
C46 C55 1.422022 1_555
C46 C56 1.459649 1_555
C47 C7 1.546485 1_555
C48 C67 1.464133 1_555
C49 F7 1.350010 1_555
C49 F12 1.358700 1_555
C49 F39 1.359931 1_555
C50 C69 1.513019 1_555
C50 C73 1.549429 1_555
C51 C56 1.416086 1_555
C51 C52 1.539430 1_555
C52 C73 1.515097 1_555
C52 C55 1.543863 1_555
C53 F40 1.353411 1_555
C53 F6 1.356521 1_555
C53 F23 1.361445 1_565
C54 C59 1.402625 1_555
C54 C6 1.429441 1_555
C58 F24 1.356835 1_555
C58 F25 1.357022 1_555
C58 F14 1.360196 1_555
C60 C61 1.354213 1_555
C61 C71 1.548270 1_555
C62 C68 1.364693 1_555
C62 C66 1.459367 1_555
C64 F27 1.353733 1_555
C64 F33 1.355128 1_555
C64 F22 1.360572 1_555
C64 C71 1.585880 1_555
C65 C66 1.430266 1_555
C66 C70 1.382137 1_555
C67 C73 1.362620 1_555
C67 C9 1.514243 1_555
