# generated using pymatgen
data_CeB2Rh3
_symmetry_space_group_name_H-M   'P 1'
_cell_length_a   10.99076430
_cell_length_b   10.99075196
_cell_length_c   6.11955602
_cell_angle_alpha   90.00000000
_cell_angle_beta   90.00000000
_cell_angle_gamma   120.00019456
_symmetry_Int_Tables_number   1
_chemical_formula_structural   CeB2Rh3
_chemical_formula_sum   'Ce8 B16 Rh24'
_cell_volume   640.18426589
_cell_formula_units_Z   8
loop_
 _symmetry_equiv_pos_site_id
 _symmetry_equiv_pos_as_xyz
  1  'x, y, z'
loop_
 _atom_site_type_symbol
 _atom_site_label
 _atom_site_symmetry_multiplicity
 _atom_site_fract_x
 _atom_site_fract_y
 _atom_site_fract_z
 _atom_site_occupancy
  Ce  Ce0_0  1  0.00000000  0.00000000  0.00000000  1
  Ce  Ce0_1  1  0.00000000  0.00000000  0.50000000  1
  Ce  Ce0_2  1  0.00000000  0.50000000  0.00000000  1
  Ce  Ce0_3  1  0.00000000  0.50000000  0.50000000  1
  Ce  Ce0_4  1  0.50000000  0.00000000  0.00000000  1
  Ce  Ce0_5  1  0.50000000  0.00000000  0.50000000  1
  Ce  Ce0_6  1  0.50000000  0.50000000  0.00000000  1
  Ce  Ce0_7  1  0.50000000  0.50000000  0.50000000  1
  B  B0_0  1  0.16666986  0.33333064  0.00000000  1
  B  B0_1  1  0.16666986  0.33333064  0.50000000  1
  B  B0_2  1  0.16666986  0.83333064  0.00000000  1
  B  B0_3  1  0.16666986  0.83333064  0.50000000  1
  B  B0_4  1  0.66666986  0.33333064  0.00000000  1
  B  B0_5  1  0.66666986  0.33333064  0.50000000  1
  B  B0_6  1  0.66666986  0.83333064  0.00000000  1
  B  B0_7  1  0.66666986  0.83333064  0.50000000  1
  B  B1_0  1  0.33333014  0.16666936  0.00000000  1
  B  B1_1  1  0.33333014  0.16666936  0.50000000  1
  B  B1_2  1  0.33333014  0.66666936  0.00000000  1
  B  B1_3  1  0.33333014  0.66666936  0.50000000  1
  B  B1_4  1  0.83333014  0.16666936  0.00000000  1
  B  B1_5  1  0.83333014  0.16666936  0.50000000  1
  B  B1_6  1  0.83333014  0.66666936  0.00000000  1
  B  B1_7  1  0.83333014  0.66666936  0.50000000  1
  Rh  Rh0_0  1  0.25000000  0.00000000  0.25000000  1
  Rh  Rh0_1  1  0.25000000  0.00000000  0.75000000  1
  Rh  Rh0_2  1  0.25000000  0.50000000  0.25000000  1
  Rh  Rh0_3  1  0.25000000  0.50000000  0.75000000  1
  Rh  Rh0_4  1  0.75000000  0.00000000  0.25000000  1
  Rh  Rh0_5  1  0.75000000  0.00000000  0.75000000  1
  Rh  Rh0_6  1  0.75000000  0.50000000  0.25000000  1
  Rh  Rh0_7  1  0.75000000  0.50000000  0.75000000  1
  Rh  Rh1_0  1  0.25000000  0.25000000  0.25000000  1
  Rh  Rh1_1  1  0.25000000  0.25000000  0.75000000  1
  Rh  Rh1_2  1  0.25000000  0.75000000  0.25000000  1
  Rh  Rh1_3  1  0.25000000  0.75000000  0.75000000  1
  Rh  Rh1_4  1  0.75000000  0.25000000  0.25000000  1
  Rh  Rh1_5  1  0.75000000  0.25000000  0.75000000  1
  Rh  Rh1_6  1  0.75000000  0.75000000  0.25000000  1
  Rh  Rh1_7  1  0.75000000  0.75000000  0.75000000  1
  Rh  Rh2_0  1  0.00000000  0.25000000  0.25000000  1
  Rh  Rh2_1  1  0.00000000  0.25000000  0.75000000  1
  Rh  Rh2_2  1  0.00000000  0.75000000  0.25000000  1
  Rh  Rh2_3  1  0.00000000  0.75000000  0.75000000  1
  Rh  Rh2_4  1  0.50000000  0.25000000  0.25000000  1
  Rh  Rh2_5  1  0.50000000  0.25000000  0.75000000  1
  Rh  Rh2_6  1  0.50000000  0.75000000  0.25000000  1
  Rh  Rh2_7  1  0.50000000  0.75000000  0.75000000  1
loop_
_geom_bond_atom_site_label_1
_geom_bond_atom_site_label_2
_geom_bond_distance
_geom_bond_site_symmetry_2
Ce0_0 Ce0_1 3.059778 1_555
Ce0_0 Ce0_1 3.059778 1_554
Ce0_0 Rh1_7 3.144887 1_444
Ce0_0 Rh1_0 3.144887 1_555
Ce0_0 Rh1_6 3.144887 1_445
Ce0_0 Rh1_1 3.144887 1_554
Ce0_0 Rh2_1 3.144893 1_554
Ce0_0 Rh2_3 3.144893 1_544
Ce0_0 Rh2_2 3.144893 1_545
Ce0_0 Rh2_0 3.144893 1_555
Ce0_0 Rh0_0 3.144895 1_555
Ce0_0 Rh0_4 3.144895 1_455
Ce0_0 Rh0_5 3.144895 1_454
Ce0_0 Rh0_1 3.144895 1_554
Ce0_1 Rh1_1 3.144887 1_555
Ce0_1 Rh1_0 3.144887 1_555
Ce0_1 Rh1_6 3.144887 1_445
Ce0_1 Rh1_7 3.144887 1_445
Ce0_1 Rh2_1 3.144893 1_555
Ce0_1 Rh2_2 3.144893 1_545
Ce0_1 Rh2_3 3.144893 1_545
Ce0_1 Rh2_0 3.144893 1_555
Ce0_1 Rh0_0 3.144895 1_555
Ce0_1 Rh0_4 3.144895 1_455
Ce0_1 Rh0_5 3.144895 1_455
Ce0_1 Rh0_1 3.144895 1_555
Ce0_2 Ce0_3 3.059778 1_554
Ce0_2 Ce0_3 3.059778 1_555
Ce0_2 Rh1_4 3.144887 1_455
Ce0_2 Rh1_3 3.144887 1_554
Ce0_2 Rh1_2 3.144887 1_555
Ce0_2 Rh1_5 3.144887 1_454
Ce0_2 Rh2_2 3.144893 1_555
Ce0_2 Rh2_1 3.144893 1_554
Ce0_2 Rh2_3 3.144893 1_554
Ce0_2 Rh2_0 3.144893 1_555
Ce0_2 Rh0_6 3.144895 1_455
Ce0_2 Rh0_3 3.144895 1_554
Ce0_2 Rh0_2 3.144895 1_555
Ce0_2 Rh0_7 3.144895 1_454
Ce0_3 Rh1_4 3.144887 1_455
Ce0_3 Rh1_5 3.144887 1_455
Ce0_3 Rh1_3 3.144887 1_555
Ce0_3 Rh1_2 3.144887 1_555
Ce0_3 Rh2_3 3.144893 1_555
Ce0_3 Rh2_2 3.144893 1_555
Ce0_3 Rh2_1 3.144893 1_555
Ce0_3 Rh2_0 3.144893 1_555
Ce0_3 Rh0_3 3.144895 1_555
Ce0_3 Rh0_6 3.144895 1_455
Ce0_3 Rh0_2 3.144895 1_555
Ce0_3 Rh0_7 3.144895 1_455
Ce0_4 Ce0_5 3.059778 1_554
Ce0_4 Ce0_5 3.059778 1_555
Ce0_4 Rh1_3 3.144887 1_544
Ce0_4 Rh1_2 3.144887 1_545
Ce0_4 Rh1_5 3.144887 1_554
Ce0_4 Rh1_4 3.144887 1_555
Ce0_4 Rh2_5 3.144893 1_554
Ce0_4 Rh2_4 3.144893 1_555
Ce0_4 Rh2_7 3.144893 1_544
Ce0_4 Rh2_6 3.144893 1_545
Ce0_4 Rh0_0 3.144895 1_555
Ce0_4 Rh0_5 3.144895 1_554
Ce0_4 Rh0_1 3.144895 1_554
Ce0_4 Rh0_4 3.144895 1_555
Ce0_5 Rh1_2 3.144887 1_545
Ce0_5 Rh1_3 3.144887 1_545
Ce0_5 Rh1_4 3.144887 1_555
Ce0_5 Rh1_5 3.144887 1_555
Ce0_5 Rh2_5 3.144893 1_555
Ce0_5 Rh2_4 3.144893 1_555
Ce0_5 Rh2_7 3.144893 1_545
Ce0_5 Rh2_6 3.144893 1_545
Ce0_5 Rh0_0 3.144895 1_555
Ce0_5 Rh0_5 3.144895 1_555
Ce0_5 Rh0_1 3.144895 1_555
Ce0_5 Rh0_4 3.144895 1_555
Ce0_6 Ce0_7 3.059778 1_554
Ce0_6 Ce0_7 3.059778 1_555
Ce0_6 Rh1_7 3.144887 1_554
Ce0_6 Rh1_0 3.144887 1_555
Ce0_6 Rh1_6 3.144887 1_555
Ce0_6 Rh1_1 3.144887 1_554
Ce0_6 Rh2_7 3.144893 1_554
Ce0_6 Rh2_6 3.144893 1_555
Ce0_6 Rh2_5 3.144893 1_554
Ce0_6 Rh2_4 3.144893 1_555
Ce0_6 Rh0_3 3.144895 1_554
Ce0_6 Rh0_2 3.144895 1_555
Ce0_6 Rh0_6 3.144895 1_555
Ce0_6 Rh0_7 3.144895 1_554
Ce0_7 Rh1_1 3.144887 1_555
Ce0_7 Rh1_7 3.144887 1_555
Ce0_7 Rh1_0 3.144887 1_555
Ce0_7 Rh1_6 3.144887 1_555
Ce0_7 Rh2_7 3.144893 1_555
Ce0_7 Rh2_6 3.144893 1_555
Ce0_7 Rh2_5 3.144893 1_555
Ce0_7 Rh2_4 3.144893 1_555
Ce0_7 Rh0_3 3.144895 1_555
Ce0_7 Rh0_2 3.144895 1_555
Ce0_7 Rh0_6 3.144895 1_555
Ce0_7 Rh0_7 3.144895 1_555
B0_0 Rh1_0 2.203857 1_555
B0_0 Rh1_1 2.203857 1_554
B0_0 Rh0_3 2.203912 1_554
B0_0 Rh0_2 2.203912 1_555
B0_0 Rh2_0 2.203917 1_555
B0_0 Rh2_1 2.203917 1_554
B0_0 Ce0_6 3.172724 1_555
B0_0 Ce0_0 3.172725 1_555
B0_0 Ce0_2 3.172818 1_555
B0_1 Rh1_0 2.203857 1_555
B0_1 Rh1_1 2.203857 1_555
B0_1 Rh0_3 2.203912 1_555
B0_1 Rh0_2 2.203912 1_555
B0_1 Rh2_0 2.203917 1_555
B0_1 Rh2_1 2.203917 1_555
B0_1 Ce0_7 3.172724 1_555
B0_1 Ce0_1 3.172725 1_555
B0_1 Ce0_3 3.172818 1_555
B0_2 Rh1_3 2.203857 1_554
B0_2 Rh1_2 2.203857 1_555
B0_2 Rh0_0 2.203912 1_565
B0_2 Rh0_1 2.203912 1_564
B0_2 Rh2_3 2.203917 1_554
B0_2 Rh2_2 2.203917 1_555
B0_2 Ce0_4 3.172724 1_565
B0_2 Ce0_2 3.172725 1_555
B0_2 Ce0_0 3.172818 1_565
B0_3 Rh1_3 2.203857 1_555
B0_3 Rh1_2 2.203857 1_555
B0_3 Rh0_0 2.203912 1_565
B0_3 Rh0_1 2.203912 1_565
B0_3 Rh2_3 2.203917 1_555
B0_3 Rh2_2 2.203917 1_555
B0_3 Ce0_5 3.172724 1_565
B0_3 Ce0_3 3.172725 1_555
B0_3 Ce0_1 3.172818 1_565
B0_4 Rh1_4 2.203857 1_555
B0_4 Rh1_5 2.203857 1_554
B0_4 Rh0_7 2.203912 1_554
B0_4 Rh0_6 2.203912 1_555
B0_4 Rh2_4 2.203917 1_555
B0_4 Rh2_5 2.203917 1_554
B0_4 Ce0_2 3.172724 1_655
B0_4 Ce0_4 3.172725 1_555
B0_4 Ce0_6 3.172818 1_555
B0_5 Rh1_4 2.203857 1_555
B0_5 Rh1_5 2.203857 1_555
B0_5 Rh0_7 2.203912 1_555
B0_5 Rh0_6 2.203912 1_555
B0_5 Rh2_4 2.203917 1_555
B0_5 Rh2_5 2.203917 1_555
B0_5 Ce0_3 3.172724 1_655
B0_5 Ce0_5 3.172725 1_555
B0_5 Ce0_7 3.172818 1_555
B0_6 Rh1_7 2.203857 1_554
B0_6 Rh1_6 2.203857 1_555
B0_6 Rh0_4 2.203912 1_565
B0_6 Rh0_5 2.203912 1_564
B0_6 Rh2_7 2.203917 1_554
B0_6 Rh2_6 2.203917 1_555
B0_6 Ce0_0 3.172724 1_665
B0_6 Ce0_6 3.172725 1_555
B0_6 Ce0_4 3.172818 1_565
B0_7 Rh1_7 2.203857 1_555
B0_7 Rh1_6 2.203857 1_555
B0_7 Rh0_4 2.203912 1_565
B0_7 Rh0_5 2.203912 1_565
B0_7 Rh2_7 2.203917 1_555
B0_7 Rh2_6 2.203917 1_555
B0_7 Ce0_1 3.172724 1_665
B0_7 Ce0_7 3.172725 1_555
B0_7 Ce0_5 3.172818 1_565
B1_0 Rh1_1 2.203857 1_554
B1_0 Rh1_0 2.203857 1_555
B1_0 Rh0_0 2.203912 1_555
B1_0 Rh0_1 2.203912 1_554
B1_0 Rh2_5 2.203917 1_554
B1_0 Rh2_4 2.203917 1_555
B1_0 Ce0_0 3.172724 1_555
B1_0 Ce0_6 3.172725 1_555
B1_0 Ce0_4 3.172818 1_555
B1_1 Rh1_1 2.203857 1_555
B1_1 Rh1_0 2.203857 1_555
B1_1 Rh0_0 2.203912 1_555
B1_1 Rh0_1 2.203912 1_555
B1_1 Rh2_4 2.203917 1_555
B1_1 Rh2_5 2.203917 1_555
B1_1 Ce0_1 3.172724 1_555
B1_1 Ce0_7 3.172725 1_555
B1_1 Ce0_5 3.172818 1_555
B1_2 Rh1_2 2.203857 1_555
B1_2 Rh1_3 2.203857 1_554
B1_2 Rh0_3 2.203912 1_554
B1_2 Rh0_2 2.203912 1_555
B1_2 Rh2_7 2.203917 1_554
B1_2 Rh2_6 2.203917 1_555
B1_2 Ce0_2 3.172724 1_555
B1_2 Ce0_4 3.172725 1_565
B1_2 Ce0_6 3.172818 1_555
B1_3 Rh1_3 2.203857 1_555
B1_3 Rh1_2 2.203857 1_555
B1_3 Rh0_3 2.203912 1_555
B1_3 Rh0_2 2.203912 1_555
B1_3 Rh2_7 2.203917 1_555
B1_3 Rh2_6 2.203917 1_555
B1_3 Ce0_3 3.172724 1_555
B1_3 Ce0_5 3.172725 1_565
B1_3 Ce0_7 3.172818 1_555
B1_4 Rh1_4 2.203857 1_555
B1_4 Rh1_5 2.203857 1_554
B1_4 Rh0_4 2.203912 1_555
B1_4 Rh0_5 2.203912 1_554
B1_4 Rh2_1 2.203917 1_654
B1_4 Rh2_0 2.203917 1_655
B1_4 Ce0_4 3.172724 1_555
B1_4 Ce0_2 3.172725 1_655
B1_4 Ce0_0 3.172818 1_655
B1_5 Rh1_4 2.203857 1_555
B1_5 Rh1_5 2.203857 1_555
B1_5 Rh0_4 2.203912 1_555
B1_5 Rh0_5 2.203912 1_555
B1_5 Rh2_0 2.203917 1_655
B1_5 Rh2_1 2.203917 1_655
B1_5 Ce0_5 3.172724 1_555
B1_5 Ce0_3 3.172725 1_655
B1_5 Ce0_1 3.172818 1_655
B1_6 Rh1_7 2.203857 1_554
B1_6 Rh1_6 2.203857 1_555
B1_6 Rh0_7 2.203912 1_554
B1_6 Rh0_6 2.203912 1_555
B1_6 Rh2_3 2.203917 1_654
B1_6 Rh2_2 2.203917 1_655
B1_6 Ce0_6 3.172724 1_555
B1_6 Ce0_0 3.172725 1_665
B1_6 Ce0_2 3.172818 1_655
B1_7 Rh1_7 2.203857 1_555
B1_7 Rh1_6 2.203857 1_555
B1_7 Rh0_7 2.203912 1_555
B1_7 Rh0_6 2.203912 1_555
B1_7 Rh2_2 2.203917 1_655
B1_7 Rh2_3 2.203917 1_655
B1_7 Ce0_7 3.172724 1_555
B1_7 Ce0_1 3.172725 1_665
B1_7 Ce0_3 3.172818 1_655
