# generated using pymatgen
data_La5Ti2AgS5O7
_symmetry_space_group_name_H-M   'P 1'
_cell_length_a   3.98098000
_cell_length_b   18.46502900
_cell_length_c   19.69733100
_cell_angle_alpha   90.00000000
_cell_angle_beta   90.00000000
_cell_angle_gamma   90.00000000
_symmetry_Int_Tables_number   1
_chemical_formula_structural   La5Ti2AgS5O7
_chemical_formula_sum   'La20 Ti8 Ag4 S20 O28'
_cell_volume   1447.92935434
_cell_formula_units_Z   4
loop_
 _symmetry_equiv_pos_site_id
 _symmetry_equiv_pos_as_xyz
  1  'x, y, z'
loop_
 _atom_site_type_symbol
 _atom_site_label
 _atom_site_symmetry_multiplicity
 _atom_site_fract_x
 _atom_site_fract_y
 _atom_site_fract_z
 _atom_site_occupancy
  La  La0  1  0.75000000  0.21400500  0.19094600  1
  La  La1  1  0.25000000  0.99918700  0.39295300  1
  La  La2  1  0.75000000  0.02894200  0.81842800  1
  La  La3  1  0.75000000  0.47105800  0.31842800  1
  La  La4  1  0.75000000  0.00081300  0.60704700  1
  La  La5  1  0.75000000  0.28599500  0.69094600  1
  La  La6  1  0.25000000  0.30442400  0.04156100  1
  La  La7  1  0.25000000  0.78599500  0.80905400  1
  La  La8  1  0.75000000  0.49918700  0.10704700  1
  La  La9  1  0.25000000  0.97105800  0.18157200  1
  La  La10  1  0.75000000  0.37703900  0.51191400  1
  La  La11  1  0.75000000  0.12296100  0.01191400  1
  La  La12  1  0.25000000  0.71400500  0.30905400  1
  La  La13  1  0.25000000  0.50081300  0.89295300  1
  La  La14  1  0.25000000  0.87703900  0.98808600  1
  La  La15  1  0.75000000  0.69557600  0.95843900  1
  La  La16  1  0.25000000  0.19557600  0.54156100  1
  La  La17  1  0.25000000  0.52894200  0.68157200  1
  La  La18  1  0.25000000  0.62296100  0.48808600  1
  La  La19  1  0.75000000  0.80442400  0.45843900  1
  Ti  Ti0  1  0.25000000  0.33158500  0.37842400  1
  Ti  Ti1  1  0.75000000  0.66841500  0.62157600  1
  Ti  Ti2  1  0.75000000  0.88764700  0.30257000  1
  Ti  Ti3  1  0.25000000  0.38764700  0.19743000  1
  Ti  Ti4  1  0.75000000  0.61235300  0.80257000  1
  Ti  Ti5  1  0.25000000  0.11235300  0.69743000  1
  Ti  Ti6  1  0.75000000  0.83158500  0.12157600  1
  Ti  Ti7  1  0.25000000  0.16841500  0.87842400  1
  Ag  Ag0  1  0.25000000  0.65403800  0.13551000  1
  Ag  Ag1  1  0.75000000  0.15403800  0.36449000  1
  Ag  Ag2  1  0.75000000  0.34596200  0.86449000  1
  Ag  Ag3  1  0.25000000  0.84596200  0.63551000  1
  S  S0  1  0.25000000  0.54275500  0.22027600  1
  S  S1  1  0.25000000  0.27823900  0.81666600  1
  S  S2  1  0.75000000  0.61985800  0.37104900  1
  S  S3  1  0.75000000  0.72176100  0.18333400  1
  S  S4  1  0.25000000  0.03296800  0.93283400  1
  S  S5  1  0.25000000  0.38014200  0.62895100  1
  S  S6  1  0.25000000  0.11985800  0.12895100  1
  S  S7  1  0.75000000  0.77823900  0.68333400  1
  S  S8  1  0.75000000  0.88014200  0.87104900  1
  S  S9  1  0.25000000  0.58957900  0.02442600  1
  S  S10  1  0.75000000  0.41042100  0.97557400  1
  S  S11  1  0.75000000  0.45724500  0.77972400  1
  S  S12  1  0.75000000  0.08957900  0.47557400  1
  S  S13  1  0.25000000  0.22176100  0.31666600  1
  S  S14  1  0.25000000  0.91042100  0.52442600  1
  S  S15  1  0.75000000  0.96703200  0.06716600  1
  S  S16  1  0.75000000  0.04275500  0.27972400  1
  S  S17  1  0.25000000  0.95724500  0.72027600  1
  S  S18  1  0.25000000  0.46703200  0.43283400  1
  S  S19  1  0.75000000  0.53296800  0.56716600  1
  O  O0  1  0.75000000  0.25340000  0.57260300  1
  O  O1  1  0.75000000  0.70756900  0.82817600  1
  O  O2  1  0.25000000  0.19438600  0.97071500  1
  O  O3  1  0.75000000  0.40324700  0.20044000  1
  O  O4  1  0.25000000  0.90324700  0.29956000  1
  O  O5  1  0.75000000  0.09675300  0.70044000  1
  O  O6  1  0.75000000  0.15350700  0.88171800  1
  O  O7  1  0.25000000  0.59675300  0.79956000  1
  O  O8  1  0.75000000  0.34649300  0.38171800  1
  O  O9  1  0.25000000  0.29243100  0.17182400  1
  O  O10  1  0.25000000  0.39504400  0.29546300  1
  O  O11  1  0.75000000  0.80561400  0.02928500  1
  O  O12  1  0.25000000  0.07566600  0.60692600  1
  O  O13  1  0.25000000  0.42433400  0.10692600  1
  O  O14  1  0.25000000  0.74660000  0.42739700  1
  O  O15  1  0.25000000  0.75340000  0.92739700  1
  O  O16  1  0.25000000  0.10495600  0.79546300  1
  O  O17  1  0.75000000  0.24660000  0.07260300  1
  O  O18  1  0.25000000  0.65350700  0.61828200  1
  O  O19  1  0.75000000  0.69438600  0.52928500  1
  O  O20  1  0.75000000  0.57566600  0.89307400  1
  O  O21  1  0.75000000  0.60495600  0.70453700  1
  O  O22  1  0.25000000  0.20756900  0.67182400  1
  O  O23  1  0.75000000  0.89504400  0.20453700  1
  O  O24  1  0.25000000  0.84649300  0.11828200  1
  O  O25  1  0.75000000  0.79243100  0.32817600  1
  O  O26  1  0.75000000  0.92433400  0.39307400  1
  O  O27  1  0.25000000  0.30561400  0.47071500  1
loop_
_geom_bond_atom_site_label_1
_geom_bond_atom_site_label_2
_geom_bond_distance
_geom_bond_site_symmetry_2
La0 O17 2.407488 1_555
La0 O9 2.490185 1_655
La0 O9 2.490185 1_555
La0 S6 2.911246 1_655
La0 S6 2.911246 1_555
La0 S13 3.180387 1_555
La0 S13 3.180387 1_655
La0 S16 3.613450 1_555
La1 O26 2.423310 1_455
La1 O26 2.423310 1_555
La1 O4 2.553906 1_555
La1 S14 3.064786 1_555
La1 S12 3.065353 1_465
La1 S12 3.065353 1_565
La1 S16 3.095727 1_465
La1 S16 3.095727 1_565
La2 O16 2.477250 1_555
La2 O16 2.477250 1_655
La2 O6 2.616212 1_555
La2 O5 2.639893 1_555
La2 S8 2.936597 1_545
La2 S4 3.007625 1_655
La2 S4 3.007625 1_555
La2 S17 3.074492 1_545
La2 S17 3.074492 1_645
La3 O10 2.477250 1_555
La3 O10 2.477250 1_655
La3 O8 2.616212 1_555
La3 O3 2.639893 1_555
La3 S2 2.936597 1_555
La3 S18 3.007625 1_555
La3 S18 3.007625 1_655
La3 S0 3.074492 1_555
La3 S0 3.074492 1_655
La4 O12 2.423310 1_555
La4 O12 2.423310 1_655
La4 O5 2.553906 1_555
La4 S12 3.064786 1_555
La4 S14 3.065353 1_545
La4 S14 3.065353 1_645
La4 S17 3.095727 1_645
La4 S17 3.095727 1_545
La5 O0 2.407488 1_555
La5 O22 2.490185 1_555
La5 O22 2.490185 1_655
La5 S5 2.911246 1_655
La5 S5 2.911246 1_555
La5 S1 3.180387 1_555
La5 S1 3.180387 1_655
La5 S11 3.613450 1_555
La6 O17 2.340074 1_455
La6 O17 2.340074 1_555
La6 O2 2.464912 1_554
La6 O13 2.561273 1_555
La6 O9 2.575372 1_555
La6 S10 3.079322 1_454
La6 S10 3.079322 1_554
La7 O15 2.407488 1_555
La7 O1 2.490185 1_455
La7 O1 2.490185 1_555
La7 S8 2.911246 1_455
La7 S8 2.911246 1_555
La7 S7 3.180387 1_455
La7 S7 3.180387 1_555
La7 S17 3.613450 1_555
La8 O13 2.423310 1_655
La8 O13 2.423310 1_555
La8 O3 2.553906 1_555
La8 S10 3.064786 1_554
La8 S9 3.065353 1_655
La8 S9 3.065353 1_555
La8 S0 3.095727 1_555
La8 S0 3.095727 1_655
La9 O23 2.477250 1_455
La9 O23 2.477250 1_555
La9 O24 2.616212 1_555
La9 O4 2.639893 1_555
La9 S6 2.936597 1_565
La9 S15 3.007625 1_455
La9 S15 3.007625 1_555
La9 S16 3.074492 1_465
La9 S16 3.074492 1_565
La10 O27 2.521905 1_555
La10 O27 2.521905 1_655
La10 O0 2.577031 1_555
La10 O8 2.625807 1_555
La10 S18 3.024846 1_555
La10 S18 3.024846 1_655
La10 S5 3.046279 1_655
La10 S5 3.046279 1_555
La10 S19 3.078054 1_555
La11 O2 2.521905 1_654
La11 O2 2.521905 1_554
La11 O17 2.577031 1_555
La11 O6 2.625807 1_554
La11 S4 3.024846 1_654
La11 S4 3.024846 1_554
La11 S6 3.046279 1_655
La11 S6 3.046279 1_555
La11 S15 3.078054 1_545
La12 O14 2.407488 1_555
La12 O25 2.490185 1_555
La12 O25 2.490185 1_455
La12 S2 2.911246 1_455
La12 S2 2.911246 1_555
La12 S3 3.180387 1_455
La12 S3 3.180387 1_555
La12 S0 3.613450 1_555
La13 O20 2.423310 1_555
La13 O20 2.423310 1_455
La13 O7 2.553906 1_555
La13 S9 3.064786 1_556
La13 S10 3.065353 1_455
La13 S10 3.065353 1_555
La13 S11 3.095727 1_455
La13 S11 3.095727 1_555
La14 O11 2.521905 1_556
La14 O11 2.521905 1_456
La14 O15 2.577031 1_555
La14 O24 2.625807 1_556
La14 S15 3.024846 1_556
La14 S15 3.024846 1_456
La14 S8 3.046279 1_455
La14 S8 3.046279 1_555
La14 S4 3.078054 1_565
La15 O15 2.340074 1_555
La15 O15 2.340074 1_655
La15 O11 2.464912 1_556
La15 O20 2.561273 1_555
La15 O1 2.575372 1_555
La15 S9 3.079322 1_656
La15 S9 3.079322 1_556
La16 O0 2.340074 1_555
La16 O0 2.340074 1_455
La16 O27 2.464912 1_555
La16 O12 2.561273 1_555
La16 O22 2.575372 1_555
La16 S12 3.079322 1_555
La16 S12 3.079322 1_455
La17 O21 2.477250 1_455
La17 O21 2.477250 1_555
La17 O18 2.616212 1_555
La17 O7 2.639893 1_555
La17 S5 2.936597 1_555
La17 S19 3.007625 1_455
La17 S19 3.007625 1_555
La17 S11 3.074492 1_455
La17 S11 3.074492 1_555
La18 O19 2.521905 1_555
La18 O19 2.521905 1_455
La18 O14 2.577031 1_555
La18 O18 2.625807 1_555
La18 S19 3.024846 1_555
La18 S19 3.024846 1_455
La18 S2 3.046279 1_555
La18 S2 3.046279 1_455
La18 S18 3.078054 1_555
La19 O14 2.340074 1_655
La19 O14 2.340074 1_555
La19 O19 2.464912 1_555
La19 O26 2.561273 1_555
La19 O25 2.575372 1_555
La19 S14 3.079322 1_555
La19 S14 3.079322 1_655
Ag0 S9 2.490836 1_555
Ag0 S3 2.532428 1_455
Ag0 S3 2.532428 1_555
Ag0 S0 2.647671 1_555
Ag1 S12 2.490836 1_555
Ag1 S13 2.532428 1_655
Ag1 S13 2.532428 1_555
Ag1 S16 2.647671 1_555
Ag2 S10 2.490836 1_555
Ag2 S1 2.532428 1_655
Ag2 S1 2.532428 1_555
Ag2 S11 2.647671 1_555
Ag3 S14 2.490836 1_555
Ag3 S7 2.532428 1_455
Ag3 S7 2.532428 1_555
Ag3 S17 2.647671 1_555
S0 Ti3 2.899211 1_555
S1 Ti7 2.364780 1_555
S3 Ti6 2.364780 1_555
S4 Ti7 2.720988 1_555
S7 Ti1 2.364780 1_555
S11 Ti4 2.899211 1_555
S13 Ti0 2.364780 1_555
S15 Ti6 2.720988 1_555
S16 Ti2 2.899211 1_545
S17 Ti5 2.899211 1_565
S18 Ti0 2.720988 1_555
S19 Ti1 2.720988 1_555
O1 Ti4 1.829081 1_555
O2 Ti7 1.880076 1_555
O3 Ti3 2.012099 1_655
O3 Ti3 2.012099 1_555
O4 Ti2 2.012099 1_555
O4 Ti2 2.012099 1_455
O5 Ti5 2.012099 1_655
O5 Ti5 2.012099 1_555
O6 Ti7 2.010482 1_555
O6 Ti7 2.010482 1_655
O7 Ti4 2.012099 1_555
O7 Ti4 2.012099 1_455
O8 Ti0 2.010482 1_655
O8 Ti0 2.010482 1_555
O9 Ti3 1.829081 1_555
O10 Ti3 1.935813 1_555
O10 Ti0 2.010812 1_555
O11 Ti6 1.880076 1_555
O12 Ti5 1.907061 1_555
O13 Ti3 1.907061 1_555
O16 Ti5 1.935813 1_555
O16 Ti7 2.010812 1_555
O18 Ti1 2.010482 1_555
O18 Ti1 2.010482 1_455
O19 Ti1 1.880076 1_555
O20 Ti4 1.907061 1_555
O21 Ti4 1.935813 1_555
O21 Ti1 2.010812 1_555
O22 Ti5 1.829081 1_555
O23 Ti2 1.935813 1_555
O23 Ti6 2.010812 1_555
O24 Ti6 2.010482 1_455
O24 Ti6 2.010482 1_555
O25 Ti2 1.829081 1_555
O26 Ti2 1.907061 1_555
O27 Ti0 1.880076 1_555
