# generated using pymatgen
data_NaSrB5O9
_symmetry_space_group_name_H-M   'P 1'
_cell_length_a   14.10480000
_cell_length_b   6.56195000
_cell_length_c   8.17882616
_cell_angle_alpha   73.30939615
_cell_angle_beta   90.00000000
_cell_angle_gamma   90.00000000
_symmetry_Int_Tables_number   1
_chemical_formula_structural   NaSrB5O9
_chemical_formula_sum   'Na4 Sr4 B20 O36'
_cell_volume   725.09885634
_cell_formula_units_Z   4
loop_
 _symmetry_equiv_pos_site_id
 _symmetry_equiv_pos_as_xyz
  1  'x, y, z'
loop_
 _atom_site_type_symbol
 _atom_site_label
 _atom_site_symmetry_multiplicity
 _atom_site_fract_x
 _atom_site_fract_y
 _atom_site_fract_z
 _atom_site_occupancy
  Na  Na0  1  0.58409400  0.53433200  0.65012800  1
  Na  Na1  1  0.41590600  0.46566800  0.34987200  1
  Na  Na2  1  0.08409400  0.46566800  0.84987200  1
  Na  Na3  1  0.91590600  0.53433200  0.15012800  1
  Sr  Sr0  1  0.23004100  0.89793300  0.56078900  1
  Sr  Sr1  1  0.73004100  0.10206700  0.93921100  1
  Sr  Sr2  1  0.76995900  0.10206700  0.43921100  1
  Sr  Sr3  1  0.26995900  0.89793300  0.06078900  1
  B  B0  1  0.35448100  0.44229900  0.86960100  1
  B  B1  1  0.05650800  0.91045500  0.83382600  1
  B  B2  1  0.61249700  0.84167600  0.26729600  1
  B  B3  1  0.25288800  0.40975100  0.62554800  1
  B  B4  1  0.44888800  0.78545500  0.76733200  1
  B  B5  1  0.05111200  0.78545500  0.26733200  1
  B  B6  1  0.85448100  0.55770100  0.63039900  1
  B  B7  1  0.64551900  0.55770100  0.13039900  1
  B  B8  1  0.88750300  0.84167600  0.76729600  1
  B  B9  1  0.74711200  0.59024900  0.37445200  1
  B  B10  1  0.14551900  0.44229900  0.36960100  1
  B  B11  1  0.44349200  0.91045500  0.33382600  1
  B  B12  1  0.94349200  0.08954500  0.16617400  1
  B  B13  1  0.75288800  0.59024900  0.87445200  1
  B  B14  1  0.55111200  0.21454500  0.23266800  1
  B  B15  1  0.94888800  0.21454500  0.73266800  1
  B  B16  1  0.55650800  0.08954500  0.66617400  1
  B  B17  1  0.38750300  0.15832400  0.73270400  1
  B  B18  1  0.24711200  0.40975100  0.12554800  1
  B  B19  1  0.11249700  0.15832400  0.23270400  1
  O  O0  1  0.14610700  0.83843900  0.85403500  1
  O  O1  1  0.64610700  0.16156100  0.64596500  1
  O  O2  1  0.53764200  0.86862200  0.71038500  1
  O  O3  1  0.35389300  0.83843900  0.35403500  1
  O  O4  1  0.12521200  0.92040800  0.27783900  1
  O  O5  1  0.43929000  0.57212600  0.80293100  1
  O  O6  1  0.47924000  0.22661900  0.64975600  1
  O  O7  1  0.93929000  0.42787400  0.69706900  1
  O  O8  1  0.72660600  0.48616500  0.25457900  1
  O  O9  1  0.37259700  0.21795200  0.88837100  1
  O  O10  1  0.69075700  0.75320500  0.39620500  1
  O  O11  1  0.85389300  0.16156100  0.14596500  1
  O  O12  1  0.02076000  0.22661900  0.14975600  1
  O  O13  1  0.96235800  0.86862200  0.21038500  1
  O  O14  1  0.19075700  0.24679500  0.10379500  1
  O  O15  1  0.77339400  0.48616500  0.75457900  1
  O  O16  1  0.87259700  0.78204800  0.61162900  1
  O  O17  1  0.87478800  0.07959200  0.72216100  1
  O  O18  1  0.27339400  0.51383500  0.74542100  1
  O  O19  1  0.67380400  0.51466200  0.96976700  1
  O  O20  1  0.06071000  0.57212600  0.30293100  1
  O  O21  1  0.17380400  0.48533800  0.53023300  1
  O  O22  1  0.46235800  0.13137800  0.28961500  1
  O  O23  1  0.32619600  0.48533800  0.03023300  1
  O  O24  1  0.97924000  0.77338100  0.85024400  1
  O  O25  1  0.62521200  0.07959200  0.22216100  1
  O  O26  1  0.56071000  0.42787400  0.19706900  1
  O  O27  1  0.52076000  0.77338100  0.35024400  1
  O  O28  1  0.80924300  0.75320500  0.89620500  1
  O  O29  1  0.22660600  0.51383500  0.24542100  1
  O  O30  1  0.03764200  0.13137800  0.78961500  1
  O  O31  1  0.62740300  0.78204800  0.11162900  1
  O  O32  1  0.37478800  0.92040800  0.77783900  1
  O  O33  1  0.30924300  0.24679500  0.60379500  1
  O  O34  1  0.82619600  0.51466200  0.46976700  1
  O  O35  1  0.12740300  0.21795200  0.38837100  1
loop_
_geom_bond_atom_site_label_1
_geom_bond_atom_site_label_2
_geom_bond_distance
_geom_bond_site_symmetry_2
Na0 O5 2.443959 1_555
Na0 O2 2.470829 1_555
Na0 O6 2.503592 1_555
Na0 O1 2.607200 1_555
Na0 O10 2.631714 1_555
Na0 O27 2.657890 1_555
Na0 O15 2.793513 1_555
Na0 O19 2.873733 1_555
Na1 O26 2.443959 1_555
Na1 O22 2.470829 1_555
Na1 O27 2.503592 1_555
Na1 O3 2.607200 1_555
Na1 O33 2.631714 1_555
Na1 O6 2.657890 1_555
Na1 O29 2.793513 1_555
Na1 O23 2.873733 1_555
Na2 O7 2.443959 1_455
Na2 O30 2.470829 1_555
Na2 O24 2.503592 1_455
Na2 O0 2.607200 1_555
Na2 O14 2.631714 1_556
Na2 O12 2.657890 1_556
Na2 O18 2.793513 1_555
Na2 O21 2.873733 1_555
Na3 O20 2.443959 1_655
Na3 O13 2.470829 1_555
Na3 O12 2.503592 1_655
Na3 O11 2.607200 1_555
Na3 O28 2.631714 1_554
Na3 O24 2.657890 1_554
Na3 O8 2.793513 1_555
Na3 O34 2.873733 1_555
B0 O9 1.458177 1_555
B0 O23 1.475830 1_556
B0 O5 1.478916 1_555
B0 O18 1.511992 1_555
B1 O0 1.342722 1_555
B1 O24 1.394804 1_455
B1 O30 1.414937 1_565
B2 O31 1.450661 1_555
B2 O27 1.469935 1_555
B2 O25 1.508217 1_565
B2 O10 1.521681 1_555
B3 O21 1.369633 1_555
B3 O18 1.376952 1_555
B3 O33 1.384262 1_555
B4 O5 1.352248 1_555
B4 O32 1.388408 1_555
B4 O2 1.391368 1_555
B5 O20 1.352248 1_555
B5 O4 1.388408 1_555
B5 O13 1.391368 1_455
B6 O16 1.458177 1_555
B6 O34 1.475830 1_555
B6 O7 1.478916 1_555
B6 O15 1.511992 1_555
B7 O31 1.458177 1_555
B7 O19 1.475830 1_554
B7 O26 1.478916 1_555
B7 O8 1.511992 1_555
B8 O16 1.450661 1_555
B8 O24 1.469935 1_555
B8 O17 1.508217 1_565
B8 O28 1.521681 1_555
B9 O34 1.369633 1_555
B9 O8 1.376952 1_555
B9 O10 1.384262 1_555
B10 O35 1.458177 1_555
B10 O21 1.475830 1_555
B10 O20 1.478916 1_555
B10 O29 1.511992 1_555
B11 O3 1.342722 1_555
B11 O27 1.394804 1_555
B11 O22 1.414937 1_565
B12 O11 1.342722 1_555
B12 O12 1.394804 1_655
B12 O13 1.414937 1_545
B13 O19 1.369633 1_555
B13 O15 1.376952 1_555
B13 O28 1.384262 1_555
B14 O26 1.352248 1_555
B14 O25 1.388408 1_555
B14 O22 1.391368 1_555
B15 O7 1.352248 1_555
B15 O17 1.388408 1_555
B15 O30 1.391368 1_655
B16 O1 1.342722 1_555
B16 O6 1.394804 1_555
B16 O2 1.414937 1_545
B17 O9 1.450661 1_555
B17 O6 1.469935 1_555
B17 O32 1.508217 1_545
B17 O33 1.521681 1_555
B18 O23 1.369633 1_555
B18 O29 1.376952 1_555
B18 O14 1.384262 1_555
B19 O35 1.450661 1_555
B19 O12 1.469935 1_555
B19 O4 1.508217 1_545
B19 O14 1.521681 1_555
O0 Sr3 2.538266 1_556
O0 Sr0 2.601632 1_555
O1 Sr2 2.538266 1_555
O1 Sr1 2.601632 1_555
O3 Sr0 2.538266 1_555
O3 Sr3 2.601632 1_555
O4 Sr0 2.714306 1_555
O4 Sr3 2.737109 1_555
O8 Sr2 2.611628 1_555
O9 Sr3 2.606376 1_546
O10 Sr2 2.659834 1_565
O11 Sr1 2.538266 1_554
O11 Sr2 2.601632 1_555
O14 Sr3 2.659834 1_545
O15 Sr1 2.611628 1_555
O16 Sr2 2.606376 1_565
O17 Sr2 2.714306 1_555
O17 Sr1 2.737109 1_555
O18 Sr0 2.611628 1_555
O19 Sr1 2.900079 1_555
O21 Sr0 2.900079 1_555
O23 Sr3 2.900079 1_555
O25 Sr1 2.714306 1_554
O25 Sr2 2.737109 1_555
O28 Sr1 2.659834 1_565
O29 Sr3 2.611628 1_555
O31 Sr1 2.606376 1_564
O32 Sr3 2.714306 1_556
O32 Sr0 2.737109 1_555
O33 Sr0 2.659834 1_545
O34 Sr2 2.900079 1_555
O35 Sr0 2.606376 1_545
