# generated using pymatgen
data_AgSbO3
_symmetry_space_group_name_H-M   'P 1'
_cell_length_a   6.36589347
_cell_length_b   6.36589297
_cell_length_c   6.36589376
_cell_angle_alpha   49.61821341
_cell_angle_beta   49.61826084
_cell_angle_gamma   49.61834321
_symmetry_Int_Tables_number   1
_chemical_formula_structural   AgSbO3
_chemical_formula_sum   'Ag2 Sb2 O6'
_cell_volume   137.63698539
_cell_formula_units_Z   2
loop_
 _symmetry_equiv_pos_site_id
 _symmetry_equiv_pos_as_xyz
  1  'x, y, z'
loop_
 _atom_site_type_symbol
 _atom_site_label
 _atom_site_symmetry_multiplicity
 _atom_site_fract_x
 _atom_site_fract_y
 _atom_site_fract_z
 _atom_site_occupancy
  Ag  Ag0  1  0.36122630  0.36122530  0.36122530  1
  Ag  Ag1  1  0.63877370  0.63877470  0.63877470  1
  Sb  Sb0  1  0.16285923  0.16285823  0.16285923  1
  Sb  Sb1  1  0.83714077  0.83714077  0.83714077  1
  O  O0  1  0.81495104  0.43982818  0.04416587  1
  O  O1  1  0.56017182  0.95583313  0.18504996  1
  O  O2  1  0.95583313  0.18504996  0.56017082  1
  O  O3  1  0.04416687  0.81495104  0.43982818  1
  O  O4  1  0.43982918  0.04416687  0.81495004  1
  O  O5  1  0.18504896  0.56017082  0.95583413  1
loop_
_geom_bond_atom_site_label_1
_geom_bond_atom_site_label_2
_geom_bond_distance
_geom_bond_site_symmetry_2
Ag0 O0 2.382633 1_555
Ag0 O4 2.382633 1_555
Ag0 O3 2.382642 1_555
Ag0 O1 2.682633 1_545
Ag0 O5 2.682634 1_554
Ag0 O2 2.682635 1_455
Ag1 O1 2.382630 1_555
Ag1 O5 2.382636 1_555
Ag1 O2 2.382639 1_555
Ag1 O0 2.682632 1_556
Ag1 O4 2.682635 1_565
Ag1 O3 2.682637 1_655
O0 Sb0 1.991740 1_655
O0 Sb1 2.014075 1_554
O1 Sb1 1.991742 1_554
O1 Sb0 2.014081 1_565
O2 Sb1 1.991737 1_545
O2 Sb0 2.014075 1_655
O3 Sb0 1.991728 1_565
O3 Sb1 2.014075 1_455
O4 Sb0 1.991738 1_556
O4 Sb1 2.014074 1_545
O5 Sb1 1.991740 1_455
O5 Sb0 2.014075 1_556
