# generated using pymatgen
data_Na2Zn3(SiO4)2
_symmetry_space_group_name_H-M   'P 1'
_cell_length_a   5.18970000
_cell_length_b   8.93809741
_cell_length_c   13.61295821
_cell_angle_alpha   107.92848109
_cell_angle_beta   100.35028981
_cell_angle_gamma   88.94840371
_symmetry_Int_Tables_number   1
_chemical_formula_structural   Na2Zn3(SiO4)2
_chemical_formula_sum   'Na6 Zn9 Si6 O24'
_cell_volume   590.55192372
_cell_formula_units_Z   3
loop_
 _symmetry_equiv_pos_site_id
 _symmetry_equiv_pos_as_xyz
  1  'x, y, z'
loop_
 _atom_site_type_symbol
 _atom_site_label
 _atom_site_symmetry_multiplicity
 _atom_site_fract_x
 _atom_site_fract_y
 _atom_site_fract_z
 _atom_site_occupancy
  Na  Na0  1  0.56835500  0.59282900  0.23380200  1
  Na  Na1  1  0.59410600  0.96222000  0.30920300  1
  Na  Na2  1  0.72547200  0.07099200  0.55555400  1
  Na  Na3  1  0.28483800  0.97737600  0.63924100  1
  Na  Na4  1  0.40442000  0.12341000  0.90367400  1
  Na  Na5  1  0.52147600  0.22058600  0.15541500  1
  Zn  Zn0  1  0.06077700  0.44128700  0.31758500  1
  Zn  Zn1  1  0.73281800  0.71121400  0.50257500  1
  Zn  Zn2  1  0.38781300  0.48507800  0.96055400  1
  Zn  Zn3  1  0.06889700  0.74952300  0.14581100  1
  Zn  Zn4  1  0.72452900  0.53664900  0.67143400  1
  Zn  Zn5  1  0.13399300  0.18352200  0.46193100  1
  Zn  Zn6  1  0.99796700  0.00038100  0.99911700  1
  Zn  Zn7  1  0.31032200  0.73080100  0.80942200  1
  Zn  Zn8  1  0.80652400  0.28303500  0.82130700  1
  Si  Si0  1  0.60621500  0.35055600  0.41505300  1
  Si  Si1  1  0.81492900  0.89694700  0.74928100  1
  Si  Si2  1  0.96967800  0.37546500  0.06325800  1
  Si  Si3  1  0.24491000  0.36622000  0.71755500  1
  Si  Si4  1  0.16228800  0.81177600  0.39662700  1
  Si  Si5  1  0.52075400  0.84169900  0.05029200  1
  O  O0  1  0.11289600  0.53515400  0.71622000  1
  O  O1  1  0.64179400  0.99063000  0.02376200  1
  O  O2  1  0.56836300  0.38833300  0.73106900  1
  O  O3  1  0.23960700  0.90045500  0.09017900  1
  O  O4  1  0.60599800  0.75396200  0.74178300  1
  O  O5  1  0.89660100  0.30078700  0.38132900  1
  O  O6  1  0.42650800  0.84256300  0.48864500  1
  O  O7  1  0.85758600  0.40367400  0.17166500  1
  O  O8  1  0.46045100  0.68833200  0.94260500  1
  O  O9  1  0.71194100  0.35947400  0.96607500  1
  O  O10  1  0.42878100  0.39436500  0.31510300  1
  O  O11  1  0.98197600  0.96709600  0.42092500  1
  O  O12  1  0.14023200  0.21715300  0.03184900  1
  O  O13  1  0.63853200  0.50719700  0.52062000  1
  O  O14  1  0.07011700  0.91087400  0.84700100  1
  O  O15  1  0.70034700  0.79020500  0.14551400  1
  O  O16  1  0.12158300  0.22113100  0.61525700  1
  O  O17  1  0.18503200  0.32775500  0.82507900  1
  O  O18  1  0.92195900  0.85437100  0.63897700  1
  O  O19  1  0.26658400  0.77385400  0.28513900  1
  O  O20  1  0.96288500  0.66231900  0.39182400  1
  O  O21  1  0.16986100  0.52511800  0.07134200  1
  O  O22  1  0.66196500  0.06361300  0.77120700  1
  O  O23  1  0.49021900  0.19712300  0.43733900  1
loop_
_geom_bond_atom_site_label_1
_geom_bond_atom_site_label_2
_geom_bond_distance
_geom_bond_site_symmetry_2
Na0 O19 2.272258 1_555
Na0 O7 2.304259 1_555
Na0 O10 2.537750 1_555
Na0 O15 2.582931 1_555
Na0 O20 2.616653 1_555
Na0 O21 2.666950 1_555
Na1 O11 2.286739 1_555
Na1 O19 2.323029 1_555
Na1 O23 2.404825 1_565
Na1 O15 2.436036 1_555
Na2 O16 2.348769 1_655
Na2 O23 2.389913 1_555
Na2 O11 2.403468 1_545
Na2 O6 2.422612 1_545
Na2 O18 2.635031 1_545
Na3 O18 2.196921 1_455
Na3 O6 2.276728 1_555
Na3 O22 2.364607 1_565
Na3 O16 2.417016 1_565
Na4 O12 2.354504 1_556
Na4 O22 2.360161 1_555
Na4 O14 2.439599 1_545
Na4 O1 2.452681 1_546
Na4 O9 2.500710 1_555
Na4 O17 2.542833 1_555
Na5 O7 2.347936 1_555
Na5 O12 2.349380 1_555
Na5 O10 2.374679 1_555
Na5 O1 2.431775 1_545
O0 Si3 1.650486 1_555
O0 Zn7 1.987511 1_555
O0 Zn4 1.999158 1_455
O1 Si5 1.644747 1_555
O1 Zn6 1.945147 1_564
O2 Si3 1.664186 1_555
O2 Zn4 2.002915 1_555
O2 Zn8 2.011453 1_555
O3 Si5 1.667484 1_555
O3 Zn6 1.997230 1_464
O3 Zn3 2.022937 1_555
O4 Si1 1.658374 1_555
O4 Zn7 1.970272 1_555
O4 Zn4 2.022600 1_555
O5 Si0 1.666735 1_555
O5 Zn5 1.998797 1_655
O5 Zn0 2.007935 1_655
O6 Si4 1.646057 1_555
O6 Zn1 1.975224 1_555
O7 Si2 1.629048 1_555
O7 Zn0 2.004990 1_655
O8 Si5 1.655219 1_556
O8 Zn2 1.957994 1_555
O8 Zn7 1.985803 1_555
O9 Si2 1.677643 1_556
O9 Zn2 2.008176 1_555
O9 Zn8 2.024305 1_555
O10 Si0 1.648361 1_555
O10 Zn0 1.951806 1_555
O11 Si4 1.641089 1_655
O11 Zn5 1.977122 1_665
O12 Si2 1.638915 1_455
O12 Zn6 1.974955 1_454
O13 Si0 1.654335 1_555
O13 Zn4 1.955947 1_555
O13 Zn1 1.994175 1_555
O14 Si1 1.676318 1_455
O14 Zn7 2.013653 1_555
O14 Zn6 2.077481 1_465
O15 Si5 1.636531 1_555
O15 Zn3 1.939876 1_655
O16 Si3 1.621425 1_555
O16 Zn5 2.022173 1_555
O17 Si3 1.683575 1_555
O17 Zn8 2.000247 1_455
O17 Zn2 2.060650 1_555
O18 Si1 1.627324 1_555
O18 Zn1 1.994245 1_555
O19 Si4 1.637972 1_555
O19 Zn3 1.937065 1_555
O20 Si4 1.682960 1_655
O20 Zn0 2.025065 1_655
O20 Zn1 2.027712 1_555
O21 Si2 1.673294 1_455
O21 Zn2 1.986913 1_554
O21 Zn3 2.055658 1_555
O22 Si1 1.645112 1_545
O22 Zn8 1.980150 1_555
O23 Si0 1.639278 1_555
O23 Zn5 1.949424 1_555
