# generated using pymatgen
data_Nb2Cr4Si5
_symmetry_space_group_name_H-M   'P 1'
_cell_length_a   9.33538616
_cell_length_b   9.33538616
_cell_length_c   9.33538616
_cell_angle_alpha   148.08691551
_cell_angle_beta   132.86825121
_cell_angle_gamma   58.05088907
_symmetry_Int_Tables_number   1
_chemical_formula_structural   Nb2Cr4Si5
_chemical_formula_sum   'Nb4 Cr8 Si10'
_cell_volume   312.75412299
_cell_formula_units_Z   2
loop_
 _symmetry_equiv_pos_site_id
 _symmetry_equiv_pos_as_xyz
  1  'x, y, z'
loop_
 _atom_site_type_symbol
 _atom_site_label
 _atom_site_symmetry_multiplicity
 _atom_site_fract_x
 _atom_site_fract_y
 _atom_site_fract_z
 _atom_site_occupancy
  Nb  Nb0  1  0.69052200  0.44052200  0.75000000  1
  Nb  Nb1  1  0.30947800  0.55947800  0.25000000  1
  Nb  Nb2  1  0.30947800  0.05947800  0.75000000  1
  Nb  Nb3  1  0.69052200  0.94052200  0.25000000  1
  Cr  Cr0  1  0.30960900  0.56057300  0.74903600  1
  Cr  Cr1  1  0.69039100  0.43942700  0.25096400  1
  Cr  Cr2  1  0.02087600  0.64220800  0.37866900  1
  Cr  Cr3  1  0.18846300  0.93942700  0.24903600  1
  Cr  Cr4  1  0.97912400  0.35779200  0.62133100  1
  Cr  Cr5  1  0.26353900  0.14220800  0.12133100  1
  Cr  Cr6  1  0.73646100  0.85779200  0.87866900  1
  Cr  Cr7  1  0.81153700  0.06057300  0.75096400  1
  Si  Si0  1  0.52833000  0.93998000  0.58835000  1
  Si  Si1  1  0.39320900  0.70268900  0.69052000  1
  Si  Si2  1  0.98783200  0.79731100  0.19052000  1
  Si  Si3  1  0.01216800  0.20268900  0.80948000  1
  Si  Si4  1  0.47167000  0.06002000  0.41165000  1
  Si  Si5  1  0.00000000  0.25000000  0.25000000  1
  Si  Si6  1  0.35163000  0.43998000  0.91165000  1
  Si  Si7  1  0.64837000  0.56002000  0.08835000  1
  Si  Si8  1  0.00000000  0.75000000  0.75000000  1
  Si  Si9  1  0.60679100  0.29731100  0.30948000  1
loop_
_geom_bond_atom_site_label_1
_geom_bond_atom_site_label_2
_geom_bond_distance
_geom_bond_site_symmetry_2
Nb0 Si7 2.573082 1_556
Nb0 Si4 2.573082 1_555
Nb0 Si9 2.590099 1_555
Nb0 Si2 2.590106 1_556
Nb0 Si3 2.650059 1_655
Nb0 Si1 2.650064 1_555
Nb1 Si0 2.573082 1_555
Nb1 Si6 2.573082 1_554
Nb1 Si1 2.590099 1_555
Nb1 Si3 2.590106 1_554
Nb1 Si2 2.650059 1_455
Nb1 Si9 2.650064 1_555
Nb2 Si0 2.573082 1_545
Nb2 Si6 2.573082 1_555
Nb2 Si1 2.590099 1_545
Nb2 Si3 2.590108 1_555
Nb2 Si2 2.650062 1_445
Nb2 Si9 2.650064 1_556
Nb3 Si7 2.573082 1_555
Nb3 Si4 2.573082 1_565
Nb3 Si9 2.590099 1_565
Nb3 Si2 2.590108 1_555
Nb3 Si3 2.650062 1_665
Nb3 Si1 2.650064 1_554
Cr0 Si6 2.312904 1_555
Cr0 Si1 2.360917 1_555
Cr0 Si8 2.465814 1_555
Cr0 Si5 2.465814 1_555
Cr0 Si7 2.532871 1_556
Cr0 Si4 2.838978 1_566
Cr0 Si4 2.838978 1_555
Cr1 Si7 2.312904 1_555
Cr1 Si9 2.360917 1_555
Cr1 Si5 2.465814 1_655
Cr1 Si8 2.465814 1_655
Cr1 Si6 2.532871 1_554
Cr1 Si0 2.838978 1_555
Cr1 Si0 2.838978 1_544
Cr2 Si1 2.528616 1_555
Cr2 Si7 2.548878 1_455
Cr2 Si3 2.797852 1_565
Cr2 Si3 2.797852 1_554
Cr2 Si8 2.803019 1_555
Cr2 Si5 2.803021 1_555
Cr2 Si2 2.895604 1_455
Cr3 Si4 2.312904 1_565
Cr3 Si2 2.360908 1_455
Cr3 Si5 2.465814 1_565
Cr3 Si8 2.465814 1_554
Cr3 Si0 2.532871 1_555
Cr3 Si6 2.838978 1_565
Cr3 Si6 2.838978 1_554
Cr4 Si9 2.528616 1_555
Cr4 Si6 2.548878 1_655
Cr4 Si2 2.797852 1_556
Cr4 Si2 2.797852 1_545
Cr4 Si5 2.803019 1_655
Cr4 Si8 2.803021 1_655
Cr4 Si3 2.895604 1_655
Cr5 Si3 2.528609 1_554
Cr5 Si4 2.548886 1_555
Cr5 Si1 2.797852 1_544
Cr5 Si1 2.797852 1_555
Cr5 Si5 2.803025 1_555
Cr5 Si8 2.803025 1_544
Cr5 Si9 2.895593 1_555
Cr6 Si2 2.528609 1_556
Cr6 Si0 2.548886 1_555
Cr6 Si9 2.797852 1_555
Cr6 Si9 2.797852 1_566
Cr6 Si8 2.803025 1_655
Cr6 Si5 2.803025 1_666
Cr6 Si1 2.895593 1_555
Cr7 Si0 2.312904 1_545
Cr7 Si3 2.360908 1_655
Cr7 Si8 2.465814 1_645
Cr7 Si5 2.465814 1_656
Cr7 Si4 2.532871 1_555
Cr7 Si7 2.838978 1_545
Cr7 Si7 2.838978 1_556
Si0 Si4 2.362283 1_565
Si5 Si8 2.566374 1_544
Si5 Si8 2.566374 1_555
Si6 Si7 2.362283 1_556
