# generated using pymatgen
data_K2Te(WO4)3
_symmetry_space_group_name_H-M   'P 1'
_cell_length_a   11.95809000
_cell_length_b   7.40015900
_cell_length_c   14.81081557
_cell_angle_alpha   60.20187537
_cell_angle_beta   90.00000000
_cell_angle_gamma   90.00000000
_symmetry_Int_Tables_number   1
_chemical_formula_structural   K2Te(WO4)3
_chemical_formula_sum   'K8 Te4 W12 O48'
_cell_volume   1137.34530674
_cell_formula_units_Z   4
loop_
 _symmetry_equiv_pos_site_id
 _symmetry_equiv_pos_as_xyz
  1  'x, y, z'
loop_
 _atom_site_type_symbol
 _atom_site_label
 _atom_site_symmetry_multiplicity
 _atom_site_fract_x
 _atom_site_fract_y
 _atom_site_fract_z
 _atom_site_occupancy
  K  K0  1  0.95414600  0.33396900  0.41734400  1
  K  K1  1  0.54585400  0.33396900  0.91734400  1
  K  K2  1  0.04585400  0.66603100  0.58265600  1
  K  K3  1  0.45414600  0.66603100  0.08265600  1
  K  K4  1  0.56772900  0.36771100  0.38729200  1
  K  K5  1  0.93227100  0.36771100  0.88729200  1
  K  K6  1  0.43227100  0.63228900  0.61270800  1
  K  K7  1  0.06772900  0.63228900  0.11270800  1
  Te  Te0  1  0.00519000  0.05141700  0.69879800  1
  Te  Te1  1  0.49481000  0.05141700  0.19879800  1
  Te  Te2  1  0.99481000  0.94858300  0.30120200  1
  Te  Te3  1  0.50519000  0.94858300  0.80120200  1
  W  W0  1  0.29612500  0.16610700  0.57941500  1
  W  W1  1  0.20387500  0.16610700  0.07941500  1
  W  W2  1  0.70387500  0.83389300  0.42058500  1
  W  W3  1  0.79612500  0.83389300  0.92058500  1
  W  W4  1  0.24547500  0.18120800  0.32719500  1
  W  W5  1  0.25452500  0.18120800  0.82719500  1
  W  W6  1  0.75452500  0.81879200  0.67280500  1
  W  W7  1  0.74547500  0.81879200  0.17280500  1
  W  W8  1  0.24887900  0.66796400  0.33205600  1
  W  W9  1  0.25112100  0.66796400  0.83205600  1
  W  W10  1  0.75112100  0.33203600  0.66794400  1
  W  W11  1  0.74887900  0.33203600  0.16794400  1
  O  O0  1  0.91972900  0.30598700  0.63086600  1
  O  O1  1  0.58027100  0.30598700  0.13086600  1
  O  O2  1  0.08027100  0.69401300  0.36913400  1
  O  O3  1  0.41972900  0.69401300  0.86913400  1
  O  O4  1  0.92221600  0.92972000  0.63073800  1
  O  O5  1  0.57778400  0.92972000  0.13073800  1
  O  O6  1  0.07778400  0.07028000  0.36926200  1
  O  O7  1  0.42221600  0.07028000  0.86926200  1
  O  O8  1  0.11866900  0.15850500  0.59657200  1
  O  O9  1  0.38133100  0.15850500  0.09657200  1
  O  O10  1  0.88133100  0.84149500  0.40342800  1
  O  O11  1  0.61866900  0.84149500  0.90342800  1
  O  O12  1  0.30004300  0.87781600  0.68768300  1
  O  O13  1  0.19995700  0.87781600  0.18768300  1
  O  O14  1  0.69995700  0.12218400  0.31231700  1
  O  O15  1  0.80004300  0.12218400  0.81231700  1
  O  O16  1  0.26697800  0.46272000  0.47548500  1
  O  O17  1  0.23302200  0.46272000  0.97548500  1
  O  O18  1  0.73302200  0.53728000  0.52451500  1
  O  O19  1  0.76697800  0.53728000  0.02451500  1
  O  O20  1  0.26215700  0.09051400  0.47333300  1
  O  O21  1  0.23784300  0.09051400  0.97333300  1
  O  O22  1  0.73784300  0.90948600  0.52666700  1
  O  O23  1  0.76215700  0.90948600  0.02666700  1
  O  O24  1  0.44239200  0.18828000  0.55497500  1
  O  O25  1  0.05760800  0.18828000  0.05497500  1
  O  O26  1  0.55760800  0.81172000  0.44502500  1
  O  O27  1  0.94239200  0.81172000  0.94502500  1
  O  O28  1  0.38625000  0.26815700  0.28675900  1
  O  O29  1  0.11375000  0.26815700  0.78675900  1
  O  O30  1  0.61375000  0.73184300  0.71324100  1
  O  O31  1  0.88625000  0.73184300  0.21324100  1
  O  O32  1  0.19587800  0.24672800  0.18707100  1
  O  O33  1  0.30412200  0.24672800  0.68707100  1
  O  O34  1  0.80412200  0.75327200  0.81292900  1
  O  O35  1  0.69587800  0.75327200  0.31292900  1
  O  O36  1  0.19068500  0.44938000  0.30430700  1
  O  O37  1  0.30931500  0.44938000  0.80430700  1
  O  O38  1  0.80931500  0.55062000  0.69569300  1
  O  O39  1  0.69068500  0.55062000  0.19569300  1
  O  O40  1  0.38864600  0.66287200  0.28848700  1
  O  O41  1  0.11135400  0.66287200  0.78848700  1
  O  O42  1  0.61135400  0.33712800  0.71151300  1
  O  O43  1  0.88864600  0.33712800  0.21151300  1
  O  O44  1  0.27846200  0.89766100  0.35578100  1
  O  O45  1  0.22153800  0.89766100  0.85578100  1
  O  O46  1  0.72153800  0.10233900  0.64421900  1
  O  O47  1  0.77846200  0.10233900  0.14421900  1
loop_
_geom_bond_atom_site_label_1
_geom_bond_atom_site_label_2
_geom_bond_distance
_geom_bond_site_symmetry_2
K0 O6 2.807468 1_655
K0 O2 2.827129 1_655
K0 O8 3.029406 1_655
K0 O0 3.092314 1_555
K0 O31 3.101653 1_555
K0 O4 3.112377 1_545
K0 O43 3.136353 1_555
K0 O36 3.179918 1_655
K1 O7 2.807468 1_555
K1 O3 2.827129 1_555
K1 O9 3.029406 1_556
K1 O1 3.092314 1_556
K1 O30 3.101653 1_555
K1 O5 3.112377 1_546
K1 O42 3.136353 1_555
K1 O37 3.179918 1_555
K2 O4 2.807468 1_455
K2 O0 2.827129 1_455
K2 O10 3.029406 1_455
K2 O2 3.092314 1_555
K2 O29 3.101653 1_555
K2 O6 3.112377 1_565
K2 O41 3.136353 1_555
K2 O38 3.179918 1_455
K3 O5 2.807468 1_555
K3 O1 2.827129 1_555
K3 O11 3.029406 1_554
K3 O3 3.092314 1_554
K3 O28 3.101653 1_555
K3 O7 3.112377 1_564
K3 O40 3.136353 1_555
K3 O39 3.179918 1_555
K4 O24 2.626754 1_555
K4 O39 2.868647 1_555
K4 O40 2.884704 1_555
K4 O28 2.925674 1_555
K4 O35 2.928974 1_555
K4 O14 3.006626 1_555
K5 O25 2.626754 1_656
K5 O38 2.868647 1_555
K5 O41 2.884704 1_655
K5 O29 2.925674 1_655
K5 O34 2.928974 1_555
K5 O15 3.006626 1_555
K6 O26 2.626754 1_555
K6 O37 2.868647 1_555
K6 O42 2.884704 1_555
K6 O30 2.925674 1_555
K6 O33 2.928974 1_555
K6 O12 3.006626 1_555
K7 O27 2.626754 1_454
K7 O36 2.868647 1_555
K7 O43 2.884704 1_455
K7 O31 2.925674 1_455
K7 O32 2.928974 1_555
K7 O13 3.006626 1_555
O0 Te0 1.929190 1_655
O0 W10 2.123470 1_555
O1 Te1 1.929190 1_555
O1 W11 2.123470 1_555
O2 Te2 1.929190 1_455
O2 W8 2.123470 1_555
O3 Te3 1.929190 1_555
O3 W9 2.123470 1_555
O4 Te0 1.927146 1_665
O4 W6 2.138878 1_555
O5 Te1 1.927146 1_565
O5 W7 2.138878 1_555
O6 Te2 1.927146 1_445
O6 W4 2.138878 1_555
O7 Te3 1.927146 1_545
O7 W5 2.138878 1_555
O8 Te0 1.889252 1_555
O8 W0 2.134610 1_555
O9 Te1 1.889252 1_555
O9 W1 2.134610 1_555
O10 Te2 1.889252 1_555
O10 W2 2.134610 1_555
O11 Te3 1.889252 1_555
O11 W3 2.134610 1_555
O12 W0 1.929983 1_565
O12 W9 2.006433 1_555
O13 W1 1.929983 1_565
O13 W8 2.006433 1_555
O14 W2 1.929983 1_545
O14 W11 2.006433 1_555
O15 W3 1.929983 1_545
O15 W10 2.006433 1_555
O16 W8 1.913009 1_555
O16 W0 1.987654 1_555
O17 W9 1.913009 1_555
O17 W1 1.987654 1_556
O18 W10 1.913009 1_555
O18 W2 1.987654 1_555
O19 W11 1.913009 1_555
O19 W3 1.987654 1_554
O20 W4 1.931628 1_555
O20 W0 1.954484 1_555
O21 W5 1.931628 1_555
O21 W1 1.954484 1_556
O22 W6 1.931628 1_555
O22 W2 1.954484 1_555
O23 W7 1.931628 1_555
O23 W3 1.954484 1_554
O24 W0 1.777126 1_555
O25 W1 1.777126 1_555
O26 W2 1.777126 1_555
O27 W3 1.777126 1_555
O28 W4 1.795417 1_555
O29 W5 1.795417 1_555
O30 W6 1.795417 1_555
O31 W7 1.795417 1_555
O32 W1 1.962879 1_555
O32 W4 1.973275 1_555
O33 W0 1.962879 1_555
O33 W5 1.973275 1_555
O34 W3 1.962879 1_555
O34 W6 1.973275 1_555
O35 W2 1.962879 1_555
O35 W7 1.973275 1_555
O36 W4 1.952911 1_555
O36 W8 1.982521 1_555
O37 W5 1.952911 1_555
O37 W9 1.982521 1_555
O38 W6 1.952911 1_555
O38 W10 1.982521 1_555
O39 W7 1.952911 1_555
O39 W11 1.982521 1_555
O40 W8 1.798718 1_555
O41 W9 1.798718 1_555
O42 W10 1.798718 1_555
O43 W11 1.798718 1_555
O44 W8 1.931723 1_555
O44 W4 1.963347 1_565
O45 W9 1.931723 1_555
O45 W5 1.963347 1_565
O46 W10 1.931723 1_555
O46 W6 1.963347 1_545
O47 W11 1.931723 1_555
O47 W7 1.963347 1_545
