# generated using pymatgen
data_Cr2F5
_symmetry_space_group_name_H-M   'P 1'
_cell_length_a   5.36720212
_cell_length_b   5.36697694
_cell_length_c   7.11416549
_cell_angle_alpha   68.55215492
_cell_angle_beta   68.54724405
_cell_angle_gamma   87.60929518
_symmetry_Int_Tables_number   1
_chemical_formula_structural   Cr2F5
_chemical_formula_sum   'Cr4 F10'
_cell_volume   176.51829699
_cell_formula_units_Z   2
loop_
 _symmetry_equiv_pos_site_id
 _symmetry_equiv_pos_as_xyz
  1  'x, y, z'
loop_
 _atom_site_type_symbol
 _atom_site_label
 _atom_site_symmetry_multiplicity
 _atom_site_fract_x
 _atom_site_fract_y
 _atom_site_fract_z
 _atom_site_occupancy
  Cr  Cr0  1  -0.00000000  -0.00000000  0.50000000  1
  Cr  Cr1  1  0.50000000  0.50000000  0.00000000  1
  Cr  Cr2  1  0.50000000  0.50000000  0.50000000  1
  Cr  Cr3  1  -0.00000000  -0.00000000  0.00000000  1
  F  F0  1  0.67192180  0.17908175  0.54231570  1
  F  F1  1  0.32090498  0.82805126  0.95767293  1
  F  F2  1  0.32807820  0.82091825  0.45768430  1
  F  F3  1  0.67909502  0.17194874  0.04232707  1
  F  F4  1  0.18048905  0.31952023  0.74999821  1
  F  F5  1  0.81951095  0.68047977  0.25000179  1
  F  F6  1  0.90898554  0.85173089  0.82129981  1
  F  F7  1  0.64836794  0.59108816  0.67863064  1
  F  F8  1  0.09101446  0.14826911  0.17870019  1
  F  F9  1  0.35163206  0.40891184  0.32136936  1
loop_
_geom_bond_atom_site_label_1
_geom_bond_atom_site_label_2
_geom_bond_distance
_geom_bond_site_symmetry_2
Cr0 F2 1.948765 1_545
Cr0 F0 1.948765 1_455
Cr0 F8 1.995528 1_555
Cr0 F6 1.995528 1_445
Cr0 F9 2.558276 1_555
Cr0 F7 2.558276 1_445
Cr1 F3 1.948675 1_555
Cr1 F1 1.948675 1_554
Cr1 F7 1.995886 1_554
Cr1 F9 1.995886 1_555
Cr1 F6 2.558833 1_554
Cr1 F8 2.558833 1_555
Cr2 F0 1.897370 1_555
Cr2 F2 1.897370 1_555
Cr2 F4 1.920937 1_555
Cr2 F5 1.920937 1_555
Cr2 F9 1.927461 1_555
Cr2 F7 1.927461 1_555
Cr3 F1 1.897392 1_544
Cr3 F3 1.897392 1_455
Cr3 F5 1.921009 1_445
Cr3 F4 1.921009 1_554
Cr3 F8 1.927324 1_555
Cr3 F6 1.927324 1_444
