# generated using pymatgen
data_Si(PbS2)2
_symmetry_space_group_name_H-M   'P 1'
_cell_length_a   6.83316106
_cell_length_b   6.63660902
_cell_length_c   16.84513501
_cell_angle_alpha   71.49330003
_cell_angle_beta   90.00000000
_cell_angle_gamma   90.00000000
_symmetry_Int_Tables_number   1
_chemical_formula_structural   Si(PbS2)2
_chemical_formula_sum   'Si4 Pb8 S16'
_cell_volume   724.40589232
_cell_formula_units_Z   4
loop_
 _symmetry_equiv_pos_site_id
 _symmetry_equiv_pos_as_xyz
  1  'x, y, z'
loop_
 _atom_site_type_symbol
 _atom_site_label
 _atom_site_symmetry_multiplicity
 _atom_site_fract_x
 _atom_site_fract_y
 _atom_site_fract_z
 _atom_site_occupancy
  Si  Si0  1  0.75711933  0.21128111  0.10193336  1
  Si  Si1  1  0.24288067  0.78871889  0.89806664  1
  Si  Si2  1  0.25711933  0.78871889  0.39806664  1
  Si  Si3  1  0.74288067  0.21128111  0.60193336  1
  Pb  Pb0  1  0.70629303  0.75770552  0.02113198  1
  Pb  Pb1  1  0.79370697  0.75770552  0.52113198  1
  Pb  Pb2  1  0.32813634  0.26442453  0.71048432  1
  Pb  Pb3  1  0.67186366  0.73557547  0.28951568  1
  Pb  Pb4  1  0.17186366  0.26442453  0.21048432  1
  Pb  Pb5  1  0.29370697  0.24229448  0.97886802  1
  Pb  Pb6  1  0.82813634  0.73557547  0.78951568  1
  Pb  Pb7  1  0.20629303  0.24229448  0.47886802  1
  S  S0  1  0.50843367  0.98380363  0.37595290  1
  S  S1  1  0.27840287  0.61879273  0.02759451  1
  S  S2  1  0.71646754  0.42063156  0.67471608  1
  S  S3  1  0.48965607  0.99297126  0.86078143  1
  S  S4  1  0.78353246  0.42063156  0.17471608  1
  S  S5  1  0.72159713  0.38120727  0.97240549  1
  S  S6  1  -0.01034393  0.00702874  0.63921857  1
  S  S7  1  0.49156633  0.01619637  0.62404710  1
  S  S8  1  0.22159713  0.61879273  0.52759451  1
  S  S9  1  0.01034393  0.99297126  0.36078143  1
  S  S10  1  0.00843367  0.01619637  0.12404710  1
  S  S11  1  0.21646754  0.57936844  0.82528392  1
  S  S12  1  0.99156633  0.98380363  0.87595290  1
  S  S13  1  0.77840287  0.38120727  0.47240549  1
  S  S14  1  0.28353246  0.57936844  0.32528392  1
  S  S15  1  0.51034393  0.00702874  0.13921857  1
loop_
_geom_bond_atom_site_label_1
_geom_bond_atom_site_label_2
_geom_bond_distance
_geom_bond_site_symmetry_2
Pb0 S5 2.868798 1_554
Pb0 S4 2.881333 1_555
Pb0 S3 3.041039 1_554
Pb0 S1 3.057272 1_555
Pb0 S12 3.114899 1_554
Pb0 S15 3.252237 1_565
Pb1 S13 2.868798 1_555
Pb1 S2 2.881333 1_555
Pb1 S9 3.041039 1_655
Pb1 S8 3.057272 1_655
Pb1 S0 3.114899 1_555
Pb1 S6 3.252237 1_665
Pb2 S7 2.757508 1_555
Pb2 S3 2.824539 1_545
Pb2 S2 2.842962 1_555
Pb3 S0 2.757508 1_555
Pb3 S15 2.824539 1_565
Pb3 S14 2.842962 1_555
Pb4 S10 2.757508 1_555
Pb4 S9 2.824539 1_545
Pb4 S4 2.842962 1_455
Pb5 S1 2.868798 1_556
Pb5 S11 2.881333 1_555
Pb5 S15 3.041039 1_556
Pb5 S5 3.057272 1_555
Pb5 S10 3.114899 1_556
Pb5 S3 3.252237 1_545
Pb6 S12 2.757508 1_555
Pb6 S6 2.824539 1_665
Pb6 S11 2.842962 1_655
Pb7 S8 2.868798 1_555
Pb7 S14 2.881333 1_555
Pb7 S6 3.041039 1_555
Pb7 S13 3.057272 1_455
Pb7 S7 3.114899 1_555
Pb7 S9 3.252237 1_545
S0 Si2 2.111365 1_555
S1 Si1 2.128233 1_554
S2 Si3 2.132485 1_555
S3 Si1 2.129542 1_555
S4 Si0 2.132485 1_555
S5 Si0 2.128233 1_556
S6 Si3 2.129542 1_455
S7 Si3 2.111365 1_555
S8 Si2 2.128233 1_555
S9 Si2 2.129542 1_555
S10 Si0 2.111365 1_455
S11 Si1 2.132485 1_555
S12 Si1 2.111365 1_655
S13 Si3 2.128233 1_555
S14 Si2 2.132485 1_555
S15 Si0 2.129542 1_555
