# generated using pymatgen
data_CoSn2H12(OF)6
_symmetry_space_group_name_H-M   'P 1'
_cell_length_a   8.91560516
_cell_length_b   11.20856832
_cell_length_c   14.37730344
_cell_angle_alpha   77.57875109
_cell_angle_beta   83.41786983
_cell_angle_gamma   112.58671931
_symmetry_Int_Tables_number   1
_chemical_formula_structural   CoSn2H12(OF)6
_chemical_formula_sum   'Co4 Sn8 H48 O24 F24'
_cell_volume   1264.11576721
_cell_formula_units_Z   4
loop_
 _symmetry_equiv_pos_site_id
 _symmetry_equiv_pos_as_xyz
  1  'x, y, z'
loop_
 _atom_site_type_symbol
 _atom_site_label
 _atom_site_symmetry_multiplicity
 _atom_site_fract_x
 _atom_site_fract_y
 _atom_site_fract_z
 _atom_site_occupancy
  Co  Co0  1  0.50000400  0.99993300  0.50007200  1
  Co  Co1  1  0.74999000  0.50005500  0.74993000  1
  Co  Co2  1  0.99999900  0.00006000  0.99992400  1
  Co  Co3  1  0.25000600  0.49995000  0.25006300  1
  Sn  Sn0  1  0.74145400  0.51020300  0.40630100  1
  Sn  Sn1  1  0.99141700  0.01029600  0.65624200  1
  Sn  Sn2  1  0.24178600  0.51054400  0.90595400  1
  Sn  Sn3  1  0.49131300  0.01049700  0.15628000  1
  Sn  Sn4  1  0.00845900  0.98944800  0.34384500  1
  Sn  Sn5  1  0.25830500  0.48967900  0.59396000  1
  Sn  Sn6  1  0.50882000  0.98975300  0.84356100  1
  Sn  Sn7  1  0.75849000  0.48956600  0.09391600  1
  H  H0  1  0.50648900  0.72432600  0.26051400  1
  H  H1  1  0.75659000  0.22427000  0.51049300  1
  H  H2  1  0.00638900  0.72434900  0.76055000  1
  H  H3  1  0.25675100  0.22428500  0.01045500  1
  H  H4  1  0.24339600  0.77568100  0.48950500  1
  H  H5  1  0.49362400  0.27567700  0.73945900  1
  H  H6  1  0.74327000  0.77571500  0.98957200  1
  H  H7  1  0.99346900  0.27568500  0.23945600  1
  H  H8  1  0.59404600  0.89315300  0.36796000  1
  H  H9  1  0.84407900  0.39313600  0.61793200  1
  H  H10  1  0.09389900  0.89301100  0.86810700  1
  H  H11  1  0.34386000  0.39303000  0.11809600  1
  H  H12  1  0.15617500  0.60701200  0.38189800  1
  H  H13  1  0.40594600  0.10688800  0.63203400  1
  H  H14  1  0.65593200  0.60682600  0.88208400  1
  H  H15  1  0.90606400  0.10695100  0.13188300  1
  H  H16  1  0.07952200  0.87392700  0.15822400  1
  H  H17  1  0.32932500  0.37387500  0.40831800  1
  H  H18  1  0.57973600  0.87390600  0.65811800  1
  H  H19  1  0.82980600  0.37404000  0.90807300  1
  H  H20  1  0.67029700  0.62606100  0.59187800  1
  H  H21  1  0.92061200  0.12618800  0.84171500  1
  H  H22  1  0.17055400  0.62603200  0.09172300  1
  H  H23  1  0.42014400  0.12598700  0.34192900  1
  H  H24  1  0.16985800  0.87481800  0.52102300  1
  H  H25  1  0.41998500  0.37484600  0.77087200  1
  H  H26  1  0.66973700  0.87478600  0.02100500  1
  H  H27  1  0.91980800  0.37465300  0.27084900  1
  H  H28  1  0.58015000  0.62527200  0.22919200  1
  H  H29  1  0.83011000  0.12507700  0.47898000  1
  H  H30  1  0.08005600  0.62525200  0.72910900  1
  H  H31  1  0.33030300  0.12530100  0.97896300  1
  H  H32  1  0.57932200  0.79817400  0.47115500  1
  H  H33  1  0.82951500  0.29831400  0.72104700  1
  H  H34  1  0.07898600  0.79818800  0.97123700  1
  H  H35  1  0.32901700  0.29815300  0.22131400  1
  H  H36  1  0.17092700  0.70179600  0.27876500  1
  H  H37  1  0.42057900  0.20173300  0.52891900  1
  H  H38  1  0.67055600  0.70176000  0.77888900  1
  H  H39  1  0.92108700  0.20188300  0.02866700  1
  H  H40  1  0.89560900  0.77854900  0.15435200  1
  H  H41  1  0.14560100  0.27834200  0.40434700  1
  H  H42  1  0.39567500  0.77837500  0.65426100  1
  H  H43  1  0.64583200  0.27828700  0.90415600  1
  H  H44  1  0.85427800  0.72173900  0.59575900  1
  H  H45  1  0.10451100  0.22150900  0.84559700  1
  H  H46  1  0.35428700  0.72162300  0.09570700  1
  H  H47  1  0.60420600  0.22159500  0.34581200  1
  O  O0  1  0.12978200  0.60596300  0.31657900  1
  O  O1  1  0.37967400  0.10592400  0.56669600  1
  O  O2  1  0.62978200  0.60598400  0.81667700  1
  O  O3  1  0.87969200  0.10604800  0.06651400  1
  O  O4  1  0.62025000  0.89396600  0.43335700  1
  O  O5  1  0.87029500  0.39411200  0.68328300  1
  O  O6  1  0.12035800  0.89404300  0.93341200  1
  O  O7  1  0.37016200  0.39396300  0.18347700  1
  O  O8  1  0.26957700  0.87149900  0.48523300  1
  O  O9  1  0.51972300  0.37150200  0.73509500  1
  O  O10  1  0.76956100  0.87154300  0.98524700  1
  O  O11  1  0.01972400  0.37149900  0.23516300  1
  O  O12  1  0.48025700  0.62850100  0.26487700  1
  O  O13  1  0.73042800  0.12844600  0.51480800  1
  O  O14  1  0.98027600  0.62853800  0.76485000  1
  O  O15  1  0.23044500  0.12847400  0.01470300  1
  O  O16  1  0.77436700  0.62610000  0.61003800  1
  O  O17  1  0.02444700  0.12588800  0.86005000  1
  O  O18  1  0.27452600  0.62592000  0.10998800  1
  O  O19  1  0.52419200  0.12596900  0.36011300  1
  O  O20  1  0.97564100  0.87419500  0.13991500  1
  O  O21  1  0.22539500  0.37402100  0.39003500  1
  O  O22  1  0.47574100  0.87397300  0.63991300  1
  O  O23  1  0.72568500  0.37395400  0.88993500  1
  F  F0  1  0.48848000  0.36840900  0.46033800  1
  F  F1  1  0.73855500  0.86839800  0.71047200  1
  F  F2  1  0.98878200  0.36857000  0.96015700  1
  F  F3  1  0.23828800  0.86857500  0.21060200  1
  F  F4  1  0.26140900  0.13144300  0.28951700  1
  F  F5  1  0.51123900  0.63155700  0.53983400  1
  F  F6  1  0.76169900  0.13158200  0.78935900  1
  F  F7  1  0.01155200  0.63144200  0.03968900  1
  F  F8  1  0.74773800  0.38087400  0.31847000  1
  F  F9  1  0.99777700  0.88094300  0.56859000  1
  F  F10  1  0.24797300  0.38098500  0.81836600  1
  F  F11  1  0.49760400  0.88104500  0.06845900  1
  F  F12  1  0.00217900  0.11891500  0.43149900  1
  F  F13  1  0.25207900  0.61915200  0.68153500  1
  F  F14  1  0.50244600  0.11903400  0.93140800  1
  F  F15  1  0.75227900  0.61907100  0.18171900  1
  F  F16  1  0.95087800  0.11877500  0.23911300  1
  F  F17  1  0.20065900  0.61880300  0.48930900  1
  F  F18  1  0.45095700  0.11886000  0.73925300  1
  F  F19  1  0.70045400  0.61872300  0.98940300  1
  F  F20  1  0.79942000  0.38114600  0.51061700  1
  F  F21  1  0.04890900  0.88113000  0.76083900  1
  F  F22  1  0.29949300  0.38125000  0.01073600  1
  F  F23  1  0.54915800  0.88128200  0.26075700  1
loop_
_geom_bond_atom_site_label_1
_geom_bond_atom_site_label_2
_geom_bond_distance
_geom_bond_site_symmetry_2
Co0 O13 2.073191 1_565
Co0 O8 2.073454 1_555
Co0 O22 2.127648 1_555
Co0 O19 2.129523 1_565
Co0 O4 2.170844 1_555
Co0 O1 2.170900 1_565
Co1 O9 2.072833 1_555
Co1 O14 2.073141 1_555
Co1 O16 2.128363 1_555
Co1 O23 2.130080 1_555
Co1 O5 2.170472 1_555
Co1 O2 2.170500 1_555
Co2 O10 2.072988 1_545
Co2 O15 2.073189 1_656
Co2 O17 2.126970 1_655
Co2 O20 2.128684 1_546
Co2 O3 2.170492 1_556
Co2 O6 2.170503 1_645
Co3 O12 2.072610 1_555
Co3 O11 2.072888 1_555
Co3 O21 2.128182 1_555
Co3 O18 2.129758 1_555
Co3 O7 2.169574 1_555
Co3 O0 2.169707 1_555
H0 O12 0.993445 1_555
H1 O13 0.993687 1_555
H2 O14 0.993669 1_455
H3 O15 0.993495 1_555
H4 O8 0.993711 1_555
H5 O9 0.993665 1_555
H6 O10 0.993487 1_555
H7 O11 0.993484 1_655
H8 O4 0.995545 1_555
H9 O5 0.995162 1_555
H10 O6 0.995332 1_555
H11 O7 0.995783 1_555
H12 O0 0.995351 1_555
H13 O1 0.995133 1_555
H14 O2 0.995561 1_555
H15 O3 0.995786 1_555
H16 O20 0.992354 1_455
H17 O21 0.992221 1_555
H18 O22 0.992095 1_555
H19 O23 0.992304 1_555
H20 O16 0.992141 1_555
H21 O17 0.992206 1_655
H22 O18 0.992370 1_555
H23 O19 0.992273 1_555
H24 O8 0.992644 1_555
H25 O9 0.992847 1_555
H26 O10 0.992826 1_554
H27 O11 0.992596 1_655
H28 O12 0.992829 1_555
H29 O13 0.992871 1_555
H30 O14 0.992626 1_455
H31 O15 0.992589 1_556
H32 O4 0.991895 1_555
H33 O5 0.991964 1_555
H34 O6 0.992151 1_555
H35 O7 0.992002 1_555
H36 O0 0.992124 1_555
H37 O1 0.991992 1_555
H38 O2 0.991861 1_555
H39 O3 0.992031 1_555
H40 O20 0.992084 1_555
H41 O21 0.991964 1_555
H42 O22 0.991896 1_555
H43 O23 0.992149 1_555
H44 O16 0.991965 1_555
H45 O17 0.991927 1_555
H46 O18 0.992135 1_555
H47 O19 0.992077 1_555
F0 Sn0 2.128374 1_555
F1 Sn1 2.128181 1_565
F2 Sn2 2.129296 1_655
F3 Sn3 2.129424 1_565
F4 Sn4 2.129157 1_545
F5 Sn5 2.128466 1_555
F6 Sn6 2.128056 1_545
F7 Sn7 2.129416 1_455
F8 H27 1.639824 1_555
F8 H47 1.675465 1_555
F8 Sn0 2.129013 1_555
F9 H24 1.639136 1_655
F9 H44 1.674967 1_555
F9 Sn1 2.127488 1_565
F10 H25 1.638323 1_555
F10 H45 1.676987 1_555
F10 Sn2 2.128363 1_555
F11 H26 1.639776 1_555
F11 H46 1.676108 1_555
F11 Sn3 2.130049 1_565
F12 H29 1.638849 1_455
F12 H41 1.676569 1_555
F12 Sn4 2.128398 1_545
F13 H30 1.638563 1_555
F13 H42 1.675279 1_555
F13 Sn5 2.127512 1_555
F14 H31 1.640364 1_555
F14 H43 1.674935 1_555
F14 Sn6 2.128918 1_545
F15 H28 1.639512 1_555
F15 H40 1.676458 1_555
F15 Sn7 2.130188 1_555
F16 H7 1.651824 1_555
F16 H15 1.656021 1_555
F16 Sn4 2.107604 1_645
F17 H4 1.650697 1_555
F17 H12 1.657561 1_555
F17 Sn5 2.105825 1_555
F18 H5 1.650177 1_555
F18 H13 1.656736 1_555
F18 Sn6 2.103920 1_545
F19 H6 1.651720 1_555
F19 H14 1.656601 1_555
F19 Sn7 2.106932 1_556
F20 H1 1.650261 1_555
F20 H9 1.657127 1_555
F20 Sn0 2.104179 1_555
F21 H2 1.650324 1_555
F21 H10 1.657172 1_555
F21 Sn1 2.104849 1_465
F22 H3 1.651956 1_555
F22 H11 1.656493 1_555
F22 Sn2 2.108461 1_554
F23 H0 1.651833 1_555
F23 H8 1.655951 1_555
F23 Sn3 2.106027 1_565
