# generated using pymatgen
data_SiO2
_symmetry_space_group_name_H-M   'P 1'
_cell_length_a   7.50540317
_cell_length_b   10.15408333
_cell_length_c   14.01310505
_cell_angle_alpha   90.00000000
_cell_angle_beta   90.00000000
_cell_angle_gamma   111.68944971
_symmetry_Int_Tables_number   1
_chemical_formula_structural   SiO2
_chemical_formula_sum   'Si18 O36'
_cell_volume   992.33572700
_cell_formula_units_Z   18
loop_
 _symmetry_equiv_pos_site_id
 _symmetry_equiv_pos_as_xyz
  1  'x, y, z'
loop_
 _atom_site_type_symbol
 _atom_site_label
 _atom_site_symmetry_multiplicity
 _atom_site_fract_x
 _atom_site_fract_y
 _atom_site_fract_z
 _atom_site_occupancy
  Si  Si0  1  0.88205969  0.35232313  0.94982525  1
  Si  Si1  1  0.92050172  0.84100244  0.54020271  1
  Si  Si2  1  0.11794031  0.64767687  0.44982525  1
  Si  Si3  1  0.52973756  0.64767687  0.44982525  1
  Si  Si4  1  0.86013985  0.72027969  0.75000000  1
  Si  Si5  1  0.47026244  0.35232313  0.55017475  1
  Si  Si6  1  0.11794031  0.64767687  0.05017475  1
  Si  Si7  1  0.13986015  0.27972031  0.25000000  1
  Si  Si8  1  0.55703867  0.52575175  0.25000000  1
  Si  Si9  1  0.47026244  0.35232313  0.94982525  1
  Si  Si10  1  0.44296133  0.47424825  0.75000000  1
  Si  Si11  1  0.52973756  0.64767687  0.05017475  1
  Si  Si12  1  0.03128793  0.47424825  0.75000000  1
  Si  Si13  1  0.07949828  0.15899756  0.04020271  1
  Si  Si14  1  0.07949828  0.15899756  0.45979729  1
  Si  Si15  1  0.92050172  0.84100244  0.95979729  1
  Si  Si16  1  0.88205969  0.35232313  0.55017475  1
  Si  Si17  1  0.96871207  0.52575175  0.25000000  1
  O  O0  1  0.34441397  0.68882594  0.03718709  1
  O  O1  1  0.65558603  0.31117406  0.53718709  1
  O  O2  1  0.50000000  0.50000000  0.50000000  1
  O  O3  1  0.93963835  0.37196704  0.83914778  1
  O  O4  1  0.01803688  0.38317997  0.25000000  1
  O  O5  1  0.29303576  0.23052103  0.50166555  1
  O  O6  1  0.91069416  0.82138933  0.65585348  1
  O  O7  1  0.93963835  0.37196704  0.66085222  1
  O  O8  1  0.91069416  0.82138933  0.84414652  1
  O  O9  1  0.93748427  0.23052103  0.99833445  1
  O  O10  1  0.00000000  -0.00000000  0.00000000  1
  O  O11  1  0.36514310  0.38317997  0.25000000  1
  O  O12  1  0.06251573  0.76947897  0.00166555  1
  O  O13  1  0.70696424  0.76947897  0.00166555  1
  O  O14  1  0.43232869  0.37196704  0.66085222  1
  O  O15  1  0.08930584  0.17861067  0.15585348  1
  O  O16  1  0.93748427  0.23052103  0.50166555  1
  O  O17  1  0.73779539  0.47558878  0.25000000  1
  O  O18  1  0.08930584  0.17861067  0.34414652  1
  O  O19  1  0.26220461  0.52441122  0.75000000  1
  O  O20  1  0.56767131  0.62803296  0.33914778  1
  O  O21  1  0.34441397  0.68882594  0.46281291  1
  O  O22  1  0.00000000  0.50000000  0.00000000  1
  O  O23  1  0.43232869  0.37196704  0.83914778  1
  O  O24  1  0.70696424  0.76947897  0.49833445  1
  O  O25  1  0.56767131  0.62803296  0.16085222  1
  O  O26  1  0.06251573  0.76947897  0.49833445  1
  O  O27  1  0.65558603  0.31117406  0.96281291  1
  O  O28  1  0.00000000  -0.00000000  0.50000000  1
  O  O29  1  0.98196312  0.61682003  0.75000000  1
  O  O30  1  0.06036165  0.62803296  0.33914778  1
  O  O31  1  0.06036165  0.62803296  0.16085222  1
  O  O32  1  0.63485690  0.61682003  0.75000000  1
  O  O33  1  0.50000000  0.50000000  0.00000000  1
  O  O34  1  0.29303576  0.23052103  0.99833445  1
  O  O35  1  0.00000000  0.50000000  0.50000000  1
loop_
_geom_bond_atom_site_label_1
_geom_bond_atom_site_label_2
_geom_bond_distance
_geom_bond_site_symmetry_2
O0 Si11 1.603734 1_555
O0 Si6 1.603741 1_555
O1 Si5 1.603734 1_555
O1 Si16 1.603741 1_555
O2 Si3 1.595418 1_555
O2 Si5 1.595418 1_555
O3 Si0 1.602569 1_555
O3 Si12 1.607587 1_655
O4 Si17 1.621414 1_455
O4 Si7 1.627765 1_555
O5 Si5 1.595321 1_555
O5 Si14 1.606215 1_555
O6 Si4 1.628068 1_555
O6 Si1 1.631157 1_555
O7 Si16 1.602569 1_555
O7 Si12 1.607587 1_655
O8 Si4 1.628068 1_555
O8 Si15 1.631157 1_555
O9 Si0 1.595321 1_555
O9 Si13 1.606215 1_656
O10 Si15 1.602464 1_444
O10 Si13 1.602464 1_555
O11 Si8 1.621409 1_555
O11 Si7 1.627765 1_555
O12 Si6 1.595321 1_555
O12 Si15 1.606215 1_454
O13 Si11 1.595321 1_555
O13 Si15 1.606215 1_554
O14 Si5 1.602567 1_555
O14 Si10 1.607586 1_555
O15 Si7 1.628068 1_555
O15 Si13 1.631157 1_555
O16 Si16 1.595321 1_555
O16 Si14 1.606215 1_655
O17 Si17 1.615751 1_555
O17 Si8 1.615773 1_555
O18 Si7 1.628068 1_555
O18 Si14 1.631157 1_555
O19 Si12 1.615751 1_555
O19 Si10 1.615773 1_555
O20 Si3 1.602567 1_555
O20 Si8 1.607586 1_555
O21 Si3 1.603734 1_555
O21 Si2 1.603741 1_555
O22 Si0 1.595420 1_454
O22 Si6 1.595420 1_555
O23 Si9 1.602567 1_555
O23 Si10 1.607586 1_555
O24 Si3 1.595321 1_555
O24 Si1 1.606215 1_555
O25 Si11 1.602567 1_555
O25 Si8 1.607586 1_555
O26 Si2 1.595321 1_555
O26 Si1 1.606215 1_455
O27 Si9 1.603734 1_555
O27 Si0 1.603741 1_555
O28 Si1 1.602464 1_445
O28 Si14 1.602464 1_555
O29 Si12 1.621414 1_655
O29 Si4 1.627765 1_555
O30 Si2 1.602569 1_555
O30 Si17 1.607587 1_455
O31 Si6 1.602569 1_555
O31 Si17 1.607587 1_455
O32 Si10 1.621409 1_555
O32 Si4 1.627765 1_555
O33 Si11 1.595418 1_555
O33 Si9 1.595418 1_554
O34 Si9 1.595321 1_555
O34 Si13 1.606215 1_556
O35 Si2 1.595420 1_555
O35 Si16 1.595420 1_455
