# generated using pymatgen
data_K3V(SO)2
_symmetry_space_group_name_H-M   'P 1'
_cell_length_a   7.39834100
_cell_length_b   10.70643600
_cell_length_c   11.82921248
_cell_angle_alpha   58.17258961
_cell_angle_beta   90.00000000
_cell_angle_gamma   90.00000000
_symmetry_Int_Tables_number   1
_chemical_formula_structural   K3V(SO)2
_chemical_formula_sum   'K12 V4 S8 O8'
_cell_volume   796.10492075
_cell_formula_units_Z   4
loop_
 _symmetry_equiv_pos_site_id
 _symmetry_equiv_pos_as_xyz
  1  'x, y, z'
loop_
 _atom_site_type_symbol
 _atom_site_label
 _atom_site_symmetry_multiplicity
 _atom_site_fract_x
 _atom_site_fract_y
 _atom_site_fract_z
 _atom_site_occupancy
  K  K0  1  0.74105900  0.06334400  0.88245100  1
  K  K1  1  0.86446500  0.51575200  0.16028000  1
  K  K2  1  0.25894100  0.93665600  0.11754900  1
  K  K3  1  0.75894100  0.06334400  0.38245100  1
  K  K4  1  0.13553500  0.48424800  0.83972000  1
  K  K5  1  0.72466000  0.76899100  0.79350300  1
  K  K6  1  0.36446500  0.48424800  0.33972000  1
  K  K7  1  0.22466000  0.23100900  0.70649700  1
  K  K8  1  0.27534000  0.23100900  0.20649700  1
  K  K9  1  0.77534000  0.76899100  0.29350300  1
  K  K10  1  0.24105900  0.93665600  0.61754900  1
  K  K11  1  0.63553500  0.51575200  0.66028000  1
  V  V0  1  0.69906300  0.30665300  0.02830800  1
  V  V1  1  0.80093700  0.30665300  0.52830800  1
  V  V2  1  0.30093700  0.69334700  0.97169200  1
  V  V3  1  0.19906300  0.69334700  0.47169200  1
  S  S0  1  0.46539600  0.24961000  0.94310600  1
  S  S1  1  0.58068000  0.13935900  0.59106800  1
  S  S2  1  0.96539600  0.75039000  0.55689400  1
  S  S3  1  0.53460400  0.75039000  0.05689400  1
  S  S4  1  0.03460400  0.24961000  0.44310600  1
  S  S5  1  0.08068000  0.86064100  0.90893200  1
  S  S6  1  0.41932000  0.86064100  0.40893200  1
  S  S7  1  0.91932000  0.13935900  0.09106800  1
  O  O0  1  0.28424200  0.52456800  0.58537500  1
  O  O1  1  0.62973800  0.30492500  0.16620700  1
  O  O2  1  0.78424200  0.47543200  0.91462500  1
  O  O3  1  0.21575800  0.52456800  0.08537500  1
  O  O4  1  0.87026200  0.30492500  0.66620700  1
  O  O5  1  0.71575800  0.47543200  0.41462500  1
  O  O6  1  0.12973800  0.69507500  0.33379300  1
  O  O7  1  0.37026200  0.69507500  0.83379300  1
loop_
_geom_bond_atom_site_label_1
_geom_bond_atom_site_label_2
_geom_bond_distance
_geom_bond_site_symmetry_2
K0 O4 2.677433 1_555
K0 S0 3.187530 1_555
K0 S5 3.225570 1_645
K0 S3 3.244282 1_546
K0 S7 3.257284 1_556
K0 S1 3.315442 1_555
K1 O3 2.731399 1_655
K1 O1 2.819348 1_555
K1 O5 3.013164 1_555
K1 O2 3.210292 1_554
K1 S3 3.243726 1_555
K1 S4 3.292723 1_655
K1 S5 3.667996 1_654
K2 O6 2.677433 1_555
K2 S3 3.187530 1_555
K2 S7 3.225570 1_465
K2 S0 3.244282 1_564
K2 S5 3.257284 1_554
K2 S6 3.315442 1_555
K3 O1 2.677433 1_555
K3 S4 3.187530 1_655
K3 S6 3.225570 1_545
K3 S2 3.244282 1_545
K3 S1 3.257284 1_555
K3 S7 3.315442 1_555
K4 O2 2.731399 1_455
K4 O7 2.819348 1_555
K4 O0 3.013164 1_555
K4 O3 3.210292 1_556
K4 S0 3.243726 1_555
K4 S2 3.292723 1_455
K4 S7 3.667996 1_456
K5 O7 2.707448 1_555
K5 O2 2.715845 1_555
K5 S3 3.327155 1_556
K5 S5 3.343371 1_655
K5 S2 3.410795 1_555
K5 S1 3.546491 1_565
K6 O5 2.731399 1_555
K6 O6 2.819348 1_555
K6 O3 3.013164 1_555
K6 O0 3.210292 1_555
K6 S4 3.243726 1_555
K6 S3 3.292723 1_555
K6 S1 3.667996 1_555
K7 O4 2.707448 1_455
K7 O0 2.715845 1_555
K7 S4 3.327155 1_555
K7 S1 3.343371 1_555
K7 S0 3.410795 1_555
K7 S5 3.546491 1_545
K8 O1 2.707448 1_555
K8 O3 2.715845 1_555
K8 S0 3.327155 1_554
K8 S7 3.343371 1_455
K8 S4 3.410795 1_555
K8 S6 3.546491 1_545
K9 O6 2.707448 1_655
K9 O5 2.715845 1_555
K9 S2 3.327155 1_555
K9 S6 3.343371 1_555
K9 S3 3.410795 1_555
K9 S7 3.546491 1_565
K10 O7 2.677433 1_555
K10 S2 3.187530 1_455
K10 S1 3.225570 1_565
K10 S4 3.244282 1_565
K10 S6 3.257284 1_555
K10 S5 3.315442 1_555
K11 O0 2.731399 1_555
K11 O4 2.819348 1_555
K11 O2 3.013164 1_555
K11 O5 3.210292 1_555
K11 S2 3.243726 1_555
K11 S0 3.292723 1_555
K11 S6 3.667996 1_555
S0 V0 2.242005 1_556
S1 V1 2.238787 1_555
S2 V3 2.242005 1_655
S3 V2 2.242005 1_554
S4 V1 2.242005 1_455
S5 V2 2.238787 1_555
S6 V3 2.238787 1_555
S7 V0 2.238787 1_555
O0 V3 1.705245 1_555
O1 V0 1.700735 1_555
O2 V0 1.705245 1_556
O3 V2 1.705245 1_554
O4 V1 1.700735 1_555
O5 V1 1.705245 1_555
O6 V3 1.700735 1_555
O7 V2 1.700735 1_555
