# generated using pymatgen
data_Sr2NiSe2(ClO3)2
_symmetry_space_group_name_H-M   'P 1'
_cell_length_a   5.34338510
_cell_length_b   12.93989627
_cell_length_c   12.16074126
_cell_angle_alpha   89.99662096
_cell_angle_beta   92.79532141
_cell_angle_gamma   89.99852609
_symmetry_Int_Tables_number   1
_chemical_formula_structural   Sr2NiSe2(ClO3)2
_chemical_formula_sum   'Sr8 Ni4 Se8 Cl8 O24'
_cell_volume   839.82781244
_cell_formula_units_Z   4
loop_
 _symmetry_equiv_pos_site_id
 _symmetry_equiv_pos_as_xyz
  1  'x, y, z'
loop_
 _atom_site_type_symbol
 _atom_site_label
 _atom_site_symmetry_multiplicity
 _atom_site_fract_x
 _atom_site_fract_y
 _atom_site_fract_z
 _atom_site_occupancy
  Sr  Sr0  1  0.48399691  0.39957761  0.26656075  1
  Sr  Sr1  1  0.48405818  0.89958522  0.26659094  1
  Sr  Sr2  1  0.51595778  0.10042625  0.73342445  1
  Sr  Sr3  1  0.51599166  0.60041606  0.73342640  1
  Sr  Sr4  1  0.01597508  0.14955555  0.23339250  1
  Sr  Sr5  1  0.01606009  0.64955765  0.23341845  1
  Sr  Sr6  1  0.98394054  0.35043680  0.76658354  1
  Sr  Sr7  1  0.98400304  0.85045442  0.76659870  1
  Ni  Ni0  1  0.50003874  0.74998150  0.00001514  1
  Ni  Ni1  1  -0.00000380  0.50000925  0.50000904  1
  Ni  Ni2  1  0.49998234  0.25000988  0.00000162  1
  Ni  Ni3  1  -0.00000597  0.00000078  0.50000375  1
  Se  Se0  1  0.50610884  0.12988021  0.42848554  1
  Se  Se1  1  0.50620995  0.62987287  0.42852876  1
  Se  Se2  1  0.00616651  0.12014423  0.92853902  1
  Se  Se3  1  0.00621939  0.62012251  0.92853809  1
  Se  Se4  1  0.99379835  0.37987551  0.07146074  1
  Se  Se5  1  0.99383534  0.87985194  0.07148197  1
  Se  Se6  1  0.49376417  0.37013175  0.57148013  1
  Se  Se7  1  0.49387807  0.87011488  0.57150217  1
  Cl  Cl0  1  0.45935394  0.41059425  0.89651579  1
  Cl  Cl1  1  0.45940562  0.91059092  0.89652897  1
  Cl  Cl2  1  0.54058974  0.08940791  0.10343905  1
  Cl  Cl3  1  0.54063660  0.58937793  0.10346072  1
  Cl  Cl4  1  0.04054958  0.16056795  0.60343994  1
  Cl  Cl5  1  0.04062148  0.66058101  0.60344707  1
  Cl  Cl6  1  0.95938395  0.33944021  0.39653319  1
  Cl  Cl7  1  0.95943308  0.83944404  0.39654673  1
  O  O0  1  0.25603956  0.18780245  0.88007879  1
  O  O1  1  0.25611294  0.68778132  0.88009538  1
  O  O2  1  0.74391702  0.31220759  0.11991912  1
  O  O3  1  0.74395295  0.81219592  0.11993911  1
  O  O4  1  0.75605326  0.06223612  0.38007257  1
  O  O5  1  0.75614872  0.56223336  0.38008806  1
  O  O6  1  0.24385111  0.43776987  0.61993358  1
  O  O7  1  0.24395112  0.93777597  0.61992528  1
  O  O8  1  0.27737457  0.03858781  0.39499602  1
  O  O9  1  0.27747592  0.53856748  0.39502913  1
  O  O10  1  0.77736091  0.21142143  0.89503789  1
  O  O11  1  0.77743164  0.71141503  0.89504959  1
  O  O12  1  0.22259025  0.28858672  0.10496094  1
  O  O13  1  0.22267017  0.78858023  0.10498564  1
  O  O14  1  0.72252383  0.46142405  0.60497470  1
  O  O15  1  0.72262795  0.96140792  0.60499855  1
  O  O16  1  0.94356875  0.03589074  0.82545172  1
  O  O17  1  0.94361069  0.53588772  0.82544589  1
  O  O18  1  0.55641137  0.28586990  0.67456114  1
  O  O19  1  0.55648495  0.78588214  0.67459568  1
  O  O20  1  0.44349597  0.21411674  0.32536525  1
  O  O21  1  0.44358794  0.71411614  0.32542456  1
  O  O22  1  0.05639455  0.46412192  0.17454860  1
  O  O23  1  0.05641368  0.96411333  0.17457066  1
loop_
_geom_bond_atom_site_label_1
_geom_bond_atom_site_label_2
_geom_bond_distance
_geom_bond_site_symmetry_2
Ni0 O11 2.063961 1_554
Ni0 O13 2.064004 1_555
Ni0 O1 2.070775 1_554
Ni0 O3 2.070844 1_555
Ni1 O14 2.064321 1_455
Ni1 O9 2.064379 1_555
Ni1 O5 2.070563 1_455
Ni1 O6 2.070693 1_555
Ni2 O12 2.063941 1_555
Ni2 O10 2.063958 1_554
Ni2 O2 2.070772 1_555
Ni2 O0 2.070890 1_554
Ni3 O15 2.064151 1_445
Ni3 O8 2.064294 1_555
Ni3 O7 2.070920 1_545
Ni3 O4 2.071000 1_455
Cl0 Ni2 2.433462 1_556
Cl0 Sr6 3.027299 1_455
Cl0 Sr3 3.180615 1_555
Cl0 Sr6 3.375174 1_555
Cl1 Ni0 2.433743 1_556
Cl1 Sr7 3.027171 1_455
Cl1 Sr2 3.180808 1_565
Cl1 Sr7 3.375149 1_555
Cl2 Ni2 2.433348 1_555
Cl2 Sr4 3.027269 1_655
Cl2 Sr1 3.181030 1_545
Cl2 Sr4 3.375404 1_555
Cl3 Ni0 2.433413 1_555
Cl3 Sr5 3.027566 1_655
Cl3 Sr0 3.180483 1_555
Cl3 Sr5 3.375352 1_555
Cl4 Ni3 2.433074 1_555
Cl4 Sr2 3.027448 1_555
Cl4 Sr6 3.181649 1_455
Cl4 Sr2 3.375465 1_455
Cl5 Ni1 2.433160 1_555
Cl5 Sr3 3.027330 1_555
Cl5 Sr7 3.181762 1_455
Cl5 Sr3 3.375675 1_455
Cl6 Ni1 2.433361 1_655
Cl6 Sr0 3.027272 1_555
Cl6 Sr4 3.181772 1_655
Cl6 Sr0 3.375474 1_655
Cl7 Ni3 2.433091 1_665
Cl7 Sr1 3.027134 1_555
Cl7 Sr5 3.181719 1_655
Cl7 Sr1 3.375437 1_655
O0 Se2 1.724294 1_555
O0 Sr2 2.574797 1_555
O0 Sr6 2.872525 1_455
O1 Se3 1.724304 1_555
O1 Sr3 2.574742 1_555
O1 Sr7 2.872929 1_455
O2 Se4 1.724384 1_555
O2 Sr0 2.574657 1_555
O2 Sr4 2.872466 1_655
O3 Se5 1.724305 1_555
O3 Sr1 2.574778 1_555
O3 Sr5 2.872495 1_655
O4 Se0 1.724285 1_555
O4 Sr4 2.574650 1_655
O4 Sr1 2.872513 1_545
O5 Se1 1.724359 1_555
O5 Sr5 2.574554 1_655
O5 Sr0 2.873216 1_555
O6 Se6 1.724300 1_555
O6 Sr6 2.574430 1_455
O6 Sr3 2.872905 1_555
O7 Se7 1.724370 1_555
O7 Sr7 2.574684 1_455
O7 Sr2 2.872634 1_565
O8 Se0 1.733999 1_555
O8 Sr1 2.657375 1_545
O8 Sr4 2.758023 1_555
O9 Se1 1.734138 1_555
O9 Sr0 2.657346 1_555
O9 Sr5 2.758275 1_555
O10 Se2 1.734082 1_655
O10 Sr6 2.657518 1_555
O10 Sr2 2.758458 1_555
O11 Se3 1.734120 1_655
O11 Sr7 2.657683 1_555
O11 Sr3 2.758658 1_555
O12 Se4 1.734132 1_455
O12 Sr4 2.657572 1_555
O12 Sr0 2.758324 1_555
O13 Se5 1.734149 1_455
O13 Sr5 2.657494 1_555
O13 Sr1 2.758418 1_555
O14 Se6 1.734105 1_555
O14 Sr3 2.657267 1_555
O14 Sr6 2.758242 1_555
O15 Se7 1.734080 1_555
O15 Sr2 2.657635 1_565
O15 Sr7 2.757837 1_555
O16 Se2 1.682654 1_655
O16 Sr7 2.516324 1_545
O16 Sr2 2.630760 1_555
O17 Se3 1.682550 1_655
O17 Sr6 2.516482 1_555
O17 Sr3 2.630731 1_555
O18 Se6 1.682604 1_555
O18 Sr2 2.516391 1_555
O18 Sr6 2.630575 1_555
O19 Se7 1.682436 1_555
O19 Sr3 2.516575 1_555
O19 Sr7 2.630457 1_555
O20 Se0 1.682713 1_555
O20 Sr0 2.516423 1_555
O20 Sr4 2.630283 1_555
O21 Se1 1.682633 1_555
O21 Sr1 2.516610 1_555
O21 Sr5 2.630459 1_555
O22 Se4 1.682598 1_455
O22 Sr5 2.516323 1_555
O22 Sr0 2.630687 1_555
O23 Se5 1.682716 1_455
O23 Sr4 2.516290 1_565
O23 Sr1 2.630849 1_555
