# generated using pymatgen
data_Na2Mn(PO3)5
_symmetry_space_group_name_H-M   'P 1'
_cell_length_a   13.74256900
_cell_length_b   5.29794800
_cell_length_c   8.91649682
_cell_angle_alpha   76.88462509
_cell_angle_beta   90.00000000
_cell_angle_gamma   90.00000000
_symmetry_Int_Tables_number   1
_chemical_formula_structural   Na2Mn(PO3)5
_chemical_formula_sum   'Na4 Mn2 P10 O30'
_cell_volume   632.25312024
_cell_formula_units_Z   2
loop_
 _symmetry_equiv_pos_site_id
 _symmetry_equiv_pos_as_xyz
  1  'x, y, z'
loop_
 _atom_site_type_symbol
 _atom_site_label
 _atom_site_symmetry_multiplicity
 _atom_site_fract_x
 _atom_site_fract_y
 _atom_site_fract_z
 _atom_site_occupancy
  Na  Na0  1  0.11009700  0.92544700  0.12774600  1
  Na  Na1  1  0.38990300  0.92544700  0.12774600  1
  Na  Na2  1  0.88990300  0.07455300  0.87225400  1
  Na  Na3  1  0.61009700  0.07455300  0.87225400  1
  Mn  Mn0  1  0.50000000  0.50000000  0.50000000  1
  Mn  Mn1  1  0.00000000  0.50000000  0.50000000  1
  P  P0  1  0.75000000  0.54110100  0.99633900  1
  P  P1  1  0.85970000  0.98300000  0.48685400  1
  P  P2  1  0.57907600  0.34539500  0.19189200  1
  P  P3  1  0.14030000  0.01700000  0.51314600  1
  P  P4  1  0.07907600  0.65460500  0.80810800  1
  P  P5  1  0.25000000  0.45889900  0.00366100  1
  P  P6  1  0.92092400  0.34539500  0.19189200  1
  P  P7  1  0.35970000  0.01700000  0.51314600  1
  P  P8  1  0.64030000  0.98300000  0.48685400  1
  P  P9  1  0.42092400  0.65460500  0.80810800  1
  O  O0  1  0.14467200  0.86325400  0.68864800  1
  O  O1  1  0.65907900  0.55283300  0.11517200  1
  O  O2  1  0.98674000  0.48719800  0.28408500  1
  O  O3  1  0.64467200  0.13674600  0.31135200  1
  O  O4  1  0.34092100  0.44716700  0.88482800  1
  O  O5  1  0.03069500  0.78678600  0.91809100  1
  O  O6  1  0.01326000  0.51280200  0.71591500  1
  O  O7  1  0.07872400  0.87827900  0.41794000  1
  O  O8  1  0.57872400  0.12172100  0.58206000  1
  O  O9  1  0.62124500  0.69868300  0.49253300  1
  O  O10  1  0.12124500  0.30131700  0.50746700  1
  O  O11  1  0.25000000  0.71225800  0.05002300  1
  O  O12  1  0.96930500  0.21321400  0.08190900  1
  O  O13  1  0.35532800  0.86325400  0.68864800  1
  O  O14  1  0.37875500  0.30131700  0.50746700  1
  O  O15  1  0.87875500  0.69868300  0.49253300  1
  O  O16  1  0.25000000  0.20622300  0.11811400  1
  O  O17  1  0.15907900  0.44716700  0.88482800  1
  O  O18  1  0.42127600  0.87827900  0.41794000  1
  O  O19  1  0.46930500  0.78678600  0.91809100  1
  O  O20  1  0.53069500  0.21321400  0.08190900  1
  O  O21  1  0.75000000  0.79377700  0.88188600  1
  O  O22  1  0.48674000  0.51280200  0.71591500  1
  O  O23  1  0.25000000  0.99677300  0.45917300  1
  O  O24  1  0.92127600  0.12172100  0.58206000  1
  O  O25  1  0.85532800  0.13674600  0.31135200  1
  O  O26  1  0.51326000  0.48719800  0.28408500  1
  O  O27  1  0.84092100  0.55283300  0.11517200  1
  O  O28  1  0.75000000  0.28774200  0.94997700  1
  O  O29  1  0.75000000  0.00322700  0.54082700  1
loop_
_geom_bond_atom_site_label_1
_geom_bond_atom_site_label_2
_geom_bond_distance
_geom_bond_site_symmetry_2
Na0 O11 2.409913 1_555
Na0 O5 2.418305 1_554
Na0 O16 2.420466 1_565
Na0 O12 2.439715 1_465
Na0 O7 2.578782 1_555
Na0 O2 2.956191 1_455
Na1 O11 2.409913 1_555
Na1 O19 2.418305 1_554
Na1 O16 2.420466 1_565
Na1 O20 2.439715 1_565
Na1 O18 2.578782 1_555
Na1 O26 2.956191 1_555
Na2 O28 2.409913 1_555
Na2 O12 2.418305 1_556
Na2 O21 2.420466 1_545
Na2 O5 2.439715 1_645
Na2 O24 2.578782 1_555
Na2 O6 2.956191 1_655
Na3 O28 2.409913 1_555
Na3 O20 2.418305 1_556
Na3 O21 2.420466 1_545
Na3 O19 2.439715 1_545
Na3 O8 2.578782 1_555
Na3 O22 2.956191 1_555
Mn0 O22 1.950252 1_555
Mn0 O26 1.950252 1_555
Mn0 O14 1.963900 1_555
Mn0 O9 1.963900 1_555
Mn0 O18 2.248723 1_555
Mn0 O8 2.248723 1_555
Mn1 O6 1.950252 1_555
Mn1 O2 1.950252 1_455
Mn1 O10 1.963900 1_555
Mn1 O15 1.963900 1_455
Mn1 O7 2.248723 1_555
Mn1 O24 2.248723 1_455
O0 P3 1.592926 1_565
O0 P4 1.623201 1_555
O1 P2 1.594788 1_555
O1 P0 1.648535 1_554
O2 P6 1.529216 1_555
O3 P8 1.592926 1_545
O3 P2 1.623201 1_555
O4 P9 1.594788 1_555
O4 P5 1.648535 1_556
O5 P4 1.485204 1_555
O6 P4 1.529216 1_555
O7 P3 1.503324 1_565
O8 P8 1.503324 1_545
O9 P8 1.518371 1_555
O10 P3 1.518371 1_555
O11 P5 1.491453 1_555
O12 P6 1.485204 1_555
O13 P7 1.592926 1_565
O13 P9 1.623201 1_555
O14 P7 1.518371 1_555
O15 P1 1.518371 1_555
O16 P5 1.487783 1_555
O17 P4 1.594788 1_555
O17 P5 1.648535 1_556
O18 P7 1.503324 1_565
O19 P9 1.485204 1_555
O20 P2 1.485204 1_555
O21 P0 1.487783 1_555
O22 P9 1.529216 1_555
O23 P3 1.593495 1_565
O23 P7 1.593495 1_565
O24 P1 1.503324 1_545
O25 P1 1.592926 1_545
O25 P6 1.623201 1_555
O26 P2 1.529216 1_555
O27 P6 1.594788 1_555
O27 P0 1.648535 1_554
O28 P0 1.491453 1_555
O29 P1 1.593495 1_545
O29 P8 1.593495 1_545
