# generated using pymatgen
data_Ca6Si3H2O13
_symmetry_space_group_name_H-M   'P 1'
_cell_length_a   6.89256500
_cell_length_b   7.00606728
_cell_length_c   12.98538532
_cell_angle_alpha   90.79975815
_cell_angle_beta   97.63274959
_cell_angle_gamma   98.05304622
_symmetry_Int_Tables_number   1
_chemical_formula_structural   Ca6Si3H2O13
_chemical_formula_sum   'Ca12 Si6 H4 O26'
_cell_volume   615.03772883
_cell_formula_units_Z   2
loop_
 _symmetry_equiv_pos_site_id
 _symmetry_equiv_pos_as_xyz
  1  'x, y, z'
loop_
 _atom_site_type_symbol
 _atom_site_label
 _atom_site_symmetry_multiplicity
 _atom_site_fract_x
 _atom_site_fract_y
 _atom_site_fract_z
 _atom_site_occupancy
  Ca  Ca0  1  0.68382000  0.80825800  0.12424900  1
  Ca  Ca1  1  0.80987200  0.79622400  0.51179700  1
  Ca  Ca2  1  0.44005500  0.96666600  0.67865400  1
  Ca  Ca3  1  0.10714000  0.52781300  0.70907900  1
  Ca  Ca4  1  0.91872800  0.80535500  0.89836600  1
  Ca  Ca5  1  0.08127200  0.19464500  0.10163400  1
  Ca  Ca6  1  0.19012800  0.20377600  0.48820300  1
  Ca  Ca7  1  0.89286000  0.47218700  0.29092100  1
  Ca  Ca8  1  0.40647800  0.52325200  0.29671200  1
  Ca  Ca9  1  0.55994500  0.03333400  0.32134600  1
  Ca  Ca10  1  0.59352200  0.47674800  0.70328800  1
  Ca  Ca11  1  0.31618000  0.19174200  0.87575100  1
  Si  Si0  1  0.38587300  0.71131700  0.90200300  1
  Si  Si1  1  0.61412700  0.28868300  0.09799700  1
  Si  Si2  1  0.28523600  0.70106200  0.49090000  1
  Si  Si3  1  0.81030800  0.28485300  0.88435600  1
  Si  Si4  1  0.18969200  0.71514700  0.11564400  1
  Si  Si5  1  0.71476400  0.29893800  0.50910000  1
  H  H0  1  0.18832900  0.02789200  0.27720300  1
  H  H1  1  0.06623600  0.11767400  0.67668100  1
  H  H2  1  0.81167100  0.97210800  0.72279700  1
  H  H3  1  0.93376400  0.88232600  0.32331900  1
  O  O0  1  0.74311600  0.15088200  0.17616700  1
  O  O1  1  0.83355300  0.48501800  0.58198400  1
  O  O2  1  0.88498600  0.48940900  0.83081900  1
  O  O3  1  0.35816400  0.63319700  0.60975200  1
  O  O4  1  0.61681800  0.18519800  0.80470100  1
  O  O5  1  0.76457700  0.83919900  0.69836700  1
  O  O6  1  0.64183600  0.36680300  0.39024800  1
  O  O7  1  0.61858700  0.48871600  0.16559900  1
  O  O8  1  0.25248300  0.66425900  0.99982800  1
  O  O9  1  0.38318200  0.81480200  0.19529900  1
  O  O10  1  0.38141300  0.51128400  0.83440100  1
  O  O11  1  0.81022800  0.79324800  0.31480200  1
  O  O12  1  0.16644700  0.51498200  0.41801600  1
  O  O13  1  0.74751700  0.33574100  0.00017200  1
  O  O14  1  0.84686100  0.12762700  0.48905400  1
  O  O15  1  0.23542300  0.16080100  0.30163300  1
  O  O16  1  0.25688400  0.84911800  0.82383300  1
  O  O17  1  0.18977200  0.20675200  0.68519800  1
  O  O18  1  0.52130200  0.21783900  0.56653300  1
  O  O19  1  0.60958000  0.80647100  0.94741500  1
  O  O20  1  0.47869800  0.78216100  0.43346700  1
  O  O21  1  0.01422400  0.85102500  0.09027300  1
  O  O22  1  0.98577600  0.14897500  0.90972700  1
  O  O23  1  0.11501400  0.51059100  0.16918100  1
  O  O24  1  0.15313900  0.87237300  0.51094600  1
  O  O25  1  0.39042000  0.19352900  0.05258500  1
loop_
_geom_bond_atom_site_label_1
_geom_bond_atom_site_label_2
_geom_bond_distance
_geom_bond_site_symmetry_2
Ca0 O19 2.284746 1_554
Ca0 O7 2.306092 1_555
Ca0 O21 2.355860 1_655
Ca0 O9 2.383378 1_555
Ca0 O0 2.447539 1_565
Ca0 O11 2.520533 1_555
Ca1 O14 2.327318 1_565
Ca1 O24 2.352893 1_655
Ca1 O20 2.360540 1_555
Ca1 O1 2.393075 1_555
Ca1 O5 2.502881 1_555
Ca1 O11 2.558180 1_555
Ca2 O4 2.320597 1_565
Ca2 O18 2.354149 1_565
Ca2 O3 2.452643 1_555
Ca2 O16 2.492082 1_555
Ca2 O5 2.506038 1_555
Ca2 H2 2.544157 1_555
Ca2 O17 2.580782 1_565
Ca2 O24 2.745838 1_555
Ca3 O1 2.317459 1_455
Ca3 O2 2.335706 1_455
Ca3 O3 2.337474 1_555
Ca3 O10 2.341972 1_555
Ca3 O17 2.422112 1_555
Ca3 O16 2.683274 1_555
Ca4 O19 2.304601 1_555
Ca4 O2 2.338923 1_555
Ca4 O22 2.385642 1_565
Ca4 O21 2.495721 1_656
Ca4 O16 2.621160 1_655
Ca4 H2 2.641213 1_555
Ca4 O5 2.699004 1_555
Ca4 O8 2.805955 1_655
Ca5 O25 2.304601 1_555
Ca5 O23 2.338923 1_555
Ca5 O21 2.385642 1_545
Ca5 O22 2.495721 1_454
Ca5 O0 2.621160 1_455
Ca5 H0 2.641213 1_555
Ca5 O15 2.699004 1_555
Ca5 O13 2.805955 1_455
Ca6 O24 2.327318 1_545
Ca6 O14 2.352893 1_455
Ca6 O18 2.360540 1_555
Ca6 O12 2.393075 1_555
Ca6 O15 2.502881 1_555
Ca6 O17 2.558180 1_555
Ca7 O12 2.317459 1_655
Ca7 O23 2.335706 1_655
Ca7 O6 2.337474 1_555
Ca7 O7 2.341972 1_555
Ca7 O11 2.422112 1_555
Ca7 O0 2.683274 1_555
Ca8 O6 2.306558 1_555
Ca8 O7 2.417319 1_555
Ca8 O23 2.418337 1_555
Ca8 O12 2.426861 1_555
Ca8 O9 2.458268 1_555
Ca8 O20 2.472637 1_555
Ca8 O15 2.651071 1_555
Ca9 O9 2.320597 1_545
Ca9 O20 2.354149 1_545
Ca9 O6 2.452643 1_555
Ca9 O0 2.492082 1_555
Ca9 O15 2.506038 1_555
Ca9 H0 2.544157 1_555
Ca9 O11 2.580782 1_545
Ca9 O14 2.745838 1_555
Ca10 O3 2.306558 1_555
Ca10 O10 2.417319 1_555
Ca10 O2 2.418337 1_555
Ca10 O1 2.426861 1_555
Ca10 O4 2.458268 1_555
Ca10 O18 2.472637 1_555
Ca10 O5 2.651071 1_555
Ca11 O25 2.284746 1_556
Ca11 O10 2.306092 1_555
Ca11 O22 2.355860 1_455
Ca11 O4 2.383378 1_555
Ca11 O16 2.447539 1_545
Ca11 O17 2.520533 1_555
H0 O15 0.976110 1_555
H1 O17 0.975143 1_555
H2 O5 0.976110 1_555
H3 O11 0.975143 1_555
O0 Si1 1.667630 1_555
O1 Si5 1.651163 1_555
O2 Si3 1.648727 1_555
O3 Si2 1.655898 1_555
O4 Si3 1.639653 1_555
O6 Si5 1.655898 1_555
O7 Si1 1.637684 1_555
O8 Si4 1.666538 1_556
O8 Si0 1.674711 1_555
O9 Si4 1.639653 1_555
O10 Si0 1.637684 1_555
O12 Si2 1.651163 1_555
O13 Si3 1.666538 1_554
O13 Si1 1.674711 1_555
O14 Si5 1.642461 1_555
O16 Si0 1.667630 1_555
O18 Si5 1.649501 1_555
O19 Si0 1.621465 1_555
O20 Si2 1.649501 1_555
O21 Si4 1.644076 1_555
O22 Si3 1.644076 1_555
O23 Si4 1.648727 1_555
O24 Si2 1.642461 1_555
O25 Si1 1.621465 1_555
