# generated using pymatgen
data_NiF3
_symmetry_space_group_name_H-M   'P 1'
_cell_length_a   5.10719401
_cell_length_b   5.10719401
_cell_length_c   5.10719285
_cell_angle_alpha   55.63554345
_cell_angle_beta   55.63554345
_cell_angle_gamma   55.63555593
_symmetry_Int_Tables_number   1
_chemical_formula_structural   NiF3
_chemical_formula_sum   'Ni2 F6'
_cell_volume   84.65618095
_cell_formula_units_Z   2
loop_
 _symmetry_equiv_pos_site_id
 _symmetry_equiv_pos_as_xyz
  1  'x, y, z'
loop_
 _atom_site_type_symbol
 _atom_site_label
 _atom_site_symmetry_multiplicity
 _atom_site_fract_x
 _atom_site_fract_y
 _atom_site_fract_z
 _atom_site_occupancy
  Ni  Ni0  1  0.00000000  0.00000000  -0.00000000  1
  Ni  Ni1  1  0.50000000  0.50000000  0.50000000  1
  F  F0  1  0.25000000  0.61578837  0.88421163  1
  F  F1  1  0.61578837  0.88421163  0.25000000  1
  F  F2  1  0.88421163  0.25000000  0.61578837  1
  F  F3  1  0.75000000  0.38421163  0.11578837  1
  F  F4  1  0.38421163  0.11578837  0.75000000  1
  F  F5  1  0.11578837  0.75000000  0.38421163  1
loop_
_geom_bond_atom_site_label_1
_geom_bond_atom_site_label_2
_geom_bond_distance
_geom_bond_site_symmetry_2
F0 Ni1 1.859985 1_555
F0 Ni0 1.859986 1_566
F1 Ni0 1.859985 1_665
F1 Ni1 1.859985 1_555
F2 Ni0 1.859985 1_656
F2 Ni1 1.859986 1_555
F3 Ni1 1.859985 1_555
F3 Ni0 1.859986 1_655
F4 Ni0 1.859985 1_556
F4 Ni1 1.859985 1_555
F5 Ni0 1.859985 1_565
F5 Ni1 1.859986 1_555
