# generated using pymatgen
data_Y2Hf2O7
_symmetry_space_group_name_H-M   'P 1'
_cell_length_a   7.37462025
_cell_length_b   7.37462025
_cell_length_c   7.37462025
_cell_angle_alpha   60.00000000
_cell_angle_beta   60.00000000
_cell_angle_gamma   60.00000000
_symmetry_Int_Tables_number   1
_chemical_formula_structural   Y2Hf2O7
_chemical_formula_sum   'Y4 Hf4 O14'
_cell_volume   283.59853795
_cell_formula_units_Z   2
loop_
 _symmetry_equiv_pos_site_id
 _symmetry_equiv_pos_as_xyz
  1  'x, y, z'
loop_
 _atom_site_type_symbol
 _atom_site_label
 _atom_site_symmetry_multiplicity
 _atom_site_fract_x
 _atom_site_fract_y
 _atom_site_fract_z
 _atom_site_occupancy
  Y  Y0  1  0.12500000  0.12500000  0.12500000  1
  Y  Y1  1  0.12500000  0.62500000  0.12500000  1
  Y  Y2  1  0.12500000  0.12500000  0.62500000  1
  Y  Y3  1  0.62500000  0.12500000  0.12500000  1
  Hf  Hf0  1  0.62500000  0.12500000  0.62500000  1
  Hf  Hf1  1  0.62500000  0.62500000  0.12500000  1
  Hf  Hf2  1  0.62500000  0.62500000  0.62500000  1
  Hf  Hf3  1  0.12500000  0.62500000  0.62500000  1
  O  O0  1  0.96261533  0.53738467  0.53738467  1
  O  O1  1  0.28738467  0.28738467  0.71261533  1
  O  O2  1  0.28738467  0.71261533  0.28738467  1
  O  O3  1  0.96261533  0.53738467  0.96261533  1
  O  O4  1  0.71261533  0.28738467  0.28738467  1
  O  O5  1  0.71261533  0.71261533  0.28738467  1
  O  O6  1  0.53738467  0.96261533  0.53738467  1
  O  O7  1  0.71261533  0.28738467  0.71261533  1
  O  O8  1  0.53738467  0.53738467  0.96261533  1
  O  O9  1  0.00000000  0.00000000  -0.00000000  1
  O  O10  1  0.53738467  0.96261533  0.96261533  1
  O  O11  1  0.28738467  0.71261533  0.71261533  1
  O  O12  1  0.96261533  0.96261533  0.53738467  1
  O  O13  1  0.25000000  0.25000000  0.25000000  1
loop_
_geom_bond_atom_site_label_1
_geom_bond_atom_site_label_2
_geom_bond_distance
_geom_bond_site_symmetry_2
Hf0 O6 2.057676 1_545
Hf0 O12 2.057676 1_545
Hf0 O10 2.057676 1_545
Hf0 O7 2.057676 1_555
Hf0 O4 2.057676 1_555
Hf0 O1 2.057676 1_555
Hf1 O2 2.057676 1_555
Hf1 O8 2.057676 1_554
Hf1 O5 2.057676 1_555
Hf1 O3 2.057676 1_554
Hf1 O10 2.057676 1_554
Hf1 O4 2.057676 1_555
Hf2 O8 2.057676 1_555
Hf2 O11 2.057676 1_555
Hf2 O5 2.057676 1_555
Hf2 O6 2.057676 1_555
Hf2 O0 2.057676 1_555
Hf2 O7 2.057676 1_555
Hf3 O12 2.057676 1_455
Hf3 O2 2.057676 1_555
Hf3 O11 2.057676 1_555
Hf3 O3 2.057676 1_455
Hf3 O0 2.057676 1_455
Hf3 O1 2.057676 1_555
O0 Y1 2.503437 1_655
O0 Y2 2.503437 1_655
O1 Y2 2.503437 1_555
O1 Y0 2.503437 1_556
O2 Y0 2.503437 1_565
O2 Y1 2.503437 1_555
O3 Y0 2.503437 1_656
O3 Y1 2.503437 1_656
O4 Y3 2.503437 1_555
O4 Y0 2.503437 1_655
O5 Y3 2.503437 1_565
O5 Y1 2.503437 1_655
O6 Y3 2.503437 1_565
O6 Y2 2.503437 1_565
O7 Y3 2.503437 1_556
O7 Y2 2.503437 1_655
O8 Y3 2.503437 1_556
O8 Y1 2.503437 1_556
O9 Y0 2.258007 1_555
O9 Y3 2.258007 1_455
O9 Y2 2.258007 1_554
O9 Y1 2.258007 1_545
O10 Y3 2.503437 1_566
O10 Y0 2.503437 1_566
O11 Y2 2.503437 1_565
O11 Y1 2.503437 1_556
O12 Y0 2.503437 1_665
O12 Y2 2.503437 1_665
O13 Y0 2.258007 1_555
O13 Y1 2.258007 1_555
O13 Y2 2.258007 1_555
O13 Y3 2.258007 1_555
