# generated using pymatgen
data_Cs3Au2Br11
_symmetry_space_group_name_H-M   'P 1'
_cell_length_a   16.91869800
_cell_length_b   7.88897100
_cell_length_c   19.22441599
_cell_angle_alpha   86.14922971
_cell_angle_beta   90.00000000
_cell_angle_gamma   90.00000000
_symmetry_Int_Tables_number   1
_chemical_formula_structural   Cs3Au2Br11
_chemical_formula_sum   'Cs12 Au8 Br44'
_cell_volume   2560.11138065
_cell_formula_units_Z   4
loop_
 _symmetry_equiv_pos_site_id
 _symmetry_equiv_pos_as_xyz
  1  'x, y, z'
loop_
 _atom_site_type_symbol
 _atom_site_label
 _atom_site_symmetry_multiplicity
 _atom_site_fract_x
 _atom_site_fract_y
 _atom_site_fract_z
 _atom_site_occupancy
  Cs  Cs0  1  0.63155800  0.25341300  0.07615800  1
  Cs  Cs1  1  0.86844200  0.25341300  0.57615800  1
  Cs  Cs2  1  0.02436700  0.76523900  0.90090700  1
  Cs  Cs3  1  0.47563300  0.76523900  0.40090700  1
  Cs  Cs4  1  0.52436700  0.23476100  0.59909300  1
  Cs  Cs5  1  0.77611400  0.74230000  0.32623600  1
  Cs  Cs6  1  0.72388600  0.74230000  0.82623600  1
  Cs  Cs7  1  0.13155800  0.74658700  0.42384200  1
  Cs  Cs8  1  0.97563300  0.23476100  0.09909300  1
  Cs  Cs9  1  0.27611400  0.25770000  0.17376400  1
  Cs  Cs10  1  0.36844200  0.74658700  0.92384200  1
  Cs  Cs11  1  0.22388600  0.25770000  0.67376400  1
  Au  Au0  1  0.31148200  0.26360500  0.43492100  1
  Au  Au1  1  0.49777000  0.24352600  0.83094900  1
  Au  Au2  1  0.99777000  0.75647400  0.66905100  1
  Au  Au3  1  0.50223000  0.75647400  0.16905100  1
  Au  Au4  1  0.00223000  0.24352600  0.33094900  1
  Au  Au5  1  0.68851800  0.73639500  0.56507900  1
  Au  Au6  1  0.81148200  0.73639500  0.06507900  1
  Au  Au7  1  0.18851800  0.26360500  0.93492100  1
  Br  Br0  1  0.20226700  0.61437400  0.78970100  1
  Br  Br1  1  0.16730300  0.26034500  0.45918700  1
  Br  Br2  1  0.83219700  0.07108400  0.92549800  1
  Br  Br3  1  0.56303600  0.02265300  0.90922400  1
  Br  Br4  1  0.79569100  0.96731500  0.14543600  1
  Br  Br5  1  0.06303600  0.97734700  0.59077600  1
  Br  Br6  1  0.94788100  0.46796600  0.40223600  1
  Br  Br7  1  0.54416600  0.73774500  0.58800200  1
  Br  Br8  1  0.93696400  0.02265300  0.40922400  1
  Br  Br9  1  0.17124600  0.49689900  0.01420400  1
  Br  Br10  1  0.44221800  0.01955300  0.76137900  1
  Br  Br11  1  0.73134900  0.23012400  0.31755600  1
  Br  Br12  1  0.94221800  0.98044700  0.73862100  1
  Br  Br13  1  0.70226700  0.38562600  0.71029900  1
  Br  Br14  1  0.95583400  0.73774500  0.08800200  1
  Br  Br15  1  0.76865100  0.23012400  0.81755600  1
  Br  Br16  1  0.05778200  0.01955300  0.26137900  1
  Br  Br17  1  0.43213300  0.46225800  0.75243300  1
  Br  Br18  1  0.70430900  0.96731500  0.64543600  1
  Br  Br19  1  0.93213300  0.53774200  0.74756700  1
  Br  Br20  1  0.66780300  0.07108400  0.42549800  1
  Br  Br21  1  0.32875400  0.49689900  0.51420400  1
  Br  Br22  1  0.29569100  0.03268500  0.35456400  1
  Br  Br23  1  0.82875400  0.50310100  0.98579600  1
  Br  Br24  1  0.23134900  0.76987600  0.18244400  1
  Br  Br25  1  0.55211900  0.46796600  0.90223600  1
  Br  Br26  1  0.66730300  0.73965500  0.04081300  1
  Br  Br27  1  0.67124600  0.50310100  0.48579600  1
  Br  Br28  1  0.55778200  0.98044700  0.23862100  1
  Br  Br29  1  0.33219700  0.92891600  0.57450200  1
  Br  Br30  1  0.20430900  0.03268500  0.85456400  1
  Br  Br31  1  0.29773300  0.61437400  0.28970100  1
  Br  Br32  1  0.79773300  0.38562600  0.21029900  1
  Br  Br33  1  0.04416600  0.26225500  0.91199800  1
  Br  Br34  1  0.83269700  0.73965500  0.54081300  1
  Br  Br35  1  0.05211900  0.53203400  0.59776400  1
  Br  Br36  1  0.26865100  0.76987600  0.68244400  1
  Br  Br37  1  0.43696400  0.97734700  0.09077600  1
  Br  Br38  1  0.45583400  0.26225500  0.41199800  1
  Br  Br39  1  0.44788100  0.53203400  0.09776400  1
  Br  Br40  1  0.16780300  0.92891600  0.07450200  1
  Br  Br41  1  0.33269700  0.26034500  0.95918700  1
  Br  Br42  1  0.06786700  0.46225800  0.25243300  1
  Br  Br43  1  0.56786700  0.53774200  0.24756700  1
loop_
_geom_bond_atom_site_label_1
_geom_bond_atom_site_label_2
_geom_bond_distance
_geom_bond_site_symmetry_2
Au0 Br22 2.480826 1_555
Au0 Br38 2.481838 1_555
Au0 Br1 2.483336 1_555
Au0 Br21 2.484455 1_555
Au1 Br10 2.472146 1_555
Au1 Br17 2.477762 1_555
Au1 Br3 2.483481 1_555
Au1 Br25 2.486884 1_555
Au2 Br12 2.472146 1_555
Au2 Br19 2.477762 1_555
Au2 Br5 2.483481 1_655
Au2 Br35 2.486884 1_655
Au3 Br28 2.472146 1_555
Au3 Br43 2.477762 1_555
Au3 Br37 2.483481 1_555
Au3 Br39 2.486884 1_555
Au4 Br16 2.472146 1_555
Au4 Br42 2.477762 1_555
Au4 Br8 2.483481 1_455
Au4 Br6 2.486884 1_455
Au5 Br18 2.480826 1_555
Au5 Br7 2.481838 1_555
Au5 Br34 2.483336 1_555
Au5 Br27 2.484455 1_555
Au6 Br4 2.480826 1_555
Au6 Br14 2.481838 1_555
Au6 Br26 2.483336 1_555
Au6 Br23 2.484455 1_554
Au7 Br30 2.480826 1_555
Au7 Br33 2.481838 1_555
Au7 Br41 2.483336 1_555
Au7 Br9 2.484455 1_556
Br0 Br36 2.584229 1_555
Br0 Cs11 3.723063 1_555
Br0 Cs2 3.922737 1_555
Br0 Cs10 4.000453 1_555
Br1 Cs7 3.897672 1_555
Br1 Cs7 4.198134 1_545
Br1 Cs11 4.233428 1_555
Br2 Cs6 3.793660 1_545
Br2 Cs2 4.095002 1_645
Br3 Cs6 3.913655 1_545
Br3 Cs10 3.947025 1_545
Br3 Cs0 3.967591 1_556
Br4 Cs0 3.765026 1_565
Br4 Cs8 3.776387 1_565
Br4 Cs5 3.809606 1_555
Br5 Cs11 3.913655 1_565
Br5 Cs1 3.947025 1_465
Br5 Cs7 3.967591 1_555
Br6 Cs7 3.844936 1_655
Br6 Cs5 3.852149 1_555
Br6 Cs1 3.884641 1_555
Br7 Cs3 3.771417 1_555
Br7 Cs4 3.955220 1_565
Br7 Cs4 3.973570 1_555
Br8 Cs5 3.913655 1_545
Br8 Cs7 3.947025 1_645
Br8 Cs1 3.967591 1_555
Br9 Cs2 3.844644 1_554
Br9 Cs9 3.916702 1_555
Br9 Cs8 4.176058 1_455
Br9 Cs10 4.191544 1_554
Br10 Cs4 3.719699 1_555
Br10 Cs10 3.878991 1_545
Br11 Br32 2.584229 1_555
Br11 Br20 2.585823 1_555
Br11 Cs5 3.914793 1_545
Br11 Cs5 4.125286 1_555
Br12 Cs2 3.719699 1_655
Br12 Cs1 3.878991 1_565
Br13 Br15 2.584229 1_555
Br13 Cs6 3.723063 1_555
Br13 Cs4 3.922737 1_555
Br13 Cs1 4.000453 1_555
Br14 Cs2 3.771417 1_654
Br14 Cs8 3.955220 1_565
Br14 Cs8 3.973570 1_555
Br15 Br2 2.585823 1_555
Br15 Cs6 3.914793 1_545
Br15 Cs6 4.125286 1_555
Br16 Cs8 3.719699 1_455
Br16 Cs7 3.878991 1_545
Br17 Cs4 3.880292 1_555
Br17 Cs11 4.199128 1_555
Br17 Cs10 4.247807 1_555
Br18 Cs1 3.765026 1_565
Br18 Cs4 3.776387 1_565
Br18 Cs6 3.809606 1_555
Br19 Cs2 3.880292 1_655
Br19 Cs6 4.199128 1_555
Br19 Cs1 4.247807 1_555
Br20 Cs5 3.793660 1_545
Br20 Cs3 4.095002 1_545
Br21 Cs3 3.844644 1_555
Br21 Cs11 3.916702 1_555
Br21 Cs4 4.176058 1_555
Br21 Cs7 4.191544 1_555
Br22 Cs7 3.765026 1_545
Br22 Cs3 3.776387 1_545
Br22 Cs9 3.809606 1_555
Br23 Cs8 3.844644 1_556
Br23 Cs6 3.916702 1_555
Br23 Cs2 4.176058 1_655
Br23 Cs0 4.191544 1_556
Br24 Br31 2.584229 1_555
Br24 Br40 2.585823 1_555
Br24 Cs9 3.914793 1_565
Br24 Cs9 4.125286 1_555
Br25 Cs10 3.844936 1_555
Br25 Cs6 3.852149 1_555
Br25 Cs0 3.884641 1_556
Br26 Cs0 3.897672 1_555
Br26 Cs0 4.198134 1_565
Br26 Cs6 4.233428 1_554
Br27 Cs4 3.844644 1_555
Br27 Cs5 3.916702 1_555
Br27 Cs3 4.176058 1_555
Br27 Cs1 4.191544 1_555
Br28 Cs3 3.719699 1_555
Br28 Cs0 3.878991 1_565
Br29 Br36 2.585823 1_555
Br29 Cs11 3.793660 1_565
Br29 Cs4 4.095002 1_565
Br30 Cs10 3.765026 1_545
Br30 Cs2 3.776387 1_545
Br30 Cs11 3.809606 1_555
Br31 Cs9 3.723063 1_555
Br31 Cs3 3.922737 1_555
Br31 Cs7 4.000453 1_555
Br32 Cs5 3.723063 1_555
Br32 Cs8 3.922737 1_555
Br32 Cs0 4.000453 1_555
Br33 Cs8 3.771417 1_456
Br33 Cs2 3.955220 1_545
Br33 Cs2 3.973570 1_555
Br34 Cs1 3.897672 1_555
Br34 Cs1 4.198134 1_565
Br34 Cs5 4.233428 1_555
Br35 Cs1 3.844936 1_455
Br35 Cs11 3.852149 1_555
Br35 Cs7 3.884641 1_555
Br36 Cs11 3.914793 1_565
Br36 Cs11 4.125286 1_555
Br37 Cs9 3.913655 1_565
Br37 Cs0 3.947025 1_565
Br37 Cs10 3.967591 1_554
Br38 Cs4 3.771417 1_555
Br38 Cs3 3.955220 1_545
Br38 Cs3 3.973570 1_555
Br39 Cs0 3.844936 1_555
Br39 Cs9 3.852149 1_555
Br39 Cs10 3.884641 1_554
Br40 Cs9 3.793660 1_565
Br40 Cs8 4.095002 1_465
Br41 Cs10 3.897672 1_555
Br41 Cs10 4.198134 1_545
Br41 Cs9 4.233428 1_556
Br42 Cs8 3.880292 1_455
Br42 Cs9 4.199128 1_555
Br42 Cs7 4.247807 1_555
Br43 Cs3 3.880292 1_555
Br43 Cs5 4.199128 1_555
Br43 Cs0 4.247807 1_555
