# generated using pymatgen
data_ScP(H2O3)2
_symmetry_space_group_name_H-M   'P 1'
_cell_length_a   10.33755700
_cell_length_b   5.47845200
_cell_length_c   10.40894578
_cell_angle_alpha   59.89076813
_cell_angle_beta   90.00000000
_cell_angle_gamma   90.00000000
_symmetry_Int_Tables_number   1
_chemical_formula_structural   ScP(H2O3)2
_chemical_formula_sum   'Sc4 P4 H16 O24'
_cell_volume   509.95761143
_cell_formula_units_Z   4
loop_
 _symmetry_equiv_pos_site_id
 _symmetry_equiv_pos_as_xyz
  1  'x, y, z'
loop_
 _atom_site_type_symbol
 _atom_site_label
 _atom_site_symmetry_multiplicity
 _atom_site_fract_x
 _atom_site_fract_y
 _atom_site_fract_z
 _atom_site_occupancy
  Sc  Sc0  1  0.33051800  0.11093400  0.30033600  1
  Sc  Sc1  1  0.83051800  0.88906600  0.19966400  1
  Sc  Sc2  1  0.66948200  0.88906600  0.69966400  1
  Sc  Sc3  1  0.16948200  0.11093400  0.80033600  1
  P  P0  1  0.15001200  0.72517700  0.18173000  1
  P  P1  1  0.65001200  0.27482300  0.31827000  1
  P  P2  1  0.84998800  0.27482300  0.81827000  1
  P  P3  1  0.34998800  0.72517700  0.68173000  1
  H  H0  1  0.55063600  0.89386000  0.26922400  1
  H  H1  1  0.05063600  0.10614000  0.23077600  1
  H  H2  1  0.44936400  0.10614000  0.73077600  1
  H  H3  1  0.94936400  0.89386000  0.76922400  1
  H  H4  1  0.46215000  0.62524500  0.30298300  1
  H  H5  1  0.96215000  0.37475500  0.19701700  1
  H  H6  1  0.53785000  0.37475500  0.69701700  1
  H  H7  1  0.03785000  0.62524500  0.80298300  1
  H  H8  1  0.33694500  0.34162700  0.98058800  1
  H  H9  1  0.83694500  0.65837300  0.51941200  1
  H  H10  1  0.66305500  0.65837300  0.01941200  1
  H  H11  1  0.16305500  0.34162700  0.48058800  1
  H  H12  1  0.31803400  0.57671100  0.02389800  1
  H  H13  1  0.81803400  0.42328900  0.47610200  1
  H  H14  1  0.68196600  0.42328900  0.97610200  1
  H  H15  1  0.18196600  0.57671100  0.52389800  1
  O  O0  1  0.18175600  0.91541900  0.24897300  1
  O  O1  1  0.68175600  0.08458100  0.25102700  1
  O  O2  1  0.81824400  0.08458100  0.75102700  1
  O  O3  1  0.31824400  0.91541900  0.74897300  1
  O  O4  1  0.20991300  0.85059700  0.02459300  1
  O  O5  1  0.70991300  0.14940300  0.47540700  1
  O  O6  1  0.79008700  0.14940300  0.97540700  1
  O  O7  1  0.29008700  0.85059700  0.52459300  1
  O  O8  1  0.20818200  0.42742100  0.28443900  1
  O  O9  1  0.70818200  0.57257900  0.21556100  1
  O  O10  1  0.79181800  0.57257900  0.71556100  1
  O  O11  1  0.29181800  0.42742100  0.78443900  1
  O  O12  1  0.00046000  0.70303000  0.17507800  1
  O  O13  1  0.50046000  0.29697000  0.32492200  1
  O  O14  1  0.99954000  0.29697000  0.82492200  1
  O  O15  1  0.49954000  0.70303000  0.67507800  1
  O  O16  1  0.45981100  0.82110700  0.28580200  1
  O  O17  1  0.95981100  0.17889300  0.21419800  1
  O  O18  1  0.54018900  0.17889300  0.71419800  1
  O  O19  1  0.04018900  0.82110700  0.78580200  1
  O  O20  1  0.35368100  0.38551900  0.06018700  1
  O  O21  1  0.85368100  0.61448100  0.43981300  1
  O  O22  1  0.64631900  0.61448100  0.93981300  1
  O  O23  1  0.14631900  0.38551900  0.56018700  1
loop_
_geom_bond_atom_site_label_1
_geom_bond_atom_site_label_2
_geom_bond_distance
_geom_bond_site_symmetry_2
H0 O16 1.000591 1_555
H0 O1 1.663224 1_565
H1 O17 1.000591 1_455
H1 O0 1.663224 1_545
H2 O18 1.000591 1_555
H2 O3 1.663224 1_545
H3 O19 1.000591 1_655
H3 O2 1.663224 1_565
H4 O16 0.995697 1_555
H4 O13 1.741069 1_555
H5 O17 0.995697 1_555
H5 O12 1.741069 1_655
H6 O18 0.995697 1_555
H6 O15 1.741069 1_555
H7 O19 0.995697 1_555
H7 O14 1.741069 1_455
H8 O20 0.986977 1_556
H9 O21 0.986977 1_555
H10 O22 0.986977 1_554
H11 O23 0.986977 1_555
H12 O20 0.989264 1_555
H13 O21 0.989264 1_555
H14 O22 0.989264 1_555
H15 O23 0.989264 1_555
O0 P0 1.554261 1_555
O0 Sc0 2.091080 1_565
O1 P1 1.554261 1_555
O1 Sc1 2.091080 1_545
O2 P2 1.554261 1_555
O2 Sc2 2.091080 1_545
O3 P3 1.554261 1_555
O3 Sc3 2.091080 1_565
O4 P0 1.550254 1_555
O4 Sc3 2.077855 1_564
O5 P1 1.550254 1_555
O5 Sc2 2.077855 1_545
O6 P2 1.550254 1_555
O6 Sc1 2.077855 1_546
O7 P3 1.550254 1_555
O7 Sc0 2.077855 1_565
O8 P0 1.554288 1_555
O8 Sc0 2.084502 1_555
O9 P1 1.554288 1_555
O9 Sc1 2.084502 1_555
O10 P2 1.554288 1_555
O10 Sc2 2.084502 1_555
O11 P3 1.554288 1_555
O11 Sc3 2.084502 1_555
O12 P0 1.555014 1_555
O12 Sc1 2.110028 1_455
O13 P1 1.555014 1_555
O13 Sc0 2.110028 1_555
O14 P2 1.555014 1_555
O14 Sc3 2.110028 1_655
O15 P3 1.555014 1_555
O15 Sc2 2.110028 1_555
O16 Sc0 2.138092 1_565
O17 Sc1 2.138092 1_545
O18 Sc2 2.138092 1_545
O19 Sc3 2.138092 1_565
O20 Sc0 2.189986 1_555
O21 Sc1 2.189986 1_555
O22 Sc2 2.189986 1_555
O23 Sc3 2.189986 1_555
