# generated using pymatgen
data_Hg3S2ICl
_symmetry_space_group_name_H-M   'P 1'
_cell_length_a   10.54661549
_cell_length_b   10.54661549
_cell_length_c   13.37740752
_cell_angle_alpha   52.67604603
_cell_angle_beta   52.67604603
_cell_angle_gamma   53.71686375
_symmetry_Int_Tables_number   1
_chemical_formula_structural   Hg3S2ICl
_chemical_formula_sum   'Hg12 S8 I4 Cl4'
_cell_volume   879.86838512
_cell_formula_units_Z   4
loop_
 _symmetry_equiv_pos_site_id
 _symmetry_equiv_pos_as_xyz
  1  'x, y, z'
loop_
 _atom_site_type_symbol
 _atom_site_label
 _atom_site_symmetry_multiplicity
 _atom_site_fract_x
 _atom_site_fract_y
 _atom_site_fract_z
 _atom_site_occupancy
  Hg  Hg0  1  0.71432300  0.28567700  0.50000000  1
  Hg  Hg1  1  0.28567700  0.71432300  0.50000000  1
  Hg  Hg2  1  0.88904600  0.88904600  0.75314500  1
  Hg  Hg3  1  0.11095400  0.11095400  0.24685500  1
  Hg  Hg4  1  0.00000000  0.50000000  0.50000000  1
  Hg  Hg5  1  0.50000000  0.00000000  0.50000000  1
  Hg  Hg6  1  0.59586900  0.59586900  0.78821800  1
  Hg  Hg7  1  0.40413100  0.40413100  0.21178200  1
  Hg  Hg8  1  0.44789800  0.01316300  0.79492200  1
  Hg  Hg9  1  0.98683700  0.55210200  0.20507800  1
  Hg  Hg10  1  0.55210200  0.98683700  0.20507800  1
  Hg  Hg11  1  0.01316300  0.44789800  0.79492200  1
  S  S0  1  0.36945800  0.87971500  0.74761800  1
  S  S1  1  0.12028500  0.63054200  0.25238200  1
  S  S2  1  0.63054200  0.12028500  0.25238200  1
  S  S3  1  0.87971500  0.36945800  0.74761800  1
  S  S4  1  0.62508600  0.13790600  0.74931500  1
  S  S5  1  0.86209400  0.37491400  0.25068500  1
  S  S6  1  0.37491400  0.86209400  0.25068500  1
  S  S7  1  0.13790600  0.62508600  0.74931500  1
  I  I0  1  0.37295000  0.37295000  0.00046700  1
  I  I1  1  0.62705000  0.62705000  0.99953300  1
  I  I2  1  0.12261000  0.12261000  0.50617100  1
  I  I3  1  0.87739000  0.87739000  0.49382900  1
  Cl  Cl0  1  0.14576800  0.14576800  0.97681900  1
  Cl  Cl1  1  0.85423200  0.85423200  0.02318100  1
  Cl  Cl2  1  0.62786100  0.62786100  0.47824300  1
  Cl  Cl3  1  0.37213900  0.37213900  0.52175700  1
loop_
_geom_bond_atom_site_label_1
_geom_bond_atom_site_label_2
_geom_bond_distance
_geom_bond_site_symmetry_2
Hg0 S4 2.462645 1_555
Hg0 S5 2.462645 1_555
Hg1 S7 2.462645 1_555
Hg1 S6 2.462645 1_555
Hg2 S7 2.450183 1_655
Hg2 S4 2.450183 1_565
Hg2 I2 3.239592 1_665
Hg3 S5 2.450183 1_455
Hg3 S6 2.450183 1_545
Hg3 I3 3.239592 1_445
Hg4 S1 2.432794 1_555
Hg4 S3 2.432794 1_455
Hg4 I3 3.340703 1_455
Hg4 I2 3.340703 1_555
Hg5 S2 2.432794 1_555
Hg5 S0 2.432794 1_545
Hg5 I3 3.340703 1_545
Hg5 I2 3.340703 1_555
Hg6 S0 2.469661 1_555
Hg6 S3 2.469661 1_555
Hg6 I0 3.077149 1_556
Hg6 I1 3.254219 1_555
Hg7 S2 2.469661 1_555
Hg7 S1 2.469661 1_555
Hg7 I1 3.077149 1_554
Hg7 I0 3.254219 1_555
Hg8 S4 2.479747 1_555
Hg8 S0 2.481643 1_545
Hg8 I1 3.360561 1_545
Hg9 S5 2.479747 1_555
Hg9 S1 2.481643 1_655
Hg9 I0 3.360561 1_655
Hg10 S6 2.479747 1_555
Hg10 S2 2.481643 1_565
Hg10 I0 3.360561 1_565
Hg11 S7 2.479747 1_555
Hg11 S3 2.481643 1_455
Hg11 I1 3.360561 1_455
Cl0 Hg11 2.735025 1_555
Cl0 Hg8 2.735025 1_555
Cl1 Hg9 2.735025 1_555
Cl1 Hg10 2.735025 1_555
Cl2 Hg1 3.015538 1_555
Cl2 Hg0 3.015538 1_555
Cl3 Hg0 3.015538 1_555
Cl3 Hg1 3.015538 1_555
