# generated using pymatgen
data_Sr(SiPd)2
_symmetry_space_group_name_H-M   'P 1'
_cell_length_a   4.30435200
_cell_length_b   4.30435068
_cell_length_c   5.85367276
_cell_angle_alpha   111.57153450
_cell_angle_beta   111.57151760
_cell_angle_gamma   90.00000609
_symmetry_Int_Tables_number   1
_chemical_formula_structural   Sr(SiPd)2
_chemical_formula_sum   'Sr1 Si2 Pd2'
_cell_volume   92.64047032
_cell_formula_units_Z   1
loop_
 _symmetry_equiv_pos_site_id
 _symmetry_equiv_pos_as_xyz
  1  'x, y, z'
loop_
 _atom_site_type_symbol
 _atom_site_label
 _atom_site_symmetry_multiplicity
 _atom_site_fract_x
 _atom_site_fract_y
 _atom_site_fract_z
 _atom_site_occupancy
  Sr  Sr0  1  -0.00000000  -0.00000000  0.00000000  1
  Si  Si0  1  0.37360576  0.37360576  0.74721151  1
  Si  Si1  1  0.62639424  0.62639424  0.25278849  1
  Pd  Pd0  1  0.75000000  0.25000000  0.50000000  1
  Pd  Pd1  1  0.25000000  0.75000000  0.50000000  1
loop_
_geom_bond_atom_site_label_1
_geom_bond_atom_site_label_2
_geom_bond_distance
_geom_bond_site_symmetry_2
Si0 Si1 2.527974 1_556
Si0 Sr0 3.295661 1_666
Si0 Sr0 3.295661 1_566
Si0 Sr0 3.295661 1_556
Si0 Sr0 3.295662 1_656
Si1 Sr0 3.295661 1_555
Si1 Sr0 3.295661 1_655
Si1 Sr0 3.295661 1_665
Si1 Sr0 3.295662 1_565
Pd0 Si1 2.481895 1_545
Pd0 Si1 2.481896 1_555
Pd0 Si0 2.481896 1_555
Pd0 Si0 2.481896 1_655
Pd0 Sr0 3.298833 1_666
Pd0 Sr0 3.298833 1_655
Pd0 Sr0 3.298834 1_656
Pd0 Sr0 3.298834 1_555
Pd1 Si0 2.481895 1_565
Pd1 Si0 2.481896 1_555
Pd1 Si1 2.481896 1_555
Pd1 Si1 2.481896 1_455
Pd1 Sr0 3.298833 1_555
Pd1 Sr0 3.298833 1_566
Pd1 Sr0 3.298834 1_565
Pd1 Sr0 3.298834 1_666
