# generated using pymatgen
data_DySeClO3
_symmetry_space_group_name_H-M   'P 1'
_cell_length_a   7.02245500
_cell_length_b   7.29809800
_cell_length_c   8.88781700
_cell_angle_alpha   90.00000000
_cell_angle_beta   90.00000000
_cell_angle_gamma   90.00000000
_symmetry_Int_Tables_number   1
_chemical_formula_structural   DySeClO3
_chemical_formula_sum   'Dy4 Se4 Cl4 O12'
_cell_volume   455.50564101
_cell_formula_units_Z   4
loop_
 _symmetry_equiv_pos_site_id
 _symmetry_equiv_pos_as_xyz
  1  'x, y, z'
loop_
 _atom_site_type_symbol
 _atom_site_label
 _atom_site_symmetry_multiplicity
 _atom_site_fract_x
 _atom_site_fract_y
 _atom_site_fract_z
 _atom_site_occupancy
  Dy  Dy0  1  0.75000000  0.39469900  0.03904800  1
  Dy  Dy1  1  0.75000000  0.89469900  0.46095200  1
  Dy  Dy2  1  0.25000000  0.60530100  0.96095200  1
  Dy  Dy3  1  0.25000000  0.10530100  0.53904800  1
  Se  Se0  1  0.75000000  0.29071300  0.63261900  1
  Se  Se1  1  0.25000000  0.70928700  0.36738100  1
  Se  Se2  1  0.75000000  0.79071300  0.86738100  1
  Se  Se3  1  0.25000000  0.20928700  0.13261900  1
  Cl  Cl0  1  0.25000000  0.44292100  0.68205000  1
  Cl  Cl1  1  0.75000000  0.05707900  0.18205000  1
  Cl  Cl2  1  0.25000000  0.94292100  0.81795000  1
  Cl  Cl3  1  0.75000000  0.55707900  0.31795000  1
  O  O0  1  0.92734900  0.64157600  0.93281500  1
  O  O1  1  0.57265100  0.64157600  0.93281500  1
  O  O2  1  0.75000000  0.74829700  0.67919700  1
  O  O3  1  0.07265100  0.35842400  0.06718500  1
  O  O4  1  0.07265100  0.85842400  0.43281500  1
  O  O5  1  0.25000000  0.75170300  0.17919700  1
  O  O6  1  0.92734900  0.14157600  0.56718500  1
  O  O7  1  0.25000000  0.25170300  0.32080300  1
  O  O8  1  0.42734900  0.35842400  0.06718500  1
  O  O9  1  0.57265100  0.14157600  0.56718500  1
  O  O10  1  0.75000000  0.24829700  0.82080300  1
  O  O11  1  0.42734900  0.85842400  0.43281500  1
loop_
_geom_bond_atom_site_label_1
_geom_bond_atom_site_label_2
_geom_bond_distance
_geom_bond_site_symmetry_2
Dy0 O10 2.214524 1_554
Dy0 O8 2.294882 1_555
Dy0 O3 2.294882 1_655
Dy0 O0 2.385120 1_554
Dy0 O1 2.385120 1_554
Dy1 O2 2.214524 1_555
Dy1 O11 2.294882 1_555
Dy1 O4 2.294882 1_655
Dy1 O9 2.385120 1_565
Dy1 O6 2.385120 1_565
Dy2 O5 2.214524 1_556
Dy2 O1 2.294882 1_555
Dy2 O0 2.294882 1_455
Dy2 O8 2.385120 1_556
Dy2 O3 2.385120 1_556
Dy3 O7 2.214524 1_555
Dy3 O6 2.294882 1_455
Dy3 O9 2.294882 1_555
Dy3 O11 2.385120 1_545
Dy3 O4 2.385120 1_545
Cl0 Dy2 2.747540 1_555
Cl0 Dy3 2.772471 1_555
Cl1 Dy1 2.747540 1_545
Cl1 Dy0 2.772471 1_555
Cl2 Dy3 2.747540 1_565
Cl2 Dy2 2.772471 1_555
Cl3 Dy0 2.747540 1_555
Cl3 Dy1 2.772471 1_555
O0 Se2 1.753269 1_555
O1 Se2 1.753269 1_555
O2 Se2 1.700950 1_555
O3 Se3 1.753269 1_555
O4 Se1 1.753269 1_555
O5 Se1 1.700950 1_555
O6 Se0 1.753269 1_555
O7 Se3 1.700950 1_555
O8 Se3 1.753269 1_555
O9 Se0 1.753269 1_555
O10 Se0 1.700950 1_555
O11 Se1 1.753269 1_555
