# generated using pymatgen
data_Ti6In2Si2P12O49
_symmetry_space_group_name_H-M   'P 1'
_cell_length_a   15.86898625
_cell_length_b   15.86898625
_cell_length_c   15.86898589
_cell_angle_alpha   31.39559933
_cell_angle_beta   31.39559933
_cell_angle_gamma   31.39559880
_symmetry_Int_Tables_number   1
_chemical_formula_structural   Ti6In2Si2P12O49
_chemical_formula_sum   'Ti6 In2 Si2 P12 O49'
_cell_volume   962.66363607
_cell_formula_units_Z   1
loop_
 _symmetry_equiv_pos_site_id
 _symmetry_equiv_pos_as_xyz
  1  'x, y, z'
loop_
 _atom_site_type_symbol
 _atom_site_label
 _atom_site_symmetry_multiplicity
 _atom_site_fract_x
 _atom_site_fract_y
 _atom_site_fract_z
 _atom_site_occupancy
  Ti  Ti0  1  0.65597100  0.65597100  0.65597100  1
  Ti  Ti1  1  0.06946500  0.06946500  0.06946500  1
  Ti  Ti2  1  0.24397200  0.24397200  0.24397200  1
  Ti  Ti3  1  0.75602800  0.75602800  0.75602800  1
  Ti  Ti4  1  0.93053500  0.93053500  0.93053500  1
  Ti  Ti5  1  0.34402900  0.34402900  0.34402900  1
  In  In0  1  0.82706800  0.82706800  0.82706800  1
  In  In1  1  0.17293200  0.17293200  0.17293200  1
  Si  Si0  1  0.53562500  0.53562500  0.53562500  1
  Si  Si1  1  0.46437500  0.46437500  0.46437500  1
  P  P0  1  0.41579500  0.12359500  0.82791300  1
  P  P1  1  0.12359500  0.82791300  0.41579500  1
  P  P2  1  0.87640500  0.17208700  0.58420500  1
  P  P3  1  0.42186200  0.70620600  0.99316800  1
  P  P4  1  0.99316800  0.42186200  0.70620600  1
  P  P5  1  0.58420500  0.87640500  0.17208700  1
  P  P6  1  0.00683200  0.57813800  0.29379400  1
  P  P7  1  0.29379400  0.00683200  0.57813800  1
  P  P8  1  0.17208700  0.58420500  0.87640500  1
  P  P9  1  0.57813800  0.29379400  0.00683200  1
  P  P10  1  0.70620600  0.99316800  0.42186200  1
  P  P11  1  0.82791300  0.41579500  0.12359500  1
  O  O0  1  0.46428400  0.26885600  0.61946800  1
  O  O1  1  0.80843300  0.08434900  0.65064100  1
  O  O2  1  0.13822800  0.95590200  0.76600100  1
  O  O3  1  0.61946800  0.46428400  0.26885600  1
  O  O4  1  0.82664100  0.59951100  0.94402500  1
  O  O5  1  0.65064100  0.80843300  0.08434900  1
  O  O6  1  0.90798700  0.28075100  0.09934300  1
  O  O7  1  0.40048900  0.05597500  0.17335900  1
  O  O8  1  0.26083900  0.16815600  0.52529700  1
  O  O9  1  0.38053200  0.53571600  0.73114400  1
  O  O10  1  0.15962200  0.42246800  0.52148500  1
  O  O11  1  0.17335900  0.40048900  0.05597500  1
  O  O12  1  0.52529700  0.26083900  0.16815600  1
  O  O13  1  0.95590200  0.76600100  0.13822800  1
  O  O14  1  0.09201300  0.71924900  0.90065700  1
  O  O15  1  0.59951100  0.94402500  0.82664100  1
  O  O16  1  0.57753200  0.47851500  0.84037800  1
  O  O17  1  0.73916100  0.83184400  0.47470300  1
  O  O18  1  0.91565100  0.34935900  0.19156700  1
  O  O19  1  0.73114400  0.38053200  0.53571600  1
  O  O20  1  0.42246800  0.52148500  0.15962200  1
  O  O21  1  0.16815600  0.52529700  0.26083900  1
  O  O22  1  0.53571600  0.73114400  0.38053200  1
  O  O23  1  0.84037800  0.57753200  0.47851500  1
  O  O24  1  0.08434900  0.65064100  0.80843300  1
  O  O25  1  0.05597500  0.17335900  0.40048900  1
  O  O26  1  0.26885600  0.61946800  0.46428400  1
  O  O27  1  0.43466500  0.29361900  0.06380400  1
  O  O28  1  0.09934300  0.90798700  0.28075100  1
  O  O29  1  0.93619600  0.56533500  0.70638100  1
  O  O30  1  0.50000000  0.50000000  0.50000000  1
  O  O31  1  0.23399900  0.86177200  0.04409800  1
  O  O32  1  0.71924900  0.90065700  0.09201300  1
  O  O33  1  0.47851500  0.84037800  0.57753200  1
  O  O34  1  0.34935900  0.19156700  0.91565100  1
  O  O35  1  0.76600100  0.13822800  0.95590200  1
  O  O36  1  0.90065700  0.09201300  0.71924900  1
  O  O37  1  0.06380400  0.43466500  0.29361900  1
  O  O38  1  0.28075100  0.09934300  0.90798700  1
  O  O39  1  0.04409800  0.23399900  0.86177200  1
  O  O40  1  0.56533500  0.70638100  0.93619600  1
  O  O41  1  0.70638100  0.93619600  0.56533500  1
  O  O42  1  0.83184400  0.47470300  0.73916100  1
  O  O43  1  0.19156700  0.91565100  0.34935900  1
  O  O44  1  0.52148500  0.15962200  0.42246800  1
  O  O45  1  0.86177200  0.04409800  0.23399900  1
  O  O46  1  0.47470300  0.73916100  0.83184400  1
  O  O47  1  0.94402500  0.82664100  0.59951100  1
  O  O48  1  0.29361900  0.06380400  0.43466500  1
loop_
_geom_bond_atom_site_label_1
_geom_bond_atom_site_label_2
_geom_bond_distance
_geom_bond_site_symmetry_2
In0 O5 2.105487 1_556
In0 O24 2.105487 1_655
In0 O1 2.105487 1_565
In0 O47 2.250172 1_555
In0 O15 2.250172 1_555
In0 O4 2.250172 1_555
In1 O34 2.105487 1_554
In1 O18 2.105487 1_455
In1 O43 2.105487 1_545
In1 O25 2.250172 1_555
In1 O7 2.250172 1_555
In1 O11 2.250172 1_555
O0 P0 1.585254 1_555
O0 Si1 1.627625 1_555
O1 P2 1.526452 1_555
O2 P7 1.537449 1_565
O2 Ti4 1.903060 1_455
O3 P11 1.585254 1_555
O3 Si1 1.627625 1_555
O4 P11 1.560483 1_556
O4 Ti3 2.151882 1_555
O5 P5 1.526452 1_555
O6 P11 1.509820 1_555
O6 Ti1 2.001285 1_655
O7 P5 1.560483 1_545
O7 Ti2 2.151882 1_555
O8 P7 1.526020 1_555
O8 Ti5 1.976856 1_555
O9 P8 1.585254 1_555
O9 Si0 1.627625 1_555
O10 P4 1.531879 1_455
O10 Ti5 1.933961 1_555
O11 P8 1.560483 1_554
O11 Ti2 2.151882 1_555
O12 P9 1.526020 1_555
O12 Ti5 1.976856 1_555
O13 P6 1.537449 1_655
O13 Ti4 1.903060 1_554
O14 P8 1.509820 1_555
O14 Ti4 2.001285 1_455
O15 P0 1.560483 1_565
O15 Ti3 2.151882 1_555
O16 P9 1.531879 1_556
O16 Ti0 1.933961 1_555
O17 P10 1.526020 1_555
O17 Ti0 1.976856 1_555
O18 P11 1.526452 1_555
O19 P2 1.585254 1_555
O19 Si0 1.627625 1_555
O20 P3 1.531879 1_554
O20 Ti5 1.933961 1_555
O21 P6 1.526020 1_555
O21 Ti5 1.976856 1_555
O22 P5 1.585254 1_555
O22 Si0 1.627625 1_555
O23 P6 1.531879 1_655
O23 Ti0 1.933961 1_555
O24 P8 1.526452 1_555
O25 P2 1.560483 1_455
O25 Ti2 2.151882 1_555
O26 P1 1.585254 1_555
O26 Si1 1.627625 1_555
O27 P9 1.579086 1_555
O27 Ti2 1.845718 1_555
O28 P1 1.509820 1_555
O28 Ti1 2.001285 1_565
O29 P4 1.579086 1_555
O29 Ti3 1.845718 1_555
O30 Si1 1.611103 1_555
O30 Si0 1.611103 1_555
O31 P3 1.537449 1_554
O31 Ti1 1.903060 1_565
O32 P5 1.509820 1_555
O32 Ti4 2.001285 1_554
O33 P7 1.531879 1_565
O33 Ti0 1.933961 1_555
O34 P0 1.526452 1_555
O35 P9 1.537449 1_556
O35 Ti4 1.903060 1_545
O36 P2 1.509820 1_555
O36 Ti4 2.001285 1_545
O37 P6 1.579086 1_555
O37 Ti2 1.845718 1_555
O38 P0 1.509820 1_555
O38 Ti1 2.001285 1_556
O39 P4 1.537449 1_455
O39 Ti1 1.903060 1_556
O40 P3 1.579086 1_555
O40 Ti3 1.845718 1_555
O41 P10 1.579086 1_555
O41 Ti3 1.845718 1_555
O42 P4 1.526020 1_555
O42 Ti0 1.976856 1_555
O43 P1 1.526452 1_555
O44 P10 1.531879 1_545
O44 Ti5 1.933961 1_555
O45 P10 1.537449 1_545
O45 Ti1 1.903060 1_655
O46 P3 1.526020 1_555
O46 Ti0 1.976856 1_555
O47 P1 1.560483 1_655
O47 Ti3 2.151882 1_555
O48 P7 1.579086 1_555
O48 Ti2 1.845718 1_555
