# generated using pymatgen
data_Nd4(GeS4)3
_symmetry_space_group_name_H-M   'P 1'
_cell_length_a   11.52806243
_cell_length_b   11.52806243
_cell_length_c   11.52806335
_cell_angle_alpha   114.82449912
_cell_angle_beta   114.82449912
_cell_angle_gamma   114.82450707
_symmetry_Int_Tables_number   1
_chemical_formula_structural   Nd4(GeS4)3
_chemical_formula_sum   'Nd8 Ge6 S24'
_cell_volume   870.96693682
_cell_formula_units_Z   2
loop_
 _symmetry_equiv_pos_site_id
 _symmetry_equiv_pos_as_xyz
  1  'x, y, z'
loop_
 _atom_site_type_symbol
 _atom_site_label
 _atom_site_symmetry_multiplicity
 _atom_site_fract_x
 _atom_site_fract_y
 _atom_site_fract_z
 _atom_site_occupancy
  Nd  Nd0  1  0.93618336  0.47471268  0.71297181  1
  Nd  Nd1  1  0.21297181  0.97471268  0.43618336  1
  Nd  Nd2  1  0.99762628  0.99762628  0.99762628  1
  Nd  Nd3  1  0.43618336  0.21297181  0.97471268  1
  Nd  Nd4  1  0.47471268  0.71297181  0.93618336  1
  Nd  Nd5  1  0.71297181  0.93618336  0.47471268  1
  Nd  Nd6  1  0.97471268  0.43618336  0.21297181  1
  Nd  Nd7  1  0.49762628  0.49762628  0.49762628  1
  Ge  Ge0  1  0.64403694  0.47009729  0.85604284  1
  Ge  Ge1  1  0.85604284  0.64403694  0.47009729  1
  Ge  Ge2  1  0.14403694  0.35604284  0.97009729  1
  Ge  Ge3  1  0.47009729  0.85604284  0.64403694  1
  Ge  Ge4  1  0.35604284  0.97009729  0.14403694  1
  Ge  Ge5  1  0.97009729  0.14403694  0.35604284  1
  S  S0  1  0.29889492  0.61461663  0.58736782  1
  S  S1  1  0.62940078  0.08614289  0.35234104  1
  S  S2  1  0.68646262  0.87121533  0.68459490  1
  S  S3  1  0.81348264  0.88704059  0.28171964  1
  S  S4  1  0.85234104  0.58614289  0.12940078  1
  S  S5  1  0.08736782  0.11461663  0.79889492  1
  S  S6  1  0.58614289  0.12940078  0.85234104  1
  S  S7  1  0.08614289  0.35234104  0.62940078  1
  S  S8  1  0.88704059  0.28171964  0.81348264  1
  S  S9  1  0.79889492  0.08736782  0.11461663  1
  S  S10  1  0.12940078  0.85234104  0.58614289  1
  S  S11  1  0.35234104  0.62940078  0.08614289  1
  S  S12  1  0.87121533  0.68459490  0.68646262  1
  S  S13  1  0.58736782  0.29889492  0.61461663  1
  S  S14  1  0.18646262  0.18459490  0.37121533  1
  S  S15  1  0.11461663  0.79889492  0.08736782  1
  S  S16  1  0.68459490  0.68646262  0.87121533  1
  S  S17  1  0.61461663  0.58736782  0.29889492  1
  S  S18  1  0.38704059  0.31348264  0.78171964  1
  S  S19  1  0.78171964  0.38704059  0.31348264  1
  S  S20  1  0.31348264  0.78171964  0.38704059  1
  S  S21  1  0.28171964  0.81348264  0.88704059  1
  S  S22  1  0.37121533  0.18646262  0.18459490  1
  S  S23  1  0.18459490  0.37121533  0.18646262  1
loop_
_geom_bond_atom_site_label_1
_geom_bond_atom_site_label_2
_geom_bond_distance
_geom_bond_site_symmetry_2
Nd0 S7 2.865634 1_655
Nd0 S8 2.875913 1_555
Nd0 S12 2.908395 1_555
Nd0 S1 2.927728 1_555
Nd0 S21 2.964975 1_655
Nd0 S13 2.993617 1_555
Nd0 S15 3.061454 1_656
Nd1 S10 2.865634 1_555
Nd1 S20 2.875913 1_555
Nd1 S14 2.908395 1_565
Nd1 S4 2.927728 1_455
Nd1 S18 2.964975 1_565
Nd1 S15 2.993618 1_555
Nd1 S13 3.061453 1_565
Nd2 S22 2.885489 1_666
Nd2 S23 2.885489 1_666
Nd2 S14 2.885490 1_666
Nd2 S16 2.887725 1_555
Nd2 S12 2.887726 1_555
Nd2 S2 2.887726 1_555
Nd2 S5 3.398653 1_665
Nd2 S9 3.398653 1_566
Nd2 S15 3.398653 1_656
Nd3 S6 2.865634 1_555
Nd3 S18 2.875913 1_555
Nd3 S22 2.908395 1_556
Nd3 S10 2.927729 1_545
Nd3 S19 2.964975 1_556
Nd3 S5 2.993617 1_555
Nd3 S17 3.061454 1_556
Nd4 S11 2.865634 1_556
Nd4 S21 2.875913 1_555
Nd4 S16 2.908395 1_555
Nd4 S7 2.927728 1_555
Nd4 S3 2.964975 1_556
Nd4 S0 2.993618 1_555
Nd4 S9 3.061453 1_566
Nd5 S1 2.865634 1_565
Nd5 S3 2.875913 1_555
Nd5 S2 2.908395 1_555
Nd5 S11 2.927729 1_555
Nd5 S8 2.964975 1_565
Nd5 S17 2.993617 1_555
Nd5 S5 3.061454 1_665
Nd6 S4 2.865634 1_555
Nd6 S19 2.875913 1_555
Nd6 S23 2.908395 1_655
Nd6 S6 2.927728 1_554
Nd6 S20 2.964975 1_655
Nd6 S9 2.993617 1_555
Nd6 S0 3.061454 1_655
Nd7 S2 2.885489 1_555
Nd7 S12 2.885489 1_555
Nd7 S16 2.885490 1_555
Nd7 S14 2.887725 1_555
Nd7 S23 2.887726 1_555
Nd7 S22 2.887726 1_555
Nd7 S17 3.398653 1_555
Nd7 S13 3.398653 1_555
Nd7 S0 3.398653 1_555
Ge0 S13 2.201452 1_555
Ge0 S18 2.202133 1_555
Ge0 S4 2.212526 1_556
Ge0 S16 2.248635 1_555
Ge1 S17 2.201451 1_555
Ge1 S19 2.202133 1_555
Ge1 S10 2.212525 1_655
Ge1 S12 2.248635 1_555
Ge2 S5 2.201451 1_555
Ge2 S8 2.202133 1_455
Ge2 S11 2.212525 1_556
Ge2 S23 2.248635 1_556
Ge3 S0 2.201451 1_555
Ge3 S20 2.202133 1_555
Ge3 S6 2.212525 1_565
Ge3 S2 2.248635 1_555
Ge4 S15 2.201451 1_555
Ge4 S21 2.202133 1_554
Ge4 S1 2.212525 1_565
Ge4 S22 2.248635 1_565
Ge5 S9 2.201452 1_555
Ge5 S3 2.202133 1_545
Ge5 S7 2.212526 1_655
Ge5 S14 2.248635 1_655
