# generated using pymatgen
data_NaLa(SeO3)2
_symmetry_space_group_name_H-M   'P 1'
_cell_length_a   6.76563639
_cell_length_b   6.67580330
_cell_length_c   13.59087772
_cell_angle_alpha   72.46779985
_cell_angle_beta   90.00000000
_cell_angle_gamma   90.00000000
_symmetry_Int_Tables_number   1
_chemical_formula_structural   NaLa(SeO3)2
_chemical_formula_sum   'Na4 La4 Se8 O24'
_cell_volume   585.33185572
_cell_formula_units_Z   4
loop_
 _symmetry_equiv_pos_site_id
 _symmetry_equiv_pos_as_xyz
  1  'x, y, z'
loop_
 _atom_site_type_symbol
 _atom_site_label
 _atom_site_symmetry_multiplicity
 _atom_site_fract_x
 _atom_site_fract_y
 _atom_site_fract_z
 _atom_site_occupancy
  Na  Na0  1  0.66832180  0.92400742  0.38236468  1
  Na  Na1  1  0.83167820  0.92400742  0.88236468  1
  Na  Na2  1  0.33167820  0.07599258  0.61763532  1
  Na  Na3  1  0.16832180  0.07599258  0.11763532  1
  La  La0  1  0.38105193  0.50656985  0.33612348  1
  La  La1  1  0.88105193  0.49343015  0.16387652  1
  La  La2  1  0.11894807  0.50656985  0.83612348  1
  La  La3  1  0.61894807  0.49343015  0.66387652  1
  Se  Se0  1  0.33691590  0.03336052  0.86101210  1
  Se  Se1  1  0.35212978  0.62345469  0.06782568  1
  Se  Se2  1  0.83691590  0.96663948  0.63898790  1
  Se  Se3  1  0.66308410  0.96663948  0.13898790  1
  Se  Se4  1  0.85212978  0.37654531  0.43217432  1
  Se  Se5  1  0.64787022  0.37654531  0.93217432  1
  Se  Se6  1  0.16308410  0.03336052  0.36101210  1
  Se  Se7  1  0.14787022  0.62345469  0.56782568  1
  O  O0  1  0.71798381  0.30327518  0.34013567  1
  O  O1  1  0.68217231  0.53395107  0.46438980  1
  O  O2  1  0.66277040  0.12281099  0.66864918  1
  O  O3  1  0.48440887  0.54585375  0.85478663  1
  O  O4  1  0.17245887  0.25107938  0.25488421  1
  O  O5  1  0.18217231  0.46604893  0.03561020  1
  O  O6  1  0.51559113  0.45414625  0.14521337  1
  O  O7  1  0.20984084  0.13295646  0.94382293  1
  O  O8  1  0.81782769  0.53395107  0.96438980  1
  O  O9  1  0.16277040  0.87718901  0.83135082  1
  O  O10  1  0.83722960  0.12281099  0.16864918  1
  O  O11  1  0.82754113  0.74892062  0.74511579  1
  O  O12  1  0.70984084  0.86704354  0.55617707  1
  O  O13  1  0.33722960  0.87718901  0.33135082  1
  O  O14  1  0.79015916  0.86704354  0.05617707  1
  O  O15  1  0.28201619  0.69672482  0.65986433  1
  O  O16  1  0.32754113  0.25107938  0.75488421  1
  O  O17  1  0.21798381  0.69672482  0.15986433  1
  O  O18  1  0.29015916  0.13295646  0.44382293  1
  O  O19  1  0.78201619  0.30327518  0.84013567  1
  O  O20  1  0.98440887  0.45414625  0.64521337  1
  O  O21  1  0.67245887  0.74892062  0.24511579  1
  O  O22  1  0.31782769  0.46604893  0.53561020  1
  O  O23  1  0.01559113  0.54585375  0.35478663  1
loop_
_geom_bond_atom_site_label_1
_geom_bond_atom_site_label_2
_geom_bond_distance
_geom_bond_site_symmetry_2
Na0 O12 2.294032 1_555
Na0 O13 2.393066 1_555
Na0 O0 2.444872 1_565
Na0 O21 2.481942 1_555
Na0 O1 2.506616 1_555
Na1 O14 2.294032 1_556
Na1 O9 2.393066 1_655
Na1 O19 2.444872 1_565
Na1 O11 2.481942 1_555
Na1 O8 2.506616 1_555
Na2 O18 2.294032 1_555
Na2 O2 2.393066 1_555
Na2 O15 2.444872 1_545
Na2 O16 2.481942 1_555
Na2 O22 2.506616 1_555
Na3 O7 2.294032 1_554
Na3 O10 2.393066 1_455
Na3 O17 2.444872 1_545
Na3 O4 2.481942 1_555
Na3 O5 2.506616 1_555
La0 O13 2.473255 1_555
La0 O23 2.507353 1_555
La0 O18 2.557735 1_555
La0 O17 2.595193 1_555
La0 O21 2.613196 1_555
La0 O0 2.645117 1_555
La0 O22 2.676730 1_555
La0 O4 2.693400 1_555
La0 O1 2.723012 1_555
La0 O6 2.868839 1_555
La1 O10 2.473255 1_555
La1 O6 2.507353 1_555
La1 O14 2.557735 1_555
La1 O0 2.595193 1_555
La1 O4 2.613196 1_655
La1 O17 2.645117 1_655
La1 O8 2.676730 1_554
La1 O21 2.693400 1_555
La1 O5 2.723012 1_655
La1 O23 2.868839 1_655
La2 O9 2.473255 1_555
La2 O3 2.507353 1_555
La2 O7 2.557735 1_555
La2 O15 2.595193 1_555
La2 O11 2.613196 1_455
La2 O19 2.645117 1_455
La2 O5 2.676730 1_556
La2 O16 2.693400 1_555
La2 O8 2.723012 1_455
La2 O20 2.868839 1_455
La3 O2 2.473255 1_555
La3 O20 2.507353 1_555
La3 O12 2.557735 1_555
La3 O19 2.595193 1_555
La3 O16 2.613196 1_555
La3 O15 2.645117 1_555
La3 O1 2.676730 1_555
La3 O11 2.693400 1_555
La3 O22 2.723012 1_555
La3 O3 2.868839 1_555
O0 Se4 1.730985 1_555
O1 Se4 1.701557 1_555
O2 Se2 1.700248 1_545
O3 Se5 1.700165 1_555
O4 Se6 1.712868 1_555
O5 Se1 1.701557 1_555
O6 Se1 1.700165 1_555
O7 Se0 1.702574 1_555
O8 Se5 1.701557 1_555
O9 Se0 1.700248 1_565
O10 Se3 1.700248 1_545
O11 Se2 1.712868 1_555
O12 Se2 1.702574 1_555
O13 Se6 1.700248 1_565
O14 Se3 1.702574 1_555
O15 Se7 1.730985 1_555
O16 Se0 1.712868 1_555
O17 Se1 1.730985 1_555
O18 Se6 1.702574 1_555
O19 Se5 1.730985 1_555
O20 Se7 1.700165 1_655
O21 Se3 1.712868 1_555
O22 Se7 1.701557 1_555
O23 Se4 1.700165 1_455
