# generated using pymatgen
data_CsDyI3
_symmetry_space_group_name_H-M   'P 1'
_cell_length_a   8.42865500
_cell_length_b   8.68355300
_cell_length_c   12.18684600
_cell_angle_alpha   90.00000000
_cell_angle_beta   90.00000000
_cell_angle_gamma   90.00000000
_symmetry_Int_Tables_number   1
_chemical_formula_structural   CsDyI3
_chemical_formula_sum   'Cs4 Dy4 I12'
_cell_volume   891.96345331
_cell_formula_units_Z   4
loop_
 _symmetry_equiv_pos_site_id
 _symmetry_equiv_pos_as_xyz
  1  'x, y, z'
loop_
 _atom_site_type_symbol
 _atom_site_label
 _atom_site_symmetry_multiplicity
 _atom_site_fract_x
 _atom_site_fract_y
 _atom_site_fract_z
 _atom_site_occupancy
  Cs  Cs0  1  0.98217000  0.94423400  0.25000000  1
  Cs  Cs1  1  0.48217000  0.55576600  0.75000000  1
  Cs  Cs2  1  0.51783000  0.44423400  0.25000000  1
  Cs  Cs3  1  0.01783000  0.05576600  0.75000000  1
  Dy  Dy0  1  0.50000000  0.00000000  0.00000000  1
  Dy  Dy1  1  0.00000000  0.50000000  0.00000000  1
  Dy  Dy2  1  0.00000000  0.50000000  0.50000000  1
  Dy  Dy3  1  0.50000000  0.00000000  0.50000000  1
  I  I0  1  0.03900400  0.49654000  0.25000000  1
  I  I1  1  0.53900400  0.00346000  0.75000000  1
  I  I2  1  0.46099600  0.99654000  0.25000000  1
  I  I3  1  0.96099600  0.50346000  0.75000000  1
  I  I4  1  0.78468500  0.21721600  0.01974300  1
  I  I5  1  0.28468500  0.28278400  0.98025700  1
  I  I6  1  0.71531500  0.71721600  0.48025700  1
  I  I7  1  0.21531500  0.78278400  0.51974300  1
  I  I8  1  0.21531500  0.78278400  0.98025700  1
  I  I9  1  0.71531500  0.71721600  0.01974300  1
  I  I10  1  0.28468500  0.28278400  0.51974300  1
  I  I11  1  0.78468500  0.21721600  0.48025700  1
loop_
_geom_bond_atom_site_label_1
_geom_bond_atom_site_label_2
_geom_bond_distance
_geom_bond_site_symmetry_2
Cs0 I0 3.916977 1_655
Cs0 I11 4.032859 1_565
Cs0 I4 4.032859 1_565
Cs0 I2 4.061337 1_655
Cs0 I7 4.078425 1_655
Cs0 I8 4.078425 1_654
Cs0 I9 4.101143 1_555
Cs0 I6 4.101143 1_555
Cs0 I2 4.416215 1_555
Cs1 I1 3.916977 1_565
Cs1 I5 4.032859 1_555
Cs1 I10 4.032859 1_555
Cs1 I3 4.061337 1_555
Cs1 I6 4.078425 1_555
Cs1 I9 4.078425 1_556
Cs1 I7 4.101143 1_555
Cs1 I8 4.101143 1_555
Cs1 I3 4.416215 1_455
Cs2 I2 3.916977 1_545
Cs2 I6 4.032859 1_555
Cs2 I9 4.032859 1_555
Cs2 I0 4.061337 1_555
Cs2 I10 4.078425 1_555
Cs2 I5 4.078425 1_554
Cs2 I4 4.101143 1_555
Cs2 I11 4.101143 1_555
Cs2 I0 4.416215 1_655
Cs3 I3 3.916977 1_455
Cs3 I8 4.032859 1_545
Cs3 I7 4.032859 1_545
Cs3 I1 4.061337 1_455
Cs3 I11 4.078425 1_455
Cs3 I4 4.078425 1_456
Cs3 I5 4.101143 1_555
Cs3 I10 4.101143 1_555
Cs3 I1 4.416215 1_555
Dy0 I8 3.061588 1_544
Dy0 I4 3.061588 1_555
Dy0 I5 3.062886 1_554
Dy0 I9 3.062886 1_545
Dy0 I2 3.064544 1_545
Dy0 I1 3.064544 1_554
Dy1 I9 3.061588 1_455
Dy1 I5 3.061588 1_554
Dy1 I8 3.062886 1_554
Dy1 I4 3.062886 1_455
Dy1 I3 3.064544 1_454
Dy1 I0 3.064544 1_555
Dy2 I6 3.061588 1_455
Dy2 I10 3.061588 1_555
Dy2 I7 3.062886 1_555
Dy2 I11 3.062886 1_455
Dy2 I0 3.064544 1_555
Dy2 I3 3.064544 1_455
Dy3 I7 3.061588 1_545
Dy3 I11 3.061588 1_555
Dy3 I10 3.062886 1_555
Dy3 I6 3.062886 1_545
Dy3 I2 3.064544 1_545
Dy3 I1 3.064544 1_555
