# generated using pymatgen
data_La4FeSe6O
_symmetry_space_group_name_H-M   'P 1'
_cell_length_a   9.79436707
_cell_length_b   9.79436707
_cell_length_c   7.11446100
_cell_angle_alpha   90.00000000
_cell_angle_beta   90.00000000
_cell_angle_gamma   120.00000720
_symmetry_Int_Tables_number   1
_chemical_formula_structural   La4FeSe6O
_chemical_formula_sum   'La8 Fe2 Se12 O2'
_cell_volume   591.05154301
_cell_formula_units_Z   2
loop_
 _symmetry_equiv_pos_site_id
 _symmetry_equiv_pos_as_xyz
  1  'x, y, z'
loop_
 _atom_site_type_symbol
 _atom_site_label
 _atom_site_symmetry_multiplicity
 _atom_site_fract_x
 _atom_site_fract_y
 _atom_site_fract_z
 _atom_site_occupancy
  La  La0  1  0.80061300  0.60122700  0.16013100  1
  La  La1  1  0.33333300  0.66666700  0.20842600  1
  La  La2  1  0.39877300  0.19938700  0.16013100  1
  La  La3  1  0.19938700  0.80061300  0.66013100  1
  La  La4  1  0.60122700  0.80061300  0.66013100  1
  La  La5  1  0.19938700  0.39877300  0.66013100  1
  La  La6  1  0.66666700  0.33333300  0.70842600  1
  La  La7  1  0.80061300  0.19938700  0.16013100  1
  Fe  Fe0  1  0.00000000  0.00000000  0.99257000  1
  Fe  Fe1  1  0.00000000  0.00000000  0.49257000  1
  Se  Se0  1  0.12316100  0.24632300  0.26442600  1
  Se  Se1  1  0.12316100  0.87683900  0.26442600  1
  Se  Se2  1  0.52939800  0.47060200  0.44637800  1
  Se  Se3  1  0.94120500  0.47060200  0.44637800  1
  Se  Se4  1  0.87683900  0.12316100  0.76442600  1
  Se  Se5  1  0.75367700  0.87683900  0.26442600  1
  Se  Se6  1  0.52939800  0.05879500  0.44637800  1
  Se  Se7  1  0.24632300  0.12316100  0.76442600  1
  Se  Se8  1  0.05879500  0.52939800  0.94637800  1
  Se  Se9  1  0.47060200  0.94120500  0.94637800  1
  Se  Se10  1  0.47060200  0.52939800  0.94637800  1
  Se  Se11  1  0.87683900  0.75367700  0.76442600  1
  O  O0  1  0.66666700  0.33333300  0.04367500  1
  O  O1  1  0.33333300  0.66666700  0.54367500  1
loop_
_geom_bond_atom_site_label_1
_geom_bond_atom_site_label_2
_geom_bond_distance
_geom_bond_site_symmetry_2
La0 O0 2.418656 1_555
La0 Se1 3.047927 1_655
La0 Se5 3.047927 1_555
La0 Se2 3.072775 1_555
La0 Se3 3.072788 1_555
La0 Se11 3.098005 1_554
La0 Se10 3.313769 1_554
La0 Se8 3.313769 1_654
La1 O1 2.385116 1_555
La1 Se8 2.983030 1_554
La1 Se9 2.983030 1_554
La1 Se10 2.983030 1_554
La1 Se0 3.587620 1_555
La1 Se5 3.587620 1_555
La1 Se1 3.587620 1_555
La1 Se6 3.732135 1_565
La1 Se3 3.732135 1_455
La1 Se2 3.732150 1_555
La2 O0 2.418656 1_555
La2 Se1 3.047927 1_545
La2 Se0 3.047927 1_555
La2 Se2 3.072775 1_555
La2 Se6 3.072788 1_555
La2 Se7 3.098005 1_554
La2 Se10 3.313769 1_554
La2 Se9 3.313769 1_544
La3 O1 2.418640 1_555
La3 Se11 3.047927 1_455
La3 Se7 3.047927 1_565
La3 Se9 3.072776 1_555
La3 Se8 3.072776 1_555
La3 Se1 3.098012 1_555
La3 Se6 3.313769 1_565
La3 Se3 3.313769 1_455
La4 O1 2.418656 1_555
La4 Se4 3.047927 1_565
La4 Se11 3.047927 1_555
La4 Se10 3.072775 1_555
La4 Se9 3.072788 1_555
La4 Se5 3.098005 1_555
La4 Se2 3.313769 1_555
La4 Se6 3.313769 1_565
La5 O1 2.418656 1_555
La5 Se4 3.047927 1_455
La5 Se7 3.047927 1_555
La5 Se10 3.072775 1_555
La5 Se8 3.072788 1_555
La5 Se0 3.098005 1_555
La5 Se2 3.313769 1_555
La5 Se3 3.313769 1_455
La6 O0 2.385116 1_556
La6 Se3 2.983030 1_555
La6 Se6 2.983030 1_555
La6 Se2 2.983030 1_555
La6 Se7 3.587620 1_555
La6 Se11 3.587620 1_555
La6 Se4 3.587620 1_555
La6 Se8 3.732135 1_655
La6 Se9 3.732135 1_545
La6 Se10 3.732150 1_555
La7 O0 2.418640 1_555
La7 Se5 3.047927 1_545
La7 Se0 3.047927 1_655
La7 Se3 3.072776 1_555
La7 Se6 3.072776 1_555
La7 Se4 3.098012 1_554
La7 Se8 3.313769 1_654
La7 Se9 3.313769 1_544
Fe0 Se4 2.645730 1_455
Fe0 Se7 2.645737 1_555
Fe0 Se11 2.645737 1_445
Fe0 Se1 2.847129 1_546
Fe0 Se5 2.847135 1_446
Fe0 Se0 2.847135 1_556
Fe1 Se1 2.645730 1_545
Fe1 Se5 2.645737 1_445
Fe1 Se0 2.645737 1_555
Fe1 Se4 2.847129 1_455
Fe1 Se7 2.847135 1_555
Fe1 Se11 2.847135 1_445
