# generated using pymatgen
data_BH9(CO)3
_symmetry_space_group_name_H-M   'P 1'
_cell_length_a   7.13904806
_cell_length_b   7.13904806
_cell_length_c   6.80570500
_cell_angle_alpha   90.00000000
_cell_angle_beta   90.00000000
_cell_angle_gamma   120.00000059
_symmetry_Int_Tables_number   1
_chemical_formula_structural   BH9(CO)3
_chemical_formula_sum   'B2 H18 C6 O6'
_cell_volume   300.38923236
_cell_formula_units_Z   2
loop_
 _symmetry_equiv_pos_site_id
 _symmetry_equiv_pos_as_xyz
  1  'x, y, z'
loop_
 _atom_site_type_symbol
 _atom_site_label
 _atom_site_symmetry_multiplicity
 _atom_site_fract_x
 _atom_site_fract_y
 _atom_site_fract_z
 _atom_site_occupancy
  B  B0  1  0.00000000  0.00000000  0.25000000  1
  B  B1  1  0.00000000  0.00000000  0.75000000  1
  H  H0  1  0.41538900  0.27108400  0.38199900  1
  H  H1  1  0.49489100  0.06448600  0.75000000  1
  H  H2  1  0.56959500  0.50510900  0.75000000  1
  H  H3  1  0.06448600  0.56959500  0.25000000  1
  H  H4  1  0.58461100  0.72891600  0.88199900  1
  H  H5  1  0.58461100  0.72891600  0.61800100  1
  H  H6  1  0.14430500  0.41538900  0.88199900  1
  H  H7  1  0.41538900  0.27108400  0.11800100  1
  H  H8  1  0.27108400  0.85569500  0.61800100  1
  H  H9  1  0.50510900  0.93551400  0.25000000  1
  H  H10  1  0.72891600  0.14430500  0.11800100  1
  H  H11  1  0.85569500  0.58461100  0.11800100  1
  H  H12  1  0.72891600  0.14430500  0.38199900  1
  H  H13  1  0.27108400  0.85569500  0.88199900  1
  H  H14  1  0.14430500  0.41538900  0.61800100  1
  H  H15  1  0.93551400  0.43040500  0.75000000  1
  H  H16  1  0.43040500  0.49489100  0.25000000  1
  H  H17  1  0.85569500  0.58461100  0.38199900  1
  C  C0  1  0.68130400  0.04180400  0.25000000  1
  C  C1  1  0.04180400  0.36049900  0.75000000  1
  C  C2  1  0.36049900  0.31869600  0.25000000  1
  C  C3  1  0.95819600  0.63950100  0.25000000  1
  C  C4  1  0.31869600  0.95819600  0.75000000  1
  C  C5  1  0.63950100  0.68130400  0.75000000  1
  O  O0  1  0.12931700  0.22166500  0.25000000  1
  O  O1  1  0.09234800  0.87068300  0.25000000  1
  O  O2  1  0.22166500  0.09234800  0.75000000  1
  O  O3  1  0.87068300  0.77833500  0.75000000  1
  O  O4  1  0.77833500  0.90765200  0.25000000  1
  O  O5  1  0.90765200  0.12931700  0.75000000  1
loop_
_geom_bond_atom_site_label_1
_geom_bond_atom_site_label_2
_geom_bond_distance
_geom_bond_site_symmetry_2
B0 O0 1.376804 1_555
B0 O4 1.376804 1_445
B0 O1 1.376804 1_545
B1 O3 1.376804 1_445
B1 O2 1.376804 1_555
B1 O5 1.376804 1_455
C0 H9 1.097058 1_545
C0 H12 1.099684 1_555
C0 H10 1.099684 1_555
C0 O4 1.435440 1_545
C1 H15 1.097063 1_455
C1 H6 1.099684 1_555
C1 H14 1.099684 1_555
C1 O5 1.435434 1_455
C2 H16 1.097057 1_555
C2 H0 1.099688 1_555
C2 H7 1.099688 1_555
C2 O0 1.435434 1_555
C3 H3 1.097063 1_655
C3 H17 1.099684 1_555
C3 H11 1.099684 1_555
C3 O1 1.435434 1_655
C4 H1 1.097058 1_565
C4 H13 1.099684 1_555
C4 H8 1.099684 1_555
C4 O2 1.435440 1_565
C5 H2 1.097057 1_555
C5 H4 1.099688 1_555
C5 H5 1.099688 1_555
C5 O3 1.435434 1_555
