# generated using pymatgen
data_Co5Se4(BrO6)2
_symmetry_space_group_name_H-M   'P 1'
_cell_length_a   7.97099082
_cell_length_b   9.46782124
_cell_length_c   10.21882365
_cell_angle_alpha   84.97821452
_cell_angle_beta   106.79458719
_cell_angle_gamma   81.92507489
_symmetry_Int_Tables_number   1
_chemical_formula_structural   Co5Se4(BrO6)2
_chemical_formula_sum   'Co10 Se8 Br4 O24'
_cell_volume   724.27077403
_cell_formula_units_Z   2
loop_
 _symmetry_equiv_pos_site_id
 _symmetry_equiv_pos_as_xyz
  1  'x, y, z'
loop_
 _atom_site_type_symbol
 _atom_site_label
 _atom_site_symmetry_multiplicity
 _atom_site_fract_x
 _atom_site_fract_y
 _atom_site_fract_z
 _atom_site_occupancy
  Co  Co0  1  0.50000100  0.49999800  0.50000400  1
  Co  Co1  1  0.74790400  0.72386600  0.40046800  1
  Co  Co2  1  0.24779100  0.22434400  0.90024700  1
  Co  Co3  1  0.25209000  0.27611400  0.59953000  1
  Co  Co4  1  0.75221100  0.77565300  0.09975600  1
  Co  Co5  1  0.00000200  0.00000200  0.00000200  1
  Co  Co6  1  0.16416000  0.71090600  0.59303100  1
  Co  Co7  1  0.66435200  0.21081800  0.09329600  1
  Co  Co8  1  0.83584200  0.28910200  0.40695700  1
  Co  Co9  1  0.33565100  0.78918500  0.90670000  1
  Se  Se0  1  0.41009200  0.97988800  0.18515900  1
  Se  Se1  1  0.90949700  0.48011600  0.68498000  1
  Se  Se2  1  0.58990800  0.02011600  0.81484300  1
  Se  Se3  1  0.09051500  0.51988400  0.31502600  1
  Se  Se4  1  0.00680900  0.97896300  0.32649100  1
  Se  Se5  1  0.50670500  0.47903900  0.82668600  1
  Se  Se6  1  0.99318900  0.02104400  0.67350500  1
  Se  Se7  1  0.49328800  0.52095400  0.17330700  1
  Br  Br0  1  0.45499900  0.23534600  0.43229300  1
  Br  Br1  1  0.95447800  0.73545200  0.93223700  1
  Br  Br2  1  0.54499000  0.76466700  0.56769500  1
  Br  Br3  1  0.04552100  0.26455100  0.06776200  1
  O  O0  1  0.95037900  0.90794400  0.17097200  1
  O  O1  1  0.45093600  0.40795700  0.67137500  1
  O  O2  1  0.04961700  0.09205400  0.82902700  1
  O  O3  1  0.54905300  0.59203200  0.32862200  1
  O  O4  1  0.61620600  0.87060400  0.22845900  1
  O  O5  1  0.11530800  0.37105800  0.72790700  1
  O  O6  1  0.38380100  0.12939100  0.77155400  1
  O  O7  1  0.88470500  0.62895500  0.27209600  1
  O  O8  1  0.82834300  0.12173900  0.28950000  1
  O  O9  1  0.32811500  0.62171400  0.78945000  1
  O  O10  1  0.17164700  0.87825900  0.71050100  1
  O  O11  1  0.67187600  0.37829100  0.21054400  1
  O  O12  1  0.94303300  0.62011100  0.57818000  1
  O  O13  1  0.44348500  0.11973300  0.07839200  1
  O  O14  1  0.05696200  0.37989200  0.42181200  1
  O  O15  1  0.55651800  0.88026400  0.92161200  1
  O  O16  1  0.95385500  0.85808400  0.43944000  1
  O  O17  1  0.45348200  0.35801600  0.93957500  1
  O  O18  1  0.04615300  0.14191300  0.56056100  1
  O  O19  1  0.54651800  0.64198900  0.06042400  1
  O  O20  1  0.23064900  0.60104900  0.44102400  1
  O  O21  1  0.73002100  0.10140500  0.94051800  1
  O  O22  1  0.76935600  0.39895000  0.55899400  1
  O  O23  1  0.26998700  0.89858900  0.05948500  1
loop_
_geom_bond_atom_site_label_1
_geom_bond_atom_site_label_2
_geom_bond_distance
_geom_bond_site_symmetry_2
Co0 O1 2.050231 1_555
Co0 O3 2.050253 1_555
Co0 O20 2.112440 1_555
Co0 O22 2.112448 1_555
Co1 O4 2.053823 1_555
Co1 O12 2.075626 1_555
Co1 O7 2.115446 1_555
Co1 O3 2.157100 1_555
Co1 O16 2.182940 1_555
Co2 O5 2.056961 1_555
Co2 O13 2.082662 1_556
Co2 O6 2.114258 1_555
Co2 O2 2.155169 1_555
Co2 O17 2.177747 1_555
Co3 O6 2.053865 1_555
Co3 O14 2.075724 1_555
Co3 O5 2.115518 1_555
Co3 O1 2.157131 1_555
Co3 O18 2.182739 1_555
Co4 O7 2.056896 1_555
Co4 O15 2.082652 1_554
Co4 O4 2.114307 1_555
Co4 O0 2.155134 1_555
Co4 O19 2.177707 1_555
Co5 O2 2.048928 1_554
Co5 O0 2.048936 1_445
Co5 O21 2.117510 1_454
Co5 O23 2.117565 1_545
Co6 O12 2.040267 1_455
Co6 O10 2.067177 1_555
Co6 O9 2.080178 1_555
Co6 O20 2.092670 1_555
Co6 O16 2.157698 1_455
Co7 O13 2.039834 1_555
Co7 O11 2.066652 1_555
Co7 O8 2.078370 1_555
Co7 O21 2.094641 1_554
Co7 O17 2.160527 1_554
Co8 O14 2.040185 1_655
Co8 O8 2.067167 1_555
Co8 O11 2.080151 1_555
Co8 O22 2.092879 1_555
Co8 O18 2.157829 1_655
Co9 O15 2.039792 1_555
Co9 O9 2.066647 1_555
Co9 O10 2.078351 1_555
Co9 O23 2.094643 1_556
Co9 O19 2.160520 1_556
Br0 Co3 2.687542 1_555
Br0 Co0 2.701566 1_555
Br1 Co4 2.685386 1_556
Br1 Co5 2.701585 1_666
Br2 Co1 2.687524 1_555
Br2 Co0 2.701641 1_555
Br3 Co2 2.685377 1_554
Br3 Co5 2.701553 1_555
O0 Se4 1.743277 1_655
O1 Se5 1.741474 1_555
O2 Se6 1.743260 1_455
O3 Se7 1.741490 1_555
O4 Se0 1.728515 1_555
O5 Se1 1.725928 1_455
O6 Se2 1.728441 1_555
O7 Se3 1.725974 1_655
O8 Se4 1.747400 1_645
O9 Se5 1.747209 1_555
O10 Se6 1.747409 1_465
O11 Se7 1.747125 1_555
O12 Se1 1.741907 1_555
O13 Se0 1.740168 1_545
O14 Se3 1.741860 1_555
O15 Se2 1.740218 1_565
O16 Se4 1.733822 1_655
O17 Se5 1.735408 1_555
O18 Se6 1.733769 1_455
O19 Se7 1.735468 1_555
O20 Se3 1.754785 1_555
O21 Se2 1.753459 1_555
O22 Se1 1.754745 1_555
O23 Se0 1.753478 1_555
