# generated using pymatgen
data_Ca2Mg5Si8(O11F)2
_symmetry_space_group_name_H-M   'P 1'
_cell_length_a   10.37304326
_cell_length_b   10.37304326
_cell_length_c   5.32796317
_cell_angle_alpha   83.13018931
_cell_angle_beta   83.13018931
_cell_angle_gamma   122.76893639
_symmetry_Int_Tables_number   1
_chemical_formula_structural   Ca2Mg5Si8(O11F)2
_chemical_formula_sum   'Ca2 Mg5 Si8 O22 F2'
_cell_volume   466.77942716
_cell_formula_units_Z   1
loop_
 _symmetry_equiv_pos_site_id
 _symmetry_equiv_pos_as_xyz
  1  'x, y, z'
loop_
 _atom_site_type_symbol
 _atom_site_label
 _atom_site_symmetry_multiplicity
 _atom_site_fract_x
 _atom_site_fract_y
 _atom_site_fract_z
 _atom_site_occupancy
  Ca  Ca0  1  0.72241000  0.27759000  0.50000000  1
  Ca  Ca1  1  0.27759000  0.72241000  0.50000000  1
  Mg  Mg0  1  0.91154200  0.08845800  0.50000000  1
  Mg  Mg1  1  0.00000000  0.00000000  0.00000000  1
  Mg  Mg2  1  0.08845800  0.91154200  0.50000000  1
  Mg  Mg3  1  0.17673400  0.82326600  0.00000000  1
  Mg  Mg4  1  0.82326600  0.17673400  0.00000000  1
  Si  Si0  1  0.80213900  0.63501100  0.29573600  1
  Si  Si1  1  0.54045900  0.88192600  0.80326800  1
  Si  Si2  1  0.36498900  0.19786100  0.70426400  1
  Si  Si3  1  0.88192600  0.54045900  0.80326800  1
  Si  Si4  1  0.19786100  0.36498900  0.70426400  1
  Si  Si5  1  0.45954100  0.11807400  0.19673200  1
  Si  Si6  1  0.11807400  0.45954100  0.19673200  1
  Si  Si7  1  0.63501100  0.80213900  0.29573600  1
  O  O0  1  0.48112700  0.21209400  0.90133600  1
  O  O1  1  0.19709300  0.02734400  0.78238900  1
  O  O2  1  0.22511200  0.46396900  0.41444400  1
  O  O3  1  0.77488800  0.53603100  0.58555600  1
  O  O4  1  0.71126700  0.05125700  0.72411100  1
  O  O5  1  0.05125700  0.71126700  0.72411100  1
  O  O6  1  0.66002500  0.66002500  0.29257200  1
  O  O7  1  0.53603100  0.77488800  0.58555600  1
  O  O8  1  0.97265600  0.80290700  0.21761100  1
  O  O9  1  0.11769000  0.61356700  0.20773500  1
  O  O10  1  0.80290700  0.97265600  0.21761100  1
  O  O11  1  0.51887300  0.78790600  0.09866400  1
  O  O12  1  0.88231000  0.38643300  0.79226500  1
  O  O13  1  0.02734400  0.19709300  0.78238900  1
  O  O14  1  0.28873300  0.94874300  0.27588900  1
  O  O15  1  0.61356700  0.11769000  0.20773500  1
  O  O16  1  0.94874300  0.28873300  0.27588900  1
  O  O17  1  0.78790600  0.51887300  0.09866400  1
  O  O18  1  0.33997500  0.33997500  0.70742800  1
  O  O19  1  0.38643300  0.88231000  0.79226500  1
  O  O20  1  0.21209400  0.48112700  0.90133600  1
  O  O21  1  0.46396900  0.22511200  0.41444400  1
  F  F0  1  0.10117200  0.10117200  0.28834700  1
  F  F1  1  0.89882800  0.89882800  0.71165300  1
loop_
_geom_bond_atom_site_label_1
_geom_bond_atom_site_label_2
_geom_bond_distance
_geom_bond_site_symmetry_2
Ca0 O12 2.337077 1_555
Ca0 O15 2.337077 1_555
Ca0 O4 2.440020 1_555
Ca0 O16 2.440020 1_555
Ca0 O3 2.542221 1_555
Ca0 O21 2.542221 1_555
Ca0 O17 2.798138 1_555
Ca0 O0 2.798138 1_555
Ca1 O19 2.337077 1_555
Ca1 O9 2.337077 1_555
Ca1 O5 2.440020 1_555
Ca1 O14 2.440020 1_555
Ca1 O7 2.542221 1_555
Ca1 O2 2.542221 1_555
Ca1 O11 2.798138 1_555
Ca1 O20 2.798138 1_555
Mg0 O16 2.078234 1_555
Mg0 O4 2.078234 1_555
Mg0 O13 2.085455 1_655
Mg0 O10 2.085455 1_545
Mg1 O13 2.081115 1_554
Mg1 O1 2.081115 1_554
Mg1 O10 2.081115 1_445
Mg1 O8 2.081115 1_445
Mg2 O14 2.078234 1_555
Mg2 O5 2.078234 1_555
Mg2 O1 2.085455 1_565
Mg2 O8 2.085455 1_455
Mg3 O19 2.037503 1_554
Mg3 O9 2.037503 1_555
Mg3 O5 2.105667 1_554
Mg3 O14 2.105667 1_555
Mg3 O8 2.177267 1_455
Mg3 O1 2.177267 1_564
Mg4 O12 2.037503 1_554
Mg4 O15 2.037503 1_555
Mg4 O4 2.105667 1_554
Mg4 O16 2.105667 1_555
Mg4 O10 2.177267 1_545
Mg4 O13 2.177267 1_654
O0 Si2 1.650075 1_555
O0 Si5 1.670458 1_556
O1 Si2 1.628123 1_555
O2 Si4 1.649423 1_555
O2 Si6 1.687025 1_555
O3 Si0 1.649423 1_555
O3 Si3 1.687025 1_555
O4 Si1 1.636302 1_545
O5 Si3 1.636302 1_455
O6 Si7 1.630858 1_555
O6 Si0 1.630858 1_555
O7 Si7 1.649423 1_555
O7 Si1 1.687025 1_555
O8 Si0 1.628123 1_555
O9 Si6 1.607917 1_555
O10 Si7 1.628123 1_555
O11 Si7 1.650075 1_555
O11 Si1 1.670458 1_554
O12 Si3 1.607917 1_555
O13 Si4 1.628123 1_555
O14 Si5 1.636302 1_565
O15 Si5 1.607917 1_555
O16 Si6 1.636302 1_655
O17 Si0 1.650075 1_555
O17 Si3 1.670458 1_554
O18 Si2 1.630858 1_555
O18 Si4 1.630858 1_555
O19 Si1 1.607917 1_555
O20 Si4 1.650075 1_555
O20 Si6 1.670458 1_556
O21 Si2 1.649423 1_555
O21 Si5 1.687025 1_555
F0 Mg1 2.035223 1_555
F0 Mg2 2.076355 1_545
F0 Mg0 2.076355 1_455
F1 Mg1 2.035223 1_666
F1 Mg0 2.076355 1_565
F1 Mg2 2.076355 1_655
