# generated using pymatgen
data_Mg3(PO4)2
_symmetry_space_group_name_H-M   'P 1'
_cell_length_a   8.61162986
_cell_length_b   9.09287231
_cell_length_c   9.41919682
_cell_angle_alpha   115.93422236
_cell_angle_beta   91.39466113
_cell_angle_gamma   114.41327019
_symmetry_Int_Tables_number   1
_chemical_formula_structural   Mg3(PO4)2
_chemical_formula_sum   'Mg12 P8 O32'
_cell_volume   584.73309206
_cell_formula_units_Z   4
loop_
 _symmetry_equiv_pos_site_id
 _symmetry_equiv_pos_as_xyz
  1  'x, y, z'
loop_
 _atom_site_type_symbol
 _atom_site_label
 _atom_site_symmetry_multiplicity
 _atom_site_fract_x
 _atom_site_fract_y
 _atom_site_fract_z
 _atom_site_occupancy
  Mg  Mg0  1  0.07788800  0.30184800  0.87406600  1
  Mg  Mg1  1  0.59351000  0.52255100  0.26262200  1
  Mg  Mg2  1  0.51573100  0.89147900  0.82218100  1
  Mg  Mg3  1  0.48426900  0.10852100  0.17781900  1
  Mg  Mg4  1  0.98281100  0.70688600  0.44387400  1
  Mg  Mg5  1  0.59863000  0.19278500  0.67431600  1
  Mg  Mg6  1  0.90315100  0.81865600  0.83911400  1
  Mg  Mg7  1  0.40137000  0.80721500  0.32568400  1
  Mg  Mg8  1  0.40649000  0.47744900  0.73737800  1
  Mg  Mg9  1  0.09684900  0.18134400  0.16088600  1
  Mg  Mg10  1  0.01718900  0.29311400  0.55612600  1
  Mg  Mg11  1  0.92211200  0.69815200  0.12593400  1
  P  P0  1  0.32870700  0.17899900  0.90696400  1
  P  P1  1  0.17828000  0.68956500  0.94742200  1
  P  P2  1  0.67129300  0.82100100  0.09303600  1
  P  P3  1  0.76413900  0.92836500  0.59893900  1
  P  P4  1  0.72971100  0.43348700  0.54945700  1
  P  P5  1  0.27028900  0.56651300  0.45054300  1
  P  P6  1  0.23586100  0.07163500  0.40106100  1
  P  P7  1  0.82172000  0.31043500  0.05257800  1
  O  O0  1  0.13195700  0.06001800  0.90425700  1
  O  O1  1  0.15714500  0.50233200  0.80064500  1
  O  O2  1  0.24635400  0.09573100  0.24733900  1
  O  O3  1  0.84285500  0.49766800  0.19935500  1
  O  O4  1  0.00269100  0.69916700  0.93038300  1
  O  O5  1  0.60029300  0.94398600  0.55282800  1
  O  O6  1  0.40949000  0.07294600  0.78316300  1
  O  O7  1  0.43370000  0.26775500  0.08369300  1
  O  O8  1  0.21176900  0.70834000  0.45703100  1
  O  O9  1  0.93383400  0.11075500  0.64457700  1
  O  O10  1  0.10659300  0.37284800  0.38958000  1
  O  O11  1  0.56630000  0.73224500  0.91630700  1
  O  O12  1  0.32440000  0.33072000  0.87305200  1
  O  O13  1  0.67146100  0.13975700  0.04724300  1
  O  O14  1  0.67560000  0.66928000  0.12694800  1
  O  O15  1  0.62049500  0.44547100  0.68045500  1
  O  O16  1  0.20473000  0.67894200  0.10516000  1
  O  O17  1  0.37728900  0.62901400  0.61868200  1
  O  O18  1  0.59051000  0.92705400  0.21683700  1
  O  O19  1  0.77182400  0.76369300  0.45714200  1
  O  O20  1  0.99730900  0.30083300  0.06961700  1
  O  O21  1  0.39970700  0.05601400  0.44717200  1
  O  O22  1  0.78823100  0.29166000  0.54296900  1
  O  O23  1  0.37950500  0.55452900  0.31954500  1
  O  O24  1  0.22817600  0.23630700  0.54285800  1
  O  O25  1  0.62271100  0.37098600  0.38131800  1
  O  O26  1  0.32853900  0.86024300  0.95275700  1
  O  O27  1  0.75364600  0.90426900  0.75266100  1
  O  O28  1  0.79527000  0.32105800  0.89484000  1
  O  O29  1  0.86804300  0.93998200  0.09574300  1
  O  O30  1  0.89340700  0.62715200  0.61042000  1
  O  O31  1  0.06616600  0.88924500  0.35542300  1
loop_
_geom_bond_atom_site_label_1
_geom_bond_atom_site_label_2
_geom_bond_distance
_geom_bond_site_symmetry_2
Mg0 O20 1.986484 1_456
Mg0 O9 2.008241 1_455
Mg0 O12 2.029304 1_555
Mg0 O1 2.089143 1_555
Mg0 O0 2.553397 1_555
Mg1 O7 1.984487 1_555
Mg1 O19 2.022034 1_555
Mg1 O23 2.030548 1_555
Mg1 O14 2.160692 1_555
Mg1 O25 2.198419 1_555
Mg1 O3 2.315823 1_555
Mg2 O26 2.053191 1_555
Mg2 O17 2.080060 1_555
Mg2 O13 2.135874 1_566
Mg2 O27 2.138925 1_555
Mg2 O11 2.167331 1_555
Mg2 O6 2.335978 1_565
Mg3 O13 2.053191 1_555
Mg3 O25 2.080060 1_555
Mg3 O26 2.135874 1_544
Mg3 O2 2.138925 1_555
Mg3 O7 2.167331 1_555
Mg3 O18 2.335978 1_545
Mg4 O8 1.966790 1_655
Mg4 O30 2.042426 1_555
Mg4 O31 2.052426 1_655
Mg4 O19 2.077043 1_555
Mg4 O3 2.124481 1_555
Mg5 O5 2.047165 1_545
Mg5 O6 2.117275 1_555
Mg5 O28 2.149314 1_555
Mg5 O21 2.189040 1_555
Mg5 O15 2.200816 1_555
Mg5 O22 2.205142 1_555
Mg6 O4 2.050687 1_655
Mg6 O27 2.063657 1_555
Mg6 O0 2.064983 1_665
Mg6 O30 2.066142 1_555
Mg6 O29 2.265014 1_556
Mg7 O21 2.047165 1_565
Mg7 O18 2.117275 1_555
Mg7 O16 2.149314 1_555
Mg7 O5 2.189040 1_555
Mg7 O23 2.200816 1_555
Mg7 O8 2.205142 1_555
Mg8 O11 1.984487 1_555
Mg8 O24 2.022034 1_555
Mg8 O15 2.030548 1_555
Mg8 O12 2.160692 1_555
Mg8 O17 2.198419 1_555
Mg8 O1 2.315823 1_555
Mg9 O20 2.050687 1_455
Mg9 O2 2.063657 1_555
Mg9 O29 2.064983 1_445
Mg9 O10 2.066142 1_555
Mg9 O0 2.265014 1_554
Mg10 O22 1.966790 1_455
Mg10 O10 2.042426 1_555
Mg10 O9 2.052426 1_455
Mg10 O24 2.077043 1_555
Mg10 O1 2.124481 1_555
Mg11 O4 1.986484 1_654
Mg11 O31 2.008241 1_655
Mg11 O14 2.029304 1_555
Mg11 O3 2.089143 1_555
Mg11 O29 2.553397 1_555
O0 P0 1.581263 1_555
O1 P1 1.586130 1_555
O2 P6 1.555695 1_555
O3 P7 1.586130 1_555
O4 P1 1.558662 1_555
O5 P3 1.545795 1_555
O6 P0 1.544069 1_555
O7 P0 1.545423 1_554
O8 P5 1.546158 1_555
O9 P3 1.553458 1_545
O10 P5 1.562709 1_555
O11 P2 1.545423 1_556
O12 P0 1.560068 1_555
O13 P7 1.534290 1_555
O14 P2 1.560068 1_555
O15 P4 1.562873 1_555
O16 P1 1.547887 1_554
O17 P5 1.545663 1_555
O18 P2 1.544069 1_555
O19 P3 1.538587 1_555
O20 P7 1.558662 1_555
O21 P6 1.545795 1_555
O22 P4 1.546158 1_555
O23 P5 1.562873 1_555
O24 P6 1.538587 1_555
O25 P4 1.545663 1_555
O26 P1 1.534290 1_555
O27 P3 1.555695 1_555
O28 P7 1.547887 1_556
O29 P2 1.581263 1_555
O30 P4 1.562709 1_555
O31 P6 1.553458 1_565
