# generated using pymatgen
data_Rb5CeNi2(NO2)12
_symmetry_space_group_name_H-M   'P 1'
_cell_length_a   10.96219500
_cell_length_b   10.96219500
_cell_length_c   10.96219500
_cell_angle_alpha   90.00000000
_cell_angle_beta   90.00000000
_cell_angle_gamma   90.00000000
_symmetry_Int_Tables_number   1
_chemical_formula_structural   Rb5CeNi2(NO2)12
_chemical_formula_sum   'Rb10 Ce2 Ni4 N24 O48'
_cell_volume   1317.32389516
_cell_formula_units_Z   2
loop_
 _symmetry_equiv_pos_site_id
 _symmetry_equiv_pos_as_xyz
  1  'x, y, z'
loop_
 _atom_site_type_symbol
 _atom_site_label
 _atom_site_symmetry_multiplicity
 _atom_site_fract_x
 _atom_site_fract_y
 _atom_site_fract_z
 _atom_site_occupancy
  Rb  Rb0  1  0.50000000  0.50000000  0.00000000  1
  Rb  Rb1  1  0.50000000  0.00000000  0.50000000  1
  Rb  Rb2  1  0.25000000  0.75000000  0.75000000  1
  Rb  Rb3  1  0.75000000  0.25000000  0.25000000  1
  Rb  Rb4  1  0.75000000  0.25000000  0.75000000  1
  Rb  Rb5  1  0.00000000  0.00000000  0.00000000  1
  Rb  Rb6  1  0.75000000  0.75000000  0.25000000  1
  Rb  Rb7  1  0.25000000  0.75000000  0.25000000  1
  Rb  Rb8  1  0.00000000  0.50000000  0.50000000  1
  Rb  Rb9  1  0.25000000  0.25000000  0.75000000  1
  Ce  Ce0  1  0.25000000  0.25000000  0.25000000  1
  Ce  Ce1  1  0.75000000  0.75000000  0.75000000  1
  Ni  Ni0  1  0.00000000  0.00000000  0.50000000  1
  Ni  Ni1  1  0.50000000  0.00000000  0.00000000  1
  Ni  Ni2  1  0.00000000  0.50000000  0.00000000  1
  Ni  Ni3  1  0.50000000  0.50000000  0.50000000  1
  N  N0  1  0.50669700  0.50757800  0.69152500  1
  N  N1  1  0.80847500  0.99330300  0.50757800  1
  N  N2  1  0.69152500  0.99330300  0.99242200  1
  N  N3  1  0.50757800  0.80847500  0.99330300  1
  N  N4  1  0.99330300  0.99242200  0.69152500  1
  N  N5  1  0.00757800  0.30847500  0.00669700  1
  N  N6  1  0.30847500  0.00669700  0.00757800  1
  N  N7  1  0.80847500  0.50669700  0.99242200  1
  N  N8  1  0.50757800  0.69152500  0.50669700  1
  N  N9  1  0.00669700  0.49242200  0.19152500  1
  N  N10  1  0.99242200  0.80847500  0.50669700  1
  N  N11  1  0.49330300  0.49242200  0.30847500  1
  N  N12  1  0.50669700  0.99242200  0.80847500  1
  N  N13  1  0.00757800  0.19152500  0.49330300  1
  N  N14  1  0.69152500  0.50669700  0.50757800  1
  N  N15  1  0.49242200  0.19152500  0.00669700  1
  N  N16  1  0.49242200  0.30847500  0.49330300  1
  N  N17  1  0.19152500  0.00669700  0.49242200  1
  N  N18  1  0.99242200  0.69152500  0.99330300  1
  N  N19  1  0.99330300  0.50757800  0.80847500  1
  N  N20  1  0.49330300  0.00757800  0.19152500  1
  N  N21  1  0.00669700  0.00757800  0.30847500  1
  N  N22  1  0.19152500  0.49330300  0.00757800  1
  N  N23  1  0.30847500  0.49330300  0.49242200  1
  O  O0  1  0.51626700  0.25011200  0.91149300  1
  O  O1  1  0.01626700  0.75011200  0.08850700  1
  O  O2  1  0.41149300  0.01626700  0.74988800  1
  O  O3  1  0.24988800  0.58850700  0.51626700  1
  O  O4  1  0.91149300  0.51626700  0.25011200  1
  O  O5  1  0.24778700  0.10070700  0.03926300  1
  O  O6  1  0.39929300  0.03926300  0.25221300  1
  O  O7  1  0.53926300  0.75221300  0.60070700  1
  O  O8  1  0.58850700  0.98373300  0.25011200  1
  O  O9  1  0.46073700  0.24778700  0.39929300  1
  O  O10  1  0.08850700  0.01626700  0.75011200  1
  O  O11  1  0.39929300  0.46073700  0.24778700  1
  O  O12  1  0.74988800  0.41149300  0.01626700  1
  O  O13  1  0.89929300  0.53926300  0.74778700  1
  O  O14  1  0.46073700  0.25221300  0.10070700  1
  O  O15  1  0.91149300  0.98373300  0.24988800  1
  O  O16  1  0.89929300  0.96073700  0.75221300  1
  O  O17  1  0.25011200  0.91149300  0.51626700  1
  O  O18  1  0.08850700  0.48373300  0.74988800  1
  O  O19  1  0.10070700  0.46073700  0.25221300  1
  O  O20  1  0.96073700  0.75221300  0.89929300  1
  O  O21  1  0.25011200  0.58850700  0.98373300  1
  O  O22  1  0.24778700  0.39929300  0.46073700  1
  O  O23  1  0.74988800  0.08850700  0.48373300  1
  O  O24  1  0.01626700  0.74988800  0.41149300  1
  O  O25  1  0.25221300  0.39929300  0.03926300  1
  O  O26  1  0.41149300  0.48373300  0.75011200  1
  O  O27  1  0.98373300  0.25011200  0.58850700  1
  O  O28  1  0.58850700  0.51626700  0.24988800  1
  O  O29  1  0.96073700  0.74778700  0.60070700  1
  O  O30  1  0.75221300  0.60070700  0.53926300  1
  O  O31  1  0.60070700  0.53926300  0.75221300  1
  O  O32  1  0.24988800  0.91149300  0.98373300  1
  O  O33  1  0.74778700  0.89929300  0.53926300  1
  O  O34  1  0.75011200  0.08850700  0.01626700  1
  O  O35  1  0.51626700  0.24988800  0.58850700  1
  O  O36  1  0.75221300  0.89929300  0.96073700  1
  O  O37  1  0.75011200  0.41149300  0.48373300  1
  O  O38  1  0.98373300  0.24988800  0.91149300  1
  O  O39  1  0.48373300  0.74988800  0.08850700  1
  O  O40  1  0.10070700  0.03926300  0.24778700  1
  O  O41  1  0.25221300  0.10070700  0.46073700  1
  O  O42  1  0.03926300  0.25221300  0.39929300  1
  O  O43  1  0.60070700  0.96073700  0.74778700  1
  O  O44  1  0.48373300  0.75011200  0.41149300  1
  O  O45  1  0.53926300  0.74778700  0.89929300  1
  O  O46  1  0.74778700  0.60070700  0.96073700  1
  O  O47  1  0.03926300  0.24778700  0.10070700  1
loop_
_geom_bond_atom_site_label_1
_geom_bond_atom_site_label_2
_geom_bond_distance
_geom_bond_site_symmetry_2
Ce0 O47 2.831206 1_555
Ce0 O42 2.831206 1_555
Ce0 O14 2.831206 1_555
Ce0 O5 2.831206 1_555
Ce0 O9 2.831206 1_555
Ce0 O22 2.831206 1_555
Ce0 O41 2.831206 1_555
Ce0 O25 2.831206 1_555
Ce0 O11 2.831206 1_555
Ce0 O40 2.831206 1_555
Ce0 O19 2.831206 1_555
Ce0 O6 2.831206 1_555
Ce1 O36 2.831206 1_555
Ce1 O43 2.831206 1_555
Ce1 O13 2.831206 1_555
Ce1 O31 2.831206 1_555
Ce1 O45 2.831206 1_555
Ce1 O16 2.831206 1_555
Ce1 O20 2.831206 1_555
Ce1 O29 2.831206 1_555
Ce1 O7 2.831206 1_555
Ce1 O30 2.831206 1_555
Ce1 O46 2.831206 1_555
Ce1 O33 2.831206 1_555
N0 O26 1.252995 1_555
N0 O31 1.274864 1_555
N0 Ni3 2.102459 1_555
N1 O23 1.252995 1_565
N1 O33 1.274864 1_555
N1 Ni0 2.102459 1_665
N2 O34 1.252995 1_566
N2 O36 1.274864 1_555
N2 Ni1 2.102459 1_566
N3 O39 1.252995 1_556
N3 O45 1.274864 1_555
N3 Ni1 2.102459 1_566
N4 O10 1.252995 1_665
N4 O16 1.274864 1_555
N4 Ni0 2.102459 1_665
N5 O38 1.252995 1_454
N5 O47 1.274864 1_555
N5 Ni2 2.102459 1_555
N6 O32 1.252995 1_544
N6 O5 1.274864 1_555
N6 Ni1 2.102459 1_555
N7 O12 1.252995 1_556
N7 O46 1.274864 1_555
N7 Ni2 2.102459 1_656
N8 O44 1.252995 1_555
N8 O7 1.274864 1_555
N8 Ni3 2.102459 1_555
N9 O4 1.252995 1_455
N9 O19 1.274864 1_555
N9 Ni2 2.102459 1_555
N10 O24 1.252995 1_655
N10 O29 1.274864 1_555
N10 Ni0 2.102459 1_665
N11 O28 1.252995 1_555
N11 O11 1.274864 1_555
N11 Ni3 2.102459 1_555
N12 O2 1.252995 1_565
N12 O43 1.274864 1_555
N12 Ni1 2.102459 1_566
N13 O27 1.252995 1_455
N13 O42 1.274864 1_555
N13 Ni0 2.102459 1_555
N14 O37 1.252995 1_555
N14 O30 1.274864 1_555
N14 Ni3 2.102459 1_555
N15 O0 1.252995 1_554
N15 O14 1.274864 1_555
N15 Ni1 2.102459 1_555
N16 O35 1.252995 1_555
N16 O9 1.274864 1_555
N16 Ni3 2.102459 1_555
N17 O17 1.252995 1_545
N17 O41 1.274864 1_555
N17 Ni0 2.102459 1_555
N18 O1 1.252995 1_656
N18 O20 1.274864 1_555
N18 Ni2 2.102459 1_656
N19 O18 1.252995 1_655
N19 O13 1.274864 1_555
N19 Ni2 2.102459 1_656
N20 O8 1.252995 1_545
N20 O6 1.274864 1_555
N20 Ni1 2.102459 1_555
N21 O15 1.252995 1_445
N21 O40 1.274864 1_555
N21 Ni0 2.102459 1_555
N22 O21 1.252995 1_554
N22 O25 1.274864 1_555
N22 Ni2 2.102459 1_555
N23 O3 1.252995 1_555
N23 O22 1.274864 1_555
N23 Ni3 2.102459 1_555
O0 Rb0 2.911533 1_556
O0 Rb4 3.114327 1_555
O0 Rb9 3.413771 1_555
O1 Rb5 2.911533 1_565
O1 Rb7 3.114327 1_555
O1 Rb6 3.413771 1_455
O2 Rb1 2.911533 1_555
O2 Rb9 3.114327 1_555
O2 Rb2 3.413771 1_545
O3 Rb8 2.911533 1_555
O3 Rb2 3.114327 1_555
O3 Rb7 3.413771 1_555
O4 Rb8 2.911533 1_655
O4 Rb6 3.114327 1_555
O4 Rb3 3.413771 1_555
O5 Rb5 2.963483 1_555
O5 Rb9 3.568466 1_554
O6 Rb1 2.963483 1_555
O6 Rb7 3.568466 1_545
O7 Rb1 2.963483 1_565
O7 Rb2 3.568466 1_555
O8 Rb1 2.911533 1_565
O8 Rb6 3.114327 1_555
O8 Rb3 3.413771 1_565
O9 Rb1 2.963483 1_555
O9 Rb3 3.568466 1_555
O10 Rb5 2.911533 1_556
O10 Rb9 3.114327 1_555
O10 Rb2 3.413771 1_545
O11 Rb0 2.963483 1_555
O11 Rb7 3.568466 1_555
O12 Rb0 2.911533 1_555
O12 Rb3 3.114327 1_555
O12 Rb4 3.413771 1_554
O13 Rb8 2.963483 1_655
O13 Rb4 3.568466 1_555
O14 Rb0 2.963483 1_555
O14 Rb3 3.568466 1_555
O15 Rb5 2.911533 1_665
O15 Rb6 3.114327 1_555
O15 Rb3 3.413771 1_565
O16 Rb5 2.963483 1_666
O16 Rb4 3.568466 1_565
O17 Rb1 2.911533 1_565
O17 Rb2 3.114327 1_555
O17 Rb7 3.413771 1_555
O18 Rb8 2.911533 1_555
O18 Rb9 3.114327 1_555
O18 Rb2 3.413771 1_555
O19 Rb8 2.963483 1_555
O19 Rb7 3.568466 1_555
O20 Rb5 2.963483 1_666
O20 Rb2 3.568466 1_655
O21 Rb0 2.911533 1_556
O21 Rb2 3.114327 1_555
O21 Rb7 3.413771 1_556
O22 Rb8 2.963483 1_555
O22 Rb9 3.568466 1_555
O23 Rb1 2.911533 1_555
O23 Rb3 3.114327 1_555
O23 Rb4 3.413771 1_555
O24 Rb8 2.911533 1_555
O24 Rb7 3.114327 1_555
O24 Rb6 3.413771 1_455
O25 Rb0 2.963483 1_555
O25 Rb9 3.568466 1_554
O26 Rb0 2.911533 1_556
O26 Rb9 3.114327 1_555
O26 Rb2 3.413771 1_555
O27 Rb8 2.911533 1_655
O27 Rb4 3.114327 1_555
O27 Rb9 3.413771 1_655
O28 Rb0 2.911533 1_555
O28 Rb6 3.114327 1_555
O28 Rb3 3.413771 1_555
O29 Rb8 2.963483 1_655
O29 Rb2 3.568466 1_655
O30 Rb8 2.963483 1_655
O30 Rb6 3.568466 1_555
O31 Rb0 2.963483 1_556
O31 Rb4 3.568466 1_555
O32 Rb5 2.911533 1_566
O32 Rb2 3.114327 1_555
O32 Rb7 3.413771 1_556
O33 Rb1 2.963483 1_565
O33 Rb6 3.568466 1_555
O34 Rb5 2.911533 1_655
O34 Rb3 3.114327 1_555
O34 Rb4 3.413771 1_554
O35 Rb1 2.911533 1_555
O35 Rb4 3.114327 1_555
O35 Rb9 3.413771 1_555
O36 Rb5 2.963483 1_666
O36 Rb6 3.568466 1_556
O37 Rb8 2.911533 1_655
O37 Rb3 3.114327 1_555
O37 Rb4 3.413771 1_555
O38 Rb5 2.911533 1_656
O38 Rb4 3.114327 1_555
O38 Rb9 3.413771 1_655
O39 Rb0 2.911533 1_555
O39 Rb7 3.114327 1_555
O39 Rb6 3.413771 1_555
O40 Rb5 2.963483 1_555
O40 Rb7 3.568466 1_545
O41 Rb1 2.963483 1_555
O41 Rb9 3.568466 1_555
O42 Rb8 2.963483 1_555
O42 Rb3 3.568466 1_455
O43 Rb1 2.963483 1_565
O43 Rb4 3.568466 1_565
O44 Rb1 2.911533 1_565
O44 Rb7 3.114327 1_555
O44 Rb6 3.413771 1_555
O45 Rb0 2.963483 1_556
O45 Rb2 3.568466 1_555
O46 Rb0 2.963483 1_556
O46 Rb6 3.568466 1_556
O47 Rb5 2.963483 1_555
O47 Rb3 3.568466 1_455
