# generated using pymatgen
data_Pr10Se14O
_symmetry_space_group_name_H-M   'P 1'
_cell_length_a   15.36423670
_cell_length_b   15.36423670
_cell_length_c   15.36423670
_cell_angle_alpha   117.81494911
_cell_angle_beta   117.81494911
_cell_angle_gamma   93.82820941
_symmetry_Int_Tables_number   1
_chemical_formula_structural   Pr10Se14O
_chemical_formula_sum   'Pr40 Se56 O4'
_cell_volume   2642.90933204
_cell_formula_units_Z   4
loop_
 _symmetry_equiv_pos_site_id
 _symmetry_equiv_pos_as_xyz
  1  'x, y, z'
loop_
 _atom_site_type_symbol
 _atom_site_label
 _atom_site_symmetry_multiplicity
 _atom_site_fract_x
 _atom_site_fract_y
 _atom_site_fract_z
 _atom_site_occupancy
  Pr  Pr0  1  0.56101100  0.69450300  0.12442700  1
  Pr  Pr1  1  0.18898900  0.55549700  0.37557300  1
  Pr  Pr2  1  0.68898900  0.31341700  0.63349200  1
  Pr  Pr3  1  0.29253600  0.14555700  0.59345400  1
  Pr  Pr4  1  0.17992400  0.81341700  0.62442700  1
  Pr  Pr5  1  0.13346500  0.36653500  0.50000000  1
  Pr  Pr6  1  0.45746400  0.10444300  0.90654600  1
  Pr  Pr7  1  0.80091800  0.94789700  0.59345400  1
  Pr  Pr8  1  0.55210300  0.69908200  0.40654600  1
  Pr  Pr9  1  0.57007600  0.43658300  0.87557300  1
  Pr  Pr10  1  0.36653500  0.86653500  0.23307100  1
  Pr  Pr11  1  0.11653500  0.11653500  0.73307100  1
  Pr  Pr12  1  0.95746400  0.05091800  0.35302100  1
  Pr  Pr13  1  0.89555700  0.80210300  0.35302100  1
  Pr  Pr14  1  0.63346500  0.13346500  0.76692900  1
  Pr  Pr15  1  0.18658300  0.81101100  0.36650800  1
  Pr  Pr16  1  0.38346500  0.38346500  0.26692900  1
  Pr  Pr17  1  0.56341700  0.43898900  0.13349200  1
  Pr  Pr18  1  0.69789700  0.60444300  0.64697900  1
  Pr  Pr19  1  0.94908200  0.30210300  0.90654600  1
  Pr  Pr20  1  0.85444300  0.44789700  0.14697900  1
  Pr  Pr21  1  0.39555700  0.04253600  0.09345400  1
  Pr  Pr22  1  0.79253600  0.19908200  0.14697900  1
  Pr  Pr23  1  0.19789700  0.55091800  0.09345400  1
  Pr  Pr24  1  0.35444300  0.20746400  0.40654600  1
  Pr  Pr25  1  0.68658300  0.32007600  0.37557300  1
  Pr  Pr26  1  0.06341700  0.92992400  0.12442700  1
  Pr  Pr27  1  0.86653500  0.63346500  0.50000000  1
  Pr  Pr28  1  0.44450300  0.82007600  0.63349200  1
  Pr  Pr29  1  0.94450300  0.31101100  0.62442700  1
  Pr  Pr30  1  0.05210300  0.64555700  0.85302100  1
  Pr  Pr31  1  0.61653500  0.88346500  0.00000000  1
  Pr  Pr32  1  0.88346500  0.61653500  0.00000000  1
  Pr  Pr33  1  0.44908200  0.54253600  0.64697900  1
  Pr  Pr34  1  0.30091800  0.70746400  0.85302100  1
  Pr  Pr35  1  0.80549700  0.93898900  0.87557300  1
  Pr  Pr36  1  0.06101100  0.93658300  0.86650800  1
  Pr  Pr37  1  0.07007600  0.19450300  0.13349200  1
  Pr  Pr38  1  0.67992400  0.05549700  0.36650800  1
  Pr  Pr39  1  0.30549700  0.42992400  0.86650800  1
  Se  Se0  1  0.49113200  0.10033900  0.34600100  1
  Se  Se1  1  0.25886800  0.14966100  0.15399900  1
  Se  Se2  1  0.97978500  0.87500000  0.60478500  1
  Se  Se3  1  0.62500000  0.52021500  0.39521500  1
  Se  Se4  1  0.99113200  0.64513100  0.39079300  1
  Se  Se5  1  0.11689300  0.33534500  0.85888000  1
  Se  Se6  1  0.35328500  0.37502300  0.66382400  1
  Se  Se7  1  0.71119900  0.68946000  0.33617600  1
  Se  Se8  1  0.47646500  0.25801400  0.14112000  1
  Se  Se9  1  0.74198600  0.88310700  0.21845200  1
  Se  Se10  1  0.93946000  0.46119900  0.83617600  1
  Se  Se11  1  0.35033900  0.24113200  0.84600100  1
  Se  Se12  1  0.27021500  0.37500000  0.39521500  1
  Se  Se13  1  0.39671500  0.87497700  0.83617600  1
  Se  Se14  1  0.58534500  0.86689300  0.35888000  1
  Se  Se15  1  0.03880100  0.56054000  0.16382400  1
  Se  Se16  1  0.35486900  0.74566100  0.34600100  1
  Se  Se17  1  0.00801400  0.36689300  0.28154800  1
  Se  Se18  1  0.99566100  0.10486900  0.84600100  1
  Se  Se19  1  0.63310700  0.91465500  0.64112000  1
  Se  Se20  1  0.39966100  0.00886800  0.65399900  1
  Se  Se21  1  0.75886800  0.60486900  0.10920700  1
  Se  Se22  1  0.12502300  0.96119900  0.52173900  1
  Se  Se23  1  0.97646500  0.83534500  0.21845200  1
  Se  Se24  1  0.47978500  0.87500000  0.10478500  1
  Se  Se25  1  0.85486900  0.50886800  0.60920700  1
  Se  Se26  1  0.75433900  0.14513100  0.65399900  1
  Se  Se27  1  0.62502300  0.10328500  0.16382400  1
  Se  Se28  1  0.89966100  0.24566100  0.39079300  1
  Se  Se29  1  0.31054000  0.64671500  0.02173900  1
  Se  Se30  1  0.39513100  0.50433900  0.15399900  1
  Se  Se31  1  0.77353500  0.41465500  0.28154800  1
  Se  Se32  1  0.50801400  0.22646500  0.64112000  1
  Se  Se33  1  0.12497700  0.14671500  0.33617600  1
  Se  Se34  1  0.21119900  0.87502300  0.02173900  1
  Se  Se35  1  0.27353500  0.99198600  0.35888000  1
  Se  Se36  1  0.62500000  0.02021500  0.89521500  1
  Se  Se37  1  0.08534500  0.72646500  0.71845200  1
  Se  Se38  1  0.13310700  0.49198600  0.71845200  1
  Se  Se39  1  0.62497700  0.28880100  0.97826100  1
  Se  Se40  1  0.49566100  0.64966100  0.89079300  1
  Se  Se41  1  0.61689300  0.75801400  0.78154800  1
  Se  Se42  1  0.43946000  0.60328500  0.47826100  1
  Se  Se43  1  0.12500000  0.72978500  0.10478500  1
  Se  Se44  1  0.85328500  0.18946000  0.97826100  1
  Se  Se45  1  0.66465500  0.52353500  0.78154800  1
  Se  Se46  1  0.25433900  0.60033900  0.60920700  1
  Se  Se47  1  0.12500000  0.22978500  0.60478500  1
  Se  Se48  1  0.16465500  0.38310700  0.14112000  1
  Se  Se49  1  0.85033900  0.00433900  0.10920700  1
  Se  Se50  1  0.53880100  0.37497700  0.47826100  1
  Se  Se51  1  0.77021500  0.37500000  0.89521500  1
  Se  Se52  1  0.81054000  0.78880100  0.66382400  1
  Se  Se53  1  0.89671500  0.06054000  0.52173900  1
  Se  Se54  1  0.89513100  0.74113200  0.89079300  1
  Se  Se55  1  0.24198600  0.02353500  0.85888000  1
  O  O0  1  0.75000000  0.25000000  0.50000000  1
  O  O1  1  0.50000000  0.50000000  0.00000000  1
  O  O2  1  0.25000000  0.75000000  0.50000000  1
  O  O3  1  0.00000000  0.00000000  0.00000000  1
loop_
_geom_bond_atom_site_label_1
_geom_bond_atom_site_label_2
_geom_bond_distance
_geom_bond_site_symmetry_2
Pr0 Se40 2.933291 1_554
Pr0 Se7 3.027898 1_555
Pr0 Se9 3.079630 1_555
Pr0 Se14 3.136539 1_555
Pr0 Se24 3.198568 1_555
Pr0 Se29 3.273094 1_555
Pr0 Se21 3.480554 1_555
Pr1 Se46 2.933291 1_555
Pr1 Se15 3.027898 1_555
Pr1 Se17 3.079630 1_555
Pr1 Se48 3.136539 1_555
Pr1 Se12 3.198568 1_555
Pr1 Se42 3.273094 1_555
Pr1 Se4 3.480554 1_455
Pr2 Se26 2.933314 1_555
Pr2 Se50 3.027886 1_555
Pr2 Se32 3.079632 1_555
Pr2 Se45 3.136528 1_555
Pr2 Se51 3.198573 1_555
Pr2 Se10 3.273093 1_555
Pr2 Se0 3.480559 1_555
Pr3 Se20 2.973329 1_555
Pr3 Se47 2.997258 1_555
Pr3 Se11 3.048517 1_555
Pr3 Se22 3.054283 1_545
Pr3 Se32 3.062716 1_555
Pr3 Se6 3.087283 1_555
Pr3 Se35 3.103508 1_545
Pr3 Se33 3.581622 1_555
Pr4 Se4 2.933298 1_455
Pr4 Se13 3.027893 1_555
Pr4 Se37 3.079649 1_555
Pr4 Se55 3.136536 1_565
Pr4 Se2 3.198562 1_455
Pr4 Se22 3.273081 1_555
Pr4 Se46 3.480575 1_555
Pr5 Se38 2.993583 1_555
Pr5 Se17 2.993583 1_555
Pr5 Se6 3.075799 1_555
Pr5 Se33 3.075799 1_555
Pr5 Se46 3.121627 1_555
Pr5 Se28 3.121627 1_455
Pr5 Se12 3.215422 1_555
Pr5 Se47 3.215422 1_555
Pr6 Se11 2.973329 1_555
Pr6 Se36 2.997258 1_555
Pr6 Se20 3.048517 1_555
Pr6 Se39 3.054283 1_555
Pr6 Se55 3.062716 1_555
Pr6 Se13 3.087283 1_545
Pr6 Se8 3.103508 1_556
Pr6 Se27 3.581622 1_556
Pr7 Se26 2.973322 1_565
Pr7 Se2 2.997258 1_555
Pr7 Se18 3.048511 1_565
Pr7 Se53 3.054273 1_565
Pr7 Se19 3.062701 1_555
Pr7 Se52 3.087282 1_555
Pr7 Se14 3.103505 1_555
Pr7 Se7 3.581630 1_555
Pr8 Se16 2.973322 1_555
Pr8 Se3 2.997258 1_555
Pr8 Se30 3.048511 1_555
Pr8 Se42 3.054273 1_555
Pr8 Se14 3.062701 1_555
Pr8 Se7 3.087282 1_555
Pr8 Se19 3.103505 1_555
Pr8 Se52 3.581630 1_555
Pr9 Se21 2.933298 1_556
Pr9 Se6 3.027893 1_555
Pr9 Se45 3.079649 1_555
Pr9 Se32 3.136536 1_555
Pr9 Se51 3.198562 1_555
Pr9 Se39 3.273081 1_555
Pr9 Se40 3.480575 1_555
Pr10 Se35 2.993571 1_555
Pr10 Se14 2.993583 1_555
Pr10 Se34 3.075799 1_555
Pr10 Se29 3.075803 1_555
Pr10 Se16 3.121623 1_555
Pr10 Se0 3.121627 1_565
Pr10 Se43 3.215419 1_555
Pr10 Se24 3.215436 1_555
Pr11 Se55 2.993571 1_555
Pr11 Se5 2.993583 1_555
Pr11 Se22 3.075799 1_545
Pr11 Se53 3.075803 1_455
Pr11 Se18 3.121623 1_455
Pr11 Se11 3.121627 1_555
Pr11 Se2 3.215419 1_445
Pr11 Se47 3.215436 1_555
Pr12 Se49 2.973335 1_555
Pr12 Se47 2.997258 1_655
Pr12 Se28 3.048503 1_555
Pr12 Se33 3.054276 1_655
Pr12 Se9 3.062712 1_545
Pr12 Se53 3.087293 1_555
Pr12 Se23 3.103505 1_545
Pr12 Se22 3.581630 1_645
Pr13 Se21 2.973329 1_555
Pr13 Se2 2.997258 1_555
Pr13 Se4 3.048517 1_555
Pr13 Se7 3.054283 1_555
Pr13 Se23 3.062701 1_555
Pr13 Se22 3.087282 1_655
Pr13 Se9 3.103512 1_555
Pr13 Se53 3.581637 1_565
Pr14 Se32 2.993571 1_555
Pr14 Se19 2.993583 1_545
Pr14 Se39 3.075799 1_555
Pr14 Se44 3.075803 1_555
Pr14 Se26 3.121623 1_555
Pr14 Se20 3.121627 1_555
Pr14 Se51 3.215419 1_555
Pr14 Se36 3.215436 1_555
Pr15 Se16 2.933314 1_555
Pr15 Se22 3.027886 1_555
Pr15 Se35 3.079632 1_555
Pr15 Se23 3.136528 1_455
Pr15 Se43 3.198573 1_555
Pr15 Se15 3.273093 1_555
Pr15 Se20 3.480559 1_565
Pr16 Se8 2.993571 1_555
Pr16 Se48 2.993583 1_555
Pr16 Se50 3.075799 1_555
Pr16 Se42 3.075803 1_555
Pr16 Se30 3.121623 1_555
Pr16 Se1 3.121627 1_555
Pr16 Se3 3.215419 1_555
Pr16 Se12 3.215436 1_555
Pr17 Se30 2.933314 1_555
Pr17 Se39 3.027886 1_554
Pr17 Se8 3.079632 1_555
Pr17 Se31 3.136528 1_555
Pr17 Se3 3.198573 1_555
Pr17 Se7 3.273093 1_555
Pr17 Se11 3.480559 1_554
Pr18 Se54 2.973329 1_555
Pr18 Se3 2.997258 1_555
Pr18 Se25 3.048517 1_555
Pr18 Se52 3.054283 1_555
Pr18 Se45 3.062701 1_555
Pr18 Se50 3.087282 1_555
Pr18 Se41 3.103512 1_555
Pr18 Se42 3.581637 1_555
Pr19 Se18 2.973322 1_555
Pr19 Se51 2.997258 1_555
Pr19 Se26 3.048511 1_555
Pr19 Se44 3.054273 1_555
Pr19 Se5 3.062701 1_655
Pr19 Se10 3.087282 1_555
Pr19 Se48 3.103505 1_656
Pr19 Se15 3.581630 1_656
Pr20 Se4 2.973329 1_555
Pr20 Se51 2.997258 1_554
Pr20 Se21 3.048517 1_555
Pr20 Se15 3.054283 1_655
Pr20 Se31 3.062701 1_555
Pr20 Se39 3.087282 1_554
Pr20 Se17 3.103512 1_655
Pr20 Se44 3.581637 1_554
Pr21 Se1 2.973329 1_555
Pr21 Se24 2.997258 1_545
Pr21 Se0 3.048517 1_555
Pr21 Se34 3.054283 1_545
Pr21 Se8 3.062716 1_555
Pr21 Se27 3.087283 1_555
Pr21 Se55 3.103508 1_554
Pr21 Se13 3.581622 1_544
Pr22 Se28 2.973335 1_555
Pr22 Se36 2.997258 1_554
Pr22 Se49 3.048503 1_555
Pr22 Se27 3.054276 1_555
Pr22 Se17 3.062712 1_655
Pr22 Se44 3.087293 1_554
Pr22 Se31 3.103505 1_555
Pr22 Se39 3.581630 1_554
Pr23 Se30 2.973322 1_555
Pr23 Se43 2.997258 1_555
Pr23 Se16 3.048511 1_555
Pr23 Se29 3.054273 1_555
Pr23 Se48 3.062701 1_555
Pr23 Se15 3.087282 1_555
Pr23 Se5 3.103505 1_554
Pr23 Se10 3.581630 1_454
Pr24 Se0 2.973329 1_555
Pr24 Se12 2.997258 1_555
Pr24 Se1 3.048517 1_555
Pr24 Se50 3.054283 1_555
Pr24 Se35 3.062716 1_545
Pr24 Se33 3.087283 1_555
Pr24 Se32 3.103508 1_555
Pr24 Se6 3.581622 1_555
Pr25 Se25 2.933298 1_555
Pr25 Se27 3.027893 1_555
Pr25 Se31 3.079649 1_555
Pr25 Se8 3.136536 1_555
Pr25 Se3 3.198562 1_555
Pr25 Se50 3.273081 1_555
Pr25 Se28 3.480575 1_555
Pr26 Se54 2.933298 1_454
Pr26 Se33 3.027893 1_565
Pr26 Se23 3.079649 1_455
Pr26 Se35 3.136536 1_555
Pr26 Se43 3.198562 1_555
Pr26 Se34 3.273081 1_555
Pr26 Se49 3.480575 1_465
Pr27 Se37 2.993585 1_655
Pr27 Se31 2.993585 1_555
Pr27 Se52 3.075788 1_555
Pr27 Se7 3.075788 1_555
Pr27 Se25 3.121623 1_555
Pr27 Se4 3.121623 1_555
Pr27 Se3 3.215422 1_555
Pr27 Se2 3.215422 1_555
Pr28 Se20 2.933294 1_565
Pr28 Se42 3.027886 1_555
Pr28 Se19 3.079640 1_555
Pr28 Se41 3.136528 1_555
Pr28 Se36 3.198568 1_565
Pr28 Se13 3.273106 1_555
Pr28 Se16 3.480550 1_555
Pr29 Se28 2.933291 1_555
Pr29 Se10 3.027898 1_555
Pr29 Se38 3.079630 1_655
Pr29 Se5 3.136539 1_655
Pr29 Se47 3.198568 1_655
Pr29 Se53 3.273094 1_555
Pr29 Se25 3.480554 1_555
Pr30 Se25 2.973329 1_455
Pr30 Se43 2.997258 1_556
Pr30 Se54 3.048517 1_455
Pr30 Se10 3.054283 1_455
Pr30 Se37 3.062701 1_555
Pr30 Se34 3.087282 1_556
Pr30 Se38 3.103512 1_555
Pr30 Se29 3.581637 1_556
Pr31 Se9 2.993583 1_555
Pr31 Se41 2.993583 1_554
Pr31 Se13 3.075799 1_554
Pr31 Se27 3.075799 1_565
Pr31 Se40 3.121627 1_554
Pr31 Se49 3.121627 1_565
Pr31 Se24 3.215422 1_555
Pr31 Se36 3.215422 1_564
Pr32 Se23 2.993585 1_555
Pr32 Se45 2.993585 1_554
Pr32 Se15 3.075788 1_655
Pr32 Se10 3.075788 1_554
Pr32 Se21 3.121623 1_555
Pr32 Se54 3.121623 1_554
Pr32 Se51 3.215422 1_554
Pr32 Se43 3.215422 1_655
Pr33 Se40 2.973335 1_555
Pr33 Se12 2.997258 1_555
Pr33 Se46 3.048503 1_555
Pr33 Se6 3.054276 1_555
Pr33 Se41 3.062712 1_555
Pr33 Se42 3.087293 1_555
Pr33 Se45 3.103505 1_555
Pr33 Se50 3.581630 1_555
Pr34 Se46 2.973335 1_555
Pr34 Se24 2.997258 1_556
Pr34 Se40 3.048503 1_555
Pr34 Se13 3.054276 1_555
Pr34 Se38 3.062712 1_555
Pr34 Se29 3.087293 1_556
Pr34 Se37 3.103505 1_555
Pr34 Se34 3.581630 1_556
Pr35 Se49 2.933291 1_566
Pr35 Se52 3.027898 1_555
Pr35 Se41 3.079630 1_555
Pr35 Se19 3.136539 1_555
Pr35 Se36 3.198568 1_565
Pr35 Se44 3.273094 1_565
Pr35 Se54 3.480554 1_555
Pr36 Se18 2.933314 1_465
Pr36 Se34 3.027886 1_556
Pr36 Se55 3.079632 1_565
Pr36 Se37 3.136528 1_555
Pr36 Se2 3.198573 1_455
Pr36 Se52 3.273093 1_455
Pr36 Se1 3.480559 1_566
Pr37 Se1 2.933294 1_555
Pr37 Se44 3.027886 1_454
Pr37 Se48 3.079640 1_555
Pr37 Se17 3.136528 1_555
Pr37 Se12 3.198568 1_555
Pr37 Se33 3.273106 1_555
Pr37 Se18 3.480550 1_454
Pr38 Se0 2.933294 1_555
Pr38 Se53 3.027886 1_555
Pr38 Se14 3.079640 1_545
Pr38 Se9 3.136528 1_545
Pr38 Se24 3.198568 1_545
Pr38 Se27 3.273106 1_555
Pr38 Se26 3.480550 1_555
Pr39 Se11 2.933294 1_555
Pr39 Se29 3.027886 1_556
Pr39 Se5 3.079640 1_555
Pr39 Se38 3.136528 1_555
Pr39 Se47 3.198568 1_555
Pr39 Se6 3.273106 1_555
Pr39 Se30 3.480550 1_556
O0 Pr29 2.466956 1_555
O0 Pr38 2.466956 1_555
O0 Pr2 2.466957 1_555
O0 Pr25 2.466957 1_555
O1 Pr0 2.466956 1_555
O1 Pr39 2.466956 1_554
O1 Pr17 2.466957 1_555
O1 Pr9 2.466957 1_554
O2 Pr28 2.466956 1_555
O2 Pr1 2.466956 1_555
O2 Pr15 2.466957 1_555
O2 Pr4 2.466957 1_555
O3 Pr37 2.466956 1_555
O3 Pr35 2.466956 1_444
O3 Pr36 2.466957 1_544
O3 Pr26 2.466957 1_545
