# generated using pymatgen
data_K5Ag2(AsSe3)3
_symmetry_space_group_name_H-M   'P 1'
_cell_length_a   12.81368900
_cell_length_b   12.84957700
_cell_length_c   14.34080000
_cell_angle_alpha   90.00000000
_cell_angle_beta   90.00000000
_cell_angle_gamma   90.00000000
_symmetry_Int_Tables_number   1
_chemical_formula_structural   K5Ag2(AsSe3)3
_chemical_formula_sum   'K20 Ag8 As12 Se36'
_cell_volume   2361.21965320
_cell_formula_units_Z   4
loop_
 _symmetry_equiv_pos_site_id
 _symmetry_equiv_pos_as_xyz
  1  'x, y, z'
loop_
 _atom_site_type_symbol
 _atom_site_label
 _atom_site_symmetry_multiplicity
 _atom_site_fract_x
 _atom_site_fract_y
 _atom_site_fract_z
 _atom_site_occupancy
  K  K0  1  0.07902700  0.98070500  0.17285100  1
  K  K1  1  0.92097300  0.51929500  0.67285100  1
  K  K2  1  0.25000000  0.17308100  0.49150300  1
  K  K3  1  0.75000000  0.82691900  0.50849700  1
  K  K4  1  0.07620600  0.32303900  0.99602200  1
  K  K5  1  0.92379400  0.67696100  0.00397800  1
  K  K6  1  0.75000000  0.32691900  0.99150300  1
  K  K7  1  0.07620600  0.82303900  0.50397800  1
  K  K8  1  0.92097300  0.01929500  0.82714900  1
  K  K9  1  0.57620600  0.67696100  0.00397800  1
  K  K10  1  0.25000000  0.67308100  0.00849700  1
  K  K11  1  0.57902700  0.01929500  0.82714900  1
  K  K12  1  0.42379400  0.32303900  0.99602200  1
  K  K13  1  0.57902700  0.51929500  0.67285100  1
  K  K14  1  0.92379400  0.17696100  0.49602200  1
  K  K15  1  0.42097300  0.48070500  0.32714900  1
  K  K16  1  0.07902700  0.48070500  0.32714900  1
  K  K17  1  0.42097300  0.98070500  0.17285100  1
  K  K18  1  0.57620600  0.17696100  0.49602200  1
  K  K19  1  0.42379400  0.82303900  0.50397800  1
  Ag  Ag0  1  0.41107000  0.23724600  0.71269800  1
  Ag  Ag1  1  0.91107000  0.76275400  0.28730200  1
  Ag  Ag2  1  0.91107000  0.26275400  0.21269800  1
  Ag  Ag3  1  0.58893000  0.76275400  0.28730200  1
  Ag  Ag4  1  0.41107000  0.73724600  0.78730200  1
  Ag  Ag5  1  0.58893000  0.26275400  0.21269800  1
  Ag  Ag6  1  0.08893000  0.23724600  0.71269800  1
  Ag  Ag7  1  0.08893000  0.73724600  0.78730200  1
  As  As0  1  0.25000000  0.97955200  0.90723000  1
  As  As1  1  0.75000000  0.53216400  0.21801200  1
  As  As2  1  0.25000000  0.46783600  0.78198800  1
  As  As3  1  0.75000000  0.74909500  0.79647300  1
  As  As4  1  0.25000000  0.96783600  0.71801200  1
  As  As5  1  0.75000000  0.03216400  0.28198800  1
  As  As6  1  0.75000000  0.52044800  0.40723000  1
  As  As7  1  0.25000000  0.47955200  0.59277000  1
  As  As8  1  0.75000000  0.24909500  0.70352700  1
  As  As9  1  0.75000000  0.02044800  0.09277000  1
  As  As10  1  0.25000000  0.25090500  0.20352700  1
  As  As11  1  0.25000000  0.75090500  0.29647300  1
  Se  Se0  1  0.25000000  0.78560300  0.67703200  1
  Se  Se1  1  0.40392100  0.03880800  0.64843100  1
  Se  Se2  1  0.09607900  0.53880800  0.85156900  1
  Se  Se3  1  0.89882400  0.12438700  0.06795200  1
  Se  Se4  1  0.40392100  0.53880800  0.85156900  1
  Se  Se5  1  0.75000000  0.07531200  0.65398200  1
  Se  Se6  1  0.90110100  0.78502500  0.70439100  1
  Se  Se7  1  0.59607900  0.96119200  0.35156900  1
  Se  Se8  1  0.59889900  0.78502500  0.70439100  1
  Se  Se9  1  0.75000000  0.85666100  0.93134700  1
  Se  Se10  1  0.25000000  0.64333900  0.43134700  1
  Se  Se11  1  0.25000000  0.42468800  0.15398200  1
  Se  Se12  1  0.40110100  0.71497500  0.20439100  1
  Se  Se13  1  0.75000000  0.35666100  0.56865300  1
  Se  Se14  1  0.25000000  0.28560300  0.82296800  1
  Se  Se15  1  0.60117600  0.12438700  0.06795200  1
  Se  Se16  1  0.25000000  0.14333900  0.06865300  1
  Se  Se17  1  0.75000000  0.57531200  0.84601800  1
  Se  Se18  1  0.39882400  0.37561300  0.56795200  1
  Se  Se19  1  0.25000000  0.92468800  0.34601800  1
  Se  Se20  1  0.10117600  0.87561300  0.93204800  1
  Se  Se21  1  0.90110100  0.28502500  0.79560900  1
  Se  Se22  1  0.09607900  0.03880800  0.64843100  1
  Se  Se23  1  0.10117600  0.37561300  0.56795200  1
  Se  Se24  1  0.60117600  0.62438700  0.43204800  1
  Se  Se25  1  0.59607900  0.46119200  0.14843100  1
  Se  Se26  1  0.09889900  0.71497500  0.20439100  1
  Se  Se27  1  0.89882400  0.62438700  0.43204800  1
  Se  Se28  1  0.39882400  0.87561300  0.93204800  1
  Se  Se29  1  0.90392100  0.46119200  0.14843100  1
  Se  Se30  1  0.09889900  0.21497500  0.29560900  1
  Se  Se31  1  0.40110100  0.21497500  0.29560900  1
  Se  Se32  1  0.75000000  0.71439700  0.17703200  1
  Se  Se33  1  0.90392100  0.96119200  0.35156900  1
  Se  Se34  1  0.75000000  0.21439700  0.32296800  1
  Se  Se35  1  0.59889900  0.28502500  0.79560900  1
loop_
_geom_bond_atom_site_label_1
_geom_bond_atom_site_label_2
_geom_bond_distance
_geom_bond_site_symmetry_2
K0 Se3 3.317146 1_465
K0 Se16 3.376335 1_565
K0 Se19 3.388913 1_555
K0 Se33 3.415561 1_455
K0 Se26 3.453745 1_555
K0 Se30 3.496533 1_565
K0 Se20 3.718794 1_554
K1 Se23 3.317146 1_655
K1 Se13 3.376335 1_555
K1 Se17 3.388913 1_555
K1 Se2 3.415561 1_655
K1 Se6 3.453745 1_555
K1 Se21 3.496533 1_555
K1 Se27 3.718794 1_555
K2 Se23 3.407536 1_555
K2 Se18 3.407536 1_555
K2 Se31 3.454062 1_555
K2 Se30 3.454062 1_555
K2 Se1 3.454188 1_555
K2 Se22 3.454188 1_555
K2 Se19 3.813159 1_545
K3 Se27 3.407536 1_555
K3 Se24 3.407536 1_555
K3 Se8 3.454062 1_555
K3 Se6 3.454062 1_555
K3 Se7 3.454188 1_555
K3 Se33 3.454188 1_555
K3 Se5 3.813159 1_565
K4 Se14 3.368927 1_555
K4 Se16 3.372829 1_556
K4 Se11 3.434640 1_556
K4 Se2 3.470336 1_555
K4 Se3 3.570148 1_456
K4 Se29 3.577992 1_456
K4 Se21 3.678766 1_455
K5 Se32 3.368927 1_555
K5 Se9 3.372829 1_554
K5 Se17 3.434640 1_554
K5 Se29 3.470336 1_555
K5 Se20 3.570148 1_654
K5 Se2 3.577992 1_654
K5 Se26 3.678766 1_655
K6 Se15 3.407536 1_556
K6 Se3 3.407536 1_556
K6 Se21 3.454062 1_555
K6 Se35 3.454062 1_555
K6 Se25 3.454188 1_556
K6 Se29 3.454188 1_556
K6 Se17 3.813159 1_555
K7 Se0 3.368927 1_555
K7 Se10 3.372829 1_555
K7 Se19 3.434640 1_555
K7 Se22 3.470336 1_565
K7 Se27 3.570148 1_455
K7 Se33 3.577992 1_455
K7 Se6 3.678766 1_455
K8 Se20 3.317146 1_645
K8 Se9 3.376335 1_545
K8 Se5 3.388913 1_555
K8 Se22 3.415561 1_655
K8 Se21 3.453745 1_555
K8 Se6 3.496533 1_545
K8 Se3 3.718794 1_556
K9 Se32 3.368927 1_555
K9 Se9 3.372829 1_554
K9 Se17 3.434640 1_554
K9 Se25 3.470336 1_555
K9 Se28 3.570148 1_554
K9 Se4 3.577992 1_554
K9 Se12 3.678766 1_555
K10 Se20 3.407536 1_554
K10 Se28 3.407536 1_554
K10 Se12 3.454062 1_555
K10 Se26 3.454062 1_555
K10 Se4 3.454188 1_554
K10 Se2 3.454188 1_554
K10 Se11 3.813159 1_555
K11 Se28 3.317146 1_545
K11 Se9 3.376335 1_545
K11 Se5 3.388913 1_555
K11 Se1 3.415561 1_555
K11 Se35 3.453745 1_555
K11 Se8 3.496533 1_545
K11 Se15 3.718794 1_556
K12 Se14 3.368927 1_555
K12 Se16 3.372829 1_556
K12 Se11 3.434640 1_556
K12 Se4 3.470336 1_555
K12 Se15 3.570148 1_556
K12 Se25 3.577992 1_556
K12 Se35 3.678766 1_555
K13 Se18 3.317146 1_555
K13 Se13 3.376335 1_555
K13 Se17 3.388913 1_555
K13 Se4 3.415561 1_555
K13 Se8 3.453745 1_555
K13 Se35 3.496533 1_555
K13 Se24 3.718794 1_555
K14 Se34 3.368927 1_555
K14 Se13 3.372829 1_555
K14 Se5 3.434640 1_555
K14 Se33 3.470336 1_545
K14 Se23 3.570148 1_655
K14 Se22 3.577992 1_655
K14 Se30 3.678766 1_655
K15 Se24 3.317146 1_555
K15 Se10 3.376335 1_555
K15 Se11 3.388913 1_555
K15 Se25 3.415561 1_555
K15 Se31 3.453745 1_555
K15 Se12 3.496533 1_555
K15 Se18 3.718794 1_555
K16 Se27 3.317146 1_455
K16 Se10 3.376335 1_555
K16 Se11 3.388913 1_555
K16 Se29 3.415561 1_455
K16 Se30 3.453745 1_555
K16 Se26 3.496533 1_555
K16 Se23 3.718794 1_555
K17 Se15 3.317146 1_565
K17 Se16 3.376335 1_565
K17 Se19 3.388913 1_555
K17 Se7 3.415561 1_555
K17 Se12 3.453745 1_555
K17 Se31 3.496533 1_565
K17 Se28 3.718794 1_554
K18 Se34 3.368927 1_555
K18 Se13 3.372829 1_555
K18 Se5 3.434640 1_555
K18 Se7 3.470336 1_545
K18 Se18 3.570148 1_555
K18 Se1 3.577992 1_555
K18 Se31 3.678766 1_555
K19 Se0 3.368927 1_555
K19 Se10 3.372829 1_555
K19 Se19 3.434640 1_555
K19 Se1 3.470336 1_565
K19 Se24 3.570148 1_555
K19 Se7 3.577992 1_555
K19 Se8 3.678766 1_555
Ag0 Se14 2.673291 1_555
Ag0 Se1 2.712843 1_555
Ag0 Se18 2.737625 1_555
Ag0 Se35 2.753774 1_555
Ag1 Se32 2.673291 1_555
Ag1 Se33 2.712843 1_555
Ag1 Se27 2.737625 1_555
Ag1 Se26 2.753774 1_655
Ag2 Se34 2.673291 1_555
Ag2 Se29 2.712843 1_555
Ag2 Se3 2.737625 1_555
Ag2 Se30 2.753774 1_655
Ag3 Se32 2.673291 1_555
Ag3 Se7 2.712843 1_555
Ag3 Se24 2.737625 1_555
Ag3 Se12 2.753774 1_555
Ag4 Se0 2.673291 1_555
Ag4 Se4 2.712843 1_555
Ag4 Se28 2.737625 1_555
Ag4 Se8 2.753774 1_555
Ag5 Se34 2.673291 1_555
Ag5 Se25 2.712843 1_555
Ag5 Se15 2.737625 1_555
Ag5 Se31 2.753774 1_555
Ag6 Se14 2.673291 1_555
Ag6 Se22 2.712843 1_555
Ag6 Se23 2.737625 1_555
Ag6 Se21 2.753774 1_455
Ag7 Se0 2.673291 1_555
Ag7 Se2 2.712843 1_555
Ag7 Se20 2.737625 1_555
Ag7 Se6 2.753774 1_455
As0 Se28 2.355210 1_555
As0 Se20 2.355210 1_555
As1 Se29 2.391092 1_555
As1 Se25 2.391092 1_555
As1 Se32 2.414238 1_555
As2 Se4 2.391092 1_555
As2 Se2 2.391092 1_555
As2 Se14 2.414238 1_555
As3 Se17 2.343350 1_555
As3 Se9 2.377299 1_555
As3 Se8 2.388655 1_555
As3 Se6 2.388655 1_555
As4 Se22 2.391092 1_565
As4 Se1 2.391092 1_565
As4 Se0 2.414238 1_555
As5 Se7 2.391092 1_545
As5 Se33 2.391092 1_545
As5 Se34 2.414238 1_555
As6 Se27 2.355210 1_555
As6 Se24 2.355210 1_555
As7 Se23 2.355210 1_555
As7 Se18 2.355210 1_555
As8 Se5 2.343350 1_555
As8 Se13 2.377299 1_555
As8 Se35 2.388655 1_555
As8 Se21 2.388655 1_555
As9 Se15 2.355210 1_555
As9 Se3 2.355210 1_555
As10 Se11 2.343350 1_555
As10 Se16 2.377299 1_555
As10 Se31 2.388655 1_555
As10 Se30 2.388655 1_555
As11 Se19 2.343350 1_555
As11 Se10 2.377299 1_555
As11 Se26 2.388655 1_555
As11 Se12 2.388655 1_555
