# generated using pymatgen
data_Cs2Nb4O11
_symmetry_space_group_name_H-M   'P 1'
_cell_length_a   7.60603300
_cell_length_b   10.70163200
_cell_length_c   29.48337800
_cell_angle_alpha   90.00000000
_cell_angle_beta   90.00000000
_cell_angle_gamma   90.00000000
_symmetry_Int_Tables_number   1
_chemical_formula_structural   Cs2Nb4O11
_chemical_formula_sum   'Cs16 Nb32 O88'
_cell_volume   2399.85752093
_cell_formula_units_Z   8
loop_
 _symmetry_equiv_pos_site_id
 _symmetry_equiv_pos_as_xyz
  1  'x, y, z'
loop_
 _atom_site_type_symbol
 _atom_site_label
 _atom_site_symmetry_multiplicity
 _atom_site_fract_x
 _atom_site_fract_y
 _atom_site_fract_z
 _atom_site_occupancy
  Cs  Cs0  1  0.24754300  0.35506500  0.57617400  1
  Cs  Cs1  1  0.74202400  0.87686000  0.69281600  1
  Cs  Cs2  1  0.25797600  0.37686000  0.19281600  1
  Cs  Cs3  1  0.25797600  0.12314000  0.30718400  1
  Cs  Cs4  1  0.74754300  0.64493500  0.57617400  1
  Cs  Cs5  1  0.74202400  0.62314000  0.80718400  1
  Cs  Cs6  1  0.24202400  0.37686000  0.80718400  1
  Cs  Cs7  1  0.24754300  0.14493500  0.92382600  1
  Cs  Cs8  1  0.74754300  0.85506500  0.92382600  1
  Cs  Cs9  1  0.24202400  0.12314000  0.69281600  1
  Cs  Cs10  1  0.75245700  0.85506500  0.07617400  1
  Cs  Cs11  1  0.75245700  0.64493500  0.42382600  1
  Cs  Cs12  1  0.75797600  0.62314000  0.19281600  1
  Cs  Cs13  1  0.25245700  0.14493500  0.07617400  1
  Cs  Cs14  1  0.25245700  0.35506500  0.42382600  1
  Cs  Cs15  1  0.75797600  0.87686000  0.30718400  1
  Nb  Nb0  1  0.48281800  0.01072600  0.81166200  1
  Nb  Nb1  1  0.25725300  0.75000000  0.75000000  1
  Nb  Nb2  1  0.24631400  0.73945700  0.37503300  1
  Nb  Nb3  1  0.25000000  0.73023400  0.00000000  1
  Nb  Nb4  1  0.98281800  0.98927400  0.81166200  1
  Nb  Nb5  1  0.74274700  0.25000000  0.25000000  1
  Nb  Nb6  1  0.25368600  0.76054300  0.87503300  1
  Nb  Nb7  1  0.51718200  0.51072600  0.31166200  1
  Nb  Nb8  1  0.51718200  0.98927400  0.18833800  1
  Nb  Nb9  1  0.98281800  0.51072600  0.68833800  1
  Nb  Nb10  1  0.48281800  0.48927400  0.68833800  1
  Nb  Nb11  1  0.49901300  0.00211500  0.56157100  1
  Nb  Nb12  1  0.01718200  0.01072600  0.18833800  1
  Nb  Nb13  1  0.75000000  0.23023400  0.50000000  1
  Nb  Nb14  1  0.01718200  0.48927400  0.31166200  1
  Nb  Nb15  1  0.75368600  0.26054300  0.62496700  1
  Nb  Nb16  1  0.25000000  0.76976600  0.50000000  1
  Nb  Nb17  1  0.00098700  0.49788500  0.06157100  1
  Nb  Nb18  1  0.50098700  0.50211500  0.06157100  1
  Nb  Nb19  1  0.24631400  0.76054300  0.12496700  1
  Nb  Nb20  1  0.25368600  0.73945700  0.62496700  1
  Nb  Nb21  1  0.75725300  0.25000000  0.75000000  1
  Nb  Nb22  1  0.75368600  0.23945700  0.87503300  1
  Nb  Nb23  1  0.74631400  0.23945700  0.12496700  1
  Nb  Nb24  1  0.00098700  0.00211500  0.43842900  1
  Nb  Nb25  1  0.99901300  0.50211500  0.93842900  1
  Nb  Nb26  1  0.74631400  0.26054300  0.37503300  1
  Nb  Nb27  1  0.75000000  0.26976600  0.00000000  1
  Nb  Nb28  1  0.49901300  0.49788500  0.93842900  1
  Nb  Nb29  1  0.24274700  0.75000000  0.25000000  1
  Nb  Nb30  1  0.99901300  0.99788500  0.56157100  1
  Nb  Nb31  1  0.50098700  0.99788500  0.43842900  1
  O  O0  1  0.93558100  0.37680800  0.36300200  1
  O  O1  1  0.95242800  0.12456500  0.49984500  1
  O  O2  1  0.56522800  0.37570200  0.73394800  1
  O  O3  1  0.43524900  0.62360100  0.63694200  1
  O  O4  1  0.06522800  0.62429800  0.73394800  1
  O  O5  1  0.93524900  0.12360100  0.86305800  1
  O  O6  1  0.95242800  0.37543500  0.00015500  1
  O  O7  1  0.43491200  0.62734800  0.73301300  1
  O  O8  1  0.25040900  0.45082800  0.05354500  1
  O  O9  1  0.04757200  0.87543500  0.50015500  1
  O  O10  1  0.24774000  0.81369300  0.31587300  1
  O  O11  1  0.56475100  0.37639900  0.36305800  1
  O  O12  1  0.75040900  0.54917200  0.05354500  1
  O  O13  1  0.43821300  0.63277200  0.10074600  1
  O  O14  1  0.93821300  0.36722800  0.10074600  1
  O  O15  1  0.54757200  0.37543500  0.99984500  1
  O  O16  1  0.56441900  0.12319200  0.86300200  1
  O  O17  1  0.74959100  0.95082800  0.55354500  1
  O  O18  1  0.56508800  0.12734800  0.23301300  1
  O  O19  1  0.24959100  0.04917200  0.55354500  1
  O  O20  1  0.56508800  0.37265200  0.26698700  1
  O  O21  1  0.56475100  0.12360100  0.13694200  1
  O  O22  1  0.93558100  0.12319200  0.13699800  1
  O  O23  1  0.43491200  0.87265200  0.76698700  1
  O  O24  1  0.74795300  0.93723800  0.81432300  1
  O  O25  1  0.74774000  0.31369300  0.18412700  1
  O  O26  1  0.75204700  0.56276200  0.31432300  1
  O  O27  1  0.54757200  0.12456500  0.50015500  1
  O  O28  1  0.93491200  0.12734800  0.76698700  1
  O  O29  1  0.75226000  0.18630700  0.68412700  1
  O  O30  1  0.56441900  0.37680800  0.63699800  1
  O  O31  1  0.56522800  0.12429800  0.76605200  1
  O  O32  1  0.93491200  0.37265200  0.73301300  1
  O  O33  1  0.93821300  0.13277200  0.39925400  1
  O  O34  1  0.56178700  0.13277200  0.60074600  1
  O  O35  1  0.74885800  0.17198300  0.05187900  1
  O  O36  1  0.24885800  0.82801700  0.05187900  1
  O  O37  1  0.06178700  0.63277200  0.89925400  1
  O  O38  1  0.93477200  0.12429800  0.23394800  1
  O  O39  1  0.93755400  0.13282100  0.60060700  1
  O  O40  1  0.43821300  0.86722800  0.39925400  1
  O  O41  1  0.24795300  0.06276200  0.81432300  1
  O  O42  1  0.25204700  0.43723800  0.31432300  1
  O  O43  1  0.04757200  0.62456500  0.99984500  1
  O  O44  1  0.06475100  0.62360100  0.36305800  1
  O  O45  1  0.43477200  0.87570200  0.23394800  1
  O  O46  1  0.56244600  0.36717900  0.10060700  1
  O  O47  1  0.06244600  0.86717900  0.39939300  1
  O  O48  1  0.25040900  0.04917200  0.44645500  1
  O  O49  1  0.24774000  0.68630700  0.18412700  1
  O  O50  1  0.75226000  0.31369300  0.81587300  1
  O  O51  1  0.43755400  0.86717900  0.60060700  1
  O  O52  1  0.25226000  0.81369300  0.68412700  1
  O  O53  1  0.74959100  0.54917200  0.94645500  1
  O  O54  1  0.93755400  0.36717900  0.89939300  1
  O  O55  1  0.56178700  0.36722800  0.89925400  1
  O  O56  1  0.24959100  0.45082800  0.94645500  1
  O  O57  1  0.06522800  0.87570200  0.76605200  1
  O  O58  1  0.74795300  0.56276200  0.68567700  1
  O  O59  1  0.25114200  0.67198300  0.55187900  1
  O  O60  1  0.93477200  0.37570200  0.26605200  1
  O  O61  1  0.75040900  0.95082800  0.44645500  1
  O  O62  1  0.06508800  0.62734800  0.26698700  1
  O  O63  1  0.74885800  0.32801700  0.44812100  1
  O  O64  1  0.25226000  0.68630700  0.81587300  1
  O  O65  1  0.93524900  0.37639900  0.63694200  1
  O  O66  1  0.75114200  0.32801700  0.55187900  1
  O  O67  1  0.06475100  0.87639900  0.13694200  1
  O  O68  1  0.43477200  0.62429800  0.26605200  1
  O  O69  1  0.24795300  0.43723800  0.68567700  1
  O  O70  1  0.43755400  0.63282100  0.89939300  1
  O  O71  1  0.75204700  0.93723800  0.18567700  1
  O  O72  1  0.43558100  0.62319200  0.36300200  1
  O  O73  1  0.75114200  0.17198300  0.94812100  1
  O  O74  1  0.25204700  0.06276200  0.18567700  1
  O  O75  1  0.06244600  0.63282100  0.10060700  1
  O  O76  1  0.45242800  0.62456500  0.00015500  1
  O  O77  1  0.06441900  0.87680800  0.86300200  1
  O  O78  1  0.06441900  0.62319200  0.63699800  1
  O  O79  1  0.45242800  0.87543500  0.49984500  1
  O  O80  1  0.25114200  0.82801700  0.94812100  1
  O  O81  1  0.43558100  0.87680800  0.13699800  1
  O  O82  1  0.24885800  0.67198300  0.44812100  1
  O  O83  1  0.06178700  0.86722800  0.60074600  1
  O  O84  1  0.43524900  0.87639900  0.86305800  1
  O  O85  1  0.74774000  0.18630700  0.31587300  1
  O  O86  1  0.06508800  0.87265200  0.23301300  1
  O  O87  1  0.56244600  0.13282100  0.39939300  1
loop_
_geom_bond_atom_site_label_1
_geom_bond_atom_site_label_2
_geom_bond_distance
_geom_bond_site_symmetry_2
Cs0 O65 2.984000 1_455
Cs0 O30 3.013133 1_555
Cs0 O19 3.340887 1_555
Cs0 O69 3.346141 1_555
Cs0 O39 3.425602 1_455
Cs0 O34 3.449177 1_555
Cs0 O59 3.466464 1_555
Cs1 O23 3.200097 1_555
Cs1 O57 3.271961 1_655
Cs1 O29 3.322394 1_565
Cs1 O58 3.368247 1_555
Cs1 O51 3.572768 1_555
Cs1 O83 3.646172 1_655
Cs2 O20 3.200097 1_555
Cs2 O60 3.271961 1_455
Cs2 O49 3.322394 1_555
Cs2 O74 3.368247 1_555
Cs2 O46 3.572768 1_555
Cs2 O14 3.646172 1_455
Cs3 O18 3.200097 1_555
Cs3 O38 3.271961 1_455
Cs3 O10 3.322394 1_545
Cs3 O42 3.368247 1_555
Cs3 O87 3.572768 1_555
Cs3 O33 3.646172 1_455
Cs4 O3 2.984000 1_555
Cs4 O78 3.013133 1_655
Cs4 O17 3.340887 1_555
Cs4 O58 3.346141 1_555
Cs4 O51 3.425602 1_555
Cs4 O83 3.449177 1_655
Cs4 O66 3.466464 1_555
Cs5 O7 3.200097 1_555
Cs5 O4 3.271961 1_655
Cs5 O50 3.322394 1_555
Cs5 O24 3.368247 1_555
Cs5 O70 3.572768 1_555
Cs5 O37 3.646172 1_655
Cs6 O32 3.200097 1_455
Cs6 O2 3.271961 1_555
Cs6 O64 3.322394 1_555
Cs6 O41 3.368247 1_555
Cs6 O54 3.572768 1_455
Cs6 O55 3.646172 1_555
Cs7 O5 2.984000 1_455
Cs7 O16 3.013133 1_555
Cs7 O56 3.340887 1_555
Cs7 O41 3.346141 1_555
Cs7 O54 3.425602 1_455
Cs7 O55 3.449177 1_555
Cs7 O80 3.466464 1_545
Cs8 O84 2.984000 1_555
Cs8 O77 3.013133 1_655
Cs8 O53 3.340887 1_555
Cs8 O24 3.346141 1_555
Cs8 O70 3.425602 1_555
Cs8 O37 3.449177 1_655
Cs8 O73 3.466464 1_565
Cs9 O28 3.200097 1_455
Cs9 O31 3.271961 1_555
Cs9 O52 3.322394 1_545
Cs9 O69 3.368247 1_555
Cs9 O39 3.572768 1_455
Cs9 O34 3.646172 1_555
Cs10 O67 2.984000 1_655
Cs10 O81 3.013133 1_555
Cs10 O12 3.340887 1_555
Cs10 O71 3.346141 1_555
Cs10 O75 3.425602 1_655
Cs10 O13 3.449177 1_555
Cs10 O35 3.466464 1_565
Cs11 O44 2.984000 1_655
Cs11 O72 3.013133 1_555
Cs11 O61 3.340887 1_555
Cs11 O26 3.346141 1_555
Cs11 O47 3.425602 1_655
Cs11 O40 3.449177 1_555
Cs11 O63 3.466464 1_555
Cs12 O62 3.200097 1_655
Cs12 O68 3.271961 1_555
Cs12 O25 3.322394 1_555
Cs12 O71 3.368247 1_555
Cs12 O75 3.572768 1_655
Cs12 O13 3.646172 1_555
Cs13 O21 2.984000 1_555
Cs13 O22 3.013133 1_455
Cs13 O8 3.340887 1_555
Cs13 O74 3.346141 1_555
Cs13 O46 3.425602 1_555
Cs13 O14 3.449177 1_455
Cs13 O36 3.466464 1_545
Cs14 O11 2.984000 1_555
Cs14 O0 3.013133 1_455
Cs14 O48 3.340887 1_555
Cs14 O42 3.346141 1_555
Cs14 O87 3.425602 1_555
Cs14 O33 3.449177 1_455
Cs14 O82 3.466464 1_555
Cs15 O86 3.200097 1_655
Cs15 O45 3.271961 1_555
Cs15 O85 3.322394 1_565
Cs15 O26 3.368247 1_555
Cs15 O47 3.572768 1_655
Cs15 O40 3.646172 1_555
Nb0 O41 1.872819 1_555
Nb0 O31 1.917922 1_555
Nb0 O23 2.012724 1_545
Nb0 O16 2.031013 1_555
Nb0 O84 2.119808 1_545
Nb0 O24 2.165970 1_545
Nb1 O7 1.949269 1_555
Nb1 O23 1.949269 1_555
Nb1 O57 2.041272 1_555
Nb1 O4 2.041272 1_555
Nb1 O52 2.058647 1_555
Nb1 O64 2.058647 1_555
Nb2 O44 1.889171 1_555
Nb2 O10 1.916670 1_555
Nb2 O72 1.935532 1_555
Nb2 O47 2.083240 1_555
Nb2 O40 2.123684 1_555
Nb2 O82 2.272727 1_555
Nb3 O80 1.853291 1_554
Nb3 O36 1.853291 1_555
Nb3 O76 1.910339 1_555
Nb3 O43 1.910339 1_554
Nb4 O24 1.872819 1_555
Nb4 O57 1.917922 1_655
Nb4 O28 2.012724 1_565
Nb4 O77 2.031013 1_655
Nb4 O5 2.119808 1_565
Nb4 O41 2.165970 1_665
Nb5 O20 1.949269 1_555
Nb5 O18 1.949269 1_555
Nb5 O38 2.041272 1_555
Nb5 O60 2.041272 1_555
Nb5 O25 2.058647 1_555
Nb5 O85 2.058647 1_555
Nb6 O84 1.889171 1_555
Nb6 O64 1.916670 1_555
Nb6 O77 1.935532 1_555
Nb6 O70 2.083240 1_555
Nb6 O37 2.123684 1_555
Nb6 O80 2.272727 1_555
Nb7 O26 1.872819 1_555
Nb7 O68 1.917922 1_555
Nb7 O20 2.012724 1_555
Nb7 O72 2.031013 1_555
Nb7 O11 2.119808 1_555
Nb7 O42 2.165970 1_555
Nb8 O71 1.872819 1_555
Nb8 O45 1.917922 1_555
Nb8 O18 2.012724 1_565
Nb8 O81 2.031013 1_555
Nb8 O21 2.119808 1_565
Nb8 O74 2.165970 1_565
Nb9 O58 1.872819 1_555
Nb9 O4 1.917922 1_655
Nb9 O32 2.012724 1_555
Nb9 O78 2.031013 1_655
Nb9 O65 2.119808 1_555
Nb9 O69 2.165970 1_655
Nb10 O69 1.872819 1_555
Nb10 O2 1.917922 1_555
Nb10 O7 2.012724 1_555
Nb10 O30 2.031013 1_555
Nb10 O3 2.119808 1_555
Nb10 O58 2.165970 1_555
Nb11 O34 1.875394 1_555
Nb11 O51 1.904825 1_545
Nb11 O19 1.977025 1_555
Nb11 O17 1.997426 1_545
Nb11 O27 2.265484 1_555
Nb11 O79 2.296830 1_545
Nb12 O74 1.872819 1_555
Nb12 O38 1.917922 1_455
Nb12 O86 2.012724 1_545
Nb12 O22 2.031013 1_455
Nb12 O67 2.119808 1_545
Nb12 O71 2.165970 1_445
Nb13 O63 1.853291 1_555
Nb13 O66 1.853291 1_555
Nb13 O27 1.910339 1_555
Nb13 O1 1.910339 1_555
Nb14 O42 1.872819 1_555
Nb14 O60 1.917922 1_455
Nb14 O62 2.012724 1_555
Nb14 O0 2.031013 1_455
Nb14 O44 2.119808 1_555
Nb14 O26 2.165970 1_455
Nb15 O65 1.889171 1_555
Nb15 O29 1.916670 1_555
Nb15 O30 1.935532 1_555
Nb15 O39 2.083240 1_555
Nb15 O34 2.123684 1_555
Nb15 O66 2.272727 1_555
Nb16 O82 1.853291 1_555
Nb16 O59 1.853291 1_555
Nb16 O9 1.910339 1_555
Nb16 O79 1.910339 1_555
Nb17 O14 1.875394 1_455
Nb17 O75 1.904825 1_555
Nb17 O8 1.977025 1_555
Nb17 O12 1.997426 1_455
Nb17 O6 2.265484 1_455
Nb17 O43 2.296830 1_554
Nb18 O13 1.875394 1_555
Nb18 O46 1.904825 1_555
Nb18 O12 1.977025 1_555
Nb18 O8 1.997426 1_555
Nb18 O76 2.265484 1_555
Nb18 O15 2.296830 1_554
Nb19 O67 1.889171 1_555
Nb19 O49 1.916670 1_555
Nb19 O81 1.935532 1_555
Nb19 O75 2.083240 1_555
Nb19 O13 2.123684 1_555
Nb19 O36 2.272727 1_555
Nb20 O3 1.889171 1_555
Nb20 O52 1.916670 1_555
Nb20 O78 1.935532 1_555
Nb20 O51 2.083240 1_555
Nb20 O83 2.123684 1_555
Nb20 O59 2.272727 1_555
Nb21 O32 1.949269 1_555
Nb21 O28 1.949269 1_555
Nb21 O31 2.041272 1_555
Nb21 O2 2.041272 1_555
Nb21 O50 2.058647 1_555
Nb21 O29 2.058647 1_555
Nb22 O5 1.889171 1_555
Nb22 O50 1.916670 1_555
Nb22 O16 1.935532 1_555
Nb22 O54 2.083240 1_555
Nb22 O55 2.123684 1_555
Nb22 O73 2.272727 1_555
Nb23 O21 1.889171 1_555
Nb23 O25 1.916670 1_555
Nb23 O22 1.935532 1_555
Nb23 O46 2.083240 1_555
Nb23 O14 2.123684 1_555
Nb23 O35 2.272727 1_555
Nb24 O33 1.875394 1_455
Nb24 O47 1.904825 1_545
Nb24 O48 1.977025 1_555
Nb24 O61 1.997426 1_445
Nb24 O1 2.265484 1_455
Nb24 O9 2.296830 1_545
Nb25 O37 1.875394 1_655
Nb25 O54 1.904825 1_555
Nb25 O53 1.977025 1_555
Nb25 O56 1.997426 1_655
Nb25 O43 2.265484 1_655
Nb25 O6 2.296830 1_556
Nb26 O11 1.889171 1_555
Nb26 O85 1.916670 1_555
Nb26 O0 1.935532 1_555
Nb26 O87 2.083240 1_555
Nb26 O33 2.123684 1_555
Nb26 O63 2.272727 1_555
Nb27 O35 1.853291 1_555
Nb27 O73 1.853291 1_554
Nb27 O15 1.910339 1_554
Nb27 O6 1.910339 1_555
Nb28 O55 1.875394 1_555
Nb28 O70 1.904825 1_555
Nb28 O56 1.977025 1_555
Nb28 O53 1.997426 1_555
Nb28 O15 2.265484 1_555
Nb28 O76 2.296830 1_556
Nb29 O62 1.949269 1_555
Nb29 O86 1.949269 1_555
Nb29 O45 2.041272 1_555
Nb29 O68 2.041272 1_555
Nb29 O49 2.058647 1_555
Nb29 O10 2.058647 1_555
Nb30 O83 1.875394 1_655
Nb30 O39 1.904825 1_565
Nb30 O17 1.977025 1_555
Nb30 O19 1.997426 1_665
Nb30 O9 2.265484 1_655
Nb30 O1 2.296830 1_565
Nb31 O40 1.875394 1_555
Nb31 O87 1.904825 1_565
Nb31 O61 1.977025 1_555
Nb31 O48 1.997426 1_565
Nb31 O79 2.265484 1_555
Nb31 O27 2.296830 1_565
