# generated using pymatgen
data_Ca5V3O12F
_symmetry_space_group_name_H-M   'P 1'
_cell_length_a   7.02209091
_cell_length_b   9.62315870
_cell_length_c   9.68770145
_cell_angle_alpha   119.81720825
_cell_angle_beta   91.05876977
_cell_angle_gamma   90.48032320
_symmetry_Int_Tables_number   1
_chemical_formula_structural   Ca5V3O12F
_chemical_formula_sum   'Ca10 V6 O24 F2'
_cell_volume   567.76577041
_cell_formula_units_Z   2
loop_
 _symmetry_equiv_pos_site_id
 _symmetry_equiv_pos_as_xyz
  1  'x, y, z'
loop_
 _atom_site_type_symbol
 _atom_site_label
 _atom_site_symmetry_multiplicity
 _atom_site_fract_x
 _atom_site_fract_y
 _atom_site_fract_z
 _atom_site_occupancy
  Ca  Ca0  1  0.76180447  0.76480906  -0.00447242  1
  Ca  Ca1  1  0.99701859  0.33933569  0.69490556  1
  Ca  Ca2  1  0.25048708  0.76000995  0.75593033  1
  Ca  Ca3  1  0.50132236  0.33953476  0.65262036  1
  Ca  Ca4  1  0.74951292  0.23999005  0.24406967  1
  Ca  Ca5  1  0.23819553  0.23519094  0.00447242  1
  Ca  Ca6  1  0.26229171  -0.00418440  0.24319903  1
  Ca  Ca7  1  0.49867764  0.66046524  0.34737964  1
  Ca  Ca8  1  0.00298141  0.66066431  0.30509444  1
  Ca  Ca9  1  0.73770829  0.00418440  0.75680097  1
  V  V0  1  0.76196205  0.97655319  0.36749364  1
  V  V1  1  0.27178982  0.60229645  0.97315021  1
  V  V2  1  0.75924884  0.63095957  0.60467424  1
  V  V3  1  0.72821018  0.39770355  0.02684979  1
  V  V4  1  0.24075116  0.36904043  0.39532576  1
  V  V5  1  0.23803795  0.02344681  0.63250636  1
  O  O0  1  0.72420428  0.87593215  0.47134039  1
  O  O1  1  0.95963720  0.89539437  0.25479322  1
  O  O2  1  0.21055830  0.47077083  0.59944829  1
  O  O3  1  0.55149616  0.33104397  0.09978898  1
  O  O4  1  0.27515342  0.39509918  0.87513074  1
  O  O5  1  0.22077954  0.81969460  0.51280864  1
  O  O6  1  0.45211299  0.27231041  0.36760792  1
  O  O7  1  0.41441401  0.06090341  0.77033604  1
  O  O8  1  0.28106761  0.69502532  0.17752526  1
  O  O9  1  0.54788701  0.72768959  0.63239208  1
  O  O10  1  0.27579572  0.12406785  0.52865961  1
  O  O11  1  0.24470285  0.48665130  0.30877939  1
  O  O12  1  0.71893239  0.30497468  0.82247474  1
  O  O13  1  0.72484658  0.60490082  0.12486926  1
  O  O14  1  0.92655272  0.77878358  0.70394723  1
  O  O15  1  0.78944170  0.52922917  0.40055171  1
  O  O16  1  0.06406271  0.65092684  0.91544652  1
  O  O17  1  0.07344728  0.22121642  0.29605277  1
  O  O18  1  0.58558599  0.93909659  0.22966396  1
  O  O19  1  0.75529715  0.51334870  0.69122061  1
  O  O20  1  0.04036280  0.10460563  0.74520678  1
  O  O21  1  0.93593729  0.34907316  0.08455348  1
  O  O22  1  0.77922046  0.18030540  0.48719136  1
  O  O23  1  0.44850384  0.66895603  0.90021102  1
  F  F0  1  0.24693209  0.99150191  0.00188907  1
  F  F1  1  0.75306791  0.00849809  0.99811093  1
loop_
_geom_bond_atom_site_label_1
_geom_bond_atom_site_label_2
_geom_bond_distance
_geom_bond_site_symmetry_2
Ca0 F1 2.334051 1_564
Ca0 O16 2.358425 1_654
Ca0 O23 2.363784 1_554
Ca0 O18 2.417520 1_555
Ca0 O13 2.434796 1_555
Ca0 O1 2.553536 1_555
Ca0 O19 2.729007 1_554
Ca1 O22 2.348376 1_555
Ca1 O19 2.406534 1_555
Ca1 O2 2.426124 1_655
Ca1 O12 2.436111 1_555
Ca1 O4 2.464870 1_655
Ca1 O20 2.556009 1_655
Ca1 O16 2.710274 1_655
Ca1 O10 2.753909 1_655
Ca2 F0 2.316298 1_556
Ca2 O14 2.348516 1_455
Ca2 O9 2.371379 1_555
Ca2 O23 2.412781 1_555
Ca2 O2 2.428798 1_555
Ca2 O16 2.620813 1_555
Ca2 O5 2.692570 1_555
Ca3 O19 2.328415 1_555
Ca3 O12 2.369202 1_555
Ca3 O10 2.376521 1_555
Ca3 O6 2.519193 1_555
Ca3 O22 2.539289 1_555
Ca3 O4 2.539568 1_555
Ca3 O2 2.584650 1_555
Ca3 O23 2.903634 1_555
Ca4 F1 2.316298 1_554
Ca4 O17 2.348516 1_655
Ca4 O6 2.371379 1_555
Ca4 O3 2.412781 1_555
Ca4 O15 2.428798 1_555
Ca4 O21 2.620813 1_555
Ca4 O22 2.692570 1_555
Ca5 F0 2.334051 1_545
Ca5 O21 2.358425 1_455
Ca5 O3 2.363784 1_555
Ca5 O7 2.417520 1_554
Ca5 O4 2.434796 1_554
Ca5 O20 2.553536 1_554
Ca5 O11 2.729007 1_555
Ca6 F0 2.317861 1_545
Ca6 O18 2.330135 1_545
Ca6 O1 2.354905 1_445
Ca6 O17 2.386285 1_555
Ca6 O10 2.402934 1_555
Ca6 O8 2.641722 1_545
Ca6 O6 2.645941 1_555
Ca7 O11 2.328415 1_555
Ca7 O8 2.369202 1_555
Ca7 O0 2.376521 1_555
Ca7 O9 2.519193 1_555
Ca7 O5 2.539289 1_555
Ca7 O13 2.539568 1_555
Ca7 O15 2.584650 1_555
Ca7 O3 2.903634 1_555
Ca8 O5 2.348376 1_555
Ca8 O11 2.406534 1_555
Ca8 O15 2.426124 1_455
Ca8 O8 2.436111 1_555
Ca8 O13 2.464870 1_455
Ca8 O1 2.556009 1_455
Ca8 O21 2.710274 1_455
Ca8 O0 2.753909 1_455
Ca9 F1 2.317861 1_555
Ca9 O7 2.330135 1_555
Ca9 O20 2.354905 1_655
Ca9 O14 2.386285 1_545
Ca9 O0 2.402934 1_545
Ca9 O12 2.641722 1_555
Ca9 O9 2.645941 1_545
O0 V0 1.730405 1_555
O1 V0 1.719014 1_555
O2 V4 1.734227 1_555
O3 V3 1.708935 1_555
O4 V1 1.731068 1_555
O5 V5 1.712770 1_565
O6 V4 1.711946 1_555
O7 V5 1.702805 1_555
O8 V1 1.719849 1_554
O9 V2 1.711946 1_555
O10 V5 1.730405 1_555
O11 V4 1.711346 1_555
O12 V3 1.719849 1_556
O13 V3 1.731068 1_555
O14 V2 1.702479 1_555
O15 V2 1.734227 1_555
O16 V1 1.703149 1_555
O17 V4 1.702479 1_555
O18 V0 1.702805 1_555
O19 V2 1.711346 1_555
O20 V5 1.719014 1_555
O21 V3 1.703149 1_555
O22 V0 1.712770 1_545
O23 V1 1.708935 1_555
