# generated using pymatgen
data_K4Fe2O5
_symmetry_space_group_name_H-M   'P 1'
_cell_length_a   5.93909436
_cell_length_b   6.38213152
_cell_length_c   10.01463449
_cell_angle_alpha   75.87648095
_cell_angle_beta   90.00000000
_cell_angle_gamma   90.00000000
_symmetry_Int_Tables_number   1
_chemical_formula_structural   K4Fe2O5
_chemical_formula_sum   'K8 Fe4 O10'
_cell_volume   368.12108133
_cell_formula_units_Z   2
loop_
 _symmetry_equiv_pos_site_id
 _symmetry_equiv_pos_as_xyz
  1  'x, y, z'
loop_
 _atom_site_type_symbol
 _atom_site_label
 _atom_site_symmetry_multiplicity
 _atom_site_fract_x
 _atom_site_fract_y
 _atom_site_fract_z
 _atom_site_occupancy
  K  K0  1  0.87758472  0.73101393  0.51717705  1
  K  K1  1  0.09105473  0.90575085  0.83642972  1
  K  K2  1  0.12241528  0.26898607  0.48282295  1
  K  K3  1  0.40894527  0.90575085  0.33642972  1
  K  K4  1  0.90894527  0.09424915  0.16357028  1
  K  K5  1  0.37758472  0.26898607  0.98282295  1
  K  K6  1  0.62241528  0.73101393  0.01717705  1
  K  K7  1  0.59105473  0.09424915  0.66357028  1
  Fe  Fe0  1  0.11532087  0.59227758  0.15561819  1
  Fe  Fe1  1  0.38467913  0.59227758  0.65561819  1
  Fe  Fe2  1  0.61532087  0.40772242  0.34438181  1
  Fe  Fe3  1  0.88467913  0.40772242  0.84438181  1
  O  O0  1  0.14541416  0.39171199  0.73017343  1
  O  O1  1  0.85458584  0.60828801  0.26982657  1
  O  O2  1  0.26423385  0.86211521  0.59744340  1
  O  O3  1  0.35458584  0.39171199  0.23017343  1
  O  O4  1  0.76423385  0.13788479  0.90255660  1
  O  O5  1  0.50000000  0.50000000  0.50000000  1
  O  O6  1  0.73576615  0.13788479  0.40255660  1
  O  O7  1  0.64541416  0.60828801  0.76982657  1
  O  O8  1  0.00000000  0.50000000  -0.00000000  1
  O  O9  1  0.23576615  0.86211521  0.09744340  1
loop_
_geom_bond_atom_site_label_1
_geom_bond_atom_site_label_2
_geom_bond_distance
_geom_bond_site_symmetry_2
K0 O2 2.635843 1_655
K0 O6 2.704674 1_565
K0 O5 2.712188 1_555
K0 O1 2.777619 1_555
K0 O7 2.819489 1_555
K0 O0 3.084680 1_655
K1 O4 2.622936 1_465
K1 O2 2.681209 1_555
K1 O9 2.700690 1_556
K1 O8 2.758881 1_556
K1 O0 3.040565 1_565
K2 O6 2.635843 1_455
K2 O2 2.704674 1_545
K2 O5 2.712188 1_555
K2 O0 2.777619 1_555
K2 O3 2.819489 1_555
K2 O1 3.084680 1_455
K3 O6 2.622936 1_565
K3 O9 2.681209 1_555
K3 O2 2.700690 1_555
K3 O5 2.758881 1_555
K3 O3 3.040565 1_565
K4 O9 2.622936 1_645
K4 O6 2.681209 1_555
K4 O4 2.700690 1_554
K4 O8 2.758881 1_655
K4 O1 3.040565 1_545
K5 O4 2.635843 1_555
K5 O9 2.704674 1_546
K5 O8 2.712188 1_556
K5 O3 2.777619 1_556
K5 O0 2.819489 1_555
K5 O7 3.084680 1_555
K6 O9 2.635843 1_555
K6 O4 2.704674 1_564
K6 O8 2.712188 1_655
K6 O7 2.777619 1_554
K6 O1 2.819489 1_555
K6 O3 3.084680 1_555
K7 O2 2.622936 1_545
K7 O4 2.681209 1_555
K7 O6 2.700690 1_555
K7 O5 2.758881 1_555
K7 O7 3.040565 1_545
Fe0 O9 1.824074 1_555
Fe0 O8 1.921625 1_555
Fe0 O3 1.936191 1_555
Fe0 O1 1.942575 1_455
Fe1 O2 1.824074 1_555
Fe1 O5 1.921625 1_555
Fe1 O0 1.936191 1_555
Fe1 O7 1.942575 1_555
Fe2 O6 1.824074 1_555
Fe2 O5 1.921625 1_555
Fe2 O1 1.936191 1_555
Fe2 O3 1.942575 1_555
Fe3 O4 1.824074 1_555
Fe3 O8 1.921625 1_656
Fe3 O7 1.936191 1_555
Fe3 O0 1.942575 1_655
