# generated using pymatgen
data_HgO
_symmetry_space_group_name_H-M   'P 1'
_cell_length_a   5.82209700
_cell_length_b   6.73641700
_cell_length_c   7.42844858
_cell_angle_alpha   88.83157374
_cell_angle_beta   90.00000000
_cell_angle_gamma   90.00000000
_symmetry_Int_Tables_number   1
_chemical_formula_structural   HgO
_chemical_formula_sum   'Hg8 O8'
_cell_volume   291.28371858
_cell_formula_units_Z   8
loop_
 _symmetry_equiv_pos_site_id
 _symmetry_equiv_pos_as_xyz
  1  'x, y, z'
loop_
 _atom_site_type_symbol
 _atom_site_label
 _atom_site_symmetry_multiplicity
 _atom_site_fract_x
 _atom_site_fract_y
 _atom_site_fract_z
 _atom_site_occupancy
  Hg  Hg0  1  0.75000000  0.12155300  0.12399400  1
  Hg  Hg1  1  0.75000000  0.11396000  0.62203900  1
  Hg  Hg2  1  0.25000000  0.88604000  0.37796100  1
  Hg  Hg3  1  0.75000000  0.61398200  0.61727600  1
  Hg  Hg4  1  0.25000000  0.38601800  0.38272400  1
  Hg  Hg5  1  0.25000000  0.37874900  0.88239200  1
  Hg  Hg6  1  0.75000000  0.62125100  0.11760800  1
  Hg  Hg7  1  0.25000000  0.87844700  0.87600600  1
  O  O0  1  0.25000000  0.13447500  0.71865300  1
  O  O1  1  0.75000000  0.85872600  0.78027200  1
  O  O2  1  0.75000000  0.36504300  0.45846500  1
  O  O3  1  0.75000000  0.86552500  0.28134700  1
  O  O4  1  0.75000000  0.37172700  0.95955300  1
  O  O5  1  0.25000000  0.62827300  0.04044700  1
  O  O6  1  0.25000000  0.14127400  0.21972800  1
  O  O7  1  0.25000000  0.63495700  0.54153500  1
loop_
_geom_bond_atom_site_label_1
_geom_bond_atom_site_label_2
_geom_bond_distance
_geom_bond_site_symmetry_2
Hg0 O4 2.061156 1_554
Hg0 O3 2.063665 1_545
Hg1 O2 2.062398 1_555
Hg1 O1 2.062865 1_545
Hg2 O7 2.062398 1_555
Hg2 O6 2.062865 1_565
Hg3 O1 2.065350 1_555
Hg3 O2 2.069929 1_555
Hg4 O6 2.065350 1_555
Hg4 O7 2.069929 1_555
Hg5 O0 2.066120 1_555
Hg5 O5 2.069885 1_556
Hg6 O3 2.066120 1_555
Hg6 O4 2.069885 1_554
Hg7 O5 2.061156 1_556
Hg7 O0 2.063665 1_565
