# generated using pymatgen
data_TcSb(OF4)2
_symmetry_space_group_name_H-M   'P 1'
_cell_length_a   10.73213900
_cell_length_b   7.55426600
_cell_length_c   11.98165372
_cell_angle_alpha   54.00889737
_cell_angle_beta   90.00000000
_cell_angle_gamma   90.00000000
_symmetry_Int_Tables_number   1
_chemical_formula_structural   TcSb(OF4)2
_chemical_formula_sum   'Tc4 Sb4 O8 F32'
_cell_volume   785.96274554
_cell_formula_units_Z   4
loop_
 _symmetry_equiv_pos_site_id
 _symmetry_equiv_pos_as_xyz
  1  'x, y, z'
loop_
 _atom_site_type_symbol
 _atom_site_label
 _atom_site_symmetry_multiplicity
 _atom_site_fract_x
 _atom_site_fract_y
 _atom_site_fract_z
 _atom_site_occupancy
  Tc  Tc0  1  0.67278700  0.53146900  0.83760600  1
  Tc  Tc1  1  0.17278700  0.46853100  0.66239400  1
  Tc  Tc2  1  0.32721300  0.46853100  0.16239400  1
  Tc  Tc3  1  0.82721300  0.53146900  0.33760600  1
  Sb  Sb0  1  0.02196200  0.09568900  0.18727500  1
  Sb  Sb1  1  0.52196200  0.90431100  0.31272500  1
  Sb  Sb2  1  0.47803800  0.09568900  0.68727500  1
  Sb  Sb3  1  0.97803800  0.90431100  0.81272500  1
  O  O0  1  0.53000100  0.47424900  0.80976000  1
  O  O1  1  0.46999900  0.52575100  0.19024000  1
  O  O2  1  0.25476000  0.71173700  0.07457500  1
  O  O3  1  0.96999900  0.47424900  0.30976000  1
  O  O4  1  0.24524000  0.71173700  0.57457500  1
  O  O5  1  0.03000100  0.52575100  0.69024000  1
  O  O6  1  0.75476000  0.28826300  0.42542500  1
  O  O7  1  0.74524000  0.28826300  0.92542500  1
  F  F0  1  0.01315500  0.21947700  0.99658500  1
  F  F1  1  0.63798800  0.55340000  0.98028200  1
  F  F2  1  0.24425400  0.33585600  0.83388400  1
  F  F3  1  0.96983100  0.02841700  0.62152300  1
  F  F4  1  0.48684500  0.21947700  0.49658500  1
  F  F5  1  0.36201200  0.44660000  0.01971800  1
  F  F6  1  0.53016900  0.02841700  0.12152300  1
  F  F7  1  0.34695200  0.30954800  0.64907700  1
  F  F8  1  0.88773400  0.88708400  0.22339900  1
  F  F9  1  0.25574600  0.33585600  0.33388400  1
  F  F10  1  0.46983100  0.97158300  0.87847700  1
  F  F11  1  0.75574600  0.66414400  0.16611600  1
  F  F12  1  0.60210600  0.29461400  0.66299000  1
  F  F13  1  0.51315500  0.78052300  0.50341500  1
  F  F14  1  0.38773400  0.11291600  0.27660100  1
  F  F15  1  0.61226600  0.88708400  0.72339900  1
  F  F16  1  0.35577800  0.89382300  0.71267100  1
  F  F17  1  0.03016900  0.97158300  0.37847700  1
  F  F18  1  0.85577800  0.10617700  0.78732900  1
  F  F19  1  0.39789400  0.70538600  0.33701000  1
  F  F20  1  0.98684500  0.78052300  0.00341500  1
  F  F21  1  0.15304800  0.30954800  0.14907700  1
  F  F22  1  0.13798800  0.44660000  0.51971800  1
  F  F23  1  0.10210600  0.70538600  0.83701000  1
  F  F24  1  0.64422200  0.10617700  0.28732900  1
  F  F25  1  0.11226600  0.11291600  0.77660100  1
  F  F26  1  0.84695200  0.69045200  0.85092300  1
  F  F27  1  0.74425400  0.66414400  0.66611600  1
  F  F28  1  0.14422200  0.89382300  0.21267100  1
  F  F29  1  0.86201200  0.55340000  0.48028200  1
  F  F30  1  0.89789400  0.29461400  0.16299000  1
  F  F31  1  0.65304800  0.69045200  0.35092300  1
loop_
_geom_bond_atom_site_label_1
_geom_bond_atom_site_label_2
_geom_bond_distance
_geom_bond_site_symmetry_2
O0 Tc0 1.678067 1_555
O1 Tc2 1.678067 1_555
O2 Tc2 1.677839 1_555
O3 Tc3 1.678067 1_555
O4 Tc1 1.677839 1_555
O5 Tc1 1.678067 1_555
O6 Tc3 1.677839 1_555
O7 Tc0 1.677839 1_555
F0 Sb0 1.895384 1_556
F1 Tc0 1.849910 1_555
F2 Tc1 1.842365 1_555
F3 Sb3 1.900175 1_545
F4 Sb2 1.895384 1_555
F5 Tc2 1.849910 1_555
F6 Sb1 1.900175 1_545
F7 Sb2 1.982325 1_555
F7 Tc1 2.277467 1_555
F8 Sb0 1.986003 1_665
F8 Tc3 2.278295 1_555
F9 Tc2 1.842365 1_555
F10 Sb2 1.900175 1_565
F11 Tc3 1.842365 1_555
F12 Sb2 1.897864 1_555
F13 Sb1 1.895384 1_555
F14 Sb1 1.986003 1_545
F14 Tc2 2.278295 1_555
F15 Sb2 1.986003 1_565
F15 Tc0 2.278295 1_555
F16 Sb2 1.895870 1_565
F17 Sb0 1.900175 1_565
F18 Sb3 1.895870 1_545
F19 Sb1 1.897864 1_555
F20 Sb3 1.895384 1_554
F21 Sb0 1.982325 1_555
F21 Tc2 2.277467 1_555
F22 Tc1 1.849910 1_555
F23 Sb3 1.897864 1_455
F24 Sb1 1.895870 1_545
F25 Sb3 1.986003 1_445
F25 Tc1 2.278295 1_555
F26 Sb3 1.982325 1_555
F26 Tc0 2.277467 1_555
F27 Tc0 1.842365 1_555
F28 Sb0 1.895870 1_565
F29 Tc3 1.849910 1_555
F30 Sb0 1.897864 1_655
F31 Sb1 1.982325 1_555
F31 Tc3 2.277467 1_555
