# generated using pymatgen
data_NdAl6Si30(N15O)3
_symmetry_space_group_name_H-M   'P 1'
_cell_length_a   7.87232100
_cell_length_b   7.89069507
_cell_length_c   17.14120903
_cell_angle_alpha   90.31063566
_cell_angle_beta   89.88884259
_cell_angle_gamma   119.55659519
_symmetry_Int_Tables_number   1
_chemical_formula_structural   NdAl6Si30(N15O)3
_chemical_formula_sum   'Nd1 Al6 Si30 N45 O3'
_cell_volume   926.20422422
_cell_formula_units_Z   1
loop_
 _symmetry_equiv_pos_site_id
 _symmetry_equiv_pos_as_xyz
  1  'x, y, z'
loop_
 _atom_site_type_symbol
 _atom_site_label
 _atom_site_symmetry_multiplicity
 _atom_site_fract_x
 _atom_site_fract_y
 _atom_site_fract_z
 _atom_site_occupancy
  Nd  Nd0  1  0.67355600  0.34387300  0.26961600  1
  Al  Al0  1  0.09744100  0.51466000  0.28366600  1
  Al  Al1  1  0.92732300  0.43383700  0.10587700  1
  Al  Al2  1  0.91666600  0.43198300  0.45004600  1
  Al  Al3  1  0.91376700  0.74718400  0.67992300  1
  Al  Al4  1  0.92506900  0.75453000  0.35029200  1
  Al  Al5  1  0.91441600  0.74751000  0.01270200  1
  Si  Si0  1  0.16961800  0.24059600  0.84820000  1
  Si  Si1  1  0.16856700  0.24103900  0.51986200  1
  Si  Si2  1  0.16910500  0.24255100  0.18184700  1
  Si  Si3  1  0.08229100  0.51633200  0.94426600  1
  Si  Si4  1  0.08753800  0.51865500  0.61639500  1
  Si  Si5  1  0.08865500  0.82812000  0.84628600  1
  Si  Si6  1  0.08881200  0.82733500  0.51476100  1
  Si  Si7  1  0.08115400  0.82444500  0.18015100  1
  Si  Si8  1  0.48589300  0.56882800  0.94376200  1
  Si  Si9  1  0.48857800  0.56823700  0.61346400  1
  Si  Si10  1  0.48672400  0.58204000  0.28085200  1
  Si  Si11  1  0.42812600  0.91763600  0.94281800  1
  Si  Si12  1  0.43149500  0.91941200  0.61266700  1
  Si  Si13  1  0.42480600  0.91459400  0.27933300  1
  Si  Si14  1  0.25344500  0.16757600  0.68277300  1
  Si  Si15  1  0.24517200  0.17328900  0.35219700  1
  Si  Si16  1  0.24780100  0.16780200  0.01403900  1
  Si  Si17  1  0.51511500  0.08457300  0.77862400  1
  Si  Si18  1  0.51224800  0.08376500  0.44903200  1
  Si  Si19  1  0.50849900  0.07998400  0.10888900  1
  Si  Si20  1  0.74443300  0.90932100  0.84742300  1
  Si  Si21  1  0.74518200  0.91059600  0.51689000  1
  Si  Si22  1  0.74748900  0.91669400  0.18028200  1
  Si  Si23  1  0.83689300  0.08813100  0.68206200  1
  Si  Si24  1  0.83527100  0.08862500  0.01122300  1
  Si  Si25  1  0.83117500  0.08414300  0.35150700  1
  Si  Si26  1  0.56900200  0.48799400  0.77782000  1
  Si  Si27  1  0.56299400  0.48549200  0.44795800  1
  Si  Si28  1  0.56345400  0.48973600  0.10814200  1
  Si  Si29  1  0.91421700  0.43409000  0.77567100  1
  N  N0  1  0.30999100  0.31971600  0.93214900  1
  N  N1  1  0.31710500  0.31916100  0.60106200  1
  N  N2  1  0.32134000  0.32525100  0.26708000  1
  N  N3  1  0.00487800  0.67851500  0.92582200  1
  N  N4  1  0.00501200  0.67519900  0.59436700  1
  N  N5  1  0.98982200  0.66939400  0.25959500  1
  N  N6  1  0.33075200  0.66606100  0.95748600  1
  N  N7  1  0.33553100  0.66790200  0.62798900  1
  N  N8  1  0.34783100  0.68151400  0.30337300  1
  N  N9  1  0.00683400  0.01356600  0.68109200  1
  N  N10  1  0.00308500  0.01434100  0.34771700  1
  N  N11  1  0.99803000  0.99795100  0.18307500  1
  N  N12  1  0.00295000  0.01202700  0.01352000  1
  N  N13  1  0.60904000  0.65381300  0.85371200  1
  N  N14  1  0.60822900  0.65541700  0.52204400  1
  N  N15  1  0.60874600  0.65516800  0.18914500  1
  N  N16  1  0.34727700  0.96152100  0.85353600  1
  N  N17  1  0.34669600  0.95982700  0.52323000  1
  N  N18  1  0.34748100  0.96379500  0.19000500  1
  N  N19  1  0.39213500  0.04699100  0.68849300  1
  N  N20  1  0.39688300  0.05976000  0.35362400  1
  N  N21  1  0.39014800  0.04826500  0.01937700  1
  N  N22  1  0.31890200  0.31269100  0.76806300  1
  N  N23  1  0.30873300  0.31960800  0.43567600  1
  N  N24  1  0.31439400  0.31324900  0.10035100  1
  N  N25  1  0.67687100  0.98934100  0.93194800  1
  N  N26  1  0.68198200  0.99611600  0.60074900  1
  N  N27  1  0.68059000  0.00756700  0.26517000  1
  N  N28  1  0.69024100  0.00888500  0.76678400  1
  N  N29  1  0.68186100  0.00033000  0.43486400  1
  N  N30  1  0.68892300  0.01041500  0.09899600  1
  N  N31  1  0.99778200  0.99525600  0.84732100  1
  N  N32  1  0.66825900  0.33419000  0.79697700  1
  N  N33  1  0.65239600  0.32966300  0.46531400  1
  N  N34  1  0.65754200  0.33161000  0.13150400  1
  N  N35  1  0.64444300  0.59295200  0.35418000  1
  N  N36  1  0.64360000  0.60278700  0.68906300  1
  N  N37  1  0.64038700  0.60272900  0.02054500  1
  N  N38  1  0.95517400  0.34612400  0.68801100  1
  N  N39  1  0.93140400  0.33184100  0.35220800  1
  N  N40  1  0.95181200  0.34019200  0.01114000  1
  N  N41  1  0.00869300  0.67828600  0.76657200  1
  N  N42  1  0.01888000  0.69025000  0.43370200  1
  N  N43  1  0.01352000  0.69078300  0.09869600  1
  N  N44  1  0.99792600  0.99586000  0.51619200  1
  O  O0  1  0.04425000  0.38228400  0.85127100  1
  O  O1  1  0.04696600  0.37572100  0.52941200  1
  O  O2  1  0.04935300  0.37424000  0.18801500  1
loop_
_geom_bond_atom_site_label_1
_geom_bond_atom_site_label_2
_geom_bond_distance
_geom_bond_site_symmetry_2
Al0 N8 1.780557 1_555
Al0 N39 1.822650 1_455
Al0 N5 1.845558 1_455
Al0 O2 1.904756 1_555
Al1 N43 1.797601 1_655
Al1 N40 1.829361 1_555
Al1 O2 1.893262 1_655
Al1 N34 1.914226 1_555
Al2 N42 1.807360 1_655
Al2 N33 1.841617 1_555
Al2 N39 1.877690 1_555
Al2 O1 1.887134 1_655
Al3 N4 1.838133 1_655
Al3 N9 1.853544 1_665
Al3 N36 1.859060 1_555
Al3 N41 1.863838 1_655
Al4 N42 1.796762 1_655
Al4 N10 1.827761 1_665
Al4 N5 1.857833 1_555
Al4 N35 1.931840 1_555
Al5 N43 1.827014 1_655
Al5 N3 1.841449 1_654
Al5 N12 1.845805 1_665
Al5 N37 1.883101 1_555
N0 Si0 1.731301 1_555
N0 Si16 1.756002 1_556
N0 Si8 1.769872 1_555
N1 Si1 1.723517 1_555
N1 Si14 1.751470 1_555
N1 Si9 1.763320 1_555
N2 Si2 1.794859 1_555
N2 Si15 1.797858 1_555
N2 Si10 1.802733 1_555
N2 Nd0 2.703721 1_555
N3 Si3 1.698124 1_555
N3 Si5 1.712626 1_555
N4 Si4 1.699469 1_555
N4 Si6 1.723731 1_555
N5 Si7 1.736271 1_655
N5 Nd0 2.553408 1_555
N6 Si3 1.729730 1_555
N6 Si8 1.748426 1_555
N6 Si11 1.759223 1_555
N7 Si4 1.722937 1_555
N7 Si9 1.750309 1_555
N7 Si12 1.761828 1_555
N8 Si10 1.674053 1_555
N8 Si13 1.681448 1_555
N9 Si23 1.706639 1_455
N9 Si14 1.708491 1_555
N10 Si15 1.688887 1_555
N10 Si25 1.695212 1_455
N11 Si2 1.724896 1_665
N11 Si22 1.748121 1_555
N11 Si7 1.785526 1_655
N12 Si16 1.699667 1_555
N12 Si24 1.702029 1_455
N13 Si26 1.754961 1_555
N13 Si20 1.759074 1_555
N13 Si8 1.770924 1_555
N14 Si27 1.746300 1_555
N14 Si21 1.756240 1_555
N14 Si9 1.784041 1_555
N15 Si10 1.784356 1_555
N15 Si22 1.803793 1_555
N15 Si28 1.811662 1_555
N16 Si17 1.754613 1_565
N16 Si11 1.759005 1_555
N16 Si5 1.775904 1_555
N17 Si18 1.738433 1_565
N17 Si12 1.765477 1_555
N17 Si6 1.772322 1_555
N18 Si13 1.763244 1_555
N18 Si19 1.800295 1_565
N18 Si7 1.832573 1_555
N19 Si12 1.758057 1_545
N19 Si17 1.769098 1_555
N19 Si14 1.770127 1_555
N20 Si13 1.792638 1_545
N20 Si15 1.812558 1_555
N20 Si18 1.835194 1_555
N20 Nd0 2.654991 1_555
N21 Si19 1.748210 1_555
N21 Si11 1.778158 1_544
N21 Si16 1.788273 1_555
N22 Si0 1.712975 1_555
N22 Si14 1.765420 1_555
N22 Si26 1.769102 1_555
N23 Si1 1.735781 1_555
N23 Si15 1.745239 1_555
N23 Si27 1.782690 1_555
N24 Si2 1.715693 1_555
N24 Si28 1.762577 1_555
N24 Si16 1.780986 1_555
N25 Si24 1.745414 1_566
N25 Si11 1.759561 1_555
N25 Si20 1.760447 1_555
N26 Si23 1.754746 1_565
N26 Si21 1.757012 1_555
N26 Si12 1.766018 1_555
N27 Si13 1.787296 1_545
N27 Si25 1.803055 1_555
N27 Si22 1.807502 1_545
N27 Nd0 2.682107 1_555
N28 Si20 1.747728 1_545
N28 Si17 1.763081 1_555
N28 Si23 1.767479 1_555
N29 Si21 1.757406 1_545
N29 Si25 1.759953 1_555
N29 Si18 1.771885 1_555
N30 Si22 1.746683 1_545
N30 Si19 1.764878 1_555
N30 Si24 1.809339 1_555
N31 Si0 1.730326 1_665
N31 Si20 1.761640 1_555
N31 Si5 1.783774 1_655
N32 Si29 1.731599 1_555
N32 Si17 1.756134 1_555
N32 Si26 1.769786 1_555
N33 Si18 1.715602 1_555
N33 Si27 1.718809 1_555
N34 Si19 1.778836 1_555
N34 Si28 1.784414 1_555
N34 Nd0 2.369918 1_555
N35 Si10 1.740203 1_555
N35 Si27 1.785629 1_555
N35 Nd0 2.535488 1_555
N36 Si9 1.707916 1_555
N36 Si26 1.722408 1_555
N37 Si28 1.701339 1_555
N37 Si8 1.721756 1_554
N38 Si29 1.746757 1_555
N38 Si4 1.749219 1_655
N38 Si23 1.774737 1_555
N39 Si25 1.709137 1_555
N39 Nd0 2.517215 1_555
N40 Si3 1.704427 1_654
N40 Si24 1.727835 1_555
N41 Si29 1.696847 1_455
N41 Si5 1.706660 1_555
N42 Si6 1.674181 1_555
N43 Si7 1.666804 1_555
N44 Si1 1.728113 1_665
N44 Si21 1.758113 1_555
N44 Si6 1.794175 1_655
O0 Si0 1.820584 1_555
O0 Si29 1.821540 1_455
O0 Si3 1.849467 1_555
O1 Si1 1.753216 1_555
O1 Si4 1.795924 1_555
O2 Si2 1.715967 1_555
