# generated using pymatgen
data_Cu3AsS3
_symmetry_space_group_name_H-M   'P 1'
_cell_length_a   8.63027051
_cell_length_b   8.63027051
_cell_length_c   8.63027051
_cell_angle_alpha   109.47122063
_cell_angle_beta   109.47122063
_cell_angle_gamma   109.47122063
_symmetry_Int_Tables_number   1
_chemical_formula_structural   Cu3AsS3
_chemical_formula_sum   'Cu12 As4 S12'
_cell_volume   494.82465949
_cell_formula_units_Z   4
loop_
 _symmetry_equiv_pos_site_id
 _symmetry_equiv_pos_as_xyz
  1  'x, y, z'
loop_
 _atom_site_type_symbol
 _atom_site_label
 _atom_site_symmetry_multiplicity
 _atom_site_fract_x
 _atom_site_fract_y
 _atom_site_fract_z
 _atom_site_occupancy
  Cu  Cu0  1  0.25000000  0.75000000  0.50000000  1
  Cu  Cu1  1  0.50000000  0.25000000  0.75000000  1
  Cu  Cu2  1  0.50000000  0.75000000  0.25000000  1
  Cu  Cu3  1  0.25000000  0.50000000  0.75000000  1
  Cu  Cu4  1  0.75000000  0.50000000  0.25000000  1
  Cu  Cu5  1  0.75000000  0.25000000  0.50000000  1
  Cu  Cu6  1  0.18210100  0.18210100  0.00000000  1
  Cu  Cu7  1  0.00000000  0.81789900  0.81789900  1
  Cu  Cu8  1  0.00000000  0.18210100  0.18210100  1
  Cu  Cu9  1  0.18210100  0.00000000  0.18210100  1
  Cu  Cu10  1  0.81789900  0.00000000  0.81789900  1
  Cu  Cu11  1  0.81789900  0.81789900  0.00000000  1
  As  As0  1  0.52549500  0.52549500  0.52549500  1
  As  As1  1  0.00000000  0.00000000  0.47450500  1
  As  As2  1  0.47450500  0.00000000  0.00000000  1
  As  As3  1  0.00000000  0.47450500  0.00000000  1
  S  S0  1  0.46660100  0.22797100  0.46660100  1
  S  S1  1  0.76137100  0.00000000  0.53339900  1
  S  S2  1  0.53339900  0.00000000  0.76137100  1
  S  S3  1  0.76137100  0.53339900  0.00000000  1
  S  S4  1  0.23862900  0.23862900  0.77202900  1
  S  S5  1  0.77202900  0.23862900  0.23862900  1
  S  S6  1  0.00000000  0.53339900  0.76137100  1
  S  S7  1  0.00000000  0.76137100  0.53339900  1
  S  S8  1  0.53339900  0.76137100  0.00000000  1
  S  S9  1  0.46660100  0.46660100  0.22797100  1
  S  S10  1  0.22797100  0.46660100  0.46660100  1
  S  S11  1  0.23862900  0.77202900  0.23862900  1
loop_
_geom_bond_atom_site_label_1
_geom_bond_atom_site_label_2
_geom_bond_distance
_geom_bond_site_symmetry_2
Cu0 S10 2.298847 1_555
Cu0 S7 2.298850 1_555
Cu0 S2 2.298850 1_565
Cu0 S11 2.298854 1_555
Cu1 S0 2.298847 1_555
Cu1 S3 2.298850 1_556
Cu1 S2 2.298850 1_555
Cu1 S4 2.298854 1_555
Cu2 S9 2.298847 1_555
Cu2 S8 2.298850 1_555
Cu2 S1 2.298850 1_565
Cu2 S11 2.298854 1_555
Cu3 S10 2.298847 1_555
Cu3 S6 2.298850 1_555
Cu3 S8 2.298850 1_556
Cu3 S4 2.298854 1_555
Cu4 S9 2.298847 1_555
Cu4 S7 2.298850 1_655
Cu4 S3 2.298850 1_555
Cu4 S5 2.298854 1_555
Cu5 S0 2.298847 1_555
Cu5 S6 2.298850 1_655
Cu5 S1 2.298850 1_555
Cu5 S5 2.298854 1_555
Cu6 S4 2.338368 1_554
Cu6 S9 2.338375 1_555
Cu7 S7 2.338376 1_555
Cu7 S6 2.338376 1_555
Cu8 S5 2.338368 1_455
Cu8 S10 2.338375 1_555
Cu9 S11 2.338368 1_545
Cu9 S0 2.338375 1_555
Cu10 S1 2.338376 1_555
Cu10 S2 2.338376 1_555
Cu11 S3 2.338376 1_555
Cu11 S8 2.338376 1_555
As0 S10 2.279797 1_555
As0 S9 2.279797 1_555
As0 S0 2.279797 1_555
As1 S1 2.279789 1_455
As1 S7 2.279789 1_545
As1 S4 2.279793 1_555
As2 S8 2.279789 1_545
As2 S2 2.279789 1_554
As2 S5 2.279793 1_555
As3 S6 2.279789 1_554
As3 S3 2.279789 1_455
As3 S11 2.279793 1_555
