# generated using pymatgen
data_HgI2
_symmetry_space_group_name_H-M   'P 1'
_cell_length_a   8.98306605
_cell_length_b   8.98397416
_cell_length_c   14.25909156
_cell_angle_alpha   108.42925737
_cell_angle_beta   108.42236223
_cell_angle_gamma   90.01827462
_symmetry_Int_Tables_number   1
_chemical_formula_structural   HgI2
_chemical_formula_sum   'Hg8 I16'
_cell_volume   1029.35351302
_cell_formula_units_Z   8
loop_
 _symmetry_equiv_pos_site_id
 _symmetry_equiv_pos_as_xyz
  1  'x, y, z'
loop_
 _atom_site_type_symbol
 _atom_site_label
 _atom_site_symmetry_multiplicity
 _atom_site_fract_x
 _atom_site_fract_y
 _atom_site_fract_z
 _atom_site_occupancy
  Hg  Hg0  1  0.18421924  0.68772625  0.37531687  1
  Hg  Hg1  1  0.18781024  0.68456700  0.87542889  1
  Hg  Hg2  1  0.69070819  0.68668926  0.37479629  1
  Hg  Hg3  1  0.30919253  0.31316934  0.62515828  1
  Hg  Hg4  1  0.81222838  0.31560855  0.12459518  1
  Hg  Hg5  1  0.18695954  0.19091308  0.87473891  1
  Hg  Hg6  1  0.81571492  0.31225331  0.62466237  1
  Hg  Hg7  1  0.81317898  0.80918000  0.12523082  1
  I  I0  1  0.50569161  0.75507158  0.51061307  1
  I  I1  1  0.00621745  0.75624926  0.51252795  1
  I  I2  1  0.38530146  0.11495186  0.74998020  1
  I  I3  1  0.99374184  0.24378201  0.48756419  1
  I  I4  1  0.38705016  0.63568428  0.75136114  1
  I  I5  1  0.13496372  0.36477305  0.25004248  1
  I  I6  1  0.86447425  0.11296478  0.74869405  1
  I  I7  1  0.25592325  0.00620858  0.01083694  1
  I  I8  1  0.61472230  0.88503113  0.24999301  1
  I  I9  1  0.13554293  0.88716440  0.25152267  1
  I  I10  1  0.74456275  0.99405536  0.98922934  1
  I  I11  1  0.74377281  0.49366590  0.98747758  1
  I  I12  1  0.61278134  0.36431484  0.24847415  1
  I  I13  1  0.49413517  0.24431442  0.48929591  1
  I  I14  1  0.25629064  0.50638262  0.01249560  1
  I  I15  1  0.86481630  0.63527715  0.74996708  1
loop_
_geom_bond_atom_site_label_1
_geom_bond_atom_site_label_2
_geom_bond_distance
_geom_bond_site_symmetry_2
Hg0 I1 2.824907 1_555
Hg0 I5 2.833287 1_555
Hg0 I9 2.833698 1_555
Hg0 I0 2.857798 1_555
Hg1 I14 2.824845 1_556
Hg1 I15 2.834198 1_455
Hg1 I4 2.834853 1_555
Hg1 I7 2.859520 1_566
Hg2 I1 2.825821 1_655
Hg2 I12 2.832997 1_555
Hg2 I8 2.836541 1_555
Hg2 I0 2.858843 1_555
Hg3 I3 2.824804 1_455
Hg3 I4 2.833607 1_555
Hg3 I2 2.835863 1_555
Hg3 I13 2.858837 1_555
Hg4 I11 2.824532 1_554
Hg4 I5 2.832279 1_655
Hg4 I12 2.834378 1_555
Hg4 I10 2.858716 1_544
Hg5 I14 2.825699 1_556
Hg5 I6 2.832821 1_455
Hg5 I2 2.835732 1_555
Hg5 I7 2.860113 1_556
Hg6 I3 2.823793 1_555
Hg6 I15 2.833982 1_555
Hg6 I6 2.835174 1_555
Hg6 I13 2.858850 1_555
Hg7 I11 2.825998 1_554
Hg7 I9 2.832764 1_655
Hg7 I8 2.836580 1_555
Hg7 I10 2.860235 1_554
