# generated using pymatgen
data_NbBi4BrO8
_symmetry_space_group_name_H-M   'P 1'
_cell_length_a   5.58037300
_cell_length_b   5.64904300
_cell_length_c   29.78132500
_cell_angle_alpha   90.00000000
_cell_angle_beta   90.00000000
_cell_angle_gamma   90.00000000
_symmetry_Int_Tables_number   1
_chemical_formula_structural   NbBi4BrO8
_chemical_formula_sum   'Nb4 Bi16 Br4 O32'
_cell_volume   938.81955124
_cell_formula_units_Z   4
loop_
 _symmetry_equiv_pos_site_id
 _symmetry_equiv_pos_as_xyz
  1  'x, y, z'
loop_
 _atom_site_type_symbol
 _atom_site_label
 _atom_site_symmetry_multiplicity
 _atom_site_fract_x
 _atom_site_fract_y
 _atom_site_fract_z
 _atom_site_occupancy
  Nb  Nb0  1  0.00000000  0.00811300  0.25000000  1
  Nb  Nb1  1  0.00000000  0.99188700  0.75000000  1
  Nb  Nb2  1  0.50000000  0.50811300  0.25000000  1
  Nb  Nb3  1  0.50000000  0.49188700  0.75000000  1
  Bi  Bi0  1  0.48789500  0.50665000  0.57254700  1
  Bi  Bi1  1  0.48789500  0.49335000  0.07254700  1
  Bi  Bi2  1  0.52123800  0.94606700  0.15924500  1
  Bi  Bi3  1  0.01210500  0.99335000  0.07254700  1
  Bi  Bi4  1  0.51210500  0.50665000  0.92745300  1
  Bi  Bi5  1  0.52123800  0.05393300  0.65924500  1
  Bi  Bi6  1  0.02123800  0.44606700  0.34075500  1
  Bi  Bi7  1  0.02123800  0.55393300  0.84075500  1
  Bi  Bi8  1  0.98789500  0.00665000  0.92745300  1
  Bi  Bi9  1  0.97876200  0.44606700  0.15924500  1
  Bi  Bi10  1  0.98789500  0.99335000  0.42745300  1
  Bi  Bi11  1  0.51210500  0.49335000  0.42745300  1
  Bi  Bi12  1  0.47876200  0.94606700  0.34075500  1
  Bi  Bi13  1  0.01210500  0.00665000  0.57254700  1
  Bi  Bi14  1  0.47876200  0.05393300  0.84075500  1
  Bi  Bi15  1  0.97876200  0.55393300  0.65924500  1
  Br  Br0  1  0.00000000  0.50000000  0.00000000  1
  Br  Br1  1  0.00000000  0.50000000  0.50000000  1
  Br  Br2  1  0.50000000  0.00000000  0.00000000  1
  Br  Br3  1  0.50000000  0.00000000  0.50000000  1
  O  O0  1  0.25156300  0.30012200  0.23312900  1
  O  O1  1  0.74874600  0.75340300  0.10798300  1
  O  O2  1  0.60469600  0.58032300  0.18699400  1
  O  O3  1  0.39530400  0.41967700  0.81300600  1
  O  O4  1  0.39530400  0.58032300  0.31300600  1
  O  O5  1  0.75305100  0.75417100  0.88992700  1
  O  O6  1  0.74843700  0.30012200  0.26687100  1
  O  O7  1  0.75156300  0.80012200  0.26687100  1
  O  O8  1  0.89530400  0.08032300  0.18699400  1
  O  O9  1  0.25305100  0.74582900  0.11007300  1
  O  O10  1  0.75125400  0.25340300  0.10798300  1
  O  O11  1  0.24694900  0.75417100  0.61007300  1
  O  O12  1  0.25125400  0.75340300  0.39201700  1
  O  O13  1  0.74694900  0.25417100  0.88992700  1
  O  O14  1  0.25156300  0.69987800  0.73312900  1
  O  O15  1  0.74843700  0.69987800  0.76687100  1
  O  O16  1  0.75305100  0.24582900  0.38992700  1
  O  O17  1  0.75156300  0.19987800  0.76687100  1
  O  O18  1  0.75125400  0.74659700  0.60798300  1
  O  O19  1  0.25125400  0.24659700  0.89201700  1
  O  O20  1  0.10469600  0.91967700  0.81300600  1
  O  O21  1  0.24843700  0.19987800  0.73312900  1
  O  O22  1  0.89530400  0.91967700  0.68699400  1
  O  O23  1  0.74694900  0.74582900  0.38992700  1
  O  O24  1  0.10469600  0.08032300  0.31300600  1
  O  O25  1  0.24843700  0.80012200  0.23312900  1
  O  O26  1  0.60469600  0.41967700  0.68699400  1
  O  O27  1  0.74874600  0.24659700  0.60798300  1
  O  O28  1  0.24694900  0.24582900  0.11007300  1
  O  O29  1  0.24874600  0.25340300  0.39201700  1
  O  O30  1  0.24874600  0.74659700  0.89201700  1
  O  O31  1  0.25305100  0.25417100  0.61007300  1
loop_
_geom_bond_atom_site_label_1
_geom_bond_atom_site_label_2
_geom_bond_distance
_geom_bond_site_symmetry_2
Nb0 O25 1.885465 1_545
Nb0 O7 1.885465 1_445
Nb0 O8 2.007143 1_455
Nb0 O24 2.007143 1_555
Nb0 O6 2.223562 1_455
Nb0 O0 2.223562 1_555
Nb1 O21 1.885465 1_565
Nb1 O17 1.885465 1_465
Nb1 O22 2.007143 1_455
Nb1 O20 2.007143 1_555
Nb1 O15 2.223562 1_455
Nb1 O14 2.223562 1_555
Nb2 O0 1.885465 1_555
Nb2 O6 1.885465 1_555
Nb2 O2 2.007143 1_555
Nb2 O4 2.007143 1_555
Nb2 O7 2.223562 1_555
Nb2 O25 2.223562 1_555
Nb3 O15 1.885465 1_555
Nb3 O14 1.885465 1_555
Nb3 O3 2.007143 1_555
Nb3 O26 2.007143 1_555
Nb3 O21 2.223562 1_555
Nb3 O17 2.223562 1_555
Bi0 O31 2.236215 1_555
Bi0 O11 2.238740 1_555
Bi0 O18 2.260724 1_555
Bi0 O27 2.321796 1_555
Bi1 O9 2.236215 1_555
Bi1 O28 2.238740 1_555
Bi1 O10 2.260724 1_555
Bi1 O1 2.321796 1_555
Bi2 O1 2.264296 1_555
Bi2 O2 2.273461 1_555
Bi2 O8 2.369703 1_565
Bi2 O9 2.379865 1_555
Bi2 O10 2.644326 1_565
Bi2 O28 2.711979 1_565
Bi2 O25 2.799787 1_555
Bi3 O28 2.236215 1_565
Bi3 O9 2.238740 1_555
Bi3 O1 2.260724 1_455
Bi3 O10 2.321796 1_465
Bi4 O13 2.236215 1_555
Bi4 O5 2.238740 1_555
Bi4 O30 2.260724 1_555
Bi4 O19 2.321796 1_555
Bi5 O27 2.264296 1_555
Bi5 O26 2.273461 1_555
Bi5 O22 2.369703 1_545
Bi5 O31 2.379865 1_555
Bi5 O18 2.644326 1_545
Bi5 O11 2.711979 1_545
Bi5 O21 2.799787 1_555
Bi6 O29 2.264296 1_555
Bi6 O24 2.273461 1_555
Bi6 O4 2.369703 1_555
Bi6 O16 2.379865 1_455
Bi6 O12 2.644326 1_555
Bi6 O23 2.711979 1_455
Bi6 O6 2.799787 1_455
Bi7 O30 2.264296 1_555
Bi7 O20 2.273461 1_555
Bi7 O3 2.369703 1_555
Bi7 O5 2.379865 1_455
Bi7 O19 2.644326 1_555
Bi7 O13 2.711979 1_455
Bi7 O15 2.799787 1_455
Bi8 O5 2.236215 1_545
Bi8 O13 2.238740 1_555
Bi8 O19 2.260724 1_655
Bi8 O30 2.321796 1_645
Bi9 O10 2.264296 1_555
Bi9 O8 2.273461 1_555
Bi9 O2 2.369703 1_555
Bi9 O28 2.379865 1_655
Bi9 O1 2.644326 1_555
Bi9 O9 2.711979 1_655
Bi9 O0 2.799787 1_655
Bi10 O16 2.236215 1_565
Bi10 O23 2.238740 1_555
Bi10 O12 2.260724 1_655
Bi10 O29 2.321796 1_665
Bi11 O23 2.236215 1_555
Bi11 O16 2.238740 1_555
Bi11 O29 2.260724 1_555
Bi11 O12 2.321796 1_555
Bi12 O12 2.264296 1_555
Bi12 O4 2.273461 1_555
Bi12 O24 2.369703 1_565
Bi12 O23 2.379865 1_555
Bi12 O29 2.644326 1_565
Bi12 O16 2.711979 1_565
Bi12 O7 2.799787 1_555
Bi13 O11 2.236215 1_545
Bi13 O31 2.238740 1_555
Bi13 O27 2.260724 1_455
Bi13 O18 2.321796 1_445
Bi14 O19 2.264296 1_555
Bi14 O3 2.273461 1_555
Bi14 O20 2.369703 1_545
Bi14 O13 2.379865 1_555
Bi14 O30 2.644326 1_545
Bi14 O5 2.711979 1_545
Bi14 O17 2.799787 1_555
Bi15 O18 2.264296 1_555
Bi15 O22 2.273461 1_555
Bi15 O26 2.369703 1_555
Bi15 O11 2.379865 1_655
Bi15 O27 2.644326 1_555
Bi15 O31 2.711979 1_655
Bi15 O14 2.799787 1_655
