# generated using pymatgen
data_Na2BeH4
_symmetry_space_group_name_H-M   'P 1'
_cell_length_a   4.93980793
_cell_length_b   5.00562814
_cell_length_c   6.68633571
_cell_angle_alpha   100.78364298
_cell_angle_beta   90.00000000
_cell_angle_gamma   90.00000000
_symmetry_Int_Tables_number   1
_chemical_formula_structural   Na2BeH4
_chemical_formula_sum   'Na4 Be2 H8'
_cell_volume   162.41231789
_cell_formula_units_Z   2
loop_
 _symmetry_equiv_pos_site_id
 _symmetry_equiv_pos_as_xyz
  1  'x, y, z'
loop_
 _atom_site_type_symbol
 _atom_site_label
 _atom_site_symmetry_multiplicity
 _atom_site_fract_x
 _atom_site_fract_y
 _atom_site_fract_z
 _atom_site_occupancy
  Na  Na0  1  0.25000000  0.72267092  0.02938000  1
  Na  Na1  1  0.75000000  0.27732908  0.97062000  1
  Na  Na2  1  0.75000000  0.25386621  0.46646745  1
  Na  Na3  1  0.25000000  0.74613379  0.53353255  1
  Be  Be0  1  0.25000000  0.27932761  0.21758294  1
  Be  Be1  1  0.75000000  0.72067239  0.78241706  1
  H  H0  1  0.75000000  0.93302143  0.66269859  1
  H  H1  1  0.75000000  0.82293316  0.99773148  1
  H  H2  1  0.51971999  0.54663221  0.73599446  1
  H  H3  1  0.25000000  0.06697857  0.33730141  1
  H  H4  1  0.98028001  0.54663221  0.73599446  1
  H  H5  1  0.01971999  0.45336779  0.26400554  1
  H  H6  1  0.48028001  0.45336779  0.26400554  1
  H  H7  1  0.25000000  0.17706684  0.00226852  1
loop_
_geom_bond_atom_site_label_1
_geom_bond_atom_site_label_2
_geom_bond_distance
_geom_bond_site_symmetry_2
Be0 H5 1.431121 1_555
Be0 H6 1.431121 1_555
Be0 H7 1.434884 1_555
Be0 H3 1.445337 1_555
Be1 H2 1.431121 1_555
Be1 H4 1.431121 1_555
Be1 H1 1.434884 1_555
Be1 H0 1.445337 1_555
H0 Na2 2.255965 1_565
H0 Na1 2.425176 1_565
H1 Na1 2.315312 1_565
H1 Na0 2.537090 1_556
H1 Na0 2.537090 1_656
H2 Na3 2.260733 1_555
H2 Na2 2.387695 1_555
H2 Na0 2.398542 1_556
H2 Na1 2.522622 1_555
H3 Na3 2.255965 1_545
H3 Na0 2.425176 1_545
H4 Na3 2.260733 1_655
H4 Na2 2.387695 1_555
H4 Na0 2.398542 1_656
H4 Na1 2.522622 1_555
H5 Na2 2.260733 1_455
H5 Na3 2.387695 1_555
H5 Na1 2.398542 1_454
H5 Na0 2.522622 1_555
H6 Na2 2.260733 1_555
H6 Na3 2.387695 1_555
H6 Na1 2.398542 1_554
H6 Na0 2.522622 1_555
H7 Na0 2.315312 1_545
H7 Na1 2.537090 1_554
H7 Na1 2.537090 1_454
