# generated using pymatgen
data_LiV2O5
_symmetry_space_group_name_H-M   'P 1'
_cell_length_a   2.91781400
_cell_length_b   10.90563100
_cell_length_c   12.00534700
_cell_angle_alpha   90.00000000
_cell_angle_beta   90.00000000
_cell_angle_gamma   90.00000000
_symmetry_Int_Tables_number   1
_chemical_formula_structural   LiV2O5
_chemical_formula_sum   'Li4 V8 O20'
_cell_volume   382.01737849
_cell_formula_units_Z   4
loop_
 _symmetry_equiv_pos_site_id
 _symmetry_equiv_pos_as_xyz
  1  'x, y, z'
loop_
 _atom_site_type_symbol
 _atom_site_label
 _atom_site_symmetry_multiplicity
 _atom_site_fract_x
 _atom_site_fract_y
 _atom_site_fract_z
 _atom_site_occupancy
  Li  Li0  1  0.00000000  0.18565200  0.24785900  1
  Li  Li1  1  0.00000000  0.81434800  0.74785900  1
  Li  Li2  1  0.50000000  0.31434800  0.74785900  1
  Li  Li3  1  0.50000000  0.68565200  0.24785900  1
  V  V0  1  0.50000000  0.55428000  0.87735500  1
  V  V1  1  0.00000000  0.94572000  0.37735500  1
  V  V2  1  0.50000000  0.44572000  0.37735500  1
  V  V3  1  0.50000000  0.85103100  0.96915400  1
  V  V4  1  0.50000000  0.14896900  0.46915400  1
  V  V5  1  0.00000000  0.05428000  0.87735500  1
  V  V6  1  0.00000000  0.35103100  0.96915400  1
  V  V7  1  0.00000000  0.64896900  0.46915400  1
  O  O0  1  0.00000000  0.76670500  0.59110000  1
  O  O1  1  0.00000000  0.35712800  0.12837900  1
  O  O2  1  0.00000000  0.53472400  0.98548600  1
  O  O3  1  0.00000000  0.21410200  0.85399900  1
  O  O4  1  0.50000000  0.71410200  0.85399900  1
  O  O5  1  0.00000000  0.78589800  0.35399900  1
  O  O6  1  0.50000000  0.28589800  0.35399900  1
  O  O7  1  0.00000000  0.46527600  0.48548600  1
  O  O8  1  0.50000000  0.96527600  0.48548600  1
  O  O9  1  0.00000000  0.55358500  0.30896600  1
  O  O10  1  0.00000000  0.64287200  0.62837900  1
  O  O11  1  0.50000000  0.94641500  0.80896600  1
  O  O12  1  0.00000000  0.23329500  0.09110000  1
  O  O13  1  0.50000000  0.05358500  0.30896600  1
  O  O14  1  0.00000000  0.44641500  0.80896600  1
  O  O15  1  0.50000000  0.26670500  0.59110000  1
  O  O16  1  0.50000000  0.85712800  0.12837900  1
  O  O17  1  0.50000000  0.73329500  0.09110000  1
  O  O18  1  0.50000000  0.03472400  0.98548600  1
  O  O19  1  0.50000000  0.14287200  0.62837900  1
loop_
_geom_bond_atom_site_label_1
_geom_bond_atom_site_label_2
_geom_bond_distance
_geom_bond_site_symmetry_2
Li0 O12 1.952353 1_555
Li0 O13 2.177380 1_555
Li0 O13 2.177380 1_455
Li0 O6 2.224253 1_555
Li0 O6 2.224253 1_455
Li0 O1 2.356820 1_555
Li1 O0 1.952353 1_555
Li1 O11 2.177380 1_555
Li1 O11 2.177380 1_455
Li1 O4 2.224253 1_455
Li1 O4 2.224253 1_555
Li1 O10 2.356820 1_555
Li2 O15 1.952353 1_555
Li2 O14 2.177380 1_555
Li2 O14 2.177380 1_655
Li2 O3 2.224253 1_555
Li2 O3 2.224253 1_655
Li2 O19 2.356820 1_555
Li3 O17 1.952353 1_555
Li3 O9 2.177380 1_555
Li3 O9 2.177380 1_655
Li3 O5 2.224253 1_555
Li3 O5 2.224253 1_655
Li3 O16 2.356820 1_555
O0 O10 1.422704 1_555
O0 V7 1.947287 1_555
O1 O12 1.422704 1_555
O1 V6 1.912707 1_554
O2 V0 1.964456 1_555
O2 V0 1.964456 1_455
O2 V6 2.012860 1_555
O3 V5 1.765370 1_555
O3 V6 2.034988 1_555
O4 V0 1.765370 1_555
O4 V3 2.034988 1_555
O5 V1 1.765370 1_555
O5 V7 2.034988 1_555
O6 V2 1.765370 1_555
O6 V4 2.034988 1_555
O7 V2 1.964456 1_455
O7 V2 1.964456 1_555
O7 V7 2.012860 1_555
O8 V1 1.964456 1_555
O8 V1 1.964456 1_655
O8 V4 2.012860 1_565
O9 V2 2.046038 1_555
O9 V2 2.046038 1_455
O9 V7 2.186418 1_555
O10 V7 1.912707 1_555
O11 V5 2.046038 1_565
O11 V5 2.046038 1_665
O11 V3 2.186418 1_555
O12 V6 1.947287 1_554
O13 V1 2.046038 1_545
O13 V1 2.046038 1_645
O13 V4 2.186418 1_555
O14 V0 2.046038 1_555
O14 V0 2.046038 1_455
O14 V6 2.186418 1_555
O15 O19 1.422704 1_555
O15 V4 1.947287 1_555
O16 O17 1.422704 1_555
O16 V3 1.912707 1_554
O17 V3 1.947287 1_554
O18 V5 1.964456 1_555
O18 V5 1.964456 1_655
O18 V3 2.012860 1_545
O19 V4 1.912707 1_555
