# generated using pymatgen
data_Li7VN4
_symmetry_space_group_name_H-M   'P 1'
_cell_length_a   6.77831300
_cell_length_b   6.77831300
_cell_length_c   4.89458700
_cell_angle_alpha   90.00000000
_cell_angle_beta   90.00000000
_cell_angle_gamma   90.00000000
_symmetry_Int_Tables_number   1
_chemical_formula_structural   Li7VN4
_chemical_formula_sum   'Li14 V2 N8'
_cell_volume   224.88437978
_cell_formula_units_Z   2
loop_
 _symmetry_equiv_pos_site_id
 _symmetry_equiv_pos_as_xyz
  1  'x, y, z'
loop_
 _atom_site_type_symbol
 _atom_site_label
 _atom_site_symmetry_multiplicity
 _atom_site_fract_x
 _atom_site_fract_y
 _atom_site_fract_z
 _atom_site_occupancy
  Li  Li0  1  0.50000000  0.00000000  0.58724200  1
  Li  Li1  1  0.23659400  0.76340600  0.00000000  1
  Li  Li2  1  0.00000000  0.50000000  0.91275800  1
  Li  Li3  1  0.76340600  0.23659400  0.00000000  1
  Li  Li4  1  0.26340600  0.73659400  0.50000000  1
  Li  Li5  1  0.00000000  0.00000000  0.00000000  1
  Li  Li6  1  0.50000000  0.00000000  0.08724200  1
  Li  Li7  1  0.73659400  0.73659400  0.50000000  1
  Li  Li8  1  0.26340600  0.26340600  0.50000000  1
  Li  Li9  1  0.23659400  0.23659400  0.00000000  1
  Li  Li10  1  0.76340600  0.76340600  0.00000000  1
  Li  Li11  1  0.73659400  0.26340600  0.50000000  1
  Li  Li12  1  0.00000000  0.50000000  0.41275800  1
  Li  Li13  1  0.50000000  0.50000000  0.50000000  1
  V  V0  1  0.00000000  0.00000000  0.50000000  1
  V  V1  1  0.50000000  0.50000000  0.00000000  1
  N  N0  1  0.00000000  0.22496000  0.71172900  1
  N  N1  1  0.27504000  0.50000000  0.21172900  1
  N  N2  1  0.50000000  0.27504000  0.78827100  1
  N  N3  1  0.00000000  0.77504000  0.71172900  1
  N  N4  1  0.50000000  0.72496000  0.78827100  1
  N  N5  1  0.77504000  0.00000000  0.28827100  1
  N  N6  1  0.72496000  0.50000000  0.21172900  1
  N  N7  1  0.22496000  0.00000000  0.28827100  1
loop_
_geom_bond_atom_site_label_1
_geom_bond_atom_site_label_2
_geom_bond_distance
_geom_bond_site_symmetry_2
Li0 N4 2.108034 1_545
Li0 N2 2.108034 1_555
Li0 N7 2.370022 1_555
Li0 N5 2.370022 1_555
Li1 N1 2.080795 1_555
Li1 N4 2.080795 1_554
Li1 N3 2.137505 1_554
Li1 N7 2.137505 1_565
Li2 N0 2.108034 1_555
Li2 N3 2.108034 1_555
Li2 N6 2.370022 1_456
Li2 N1 2.370022 1_556
Li3 N2 2.080795 1_554
Li3 N6 2.080795 1_555
Li3 N5 2.137505 1_555
Li3 N0 2.137505 1_654
Li4 N3 2.080795 1_555
Li4 N7 2.080795 1_565
Li4 N4 2.137505 1_555
Li4 N1 2.137505 1_555
Li5 N5 2.077497 1_455
Li5 N3 2.077497 1_544
Li5 N7 2.077497 1_555
Li5 N0 2.077497 1_554
Li6 N7 2.108034 1_555
Li6 N5 2.108034 1_555
Li6 N4 2.370022 1_544
Li6 N2 2.370022 1_554
Li7 N3 2.080795 1_655
Li7 N5 2.080795 1_565
Li7 N4 2.137505 1_555
Li7 N6 2.137505 1_555
Li8 N0 2.080795 1_555
Li8 N7 2.080795 1_555
Li8 N2 2.137505 1_555
Li8 N1 2.137505 1_555
Li9 N1 2.080795 1_555
Li9 N2 2.080795 1_554
Li9 N7 2.137505 1_555
Li9 N0 2.137505 1_554
Li10 N6 2.080795 1_555
Li10 N4 2.080795 1_554
Li10 N5 2.137505 1_565
Li10 N3 2.137505 1_654
Li11 N0 2.080795 1_655
Li11 N5 2.080795 1_555
Li11 N2 2.137505 1_555
Li11 N6 2.137505 1_555
Li12 N6 2.108034 1_455
Li12 N1 2.108034 1_555
Li12 N0 2.370022 1_555
Li12 N3 2.370022 1_555
Li13 N2 2.077497 1_555
Li13 N4 2.077497 1_555
Li13 N1 2.077497 1_555
Li13 N6 2.077497 1_555
N0 V0 1.843675 1_555
N1 V1 1.843675 1_555
N2 V1 1.843675 1_556
N3 V0 1.843675 1_565
N4 V1 1.843675 1_556
N5 V0 1.843675 1_655
N6 V1 1.843675 1_555
N7 V0 1.843675 1_555
