# generated using pymatgen
data_TiCu2P
_symmetry_space_group_name_H-M   'P 1'
_cell_length_a   16.92995352
_cell_length_b   16.92995352
_cell_length_c   16.92995352
_cell_angle_alpha   168.07656332
_cell_angle_beta   168.07656332
_cell_angle_gamma   16.89299624
_symmetry_Int_Tables_number   1
_chemical_formula_structural   TiCu2P
_chemical_formula_sum   'Ti4 Cu8 P4'
_cell_volume   207.11936535
_cell_formula_units_Z   4
loop_
 _symmetry_equiv_pos_site_id
 _symmetry_equiv_pos_as_xyz
  1  'x, y, z'
loop_
 _atom_site_type_symbol
 _atom_site_label
 _atom_site_symmetry_multiplicity
 _atom_site_fract_x
 _atom_site_fract_y
 _atom_site_fract_z
 _atom_site_occupancy
  Ti  Ti0  1  0.02800200  0.52800200  0.50000000  1
  Ti  Ti1  1  0.47199800  0.97199800  0.50000000  1
  Ti  Ti2  1  0.27800200  0.27800200  0.00000000  1
  Ti  Ti3  1  0.72199800  0.72199800  0.00000000  1
  Cu  Cu0  1  0.65495600  0.15495600  0.50000000  1
  Cu  Cu1  1  0.09504400  0.09504400  0.00000000  1
  Cu  Cu2  1  0.90495600  0.90495600  0.00000000  1
  Cu  Cu3  1  0.84504400  0.34504400  0.50000000  1
  Cu  Cu4  1  0.40261300  0.40261300  0.00000000  1
  Cu  Cu5  1  0.34738700  0.84738700  0.50000000  1
  Cu  Cu6  1  0.59738700  0.59738700  0.00000000  1
  Cu  Cu7  1  0.15261300  0.65261300  0.50000000  1
  P  P0  1  0.54664600  0.04664600  0.50000000  1
  P  P1  1  0.20335400  0.20335400  0.00000000  1
  P  P2  1  0.95335400  0.45335400  0.50000000  1
  P  P3  1  0.79664600  0.79664600  0.00000000  1
loop_
_geom_bond_atom_site_label_1
_geom_bond_atom_site_label_2
_geom_bond_distance
_geom_bond_site_symmetry_2
Cu0 P1 2.391564 1_555
Cu0 P1 2.391564 1_656
Cu0 Cu7 2.488008 1_656
Cu0 Cu7 2.488008 1_544
Cu0 Cu7 2.488008 1_555
Cu0 Cu7 2.488008 1_645
Cu0 Cu6 2.609546 1_545
Cu0 Cu6 2.609546 1_556
Cu1 P0 2.391564 1_555
Cu1 P0 2.391564 1_454
Cu1 Cu6 2.488008 1_455
Cu1 Cu6 2.488008 1_444
Cu1 Cu6 2.488008 1_556
Cu1 Cu6 2.488008 1_545
Cu1 Cu7 2.609546 1_544
Cu1 Cu7 2.609546 1_555
Cu2 P2 2.391564 1_554
Cu2 P2 2.391564 1_565
Cu2 Cu4 2.488008 1_666
Cu2 Cu4 2.488008 1_554
Cu2 Cu4 2.488008 1_565
Cu2 Cu4 2.488008 1_655
Cu2 Cu5 2.609546 1_554
Cu2 Cu5 2.609546 1_655
Cu3 P3 2.391564 1_556
Cu3 P3 2.391564 1_545
Cu3 Cu5 2.488008 1_645
Cu3 Cu5 2.488008 1_656
Cu3 Cu5 2.488008 1_544
Cu3 Cu5 2.488008 1_555
Cu3 Cu4 2.609546 1_555
Cu3 Cu4 2.609546 1_656
Cu4 P2 2.445433 1_454
Cu4 P2 2.445433 1_555
Cu4 Cu5 2.552111 1_555
Cu4 Cu5 2.552111 1_544
Cu4 Ti1 2.914183 1_544
Cu4 Ti1 2.914183 1_555
Cu5 P3 2.445433 1_455
Cu5 P3 2.445433 1_556
Cu5 Ti2 2.914183 1_566
Cu5 Ti2 2.914183 1_555
Cu6 P0 2.445433 1_565
Cu6 P0 2.445433 1_554
Cu6 Cu7 2.552111 1_554
Cu6 Cu7 2.552111 1_655
Cu6 Ti0 2.914183 1_655
Cu6 Ti0 2.914183 1_554
Cu7 P1 2.445433 1_566
Cu7 P1 2.445433 1_555
Cu7 Ti3 2.914183 1_455
Cu7 Ti3 2.914183 1_556
P0 Ti1 2.500159 1_545
P0 Ti0 2.563971 1_555
P0 Ti0 2.563971 1_656
P0 Ti0 2.563971 1_544
P0 Ti0 2.563971 1_645
P1 Ti2 2.500159 1_555
P1 Ti3 2.563971 1_556
P1 Ti3 2.563971 1_444
P1 Ti3 2.563971 1_455
P1 Ti3 2.563971 1_545
P2 Ti0 2.500159 1_655
P2 Ti1 2.563971 1_645
P2 Ti1 2.563971 1_656
P2 Ti1 2.563971 1_544
P2 Ti1 2.563971 1_555
P3 Ti3 2.500159 1_555
P3 Ti2 2.563971 1_655
P3 Ti2 2.563971 1_554
P3 Ti2 2.563971 1_666
P3 Ti2 2.563971 1_565
