# generated using pymatgen
data_P2Pb3O8
_symmetry_space_group_name_H-M   'P 1'
_cell_length_a   7.02614211
_cell_length_b   7.02614211
_cell_length_c   8.87630269
_cell_angle_alpha   72.30507021
_cell_angle_beta   72.30507021
_cell_angle_gamma   77.45042894
_symmetry_Int_Tables_number   1
_chemical_formula_structural   P2Pb3O8
_chemical_formula_sum   'P4 Pb6 O16'
_cell_volume   393.92731350
_cell_formula_units_Z   2
loop_
 _symmetry_equiv_pos_site_id
 _symmetry_equiv_pos_as_xyz
  1  'x, y, z'
loop_
 _atom_site_type_symbol
 _atom_site_label
 _atom_site_symmetry_multiplicity
 _atom_site_fract_x
 _atom_site_fract_y
 _atom_site_fract_z
 _atom_site_occupancy
  P  P0  1  0.08638547  0.48963485  0.19926649  1
  P  P1  1  0.51036515  0.91361453  0.30073351  1
  P  P2  1  0.91361453  0.51036515  0.80073351  1
  P  P3  1  0.48963485  0.08638547  0.69926649  1
  Pb  Pb0  1  0.58493698  0.41506302  0.25000000  1
  Pb  Pb1  1  0.41506302  0.58493698  0.75000000  1
  Pb  Pb2  1  0.10018276  0.19321858  0.56164740  1
  Pb  Pb3  1  0.80678142  0.89981724  0.93835260  1
  Pb  Pb4  1  0.89981724  0.80678142  0.43835260  1
  Pb  Pb5  1  0.19321858  0.10018276  0.06164740  1
  O  O0  1  0.26100239  0.42372732  0.06183609  1
  O  O1  1  0.57627268  0.73899761  0.43816391  1
  O  O2  1  0.73899761  0.57627268  0.93816391  1
  O  O3  1  0.42372732  0.26100239  0.56183609  1
  O  O4  1  0.51462994  0.82945227  0.15673135  1
  O  O5  1  0.17054773  0.48537006  0.34326865  1
  O  O6  1  0.48537006  0.17054773  0.84326865  1
  O  O7  1  0.82945227  0.51462994  0.65673135  1
  O  O8  1  0.98304320  0.70433672  0.14259715  1
  O  O9  1  0.29566328  0.01695680  0.35740285  1
  O  O10  1  0.01695680  0.29566328  0.85740285  1
  O  O11  1  0.70433672  0.98304320  0.64259715  1
  O  O12  1  0.66674867  0.06286475  0.23794689  1
  O  O13  1  0.93713525  0.33325133  0.26205311  1
  O  O14  1  0.33325133  0.93713525  0.76205311  1
  O  O15  1  0.06286475  0.66674867  0.73794689  1
loop_
_geom_bond_atom_site_label_1
_geom_bond_atom_site_label_2
_geom_bond_distance
_geom_bond_site_symmetry_2
O0 P0 1.547408 1_555
O0 Pb5 2.422369 1_555
O0 Pb1 2.630929 1_554
O1 P1 1.547408 1_555
O1 Pb4 2.422369 1_555
O1 Pb1 2.630929 1_555
O2 P2 1.547408 1_555
O2 Pb3 2.422369 1_555
O2 Pb0 2.630929 1_556
O3 P3 1.547408 1_555
O3 Pb2 2.422369 1_555
O3 Pb0 2.630929 1_555
O4 P1 1.553346 1_555
O4 Pb3 2.378032 1_554
O4 Pb0 2.750431 1_555
O4 Pb5 2.783239 1_565
O5 P0 1.553346 1_555
O5 Pb2 2.378032 1_555
O5 Pb0 2.750431 1_555
O5 Pb4 2.783239 1_455
O6 P3 1.553346 1_555
O6 Pb5 2.378032 1_556
O6 Pb1 2.750431 1_555
O6 Pb3 2.783239 1_545
O7 P2 1.553346 1_555
O7 Pb4 2.378032 1_555
O7 Pb1 2.750431 1_555
O7 Pb2 2.783239 1_655
O8 P0 1.529915 1_655
O8 Pb3 2.412240 1_554
O8 Pb4 2.790050 1_555
O9 P1 1.529915 1_545
O9 Pb2 2.412240 1_555
O9 Pb5 2.790050 1_555
O10 P2 1.529915 1_455
O10 Pb5 2.412240 1_556
O10 Pb2 2.790050 1_555
O11 P3 1.529915 1_565
O11 Pb4 2.412240 1_555
O11 Pb3 2.790050 1_555
O12 P1 1.546212 1_545
O12 Pb0 2.443541 1_555
O12 Pb4 2.761901 1_545
O13 P0 1.546212 1_655
O13 Pb0 2.443541 1_555
O13 Pb5 2.761901 1_655
O14 P3 1.546212 1_565
O14 Pb1 2.443541 1_555
O14 Pb2 2.761901 1_565
O15 P2 1.546212 1_455
O15 Pb1 2.443541 1_555
O15 Pb3 2.761901 1_455
