# generated using pymatgen
data_Li2Mn2NiO6
_symmetry_space_group_name_H-M   'P 1'
_cell_length_a   5.05360104
_cell_length_b   5.06033233
_cell_length_c   10.26233508
_cell_angle_alpha   90.00724128
_cell_angle_beta   90.01456488
_cell_angle_gamma   60.04363531
_symmetry_Int_Tables_number   1
_chemical_formula_structural   Li2Mn2NiO6
_chemical_formula_sum   'Li4 Mn4 Ni2 O12'
_cell_volume   227.37755487
_cell_formula_units_Z   2
loop_
 _symmetry_equiv_pos_site_id
 _symmetry_equiv_pos_as_xyz
  1  'x, y, z'
loop_
 _atom_site_type_symbol
 _atom_site_label
 _atom_site_symmetry_multiplicity
 _atom_site_fract_x
 _atom_site_fract_y
 _atom_site_fract_z
 _atom_site_occupancy
  Li  Li0  1  0.66988800  0.50000100  0.25002700  1
  Li  Li1  1  0.33011200  0.49999800  0.74997300  1
  Li  Li2  1  0.83011100  0.50000100  0.74997300  1
  Li  Li3  1  0.16988900  0.49999900  0.25002700  1
  Mn  Mn0  1  0.83687800  0.32624900  0.50000000  1
  Mn  Mn1  1  0.16312300  0.67375200  0.50000100  1
  Mn  Mn2  1  0.33686400  0.32627800  0.00000000  1
  Mn  Mn3  1  0.66313900  0.67372000  0.99999900  1
  Ni  Ni0  1  0.49999500  0.00000400  0.50000000  1
  Ni  Ni1  1  0.99999700  0.99999800  0.99999900  1
  O  O0  1  0.14919700  0.00000200  0.40112000  1
  O  O1  1  0.64929100  0.00000000  0.09884000  1
  O  O2  1  0.85080400  0.99999900  0.59888000  1
  O  O3  1  0.35070900  0.99999900  0.90116000  1
  O  O4  1  0.14187200  0.36162800  0.60471900  1
  O  O5  1  0.49650000  0.36162900  0.39528100  1
  O  O6  1  0.00342800  0.63846300  0.89533300  1
  O  O7  1  0.99657200  0.36153700  0.10466800  1
  O  O8  1  0.64189100  0.36153600  0.89533200  1
  O  O9  1  0.35811000  0.63846300  0.10466900  1
  O  O10  1  0.85812900  0.63837200  0.39528000  1
  O  O11  1  0.50350100  0.63837100  0.60471900  1
loop_
_geom_bond_atom_site_label_1
_geom_bond_atom_site_label_2
_geom_bond_distance
_geom_bond_site_symmetry_2
Li0 O5 2.023305 1_555
Li0 O9 2.023664 1_555
Li0 O10 2.069173 1_555
Li0 O7 2.070629 1_555
Li1 O11 2.023311 1_555
Li1 O8 2.023674 1_555
Li1 O4 2.069174 1_555
Li1 O6 2.070636 1_555
Li2 O4 2.023304 1_655
Li2 O6 2.023687 1_655
Li2 O11 2.069169 1_555
Li2 O8 2.070636 1_555
Li3 O10 2.023294 1_455
Li3 O7 2.023680 1_455
Li3 O5 2.069172 1_555
Li3 O9 2.070629 1_555
Mn0 O0 1.909056 1_655
Mn0 O2 1.909079 1_545
Mn0 O11 1.957284 1_555
Mn0 O10 1.957291 1_555
Mn0 O4 1.958902 1_655
Mn0 O5 1.958919 1_555
Mn1 O2 1.909051 1_455
Mn1 O0 1.909085 1_565
Mn1 O4 1.957284 1_555
Mn1 O5 1.957292 1_555
Mn1 O11 1.958912 1_555
Mn1 O10 1.958916 1_455
Mn2 O1 1.908920 1_555
Mn2 O3 1.908944 1_544
Mn2 O6 1.956997 1_554
Mn2 O9 1.957005 1_555
Mn2 O8 1.958912 1_554
Mn2 O7 1.958938 1_455
Mn3 O3 1.908923 1_555
Mn3 O1 1.908948 1_566
Mn3 O8 1.956994 1_555
Mn3 O7 1.956997 1_556
Mn3 O6 1.958918 1_655
Mn3 O9 1.958929 1_556
Ni0 O0 2.042448 1_555
Ni0 O2 2.042481 1_545
Ni0 O4 2.114711 1_555
Ni0 O5 2.114736 1_555
Ni0 O11 2.114747 1_545
Ni0 O10 2.114758 1_545
Ni1 O1 2.042285 1_566
Ni1 O3 2.042308 1_655
Ni1 O6 2.113974 1_655
Ni1 O8 2.113981 1_565
Ni1 O9 2.114005 1_656
Ni1 O7 2.114020 1_566
