# generated using pymatgen
data_BaTcO3
_symmetry_space_group_name_H-M   'P 1'
_cell_length_a   5.79887858
_cell_length_b   5.79887860
_cell_length_c   13.95118365
_cell_angle_alpha   89.99995685
_cell_angle_beta   90.00004413
_cell_angle_gamma   119.99994660
_symmetry_Int_Tables_number   1
_chemical_formula_structural   BaTcO3
_chemical_formula_sum   'Ba6 Tc6 O18'
_cell_volume   406.28421878
_cell_formula_units_Z   6
loop_
 _symmetry_equiv_pos_site_id
 _symmetry_equiv_pos_as_xyz
  1  'x, y, z'
loop_
 _atom_site_type_symbol
 _atom_site_label
 _atom_site_symmetry_multiplicity
 _atom_site_fract_x
 _atom_site_fract_y
 _atom_site_fract_z
 _atom_site_occupancy
  Ba  Ba0  1  0.66666670  0.33333333  0.59114208  1
  Ba  Ba1  1  0.33333329  0.66666658  0.40884737  1
  Ba  Ba2  1  0.66666641  0.33333312  0.90889907  1
  Ba  Ba3  1  0.00000005  -0.00000012  0.24996266  1
  Ba  Ba4  1  0.33333331  0.66666672  0.09111379  1
  Ba  Ba5  1  -0.00000016  0.00000014  0.75003674  1
  Tc  Tc0  1  0.33333319  0.66666660  0.66217157  1
  Tc  Tc1  1  0.66666670  0.33333354  0.16211582  1
  Tc  Tc2  1  0.33333316  0.66666659  0.83788589  1
  Tc  Tc3  1  0.66666673  0.33333345  0.33782585  1
  Tc  Tc4  1  0.00000005  0.00000004  0.49999799  1
  Tc  Tc5  1  -0.00000017  -0.00000005  0.00000180  1
  O  O0  1  0.83427555  0.16572551  0.41814439  1
  O  O1  1  0.83428088  0.66856328  0.08181399  1
  O  O2  1  0.66854163  0.83427017  0.58184551  1
  O  O3  1  0.83428022  0.16572092  0.08181243  1
  O  O4  1  0.16572442  0.33144940  0.91819694  1
  O  O5  1  0.83427441  0.66855035  0.41814418  1
  O  O6  1  0.50742307  0.49257607  0.24995879  1
  O  O7  1  0.33144971  0.16572457  0.41814418  1
  O  O8  1  0.16572522  0.83427561  0.91819719  1
  O  O9  1  0.50742406  0.01484713  0.24995879  1
  O  O10  1  0.16572999  0.83427104  0.58184524  1
  O  O11  1  0.49257584  0.98515131  0.75004085  1
  O  O12  1  0.01484862  0.50742494  0.75004083  1
  O  O13  1  0.49257514  0.50742404  0.75004082  1
  O  O14  1  0.16572880  0.33145841  0.58184551  1
  O  O15  1  0.66855053  0.83427453  0.91819696  1
  O  O16  1  0.98515294  0.49257680  0.24995878  1
  O  O17  1  0.33143671  0.16571799  0.08181398  1
loop_
_geom_bond_atom_site_label_1
_geom_bond_atom_site_label_2
_geom_bond_distance
_geom_bond_site_symmetry_2
Ba0 O12 2.823434 1_655
Ba0 O11 2.823435 1_545
Ba0 O13 2.823436 1_555
Ba0 O2 2.902350 1_555
Ba0 O14 2.902351 1_655
Ba0 O10 2.902354 1_545
Ba0 O14 2.902356 1_555
Ba0 O2 2.902358 1_545
Ba0 O10 2.902359 1_655
Ba0 O0 2.942635 1_555
Ba0 O7 2.942637 1_555
Ba0 O5 2.942637 1_555
Ba1 O16 2.823318 1_455
Ba1 O9 2.823319 1_565
Ba1 O6 2.823319 1_555
Ba1 O5 2.902350 1_555
Ba1 O7 2.902353 1_565
Ba1 O0 2.902353 1_455
Ba1 O7 2.902355 1_555
Ba1 O5 2.902359 1_455
Ba1 O0 2.902360 1_565
Ba1 O10 2.942612 1_555
Ba1 O14 2.942615 1_555
Ba1 O2 2.942615 1_555
Ba2 O13 2.822990 1_555
Ba2 O11 2.822991 1_545
Ba2 O12 2.822993 1_655
Ba2 O15 2.902351 1_555
Ba2 O8 2.902354 1_545
Ba2 O4 2.902354 1_655
Ba2 O4 2.902356 1_555
Ba2 O15 2.902359 1_545
Ba2 O8 2.902361 1_655
Ba2 O3 2.941695 1_556
Ba2 O17 2.941726 1_556
Ba2 O1 2.941727 1_556
Ba3 O1 2.876382 1_445
Ba3 O17 2.876383 1_555
Ba3 O3 2.876410 1_455
Ba3 O5 2.876793 1_445
Ba3 O7 2.876793 1_555
Ba3 O0 2.876798 1_455
Ba3 O16 2.900395 1_445
Ba3 O9 2.900396 1_455
Ba3 O6 2.900398 1_555
Ba3 O9 2.900400 1_555
Ba3 O16 2.900401 1_455
Ba3 O6 2.900402 1_445
Ba4 O6 2.822840 1_555
Ba4 O16 2.822842 1_455
Ba4 O9 2.822842 1_565
Ba4 O1 2.902352 1_555
Ba4 O17 2.902354 1_565
Ba4 O3 2.902356 1_455
Ba4 O17 2.902359 1_555
Ba4 O1 2.902360 1_455
Ba4 O3 2.902363 1_565
Ba4 O8 2.941706 1_554
Ba4 O15 2.941712 1_554
Ba4 O4 2.941712 1_554
Ba5 O4 2.876550 1_555
Ba5 O15 2.876551 1_445
Ba5 O8 2.876553 1_545
Ba5 O2 2.876928 1_445
Ba5 O14 2.876928 1_555
Ba5 O10 2.876935 1_545
Ba5 O12 2.900396 1_545
Ba5 O11 2.900396 1_445
Ba5 O13 2.900398 1_555
Ba5 O11 2.900400 1_545
Ba5 O12 2.900401 1_555
Ba5 O13 2.900403 1_445
O0 Tc4 2.018596 1_655
O0 Tc3 2.022278 1_555
O1 Tc5 2.018215 1_665
O1 Tc1 2.022205 1_555
O2 Tc4 2.018585 1_665
O2 Tc0 2.022304 1_555
O3 Tc5 2.018219 1_655
O3 Tc1 2.022202 1_555
O4 Tc5 2.018210 1_556
O4 Tc2 2.022223 1_555
O5 Tc4 2.018598 1_665
O5 Tc3 2.022279 1_555
O6 Tc1 2.014959 1_555
O6 Tc3 2.015163 1_555
O7 Tc4 2.018598 1_555
O7 Tc3 2.022280 1_555
O8 Tc5 2.018210 1_566
O8 Tc2 2.022224 1_555
O9 Tc1 2.014960 1_555
O9 Tc3 2.015165 1_555
O10 Tc4 2.018583 1_565
O10 Tc0 2.022300 1_555
O11 Tc2 2.014971 1_555
O11 Tc0 2.015177 1_555
O12 Tc2 2.014970 1_555
O12 Tc0 2.015177 1_555
O13 Tc2 2.014971 1_555
O13 Tc0 2.015174 1_555
O14 Tc4 2.018585 1_555
O14 Tc0 2.022303 1_555
O15 Tc5 2.018210 1_666
O15 Tc2 2.022224 1_555
O16 Tc1 2.014959 1_555
O16 Tc3 2.015165 1_555
O17 Tc5 2.018216 1_555
O17 Tc1 2.022206 1_555
