# generated using pymatgen
data_Ba3Zn5In2O11
_symmetry_space_group_name_H-M   'P 1'
_cell_length_a   9.59234755
_cell_length_b   9.59234755
_cell_length_c   9.59234755
_cell_angle_alpha   60.00000000
_cell_angle_beta   60.00000000
_cell_angle_gamma   60.00000000
_symmetry_Int_Tables_number   1
_chemical_formula_structural   Ba3Zn5In2O11
_chemical_formula_sum   'Ba6 Zn10 In4 O22'
_cell_volume   624.10795664
_cell_formula_units_Z   2
loop_
 _symmetry_equiv_pos_site_id
 _symmetry_equiv_pos_as_xyz
  1  'x, y, z'
loop_
 _atom_site_type_symbol
 _atom_site_label
 _atom_site_symmetry_multiplicity
 _atom_site_fract_x
 _atom_site_fract_y
 _atom_site_fract_z
 _atom_site_occupancy
  Ba  Ba0  1  0.95677500  0.54322500  0.54322500  1
  Ba  Ba1  1  0.95677500  0.54322500  0.95677500  1
  Ba  Ba2  1  0.54322500  0.54322500  0.95677500  1
  Ba  Ba3  1  0.54322500  0.95677500  0.95677500  1
  Ba  Ba4  1  0.95677500  0.95677500  0.54322500  1
  Ba  Ba5  1  0.54322500  0.95677500  0.54322500  1
  Zn  Zn0  1  0.16699800  0.49900500  0.16699800  1
  Zn  Zn1  1  0.16699800  0.16699800  0.16699800  1
  Zn  Zn2  1  0.16699800  0.16699800  0.49900500  1
  Zn  Zn3  1  0.83164100  0.16835900  0.16835900  1
  Zn  Zn4  1  0.16835900  0.83164100  0.83164100  1
  Zn  Zn5  1  0.16835900  0.16835900  0.83164100  1
  Zn  Zn6  1  0.83164100  0.16835900  0.83164100  1
  Zn  Zn7  1  0.49900500  0.16699800  0.16699800  1
  Zn  Zn8  1  0.16835900  0.83164100  0.16835900  1
  Zn  Zn9  1  0.83164100  0.83164100  0.16835900  1
  In  In0  1  0.41532600  0.75402300  0.41532600  1
  In  In1  1  0.41532600  0.41532600  0.75402300  1
  In  In2  1  0.41532600  0.41532600  0.41532600  1
  In  In3  1  0.75402300  0.41532600  0.41532600  1
  O  O0  1  0.90808200  0.90808200  0.90808200  1
  O  O1  1  0.25250300  0.25250300  0.91639500  1
  O  O2  1  0.90808200  0.27575500  0.90808200  1
  O  O3  1  0.91639500  0.25250300  0.57859900  1
  O  O4  1  0.91639500  0.57859900  0.25250300  1
  O  O5  1  0.57859900  0.91639500  0.25250300  1
  O  O6  1  0.58134000  0.25598100  0.58134000  1
  O  O7  1  0.25250300  0.91639500  0.57859900  1
  O  O8  1  0.27575500  0.90808200  0.90808200  1
  O  O9  1  0.25250300  0.25250300  0.57859900  1
  O  O10  1  0.25250300  0.57859900  0.25250300  1
  O  O11  1  0.75000000  0.75000000  0.75000000  1
  O  O12  1  0.57859900  0.25250300  0.25250300  1
  O  O13  1  0.58134000  0.58134000  0.58134000  1
  O  O14  1  0.58134000  0.58134000  0.25598100  1
  O  O15  1  0.90808200  0.90808200  0.27575500  1
  O  O16  1  0.25250300  0.91639500  0.25250300  1
  O  O17  1  0.91639500  0.25250300  0.25250300  1
  O  O18  1  0.25000000  0.25000000  0.25000000  1
  O  O19  1  0.25250300  0.57859900  0.91639500  1
  O  O20  1  0.57859900  0.25250300  0.91639500  1
  O  O21  1  0.25598100  0.58134000  0.58134000  1
loop_
_geom_bond_atom_site_label_1
_geom_bond_atom_site_label_2
_geom_bond_distance
_geom_bond_site_symmetry_2
Ba0 O11 2.805033 1_555
Ba0 O9 2.836289 1_655
Ba0 O10 2.836289 1_655
Ba0 O4 2.836289 1_555
Ba0 O3 2.836289 1_555
Ba0 O2 3.103854 1_555
Ba0 O15 3.103854 1_555
Ba0 O13 3.276742 1_555
Ba0 O21 3.276752 1_655
Ba1 O11 2.805033 1_555
Ba1 O19 2.836289 1_655
Ba1 O4 2.836289 1_556
Ba1 O1 2.836289 1_655
Ba1 O17 2.836289 1_556
Ba1 O2 3.103848 1_555
Ba1 O0 3.103857 1_555
Ba1 O14 3.276746 1_556
Ba1 O21 3.276746 1_655
Ba2 O11 2.805033 1_555
Ba2 O12 2.836289 1_556
Ba2 O10 2.836289 1_556
Ba2 O19 2.836289 1_555
Ba2 O20 2.836289 1_555
Ba2 O2 3.103854 1_555
Ba2 O8 3.103854 1_555
Ba2 O13 3.276742 1_555
Ba2 O14 3.276752 1_556
Ba3 O11 2.805033 1_555
Ba3 O20 2.836289 1_565
Ba3 O5 2.836289 1_556
Ba3 O1 2.836289 1_565
Ba3 O16 2.836289 1_556
Ba3 O8 3.103848 1_555
Ba3 O0 3.103857 1_555
Ba3 O6 3.276746 1_565
Ba3 O14 3.276746 1_556
Ba4 O11 2.805033 1_555
Ba4 O7 2.836289 1_655
Ba4 O3 2.836289 1_565
Ba4 O16 2.836289 1_655
Ba4 O17 2.836289 1_565
Ba4 O15 3.103848 1_555
Ba4 O0 3.103857 1_555
Ba4 O6 3.276746 1_565
Ba4 O21 3.276746 1_655
Ba5 O11 2.805033 1_555
Ba5 O9 2.836289 1_565
Ba5 O12 2.836289 1_565
Ba5 O7 2.836289 1_555
Ba5 O5 2.836289 1_555
Ba5 O15 3.103854 1_555
Ba5 O8 3.103854 1_555
Ba5 O13 3.276742 1_555
Ba5 O6 3.276752 1_565
In0 O5 2.208794 1_555
In0 O7 2.208794 1_555
In0 O16 2.208800 1_555
In0 O21 2.252993 1_555
In0 O13 2.252993 1_555
In0 O14 2.252993 1_555
In1 O19 2.208794 1_555
In1 O20 2.208794 1_555
In1 O1 2.208800 1_555
In1 O21 2.252993 1_555
In1 O6 2.252993 1_555
In1 O13 2.252993 1_555
In2 O9 2.208800 1_555
In2 O12 2.208800 1_555
In2 O10 2.208800 1_555
In2 O14 2.252993 1_555
In2 O21 2.252993 1_555
In2 O6 2.252993 1_555
In3 O3 2.208794 1_555
In3 O4 2.208794 1_555
In3 O17 2.208800 1_555
In3 O6 2.252993 1_555
In3 O13 2.252993 1_555
In3 O14 2.252993 1_555
O0 Zn4 2.045716 1_655
O0 Zn9 2.045716 1_556
O0 Zn6 2.045716 1_565
O1 Zn1 1.963026 1_556
O1 Zn5 1.981858 1_555
O2 Zn5 2.045716 1_655
O2 Zn3 2.045716 1_556
O2 Zn6 2.045724 1_555
O3 Zn2 1.963025 1_655
O3 Zn6 1.981858 1_555
O4 Zn0 1.963025 1_655
O4 Zn9 1.981858 1_555
O5 Zn7 1.963025 1_565
O5 Zn9 1.981858 1_555
O7 Zn2 1.963025 1_565
O7 Zn4 1.981858 1_555
O8 Zn8 2.045716 1_556
O8 Zn5 2.045716 1_565
O8 Zn4 2.045724 1_555
O9 Zn2 1.963033 1_555
O9 Zn5 1.981858 1_555
O10 Zn0 1.963033 1_555
O10 Zn8 1.981858 1_555
O12 Zn7 1.963033 1_555
O12 Zn3 1.981858 1_555
O15 Zn8 2.045716 1_655
O15 Zn3 2.045716 1_565
O15 Zn9 2.045724 1_555
O16 Zn1 1.963026 1_565
O16 Zn8 1.981858 1_555
O17 Zn1 1.963026 1_655
O17 Zn3 1.981858 1_555
O18 Zn2 1.950237 1_555
O18 Zn0 1.950237 1_555
O18 Zn7 1.950237 1_555
O18 Zn1 1.950245 1_555
O19 Zn0 1.963025 1_556
O19 Zn4 1.981858 1_555
O20 Zn7 1.963025 1_556
O20 Zn6 1.981858 1_555
