# generated using pymatgen
data_BaZr4(PO4)6
_symmetry_space_group_name_H-M   'P 1'
_cell_length_a   9.53511478
_cell_length_b   9.53511478
_cell_length_c   9.53511512
_cell_angle_alpha   55.32269973
_cell_angle_beta   55.32269973
_cell_angle_gamma   55.32269577
_symmetry_Int_Tables_number   1
_chemical_formula_structural   BaZr4(PO4)6
_chemical_formula_sum   'Ba1 Zr4 P6 O24'
_cell_volume   546.38163896
_cell_formula_units_Z   1
loop_
 _symmetry_equiv_pos_site_id
 _symmetry_equiv_pos_as_xyz
  1  'x, y, z'
loop_
 _atom_site_type_symbol
 _atom_site_label
 _atom_site_symmetry_multiplicity
 _atom_site_fract_x
 _atom_site_fract_y
 _atom_site_fract_z
 _atom_site_occupancy
  Ba  Ba0  1  0.00000000  0.00000000  0.00000000  1
  Zr  Zr0  1  0.35448100  0.35448100  0.35448100  1
  Zr  Zr1  1  0.64551900  0.64551900  0.64551900  1
  Zr  Zr2  1  0.15101100  0.15101100  0.15101100  1
  Zr  Zr3  1  0.84898900  0.84898900  0.84898900  1
  P  P0  1  0.75311700  0.03206000  0.45981300  1
  P  P1  1  0.24688300  0.96794000  0.54018700  1
  P  P2  1  0.03206000  0.45981300  0.75311700  1
  P  P3  1  0.96794000  0.54018700  0.24688300  1
  P  P4  1  0.45981300  0.75311700  0.03206000  1
  P  P5  1  0.54018700  0.24688300  0.96794000  1
  O  O0  1  0.51957400  0.24295800  0.14289700  1
  O  O1  1  0.85710300  0.48042600  0.75704200  1
  O  O2  1  0.37969500  0.21788000  0.99900600  1
  O  O3  1  0.62030500  0.78212000  0.00099400  1
  O  O4  1  0.08426500  0.27989500  0.91251700  1
  O  O5  1  0.24295800  0.14289700  0.51957400  1
  O  O6  1  0.78212000  0.00099400  0.62030500  1
  O  O7  1  0.27989500  0.91251700  0.08426500  1
  O  O8  1  0.55225200  0.43015200  0.81093900  1
  O  O9  1  0.91573500  0.72010500  0.08748300  1
  O  O10  1  0.91251700  0.08426500  0.27989500  1
  O  O11  1  0.72010500  0.08748300  0.91573500  1
  O  O12  1  0.44774800  0.56984800  0.18906100  1
  O  O13  1  0.81093900  0.55225200  0.43015200  1
  O  O14  1  0.08748300  0.91573500  0.72010500  1
  O  O15  1  0.00099400  0.62030500  0.78212000  1
  O  O16  1  0.99900600  0.37969500  0.21788000  1
  O  O17  1  0.56984800  0.18906100  0.44774800  1
  O  O18  1  0.14289700  0.51957400  0.24295800  1
  O  O19  1  0.75704200  0.85710300  0.48042600  1
  O  O20  1  0.21788000  0.99900600  0.37969500  1
  O  O21  1  0.48042600  0.75704200  0.85710300  1
  O  O22  1  0.43015200  0.81093900  0.55225200  1
  O  O23  1  0.18906100  0.44774800  0.56984800  1
loop_
_geom_bond_atom_site_label_1
_geom_bond_atom_site_label_2
_geom_bond_distance
_geom_bond_site_symmetry_2
Ba0 O11 2.758299 1_454
Ba0 O7 2.758299 1_545
Ba0 O9 2.758299 1_445
Ba0 O4 2.758299 1_554
Ba0 O14 2.758299 1_544
Ba0 O10 2.758299 1_455
O0 P5 1.545076 1_554
O0 Zr0 2.145134 1_555
O1 P2 1.545076 1_655
O1 Zr1 2.145134 1_555
O2 P5 1.542272 1_555
O2 Zr2 2.048452 1_556
O3 P4 1.542272 1_555
O3 Zr3 2.048452 1_554
O4 P2 1.556631 1_555
O4 Zr2 2.159517 1_556
O5 P1 1.545076 1_545
O5 Zr0 2.145134 1_555
O6 P0 1.542272 1_555
O6 Zr3 2.048452 1_545
O7 P4 1.556631 1_555
O7 Zr2 2.159517 1_565
O8 P5 1.537537 1_555
O8 Zr1 2.071715 1_555
O9 P3 1.556631 1_555
O9 Zr3 2.159517 1_554
O10 P0 1.556631 1_555
O10 Zr2 2.159517 1_655
O11 P5 1.556631 1_555
O11 Zr3 2.159517 1_545
O12 P4 1.537537 1_555
O12 Zr0 2.071715 1_555
O13 P3 1.537537 1_555
O13 Zr1 2.071715 1_555
O14 P1 1.556631 1_555
O14 Zr3 2.159517 1_455
O15 P2 1.542272 1_555
O15 Zr3 2.048452 1_455
O16 P3 1.542272 1_555
O16 Zr2 2.048452 1_655
O17 P0 1.537537 1_555
O17 Zr0 2.071715 1_555
O18 P3 1.545076 1_455
O18 Zr0 2.145134 1_555
O19 P0 1.545076 1_565
O19 Zr1 2.145134 1_555
O20 P1 1.542272 1_555
O20 Zr2 2.048452 1_565
O21 P4 1.545076 1_556
O21 Zr1 2.145134 1_555
O22 P1 1.537537 1_555
O22 Zr1 2.071715 1_555
O23 P2 1.537537 1_555
O23 Zr0 2.071715 1_555
