# generated using pymatgen
data_SiO2
_symmetry_space_group_name_H-M   'P 1'
_cell_length_a   5.23380392
_cell_length_b   11.32811166
_cell_length_c   21.92522312
_cell_angle_alpha   90.00000000
_cell_angle_beta   90.00000000
_cell_angle_gamma   90.00000000
_symmetry_Int_Tables_number   1
_chemical_formula_structural   SiO2
_chemical_formula_sum   'Si24 O48'
_cell_volume   1299.92707962
_cell_formula_units_Z   24
loop_
 _symmetry_equiv_pos_site_id
 _symmetry_equiv_pos_as_xyz
  1  'x, y, z'
loop_
 _atom_site_type_symbol
 _atom_site_label
 _atom_site_symmetry_multiplicity
 _atom_site_fract_x
 _atom_site_fract_y
 _atom_site_fract_z
 _atom_site_occupancy
  Si  Si0  1  0.25000000  0.72463306  0.07743584  1
  Si  Si1  1  0.25000000  0.40090472  0.62207274  1
  Si  Si2  1  0.75000000  0.00990857  0.54211084  1
  Si  Si3  1  0.25000000  0.72463306  0.42256416  1
  Si  Si4  1  0.75000000  0.77326383  0.88272324  1
  Si  Si5  1  0.75000000  0.27536694  0.57743584  1
  Si  Si6  1  0.25000000  0.64816335  0.56319852  1
  Si  Si7  1  0.75000000  0.46670772  0.25000000  1
  Si  Si8  1  0.25000000  0.99009143  0.45788916  1
  Si  Si9  1  0.75000000  0.35183665  0.06319852  1
  Si  Si10  1  0.25000000  0.22673617  0.11727676  1
  Si  Si11  1  0.75000000  0.59909528  0.12207274  1
  Si  Si12  1  0.25000000  0.53329228  0.75000000  1
  Si  Si13  1  0.25000000  0.64816335  0.93680148  1
  Si  Si14  1  0.75000000  0.27536694  0.92256416  1
  Si  Si15  1  0.25000000  0.22673617  0.38272324  1
  Si  Si16  1  0.75000000  0.77326383  0.61727676  1
  Si  Si17  1  0.75000000  0.69695814  0.75000000  1
  Si  Si18  1  0.75000000  0.59909528  0.37792726  1
  Si  Si19  1  0.75000000  0.00990857  0.95788916  1
  Si  Si20  1  0.75000000  0.35183665  0.43680148  1
  Si  Si21  1  0.25000000  0.40090472  0.87792726  1
  Si  Si22  1  0.25000000  0.30304186  0.25000000  1
  Si  Si23  1  0.25000000  0.99009143  0.04211084  1
  O  O0  1  0.00021517  0.38512328  0.25000000  1
  O  O1  1  0.49986794  0.32097966  0.61250663  1
  O  O2  1  0.50013206  0.67902034  0.38749337  1
  O  O3  1  0.50000000  0.00000000  0.00000000  1
  O  O4  1  0.75000000  0.49294453  0.07267697  1
  O  O5  1  0.50032760  0.70338922  0.90548688  1
  O  O6  1  0.00013206  0.32097966  0.61250663  1
  O  O7  1  0.75000000  0.32386170  0.99157203  1
  O  O8  1  0.25000000  0.67613830  0.00842797  1
  O  O9  1  0.99986794  0.67902034  0.38749337  1
  O  O10  1  0.25000000  0.21962350  0.19058794  1
  O  O11  1  0.25000000  0.45136909  0.80960933  1
  O  O12  1  0.25000000  0.67613830  0.49157203  1
  O  O13  1  0.25000000  0.50705547  0.92732303  1
  O  O14  1  0.49967240  0.29661078  0.40548688  1
  O  O15  1  0.75000000  0.13347813  0.92207673  1
  O  O16  1  0.99978483  0.61487672  0.75000000  1
  O  O17  1  0.75000000  0.54863091  0.19039067  1
  O  O18  1  0.49967240  0.29661078  0.09451312  1
  O  O19  1  0.75000000  0.78037650  0.80941206  1
  O  O20  1  -0.00032760  0.70338922  0.59451312  1
  O  O21  1  0.49986794  0.32097966  0.88749337  1
  O  O22  1  -0.00032760  0.70338922  0.90548688  1
  O  O23  1  0.75000000  0.49294453  0.42732303  1
  O  O24  1  0.75000000  0.78037650  0.69058794  1
  O  O25  1  0.75000000  0.90558757  0.59153189  1
  O  O26  1  0.75000000  0.54863091  0.30960933  1
  O  O27  1  0.25000000  0.45136909  0.69039067  1
  O  O28  1  0.75000000  0.90558757  0.90846811  1
  O  O29  1  0.75000000  0.13347813  0.57792327  1
  O  O30  1  0.50021517  0.61487672  0.75000000  1
  O  O31  1  0.25000000  0.86652187  0.07792327  1
  O  O32  1  0.25000000  0.50705547  0.57267697  1
  O  O33  1  0.50013206  0.67902034  0.11250663  1
  O  O34  1  0.75000000  0.32386170  0.50842797  1
  O  O35  1  0.25000000  0.09441243  0.09153189  1
  O  O36  1  0.25000000  0.86652187  0.42207673  1
  O  O37  1  0.00013206  0.32097966  0.88749337  1
  O  O38  1  0.50032760  0.70338922  0.59451312  1
  O  O39  1  0.49978483  0.38512328  0.25000000  1
  O  O40  1  0.25000000  0.21962350  0.30941206  1
  O  O41  1  0.99986794  0.67902034  0.11250663  1
  O  O42  1  0.50000000  0.00000000  0.50000000  1
  O  O43  1  0.25000000  0.09441243  0.40846811  1
  O  O44  1  0.00032760  0.29661078  0.40548688  1
  O  O45  1  0.00032760  0.29661078  0.09451312  1
  O  O46  1  -0.00000000  0.00000000  0.00000000  1
  O  O47  1  -0.00000000  0.00000000  0.50000000  1
loop_
_geom_bond_atom_site_label_1
_geom_bond_atom_site_label_2
_geom_bond_distance
_geom_bond_site_symmetry_2
O0 Si7 1.602852 1_455
O0 Si22 1.604268 1_555
O1 Si5 1.603777 1_555
O1 Si1 1.604361 1_555
O2 Si3 1.603777 1_555
O2 Si18 1.604361 1_555
O3 Si19 1.605337 1_554
O3 Si23 1.605337 1_545
O4 Si9 1.611938 1_555
O4 Si11 1.618300 1_555
O5 Si13 1.606022 1_555
O5 Si4 1.607235 1_555
O6 Si5 1.603777 1_455
O6 Si1 1.604361 1_555
O7 Si9 1.602082 1_556
O7 Si14 1.609658 1_555
O8 Si13 1.602082 1_554
O8 Si0 1.609658 1_555
O9 Si3 1.603777 1_655
O9 Si18 1.604361 1_555
O10 Si22 1.609285 1_555
O10 Si10 1.609382 1_555
O11 Si12 1.602923 1_555
O11 Si21 1.603267 1_555
O12 Si6 1.602082 1_555
O12 Si3 1.609658 1_555
O13 Si13 1.611938 1_555
O13 Si21 1.618300 1_555
O14 Si20 1.606022 1_555
O14 Si15 1.607235 1_555
O15 Si19 1.604992 1_555
O15 Si14 1.607368 1_555
O16 Si12 1.602852 1_655
O16 Si17 1.604268 1_555
O17 Si7 1.602923 1_555
O17 Si11 1.603267 1_555
O18 Si9 1.606022 1_555
O18 Si10 1.607235 1_555
O19 Si17 1.609285 1_555
O19 Si4 1.609382 1_555
O20 Si6 1.606022 1_555
O20 Si16 1.607235 1_455
O21 Si14 1.603777 1_555
O21 Si21 1.604361 1_555
O22 Si13 1.606022 1_555
O22 Si4 1.607235 1_455
O23 Si20 1.611938 1_555
O23 Si18 1.618300 1_555
O24 Si17 1.609285 1_555
O24 Si16 1.609382 1_555
O25 Si16 1.601734 1_555
O25 Si2 1.603333 1_565
O26 Si7 1.602923 1_555
O26 Si18 1.603267 1_555
O27 Si12 1.602923 1_555
O27 Si1 1.603267 1_555
O28 Si4 1.601734 1_555
O28 Si19 1.603333 1_565
O29 Si2 1.604992 1_555
O29 Si5 1.607368 1_555
O30 Si12 1.602852 1_555
O30 Si17 1.604268 1_555
O31 Si23 1.604992 1_555
O31 Si0 1.607368 1_555
O32 Si6 1.611938 1_555
O32 Si1 1.618300 1_555
O33 Si0 1.603777 1_555
O33 Si11 1.604361 1_555
O34 Si20 1.602082 1_555
O34 Si5 1.609658 1_555
O35 Si10 1.601734 1_555
O35 Si23 1.603333 1_545
O36 Si8 1.604992 1_555
O36 Si3 1.607368 1_555
O37 Si14 1.603777 1_455
O37 Si21 1.604361 1_555
O38 Si6 1.606022 1_555
O38 Si16 1.607235 1_555
O39 Si7 1.602852 1_555
O39 Si22 1.604268 1_555
O40 Si22 1.609285 1_555
O40 Si15 1.609382 1_555
O41 Si0 1.603777 1_655
O41 Si11 1.604361 1_555
O42 Si8 1.605337 1_545
O42 Si2 1.605337 1_555
O43 Si15 1.601734 1_555
O43 Si8 1.603333 1_545
O44 Si20 1.606022 1_455
O44 Si15 1.607235 1_555
O45 Si9 1.606022 1_455
O45 Si10 1.607235 1_555
O46 Si19 1.605337 1_454
O46 Si23 1.605337 1_545
O47 Si2 1.605337 1_455
O47 Si8 1.605337 1_545
