# generated using pymatgen
data_Rb4TmI6
_symmetry_space_group_name_H-M   'P 1'
_cell_length_a   10.04443087
_cell_length_b   10.04444220
_cell_length_c   10.04444707
_cell_angle_alpha   90.62926966
_cell_angle_beta   90.62914317
_cell_angle_gamma   90.62904260
_symmetry_Int_Tables_number   1
_chemical_formula_structural   Rb4TmI6
_chemical_formula_sum   'Rb8 Tm2 I12'
_cell_volume   1013.20670917
_cell_formula_units_Z   2
loop_
 _symmetry_equiv_pos_site_id
 _symmetry_equiv_pos_as_xyz
  1  'x, y, z'
loop_
 _atom_site_type_symbol
 _atom_site_label
 _atom_site_symmetry_multiplicity
 _atom_site_fract_x
 _atom_site_fract_y
 _atom_site_fract_z
 _atom_site_occupancy
  Rb  Rb0  1  0.87153514  0.25001695  0.62847724  1
  Rb  Rb1  1  0.37152250  0.12846540  0.74998312  1
  Rb  Rb2  1  0.74998295  0.37152274  0.12846482  1
  Rb  Rb3  1  0.12846486  0.74998305  0.37152276  1
  Rb  Rb4  1  0.25001570  0.25001599  0.25001601  1
  Rb  Rb5  1  0.62847750  0.87153460  0.25001688  1
  Rb  Rb6  1  0.25001705  0.62847726  0.87153518  1
  Rb  Rb7  1  0.74998430  0.74998401  0.74998399  1
  Tm  Tm0  1  0.50000000  0.50000000  0.50000000  1
  Tm  Tm1  1  -0.00000000  0.00000000  -0.00000000  1
  I  I0  1  0.70655120  0.05868856  0.93370514  1
  I  I1  1  0.29344880  0.94131144  0.06629486  1
  I  I2  1  0.56687231  0.44156225  0.79333593  1
  I  I3  1  0.06629453  0.29344739  0.94130928  1
  I  I4  1  0.20666304  0.43312570  0.55843768  1
  I  I5  1  0.79333696  0.56687430  0.44156232  1
  I  I6  1  0.05869069  0.93370507  0.70655265  1
  I  I7  1  0.43312769  0.55843775  0.20666407  1
  I  I8  1  0.55843420  0.20666139  0.43312728  1
  I  I9  1  0.44156580  0.79333861  0.56687272  1
  I  I10  1  0.93370547  0.70655261  0.05869072  1
  I  I11  1  0.94130931  0.06629493  0.29344735  1
loop_
_geom_bond_atom_site_label_1
_geom_bond_atom_site_label_2
_geom_bond_distance
_geom_bond_site_symmetry_2
I0 Tm1 3.079367 1_656
I0 Rb7 3.623835 1_545
I0 Rb2 3.702307 1_556
I0 Rb5 3.794315 1_546
I0 Rb1 3.894210 1_555
I0 Rb0 4.001243 1_555
I1 Tm1 3.079367 1_565
I1 Rb4 3.623835 1_565
I1 Rb6 3.702307 1_554
I1 Rb1 3.794315 1_564
I1 Rb5 3.894210 1_555
I1 Rb3 4.001243 1_555
I2 Tm0 3.078986 1_555
I2 Rb7 3.618248 1_555
I2 Rb1 3.707521 1_555
I2 Rb6 3.797980 1_555
I2 Rb2 3.892736 1_556
I2 Rb0 3.997360 1_555
I3 Tm1 3.079363 1_556
I3 Rb4 3.623856 1_556
I3 Rb0 3.702289 1_455
I3 Rb2 3.794316 1_456
I3 Rb6 3.894224 1_555
I3 Rb1 4.001214 1_555
I4 Tm0 3.078996 1_555
I4 Rb4 3.618232 1_555
I4 Rb6 3.707534 1_555
I4 Rb3 3.798004 1_555
I4 Rb0 3.892718 1_455
I4 Rb1 3.997351 1_555
I5 Tm0 3.078996 1_555
I5 Rb7 3.618232 1_555
I5 Rb2 3.707534 1_555
I5 Rb0 3.798004 1_555
I5 Rb3 3.892718 1_655
I5 Rb5 3.997351 1_555
I6 Tm1 3.079361 1_566
I6 Rb7 3.623852 1_455
I6 Rb1 3.702291 1_565
I6 Rb0 3.794321 1_465
I6 Rb3 3.894216 1_555
I6 Rb6 4.001221 1_555
I7 Tm0 3.078986 1_555
I7 Rb4 3.618248 1_555
I7 Rb5 3.707521 1_555
I7 Rb2 3.797980 1_555
I7 Rb6 3.892736 1_554
I7 Rb3 3.997360 1_555
I8 Tm0 3.079000 1_555
I8 Rb4 3.618215 1_555
I8 Rb0 3.707556 1_555
I8 Rb1 3.797970 1_555
I8 Rb5 3.892719 1_545
I8 Rb2 3.997396 1_555
I9 Tm0 3.079000 1_555
I9 Rb7 3.618215 1_555
I9 Rb3 3.707556 1_555
I9 Rb5 3.797970 1_555
I9 Rb1 3.892719 1_565
I9 Rb6 3.997396 1_555
I10 Tm1 3.079363 1_665
I10 Rb7 3.623856 1_554
I10 Rb3 3.702289 1_655
I10 Rb6 3.794316 1_654
I10 Rb2 3.894224 1_555
I10 Rb5 4.001214 1_555
I11 Tm1 3.079361 1_655
I11 Rb4 3.623852 1_655
I11 Rb5 3.702291 1_545
I11 Rb3 3.794321 1_645
I11 Rb0 3.894216 1_555
I11 Rb2 4.001221 1_555
