# generated using pymatgen
data_Li2Ge7O15
_symmetry_space_group_name_H-M   'P 1'
_cell_length_a   7.38836870
_cell_length_b   9.74004404
_cell_length_c   16.78648787
_cell_angle_alpha   90.00000000
_cell_angle_beta   90.00000000
_cell_angle_gamma   90.00000000
_symmetry_Int_Tables_number   1
_chemical_formula_structural   Li2Ge7O15
_chemical_formula_sum   'Li8 Ge28 O60'
_cell_volume   1208.00663966
_cell_formula_units_Z   4
loop_
 _symmetry_equiv_pos_site_id
 _symmetry_equiv_pos_as_xyz
  1  'x, y, z'
loop_
 _atom_site_type_symbol
 _atom_site_label
 _atom_site_symmetry_multiplicity
 _atom_site_fract_x
 _atom_site_fract_y
 _atom_site_fract_z
 _atom_site_occupancy
  Li  Li0  1  0.50000000  0.75000000  0.74046256  1
  Li  Li1  1  0.00000000  0.25000000  0.75953744  1
  Li  Li2  1  0.50000000  0.25000000  0.25953744  1
  Li  Li3  1  0.00000000  0.75000000  0.24046256  1
  Li  Li4  1  0.00000000  0.50000000  0.50000000  1
  Li  Li5  1  0.50000000  0.50000000  0.00000000  1
  Li  Li6  1  0.50000000  -0.00000000  0.00000000  1
  Li  Li7  1  0.00000000  -0.00000000  0.50000000  1
  Ge  Ge0  1  0.71436917  0.02845959  0.65554207  1
  Ge  Ge1  1  0.21436917  0.97154041  0.84445793  1
  Ge  Ge2  1  0.78563083  0.52845959  0.84445793  1
  Ge  Ge3  1  0.28563083  0.47154041  0.65554207  1
  Ge  Ge4  1  0.28563083  0.97154041  0.34445793  1
  Ge  Ge5  1  0.78563083  0.02845959  0.15554207  1
  Ge  Ge6  1  0.21436917  0.47154041  0.15554207  1
  Ge  Ge7  1  0.71436917  0.52845959  0.34445793  1
  Ge  Ge8  1  0.71701621  0.46725577  0.65965065  1
  Ge  Ge9  1  0.21701621  0.53274423  0.84034935  1
  Ge  Ge10  1  0.78298379  0.96725577  0.84034935  1
  Ge  Ge11  1  0.28298379  0.03274423  0.65965065  1
  Ge  Ge12  1  0.28298379  0.53274423  0.34034935  1
  Ge  Ge13  1  0.78298379  0.46725577  0.15965065  1
  Ge  Ge14  1  0.21701621  0.03274423  0.15965065  1
  Ge  Ge15  1  0.71701621  0.96725577  0.34034935  1
  Ge  Ge16  1  0.78543761  0.25107628  0.94113717  1
  Ge  Ge17  1  0.28543761  0.74892372  0.55886283  1
  Ge  Ge18  1  0.71456239  0.75107628  0.55886283  1
  Ge  Ge19  1  0.21456239  0.24892372  0.94113717  1
  Ge  Ge20  1  0.21456239  0.74892372  0.05886283  1
  Ge  Ge21  1  0.71456239  0.25107628  0.44113717  1
  Ge  Ge22  1  0.28543761  0.24892372  0.44113717  1
  Ge  Ge23  1  0.78543761  0.75107628  0.05886283  1
  Ge  Ge24  1  0.50000000  0.75000000  0.91315144  1
  Ge  Ge25  1  0.00000000  0.25000000  0.58684856  1
  Ge  Ge26  1  0.50000000  0.25000000  0.08684856  1
  Ge  Ge27  1  0.00000000  0.75000000  0.41315144  1
  O  O0  1  0.85822371  0.33265870  0.50698622  1
  O  O1  1  0.35822371  0.66734130  0.99301378  1
  O  O2  1  0.64177629  0.83265870  0.99301378  1
  O  O3  1  0.14177629  0.16734130  0.50698622  1
  O  O4  1  0.14177629  0.66734130  0.49301378  1
  O  O5  1  0.64177629  0.33265870  0.00698622  1
  O  O6  1  0.35822371  0.16734130  0.00698622  1
  O  O7  1  0.85822371  0.83265870  0.49301378  1
  O  O8  1  0.85565261  0.09151005  0.58234082  1
  O  O9  1  0.35565261  0.90848995  0.91765918  1
  O  O10  1  0.64434739  0.59151005  0.91765918  1
  O  O11  1  0.14434739  0.40848995  0.58234082  1
  O  O12  1  0.14434739  0.90848995  0.41765918  1
  O  O13  1  0.64434739  0.09151005  0.08234082  1
  O  O14  1  0.35565261  0.40848995  0.08234082  1
  O  O15  1  0.85565261  0.59151005  0.41765918  1
  O  O16  1  0.50116554  0.40408991  0.64056663  1
  O  O17  1  0.00116554  0.59591009  0.85943337  1
  O  O18  1  0.99883446  0.90408991  0.85943337  1
  O  O19  1  0.49883446  0.09591009  0.64056663  1
  O  O20  1  0.49883446  0.59591009  0.35943337  1
  O  O21  1  0.99883446  0.40408991  0.14056663  1
  O  O22  1  0.00116554  0.09591009  0.14056663  1
  O  O23  1  0.50116554  0.90408991  0.35943337  1
  O  O24  1  0.86212118  0.32903456  0.66958482  1
  O  O25  1  0.36212118  0.67096544  0.83041518  1
  O  O26  1  0.63787882  0.82903456  0.83041518  1
  O  O27  1  0.13787882  0.17096544  0.66958482  1
  O  O28  1  0.13787882  0.67096544  0.33041518  1
  O  O29  1  0.63787882  0.32903456  0.16958482  1
  O  O30  1  0.36212118  0.17096544  0.16958482  1
  O  O31  1  0.86212118  0.82903456  0.33041518  1
  O  O32  1  0.80082516  0.06405600  0.75118275  1
  O  O33  1  0.30082516  0.93594400  0.74881725  1
  O  O34  1  0.69917484  0.56405600  0.74881725  1
  O  O35  1  0.19917484  0.43594400  0.75118275  1
  O  O36  1  0.19917484  0.93594400  0.24881725  1
  O  O37  1  0.69917484  0.06405600  0.25118275  1
  O  O38  1  0.30082516  0.43594400  0.25118275  1
  O  O39  1  0.80082516  0.56405600  0.24881725  1
  O  O40  1  0.81034982  0.34651389  0.85083433  1
  O  O41  1  0.31034982  0.65348611  0.64916567  1
  O  O42  1  0.68965018  0.84651389  0.64916567  1
  O  O43  1  0.18965018  0.15348611  0.85083433  1
  O  O44  1  0.18965018  0.65348611  0.14916567  1
  O  O45  1  0.68965018  0.34651389  0.35083433  1
  O  O46  1  0.31034982  0.15348611  0.35083433  1
  O  O47  1  0.81034982  0.84651389  0.14916567  1
  O  O48  1  0.70677770  0.08793656  0.91159055  1
  O  O49  1  0.20677770  0.91206344  0.58840945  1
  O  O50  1  0.79322230  0.58793656  0.58840945  1
  O  O51  1  0.29322230  0.41206344  0.91159055  1
  O  O52  1  0.29322230  0.91206344  0.08840945  1
  O  O53  1  0.79322230  0.08793656  0.41159055  1
  O  O54  1  0.20677770  0.41206344  0.41159055  1
  O  O55  1  0.70677770  0.58793656  0.08840945  1
  O  O56  1  0.50000000  0.75000000  0.51568004  1
  O  O57  1  0.00000000  0.25000000  0.98431996  1
  O  O58  1  0.50000000  0.25000000  0.48431996  1
  O  O59  1  0.00000000  0.75000000  0.01568004  1
loop_
_geom_bond_atom_site_label_1
_geom_bond_atom_site_label_2
_geom_bond_distance
_geom_bond_site_symmetry_2
Li0 O26 1.977475 1_555
Li0 O25 1.977475 1_555
Li0 O42 2.279428 1_555
Li0 O41 2.279428 1_555
Li0 O33 2.337798 1_555
Li0 O34 2.337798 1_555
Li1 O24 1.977475 1_455
Li1 O27 1.977475 1_555
Li1 O40 2.279428 1_455
Li1 O43 2.279428 1_555
Li1 O35 2.337798 1_555
Li1 O32 2.337798 1_455
Li2 O29 1.977475 1_555
Li2 O30 1.977475 1_555
Li2 O46 2.279428 1_555
Li2 O45 2.279428 1_555
Li2 O38 2.337798 1_555
Li2 O37 2.337798 1_555
Li3 O31 1.977475 1_455
Li3 O28 1.977475 1_555
Li3 O47 2.279428 1_455
Li3 O44 2.279428 1_555
Li3 O39 2.337798 1_455
Li3 O36 2.337798 1_555
Li4 O4 1.941034 1_555
Li4 O0 1.941034 1_455
Li4 O15 1.960193 1_455
Li4 O11 1.960193 1_555
Li4 O54 2.295676 1_555
Li4 O50 2.295676 1_455
Li5 O1 1.941034 1_554
Li5 O5 1.941034 1_555
Li5 O10 1.960193 1_554
Li5 O14 1.960193 1_555
Li5 O51 2.295676 1_554
Li5 O55 2.295676 1_555
Li6 O6 1.941034 1_555
Li6 O2 1.941034 1_544
Li6 O13 1.960193 1_555
Li6 O9 1.960193 1_544
Li6 O48 2.295676 1_554
Li6 O52 2.295676 1_545
Li7 O3 1.941034 1_555
Li7 O7 1.941034 1_445
Li7 O8 1.960193 1_455
Li7 O12 1.960193 1_545
Li7 O53 2.295676 1_455
Li7 O49 2.295676 1_545
Ge0 O8 1.725311 1_555
Ge0 O19 1.740891 1_555
Ge0 O32 1.762320 1_555
Ge0 O42 1.784758 1_545
Ge1 O9 1.725311 1_555
Ge1 O18 1.740891 1_455
Ge1 O33 1.762320 1_555
Ge1 O43 1.784758 1_565
Ge2 O10 1.725311 1_555
Ge2 O17 1.740891 1_655
Ge2 O34 1.762320 1_555
Ge2 O40 1.784758 1_555
Ge3 O11 1.725311 1_555
Ge3 O16 1.740891 1_555
Ge3 O35 1.762320 1_555
Ge3 O41 1.784758 1_555
Ge4 O12 1.725311 1_555
Ge4 O23 1.740891 1_555
Ge4 O36 1.762320 1_555
Ge4 O46 1.784758 1_565
Ge5 O13 1.725311 1_555
Ge5 O22 1.740891 1_655
Ge5 O37 1.762320 1_555
Ge5 O47 1.784758 1_545
Ge6 O14 1.725311 1_555
Ge6 O21 1.740891 1_455
Ge6 O38 1.762320 1_555
Ge6 O44 1.784758 1_555
Ge7 O15 1.725311 1_555
Ge7 O20 1.740891 1_555
Ge7 O39 1.762320 1_555
Ge7 O45 1.784758 1_555
Ge8 O24 1.729062 1_555
Ge8 O16 1.739104 1_555
Ge8 O50 1.768846 1_555
Ge8 O34 1.773898 1_555
Ge9 O25 1.729062 1_555
Ge9 O17 1.739104 1_555
Ge9 O51 1.768846 1_555
Ge9 O35 1.773898 1_555
Ge10 O26 1.729062 1_555
Ge10 O18 1.739104 1_555
Ge10 O48 1.768846 1_565
Ge10 O32 1.773898 1_565
Ge11 O27 1.729062 1_555
Ge11 O19 1.739104 1_555
Ge11 O49 1.768846 1_545
Ge11 O33 1.773898 1_545
Ge12 O28 1.729062 1_555
Ge12 O20 1.739104 1_555
Ge12 O54 1.768846 1_555
Ge12 O38 1.773898 1_555
Ge13 O29 1.729062 1_555
Ge13 O21 1.739104 1_555
Ge13 O55 1.768846 1_555
Ge13 O39 1.773898 1_555
Ge14 O30 1.729062 1_555
Ge14 O22 1.739104 1_555
Ge14 O52 1.768846 1_545
Ge14 O36 1.773898 1_545
Ge15 O31 1.729062 1_555
Ge15 O23 1.739104 1_555
Ge15 O53 1.768846 1_565
Ge15 O37 1.773898 1_565
Ge16 O5 1.726235 1_556
Ge16 O57 1.743170 1_655
Ge16 O48 1.763134 1_555
Ge16 O40 1.787687 1_555
Ge17 O4 1.726235 1_555
Ge17 O56 1.743170 1_555
Ge17 O49 1.763134 1_555
Ge17 O41 1.787687 1_555
Ge18 O7 1.726235 1_555
Ge18 O56 1.743170 1_555
Ge18 O50 1.763134 1_555
Ge18 O42 1.787687 1_555
Ge19 O6 1.726235 1_556
Ge19 O57 1.743170 1_555
Ge19 O51 1.763134 1_555
Ge19 O43 1.787687 1_555
Ge20 O1 1.726235 1_554
Ge20 O59 1.743170 1_555
Ge20 O52 1.763134 1_555
Ge20 O44 1.787687 1_555
Ge21 O0 1.726235 1_555
Ge21 O58 1.743170 1_555
Ge21 O53 1.763134 1_555
Ge21 O45 1.787687 1_555
Ge22 O3 1.726235 1_555
Ge22 O58 1.743170 1_555
Ge22 O54 1.763134 1_555
Ge22 O46 1.787687 1_555
Ge23 O2 1.726235 1_554
Ge23 O59 1.743170 1_655
Ge23 O55 1.763134 1_555
Ge23 O47 1.787687 1_555
Ge24 O10 1.877801 1_555
Ge24 O9 1.877801 1_555
Ge24 O2 1.882196 1_555
Ge24 O1 1.882196 1_555
Ge24 O26 1.886597 1_555
Ge24 O25 1.886597 1_555
Ge25 O11 1.877801 1_555
Ge25 O8 1.877801 1_455
Ge25 O0 1.882196 1_455
Ge25 O3 1.882196 1_555
Ge25 O24 1.886597 1_455
Ge25 O27 1.886597 1_555
Ge26 O14 1.877801 1_555
Ge26 O13 1.877801 1_555
Ge26 O5 1.882196 1_555
Ge26 O6 1.882196 1_555
Ge26 O29 1.886597 1_555
Ge26 O30 1.886597 1_555
Ge27 O15 1.877801 1_455
Ge27 O12 1.877801 1_555
Ge27 O4 1.882196 1_555
Ge27 O7 1.882196 1_455
Ge27 O31 1.886597 1_455
Ge27 O28 1.886597 1_555
