# generated using pymatgen
data_V3SiNi2
_symmetry_space_group_name_H-M   'P 1'
_cell_length_a   7.50522148
_cell_length_b   7.50522148
_cell_length_c   7.50522148
_cell_angle_alpha   60.00000000
_cell_angle_beta   60.00000000
_cell_angle_gamma   60.00000000
_symmetry_Int_Tables_number   1
_chemical_formula_structural   V3SiNi2
_chemical_formula_sum   'V12 Si4 Ni8'
_cell_volume   298.93415599
_cell_formula_units_Z   4
loop_
 _symmetry_equiv_pos_site_id
 _symmetry_equiv_pos_as_xyz
  1  'x, y, z'
loop_
 _atom_site_type_symbol
 _atom_site_label
 _atom_site_symmetry_multiplicity
 _atom_site_fract_x
 _atom_site_fract_y
 _atom_site_fract_z
 _atom_site_occupancy
  V  V0  1  0.80246800  0.80246800  0.19753200  1
  V  V1  1  0.19753200  0.19753200  0.80246800  1
  V  V2  1  0.80246800  0.19753200  0.80246800  1
  V  V3  1  0.19753200  0.80246800  0.19753200  1
  V  V4  1  0.19753200  0.80246800  0.80246800  1
  V  V5  1  0.80246800  0.19753200  0.19753200  1
  V  V6  1  0.44753200  0.44753200  0.05246800  1
  V  V7  1  0.05246800  0.05246800  0.44753200  1
  V  V8  1  0.44753200  0.05246800  0.44753200  1
  V  V9  1  0.05246800  0.44753200  0.05246800  1
  V  V10  1  0.05246800  0.44753200  0.44753200  1
  V  V11  1  0.44753200  0.05246800  0.05246800  1
  Si  Si0  1  0.12500000  0.62500000  0.62500000  1
  Si  Si1  1  0.62500000  0.12500000  0.62500000  1
  Si  Si2  1  0.62500000  0.62500000  0.12500000  1
  Si  Si3  1  0.62500000  0.62500000  0.62500000  1
  Ni  Ni0  1  0.75960200  0.41346600  0.41346600  1
  Ni  Ni1  1  0.41346600  0.75960200  0.41346600  1
  Ni  Ni2  1  0.41346600  0.41346600  0.75960200  1
  Ni  Ni3  1  0.41346600  0.41346600  0.41346600  1
  Ni  Ni4  1  0.49039800  0.83653400  0.83653400  1
  Ni  Ni5  1  0.83653400  0.49039800  0.83653400  1
  Ni  Ni6  1  0.83653400  0.83653400  0.49039800  1
  Ni  Ni7  1  0.83653400  0.83653400  0.83653400  1
loop_
_geom_bond_atom_site_label_1
_geom_bond_atom_site_label_2
_geom_bond_distance
_geom_bond_site_symmetry_2
V0 V11 2.767907 1_565
V0 V8 2.767907 1_565
V0 V9 2.767907 1_655
V0 V10 2.767907 1_655
V0 V3 2.965043 1_655
V0 V2 2.965043 1_564
V0 V5 2.965043 1_565
V0 V4 2.965043 1_654
V1 V8 2.767907 1_555
V1 V11 2.767907 1_556
V1 V10 2.767907 1_555
V1 V9 2.767907 1_556
V1 V3 2.965043 1_546
V1 V5 2.965043 1_456
V1 V2 2.965043 1_455
V1 V4 2.965043 1_545
V2 V6 2.767907 1_556
V2 V7 2.767907 1_655
V2 V5 2.965043 1_556
V2 V4 2.965043 1_645
V3 V7 2.767907 1_565
V3 V6 2.767907 1_555
V3 V4 2.965043 1_554
V3 V5 2.965043 1_465
V4 V8 2.767907 1_565
V4 V6 2.767907 1_556
V4 V7 2.767907 1_565
V4 V9 2.767907 1_556
V5 V8 2.767907 1_555
V5 V9 2.767907 1_655
V5 V7 2.767907 1_655
V5 V6 2.767907 1_555
V6 V8 2.965043 1_555
V6 V9 2.965043 1_555
V7 V8 2.965043 1_555
V7 V9 2.965043 1_555
V10 V2 2.767907 1_455
V10 V3 2.767907 1_555
V10 V6 2.965043 1_555
V10 V8 2.965043 1_555
V10 V9 2.965043 1_555
V10 V7 2.965043 1_555
V11 V2 2.767907 1_554
V11 V3 2.767907 1_545
V11 V6 2.965043 1_555
V11 V8 2.965043 1_555
V11 V9 2.965043 1_555
V11 V7 2.965043 1_555
Si0 V4 2.658690 1_555
Si0 V1 2.658690 1_555
Si0 V3 2.658690 1_555
Si0 V7 2.658690 1_565
Si0 V9 2.658690 1_556
Si0 V10 2.658690 1_555
Si1 V5 2.658690 1_555
Si1 V2 2.658690 1_555
Si1 V11 2.658690 1_556
Si1 V7 2.658690 1_655
Si1 V1 2.658690 1_555
Si1 V8 2.658690 1_555
Si2 V0 2.658690 1_555
Si2 V3 2.658690 1_555
Si2 V11 2.658690 1_565
Si2 V5 2.658690 1_555
Si2 V9 2.658690 1_655
Si2 V6 2.658690 1_555
Si3 V0 2.658690 1_555
Si3 V10 2.658690 1_655
Si3 V4 2.658690 1_555
Si3 V8 2.658690 1_565
Si3 V6 2.658690 1_556
Si3 V2 2.658690 1_555
Ni0 Si3 2.318273 1_555
Ni0 Si2 2.318273 1_555
Ni0 Si1 2.318273 1_555
Ni0 V10 2.480195 1_655
Ni0 V7 2.480195 1_655
Ni0 V9 2.480195 1_655
Ni0 Ni3 2.597827 1_555
Ni0 Ni1 2.597827 1_555
Ni0 Ni2 2.597827 1_555
Ni0 V2 2.634402 1_555
Ni0 V0 2.634402 1_555
Ni0 V5 2.634402 1_555
Ni1 Si3 2.318273 1_555
Ni1 Si2 2.318273 1_555
Ni1 Si0 2.318273 1_555
Ni1 V7 2.480195 1_565
Ni1 V11 2.480195 1_565
Ni1 V8 2.480195 1_565
Ni1 Ni3 2.597827 1_555
Ni1 Ni2 2.597827 1_555
Ni1 V0 2.634402 1_555
Ni1 V3 2.634402 1_555
Ni1 V4 2.634402 1_555
Ni2 Si3 2.318273 1_555
Ni2 Si1 2.318273 1_555
Ni2 Si0 2.318273 1_555
Ni2 V11 2.480195 1_556
Ni2 V9 2.480195 1_556
Ni2 V6 2.480195 1_556
Ni2 Ni3 2.597827 1_555
Ni2 V2 2.634402 1_555
Ni2 V4 2.634402 1_555
Ni2 V1 2.634402 1_555
Ni3 Si0 2.318273 1_555
Ni3 Si2 2.318273 1_555
Ni3 Si1 2.318273 1_555
Ni3 V6 2.480195 1_555
Ni3 V10 2.480195 1_555
Ni3 V8 2.480195 1_555
Ni3 V3 2.634402 1_555
Ni3 V1 2.634402 1_555
Ni3 V5 2.634402 1_555
Ni4 Si2 2.318273 1_556
Ni4 Si3 2.318273 1_555
Ni4 Si1 2.318273 1_565
Ni4 V4 2.480195 1_555
Ni4 V1 2.480195 1_565
Ni4 V3 2.480195 1_556
Ni4 Ni7 2.597827 1_555
Ni4 Ni5 2.597827 1_555
Ni4 Ni6 2.597827 1_555
Ni4 V11 2.634402 1_566
Ni4 V8 2.634402 1_565
Ni4 V6 2.634402 1_556
Ni5 Si2 2.318273 1_556
Ni5 Si3 2.318273 1_555
Ni5 Si0 2.318273 1_655
Ni5 V2 2.480195 1_555
Ni5 V5 2.480195 1_556
Ni5 V1 2.480195 1_655
Ni5 Ni7 2.597827 1_555
Ni5 Ni6 2.597827 1_555
Ni5 V9 2.634402 1_656
Ni5 V10 2.634402 1_655
Ni5 V6 2.634402 1_556
Ni6 Si1 2.318273 1_565
Ni6 Si3 2.318273 1_555
Ni6 Si0 2.318273 1_655
Ni6 V5 2.480195 1_565
Ni6 V3 2.480195 1_655
Ni6 V0 2.480195 1_555
Ni6 Ni7 2.597827 1_555
Ni6 V7 2.634402 1_665
Ni6 V10 2.634402 1_655
Ni6 V8 2.634402 1_565
Ni7 Si2 2.318273 1_556
Ni7 Si0 2.318273 1_655
Ni7 Si1 2.318273 1_565
Ni7 V0 2.480195 1_556
Ni7 V2 2.480195 1_565
Ni7 V4 2.480195 1_655
Ni7 V9 2.634402 1_656
Ni7 V7 2.634402 1_665
Ni7 V11 2.634402 1_566
