# generated using pymatgen
data_Pr2Sc3Si4
_symmetry_space_group_name_H-M   'P 1'
_cell_length_a   7.25172278
_cell_length_b   7.57128700
_cell_length_c   14.25418337
_cell_angle_alpha   90.00000000
_cell_angle_beta   90.00000000
_cell_angle_gamma   90.00000000
_symmetry_Int_Tables_number   1
_chemical_formula_structural   Pr2Sc3Si4
_chemical_formula_sum   'Pr8 Sc12 Si16'
_cell_volume   782.62414777
_cell_formula_units_Z   4
loop_
 _symmetry_equiv_pos_site_id
 _symmetry_equiv_pos_as_xyz
  1  'x, y, z'
loop_
 _atom_site_type_symbol
 _atom_site_label
 _atom_site_symmetry_multiplicity
 _atom_site_fract_x
 _atom_site_fract_y
 _atom_site_fract_z
 _atom_site_occupancy
  Pr  Pr0  1  0.01192873  0.17256477  0.40195478  1
  Pr  Pr1  1  0.51192645  0.32743341  0.40195468  1
  Pr  Pr2  1  0.48807127  0.67256477  0.90195478  1
  Pr  Pr3  1  0.48807127  0.67256477  0.59804522  1
  Pr  Pr4  1  0.98807355  0.82743341  0.59804532  1
  Pr  Pr5  1  0.98807355  0.82743341  0.90195468  1
  Pr  Pr6  1  0.51192645  0.32743341  0.09804532  1
  Pr  Pr7  1  0.01192873  0.17256477  0.09804522  1
  Sc  Sc0  1  0.32946575  0.17600101  0.62560447  1
  Sc  Sc1  1  0.67053360  0.82400161  0.37439550  1
  Sc  Sc2  1  0.66089612  0.00114390  0.75000000  1
  Sc  Sc3  1  0.17053425  0.67600101  0.37439553  1
  Sc  Sc4  1  0.82946640  0.32400161  0.87439550  1
  Sc  Sc5  1  0.82946640  0.32400161  0.62560450  1
  Sc  Sc6  1  0.83910388  0.50114390  0.25000000  1
  Sc  Sc7  1  0.33910627  -0.00114721  0.25000000  1
  Sc  Sc8  1  0.32946575  0.17600101  0.87439553  1
  Sc  Sc9  1  0.17053425  0.67600101  0.12560447  1
  Sc  Sc10  1  0.67053360  0.82400161  0.12560450  1
  Sc  Sc11  1  0.16089373  0.49885279  0.75000000  1
  Si  Si0  1  0.28807580  0.88337284  0.75000000  1
  Si  Si1  1  0.46581257  0.62583197  0.25000000  1
  Si  Si2  1  0.03418743  0.12583197  0.75000000  1
  Si  Si3  1  0.53418601  0.37417037  0.75000000  1
  Si  Si4  1  0.15115091  0.46325909  0.53948392  1
  Si  Si5  1  0.96581399  0.87417037  0.25000000  1
  Si  Si6  1  0.71192298  0.11662622  0.25000000  1
  Si  Si7  1  0.84884923  0.53674107  0.03948252  1
  Si  Si8  1  0.34884909  0.96325909  0.03948392  1
  Si  Si9  1  0.15115091  0.46325909  0.96051608  1
  Si  Si10  1  0.65115077  0.03674107  0.53948252  1
  Si  Si11  1  0.34884909  0.96325909  0.46051608  1
  Si  Si12  1  0.84884923  0.53674107  0.46051748  1
  Si  Si13  1  0.78807702  0.61662622  0.75000000  1
  Si  Si14  1  0.21192420  0.38337284  0.25000000  1
  Si  Si15  1  0.65115077  0.03674107  0.96051748  1
loop_
_geom_bond_atom_site_label_1
_geom_bond_atom_site_label_2
_geom_bond_distance
_geom_bond_site_symmetry_2
Pr0 Si11 3.029455 1_545
Pr0 Si14 3.056537 1_555
Pr0 Si6 3.099024 1_455
Pr0 Si12 3.114161 1_455
Pr0 Si4 3.115513 1_555
Pr0 Si5 3.147613 1_445
Pr0 Si10 3.427142 1_455
Pr1 Si12 3.029483 1_555
Pr1 Si6 3.056537 1_555
Pr1 Si14 3.099006 1_555
Pr1 Si11 3.114137 1_545
Pr1 Si10 3.115496 1_555
Pr1 Si1 3.147634 1_555
Pr1 Si4 3.427146 1_555
Pr2 Si9 3.029455 1_555
Pr2 Si0 3.056537 1_555
Pr2 Si13 3.099024 1_555
Pr2 Si15 3.114161 1_565
Pr2 Si8 3.115513 1_556
Pr2 Si3 3.147613 1_555
Pr2 Si7 3.427142 1_556
Pr3 Si4 3.029455 1_555
Pr3 Si0 3.056537 1_555
Pr3 Si13 3.099024 1_555
Pr3 Si10 3.114161 1_565
Pr3 Si11 3.115513 1_555
Pr3 Si3 3.147613 1_555
Pr3 Si12 3.427142 1_555
Pr4 Si10 3.029483 1_565
Pr4 Si13 3.056537 1_555
Pr4 Si0 3.099006 1_655
Pr4 Si4 3.114137 1_655
Pr4 Si12 3.115496 1_555
Pr4 Si2 3.147634 1_665
Pr4 Si11 3.427146 1_655
Pr5 Si15 3.029483 1_565
Pr5 Si13 3.056537 1_555
Pr5 Si0 3.099006 1_655
Pr5 Si9 3.114137 1_655
Pr5 Si7 3.115496 1_556
Pr5 Si2 3.147634 1_665
Pr5 Si8 3.427146 1_656
Pr6 Si7 3.029483 1_555
Pr6 Si6 3.056537 1_555
Pr6 Si14 3.099006 1_555
Pr6 Si8 3.114137 1_545
Pr6 Si15 3.115496 1_554
Pr6 Si1 3.147634 1_555
Pr6 Si9 3.427146 1_554
Pr7 Si8 3.029455 1_545
Pr7 Si14 3.056537 1_555
Pr7 Si6 3.099024 1_455
Pr7 Si7 3.114161 1_455
Pr7 Si9 3.115513 1_554
Pr7 Si5 3.147613 1_445
Pr7 Si15 3.427142 1_454
Sc0 Si3 2.756672 1_555
Sc0 Si2 2.805964 1_555
Sc0 Si4 2.812344 1_555
Sc0 Si10 2.839107 1_555
Sc0 Si0 2.853582 1_545
Sc0 Si11 2.855129 1_545
Sc1 Si1 2.756675 1_555
Sc1 Si5 2.805974 1_555
Sc1 Si12 2.812370 1_555
Sc1 Si11 2.839088 1_555
Sc1 Si6 2.853561 1_565
Sc1 Si10 2.855102 1_565
Sc2 Si0 2.846838 1_545
Sc2 Si2 2.866898 1_655
Sc2 Si3 2.970005 1_555
Sc2 Si10 3.013663 1_555
Sc2 Si15 3.013663 1_555
Sc2 Si13 3.053888 1_545
Sc3 Si5 2.756672 1_455
Sc3 Si1 2.805964 1_555
Sc3 Si11 2.812344 1_555
Sc3 Si12 2.839107 1_455
Sc3 Si14 2.853582 1_555
Sc3 Si4 2.855129 1_555
Sc4 Si2 2.756675 1_655
Sc4 Si3 2.805974 1_555
Sc4 Si15 2.812370 1_555
Sc4 Si9 2.839088 1_655
Sc4 Si13 2.853561 1_555
Sc4 Si7 2.855102 1_556
Sc5 Si2 2.756675 1_655
Sc5 Si3 2.805974 1_555
Sc5 Si10 2.812370 1_555
Sc5 Si4 2.839088 1_655
Sc5 Si13 2.853561 1_555
Sc5 Si12 2.855102 1_555
Sc6 Si14 2.846838 1_655
Sc6 Si1 2.866898 1_555
Sc6 Si5 2.970005 1_555
Sc6 Si7 3.013663 1_555
Sc6 Si12 3.013663 1_555
Sc6 Si6 3.053888 1_555
Sc7 Si6 2.846819 1_555
Sc7 Si5 2.866891 1_445
Sc7 Si1 2.969956 1_545
Sc7 Si8 3.013640 1_545
Sc7 Si11 3.013640 1_545
Sc7 Si14 3.053908 1_555
Sc8 Si3 2.756672 1_555
Sc8 Si2 2.805964 1_555
Sc8 Si9 2.812344 1_555
Sc8 Si15 2.839107 1_555
Sc8 Si0 2.853582 1_545
Sc8 Si8 2.855129 1_546
Sc9 Si5 2.756672 1_455
Sc9 Si1 2.805964 1_555
Sc9 Si8 2.812344 1_555
Sc9 Si7 2.839107 1_455
Sc9 Si14 2.853582 1_555
Sc9 Si9 2.855129 1_554
Sc10 Si1 2.756675 1_555
Sc10 Si5 2.805974 1_555
Sc10 Si7 2.812370 1_555
Sc10 Si8 2.839088 1_555
Sc10 Si6 2.853561 1_565
Sc10 Si15 2.855102 1_564
Sc11 Si13 2.846819 1_455
Sc11 Si3 2.866891 1_555
Sc11 Si2 2.969956 1_555
Sc11 Si9 3.013640 1_555
Sc11 Si4 3.013640 1_555
Sc11 Si0 3.053908 1_555
Si0 Si2 2.599932 1_565
Si1 Si14 2.599932 1_555
Si5 Si6 2.599928 1_565
Si7 Si9 2.526318 1_654
Si10 Si11 2.526318 1_545
Si12 Si4 2.526318 1_655
Si13 Si3 2.599928 1_555
Si15 Si8 2.526318 1_546
