# generated using pymatgen
data_K4La6OsI14
_symmetry_space_group_name_H-M   'P 1'
_cell_length_a   10.13146800
_cell_length_b   10.13146800
_cell_length_c   22.41990800
_cell_angle_alpha   90.00000000
_cell_angle_beta   90.00000000
_cell_angle_gamma   90.00000000
_symmetry_Int_Tables_number   1
_chemical_formula_structural   K4La6OsI14
_chemical_formula_sum   'K8 La12 Os2 I28'
_cell_volume   2301.32831129
_cell_formula_units_Z   2
loop_
 _symmetry_equiv_pos_site_id
 _symmetry_equiv_pos_as_xyz
  1  'x, y, z'
loop_
 _atom_site_type_symbol
 _atom_site_label
 _atom_site_symmetry_multiplicity
 _atom_site_fract_x
 _atom_site_fract_y
 _atom_site_fract_z
 _atom_site_occupancy
  K  K0  1  0.66789500  0.16789500  0.25000000  1
  K  K1  1  0.33210500  0.83210500  0.75000000  1
  K  K2  1  0.33210500  0.83210500  0.25000000  1
  K  K3  1  0.83210500  0.66789500  0.75000000  1
  K  K4  1  0.16789500  0.33210500  0.75000000  1
  K  K5  1  0.16789500  0.33210500  0.25000000  1
  K  K6  1  0.83210500  0.66789500  0.25000000  1
  K  K7  1  0.66789500  0.16789500  0.75000000  1
  La  La0  1  0.50000000  0.50000000  0.12859100  1
  La  La1  1  0.40917700  0.23156200  0.00000000  1
  La  La2  1  0.00000000  0.00000000  0.62859100  1
  La  La3  1  0.09082300  0.73156200  0.50000000  1
  La  La4  1  0.90917700  0.26843800  0.50000000  1
  La  La5  1  0.73156200  0.90917700  0.50000000  1
  La  La6  1  0.23156200  0.59082300  0.00000000  1
  La  La7  1  0.26843800  0.09082300  0.50000000  1
  La  La8  1  0.59082300  0.76843800  0.00000000  1
  La  La9  1  0.50000000  0.50000000  0.87140900  1
  La  La10  1  0.76843800  0.40917700  0.00000000  1
  La  La11  1  0.00000000  0.00000000  0.37140900  1
  Os  Os0  1  0.00000000  0.00000000  0.50000000  1
  Os  Os1  1  0.50000000  0.50000000  0.00000000  1
  I  I0  1  0.50000000  0.50000000  0.27724000  1
  I  I1  1  0.69321200  0.89731600  0.35369800  1
  I  I2  1  0.60268400  0.80678800  0.14630200  1
  I  I3  1  0.39731600  0.19321200  0.14630200  1
  I  I4  1  0.30678800  0.10268400  0.64630200  1
  I  I5  1  0.80024900  0.59336600  0.50000000  1
  I  I6  1  0.19321200  0.60268400  0.85369800  1
  I  I7  1  0.39731600  0.19321200  0.85369800  1
  I  I8  1  0.00000000  0.00000000  0.22276000  1
  I  I9  1  0.10268400  0.69321200  0.35369800  1
  I  I10  1  0.09336600  0.30024900  0.00000000  1
  I  I11  1  0.90663400  0.69975100  0.00000000  1
  I  I12  1  0.89731600  0.30678800  0.35369800  1
  I  I13  1  0.69321200  0.89731600  0.64630200  1
  I  I14  1  0.80678800  0.39731600  0.85369800  1
  I  I15  1  0.30024900  0.90663400  0.00000000  1
  I  I16  1  0.59336600  0.19975100  0.50000000  1
  I  I17  1  0.69975100  0.09336600  0.00000000  1
  I  I18  1  0.19975100  0.40663400  0.50000000  1
  I  I19  1  0.19321200  0.60268400  0.14630200  1
  I  I20  1  0.00000000  0.00000000  0.77724000  1
  I  I21  1  0.89731600  0.30678800  0.64630200  1
  I  I22  1  0.30678800  0.10268400  0.35369800  1
  I  I23  1  0.10268400  0.69321200  0.64630200  1
  I  I24  1  0.40663400  0.80024900  0.50000000  1
  I  I25  1  0.80678800  0.39731600  0.14630200  1
  I  I26  1  0.60268400  0.80678800  0.85369800  1
  I  I27  1  0.50000000  0.50000000  0.72276000  1
loop_
_geom_bond_atom_site_label_1
_geom_bond_atom_site_label_2
_geom_bond_distance
_geom_bond_site_symmetry_2
La0 Os1 2.882998 1_555
La1 Os1 2.871119 1_555
La2 Os0 2.882998 1_555
La3 Os0 2.871119 1_565
La4 Os0 2.871119 1_655
La5 Os0 2.871119 1_665
La6 Os1 2.871119 1_555
La7 Os0 2.871119 1_555
La8 Os1 2.871119 1_555
La9 Os1 2.882998 1_556
La10 Os1 2.871119 1_555
La11 Os0 2.882998 1_555
I0 La0 3.332697 1_555
I0 K6 3.819390 1_555
I0 K2 3.819390 1_555
I0 K5 3.819390 1_555
I0 K0 3.819390 1_555
I1 La11 3.301661 1_665
I1 La5 3.305195 1_555
I1 K6 3.576038 1_555
I1 K0 3.603612 1_565
I2 La0 3.301661 1_555
I2 La8 3.305195 1_555
I2 K6 3.576038 1_555
I2 K2 3.603612 1_555
I3 La0 3.301661 1_555
I3 La1 3.305195 1_555
I3 K5 3.576038 1_555
I3 K0 3.603612 1_555
I4 La2 3.301661 1_555
I4 La7 3.305195 1_555
I4 K4 3.576038 1_555
I4 K1 3.603612 1_545
I5 La3 3.259931 1_655
I5 La5 3.274432 1_555
I5 La4 3.472057 1_555
I6 La9 3.301661 1_555
I6 La6 3.305195 1_556
I6 K1 3.576038 1_555
I6 K4 3.603612 1_555
I7 La9 3.301661 1_555
I7 La1 3.305195 1_556
I7 K4 3.576038 1_555
I7 K7 3.603612 1_555
I8 La11 3.332697 1_555
I8 K5 3.819390 1_555
I8 K0 3.819390 1_455
I8 K6 3.819390 1_445
I8 K2 3.819390 1_545
I9 La11 3.301661 1_565
I9 La3 3.305195 1_555
I9 K2 3.576038 1_555
I9 K6 3.603612 1_455
I10 La6 3.259931 1_555
I10 La1 3.274432 1_555
I10 La10 3.472057 1_455
I11 La10 3.259931 1_555
I11 La8 3.274432 1_555
I11 La6 3.472057 1_655
I12 La11 3.301661 1_655
I12 La4 3.305195 1_555
I12 K0 3.576038 1_555
I12 K5 3.603612 1_655
I13 La2 3.301661 1_665
I13 La5 3.305195 1_555
I13 K3 3.576038 1_555
I13 K7 3.603612 1_565
I14 La9 3.301661 1_555
I14 La10 3.305195 1_556
I14 K7 3.576038 1_555
I14 K3 3.603612 1_555
I15 La8 3.259931 1_555
I15 La6 3.274432 1_555
I15 La1 3.472057 1_565
I16 La5 3.259931 1_545
I16 La4 3.274432 1_555
I16 La7 3.472057 1_555
I17 La1 3.259931 1_555
I17 La10 3.274432 1_555
I17 La8 3.472057 1_545
I18 La4 3.259931 1_455
I18 La7 3.274432 1_555
I18 La3 3.472057 1_555
I19 La0 3.301661 1_555
I19 La6 3.305195 1_555
I19 K2 3.576038 1_555
I19 K5 3.603612 1_555
I20 La2 3.332697 1_555
I20 K3 3.819390 1_445
I20 K1 3.819390 1_545
I20 K7 3.819390 1_455
I20 K4 3.819390 1_555
I21 La2 3.301661 1_655
I21 La4 3.305195 1_555
I21 K7 3.576038 1_555
I21 K4 3.603612 1_655
I22 La11 3.301661 1_555
I22 La7 3.305195 1_555
I22 K5 3.576038 1_555
I22 K2 3.603612 1_545
I23 La2 3.301661 1_565
I23 La3 3.305195 1_555
I23 K1 3.576038 1_555
I23 K3 3.603612 1_455
I24 La7 3.259931 1_565
I24 La3 3.274432 1_555
I24 La5 3.472057 1_555
I25 La0 3.301661 1_555
I25 La10 3.305195 1_555
I25 K0 3.576038 1_555
I25 K6 3.603612 1_555
I26 La9 3.301661 1_555
I26 La8 3.305195 1_556
I26 K3 3.576038 1_555
I26 K1 3.603612 1_555
I27 La9 3.332697 1_555
I27 K7 3.819390 1_555
I27 K3 3.819390 1_555
I27 K4 3.819390 1_555
I27 K1 3.819390 1_555
