# generated using pymatgen
data_CsCrClO3
_symmetry_space_group_name_H-M   'P 1'
_cell_length_a   6.19746700
_cell_length_b   9.01225600
_cell_length_c   10.22199900
_cell_angle_alpha   90.00000000
_cell_angle_beta   90.00000000
_cell_angle_gamma   90.00000000
_symmetry_Int_Tables_number   1
_chemical_formula_structural   CsCrClO3
_chemical_formula_sum   'Cs4 Cr4 Cl4 O12'
_cell_volume   570.93093703
_cell_formula_units_Z   4
loop_
 _symmetry_equiv_pos_site_id
 _symmetry_equiv_pos_as_xyz
  1  'x, y, z'
loop_
 _atom_site_type_symbol
 _atom_site_label
 _atom_site_symmetry_multiplicity
 _atom_site_fract_x
 _atom_site_fract_y
 _atom_site_fract_z
 _atom_site_occupancy
  Cs  Cs0  1  0.75000000  0.88221700  0.79252700  1
  Cs  Cs1  1  0.25000000  0.38221700  0.70747300  1
  Cs  Cs2  1  0.75000000  0.61778300  0.29252700  1
  Cs  Cs3  1  0.25000000  0.11778300  0.20747300  1
  Cr  Cr0  1  0.25000000  0.76287500  0.51690700  1
  Cr  Cr1  1  0.75000000  0.23712500  0.48309300  1
  Cr  Cr2  1  0.25000000  0.73712500  0.01690700  1
  Cr  Cr3  1  0.75000000  0.26287500  0.98309300  1
  Cl  Cl0  1  0.25000000  0.51707300  0.10949300  1
  Cl  Cl1  1  0.25000000  0.98292700  0.60949300  1
  Cl  Cl2  1  0.75000000  0.01707300  0.39050700  1
  Cl  Cl3  1  0.75000000  0.48292700  0.89050700  1
  O  O0  1  0.75000000  0.21520600  0.64085900  1
  O  O1  1  0.75000000  0.28479400  0.14085900  1
  O  O2  1  0.46561700  0.82638700  0.06226200  1
  O  O3  1  0.25000000  0.71520600  0.85914100  1
  O  O4  1  0.96561700  0.32638700  0.43773800  1
  O  O5  1  0.25000000  0.78479400  0.35914100  1
  O  O6  1  0.53438300  0.17361300  0.93773800  1
  O  O7  1  0.03438300  0.67361300  0.56226200  1
  O  O8  1  0.46561700  0.67361300  0.56226200  1
  O  O9  1  0.96561700  0.17361300  0.93773800  1
  O  O10  1  0.53438300  0.32638700  0.43773800  1
  O  O11  1  0.03438300  0.82638700  0.06226200  1
loop_
_geom_bond_atom_site_label_1
_geom_bond_atom_site_label_2
_geom_bond_distance
_geom_bond_site_symmetry_2
Cs0 O9 3.299320 1_565
Cs0 O6 3.299320 1_565
Cs0 O2 3.310851 1_556
Cs0 O11 3.310851 1_656
Cs0 O0 3.377792 1_565
Cs0 O8 3.490107 1_555
Cs0 O7 3.490107 1_655
Cs0 O3 3.511592 1_655
Cs0 O3 3.511592 1_555
Cs1 O7 3.299320 1_555
Cs1 O8 3.299320 1_555
Cs1 O10 3.310851 1_555
Cs1 O4 3.310851 1_455
Cs1 O3 3.377792 1_555
Cs1 O6 3.490107 1_555
Cs1 O9 3.490107 1_455
Cs1 O0 3.511592 1_455
Cs1 O0 3.511592 1_555
Cs2 O4 3.299320 1_555
Cs2 O10 3.299320 1_555
Cs2 O7 3.310851 1_655
Cs2 O8 3.310851 1_555
Cs2 O1 3.377792 1_555
Cs2 O2 3.490107 1_555
Cs2 O11 3.490107 1_655
Cs2 O5 3.511592 1_555
Cs2 O5 3.511592 1_655
Cs3 O2 3.299320 1_545
Cs3 O11 3.299320 1_545
Cs3 O6 3.310851 1_554
Cs3 O9 3.310851 1_454
Cs3 O5 3.377792 1_545
Cs3 O10 3.490107 1_555
Cs3 O4 3.490107 1_455
Cs3 O1 3.511592 1_455
Cs3 O1 3.511592 1_555
Cr0 O5 1.624737 1_555
Cr0 O8 1.627184 1_555
Cr0 O7 1.627184 1_555
Cr1 O0 1.624737 1_555
Cr1 O4 1.627184 1_555
Cr1 O10 1.627184 1_555
Cr2 O3 1.624737 1_554
Cr2 O2 1.627184 1_555
Cr2 O11 1.627184 1_555
Cr3 O1 1.624737 1_556
Cr3 O9 1.627184 1_555
Cr3 O6 1.627184 1_555
Cl0 Cr2 2.197417 1_555
Cl0 Cs2 3.731819 1_455
Cl0 Cs2 3.731819 1_555
Cl0 Cs3 3.735282 1_555
Cl1 Cr0 2.197417 1_555
Cl1 Cs0 3.731819 1_455
Cl1 Cs0 3.731819 1_555
Cl1 Cs1 3.735282 1_565
Cl2 Cr1 2.197417 1_555
Cl2 Cs3 3.731819 1_555
Cl2 Cs3 3.731819 1_655
Cl2 Cs2 3.735282 1_545
Cl3 Cr3 2.197417 1_555
Cl3 Cs1 3.731819 1_555
Cl3 Cs1 3.731819 1_655
Cl3 Cs0 3.735282 1_555
