# generated using pymatgen
data_Ag4Se(IO2)2
_symmetry_space_group_name_H-M   'P 1'
_cell_length_a   7.28181200
_cell_length_b   9.52658900
_cell_length_c   13.24164300
_cell_angle_alpha   90.00000000
_cell_angle_beta   90.00000000
_cell_angle_gamma   90.00000000
_symmetry_Int_Tables_number   1
_chemical_formula_structural   Ag4Se(IO2)2
_chemical_formula_sum   'Ag16 Se4 I8 O16'
_cell_volume   918.58376679
_cell_formula_units_Z   4
loop_
 _symmetry_equiv_pos_site_id
 _symmetry_equiv_pos_as_xyz
  1  'x, y, z'
loop_
 _atom_site_type_symbol
 _atom_site_label
 _atom_site_symmetry_multiplicity
 _atom_site_fract_x
 _atom_site_fract_y
 _atom_site_fract_z
 _atom_site_occupancy
  Ag  Ag0  1  0.78381500  0.12470300  0.41715900  1
  Ag  Ag1  1  0.03832000  0.01885000  0.01601300  1
  Ag  Ag2  1  0.43240000  0.76356400  0.80703500  1
  Ag  Ag3  1  0.53832000  0.48115000  0.51601300  1
  Ag  Ag4  1  0.93240000  0.73643600  0.30703500  1
  Ag  Ag5  1  0.43240000  0.26356400  0.69296500  1
  Ag  Ag6  1  0.78381500  0.62470300  0.08284100  1
  Ag  Ag7  1  0.93240000  0.23643600  0.19296500  1
  Ag  Ag8  1  0.28381500  0.87529700  0.58284100  1
  Ag  Ag9  1  0.86687600  0.04191700  0.75865300  1
  Ag  Ag10  1  0.03832000  0.51885000  0.48398700  1
  Ag  Ag11  1  0.53832000  0.98115000  0.98398700  1
  Ag  Ag12  1  0.86687600  0.54191700  0.74134700  1
  Ag  Ag13  1  0.36687600  0.45808300  0.25865300  1
  Ag  Ag14  1  0.36687600  0.95808300  0.24134700  1
  Ag  Ag15  1  0.28381500  0.37529700  0.91715900  1
  Se  Se0  1  0.78163600  0.31663500  0.92913600  1
  Se  Se1  1  0.28163600  0.18336500  0.42913600  1
  Se  Se2  1  0.28163600  0.68336500  0.07086400  1
  Se  Se3  1  0.78163600  0.81663500  0.57086400  1
  I  I0  1  0.27350000  0.54312600  0.68557500  1
  I  I1  1  0.79884700  0.26639500  0.61109100  1
  I  I2  1  0.77350000  0.95687400  0.18557500  1
  I  I3  1  0.77350000  0.45687400  0.31442500  1
  I  I4  1  0.29884700  0.73360500  0.38890900  1
  I  I5  1  0.29884700  0.23360500  0.11109100  1
  I  I6  1  0.79884700  0.76639500  0.88890900  1
  I  I7  1  0.27350000  0.04312600  0.81442500  1
  O  O0  1  0.28500500  0.86426400  0.07550900  1
  O  O1  1  0.46983300  0.12440500  0.36767500  1
  O  O2  1  0.96983300  0.37559500  0.86767500  1
  O  O3  1  0.96983300  0.87559500  0.63232500  1
  O  O4  1  0.78054800  0.36631200  0.05061000  1
  O  O5  1  0.78500500  0.63573600  0.57550900  1
  O  O6  1  0.78054800  0.86631200  0.44939000  1
  O  O7  1  0.78500500  0.13573600  0.92449100  1
  O  O8  1  0.59854100  0.37721400  0.86546200  1
  O  O9  1  0.28500500  0.36426400  0.42449100  1
  O  O10  1  0.59854100  0.87721400  0.63453800  1
  O  O11  1  0.09854100  0.62278600  0.13453800  1
  O  O12  1  0.28054800  0.13368800  0.55061000  1
  O  O13  1  0.28054800  0.63368800  0.94939000  1
  O  O14  1  0.46983300  0.62440500  0.13232500  1
  O  O15  1  0.09854100  0.12278600  0.36546200  1
loop_
_geom_bond_atom_site_label_1
_geom_bond_atom_site_label_2
_geom_bond_distance
_geom_bond_site_symmetry_2
Ag0 O1 2.378401 1_555
Ag0 O15 2.391899 1_655
Ag0 O6 2.498423 1_545
Ag0 I1 2.903199 1_555
Ag0 I3 3.445290 1_555
Ag0 I2 3.459143 1_545
Ag1 O0 2.452792 1_545
Ag1 O7 2.472077 1_454
Ag1 I2 3.018027 1_445
Ag1 I5 3.060998 1_555
Ag1 I7 3.179895 1_554
Ag1 I6 3.414342 1_444
Ag2 O13 2.511340 1_555
Ag2 O10 2.802352 1_555
Ag2 I6 2.880356 1_555
Ag2 I0 2.887153 1_555
Ag2 I7 2.905414 1_565
Ag3 O5 2.452792 1_555
Ag3 O9 2.472077 1_555
Ag3 I0 3.018027 1_555
Ag3 I1 3.060998 1_555
Ag3 I3 3.179895 1_555
Ag3 I4 3.414342 1_555
Ag4 O6 2.511340 1_555
Ag4 O11 2.802352 1_655
Ag4 I4 2.880356 1_655
Ag4 I2 2.887153 1_555
Ag4 I3 2.905414 1_555
Ag5 O12 2.511340 1_555
Ag5 O8 2.802352 1_555
Ag5 I1 2.880356 1_555
Ag5 I7 2.887153 1_555
Ag5 I0 2.905414 1_555
Ag6 O14 2.378401 1_555
Ag6 O11 2.391899 1_655
Ag6 O4 2.498423 1_555
Ag6 I6 2.903199 1_554
Ag6 I2 3.445290 1_555
Ag6 I3 3.459143 1_555
Ag7 O4 2.511340 1_555
Ag7 O15 2.802352 1_655
Ag7 I5 2.880356 1_655
Ag7 I3 2.887153 1_555
Ag7 I2 2.905414 1_545
Ag8 O3 2.378401 1_455
Ag8 O10 2.391899 1_555
Ag8 O12 2.498423 1_565
Ag8 I4 2.903199 1_555
Ag8 I0 3.445290 1_555
Ag8 I7 3.459143 1_565
Ag9 O3 2.422990 1_545
Ag9 O7 2.444693 1_555
Ag9 I1 2.938808 1_555
Ag9 I7 3.051691 1_655
Ag9 I6 3.179597 1_545
Ag10 O9 2.452792 1_555
Ag10 O5 2.472077 1_455
Ag10 I3 3.018027 1_455
Ag10 I4 3.060998 1_555
Ag10 I0 3.179895 1_555
Ag10 I1 3.414342 1_455
Ag11 O7 2.452792 1_565
Ag11 O0 2.472077 1_556
Ag11 I7 3.018027 1_565
Ag11 I6 3.060998 1_555
Ag11 I2 3.179895 1_556
Ag11 I5 3.414342 1_566
Ag12 O2 2.422990 1_555
Ag12 O5 2.444693 1_555
Ag12 I6 2.938808 1_555
Ag12 I0 3.051691 1_655
Ag12 I1 3.179597 1_555
Ag13 O14 2.422990 1_555
Ag13 O9 2.444693 1_555
Ag13 I5 2.938808 1_555
Ag13 I3 3.051691 1_555
Ag13 I4 3.179597 1_555
Ag14 O1 2.422990 1_565
Ag14 O0 2.444693 1_555
Ag14 I4 2.938808 1_555
Ag14 I2 3.051691 1_555
Ag14 I5 3.179597 1_565
Ag15 O2 2.378401 1_455
Ag15 O8 2.391899 1_555
Ag15 O13 2.498423 1_555
Ag15 I5 2.903199 1_556
Ag15 I7 3.445290 1_555
Ag15 I0 3.459143 1_555
O0 Se2 1.724622 1_555
O1 Se1 1.689933 1_555
O2 Se0 1.689933 1_555
O3 Se3 1.689933 1_555
O4 Se0 1.676709 1_554
O5 Se3 1.724622 1_555
O6 Se3 1.676709 1_555
O7 Se0 1.724622 1_555
O8 Se0 1.679746 1_555
O9 Se1 1.724622 1_555
O10 Se3 1.679746 1_555
O11 Se2 1.679746 1_555
O12 Se1 1.676709 1_555
O13 Se2 1.676709 1_556
O14 Se2 1.689933 1_555
O15 Se1 1.679746 1_555
