# generated using pymatgen
data_BaMo2(PO4)3
_symmetry_space_group_name_H-M   'P 1'
_cell_length_a   9.53146750
_cell_length_b   9.53146750
_cell_length_c   9.53146750
_cell_angle_alpha   54.72538538
_cell_angle_beta   54.72538538
_cell_angle_gamma   54.72538081
_symmetry_Int_Tables_number   1
_chemical_formula_structural   BaMo2(PO4)3
_chemical_formula_sum   'Ba2 Mo4 P6 O24'
_cell_volume   537.07257561
_cell_formula_units_Z   2
loop_
 _symmetry_equiv_pos_site_id
 _symmetry_equiv_pos_as_xyz
  1  'x, y, z'
loop_
 _atom_site_type_symbol
 _atom_site_label
 _atom_site_symmetry_multiplicity
 _atom_site_fract_x
 _atom_site_fract_y
 _atom_site_fract_z
 _atom_site_occupancy
  Ba  Ba0  1  0.50000000  0.50000000  0.50000000  1
  Ba  Ba1  1  0.00000000  0.00000000  0.00000000  1
  Mo  Mo0  1  0.65075100  0.65075100  0.65075100  1
  Mo  Mo1  1  0.84924900  0.84924900  0.84924900  1
  Mo  Mo2  1  0.34924900  0.34924900  0.34924900  1
  Mo  Mo3  1  0.15075100  0.15075100  0.15075100  1
  P  P0  1  0.46247900  0.03752100  0.75000000  1
  P  P1  1  0.03752100  0.75000000  0.46247900  1
  P  P2  1  0.75000000  0.46247900  0.03752100  1
  P  P3  1  0.53752100  0.96247900  0.25000000  1
  P  P4  1  0.96247900  0.25000000  0.53752100  1
  P  P5  1  0.25000000  0.53752100  0.96247900  1
  O  O0  1  0.86943100  0.74405900  0.48082500  1
  O  O1  1  0.74405900  0.48082500  0.86943100  1
  O  O2  1  0.48082500  0.86943100  0.74405900  1
  O  O3  1  0.75594100  0.63056900  0.01917500  1
  O  O4  1  0.63056900  0.01917500  0.75594100  1
  O  O5  1  0.01917500  0.75594100  0.63056900  1
  O  O6  1  0.13056900  0.25594100  0.51917500  1
  O  O7  1  0.25594100  0.51917500  0.13056900  1
  O  O8  1  0.51917500  0.13056900  0.25594100  1
  O  O9  1  0.24405900  0.36943100  0.98082500  1
  O  O10  1  0.36943100  0.98082500  0.24405900  1
  O  O11  1  0.98082500  0.24405900  0.36943100  1
  O  O12  1  0.56956400  0.78886700  0.42338300  1
  O  O13  1  0.78886700  0.42338300  0.56956400  1
  O  O14  1  0.42338300  0.56956400  0.78886700  1
  O  O15  1  0.71113300  0.93043600  0.07661700  1
  O  O16  1  0.93043600  0.07661700  0.71113300  1
  O  O17  1  0.07661700  0.71113300  0.93043600  1
  O  O18  1  0.43043600  0.21113300  0.57661700  1
  O  O19  1  0.21113300  0.57661700  0.43043600  1
  O  O20  1  0.57661700  0.43043600  0.21113300  1
  O  O21  1  0.28886700  0.06956400  0.92338300  1
  O  O22  1  0.06956400  0.92338300  0.28886700  1
  O  O23  1  0.92338300  0.28886700  0.06956400  1
loop_
_geom_bond_atom_site_label_1
_geom_bond_atom_site_label_2
_geom_bond_distance
_geom_bond_site_symmetry_2
Ba0 O13 2.789391 1_555
Ba0 O19 2.789391 1_555
Ba0 O14 2.789391 1_555
Ba0 O20 2.789391 1_555
Ba0 O12 2.789391 1_555
Ba0 O18 2.789391 1_555
Ba1 O17 2.789391 1_544
Ba1 O23 2.789391 1_455
Ba1 O16 2.789391 1_454
Ba1 O22 2.789391 1_545
Ba1 O15 2.789391 1_445
Ba1 O21 2.789391 1_554
Mo0 O2 2.082523 1_555
Mo0 O1 2.082523 1_555
Mo0 O0 2.082523 1_555
Mo0 O13 2.119811 1_555
Mo0 O12 2.119811 1_555
Mo0 O14 2.119811 1_555
Mo1 O4 2.082523 1_565
Mo1 O5 2.082523 1_655
Mo1 O3 2.082523 1_556
Mo1 O17 2.119811 1_655
Mo1 O15 2.119811 1_556
Mo1 O16 2.119811 1_565
Mo2 O8 2.082523 1_555
Mo2 O7 2.082523 1_555
Mo2 O6 2.082523 1_555
Mo2 O19 2.119811 1_555
Mo2 O18 2.119811 1_555
Mo2 O20 2.119811 1_555
Mo3 O10 2.082523 1_545
Mo3 O11 2.082523 1_455
Mo3 O9 2.082523 1_554
Mo3 O23 2.119811 1_455
Mo3 O21 2.119811 1_554
Mo3 O22 2.119811 1_545
O0 P1 1.539617 1_655
O1 P2 1.539617 1_556
O2 P0 1.539617 1_565
O3 P2 1.539617 1_555
O4 P0 1.539617 1_555
O5 P1 1.539617 1_555
O6 P4 1.539617 1_455
O7 P5 1.539617 1_554
O8 P3 1.539617 1_545
O9 P5 1.539617 1_555
O10 P3 1.539617 1_555
O11 P4 1.539617 1_555
O12 P3 1.550270 1_555
O13 P4 1.550270 1_555
O14 P5 1.550270 1_555
O15 P3 1.550270 1_555
O16 P4 1.550270 1_555
O17 P5 1.550270 1_555
O18 P0 1.550270 1_555
O19 P1 1.550270 1_555
O20 P2 1.550270 1_555
O21 P0 1.550270 1_555
O22 P1 1.550270 1_555
O23 P2 1.550270 1_555
