# generated using pymatgen
data_Na2Ca3Al2F14
_symmetry_space_group_name_H-M   'P 1'
_cell_length_a   8.98290219
_cell_length_b   8.98290219
_cell_length_c   8.98290219
_cell_angle_alpha   109.47122063
_cell_angle_beta   109.47122063
_cell_angle_gamma   109.47122063
_symmetry_Int_Tables_number   1
_chemical_formula_structural   Na2Ca3Al2F14
_chemical_formula_sum   'Na4 Ca6 Al4 F28'
_cell_volume   557.99219292
_cell_formula_units_Z   2
loop_
 _symmetry_equiv_pos_site_id
 _symmetry_equiv_pos_as_xyz
  1  'x, y, z'
loop_
 _atom_site_type_symbol
 _atom_site_label
 _atom_site_symmetry_multiplicity
 _atom_site_fract_x
 _atom_site_fract_y
 _atom_site_fract_z
 _atom_site_occupancy
  Na  Na0  1  0.00000000  0.16967700  0.50000000  1
  Na  Na1  1  0.16967700  0.50000000  0.00000000  1
  Na  Na2  1  0.50000000  0.00000000  0.16967700  1
  Na  Na3  1  0.33032300  0.33032300  0.33032300  1
  Ca  Ca0  1  0.03342100  0.78342100  0.25000000  1
  Ca  Ca1  1  0.78342100  0.25000000  0.03342100  1
  Ca  Ca2  1  0.25000000  0.03342100  0.78342100  1
  Ca  Ca3  1  0.75000000  0.46657900  0.71657900  1
  Ca  Ca4  1  0.71657900  0.75000000  0.46657900  1
  Ca  Ca5  1  0.46657900  0.71657900  0.75000000  1
  Al  Al0  1  0.00000000  0.49640800  0.50000000  1
  Al  Al1  1  0.50000000  0.00000000  0.49640800  1
  Al  Al2  1  0.49640800  0.50000000  0.00000000  1
  Al  Al3  1  0.00359200  0.00359200  0.00359200  1
  F  F0  1  0.57761300  0.57761300  0.57761300  1
  F  F1  1  0.98190700  0.42653100  0.66826000  1
  F  F2  1  0.07346900  0.05537700  0.24172900  1
  F  F3  1  0.32352500  0.00121200  0.55108400  1
  F  F4  1  0.83174000  0.25827100  0.31364800  1
  F  F5  1  0.82231200  0.54987100  0.49878800  1
  F  F6  1  0.24172900  0.07346900  0.05537700  1
  F  F7  1  0.31364800  0.83174000  0.25827100  1
  F  F8  1  0.94891600  0.95012900  0.77244100  1
  F  F9  1  0.55108400  0.32352500  0.00121200  1
  F  F10  1  0.50000000  0.00000000  0.92238700  1
  F  F11  1  0.00000000  0.92238700  0.50000000  1
  F  F12  1  0.72755900  0.67768800  0.17647500  1
  F  F13  1  0.42653100  0.66826000  0.98190700  1
  F  F14  1  0.66826000  0.98190700  0.42653100  1
  F  F15  1  0.00121300  0.55108400  0.32352500  1
  F  F16  1  0.67768800  0.17647500  0.72755900  1
  F  F17  1  0.77244100  0.94891600  0.95012900  1
  F  F18  1  0.18635200  0.44462300  0.51809300  1
  F  F19  1  0.25827100  0.31364800  0.83174000  1
  F  F20  1  0.17647500  0.72755900  0.67768800  1
  F  F21  1  0.92238700  0.50000000  0.00000000  1
  F  F22  1  0.44462300  0.51809300  0.18635200  1
  F  F23  1  0.51809300  0.18635200  0.44462300  1
  F  F24  1  0.54987100  0.49878800  0.82231200  1
  F  F25  1  0.49878800  0.82231200  0.54987100  1
  F  F26  1  0.05537700  0.24172900  0.07346900  1
  F  F27  1  0.95012900  0.77244100  0.94891600  1
loop_
_geom_bond_atom_site_label_1
_geom_bond_atom_site_label_2
_geom_bond_distance
_geom_bond_site_symmetry_2
Ca0 F12 2.349370 1_455
Ca0 F15 2.349370 1_555
Ca0 F11 2.349916 1_555
Ca0 F21 2.349916 1_455
Ca0 F7 2.378211 1_555
Ca0 F2 2.378211 1_565
Ca0 F3 2.511640 1_565
Ca0 F27 2.511640 1_454
Ca1 F9 2.349370 1_555
Ca1 F16 2.349370 1_554
Ca1 F21 2.349916 1_555
Ca1 F10 2.349916 1_554
Ca1 F26 2.378211 1_655
Ca1 F4 2.378211 1_555
Ca1 F17 2.511640 1_544
Ca1 F15 2.511640 1_655
Ca2 F3 2.349370 1_555
Ca2 F20 2.349370 1_545
Ca2 F10 2.349916 1_555
Ca2 F11 2.349916 1_545
Ca2 F19 2.378211 1_555
Ca2 F6 2.378211 1_556
Ca2 F9 2.511640 1_556
Ca2 F8 2.511640 1_445
Ca3 F27 2.349370 1_555
Ca3 F24 2.349373 1_555
Ca3 F0 2.349916 1_555
Ca3 F21 2.349916 1_556
Ca3 F1 2.378202 1_555
Ca3 F23 2.378210 1_555
Ca3 F5 2.511632 1_555
Ca3 F16 2.511640 1_555
Ca4 F8 2.349370 1_555
Ca4 F5 2.349373 1_555
Ca4 F0 2.349916 1_555
Ca4 F11 2.349916 1_655
Ca4 F14 2.378202 1_555
Ca4 F22 2.378210 1_555
Ca4 F25 2.511632 1_555
Ca4 F12 2.511640 1_555
Ca5 F17 2.349370 1_555
Ca5 F25 2.349373 1_555
Ca5 F0 2.349916 1_555
Ca5 F10 2.349916 1_565
Ca5 F13 2.378202 1_555
Ca5 F18 2.378210 1_555
Ca5 F24 2.511632 1_555
Ca5 F20 2.511640 1_555
Al0 F20 1.811464 1_555
Al0 F15 1.811464 1_555
Al0 F5 1.811466 1_455
Al0 F18 1.852885 1_555
Al0 F4 1.852886 1_455
Al0 F1 1.852888 1_455
Al1 F3 1.811462 1_555
Al1 F16 1.811464 1_555
Al1 F25 1.811466 1_545
Al1 F23 1.852885 1_555
Al1 F7 1.852886 1_545
Al1 F14 1.852888 1_545
Al2 F9 1.811462 1_555
Al2 F12 1.811464 1_555
Al2 F24 1.811466 1_554
Al2 F22 1.852885 1_555
Al2 F19 1.852886 1_554
Al2 F13 1.852888 1_554
Al3 F27 1.811464 1_444
Al3 F8 1.811464 1_444
Al3 F17 1.811464 1_444
Al3 F2 1.852886 1_555
Al3 F6 1.852886 1_555
Al3 F26 1.852886 1_555
F0 Na3 2.221382 1_555
F1 Na0 2.392360 1_655
F1 Na1 2.599370 1_656
F2 Na3 2.392354 1_555
F2 Na0 2.599369 1_555
F4 Na0 2.392354 1_655
F4 Na2 2.599369 1_555
F6 Na3 2.392354 1_555
F6 Na2 2.599369 1_555
F7 Na2 2.392354 1_565
F7 Na1 2.599369 1_555
F10 Na2 2.221382 1_556
F11 Na0 2.221382 1_565
F13 Na1 2.392360 1_556
F13 Na2 2.599370 1_566
F14 Na2 2.392360 1_565
F14 Na0 2.599370 1_665
F18 Na0 2.392350 1_555
F18 Na3 2.599375 1_555
F19 Na1 2.392354 1_556
F19 Na0 2.599369 1_555
F21 Na1 2.221382 1_655
F22 Na1 2.392350 1_555
F22 Na3 2.599375 1_555
F23 Na2 2.392350 1_555
F23 Na3 2.599375 1_555
F26 Na3 2.392354 1_555
F26 Na1 2.599369 1_555
