# generated using pymatgen
data_Lu14(InCo)3
_symmetry_space_group_name_H-M   'P 1'
_cell_length_a   9.34036400
_cell_length_b   9.34036400
_cell_length_c   22.76693200
_cell_angle_alpha   90.00000000
_cell_angle_beta   90.00000000
_cell_angle_gamma   90.00000000
_symmetry_Int_Tables_number   1
_chemical_formula_structural   Lu14(InCo)3
_chemical_formula_sum   'Lu56 In12 Co12'
_cell_volume   1986.24178041
_cell_formula_units_Z   4
loop_
 _symmetry_equiv_pos_site_id
 _symmetry_equiv_pos_as_xyz
  1  'x, y, z'
loop_
 _atom_site_type_symbol
 _atom_site_label
 _atom_site_symmetry_multiplicity
 _atom_site_fract_x
 _atom_site_fract_y
 _atom_site_fract_z
 _atom_site_occupancy
  Lu  Lu0  1  0.31640800  0.81641800  0.35486100  1
  Lu  Lu1  1  0.31641800  0.81640800  0.85486100  1
  Lu  Lu2  1  0.30975100  0.69024900  0.50000000  1
  Lu  Lu3  1  0.18359200  0.68358200  0.14513900  1
  Lu  Lu4  1  0.18358200  0.68359200  0.64513900  1
  Lu  Lu5  1  0.31641800  0.18359200  0.85486100  1
  Lu  Lu6  1  0.50000000  0.50000000  0.60448700  1
  Lu  Lu7  1  0.50000000  0.30883100  0.73411400  1
  Lu  Lu8  1  0.80975100  0.80975100  0.00000000  1
  Lu  Lu9  1  0.80975100  0.19024900  0.00000000  1
  Lu  Lu10  1  0.68358200  0.81640800  0.85486100  1
  Lu  Lu11  1  0.81641800  0.68359200  0.64513900  1
  Lu  Lu12  1  0.19116900  0.00000000  0.23411400  1
  Lu  Lu13  1  0.00000000  0.31142800  0.28073300  1
  Lu  Lu14  1  0.00000000  0.50000000  0.53655300  1
  Lu  Lu15  1  0.19024900  0.19024900  0.00000000  1
  Lu  Lu16  1  0.00000000  0.50000000  0.03655300  1
  Lu  Lu17  1  0.19024900  0.80975100  0.00000000  1
  Lu  Lu18  1  0.00000000  0.80883100  0.76588600  1
  Lu  Lu19  1  0.00000000  0.00000000  0.10448700  1
  Lu  Lu20  1  0.18359200  0.31641800  0.14513900  1
  Lu  Lu21  1  0.00000000  0.19116900  0.76588600  1
  Lu  Lu22  1  0.68359200  0.81641800  0.35486100  1
  Lu  Lu23  1  0.69861300  0.50000000  0.94711200  1
  Lu  Lu24  1  0.81640800  0.31641800  0.14513900  1
  Lu  Lu25  1  0.18358200  0.31640800  0.64513900  1
  Lu  Lu26  1  0.68358200  0.18359200  0.85486100  1
  Lu  Lu27  1  0.31640800  0.18358200  0.35486100  1
  Lu  Lu28  1  0.30975100  0.30975100  0.50000000  1
  Lu  Lu29  1  0.68857200  0.00000000  0.71926700  1
  Lu  Lu30  1  0.81641800  0.31640800  0.64513900  1
  Lu  Lu31  1  0.69116900  0.50000000  0.26588600  1
  Lu  Lu32  1  0.50000000  0.18857200  0.21926700  1
  Lu  Lu33  1  0.30138700  0.50000000  0.94711200  1
  Lu  Lu34  1  0.18857200  0.50000000  0.78073300  1
  Lu  Lu35  1  0.00000000  0.68857200  0.28073300  1
  Lu  Lu36  1  0.50000000  0.00000000  0.46344700  1
  Lu  Lu37  1  0.69024900  0.30975100  0.50000000  1
  Lu  Lu38  1  0.00000000  0.80138700  0.44711200  1
  Lu  Lu39  1  0.19861300  0.00000000  0.55288800  1
  Lu  Lu40  1  0.50000000  0.69861300  0.05288800  1
  Lu  Lu41  1  0.50000000  0.81142800  0.21926700  1
  Lu  Lu42  1  0.00000000  0.19861300  0.44711200  1
  Lu  Lu43  1  0.00000000  0.00000000  0.89551300  1
  Lu  Lu44  1  0.50000000  0.69116900  0.73411400  1
  Lu  Lu45  1  0.80138700  0.00000000  0.55288800  1
  Lu  Lu46  1  0.50000000  0.50000000  0.39551300  1
  Lu  Lu47  1  0.81142800  0.50000000  0.78073300  1
  Lu  Lu48  1  0.50000000  0.30138700  0.05288800  1
  Lu  Lu49  1  0.68359200  0.18358200  0.35486100  1
  Lu  Lu50  1  0.30883100  0.50000000  0.26588600  1
  Lu  Lu51  1  0.80883100  0.00000000  0.23411400  1
  Lu  Lu52  1  0.69024900  0.69024900  0.50000000  1
  Lu  Lu53  1  0.50000000  0.00000000  0.96344700  1
  Lu  Lu54  1  0.31142800  0.00000000  0.71926700  1
  Lu  Lu55  1  0.81640800  0.68358200  0.14513900  1
  In  In0  1  0.00000000  0.00000000  0.65653500  1
  In  In1  1  0.50000000  0.50000000  0.84346500  1
  In  In2  1  0.50000000  0.50000000  0.15653500  1
  In  In3  1  0.50000000  0.83980000  0.60468100  1
  In  In4  1  0.16020000  0.50000000  0.39531900  1
  In  In5  1  0.66020000  0.00000000  0.10468100  1
  In  In6  1  0.00000000  0.00000000  0.34346500  1
  In  In7  1  0.33980000  0.00000000  0.10468100  1
  In  In8  1  0.50000000  0.16020000  0.60468100  1
  In  In9  1  0.00000000  0.33980000  0.89531900  1
  In  In10  1  0.83980000  0.50000000  0.39531900  1
  In  In11  1  0.00000000  0.66020000  0.89531900  1
  Co  Co0  1  0.00000000  0.21875700  0.56194000  1
  Co  Co1  1  0.50000000  0.00000000  0.80122600  1
  Co  Co2  1  0.28124300  0.50000000  0.06194000  1
  Co  Co3  1  0.50000000  0.28124300  0.93806000  1
  Co  Co4  1  0.00000000  0.78124300  0.56194000  1
  Co  Co5  1  0.71875700  0.50000000  0.06194000  1
  Co  Co6  1  0.50000000  0.00000000  0.30122600  1
  Co  Co7  1  0.50000000  0.71875700  0.93806000  1
  Co  Co8  1  0.78124300  0.00000000  0.43806000  1
  Co  Co9  1  0.00000000  0.50000000  0.19877400  1
  Co  Co10  1  0.21875700  0.00000000  0.43806000  1
  Co  Co11  1  0.00000000  0.50000000  0.69877400  1
loop_
_geom_bond_atom_site_label_1
_geom_bond_atom_site_label_2
_geom_bond_distance
_geom_bond_site_symmetry_2
Lu0 Lu2 3.508775 1_555
Lu1 Lu17 3.508775 1_556
Lu2 Lu39 3.301207 1_565
Lu2 Lu38 3.301207 1_555
Lu2 Lu6 3.460396 1_555
Lu2 Lu46 3.460396 1_555
Lu2 Lu36 3.495826 1_565
Lu2 Lu4 3.508775 1_555
Lu2 Lu52 3.553990 1_555
Lu2 Lu28 3.553990 1_555
Lu8 Lu9 3.553990 1_565
Lu10 Lu8 3.508775 1_556
Lu11 Lu52 3.508775 1_555
Lu14 Lu37 3.495826 1_455
Lu14 Lu52 3.495826 1_455
Lu14 Lu2 3.495826 1_555
Lu14 Lu28 3.495826 1_555
Lu15 Lu48 3.301207 1_555
Lu15 Lu33 3.301207 1_554
Lu15 Lu19 3.460396 1_555
Lu15 Lu43 3.460396 1_554
Lu15 Lu16 3.495826 1_555
Lu15 Lu53 3.495826 1_554
Lu15 Lu20 3.508775 1_555
Lu15 Lu5 3.508775 1_554
Lu15 Lu17 3.553990 1_545
Lu15 Lu9 3.553990 1_455
Lu16 Lu8 3.495826 1_455
Lu16 Lu17 3.495826 1_555
Lu16 Lu9 3.495826 1_455
Lu17 Lu33 3.301207 1_554
Lu17 Lu40 3.301207 1_555
Lu17 Lu19 3.460396 1_565
Lu17 Lu43 3.460396 1_564
Lu17 Lu53 3.495826 1_564
Lu17 Lu3 3.508775 1_555
Lu17 Lu8 3.553990 1_455
Lu19 Lu8 3.460396 1_445
Lu19 Lu9 3.460396 1_455
Lu22 Lu52 3.508775 1_555
Lu23 Lu9 3.301207 1_556
Lu23 Lu8 3.301207 1_556
Lu24 Lu9 3.508775 1_555
Lu25 Lu28 3.508775 1_555
Lu26 Lu9 3.508775 1_556
Lu27 Lu28 3.508775 1_555
Lu28 Lu39 3.301207 1_555
Lu28 Lu42 3.301207 1_555
Lu28 Lu6 3.460396 1_555
Lu28 Lu46 3.460396 1_555
Lu28 Lu36 3.495826 1_555
Lu28 Lu37 3.553990 1_555
Lu30 Lu37 3.508775 1_555
Lu36 Lu52 3.495826 1_545
Lu36 Lu37 3.495826 1_555
Lu37 Lu45 3.301207 1_555
Lu37 Lu42 3.301207 1_655
Lu37 Lu6 3.460396 1_555
Lu37 Lu46 3.460396 1_555
Lu37 Lu49 3.508775 1_555
Lu37 Lu52 3.553990 1_555
Lu38 Lu52 3.301207 1_455
Lu40 Lu8 3.301207 1_555
Lu43 Lu9 3.460396 1_456
Lu43 Lu8 3.460396 1_446
Lu45 Lu52 3.301207 1_545
Lu46 Lu52 3.460396 1_555
Lu48 Lu9 3.301207 1_555
Lu52 Lu6 3.460396 1_555
Lu53 Lu8 3.495826 1_546
Lu53 Lu9 3.495826 1_556
Lu55 Lu8 3.508775 1_555
In0 Lu39 3.001626 1_555
In0 Lu45 3.001626 1_455
In0 Lu21 3.063718 1_555
In0 Lu18 3.063718 1_545
In0 Lu54 3.240557 1_555
In0 Lu29 3.240557 1_455
In0 Lu25 3.426628 1_555
In0 Lu30 3.426628 1_455
In0 Lu4 3.426628 1_545
In0 Lu11 3.426628 1_445
In1 Lu23 3.001626 1_555
In1 Lu33 3.001626 1_555
In1 Lu44 3.063718 1_555
In1 Lu7 3.063718 1_555
In1 Lu47 3.240557 1_555
In1 Lu34 3.240557 1_555
In1 Lu10 3.426628 1_555
In1 Lu1 3.426628 1_555
In1 Lu5 3.426628 1_555
In1 Lu26 3.426628 1_555
In2 Lu40 3.001626 1_555
In2 Lu48 3.001626 1_555
In2 Lu31 3.063718 1_555
In2 Lu50 3.063718 1_555
In2 Lu41 3.240557 1_555
In2 Lu32 3.240557 1_555
In2 Lu55 3.426628 1_555
In2 Lu24 3.426628 1_555
In2 Lu3 3.426628 1_555
In2 Lu20 3.426628 1_555
In3 In8 2.992653 1_565
In3 Lu6 3.173859 1_555
In3 Lu44 3.257433 1_555
In3 Lu52 3.284644 1_555
In3 Lu2 3.284644 1_555
In3 Lu45 3.399120 1_565
In3 Lu39 3.399120 1_565
In3 Lu4 3.422276 1_555
In3 Lu11 3.422276 1_555
In3 Lu29 3.485250 1_565
In3 Lu54 3.485250 1_565
In3 Lu36 3.546577 1_565
In4 Lu46 3.173859 1_555
In4 Lu50 3.257433 1_555
In4 Lu2 3.284644 1_555
In4 Lu28 3.284644 1_555
In4 Lu38 3.399120 1_555
In4 Lu42 3.399120 1_555
In4 Lu27 3.422276 1_555
In4 Lu0 3.422276 1_555
In4 Lu35 3.485250 1_555
In4 Lu13 3.485250 1_555
In4 Lu14 3.546577 1_555
In5 In7 2.992653 1_555
In5 Lu19 3.173859 1_655
In5 Lu51 3.257433 1_555
In5 Lu9 3.284644 1_555
In5 Lu8 3.284644 1_545
In5 Lu48 3.399120 1_555
In5 Lu40 3.399120 1_545
In5 Lu55 3.422276 1_545
In5 Lu24 3.422276 1_555
In5 Lu32 3.485250 1_555
In5 Lu41 3.485250 1_545
In5 Lu53 3.546577 1_554
In6 Lu42 3.001626 1_555
In6 Lu38 3.001626 1_545
In6 Lu12 3.063718 1_555
In6 Lu51 3.063718 1_455
In6 Lu13 3.240557 1_555
In6 Lu35 3.240557 1_545
In6 Lu0 3.426628 1_545
In6 Lu27 3.426628 1_555
In6 Lu22 3.426628 1_445
In6 Lu49 3.426628 1_455
In7 Lu19 3.173859 1_555
In7 Lu12 3.257433 1_555
In7 Lu17 3.284644 1_545
In7 Lu15 3.284644 1_555
In7 Lu48 3.399120 1_555
In7 Lu40 3.399120 1_545
In7 Lu3 3.422276 1_545
In7 Lu20 3.422276 1_555
In7 Lu32 3.485250 1_555
In7 Lu41 3.485250 1_545
In7 Lu53 3.546577 1_554
In8 Lu6 3.173859 1_555
In8 Lu7 3.257433 1_555
In8 Lu37 3.284644 1_555
In8 Lu28 3.284644 1_555
In8 Lu45 3.399120 1_555
In8 Lu39 3.399120 1_555
In8 Lu30 3.422276 1_555
In8 Lu25 3.422276 1_555
In8 Lu29 3.485250 1_555
In8 Lu54 3.485250 1_555
In8 Lu36 3.546577 1_555
In9 Lu43 3.173859 1_555
In9 Lu21 3.257433 1_555
In9 Lu15 3.284644 1_556
In9 Lu9 3.284644 1_456
In9 Lu33 3.399120 1_555
In9 Lu23 3.399120 1_455
In9 Lu5 3.422276 1_555
In9 Lu26 3.422276 1_455
In9 Lu34 3.485250 1_555
In9 Lu47 3.485250 1_455
In9 Lu16 3.546577 1_556
In10 In4 2.992653 1_655
In10 Lu46 3.173859 1_555
In10 Lu31 3.257433 1_555
In10 Lu52 3.284644 1_555
In10 Lu37 3.284644 1_555
In10 Lu38 3.399120 1_655
In10 Lu42 3.399120 1_655
In10 Lu22 3.422276 1_555
In10 Lu49 3.422276 1_555
In10 Lu35 3.485250 1_655
In10 Lu13 3.485250 1_655
In10 Lu14 3.546577 1_655
In11 In9 2.992653 1_555
In11 Lu43 3.173859 1_565
In11 Lu18 3.257433 1_555
In11 Lu17 3.284644 1_556
In11 Lu8 3.284644 1_456
In11 Lu33 3.399120 1_555
In11 Lu23 3.399120 1_455
In11 Lu1 3.422276 1_555
In11 Lu10 3.422276 1_455
In11 Lu34 3.485250 1_555
In11 Lu47 3.485250 1_455
In11 Lu16 3.546577 1_556
Co0 Lu42 2.621043 1_555
Co0 Lu14 2.689746 1_555
Co0 Lu25 2.712957 1_555
Co0 Lu30 2.712957 1_455
Co0 Lu39 2.767469 1_555
Co0 Lu45 2.767469 1_455
Co0 In0 2.968688 1_555
Co0 Lu28 3.328890 1_555
Co0 Lu37 3.328890 1_455
Co1 Lu29 2.565945 1_555
Co1 Lu54 2.565945 1_555
Co1 Lu5 2.715136 1_555
Co1 Lu26 2.715136 1_555
Co1 Lu10 2.715136 1_545
Co1 Lu1 2.715136 1_545
Co1 Lu7 3.264271 1_555
Co1 Lu44 3.264271 1_545
Co2 Lu33 2.621043 1_554
Co2 Lu16 2.689746 1_555
Co2 Lu20 2.712957 1_555
Co2 Lu3 2.712957 1_555
Co2 Lu40 2.767469 1_555
Co2 Lu48 2.767469 1_555
Co2 In2 2.968688 1_555
Co2 Lu17 3.328890 1_555
Co2 Lu15 3.328890 1_555
Co3 Lu48 2.621043 1_556
Co3 Lu53 2.689746 1_555
Co3 Lu5 2.712957 1_555
Co3 Lu26 2.712957 1_555
Co3 Lu23 2.767469 1_555
Co3 Lu33 2.767469 1_555
Co3 In1 2.968688 1_555
Co3 Lu9 3.328890 1_556
Co3 Lu15 3.328890 1_556
Co4 Lu38 2.621043 1_555
Co4 Lu14 2.689746 1_555
Co4 Lu4 2.712957 1_555
Co4 Lu11 2.712957 1_455
Co4 Lu39 2.767469 1_565
Co4 Lu45 2.767469 1_465
Co4 In0 2.968688 1_565
Co4 Lu2 3.328890 1_555
Co4 Lu52 3.328890 1_455
Co5 Lu23 2.621043 1_554
Co5 Lu16 2.689746 1_655
Co5 Lu24 2.712957 1_555
Co5 Lu55 2.712957 1_555
Co5 Lu40 2.767469 1_555
Co5 Lu48 2.767469 1_555
Co5 In2 2.968688 1_555
Co5 Lu8 3.328890 1_555
Co5 Lu9 3.328890 1_555
Co6 Lu32 2.565945 1_555
Co6 Lu41 2.565945 1_545
Co6 Lu22 2.715136 1_545
Co6 Lu49 2.715136 1_555
Co6 Lu0 2.715136 1_545
Co6 Lu27 2.715136 1_555
Co6 Lu51 3.264271 1_555
Co6 Lu12 3.264271 1_555
Co7 Lu40 2.621043 1_556
Co7 Lu53 2.689746 1_565
Co7 Lu10 2.712957 1_555
Co7 Lu1 2.712957 1_555
Co7 Lu23 2.767469 1_555
Co7 Lu33 2.767469 1_555
Co7 In1 2.968688 1_555
Co7 Lu17 3.328890 1_556
Co7 Lu8 3.328890 1_556
Co8 Lu45 2.621043 1_555
Co8 Lu36 2.689746 1_555
Co8 Lu22 2.712957 1_545
Co8 Lu49 2.712957 1_555
Co8 Lu42 2.767469 1_655
Co8 Lu38 2.767469 1_645
Co8 In6 2.968688 1_655
Co8 Lu52 3.328890 1_545
Co8 Lu37 3.328890 1_555
Co9 Lu35 2.565945 1_555
Co9 Lu13 2.565945 1_555
Co9 Lu3 2.715136 1_555
Co9 Lu20 2.715136 1_555
Co9 Lu55 2.715136 1_455
Co9 Lu24 2.715136 1_455
Co9 Lu50 3.264271 1_555
Co9 Lu31 3.264271 1_455
Co10 Lu39 2.621043 1_555
Co10 Lu36 2.689746 1_555
Co10 Lu27 2.712957 1_555
Co10 Lu0 2.712957 1_545
Co10 Lu42 2.767469 1_555
Co10 Lu38 2.767469 1_545
Co10 In6 2.968688 1_555
Co10 Lu2 3.328890 1_545
Co10 Lu28 3.328890 1_555
Co11 Lu34 2.565945 1_555
Co11 Lu47 2.565945 1_455
Co11 Lu4 2.715136 1_555
Co11 Lu11 2.715136 1_455
Co11 Lu30 2.715136 1_455
Co11 Lu25 2.715136 1_555
Co11 Lu18 3.264271 1_555
Co11 Lu21 3.264271 1_555
