# generated using pymatgen
data_Pr3Sn
_symmetry_space_group_name_H-M   'P 1'
_cell_length_a   4.98284356
_cell_length_b   4.98286876
_cell_length_c   4.98283936
_cell_angle_alpha   90.00000000
_cell_angle_beta   90.00000000
_cell_angle_gamma   90.00000000
_symmetry_Int_Tables_number   1
_chemical_formula_structural   Pr3Sn
_chemical_formula_sum   'Pr3 Sn1'
_cell_volume   123.71819850
_cell_formula_units_Z   1
loop_
 _symmetry_equiv_pos_site_id
 _symmetry_equiv_pos_as_xyz
  1  'x, y, z'
loop_
 _atom_site_type_symbol
 _atom_site_label
 _atom_site_symmetry_multiplicity
 _atom_site_fract_x
 _atom_site_fract_y
 _atom_site_fract_z
 _atom_site_occupancy
  Pr  Pr0  1  0.00000000  0.50000000  0.50000000  1
  Pr  Pr1  1  0.50000000  -0.00000000  0.50000000  1
  Pr  Pr2  1  0.50000000  0.50000000  -0.00000000  1
  Sn  Sn0  1  0.00000000  -0.00000000  0.00000000  1
loop_
_geom_bond_atom_site_label_1
_geom_bond_atom_site_label_2
_geom_bond_distance
_geom_bond_site_symmetry_2
Pr0 Sn0 3.523410 1_565
Pr0 Sn0 3.523410 1_556
Pr0 Sn0 3.523410 1_566
Pr0 Sn0 3.523410 1_555
Pr1 Sn0 3.523401 1_556
Pr1 Sn0 3.523401 1_656
Pr1 Sn0 3.523401 1_555
Pr1 Sn0 3.523401 1_655
Pr2 Sn0 3.523411 1_665
Pr2 Sn0 3.523411 1_565
Pr2 Sn0 3.523411 1_655
Pr2 Sn0 3.523411 1_555
