# generated using pymatgen
data_V2Zn3TeO10
_symmetry_space_group_name_H-M   'P 1'
_cell_length_a   30.85591100
_cell_length_b   5.34145500
_cell_length_c   5.64010993
_cell_angle_alpha   81.45023495
_cell_angle_beta   90.00000000
_cell_angle_gamma   90.00000000
_symmetry_Int_Tables_number   1
_chemical_formula_structural   V2Zn3TeO10
_chemical_formula_sum   'V8 Zn12 Te4 O40'
_cell_volume   919.24702120
_cell_formula_units_Z   4
loop_
 _symmetry_equiv_pos_site_id
 _symmetry_equiv_pos_as_xyz
  1  'x, y, z'
loop_
 _atom_site_type_symbol
 _atom_site_label
 _atom_site_symmetry_multiplicity
 _atom_site_fract_x
 _atom_site_fract_y
 _atom_site_fract_z
 _atom_site_occupancy
  V  V0  1  0.44447100  0.75244300  0.21808900  1
  V  V1  1  0.20529000  0.92954300  0.72762900  1
  V  V2  1  0.05552900  0.75244300  0.71808900  1
  V  V3  1  0.79471000  0.07045700  0.27237100  1
  V  V4  1  0.29471000  0.92954300  0.22762900  1
  V  V5  1  0.70529000  0.07045700  0.77237100  1
  V  V6  1  0.55552900  0.24755700  0.78191100  1
  V  V7  1  0.94447100  0.24755700  0.28191100  1
  Zn  Zn0  1  0.87031200  0.22023700  0.73189000  1
  Zn  Zn1  1  0.05792400  0.30558500  0.35716500  1
  Zn  Zn2  1  0.12968800  0.77976300  0.26811000  1
  Zn  Zn3  1  0.72683600  0.57890800  0.27948100  1
  Zn  Zn4  1  0.62968800  0.22023700  0.23189000  1
  Zn  Zn5  1  0.94207600  0.69441500  0.64283500  1
  Zn  Zn6  1  0.44207600  0.30558500  0.85716500  1
  Zn  Zn7  1  0.55792400  0.69441500  0.14283500  1
  Zn  Zn8  1  0.27316400  0.42109200  0.72051900  1
  Zn  Zn9  1  0.22683600  0.42109200  0.22051900  1
  Zn  Zn10  1  0.77316400  0.57890800  0.77948100  1
  Zn  Zn11  1  0.37031200  0.77976300  0.76811000  1
  Te  Te0  1  0.13094200  0.32966100  0.93125800  1
  Te  Te1  1  0.86905800  0.67033900  0.06874200  1
  Te  Te2  1  0.36905800  0.32966100  0.43125800  1
  Te  Te3  1  0.63094200  0.67033900  0.56874200  1
  O  O0  1  0.90053800  0.88304100  0.82687200  1
  O  O1  1  0.00189000  0.68278200  0.73763600  1
  O  O2  1  0.59946200  0.88304100  0.32687200  1
  O  O3  1  0.56494000  0.92865400  0.83196800  1
  O  O4  1  0.76040000  0.31229500  0.14497400  1
  O  O5  1  0.26896200  0.20133300  0.06777600  1
  O  O6  1  0.49811000  0.68278200  0.23763600  1
  O  O7  1  0.66424000  0.51308700  0.34113800  1
  O  O8  1  0.83181000  0.18272000  0.45105800  1
  O  O9  1  0.82476900  0.96754900  0.02765000  1
  O  O10  1  0.99811000  0.31721800  0.26236400  1
  O  O11  1  0.16424000  0.48691300  0.15886200  1
  O  O12  1  0.92049100  0.38624400  0.51686400  1
  O  O13  1  0.23103800  0.20133300  0.56777600  1
  O  O14  1  0.66819000  0.18272000  0.95105800  1
  O  O15  1  0.08506600  0.60816900  0.98435100  1
  O  O16  1  0.41493400  0.60816900  0.48435100  1
  O  O17  1  0.23960000  0.68770500  0.85502600  1
  O  O18  1  0.33181000  0.81728000  0.04894200  1
  O  O19  1  0.91493400  0.39183100  0.01564900  1
  O  O20  1  0.32476900  0.03245100  0.47235000  1
  O  O21  1  0.42049100  0.61375600  0.98313600  1
  O  O22  1  0.73103800  0.79866700  0.93222400  1
  O  O23  1  0.07950900  0.61375600  0.48313600  1
  O  O24  1  0.17523100  0.03245100  0.97235000  1
  O  O25  1  0.26040000  0.68770500  0.35502600  1
  O  O26  1  0.76896200  0.79866700  0.43222400  1
  O  O27  1  0.06494000  0.07134600  0.66803200  1
  O  O28  1  0.67523100  0.96754900  0.52765000  1
  O  O29  1  0.83576000  0.51308700  0.84113800  1
  O  O30  1  0.58506600  0.39183100  0.51564900  1
  O  O31  1  0.73960000  0.31229500  0.64497400  1
  O  O32  1  0.57950900  0.38624400  0.01686400  1
  O  O33  1  0.16819000  0.81728000  0.54894200  1
  O  O34  1  0.43506000  0.07134600  0.16803200  1
  O  O35  1  0.33576000  0.48691300  0.65886200  1
  O  O36  1  0.93506000  0.92865400  0.33196800  1
  O  O37  1  0.50189000  0.31721800  0.76236400  1
  O  O38  1  0.09946200  0.11695900  0.17312800  1
  O  O39  1  0.40053800  0.11695900  0.67312800  1
loop_
_geom_bond_atom_site_label_1
_geom_bond_atom_site_label_2
_geom_bond_distance
_geom_bond_site_symmetry_2
O0 Te1 1.906423 1_556
O0 Zn5 2.011529 1_555
O0 Zn0 2.028288 1_565
O1 V2 1.696378 1_555
O1 Zn5 1.919940 1_455
O2 Te3 1.906423 1_555
O2 Zn7 2.011529 1_555
O2 Zn4 2.028288 1_565
O3 V6 1.709570 1_565
O3 Zn7 2.008527 1_556
O4 V3 1.740616 1_555
O4 Zn3 1.999348 1_555
O4 Zn10 2.357912 1_554
O5 V4 1.778333 1_545
O5 Zn9 2.027387 1_555
O5 Zn8 2.132392 1_554
O6 V0 1.696378 1_555
O6 Zn7 1.919940 1_555
O7 Te3 1.931238 1_555
O7 Zn3 1.984619 1_555
O7 Zn4 2.061493 1_555
O8 V3 1.692755 1_555
O8 Zn0 2.013635 1_555
O9 V3 1.814686 1_565
O9 Te1 2.081373 1_555
O9 Zn0 2.430988 1_564
O10 V7 1.696378 1_555
O10 Zn1 1.919940 1_655
O11 Te0 1.931238 1_554
O11 Zn9 1.984619 1_555
O11 Zn2 2.061493 1_555
O12 V7 1.773188 1_555
O12 Zn5 2.001428 1_555
O12 Zn0 2.081975 1_555
O13 V1 1.778333 1_545
O13 Zn8 2.027387 1_555
O13 Zn9 2.132392 1_555
O14 V5 1.692755 1_555
O14 Zn4 2.013635 1_556
O15 V2 1.826375 1_555
O15 Te0 2.106885 1_555
O15 Zn2 2.394442 1_556
O16 V0 1.826375 1_555
O16 Te2 2.106885 1_555
O16 Zn11 2.394442 1_555
O17 V1 1.740616 1_555
O17 Zn8 1.999348 1_555
O17 Zn9 2.357912 1_556
O18 V4 1.692755 1_555
O18 Zn11 2.013635 1_554
O19 V7 1.826375 1_555
O19 Te1 2.106885 1_555
O19 Zn0 2.394442 1_554
O20 V4 1.814686 1_545
O20 Te2 2.081373 1_555
O20 Zn11 2.430988 1_545
O21 V0 1.773188 1_556
O21 Zn6 2.001428 1_555
O21 Zn11 2.081975 1_555
O22 V5 1.778333 1_565
O22 Zn10 2.027387 1_555
O22 Zn3 2.132392 1_556
O23 V2 1.773188 1_555
O23 Zn1 2.001428 1_555
O23 Zn2 2.081975 1_555
O24 V1 1.814686 1_545
O24 Te0 2.081373 1_555
O24 Zn2 2.430988 1_546
O25 V4 1.740616 1_555
O25 Zn9 1.999348 1_555
O25 Zn8 2.357912 1_555
O26 V3 1.778333 1_565
O26 Zn3 2.027387 1_555
O26 Zn10 2.132392 1_555
O27 V2 1.709570 1_545
O27 Zn1 2.008527 1_555
O28 V5 1.814686 1_565
O28 Te3 2.081373 1_555
O28 Zn4 2.430988 1_565
O29 Te1 1.931238 1_556
O29 Zn10 1.984619 1_555
O29 Zn0 2.061493 1_555
O30 V6 1.826375 1_555
O30 Te3 2.106885 1_555
O30 Zn4 2.394442 1_555
O31 V5 1.740616 1_555
O31 Zn10 1.999348 1_555
O31 Zn3 2.357912 1_555
O32 V6 1.773188 1_554
O32 Zn7 2.001428 1_555
O32 Zn4 2.081975 1_555
O33 V1 1.692755 1_555
O33 Zn2 2.013635 1_555
O34 V0 1.709570 1_545
O34 Zn6 2.008527 1_554
O35 Te2 1.931238 1_555
O35 Zn8 1.984619 1_555
O35 Zn11 2.061493 1_555
O36 V7 1.709570 1_565
O36 Zn5 2.008527 1_555
O37 V6 1.696378 1_555
O37 Zn6 1.919940 1_555
O38 Te0 1.906423 1_554
O38 Zn1 2.011529 1_555
O38 Zn2 2.028288 1_545
O39 Te2 1.906423 1_555
O39 Zn6 2.011529 1_555
O39 Zn11 2.028288 1_545
