# generated using pymatgen
data_Cs4NaHf3H2F19
_symmetry_space_group_name_H-M   'P 1'
_cell_length_a   6.98446600
_cell_length_b   11.62983700
_cell_length_c   13.47003511
_cell_angle_alpha   69.32634624
_cell_angle_beta   90.00000000
_cell_angle_gamma   90.00000000
_symmetry_Int_Tables_number   1
_chemical_formula_structural   Cs4NaHf3H2F19
_chemical_formula_sum   'Cs8 Na2 Hf6 H4 F38'
_cell_volume   1023.69075120
_cell_formula_units_Z   2
loop_
 _symmetry_equiv_pos_site_id
 _symmetry_equiv_pos_as_xyz
  1  'x, y, z'
loop_
 _atom_site_type_symbol
 _atom_site_label
 _atom_site_symmetry_multiplicity
 _atom_site_fract_x
 _atom_site_fract_y
 _atom_site_fract_z
 _atom_site_occupancy
  Cs  Cs0  1  0.25000000  0.35618200  0.42675200  1
  Cs  Cs1  1  0.75000000  0.47598500  0.92806300  1
  Cs  Cs2  1  0.75000000  0.64381800  0.57324800  1
  Cs  Cs3  1  0.75000000  0.02985200  0.58366000  1
  Cs  Cs4  1  0.25000000  0.97014800  0.41634000  1
  Cs  Cs5  1  0.25000000  0.52401500  0.07193700  1
  Cs  Cs6  1  0.25000000  0.13722200  0.07590800  1
  Cs  Cs7  1  0.75000000  0.86277800  0.92409200  1
  Na  Na0  1  0.25000000  0.73634000  0.25045900  1
  Na  Na1  1  0.75000000  0.26366000  0.74954100  1
  Hf  Hf0  1  0.75000000  0.91597300  0.24552500  1
  Hf  Hf1  1  0.75000000  0.59435800  0.25245200  1
  Hf  Hf2  1  0.25000000  0.08402700  0.75447500  1
  Hf  Hf3  1  0.75000000  0.23009000  0.25097200  1
  Hf  Hf4  1  0.25000000  0.40564200  0.74754800  1
  Hf  Hf5  1  0.25000000  0.76991000  0.74902800  1
  H  H0  1  0.75000000  0.37605500  0.49598800  1
  H  H1  1  0.25000000  0.86893000  0.99805000  1
  H  H2  1  0.25000000  0.62394500  0.50401200  1
  H  H3  1  0.75000000  0.13107000  0.00195000  1
  F  F0  1  0.94480100  0.19874600  0.36920800  1
  F  F1  1  0.25000000  0.28321000  0.65950200  1
  F  F2  1  0.75000000  0.71679000  0.34049800  1
  F  F3  1  0.25000000  0.51163500  0.58414900  1
  F  F4  1  0.25000000  0.98049000  0.91675900  1
  F  F5  1  0.03638800  0.58469100  0.25877800  1
  F  F6  1  0.25000000  0.70075500  0.43876600  1
  F  F7  1  0.25000000  0.21649000  0.84316300  1
  F  F8  1  0.75000000  0.21086500  0.93997100  1
  F  F9  1  0.97131700  0.12378200  0.75902100  1
  F  F10  1  0.44605700  0.68260700  0.86171500  1
  F  F11  1  0.75000000  0.78351000  0.15683700  1
  F  F12  1  0.58234600  0.08261400  0.23673000  1
  F  F13  1  0.94605700  0.31739300  0.13828500  1
  F  F14  1  0.02868300  0.87621800  0.24097900  1
  F  F15  1  0.75000000  0.29924500  0.56123400  1
  F  F16  1  0.52868300  0.12378200  0.75902100  1
  F  F17  1  0.05394300  0.68260700  0.86171500  1
  F  F18  1  0.25000000  0.59306100  0.73363300  1
  F  F19  1  0.44480100  0.80125400  0.63079200  1
  F  F20  1  0.08234600  0.91738600  0.76327000  1
  F  F21  1  0.75000000  0.90721900  0.39677400  1
  F  F22  1  0.75000000  0.48836500  0.41585100  1
  F  F23  1  0.46361200  0.58469100  0.25877800  1
  F  F24  1  0.55519900  0.19874600  0.36920800  1
  F  F25  1  0.96361200  0.41530900  0.74122200  1
  F  F26  1  0.91765400  0.08261400  0.23673000  1
  F  F27  1  0.75000000  0.01951000  0.08324100  1
  F  F28  1  0.05519900  0.80125400  0.63079200  1
  F  F29  1  0.53638800  0.41530900  0.74122200  1
  F  F30  1  0.25000000  0.78913500  0.06002900  1
  F  F31  1  0.47131700  0.87621800  0.24097900  1
  F  F32  1  0.41765400  0.91738600  0.76327000  1
  F  F33  1  0.25000000  0.39997000  0.89842300  1
  F  F34  1  0.55394300  0.31739300  0.13828500  1
  F  F35  1  0.75000000  0.40693900  0.26636700  1
  F  F36  1  0.75000000  0.60003000  0.10157700  1
  F  F37  1  0.25000000  0.09278100  0.60322600  1
loop_
_geom_bond_atom_site_label_1
_geom_bond_atom_site_label_2
_geom_bond_distance
_geom_bond_site_symmetry_2
Cs0 F1 2.944609 1_555
Cs0 F24 3.082083 1_555
Cs0 F0 3.082083 1_455
Cs0 F37 3.145299 1_555
Cs0 F23 3.187811 1_555
Cs0 F5 3.187811 1_555
Cs0 F3 3.235725 1_555
Cs1 F8 3.030392 1_555
Cs1 F10 3.092454 1_555
Cs1 F17 3.092454 1_655
Cs1 F13 3.099629 1_556
Cs1 F34 3.099629 1_556
Cs1 F36 3.150335 1_556
Cs1 F25 3.211221 1_555
Cs1 F29 3.211221 1_555
Cs2 F2 2.944609 1_555
Cs2 F19 3.082083 1_555
Cs2 F28 3.082083 1_655
Cs2 F21 3.145299 1_555
Cs2 F25 3.187811 1_555
Cs2 F29 3.187811 1_555
Cs2 F22 3.235725 1_555
Cs3 F15 3.039518 1_555
Cs3 F0 3.169767 1_555
Cs3 F24 3.169767 1_555
Cs3 F20 3.273822 1_645
Cs3 F32 3.273822 1_545
Cs3 F28 3.289858 1_645
Cs3 F19 3.289858 1_545
Cs3 F21 3.302454 1_545
Cs3 F9 3.314261 1_555
Cs3 F16 3.314261 1_555
Cs3 F37 3.596798 1_655
Cs3 F37 3.596798 1_555
Cs4 F6 3.039518 1_555
Cs4 F19 3.169767 1_555
Cs4 F28 3.169767 1_555
Cs4 F12 3.273822 1_565
Cs4 F26 3.273822 1_465
Cs4 F0 3.289858 1_465
Cs4 F24 3.289858 1_565
Cs4 F37 3.302454 1_565
Cs4 F14 3.314261 1_555
Cs4 F31 3.314261 1_555
Cs4 F21 3.596798 1_455
Cs4 F21 3.596798 1_555
Cs5 F30 3.030392 1_555
Cs5 F34 3.092454 1_555
Cs5 F13 3.092454 1_455
Cs5 F10 3.099629 1_554
Cs5 F17 3.099629 1_554
Cs5 F33 3.150335 1_554
Cs5 F23 3.211221 1_555
Cs5 F5 3.211221 1_555
Cs6 F7 2.939029 1_554
Cs6 F12 3.084303 1_555
Cs6 F26 3.084303 1_455
Cs6 F33 3.145589 1_554
Cs6 F4 3.267597 1_544
Cs6 F34 3.293362 1_555
Cs6 F13 3.293362 1_455
Cs6 F14 3.432445 1_545
Cs6 F31 3.432445 1_545
Cs7 F11 2.939029 1_556
Cs7 F20 3.084303 1_655
Cs7 F32 3.084303 1_555
Cs7 F36 3.145589 1_556
Cs7 F27 3.267597 1_566
Cs7 F10 3.293362 1_555
Cs7 F17 3.293362 1_655
Cs7 F16 3.432445 1_565
Cs7 F9 3.432445 1_565
F0 Hf3 2.027473 1_555
F1 Hf4 2.150884 1_555
F1 Hf2 2.215886 1_555
F2 Hf1 2.150884 1_555
F2 Hf0 2.215886 1_555
F3 H2 1.369562 1_555
F3 Hf4 2.109065 1_555
F4 H1 1.370839 1_555
F4 Hf2 2.090413 1_565
F5 Hf1 2.003548 1_455
F5 Na0 2.282421 1_555
F6 H2 1.007984 1_555
F6 Na0 2.421552 1_555
F7 Hf4 2.120715 1_555
F7 Hf2 2.258276 1_555
F8 H3 1.005552 1_556
F8 Na1 2.417573 1_555
F9 Hf2 2.006534 1_655
F9 Na1 2.214816 1_555
F10 Hf5 2.030228 1_555
F11 Hf1 2.120715 1_555
F11 Hf0 2.258276 1_555
F12 Hf3 2.140549 1_555
F12 Hf0 2.231362 1_545
F13 Hf3 2.030228 1_555
F14 Hf0 2.006534 1_455
F14 Na0 2.214816 1_555
F15 H0 1.007984 1_555
F15 Na1 2.421552 1_555
F16 Hf2 2.006534 1_555
F16 Na1 2.214816 1_555
F17 Hf5 2.030228 1_555
F18 Hf4 2.120742 1_555
F18 Hf5 2.138755 1_555
F19 Hf5 2.027473 1_555
F20 Hf5 2.140549 1_555
F20 Hf2 2.231362 1_565
F21 Hf0 2.003652 1_555
F22 H0 1.369562 1_555
F22 Hf1 2.109065 1_555
F23 Hf1 2.003548 1_555
F23 Na0 2.282421 1_555
F24 Hf3 2.027473 1_555
F25 Hf4 2.003548 1_655
F25 Na1 2.282421 1_555
F26 Hf3 2.140549 1_555
F26 Hf0 2.231362 1_545
F27 H3 1.370839 1_555
F27 Hf0 2.090413 1_545
F28 Hf5 2.027473 1_555
F29 Hf4 2.003548 1_555
F29 Na1 2.282421 1_555
F30 H1 1.005552 1_554
F30 Na0 2.417573 1_555
F31 Hf0 2.006534 1_555
F31 Na0 2.214816 1_555
F32 Hf5 2.140549 1_555
F32 Hf2 2.231362 1_565
F33 Hf4 2.009951 1_555
F34 Hf3 2.030228 1_555
F35 Hf1 2.120742 1_555
F35 Hf3 2.138755 1_555
F36 Hf1 2.009951 1_555
F37 Hf2 2.003652 1_555
