# generated using pymatgen
data_Tb(FeSi)2
_symmetry_space_group_name_H-M   'P 1'
_cell_length_a   3.95275317
_cell_length_b   3.95275375
_cell_length_c   5.48618946
_cell_angle_alpha   111.11528656
_cell_angle_beta   111.11527645
_cell_angle_gamma   90.00001063
_symmetry_Int_Tables_number   1
_chemical_formula_structural   Tb(FeSi)2
_chemical_formula_sum   'Tb1 Fe2 Si2'
_cell_volume   73.75933450
_cell_formula_units_Z   1
loop_
 _symmetry_equiv_pos_site_id
 _symmetry_equiv_pos_as_xyz
  1  'x, y, z'
loop_
 _atom_site_type_symbol
 _atom_site_label
 _atom_site_symmetry_multiplicity
 _atom_site_fract_x
 _atom_site_fract_y
 _atom_site_fract_z
 _atom_site_occupancy
  Tb  Tb0  1  0.00000000  -0.00000000  0.00000000  1
  Fe  Fe0  1  0.25000000  0.75000000  0.50000000  1
  Fe  Fe1  1  0.75000000  0.25000000  0.50000000  1
  Si  Si0  1  0.63736185  0.63736185  0.27472270  1
  Si  Si1  1  0.36263815  0.36263815  0.72527730  1
loop_
_geom_bond_atom_site_label_1
_geom_bond_atom_site_label_2
_geom_bond_distance
_geom_bond_site_symmetry_2
Fe0 Si0 2.244343 1_455
Fe0 Si1 2.244343 1_565
Fe0 Si0 2.244346 1_555
Fe0 Si1 2.244347 1_555
Fe0 Tb0 3.078571 1_566
Fe0 Tb0 3.078572 1_565
Fe0 Tb0 3.078572 1_555
Fe0 Tb0 3.078572 1_666
Fe1 Si1 2.244343 1_655
Fe1 Si0 2.244343 1_545
Fe1 Si1 2.244346 1_555
Fe1 Si0 2.244347 1_555
Fe1 Tb0 3.078571 1_655
Fe1 Tb0 3.078572 1_656
Fe1 Tb0 3.078572 1_666
Fe1 Tb0 3.078572 1_555
Si0 Si1 2.593833 1_554
Si0 Tb0 3.081250 1_665
Si0 Tb0 3.081254 1_655
Si0 Tb0 3.081254 1_565
Si0 Tb0 3.081256 1_555
Si1 Tb0 3.081250 1_556
Si1 Tb0 3.081254 1_566
Si1 Tb0 3.081254 1_656
Si1 Tb0 3.081256 1_666
