# generated using pymatgen
data_Cs4U2V2O13
_symmetry_space_group_name_H-M   'P 1'
_cell_length_a   7.38924900
_cell_length_b   8.56287900
_cell_length_c   13.73813400
_cell_angle_alpha   90.00000000
_cell_angle_beta   90.00000000
_cell_angle_gamma   90.00000000
_symmetry_Int_Tables_number   1
_chemical_formula_structural   Cs4U2V2O13
_chemical_formula_sum   'Cs8 U4 V4 O26'
_cell_volume   869.25631963
_cell_formula_units_Z   2
loop_
 _symmetry_equiv_pos_site_id
 _symmetry_equiv_pos_as_xyz
  1  'x, y, z'
loop_
 _atom_site_type_symbol
 _atom_site_label
 _atom_site_symmetry_multiplicity
 _atom_site_fract_x
 _atom_site_fract_y
 _atom_site_fract_z
 _atom_site_occupancy
  Cs  Cs0  1  0.52126900  0.50000000  0.80239700  1
  Cs  Cs1  1  0.47873100  0.00000000  0.69760300  1
  Cs  Cs2  1  0.87049600  0.00000000  0.50000000  1
  Cs  Cs3  1  0.12950400  0.50000000  0.00000000  1
  Cs  Cs4  1  0.77238800  0.50000000  0.50000000  1
  Cs  Cs5  1  0.47873100  0.00000000  0.30239700  1
  Cs  Cs6  1  0.52126900  0.50000000  0.19760300  1
  Cs  Cs7  1  0.22761200  0.00000000  0.00000000  1
  U  U0  1  0.00000000  0.25000000  0.75000000  1
  U  U1  1  0.00000000  0.75000000  0.25000000  1
  U  U2  1  0.00000000  0.25000000  0.25000000  1
  U  U3  1  0.00000000  0.75000000  0.75000000  1
  V  V0  1  0.28701200  0.29426400  0.50000000  1
  V  V1  1  0.28701200  0.70573600  0.50000000  1
  V  V2  1  0.71298800  0.20573600  0.00000000  1
  V  V3  1  0.71298800  0.79426400  0.00000000  1
  O  O0  1  0.16060200  0.24993400  0.60360200  1
  O  O1  1  0.97962500  0.00000000  0.26231500  1
  O  O2  1  0.47924700  0.80930400  0.50000000  1
  O  O3  1  0.78175100  0.26995100  0.68019700  1
  O  O4  1  0.83939800  0.74993400  0.89639800  1
  O  O5  1  0.83939800  0.74993400  0.10360200  1
  O  O6  1  0.16060200  0.24993400  0.39639800  1
  O  O7  1  0.16060200  0.75006600  0.39639800  1
  O  O8  1  0.78175100  0.73004900  0.68019700  1
  O  O9  1  0.21824900  0.23004900  0.81980300  1
  O  O10  1  0.83939800  0.25006600  0.89639800  1
  O  O11  1  0.02037500  0.50000000  0.23768500  1
  O  O12  1  0.21824900  0.76995100  0.81980300  1
  O  O13  1  0.83939800  0.25006600  0.10360200  1
  O  O14  1  0.35106800  0.50000000  0.50000000  1
  O  O15  1  0.02037500  0.50000000  0.76231500  1
  O  O16  1  0.78175100  0.73004900  0.31980300  1
  O  O17  1  0.16060200  0.75006600  0.60360200  1
  O  O18  1  0.52075300  0.30930400  0.00000000  1
  O  O19  1  0.78175100  0.26995100  0.31980300  1
  O  O20  1  0.64893200  0.00000000  0.00000000  1
  O  O21  1  0.97962500  0.00000000  0.73768500  1
  O  O22  1  0.21824900  0.23004900  0.18019700  1
  O  O23  1  0.21824900  0.76995100  0.18019700  1
  O  O24  1  0.52075300  0.69069600  0.00000000  1
  O  O25  1  0.47924700  0.19069600  0.50000000  1
loop_
_geom_bond_atom_site_label_1
_geom_bond_atom_site_label_2
_geom_bond_distance
_geom_bond_site_symmetry_2
Cs0 O24 3.167961 1_556
Cs0 O18 3.167961 1_556
Cs0 O8 3.225450 1_555
Cs0 O3 3.225450 1_555
Cs0 O9 3.227074 1_555
Cs0 O12 3.227074 1_555
Cs0 O10 3.431315 1_555
Cs0 O4 3.431315 1_555
Cs1 O2 3.167961 1_545
Cs1 O25 3.167961 1_555
Cs1 O12 3.225450 1_545
Cs1 O9 3.225450 1_555
Cs1 O3 3.227074 1_555
Cs1 O8 3.227074 1_545
Cs1 O17 3.431315 1_545
Cs1 O0 3.431315 1_555
Cs2 O2 3.320313 1_545
Cs2 O25 3.320313 1_555
Cs2 O0 3.346840 1_655
Cs2 O17 3.346840 1_645
Cs2 O6 3.346840 1_655
Cs2 O7 3.346840 1_645
Cs2 O1 3.363443 1_555
Cs2 O21 3.363443 1_555
Cs2 O19 3.449894 1_555
Cs2 O3 3.449894 1_555
Cs2 O16 3.449894 1_545
Cs2 O8 3.449894 1_545
Cs3 O18 3.320313 1_555
Cs3 O24 3.320313 1_555
Cs3 O10 3.346840 1_454
Cs3 O4 3.346840 1_454
Cs3 O5 3.346840 1_455
Cs3 O13 3.346840 1_455
Cs3 O11 3.363443 1_555
Cs3 O15 3.363443 1_554
Cs3 O23 3.449894 1_555
Cs3 O22 3.449894 1_555
Cs3 O9 3.449894 1_554
Cs3 O12 3.449894 1_554
Cs4 O14 3.113238 1_555
Cs4 O16 3.164438 1_555
Cs4 O8 3.164438 1_555
Cs4 O19 3.164438 1_555
Cs4 O3 3.164438 1_555
Cs4 O2 3.421503 1_555
Cs4 O25 3.421503 1_555
Cs5 O2 3.167961 1_545
Cs5 O25 3.167961 1_555
Cs5 O23 3.225450 1_545
Cs5 O22 3.225450 1_555
Cs5 O19 3.227074 1_555
Cs5 O16 3.227074 1_545
Cs5 O7 3.431315 1_545
Cs5 O6 3.431315 1_555
Cs6 O18 3.167961 1_555
Cs6 O24 3.167961 1_555
Cs6 O19 3.225450 1_555
Cs6 O16 3.225450 1_555
Cs6 O22 3.227074 1_555
Cs6 O23 3.227074 1_555
Cs6 O13 3.431315 1_555
Cs6 O5 3.431315 1_555
Cs7 O20 3.113238 1_555
Cs7 O23 3.164438 1_545
Cs7 O9 3.164438 1_554
Cs7 O22 3.164438 1_555
Cs7 O12 3.164438 1_544
Cs7 O18 3.421503 1_555
Cs7 O24 3.421503 1_545
O0 V0 1.744237 1_555
O0 U0 2.335250 1_555
O1 U1 2.152666 1_645
O1 U2 2.152666 1_655
O2 V1 1.674583 1_555
O3 U0 1.884034 1_655
O4 V3 1.744237 1_556
O4 U3 2.335250 1_655
O5 V3 1.744237 1_555
O5 U1 2.335250 1_655
O6 V0 1.744237 1_555
O6 U2 2.335250 1_555
O7 V1 1.744237 1_555
O7 U1 2.335250 1_555
O8 U3 1.884034 1_655
O9 U0 1.884034 1_555
O10 V2 1.744237 1_556
O10 U0 2.335250 1_655
O11 U2 2.152666 1_555
O11 U1 2.152666 1_555
O12 U3 1.884034 1_555
O13 V2 1.744237 1_555
O13 U2 2.335250 1_655
O14 V0 1.824170 1_555
O14 V1 1.824170 1_555
O15 U3 2.152666 1_555
O15 U0 2.152666 1_555
O16 U1 1.884034 1_655
O17 V1 1.744237 1_555
O17 U3 2.335250 1_555
O18 V2 1.674583 1_555
O19 U2 1.884034 1_655
O20 V2 1.824170 1_555
O20 V3 1.824170 1_545
O21 U3 2.152666 1_645
O21 U0 2.152666 1_655
O22 U2 1.884034 1_555
O23 U1 1.884034 1_555
O24 V3 1.674583 1_555
O25 V0 1.674583 1_555
