# generated using pymatgen
data_NbTe7Br5O
_symmetry_space_group_name_H-M   'P 1'
_cell_length_a   8.20446500
_cell_length_b   8.61341900
_cell_length_c   27.02271500
_cell_angle_alpha   90.00000000
_cell_angle_beta   90.00000000
_cell_angle_gamma   90.00000000
_symmetry_Int_Tables_number   1
_chemical_formula_structural   NbTe7Br5O
_chemical_formula_sum   'Nb4 Te28 Br20 O4'
_cell_volume   1909.65459219
_cell_formula_units_Z   4
loop_
 _symmetry_equiv_pos_site_id
 _symmetry_equiv_pos_as_xyz
  1  'x, y, z'
loop_
 _atom_site_type_symbol
 _atom_site_label
 _atom_site_symmetry_multiplicity
 _atom_site_fract_x
 _atom_site_fract_y
 _atom_site_fract_z
 _atom_site_occupancy
  Nb  Nb0  1  0.21543800  0.50000000  0.25000000  1
  Nb  Nb1  1  0.28456200  0.50000000  0.75000000  1
  Nb  Nb2  1  0.71543800  0.50000000  0.25000000  1
  Nb  Nb3  1  0.78456200  0.50000000  0.75000000  1
  Te  Te0  1  0.43809600  0.24782200  0.42539100  1
  Te  Te1  1  0.56190400  0.75217800  0.57460900  1
  Te  Te2  1  0.93809600  0.75217800  0.42539100  1
  Te  Te3  1  0.43809600  0.75217800  0.07460900  1
  Te  Te4  1  0.47227000  0.98369800  0.64226500  1
  Te  Te5  1  0.91711200  0.23206200  0.92151300  1
  Te  Te6  1  0.41711200  0.76793800  0.92151300  1
  Te  Te7  1  0.02773000  0.98369800  0.35773500  1
  Te  Te8  1  0.52773000  0.98369800  0.14226500  1
  Te  Te9  1  0.08288800  0.76793800  0.07848700  1
  Te  Te10  1  0.52773000  0.01630200  0.35773500  1
  Te  Te11  1  0.02773000  0.01630200  0.14226500  1
  Te  Te12  1  0.08288800  0.23206200  0.42151300  1
  Te  Te13  1  0.58288800  0.23206200  0.07848700  1
  Te  Te14  1  0.56190400  0.24782200  0.92539100  1
  Te  Te15  1  0.41711200  0.23206200  0.57848700  1
  Te  Te16  1  0.58288800  0.76793800  0.42151300  1
  Te  Te17  1  0.50000000  0.00000000  0.50000000  1
  Te  Te18  1  0.91711200  0.76793800  0.57848700  1
  Te  Te19  1  0.97227000  0.98369800  0.85773500  1
  Te  Te20  1  0.06190400  0.75217800  0.92539100  1
  Te  Te21  1  0.97227000  0.01630200  0.64226500  1
  Te  Te22  1  0.06190400  0.24782200  0.57460900  1
  Te  Te23  1  0.00000000  0.00000000  0.00000000  1
  Te  Te24  1  0.93809600  0.24782200  0.07460900  1
  Te  Te25  1  0.47227000  0.01630200  0.85773500  1
  Te  Te26  1  0.00000000  0.00000000  0.50000000  1
  Te  Te27  1  0.50000000  0.00000000  0.00000000  1
  Br  Br0  1  0.25473100  0.56660800  0.34193500  1
  Br  Br1  1  0.24526900  0.43339200  0.84193500  1
  Br  Br2  1  0.75000000  0.49303500  0.50000000  1
  Br  Br3  1  0.75187300  0.20965100  0.22860900  1
  Br  Br4  1  0.74526900  0.56660800  0.84193500  1
  Br  Br5  1  0.24526900  0.56660800  0.65806500  1
  Br  Br6  1  0.25187300  0.79034900  0.22860900  1
  Br  Br7  1  0.25473100  0.43339200  0.15806500  1
  Br  Br8  1  0.75473100  0.43339200  0.34193500  1
  Br  Br9  1  0.24812700  0.79034900  0.77139100  1
  Br  Br10  1  0.74526900  0.43339200  0.65806500  1
  Br  Br11  1  0.75187300  0.79034900  0.27139100  1
  Br  Br12  1  0.74812700  0.20965100  0.77139100  1
  Br  Br13  1  0.25000000  0.49303500  0.00000000  1
  Br  Br14  1  0.25000000  0.50696500  0.50000000  1
  Br  Br15  1  0.75473100  0.56660800  0.15806500  1
  Br  Br16  1  0.25187300  0.20965100  0.27139100  1
  Br  Br17  1  0.24812700  0.20965100  0.72860900  1
  Br  Br18  1  0.74812700  0.79034900  0.72860900  1
  Br  Br19  1  0.75000000  0.50696500  0.00000000  1
  O  O0  1  0.49810900  0.50000000  0.25000000  1
  O  O1  1  0.99810900  0.50000000  0.25000000  1
  O  O2  1  0.50189100  0.50000000  0.75000000  1
  O  O3  1  0.00189100  0.50000000  0.75000000  1
loop_
_geom_bond_atom_site_label_1
_geom_bond_atom_site_label_2
_geom_bond_distance
_geom_bond_site_symmetry_2
Nb0 O1 1.783068 1_455
Nb0 O0 2.319164 1_555
Nb1 O2 1.783068 1_555
Nb1 O3 2.319164 1_555
Nb2 O0 1.783068 1_555
Nb2 O1 2.319164 1_555
Nb3 O3 1.783068 1_655
Nb3 O2 2.319164 1_555
Te0 Te10 2.803579 1_555
Te0 Te12 2.919333 1_555
Te0 Te17 2.979808 1_555
Te1 Te4 2.803579 1_555
Te1 Te18 2.919333 1_555
Te1 Te17 2.979808 1_565
Te2 Te7 2.803579 1_655
Te2 Te26 2.979808 1_665
Te3 Te8 2.803579 1_555
Te3 Te9 2.919333 1_555
Te10 Te16 2.784158 1_545
Te11 Te9 2.784158 1_545
Te11 Te24 2.803579 1_455
Te12 Te7 2.784158 1_545
Te12 Te26 2.992693 1_555
Te13 Te8 2.784158 1_545
Te13 Te24 2.919333 1_555
Te13 Te27 2.992693 1_555
Te14 Te25 2.803579 1_555
Te14 Te5 2.919333 1_555
Te14 Te27 2.979808 1_556
Te15 Te4 2.784158 1_545
Te15 Te22 2.919333 1_555
Te15 Te17 2.992693 1_555
Te16 Te2 2.919333 1_555
Te16 Te17 2.992693 1_565
Te18 Te21 2.784158 1_565
Te18 Te26 2.992693 1_665
Te19 Te5 2.784158 1_565
Te19 Te20 2.803579 1_655
Te20 Te6 2.919333 1_555
Te20 Te23 2.979808 1_566
Te21 Te22 2.803579 1_655
Te22 Te26 2.979808 1_555
Te23 Te24 2.979808 1_455
Te23 Te5 2.992693 1_454
Te23 Te9 2.992693 1_545
Te25 Te6 2.784158 1_545
Te27 Te3 2.979808 1_545
Te27 Te6 2.992693 1_544
Br0 Nb0 2.570019 1_555
Br1 Nb1 2.570019 1_555
Br2 Te2 3.380631 1_555
Br2 Te1 3.380631 1_555
Br3 Nb2 2.584179 1_555
Br4 Nb3 2.570019 1_555
Br5 Nb1 2.570019 1_555
Br6 Nb0 2.584179 1_555
Br7 Nb0 2.570019 1_555
Br8 Nb2 2.570019 1_555
Br9 Nb1 2.584179 1_555
Br10 Nb3 2.570019 1_555
Br11 Nb2 2.584179 1_555
Br12 Nb3 2.584179 1_555
Br13 Te3 3.380631 1_555
Br13 Te20 3.380631 1_554
Br14 Te0 3.380631 1_555
Br14 Te22 3.380631 1_555
Br15 Nb2 2.570019 1_555
Br16 Nb0 2.584179 1_555
Br17 Nb1 2.584179 1_555
Br18 Nb3 2.584179 1_555
Br19 Te24 3.380631 1_555
Br19 Te14 3.380631 1_554
