# generated using pymatgen
data_La3MnGaS7
_symmetry_space_group_name_H-M   'P 1'
_cell_length_a   10.26502352
_cell_length_b   10.26502352
_cell_length_c   6.07469500
_cell_angle_alpha   90.00000000
_cell_angle_beta   90.00000000
_cell_angle_gamma   119.99999691
_symmetry_Int_Tables_number   1
_chemical_formula_structural   La3MnGaS7
_chemical_formula_sum   'La6 Mn2 Ga2 S14'
_cell_volume   554.33847208
_cell_formula_units_Z   2
loop_
 _symmetry_equiv_pos_site_id
 _symmetry_equiv_pos_as_xyz
  1  'x, y, z'
loop_
 _atom_site_type_symbol
 _atom_site_label
 _atom_site_symmetry_multiplicity
 _atom_site_fract_x
 _atom_site_fract_y
 _atom_site_fract_z
 _atom_site_occupancy
  La  La0  1  0.13928200  0.37429000  0.00059600  1
  La  La1  1  0.76499200  0.13928200  0.50059600  1
  La  La2  1  0.37429000  0.23500800  0.50059600  1
  La  La3  1  0.62571000  0.76499200  0.00059600  1
  La  La4  1  0.23500800  0.86071800  0.00059600  1
  La  La5  1  0.86071800  0.62571000  0.50059600  1
  Mn  Mn0  1  0.00000000  0.00000000  0.22706800  1
  Mn  Mn1  1  0.00000000  0.00000000  0.72706800  1
  Ga  Ga0  1  0.66666700  0.33333300  0.08124200  1
  Ga  Ga1  1  0.33333300  0.66666700  0.58124200  1
  S  S0  1  0.23469200  0.14619400  0.96535100  1
  S  S1  1  0.08849800  0.23469200  0.46535100  1
  S  S2  1  0.14619400  0.91150200  0.46535100  1
  S  S3  1  0.85380600  0.08849800  0.96535100  1
  S  S4  1  0.91150200  0.76530800  0.96535100  1
  S  S5  1  0.76530800  0.85380600  0.46535100  1
  S  S6  1  0.51711600  0.09872600  0.23144100  1
  S  S7  1  0.41839000  0.51711600  0.73144100  1
  S  S8  1  0.09872600  0.58161000  0.73144100  1
  S  S9  1  0.90127400  0.41839000  0.23144100  1
  S  S10  1  0.58161000  0.48288400  0.23144100  1
  S  S11  1  0.48288400  0.90127400  0.73144100  1
  S  S12  1  0.33333300  0.66666700  0.21022600  1
  S  S13  1  0.66666700  0.33333300  0.71022600  1
loop_
_geom_bond_atom_site_label_1
_geom_bond_atom_site_label_2
_geom_bond_distance
_geom_bond_site_symmetry_2
La0 S8 2.874302 1_554
La0 S12 2.935760 1_555
La0 S3 2.939848 1_454
La0 S0 2.963172 1_554
La0 S7 2.971675 1_554
La0 S9 3.040792 1_455
La0 S1 3.090126 1_555
La0 S1 3.485698 1_554
La1 S6 2.874302 1_555
La1 S13 2.935753 1_555
La1 S5 2.939848 1_545
La1 S1 2.963172 1_655
La1 S9 2.971675 1_555
La1 S11 3.040792 1_545
La1 S3 3.090126 1_555
La1 S3 3.485698 1_554
La2 S10 2.874303 1_555
La2 S13 2.935762 1_555
La2 S1 2.939848 1_555
La2 S2 2.963172 1_545
La2 S6 2.971675 1_555
La2 S7 3.040792 1_555
La2 S0 3.090126 1_555
La2 S0 3.485698 1_554
La3 S7 2.874303 1_554
La3 S12 2.935762 1_555
La3 S4 2.939848 1_554
La3 S3 2.963172 1_564
La3 S11 2.971675 1_554
La3 S10 3.040792 1_555
La3 S5 3.090126 1_555
La3 S5 3.485698 1_554
La4 S11 2.874302 1_554
La4 S12 2.935753 1_555
La4 S0 2.939848 1_564
La4 S4 2.963172 1_454
La4 S8 2.971675 1_554
La4 S6 3.040792 1_565
La4 S2 3.090126 1_555
La4 S2 3.485698 1_554
La5 S9 2.874302 1_555
La5 S13 2.935760 1_555
La5 S2 2.939848 1_655
La5 S5 2.963172 1_555
La5 S10 2.971675 1_555
La5 S8 3.040792 1_655
La5 S4 3.090126 1_555
La5 S4 3.485698 1_554
Mn0 S2 2.556526 1_545
Mn0 S1 2.556526 1_555
Mn0 S5 2.556526 1_445
Mn0 S3 2.639736 1_454
Mn0 S4 2.639736 1_444
Mn0 S0 2.639736 1_554
Mn1 S3 2.556526 1_455
Mn1 S4 2.556526 1_445
Mn1 S0 2.556526 1_555
Mn1 S2 2.639736 1_545
Mn1 S1 2.639736 1_555
Mn1 S5 2.639736 1_445
Ga0 S13 2.253809 1_554
Ga0 S9 2.300392 1_555
Ga0 S6 2.300394 1_555
Ga0 S10 2.300401 1_555
Ga1 S12 2.253809 1_555
Ga1 S8 2.300392 1_555
Ga1 S11 2.300394 1_555
Ga1 S7 2.300401 1_555
