# generated using pymatgen
data_Ho(SiPt)2
_symmetry_space_group_name_H-M   'P 1'
_cell_length_a   5.74867196
_cell_length_b   5.74867196
_cell_length_c   5.74867196
_cell_angle_alpha   137.26830888
_cell_angle_beta   137.26830888
_cell_angle_gamma   62.02548617
_symmetry_Int_Tables_number   1
_chemical_formula_structural   Ho(SiPt)2
_chemical_formula_sum   'Ho1 Si2 Pt2'
_cell_volume   86.44506774
_cell_formula_units_Z   1
loop_
 _symmetry_equiv_pos_site_id
 _symmetry_equiv_pos_as_xyz
  1  'x, y, z'
loop_
 _atom_site_type_symbol
 _atom_site_label
 _atom_site_symmetry_multiplicity
 _atom_site_fract_x
 _atom_site_fract_y
 _atom_site_fract_z
 _atom_site_occupancy
  Ho  Ho0  1  0.00000000  0.00000000  0.00000000  1
  Si  Si0  1  0.38258400  0.38258400  0.00000000  1
  Si  Si1  1  0.61741600  0.61741600  0.00000000  1
  Pt  Pt0  1  0.25000000  0.75000000  0.50000000  1
  Pt  Pt1  1  0.75000000  0.25000000  0.50000000  1
loop_
_geom_bond_atom_site_label_1
_geom_bond_atom_site_label_2
_geom_bond_distance
_geom_bond_site_symmetry_2
Ho0 Si0 3.179840 1_455
Ho0 Si1 3.179840 1_556
Ho0 Si0 3.179840 1_444
Ho0 Si1 3.179840 1_455
Ho0 Si1 3.179840 1_444
Ho0 Si0 3.179840 1_556
Ho0 Si0 3.179840 1_545
Ho0 Si1 3.179840 1_545
Ho0 Pt1 3.233418 1_555
Ho0 Pt0 3.233418 1_444
Ho0 Pt1 3.233418 1_444
Ho0 Pt0 3.233418 1_544
Ho0 Pt0 3.233418 1_545
Ho0 Pt1 3.233418 1_455
Ho0 Pt1 3.233418 1_454
Ho0 Pt0 3.233418 1_555
Si0 Si1 2.313995 1_555
Pt0 Si0 2.468442 1_555
Pt0 Si0 2.468442 1_566
Pt0 Si1 2.468442 1_556
Pt0 Si1 2.468442 1_455
Pt1 Si0 2.468442 1_555
Pt1 Si0 2.468442 1_656
Pt1 Si1 2.468442 1_545
Pt1 Si1 2.468442 1_556
