# generated using pymatgen
data_K5NaCe2(SO4)6
_symmetry_space_group_name_H-M   'P 1'
_cell_length_a   9.49945924
_cell_length_b   9.49945924
_cell_length_c   7.85972103
_cell_angle_alpha   79.84608774
_cell_angle_beta   79.84608774
_cell_angle_gamma   121.07491970
_symmetry_Int_Tables_number   1
_chemical_formula_structural   K5NaCe2(SO4)6
_chemical_formula_sum   'K5 Na1 Ce2 S6 O24'
_cell_volume   567.11389267
_cell_formula_units_Z   1
loop_
 _symmetry_equiv_pos_site_id
 _symmetry_equiv_pos_as_xyz
  1  'x, y, z'
loop_
 _atom_site_type_symbol
 _atom_site_label
 _atom_site_symmetry_multiplicity
 _atom_site_fract_x
 _atom_site_fract_y
 _atom_site_fract_z
 _atom_site_occupancy
  K  K0  1  0.93134700  0.62103100  0.12009400  1
  K  K1  1  0.06865300  0.37896900  0.87990600  1
  K  K2  1  0.37896900  0.06865300  0.87990600  1
  K  K3  1  0.50000000  0.50000000  0.50000000  1
  K  K4  1  0.62103100  0.93134700  0.12009400  1
  Na  Na0  1  0.50000000  0.50000000  0.00000000  1
  Ce  Ce0  1  0.14337700  0.85662300  0.50000000  1
  Ce  Ce1  1  0.85662300  0.14337700  0.50000000  1
  S  S0  1  0.09535300  0.09535300  0.19659100  1
  S  S1  1  0.79213000  0.46117600  0.68222000  1
  S  S2  1  0.90464700  0.90464700  0.80340900  1
  S  S3  1  0.53882400  0.20787000  0.31778000  1
  S  S4  1  0.20787000  0.53882400  0.31778000  1
  S  S5  1  0.46117600  0.79213000  0.68222000  1
  O  O0  1  0.58285700  0.38064600  0.22221200  1
  O  O1  1  0.07476300  0.92553400  0.21089100  1
  O  O2  1  0.22131200  0.70410200  0.31190500  1
  O  O3  1  0.41714300  0.61935400  0.77778800  1
  O  O4  1  0.43815000  0.07553600  0.23047800  1
  O  O5  1  0.77868800  0.29589800  0.68809500  1
  O  O6  1  0.14303300  0.42469900  0.50985800  1
  O  O7  1  0.77197700  0.77197700  0.97520600  1
  O  O8  1  0.92446400  0.56185000  0.76952200  1
  O  O9  1  0.70410200  0.22131200  0.31190500  1
  O  O10  1  0.29589800  0.77868800  0.68809500  1
  O  O11  1  0.85778200  0.85778200  0.63906000  1
  O  O12  1  0.07553600  0.43815000  0.23047800  1
  O  O13  1  0.14221800  0.14221800  0.36094000  1
  O  O14  1  0.92553400  0.07476300  0.21089100  1
  O  O15  1  0.57530100  0.85696700  0.49014200  1
  O  O16  1  0.61935400  0.41714300  0.77778800  1
  O  O17  1  0.22802300  0.22802300  0.02479400  1
  O  O18  1  0.42469900  0.14303300  0.50985800  1
  O  O19  1  0.38064600  0.58285700  0.22221200  1
  O  O20  1  0.85696700  0.57530100  0.49014200  1
  O  O21  1  0.56185000  0.92446400  0.76952200  1
  O  O22  1  0.07446600  0.92523700  0.78910900  1
  O  O23  1  0.92523700  0.07446600  0.78910900  1
loop_
_geom_bond_atom_site_label_1
_geom_bond_atom_site_label_2
_geom_bond_distance
_geom_bond_site_symmetry_2
K0 O0 2.725983 1_555
K0 O20 2.767716 1_555
K0 O1 2.781190 1_655
K0 O7 2.813894 1_554
K0 O12 2.826832 1_655
K0 O8 2.912782 1_554
K0 O22 3.002230 1_654
K0 O9 3.118222 1_555
K0 O2 3.181599 1_655
K1 O3 2.725983 1_555
K1 O6 2.767716 1_555
K1 O23 2.781190 1_455
K1 O17 2.813894 1_556
K1 O8 2.826832 1_455
K1 O12 2.912782 1_556
K1 O14 3.002230 1_456
K1 O10 3.118222 1_555
K1 O5 3.181599 1_455
K2 O16 2.725983 1_555
K2 O18 2.767716 1_555
K2 O22 2.781190 1_545
K2 O17 2.813894 1_556
K2 O21 2.826832 1_545
K2 O4 2.912782 1_556
K2 O1 3.002230 1_546
K2 O5 3.118222 1_555
K2 O10 3.181599 1_545
K3 O3 2.803591 1_555
K3 O16 2.803591 1_555
K3 O19 2.803591 1_555
K3 O0 2.803591 1_555
K3 O20 3.065993 1_555
K3 O15 3.065993 1_555
K3 O18 3.065993 1_555
K3 O6 3.065993 1_555
K4 O19 2.725983 1_555
K4 O15 2.767716 1_555
K4 O14 2.781190 1_565
K4 O7 2.813894 1_554
K4 O4 2.826832 1_565
K4 O21 2.912782 1_554
K4 O23 3.002230 1_564
K4 O2 3.118222 1_555
K4 O9 3.181599 1_565
Na0 O19 2.379731 1_555
Na0 O0 2.379731 1_555
Na0 O3 2.379731 1_554
Na0 O16 2.379731 1_554
Na0 O7 2.478382 1_554
Na0 O17 2.478382 1_555
Ce0 O2 2.511882 1_555
Ce0 O10 2.511882 1_555
Ce0 O1 2.540667 1_555
Ce0 O22 2.540667 1_555
Ce0 O8 2.645190 1_455
Ce0 O4 2.645190 1_565
Ce0 O18 2.681720 1_565
Ce0 O20 2.681720 1_455
Ce0 O13 2.746752 1_565
Ce0 O11 2.746752 1_455
Ce1 O9 2.511882 1_555
Ce1 O5 2.511882 1_555
Ce1 O14 2.540667 1_555
Ce1 O23 2.540667 1_555
Ce1 O21 2.645190 1_545
Ce1 O12 2.645190 1_655
Ce1 O6 2.681720 1_655
Ce1 O15 2.681720 1_545
Ce1 O13 2.746752 1_655
Ce1 O11 2.746752 1_545
O0 S3 1.476074 1_555
O1 S0 1.501952 1_565
O2 S4 1.499632 1_555
O3 S5 1.476074 1_555
O4 S3 1.503384 1_555
O5 S1 1.499632 1_555
O6 S4 1.496524 1_555
O7 S2 1.469773 1_555
O8 S1 1.503384 1_555
O9 S3 1.499632 1_555
O10 S5 1.499632 1_555
O11 S2 1.505291 1_555
O12 S4 1.503384 1_555
O13 S0 1.505291 1_555
O14 S0 1.501952 1_655
O15 S5 1.496524 1_555
O16 S1 1.476074 1_555
O17 S0 1.469773 1_555
O18 S3 1.496524 1_555
O19 S4 1.476074 1_555
O20 S1 1.496524 1_555
O21 S5 1.503384 1_555
O22 S2 1.501952 1_455
O23 S2 1.501952 1_545
