# generated using pymatgen
data_Dy2Co7B3
_symmetry_space_group_name_H-M   'P 1'
_cell_length_a   5.01310004
_cell_length_b   5.01310004
_cell_length_c   12.79944300
_cell_angle_alpha   90.00000000
_cell_angle_beta   90.00000000
_cell_angle_gamma   120.00000055
_symmetry_Int_Tables_number   1
_chemical_formula_structural   Dy2Co7B3
_chemical_formula_sum   'Dy4 Co14 B6'
_cell_volume   278.57006335
_cell_formula_units_Z   2
loop_
 _symmetry_equiv_pos_site_id
 _symmetry_equiv_pos_as_xyz
  1  'x, y, z'
loop_
 _atom_site_type_symbol
 _atom_site_label
 _atom_site_symmetry_multiplicity
 _atom_site_fract_x
 _atom_site_fract_y
 _atom_site_fract_z
 _atom_site_occupancy
  Dy  Dy0  1  0.00000000  0.00000000  0.26051000  1
  Dy  Dy1  1  0.00000000  0.00000000  0.50000000  1
  Dy  Dy2  1  0.00000000  0.00000000  0.00000000  1
  Dy  Dy3  1  0.00000000  0.00000000  0.73949000  1
  Co  Co0  1  0.50000000  0.00000000  0.61612600  1
  Co  Co1  1  0.50000000  0.00000000  0.84575100  1
  Co  Co2  1  0.50000000  0.50000000  0.84575100  1
  Co  Co3  1  0.50000000  0.50000000  0.38387400  1
  Co  Co4  1  0.00000000  0.50000000  0.61612600  1
  Co  Co5  1  0.00000000  0.50000000  0.15424900  1
  Co  Co6  1  0.00000000  0.50000000  0.84575100  1
  Co  Co7  1  0.50000000  0.50000000  0.15424900  1
  Co  Co8  1  0.50000000  0.00000000  0.38387400  1
  Co  Co9  1  0.50000000  0.00000000  0.15424900  1
  Co  Co10  1  0.50000000  0.50000000  0.61612600  1
  Co  Co11  1  0.33333300  0.66666700  0.00000000  1
  Co  Co12  1  0.66666700  0.33333300  0.00000000  1
  Co  Co13  1  0.00000000  0.50000000  0.38387400  1
  B  B0  1  0.66666700  0.33333300  0.73201400  1
  B  B1  1  0.33333300  0.66666700  0.73201400  1
  B  B2  1  0.33333300  0.66666700  0.26798600  1
  B  B3  1  0.66666700  0.33333300  0.50000000  1
  B  B4  1  0.66666700  0.33333300  0.26798600  1
  B  B5  1  0.33333300  0.66666700  0.50000000  1
loop_
_geom_bond_atom_site_label_1
_geom_bond_atom_site_label_2
_geom_bond_distance
_geom_bond_site_symmetry_2
Dy0 Dy1 3.065339 1_555
Dy1 Dy3 3.065339 1_555
Co0 Dy1 2.914108 1_555
Co0 Dy1 2.914108 1_655
Co0 Dy3 2.962432 1_655
Co0 Dy3 2.962432 1_555
Co1 Co12 2.447882 1_556
Co1 Co11 2.447882 1_546
Co1 Dy3 2.851774 1_555
Co1 Dy3 2.851774 1_655
Co2 Dy3 2.851774 1_555
Co2 Dy3 2.851774 1_665
Co3 Dy1 2.914108 1_665
Co3 Dy1 2.914108 1_555
Co3 Dy0 2.962432 1_665
Co3 Dy0 2.962432 1_555
Co4 Dy1 2.914108 1_565
Co4 Dy1 2.914108 1_555
Co4 Dy3 2.962432 1_565
Co4 Dy3 2.962432 1_555
Co5 Dy0 2.851774 1_565
Co5 Dy0 2.851774 1_555
Co6 Dy3 2.851774 1_565
Co6 Dy3 2.851774 1_555
Co7 Dy0 2.851774 1_665
Co7 Dy0 2.851774 1_555
Co8 Dy1 2.914108 1_655
Co8 Dy1 2.914108 1_555
Co8 Dy0 2.962432 1_655
Co8 Dy0 2.962432 1_555
Co9 Dy0 2.851774 1_655
Co9 Dy0 2.851774 1_555
Co10 Dy1 2.914108 1_555
Co10 Dy1 2.914108 1_665
Co10 Dy3 2.962432 1_555
Co10 Dy3 2.962432 1_665
Co11 Co6 2.447882 1_554
Co11 Co5 2.447882 1_555
Co11 Co9 2.447882 1_565
Co11 Co2 2.447884 1_554
Co11 Co7 2.447884 1_555
Co11 Dy2 2.894312 1_565
Co11 Dy2 2.894316 1_665
Co11 Dy2 2.894316 1_555
Co12 Co9 2.447882 1_555
Co12 Co5 2.447882 1_655
Co12 Co6 2.447882 1_654
Co12 Co2 2.447884 1_554
Co12 Co7 2.447884 1_555
Co12 Dy2 2.894312 1_655
Co12 Dy2 2.894316 1_665
Co12 Dy2 2.894316 1_555
Co13 Dy1 2.914108 1_555
Co13 Dy1 2.914108 1_565
Co13 Dy0 2.962432 1_565
Co13 Dy0 2.962432 1_555
B0 Co1 2.052688 1_555
B0 Co6 2.052688 1_655
B0 Co2 2.052691 1_555
B0 Co0 2.072304 1_555
B0 Co4 2.072304 1_655
B0 Co10 2.072307 1_555
B0 Dy3 2.895893 1_655
B0 Dy3 2.895897 1_555
B0 Dy3 2.895897 1_665
B1 Co1 2.052688 1_565
B1 Co6 2.052688 1_555
B1 Co2 2.052691 1_555
B1 Co0 2.072304 1_565
B1 Co4 2.072304 1_555
B1 Co10 2.072307 1_555
B1 Dy3 2.895893 1_565
B1 Dy3 2.895897 1_555
B1 Dy3 2.895897 1_665
B2 Co5 2.052688 1_555
B2 Co9 2.052688 1_565
B2 Co7 2.052691 1_555
B2 Co13 2.072304 1_555
B2 Co8 2.072304 1_565
B2 Co3 2.072307 1_555
B2 Dy0 2.895893 1_565
B2 Dy0 2.895897 1_665
B2 Dy0 2.895897 1_555
B3 Co4 2.074486 1_655
B3 Co0 2.074486 1_555
B3 Co8 2.074486 1_555
B3 Co13 2.074486 1_655
B3 Co10 2.074489 1_555
B3 Co3 2.074489 1_555
B3 Dy1 2.894312 1_655
B3 Dy1 2.894316 1_665
B3 Dy1 2.894316 1_555
B4 Co9 2.052688 1_555
B4 Co5 2.052688 1_655
B4 Co7 2.052691 1_555
B4 Co13 2.072304 1_655
B4 Co8 2.072304 1_555
B4 Co3 2.072307 1_555
B4 Dy0 2.895893 1_655
B4 Dy0 2.895897 1_665
B4 Dy0 2.895897 1_555
B5 Co4 2.074486 1_555
B5 Co0 2.074486 1_565
B5 Co8 2.074486 1_565
B5 Co13 2.074486 1_555
B5 Co10 2.074489 1_555
B5 Co3 2.074489 1_555
B5 Dy1 2.894312 1_565
B5 Dy1 2.894316 1_665
B5 Dy1 2.894316 1_555
