# generated using pymatgen
data_Li2B4O7
_symmetry_space_group_name_H-M   'P 1'
_cell_length_a   9.50080896
_cell_length_b   9.50080896
_cell_length_c   9.50080896
_cell_angle_alpha   112.40289372
_cell_angle_beta   112.40289372
_cell_angle_gamma   103.75471704
_symmetry_Int_Tables_number   1
_chemical_formula_structural   Li2B4O7
_chemical_formula_sum   'Li8 B16 O28'
_cell_volume   655.31401680
_cell_formula_units_Z   4
loop_
 _symmetry_equiv_pos_site_id
 _symmetry_equiv_pos_as_xyz
  1  'x, y, z'
loop_
 _atom_site_type_symbol
 _atom_site_label
 _atom_site_symmetry_multiplicity
 _atom_site_fract_x
 _atom_site_fract_y
 _atom_site_fract_z
 _atom_site_occupancy
  Li  Li0  1  0.52597000  0.38933200  0.50460400  1
  Li  Li1  1  0.77136500  0.77597000  0.63663700  1
  Li  Li2  1  0.88472800  0.02136500  0.49539600  1
  Li  Li3  1  0.13933200  0.13472800  0.36336300  1
  Li  Li4  1  0.02597000  0.52136500  0.13663700  1
  Li  Li5  1  0.38472800  0.88933200  0.86336300  1
  Li  Li6  1  0.27136500  0.63472800  0.99539600  1
  Li  Li7  1  0.63933200  0.27597000  0.00460400  1
  B  B0  1  0.68202300  0.70531200  0.26976400  1
  B  B1  1  0.80657400  0.43625300  0.51326900  1
  B  B2  1  0.04330600  0.05657400  0.87032100  1
  B  B3  1  0.93554800  0.20531200  0.02328900  1
  B  B4  1  0.30657400  0.79330600  0.37032100  1
  B  B5  1  0.45531200  0.68554800  0.52328900  1
  B  B6  1  0.42298400  0.93625300  0.62967900  1
  B  B7  1  0.54330600  0.67298400  0.98673100  1
  B  B8  1  0.18625300  0.17298400  0.12967900  1
  B  B9  1  0.43554800  0.41225900  0.73023600  1
  B  B10  1  0.92298400  0.29330600  0.48673100  1
  B  B11  1  0.68625300  0.55657400  0.01326900  1
  B  B12  1  0.95531200  0.43202300  0.76976400  1
  B  B13  1  0.66225900  0.18554800  0.23023600  1
  B  B14  1  0.16225900  0.93202300  0.47671100  1
  B  B15  1  0.18202300  0.91225900  0.97671100  1
  O  O0  1  0.89908600  0.07729700  0.85008100  1
  O  O1  1  0.14983300  0.79370200  0.32323200  1
  O  O2  1  0.32729700  0.64908600  0.35008100  1
  O  O3  1  0.64983300  0.32660100  0.35613100  1
  O  O4  1  0.75235100  0.79778200  0.44169200  1
  O  O5  1  0.57660100  0.39983300  0.85613100  1
  O  O6  1  0.70112700  0.70112700  0.00000000  1
  O  O7  1  0.25235100  0.81065900  0.95457000  1
  O  O8  1  0.04778200  0.50235100  0.94169200  1
  O  O9  1  0.54370200  0.72047000  0.14386900  1
  O  O10  1  0.72721600  0.57729700  0.17821100  1
  O  O11  1  0.47047000  0.82660100  0.67676800  1
  O  O12  1  0.79900500  0.14908600  0.32178900  1
  O  O13  1  0.56065900  0.10608900  0.05830800  1
  O  O14  1  0.04370200  0.89983300  0.82323200  1
  O  O15  1  0.06065900  0.00235100  0.45457000  1
  O  O16  1  0.45112700  0.95112700  0.50000000  1
  O  O17  1  0.35608900  0.31065900  0.55830800  1
  O  O18  1  0.20112700  0.20112700  0.00000000  1
  O  O19  1  0.82729700  0.47721600  0.67821100  1
  O  O20  1  0.97047000  0.29370200  0.64386900  1
  O  O21  1  0.85608900  0.29778200  0.04543000  1
  O  O22  1  0.22721600  0.04900500  0.14991900  1
  O  O23  1  0.29900500  0.97721600  0.64991900  1
  O  O24  1  0.54778200  0.60608900  0.54543000  1
  O  O25  1  0.07660100  0.22047000  0.17676800  1
  O  O26  1  0.95112700  0.45112700  0.50000000  1
  O  O27  1  0.39908600  0.54900500  0.82178900  1
loop_
_geom_bond_atom_site_label_1
_geom_bond_atom_site_label_2
_geom_bond_distance
_geom_bond_site_symmetry_2
Li0 O24 1.887145 1_555
Li0 O17 1.941333 1_555
Li0 O3 2.165158 1_555
Li0 O19 2.414104 1_555
Li1 O4 1.887145 1_555
Li1 O24 1.941322 1_555
Li1 O14 2.165166 1_655
Li1 O0 2.414104 1_565
Li2 O15 1.887145 1_655
Li2 O4 1.941317 1_545
Li2 O20 2.165166 1_555
Li2 O12 2.414112 1_555
Li3 O17 1.887145 1_555
Li3 O15 1.941325 1_555
Li3 O25 2.165166 1_555
Li3 O22 2.414112 1_555
Li4 O8 1.887145 1_554
Li4 O21 1.941322 1_455
Li4 O1 2.165166 1_555
Li4 O2 2.414104 1_555
Li5 O13 1.887145 1_566
Li5 O7 1.941325 1_555
Li5 O11 2.165166 1_555
Li5 O23 2.414112 1_555
Li6 O7 1.887145 1_555
Li6 O8 1.941317 1_555
Li6 O9 2.165166 1_556
Li6 O27 2.414112 1_555
Li7 O21 1.887145 1_555
Li7 O13 1.941333 1_555
Li7 O5 2.165158 1_554
Li7 O10 2.414104 1_555
B0 O4 1.296744 1_555
B0 O10 1.465209 1_555
B0 O9 1.483774 1_555
B1 O19 1.381843 1_555
B1 O3 1.383444 1_555
B1 O26 1.405442 1_555
B2 O0 1.381852 1_455
B2 O14 1.383440 1_545
B2 O18 1.405438 1_556
B3 O21 1.296750 1_555
B3 O0 1.465209 1_554
B3 O25 1.483774 1_655
B4 O2 1.381852 1_555
B4 O1 1.383440 1_555
B4 O16 1.405438 1_555
B5 O24 1.296750 1_555
B5 O2 1.465209 1_555
B5 O11 1.483774 1_555
B6 O23 1.381843 1_555
B6 O11 1.383444 1_555
B6 O16 1.405442 1_555
B7 O27 1.381846 1_555
B7 O9 1.383449 1_556
B7 O6 1.405433 1_556
B8 O22 1.381843 1_555
B8 O25 1.383444 1_555
B8 O18 1.405442 1_555
B9 O17 1.296743 1_555
B9 O27 1.465209 1_555
B9 O5 1.483774 1_555
B10 O12 1.381846 1_555
B10 O20 1.383449 1_555
B10 O26 1.405433 1_555
B11 O10 1.381843 1_555
B11 O5 1.383444 1_554
B11 O6 1.405442 1_555
B12 O8 1.296744 1_655
B12 O19 1.465209 1_555
B12 O20 1.483774 1_555
B13 O13 1.296743 1_555
B13 O12 1.465209 1_555
B13 O3 1.483774 1_555
B14 O15 1.296743 1_565
B14 O23 1.465209 1_555
B14 O1 1.483774 1_555
B15 O7 1.296743 1_555
B15 O22 1.465209 1_566
B15 O14 1.483774 1_555
