# generated using pymatgen
data_Na3LiBe2F8
_symmetry_space_group_name_H-M   'P 1'
_cell_length_a   9.84780300
_cell_length_b   6.59964200
_cell_length_c   10.05712858
_cell_angle_alpha   86.23769464
_cell_angle_beta   90.00000000
_cell_angle_gamma   90.00000000
_symmetry_Int_Tables_number   1
_chemical_formula_structural   Na3LiBe2F8
_chemical_formula_sum   'Na12 Li4 Be8 F32'
_cell_volume   652.22396832
_cell_formula_units_Z   4
loop_
 _symmetry_equiv_pos_site_id
 _symmetry_equiv_pos_as_xyz
  1  'x, y, z'
loop_
 _atom_site_type_symbol
 _atom_site_label
 _atom_site_symmetry_multiplicity
 _atom_site_fract_x
 _atom_site_fract_y
 _atom_site_fract_z
 _atom_site_occupancy
  Na  Na0  1  0.21696000  0.35526000  0.36720300  1
  Na  Na1  1  0.92299700  0.16677500  0.60784700  1
  Na  Na2  1  0.71696000  0.64474000  0.13279700  1
  Na  Na3  1  0.42299700  0.83322500  0.89215300  1
  Na  Na4  1  0.38993400  0.64394900  0.57917800  1
  Na  Na5  1  0.61006600  0.35605100  0.42082200  1
  Na  Na6  1  0.78304000  0.64474000  0.63279700  1
  Na  Na7  1  0.28304000  0.35526000  0.86720300  1
  Na  Na8  1  0.57700300  0.16677500  0.10784700  1
  Na  Na9  1  0.11006600  0.64394900  0.07917800  1
  Na  Na10  1  0.07700300  0.83322500  0.39215300  1
  Na  Na11  1  0.88993400  0.35605100  0.92082200  1
  Li  Li0  1  0.12395600  0.95220700  0.80085000  1
  Li  Li1  1  0.37604400  0.95220700  0.30085000  1
  Li  Li2  1  0.87604400  0.04779300  0.19915000  1
  Li  Li3  1  0.62395600  0.04779300  0.69915000  1
  Be  Be0  1  0.58209600  0.37715000  0.83815900  1
  Be  Be1  1  0.91790400  0.37715000  0.33815900  1
  Be  Be2  1  0.83752000  0.89683200  0.91102300  1
  Be  Be3  1  0.08209600  0.62285000  0.66184100  1
  Be  Be4  1  0.16248000  0.10316800  0.08897700  1
  Be  Be5  1  0.41790400  0.62285000  0.16184100  1
  Be  Be6  1  0.33752000  0.10316800  0.58897700  1
  Be  Be7  1  0.66248000  0.89683200  0.41102300  1
  F  F0  1  0.22229500  0.14655900  0.69044400  1
  F  F1  1  0.18363700  0.67566400  0.77674400  1
  F  F2  1  0.90385100  0.69566300  0.97058100  1
  F  F3  1  0.59614900  0.69566300  0.47058100  1
  F  F4  1  0.94434500  0.04199100  0.83836700  1
  F  F5  1  0.27922200  0.99036600  0.46698500  1
  F  F6  1  0.52210500  0.46073000  0.21500000  1
  F  F7  1  0.97789500  0.46073000  0.71500000  1
  F  F8  1  0.09614900  0.30433700  0.02941900  1
  F  F9  1  0.22077800  0.99036600  0.96698500  1
  F  F10  1  0.68363700  0.32433600  0.72325600  1
  F  F11  1  0.77922200  0.00963400  0.03301500  1
  F  F12  1  0.31636300  0.67566400  0.27674400  1
  F  F13  1  0.55565500  0.04199100  0.33836700  1
  F  F14  1  0.50157100  0.17693300  0.88325000  1
  F  F15  1  0.99842900  0.17693300  0.38325000  1
  F  F16  1  0.66492700  0.43853300  0.96030000  1
  F  F17  1  0.81636300  0.32433600  0.22325600  1
  F  F18  1  0.16492700  0.56146700  0.53970000  1
  F  F19  1  0.44434500  0.95800900  0.66163300  1
  F  F20  1  0.83507300  0.43853300  0.46030000  1
  F  F21  1  0.47789500  0.53927000  0.78500000  1
  F  F22  1  0.00157100  0.82306700  0.61675000  1
  F  F23  1  0.49842900  0.82306700  0.11675000  1
  F  F24  1  0.33507300  0.56146700  0.03970000  1
  F  F25  1  0.27770500  0.14655900  0.19044400  1
  F  F26  1  0.02210500  0.53927000  0.28500000  1
  F  F27  1  0.40385100  0.30433700  0.52941900  1
  F  F28  1  0.77770500  0.85344100  0.30955600  1
  F  F29  1  0.72229500  0.85344100  0.80955600  1
  F  F30  1  0.72077800  0.00963400  0.53301500  1
  F  F31  1  0.05565500  0.95800900  0.16163300  1
loop_
_geom_bond_atom_site_label_1
_geom_bond_atom_site_label_2
_geom_bond_distance
_geom_bond_site_symmetry_2
Be0 F16 1.550395 1_555
Be0 F21 1.551935 1_555
Be0 F14 1.581722 1_555
Be0 F10 1.584190 1_555
Be1 F20 1.550395 1_555
Be1 F26 1.551935 1_655
Be1 F15 1.581722 1_555
Be1 F17 1.584190 1_555
Be2 F2 1.563248 1_555
Be2 F29 1.565018 1_555
Be2 F4 1.570515 1_565
Be2 F11 1.583961 1_566
Be3 F18 1.550395 1_555
Be3 F7 1.551935 1_455
Be3 F22 1.581722 1_555
Be3 F1 1.584190 1_555
Be4 F8 1.563248 1_555
Be4 F25 1.565018 1_555
Be4 F31 1.570515 1_545
Be4 F9 1.583961 1_544
Be5 F24 1.550395 1_555
Be5 F6 1.551935 1_555
Be5 F23 1.581722 1_555
Be5 F12 1.584190 1_555
Be6 F27 1.563248 1_555
Be6 F0 1.565018 1_555
Be6 F19 1.570515 1_545
Be6 F5 1.583961 1_545
Be7 F3 1.563248 1_555
Be7 F28 1.565018 1_555
Be7 F13 1.570515 1_565
Be7 F30 1.583961 1_565
F0 Li0 1.905007 1_545
F0 Na7 2.395089 1_555
F1 Li0 1.947614 1_555
F1 Na7 2.450464 1_555
F1 Na4 2.858956 1_555
F2 Na9 2.320434 1_656
F2 Na11 2.332363 1_555
F2 Na2 2.467764 1_556
F3 Na4 2.320434 1_555
F3 Na5 2.332363 1_555
F3 Na6 2.467764 1_555
F4 Li0 1.910857 1_645
F4 Na11 2.344434 1_555
F4 Na1 2.417990 1_555
F5 Li1 1.954350 1_555
F5 Na10 2.389577 1_555
F5 Na0 2.620140 1_565
F5 Na4 2.711114 1_555
F6 Na5 2.307541 1_555
F6 Na8 2.343409 1_555
F6 Na2 2.389276 1_555
F7 Na11 2.307541 1_555
F7 Na1 2.343409 1_555
F7 Na6 2.389276 1_555
F8 Na11 2.320434 1_454
F8 Na9 2.332363 1_555
F8 Na7 2.467764 1_554
F9 Li0 1.954350 1_555
F9 Na3 2.389577 1_555
F9 Na7 2.620140 1_565
F9 Na9 2.711114 1_556
F10 Li3 1.947614 1_555
F10 Na6 2.450464 1_555
F10 Na11 2.858956 1_555
F11 Li2 1.954350 1_555
F11 Na8 2.389577 1_555
F11 Na2 2.620140 1_545
F11 Na11 2.711114 1_554
F12 Li1 1.947614 1_555
F12 Na0 2.450464 1_555
F12 Na9 2.858956 1_555
F13 Li1 1.910857 1_545
F13 Na5 2.344434 1_555
F13 Na8 2.417990 1_555
F14 Na8 2.374577 1_556
F14 Na3 2.392804 1_545
F14 Li3 2.411254 1_555
F14 Na7 2.453063 1_555
F15 Na1 2.374577 1_555
F15 Na10 2.392804 1_645
F15 Li2 2.411254 1_555
F15 Na0 2.453063 1_655
F16 Na11 2.322111 1_555
F16 Na2 2.331103 1_556
F16 Na8 2.412273 1_556
F17 Li2 1.947614 1_555
F17 Na2 2.450464 1_555
F17 Na5 2.858956 1_555
F18 Na4 2.322111 1_555
F18 Na0 2.331103 1_555
F18 Na10 2.412273 1_555
F19 Li3 1.910857 1_565
F19 Na4 2.344434 1_555
F19 Na3 2.417990 1_555
F20 Na5 2.322111 1_555
F20 Na6 2.331103 1_555
F20 Na1 2.412273 1_555
F21 Na4 2.307541 1_555
F21 Na3 2.343409 1_555
F21 Na7 2.389276 1_555
F22 Na10 2.374577 1_555
F22 Na1 2.392804 1_465
F22 Li0 2.411254 1_555
F22 Na6 2.453063 1_455
F23 Na3 2.374577 1_554
F23 Na8 2.392804 1_565
F23 Li1 2.411254 1_555
F23 Na2 2.453063 1_555
F24 Na9 2.322111 1_555
F24 Na7 2.331103 1_554
F24 Na3 2.412273 1_554
F25 Li1 1.905007 1_545
F25 Na0 2.395089 1_555
F26 Na9 2.307541 1_555
F26 Na10 2.343409 1_555
F26 Na0 2.389276 1_555
F27 Na5 2.320434 1_555
F27 Na4 2.332363 1_555
F27 Na0 2.467764 1_555
F28 Li2 1.905007 1_565
F28 Na2 2.395089 1_555
F29 Li3 1.905007 1_565
F29 Na6 2.395089 1_555
F30 Li3 1.954350 1_555
F30 Na1 2.389577 1_555
F30 Na6 2.620140 1_545
F30 Na5 2.711114 1_555
F31 Li2 1.910857 1_465
F31 Na9 2.344434 1_555
F31 Na10 2.417990 1_555
