# generated using pymatgen
data_Eu2B4Rh5
_symmetry_space_group_name_H-M   'P 1'
_cell_length_a   5.50597584
_cell_length_b   5.68274579
_cell_length_c   6.26320214
_cell_angle_alpha   77.69912920
_cell_angle_beta   63.92486697
_cell_angle_gamma   61.00784722
_symmetry_Int_Tables_number   1
_chemical_formula_structural   Eu2B4Rh5
_chemical_formula_sum   'Eu2 B4 Rh5'
_cell_volume   153.96540359
_cell_formula_units_Z   1
loop_
 _symmetry_equiv_pos_site_id
 _symmetry_equiv_pos_as_xyz
  1  'x, y, z'
loop_
 _atom_site_type_symbol
 _atom_site_label
 _atom_site_symmetry_multiplicity
 _atom_site_fract_x
 _atom_site_fract_y
 _atom_site_fract_z
 _atom_site_occupancy
  Eu  Eu0  1  0.14252341  0.00000000  0.71495317  1
  Eu  Eu1  1  0.85747659  -0.00000000  0.28504683  1
  B  B0  1  0.79163075  0.67547107  0.74119132  1
  B  B1  1  0.20836925  0.32452893  0.25880868  1
  B  B2  1  0.46717793  0.32452893  0.74119132  1
  B  B3  1  0.53282207  0.67547107  0.25880868  1
  Rh  Rh0  1  0.50000000  0.50000000  -0.00000000  1
  Rh  Rh1  1  0.25000461  0.50000000  0.49999079  1
  Rh  Rh2  1  0.74999539  0.50000000  0.50000921  1
  Rh  Rh3  1  0.00000000  0.50000000  -0.00000000  1
  Rh  Rh4  1  0.50000000  -0.00000000  -0.00000000  1
loop_
_geom_bond_atom_site_label_1
_geom_bond_atom_site_label_2
_geom_bond_distance
_geom_bond_site_symmetry_2
Eu0 Rh2 3.087361 1_455
Eu0 Rh2 3.087361 1_545
Eu0 Rh1 3.088018 1_555
Eu0 Rh1 3.088018 1_545
Eu0 Rh4 3.185978 1_556
Eu0 Rh4 3.185979 1_456
Eu0 Rh0 3.262072 1_546
Eu0 Rh0 3.262072 1_456
Eu0 Rh3 3.262655 1_546
Eu0 Rh3 3.262655 1_556
Eu1 Rh1 3.087361 1_645
Eu1 Rh1 3.087361 1_555
Eu1 Rh2 3.088018 1_545
Eu1 Rh2 3.088018 1_555
Eu1 Rh4 3.185978 1_555
Eu1 Rh4 3.185979 1_655
Eu1 Rh0 3.262072 1_555
Eu1 Rh0 3.262072 1_645
Eu1 Rh3 3.262655 1_655
Eu1 Rh3 3.262655 1_645
B0 Rh2 2.120502 1_555
B0 Rh1 2.120526 1_655
B0 Rh4 2.173021 1_566
B0 Rh3 2.185240 1_656
B0 Rh0 2.185281 1_556
B0 Eu1 3.031041 1_565
B0 Eu0 3.193624 1_565
B0 Eu0 3.194757 1_665
B1 Rh1 2.120502 1_555
B1 Rh2 2.120526 1_455
B1 Rh4 2.173021 1_555
B1 Rh3 2.185240 1_555
B1 Rh0 2.185281 1_555
B1 Eu0 3.031041 1_555
B1 Eu1 3.193624 1_555
B1 Eu1 3.194757 1_455
B2 Rh2 2.120502 1_555
B2 Rh1 2.120526 1_555
B2 Rh4 2.173020 1_556
B2 Rh3 2.185240 1_556
B2 Rh0 2.185281 1_556
B2 Eu1 3.031042 1_555
B2 Eu0 3.193624 1_655
B2 Eu0 3.194757 1_555
B3 Rh1 2.120502 1_555
B3 Rh2 2.120526 1_555
B3 Rh4 2.173020 1_565
B3 Rh3 2.185240 1_655
B3 Rh0 2.185281 1_555
B3 Eu0 3.031042 1_565
B3 Eu1 3.193624 1_465
B3 Eu1 3.194757 1_565
