# generated using pymatgen
data_La10S19
_symmetry_space_group_name_H-M   'P 1'
_cell_length_a   9.15840477
_cell_length_b   9.15840477
_cell_length_c   16.37264657
_cell_angle_alpha   90.00000000
_cell_angle_beta   90.00000000
_cell_angle_gamma   90.00000000
_symmetry_Int_Tables_number   1
_chemical_formula_structural   La10S19
_chemical_formula_sum   'La20 S38'
_cell_volume   1373.27829144
_cell_formula_units_Z   2
loop_
 _symmetry_equiv_pos_site_id
 _symmetry_equiv_pos_as_xyz
  1  'x, y, z'
loop_
 _atom_site_type_symbol
 _atom_site_label
 _atom_site_symmetry_multiplicity
 _atom_site_fract_x
 _atom_site_fract_y
 _atom_site_fract_z
 _atom_site_occupancy
  La  La0  1  0.54112356  0.84802130  0.87697400  1
  La  La1  1  0.15197870  0.04112356  0.37697300  1
  La  La2  1  0.44384321  0.14659327  0.60150242  1
  La  La3  1  0.65197870  0.54112356  0.62302600  1
  La  La4  1  0.45887644  0.15197870  0.12302600  1
  La  La5  1  0.14659327  0.05615679  0.89849758  1
  La  La6  1  0.75000000  0.25000000  0.88697924  1
  La  La7  1  0.55615679  0.85340673  0.39849758  1
  La  La8  1  0.95887644  0.65197870  0.87697400  1
  La  La9  1  0.75000000  0.25000000  0.38697924  1
  La  La10  1  0.34802130  0.45887644  0.37697300  1
  La  La11  1  0.25000000  0.75000000  0.61302076  1
  La  La12  1  0.04112356  0.34802130  0.12302600  1
  La  La13  1  0.35340673  0.44384321  0.89849758  1
  La  La14  1  0.25000000  0.75000000  0.11302076  1
  La  La15  1  0.84802130  0.95887644  0.62302600  1
  La  La16  1  0.64659327  0.55615679  0.10150242  1
  La  La17  1  0.85340673  0.94384321  0.10150242  1
  La  La18  1  0.94384321  0.64659327  0.39849758  1
  La  La19  1  0.05615679  0.35340673  0.60150242  1
  S  S0  1  0.14794816  0.05367893  0.56207935  1
  S  S1  1  0.05367893  0.35205184  0.93792065  1
  S  S2  1  0.45138993  0.15101948  0.42463305  1
  S  S3  1  0.41720421  0.60959541  0.75001276  1
  S  S4  1  0.75000000  0.25000000  0.56703537  1
  S  S5  1  0.19986250  0.53019379  0.74889869  1
  S  S6  1  0.96980621  0.19986250  0.75110131  1
  S  S7  1  0.03019379  0.80013750  0.24889869  1
  S  S8  1  0.60959541  0.08279579  0.74998724  1
  S  S9  1  0.95138993  0.65101948  0.57536695  1
  S  S10  1  0.65101948  0.54861007  0.92463305  1
  S  S11  1  0.35205184  0.44632107  0.56207935  1
  S  S12  1  0.89040459  0.41720421  0.74998724  1
  S  S13  1  0.15101948  0.04861007  0.07536695  1
  S  S14  1  0.75000000  0.25000000  0.06703537  1
  S  S15  1  0.58279579  0.39040459  0.24998724  1
  S  S16  1  0.55367893  0.85205184  0.06207935  1
  S  S17  1  0.64794816  0.55367893  0.43792065  1
  S  S18  1  0.80013750  0.46980621  0.25110131  1
  S  S19  1  0.30013750  0.96980621  0.74889869  1
  S  S20  1  0.91720421  0.10959541  0.24998724  1
  S  S21  1  0.04861007  0.34898052  0.42463305  1
  S  S22  1  0.75000000  0.75000000  0.75000000  1
  S  S23  1  0.08279579  0.89040459  0.75001276  1
  S  S24  1  0.25000000  0.75000000  0.43296463  1
  S  S25  1  0.46980621  0.69986250  0.24889869  1
  S  S26  1  0.53019379  0.30013750  0.75110131  1
  S  S27  1  0.85205184  0.94632107  0.43792065  1
  S  S28  1  0.39040459  0.91720421  0.25001276  1
  S  S29  1  0.94632107  0.64794816  0.06207935  1
  S  S30  1  0.69986250  0.03019379  0.25110131  1
  S  S31  1  0.44632107  0.14794816  0.93792065  1
  S  S32  1  0.84898052  0.95138993  0.92463305  1
  S  S33  1  0.34898052  0.45138993  0.07536695  1
  S  S34  1  0.25000000  0.25000000  0.25000000  1
  S  S35  1  0.25000000  0.75000000  0.93296463  1
  S  S36  1  0.10959541  0.58279579  0.25001276  1
  S  S37  1  0.54861007  0.84898052  0.57536695  1
loop_
_geom_bond_atom_site_label_1
_geom_bond_atom_site_label_2
_geom_bond_distance
_geom_bond_site_symmetry_2
La0 S35 2.958891 1_555
La0 S22 2.964321 1_555
La0 S10 3.023431 1_555
La0 S16 3.033070 1_556
La0 S31 3.048730 1_565
La0 S8 3.055999 1_565
La0 S32 3.074827 1_555
La0 S3 3.221347 1_555
La0 S19 3.242252 1_555
La1 S24 2.958896 1_545
La1 S34 2.964310 1_555
La1 S2 3.023435 1_555
La1 S0 3.033086 1_555
La1 S27 3.048735 1_445
La1 S20 3.055988 1_455
La1 S21 3.074831 1_555
La1 S28 3.221337 1_545
La1 S7 3.242242 1_545
La2 S2 2.896928 1_555
La2 S0 2.912805 1_555
La2 S37 2.921122 1_545
La2 S8 2.925062 1_555
La2 S26 2.932932 1_555
La2 S11 2.942535 1_555
La2 S4 3.012846 1_555
La2 S19 3.190213 1_545
La3 S4 2.958891 1_555
La3 S22 2.964321 1_555
La3 S9 3.023431 1_555
La3 S17 3.033070 1_555
La3 S11 3.048730 1_555
La3 S3 3.055999 1_555
La3 S37 3.074827 1_555
La3 S12 3.221347 1_555
La3 S26 3.242252 1_555
La4 S14 2.958891 1_555
La4 S34 2.964321 1_555
La4 S33 3.023431 1_555
La4 S31 3.033070 1_554
La4 S16 3.048730 1_545
La4 S28 3.055999 1_545
La4 S13 3.074827 1_555
La4 S15 3.221347 1_555
La4 S30 3.242252 1_555
La5 S13 2.896928 1_556
La5 S1 2.912805 1_555
La5 S32 2.921122 1_445
La5 S23 2.925062 1_545
La5 S19 2.932932 1_545
La5 S31 2.942535 1_555
La5 S35 3.012846 1_545
La5 S6 3.190213 1_455
La6 S32 2.946336 1_545
La6 S10 2.946336 1_555
La6 S14 2.947995 1_556
La6 S8 3.004853 1_555
La6 S12 3.004853 1_555
La6 S26 3.035213 1_555
La6 S6 3.035213 1_555
La6 S1 3.050299 1_655
La6 S31 3.050299 1_555
La7 S37 2.896928 1_555
La7 S27 2.912805 1_555
La7 S2 2.921122 1_565
La7 S28 2.925062 1_555
La7 S25 2.932932 1_555
La7 S17 2.942535 1_555
La7 S24 3.012846 1_555
La7 S30 3.190213 1_565
La8 S35 2.958891 1_655
La8 S22 2.964321 1_555
La8 S32 3.023431 1_555
La8 S29 3.033070 1_556
La8 S1 3.048730 1_655
La8 S12 3.055999 1_555
La8 S10 3.074827 1_555
La8 S23 3.221347 1_655
La8 S5 3.242252 1_655
La9 S2 2.946336 1_555
La9 S21 2.946336 1_655
La9 S4 2.947995 1_555
La9 S20 3.004853 1_555
La9 S15 3.004853 1_555
La9 S18 3.035213 1_555
La9 S30 3.035213 1_555
La9 S27 3.050299 1_545
La9 S17 3.050299 1_555
La10 S24 2.958896 1_555
La10 S34 2.964310 1_555
La10 S21 3.023435 1_555
La10 S11 3.033086 1_555
La10 S17 3.048735 1_555
La10 S15 3.055988 1_555
La10 S2 3.074831 1_555
La10 S36 3.221337 1_555
La10 S25 3.242242 1_555
La11 S9 2.946336 1_455
La11 S37 2.946336 1_555
La11 S24 2.947995 1_555
La11 S3 3.004853 1_555
La11 S23 3.004853 1_555
La11 S19 3.035213 1_555
La11 S5 3.035213 1_555
La11 S11 3.050299 1_555
La11 S0 3.050299 1_565
La12 S14 2.958891 1_455
La12 S34 2.964321 1_555
La12 S13 3.023431 1_555
La12 S1 3.033070 1_554
La12 S29 3.048730 1_455
La12 S36 3.055999 1_555
La12 S33 3.074827 1_555
La12 S20 3.221347 1_455
La12 S18 3.242252 1_455
La13 S33 2.896928 1_556
La13 S31 2.912805 1_555
La13 S10 2.921122 1_555
La13 S3 2.925062 1_555
La13 S5 2.932932 1_555
La13 S1 2.942535 1_555
La13 S35 3.012846 1_555
La13 S26 3.190213 1_555
La14 S33 2.946336 1_555
La14 S13 2.946336 1_565
La14 S35 2.947995 1_554
La14 S28 3.004853 1_555
La14 S36 3.004853 1_555
La14 S7 3.035213 1_555
La14 S25 3.035213 1_555
La14 S29 3.050299 1_455
La14 S16 3.050299 1_555
La15 S4 2.958891 1_565
La15 S22 2.964321 1_555
La15 S37 3.023431 1_555
La15 S27 3.033070 1_555
La15 S0 3.048730 1_665
La15 S23 3.055999 1_655
La15 S9 3.074827 1_555
La15 S8 3.221347 1_565
La15 S6 3.242252 1_565
La16 S10 2.896928 1_554
La16 S16 2.912805 1_555
La16 S33 2.921122 1_555
La16 S15 2.925062 1_555
La16 S18 2.932932 1_555
La16 S29 2.942535 1_555
La16 S14 3.012846 1_555
La16 S25 3.190213 1_555
La17 S32 2.896928 1_554
La17 S29 2.912805 1_555
La17 S13 2.921122 1_665
La17 S20 2.925062 1_565
La17 S30 2.932932 1_565
La17 S16 2.942535 1_555
La17 S14 3.012846 1_565
La17 S7 3.190213 1_655
La18 S9 2.896928 1_555
La18 S17 2.912805 1_555
La18 S21 2.921122 1_655
La18 S36 2.925062 1_655
La18 S7 2.932932 1_655
La18 S27 2.942535 1_555
La18 S24 3.012846 1_655
La18 S18 3.190213 1_555
La19 S21 2.896928 1_555
La19 S11 2.912805 1_555
La19 S9 2.921122 1_455
La19 S12 2.925062 1_455
La19 S6 2.932932 1_455
La19 S0 2.942535 1_555
La19 S4 3.012846 1_455
La19 S5 3.190213 1_555
S3 S5 2.119256 1_555
S12 S6 2.119256 1_555
S15 S18 2.119256 1_555
S19 S23 2.119256 1_555
S20 S30 2.119256 1_555
S25 S28 2.119256 1_555
S26 S8 2.119256 1_555
S36 S7 2.119256 1_555
