# generated using pymatgen
data_BaCu(SiO3)2
_symmetry_space_group_name_H-M   'P 1'
_cell_length_a   7.55840098
_cell_length_b   7.55840098
_cell_length_c   7.55840098
_cell_angle_alpha   123.23058122
_cell_angle_beta   123.23058122
_cell_angle_gamma   84.48999743
_symmetry_Int_Tables_number   1
_chemical_formula_structural   BaCu(SiO3)2
_chemical_formula_sum   'Ba2 Cu2 Si4 O12'
_cell_volume   288.96349471
_cell_formula_units_Z   2
loop_
 _symmetry_equiv_pos_site_id
 _symmetry_equiv_pos_as_xyz
  1  'x, y, z'
loop_
 _atom_site_type_symbol
 _atom_site_label
 _atom_site_symmetry_multiplicity
 _atom_site_fract_x
 _atom_site_fract_y
 _atom_site_fract_z
 _atom_site_occupancy
  Ba  Ba0  1  0.25000000  0.75000000  0.50000000  1
  Ba  Ba1  1  0.75000000  0.25000000  0.50000000  1
  Cu  Cu0  1  0.12106600  0.12106600  0.00000000  1
  Cu  Cu1  1  0.87893400  0.87893400  0.00000000  1
  Si  Si0  1  0.72607700  0.27392300  0.00000000  1
  Si  Si1  1  0.27392300  0.27392300  0.54784700  1
  Si  Si2  1  0.27392300  0.72607700  0.00000000  1
  Si  Si3  1  0.72607700  0.72607700  0.45215300  1
  O  O0  1  0.50000000  0.23529600  0.73529600  1
  O  O1  1  0.68248000  0.06748000  0.00000000  1
  O  O2  1  0.06748000  0.06748000  0.38500100  1
  O  O3  1  0.23529600  0.50000000  0.73529600  1
  O  O4  1  0.31752000  0.93252000  0.00000000  1
  O  O5  1  0.50000000  0.76470400  0.26470400  1
  O  O6  1  0.76470400  0.50000000  0.26470400  1
  O  O7  1  0.06748000  0.68248000  0.00000000  1
  O  O8  1  0.31752000  0.31752000  0.38500100  1
  O  O9  1  0.93252000  0.93252000  0.61499900  1
  O  O10  1  0.93252000  0.31752000  0.00000000  1
  O  O11  1  0.68248000  0.68248000  0.61499900  1
loop_
_geom_bond_atom_site_label_1
_geom_bond_atom_site_label_2
_geom_bond_distance
_geom_bond_site_symmetry_2
Ba0 O2 2.958556 1_565
Ba0 O9 2.958556 1_455
Ba0 O4 2.958559 1_556
Ba0 O1 2.958559 1_566
Ba0 O7 2.958559 1_555
Ba0 O10 2.958559 1_455
Ba0 O8 2.958561 1_555
Ba0 O11 2.958561 1_555
Ba0 O3 3.268959 1_555
Ba0 O0 3.268959 1_565
Ba0 O5 3.268959 1_555
Ba0 O6 3.268959 1_455
Ba1 O9 2.958556 1_545
Ba1 O2 2.958556 1_655
Ba1 O4 2.958559 1_545
Ba1 O1 2.958559 1_555
Ba1 O10 2.958559 1_556
Ba1 O7 2.958559 1_656
Ba1 O11 2.958561 1_555
Ba1 O8 2.958561 1_555
Ba1 O0 3.268959 1_555
Ba1 O6 3.268959 1_555
Ba1 O5 3.268959 1_545
Ba1 O3 3.268959 1_655
Cu0 O4 1.956889 1_545
Cu0 O10 1.956889 1_455
Cu0 O8 1.956894 1_555
Cu0 O9 1.956894 1_444
Cu1 O7 1.956889 1_655
Cu1 O1 1.956889 1_565
Cu1 O11 1.956894 1_554
Cu1 O2 1.956894 1_665
O0 Si1 1.648213 1_555
O0 Si0 1.648216 1_556
O1 Si0 1.625457 1_555
O2 Si1 1.625457 1_555
O3 Si1 1.648213 1_555
O3 Si2 1.648216 1_556
O4 Si2 1.625457 1_555
O5 Si3 1.648213 1_555
O5 Si2 1.648216 1_555
O6 Si3 1.648213 1_555
O6 Si0 1.648216 1_555
O7 Si2 1.625457 1_555
O8 Si1 1.625457 1_555
O9 Si3 1.625457 1_555
O10 Si0 1.625457 1_555
O11 Si3 1.625457 1_555
