# generated using pymatgen
data_CsLa(SO4)2
_symmetry_space_group_name_H-M   'P 1'
_cell_length_a   5.55149500
_cell_length_b   8.13149500
_cell_length_c   18.95256405
_cell_angle_alpha   66.64030571
_cell_angle_beta   90.00000000
_cell_angle_gamma   90.00000000
_symmetry_Int_Tables_number   1
_chemical_formula_structural   CsLa(SO4)2
_chemical_formula_sum   'Cs4 La4 S8 O32'
_cell_volume   785.42909812
_cell_formula_units_Z   4
loop_
 _symmetry_equiv_pos_site_id
 _symmetry_equiv_pos_as_xyz
  1  'x, y, z'
loop_
 _atom_site_type_symbol
 _atom_site_label
 _atom_site_symmetry_multiplicity
 _atom_site_fract_x
 _atom_site_fract_y
 _atom_site_fract_z
 _atom_site_occupancy
  Cs  Cs0  1  0.76629500  0.97771200  0.38439300  1
  Cs  Cs1  1  0.26629500  0.02228800  0.11560700  1
  Cs  Cs2  1  0.23370500  0.02228800  0.61560700  1
  Cs  Cs3  1  0.73370500  0.97771200  0.88439300  1
  La  La0  1  0.18749100  0.50467200  0.86381600  1
  La  La1  1  0.68749100  0.49532800  0.63618400  1
  La  La2  1  0.31250900  0.50467200  0.36381600  1
  La  La3  1  0.81250900  0.49532800  0.13618400  1
  S  S0  1  0.76389000  0.69976000  0.25423900  1
  S  S1  1  0.25551000  0.65234600  0.02136600  1
  S  S2  1  0.75551000  0.34765400  0.47863400  1
  S  S3  1  0.26389000  0.30024000  0.24576100  1
  S  S4  1  0.23611000  0.30024000  0.74576100  1
  S  S5  1  0.24449000  0.65234600  0.52136600  1
  S  S6  1  0.73611000  0.69976000  0.75423900  1
  S  S7  1  0.74449000  0.34765400  0.97863400  1
  O  O0  1  0.93793800  0.23935500  0.96242700  1
  O  O1  1  0.78555500  0.77311700  0.16888900  1
  O  O2  1  0.72335700  0.30138500  0.06264100  1
  O  O3  1  0.01067800  0.26865500  0.71097800  1
  O  O4  1  0.28555500  0.22688300  0.33111100  1
  O  O5  1  0.55339900  0.78090600  0.27764100  1
  O  O6  1  0.21444500  0.22688300  0.83111100  1
  O  O7  1  0.81432600  0.53932400  0.93666400  1
  O  O8  1  0.50768500  0.31159400  0.94995100  1
  O  O9  1  0.27664300  0.69861500  0.93735900  1
  O  O10  1  0.71444500  0.77311700  0.66888900  1
  O  O11  1  0.31432600  0.46067600  0.56333600  1
  O  O12  1  0.71385100  0.50144100  0.28115400  1
  O  O13  1  0.22335700  0.69861500  0.43735900  1
  O  O14  1  0.05339900  0.21909400  0.22235900  1
  O  O15  1  0.28614900  0.49855900  0.71884600  1
  O  O16  1  0.49231500  0.68840600  0.05004900  1
  O  O17  1  0.56206200  0.23935500  0.46242700  1
  O  O18  1  0.44660100  0.21909400  0.72235900  1
  O  O19  1  0.18567400  0.46067600  0.06333600  1
  O  O20  1  0.51067800  0.73134500  0.78902200  1
  O  O21  1  0.21385100  0.49855900  0.21884600  1
  O  O22  1  0.68567400  0.53932400  0.43666400  1
  O  O23  1  0.06206200  0.76064500  0.03757300  1
  O  O24  1  0.78614900  0.50144100  0.78115400  1
  O  O25  1  0.98932200  0.73134500  0.28902200  1
  O  O26  1  0.00768500  0.68840600  0.55004900  1
  O  O27  1  0.43793800  0.76064500  0.53757300  1
  O  O28  1  0.99231500  0.31159400  0.44995100  1
  O  O29  1  0.48932200  0.26865500  0.21097800  1
  O  O30  1  0.94660100  0.78090600  0.77764100  1
  O  O31  1  0.77664300  0.30138500  0.56264100  1
loop_
_geom_bond_atom_site_label_1
_geom_bond_atom_site_label_2
_geom_bond_distance
_geom_bond_site_symmetry_2
Cs0 O17 3.239514 1_565
Cs0 O5 3.258674 1_555
Cs0 O4 3.259613 1_565
Cs0 O13 3.284796 1_655
Cs0 O27 3.286804 1_555
Cs0 O14 3.323217 1_665
Cs0 O22 3.329970 1_555
Cs0 O26 3.366020 1_655
Cs0 O25 3.418331 1_555
Cs0 O4 3.436892 1_665
Cs0 O29 3.549272 1_565
Cs0 O28 3.628256 1_565
Cs0 O13 3.665584 1_555
Cs1 O23 3.239514 1_545
Cs1 O14 3.258674 1_555
Cs1 O1 3.259613 1_445
Cs1 O2 3.284796 1_555
Cs1 O0 3.286804 1_454
Cs1 O5 3.323217 1_545
Cs1 O19 3.329970 1_555
Cs1 O8 3.366020 1_554
Cs1 O29 3.418331 1_555
Cs1 O1 3.436892 1_545
Cs1 O25 3.549272 1_445
Cs1 O16 3.628256 1_545
Cs1 O2 3.665584 1_455
Cs2 O27 3.239514 1_545
Cs2 O18 3.258674 1_555
Cs2 O10 3.259613 1_545
Cs2 O31 3.284796 1_455
Cs2 O17 3.286804 1_555
Cs2 O30 3.323217 1_445
Cs2 O11 3.329970 1_555
Cs2 O28 3.366020 1_455
Cs2 O3 3.418331 1_555
Cs2 O10 3.436892 1_445
Cs2 O20 3.549272 1_545
Cs2 O26 3.628256 1_545
Cs2 O31 3.665584 1_555
Cs3 O0 3.239514 1_565
Cs3 O30 3.258674 1_555
Cs3 O6 3.259613 1_665
Cs3 O9 3.284796 1_555
Cs3 O23 3.286804 1_656
Cs3 O18 3.323217 1_565
Cs3 O7 3.329970 1_555
Cs3 O16 3.366020 1_556
Cs3 O20 3.418331 1_555
Cs3 O6 3.436892 1_565
Cs3 O3 3.549272 1_665
Cs3 O8 3.628256 1_565
Cs3 O9 3.665584 1_655
La0 O8 2.501430 1_555
La0 O9 2.533360 1_555
La0 O20 2.560051 1_555
La0 O7 2.566269 1_455
La0 O30 2.567496 1_455
La0 O6 2.572793 1_555
La0 O0 2.620923 1_455
La0 O24 2.729825 1_455
La0 O15 2.821312 1_555
La1 O26 2.501430 1_655
La1 O31 2.533360 1_555
La1 O3 2.560051 1_655
La1 O11 2.566269 1_555
La1 O18 2.567496 1_555
La1 O10 2.572793 1_555
La1 O27 2.620923 1_555
La1 O15 2.729825 1_555
La1 O24 2.821312 1_555
La2 O28 2.501430 1_455
La2 O13 2.533360 1_555
La2 O25 2.560051 1_455
La2 O22 2.566269 1_555
La2 O5 2.567496 1_555
La2 O4 2.572793 1_555
La2 O17 2.620923 1_555
La2 O12 2.729825 1_555
La2 O21 2.821312 1_555
La3 O16 2.501430 1_555
La3 O2 2.533360 1_555
La3 O29 2.560051 1_555
La3 O19 2.566269 1_655
La3 O14 2.567496 1_655
La3 O1 2.572793 1_555
La3 O23 2.620923 1_655
La3 O21 2.729825 1_655
La3 O12 2.821312 1_555
O0 S7 1.495890 1_555
O1 S0 1.490551 1_555
O2 S7 1.488363 1_554
O3 S4 1.483584 1_555
O4 S3 1.490551 1_555
O5 S0 1.493207 1_555
O6 S4 1.490551 1_555
O7 S7 1.492994 1_555
O8 S7 1.495371 1_555
O9 S1 1.488363 1_556
O10 S6 1.490551 1_555
O11 S5 1.492994 1_555
O12 S0 1.511825 1_555
O13 S5 1.488363 1_555
O14 S3 1.493207 1_555
O15 S4 1.511825 1_555
O16 S1 1.495371 1_555
O17 S2 1.495890 1_555
O18 S4 1.493207 1_555
O19 S1 1.492994 1_555
O20 S6 1.483584 1_555
O21 S3 1.511825 1_555
O22 S2 1.492994 1_555
O23 S1 1.495890 1_555
O24 S6 1.511825 1_555
O25 S0 1.483584 1_555
O26 S5 1.495371 1_555
O27 S5 1.495890 1_555
O28 S2 1.495371 1_555
O29 S3 1.483584 1_555
O30 S6 1.493207 1_555
O31 S2 1.488363 1_555
