# generated using pymatgen
data_MgZn5
_symmetry_space_group_name_H-M   'P 1'
_cell_length_a   9.86458361
_cell_length_b   9.86458361
_cell_length_c   8.85243832
_cell_angle_alpha   67.94503849
_cell_angle_beta   67.94503849
_cell_angle_gamma   29.61528299
_symmetry_Int_Tables_number   1
_chemical_formula_structural   MgZn5
_chemical_formula_sum   'Mg4 Zn20'
_cell_volume   392.27643415
_cell_formula_units_Z   4
loop_
 _symmetry_equiv_pos_site_id
 _symmetry_equiv_pos_as_xyz
  1  'x, y, z'
loop_
 _atom_site_type_symbol
 _atom_site_label
 _atom_site_symmetry_multiplicity
 _atom_site_fract_x
 _atom_site_fract_y
 _atom_site_fract_z
 _atom_site_occupancy
  Mg  Mg0  1  0.28090500  0.28090500  0.37363500  1
  Mg  Mg1  1  0.71909500  0.71909500  0.62636500  1
  Mg  Mg2  1  0.46648700  0.46648700  0.20212800  1
  Mg  Mg3  1  0.53351300  0.53351300  0.79787200  1
  Zn  Zn0  1  0.50000000  0.50000000  0.50000000  1
  Zn  Zn1  1  0.03533600  0.03533600  0.29540500  1
  Zn  Zn2  1  0.21079700  0.21079700  0.12546800  1
  Zn  Zn3  1  0.12314500  0.12314500  0.71189900  1
  Zn  Zn4  1  0.87685500  0.87685500  0.28810100  1
  Zn  Zn5  1  0.12298900  0.61614700  0.03820300  1
  Zn  Zn6  1  0.11910300  0.62489500  0.54026400  1
  Zn  Zn7  1  0.96466400  0.96466400  0.70459500  1
  Zn  Zn8  1  0.74676400  0.74676400  0.23552000  1
  Zn  Zn9  1  0.37510500  0.88089700  0.45973600  1
  Zn  Zn10  1  0.62489500  0.11910300  0.54026400  1
  Zn  Zn11  1  0.88089700  0.37510500  0.45973600  1
  Zn  Zn12  1  0.38385300  0.87701100  0.96179700  1
  Zn  Zn13  1  0.78920300  0.78920300  0.87453200  1
  Zn  Zn14  1  0.61614700  0.12298900  0.03820300  1
  Zn  Zn15  1  0.87701100  0.38385300  0.96179700  1
  Zn  Zn16  1  0.00000000  0.00000000  0.00000000  1
  Zn  Zn17  1  0.38798700  0.38798700  0.77897100  1
  Zn  Zn18  1  0.61201300  0.61201300  0.22102900  1
  Zn  Zn19  1  0.25323600  0.25323600  0.76448000  1
loop_
_geom_bond_atom_site_label_1
_geom_bond_atom_site_label_2
_geom_bond_distance
_geom_bond_site_symmetry_2
Mg0 Zn6 2.968463 1_555
Mg0 Zn10 2.968463 1_555
Mg0 Zn8 2.982208 1_455
Mg0 Zn8 2.982208 1_545
Mg0 Zn2 2.982702 1_555
Mg0 Zn9 2.985380 1_545
Mg0 Zn11 2.985380 1_455
Mg0 Zn4 3.033555 1_455
Mg0 Zn4 3.033555 1_545
Mg0 Zn14 3.053249 1_555
Mg0 Zn5 3.053249 1_555
Mg0 Mg2 3.265036 1_555
Mg0 Mg1 3.271481 1_455
Mg0 Mg1 3.271481 1_545
Mg0 Zn19 3.291084 1_555
Mg0 Zn3 3.319961 1_555
Mg1 Zn9 2.968463 1_555
Mg1 Zn11 2.968463 1_555
Mg1 Zn19 2.982208 1_565
Mg1 Zn19 2.982208 1_655
Mg1 Zn13 2.982702 1_555
Mg1 Zn10 2.985380 1_565
Mg1 Zn6 2.985380 1_655
Mg1 Zn3 3.033555 1_565
Mg1 Zn3 3.033555 1_655
Mg1 Zn15 3.053249 1_555
Mg1 Zn12 3.053249 1_555
Mg1 Mg3 3.265036 1_555
Mg1 Zn8 3.291084 1_555
Mg1 Zn4 3.319961 1_555
Mg2 Zn18 2.844923 1_555
Mg2 Zn0 2.944681 1_555
Mg2 Zn4 2.974474 1_545
Mg2 Zn4 2.974474 1_455
Mg2 Zn16 3.012964 1_565
Mg2 Zn16 3.012964 1_655
Mg2 Zn5 3.025374 1_555
Mg2 Zn14 3.025374 1_555
Mg2 Zn1 3.099168 1_655
Mg2 Zn1 3.099168 1_565
Mg2 Zn10 3.105419 1_555
Mg2 Zn6 3.105419 1_555
Mg2 Zn12 3.268467 1_554
Mg2 Zn15 3.268467 1_554
Mg2 Mg3 3.299586 1_554
Mg3 Zn17 2.844923 1_555
Mg3 Zn0 2.944681 1_555
Mg3 Zn3 2.974474 1_655
Mg3 Zn3 2.974474 1_565
Mg3 Zn16 3.012964 1_656
Mg3 Zn16 3.012964 1_566
Mg3 Zn15 3.025374 1_555
Mg3 Zn12 3.025374 1_555
Mg3 Zn7 3.099168 1_545
Mg3 Zn7 3.099168 1_455
Mg3 Zn9 3.105419 1_555
Mg3 Zn11 3.105419 1_555
Mg3 Zn14 3.268467 1_556
Mg3 Zn5 3.268467 1_556
Zn0 Zn17 2.562219 1_555
Zn0 Zn18 2.562219 1_555
Zn0 Zn6 2.652917 1_555
Zn0 Zn10 2.652917 1_555
Zn0 Zn11 2.652917 1_555
Zn0 Zn9 2.652917 1_555
Zn0 Zn7 3.023654 1_455
Zn0 Zn1 3.023654 1_565
Zn0 Zn7 3.023654 1_545
Zn0 Zn1 3.023654 1_655
Zn1 Zn18 2.860181 1_455
Zn1 Zn18 2.860181 1_545
Zn1 Zn16 2.943111 1_555
Zn1 Zn9 2.964790 1_545
Zn1 Zn11 2.964790 1_455
Zn1 Zn4 3.048554 1_445
Zn1 Zn15 3.079525 1_454
Zn1 Zn12 3.079525 1_544
Zn1 Zn2 3.090765 1_555
Zn2 Zn8 2.880116 1_455
Zn2 Zn8 2.880116 1_545
Zn2 Zn9 3.028632 1_545
Zn2 Zn5 3.081638 1_555
Zn3 Zn9 2.526535 1_545
Zn3 Zn7 3.048554 1_445
Zn4 Zn6 2.526535 1_655
Zn4 Zn5 2.604773 1_655
Zn4 Zn8 2.696468 1_555
Zn5 Zn8 2.644301 1_455
Zn5 Zn7 3.079525 1_454
Zn6 Zn7 2.964790 1_455
Zn8 Zn9 2.684133 1_555
Zn10 Zn6 2.491933 1_645
Zn10 Zn4 2.526535 1_545
Zn10 Zn6 2.550343 1_555
Zn10 Zn17 2.585534 1_555
Zn10 Zn19 2.684133 1_555
Zn10 Zn7 2.964790 1_545
Zn10 Zn13 3.028632 1_545
Zn11 Zn9 2.491933 1_645
Zn11 Zn3 2.526535 1_655
Zn11 Zn9 2.550343 1_555
Zn11 Zn18 2.585534 1_555
Zn11 Zn8 2.684133 1_555
Zn11 Zn2 3.028632 1_655
Zn12 Zn15 2.486639 1_555
Zn12 Zn18 2.511826 1_556
Zn12 Zn15 2.555637 1_465
Zn12 Zn3 2.604773 1_565
Zn12 Zn19 2.644301 1_565
Zn12 Zn16 2.698711 1_566
Zn12 Zn2 2.794107 1_566
Zn12 Zn13 3.081638 1_555
Zn13 Zn14 2.794107 1_566
Zn13 Zn5 2.794107 1_656
Zn13 Zn19 2.880116 1_655
Zn13 Zn19 2.880116 1_565
Zn13 Zn8 2.976219 1_556
Zn13 Zn6 3.028632 1_655
Zn13 Zn17 3.063303 1_655
Zn13 Zn17 3.063303 1_565
Zn13 Zn15 3.081638 1_555
Zn13 Zn7 3.090765 1_555
Zn14 Zn5 2.486639 1_555
Zn14 Zn17 2.511826 1_554
Zn14 Zn5 2.555637 1_645
Zn14 Zn4 2.604773 1_545
Zn14 Zn8 2.644301 1_545
Zn14 Zn16 2.698711 1_655
Zn14 Zn7 3.079525 1_544
Zn14 Zn2 3.081638 1_555
Zn15 Zn18 2.511826 1_556
Zn15 Zn3 2.604773 1_655
Zn15 Zn19 2.644301 1_655
Zn15 Zn16 2.698711 1_656
Zn15 Zn2 2.794107 1_656
Zn16 Zn5 2.698711 1_545
Zn16 Zn4 2.714460 1_445
Zn16 Zn3 2.714460 1_554
Zn16 Zn7 2.943111 1_444
Zn17 Zn5 2.511826 1_556
Zn17 Zn6 2.585534 1_555
Zn17 Zn19 2.622722 1_555
Zn17 Zn7 2.860181 1_455
Zn17 Zn7 2.860181 1_545
Zn18 Zn9 2.585534 1_555
Zn18 Zn8 2.622722 1_555
Zn18 Zn2 3.063303 1_655
Zn18 Zn2 3.063303 1_565
Zn19 Zn6 2.684133 1_555
Zn19 Zn3 2.696468 1_555
Zn19 Zn2 2.976219 1_556
