# generated using pymatgen
data_SbClO
_symmetry_space_group_name_H-M   'P 1'
_cell_length_a   10.93277796
_cell_length_b   8.01346534
_cell_length_c   9.60042498
_cell_angle_alpha   75.73547890
_cell_angle_beta   90.00000000
_cell_angle_gamma   90.00000000
_symmetry_Int_Tables_number   1
_chemical_formula_structural   SbClO
_chemical_formula_sum   'Sb12 Cl12 O12'
_cell_volume   815.15582439
_cell_formula_units_Z   12
loop_
 _symmetry_equiv_pos_site_id
 _symmetry_equiv_pos_as_xyz
  1  'x, y, z'
loop_
 _atom_site_type_symbol
 _atom_site_label
 _atom_site_symmetry_multiplicity
 _atom_site_fract_x
 _atom_site_fract_y
 _atom_site_fract_z
 _atom_site_occupancy
  Sb  Sb0  1  0.02542991  0.71755352  0.42169745  1
  Sb  Sb1  1  0.52542991  0.28244648  0.07830255  1
  Sb  Sb2  1  0.97457009  0.28244648  0.57830255  1
  Sb  Sb3  1  0.47457009  0.71755352  0.92169745  1
  Sb  Sb4  1  0.24506798  0.91452319  0.09029212  1
  Sb  Sb5  1  0.74506798  0.08547681  0.40970788  1
  Sb  Sb6  1  0.75493202  0.08547681  0.90970788  1
  Sb  Sb7  1  0.25493202  0.91452319  0.59029212  1
  Sb  Sb8  1  0.17206611  0.47685289  0.23392578  1
  Sb  Sb9  1  0.67206611  0.52314711  0.26607422  1
  Sb  Sb10  1  0.82793389  0.52314711  0.76607422  1
  Sb  Sb11  1  0.32793389  0.47685289  0.73392578  1
  Cl  Cl0  1  0.40199522  0.88458020  0.41139924  1
  Cl  Cl1  1  0.90199522  0.11541980  0.08860076  1
  Cl  Cl2  1  0.59800478  0.11541980  0.58860076  1
  Cl  Cl3  1  0.09800478  0.88458020  0.91139924  1
  Cl  Cl4  1  0.35720652  0.40437189  0.37167506  1
  Cl  Cl5  1  0.85720652  0.59562811  0.12832494  1
  Cl  Cl6  1  0.64279348  0.59562811  0.62832494  1
  Cl  Cl7  1  0.14279348  0.40437189  0.87167506  1
  Cl  Cl8  1  0.10909344  0.10587362  0.34783879  1
  Cl  Cl9  1  0.60909344  0.89412638  0.15216121  1
  Cl  Cl10  1  0.89090656  0.89412638  0.65216121  1
  Cl  Cl11  1  0.39090656  0.10587362  0.84783879  1
  O  O0  1  0.06893384  0.47099808  0.40852268  1
  O  O1  1  0.56893384  0.52900192  0.09147732  1
  O  O2  1  0.93106616  0.52900192  0.59147732  1
  O  O3  1  0.43106616  0.47099808  0.90852268  1
  O  O4  1  0.16039623  0.72718305  0.24249302  1
  O  O5  1  0.66039623  0.27281695  0.25750698  1
  O  O6  1  0.83960377  0.27281695  0.75750698  1
  O  O7  1  0.33960377  0.72718305  0.74249302  1
  O  O8  1  0.33981396  0.71700944  0.05759146  1
  O  O9  1  0.83981396  0.28299056  0.44240854  1
  O  O10  1  0.66018604  0.28299056  0.94240854  1
  O  O11  1  0.16018604  0.71700944  0.55759146  1
loop_
_geom_bond_atom_site_label_1
_geom_bond_atom_site_label_2
_geom_bond_distance
_geom_bond_site_symmetry_2
Cl0 Sb7 2.407350 1_555
Cl1 Sb6 2.407350 1_554
Cl2 Sb5 2.407350 1_555
Cl3 Sb4 2.407350 1_556
Cl4 Sb8 2.409292 1_555
Cl5 Sb9 2.409292 1_555
Cl6 Sb10 2.409292 1_555
Cl7 Sb11 2.409292 1_555
Cl8 Sb7 2.924470 1_545
Cl8 Sb8 2.984216 1_555
Cl9 Sb6 2.924470 1_564
Cl9 Sb9 2.984216 1_555
Cl10 Sb5 2.924470 1_565
Cl10 Sb10 2.984216 1_555
Cl11 Sb4 2.924470 1_546
Cl11 Sb11 2.984216 1_555
O0 Sb8 2.011073 1_555
O0 Sb0 2.066157 1_555
O0 Sb2 2.188699 1_455
O1 Sb9 2.011073 1_555
O1 Sb1 2.066157 1_555
O1 Sb3 2.188699 1_554
O2 Sb10 2.011073 1_555
O2 Sb2 2.066157 1_555
O2 Sb0 2.188699 1_655
O3 Sb11 2.011073 1_555
O3 Sb3 2.066157 1_555
O3 Sb1 2.188699 1_556
O4 Sb8 2.031855 1_555
O4 Sb4 2.040767 1_555
O4 Sb0 2.253377 1_555
O5 Sb9 2.031855 1_555
O5 Sb5 2.040767 1_555
O5 Sb1 2.253377 1_555
O6 Sb10 2.031855 1_555
O6 Sb6 2.040767 1_555
O6 Sb2 2.253377 1_555
O7 Sb11 2.031855 1_555
O7 Sb7 2.040767 1_555
O7 Sb3 2.253377 1_555
O8 Sb3 1.967179 1_554
O8 Sb4 1.980289 1_555
O9 Sb2 1.967179 1_555
O9 Sb5 1.980289 1_555
O10 Sb1 1.967179 1_556
O10 Sb6 1.980289 1_555
O11 Sb0 1.967179 1_555
O11 Sb7 1.980289 1_555
