# generated using pymatgen
data_ZnS
_symmetry_space_group_name_H-M   'P 1'
_cell_length_a   3.80633037
_cell_length_b   3.80633087
_cell_length_c   24.91097672
_cell_angle_alpha   90.00000000
_cell_angle_beta   90.00000000
_cell_angle_gamma   119.99998691
_symmetry_Int_Tables_number   1
_chemical_formula_structural   ZnS
_chemical_formula_sum   'Zn8 S8'
_cell_volume   312.56076539
_cell_formula_units_Z   8
loop_
 _symmetry_equiv_pos_site_id
 _symmetry_equiv_pos_as_xyz
  1  'x, y, z'
loop_
 _atom_site_type_symbol
 _atom_site_label
 _atom_site_symmetry_multiplicity
 _atom_site_fract_x
 _atom_site_fract_y
 _atom_site_fract_z
 _atom_site_occupancy
  Zn  Zn0  1  0.33333300  0.66666700  0.12484270  1
  Zn  Zn1  1  -0.00000000  -0.00000000  0.00025120  1
  Zn  Zn2  1  0.66666700  0.33333300  0.62480889  1
  Zn  Zn3  1  0.66666700  0.33333300  0.87525580  1
  Zn  Zn4  1  -0.00000000  -0.00000000  0.75001024  1
  Zn  Zn5  1  0.33333300  0.66666700  0.37527448  1
  Zn  Zn6  1  0.00000000  -0.00000000  0.49995907  1
  Zn  Zn7  1  0.66666700  0.33333300  0.24996960  1
  S  S0  1  0.66666700  0.33333300  0.34388891  1
  S  S1  1  0.66666700  0.33333300  0.96905310  1
  S  S2  1  0.33333300  0.66666700  0.21848797  1
  S  S3  1  0.00000000  -0.00000000  0.59353552  1
  S  S4  1  -0.00000000  0.00000000  0.09379009  1
  S  S5  1  -0.00000000  -0.00000000  0.84379911  1
  S  S6  1  0.33333300  0.66666700  0.46887757  1
  S  S7  1  0.66666700  0.33333300  0.71859274  1
loop_
_geom_bond_atom_site_label_1
_geom_bond_atom_site_label_2
_geom_bond_distance
_geom_bond_site_symmetry_2
S0 Zn5 2.332522 1_655
S0 Zn5 2.332522 1_545
S0 Zn5 2.332528 1_555
S0 Zn7 2.339622 1_555
S1 Zn1 2.330960 1_656
S1 Zn1 2.330964 1_556
S1 Zn1 2.330964 1_666
S1 Zn3 2.336582 1_555
S2 Zn0 2.332795 1_555
S2 Zn7 2.333325 1_455
S2 Zn7 2.333325 1_565
S2 Zn7 2.333331 1_555
S3 Zn6 2.331081 1_555
S3 Zn2 2.331586 1_455
S3 Zn2 2.331589 1_555
S3 Zn2 2.331590 1_445
S4 Zn0 2.329754 1_545
S4 Zn0 2.329758 1_445
S4 Zn0 2.329758 1_555
S4 Zn1 2.330145 1_555
S5 Zn3 2.333116 1_455
S5 Zn3 2.333119 1_555
S5 Zn3 2.333119 1_445
S5 Zn4 2.336372 1_555
S6 Zn6 2.329993 1_565
S6 Zn6 2.329997 1_665
S6 Zn6 2.329997 1_555
S6 Zn5 2.331744 1_555
S7 Zn4 2.332788 1_655
S7 Zn4 2.332791 1_555
S7 Zn4 2.332792 1_665
S7 Zn2 2.336247 1_555
