# generated using pymatgen
data_SiC
_symmetry_space_group_name_H-M   'P 1'
_cell_length_a   3.07650930
_cell_length_b   3.07650915
_cell_length_c   67.94943436
_cell_angle_alpha   90.00000000
_cell_angle_beta   90.00000000
_cell_angle_gamma   120.00000157
_symmetry_Int_Tables_number   1
_chemical_formula_structural   SiC
_chemical_formula_sum   'Si27 C27'
_cell_volume   556.97142492
_cell_formula_units_Z   27
loop_
 _symmetry_equiv_pos_site_id
 _symmetry_equiv_pos_as_xyz
  1  'x, y, z'
loop_
 _atom_site_type_symbol
 _atom_site_label
 _atom_site_symmetry_multiplicity
 _atom_site_fract_x
 _atom_site_fract_y
 _atom_site_fract_z
 _atom_site_occupancy
  Si  Si0  1  0.00000000  -0.00000000  0.22222246  1
  Si  Si1  1  0.66666700  0.33333300  0.96293980  1
  Si  Si2  1  0.66666700  0.33333300  0.40736803  1
  Si  Si3  1  0.33333300  0.66666700  0.29625707  1
  Si  Si4  1  0.33333300  0.66666700  0.51848553  1
  Si  Si5  1  0.66666700  0.33333300  0.62959711  1
  Si  Si6  1  -0.00000000  0.00000000  0.92588138  1
  Si  Si7  1  -0.00000000  0.00000000  0.77776121  1
  Si  Si8  1  0.00000000  -0.00000000  0.44443230  1
  Si  Si9  1  0.33333300  0.66666700  0.74070524  1
  Si  Si10  1  0.33333300  0.66666700  0.14813649  1
  Si  Si11  1  0.00000000  0.00000000  0.66666133  1
  Si  Si12  1  0.66666700  0.33333300  0.18517707  1
  Si  Si13  1  0.66666700  0.33333300  0.48148334  1
  Si  Si14  1  0.33333300  0.66666700  0.88888906  1
  Si  Si15  1  0.66666700  0.33333300  0.11107983  1
  Si  Si16  1  0.33333300  0.66666700  0.81479544  1
  Si  Si17  1  0.66666700  0.33333300  0.25926849  1
  Si  Si18  1  0.00000000  -0.00000000  0.99998381  1
  Si  Si19  1  0.66666700  0.33333300  0.85184688  1
  Si  Si20  1  -0.00000000  0.00000000  0.55554723  1
  Si  Si21  1  -0.00000000  0.00000000  0.07408537  1
  Si  Si22  1  0.00000000  0.00000000  0.33331886  1
  Si  Si23  1  0.66666700  0.33333300  0.70371160  1
  Si  Si24  1  0.33333300  0.66666700  0.59260305  1
  Si  Si25  1  0.33333300  0.66666700  0.37037042  1
  Si  Si26  1  0.33333300  0.66666700  0.03703869  1
  C  C0  1  -0.00000000  0.00000000  0.80561210  1
  C  C1  1  0.66666700  0.33333300  0.50926596  1
  C  C2  1  0.33333300  0.66666700  0.91666398  1
  C  C3  1  0.33333300  0.66666700  0.06489266  1
  C  C4  1  0.66666700  0.33333300  0.99079593  1
  C  C5  1  0.66666700  0.33333300  0.43514664  1
  C  C6  1  0.66666700  0.33333300  0.13885194  1
  C  C7  1  -0.00000000  -0.00000000  0.47229116  1
  C  C8  1  0.33333300  0.66666700  0.76847838  1
  C  C9  1  0.33333300  0.66666700  0.39814915  1
  C  C10  1  0.33333300  0.66666700  0.62038028  1
  C  C11  1  -0.00000000  0.00000000  0.10186240  1
  C  C12  1  -0.00000000  -0.00000000  0.02774689  1
  C  C13  1  0.66666700  0.33333300  0.21293516  1
  C  C14  1  -0.00000000  -0.00000000  0.95365401  1
  C  C15  1  0.00000000  0.00000000  0.58341120  1
  C  C16  1  -0.00000000  0.00000000  0.69452056  1
  C  C17  1  0.66666700  0.33333300  0.87969695  1
  C  C18  1  0.33333300  0.66666700  0.17599250  1
  C  C19  1  0.00000000  0.00000000  0.36117927  1
  C  C20  1  0.66666700  0.33333300  0.73148694  1
  C  C21  1  0.33333300  0.66666700  0.32403274  1
  C  C22  1  0.66666700  0.33333300  0.65737391  1
  C  C23  1  0.66666700  0.33333300  0.28704227  1
  C  C24  1  0.00000000  0.00000000  0.25007827  1
  C  C25  1  0.33333300  0.66666700  0.54626071  1
  C  C26  1  0.33333300  0.66666700  0.84255793  1
loop_
_geom_bond_atom_site_label_1
_geom_bond_atom_site_label_2
_geom_bond_distance
_geom_bond_site_symmetry_2
C0 Si16 1.882643 1_545
C0 Si16 1.882645 1_555
C0 Si16 1.882645 1_445
C0 Si7 1.892452 1_555
C1 Si4 1.883460 1_545
C1 Si4 1.883460 1_655
C1 Si4 1.883465 1_555
C1 Si13 1.887813 1_555
C2 Si6 1.883411 1_565
C2 Si6 1.883413 1_555
C2 Si6 1.883413 1_665
C2 Si14 1.887290 1_555
C3 Si21 1.882854 1_565
C3 Si21 1.882856 1_555
C3 Si21 1.882856 1_665
C3 Si26 1.892662 1_555
C4 Si18 1.882745 1_655
C4 Si18 1.882747 1_665
C4 Si18 1.882747 1_555
C4 Si1 1.892808 1_555
C5 Si8 1.884958 1_655
C5 Si8 1.884961 1_665
C5 Si8 1.884961 1_555
C5 Si2 1.887541 1_555
C6 Si10 1.884933 1_545
C6 Si10 1.884933 1_655
C6 Si10 1.884938 1_555
C6 Si15 1.887099 1_555
C7 Si13 1.882842 1_455
C7 Si13 1.882844 1_445
C7 Si13 1.882844 1_555
C7 Si8 1.892994 1_555
C8 Si7 1.884894 1_565
C8 Si7 1.884896 1_555
C8 Si7 1.884897 1_665
C8 Si9 1.887169 1_555
C9 Si2 1.883444 1_565
C9 Si2 1.883444 1_455
C9 Si2 1.883449 1_555
C9 Si25 1.887549 1_555
C10 Si5 1.883398 1_565
C10 Si5 1.883398 1_455
C10 Si5 1.883403 1_555
C10 Si24 1.887447 1_555
C11 Si15 1.883412 1_455
C11 Si15 1.883414 1_445
C11 Si15 1.883414 1_555
C11 Si21 1.887433 1_555
C12 Si26 1.885098 1_545
C12 Si26 1.885100 1_555
C12 Si26 1.885101 1_445
C12 Si18 1.886486 1_554
C13 Si0 1.884996 1_655
C13 Si0 1.884998 1_665
C13 Si0 1.884998 1_555
C13 Si12 1.886147 1_555
C14 Si1 1.884961 1_455
C14 Si1 1.884964 1_445
C14 Si1 1.884964 1_555
C14 Si6 1.887134 1_555
C15 Si24 1.882834 1_545
C15 Si24 1.882837 1_555
C15 Si24 1.882837 1_445
C15 Si20 1.893341 1_555
C16 Si23 1.882816 1_455
C16 Si23 1.882818 1_445
C16 Si23 1.882819 1_555
C16 Si11 1.893019 1_555
C17 Si14 1.882840 1_545
C17 Si14 1.882840 1_655
C17 Si14 1.882845 1_555
C17 Si19 1.892397 1_555
C18 Si12 1.882670 1_565
C18 Si12 1.882670 1_455
C18 Si12 1.882675 1_555
C18 Si10 1.892800 1_555
C19 Si25 1.882818 1_545
C19 Si25 1.882821 1_555
C19 Si25 1.882821 1_445
C19 Si22 1.893099 1_555
C20 Si9 1.883431 1_545
C20 Si9 1.883431 1_655
C20 Si9 1.883436 1_555
C20 Si23 1.887319 1_555
C21 Si22 1.884969 1_565
C21 Si22 1.884971 1_555
C21 Si22 1.884971 1_665
C21 Si3 1.887341 1_555
C22 Si11 1.884998 1_655
C22 Si11 1.885001 1_665
C22 Si11 1.885001 1_555
C22 Si5 1.887418 1_555
C23 Si3 1.883352 1_545
C23 Si3 1.883352 1_655
C23 Si3 1.883357 1_555
C23 Si17 1.887213 1_555
C24 Si17 1.882798 1_455
C24 Si17 1.882800 1_445
C24 Si17 1.882800 1_555
C24 Si0 1.892787 1_555
C25 Si20 1.884978 1_565
C25 Si20 1.884980 1_555
C25 Si20 1.884980 1_665
C25 Si4 1.887308 1_555
C26 Si19 1.885033 1_565
C26 Si19 1.885033 1_455
C26 Si19 1.885038 1_555
C26 Si16 1.886445 1_555
