# generated using pymatgen
data_P2NCl5O
_symmetry_space_group_name_H-M   'P 1'
_cell_length_a   20.56597900
_cell_length_b   13.24555900
_cell_length_c   15.75354411
_cell_angle_alpha   69.18469836
_cell_angle_beta   90.00000000
_cell_angle_gamma   90.00000000
_symmetry_Int_Tables_number   1
_chemical_formula_structural   P2NCl5O
_chemical_formula_sum   'P32 N16 Cl80 O16'
_cell_volume   4011.29414204
_cell_formula_units_Z   16
loop_
 _symmetry_equiv_pos_site_id
 _symmetry_equiv_pos_as_xyz
  1  'x, y, z'
loop_
 _atom_site_type_symbol
 _atom_site_label
 _atom_site_symmetry_multiplicity
 _atom_site_fract_x
 _atom_site_fract_y
 _atom_site_fract_z
 _atom_site_occupancy
  P  P0  1  0.24530100  0.97603600  0.55350700  1
  P  P1  1  0.74774200  0.52678500  0.95167100  1
  P  P2  1  0.75225800  0.52678500  0.45167100  1
  P  P3  1  0.22353200  0.80673900  0.73778400  1
  P  P4  1  0.24774200  0.47321500  0.54832900  1
  P  P5  1  0.51417100  0.55168900  0.71658900  1
  P  P6  1  0.72353200  0.19326100  0.76221600  1
  P  P7  1  0.25469900  0.97603600  0.05350700  1
  P  P8  1  0.49208600  0.73515000  0.54489500  1
  P  P9  1  0.75469900  0.02396400  0.44649300  1
  P  P10  1  0.99208600  0.26485000  0.95510500  1
  P  P11  1  0.50791400  0.26485000  0.45510500  1
  P  P12  1  0.50225900  0.79458900  0.96619000  1
  P  P13  1  0.79066800  0.68565900  0.77186400  1
  P  P14  1  0.98582900  0.55168900  0.21658900  1
  P  P15  1  0.99462000  0.03079800  0.71766700  1
  P  P16  1  0.49774100  0.20541100  0.03381000  1
  P  P17  1  0.27646800  0.80673900  0.23778400  1
  P  P18  1  0.49462000  0.96920200  0.78233300  1
  P  P19  1  0.74530100  0.02396400  0.94649300  1
  P  P20  1  0.00538000  0.96920200  0.28233300  1
  P  P21  1  0.29066800  0.31434100  0.72813600  1
  P  P22  1  0.70933200  0.68565900  0.27186400  1
  P  P23  1  0.77646800  0.19326100  0.26221600  1
  P  P24  1  0.00791400  0.73515000  0.04489500  1
  P  P25  1  0.00225900  0.20541100  0.53381000  1
  P  P26  1  0.50538000  0.03079800  0.21766700  1
  P  P27  1  0.01417100  0.44831100  0.78341100  1
  P  P28  1  0.20933200  0.31434100  0.22813600  1
  P  P29  1  0.25225800  0.47321500  0.04832900  1
  P  P30  1  0.48582900  0.44831100  0.28341100  1
  P  P31  1  0.99774100  0.79458900  0.46619000  1
  N  N0  1  0.50168400  0.09321400  0.10970400  1
  N  N1  1  0.75286600  0.12855600  0.85606700  1
  N  N2  1  0.24713400  0.87144400  0.14393300  1
  N  N3  1  0.51347200  0.33621300  0.35384500  1
  N  N4  1  0.24946400  0.37259500  0.64273800  1
  N  N5  1  0.75053600  0.62740500  0.35726200  1
  N  N6  1  0.00168400  0.90678600  0.39029600  1
  N  N7  1  0.25286600  0.87144400  0.64393300  1
  N  N8  1  0.74946400  0.62740500  0.85726200  1
  N  N9  1  0.01347200  0.66378700  0.14615500  1
  N  N10  1  0.49831600  0.90678600  0.89029600  1
  N  N11  1  0.98652800  0.33621300  0.85384500  1
  N  N12  1  0.99831600  0.09321400  0.60970400  1
  N  N13  1  0.74713400  0.12855600  0.35606700  1
  N  N14  1  0.48652800  0.66378700  0.64615500  1
  N  N15  1  0.25053600  0.37259500  0.14273800  1
  Cl  Cl0  1  0.89342700  0.58161000  0.24886300  1
  Cl  Cl1  1  0.27027300  0.60868100  0.57565100  1
  Cl  Cl2  1  0.93822700  0.90077500  0.22429000  1
  Cl  Cl3  1  0.98768300  0.81305100  0.58530300  1
  Cl  Cl4  1  0.65627200  0.03176800  0.00047400  1
  Cl  Cl5  1  0.92425500  0.81814000  0.01116700  1
  Cl  Cl6  1  0.36128200  0.73405100  0.23661400  1
  Cl  Cl7  1  0.48768300  0.18694900  0.91469700  1
  Cl  Cl8  1  0.76498200  0.89329100  0.40796600  1
  Cl  Cl9  1  0.84372800  0.03176800  0.50047400  1
  Cl  Cl10  1  0.29074200  0.88892600  0.32099600  1
  Cl  Cl11  1  0.70925800  0.11107400  0.67900400  1
  Cl  Cl12  1  0.07616600  0.29965400  0.54191200  1
  Cl  Cl13  1  0.73501800  0.89329100  0.90796600  1
  Cl  Cl14  1  0.42266400  0.84678700  0.51328800  1
  Cl  Cl15  1  0.57574500  0.81814000  0.51116700  1
  Cl  Cl16  1  0.53468100  0.46289000  0.16755800  1
  Cl  Cl17  1  0.22972700  0.60868100  0.07565100  1
  Cl  Cl18  1  0.42425500  0.18186000  0.48883300  1
  Cl  Cl19  1  0.74143500  0.81120600  0.68872600  1
  Cl  Cl20  1  0.39342700  0.41839000  0.25113700  1
  Cl  Cl21  1  0.79074200  0.11107400  0.17900400  1
  Cl  Cl22  1  0.57733600  0.15321300  0.48671200  1
  Cl  Cl23  1  0.15627200  0.96823200  0.49952600  1
  Cl  Cl24  1  0.82619300  0.54072100  0.02563100  1
  Cl  Cl25  1  0.75856500  0.81120600  0.18872600  1
  Cl  Cl26  1  0.28399600  0.68810900  0.80512900  1
  Cl  Cl27  1  0.43822700  0.09922500  0.27571000  1
  Cl  Cl28  1  0.26498200  0.10670900  0.09203400  1
  Cl  Cl29  1  0.87539000  0.74675200  0.79254100  1
  Cl  Cl30  1  0.07733600  0.84678700  0.01328800  1
  Cl  Cl31  1  0.01649000  0.65996500  0.95562900  1
  Cl  Cl32  1  0.92266400  0.15321300  0.98671200  1
  Cl  Cl33  1  0.72972700  0.39131900  0.42434900  1
  Cl  Cl34  1  0.60657300  0.58161000  0.74886300  1
  Cl  Cl35  1  0.86128200  0.26594900  0.26338600  1
  Cl  Cl36  1  0.51231700  0.81305100  0.08530300  1
  Cl  Cl37  1  0.24143500  0.18879400  0.81127400  1
  Cl  Cl38  1  0.32619300  0.45927900  0.47436900  1
  Cl  Cl39  1  0.07574500  0.18186000  0.98883300  1
  Cl  Cl40  1  0.48351000  0.65996500  0.45562900  1
  Cl  Cl41  1  0.59060400  0.07504200  0.26079000  1
  Cl  Cl42  1  0.57675000  0.29902100  0.01932700  1
  Cl  Cl43  1  0.06177300  0.09922500  0.77571000  1
  Cl  Cl44  1  0.09060400  0.92495800  0.23921000  1
  Cl  Cl45  1  0.42325000  0.70097900  0.98067300  1
  Cl  Cl46  1  0.37539000  0.25324800  0.70745900  1
  Cl  Cl47  1  0.71600400  0.31189100  0.19487100  1
  Cl  Cl48  1  0.68704100  0.59815400  0.19519300  1
  Cl  Cl49  1  0.46531900  0.53711000  0.83244200  1
  Cl  Cl50  1  0.98351000  0.34003500  0.04437100  1
  Cl  Cl51  1  0.34372800  0.96823200  0.99952600  1
  Cl  Cl52  1  0.01231700  0.18694900  0.41469700  1
  Cl  Cl53  1  0.17380700  0.45927900  0.97436900  1
  Cl  Cl54  1  0.62461000  0.74675200  0.29254100  1
  Cl  Cl55  1  0.03468100  0.53711000  0.33244200  1
  Cl  Cl56  1  0.31295900  0.40184600  0.80480700  1
  Cl  Cl57  1  0.96531900  0.46289000  0.66755800  1
  Cl  Cl58  1  0.67380700  0.54072100  0.52563100  1
  Cl  Cl59  1  0.63871800  0.26594900  0.76338600  1
  Cl  Cl60  1  0.25856500  0.18879400  0.31127400  1
  Cl  Cl61  1  0.77027300  0.39131900  0.92434900  1
  Cl  Cl62  1  0.13871800  0.73405100  0.73661400  1
  Cl  Cl63  1  0.56177300  0.90077500  0.72429000  1
  Cl  Cl64  1  0.51649000  0.34003500  0.54437100  1
  Cl  Cl65  1  0.12461000  0.25324800  0.20745900  1
  Cl  Cl66  1  0.42383400  0.29965400  0.04191200  1
  Cl  Cl67  1  0.18704100  0.40184600  0.30480700  1
  Cl  Cl68  1  0.10657300  0.41839000  0.75113700  1
  Cl  Cl69  1  0.92325000  0.29902100  0.51932700  1
  Cl  Cl70  1  0.90939600  0.07504200  0.76079000  1
  Cl  Cl71  1  0.81295900  0.59815400  0.69519300  1
  Cl  Cl72  1  0.07675000  0.70097900  0.48067300  1
  Cl  Cl73  1  0.23501800  0.10670900  0.59203400  1
  Cl  Cl74  1  0.21600400  0.68810900  0.30512900  1
  Cl  Cl75  1  0.92383400  0.70034600  0.45808800  1
  Cl  Cl76  1  0.57616600  0.70034600  0.95808800  1
  Cl  Cl77  1  0.20925800  0.88892600  0.82099600  1
  Cl  Cl78  1  0.78399600  0.31189100  0.69487100  1
  Cl  Cl79  1  0.40939600  0.92495800  0.73921000  1
  O  O0  1  0.20251200  0.99328300  0.98523700  1
  O  O1  1  0.79748800  0.00671700  0.01476300  1
  O  O2  1  0.49865300  0.91225700  0.24925700  1
  O  O3  1  0.81315200  0.51283100  0.50433000  1
  O  O4  1  0.00134700  0.91225700  0.74925700  1
  O  O5  1  0.68684800  0.51283100  0.00433000  1
  O  O6  1  0.98868100  0.45220900  0.19468300  1
  O  O7  1  0.70251200  0.00671700  0.51476300  1
  O  O8  1  0.99865300  0.08774300  0.25074300  1
  O  O9  1  0.31315200  0.48716900  0.99567000  1
  O  O10  1  0.50134700  0.08774300  0.75074300  1
  O  O11  1  0.29748800  0.99328300  0.48523700  1
  O  O12  1  0.51131900  0.45220900  0.69468300  1
  O  O13  1  0.48868100  0.54779100  0.30531700  1
  O  O14  1  0.01131900  0.54779100  0.80531700  1
  O  O15  1  0.18684800  0.48716900  0.49567000  1
loop_
_geom_bond_atom_site_label_1
_geom_bond_atom_site_label_2
_geom_bond_distance
_geom_bond_site_symmetry_2
N0 P16 1.543299 1_555
N0 P26 1.607062 1_555
N1 P6 1.543968 1_555
N1 P19 1.603173 1_555
N2 P17 1.543968 1_555
N2 P7 1.603173 1_555
N3 P11 1.542586 1_555
N3 P30 1.608758 1_555
N4 P21 1.544536 1_555
N4 P4 1.606469 1_555
N5 P22 1.544536 1_555
N5 P2 1.606469 1_555
N6 P31 1.543299 1_455
N6 P20 1.607062 1_555
N7 P3 1.543968 1_555
N7 P0 1.603173 1_555
N8 P13 1.544536 1_555
N8 P1 1.606469 1_555
N9 P24 1.542586 1_555
N9 P14 1.608758 1_455
N10 P12 1.543299 1_555
N10 P18 1.607062 1_555
N11 P10 1.542586 1_555
N11 P27 1.608758 1_655
N12 P25 1.543299 1_655
N12 P15 1.607062 1_555
N13 P23 1.543968 1_555
N13 P9 1.603173 1_555
N14 P8 1.542586 1_555
N14 P5 1.608758 1_555
N15 P28 1.544536 1_555
N15 P29 1.606469 1_555
Cl0 P14 2.042073 1_555
Cl1 P4 2.041680 1_555
Cl2 P20 2.038118 1_655
Cl3 P31 1.987406 1_555
Cl4 P19 2.036853 1_554
Cl5 P24 2.008925 1_655
Cl6 P17 1.995607 1_555
Cl7 P16 1.987406 1_556
Cl8 P9 2.038505 1_565
Cl9 P9 2.036853 1_555
Cl10 P17 2.000972 1_555
Cl11 P6 2.000972 1_555
Cl12 P25 1.999523 1_555
Cl13 P19 2.038505 1_565
Cl14 P8 1.987360 1_555
Cl15 P8 2.008925 1_555
Cl16 P30 2.031546 1_555
Cl17 P29 2.041680 1_555
Cl18 P11 2.008925 1_555
Cl19 P13 1.989477 1_555
Cl20 P30 2.042073 1_555
Cl21 P23 2.000972 1_555
Cl22 P11 1.987360 1_555
Cl23 P0 2.036853 1_555
Cl24 P1 2.036563 1_554
Cl25 P22 1.989477 1_555
Cl26 P3 1.988996 1_555
Cl27 P26 2.038118 1_555
Cl28 P7 2.038505 1_545
Cl29 P13 1.996043 1_555
Cl30 P24 1.987360 1_555
Cl31 P24 1.998932 1_556
Cl32 P10 1.987360 1_555
Cl33 P2 2.041680 1_555
Cl34 P5 2.042073 1_555
Cl35 P23 1.995607 1_555
Cl36 P12 1.987406 1_554
Cl37 P21 1.989477 1_555
Cl38 P4 2.036563 1_555
Cl39 P10 2.008925 1_455
Cl40 P8 1.998932 1_555
Cl41 P26 2.039583 1_555
Cl42 P16 2.007158 1_555
Cl43 P15 2.038118 1_455
Cl44 P20 2.039583 1_555
Cl45 P12 2.007158 1_555
Cl46 P21 1.996043 1_555
Cl47 P23 1.988996 1_555
Cl48 P22 2.001851 1_555
Cl49 P5 2.031546 1_555
Cl50 P10 1.998932 1_554
Cl51 P7 2.036853 1_556
Cl52 P25 1.987406 1_555
Cl53 P29 2.036563 1_556
Cl54 P22 1.996043 1_555
Cl55 P14 2.031546 1_455
Cl56 P21 2.001851 1_555
Cl57 P27 2.031546 1_655
Cl58 P2 2.036563 1_555
Cl59 P6 1.995607 1_555
Cl60 P28 1.989477 1_555
Cl61 P1 2.041680 1_555
Cl62 P3 1.995607 1_555
Cl63 P18 2.038118 1_555
Cl64 P11 1.998932 1_555
Cl65 P28 1.996043 1_555
Cl66 P16 1.999523 1_555
Cl67 P28 2.001851 1_555
Cl68 P27 2.042073 1_555
Cl69 P25 2.007158 1_655
Cl70 P15 2.039583 1_555
Cl71 P13 2.001851 1_555
Cl72 P31 2.007158 1_455
Cl73 P0 2.038505 1_545
Cl74 P17 1.988996 1_555
Cl75 P31 1.999523 1_555
Cl76 P12 1.999523 1_555
Cl77 P3 2.000972 1_555
Cl78 P6 1.988996 1_555
Cl79 P18 2.039583 1_555
O0 P7 1.478574 1_556
O1 P19 1.478574 1_554
O2 P26 1.475399 1_565
O3 P2 1.477070 1_555
O4 P15 1.475399 1_465
O5 P1 1.477070 1_554
O6 P14 1.477146 1_555
O7 P9 1.478574 1_555
O8 P20 1.475399 1_645
O9 P29 1.477070 1_556
O10 P18 1.475399 1_545
O11 P0 1.478574 1_555
O12 P5 1.477146 1_555
O13 P30 1.477146 1_555
O14 P27 1.477146 1_555
O15 P4 1.477070 1_555
