# generated using pymatgen
data_EuCu(MoO4)2
_symmetry_space_group_name_H-M   'P 1'
_cell_length_a   10.06501961
_cell_length_b   10.58264942
_cell_length_c   15.07684641
_cell_angle_alpha   90.00000000
_cell_angle_beta   90.00000000
_cell_angle_gamma   90.00000000
_symmetry_Int_Tables_number   1
_chemical_formula_structural   EuCu(MoO4)2
_chemical_formula_sum   'Eu8 Cu8 Mo16 O64'
_cell_volume   1605.90387169
_cell_formula_units_Z   8
loop_
 _symmetry_equiv_pos_site_id
 _symmetry_equiv_pos_as_xyz
  1  'x, y, z'
loop_
 _atom_site_type_symbol
 _atom_site_label
 _atom_site_symmetry_multiplicity
 _atom_site_fract_x
 _atom_site_fract_y
 _atom_site_fract_z
 _atom_site_occupancy
  Eu  Eu0  1  0.27553527  0.96628195  0.39846737  1
  Eu  Eu1  1  0.77553527  0.53371805  0.39846737  1
  Eu  Eu2  1  0.77553527  0.03371805  0.10153263  1
  Eu  Eu3  1  0.72446473  0.53371805  0.89846737  1
  Eu  Eu4  1  0.22446473  0.96628195  0.89846737  1
  Eu  Eu5  1  0.27553527  0.46628195  0.10153263  1
  Eu  Eu6  1  0.22446473  0.46628195  0.60153263  1
  Eu  Eu7  1  0.72446473  0.03371805  0.60153263  1
  Cu  Cu0  1  0.19765166  0.81611749  0.70044938  1
  Cu  Cu1  1  0.30234834  0.31611749  0.29955062  1
  Cu  Cu2  1  0.80234834  0.68388251  0.20044938  1
  Cu  Cu3  1  0.69765166  0.18388251  0.79955062  1
  Cu  Cu4  1  0.69765166  0.68388251  0.70044938  1
  Cu  Cu5  1  0.80234834  0.18388251  0.29955062  1
  Cu  Cu6  1  0.19765166  0.31611749  0.79955062  1
  Cu  Cu7  1  0.30234834  0.81611749  0.20044938  1
  Mo  Mo0  1  0.66859091  0.89639390  0.34542338  1
  Mo  Mo1  1  0.33140909  0.60360610  0.84542338  1
  Mo  Mo2  1  0.50040118  0.27757567  0.44348715  1
  Mo  Mo3  1  0.00040118  0.22242433  0.44348715  1
  Mo  Mo4  1  0.49959882  0.72242433  0.55651285  1
  Mo  Mo5  1  0.83140909  0.89639390  0.84542338  1
  Mo  Mo6  1  0.49959882  0.22242433  0.94348715  1
  Mo  Mo7  1  0.00040118  0.72242433  0.05651285  1
  Mo  Mo8  1  0.16859091  0.60360610  0.34542338  1
  Mo  Mo9  1  0.99959882  0.27757567  0.94348715  1
  Mo  Mo10  1  0.16859091  0.10360610  0.15457662  1
  Mo  Mo11  1  0.33140909  0.10360610  0.65457662  1
  Mo  Mo12  1  0.99959882  0.77757567  0.55651285  1
  Mo  Mo13  1  0.66859091  0.39639390  0.15457662  1
  Mo  Mo14  1  0.83140909  0.39639390  0.65457662  1
  Mo  Mo15  1  0.50040118  0.77757567  0.05651285  1
  O  O0  1  0.40308673  0.11663199  0.87682334  1
  O  O1  1  0.49386420  0.90997079  0.33280185  1
  O  O2  1  0.74791307  0.01436013  0.77539612  1
  O  O3  1  0.75208693  0.51436013  0.22460388  1
  O  O4  1  0.58969924  0.13608751  0.02491476  1
  O  O5  1  0.79060121  0.42066120  0.54179356  1
  O  O6  1  0.61542063  0.80973159  0.63138778  1
  O  O7  1  0.75208693  0.01436013  0.27539612  1
  O  O8  1  0.29060121  0.57933880  0.95820644  1
  O  O9  1  0.10782149  0.83369620  0.00525519  1
  O  O10  1  0.09691327  0.11663199  0.37682334  1
  O  O11  1  0.11542063  0.69026841  0.63138778  1
  O  O12  1  0.60782149  0.66630380  0.00525519  1
  O  O13  1  0.24791307  0.98563987  0.72460388  1
  O  O14  1  0.50613580  0.59002921  0.83280185  1
  O  O15  1  0.89217851  0.16630380  0.99474481  1
  O  O16  1  0.72727382  0.23872804  0.18551868  1
  O  O17  1  0.70939879  0.92066120  0.45820644  1
  O  O18  1  0.88457937  0.80973159  0.13138778  1
  O  O19  1  0.79060121  0.92066120  0.95820644  1
  O  O20  1  0.90308673  0.88336801  0.62317666  1
  O  O21  1  0.25208693  0.48563987  0.27539612  1
  O  O22  1  0.38457937  0.19026841  0.36861222  1
  O  O23  1  0.59691327  0.88336801  0.12317666  1
  O  O24  1  0.09691327  0.61663199  0.12317666  1
  O  O25  1  0.41030076  0.36391249  0.52491476  1
  O  O26  1  0.08969924  0.86391249  0.47508524  1
  O  O27  1  0.25208693  0.98563987  0.22460388  1
  O  O28  1  0.99386420  0.59002921  0.33280185  1
  O  O29  1  0.58969924  0.63608751  0.47508524  1
  O  O30  1  0.61542063  0.30973159  0.86861222  1
  O  O31  1  0.99386420  0.09002921  0.16719815  1
  O  O32  1  0.91030076  0.63608751  0.97508524  1
  O  O33  1  0.91030076  0.13608751  0.52491476  1
  O  O34  1  0.27272618  0.76127196  0.81448132  1
  O  O35  1  0.08969924  0.36391249  0.02491476  1
  O  O36  1  0.40308673  0.61663199  0.62317666  1
  O  O37  1  0.60782149  0.16630380  0.49474481  1
  O  O38  1  0.10782149  0.33369620  0.49474481  1
  O  O39  1  0.00613580  0.90997079  0.83280185  1
  O  O40  1  0.70939879  0.42066120  0.04179356  1
  O  O41  1  0.39217851  0.33369620  0.99474481  1
  O  O42  1  0.24791307  0.48563987  0.77539612  1
  O  O43  1  0.00613580  0.40997079  0.66719815  1
  O  O44  1  0.88457937  0.30973159  0.36861222  1
  O  O45  1  0.38457937  0.69026841  0.13138778  1
  O  O46  1  0.90308673  0.38336801  0.87682334  1
  O  O47  1  0.72727382  0.73872804  0.31448132  1
  O  O48  1  0.22727382  0.26127196  0.18551868  1
  O  O49  1  0.49386420  0.40997079  0.16719815  1
  O  O50  1  0.77272618  0.23872804  0.68551868  1
  O  O51  1  0.89217851  0.66630380  0.50525519  1
  O  O52  1  0.22727382  0.76127196  0.31448132  1
  O  O53  1  0.74791307  0.51436013  0.72460388  1
  O  O54  1  0.20939879  0.57933880  0.45820644  1
  O  O55  1  0.20939879  0.07933880  0.04179356  1
  O  O56  1  0.77272618  0.73872804  0.81448132  1
  O  O57  1  0.59691327  0.38336801  0.37682334  1
  O  O58  1  0.39217851  0.83369620  0.50525519  1
  O  O59  1  0.11542063  0.19026841  0.86861222  1
  O  O60  1  0.27272618  0.26127196  0.68551868  1
  O  O61  1  0.29060121  0.07933880  0.54179356  1
  O  O62  1  0.50613580  0.09002921  0.66719815  1
  O  O63  1  0.41030076  0.86391249  0.97508524  1
loop_
_geom_bond_atom_site_label_1
_geom_bond_atom_site_label_2
_geom_bond_distance
_geom_bond_site_symmetry_2
Eu0 O10 2.422870 1_565
Eu0 O58 2.437048 1_555
Eu0 O26 2.450830 1_555
Eu0 O61 2.474669 1_565
Eu0 O1 2.482785 1_555
Eu0 O52 2.558569 1_555
Eu0 O27 2.639877 1_555
Eu0 O22 2.650630 1_565
Eu1 O57 2.422870 1_555
Eu1 O51 2.437048 1_555
Eu1 O29 2.450830 1_555
Eu1 O5 2.474669 1_555
Eu1 O28 2.482785 1_555
Eu1 O47 2.558569 1_555
Eu1 O3 2.639877 1_555
Eu1 O44 2.650630 1_555
Eu2 O23 2.422870 1_545
Eu2 O15 2.437048 1_554
Eu2 O4 2.450830 1_555
Eu2 O19 2.474669 1_544
Eu2 O31 2.482785 1_555
Eu2 O16 2.558569 1_555
Eu2 O7 2.639877 1_555
Eu2 O18 2.650630 1_545
Eu3 O46 2.422870 1_555
Eu3 O12 2.437048 1_556
Eu3 O32 2.450830 1_555
Eu3 O40 2.474669 1_556
Eu3 O14 2.482785 1_555
Eu3 O56 2.558569 1_555
Eu3 O53 2.639877 1_555
Eu3 O30 2.650630 1_555
Eu4 O0 2.422870 1_565
Eu4 O9 2.437048 1_556
Eu4 O63 2.450830 1_555
Eu4 O55 2.474669 1_566
Eu4 O39 2.482785 1_555
Eu4 O34 2.558569 1_555
Eu4 O13 2.639877 1_555
Eu4 O59 2.650630 1_565
Eu5 O24 2.422870 1_555
Eu5 O41 2.437048 1_554
Eu5 O35 2.450830 1_555
Eu5 O8 2.474669 1_554
Eu5 O49 2.482785 1_555
Eu5 O48 2.558569 1_555
Eu5 O21 2.639877 1_555
Eu5 O45 2.650630 1_555
Eu6 O36 2.422870 1_555
Eu6 O38 2.437048 1_555
Eu6 O25 2.450830 1_555
Eu6 O54 2.474669 1_555
Eu6 O43 2.482785 1_555
Eu6 O60 2.558569 1_555
Eu6 O42 2.639877 1_555
Eu6 O11 2.650630 1_555
Eu7 O20 2.422870 1_545
Eu7 O37 2.437048 1_555
Eu7 O33 2.450830 1_555
Eu7 O17 2.474669 1_545
Eu7 O62 2.482785 1_555
Eu7 O50 2.558569 1_555
Eu7 O2 2.639877 1_555
Eu7 O6 2.650630 1_545
Cu0 O11 1.882263 1_555
Cu0 O13 1.899200 1_555
Cu0 O34 1.965615 1_555
Cu1 O22 1.882263 1_555
Cu1 O21 1.899200 1_555
Cu1 O48 1.965615 1_555
Cu2 O18 1.882263 1_555
Cu2 O3 1.899200 1_555
Cu2 O47 1.965615 1_555
Cu3 O30 1.882263 1_555
Cu3 O2 1.899200 1_555
Cu3 O50 1.965615 1_555
Cu4 O6 1.882263 1_555
Cu4 O53 1.899200 1_555
Cu4 O56 1.965615 1_555
Cu5 O44 1.882263 1_555
Cu5 O7 1.899200 1_555
Cu5 O16 1.965615 1_555
Cu6 O59 1.882263 1_555
Cu6 O42 1.899200 1_555
Cu6 O60 1.965615 1_555
Cu7 O45 1.882263 1_555
Cu7 O27 1.899200 1_555
Cu7 O52 1.965615 1_555
Mo0 O17 1.768066 1_555
Mo0 O1 1.774719 1_555
Mo0 O47 1.830426 1_555
Mo0 O7 1.838325 1_565
Mo1 O8 1.768066 1_555
Mo1 O14 1.774719 1_555
Mo1 O34 1.830426 1_555
Mo1 O42 1.838325 1_555
Mo2 O37 1.775618 1_555
Mo2 O25 1.778869 1_555
Mo2 O57 1.790871 1_555
Mo2 O22 1.867352 1_555
Mo3 O38 1.775618 1_555
Mo3 O33 1.778869 1_455
Mo3 O10 1.790871 1_555
Mo3 O44 1.867352 1_455
Mo4 O58 1.775618 1_555
Mo4 O29 1.778869 1_555
Mo4 O36 1.790871 1_555
Mo4 O6 1.867352 1_555
Mo5 O19 1.768066 1_555
Mo5 O39 1.774719 1_655
Mo5 O56 1.830426 1_555
Mo5 O2 1.838325 1_565
Mo6 O41 1.775618 1_555
Mo6 O4 1.778869 1_556
Mo6 O0 1.790871 1_555
Mo6 O30 1.867352 1_555
Mo7 O9 1.775618 1_555
Mo7 O32 1.778869 1_454
Mo7 O24 1.790871 1_555
Mo7 O18 1.867352 1_455
Mo8 O54 1.768066 1_555
Mo8 O28 1.774719 1_455
Mo8 O52 1.830426 1_555
Mo8 O21 1.838325 1_555
Mo9 O15 1.775618 1_555
Mo9 O35 1.778869 1_656
Mo9 O46 1.790871 1_555
Mo9 O59 1.867352 1_655
Mo10 O55 1.768066 1_555
Mo10 O31 1.774719 1_455
Mo10 O48 1.830426 1_555
Mo10 O27 1.838325 1_545
Mo11 O61 1.768066 1_555
Mo11 O62 1.774719 1_555
Mo11 O60 1.830426 1_555
Mo11 O13 1.838325 1_545
Mo12 O51 1.775618 1_555
Mo12 O26 1.778869 1_655
Mo12 O20 1.790871 1_555
Mo12 O11 1.867352 1_655
Mo13 O40 1.768066 1_555
Mo13 O49 1.774719 1_555
Mo13 O16 1.830426 1_555
Mo13 O3 1.838325 1_555
Mo14 O5 1.768066 1_555
Mo14 O43 1.774719 1_655
Mo14 O50 1.830426 1_555
Mo14 O53 1.838325 1_555
Mo15 O12 1.775618 1_555
Mo15 O63 1.778869 1_554
Mo15 O23 1.790871 1_555
Mo15 O45 1.867352 1_555
