# generated using pymatgen
data_UCu5Sn
_symmetry_space_group_name_H-M   'P 1'
_cell_length_a   4.97744045
_cell_length_b   4.97744045
_cell_length_c   20.31044600
_cell_angle_alpha   90.00000000
_cell_angle_beta   90.00000000
_cell_angle_gamma   120.00000592
_symmetry_Int_Tables_number   1
_chemical_formula_structural   UCu5Sn
_chemical_formula_sum   'U4 Cu20 Sn4'
_cell_volume   435.77489899
_cell_formula_units_Z   4
loop_
 _symmetry_equiv_pos_site_id
 _symmetry_equiv_pos_as_xyz
  1  'x, y, z'
loop_
 _atom_site_type_symbol
 _atom_site_label
 _atom_site_symmetry_multiplicity
 _atom_site_fract_x
 _atom_site_fract_y
 _atom_site_fract_z
 _atom_site_occupancy
  U  U0  1  0.66666700  0.33333300  0.25000000  1
  U  U1  1  0.33333300  0.66666700  0.75000000  1
  U  U2  1  0.00000000  0.00000000  0.00000000  1
  U  U3  1  0.00000000  0.00000000  0.50000000  1
  Cu  Cu0  1  0.00000000  0.00000000  0.25000000  1
  Cu  Cu1  1  0.00000000  0.00000000  0.75000000  1
  Cu  Cu2  1  0.16594800  0.33189700  0.14725200  1
  Cu  Cu3  1  0.83405200  0.16594800  0.64725200  1
  Cu  Cu4  1  0.33189700  0.16594800  0.64725200  1
  Cu  Cu5  1  0.66810300  0.83405200  0.14725200  1
  Cu  Cu6  1  0.16594800  0.83405200  0.14725200  1
  Cu  Cu7  1  0.83405200  0.66810300  0.85274800  1
  Cu  Cu8  1  0.83405200  0.16594800  0.85274800  1
  Cu  Cu9  1  0.83405200  0.66810300  0.64725200  1
  Cu  Cu10  1  0.33189700  0.16594800  0.85274800  1
  Cu  Cu11  1  0.66810300  0.83405200  0.35274800  1
  Cu  Cu12  1  0.16594800  0.33189700  0.35274800  1
  Cu  Cu13  1  0.16594800  0.83405200  0.35274800  1
  Cu  Cu14  1  0.33333300  0.66666700  0.04361800  1
  Cu  Cu15  1  0.66666700  0.33333300  0.54361800  1
  Cu  Cu16  1  0.66666700  0.33333300  0.95638200  1
  Cu  Cu17  1  0.33333300  0.66666700  0.45638200  1
  Cu  Cu18  1  0.33333300  0.66666700  0.25000000  1
  Cu  Cu19  1  0.66666700  0.33333300  0.75000000  1
  Sn  Sn0  1  0.66666700  0.33333300  0.08453200  1
  Sn  Sn1  1  0.33333300  0.66666700  0.58453200  1
  Sn  Sn2  1  0.33333300  0.66666700  0.91546800  1
  Sn  Sn3  1  0.66666700  0.33333300  0.41546800  1
loop_
_geom_bond_atom_site_label_1
_geom_bond_atom_site_label_2
_geom_bond_distance
_geom_bond_site_symmetry_2
Cu0 Cu13 2.530175 1_545
Cu0 Cu6 2.530175 1_545
Cu0 Cu5 2.530177 1_445
Cu0 Cu11 2.530177 1_445
Cu0 Cu12 2.530177 1_555
Cu0 Cu2 2.530177 1_555
Cu0 Cu18 2.873724 1_545
Cu0 U0 2.873724 1_455
Cu0 U0 2.873728 1_445
Cu0 Cu18 2.873728 1_555
Cu0 Cu18 2.873728 1_445
Cu0 U0 2.873728 1_555
Cu1 Cu8 2.530175 1_455
Cu1 Cu3 2.530175 1_455
Cu1 Cu7 2.530177 1_445
Cu1 Cu10 2.530177 1_555
Cu1 Cu4 2.530177 1_555
Cu1 Cu9 2.530177 1_445
Cu1 Cu19 2.873724 1_455
Cu1 U1 2.873724 1_545
Cu1 Cu19 2.873728 1_445
Cu1 U1 2.873728 1_555
Cu1 U1 2.873728 1_445
Cu1 Cu19 2.873728 1_555
Cu2 Cu5 2.477994 1_445
Cu2 Cu6 2.477994 1_545
Cu2 Cu5 2.499446 1_555
Cu2 Cu6 2.499447 1_555
Cu2 Sn0 2.795799 1_455
Cu2 Sn0 2.795807 1_555
Cu2 U0 3.247879 1_455
Cu2 U0 3.247886 1_555
Cu2 U2 3.315333 1_555
Cu3 Cu9 2.477994 1_545
Cu3 Cu4 2.477994 1_655
Cu3 Cu4 2.499447 1_555
Cu3 Cu9 2.499447 1_555
Cu3 Sn1 2.795803 1_545
Cu3 Sn1 2.795803 1_655
Cu3 U1 3.247883 1_545
Cu3 U1 3.247883 1_655
Cu3 U3 3.315331 1_655
Cu4 Cu9 2.477994 1_445
Cu4 Cu9 2.499446 1_555
Cu4 Sn1 2.795799 1_545
Cu4 Sn1 2.795807 1_555
Cu4 U1 3.247879 1_545
Cu4 U1 3.247886 1_555
Cu4 U3 3.315333 1_555
Cu5 Cu6 2.477994 1_655
Cu5 Cu6 2.499447 1_555
Cu5 Sn0 2.795799 1_565
Cu5 Sn0 2.795807 1_555
Cu5 U0 3.247879 1_565
Cu5 U0 3.247886 1_555
Cu5 U2 3.315333 1_665
Cu6 Sn0 2.795803 1_455
Cu6 Sn0 2.795803 1_565
Cu6 U0 3.247883 1_455
Cu6 U0 3.247883 1_565
Cu6 U2 3.315331 1_565
Cu7 Cu8 2.477994 1_565
Cu7 Cu8 2.499447 1_555
Cu7 Sn2 2.795799 1_655
Cu7 Sn2 2.795807 1_555
Cu7 U1 3.247879 1_655
Cu7 U1 3.247886 1_555
Cu7 U2 3.315333 1_666
Cu8 Sn2 2.795803 1_545
Cu8 Sn2 2.795803 1_655
Cu8 U1 3.247883 1_545
Cu8 U1 3.247883 1_655
Cu8 U2 3.315331 1_656
Cu9 Sn1 2.795799 1_655
Cu9 Sn1 2.795807 1_555
Cu9 U1 3.247879 1_655
Cu9 U1 3.247886 1_555
Cu9 U3 3.315333 1_665
Cu10 Cu7 2.477994 1_445
Cu10 Cu8 2.477994 1_455
Cu10 Cu7 2.499446 1_555
Cu10 Cu8 2.499447 1_555
Cu10 Cu19 2.537200 1_555
Cu10 Cu16 2.552022 1_555
Cu10 Sn2 2.795799 1_545
Cu10 Sn2 2.795807 1_555
Cu10 U1 3.247879 1_545
Cu10 U1 3.247886 1_555
Cu10 U2 3.315333 1_556
Cu11 Cu12 2.477994 1_665
Cu11 Cu13 2.477994 1_655
Cu11 Cu12 2.499446 1_555
Cu11 Cu13 2.499447 1_555
Cu11 Cu18 2.537200 1_555
Cu11 Cu17 2.552022 1_555
Cu11 Sn3 2.795799 1_565
Cu11 Sn3 2.795807 1_555
Cu11 U0 3.247879 1_565
Cu11 U0 3.247886 1_555
Cu11 U3 3.315333 1_665
Cu12 Cu13 2.477994 1_545
Cu12 Cu13 2.499447 1_555
Cu12 Cu18 2.537200 1_555
Cu12 Cu17 2.552022 1_555
Cu12 Sn3 2.795799 1_455
Cu12 Sn3 2.795807 1_555
Cu12 U0 3.247879 1_455
Cu12 U0 3.247886 1_555
Cu12 U3 3.315333 1_555
Cu13 Cu18 2.537200 1_555
Cu13 Cu17 2.552022 1_555
Cu13 Sn3 2.795803 1_455
Cu13 Sn3 2.795803 1_565
Cu13 U0 3.247883 1_455
Cu13 U0 3.247883 1_565
Cu13 U3 3.315331 1_565
Cu14 Cu5 2.552022 1_555
Cu14 Cu2 2.552022 1_555
Cu14 Cu6 2.552022 1_555
Cu14 Sn2 2.602784 1_554
Cu14 Sn0 2.991457 1_455
Cu14 Sn0 2.991457 1_565
Cu14 Sn0 2.991466 1_555
Cu14 U2 3.007176 1_565
Cu14 U2 3.007180 1_555
Cu14 U2 3.007180 1_665
Cu15 Cu4 2.552022 1_555
Cu15 Cu9 2.552022 1_555
Cu15 Cu3 2.552022 1_555
Cu15 Sn3 2.602784 1_555
Cu15 Sn1 2.991457 1_545
Cu15 Sn1 2.991457 1_655
Cu15 Sn1 2.991466 1_555
Cu15 U3 3.007176 1_655
Cu15 U3 3.007180 1_665
Cu15 U3 3.007180 1_555
Cu16 Cu7 2.552022 1_555
Cu16 Cu8 2.552022 1_555
Cu16 Sn0 2.602784 1_556
Cu16 Sn2 2.991457 1_545
Cu16 Sn2 2.991457 1_655
Cu16 Sn2 2.991466 1_555
Cu16 U2 3.007176 1_656
Cu16 U2 3.007180 1_666
Cu16 U2 3.007180 1_556
Cu17 Sn1 2.602784 1_555
Cu17 Sn3 2.991457 1_455
Cu17 Sn3 2.991457 1_565
Cu17 Sn3 2.991466 1_555
Cu17 U3 3.007176 1_565
Cu17 U3 3.007180 1_665
Cu17 U3 3.007180 1_555
Cu18 Cu5 2.537200 1_555
Cu18 Cu2 2.537200 1_555
Cu18 Cu6 2.537200 1_555
Cu18 U0 2.873724 1_455
Cu18 U0 2.873724 1_565
Cu18 U0 2.873732 1_555
Cu19 Cu7 2.537200 1_555
Cu19 Cu9 2.537200 1_555
Cu19 Cu4 2.537200 1_555
Cu19 Cu8 2.537200 1_555
Cu19 Cu3 2.537200 1_555
Cu19 U1 2.873724 1_655
Cu19 U1 2.873724 1_545
Cu19 U1 2.873732 1_555
Sn0 U2 3.347533 1_655
Sn0 U2 3.347536 1_665
Sn0 U2 3.347536 1_555
Sn0 U0 3.360729 1_555
Sn1 U3 3.347533 1_565
Sn1 U3 3.347536 1_555
Sn1 U3 3.347536 1_665
Sn1 U1 3.360729 1_555
Sn2 U2 3.347533 1_566
Sn2 U2 3.347536 1_556
Sn2 U2 3.347536 1_666
Sn2 U1 3.360729 1_555
Sn3 U3 3.347533 1_655
Sn3 U3 3.347536 1_665
Sn3 U3 3.347536 1_555
Sn3 U0 3.360729 1_555
