# generated using pymatgen
data_Nd2WC2
_symmetry_space_group_name_H-M   'P 1'
_cell_length_a   5.81634898
_cell_length_b   5.81634898
_cell_length_c   10.39365095
_cell_angle_alpha   90.00000000
_cell_angle_beta   90.00000000
_cell_angle_gamma   90.00000000
_symmetry_Int_Tables_number   1
_chemical_formula_structural   Nd2WC2
_chemical_formula_sum   'Nd8 W4 C8'
_cell_volume   351.61633293
_cell_formula_units_Z   4
loop_
 _symmetry_equiv_pos_site_id
 _symmetry_equiv_pos_as_xyz
  1  'x, y, z'
loop_
 _atom_site_type_symbol
 _atom_site_label
 _atom_site_symmetry_multiplicity
 _atom_site_fract_x
 _atom_site_fract_y
 _atom_site_fract_z
 _atom_site_occupancy
  Nd  Nd0  1  0.19643980  0.19643980  0.34318536  1
  Nd  Nd1  1  0.80356020  0.80356020  0.65681464  1
  Nd  Nd2  1  0.30356020  0.69643980  0.84318536  1
  Nd  Nd3  1  0.80356020  0.80356020  0.34318536  1
  Nd  Nd4  1  0.19643980  0.19643980  0.65681464  1
  Nd  Nd5  1  0.69643980  0.30356020  0.15681464  1
  Nd  Nd6  1  0.69643980  0.30356020  0.84318536  1
  Nd  Nd7  1  0.30356020  0.69643980  0.15681464  1
  W  W0  1  0.17755404  0.17755404  -0.00000000  1
  W  W1  1  0.82244596  0.82244596  -0.00000000  1
  W  W2  1  0.32244596  0.67755404  0.50000000  1
  W  W3  1  0.67755404  0.32244596  0.50000000  1
  C  C0  1  -0.00000000  -0.00000000  0.14146004  1
  C  C1  1  0.50000000  0.50000000  0.35853996  1
  C  C2  1  0.50000000  0.50000000  0.64146004  1
  C  C3  1  0.50000000  -0.00000000  -0.00000000  1
  C  C4  1  -0.00000000  0.50000000  -0.00000000  1
  C  C5  1  -0.00000000  -0.00000000  0.85853996  1
  C  C6  1  0.50000000  -0.00000000  0.50000000  1
  C  C7  1  -0.00000000  0.50000000  0.50000000  1
loop_
_geom_bond_atom_site_label_1
_geom_bond_atom_site_label_2
_geom_bond_distance
_geom_bond_site_symmetry_2
C0 W0 2.072377 1_555
C0 W1 2.072377 1_445
C0 Nd7 2.502047 1_545
C0 Nd5 2.502047 1_455
C0 Nd0 2.647053 1_555
C0 Nd3 2.647053 1_445
C1 W2 2.072377 1_555
C1 W3 2.072377 1_555
C1 Nd3 2.502047 1_555
C1 Nd0 2.502047 1_555
C1 Nd7 2.647053 1_555
C1 Nd5 2.647053 1_555
C2 W2 2.072377 1_555
C2 W3 2.072377 1_555
C2 Nd1 2.502047 1_555
C2 Nd4 2.502047 1_555
C2 Nd6 2.647053 1_555
C2 Nd2 2.647053 1_555
C3 W0 2.140992 1_555
C3 W1 2.140992 1_545
C3 Nd6 2.660702 1_554
C3 Nd5 2.660702 1_555
C3 Nd7 2.660702 1_545
C3 Nd2 2.660702 1_544
C4 W0 2.140992 1_555
C4 W1 2.140992 1_455
C4 Nd2 2.660702 1_554
C4 Nd7 2.660702 1_555
C4 Nd5 2.660702 1_455
C4 Nd6 2.660702 1_454
C5 W1 2.072377 1_446
C5 W0 2.072377 1_556
C5 Nd6 2.502047 1_455
C5 Nd2 2.502047 1_545
C5 Nd4 2.647053 1_555
C5 Nd1 2.647053 1_445
C6 W2 2.140992 1_545
C6 W3 2.140992 1_555
C6 Nd1 2.660702 1_545
C6 Nd3 2.660702 1_545
C6 Nd4 2.660702 1_555
C6 Nd0 2.660702 1_555
C7 W3 2.140992 1_455
C7 W2 2.140992 1_555
C7 Nd3 2.660702 1_455
C7 Nd4 2.660702 1_555
C7 Nd1 2.660702 1_455
C7 Nd0 2.660702 1_555
