# generated using pymatgen
data_UCdO4
_symmetry_space_group_name_H-M   'P 1'
_cell_length_a   3.52057956
_cell_length_b   4.93914247
_cell_length_c   4.93914204
_cell_angle_alpha   91.68631268
_cell_angle_beta   90.00000000
_cell_angle_gamma   90.00000000
_symmetry_Int_Tables_number   1
_chemical_formula_structural   UCdO4
_chemical_formula_sum   'U1 Cd1 O4'
_cell_volume   85.84778760
_cell_formula_units_Z   1
loop_
 _symmetry_equiv_pos_site_id
 _symmetry_equiv_pos_as_xyz
  1  'x, y, z'
loop_
 _atom_site_type_symbol
 _atom_site_label
 _atom_site_symmetry_multiplicity
 _atom_site_fract_x
 _atom_site_fract_y
 _atom_site_fract_z
 _atom_site_occupancy
  U  U0  1  -0.00000000  0.00000000  -0.00000000  1
  Cd  Cd0  1  0.50000000  0.50000000  0.50000000  1
  O  O0  1  -0.00000000  0.71660402  0.71660402  1
  O  O1  1  0.50000000  0.82136427  0.17863573  1
  O  O2  1  -0.00000000  0.28339598  0.28339598  1
  O  O3  1  0.50000000  0.17863573  0.82136427  1
loop_
_geom_bond_atom_site_label_1
_geom_bond_atom_site_label_2
_geom_bond_distance
_geom_bond_site_symmetry_2
Cd0 O3 2.277519 1_555
Cd0 O1 2.277519 1_555
Cd0 O2 2.306592 1_655
Cd0 O0 2.306592 1_555
Cd0 O0 2.306592 1_655
Cd0 O2 2.306592 1_555
O0 U0 1.950178 1_566
O1 U0 2.168264 1_565
O1 U0 2.168264 1_665
O2 U0 1.950178 1_555
O3 U0 2.168264 1_556
O3 U0 2.168264 1_656
