# generated using pymatgen
data_Ca4Si6Pb6Cl2O21
_symmetry_space_group_name_H-M   'P 1'
_cell_length_a   10.27248031
_cell_length_b   10.27248031
_cell_length_c   13.44940300
_cell_angle_alpha   90.00000000
_cell_angle_beta   90.00000000
_cell_angle_gamma   120.00000201
_symmetry_Int_Tables_number   1
_chemical_formula_structural   Ca4Si6Pb6Cl2O21
_chemical_formula_sum   'Ca8 Si12 Pb12 Cl4 O42'
_cell_volume   1229.09164109
_cell_formula_units_Z   2
loop_
 _symmetry_equiv_pos_site_id
 _symmetry_equiv_pos_as_xyz
  1  'x, y, z'
loop_
 _atom_site_type_symbol
 _atom_site_label
 _atom_site_symmetry_multiplicity
 _atom_site_fract_x
 _atom_site_fract_y
 _atom_site_fract_z
 _atom_site_occupancy
  Ca  Ca0  1  0.33333300  0.66666700  0.99344000  1
  Ca  Ca1  1  0.66666700  0.33333300  0.00656000  1
  Ca  Ca2  1  0.66666700  0.33333300  0.49344000  1
  Ca  Ca3  1  0.66666700  0.33333300  0.25000000  1
  Ca  Ca4  1  0.33333300  0.66666700  0.50656000  1
  Ca  Ca5  1  0.33333300  0.66666700  0.25000000  1
  Ca  Ca6  1  0.66666700  0.33333300  0.75000000  1
  Ca  Ca7  1  0.33333300  0.66666700  0.75000000  1
  Si  Si0  1  0.97470900  0.57773300  0.63646800  1
  Si  Si1  1  0.57773300  0.60302400  0.13646800  1
  Si  Si2  1  0.60302400  0.02529100  0.86353200  1
  Si  Si3  1  0.42226700  0.39697600  0.86353200  1
  Si  Si4  1  0.39697600  0.97470900  0.36353200  1
  Si  Si5  1  0.57773300  0.60302400  0.36353200  1
  Si  Si6  1  0.39697600  0.97470900  0.13646800  1
  Si  Si7  1  0.02529100  0.42226700  0.13646800  1
  Si  Si8  1  0.02529100  0.42226700  0.36353200  1
  Si  Si9  1  0.42226700  0.39697600  0.63646800  1
  Si  Si10  1  0.60302400  0.02529100  0.63646800  1
  Si  Si11  1  0.97470900  0.57773300  0.86353200  1
  Pb  Pb0  1  0.98765000  0.25530300  0.89240400  1
  Pb  Pb1  1  0.01235000  0.74469700  0.39240400  1
  Pb  Pb2  1  0.73234700  0.98765000  0.39240400  1
  Pb  Pb3  1  0.73234700  0.98765000  0.10759600  1
  Pb  Pb4  1  0.74469700  0.73234700  0.89240400  1
  Pb  Pb5  1  0.25530300  0.26765300  0.39240400  1
  Pb  Pb6  1  0.26765300  0.01235000  0.89240400  1
  Pb  Pb7  1  0.25530300  0.26765300  0.10759600  1
  Pb  Pb8  1  0.26765300  0.01235000  0.60759600  1
  Pb  Pb9  1  0.74469700  0.73234700  0.60759600  1
  Pb  Pb10  1  0.01235000  0.74469700  0.10759600  1
  Pb  Pb11  1  0.98765000  0.25530300  0.60759600  1
  Cl  Cl0  1  0.00000000  0.00000000  0.25000000  1
  Cl  Cl1  1  0.00000000  0.00000000  0.75000000  1
  Cl  Cl2  1  0.00000000  0.00000000  0.50000000  1
  Cl  Cl3  1  0.00000000  0.00000000  0.00000000  1
  O  O0  1  0.92939600  0.61420200  0.75000000  1
  O  O1  1  0.07323200  0.33031300  0.05664500  1
  O  O2  1  0.07060400  0.38579800  0.25000000  1
  O  O3  1  0.14894000  0.62383300  0.62850500  1
  O  O4  1  0.46382300  0.85909000  0.12115700  1
  O  O5  1  0.31519400  0.92939600  0.25000000  1
  O  O6  1  0.33031300  0.25708100  0.94335500  1
  O  O7  1  0.60473300  0.46382300  0.87884300  1
  O  O8  1  0.25708100  0.92676800  0.44335500  1
  O  O9  1  0.39526700  0.53617700  0.37884300  1
  O  O10  1  0.85909000  0.39526700  0.87884300  1
  O  O11  1  0.74291900  0.07323200  0.55664500  1
  O  O12  1  0.66968700  0.74291900  0.44335500  1
  O  O13  1  0.46382300  0.85909000  0.37884300  1
  O  O14  1  0.53617700  0.14091000  0.62115700  1
  O  O15  1  0.62383300  0.47489300  0.37149500  1
  O  O16  1  0.47489300  0.85106000  0.87149500  1
  O  O17  1  0.74291900  0.07323200  0.94335500  1
  O  O18  1  0.66968700  0.74291900  0.05664500  1
  O  O19  1  0.14091000  0.60473300  0.37884300  1
  O  O20  1  0.85106000  0.37616700  0.37149500  1
  O  O21  1  0.14894000  0.62383300  0.87149500  1
  O  O22  1  0.38579800  0.31519400  0.75000000  1
  O  O23  1  0.52510700  0.14894000  0.37149500  1
  O  O24  1  0.14091000  0.60473300  0.12115700  1
  O  O25  1  0.07323200  0.33031300  0.44335500  1
  O  O26  1  0.92676800  0.66968700  0.55664500  1
  O  O27  1  0.39526700  0.53617700  0.12115700  1
  O  O28  1  0.62383300  0.47489300  0.12850500  1
  O  O29  1  0.85106000  0.37616700  0.12850500  1
  O  O30  1  0.53617700  0.14091000  0.87884300  1
  O  O31  1  0.68480600  0.07060400  0.75000000  1
  O  O32  1  0.33031300  0.25708100  0.55664500  1
  O  O33  1  0.47489300  0.85106000  0.62850500  1
  O  O34  1  0.52510700  0.14894000  0.12850500  1
  O  O35  1  0.85909000  0.39526700  0.62115700  1
  O  O36  1  0.25708100  0.92676800  0.05664500  1
  O  O37  1  0.37616700  0.52510700  0.87149500  1
  O  O38  1  0.60473300  0.46382300  0.62115700  1
  O  O39  1  0.61420200  0.68480600  0.25000000  1
  O  O40  1  0.37616700  0.52510700  0.62850500  1
  O  O41  1  0.92676800  0.66968700  0.94335500  1
loop_
_geom_bond_atom_site_label_1
_geom_bond_atom_site_label_2
_geom_bond_distance
_geom_bond_site_symmetry_2
Ca0 O21 2.374433 1_555
Ca0 O16 2.374435 1_555
Ca0 O37 2.374440 1_555
Ca0 O24 2.450496 1_556
Ca0 O4 2.450498 1_556
Ca0 O27 2.450503 1_556
Ca1 O29 2.374433 1_555
Ca1 O34 2.374435 1_555
Ca1 O28 2.374440 1_555
Ca1 O10 2.450496 1_554
Ca1 O30 2.450498 1_554
Ca1 O7 2.450503 1_554
Ca2 O20 2.374433 1_555
Ca2 O23 2.374435 1_555
Ca2 O15 2.374440 1_555
Ca2 O35 2.450496 1_555
Ca2 O14 2.450498 1_555
Ca2 O38 2.450503 1_555
Ca3 O20 2.370257 1_555
Ca3 O29 2.370257 1_555
Ca3 O34 2.370259 1_555
Ca3 O23 2.370259 1_555
Ca3 O28 2.370264 1_555
Ca3 O15 2.370264 1_555
Ca4 O3 2.374433 1_555
Ca4 O33 2.374435 1_555
Ca4 O40 2.374440 1_555
Ca4 O19 2.450496 1_555
Ca4 O13 2.450498 1_555
Ca4 O9 2.450503 1_555
Ca5 O24 2.461135 1_555
Ca5 O19 2.461135 1_555
Ca5 O4 2.461137 1_555
Ca5 O13 2.461137 1_555
Ca5 O9 2.461142 1_555
Ca5 O27 2.461142 1_555
Ca5 O5 2.796704 1_555
Ca5 O2 2.796710 1_555
Ca5 O39 2.796714 1_555
Ca6 O10 2.461135 1_555
Ca6 O35 2.461135 1_555
Ca6 O30 2.461137 1_555
Ca6 O14 2.461137 1_555
Ca6 O38 2.461142 1_555
Ca6 O7 2.461142 1_555
Ca6 O31 2.796704 1_555
Ca6 O0 2.796710 1_555
Ca6 O22 2.796714 1_555
Ca7 O3 2.370257 1_555
Ca7 O21 2.370257 1_555
Ca7 O16 2.370259 1_555
Ca7 O33 2.370259 1_555
Ca7 O40 2.370264 1_555
Ca7 O37 2.370264 1_555
Cl2 Pb5 3.053018 1_555
Cl2 Pb9 3.053018 1_445
Cl2 Pb8 3.053018 1_555
Cl2 Pb2 3.053018 1_445
Cl2 Pb11 3.053018 1_455
Cl2 Pb1 3.053018 1_545
Cl3 Pb7 3.053018 1_555
Cl3 Pb4 3.053018 1_444
Cl3 Pb6 3.053018 1_554
Cl3 Pb3 3.053018 1_445
Cl3 Pb10 3.053018 1_545
Cl3 Pb0 3.053018 1_454
O0 Si11 1.692020 1_555
O0 Si0 1.692020 1_555
O1 Si7 1.659076 1_555
O1 Pb0 2.359796 1_454
O1 Pb7 2.363445 1_555
O2 Si7 1.692020 1_555
O2 Si8 1.692020 1_555
O3 Si0 1.609809 1_455
O4 Si6 1.655333 1_555
O4 Pb3 2.396519 1_555
O5 Si6 1.692020 1_555
O5 Si4 1.692020 1_555
O6 Si3 1.659076 1_555
O6 Pb7 2.359796 1_556
O6 Pb6 2.363445 1_555
O7 Si3 1.655333 1_555
O7 Pb4 2.396519 1_555
O8 Si4 1.659076 1_555
O8 Pb8 2.359796 1_565
O8 Pb1 2.363445 1_555
O9 Si5 1.655333 1_555
O9 Pb5 2.396519 1_555
O10 Si11 1.655333 1_555
O10 Pb0 2.396519 1_555
O11 Si10 1.659076 1_555
O11 Pb2 2.359796 1_545
O11 Pb11 2.363445 1_555
O12 Si5 1.659076 1_555
O12 Pb9 2.359796 1_555
O12 Pb2 2.363445 1_555
O13 Si4 1.655333 1_555
O13 Pb2 2.396519 1_555
O14 Si10 1.655333 1_555
O14 Pb8 2.396519 1_555
O15 Si5 1.609809 1_555
O16 Si2 1.609809 1_565
O17 Si2 1.659076 1_555
O17 Pb3 2.359796 1_546
O17 Pb0 2.363445 1_555
O18 Si1 1.659076 1_555
O18 Pb4 2.359796 1_554
O18 Pb3 2.363445 1_555
O19 Si8 1.655333 1_555
O19 Pb1 2.396519 1_555
O20 Si8 1.609809 1_655
O21 Si11 1.609809 1_455
O22 Si9 1.692020 1_555
O22 Si3 1.692020 1_555
O23 Si4 1.609809 1_545
O24 Si7 1.655333 1_555
O24 Pb10 2.396519 1_555
O25 Si8 1.659076 1_555
O25 Pb11 2.359796 1_455
O25 Pb5 2.363445 1_555
O26 Si0 1.659076 1_555
O26 Pb1 2.359796 1_655
O26 Pb9 2.363445 1_555
O27 Si1 1.655333 1_555
O27 Pb7 2.396519 1_555
O28 Si1 1.609809 1_555
O29 Si7 1.609809 1_655
O30 Si2 1.655333 1_555
O30 Pb6 2.396519 1_555
O31 Si2 1.692020 1_555
O31 Si10 1.692020 1_555
O32 Si9 1.659076 1_555
O32 Pb5 2.359796 1_555
O32 Pb8 2.363445 1_555
O33 Si10 1.609809 1_565
O34 Si6 1.609809 1_545
O35 Si0 1.655333 1_555
O35 Pb11 2.396519 1_555
O36 Si6 1.659076 1_555
O36 Pb6 2.359796 1_564
O36 Pb10 2.363445 1_555
O37 Si3 1.609809 1_555
O38 Si9 1.655333 1_555
O38 Pb9 2.396519 1_555
O39 Si1 1.692020 1_555
O39 Si5 1.692020 1_555
O40 Si9 1.609809 1_555
O41 Si11 1.659076 1_555
O41 Pb10 2.359796 1_656
O41 Pb4 2.363445 1_555
