# generated using pymatgen
data_K5InPb8
_symmetry_space_group_name_H-M   'P 1'
_cell_length_a   13.23940524
_cell_length_b   13.23940524
_cell_length_c   13.23940565
_cell_angle_alpha   30.20377330
_cell_angle_beta   30.20377330
_cell_angle_gamma   30.20376824
_symmetry_Int_Tables_number   1
_chemical_formula_structural   K5InPb8
_chemical_formula_sum   'K5 In1 Pb8'
_cell_volume   520.39429434
_cell_formula_units_Z   1
loop_
 _symmetry_equiv_pos_site_id
 _symmetry_equiv_pos_as_xyz
  1  'x, y, z'
loop_
 _atom_site_type_symbol
 _atom_site_label
 _atom_site_symmetry_multiplicity
 _atom_site_fract_x
 _atom_site_fract_y
 _atom_site_fract_z
 _atom_site_occupancy
  K  K0  1  0.31803642  0.31803642  0.31803642  1
  K  K1  1  0.50000000  0.50000000  0.50000000  1
  K  K2  1  0.77954868  0.77954868  0.77954868  1
  K  K3  1  0.68196358  0.68196358  0.68196358  1
  K  K4  1  0.22045132  0.22045132  0.22045132  1
  In  In0  1  0.00000000  -0.00000000  -0.00000000  1
  Pb  Pb0  1  0.77031018  0.77031018  0.26319767  1
  Pb  Pb1  1  0.87264824  0.87264824  0.87264824  1
  Pb  Pb2  1  0.22968982  0.73680233  0.22968982  1
  Pb  Pb3  1  0.26319767  0.77031018  0.77031018  1
  Pb  Pb4  1  0.12735176  0.12735176  0.12735176  1
  Pb  Pb5  1  0.77031018  0.26319767  0.77031018  1
  Pb  Pb6  1  0.73680133  0.22968982  0.22968982  1
  Pb  Pb7  1  0.22968982  0.22968982  0.73680233  1
loop_
_geom_bond_atom_site_label_1
_geom_bond_atom_site_label_2
_geom_bond_distance
_geom_bond_site_symmetry_2
K0 Pb6 3.663509 1_555
K0 Pb2 3.663521 1_555
K0 Pb7 3.663522 1_555
K0 Pb0 3.936957 1_455
K0 Pb0 3.936957 1_545
K0 Pb3 3.936957 1_545
K0 Pb5 3.936957 1_455
K0 Pb3 3.936957 1_554
K0 Pb5 3.936957 1_554
K2 Pb1 3.526447 1_555
K2 Pb7 3.890287 1_655
K2 Pb7 3.890287 1_565
K2 Pb2 3.890287 1_556
K2 Pb2 3.890287 1_655
K2 Pb6 3.890293 1_556
K2 Pb6 3.890293 1_565
K3 Pb3 3.663521 1_555
K3 Pb5 3.663521 1_555
K3 Pb0 3.663522 1_555
K3 Pb6 3.936951 1_565
K3 Pb6 3.936951 1_556
K3 Pb7 3.936957 1_565
K3 Pb7 3.936957 1_655
K3 Pb2 3.936957 1_655
K3 Pb2 3.936957 1_556
K4 Pb4 3.526447 1_555
K4 Pb0 3.890287 1_455
K4 Pb0 3.890287 1_545
K4 Pb5 3.890287 1_554
K4 Pb3 3.890287 1_554
K4 Pb5 3.890287 1_455
K4 Pb3 3.890287 1_545
In0 Pb6 3.160616 1_455
In0 Pb3 3.160623 1_544
In0 Pb5 3.160623 1_454
In0 Pb2 3.160623 1_545
In0 Pb0 3.160623 1_445
In0 Pb7 3.160623 1_554
Pb0 Pb1 3.059686 1_554
Pb0 Pb3 3.400279 1_654
Pb0 Pb5 3.400279 1_564
Pb0 Pb3 3.498413 1_555
Pb0 Pb5 3.498413 1_555
Pb1 Pb3 3.059685 1_655
Pb1 Pb5 3.059685 1_565
Pb2 Pb4 3.059685 1_565
Pb2 Pb7 3.400279 1_564
Pb2 Pb6 3.400282 1_465
Pb2 Pb6 3.498409 1_555
Pb2 Pb7 3.498413 1_555
Pb3 Pb5 3.400278 1_465
Pb3 Pb5 3.498412 1_555
Pb4 Pb7 3.059686 1_554
Pb4 Pb6 3.059698 1_455
Pb6 Pb7 3.400282 1_654
Pb6 Pb7 3.498409 1_555
