# generated using pymatgen
data_Li5Mn7O16
_symmetry_space_group_name_H-M   'P 1'
_cell_length_a   5.70532599
_cell_length_b   8.08374117
_cell_length_c   11.49220907
_cell_angle_alpha   90.00000000
_cell_angle_beta   90.00000000
_cell_angle_gamma   90.00000000
_symmetry_Int_Tables_number   1
_chemical_formula_structural   Li5Mn7O16
_chemical_formula_sum   'Li10 Mn14 O32'
_cell_volume   530.02503319
_cell_formula_units_Z   2
loop_
 _symmetry_equiv_pos_site_id
 _symmetry_equiv_pos_as_xyz
  1  'x, y, z'
loop_
 _atom_site_type_symbol
 _atom_site_label
 _atom_site_symmetry_multiplicity
 _atom_site_fract_x
 _atom_site_fract_y
 _atom_site_fract_z
 _atom_site_occupancy
  Li  Li0  1  0.50000000  0.00000000  0.00000000  1
  Li  Li1  1  0.50000000  0.62848607  0.12419462  1
  Li  Li2  1  0.00000000  0.12848607  0.37580538  1
  Li  Li3  1  0.50000000  0.37151393  0.87580538  1
  Li  Li4  1  0.50000000  0.61570210  0.62329529  1
  Li  Li5  1  0.00000000  0.50000000  0.50000000  1
  Li  Li6  1  0.00000000  0.88429790  0.12329529  1
  Li  Li7  1  0.00000000  0.11570210  0.87670471  1
  Li  Li8  1  0.50000000  0.38429790  0.37670471  1
  Li  Li9  1  0.00000000  0.87151393  0.62419462  1
  Mn  Mn0  1  0.74636508  0.25268683  0.12528097  1
  Mn  Mn1  1  0.00000000  0.50000000  0.00000000  1
  Mn  Mn2  1  0.00000000  0.50642623  0.25180758  1
  Mn  Mn3  1  0.24636508  0.75268683  0.37471903  1
  Mn  Mn4  1  0.25363492  0.25268683  0.12528097  1
  Mn  Mn5  1  0.50000000  0.00642623  0.24819242  1
  Mn  Mn6  1  0.50000000  0.00000000  0.50000000  1
  Mn  Mn7  1  0.75363492  0.75268683  0.37471903  1
  Mn  Mn8  1  0.75363492  0.24731317  0.62528097  1
  Mn  Mn9  1  0.00000000  0.49357377  0.74819242  1
  Mn  Mn10  1  0.25363492  0.74731317  0.87471903  1
  Mn  Mn11  1  0.24636508  0.24731317  0.62528097  1
  Mn  Mn12  1  0.50000000  0.99357377  0.75180758  1
  Mn  Mn13  1  0.74636508  0.74731317  0.87471903  1
  O  O0  1  0.26756674  0.97594205  0.86376338  1
  O  O1  1  0.50000000  0.74610022  0.97963795  1
  O  O2  1  0.73243326  0.97594205  0.86376338  1
  O  O3  1  0.77810487  0.50776755  0.87552733  1
  O  O4  1  0.77810487  0.49223245  0.12447267  1
  O  O5  1  0.00000000  0.74007118  0.98392108  1
  O  O6  1  0.00000000  0.25992882  0.01607892  1
  O  O7  1  0.00000000  0.27230427  0.23918994  1
  O  O8  1  0.22189513  0.50776755  0.87552733  1
  O  O9  1  0.22189513  0.49223245  0.12447267  1
  O  O10  1  0.26756674  0.02405795  0.13623662  1
  O  O11  1  0.27810487  0.99223245  0.37552733  1
  O  O12  1  0.50000000  0.24439834  0.23920221  1
  O  O13  1  0.50000000  0.25389978  0.02036205  1
  O  O14  1  0.50000000  0.77230427  0.26081006  1
  O  O15  1  0.50000000  0.75992882  0.48392108  1
  O  O16  1  0.73243326  0.02405795  0.13623662  1
  O  O17  1  0.72189513  0.99223245  0.37552733  1
  O  O18  1  0.76756674  0.52405795  0.36376338  1
  O  O19  1  0.76756674  0.47594205  0.63623662  1
  O  O20  1  0.00000000  0.75389978  0.47963795  1
  O  O21  1  0.00000000  0.74439834  0.26079779  1
  O  O22  1  0.00000000  0.24610022  0.52036205  1
  O  O23  1  0.00000000  0.25560166  0.73920221  1
  O  O24  1  0.23243326  0.52405795  0.36376338  1
  O  O25  1  0.23243326  0.47594205  0.63623662  1
  O  O26  1  0.27810487  0.00776755  0.62447267  1
  O  O27  1  0.50000000  0.24007118  0.51607892  1
  O  O28  1  0.50000000  0.22769573  0.73918994  1
  O  O29  1  0.50000000  0.75560166  0.76079779  1
  O  O30  1  0.72189513  0.00776755  0.62447267  1
  O  O31  1  0.00000000  0.72769573  0.76081006  1
loop_
_geom_bond_atom_site_label_1
_geom_bond_atom_site_label_2
_geom_bond_distance
_geom_bond_site_symmetry_2
Li0 O2 2.060988 1_544
Li0 O0 2.060988 1_544
Li0 O16 2.060988 1_555
Li0 O10 2.060988 1_555
Li0 O1 2.065757 1_544
Li0 O13 2.065757 1_555
Li1 O1 1.914102 1_554
Li1 O9 1.931509 1_555
Li1 O4 1.931509 1_555
Li1 O14 1.953600 1_555
Li2 O22 1.914102 1_555
Li2 O17 1.931509 1_445
Li2 O11 1.931509 1_545
Li2 O7 1.953600 1_555
Li3 O13 1.914102 1_556
Li3 O8 1.931509 1_555
Li3 O3 1.931509 1_555
Li3 O28 1.953600 1_555
Li4 O25 1.904968 1_555
Li4 O19 1.904968 1_555
Li4 O29 1.943198 1_555
Li4 O15 1.981111 1_555
Li5 O24 2.060988 1_555
Li5 O18 2.060988 1_455
Li5 O19 2.060988 1_455
Li5 O25 2.060988 1_555
Li5 O22 2.065757 1_555
Li5 O20 2.065757 1_555
Li6 O16 1.904968 1_465
Li6 O10 1.904968 1_565
Li6 O21 1.943198 1_555
Li6 O5 1.981111 1_554
Li7 O0 1.904968 1_545
Li7 O2 1.904968 1_445
Li7 O23 1.943198 1_555
Li7 O6 1.981111 1_556
Li8 O18 1.904968 1_555
Li8 O24 1.904968 1_555
Li8 O12 1.943198 1_555
Li8 O27 1.981111 1_555
Li9 O20 1.914102 1_555
Li9 O30 1.931509 1_465
Li9 O26 1.931509 1_565
Li9 O31 1.953600 1_555
Mn0 O13 1.851924 1_555
Mn0 O16 1.854165 1_555
Mn0 O6 1.916349 1_655
Mn0 O12 1.922031 1_555
Mn0 O4 1.944896 1_555
Mn0 O7 1.957757 1_655
Mn1 O3 1.911254 1_454
Mn1 O8 1.911254 1_554
Mn1 O4 1.911254 1_455
Mn1 O9 1.911254 1_555
Mn1 O6 1.949451 1_555
Mn1 O5 1.949451 1_554
Mn2 O18 1.853177 1_455
Mn2 O24 1.853177 1_555
Mn2 O7 1.898128 1_555
Mn2 O21 1.926477 1_555
Mn2 O4 1.938376 1_455
Mn2 O9 1.938376 1_555
Mn3 O20 1.851924 1_555
Mn3 O24 1.854165 1_555
Mn3 O15 1.916349 1_555
Mn3 O21 1.922031 1_555
Mn3 O11 1.944896 1_555
Mn3 O14 1.957757 1_555
Mn4 O13 1.851924 1_555
Mn4 O10 1.854165 1_555
Mn4 O6 1.916349 1_555
Mn4 O12 1.922031 1_555
Mn4 O9 1.944896 1_555
Mn4 O7 1.957757 1_555
Mn5 O16 1.853177 1_555
Mn5 O10 1.853177 1_555
Mn5 O14 1.898128 1_545
Mn5 O12 1.926477 1_555
Mn5 O11 1.938376 1_545
Mn5 O17 1.938376 1_545
Mn6 O11 1.911254 1_545
Mn6 O17 1.911254 1_545
Mn6 O26 1.911254 1_555
Mn6 O30 1.911254 1_555
Mn6 O15 1.949451 1_545
Mn6 O27 1.949451 1_555
Mn7 O20 1.851924 1_655
Mn7 O18 1.854165 1_555
Mn7 O15 1.916349 1_555
Mn7 O21 1.922031 1_655
Mn7 O17 1.944896 1_555
Mn7 O14 1.957757 1_555
Mn8 O22 1.851924 1_655
Mn8 O19 1.854165 1_555
Mn8 O27 1.916349 1_555
Mn8 O23 1.922031 1_655
Mn8 O30 1.944896 1_555
Mn8 O28 1.957757 1_555
Mn9 O19 1.853177 1_455
Mn9 O25 1.853177 1_555
Mn9 O31 1.898128 1_555
Mn9 O23 1.926477 1_555
Mn9 O3 1.938376 1_455
Mn9 O8 1.938376 1_555
Mn10 O1 1.851924 1_555
Mn10 O0 1.854165 1_555
Mn10 O5 1.916349 1_555
Mn10 O29 1.922031 1_555
Mn10 O8 1.944896 1_555
Mn10 O31 1.957757 1_555
Mn11 O22 1.851924 1_555
Mn11 O25 1.854165 1_555
Mn11 O27 1.916349 1_555
Mn11 O23 1.922031 1_555
Mn11 O26 1.944896 1_555
Mn11 O28 1.957757 1_555
Mn12 O2 1.853177 1_555
Mn12 O0 1.853177 1_555
Mn12 O28 1.898128 1_565
Mn12 O29 1.926477 1_555
Mn12 O26 1.938376 1_565
Mn12 O30 1.938376 1_565
Mn13 O1 1.851924 1_555
Mn13 O2 1.854165 1_555
Mn13 O5 1.916349 1_655
Mn13 O29 1.922031 1_555
Mn13 O3 1.944896 1_555
Mn13 O31 1.957757 1_655
