# generated using pymatgen
data_La2SnS3O2
_symmetry_space_group_name_H-M   'P 1'
_cell_length_a   5.87493271
_cell_length_b   5.88808796
_cell_length_c   19.15927836
_cell_angle_alpha   90.00000000
_cell_angle_beta   90.00000000
_cell_angle_gamma   90.00000000
_symmetry_Int_Tables_number   1
_chemical_formula_structural   La2SnS3O2
_chemical_formula_sum   'La8 Sn4 S12 O8'
_cell_volume   662.76006679
_cell_formula_units_Z   4
loop_
 _symmetry_equiv_pos_site_id
 _symmetry_equiv_pos_as_xyz
  1  'x, y, z'
loop_
 _atom_site_type_symbol
 _atom_site_label
 _atom_site_symmetry_multiplicity
 _atom_site_fract_x
 _atom_site_fract_y
 _atom_site_fract_z
 _atom_site_occupancy
  La  La0  1  0.50175026  0.24801198  0.56299990  1
  La  La1  1  0.49824974  0.75198802  0.06299990  1
  La  La2  1  0.00175026  0.25198802  0.43700010  1
  La  La3  1  0.99824974  0.74801198  0.93700010  1
  La  La4  1  0.49824974  0.75198802  0.43700010  1
  La  La5  1  0.99824974  0.74801198  0.56299990  1
  La  La6  1  0.00175026  0.25198802  0.06299990  1
  La  La7  1  0.50175026  0.24801198  0.93700010  1
  Sn  Sn0  1  0.92965554  0.34784986  0.75000000  1
  Sn  Sn1  1  0.42965554  0.15215014  0.25000000  1
  Sn  Sn2  1  0.57034446  0.84784986  0.75000000  1
  Sn  Sn3  1  0.07034446  0.65215014  0.25000000  1
  S  S0  1  0.48188281  0.74084455  0.25000000  1
  S  S1  1  0.51242137  0.25594899  0.36609627  1
  S  S2  1  0.01242137  0.24405101  0.63390373  1
  S  S3  1  0.01811719  0.24084455  0.25000000  1
  S  S4  1  0.48757863  0.74405101  0.63390373  1
  S  S5  1  0.98188281  0.75915545  0.75000000  1
  S  S6  1  0.48757863  0.74405101  0.86609627  1
  S  S7  1  0.98757863  0.75594899  0.13390373  1
  S  S8  1  0.51811719  0.25915545  0.75000000  1
  S  S9  1  0.01242137  0.24405101  0.86609627  1
  S  S10  1  0.98757863  0.75594899  0.36609627  1
  S  S11  1  0.51242137  0.25594899  0.13390373  1
  O  O0  1  0.74877827  0.49936894  0.49962244  1
  O  O1  1  0.75122173  0.99936894  0.00037756  1
  O  O2  1  0.24877827  0.00063106  0.99962244  1
  O  O3  1  0.74877827  0.49936894  0.00037756  1
  O  O4  1  0.25122173  0.50063106  0.99962244  1
  O  O5  1  0.75122173  0.99936894  0.49962244  1
  O  O6  1  0.25122173  0.50063106  0.50037756  1
  O  O7  1  0.24877827  0.00063106  0.50037756  1
loop_
_geom_bond_atom_site_label_1
_geom_bond_atom_site_label_2
_geom_bond_distance
_geom_bond_site_symmetry_2
La0 O5 2.401229 1_545
La0 O7 2.402077 1_555
La0 O0 2.402305 1_555
La0 O6 2.412118 1_555
La0 S2 3.179670 1_555
La0 S4 3.222263 1_555
La0 S4 3.264602 1_545
La0 S2 3.293467 1_655
La1 O2 2.401229 1_564
La1 O1 2.402077 1_555
La1 O4 2.402305 1_554
La1 O3 2.412118 1_555
La1 S7 3.179670 1_555
La1 S11 3.222263 1_555
La1 S11 3.264602 1_565
La1 S7 3.293467 1_455
La2 O6 2.401229 1_555
La2 O0 2.402077 1_455
La2 O7 2.402305 1_555
La2 O5 2.412118 1_445
La2 S1 3.179670 1_455
La2 S10 3.222263 1_445
La2 S10 3.264602 1_455
La2 S1 3.293467 1_555
La3 O3 2.401229 1_556
La3 O4 2.402077 1_655
La3 O1 2.402305 1_556
La3 O2 2.412118 1_665
La3 S6 3.179670 1_655
La3 S9 3.222263 1_665
La3 S9 3.264602 1_655
La3 S6 3.293467 1_555
La4 O7 2.401229 1_565
La4 O5 2.402077 1_555
La4 O6 2.402305 1_555
La4 O0 2.412118 1_555
La4 S10 3.179670 1_555
La4 S1 3.222263 1_555
La4 S1 3.264602 1_565
La4 S10 3.293467 1_455
La5 O0 2.401229 1_555
La5 O6 2.402077 1_655
La5 O5 2.402305 1_555
La5 O7 2.412118 1_665
La5 S4 3.179670 1_655
La5 S2 3.222263 1_665
La5 S2 3.264602 1_655
La5 S4 3.293467 1_555
La6 O4 2.401229 1_554
La6 O3 2.402077 1_455
La6 O2 2.402305 1_554
La6 O1 2.412118 1_445
La6 S11 3.179670 1_455
La6 S7 3.222263 1_445
La6 S7 3.264602 1_455
La6 S11 3.293467 1_555
La7 O1 2.401229 1_546
La7 O2 2.402077 1_555
La7 O3 2.402305 1_556
La7 O4 2.412118 1_555
La7 S9 3.179670 1_555
La7 S6 3.222263 1_555
La7 S6 3.264602 1_545
La7 S9 3.293467 1_655
S0 Sn1 2.441163 1_565
S0 Sn3 2.473520 1_555
S1 Sn1 2.357450 1_555
S2 Sn0 2.357450 1_455
S3 Sn3 2.441163 1_555
S3 Sn1 2.473520 1_555
S4 Sn2 2.357450 1_555
S5 Sn0 2.441163 1_555
S5 Sn2 2.473520 1_555
S6 Sn2 2.357450 1_555
S7 Sn3 2.357450 1_655
S8 Sn2 2.441163 1_545
S8 Sn0 2.473520 1_555
S9 Sn0 2.357450 1_455
S10 Sn3 2.357450 1_655
S11 Sn1 2.357450 1_555
