# generated using pymatgen
data_Ca3(PO4)2
_symmetry_space_group_name_H-M   'P 1'
_cell_length_a   13.95813639
_cell_length_b   13.95813639
_cell_length_c   13.95813646
_cell_angle_alpha   44.40588940
_cell_angle_beta   44.40588940
_cell_angle_gamma   44.40588565
_symmetry_Int_Tables_number   1
_chemical_formula_structural   Ca3(PO4)2
_chemical_formula_sum   'Ca21 P14 O56'
_cell_volume   1210.41795576
_cell_formula_units_Z   7
loop_
 _symmetry_equiv_pos_site_id
 _symmetry_equiv_pos_as_xyz
  1  'x, y, z'
loop_
 _atom_site_type_symbol
 _atom_site_label
 _atom_site_symmetry_multiplicity
 _atom_site_fract_x
 _atom_site_fract_y
 _atom_site_fract_z
 _atom_site_occupancy
  Ca  Ca0  1  0.23501100  0.23501100  0.23501100  1
  Ca  Ca1  1  0.58049900  0.14513800  0.17924100  1
  Ca  Ca2  1  0.14513800  0.17924100  0.58049900  1
  Ca  Ca3  1  0.17924100  0.58049900  0.14513800  1
  Ca  Ca4  1  0.21967300  0.18695700  0.78260500  1
  Ca  Ca5  1  0.78260500  0.21967300  0.18695700  1
  Ca  Ca6  1  0.64249600  0.08547300  0.67101300  1
  Ca  Ca7  1  0.18695700  0.78260500  0.21967300  1
  Ca  Ca8  1  0.30774100  0.30232100  0.89082600  1
  Ca  Ca9  1  0.89082600  0.30774100  0.30232100  1
  Ca  Ca10  1  0.67101300  0.64249600  0.08547300  1
  Ca  Ca11  1  0.08547300  0.67101300  0.64249600  1
  Ca  Ca12  1  0.69953300  0.30101200  0.67818600  1
  Ca  Ca13  1  0.30232100  0.89082600  0.30774100  1
  Ca  Ca14  1  0.30101200  0.67818600  0.69953300  1
  Ca  Ca15  1  0.67818600  0.69953300  0.30101200  1
  Ca  Ca16  1  0.80860900  0.39247300  0.79855400  1
  Ca  Ca17  1  0.39247300  0.79855400  0.80860900  1
  Ca  Ca18  1  0.79855400  0.80860900  0.39247300  1
  Ca  Ca19  1  0.73473700  0.73473700  0.73473700  1
  Ca  Ca20  1  0.92285100  0.92285100  0.92285100  1
  P  P0  1  0.99957700  0.99957700  0.99957700  1
  P  P1  1  0.56720900  0.99886200  0.04007300  1
  P  P2  1  0.99886200  0.04007300  0.56720900  1
  P  P3  1  0.04007300  0.56720900  0.99886200  1
  P  P4  1  0.50674000  0.05431400  0.54402700  1
  P  P5  1  0.54402700  0.50674000  0.05431400  1
  P  P6  1  0.05431400  0.54402700  0.50674000  1
  P  P7  1  0.50200400  0.50200400  0.50200400  1
  P  P8  1  0.46160300  0.41949500  0.91979100  1
  P  P9  1  0.91979100  0.46160300  0.41949500  1
  P  P10  1  0.41949500  0.91979100  0.46160300  1
  P  P11  1  0.96092500  0.41921300  0.92145000  1
  P  P12  1  0.41921300  0.92145000  0.96092500  1
  P  P13  1  0.92145000  0.96092500  0.41921300  1
  O  O0  1  0.04007500  0.04007500  0.04007500  1
  O  O1  1  0.10059800  0.10024900  0.39407700  1
  O  O2  1  0.39407700  0.10059800  0.10024900  1
  O  O3  1  0.65902200  0.98568600  0.07907900  1
  O  O4  1  0.10024900  0.39407700  0.10059800  1
  O  O5  1  0.98568600  0.07907900  0.65902200  1
  O  O6  1  0.35619000  0.09537500  0.37944100  1
  O  O7  1  0.37944100  0.35619000  0.09537500  1
  O  O8  1  0.07907900  0.65902200  0.98568600  1
  O  O9  1  0.09537500  0.37944100  0.35619000  1
  O  O10  1  0.34066700  0.07707200  0.62534700  1
  O  O11  1  0.57934300  0.11610600  0.37056000  1
  O  O12  1  0.62534700  0.34066700  0.07707200  1
  O  O13  1  0.11610600  0.37056000  0.57934300  1
  O  O14  1  0.50404000  0.12313100  0.59645300  1
  O  O15  1  0.37056000  0.57934300  0.11610600  1
  O  O16  1  0.07707200  0.62534700  0.34066700  1
  O  O17  1  0.83010400  0.13309300  0.37599100  1
  O  O18  1  0.35880700  0.09192500  0.90538700  1
  O  O19  1  0.59645300  0.50404000  0.12313100  1
  O  O20  1  0.12313100  0.59645300  0.50404000  1
  O  O21  1  0.13309300  0.37599100  0.83010400  1
  O  O22  1  0.90538700  0.35880700  0.09192500  1
  O  O23  1  0.63221700  0.06545000  0.86777300  1
  O  O24  1  0.83842100  0.13147900  0.57424600  1
  O  O25  1  0.49562900  0.34610100  0.62859000  1
  O  O26  1  0.62859000  0.49562900  0.34610100  1
  O  O27  1  0.37599100  0.83010400  0.13309300  1
  O  O28  1  0.09192500  0.90538700  0.35880700  1
  O  O29  1  0.34610100  0.62859000  0.49562900  1
  O  O30  1  0.13147900  0.57424600  0.83842100  1
  O  O31  1  0.86777300  0.63221700  0.06545000  1
  O  O32  1  0.42297600  0.40046700  0.85534900  1
  O  O33  1  0.54375100  0.54375100  0.54375100  1
  O  O34  1  0.85534900  0.42297600  0.40046700  1
  O  O35  1  0.57424600  0.83842100  0.13147900  1
  O  O36  1  0.06545000  0.86777300  0.63221700  1
  O  O37  1  0.63376800  0.32639100  0.87589900  1
  O  O38  1  0.85814800  0.40462900  0.59000300  1
  O  O39  1  0.98284100  0.12114900  0.84638600  1
  O  O40  1  0.40046700  0.85534900  0.42297600  1
  O  O41  1  0.87589900  0.63376800  0.32639100  1
  O  O42  1  0.40462900  0.59000300  0.85814800  1
  O  O43  1  0.32639100  0.87589900  0.63376800  1
  O  O44  1  0.59000300  0.85814800  0.40462900  1
  O  O45  1  0.12114900  0.84638600  0.98284100  1
  O  O46  1  0.92379200  0.35202800  0.90407600  1
  O  O47  1  0.87807400  0.60426500  0.59834800  1
  O  O48  1  0.60426500  0.59834800  0.87807400  1
  O  O49  1  0.84638600  0.98284100  0.12114900  1
  O  O50  1  0.59834800  0.87807400  0.60426500  1
  O  O51  1  0.35202800  0.90407600  0.92379200  1
  O  O52  1  0.90407600  0.92379200  0.35202800  1
  O  O53  1  0.87902300  0.59441900  0.85676200  1
  O  O54  1  0.59441900  0.85676200  0.87902300  1
  O  O55  1  0.85676200  0.87902300  0.59441900  1
loop_
_geom_bond_atom_site_label_1
_geom_bond_atom_site_label_2
_geom_bond_distance
_geom_bond_site_symmetry_2
Ca0 O4 2.260796 1_555
Ca0 O2 2.260796 1_555
Ca0 O1 2.260796 1_555
Ca0 O9 2.295979 1_555
Ca0 O6 2.295979 1_555
Ca0 O7 2.295979 1_555
Ca1 O12 2.340671 1_555
Ca1 O11 2.386923 1_555
Ca1 O49 2.423903 1_545
Ca1 O7 2.424616 1_555
Ca1 O6 2.434581 1_555
Ca1 O3 2.623075 1_545
Ca1 O37 2.786614 1_554
Ca1 O44 2.791490 1_545
Ca2 O10 2.340670 1_555
Ca2 O13 2.386923 1_555
Ca2 O39 2.423903 1_455
Ca2 O6 2.424617 1_555
Ca2 O9 2.434581 1_555
Ca2 O5 2.623075 1_455
Ca2 O43 2.786613 1_545
Ca2 O38 2.791490 1_455
Ca3 O16 2.340670 1_555
Ca3 O15 2.386923 1_555
Ca3 O45 2.423903 1_554
Ca3 O9 2.424617 1_555
Ca3 O7 2.434581 1_555
Ca3 O8 2.623075 1_554
Ca3 O41 2.786613 1_455
Ca3 O42 2.791490 1_554
Ca4 O21 2.379227 1_555
Ca4 O10 2.415674 1_555
Ca4 O18 2.508963 1_555
Ca4 O51 2.559048 1_545
Ca4 O14 2.611325 1_555
Ca4 O13 2.623926 1_555
Ca4 O46 2.687130 1_455
Ca4 O0 2.710489 1_556
Ca5 O17 2.379227 1_555
Ca5 O12 2.415674 1_555
Ca5 O22 2.508963 1_555
Ca5 O46 2.559048 1_554
Ca5 O19 2.611325 1_555
Ca5 O11 2.623926 1_555
Ca5 O52 2.687130 1_545
Ca5 O0 2.710488 1_655
Ca6 O24 2.389095 1_555
Ca6 O14 2.394779 1_555
Ca6 O25 2.405902 1_555
Ca6 O55 2.431259 1_545
Ca6 O23 2.457437 1_555
Ca6 O54 2.470875 1_545
Ca6 O17 2.724949 1_555
Ca6 O18 2.791543 1_555
Ca7 O27 2.379227 1_555
Ca7 O16 2.415674 1_555
Ca7 O28 2.508963 1_555
Ca7 O52 2.559048 1_455
Ca7 O20 2.611326 1_555
Ca7 O15 2.623926 1_555
Ca7 O51 2.687130 1_554
Ca7 O0 2.710488 1_565
Ca8 O18 2.353105 1_555
Ca8 O32 2.397945 1_555
Ca8 O21 2.417369 1_555
Ca8 O25 2.455091 1_555
Ca8 O30 2.501287 1_555
Ca8 O2 2.519959 1_556
Ca8 O4 2.558008 1_556
Ca9 O22 2.353105 1_555
Ca9 O34 2.397945 1_555
Ca9 O17 2.417369 1_555
Ca9 O26 2.455091 1_555
Ca9 O24 2.501287 1_555
Ca9 O4 2.519959 1_655
Ca9 O1 2.558007 1_655
Ca10 O35 2.389095 1_555
Ca10 O19 2.394779 1_555
Ca10 O26 2.405903 1_555
Ca10 O54 2.431259 1_554
Ca10 O31 2.457437 1_555
Ca10 O53 2.470875 1_554
Ca10 O27 2.724949 1_555
Ca10 O22 2.791543 1_555
Ca11 O30 2.389095 1_555
Ca11 O20 2.394779 1_555
Ca11 O29 2.405902 1_555
Ca11 O53 2.431260 1_455
Ca11 O36 2.457437 1_555
Ca11 O55 2.470875 1_455
Ca11 O21 2.724949 1_555
Ca11 O28 2.791543 1_555
Ca12 O24 2.407251 1_555
Ca12 O37 2.428317 1_555
Ca12 O33 2.438923 1_555
Ca12 O34 2.543675 1_555
Ca12 O32 2.559813 1_555
Ca12 O38 2.578061 1_555
Ca12 O23 2.669492 1_555
Ca12 O5 2.756794 1_555
Ca12 O25 2.934117 1_555
Ca13 O28 2.353105 1_555
Ca13 O40 2.397945 1_555
Ca13 O27 2.417369 1_555
Ca13 O29 2.455091 1_555
Ca13 O35 2.501287 1_555
Ca13 O1 2.519959 1_565
Ca13 O2 2.558008 1_565
Ca14 O30 2.407251 1_555
Ca14 O43 2.428317 1_555
Ca14 O33 2.438923 1_555
Ca14 O32 2.543675 1_555
Ca14 O40 2.559813 1_555
Ca14 O42 2.578061 1_555
Ca14 O36 2.669492 1_555
Ca14 O8 2.756794 1_555
Ca14 O29 2.934117 1_555
Ca15 O35 2.407251 1_555
Ca15 O41 2.428317 1_555
Ca15 O33 2.438923 1_555
Ca15 O40 2.543675 1_555
Ca15 O34 2.559813 1_555
Ca15 O44 2.578061 1_555
Ca15 O31 2.669492 1_555
Ca15 O3 2.756794 1_555
Ca15 O26 2.934117 1_555
Ca16 O38 2.359382 1_555
Ca16 O47 2.430862 1_555
Ca16 O48 2.438868 1_555
Ca16 O46 2.443666 1_555
Ca16 O37 2.449724 1_555
Ca16 O39 2.500093 1_555
Ca16 O12 2.568511 1_556
Ca16 O13 2.928317 1_655
Ca17 O42 2.359382 1_555
Ca17 O48 2.430862 1_555
Ca17 O50 2.438869 1_555
Ca17 O51 2.443666 1_555
Ca17 O43 2.449724 1_555
Ca17 O45 2.500093 1_555
Ca17 O10 2.568511 1_565
Ca17 O15 2.928317 1_556
Ca18 O44 2.359382 1_555
Ca18 O50 2.430862 1_555
Ca18 O47 2.438869 1_555
Ca18 O52 2.443666 1_555
Ca18 O41 2.449724 1_555
Ca18 O49 2.500093 1_555
Ca18 O16 2.568511 1_655
Ca18 O11 2.928317 1_565
Ca19 O50 2.291120 1_555
Ca19 O47 2.291120 1_555
Ca19 O48 2.291120 1_555
Ca19 O53 2.300431 1_555
Ca19 O54 2.300431 1_555
Ca19 O55 2.300431 1_555
Ca20 O8 2.393700 1_655
Ca20 O3 2.393700 1_556
Ca20 O5 2.393700 1_565
Ca20 O45 2.704633 1_655
Ca20 O49 2.704633 1_556
Ca20 O39 2.704633 1_565
O0 P0 1.525870 1_444
O1 P2 1.569337 1_455
O2 P1 1.569337 1_545
O3 P1 1.577876 1_555
O4 P3 1.569337 1_554
O5 P2 1.577876 1_555
O6 P10 1.562155 1_545
O7 P8 1.562155 1_554
O8 P3 1.577876 1_555
O9 P9 1.562155 1_455
O10 P4 1.570472 1_555
O11 P4 1.546803 1_555
O12 P5 1.570472 1_555
O13 P6 1.546803 1_555
O14 P4 1.540377 1_555
O15 P5 1.546803 1_555
O16 P6 1.570472 1_555
O17 P13 1.553828 1_545
O18 P12 1.551013 1_545
O19 P5 1.540377 1_555
O20 P6 1.540377 1_555
O21 P11 1.553828 1_455
O22 P11 1.551013 1_554
O23 P1 1.537651 1_546
O24 P2 1.560443 1_555
O25 P7 1.556808 1_555
O26 P7 1.556808 1_555
O27 P12 1.553828 1_554
O28 P13 1.551013 1_455
O29 P7 1.556807 1_555
O30 P3 1.560443 1_555
O31 P3 1.537651 1_654
O32 P8 1.552156 1_555
O33 P7 1.572930 1_555
O34 P9 1.552156 1_555
O35 P1 1.560443 1_555
O36 P2 1.537651 1_465
O37 P8 1.552737 1_555
O38 P9 1.544200 1_555
O39 P0 1.571378 1_545
O40 P10 1.552156 1_555
O41 P9 1.552737 1_555
O42 P8 1.544200 1_555
O43 P10 1.552737 1_555
O44 P10 1.544200 1_555
O45 P0 1.571378 1_455
O46 P11 1.551092 1_555
O47 P6 1.574801 1_655
O48 P5 1.574801 1_556
O49 P0 1.571378 1_554
O50 P4 1.574801 1_565
O51 P12 1.551092 1_555
O52 P13 1.551092 1_555
O53 P11 1.558254 1_555
O54 P12 1.558254 1_555
O55 P13 1.558254 1_555
