# generated using pymatgen
data_Dy2CuTe5Br2O13
_symmetry_space_group_name_H-M   'P 1'
_cell_length_a   5.50708400
_cell_length_b   15.64849500
_cell_length_c   20.76890361
_cell_angle_alpha   57.25599148
_cell_angle_beta   90.00000000
_cell_angle_gamma   90.00000000
_symmetry_Int_Tables_number   1
_chemical_formula_structural   Dy2CuTe5Br2O13
_chemical_formula_sum   'Dy8 Cu4 Te20 Br8 O52'
_cell_volume   1505.40445564
_cell_formula_units_Z   4
loop_
 _symmetry_equiv_pos_site_id
 _symmetry_equiv_pos_as_xyz
  1  'x, y, z'
loop_
 _atom_site_type_symbol
 _atom_site_label
 _atom_site_symmetry_multiplicity
 _atom_site_fract_x
 _atom_site_fract_y
 _atom_site_fract_z
 _atom_site_occupancy
  Dy  Dy0  1  0.25789900  0.77191000  0.78066500  1
  Dy  Dy1  1  0.77005400  0.59580200  0.92544600  1
  Dy  Dy2  1  0.27005400  0.40419800  0.57455400  1
  Dy  Dy3  1  0.74210100  0.22809000  0.21933500  1
  Dy  Dy4  1  0.22994600  0.40419800  0.07455400  1
  Dy  Dy5  1  0.72994600  0.59580200  0.42544600  1
  Dy  Dy6  1  0.24210100  0.77191000  0.28066500  1
  Dy  Dy7  1  0.75789900  0.22809000  0.71933500  1
  Cu  Cu0  1  0.66546000  0.94093100  0.65260700  1
  Cu  Cu1  1  0.33454000  0.05906900  0.34739300  1
  Cu  Cu2  1  0.16546000  0.05906900  0.84739300  1
  Cu  Cu3  1  0.83454000  0.94093100  0.15260700  1
  Te  Te0  1  0.79893300  0.26674000  0.54054700  1
  Te  Te1  1  0.59607300  0.94242400  0.82492300  1
  Te  Te2  1  0.20106700  0.73326000  0.45945300  1
  Te  Te3  1  0.30337000  0.31137200  0.78783300  1
  Te  Te4  1  0.32223400  0.90429800  0.05957200  1
  Te  Te5  1  0.09607300  0.05757600  0.67507700  1
  Te  Te6  1  0.68549000  0.52321800  0.11440600  1
  Te  Te7  1  0.40392700  0.05757600  0.17507700  1
  Te  Te8  1  0.80337000  0.68862800  0.71216700  1
  Te  Te9  1  0.17776600  0.90429800  0.55957200  1
  Te  Te10  1  0.29893300  0.73326000  0.95945300  1
  Te  Te11  1  0.67776600  0.09570200  0.94042800  1
  Te  Te12  1  0.69663000  0.68862800  0.21216700  1
  Te  Te13  1  0.18549000  0.47678200  0.38559400  1
  Te  Te14  1  0.19663000  0.31137200  0.28783300  1
  Te  Te15  1  0.70106700  0.26674000  0.04054700  1
  Te  Te16  1  0.81451000  0.52321800  0.61440600  1
  Te  Te17  1  0.90392700  0.94242400  0.32492300  1
  Te  Te18  1  0.31451000  0.47678200  0.88559400  1
  Te  Te19  1  0.82223400  0.09570200  0.44042800  1
  Br  Br0  1  0.73677200  0.76592700  0.53301900  1
  Br  Br1  1  0.76346500  0.42487600  0.81967400  1
  Br  Br2  1  0.26322800  0.23407300  0.46698100  1
  Br  Br3  1  0.23677200  0.23407300  0.96698100  1
  Br  Br4  1  0.76322800  0.76592700  0.03301900  1
  Br  Br5  1  0.23653500  0.57512400  0.18032600  1
  Br  Br6  1  0.26346500  0.57512400  0.68032600  1
  Br  Br7  1  0.73653500  0.42487600  0.31967400  1
  O  O0  1  0.94659100  0.06998900  0.75425500  1
  O  O1  1  0.07269600  0.78754000  0.66992600  1
  O  O2  1  0.54108500  0.74524100  0.88788300  1
  O  O3  1  0.85497700  0.02636700  0.90430100  1
  O  O4  1  0.96351300  0.43126400  0.47323800  1
  O  O5  1  0.86366200  0.96360700  0.55756600  1
  O  O6  1  0.20046400  0.88997600  0.39037400  1
  O  O7  1  0.55540200  0.39008200  0.15528300  1
  O  O8  1  0.36366200  0.03639300  0.94243400  1
  O  O9  1  0.63633800  0.96360700  0.05756600  1
  O  O10  1  0.94378800  0.65556000  0.80700500  1
  O  O11  1  0.57269600  0.21246000  0.83007400  1
  O  O12  1  0.06707300  0.71644700  0.89875000  1
  O  O13  1  0.53648700  0.43126400  0.97323800  1
  O  O14  1  0.45891500  0.25475900  0.11211700  1
  O  O15  1  0.14502300  0.97363300  0.09569900  1
  O  O16  1  0.92345600  0.78439900  0.20471800  1
  O  O17  1  0.55340900  0.06998900  0.25425500  1
  O  O18  1  0.42345600  0.21560100  0.29528200  1
  O  O19  1  0.44378800  0.34444000  0.69299500  1
  O  O20  1  0.92868000  0.52297300  0.04866700  1
  O  O21  1  0.42730400  0.78754000  0.16992600  1
  O  O22  1  0.44459800  0.60991800  0.84471700  1
  O  O23  1  0.45924600  0.07603500  0.78452900  1
  O  O24  1  0.70046400  0.11002400  0.10962600  1
  O  O25  1  0.35497700  0.97363300  0.59569900  1
  O  O26  1  0.04075400  0.07603500  0.28452900  1
  O  O27  1  0.44659100  0.93001100  0.74574500  1
  O  O28  1  0.03648700  0.56873600  0.52676200  1
  O  O29  1  0.94459800  0.39008200  0.65528300  1
  O  O30  1  0.07132000  0.47702700  0.95133300  1
  O  O31  1  0.95924600  0.92396500  0.71547100  1
  O  O32  1  0.55621200  0.65556000  0.30700500  1
  O  O33  1  0.95891500  0.74524100  0.38788300  1
  O  O34  1  0.93292700  0.28355300  0.10125000  1
  O  O35  1  0.13633800  0.03639300  0.44243400  1
  O  O36  1  0.64502300  0.02636700  0.40430100  1
  O  O37  1  0.54075400  0.92396500  0.21547100  1
  O  O38  1  0.05340900  0.93001100  0.24574500  1
  O  O39  1  0.05540200  0.60991800  0.34471700  1
  O  O40  1  0.79953600  0.11002400  0.60962600  1
  O  O41  1  0.46351300  0.56873600  0.02676200  1
  O  O42  1  0.56707300  0.28355300  0.60125000  1
  O  O43  1  0.92730400  0.21246000  0.33007400  1
  O  O44  1  0.05621200  0.34444000  0.19299500  1
  O  O45  1  0.29953600  0.88997600  0.89037400  1
  O  O46  1  0.04108500  0.25475900  0.61211700  1
  O  O47  1  0.57654400  0.78439900  0.70471800  1
  O  O48  1  0.43292700  0.71644700  0.39875000  1
  O  O49  1  0.42868000  0.47702700  0.45133300  1
  O  O50  1  0.57132000  0.52297300  0.54866700  1
  O  O51  1  0.07654400  0.21560100  0.79528200  1
loop_
_geom_bond_atom_site_label_1
_geom_bond_atom_site_label_2
_geom_bond_distance
_geom_bond_site_symmetry_2
Dy0 O47 2.296095 1_555
Dy0 O10 2.351401 1_455
Dy0 O12 2.360038 1_555
Dy0 O22 2.367430 1_555
Dy0 O1 2.404415 1_555
Dy0 O27 2.405341 1_555
Dy0 O2 2.561178 1_555
Dy0 O31 2.591307 1_455
Dy1 O10 2.313550 1_555
Dy1 O12 2.326978 1_655
Dy1 O30 2.327066 1_655
Dy1 O20 2.335849 1_556
Dy1 O22 2.381533 1_555
Dy1 O2 2.386135 1_555
Dy1 O41 2.548112 1_556
Dy1 O13 2.550393 1_555
Dy2 O19 2.313550 1_555
Dy2 O42 2.326978 1_555
Dy2 O50 2.327066 1_555
Dy2 O49 2.335849 1_555
Dy2 O29 2.381533 1_455
Dy2 O46 2.386135 1_555
Dy2 O4 2.548112 1_455
Dy2 O28 2.550393 1_555
Dy3 O18 2.296095 1_555
Dy3 O44 2.351401 1_655
Dy3 O34 2.360038 1_555
Dy3 O7 2.367430 1_555
Dy3 O43 2.404415 1_555
Dy3 O17 2.405341 1_555
Dy3 O14 2.561178 1_555
Dy3 O26 2.591307 1_655
Dy4 O44 2.313550 1_555
Dy4 O34 2.326978 1_455
Dy4 O20 2.327066 1_455
Dy4 O30 2.335849 1_554
Dy4 O7 2.381533 1_555
Dy4 O14 2.386135 1_555
Dy4 O13 2.548112 1_554
Dy4 O41 2.550393 1_555
Dy5 O32 2.313550 1_555
Dy5 O48 2.326978 1_555
Dy5 O49 2.327066 1_555
Dy5 O50 2.335849 1_555
Dy5 O39 2.381533 1_655
Dy5 O33 2.386135 1_555
Dy5 O28 2.548112 1_655
Dy5 O4 2.550393 1_555
Dy6 O16 2.296095 1_455
Dy6 O32 2.351401 1_555
Dy6 O48 2.360038 1_555
Dy6 O39 2.367430 1_555
Dy6 O21 2.404415 1_555
Dy6 O38 2.405341 1_555
Dy6 O33 2.561178 1_455
Dy6 O37 2.591307 1_555
Dy7 O51 2.296095 1_655
Dy7 O19 2.351401 1_555
Dy7 O42 2.360038 1_555
Dy7 O29 2.367430 1_555
Dy7 O11 2.404415 1_555
Dy7 O0 2.405341 1_555
Dy7 O46 2.561178 1_655
Dy7 O23 2.591307 1_555
Cu0 O25 1.981949 1_555
Cu0 O31 2.004435 1_555
Cu0 O5 2.110897 1_555
Cu0 O47 2.131498 1_555
Cu0 O27 2.205957 1_555
Cu0 O40 2.405916 1_565
Cu1 O36 1.981949 1_555
Cu1 O26 2.004435 1_555
Cu1 O35 2.110897 1_555
Cu1 O18 2.131498 1_555
Cu1 O17 2.205957 1_555
Cu1 O6 2.405916 1_545
Cu2 O3 1.981949 1_455
Cu2 O23 2.004435 1_555
Cu2 O8 2.110897 1_555
Cu2 O51 2.131498 1_555
Cu2 O0 2.205957 1_455
Cu2 O45 2.405916 1_545
Cu3 O15 1.981949 1_655
Cu3 O37 2.004435 1_555
Cu3 O9 2.110897 1_555
Cu3 O16 2.131498 1_555
Cu3 O38 2.205957 1_655
Cu3 O24 2.405916 1_565
Br0 Te2 3.158869 1_655
Br0 Te16 3.243553 1_555
Br0 Te8 3.251568 1_555
Br1 Te18 3.138479 1_555
Br2 Te0 3.158869 1_455
Br2 Te13 3.243553 1_555
Br2 Te14 3.251568 1_555
Br3 Te15 3.158869 1_556
Br3 Te18 3.243553 1_555
Br3 Te3 3.251568 1_555
Br4 Te10 3.158869 1_554
Br4 Te6 3.243553 1_555
Br4 Te12 3.251568 1_555
Br5 Te6 3.138479 1_555
Br6 Te16 3.138479 1_455
Br7 Te13 3.138479 1_655
O0 Te5 1.940395 1_655
O0 Te1 2.587612 1_545
O1 Te8 1.973918 1_455
O1 Te9 2.096669 1_555
O2 Te10 1.929123 1_555
O2 Te1 2.637775 1_555
O3 Te11 1.890303 1_555
O4 Te13 1.978012 1_655
O4 Te0 2.347480 1_555
O5 Te9 1.952810 1_655
O5 Te19 2.191680 1_565
O6 Te17 1.995344 1_455
O6 Te2 2.065518 1_555
O7 Te6 1.913398 1_555
O8 Te11 1.952810 1_555
O8 Te4 2.191680 1_546
O9 Te4 1.952810 1_555
O9 Te11 2.191680 1_564
O10 Te8 1.908615 1_555
O11 Te3 1.973918 1_555
O11 Te11 2.096669 1_555
O12 Te10 1.909947 1_555
O13 Te18 1.978012 1_555
O13 Te15 2.347480 1_556
O14 Te15 1.929123 1_555
O14 Te7 2.637775 1_555
O15 Te4 1.890303 1_555
O16 Te12 1.891960 1_555
O17 Te7 1.940395 1_555
O17 Te17 2.587612 1_545
O18 Te14 1.891960 1_555
O19 Te3 1.908615 1_555
O20 Te6 1.914010 1_555
O21 Te12 1.973918 1_555
O21 Te4 2.096669 1_555
O22 Te18 1.913398 1_555
O23 Te1 1.935355 1_545
O24 Te7 1.995344 1_555
O24 Te15 2.065518 1_555
O25 Te9 1.890303 1_555
O26 Te17 1.935355 1_445
O27 Te1 1.940395 1_555
O27 Te5 2.587612 1_565
O28 Te16 1.978012 1_455
O28 Te2 2.347480 1_555
O29 Te16 1.913398 1_555
O30 Te18 1.914010 1_555
O31 Te5 1.935355 1_665
O32 Te12 1.908615 1_555
O33 Te2 1.929123 1_655
O33 Te17 2.637775 1_555
O34 Te15 1.909947 1_555
O35 Te19 1.952810 1_455
O35 Te9 2.191680 1_545
O36 Te19 1.890303 1_555
O37 Te7 1.935355 1_565
O38 Te17 1.940395 1_455
O38 Te7 2.587612 1_565
O39 Te13 1.913398 1_555
O40 Te5 1.995344 1_655
O40 Te0 2.065518 1_555
O41 Te6 1.978012 1_555
O41 Te10 2.347480 1_554
O42 Te0 1.909947 1_555
O43 Te14 1.973918 1_655
O43 Te19 2.096669 1_555
O44 Te14 1.908615 1_555
O45 Te1 1.995344 1_555
O45 Te10 2.065518 1_555
O46 Te0 1.929123 1_455
O46 Te5 2.637775 1_555
O47 Te8 1.891960 1_555
O48 Te2 1.909947 1_555
O49 Te13 1.914010 1_555
O50 Te16 1.914010 1_555
O51 Te3 1.891960 1_555
