# generated using pymatgen
data_NaCe(PO3)4
_symmetry_space_group_name_H-M   'P 1'
_cell_length_a   7.33986131
_cell_length_b   10.10763759
_cell_length_c   13.33945452
_cell_angle_alpha   90.00000000
_cell_angle_beta   90.00000000
_cell_angle_gamma   90.17697558
_symmetry_Int_Tables_number   1
_chemical_formula_structural   NaCe(PO3)4
_chemical_formula_sum   'Na4 Ce4 P16 O48'
_cell_volume   989.63150980
_cell_formula_units_Z   4
loop_
 _symmetry_equiv_pos_site_id
 _symmetry_equiv_pos_as_xyz
  1  'x, y, z'
loop_
 _atom_site_type_symbol
 _atom_site_label
 _atom_site_symmetry_multiplicity
 _atom_site_fract_x
 _atom_site_fract_y
 _atom_site_fract_z
 _atom_site_occupancy
  Na  Na0  1  0.50078091  0.93474206  0.77981529  1
  Na  Na1  1  0.49921909  0.06525794  0.22018471  1
  Na  Na2  1  0.99921909  0.56525794  0.27981529  1
  Na  Na3  1  0.00078091  0.43474206  0.72018471  1
  Ce  Ce0  1  0.98601907  0.02346740  0.78168871  1
  Ce  Ce1  1  0.48601907  0.52346740  0.71831129  1
  Ce  Ce2  1  0.51398093  0.47653260  0.28168871  1
  Ce  Ce3  1  0.01398093  0.97653260  0.21831129  1
  P  P0  1  0.24938993  0.74299852  0.40034355  1
  P  P1  1  0.88186805  0.26424275  0.38582941  1
  P  P2  1  0.61813195  0.23575725  0.88582941  1
  P  P3  1  0.77086127  0.69767584  0.08991409  1
  P  P4  1  0.14335822  0.30590151  0.12711000  1
  P  P5  1  0.74938993  0.24299852  0.09965645  1
  P  P6  1  0.38186805  0.76424275  0.11417059  1
  P  P7  1  0.25061007  0.75700148  0.90034355  1
  P  P8  1  0.85664178  0.69409849  0.87289000  1
  P  P9  1  0.72913873  0.80232416  0.58991409  1
  P  P10  1  0.75061007  0.25700148  0.59965645  1
  P  P11  1  0.64335822  0.80590151  0.37289000  1
  P  P12  1  0.35664178  0.19409849  0.62711000  1
  P  P13  1  0.11813195  0.73575725  0.61417059  1
  P  P14  1  0.22913873  0.30232416  0.91008591  1
  P  P15  1  0.27086127  0.19767584  0.41008591  1
  O  O0  1  0.09601633  0.79438036  0.33585023  1
  O  O1  1  0.71108955  0.89764826  0.29230872  1
  O  O2  1  0.42655483  0.83184909  0.37851412  1
  O  O3  1  0.90981492  0.71204139  0.57993920  1
  O  O4  1  0.36901795  0.65312294  0.18805283  1
  O  O5  1  0.71365116  0.86496026  0.47865406  1
  O  O6  1  0.63098205  0.34687706  0.81194717  1
  O  O7  1  0.40981492  0.21204139  0.92006080  1
  O  O8  1  0.81913188  0.83971260  0.86580330  1
  O  O9  1  0.13098205  0.84687706  0.68805283  1
  O  O10  1  0.21296227  0.78860037  0.51384740  1
  O  O11  1  0.28703773  0.71139963  0.01384740  1
  O  O12  1  0.92655483  0.33184909  0.12148588  1
  O  O13  1  0.07344517  0.66815091  0.87851412  1
  O  O14  1  0.59018508  0.78795861  0.07993920  1
  O  O15  1  0.24271265  0.08360043  0.33954007  1
  O  O16  1  0.92746481  0.78993235  0.11036025  1
  O  O17  1  0.19060520  0.60264648  0.64464155  1
  O  O18  1  0.57253519  0.71006765  0.61036025  1
  O  O19  1  0.25728735  0.41639957  0.83954007  1
  O  O20  1  0.80939480  0.39735352  0.35535845  1
  O  O21  1  0.18086812  0.16028740  0.13419670  1
  O  O22  1  0.78703773  0.21139963  0.48615260  1
  O  O23  1  0.28663242  0.59681810  0.39291615  1
  O  O24  1  0.40398367  0.70561964  0.83585023  1
  O  O25  1  0.30939480  0.89735352  0.14464155  1
  O  O26  1  0.31913188  0.33971260  0.63419670  1
  O  O27  1  0.68086812  0.66028740  0.36580330  1
  O  O28  1  0.78634884  0.63503974  0.97865406  1
  O  O29  1  0.28891045  0.10235174  0.70769128  1
  O  O30  1  0.21108955  0.39764826  0.20769128  1
  O  O31  1  0.74271265  0.58360043  0.16045993  1
  O  O32  1  0.21336758  0.90318190  0.89291615  1
  O  O33  1  0.69060520  0.10264648  0.85535845  1
  O  O34  1  0.71336758  0.40318190  0.60708385  1
  O  O35  1  0.57344517  0.16815091  0.62148588  1
  O  O36  1  0.90398367  0.20561964  0.66414977  1
  O  O37  1  0.78663242  0.09681810  0.10708385  1
  O  O38  1  0.71296227  0.28860037  0.98615260  1
  O  O39  1  0.75728735  0.91639957  0.66045993  1
  O  O40  1  0.42746481  0.28993235  0.38963975  1
  O  O41  1  0.78891045  0.60235174  0.79230872  1
  O  O42  1  0.28634884  0.13503974  0.52134594  1
  O  O43  1  0.09018508  0.28795861  0.42006080  1
  O  O44  1  0.59601633  0.29438036  0.16414977  1
  O  O45  1  0.07253519  0.21006765  0.88963975  1
  O  O46  1  0.21365116  0.36496026  0.02134594  1
  O  O47  1  0.86901795  0.15312294  0.31194717  1
loop_
_geom_bond_atom_site_label_1
_geom_bond_atom_site_label_2
_geom_bond_distance
_geom_bond_site_symmetry_2
Na0 O33 2.412946 1_565
Na0 O39 2.473068 1_555
Na0 O29 2.496065 1_565
Na0 O24 2.533114 1_555
Na0 O32 2.612296 1_555
Na0 O8 2.777066 1_555
Na1 O25 2.412946 1_545
Na1 O15 2.473068 1_555
Na1 O1 2.496065 1_545
Na1 O44 2.533114 1_555
Na1 O37 2.612296 1_555
Na1 O21 2.777066 1_555
Na2 O20 2.412946 1_555
Na2 O31 2.473068 1_555
Na2 O30 2.496065 1_655
Na2 O0 2.533114 1_655
Na2 O23 2.612296 1_655
Na2 O27 2.777066 1_555
Na3 O17 2.412946 1_555
Na3 O19 2.473068 1_555
Na3 O41 2.496065 1_455
Na3 O36 2.533114 1_455
Na3 O34 2.612296 1_455
Na3 O26 2.777066 1_555
Ce0 O9 2.426908 1_645
Ce0 O45 2.454953 1_655
Ce0 O8 2.488984 1_545
Ce0 O36 2.493489 1_555
Ce0 O33 2.513655 1_555
Ce0 O32 2.544935 1_645
Ce0 O29 2.557667 1_655
Ce0 O39 2.567801 1_545
Ce1 O6 2.426908 1_555
Ce1 O18 2.454953 1_555
Ce1 O26 2.488984 1_555
Ce1 O24 2.493489 1_555
Ce1 O17 2.513655 1_555
Ce1 O34 2.544935 1_555
Ce1 O41 2.557667 1_555
Ce1 O19 2.567801 1_555
Ce2 O4 2.426908 1_555
Ce2 O40 2.454953 1_555
Ce2 O27 2.488984 1_555
Ce2 O44 2.493489 1_555
Ce2 O20 2.513655 1_555
Ce2 O23 2.544935 1_555
Ce2 O30 2.557667 1_555
Ce2 O31 2.567801 1_555
Ce3 O47 2.426908 1_465
Ce3 O16 2.454953 1_455
Ce3 O21 2.488984 1_565
Ce3 O0 2.493489 1_555
Ce3 O25 2.513655 1_555
Ce3 O37 2.544935 1_465
Ce3 O1 2.557667 1_455
Ce3 O15 2.567801 1_565
O0 P0 1.510216 1_555
O1 P11 1.503228 1_555
O2 P0 1.604699 1_555
O2 P11 1.615317 1_555
O3 P13 1.612948 1_655
O3 P9 1.617579 1_555
O4 P6 1.497008 1_555
O5 P11 1.615887 1_555
O5 P9 1.617678 1_555
O6 P2 1.497008 1_555
O7 P2 1.612948 1_555
O7 P14 1.617579 1_555
O8 P8 1.501159 1_555
O9 P13 1.497008 1_555
O10 P13 1.599497 1_555
O10 P0 1.605347 1_555
O11 P6 1.599497 1_555
O11 P7 1.605347 1_554
O12 P5 1.604699 1_555
O12 P4 1.615317 1_655
O13 P7 1.604699 1_555
O13 P8 1.615317 1_455
O14 P6 1.612948 1_555
O14 P3 1.617579 1_555
O15 P15 1.502086 1_555
O16 P3 1.502846 1_555
O17 P13 1.504259 1_555
O18 P9 1.502846 1_555
O19 P14 1.502086 1_555
O20 P1 1.504259 1_555
O21 P4 1.501159 1_555
O22 P1 1.599497 1_555
O22 P10 1.605347 1_555
O23 P0 1.506703 1_555
O24 P7 1.510216 1_555
O25 P6 1.504259 1_555
O26 P12 1.501159 1_555
O27 P11 1.501159 1_555
O28 P8 1.615887 1_555
O28 P3 1.617678 1_556
O29 P12 1.503228 1_555
O30 P4 1.503228 1_555
O31 P3 1.502086 1_555
O32 P7 1.506703 1_555
O33 P2 1.504259 1_555
O34 P10 1.506703 1_555
O35 P10 1.604699 1_555
O35 P12 1.615317 1_555
O36 P10 1.510216 1_555
O37 P5 1.506703 1_555
O38 P2 1.599497 1_555
O38 P5 1.605347 1_556
O39 P9 1.502086 1_555
O40 P15 1.502846 1_555
O41 P8 1.503228 1_555
O42 P12 1.615887 1_555
O42 P15 1.617678 1_555
O43 P1 1.612948 1_455
O43 P15 1.617579 1_555
O44 P5 1.510216 1_555
O45 P14 1.502846 1_555
O46 P4 1.615887 1_555
O46 P14 1.617678 1_554
O47 P1 1.497008 1_555
