# generated using pymatgen
data_Mg44Rh7
_symmetry_space_group_name_H-M   'P 1'
_cell_length_a   14.26550128
_cell_length_b   14.26550087
_cell_length_c   14.26550056
_cell_angle_alpha   59.99999840
_cell_angle_beta   59.99999934
_cell_angle_gamma   59.99999996
_symmetry_Int_Tables_number   1
_chemical_formula_structural   Mg44Rh7
_chemical_formula_sum   'Mg88 Rh14'
_cell_volume   2052.79731636
_cell_formula_units_Z   2
loop_
 _symmetry_equiv_pos_site_id
 _symmetry_equiv_pos_as_xyz
  1  'x, y, z'
loop_
 _atom_site_type_symbol
 _atom_site_label
 _atom_site_symmetry_multiplicity
 _atom_site_fract_x
 _atom_site_fract_y
 _atom_site_fract_z
 _atom_site_occupancy
  Mg  Mg0  1  0.48069386  0.13015333  0.48069386  1
  Mg  Mg1  1  0.48069386  0.90845895  0.48069386  1
  Mg  Mg2  1  0.71945214  0.08918834  0.71945214  1
  Mg  Mg3  1  0.56161623  0.56161623  0.31515132  1
  Mg  Mg4  1  0.35580539  0.14419461  0.35580539  1
  Mg  Mg5  1  0.81804078  0.18195922  0.18195922  1
  Mg  Mg6  1  0.90845895  0.48069386  0.48069386  1
  Mg  Mg7  1  0.76693369  0.33788334  0.33788334  1
  Mg  Mg8  1  0.48069386  0.90845895  0.13015333  1
  Mg  Mg9  1  0.00023874  0.21509190  0.56957745  1
  Mg  Mg10  1  0.33434722  0.97950640  0.70663999  1
  Mg  Mg11  1  0.08918834  0.71945214  0.47190738  1
  Mg  Mg12  1  0.48069386  0.48069386  0.13015333  1
  Mg  Mg13  1  0.47190738  0.71945214  0.71945214  1
  Mg  Mg14  1  0.13015333  0.48069386  0.48069386  1
  Mg  Mg15  1  0.21509190  0.21509190  0.56957745  1
  Mg  Mg16  1  0.13015333  0.90845895  0.48069386  1
  Mg  Mg17  1  0.76693369  0.33788334  0.55729963  1
  Mg  Mg18  1  0.18195922  0.18195922  0.81804078  1
  Mg  Mg19  1  0.33434722  0.97950640  0.97950640  1
  Mg  Mg20  1  0.56957745  0.21509190  0.00023874  1
  Mg  Mg21  1  0.21509190  0.00023874  0.21509190  1
  Mg  Mg22  1  0.71945214  0.47190738  0.71945214  1
  Mg  Mg23  1  0.21509190  0.21509190  0.00023874  1
  Mg  Mg24  1  0.00023874  0.21509190  0.21509190  1
  Mg  Mg25  1  0.81804078  0.18195922  0.81804078  1
  Mg  Mg26  1  0.81804078  0.81804078  0.18195922  1
  Mg  Mg27  1  0.97950640  0.97950640  0.70663999  1
  Mg  Mg28  1  0.71945214  0.71945214  0.47190738  1
  Mg  Mg29  1  0.91235585  0.69588138  0.69588138  1
  Mg  Mg30  1  0.21509190  0.56957745  0.21509190  1
  Mg  Mg31  1  0.33788334  0.33788334  0.76693369  1
  Mg  Mg32  1  0.69588138  0.91235585  0.69588138  1
  Mg  Mg33  1  0.97950640  0.70663999  0.33434722  1
  Mg  Mg34  1  0.50001548  0.83332817  0.83332817  1
  Mg  Mg35  1  0.94767769  0.94767769  0.94767769  1
  Mg  Mg36  1  0.90845895  0.13015333  0.48069386  1
  Mg  Mg37  1  0.76693369  0.55729963  0.33788334  1
  Mg  Mg38  1  0.55729963  0.33788334  0.33788334  1
  Mg  Mg39  1  0.08918834  0.47190738  0.71945214  1
  Mg  Mg40  1  0.33788334  0.55729963  0.76693369  1
  Mg  Mg41  1  0.18195922  0.81804078  0.18195922  1
  Mg  Mg42  1  0.33434722  0.70663999  0.97950640  1
  Mg  Mg43  1  0.71945214  0.47190738  0.08918834  1
  Mg  Mg44  1  0.56161623  0.56161623  0.56161623  1
  Mg  Mg45  1  0.83332817  0.50001548  0.83332817  1
  Mg  Mg46  1  0.35580539  0.14419461  0.14419461  1
  Mg  Mg47  1  0.97950640  0.33434722  0.70663999  1
  Mg  Mg48  1  0.55729963  0.76693369  0.33788334  1
  Mg  Mg49  1  0.47190738  0.08918834  0.71945214  1
  Mg  Mg50  1  0.83332817  0.83332817  0.83332817  1
  Mg  Mg51  1  0.97950640  0.97950640  0.33434722  1
  Mg  Mg52  1  0.56161623  0.31515132  0.56161623  1
  Mg  Mg53  1  0.70663999  0.97950640  0.97950640  1
  Mg  Mg54  1  0.48069386  0.13015333  0.90845895  1
  Mg  Mg55  1  0.14419461  0.35580539  0.14419461  1
  Mg  Mg56  1  0.15696693  0.94767769  0.94767769  1
  Mg  Mg57  1  0.35580539  0.35580539  0.14419461  1
  Mg  Mg58  1  0.70663999  0.33434722  0.97950640  1
  Mg  Mg59  1  0.14419461  0.14419461  0.35580539  1
  Mg  Mg60  1  0.13015333  0.48069386  0.90845895  1
  Mg  Mg61  1  0.56957745  0.00023874  0.21509190  1
  Mg  Mg62  1  0.71945214  0.71945214  0.08918834  1
  Mg  Mg63  1  0.21509190  0.56957745  0.00023874  1
  Mg  Mg64  1  0.48069386  0.48069386  0.90845895  1
  Mg  Mg65  1  0.70663999  0.97950640  0.33434722  1
  Mg  Mg66  1  0.33788334  0.76693369  0.55729963  1
  Mg  Mg67  1  0.47190738  0.71945214  0.08918834  1
  Mg  Mg68  1  0.31515132  0.56161623  0.56161623  1
  Mg  Mg69  1  0.18195922  0.81804078  0.81804078  1
  Mg  Mg70  1  0.83332817  0.83332817  0.50001548  1
  Mg  Mg71  1  0.33788334  0.33788334  0.55729963  1
  Mg  Mg72  1  0.55729963  0.33788334  0.76693369  1
  Mg  Mg73  1  0.33788334  0.55729963  0.33788334  1
  Mg  Mg74  1  0.97950640  0.33434722  0.97950640  1
  Mg  Mg75  1  0.56957745  0.21509190  0.21509190  1
  Mg  Mg76  1  0.90845895  0.48069386  0.13015333  1
  Mg  Mg77  1  0.94767769  0.94767769  0.15696693  1
  Mg  Mg78  1  0.69588138  0.69588138  0.69588138  1
  Mg  Mg79  1  0.97950640  0.70663999  0.97950640  1
  Mg  Mg80  1  0.21509190  0.00023874  0.56957745  1
  Mg  Mg81  1  0.08918834  0.71945214  0.71945214  1
  Mg  Mg82  1  0.00023874  0.56957745  0.21509190  1
  Mg  Mg83  1  0.14419461  0.35580539  0.35580539  1
  Mg  Mg84  1  0.94767769  0.15696693  0.94767769  1
  Mg  Mg85  1  0.69588138  0.69588138  0.91235585  1
  Mg  Mg86  1  0.33788334  0.76693369  0.33788334  1
  Mg  Mg87  1  0.71945214  0.08918834  0.47190738  1
  Rh  Rh0  1  0.58676948  0.91323052  0.58676948  1
  Rh  Rh1  1  0.34888913  0.95333261  0.34888913  1
  Rh  Rh2  1  0.08296427  0.75110720  0.08296427  1
  Rh  Rh3  1  0.95333261  0.34888913  0.34888913  1
  Rh  Rh4  1  0.75110720  0.08296427  0.08296427  1
  Rh  Rh5  1  0.58676948  0.91323052  0.91323052  1
  Rh  Rh6  1  0.34888913  0.34888913  0.34888913  1
  Rh  Rh7  1  0.08296427  0.08296427  0.08296427  1
  Rh  Rh8  1  0.91323052  0.58676948  0.58676948  1
  Rh  Rh9  1  0.91323052  0.58676948  0.91323052  1
  Rh  Rh10  1  0.34888913  0.34888913  0.95333261  1
  Rh  Rh11  1  0.08296427  0.08296427  0.75110720  1
  Rh  Rh12  1  0.58676948  0.58676948  0.91323052  1
  Rh  Rh13  1  0.91323052  0.91323052  0.58676948  1
loop_
_geom_bond_atom_site_label_1
_geom_bond_atom_site_label_2
_geom_bond_distance
_geom_bond_site_symmetry_2
Mg0 Rh0 2.660857 1_545
Mg0 Rh6 2.934049 1_555
Mg0 Mg49 3.100646 1_555
Mg0 Mg87 3.100646 1_555
Mg1 Rh0 2.660857 1_555
Mg1 Rh1 2.934049 1_555
Mg1 Mg13 3.100646 1_555
Mg1 Mg28 3.100646 1_555
Mg2 Mg32 2.898131 1_545
Mg2 Mg50 3.062767 1_545
Mg2 Mg36 3.100646 1_555
Mg2 Mg54 3.100646 1_555
Mg2 Mg53 3.169788 1_545
Mg2 Mg27 3.169788 1_545
Mg2 Rh5 3.178826 1_545
Mg2 Rh13 3.178826 1_545
Mg2 Mg72 3.320517 1_555
Mg2 Mg52 3.329265 1_555
Mg2 Mg25 3.377579 1_555
Mg3 Mg48 3.072006 1_555
Mg3 Mg37 3.072006 1_555
Mg3 Mg7 3.072006 1_555
Mg3 Mg86 3.072006 1_555
Mg3 Mg38 3.072006 1_555
Mg3 Mg73 3.072006 1_555
Mg3 Mg62 3.329265 1_555
Mg3 Mg67 3.329265 1_555
Mg3 Mg43 3.329265 1_555
Mg3 Mg52 3.515945 1_555
Mg3 Mg44 3.515945 1_555
Mg3 Mg68 3.515945 1_555
Mg4 Rh6 2.824854 1_555
Mg4 Rh1 2.824854 1_545
Mg5 Rh4 3.097036 1_555
Mg5 Rh7 3.097036 1_655
Mg5 Mg87 3.377578 1_555
Mg6 Rh8 2.660857 1_555
Mg6 Rh3 2.934049 1_555
Mg7 Rh3 2.824817 1_555
Mg7 Mg87 3.320517 1_555
Mg8 Rh5 2.660857 1_554
Mg8 Rh1 2.934049 1_555
Mg9 Rh11 2.757193 1_555
Mg9 Rh3 2.970290 1_455
Mg10 Rh11 2.968078 1_565
Mg10 Rh0 2.973098 1_555
Mg10 Mg49 3.169788 1_565
Mg10 Mg13 3.169788 1_555
Mg11 Mg29 2.898131 1_455
Mg11 Mg70 3.062767 1_455
Mg11 Mg14 3.100646 1_555
Mg11 Mg16 3.100646 1_555
Mg11 Mg33 3.169788 1_455
Mg11 Mg51 3.169788 1_455
Mg11 Rh13 3.178826 1_455
Mg11 Rh8 3.178826 1_455
Mg11 Mg73 3.320517 1_555
Mg11 Mg86 3.320517 1_555
Mg11 Mg68 3.329265 1_555
Mg11 Mg41 3.377578 1_555
Mg12 Rh12 2.660857 1_554
Mg12 Rh6 2.934049 1_555
Mg12 Mg67 3.100646 1_555
Mg12 Mg43 3.100646 1_555
Mg13 Mg78 2.898131 1_555
Mg13 Mg34 3.062767 1_555
Mg13 Mg64 3.100646 1_555
Mg13 Mg42 3.169788 1_555
Mg13 Rh12 3.178826 1_555
Mg13 Rh0 3.178826 1_555
Mg13 Mg66 3.320517 1_555
Mg13 Mg40 3.320517 1_555
Mg13 Mg44 3.329265 1_555
Mg13 Mg69 3.377579 1_555
Mg14 Rh8 2.660857 1_455
Mg14 Rh6 2.934049 1_555
Mg14 Mg39 3.100646 1_555
Mg15 Rh11 2.757193 1_555
Mg15 Rh6 2.970290 1_555
Mg16 Rh13 2.660857 1_455
Mg16 Rh1 2.934049 1_555
Mg16 Mg81 3.100646 1_555
Mg17 Rh3 2.824817 1_555
Mg17 Mg52 3.072006 1_555
Mg17 Mg44 3.072006 1_555
Mg17 Mg2 3.320517 1_555
Mg17 Mg22 3.320517 1_555
Mg18 Rh7 3.097036 1_556
Mg18 Rh11 3.097036 1_555
Mg18 Mg39 3.377579 1_555
Mg18 Mg49 3.377579 1_555
Mg19 Rh7 2.968078 1_566
Mg19 Rh5 2.973098 1_555
Mg19 Mg49 3.169788 1_565
Mg19 Mg67 3.169788 1_556
Mg20 Rh4 2.757193 1_555
Mg20 Rh10 2.970290 1_554
Mg21 Rh7 2.757193 1_555
Mg21 Rh1 2.970290 1_545
Mg22 Mg78 2.898131 1_555
Mg22 Mg45 3.062767 1_555
Mg22 Mg6 3.100646 1_555
Mg22 Mg64 3.100646 1_555
Mg22 Mg58 3.169788 1_555
Mg22 Mg47 3.169788 1_555
Mg22 Rh12 3.178826 1_555
Mg22 Rh8 3.178826 1_555
Mg22 Mg72 3.320517 1_555
Mg22 Mg44 3.329265 1_555
Mg22 Mg25 3.377579 1_555
Mg23 Rh7 2.757193 1_555
Mg23 Rh10 2.970290 1_554
Mg24 Rh7 2.757193 1_555
Mg24 Rh3 2.970290 1_455
Mg25 Rh4 3.097036 1_556
Mg25 Rh11 3.097036 1_655
Mg26 Rh4 3.097036 1_565
Mg26 Rh2 3.097036 1_655
Mg26 Mg28 3.377578 1_555
Mg26 Mg62 3.377579 1_555
Mg27 Rh11 2.968078 1_665
Mg27 Rh13 2.973098 1_555
Mg27 Mg81 3.169788 1_655
Mg28 Mg78 2.898131 1_555
Mg28 Mg70 3.062767 1_555
Mg28 Mg6 3.100646 1_555
Mg28 Mg65 3.169788 1_555
Mg28 Mg33 3.169788 1_555
Mg28 Rh0 3.178826 1_555
Mg28 Rh8 3.178826 1_555
Mg28 Mg37 3.320517 1_555
Mg28 Mg48 3.320517 1_555
Mg28 Mg44 3.329265 1_555
Mg29 Rh8 2.688815 1_555
Mg29 Rh9 2.688815 1_555
Mg29 Rh13 2.688815 1_555
Mg29 Mg39 2.898131 1_655
Mg29 Mg81 2.898131 1_655
Mg30 Rh2 2.757193 1_555
Mg30 Rh6 2.970290 1_555
Mg31 Rh10 2.824817 1_555
Mg31 Mg68 3.072006 1_555
Mg31 Mg52 3.072006 1_555
Mg31 Mg49 3.320517 1_555
Mg31 Mg39 3.320517 1_555
Mg32 Rh0 2.688815 1_555
Mg32 Rh5 2.688815 1_555
Mg32 Rh13 2.688815 1_555
Mg32 Mg87 2.898131 1_565
Mg32 Mg49 2.898131 1_565
Mg33 Rh2 2.968078 1_655
Mg33 Rh8 2.973098 1_555
Mg34 Rh0 2.872404 1_555
Mg34 Rh12 2.872404 1_555
Mg34 Rh5 2.872404 1_555
Mg34 Mg67 3.062767 1_556
Mg34 Mg49 3.062767 1_565
Mg35 Rh11 2.865933 1_665
Mg35 Rh2 2.865933 1_656
Mg35 Rh4 2.865933 1_566
Mg36 Rh13 2.660857 1_545
Mg36 Rh3 2.934049 1_555
Mg36 Mg87 3.100646 1_555
Mg37 Rh3 2.824817 1_555
Mg37 Mg44 3.072006 1_555
Mg37 Mg62 3.320517 1_555
Mg38 Rh6 2.824817 1_555
Mg38 Mg52 3.072006 1_555
Mg38 Mg43 3.320517 1_555
Mg38 Mg87 3.320517 1_555
Mg39 Mg45 3.062767 1_455
Mg39 Mg60 3.100646 1_555
Mg39 Mg74 3.169788 1_455
Mg39 Mg47 3.169788 1_455
Mg39 Rh9 3.178826 1_455
Mg39 Rh8 3.178826 1_455
Mg39 Mg71 3.320517 1_555
Mg39 Mg68 3.329265 1_555
Mg40 Rh10 2.824817 1_555
Mg40 Mg68 3.072006 1_555
Mg40 Mg44 3.072006 1_555
Mg40 Mg81 3.320517 1_555
Mg41 Rh2 3.097036 1_555
Mg41 Rh7 3.097036 1_565
Mg41 Mg67 3.377579 1_555
Mg42 Rh2 2.968078 1_556
Mg42 Rh12 2.973098 1_555
Mg42 Mg67 3.169788 1_556
Mg43 Mg85 2.898131 1_554
Mg43 Mg45 3.062767 1_554
Mg43 Mg76 3.100646 1_555
Mg43 Mg58 3.169788 1_554
Mg43 Mg74 3.169788 1_554
Mg43 Rh12 3.178826 1_554
Mg43 Rh9 3.178826 1_554
Mg43 Mg7 3.320517 1_555
Mg43 Mg5 3.377579 1_555
Mg44 Mg48 3.072006 1_555
Mg44 Mg72 3.072006 1_555
Mg44 Mg66 3.072006 1_555
Mg44 Mg52 3.515945 1_555
Mg44 Mg68 3.515945 1_555
Mg45 Rh8 2.872404 1_555
Mg45 Rh12 2.872404 1_555
Mg45 Rh9 2.872404 1_555
Mg46 Rh1 2.824854 1_545
Mg46 Rh10 2.824854 1_554
Mg47 Rh11 2.968078 1_655
Mg47 Rh8 2.973098 1_555
Mg48 Rh1 2.824817 1_555
Mg48 Mg62 3.320517 1_555
Mg49 Mg54 3.100646 1_555
Mg49 Rh5 3.178826 1_545
Mg49 Rh0 3.178826 1_545
Mg49 Mg71 3.320517 1_555
Mg49 Mg52 3.329265 1_555
Mg50 Rh13 2.872404 1_555
Mg50 Rh9 2.872404 1_555
Mg50 Rh5 2.872404 1_555
Mg50 Mg62 3.062767 1_556
Mg50 Mg81 3.062767 1_655
Mg51 Rh7 2.968078 1_665
Mg51 Rh13 2.973098 1_555
Mg51 Mg87 3.169788 1_565
Mg52 Mg72 3.072006 1_555
Mg52 Mg7 3.072006 1_555
Mg52 Mg71 3.072006 1_555
Mg52 Mg87 3.329265 1_555
Mg52 Mg68 3.515945 1_555
Mg53 Rh4 2.968078 1_566
Mg53 Rh5 2.973098 1_555
Mg53 Mg62 3.169788 1_556
Mg54 Rh5 2.660857 1_545
Mg54 Rh10 2.934049 1_555
Mg55 Rh3 2.824854 1_455
Mg55 Rh10 2.824854 1_554
Mg56 Rh11 2.865933 1_565
Mg56 Rh2 2.865933 1_556
Mg56 Rh7 2.865933 1_566
Mg57 Rh6 2.824854 1_555
Mg57 Rh10 2.824854 1_554
Mg58 Rh4 2.968078 1_556
Mg58 Rh12 2.973098 1_555
Mg59 Rh3 2.824854 1_455
Mg59 Rh1 2.824854 1_545
Mg60 Rh9 2.660857 1_455
Mg60 Rh10 2.934049 1_555
Mg60 Mg81 3.100646 1_555
Mg61 Rh4 2.757193 1_555
Mg61 Rh1 2.970290 1_545
Mg62 Mg85 2.898131 1_554
Mg62 Mg76 3.100646 1_555
Mg62 Mg8 3.100646 1_555
Mg62 Mg79 3.169788 1_554
Mg62 Rh5 3.178826 1_554
Mg62 Rh9 3.178826 1_554
Mg63 Rh2 2.757193 1_555
Mg63 Rh10 2.970290 1_554
Mg64 Rh12 2.660857 1_555
Mg64 Rh10 2.934049 1_555
Mg65 Rh4 2.968078 1_565
Mg65 Rh0 2.973098 1_555
Mg65 Mg87 3.169788 1_565
Mg66 Rh1 2.824817 1_555
Mg66 Mg68 3.072006 1_555
Mg66 Mg81 3.320517 1_555
Mg67 Mg85 2.898131 1_554
Mg67 Mg8 3.100646 1_555
Mg67 Rh5 3.178826 1_554
Mg67 Rh12 3.178826 1_554
Mg67 Mg73 3.320517 1_555
Mg67 Mg86 3.320517 1_555
Mg68 Mg86 3.072006 1_555
Mg68 Mg73 3.072006 1_555
Mg68 Mg71 3.072006 1_555
Mg68 Mg81 3.329265 1_555
Mg69 Rh2 3.097036 1_556
Mg69 Rh11 3.097036 1_565
Mg69 Mg81 3.377579 1_555
Mg70 Rh8 2.872404 1_555
Mg70 Rh0 2.872404 1_555
Mg70 Rh13 2.872404 1_555
Mg70 Mg87 3.062767 1_565
Mg71 Rh6 2.824817 1_555
Mg72 Rh10 2.824817 1_555
Mg73 Rh6 2.824817 1_555
Mg74 Rh7 2.968078 1_656
Mg74 Rh9 2.973098 1_555
Mg75 Rh4 2.757193 1_555
Mg75 Rh6 2.970290 1_555
Mg76 Rh9 2.660857 1_554
Mg76 Rh3 2.934049 1_555
Mg77 Rh2 2.865933 1_655
Mg77 Rh4 2.865933 1_565
Mg77 Rh7 2.865933 1_665
Mg78 Rh12 2.688815 1_555
Mg78 Rh0 2.688815 1_555
Mg78 Rh8 2.688815 1_555
Mg79 Rh2 2.968078 1_656
Mg79 Rh9 2.973098 1_555
Mg79 Mg81 3.169788 1_655
Mg80 Rh11 2.757193 1_555
Mg80 Rh1 2.970290 1_545
Mg81 Rh9 3.178826 1_455
Mg81 Rh13 3.178826 1_455
Mg82 Rh2 2.757193 1_555
Mg82 Rh3 2.970290 1_455
Mg83 Rh3 2.824854 1_455
Mg83 Rh6 2.824854 1_555
Mg84 Rh11 2.865933 1_655
Mg84 Rh4 2.865933 1_556
Mg84 Rh7 2.865933 1_656
Mg85 Rh12 2.688815 1_555
Mg85 Rh5 2.688815 1_555
Mg85 Rh9 2.688815 1_555
Mg86 Rh1 2.824817 1_555
Mg87 Rh0 3.178826 1_545
Mg87 Rh13 3.178826 1_545
