# generated using pymatgen
data_Li17Nb18O54
_symmetry_space_group_name_H-M   'P 1'
_cell_length_a   9.05703900
_cell_length_b   9.89748953
_cell_length_c   11.86365319
_cell_angle_alpha   79.38883780
_cell_angle_beta   75.25808636
_cell_angle_gamma   81.23066304
_symmetry_Int_Tables_number   1
_chemical_formula_structural   Li17Nb18O54
_chemical_formula_sum   'Li17 Nb18 O54'
_cell_volume   1004.62837990
_cell_formula_units_Z   1
loop_
 _symmetry_equiv_pos_site_id
 _symmetry_equiv_pos_as_xyz
  1  'x, y, z'
loop_
 _atom_site_type_symbol
 _atom_site_label
 _atom_site_symmetry_multiplicity
 _atom_site_fract_x
 _atom_site_fract_y
 _atom_site_fract_z
 _atom_site_occupancy
  Li  Li0  1  0.42726500  0.29019900  0.57269500  1
  Li  Li1  1  0.64888600  0.73434600  0.68451000  1
  Li  Li2  1  0.48572300  0.40137600  0.84985700  1
  Li  Li3  1  0.76079600  0.95726800  0.23924400  1
  Li  Li4  1  0.87141600  0.17939500  0.79501400  1
  Li  Li5  1  0.70532100  0.84596800  0.96068300  1
  Li  Li6  1  0.98402500  0.40182700  0.34978500  1
  Li  Li7  1  0.81637500  0.06786800  0.51704200  1
  Li  Li8  1  0.20632200  0.84516200  0.46182000  1
  Li  Li9  1  0.03753300  0.51134700  0.62711000  1
  Li  Li10  1  0.31641400  0.06839600  0.01664700  1
  Li  Li11  1  0.14919600  0.73417100  0.18414900  1
  Li  Li12  1  0.26135200  0.95635500  0.73935500  1
  Li  Li13  1  0.53787300  0.51202800  0.12741100  1
  Li  Li14  1  0.37169500  0.18045100  0.29426000  1
  Li  Li15  1  0.59320500  0.62414000  0.40679400  1
  Li  Li16  1  0.92728300  0.28804800  0.07331800  1
  Nb  Nb0  1  0.00030700  0.99851700  0.99937600  1
  Nb  Nb1  1  0.32911300  0.66315400  0.67026300  1
  Nb  Nb2  1  0.16661200  0.33274200  0.83327600  1
  Nb  Nb3  1  0.55530400  0.11085500  0.77711500  1
  Nb  Nb4  1  0.38844000  0.77714100  0.94421500  1
  Nb  Nb5  1  0.66719400  0.33295900  0.33290500  1
  Nb  Nb6  1  0.50044200  0.99902400  0.49919700  1
  Nb  Nb7  1  0.78383900  0.55380100  0.88915400  1
  Nb  Nb8  1  0.88870900  0.77738400  0.44477500  1
  Nb  Nb9  1  0.72219400  0.44377900  0.61115400  1
  Nb  Nb10  1  0.83399200  0.66638100  0.16668200  1
  Nb  Nb11  1  0.11134600  0.22087500  0.55560800  1
  Nb  Nb12  1  0.94407000  0.88832300  0.72243700  1
  Nb  Nb13  1  0.22160500  0.44508600  0.10655600  1
  Nb  Nb14  1  0.05629400  0.11053300  0.27714100  1
  Nb  Nb15  1  0.44499400  0.88816500  0.22190200  1
  Nb  Nb16  1  0.27880500  0.55476200  0.38970100  1
  Nb  Nb17  1  0.61024800  0.22285300  0.05516000  1
  O  O0  1  0.26109000  0.42221900  0.94720900  1
  O  O1  1  0.12887600  0.17543300  0.95325600  1
  O  O2  1  0.37329500  0.27468700  0.75642300  1
  O  O3  1  0.40706200  0.98394400  0.84405900  1
  O  O4  1  0.29394400  0.74232400  0.82944800  1
  O  O5  1  0.58887100  0.09719100  0.61417000  1
  O  O6  1  0.59369400  0.71886400  0.86914700  1
  O  O7  1  0.46448800  0.84388200  0.61789500  1
  O  O8  1  0.62994200  0.42843000  0.95458200  1
  O  O9  1  0.51156700  0.55359800  0.70074900  1
  O  O10  1  0.70698500  0.94371500  0.42253800  1
  O  O11  1  0.50635600  0.18086700  0.94756300  1
  O  O12  1  0.81130300  0.54119600  0.72605600  1
  O  O13  1  0.81675200  0.16390200  0.97975100  1
  O  O14  1  0.74043100  0.64963800  0.51025500  1
  O  O15  1  0.68413300  0.28905800  0.73224000  1
  O  O16  1  0.61703900  0.40279700  0.50375400  1
  O  O17  1  0.92090600  0.76572300  0.28188800  1
  O  O18  1  0.73450400  0.00065800  0.81154500  1
  O  O19  1  0.92876800  0.38754400  0.53486200  1
  O  O20  1  0.03286100  0.98562300  0.83640200  1
  O  O21  1  0.79349900  0.51145100  0.28858500  1
  O  O22  1  0.96203100  0.09433100  0.62053100  1
  O  O23  1  0.89358300  0.73651600  0.84084900  1
  O  O24  1  0.84582700  0.22103400  0.36736500  1
  O  O25  1  0.04052900  0.60642200  0.10125500  1
  O  O26  1  0.83943100  0.84921500  0.61275700  1
  O  O27  1  0.14404200  0.20833500  0.39233700  1
  O  O28  1  0.95496500  0.43422900  0.92330100  1
  O  O29  1  0.15024100  0.83021100  0.64649900  1
  O  O30  1  0.07423800  0.31620500  0.17602900  1
  O  O31  1  0.01858700  0.95551100  0.39798600  1
  O  O32  1  0.18651300  0.53229600  0.72699300  1
  O  O33  1  0.95071000  0.06959900  0.16954400  1
  O  O34  1  0.06751500  0.66528200  0.47857900  1
  O  O35  1  0.26216100  0.05414100  0.20064500  1
  O  O36  1  0.06211300  0.28988300  0.72521200  1
  O  O37  1  0.36582000  0.65456000  0.50439800  1
  O  O38  1  0.29610200  0.76105400  0.28749800  1
  O  O39  1  0.24045900  0.39892300  0.50979500  1
  O  O40  1  0.17852300  0.88721000  0.03450700  1
  O  O41  1  0.17498600  0.51197100  0.28310100  1
  O  O42  1  0.47836600  0.87518900  0.05885700  1
  O  O43  1  0.28995500  0.10906600  0.58958900  1
  O  O44  1  0.48515600  0.49894900  0.31260900  1
  O  O45  1  0.34981200  0.62122400  0.06475300  1
  O  O46  1  0.51799200  0.20633500  0.39860800  1
  O  O47  1  0.40087600  0.33372800  0.14519200  1
  O  O48  1  0.39452900  0.95945500  0.39123400  1
  O  O49  1  0.70050000  0.31945800  0.17027900  1
  O  O50  1  0.57265800  0.06731600  0.17625000  1
  O  O51  1  0.62301700  0.77673500  0.25694600  1
  O  O52  1  0.85124000  0.87118500  0.06580000  1
  O  O53  1  0.73030200  0.62367400  0.05868700  1
loop_
_geom_bond_atom_site_label_1
_geom_bond_atom_site_label_2
_geom_bond_distance
_geom_bond_site_symmetry_2
Li0 O39 2.090228 1_555
Li0 O2 2.090677 1_555
Li0 O16 2.097160 1_555
Li0 O46 2.278017 1_555
Li0 O5 2.280674 1_555
Li0 O43 2.285036 1_555
Li1 O7 2.096008 1_555
Li1 O6 2.100950 1_555
Li1 O26 2.118886 1_555
Li1 O9 2.283375 1_555
Li1 O14 2.284320 1_555
Li1 O12 2.286033 1_555
Li2 O0 2.068721 1_555
Li2 O9 2.090259 1_555
Li2 O8 2.092019 1_555
Li2 O15 2.257899 1_555
Li2 O11 2.279469 1_555
Li2 O2 2.305098 1_555
Li3 O10 2.087408 1_555
Li3 O33 2.097406 1_565
Li3 O50 2.104946 1_565
Li3 O17 2.266010 1_555
Li3 O51 2.280860 1_555
Li3 O52 2.281665 1_555
Li4 O36 2.092642 1_655
Li4 O15 2.096120 1_555
Li4 O13 2.102174 1_555
Li4 O18 2.263397 1_555
Li4 O20 2.284917 1_645
Li4 O22 2.287763 1_555
Li5 O42 2.095181 1_556
Li5 O52 2.101922 1_556
Li5 O18 2.105276 1_565
Li5 O23 2.207334 1_555
Li5 O6 2.287732 1_555
Li5 O53 2.298628 1_556
Li6 O41 2.089624 1_655
Li6 O19 2.107015 1_555
Li6 O21 2.111565 1_555
Li6 O27 2.278776 1_655
Li6 O30 2.282563 1_655
Li6 O24 2.285766 1_555
Li7 O22 2.089114 1_555
Li7 O5 2.095276 1_555
Li7 O24 2.100785 1_555
Li7 O26 2.257052 1_545
Li7 O10 2.278697 1_545
Li7 O31 2.286216 1_645
Li8 O48 2.097418 1_555
Li8 O29 2.101755 1_555
Li8 O31 2.107591 1_555
Li8 O37 2.256160 1_555
Li8 O38 2.281009 1_555
Li8 O34 2.283552 1_555
Li9 O32 2.063334 1_555
Li9 O12 2.093462 1_455
Li9 O34 2.096177 1_555
Li9 O19 2.253920 1_455
Li9 O39 2.279924 1_555
Li9 O36 2.291777 1_555
Li10 O1 2.093071 1_554
Li10 O35 2.094799 1_555
Li10 O11 2.097788 1_554
Li10 O3 2.265083 1_544
Li10 O42 2.285811 1_545
Li10 O40 2.286648 1_545
Li11 O38 2.098278 1_555
Li11 O40 2.099742 1_555
Li11 O17 2.105581 1_455
Li11 O25 2.205548 1_555
Li11 O45 2.282872 1_555
Li11 O41 2.302468 1_555
Li12 O43 2.098721 1_565
Li12 O20 2.102275 1_555
Li12 O3 2.104341 1_555
Li12 O4 2.202967 1_555
Li12 O29 2.288856 1_555
Li12 O7 2.305977 1_555
Li13 O45 2.099756 1_555
Li13 O44 2.110046 1_555
Li13 O53 2.110812 1_555
Li13 O47 2.257353 1_555
Li13 O8 2.264574 1_554
Li13 O49 2.286716 1_555
Li14 O47 2.096469 1_555
Li14 O27 2.098829 1_555
Li14 O46 2.099744 1_555
Li14 O50 2.277244 1_555
Li14 O48 2.281895 1_545
Li14 O35 2.287084 1_555
Li15 O14 2.097129 1_555
Li15 O37 2.097244 1_555
Li15 O51 2.098937 1_555
Li15 O21 2.272864 1_555
Li15 O44 2.275442 1_555
Li15 O16 2.285437 1_555
Li16 O28 2.063699 1_554
Li16 O49 2.091231 1_555
Li16 O30 2.097031 1_655
Li16 O33 2.257719 1_555
Li16 O13 2.277519 1_554
Li16 O1 2.290299 1_654
Nb0 O40 1.903625 1_556
Nb0 O20 1.905463 1_555
Nb0 O52 1.908832 1_456
Nb0 O1 2.160099 1_565
Nb0 O13 2.173545 1_465
Nb0 O33 2.176589 1_466
Nb1 O32 1.882847 1_555
Nb1 O9 1.910678 1_555
Nb1 O37 1.926120 1_555
Nb1 O4 2.108246 1_555
Nb1 O29 2.163778 1_555
Nb1 O7 2.227266 1_555
Nb2 O36 1.912996 1_555
Nb2 O2 1.913626 1_555
Nb2 O1 1.914549 1_555
Nb2 O28 2.142472 1_455
Nb2 O32 2.144535 1_555
Nb2 O0 2.145699 1_555
Nb3 O3 1.901409 1_545
Nb3 O18 1.903728 1_555
Nb3 O5 1.905866 1_555
Nb3 O2 2.156697 1_555
Nb3 O15 2.172850 1_555
Nb3 O11 2.175290 1_555
Nb4 O4 1.887021 1_555
Nb4 O6 1.897720 1_555
Nb4 O45 1.909465 1_556
Nb4 O40 2.170410 1_556
Nb4 O3 2.176555 1_555
Nb4 O42 2.178467 1_556
Nb5 O49 1.902015 1_555
Nb5 O46 1.903911 1_555
Nb5 O24 1.906621 1_555
Nb5 O21 2.161952 1_555
Nb5 O44 2.169282 1_555
Nb5 O16 2.178092 1_555
Nb6 O7 1.889338 1_555
Nb6 O10 1.905636 1_555
Nb6 O48 1.907533 1_555
Nb6 O43 2.174200 1_565
Nb6 O5 2.174233 1_565
Nb6 O46 2.181882 1_565
Nb7 O28 1.884294 1_555
Nb7 O12 1.912045 1_555
Nb7 O8 1.925378 1_555
Nb7 O23 2.112642 1_555
Nb7 O53 2.161554 1_556
Nb7 O6 2.213254 1_555
Nb8 O17 1.902038 1_555
Nb8 O14 1.905438 1_555
Nb8 O34 1.906120 1_655
Nb8 O26 2.156059 1_555
Nb8 O10 2.173372 1_555
Nb8 O31 2.177075 1_655
Nb9 O16 1.902832 1_555
Nb9 O15 1.904268 1_555
Nb9 O19 1.906734 1_555
Nb9 O9 2.170641 1_555
Nb9 O14 2.171471 1_555
Nb9 O12 2.172654 1_555
Nb10 O25 1.883100 1_655
Nb10 O53 1.906562 1_555
Nb10 O21 1.913694 1_555
Nb10 O52 2.161862 1_555
Nb10 O17 2.175530 1_555
Nb10 O51 2.178050 1_555
Nb11 O22 1.903114 1_455
Nb11 O43 1.904140 1_555
Nb11 O27 1.907993 1_555
Nb11 O36 2.161161 1_555
Nb11 O39 2.172658 1_555
Nb11 O19 2.177631 1_455
Nb12 O23 1.882897 1_555
Nb12 O29 1.906947 1_655
Nb12 O26 1.914700 1_555
Nb12 O20 2.161288 1_655
Nb12 O18 2.173603 1_565
Nb12 O22 2.176845 1_565
Nb13 O0 1.881940 1_554
Nb13 O30 1.913108 1_555
Nb13 O47 1.925669 1_555
Nb13 O25 2.111973 1_555
Nb13 O45 2.153883 1_555
Nb13 O41 2.231289 1_555
Nb14 O35 1.902552 1_555
Nb14 O31 1.904378 1_545
Nb14 O33 1.907324 1_455
Nb14 O27 2.170456 1_555
Nb14 O30 2.170604 1_555
Nb14 O24 2.175441 1_455
Nb15 O51 1.902361 1_555
Nb15 O38 1.905131 1_555
Nb15 O42 1.905653 1_555
Nb15 O48 2.167678 1_555
Nb15 O50 2.174180 1_565
Nb15 O35 2.175962 1_565
Nb16 O41 1.893881 1_555
Nb16 O39 1.905718 1_555
Nb16 O44 1.906799 1_555
Nb16 O37 2.174039 1_555
Nb16 O34 2.174864 1_555
Nb16 O38 2.180057 1_555
Nb17 O11 1.900892 1_554
Nb17 O50 1.909426 1_555
Nb17 O13 1.909661 1_554
Nb17 O8 2.168822 1_554
Nb17 O47 2.169649 1_555
Nb17 O49 2.176005 1_555
