# generated using pymatgen
data_Cd(InS2)2
_symmetry_space_group_name_H-M   'P 1'
_cell_length_a   7.72593262
_cell_length_b   7.72593262
_cell_length_c   7.72593262
_cell_angle_alpha   60.00000000
_cell_angle_beta   60.00000000
_cell_angle_gamma   60.00000000
_symmetry_Int_Tables_number   1
_chemical_formula_structural   Cd(InS2)2
_chemical_formula_sum   'Cd2 In4 S8'
_cell_volume   326.09020339
_cell_formula_units_Z   2
loop_
 _symmetry_equiv_pos_site_id
 _symmetry_equiv_pos_as_xyz
  1  'x, y, z'
loop_
 _atom_site_type_symbol
 _atom_site_label
 _atom_site_symmetry_multiplicity
 _atom_site_fract_x
 _atom_site_fract_y
 _atom_site_fract_z
 _atom_site_occupancy
  Cd  Cd0  1  0.50000000  0.50000000  0.50000000  1
  Cd  Cd1  1  0.75000000  0.75000000  0.75000000  1
  In  In0  1  0.12500000  0.12500000  0.62500000  1
  In  In1  1  0.12500000  0.12500000  0.12500000  1
  In  In2  1  0.12500000  0.62500000  0.12500000  1
  In  In3  1  0.62500000  0.12500000  0.12500000  1
  S  S0  1  0.88462103  0.88462103  0.34613692  1
  S  S1  1  0.34613692  0.88462103  0.88462103  1
  S  S2  1  0.88462103  0.34613692  0.88462103  1
  S  S3  1  0.36537897  0.36537897  0.36537897  1
  S  S4  1  0.88462103  0.88462103  0.88462103  1
  S  S5  1  0.90386308  0.36537897  0.36537897  1
  S  S6  1  0.36537897  0.90386308  0.36537897  1
  S  S7  1  0.36537897  0.36537897  0.90386308  1
loop_
_geom_bond_atom_site_label_1
_geom_bond_atom_site_label_2
_geom_bond_distance
_geom_bond_site_symmetry_2
Cd0 S5 2.547648 1_555
Cd0 S7 2.547648 1_555
Cd0 S6 2.547648 1_555
Cd0 S3 2.547648 1_555
Cd1 S2 2.547648 1_555
Cd1 S1 2.547648 1_555
Cd1 S0 2.547648 1_555
Cd1 S4 2.547648 1_555
In0 S4 2.630613 1_445
In0 S3 2.630613 1_555
In0 S6 2.630613 1_545
In0 S5 2.630613 1_455
In0 S1 2.630613 1_545
In0 S2 2.630613 1_455
In1 S2 2.630613 1_454
In1 S1 2.630613 1_544
In1 S0 2.630613 1_445
In1 S7 2.630613 1_554
In1 S6 2.630613 1_545
In1 S5 2.630613 1_455
In2 S4 2.630613 1_454
In2 S3 2.630613 1_555
In2 S7 2.630613 1_554
In2 S5 2.630613 1_455
In2 S0 2.630613 1_455
In2 S1 2.630613 1_554
In3 S4 2.630613 1_544
In3 S3 2.630613 1_555
In3 S7 2.630613 1_554
In3 S6 2.630613 1_545
In3 S2 2.630613 1_554
In3 S0 2.630613 1_545
