# generated using pymatgen
data_Sr4Al14O25
_symmetry_space_group_name_H-M   'P 1'
_cell_length_a   4.88226272
_cell_length_b   8.48064830
_cell_length_c   24.76965040
_cell_angle_alpha   90.00000000
_cell_angle_beta   90.00000000
_cell_angle_gamma   90.00000000
_symmetry_Int_Tables_number   1
_chemical_formula_structural   Sr4Al14O25
_chemical_formula_sum   'Sr8 Al28 O50'
_cell_volume   1025.58125761
_cell_formula_units_Z   2
loop_
 _symmetry_equiv_pos_site_id
 _symmetry_equiv_pos_as_xyz
  1  'x, y, z'
loop_
 _atom_site_type_symbol
 _atom_site_label
 _atom_site_symmetry_multiplicity
 _atom_site_fract_x
 _atom_site_fract_y
 _atom_site_fract_z
 _atom_site_occupancy
  Sr  Sr0  1  0.11115595  0.00000000  0.62064294  1
  Sr  Sr1  1  0.11115595  0.00000000  0.87935706  1
  Sr  Sr2  1  0.88884405  0.00000000  0.37935706  1
  Sr  Sr3  1  0.88884405  0.00000000  0.12064294  1
  Sr  Sr4  1  0.03600047  0.50000000  0.63808357  1
  Sr  Sr5  1  0.03600047  0.50000000  0.86191643  1
  Sr  Sr6  1  0.96399953  0.50000000  0.36191643  1
  Sr  Sr7  1  0.96399953  0.50000000  0.13808357  1
  Al  Al0  1  -0.00000000  0.50000000  0.50000000  1
  Al  Al1  1  -0.00000000  0.50000000  -0.00000000  1
  Al  Al2  1  0.50000000  0.00000000  0.50000000  1
  Al  Al3  1  0.50000000  0.00000000  -0.00000000  1
  Al  Al4  1  -0.00000000  0.83228503  0.50000000  1
  Al  Al5  1  -0.00000000  0.16771497  0.00000000  1
  Al  Al6  1  -0.00000000  0.16771497  0.50000000  1
  Al  Al7  1  -0.00000000  0.83228503  -0.00000000  1
  Al  Al8  1  0.12984354  0.29630101  0.75000000  1
  Al  Al9  1  0.12984354  0.70369899  0.75000000  1
  Al  Al10  1  0.87015646  0.29630101  0.25000000  1
  Al  Al11  1  0.87015646  0.70369899  0.25000000  1
  Al  Al12  1  0.49315603  0.67798623  0.43384276  1
  Al  Al13  1  0.49315603  0.32201377  0.06615724  1
  Al  Al14  1  0.50684397  0.67798623  0.56615724  1
  Al  Al15  1  0.50684397  0.32201377  0.93384276  1
  Al  Al16  1  0.50684397  0.32201377  0.56615724  1
  Al  Al17  1  0.50684397  0.67798623  0.93384276  1
  Al  Al18  1  0.49315603  0.32201377  0.43384276  1
  Al  Al19  1  0.49315603  0.67798623  0.06615724  1
  Al  Al20  1  0.37432881  0.80519249  0.31446203  1
  Al  Al21  1  0.37432881  0.19480751  0.18553797  1
  Al  Al22  1  0.62567119  0.80519249  0.68553797  1
  Al  Al23  1  0.62567119  0.19480751  0.81446203  1
  Al  Al24  1  0.62567119  0.19480751  0.68553797  1
  Al  Al25  1  0.62567119  0.80519249  0.81446203  1
  Al  Al26  1  0.37432881  0.19480751  0.31446203  1
  Al  Al27  1  0.37432881  0.80519249  0.18553797  1
  O  O0  1  0.11050176  0.50000000  0.75000000  1
  O  O1  1  0.88949824  0.50000000  0.25000000  1
  O  O2  1  0.15191355  0.66288561  0.45713313  1
  O  O3  1  0.15191355  0.33711439  0.04286687  1
  O  O4  1  0.84808645  0.66288561  0.54286687  1
  O  O5  1  0.84808645  0.33711439  0.95713313  1
  O  O6  1  0.84808645  0.33711439  0.54286687  1
  O  O7  1  0.84808645  0.66288561  0.95713313  1
  O  O8  1  0.15191355  0.33711439  0.45713313  1
  O  O9  1  0.15191355  0.66288561  0.04286687  1
  O  O10  1  0.57759813  0.00000000  0.66601786  1
  O  O11  1  0.57759813  0.00000000  0.83398214  1
  O  O12  1  0.42240187  0.00000000  0.33398214  1
  O  O13  1  0.42240187  0.00000000  0.16601786  1
  O  O14  1  0.32529388  0.50000000  0.54974170  1
  O  O15  1  0.32529388  0.50000000  0.95025830  1
  O  O16  1  0.67470612  0.50000000  0.45025830  1
  O  O17  1  0.67470612  0.50000000  0.04974170  1
  O  O18  1  0.82847052  0.00000000  0.53877549  1
  O  O19  1  0.82847052  0.00000000  0.96122451  1
  O  O20  1  0.17152948  0.00000000  0.46122451  1
  O  O21  1  0.17152948  0.00000000  0.03877549  1
  O  O22  1  0.47614894  0.23205043  0.75000000  1
  O  O23  1  0.47614894  0.76794957  0.75000000  1
  O  O24  1  0.52385106  0.23205043  0.25000000  1
  O  O25  1  0.52385106  0.76794957  0.25000000  1
  O  O26  1  0.02082386  0.77219977  0.30956700  1
  O  O27  1  0.02082386  0.22780023  0.19043300  1
  O  O28  1  0.97917614  0.77219977  0.69043300  1
  O  O29  1  0.97917614  0.22780023  0.80956700  1
  O  O30  1  0.97917614  0.22780023  0.69043300  1
  O  O31  1  0.97917614  0.77219977  0.80956700  1
  O  O32  1  0.02082386  0.22780023  0.30956700  1
  O  O33  1  0.02082386  0.77219977  0.19043300  1
  O  O34  1  0.49930636  0.67711043  0.36314470  1
  O  O35  1  0.49930636  0.32288957  0.13685530  1
  O  O36  1  0.67679839  0.84054179  0.04279209  1
  O  O37  1  0.67679839  0.15945821  0.45720791  1
  O  O38  1  0.32320161  0.84054179  0.95720791  1
  O  O39  1  0.32320161  0.15945821  0.54279209  1
  O  O40  1  0.32320161  0.15945821  0.95720791  1
  O  O41  1  0.32320161  0.84054179  0.54279209  1
  O  O42  1  0.67679839  0.15945821  0.04279209  1
  O  O43  1  0.67679839  0.84054179  0.45720791  1
  O  O44  1  0.49930636  0.67711043  0.13685530  1
  O  O45  1  0.49930636  0.32288957  0.36314470  1
  O  O46  1  0.50069364  0.67711043  0.86314470  1
  O  O47  1  0.50069364  0.32288957  0.63685530  1
  O  O48  1  0.50069364  0.32288957  0.86314470  1
  O  O49  1  0.50069364  0.67711043  0.63685530  1
loop_
_geom_bond_atom_site_label_1
_geom_bond_atom_site_label_2
_geom_bond_distance
_geom_bond_site_symmetry_2
Al0 O6 1.893596 1_455
Al0 O8 1.893596 1_555
Al0 O4 1.893596 1_455
Al0 O2 1.893596 1_555
Al0 O14 2.010054 1_555
Al0 O16 2.010054 1_455
Al1 O9 1.893596 1_555
Al1 O3 1.893596 1_555
Al1 O7 1.893596 1_454
Al1 O5 1.893596 1_454
Al1 O15 2.010054 1_554
Al1 O17 2.010054 1_455
Al2 O18 1.869295 1_555
Al2 O20 1.869295 1_555
Al2 O39 1.922836 1_555
Al2 O41 1.922836 1_545
Al2 O37 1.922836 1_555
Al2 O43 1.922836 1_545
Al3 O21 1.869295 1_555
Al3 O19 1.869295 1_554
Al3 O40 1.922836 1_554
Al3 O38 1.922836 1_544
Al3 O42 1.922836 1_555
Al3 O36 1.922836 1_545
Al4 O41 1.902191 1_555
Al4 O43 1.902191 1_455
Al4 O18 1.909667 1_465
Al4 O20 1.909667 1_565
Al4 O4 1.934263 1_455
Al4 O2 1.934263 1_555
Al5 O40 1.902191 1_554
Al5 O42 1.902191 1_455
Al5 O21 1.909667 1_555
Al5 O19 1.909667 1_454
Al5 O3 1.934263 1_555
Al5 O5 1.934263 1_454
Al6 O39 1.902191 1_555
Al6 O37 1.902191 1_455
Al6 O18 1.909667 1_455
Al6 O20 1.909667 1_555
Al6 O6 1.934263 1_455
Al6 O8 1.934263 1_555
Al7 O38 1.902191 1_554
Al7 O36 1.902191 1_455
Al7 O21 1.909667 1_565
Al7 O19 1.909667 1_464
Al7 O7 1.934263 1_454
Al7 O9 1.934263 1_555
Al8 O0 1.730079 1_555
Al8 O30 1.748013 1_455
Al8 O29 1.748013 1_455
Al8 O22 1.776387 1_555
Al9 O0 1.730079 1_555
Al9 O28 1.748013 1_455
Al9 O31 1.748013 1_455
Al9 O23 1.776387 1_555
Al10 O1 1.730079 1_555
Al10 O32 1.748013 1_655
Al10 O27 1.748013 1_655
Al10 O24 1.776387 1_555
Al11 O1 1.730079 1_555
Al11 O26 1.748013 1_655
Al11 O33 1.748013 1_655
Al11 O25 1.776387 1_555
Al12 O43 1.743357 1_555
Al12 O34 1.751439 1_555
Al12 O2 1.767733 1_555
Al12 O16 1.797052 1_555
Al13 O42 1.743357 1_555
Al13 O35 1.751439 1_555
Al13 O3 1.767733 1_555
Al13 O17 1.797052 1_555
Al14 O41 1.743357 1_555
Al14 O49 1.751439 1_555
Al14 O4 1.767733 1_555
Al14 O14 1.797052 1_555
Al15 O40 1.743357 1_555
Al15 O48 1.751439 1_555
Al15 O5 1.767733 1_555
Al15 O15 1.797052 1_555
Al16 O39 1.743357 1_555
Al16 O47 1.751439 1_555
Al16 O6 1.767733 1_555
Al16 O14 1.797052 1_555
Al17 O38 1.743357 1_555
Al17 O46 1.751439 1_555
Al17 O7 1.767733 1_555
Al17 O15 1.797052 1_555
Al18 O37 1.743357 1_555
Al18 O45 1.751439 1_555
Al18 O8 1.767733 1_555
Al18 O16 1.797052 1_555
Al19 O36 1.743357 1_555
Al19 O44 1.751439 1_555
Al19 O9 1.767733 1_555
Al19 O17 1.797052 1_555
Al20 O34 1.733858 1_555
Al20 O12 1.737320 1_565
Al20 O26 1.752636 1_555
Al20 O25 1.783851 1_555
Al21 O35 1.733858 1_555
Al21 O13 1.737320 1_555
Al21 O27 1.752636 1_555
Al21 O24 1.783851 1_555
Al22 O49 1.733858 1_555
Al22 O10 1.737320 1_565
Al22 O28 1.752636 1_555
Al22 O23 1.783851 1_555
Al23 O48 1.733858 1_555
Al23 O11 1.737320 1_555
Al23 O29 1.752636 1_555
Al23 O22 1.783851 1_555
Al24 O47 1.733858 1_555
Al24 O10 1.737320 1_555
Al24 O30 1.752636 1_555
Al24 O22 1.783851 1_555
Al25 O46 1.733858 1_555
Al25 O11 1.737320 1_565
Al25 O31 1.752636 1_555
Al25 O23 1.783851 1_555
Al26 O45 1.733858 1_555
Al26 O12 1.737320 1_555
Al26 O32 1.752636 1_555
Al26 O24 1.783851 1_555
Al27 O44 1.733858 1_555
Al27 O13 1.737320 1_565
Al27 O33 1.752636 1_555
Al27 O25 1.783851 1_555
O0 Sr4 2.795892 1_555
O0 Sr5 2.795892 1_555
O1 Sr7 2.795892 1_555
O1 Sr6 2.795892 1_555
O2 Sr6 2.883115 1_455
O3 Sr7 2.883115 1_455
O4 Sr4 2.883115 1_655
O5 Sr5 2.883115 1_655
O6 Sr4 2.883115 1_655
O7 Sr5 2.883115 1_655
O8 Sr6 2.883115 1_455
O9 Sr7 2.883115 1_455
O10 Sr0 2.539540 1_555
O10 Sr0 2.837087 1_655
O11 Sr1 2.539540 1_555
O11 Sr1 2.837087 1_655
O12 Sr2 2.539540 1_555
O12 Sr2 2.837087 1_455
O13 Sr3 2.539540 1_555
O13 Sr3 2.837087 1_455
O14 Sr4 2.604438 1_555
O15 Sr5 2.604438 1_555
O16 Sr6 2.604438 1_555
O17 Sr7 2.604438 1_555
O18 Sr0 2.452934 1_655
O19 Sr1 2.452934 1_655
O20 Sr2 2.452934 1_455
O21 Sr3 2.452934 1_455
O26 Sr6 2.662178 1_455
O26 Sr2 2.671279 1_465
O27 Sr7 2.662178 1_455
O27 Sr3 2.671279 1_455
O28 Sr4 2.662178 1_655
O28 Sr0 2.671279 1_665
O29 Sr5 2.662178 1_655
O29 Sr1 2.671279 1_655
O30 Sr4 2.662178 1_655
O30 Sr0 2.671279 1_655
O31 Sr5 2.662178 1_655
O31 Sr1 2.671279 1_665
O32 Sr6 2.662178 1_455
O32 Sr2 2.671279 1_455
O33 Sr7 2.662178 1_455
O33 Sr3 2.671279 1_465
O34 Sr6 2.721068 1_555
O34 Sr6 3.014530 1_455
O35 Sr7 2.721068 1_555
O35 Sr7 3.014530 1_455
O36 Sr3 2.572741 1_565
O37 Sr2 2.572741 1_555
O38 Sr1 2.572741 1_565
O39 Sr0 2.572741 1_555
O40 Sr1 2.572741 1_555
O41 Sr0 2.572741 1_565
O42 Sr3 2.572741 1_555
O43 Sr2 2.572741 1_565
O44 Sr7 2.721068 1_555
O44 Sr7 3.014530 1_455
O45 Sr6 2.721068 1_555
O45 Sr6 3.014530 1_455
O46 Sr5 2.721068 1_555
O46 Sr5 3.014530 1_655
O47 Sr4 2.721068 1_555
O47 Sr4 3.014530 1_655
O48 Sr5 2.721068 1_555
O48 Sr5 3.014530 1_655
O49 Sr4 2.721068 1_555
O49 Sr4 3.014530 1_655
