# generated using pymatgen
data_Na3Ce(PO4)2
_symmetry_space_group_name_H-M   'P 1'
_cell_length_a   5.40932500
_cell_length_b   14.18686300
_cell_length_c   18.85947900
_cell_angle_alpha   90.00000000
_cell_angle_beta   90.00000000
_cell_angle_gamma   90.00000000
_symmetry_Int_Tables_number   1
_chemical_formula_structural   Na3Ce(PO4)2
_chemical_formula_sum   'Na24 Ce8 P16 O64'
_cell_volume   1447.30192963
_cell_formula_units_Z   8
loop_
 _symmetry_equiv_pos_site_id
 _symmetry_equiv_pos_as_xyz
  1  'x, y, z'
loop_
 _atom_site_type_symbol
 _atom_site_label
 _atom_site_symmetry_multiplicity
 _atom_site_fract_x
 _atom_site_fract_y
 _atom_site_fract_z
 _atom_site_occupancy
  Na  Na0  1  0.99833600  0.95326000  0.42662000  1
  Na  Na1  1  0.49872900  0.61551800  0.02629700  1
  Na  Na2  1  0.00871300  0.72009300  0.08357100  1
  Na  Na3  1  0.50127100  0.38448200  0.52629700  1
  Na  Na4  1  0.47120600  0.47095300  0.18746200  1
  Na  Na5  1  0.00871300  0.77990700  0.58357100  1
  Na  Na6  1  0.99128700  0.22009300  0.08357100  1
  Na  Na7  1  0.99128700  0.27990700  0.58357100  1
  Na  Na8  1  0.48186500  0.79635600  0.34592800  1
  Na  Na9  1  0.00166400  0.45326000  0.42662000  1
  Na  Na10  1  0.98794100  0.63543800  0.74774200  1
  Na  Na11  1  0.50127100  0.11551800  0.02629700  1
  Na  Na12  1  0.01205900  0.13543800  0.74774200  1
  Na  Na13  1  0.99833600  0.54674000  0.92662000  1
  Na  Na14  1  0.47120600  0.02904700  0.68746200  1
  Na  Na15  1  0.52879400  0.52904700  0.68746200  1
  Na  Na16  1  0.51813500  0.20364400  0.84592800  1
  Na  Na17  1  0.51813500  0.29635600  0.34592800  1
  Na  Na18  1  0.01205900  0.36456200  0.24774200  1
  Na  Na19  1  0.98794100  0.86456200  0.24774200  1
  Na  Na20  1  0.52879400  0.97095300  0.18746200  1
  Na  Na21  1  0.49872900  0.88448200  0.52629700  1
  Na  Na22  1  0.48186500  0.70364400  0.84592800  1
  Na  Na23  1  0.00166400  0.04674000  0.92662000  1
  Ce  Ce0  1  0.93963100  0.88556100  0.77358500  1
  Ce  Ce1  1  0.46070200  0.36500400  0.00030900  1
  Ce  Ce2  1  0.53929800  0.86500400  0.00030900  1
  Ce  Ce3  1  0.53929800  0.63499600  0.50030900  1
  Ce  Ce4  1  0.06036900  0.11443900  0.27358500  1
  Ce  Ce5  1  0.93963100  0.61443900  0.27358500  1
  Ce  Ce6  1  0.06036900  0.38556100  0.77358500  1
  Ce  Ce7  1  0.46070200  0.13499600  0.50030900  1
  P  P0  1  0.02096100  0.97913000  0.09470800  1
  P  P1  1  0.46206500  0.73016500  0.17898800  1
  P  P2  1  0.53793500  0.26983500  0.67898800  1
  P  P3  1  0.97903900  0.02087000  0.59470800  1
  P  P4  1  0.00418400  0.77063800  0.92236700  1
  P  P5  1  0.99581600  0.22936200  0.42236700  1
  P  P6  1  0.47695400  0.98009800  0.85111100  1
  P  P7  1  0.53793500  0.23016500  0.17898800  1
  P  P8  1  0.97903900  0.47913000  0.09470800  1
  P  P9  1  0.46206500  0.76983500  0.67898800  1
  P  P10  1  0.99581600  0.27063800  0.92236700  1
  P  P11  1  0.52304600  0.01990200  0.35111100  1
  P  P12  1  0.52304600  0.48009800  0.85111100  1
  P  P13  1  0.00418400  0.72936200  0.42236700  1
  P  P14  1  0.47695400  0.51990200  0.35111100  1
  P  P15  1  0.02096100  0.52087000  0.59470800  1
  O  O0  1  0.53237900  0.24809000  0.59785400  1
  O  O1  1  0.60493800  0.86416100  0.69107900  1
  O  O2  1  0.96976900  0.87930300  0.92279000  1
  O  O3  1  0.99890400  0.76409600  0.34411600  1
  O  O4  1  0.01025200  0.00010000  0.67552500  1
  O  O5  1  0.52546800  0.98654600  0.42985400  1
  O  O6  1  0.11673600  0.38447000  0.07934700  1
  O  O7  1  0.69745900  0.47238800  0.31164600  1
  O  O8  1  0.74797900  0.24129700  0.95745100  1
  O  O9  1  0.98974800  0.99990000  0.17552500  1
  O  O10  1  0.69687900  0.03245100  0.57739500  1
  O  O11  1  0.47453200  0.48654600  0.42985400  1
  O  O12  1  0.00109600  0.23590400  0.84411600  1
  O  O13  1  0.88326400  0.61553000  0.57934700  1
  O  O14  1  0.03023100  0.37930300  0.92279000  1
  O  O15  1  0.81701600  0.21750800  0.20019500  1
  O  O16  1  0.09107300  0.55889200  0.04913500  1
  O  O17  1  0.78681700  0.72431900  0.96413500  1
  O  O18  1  0.23161900  0.49105100  0.31447100  1
  O  O19  1  0.25202100  0.74129700  0.95745100  1
  O  O20  1  0.21318300  0.22431900  0.96413500  1
  O  O21  1  0.18298400  0.78249200  0.70019500  1
  O  O22  1  0.46762100  0.74809000  0.59785400  1
  O  O23  1  0.78681700  0.77568100  0.46413500  1
  O  O24  1  0.18298400  0.71750800  0.20019500  1
  O  O25  1  0.48696900  0.37147400  0.84952900  1
  O  O26  1  0.74797900  0.25870300  0.45745100  1
  O  O27  1  0.23161900  0.00894900  0.81447100  1
  O  O28  1  0.60493800  0.63583900  0.19107900  1
  O  O29  1  0.42191600  0.19049900  0.72379100  1
  O  O30  1  0.30312100  0.53245100  0.57739500  1
  O  O31  1  0.69745900  0.02761200  0.81164600  1
  O  O32  1  0.69687900  0.46754900  0.07739500  1
  O  O33  1  0.99890400  0.73590400  0.84411600  1
  O  O34  1  0.01025200  0.49990000  0.17552500  1
  O  O35  1  0.88326400  0.88447000  0.07934700  1
  O  O36  1  0.25202100  0.75870300  0.45745100  1
  O  O37  1  0.51303100  0.87147400  0.84952900  1
  O  O38  1  0.57808400  0.69050000  0.72379100  1
  O  O39  1  0.21318300  0.27568100  0.46413500  1
  O  O40  1  0.42191600  0.30950100  0.22379100  1
  O  O41  1  0.00109600  0.26409600  0.34411600  1
  O  O42  1  0.96976900  0.62069700  0.42279000  1
  O  O43  1  0.30312100  0.96754900  0.07739500  1
  O  O44  1  0.47453200  0.01345400  0.92985400  1
  O  O45  1  0.48696900  0.12852600  0.34952900  1
  O  O46  1  0.90892700  0.05889200  0.04913500  1
  O  O47  1  0.51303100  0.62852600  0.34952900  1
  O  O48  1  0.46762100  0.75191000  0.09785400  1
  O  O49  1  0.52546800  0.51345400  0.92985400  1
  O  O50  1  0.09107300  0.94110800  0.54913500  1
  O  O51  1  0.30254100  0.52761200  0.81164600  1
  O  O52  1  0.53237900  0.25191000  0.09785400  1
  O  O53  1  0.39506200  0.13583900  0.19107900  1
  O  O54  1  0.03023100  0.12069700  0.42279000  1
  O  O55  1  0.39506200  0.36416100  0.69107900  1
  O  O56  1  0.81701600  0.28249200  0.70019500  1
  O  O57  1  0.90892700  0.44110800  0.54913500  1
  O  O58  1  0.57808400  0.80950000  0.22379100  1
  O  O59  1  0.76838100  0.50894900  0.81447100  1
  O  O60  1  0.30254100  0.97238800  0.31164600  1
  O  O61  1  0.98974800  0.50010000  0.67552500  1
  O  O62  1  0.76838100  0.99105100  0.31447100  1
  O  O63  1  0.11673600  0.11553000  0.57934700  1
loop_
_geom_bond_atom_site_label_1
_geom_bond_atom_site_label_2
_geom_bond_distance
_geom_bond_site_symmetry_2
Na0 O50 2.370675 1_655
Na0 O54 2.382758 1_665
Na0 O62 2.511625 1_555
Na0 O5 2.601836 1_555
Na0 O60 2.735543 1_655
Na0 O23 2.855964 1_555
Na0 O5 2.890910 1_655
Na1 O49 2.329335 1_554
Na1 O48 2.365094 1_555
Na1 O16 2.386113 1_555
Na1 O17 2.487048 1_554
Na1 O32 2.546423 1_555
Na1 O19 2.578936 1_554
Na2 O24 2.393254 1_555
Na2 O16 2.418747 1_555
Na2 O35 2.430027 1_455
Na2 O48 2.537426 1_555
Na2 O17 2.553055 1_454
Na2 O19 2.735001 1_554
Na2 O48 2.973769 1_455
Na3 O11 2.329335 1_555
Na3 O0 2.365094 1_555
Na3 O57 2.386113 1_555
Na3 O39 2.487048 1_555
Na3 O30 2.546423 1_555
Na3 O26 2.578936 1_555
Na4 O40 2.405596 1_555
Na4 O32 2.408632 1_555
Na4 O28 2.449467 1_555
Na4 O34 2.537050 1_555
Na4 O7 2.642625 1_555
Na4 O18 2.738339 1_555
Na5 O21 2.393254 1_555
Na5 O50 2.418747 1_555
Na5 O13 2.430027 1_455
Na5 O22 2.537426 1_555
Na5 O23 2.553055 1_455
Na5 O36 2.735001 1_555
Na5 O22 2.973769 1_455
Na6 O15 2.393254 1_555
Na6 O46 2.418747 1_555
Na6 O6 2.430027 1_655
Na6 O52 2.537426 1_555
Na6 O20 2.553055 1_654
Na6 O8 2.735001 1_554
Na6 O52 2.973769 1_655
Na7 O56 2.393254 1_555
Na7 O57 2.418747 1_555
Na7 O63 2.430027 1_655
Na7 O0 2.537426 1_555
Na7 O39 2.553055 1_655
Na7 O26 2.735001 1_555
Na7 O0 2.973769 1_655
Na8 O58 2.368862 1_555
Na8 O47 2.387908 1_555
Na8 O36 2.500974 1_555
Na8 O3 2.652498 1_455
Na8 O60 2.756025 1_555
Na8 O23 2.788735 1_555
Na8 O3 2.834237 1_555
Na9 O57 2.370675 1_455
Na9 O42 2.382758 1_455
Na9 O18 2.511625 1_555
Na9 O11 2.601836 1_555
Na9 O7 2.735543 1_455
Na9 O39 2.855964 1_555
Na9 O11 2.890910 1_455
Na10 O33 2.310525 1_555
Na10 O61 2.354051 1_555
Na10 O38 2.393648 1_555
Na10 O59 2.492887 1_555
Na10 O21 2.503917 1_655
Na10 O51 2.586224 1_655
Na11 O44 2.329335 1_554
Na11 O52 2.365094 1_555
Na11 O46 2.386113 1_555
Na11 O20 2.487048 1_554
Na11 O43 2.546423 1_545
Na11 O8 2.578936 1_554
Na12 O12 2.310525 1_555
Na12 O4 2.354051 1_555
Na12 O29 2.393644 1_555
Na12 O27 2.492887 1_555
Na12 O56 2.503917 1_455
Na12 O31 2.586224 1_455
Na13 O16 2.370675 1_656
Na13 O14 2.382758 1_655
Na13 O59 2.511625 1_555
Na13 O49 2.601836 1_555
Na13 O51 2.735543 1_655
Na13 O17 2.855964 1_555
Na13 O49 2.890910 1_655
Na14 O29 2.405596 1_555
Na14 O10 2.408632 1_555
Na14 O1 2.449467 1_545
Na14 O4 2.537050 1_555
Na14 O31 2.642625 1_555
Na14 O27 2.738339 1_555
Na15 O38 2.405610 1_555
Na15 O30 2.408632 1_555
Na15 O55 2.449467 1_555
Na15 O61 2.537050 1_555
Na15 O51 2.642625 1_555
Na15 O59 2.738339 1_555
Na16 O29 2.368863 1_555
Na16 O25 2.387908 1_555
Na16 O8 2.500974 1_555
Na16 O12 2.652498 1_655
Na16 O31 2.756025 1_555
Na16 O20 2.788735 1_555
Na16 O12 2.834237 1_555
Na17 O40 2.368863 1_555
Na17 O45 2.387908 1_555
Na17 O26 2.500974 1_555
Na17 O41 2.652498 1_655
Na17 O7 2.756025 1_555
Na17 O39 2.788735 1_555
Na17 O41 2.834237 1_555
Na18 O41 2.310525 1_555
Na18 O34 2.354051 1_555
Na18 O40 2.393644 1_555
Na18 O18 2.492887 1_555
Na18 O15 2.503917 1_455
Na18 O7 2.586224 1_455
Na19 O3 2.310525 1_555
Na19 O9 2.354051 1_555
Na19 O58 2.393648 1_555
Na19 O62 2.492887 1_555
Na19 O24 2.503917 1_655
Na19 O60 2.586224 1_655
Na20 O58 2.405610 1_555
Na20 O43 2.408632 1_555
Na20 O53 2.449467 1_565
Na20 O9 2.537050 1_555
Na20 O60 2.642625 1_555
Na20 O62 2.738339 1_555
Na21 O5 2.329335 1_555
Na21 O22 2.365094 1_555
Na21 O50 2.386113 1_555
Na21 O23 2.487048 1_555
Na21 O10 2.546423 1_565
Na21 O36 2.578936 1_555
Na22 O38 2.368862 1_555
Na22 O37 2.387908 1_555
Na22 O19 2.500974 1_555
Na22 O33 2.652498 1_455
Na22 O51 2.756025 1_555
Na22 O17 2.788735 1_555
Na22 O33 2.834237 1_555
Na23 O46 2.370675 1_456
Na23 O2 2.382758 1_445
Na23 O27 2.511625 1_555
Na23 O44 2.601836 1_555
Na23 O31 2.735543 1_455
Na23 O20 2.855964 1_555
Na23 O44 2.890910 1_455
Ce0 O21 2.405551 1_655
Ce0 O1 2.406480 1_555
Ce0 O27 2.480620 1_665
Ce0 O4 2.491290 1_665
Ce0 O31 2.508502 1_565
Ce0 O33 2.525866 1_555
Ce0 O37 2.723311 1_555
Ce0 O2 2.820045 1_555
Ce1 O6 2.400025 1_555
Ce1 O32 2.421180 1_555
Ce1 O52 2.471617 1_555
Ce1 O8 2.479562 1_554
Ce1 O20 2.498328 1_554
Ce1 O49 2.514698 1_554
Ce1 O14 2.756933 1_554
Ce1 O25 2.848659 1_554
Ce2 O35 2.400025 1_555
Ce2 O43 2.421180 1_555
Ce2 O48 2.471617 1_555
Ce2 O19 2.479562 1_554
Ce2 O17 2.498328 1_554
Ce2 O44 2.514698 1_564
Ce2 O2 2.756933 1_554
Ce2 O37 2.848659 1_554
Ce3 O13 2.400025 1_555
Ce3 O30 2.421180 1_555
Ce3 O22 2.471617 1_555
Ce3 O36 2.479562 1_555
Ce3 O23 2.498328 1_555
Ce3 O11 2.514698 1_555
Ce3 O42 2.756933 1_555
Ce3 O47 2.848659 1_555
Ce4 O15 2.405551 1_455
Ce4 O53 2.406480 1_555
Ce4 O62 2.480620 1_445
Ce4 O9 2.491290 1_445
Ce4 O60 2.508502 1_545
Ce4 O41 2.525866 1_555
Ce4 O45 2.723311 1_555
Ce4 O54 2.820045 1_555
Ce5 O24 2.405551 1_655
Ce5 O28 2.406480 1_555
Ce5 O18 2.480620 1_655
Ce5 O34 2.491290 1_655
Ce5 O7 2.508502 1_555
Ce5 O3 2.525866 1_555
Ce5 O47 2.723311 1_555
Ce5 O42 2.820045 1_555
Ce6 O56 2.405551 1_455
Ce6 O55 2.406480 1_555
Ce6 O59 2.480620 1_455
Ce6 O61 2.491290 1_455
Ce6 O51 2.508502 1_555
Ce6 O12 2.525866 1_555
Ce6 O25 2.723311 1_555
Ce6 O14 2.820045 1_555
Ce7 O63 2.400025 1_555
Ce7 O10 2.421180 1_555
Ce7 O0 2.471617 1_555
Ce7 O26 2.479562 1_555
Ce7 O39 2.498328 1_555
Ce7 O5 2.514698 1_545
Ce7 O54 2.756933 1_555
Ce7 O45 2.848659 1_555
O0 P2 1.561222 1_555
O1 P9 1.562063 1_555
O2 P4 1.552836 1_655
O3 P13 1.556130 1_655
O4 P3 1.561543 1_455
O5 P11 1.558681 1_565
O6 P8 1.562748 1_455
O7 P14 1.559190 1_555
O8 P10 1.551890 1_555
O9 P0 1.561543 1_655
O10 P3 1.569453 1_555
O11 P14 1.558681 1_555
O12 P10 1.556130 1_455
O13 P15 1.562748 1_655
O14 P10 1.552836 1_455
O15 P7 1.572011 1_555
O16 P8 1.544810 1_455
O17 P4 1.560398 1_655
O18 P14 1.551197 1_555
O19 P4 1.551890 1_555
O20 P10 1.560398 1_455
O21 P9 1.572011 1_555
O22 P9 1.561222 1_555
O23 P13 1.560398 1_655
O24 P1 1.572011 1_555
O25 P12 1.553628 1_555
O26 P5 1.551890 1_555
O27 P6 1.551197 1_545
O28 P1 1.562063 1_555
O29 P2 1.540986 1_555
O30 P15 1.569453 1_555
O31 P6 1.559190 1_545
O32 P8 1.569453 1_555
O33 P4 1.556130 1_655
O34 P8 1.561543 1_455
O35 P0 1.562748 1_655
O36 P13 1.551890 1_555
O37 P6 1.553628 1_555
O38 P9 1.540975 1_555
O39 P5 1.560398 1_455
O40 P7 1.540986 1_555
O41 P5 1.556130 1_455
O42 P13 1.552836 1_655
O43 P0 1.569453 1_555
O44 P6 1.558681 1_545
O45 P11 1.553628 1_555
O46 P0 1.544810 1_645
O47 P14 1.553628 1_555
O48 P1 1.561222 1_555
O49 P12 1.558681 1_555
O50 P3 1.544810 1_465
O51 P12 1.559190 1_555
O52 P7 1.561222 1_555
O53 P7 1.562063 1_555
O54 P5 1.552836 1_455
O55 P2 1.562063 1_555
O56 P2 1.572011 1_555
O57 P15 1.544810 1_655
O58 P1 1.540975 1_555
O59 P12 1.551197 1_555
O60 P11 1.559190 1_565
O61 P15 1.561543 1_655
O62 P11 1.551197 1_565
O63 P3 1.562748 1_455
