# generated using pymatgen
data_Zr3(Al2C3)2
_symmetry_space_group_name_H-M   'P 1'
_cell_length_a   16.54893879
_cell_length_b   16.54893879
_cell_length_c   16.54893882
_cell_angle_alpha   11.64260810
_cell_angle_beta   11.64260810
_cell_angle_gamma   11.64260683
_symmetry_Int_Tables_number   1
_chemical_formula_structural   Zr3(Al2C3)2
_chemical_formula_sum   'Zr3 Al4 C6'
_cell_volume   160.39926388
_cell_formula_units_Z   1
loop_
 _symmetry_equiv_pos_site_id
 _symmetry_equiv_pos_as_xyz
  1  'x, y, z'
loop_
 _atom_site_type_symbol
 _atom_site_label
 _atom_site_symmetry_multiplicity
 _atom_site_fract_x
 _atom_site_fract_y
 _atom_site_fract_z
 _atom_site_occupancy
  Zr  Zr0  1  0.50000000  0.50000000  0.50000000  1
  Zr  Zr1  1  0.11173000  0.11173000  0.11173000  1
  Zr  Zr2  1  0.88827000  0.88827000  0.88827000  1
  Al  Al0  1  0.64755900  0.64755900  0.64755900  1
  Al  Al1  1  0.73149000  0.73149000  0.73149000  1
  Al  Al2  1  0.26851000  0.26851000  0.26851000  1
  Al  Al3  1  0.35244100  0.35244100  0.35244100  1
  C  C0  1  0.69186500  0.69186500  0.69186500  1
  C  C1  1  0.58371800  0.58371800  0.58371800  1
  C  C2  1  0.30813500  0.30813500  0.30813500  1
  C  C3  1  0.19451400  0.19451400  0.19451400  1
  C  C4  1  0.41628200  0.41628200  0.41628200  1
  C  C5  1  0.80548600  0.80548600  0.80548600  1
loop_
_geom_bond_atom_site_label_1
_geom_bond_atom_site_label_2
_geom_bond_distance
_geom_bond_site_symmetry_2
Al0 C2 1.961287 1_655
Al0 C2 1.961287 1_565
Al0 C2 1.961287 1_556
Al0 C0 2.184514 1_555
Al1 C0 1.953717 1_555
Al1 C4 2.134272 1_655
Al1 C4 2.134272 1_565
Al1 C4 2.134272 1_556
Al2 C2 1.953717 1_555
Al2 C1 2.134272 1_455
Al2 C1 2.134272 1_545
Al2 C1 2.134272 1_554
Al3 C0 1.961287 1_455
Al3 C0 1.961287 1_545
Al3 C0 1.961287 1_554
Al3 C2 2.184514 1_555
C1 Zr2 2.402128 1_545
C1 Zr2 2.402128 1_455
C1 Zr2 2.402128 1_554
C3 Zr2 2.353807 1_454
C3 Zr2 2.353807 1_544
C3 Zr2 2.353808 1_445
C3 Zr0 2.375214 1_455
C3 Zr0 2.375214 1_545
C3 Zr0 2.375214 1_554
C4 Zr1 2.402128 1_565
C4 Zr1 2.402128 1_655
C4 Zr1 2.402128 1_556
C5 Zr1 2.353807 1_656
C5 Zr1 2.353807 1_566
C5 Zr1 2.353808 1_665
C5 Zr0 2.375214 1_655
C5 Zr0 2.375214 1_565
C5 Zr0 2.375214 1_556
