# generated using pymatgen
data_Lu7Sb3
_symmetry_space_group_name_H-M   'P 1'
_cell_length_a   8.77024419
_cell_length_b   11.92971772
_cell_length_c   11.92992164
_cell_angle_alpha   82.24026272
_cell_angle_beta   68.44044035
_cell_angle_gamma   68.43951543
_symmetry_Int_Tables_number   1
_chemical_formula_structural   Lu7Sb3
_chemical_formula_sum   'Lu28 Sb12'
_cell_volume   1079.63329897
_cell_formula_units_Z   4
loop_
 _symmetry_equiv_pos_site_id
 _symmetry_equiv_pos_as_xyz
  1  'x, y, z'
loop_
 _atom_site_type_symbol
 _atom_site_label
 _atom_site_symmetry_multiplicity
 _atom_site_fract_x
 _atom_site_fract_y
 _atom_site_fract_z
 _atom_site_occupancy
  Lu  Lu0  1  0.52933069  0.82832485  0.50010660  1
  Lu  Lu1  1  0.75000353  0.99995416  0.00004190  1
  Lu  Lu2  1  0.98251721  0.68136614  0.35320850  1
  Lu  Lu3  1  0.12413062  0.99282054  0.75854604  1
  Lu  Lu4  1  0.14214439  0.82829717  0.50006138  1
  Lu  Lu5  1  0.62415829  0.75850825  0.99281258  1
  Lu  Lu6  1  0.33564115  0.64694074  0.68150124  1
  Lu  Lu7  1  0.48248152  0.35324480  0.68140428  1
  Lu  Lu8  1  0.35786731  0.49993691  0.17167412  1
  Lu  Lu9  1  0.38303317  0.99255801  0.24133446  1
  Lu  Lu10  1  0.97068904  0.49989258  0.17164713  1
  Lu  Lu11  1  0.61696683  0.00744199  0.75866554  1
  Lu  Lu12  1  0.01748279  0.31863386  0.64679150  1
  Lu  Lu13  1  0.11697727  0.75862319  0.00743708  1
  Lu  Lu14  1  0.02931096  0.50010742  0.82835287  1
  Lu  Lu15  1  0.83563420  0.68146487  0.64698012  1
  Lu  Lu16  1  0.85785561  0.17170283  0.49993862  1
  Lu  Lu17  1  0.64213269  0.50006309  0.82832588  1
  Lu  Lu18  1  0.87586938  0.00717946  0.24145396  1
  Lu  Lu19  1  0.24999647  0.00004584  0.99995810  1
  Lu  Lu20  1  0.51751848  0.64675520  0.31859572  1
  Lu  Lu21  1  0.37584171  0.24149175  0.00718742  1
  Lu  Lu22  1  0.47066931  0.17167515  0.49989340  1
  Lu  Lu23  1  0.66435885  0.35305926  0.31849876  1
  Lu  Lu24  1  0.25000147  0.50013223  0.49986581  1
  Lu  Lu25  1  0.88302273  0.24137681  0.99256292  1
  Lu  Lu26  1  0.16436580  0.31853513  0.35301988  1
  Lu  Lu27  1  0.74999853  0.49986777  0.50013419  1
  Sb  Sb0  1  0.55376632  0.19660939  0.19664149  1
  Sb  Sb1  1  0.71997279  0.49993824  0.06015107  1
  Sb  Sb2  1  0.44623368  0.80339061  0.80335851  1
  Sb  Sb3  1  0.28002721  0.50006176  0.93984893  1
  Sb  Sb4  1  0.21997233  0.06015071  0.49992487  1
  Sb  Sb5  1  0.75001542  0.80324616  0.19673612  1
  Sb  Sb6  1  0.78002767  0.93984929  0.50007513  1
  Sb  Sb7  1  0.25000585  0.80301321  0.19695212  1
  Sb  Sb8  1  0.05375221  0.19667715  0.19659117  1
  Sb  Sb9  1  0.74999415  0.19698679  0.80304788  1
  Sb  Sb10  1  0.94624779  0.80332285  0.80340883  1
  Sb  Sb11  1  0.24998458  0.19675384  0.80326388  1
loop_
_geom_bond_atom_site_label_1
_geom_bond_atom_site_label_2
_geom_bond_distance
_geom_bond_site_symmetry_2
Lu0 Sb6 2.958629 1_555
Lu0 Sb4 3.081830 1_565
Lu0 Sb2 3.411583 1_555
Lu0 Sb5 3.413614 1_555
Lu0 Lu27 3.677760 1_555
Lu1 Sb0 3.085224 1_565
Lu1 Sb10 3.085299 1_554
Lu1 Sb5 3.086447 1_555
Lu1 Sb9 3.091346 1_564
Lu2 Sb5 3.105168 1_555
Lu2 Sb7 3.105174 1_655
Lu2 Sb6 3.298457 1_555
Lu2 Lu24 3.392075 1_655
Lu2 Lu27 3.392997 1_555
Lu3 Sb4 2.965130 1_565
Lu3 Sb2 3.076464 1_555
Lu3 Sb10 3.079374 1_455
Lu3 Sb9 3.189983 1_465
Lu3 Sb11 3.190394 1_565
Lu4 Sb6 2.958117 1_455
Lu4 Sb4 3.082518 1_565
Lu4 Sb7 3.410664 1_555
Lu4 Sb10 3.413590 1_455
Lu5 Sb1 2.964544 1_556
Lu5 Sb10 3.076322 1_555
Lu5 Sb2 3.079156 1_555
Lu5 Sb7 3.189993 1_556
Lu5 Sb5 3.190426 1_556
Lu6 Sb2 3.104359 1_555
Lu6 Sb10 3.107763 1_455
Lu6 Sb3 3.297320 1_555
Lu7 Sb9 3.105271 1_555
Lu7 Sb11 3.105286 1_555
Lu7 Sb3 3.297853 1_555
Lu8 Sb1 2.958091 1_555
Lu8 Sb3 3.082311 1_554
Lu8 Sb7 3.410201 1_555
Lu8 Sb0 3.413295 1_555
Lu9 Sb4 2.965503 1_565
Lu9 Sb5 3.076706 1_555
Lu9 Sb7 3.077470 1_555
Lu9 Sb8 3.188705 1_565
Lu9 Sb0 3.192777 1_565
Lu10 Sb1 2.958483 1_555
Lu10 Sb3 3.081577 1_654
Lu10 Sb8 3.411133 1_655
Lu10 Sb5 3.413346 1_555
Lu10 Lu27 3.678187 1_555
Lu11 Sb6 2.965503 1_545
Lu11 Sb11 3.076706 1_555
Lu11 Sb9 3.077470 1_555
Lu11 Sb10 3.188705 1_545
Lu11 Sb2 3.192777 1_545
Lu12 Sb11 3.105168 1_555
Lu12 Sb9 3.105174 1_455
Lu12 Sb4 3.298457 1_555
Lu12 Lu27 3.392075 1_455
Lu12 Lu24 3.392997 1_555
Lu13 Sb3 2.965118 1_554
Lu13 Sb5 3.076531 1_455
Lu13 Sb7 3.077218 1_555
Lu13 Sb2 3.188528 1_554
Lu13 Sb10 3.192512 1_454
Lu14 Sb3 2.958483 1_555
Lu14 Sb1 3.081577 1_456
Lu14 Sb10 3.411133 1_455
Lu14 Sb11 3.413346 1_555
Lu14 Lu24 3.678187 1_555
Lu15 Sb10 3.104305 1_555
Lu15 Sb2 3.107839 1_555
Lu15 Sb6 3.297777 1_555
Lu15 Lu27 3.393237 1_555
Lu15 Lu24 3.395059 1_655
Lu16 Sb4 2.958117 1_655
Lu16 Sb6 3.082518 1_545
Lu16 Sb9 3.410664 1_555
Lu16 Sb8 3.413590 1_655
Lu16 Lu27 3.674294 1_555
Lu17 Sb3 2.958091 1_555
Lu17 Sb1 3.082311 1_556
Lu17 Sb9 3.410201 1_555
Lu17 Sb2 3.413295 1_555
Lu17 Lu27 3.674674 1_555
Lu18 Sb6 2.965130 1_545
Lu18 Sb0 3.076464 1_555
Lu18 Sb8 3.079374 1_655
Lu18 Sb7 3.189983 1_645
Lu18 Sb5 3.190394 1_545
Lu19 Sb2 3.085224 1_545
Lu19 Sb8 3.085299 1_556
Lu19 Sb11 3.086447 1_555
Lu19 Sb7 3.091346 1_546
Lu20 Sb7 3.105271 1_555
Lu20 Sb5 3.105286 1_555
Lu20 Sb1 3.297853 1_555
Lu20 Lu24 3.392148 1_555
Lu20 Lu27 3.393048 1_555
Lu21 Sb3 2.964544 1_554
Lu21 Sb8 3.076322 1_555
Lu21 Sb0 3.079156 1_555
Lu21 Sb9 3.189993 1_554
Lu21 Sb11 3.190426 1_554
Lu22 Sb4 2.958629 1_555
Lu22 Sb6 3.081830 1_545
Lu22 Sb0 3.411583 1_555
Lu22 Sb11 3.413614 1_555
Lu22 Lu24 3.677760 1_555
Lu23 Sb0 3.104359 1_555
Lu23 Sb8 3.107763 1_655
Lu23 Sb1 3.297320 1_555
Lu23 Lu27 3.393323 1_555
Lu23 Lu24 3.395041 1_555
Lu24 Lu7 3.393048 1_555
Lu24 Lu26 3.393237 1_555
Lu24 Lu6 3.393323 1_555
Lu24 Lu4 3.674294 1_555
Lu24 Lu8 3.674674 1_555
Lu25 Sb1 2.965118 1_556
Lu25 Sb11 3.076531 1_655
Lu25 Sb9 3.077218 1_555
Lu25 Sb0 3.188528 1_556
Lu25 Sb8 3.192512 1_656
Lu26 Sb8 3.104305 1_555
Lu26 Sb0 3.107839 1_555
Lu26 Sb4 3.297777 1_555
Lu26 Lu27 3.395059 1_455
Lu27 Lu7 3.392148 1_555
Lu27 Lu6 3.395041 1_555
