# generated using pymatgen
data_YP5O14
_symmetry_space_group_name_H-M   'P 1'
_cell_length_a   9.06912392
_cell_length_b   9.06912392
_cell_length_c   12.41792926
_cell_angle_alpha   89.09205429
_cell_angle_beta   89.09205429
_cell_angle_gamma   89.57455625
_symmetry_Int_Tables_number   1
_chemical_formula_structural   YP5O14
_chemical_formula_sum   'Y4 P20 O56'
_cell_volume   1021.07962026
_cell_formula_units_Z   4
loop_
 _symmetry_equiv_pos_site_id
 _symmetry_equiv_pos_as_xyz
  1  'x, y, z'
loop_
 _atom_site_type_symbol
 _atom_site_label
 _atom_site_symmetry_multiplicity
 _atom_site_fract_x
 _atom_site_fract_y
 _atom_site_fract_z
 _atom_site_occupancy
  Y  Y0  1  0.03161662  0.96838338  0.25000000  1
  Y  Y1  1  0.52081859  0.47918141  0.75000000  1
  Y  Y2  1  0.96838338  0.03161662  0.75000000  1
  Y  Y3  1  0.47918141  0.52081859  0.25000000  1
  P  P0  1  0.68167117  0.95457120  0.39104463  1
  P  P1  1  0.57114207  0.07329379  0.75965663  1
  P  P2  1  0.31954662  0.38693783  -0.00130435  1
  P  P3  1  0.87367121  0.17630130  0.46692891  1
  P  P4  1  0.12632879  0.82369870  0.53307109  1
  P  P5  1  0.61306217  0.68045338  0.50130435  1
  P  P6  1  0.95457120  0.68167117  0.89104463  1
  P  P7  1  0.92670621  0.42885793  0.74034337  1
  P  P8  1  0.42885793  0.92670621  0.24034337  1
  P  P9  1  0.82369870  0.12632879  0.03307109  1
  P  P10  1  0.31832883  0.04542880  0.60895537  1
  P  P11  1  0.51915448  0.18281761  0.10286837  1
  P  P12  1  0.48084552  0.81718239  0.89713163  1
  P  P13  1  0.18281761  0.51915448  0.60286837  1
  P  P14  1  0.81718239  0.48084552  0.39713163  1
  P  P15  1  0.68045338  0.61306217  0.00130435  1
  P  P16  1  0.17630130  0.87367121  0.96692891  1
  P  P17  1  0.38693783  0.31954662  0.49869565  1
  P  P18  1  0.04542880  0.31832883  0.10895537  1
  P  P19  1  0.07329379  0.57114207  0.25965663  1
  O  O0  1  0.54074326  0.22847488  0.78417183  1
  O  O1  1  0.17388420  0.65326829  0.52227911  1
  O  O2  1  0.97902692  0.27999740  0.76932291  1
  O  O3  1  0.03611443  0.84204642  0.63228387  1
  O  O4  1  0.45925674  0.77152512  0.21582817  1
  O  O5  1  0.64242236  0.51183139  0.91406026  1
  O  O6  1  0.53185478  0.98447982  0.33547472  1
  O  O7  1  0.98097472  0.50747173  0.36302892  1
  O  O8  1  0.72000260  0.02097308  0.73067709  1
  O  O9  1  0.42280217  0.34853346  0.38516372  1
  O  O10  1  0.92382067  0.12718742  0.57329330  1
  O  O11  1  0.35757764  0.48816861  0.08593974  1
  O  O12  1  0.65146654  0.57719783  0.11483628  1
  O  O13  1  0.71165068  0.10630458  0.44435508  1
  O  O14  1  0.01902528  0.49252827  0.63697108  1
  O  O15  1  0.65326829  0.17388420  0.02228011  1
  O  O16  1  0.77152512  0.45925674  0.71582817  1
  O  O17  1  0.57719783  0.65146654  0.61483628  1
  O  O18  1  0.20112576  0.10415605  0.67815168  1
  O  O19  1  0.49252827  0.01902528  0.13697108  1
  O  O20  1  0.89584395  0.79887424  0.82184832  1
  O  O21  1  0.28834932  0.89369542  0.55564492  1
  O  O22  1  0.46814522  0.01552018  0.66452528  1
  O  O23  1  0.53922457  0.28224462  0.19242455  1
  O  O24  1  0.22847488  0.54074326  0.28417183  1
  O  O25  1  0.89369542  0.28834932  0.05564492  1
  O  O26  1  0.27999740  0.97902692  0.26932291  1
  O  O27  1  0.28224462  0.53922457  0.69242455  1
  O  O28  1  0.10415605  0.20112576  0.17815168  1
  O  O29  1  0.10630458  0.71165068  0.94435508  1
  O  O30  1  0.34673171  0.82611580  0.97772089  1
  O  O31  1  0.51183139  0.64242236  0.41406026  1
  O  O32  1  0.14607822  0.35161818  0.00791340  1
  O  O33  1  0.71775538  0.46077543  0.30757545  1
  O  O34  1  0.12718742  0.92382067  0.07329330  1
  O  O35  1  0.22378783  0.38835556  0.52713976  1
  O  O36  1  0.85392178  0.64838182  0.99208660  1
  O  O37  1  0.50747173  0.98097472  0.86302892  1
  O  O38  1  0.82611580  0.34673171  0.47772089  1
  O  O39  1  0.64838182  0.85392178  0.49208660  1
  O  O40  1  0.46077543  0.71775538  0.80757545  1
  O  O41  1  0.02097308  0.72000260  0.23067709  1
  O  O42  1  0.38835556  0.22378783  0.02713976  1
  O  O43  1  0.48816861  0.35757764  0.58593974  1
  O  O44  1  0.01552018  0.46814522  0.16452528  1
  O  O45  1  0.07617933  0.87281258  0.42670670  1
  O  O46  1  0.34853346  0.42280217  0.88516372  1
  O  O47  1  0.79887424  0.89584395  0.32184832  1
  O  O48  1  0.61164444  0.77621217  0.97286024  1
  O  O49  1  0.15795358  0.96388557  0.86771613  1
  O  O50  1  0.77621217  0.61164444  0.47286024  1
  O  O51  1  0.84204642  0.03611443  0.13228387  1
  O  O52  1  0.87281258  0.07617933  0.92670670  1
  O  O53  1  0.96388557  0.15795358  0.36771613  1
  O  O54  1  0.98447982  0.53185478  0.83547472  1
  O  O55  1  0.35161818  0.14607822  0.50791340  1
loop_
_geom_bond_atom_site_label_1
_geom_bond_atom_site_label_2
_geom_bond_distance
_geom_bond_site_symmetry_2
O0 P1 1.467818 1_555
O0 Y1 2.312603 1_555
O1 P13 1.565238 1_555
O1 P4 1.608679 1_555
O2 P7 1.468929 1_555
O2 Y2 2.272042 1_555
O3 P4 1.479013 1_555
O3 Y2 2.346365 1_465
O4 P8 1.467818 1_555
O4 Y3 2.312603 1_555
O5 P15 1.477709 1_556
O5 Y1 2.355770 1_555
O6 P0 1.553752 1_555
O6 P8 1.613835 1_555
O7 P14 1.557681 1_555
O7 P19 1.622300 1_655
O8 P1 1.468929 1_555
O8 Y2 2.272042 1_555
O9 P17 1.462025 1_555
O9 Y3 2.328417 1_555
O10 P3 1.465339 1_555
O10 Y2 2.385853 1_555
O11 P2 1.477709 1_555
O11 Y3 2.355770 1_555
O12 P15 1.462025 1_555
O12 Y3 2.328417 1_555
O13 P0 1.563946 1_545
O13 P3 1.634992 1_555
O14 P13 1.557681 1_555
O14 P7 1.622300 1_455
O15 P11 1.565231 1_555
O15 P9 1.608678 1_555
O16 P7 1.467818 1_555
O16 Y1 2.312603 1_555
O17 P5 1.462025 1_555
O17 Y1 2.328417 1_555
O18 P10 1.459106 1_555
O18 Y2 2.372027 1_455
O19 P11 1.557681 1_555
O19 P8 1.622300 1_545
O20 P6 1.459106 1_555
O20 Y2 2.372027 1_565
O21 P10 1.563946 1_565
O21 P4 1.634992 1_555
O22 P10 1.553752 1_555
O22 P1 1.613835 1_555
O23 P11 1.457267 1_555
O23 Y3 2.346977 1_555
O24 P19 1.467818 1_555
O24 Y3 2.312603 1_555
O25 P18 1.563946 1_655
O25 P9 1.634992 1_555
O26 P8 1.468929 1_555
O26 Y0 2.272042 1_555
O27 P13 1.457267 1_555
O27 Y1 2.346977 1_555
O28 P18 1.459106 1_555
O28 Y0 2.372027 1_545
O29 P6 1.563946 1_455
O29 P16 1.634992 1_555
O30 P12 1.565238 1_555
O30 P16 1.608679 1_555
O31 P5 1.477709 1_555
O31 Y3 2.355770 1_555
O32 P18 1.566683 1_555
O32 P2 1.609751 1_555
O33 P14 1.457267 1_555
O33 Y3 2.346977 1_555
O34 P16 1.465339 1_554
O34 Y0 2.385853 1_555
O35 P13 1.564378 1_555
O35 P17 1.637129 1_555
O36 P6 1.566683 1_555
O36 P15 1.609751 1_556
O37 P12 1.557681 1_555
O37 P1 1.622300 1_565
O38 P14 1.565238 1_555
O38 P3 1.608679 1_555
O39 P0 1.566683 1_555
O39 P5 1.609751 1_555
O40 P12 1.457267 1_555
O40 Y1 2.346977 1_555
O41 P19 1.468929 1_555
O41 Y0 2.272042 1_555
O42 P11 1.564378 1_555
O42 P2 1.637129 1_555
O43 P17 1.477709 1_555
O43 Y1 2.355770 1_555
O44 P18 1.553752 1_555
O44 P19 1.613835 1_555
O45 P4 1.465339 1_555
O45 Y0 2.385853 1_555
O46 P2 1.462025 1_556
O46 Y1 2.328417 1_555
O47 P0 1.459106 1_555
O47 Y0 2.372027 1_655
O48 P12 1.564378 1_555
O48 P15 1.637129 1_556
O49 P16 1.479013 1_555
O49 Y2 2.346365 1_465
O50 P14 1.564378 1_555
O50 P5 1.637129 1_555
O51 P9 1.479013 1_555
O51 Y0 2.346365 1_645
O52 P9 1.465339 1_556
O52 Y2 2.385853 1_555
O53 P3 1.479013 1_555
O53 Y0 2.346365 1_645
O54 P6 1.553752 1_555
O54 P7 1.613835 1_555
O55 P10 1.566683 1_555
O55 P17 1.609751 1_555
