# generated using pymatgen
data_InHg6As4Cl7
_symmetry_space_group_name_H-M   'P 1'
_cell_length_a   12.44144200
_cell_length_b   12.44144200
_cell_length_c   12.44144200
_cell_angle_alpha   90.00000000
_cell_angle_beta   90.00000000
_cell_angle_gamma   90.00000000
_symmetry_Int_Tables_number   1
_chemical_formula_structural   InHg6As4Cl7
_chemical_formula_sum   'In4 Hg24 As16 Cl28'
_cell_volume   1925.80432568
_cell_formula_units_Z   4
loop_
 _symmetry_equiv_pos_site_id
 _symmetry_equiv_pos_as_xyz
  1  'x, y, z'
loop_
 _atom_site_type_symbol
 _atom_site_label
 _atom_site_symmetry_multiplicity
 _atom_site_fract_x
 _atom_site_fract_y
 _atom_site_fract_z
 _atom_site_occupancy
  In  In0  1  0.00000000  0.00000000  0.50000000  1
  In  In1  1  0.50000000  0.00000000  0.00000000  1
  In  In2  1  0.50000000  0.50000000  0.50000000  1
  In  In3  1  0.00000000  0.50000000  0.00000000  1
  Hg  Hg0  1  0.69870600  0.95361600  0.31343800  1
  Hg  Hg1  1  0.19870600  0.54638400  0.68656200  1
  Hg  Hg2  1  0.81343800  0.69870600  0.54638400  1
  Hg  Hg3  1  0.54638400  0.81343800  0.69870600  1
  Hg  Hg4  1  0.69870600  0.54638400  0.81343800  1
  Hg  Hg5  1  0.45361600  0.31343800  0.80129400  1
  Hg  Hg6  1  0.54638400  0.68656200  0.19870600  1
  Hg  Hg7  1  0.68656200  0.19870600  0.54638400  1
  Hg  Hg8  1  0.04638400  0.81343800  0.80129400  1
  Hg  Hg9  1  0.30129400  0.45361600  0.18656200  1
  Hg  Hg10  1  0.80129400  0.45361600  0.31343800  1
  Hg  Hg11  1  0.30129400  0.04638400  0.68656200  1
  Hg  Hg12  1  0.95361600  0.31343800  0.69870600  1
  Hg  Hg13  1  0.18656200  0.19870600  0.95361600  1
  Hg  Hg14  1  0.81343800  0.80129400  0.04638400  1
  Hg  Hg15  1  0.04638400  0.68656200  0.30129400  1
  Hg  Hg16  1  0.31343800  0.69870600  0.95361600  1
  Hg  Hg17  1  0.18656200  0.30129400  0.45361600  1
  Hg  Hg18  1  0.80129400  0.04638400  0.81343800  1
  Hg  Hg19  1  0.45361600  0.18656200  0.30129400  1
  Hg  Hg20  1  0.19870600  0.95361600  0.18656200  1
  Hg  Hg21  1  0.68656200  0.30129400  0.04638400  1
  Hg  Hg22  1  0.31343800  0.80129400  0.45361600  1
  Hg  Hg23  1  0.95361600  0.18656200  0.19870600  1
  As  As0  1  0.73360000  0.73360000  0.73360000  1
  As  As1  1  0.65109300  0.15109300  0.34890700  1
  As  As2  1  0.26640000  0.26640000  0.26640000  1
  As  As3  1  0.76640000  0.23360000  0.73360000  1
  As  As4  1  0.84890700  0.84890700  0.84890700  1
  As  As5  1  0.34890700  0.65109300  0.15109300  1
  As  As6  1  0.23360000  0.76640000  0.26640000  1
  As  As7  1  0.15109300  0.34890700  0.65109300  1
  As  As8  1  0.23360000  0.73360000  0.76640000  1
  As  As9  1  0.26640000  0.23360000  0.76640000  1
  As  As10  1  0.76640000  0.26640000  0.23360000  1
  As  As11  1  0.84890700  0.65109300  0.34890700  1
  As  As12  1  0.15109300  0.15109300  0.15109300  1
  As  As13  1  0.65109300  0.34890700  0.84890700  1
  As  As14  1  0.73360000  0.76640000  0.23360000  1
  As  As15  1  0.34890700  0.84890700  0.65109300  1
  Cl  Cl0  1  0.30361800  0.54013200  0.45358300  1
  Cl  Cl1  1  0.04013200  0.45358300  0.19638200  1
  Cl  Cl2  1  0.69638200  0.04013200  0.04641700  1
  Cl  Cl3  1  0.50000000  0.00000000  0.50000000  1
  Cl  Cl4  1  0.45986800  0.95358300  0.19638200  1
  Cl  Cl5  1  0.19638200  0.45986800  0.95358300  1
  Cl  Cl6  1  0.45358300  0.19638200  0.04013200  1
  Cl  Cl7  1  0.00000000  0.00000000  0.00000000  1
  Cl  Cl8  1  0.95986800  0.95358300  0.30361800  1
  Cl  Cl9  1  0.45358300  0.30361800  0.54013200  1
  Cl  Cl10  1  0.80361800  0.54013200  0.04641700  1
  Cl  Cl11  1  0.04641700  0.69638200  0.04013200  1
  Cl  Cl12  1  0.54641700  0.69638200  0.45986800  1
  Cl  Cl13  1  0.95358300  0.30361800  0.95986800  1
  Cl  Cl14  1  0.69638200  0.45986800  0.54641700  1
  Cl  Cl15  1  0.80361800  0.95986800  0.54641700  1
  Cl  Cl16  1  0.50000000  0.50000000  0.00000000  1
  Cl  Cl17  1  0.00000000  0.50000000  0.50000000  1
  Cl  Cl18  1  0.54013200  0.04641700  0.80361800  1
  Cl  Cl19  1  0.30361800  0.95986800  0.95358300  1
  Cl  Cl20  1  0.04013200  0.04641700  0.69638200  1
  Cl  Cl21  1  0.95358300  0.19638200  0.45986800  1
  Cl  Cl22  1  0.19638200  0.04013200  0.45358300  1
  Cl  Cl23  1  0.54013200  0.45358300  0.30361800  1
  Cl  Cl24  1  0.04641700  0.80361800  0.54013200  1
  Cl  Cl25  1  0.54641700  0.80361800  0.95986800  1
  Cl  Cl26  1  0.95986800  0.54641700  0.80361800  1
  Cl  Cl27  1  0.45986800  0.54641700  0.69638200  1
loop_
_geom_bond_atom_site_label_1
_geom_bond_atom_site_label_2
_geom_bond_distance
_geom_bond_site_symmetry_2
As0 As4 2.484775 1_555
As0 Hg4 2.569136 1_555
As0 Hg2 2.569136 1_555
As0 Hg3 2.569136 1_555
As1 As10 2.484775 1_555
As1 Hg7 2.565539 1_555
As1 Hg0 2.565539 1_545
As1 Hg19 2.565539 1_555
As2 Hg19 2.569136 1_555
As2 Hg17 2.569136 1_555
As2 Hg9 2.569136 1_555
As3 Hg18 2.569136 1_555
As3 Hg7 2.569136 1_555
As3 Hg12 2.569136 1_555
As4 Hg18 2.565539 1_565
As4 Hg14 2.565539 1_556
As4 Hg8 2.565539 1_655
As5 As6 2.484775 1_555
As5 Hg6 2.565539 1_555
As5 Hg16 2.565539 1_554
As5 Hg9 2.565539 1_555
As6 Hg15 2.569136 1_555
As6 Hg22 2.569136 1_555
As6 Hg20 2.569136 1_555
As7 As9 2.484775 1_555
As7 Hg1 2.565539 1_555
As7 Hg12 2.565539 1_455
As7 Hg17 2.565539 1_555
As8 Hg8 2.569136 1_555
As8 Hg1 2.569136 1_555
As8 Hg16 2.569136 1_555
As9 Hg5 2.569136 1_555
As9 Hg11 2.569136 1_555
As9 Hg13 2.569136 1_555
As10 Hg21 2.569136 1_555
As10 Hg10 2.569136 1_555
As10 Hg23 2.569136 1_555
As11 As14 2.484775 1_555
As11 Hg2 2.565539 1_555
As11 Hg10 2.565539 1_555
As11 Hg15 2.565539 1_655
As12 As2 2.484775 1_555
As12 Hg23 2.565539 1_455
As12 Hg13 2.565539 1_554
As12 Hg20 2.565539 1_545
As13 As3 2.484775 1_555
As13 Hg4 2.565539 1_555
As13 Hg21 2.565539 1_556
As13 Hg5 2.565539 1_555
As14 Hg14 2.569136 1_555
As14 Hg0 2.569136 1_555
As14 Hg6 2.569136 1_555
As15 As8 2.484775 1_555
As15 Hg3 2.565539 1_555
As15 Hg22 2.565539 1_555
As15 Hg11 2.565539 1_565
Cl0 In2 2.559764 1_555
Cl1 In3 2.559764 1_555
Cl2 In1 2.559764 1_555
Cl4 In1 2.559764 1_565
Cl5 In3 2.559764 1_556
Cl6 In1 2.559764 1_555
Cl8 In0 2.559764 1_665
Cl9 In2 2.559764 1_555
Cl10 In3 2.559764 1_655
Cl11 In3 2.559764 1_555
Cl12 In2 2.559764 1_555
Cl13 In3 2.559764 1_656
Cl14 In2 2.559764 1_555
Cl15 In0 2.559764 1_665
Cl18 In1 2.559764 1_556
Cl19 In1 2.559764 1_566
Cl20 In0 2.559764 1_555
Cl21 In0 2.559764 1_655
Cl22 In0 2.559764 1_555
Cl23 In2 2.559764 1_555
Cl24 In0 2.559764 1_565
Cl25 In1 2.559764 1_566
Cl26 In3 2.559764 1_656
Cl27 In2 2.559764 1_555
