# generated using pymatgen
data_Ca2SiO4
_symmetry_space_group_name_H-M   'P 1'
_cell_length_a   8.28481019
_cell_length_b   9.70906026
_cell_length_c   9.88058918
_cell_angle_alpha   90.00000000
_cell_angle_beta   96.14269797
_cell_angle_gamma   90.00000000
_symmetry_Int_Tables_number   1
_chemical_formula_structural   Ca2SiO4
_chemical_formula_sum   'Ca16 Si8 O32'
_cell_volume   790.20887843
_cell_formula_units_Z   8
loop_
 _symmetry_equiv_pos_site_id
 _symmetry_equiv_pos_as_xyz
  1  'x, y, z'
loop_
 _atom_site_type_symbol
 _atom_site_label
 _atom_site_symmetry_multiplicity
 _atom_site_fract_x
 _atom_site_fract_y
 _atom_site_fract_z
 _atom_site_occupancy
  Ca  Ca0  1  0.88307109  0.05307809  0.20932082  1
  Ca  Ca1  1  0.67188225  0.07831932  0.90905865  1
  Ca  Ca2  1  0.17236106  0.92253681  0.42638509  1
  Ca  Ca3  1  0.60667751  0.71710325  0.93066062  1
  Ca  Ca4  1  0.17236106  0.57746319  0.92638509  1
  Ca  Ca5  1  0.32811775  0.57831932  0.59094135  1
  Ca  Ca6  1  0.82763894  0.07746319  0.57361491  1
  Ca  Ca7  1  0.82763894  0.42253681  0.07361491  1
  Ca  Ca8  1  0.60667751  0.78289675  0.43066062  1
  Ca  Ca9  1  0.88307109  0.44692191  0.70932082  1
  Ca  Ca10  1  0.67188225  0.42168068  0.40905865  1
  Ca  Ca11  1  0.11692891  0.55307809  0.29067918  1
  Ca  Ca12  1  0.39332249  0.21710325  0.56933938  1
  Ca  Ca13  1  0.32811775  0.92168068  0.09094135  1
  Ca  Ca14  1  0.39332249  0.28289675  0.06933938  1
  Ca  Ca15  1  0.11692891  0.94692191  0.79067918  1
  Si  Si0  1  0.45395050  0.93093703  0.69533002  1
  Si  Si1  1  0.54604950  0.43093703  0.80466998  1
  Si  Si2  1  0.02007253  0.29621324  0.42995055  1
  Si  Si3  1  0.02007253  0.20378676  0.92995055  1
  Si  Si4  1  0.45395050  0.56906297  0.19533002  1
  Si  Si5  1  0.97992747  0.79621324  0.07004945  1
  Si  Si6  1  0.97992747  0.70378676  0.57004945  1
  Si  Si7  1  0.54604950  0.06906297  0.30466998  1
  O  O0  1  0.55058745  0.40923074  0.63960274  1
  O  O1  1  0.18725372  0.37602450  0.48704336  1
  O  O2  1  0.88060105  0.30365685  0.53545246  1
  O  O3  1  0.95348379  0.63274643  0.09747505  1
  O  O4  1  0.59614368  0.45816516  0.17292542  1
  O  O5  1  0.04651621  0.13274643  0.40252495  1
  O  O6  1  0.55058745  0.09076926  0.13960274  1
  O  O7  1  0.40385632  0.54183484  0.82707458  1
  O  O8  1  0.04651621  0.36725357  0.90252495  1
  O  O9  1  0.81274628  0.62397550  0.51295664  1
  O  O10  1  0.52427794  0.28480655  0.87944435  1
  O  O11  1  0.59614368  0.04183484  0.67292542  1
  O  O12  1  0.06366081  0.62384483  0.70557743  1
  O  O13  1  0.95348379  0.86725357  0.59747505  1
  O  O14  1  0.11939895  0.80365685  0.96454754  1
  O  O15  1  0.18725372  0.12397450  0.98704336  1
  O  O16  1  0.47572206  0.71519345  0.12055565  1
  O  O17  1  0.71435218  0.50750091  0.86578004  1
  O  O18  1  0.44941255  0.59076926  0.36039726  1
  O  O19  1  0.47572206  0.78480655  0.62055565  1
  O  O20  1  0.40385632  0.95816516  0.32707458  1
  O  O21  1  0.71435218  0.99249909  0.36578004  1
  O  O22  1  0.52427794  0.21519345  0.37944435  1
  O  O23  1  0.06366081  0.87615517  0.20557643  1
  O  O24  1  0.93633919  0.12384483  0.79442257  1
  O  O25  1  0.28564782  0.49249909  0.13421996  1
  O  O26  1  0.93633919  0.37615517  0.29442257  1
  O  O27  1  0.88060105  0.19634315  0.03545246  1
  O  O28  1  0.11939895  0.69634315  0.46454754  1
  O  O29  1  0.28564782  0.00750091  0.63421996  1
  O  O30  1  0.81274628  0.87602450  0.01295664  1
  O  O31  1  0.44941255  0.90923074  0.86039726  1
loop_
_geom_bond_atom_site_label_1
_geom_bond_atom_site_label_2
_geom_bond_distance
_geom_bond_site_symmetry_2
Ca0 O27 2.208834 1_555
Ca0 O21 2.269819 1_545
Ca0 O23 2.280870 1_645
Ca0 O5 2.350083 1_655
Ca0 O30 2.610925 1_545
Ca0 O6 2.791053 1_555
Ca1 O27 2.323933 1_556
Ca1 O10 2.350249 1_555
Ca1 O11 2.376851 1_555
Ca1 O30 2.452974 1_546
Ca1 O31 2.476643 1_545
Ca1 O6 2.589056 1_556
Ca1 O24 2.609558 1_555
Ca2 O20 2.272350 1_555
Ca2 O28 2.278836 1_555
Ca2 O5 2.292470 1_565
Ca2 O23 2.313703 1_555
Ca2 O29 2.316442 1_565
Ca2 O13 2.662720 1_455
Ca3 O16 2.265722 1_556
Ca3 O31 2.337863 1_555
Ca3 O17 2.338913 1_555
Ca3 O30 2.378979 1_556
Ca3 O7 2.529577 1_555
Ca4 O7 2.272350 1_555
Ca4 O14 2.278836 1_555
Ca4 O8 2.292470 1_555
Ca4 O12 2.313694 1_555
Ca4 O25 2.316442 1_556
Ca4 O3 2.662720 1_456
Ca5 O28 2.323933 1_555
Ca5 O19 2.350249 1_555
Ca5 O7 2.376851 1_555
Ca5 O1 2.452974 1_555
Ca5 O0 2.476643 1_555
Ca5 O18 2.589056 1_555
Ca5 O12 2.609558 1_555
Ca6 O11 2.272350 1_555
Ca6 O2 2.278836 1_555
Ca6 O13 2.292470 1_545
Ca6 O24 2.313694 1_555
Ca6 O21 2.316442 1_545
Ca6 O5 2.662720 1_655
Ca7 O4 2.272350 1_555
Ca7 O27 2.278836 1_555
Ca7 O3 2.292470 1_555
Ca7 O26 2.313694 1_555
Ca7 O17 2.316442 1_554
Ca7 O8 2.662720 1_654
Ca8 O19 2.265722 1_555
Ca8 O18 2.337863 1_555
Ca8 O21 2.338913 1_555
Ca8 O9 2.378979 1_555
Ca8 O20 2.529577 1_555
Ca9 O2 2.208834 1_555
Ca9 O17 2.269819 1_555
Ca9 O12 2.280869 1_655
Ca9 O8 2.350083 1_655
Ca9 O9 2.610925 1_555
Ca9 O0 2.791053 1_555
Ca10 O2 2.323933 1_555
Ca10 O22 2.350249 1_555
Ca10 O4 2.376851 1_555
Ca10 O9 2.452974 1_555
Ca10 O18 2.476643 1_555
Ca10 O0 2.589056 1_555
Ca10 O26 2.609558 1_555
Ca11 O28 2.208834 1_555
Ca11 O25 2.269819 1_555
Ca11 O26 2.280869 1_455
Ca11 O3 2.350083 1_455
Ca11 O1 2.610925 1_555
Ca11 O18 2.791053 1_555
Ca12 O22 2.265722 1_555
Ca12 O0 2.337863 1_555
Ca12 O29 2.338913 1_555
Ca12 O1 2.378979 1_555
Ca12 O11 2.529577 1_555
Ca13 O14 2.323933 1_554
Ca13 O16 2.350249 1_555
Ca13 O20 2.376851 1_555
Ca13 O15 2.452966 1_564
Ca13 O6 2.476643 1_565
Ca13 O31 2.589056 1_554
Ca13 O23 2.609553 1_555
Ca14 O10 2.265722 1_554
Ca14 O6 2.337863 1_555
Ca14 O25 2.338913 1_555
Ca14 O15 2.378985 1_554
Ca14 O4 2.529577 1_555
Ca15 O14 2.208834 1_555
Ca15 O29 2.269819 1_565
Ca15 O24 2.280869 1_465
Ca15 O13 2.350083 1_455
Ca15 O15 2.610919 1_565
Ca15 O31 2.791053 1_555
O0 Si1 1.648935 1_555
O1 Si2 1.633974 1_555
O2 Si2 1.638539 1_655
O3 Si5 1.628818 1_555
O4 Si4 1.628470 1_555
O5 Si2 1.628818 1_555
O6 Si7 1.648935 1_555
O7 Si1 1.628470 1_555
O8 Si3 1.628818 1_555
O9 Si6 1.633974 1_555
O10 Si1 1.618600 1_555
O11 Si0 1.628470 1_545
O12 Si6 1.636472 1_455
O13 Si6 1.628818 1_555
O14 Si5 1.638539 1_456
O15 Si3 1.633978 1_555
O16 Si4 1.618600 1_555
O17 Si1 1.637442 1_555
O18 Si4 1.648935 1_555
O19 Si0 1.618600 1_555
O20 Si7 1.628470 1_565
O21 Si7 1.637442 1_565
O22 Si7 1.618600 1_555
O23 Si5 1.636464 1_455
O24 Si3 1.636472 1_655
O25 Si4 1.637442 1_555
O26 Si2 1.636472 1_655
O27 Si3 1.638539 1_654
O28 Si6 1.638539 1_455
O29 Si0 1.637442 1_545
O30 Si5 1.633974 1_555
O31 Si0 1.648935 1_555
