# generated using pymatgen
data_Sr6FeC2N7
_symmetry_space_group_name_H-M   'P 1'
_cell_length_a   3.85971500
_cell_length_b   9.96513200
_cell_length_c   14.87957000
_cell_angle_alpha   90.00000000
_cell_angle_beta   90.00000000
_cell_angle_gamma   90.00000000
_symmetry_Int_Tables_number   1
_chemical_formula_structural   Sr6FeC2N7
_chemical_formula_sum   'Sr12 Fe2 C4 N14'
_cell_volume   572.30649462
_cell_formula_units_Z   2
loop_
 _symmetry_equiv_pos_site_id
 _symmetry_equiv_pos_as_xyz
  1  'x, y, z'
loop_
 _atom_site_type_symbol
 _atom_site_label
 _atom_site_symmetry_multiplicity
 _atom_site_fract_x
 _atom_site_fract_y
 _atom_site_fract_z
 _atom_site_occupancy
  Sr  Sr0  1  0.05571900  0.57006000  0.10972300  1
  Sr  Sr1  1  0.44297300  0.75516300  0.44316100  1
  Sr  Sr2  1  0.94428100  0.92994000  0.60972300  1
  Sr  Sr3  1  0.55702700  0.74483700  0.94316100  1
  Sr  Sr4  1  0.48912700  0.09822000  0.83371600  1
  Sr  Sr5  1  0.55702700  0.25516300  0.05683900  1
  Sr  Sr6  1  0.05571900  0.42994000  0.89027700  1
  Sr  Sr7  1  0.44297300  0.24483700  0.55683900  1
  Sr  Sr8  1  0.94428100  0.07006000  0.39027700  1
  Sr  Sr9  1  0.48912700  0.90178000  0.16628400  1
  Sr  Sr10  1  0.51087300  0.59822000  0.66628400  1
  Sr  Sr11  1  0.51087300  0.40178000  0.33371600  1
  Fe  Fe0  1  0.97887800  0.50000000  0.50000000  1
  Fe  Fe1  1  0.02112200  0.00000000  0.00000000  1
  C  C0  1  0.81946100  0.72566300  0.28075700  1
  C  C1  1  0.18053900  0.22566300  0.21924300  1
  C  C2  1  0.18053900  0.77433700  0.78075700  1
  C  C3  1  0.81946100  0.27433700  0.71924300  1
  N  N0  1  0.97491900  0.66742400  0.55510000  1
  N  N1  1  0.96933800  0.17170200  0.69170500  1
  N  N2  1  0.64247200  0.36855600  0.74857300  1
  N  N3  1  0.02508100  0.83257600  0.05510000  1
  N  N4  1  0.02508100  0.16742400  0.94490000  1
  N  N5  1  0.35752800  0.13144400  0.24857300  1
  N  N6  1  0.35752800  0.86855600  0.75142700  1
  N  N7  1  0.96933800  0.82829800  0.30829500  1
  N  N8  1  0.03066200  0.32829800  0.19170500  1
  N  N9  1  0.64247200  0.63144400  0.25142700  1
  N  N10  1  0.56408300  0.50000000  0.00000000  1
  N  N11  1  0.03066200  0.67170200  0.80829500  1
  N  N12  1  0.97491900  0.33257600  0.44490000  1
  N  N13  1  0.43591700  0.00000000  0.50000000  1
loop_
_geom_bond_atom_site_label_1
_geom_bond_atom_site_label_2
_geom_bond_distance
_geom_bond_site_symmetry_2
Fe0 N12 1.859026 1_555
Fe0 N0 1.859026 1_555
Fe1 N3 1.859026 1_545
Fe1 N4 1.859026 1_554
C0 N9 1.240429 1_555
C0 N7 1.244428 1_555
C1 N5 1.240429 1_555
C1 N8 1.244428 1_555
C2 N6 1.240429 1_555
C2 N11 1.244428 1_555
C3 N2 1.240429 1_555
C3 N1 1.244428 1_555
N0 Sr10 2.533873 1_555
N0 Sr1 2.608128 1_655
N0 Sr10 2.737107 1_655
N0 Sr2 2.741909 1_555
N0 Sr1 2.784629 1_555
N1 Sr2 2.702148 1_545
N1 Sr7 2.810716 1_655
N2 Sr10 2.644816 1_555
N2 Sr6 2.713669 1_655
N2 Sr6 3.154170 1_555
N3 Sr9 2.533873 1_555
N3 Sr3 2.608128 1_454
N3 Sr9 2.737107 1_455
N3 Sr0 2.741909 1_555
N3 Sr3 2.784629 1_554
N4 Sr4 2.533873 1_555
N4 Sr5 2.608128 1_456
N4 Sr4 2.737107 1_455
N4 Sr6 2.741909 1_555
N4 Sr5 2.784629 1_556
N5 Sr9 2.644816 1_545
N5 Sr8 2.713669 1_455
N5 Sr8 3.154170 1_555
N6 Sr4 2.644816 1_565
N6 Sr2 2.713669 1_455
N6 Sr2 3.154170 1_555
N7 Sr8 2.702148 1_565
N7 Sr1 2.810716 1_655
N8 Sr0 2.702148 1_555
N8 Sr5 2.810716 1_455
N9 Sr11 2.644816 1_555
N9 Sr0 2.713669 1_655
N9 Sr0 3.154170 1_555
N10 Sr3 2.582403 1_554
N10 Sr5 2.582403 1_555
N10 Sr0 2.598788 1_655
N10 Sr6 2.598788 1_654
N10 Sr0 2.646300 1_555
N10 Sr6 2.646300 1_554
N11 Sr6 2.702148 1_555
N11 Sr3 2.810716 1_455
N12 Sr11 2.533873 1_555
N12 Sr7 2.608128 1_655
N12 Sr11 2.737107 1_655
N12 Sr8 2.741909 1_555
N12 Sr7 2.784629 1_555
N13 Sr1 2.582403 1_545
N13 Sr7 2.582403 1_555
N13 Sr2 2.598788 1_445
N13 Sr8 2.598788 1_455
N13 Sr8 2.646300 1_555
N13 Sr2 2.646300 1_545
