# generated using pymatgen
data_YbIn2
_symmetry_space_group_name_H-M   'P 1'
_cell_length_a   4.93507584
_cell_length_b   4.93507584
_cell_length_c   7.64262800
_cell_angle_alpha   90.00000000
_cell_angle_beta   90.00000000
_cell_angle_gamma   119.99999785
_symmetry_Int_Tables_number   1
_chemical_formula_structural   YbIn2
_chemical_formula_sum   'Yb2 In4'
_cell_volume   161.19851041
_cell_formula_units_Z   2
loop_
 _symmetry_equiv_pos_site_id
 _symmetry_equiv_pos_as_xyz
  1  'x, y, z'
loop_
 _atom_site_type_symbol
 _atom_site_label
 _atom_site_symmetry_multiplicity
 _atom_site_fract_x
 _atom_site_fract_y
 _atom_site_fract_z
 _atom_site_occupancy
  Yb  Yb0  1  0.00000000  0.00000000  0.75000000  1
  Yb  Yb1  1  0.00000000  0.00000000  0.25000000  1
  In  In0  1  0.33333300  0.66666700  0.95365900  1
  In  In1  1  0.33333300  0.66666700  0.54634100  1
  In  In2  1  0.66666700  0.33333300  0.04634100  1
  In  In3  1  0.66666700  0.33333300  0.45365900  1
loop_
_geom_bond_atom_site_label_1
_geom_bond_atom_site_label_2
_geom_bond_distance
_geom_bond_site_symmetry_2
In0 In2 2.935991 1_456
In0 In2 2.935991 1_566
In0 In2 2.936000 1_556
In0 In1 3.112980 1_555
In0 Yb0 3.246686 1_565
In0 Yb0 3.246690 1_665
In0 Yb0 3.246690 1_555
In0 Yb1 3.639744 1_566
In0 Yb1 3.639747 1_666
In0 Yb1 3.639747 1_556
In1 In3 2.935991 1_455
In1 In3 2.935991 1_565
In1 In3 2.936000 1_555
In1 Yb0 3.246686 1_565
In1 Yb0 3.246690 1_665
In1 Yb0 3.246690 1_555
In1 Yb1 3.639744 1_565
In1 Yb1 3.639747 1_665
In1 Yb1 3.639747 1_555
In2 In3 3.112980 1_555
In2 Yb1 3.246686 1_655
In2 Yb1 3.246690 1_665
In2 Yb1 3.246690 1_555
In2 Yb0 3.639744 1_654
In2 Yb0 3.639747 1_664
In2 Yb0 3.639747 1_554
In3 Yb1 3.246686 1_655
In3 Yb1 3.246690 1_665
In3 Yb1 3.246690 1_555
In3 Yb0 3.639744 1_655
In3 Yb0 3.639747 1_665
In3 Yb0 3.639747 1_555
