# generated using pymatgen
data_SiC
_symmetry_space_group_name_H-M   'P 1'
_cell_length_a   22.81363697
_cell_length_b   22.81363697
_cell_length_c   22.81363674
_cell_angle_alpha   7.78713598
_cell_angle_beta   7.78713598
_cell_angle_gamma   7.78713589
_symmetry_Int_Tables_number   1
_chemical_formula_structural   SiC
_chemical_formula_sum   'Si9 C9'
_cell_volume   189.06743578
_cell_formula_units_Z   9
loop_
 _symmetry_equiv_pos_site_id
 _symmetry_equiv_pos_as_xyz
  1  'x, y, z'
loop_
 _atom_site_type_symbol
 _atom_site_label
 _atom_site_symmetry_multiplicity
 _atom_site_fract_x
 _atom_site_fract_y
 _atom_site_fract_z
 _atom_site_occupancy
  Si  Si0  1  0.88893600  0.88893600  0.88893600  1
  Si  Si1  1  0.51851700  0.51851700  0.51851700  1
  Si  Si2  1  0.14810400  0.14810400  0.14810400  1
  Si  Si3  1  0.29620100  0.29620100  0.29620100  1
  Si  Si4  1  0.59260200  0.59260200  0.59260200  1
  Si  Si5  1  0.99990600  0.99990600  0.99990600  1
  Si  Si6  1  0.44437700  0.44437700  0.44437700  1
  Si  Si7  1  0.37029300  0.37029300  0.37029300  1
  Si  Si8  1  0.74068900  0.74068900  0.74068900  1
  C  C0  1  0.39813300  0.39813300  0.39813300  1
  C  C1  1  0.76859900  0.76859900  0.76859900  1
  C  C2  1  0.32401000  0.32401000  0.32401000  1
  C  C3  1  0.02782900  0.02782900  0.02782900  1
  C  C4  1  0.47219500  0.47219500  0.47219500  1
  C  C5  1  0.91682300  0.91682300  0.91682300  1
  C  C6  1  0.17603600  0.17603600  0.17603600  1
  C  C7  1  0.54635600  0.54635600  0.54635600  1
  C  C8  1  0.62039200  0.62039200  0.62039200  1
loop_
_geom_bond_atom_site_label_1
_geom_bond_atom_site_label_2
_geom_bond_distance
_geom_bond_site_symmetry_2
C0 Si8 1.896226 1_545
C0 Si8 1.896226 1_455
C0 Si8 1.896227 1_554
C0 Si7 1.899529 1_555
C1 Si6 1.893719 1_556
C1 Si6 1.893719 1_565
C1 Si6 1.893719 1_655
C1 Si8 1.904305 1_555
C2 Si5 1.896377 1_445
C2 Si5 1.896378 1_454
C2 Si5 1.896378 1_544
C2 Si3 1.897414 1_555
C3 Si7 1.894153 1_545
C3 Si7 1.894153 1_455
C3 Si7 1.894153 1_554
C3 Si5 1.905192 1_444
C4 Si2 1.896672 1_556
C4 Si2 1.896672 1_655
C4 Si2 1.896672 1_565
C4 Si6 1.898028 1_555
C5 Si4 1.893742 1_556
C5 Si4 1.893742 1_565
C5 Si4 1.893742 1_655
C5 Si0 1.902736 1_555
C6 Si1 1.894534 1_455
C6 Si1 1.894534 1_545
C6 Si1 1.894535 1_554
C6 Si2 1.905806 1_555
C7 Si0 1.896771 1_455
C7 Si0 1.896771 1_545
C7 Si0 1.896771 1_554
C7 Si1 1.899461 1_555
C8 Si3 1.894415 1_556
C8 Si3 1.894415 1_655
C8 Si3 1.894415 1_565
C8 Si4 1.896117 1_555
