# generated using pymatgen
data_KUSi2O7
_symmetry_space_group_name_H-M   'P 1'
_cell_length_a   9.25878600
_cell_length_b   9.25878600
_cell_length_c   8.35931400
_cell_angle_alpha   90.00000000
_cell_angle_beta   90.00000000
_cell_angle_gamma   90.00000000
_symmetry_Int_Tables_number   1
_chemical_formula_structural   KUSi2O7
_chemical_formula_sum   'K4 U4 Si8 O28'
_cell_volume   716.60318067
_cell_formula_units_Z   4
loop_
 _symmetry_equiv_pos_site_id
 _symmetry_equiv_pos_as_xyz
  1  'x, y, z'
loop_
 _atom_site_type_symbol
 _atom_site_label
 _atom_site_symmetry_multiplicity
 _atom_site_fract_x
 _atom_site_fract_y
 _atom_site_fract_z
 _atom_site_occupancy
  K  K0  1  0.17877000  0.32123000  0.50000000  1
  K  K1  1  0.32123000  0.82123000  0.50000000  1
  K  K2  1  0.82123000  0.67877000  0.50000000  1
  K  K3  1  0.67877000  0.17877000  0.50000000  1
  U  U0  1  0.00000000  0.00000000  0.75041400  1
  U  U1  1  0.50000000  0.50000000  0.75041400  1
  U  U2  1  0.00000000  0.00000000  0.24958600  1
  U  U3  1  0.50000000  0.50000000  0.24958600  1
  Si  Si0  1  0.11983400  0.61983400  0.80559800  1
  Si  Si1  1  0.38016600  0.11983400  0.19440200  1
  Si  Si2  1  0.61983400  0.88016600  0.80559800  1
  Si  Si3  1  0.11983400  0.61983400  0.19440200  1
  Si  Si4  1  0.38016600  0.11983400  0.80559800  1
  Si  Si5  1  0.61983400  0.88016600  0.19440200  1
  Si  Si6  1  0.88016600  0.38016600  0.80559800  1
  Si  Si7  1  0.88016600  0.38016600  0.19440200  1
  O  O0  1  0.87846400  0.37846400  0.00000000  1
  O  O1  1  0.27613500  0.57296800  0.73263600  1
  O  O2  1  0.57296800  0.72386500  0.26736400  1
  O  O3  1  0.50000000  0.50000000  0.00000000  1
  O  O4  1  0.12153600  0.62153600  0.00000000  1
  O  O5  1  0.92703200  0.22386500  0.73263600  1
  O  O6  1  0.57296800  0.72386500  0.73263600  1
  O  O7  1  0.07296800  0.77613500  0.73263600  1
  O  O8  1  0.50000000  0.00000000  0.74220400  1
  O  O9  1  0.00000000  0.50000000  0.25779600  1
  O  O10  1  0.00000000  0.50000000  0.74220400  1
  O  O11  1  0.62153600  0.87846400  0.00000000  1
  O  O12  1  0.72386500  0.42703200  0.26736400  1
  O  O13  1  0.77613500  0.92703200  0.26736400  1
  O  O14  1  0.22386500  0.07296800  0.26736400  1
  O  O15  1  0.37846400  0.12153600  0.00000000  1
  O  O16  1  0.42703200  0.27613500  0.73263600  1
  O  O17  1  0.50000000  0.00000000  0.25779600  1
  O  O18  1  0.77613500  0.92703200  0.73263600  1
  O  O19  1  0.92703200  0.22386500  0.26736400  1
  O  O20  1  0.22386500  0.07296800  0.73263600  1
  O  O21  1  0.72386500  0.42703200  0.73263600  1
  O  O22  1  0.27613500  0.57296800  0.26736400  1
  O  O23  1  0.42703200  0.27613500  0.26736400  1
  O  O24  1  0.00000000  0.00000000  0.50000000  1
  O  O25  1  0.07296800  0.77613500  0.26736400  1
  O  O26  1  0.00000000  0.00000000  0.00000000  1
  O  O27  1  0.50000000  0.50000000  0.50000000  1
loop_
_geom_bond_atom_site_label_1
_geom_bond_atom_site_label_2
_geom_bond_distance
_geom_bond_site_symmetry_2
K0 O14 3.039684 1_555
K0 O16 3.039684 1_555
K0 O20 3.039684 1_555
K0 O23 3.039684 1_555
K0 O9 3.094927 1_555
K0 O10 3.094927 1_555
K0 O5 3.166546 1_455
K0 O19 3.166546 1_455
K0 O1 3.166546 1_555
K0 O22 3.166546 1_555
K1 O1 3.039684 1_555
K1 O7 3.039684 1_555
K1 O22 3.039684 1_555
K1 O25 3.039684 1_555
K1 O8 3.094927 1_565
K1 O17 3.094927 1_565
K1 O20 3.166546 1_565
K1 O14 3.166546 1_565
K1 O6 3.166546 1_555
K1 O2 3.166546 1_555
K2 O18 3.039684 1_555
K2 O6 3.039684 1_555
K2 O13 3.039684 1_555
K2 O2 3.039684 1_555
K2 O9 3.094927 1_655
K2 O10 3.094927 1_655
K2 O7 3.166546 1_655
K2 O12 3.166546 1_555
K2 O25 3.166546 1_655
K2 O21 3.166546 1_555
K3 O5 3.039684 1_555
K3 O21 3.039684 1_555
K3 O12 3.039684 1_555
K3 O19 3.039684 1_555
K3 O17 3.094927 1_555
K3 O8 3.094927 1_555
K3 O16 3.166546 1_555
K3 O23 3.166546 1_555
K3 O13 3.166546 1_545
K3 O18 3.166546 1_545
O0 Si6 1.625220 1_554
O0 Si7 1.625220 1_555
O1 Si0 1.629278 1_555
O1 U1 2.185103 1_555
O2 Si5 1.629278 1_555
O2 U3 2.185103 1_555
O3 U1 2.086368 1_554
O3 U3 2.086368 1_555
O4 Si0 1.625220 1_554
O4 Si3 1.625220 1_555
O5 Si6 1.629278 1_555
O5 U0 2.185103 1_655
O6 Si2 1.629278 1_555
O6 U1 2.185103 1_555
O7 Si0 1.629278 1_555
O7 U0 2.185103 1_565
O8 Si2 1.656165 1_545
O8 Si4 1.656165 1_555
O9 Si7 1.656165 1_455
O9 Si3 1.656165 1_555
O10 Si6 1.656165 1_455
O10 Si0 1.656165 1_555
O11 Si2 1.625220 1_554
O11 Si5 1.625220 1_555
O12 Si7 1.629278 1_555
O12 U3 2.185103 1_555
O13 Si5 1.629278 1_555
O13 U2 2.185103 1_665
O14 Si1 1.629278 1_555
O14 U2 2.185103 1_555
O15 Si4 1.625220 1_554
O15 Si1 1.625220 1_555
O16 Si4 1.629278 1_555
O16 U1 2.185103 1_555
O17 Si5 1.656165 1_545
O17 Si1 1.656165 1_555
O18 Si2 1.629278 1_555
O18 U0 2.185103 1_665
O19 Si7 1.629278 1_555
O19 U2 2.185103 1_655
O20 Si4 1.629278 1_555
O20 U0 2.185103 1_555
O21 Si6 1.629278 1_555
O21 U1 2.185103 1_555
O22 Si3 1.629278 1_555
O22 U3 2.185103 1_555
O23 Si1 1.629278 1_555
O23 U3 2.185103 1_555
O24 U0 2.093289 1_555
O24 U2 2.093289 1_555
O25 Si3 1.629278 1_555
O25 U2 2.185103 1_565
O26 U2 2.086368 1_555
O26 U0 2.086368 1_554
O27 U3 2.093289 1_555
O27 U1 2.093289 1_555
