# generated using pymatgen
data_BaBi6(PO5)4
_symmetry_space_group_name_H-M   'P 1'
_cell_length_a   7.14766400
_cell_length_b   7.80564199
_cell_length_c   9.27921530
_cell_angle_alpha   107.35319609
_cell_angle_beta   92.37456184
_cell_angle_gamma   111.75213622
_symmetry_Int_Tables_number   1
_chemical_formula_structural   BaBi6(PO5)4
_chemical_formula_sum   'Ba1 Bi6 P4 O20'
_cell_volume   452.16478030
_cell_formula_units_Z   1
loop_
 _symmetry_equiv_pos_site_id
 _symmetry_equiv_pos_as_xyz
  1  'x, y, z'
loop_
 _atom_site_type_symbol
 _atom_site_label
 _atom_site_symmetry_multiplicity
 _atom_site_fract_x
 _atom_site_fract_y
 _atom_site_fract_z
 _atom_site_occupancy
  Ba  Ba0  1  0.00000000  0.50000000  0.00000000  1
  Bi  Bi0  1  0.44178000  0.29658300  0.09017800  1
  Bi  Bi1  1  0.55822000  0.70341700  0.90982200  1
  Bi  Bi2  1  0.79837300  0.80646400  0.32715500  1
  Bi  Bi3  1  0.20162700  0.19353600  0.67284500  1
  Bi  Bi4  1  0.67356300  0.38012200  0.49068200  1
  Bi  Bi5  1  0.32643700  0.61987800  0.50931800  1
  P  P0  1  0.64640500  0.09501400  0.73818100  1
  P  P1  1  0.95869100  0.23028800  0.24900700  1
  P  P2  1  0.04130900  0.76971200  0.75099300  1
  P  P3  1  0.35359500  0.90498600  0.26181900  1
  O  O0  1  0.63622600  0.16778600  0.91108100  1
  O  O1  1  0.86731500  0.67965200  0.83557400  1
  O  O2  1  0.95457000  0.71343400  0.57806400  1
  O  O3  1  0.19760600  0.67317700  0.75650300  1
  O  O4  1  0.36377400  0.83221400  0.08891900  1
  O  O5  1  0.51272100  0.87026400  0.35780500  1
  O  O6  1  0.80239400  0.32682300  0.24349700  1
  O  O7  1  0.85468900  0.00345000  0.17364800  1
  O  O8  1  0.44480300  0.47260800  0.63683700  1
  O  O9  1  0.67181900  0.59745900  0.09852300  1
  O  O10  1  0.60337900  0.87254200  0.68452300  1
  O  O11  1  0.86204000  0.21375900  0.71144700  1
  O  O12  1  0.04543000  0.28656600  0.42193600  1
  O  O13  1  0.13268500  0.32034800  0.16442600  1
  O  O14  1  0.14531100  0.99655000  0.82635200  1
  O  O15  1  0.13796000  0.78624100  0.28855300  1
  O  O16  1  0.32818100  0.40254100  0.90147700  1
  O  O17  1  0.39662100  0.12745800  0.31547700  1
  O  O18  1  0.48727900  0.12973600  0.64219500  1
  O  O19  1  0.55519700  0.52739200  0.36316300  1
loop_
_geom_bond_atom_site_label_1
_geom_bond_atom_site_label_2
_geom_bond_distance
_geom_bond_site_symmetry_2
Ba0 O1 2.708483 1_454
Ba0 O13 2.708483 1_555
Ba0 O15 2.777278 1_555
Ba0 O11 2.777278 1_454
Ba0 O4 2.777470 1_555
Ba0 O0 2.777470 1_454
Ba0 O16 2.828850 1_554
Ba0 O9 2.828850 1_455
Ba0 O6 3.098162 1_455
Ba0 O3 3.098162 1_554
Bi0 O9 2.289971 1_555
Bi0 O16 2.377634 1_554
Bi0 O13 2.396616 1_555
Bi0 O0 2.436099 1_554
Bi0 O19 2.518836 1_555
Bi0 O17 2.757523 1_555
Bi0 O6 2.787177 1_555
Bi0 O14 2.905186 1_544
Bi1 O16 2.289971 1_555
Bi1 O9 2.377634 1_556
Bi1 O1 2.396616 1_555
Bi1 O4 2.436099 1_556
Bi1 O8 2.518836 1_555
Bi1 O10 2.757523 1_555
Bi1 O3 2.787177 1_555
Bi1 O7 2.905186 1_566
Bi2 O9 2.159446 1_555
Bi2 O5 2.283609 1_555
Bi2 O7 2.334633 1_565
Bi2 O19 2.356672 1_555
Bi2 O15 2.523308 1_655
Bi3 O16 2.159446 1_555
Bi3 O18 2.283609 1_555
Bi3 O14 2.334633 1_545
Bi3 O8 2.356672 1_555
Bi3 O11 2.523308 1_455
Bi4 O19 2.210577 1_555
Bi4 O17 2.319095 1_555
Bi4 O8 2.347043 1_555
Bi4 O6 2.484300 1_555
Bi4 O2 2.488793 1_555
Bi4 O18 2.726665 1_555
Bi5 O8 2.210577 1_555
Bi5 O10 2.319095 1_555
Bi5 O19 2.347043 1_555
Bi5 O3 2.484300 1_555
Bi5 O12 2.488793 1_555
Bi5 O5 2.726665 1_555
O0 P0 1.548757 1_555
O1 P2 1.555262 1_655
O2 P2 1.564433 1_655
O3 P2 1.568637 1_555
O4 P3 1.548757 1_555
O5 P3 1.564903 1_555
O6 P1 1.568637 1_555
O7 P1 1.555456 1_555
O10 P0 1.560052 1_565
O11 P0 1.551195 1_555
O12 P1 1.564433 1_455
O13 P1 1.555262 1_455
O14 P2 1.555456 1_555
O15 P3 1.551195 1_555
O17 P3 1.560052 1_545
O18 P0 1.564903 1_555
