# generated using pymatgen
data_Ce(GeIr)2
_symmetry_space_group_name_H-M   'P 1'
_cell_length_a   4.26025774
_cell_length_b   4.26025774
_cell_length_c   10.07147132
_cell_angle_alpha   90.00000000
_cell_angle_beta   90.00000000
_cell_angle_gamma   90.00000000
_symmetry_Int_Tables_number   1
_chemical_formula_structural   Ce(GeIr)2
_chemical_formula_sum   'Ce2 Ge4 Ir4'
_cell_volume   182.79514999
_cell_formula_units_Z   2
loop_
 _symmetry_equiv_pos_site_id
 _symmetry_equiv_pos_as_xyz
  1  'x, y, z'
loop_
 _atom_site_type_symbol
 _atom_site_label
 _atom_site_symmetry_multiplicity
 _atom_site_fract_x
 _atom_site_fract_y
 _atom_site_fract_z
 _atom_site_occupancy
  Ce  Ce0  1  0.25000000  0.25000000  0.25543067  1
  Ce  Ce1  1  0.75000000  0.75000000  0.74456933  1
  Ge  Ge0  1  0.25000000  0.75000000  0.50000000  1
  Ge  Ge1  1  0.75000000  0.25000000  0.50000000  1
  Ge  Ge2  1  0.25000000  0.25000000  0.86906529  1
  Ge  Ge3  1  0.75000000  0.75000000  0.13093471  1
  Ir  Ir0  1  0.25000000  0.75000000  -0.00000000  1
  Ir  Ir1  1  0.75000000  0.25000000  -0.00000000  1
  Ir  Ir2  1  0.25000000  0.25000000  0.62744688  1
  Ir  Ir3  1  0.75000000  0.75000000  0.37255312  1
loop_
_geom_bond_atom_site_label_1
_geom_bond_atom_site_label_2
_geom_bond_distance
_geom_bond_site_symmetry_2
Ce0 Ir3 3.235173 1_555
Ce0 Ir3 3.235173 1_445
Ce0 Ir3 3.235173 1_545
Ce0 Ir3 3.235173 1_455
Ce0 Ge1 3.256481 1_555
Ce0 Ge0 3.256481 1_555
Ce0 Ge1 3.256481 1_455
Ce0 Ge0 3.256481 1_545
Ce0 Ge3 3.262983 1_545
Ce0 Ge3 3.262983 1_445
Ce0 Ge3 3.262983 1_555
Ce0 Ge3 3.262983 1_455
Ce0 Ir0 3.339989 1_545
Ce0 Ir0 3.339989 1_555
Ce0 Ir1 3.339989 1_455
Ce0 Ir1 3.339989 1_555
Ce1 Ir2 3.235173 1_655
Ce1 Ir2 3.235173 1_565
Ce1 Ir2 3.235173 1_665
Ce1 Ir2 3.235173 1_555
Ce1 Ge1 3.256481 1_555
Ce1 Ge0 3.256481 1_555
Ce1 Ge1 3.256481 1_565
Ce1 Ge0 3.256481 1_655
Ce1 Ge2 3.262983 1_665
Ce1 Ge2 3.262983 1_655
Ce1 Ge2 3.262983 1_555
Ce1 Ge2 3.262983 1_565
Ce1 Ir0 3.339989 1_656
Ce1 Ir1 3.339989 1_556
Ce1 Ir1 3.339989 1_566
Ce1 Ir0 3.339989 1_556
Ge0 Ir3 2.486970 1_555
Ge0 Ir3 2.486970 1_455
Ge0 Ir2 2.486970 1_565
Ge0 Ir2 2.486970 1_555
Ge1 Ir3 2.486970 1_555
Ge1 Ir3 2.486970 1_545
Ge1 Ir2 2.486970 1_555
Ge1 Ir2 2.486970 1_655
Ge2 Ir2 2.433453 1_555
Ge2 Ir1 2.505281 1_456
Ge2 Ir1 2.505281 1_556
Ge2 Ir0 2.505281 1_546
Ge2 Ir0 2.505281 1_556
Ge3 Ir3 2.433453 1_555
Ge3 Ir0 2.505281 1_655
Ge3 Ir1 2.505281 1_565
Ge3 Ir0 2.505281 1_555
Ge3 Ir1 2.505281 1_555
