# generated using pymatgen
data_K2BiMoPO8
_symmetry_space_group_name_H-M   'P 1'
_cell_length_a   12.35450837
_cell_length_b   12.35450837
_cell_length_c   12.35450837
_cell_angle_alpha   146.36388571
_cell_angle_beta   118.75539798
_cell_angle_gamma   71.72104957
_symmetry_Int_Tables_number   1
_chemical_formula_structural   K2BiMoPO8
_chemical_formula_sum   'K8 Bi4 Mo4 P4 O32'
_cell_volume   900.94380229
_cell_formula_units_Z   4
loop_
 _symmetry_equiv_pos_site_id
 _symmetry_equiv_pos_as_xyz
  1  'x, y, z'
loop_
 _atom_site_type_symbol
 _atom_site_label
 _atom_site_symmetry_multiplicity
 _atom_site_fract_x
 _atom_site_fract_y
 _atom_site_fract_z
 _atom_site_occupancy
  K  K0  1  0.26524800  0.81167800  0.38806000  1
  K  K1  1  0.42361800  0.31167800  0.04643000  1
  K  K2  1  0.07638200  0.12281100  0.88806000  1
  K  K3  1  0.73475200  0.18832200  0.61194000  1
  K  K4  1  0.92361800  0.87718900  0.11194000  1
  K  K5  1  0.23475200  0.62281100  0.54643000  1
  K  K6  1  0.57638200  0.68832200  0.95357000  1
  K  K7  1  0.76524800  0.37718900  0.45357000  1
  Bi  Bi0  1  0.82966300  0.25000000  0.07966300  1
  Bi  Bi1  1  0.67033700  0.75000000  0.42033700  1
  Bi  Bi2  1  0.17033700  0.75000000  0.92033700  1
  Bi  Bi3  1  0.32966300  0.25000000  0.57966300  1
  Mo  Mo0  1  0.58207800  0.83207800  0.75000000  1
  Mo  Mo1  1  0.91792200  0.66792200  0.25000000  1
  Mo  Mo2  1  0.41792200  0.16792200  0.25000000  1
  Mo  Mo3  1  0.08207800  0.33207800  0.75000000  1
  P  P0  1  0.92705100  0.75000000  0.67705100  1
  P  P1  1  0.07294900  0.25000000  0.32294900  1
  P  P2  1  0.42705100  0.75000000  0.17705100  1
  P  P3  1  0.57294900  0.25000000  0.82294900  1
  O  O0  1  0.83791700  0.57072400  0.43110700  1
  O  O1  1  0.83421700  0.82024000  0.42028800  1
  O  O2  1  0.13961700  0.07072400  0.23280600  1
  O  O3  1  0.16208300  0.42927600  0.56889300  1
  O  O4  1  0.43822000  0.16184000  0.72322100  1
  O  O5  1  0.86038300  0.92927600  0.76719400  1
  O  O6  1  0.36038300  0.59319000  0.93110700  1
  O  O7  1  0.43861800  0.66184000  0.22362000  1
  O  O8  1  0.89995200  0.41392900  0.07971200  1
  O  O9  1  0.41976900  0.84156200  0.69777400  1
  O  O10  1  0.85621200  0.65843800  0.07820700  1
  O  O11  1  0.14378800  0.34156200  0.92179300  1
  O  O12  1  0.66578300  0.08607100  0.98602300  1
  O  O13  1  0.66208300  0.09319000  0.73280600  1
  O  O14  1  0.35621200  0.27800500  0.19777400  1
  O  O15  1  0.93822000  0.21499900  0.27638000  1
  O  O16  1  0.06178000  0.78500100  0.72362000  1
  O  O17  1  0.08023100  0.77800500  0.42179300  1
  O  O18  1  0.10004800  0.58607100  0.92028800  1
  O  O19  1  0.39995200  0.32024000  0.48602300  1
  O  O20  1  0.56138200  0.33816000  0.77638000  1
  O  O21  1  0.58023100  0.15843800  0.30222600  1
  O  O22  1  0.60004800  0.67976000  0.51397700  1
  O  O23  1  0.56178000  0.83816000  0.27677900  1
  O  O24  1  0.33421700  0.91392900  0.01397700  1
  O  O25  1  0.64378800  0.72199500  0.80222600  1
  O  O26  1  0.06138200  0.28500100  0.22322100  1
  O  O27  1  0.91976900  0.22199500  0.57820700  1
  O  O28  1  0.16578300  0.17976000  0.57971200  1
  O  O29  1  0.63961700  0.40681000  0.06889300  1
  O  O30  1  0.93861800  0.71499900  0.77677900  1
  O  O31  1  0.33791700  0.90681000  0.26719400  1
loop_
_geom_bond_atom_site_label_1
_geom_bond_atom_site_label_2
_geom_bond_distance
_geom_bond_site_symmetry_2
K0 O17 2.715392 1_555
K0 O7 2.753016 1_555
K0 O4 2.807985 1_565
K0 O28 3.026677 1_565
K0 O31 3.048158 1_555
K0 O9 3.079518 1_555
K0 O11 3.256930 1_554
K0 O18 3.275734 1_554
K1 O14 2.715392 1_555
K1 O4 2.753027 1_554
K1 O7 2.807983 1_555
K1 O22 3.026677 1_555
K1 O29 3.048170 1_555
K1 O11 3.079518 1_554
K1 O9 3.256930 1_544
K1 O12 3.275734 1_554
K2 O11 2.715404 1_555
K2 O16 2.753016 1_545
K2 O26 2.807971 1_556
K2 O8 3.026681 1_456
K2 O5 3.048169 1_445
K2 O14 3.079517 1_556
K2 O17 3.256932 1_545
K2 O1 3.275735 1_445
K3 O27 2.715392 1_555
K3 O20 2.753016 1_555
K3 O23 2.807985 1_545
K3 O1 3.026677 1_545
K3 O13 3.048158 1_555
K3 O21 3.079518 1_555
K3 O10 3.256930 1_556
K3 O8 3.275734 1_556
K4 O10 2.715404 1_555
K4 O15 2.753016 1_565
K4 O30 2.807971 1_554
K4 O18 3.026681 1_654
K4 O2 3.048169 1_665
K4 O25 3.079517 1_554
K4 O27 3.256932 1_565
K4 O28 3.275735 1_665
K5 O9 2.715400 1_555
K5 O26 2.753013 1_555
K5 O16 2.807983 1_555
K5 O24 3.026674 1_556
K5 O3 3.048158 1_555
K5 O17 3.079528 1_555
K5 O14 3.256929 1_555
K5 O19 3.275725 1_555
K6 O25 2.715392 1_555
K6 O23 2.753027 1_556
K6 O20 2.807983 1_555
K6 O19 3.026677 1_555
K6 O6 3.048170 1_555
K6 O10 3.079518 1_556
K6 O21 3.256930 1_566
K6 O24 3.275734 1_556
K7 O21 2.715400 1_555
K7 O30 2.753013 1_555
K7 O15 2.807983 1_555
K7 O12 3.026674 1_554
K7 O0 3.048158 1_555
K7 O27 3.079528 1_555
K7 O25 3.256929 1_555
K7 O22 3.275725 1_555
Bi0 O5 2.396426 1_544
Bi0 O0 2.396430 1_555
Bi0 O12 2.440584 1_554
Bi0 O8 2.440584 1_555
Bi0 O15 2.478373 1_555
Bi0 O26 2.478384 1_655
Bi0 O29 2.561047 1_555
Bi0 O13 2.561055 1_554
Bi1 O13 2.396428 1_565
Bi1 O29 2.396430 1_555
Bi1 O1 2.440584 1_555
Bi1 O22 2.440584 1_555
Bi1 O23 2.478373 1_555
Bi1 O7 2.478383 1_555
Bi1 O0 2.561047 1_555
Bi1 O5 2.561053 1_555
Bi2 O2 2.396426 1_566
Bi2 O3 2.396430 1_555
Bi2 O18 2.440584 1_555
Bi2 O24 2.440584 1_556
Bi2 O16 2.478373 1_555
Bi2 O30 2.478384 1_455
Bi2 O6 2.561047 1_555
Bi2 O31 2.561055 1_556
Bi3 O31 2.396428 1_545
Bi3 O6 2.396430 1_555
Bi3 O19 2.440584 1_555
Bi3 O28 2.440584 1_555
Bi3 O4 2.478373 1_555
Bi3 O20 2.478383 1_555
Bi3 O3 2.561047 1_555
Bi3 O2 2.561053 1_555
Mo0 O9 1.784576 1_555
Mo0 O25 1.784576 1_555
Mo0 O12 1.821252 1_565
Mo0 O22 1.821252 1_555
Mo1 O10 1.784576 1_555
Mo1 O17 1.784576 1_655
Mo1 O1 1.821252 1_555
Mo1 O8 1.821252 1_555
Mo2 O21 1.784576 1_555
Mo2 O14 1.784576 1_555
Mo2 O19 1.821252 1_555
Mo2 O24 1.821252 1_545
Mo3 O11 1.784576 1_555
Mo3 O27 1.784576 1_455
Mo3 O28 1.821252 1_555
Mo3 O18 1.821252 1_555
O0 P0 1.566911 1_555
O2 P1 1.566908 1_555
O3 P1 1.566911 1_555
O4 P3 1.550622 1_555
O5 P0 1.566908 1_555
O6 P2 1.566911 1_556
O7 P2 1.550626 1_555
O13 P3 1.566911 1_555
O15 P1 1.550622 1_655
O16 P0 1.550622 1_455
O20 P3 1.550626 1_555
O23 P2 1.550622 1_555
O26 P1 1.550627 1_555
O29 P3 1.566911 1_554
O30 P0 1.550627 1_555
O31 P2 1.566911 1_555
