# generated using pymatgen
data_LiAlS3(Cl2O3)2
_symmetry_space_group_name_H-M   'P 1'
_cell_length_a   9.75969600
_cell_length_b   10.24860900
_cell_length_c   13.69713400
_cell_angle_alpha   90.00000000
_cell_angle_beta   90.00000000
_cell_angle_gamma   90.00000000
_symmetry_Int_Tables_number   1
_chemical_formula_structural   LiAlS3(Cl2O3)2
_chemical_formula_sum   'Li4 Al4 S12 Cl16 O24'
_cell_volume   1370.03265640
_cell_formula_units_Z   4
loop_
 _symmetry_equiv_pos_site_id
 _symmetry_equiv_pos_as_xyz
  1  'x, y, z'
loop_
 _atom_site_type_symbol
 _atom_site_label
 _atom_site_symmetry_multiplicity
 _atom_site_fract_x
 _atom_site_fract_y
 _atom_site_fract_z
 _atom_site_occupancy
  Li  Li0  1  0.37541400  0.75000000  0.24591100  1
  Li  Li1  1  0.87541400  0.75000000  0.25408900  1
  Li  Li2  1  0.62458600  0.25000000  0.75408900  1
  Li  Li3  1  0.12458600  0.25000000  0.74591100  1
  Al  Al0  1  0.76122400  0.75000000  0.87123200  1
  Al  Al1  1  0.23877600  0.25000000  0.12876800  1
  Al  Al2  1  0.26122400  0.75000000  0.62876800  1
  Al  Al3  1  0.73877600  0.25000000  0.37123200  1
  S  S0  1  0.87249700  0.04268600  0.64603000  1
  S  S1  1  0.62750300  0.54268600  0.14603000  1
  S  S2  1  0.37523100  0.25000000  0.56566500  1
  S  S3  1  0.62476900  0.75000000  0.43433500  1
  S  S4  1  0.37249700  0.45731400  0.85397000  1
  S  S5  1  0.37249700  0.04268600  0.85397000  1
  S  S6  1  0.12750300  0.95731400  0.35397000  1
  S  S7  1  0.62750300  0.95731400  0.14603000  1
  S  S8  1  0.12750300  0.54268600  0.35397000  1
  S  S9  1  0.12476900  0.75000000  0.06566500  1
  S  S10  1  0.87523100  0.25000000  0.93433500  1
  S  S11  1  0.87249700  0.45731400  0.64603000  1
  Cl  Cl0  1  0.87658100  0.57805300  0.90945300  1
  Cl  Cl1  1  0.21902300  0.75000000  0.78319100  1
  Cl  Cl2  1  0.28097700  0.25000000  0.28319100  1
  Cl  Cl3  1  0.07214800  0.75000000  0.54456300  1
  Cl  Cl4  1  0.71902300  0.75000000  0.71680900  1
  Cl  Cl5  1  0.12341900  0.07805300  0.09054700  1
  Cl  Cl6  1  0.62341900  0.07805300  0.40945300  1
  Cl  Cl7  1  0.78097700  0.25000000  0.21680900  1
  Cl  Cl8  1  0.87658100  0.92194700  0.90945300  1
  Cl  Cl9  1  0.92785200  0.25000000  0.45543700  1
  Cl  Cl10  1  0.62341900  0.42194700  0.40945300  1
  Cl  Cl11  1  0.57214800  0.75000000  0.95543700  1
  Cl  Cl12  1  0.12341900  0.42194700  0.09054700  1
  Cl  Cl13  1  0.37658100  0.92194700  0.59054700  1
  Cl  Cl14  1  0.42785200  0.25000000  0.04456300  1
  Cl  Cl15  1  0.37658100  0.57805300  0.59054700  1
  O  O0  1  0.75878200  0.75000000  0.38815400  1
  O  O1  1  0.25878200  0.75000000  0.11184600  1
  O  O2  1  0.99652300  0.59162400  0.31940000  1
  O  O3  1  0.00644000  0.75000000  0.12946700  1
  O  O4  1  0.25039800  0.10618500  0.81674600  1
  O  O5  1  0.49356000  0.25000000  0.62946700  1
  O  O6  1  0.50347700  0.40837600  0.81940000  1
  O  O7  1  0.49652300  0.59162400  0.18060000  1
  O  O8  1  0.00347700  0.09162400  0.68060000  1
  O  O9  1  0.24960200  0.89381500  0.31674600  1
  O  O10  1  0.99356000  0.25000000  0.87053300  1
  O  O11  1  0.00347700  0.40837600  0.68060000  1
  O  O12  1  0.50644000  0.75000000  0.37053300  1
  O  O13  1  0.74960200  0.89381500  0.18325400  1
  O  O14  1  0.24121800  0.25000000  0.61184600  1
  O  O15  1  0.74960200  0.60618500  0.18325400  1
  O  O16  1  0.50347700  0.09162400  0.81940000  1
  O  O17  1  0.49652300  0.90837600  0.18060000  1
  O  O18  1  0.75039800  0.10618500  0.68325400  1
  O  O19  1  0.75039800  0.39381500  0.68325400  1
  O  O20  1  0.74121800  0.25000000  0.88815400  1
  O  O21  1  0.25039800  0.39381500  0.81674600  1
  O  O22  1  0.24960200  0.60618500  0.31674600  1
  O  O23  1  0.99652300  0.90837600  0.31940000  1
loop_
_geom_bond_atom_site_label_1
_geom_bond_atom_site_label_2
_geom_bond_distance
_geom_bond_site_symmetry_2
Li0 O12 2.132836 1_555
Li0 O9 2.149757 1_555
Li0 O22 2.149757 1_555
Li0 O1 2.160493 1_555
Li0 O17 2.198162 1_555
Li0 O7 2.198162 1_555
Li1 O3 2.132836 1_655
Li1 O13 2.149757 1_555
Li1 O15 2.149757 1_555
Li1 O0 2.160493 1_555
Li1 O23 2.198162 1_555
Li1 O2 2.198162 1_555
Li2 O5 2.132836 1_555
Li2 O19 2.149757 1_555
Li2 O18 2.149757 1_555
Li2 O20 2.160493 1_555
Li2 O6 2.198162 1_555
Li2 O16 2.198162 1_555
Li3 O10 2.132836 1_455
Li3 O21 2.149757 1_555
Li3 O4 2.149757 1_555
Li3 O14 2.160493 1_555
Li3 O11 2.198162 1_555
Li3 O8 2.198162 1_555
Al0 Cl4 2.154880 1_555
Al0 Cl8 2.155694 1_555
Al0 Cl0 2.155694 1_555
Al0 Cl11 2.176115 1_555
Al1 Cl2 2.154880 1_555
Al1 Cl12 2.155694 1_555
Al1 Cl5 2.155694 1_555
Al1 Cl14 2.176115 1_555
Al2 Cl1 2.154880 1_555
Al2 Cl13 2.155694 1_555
Al2 Cl15 2.155694 1_555
Al2 Cl3 2.176115 1_555
Al3 Cl7 2.154880 1_555
Al3 Cl10 2.155694 1_555
Al3 Cl6 2.155694 1_555
Al3 Cl9 2.176115 1_555
O0 S3 1.452855 1_555
O1 S9 1.452855 1_555
O2 S8 1.452541 1_655
O3 S9 1.448240 1_555
O4 S5 1.450344 1_555
O5 S2 1.448240 1_555
O6 S4 1.452541 1_555
O7 S1 1.452541 1_555
O8 S0 1.452541 1_455
O9 S6 1.450344 1_555
O10 S10 1.448240 1_555
O11 S11 1.452541 1_455
O12 S3 1.448240 1_555
O13 S7 1.450344 1_555
O14 S2 1.452855 1_555
O15 S1 1.450344 1_555
O16 S5 1.452541 1_555
O17 S7 1.452541 1_555
O18 S0 1.450344 1_555
O19 S11 1.450344 1_555
O20 S10 1.452855 1_555
O21 S4 1.450344 1_555
O22 S8 1.450344 1_555
O23 S6 1.452541 1_655
