# generated using pymatgen
data_Y2Ti2O7
_symmetry_space_group_name_H-M   'P 1'
_cell_length_a   7.14307900
_cell_length_b   7.14307900
_cell_length_c   7.14307900
_cell_angle_alpha   60.00000000
_cell_angle_beta   60.00000000
_cell_angle_gamma   60.00000000
_symmetry_Int_Tables_number   1
_chemical_formula_structural   Y2Ti2O7
_chemical_formula_sum   'Y4 Ti4 O14'
_cell_volume   257.71598822
_cell_formula_units_Z   2
loop_
 _symmetry_equiv_pos_site_id
 _symmetry_equiv_pos_as_xyz
  1  'x, y, z'
loop_
 _atom_site_type_symbol
 _atom_site_label
 _atom_site_symmetry_multiplicity
 _atom_site_fract_x
 _atom_site_fract_y
 _atom_site_fract_z
 _atom_site_occupancy
  Y  Y0  1  0.12500000  0.12500000  0.62500000  1
  Y  Y1  1  0.12500000  0.62500000  0.12500000  1
  Y  Y2  1  0.62500000  0.12500000  0.12500000  1
  Y  Y3  1  0.12500000  0.12500000  0.12500000  1
  Ti  Ti0  1  0.62500000  0.62500000  0.12500000  1
  Ti  Ti1  1  0.62500000  0.12500000  0.62500000  1
  Ti  Ti2  1  0.12500000  0.62500000  0.62500000  1
  Ti  Ti3  1  0.62500000  0.62500000  0.62500000  1
  O  O0  1  0.25000000  0.25000000  0.25000000  1
  O  O1  1  0.00000000  -0.00000000  0.00000000  1
  O  O2  1  0.54507462  0.95492538  0.54507462  1
  O  O3  1  0.29507462  0.70492538  0.29507462  1
  O  O4  1  0.54507462  0.54507462  0.95492538  1
  O  O5  1  0.95492538  0.54507462  0.54507462  1
  O  O6  1  0.54507462  0.95492538  0.95492538  1
  O  O7  1  0.95492538  0.95492538  0.54507462  1
  O  O8  1  0.95492538  0.54507462  0.95492538  1
  O  O9  1  0.70492538  0.29507462  0.29507462  1
  O  O10  1  0.29507462  0.70492538  0.70492538  1
  O  O11  1  0.70492538  0.29507462  0.70492538  1
  O  O12  1  0.29507462  0.29507462  0.70492538  1
  O  O13  1  0.70492538  0.70492538  0.29507462  1
loop_
_geom_bond_atom_site_label_1
_geom_bond_atom_site_label_2
_geom_bond_distance
_geom_bond_site_symmetry_2
O0 Y1 2.187112 1_555
O0 Y3 2.187112 1_555
O0 Y0 2.187112 1_555
O0 Y2 2.187112 1_555
O1 Y2 2.187112 1_455
O1 Y3 2.187112 1_555
O1 Y1 2.187112 1_545
O1 Y0 2.187112 1_554
O2 Ti1 1.959811 1_565
O2 Ti3 1.959811 1_555
O2 Y0 2.478049 1_565
O2 Y2 2.478049 1_565
O3 Ti0 1.959811 1_555
O3 Ti2 1.959811 1_555
O3 Y3 2.478049 1_565
O3 Y1 2.478049 1_555
O4 Ti0 1.959811 1_556
O4 Ti3 1.959811 1_555
O4 Y1 2.478049 1_556
O4 Y2 2.478049 1_556
O5 Ti2 1.959811 1_655
O5 Ti3 1.959811 1_555
O5 Y0 2.478049 1_655
O5 Y1 2.478049 1_655
O6 Ti1 1.959811 1_565
O6 Ti0 1.959811 1_556
O6 Y2 2.478049 1_566
O6 Y3 2.478049 1_566
O7 Ti2 1.959811 1_655
O7 Ti1 1.959811 1_565
O7 Y0 2.478049 1_665
O7 Y3 2.478049 1_665
O8 Ti2 1.959811 1_655
O8 Ti0 1.959811 1_556
O8 Y1 2.478049 1_656
O8 Y3 2.478049 1_656
O9 Ti1 1.959811 1_555
O9 Ti0 1.959811 1_555
O9 Y2 2.478049 1_555
O9 Y3 2.478049 1_655
O10 Ti3 1.959811 1_555
O10 Ti2 1.959811 1_555
O10 Y0 2.478049 1_565
O10 Y1 2.478049 1_556
O11 Ti3 1.959811 1_555
O11 Ti1 1.959811 1_555
O11 Y0 2.478049 1_655
O11 Y2 2.478049 1_556
O12 Ti1 1.959811 1_555
O12 Ti2 1.959811 1_555
O12 Y0 2.478049 1_555
O12 Y3 2.478049 1_556
O13 Ti3 1.959811 1_555
O13 Ti0 1.959811 1_555
O13 Y2 2.478049 1_565
O13 Y1 2.478049 1_655
