# generated using pymatgen
data_Rb2CoF4
_symmetry_space_group_name_H-M   'P 1'
_cell_length_a   4.20373400
_cell_length_b   4.20373400
_cell_length_c   7.54883784
_cell_angle_alpha   106.16687287
_cell_angle_beta   106.16687287
_cell_angle_gamma   90.00000000
_symmetry_Int_Tables_number   1
_chemical_formula_structural   Rb2CoF4
_chemical_formula_sum   'Rb2 Co1 F4'
_cell_volume   122.62111949
_cell_formula_units_Z   1
loop_
 _symmetry_equiv_pos_site_id
 _symmetry_equiv_pos_as_xyz
  1  'x, y, z'
loop_
 _atom_site_type_symbol
 _atom_site_label
 _atom_site_symmetry_multiplicity
 _atom_site_fract_x
 _atom_site_fract_y
 _atom_site_fract_z
 _atom_site_occupancy
  Rb  Rb0  1  0.64524600  0.64524600  0.29049200  1
  Rb  Rb1  1  0.35475400  0.35475400  0.70950800  1
  Co  Co0  1  0.00000000  0.00000000  0.00000000  1
  F  F0  1  0.50000000  0.00000000  0.00000000  1
  F  F1  1  0.00000000  0.50000000  0.00000000  1
  F  F2  1  0.85329000  0.85329000  0.70658000  1
  F  F3  1  0.14671000  0.14671000  0.29342000  1
loop_
_geom_bond_atom_site_label_1
_geom_bond_atom_site_label_2
_geom_bond_distance
_geom_bond_site_symmetry_2
Co0 F2 2.036032 1_444
Co0 F3 2.036032 1_555
Co0 F1 2.101867 1_545
Co0 F0 2.101867 1_455
Co0 F0 2.101867 1_555
Co0 F1 2.101867 1_555
F0 Rb1 2.912207 1_544
F0 Rb0 2.912207 1_555
F0 Rb1 2.912207 1_554
F0 Rb0 2.912207 1_545
F1 Rb1 2.912207 1_454
F1 Rb0 2.912207 1_455
F1 Rb0 2.912207 1_555
F1 Rb1 2.912207 1_554
F2 Rb0 2.887221 1_555
F2 Rb1 2.972558 1_655
F2 Rb1 2.972558 1_565
F2 Rb1 2.972558 1_665
F2 Rb1 2.972558 1_555
F3 Rb1 2.887221 1_555
F3 Rb0 2.972558 1_445
F3 Rb0 2.972558 1_455
F3 Rb0 2.972558 1_555
F3 Rb0 2.972558 1_545
