# generated using pymatgen
data_K2BeH4(SO5)2
_symmetry_space_group_name_H-M   'P 1'
_cell_length_a   11.72969000
_cell_length_b   7.38522900
_cell_length_c   11.21632896
_cell_angle_alpha   84.60100465
_cell_angle_beta   90.00000000
_cell_angle_gamma   90.00000000
_symmetry_Int_Tables_number   1
_chemical_formula_structural   K2BeH4(SO5)2
_chemical_formula_sum   'K8 Be4 H16 S8 O40'
_cell_volume   967.32019485
_cell_formula_units_Z   4
loop_
 _symmetry_equiv_pos_site_id
 _symmetry_equiv_pos_as_xyz
  1  'x, y, z'
loop_
 _atom_site_type_symbol
 _atom_site_label
 _atom_site_symmetry_multiplicity
 _atom_site_fract_x
 _atom_site_fract_y
 _atom_site_fract_z
 _atom_site_occupancy
  K  K0  1  0.76013500  0.98045000  0.90910600  1
  K  K1  1  0.26013500  0.51955000  0.09089400  1
  K  K2  1  0.23986500  0.01955000  0.09089400  1
  K  K3  1  0.73986500  0.48045000  0.90910600  1
  K  K4  1  0.90399700  0.31690900  0.60784500  1
  K  K5  1  0.40399700  0.18309100  0.39215500  1
  K  K6  1  0.09600300  0.68309100  0.39215500  1
  K  K7  1  0.59600300  0.81690900  0.60784500  1
  Be  Be0  1  0.91763300  0.08864000  0.23673000  1
  Be  Be1  1  0.41763300  0.41136000  0.76327000  1
  Be  Be2  1  0.08236700  0.91136000  0.76327000  1
  Be  Be3  1  0.58236700  0.58864000  0.23673000  1
  H  H0  1  0.52020500  0.79972700  0.09136300  1
  H  H1  1  0.02020500  0.70027300  0.90863700  1
  H  H2  1  0.47979500  0.20027300  0.90863700  1
  H  H3  1  0.97979500  0.29972700  0.09136300  1
  H  H4  1  0.58872200  0.90387400  0.19002200  1
  H  H5  1  0.08872200  0.59612600  0.80997800  1
  H  H6  1  0.41127800  0.09612600  0.80997800  1
  H  H7  1  0.91127800  0.40387400  0.19002200  1
  H  H8  1  0.76846300  0.60779100  0.29850600  1
  H  H9  1  0.26846300  0.89220900  0.70149400  1
  H  H10  1  0.81401800  0.02621600  0.41121000  1
  H  H11  1  0.73153700  0.10779100  0.29850600  1
  H  H12  1  0.68598200  0.52621600  0.41121000  1
  H  H13  1  0.18598200  0.97378400  0.58879000  1
  H  H14  1  0.31401800  0.47378400  0.58879000  1
  H  H15  1  0.23153700  0.39220900  0.70149400  1
  S  S0  1  0.94652500  0.74979300  0.12772800  1
  S  S1  1  0.44652500  0.75020700  0.87227200  1
  S  S2  1  0.05347500  0.25020700  0.87227200  1
  S  S3  1  0.55347500  0.24979300  0.12772800  1
  S  S4  1  0.88487300  0.82336700  0.63498800  1
  S  S5  1  0.38487300  0.67663300  0.36501200  1
  S  S6  1  0.11512700  0.17663300  0.36501200  1
  S  S7  1  0.61512700  0.32336700  0.63498800  1
  O  O0  1  0.39941500  0.87885200  0.77275100  1
  O  O1  1  0.57179300  0.74764800  0.86493100  1
  O  O2  1  0.92820700  0.24764800  0.86493100  1
  O  O3  1  0.42820700  0.25235200  0.13506900  1
  O  O4  1  0.90777300  0.69647300  0.00968100  1
  O  O5  1  0.40777300  0.80352700  0.99031900  1
  O  O6  1  0.09222700  0.30352700  0.99031900  1
  O  O7  1  0.59222700  0.19647300  0.00968100  1
  O  O8  1  0.89941500  0.62114800  0.22724900  1
  O  O9  1  0.07179300  0.75235200  0.13506900  1
  O  O10  1  0.10058500  0.37885200  0.77275100  1
  O  O11  1  0.60058500  0.12114800  0.22724900  1
  O  O12  1  0.89755900  0.93734200  0.13966400  1
  O  O13  1  0.39755900  0.56265800  0.86033600  1
  O  O14  1  0.10244100  0.06265800  0.86033600  1
  O  O15  1  0.60244100  0.43734200  0.13966400  1
  O  O16  1  0.95081600  0.68588200  0.57832000  1
  O  O17  1  0.45081600  0.81411800  0.42168000  1
  O  O18  1  0.04918400  0.31411800  0.42168000  1
  O  O19  1  0.54918400  0.18588200  0.57832000  1
  O  O20  1  0.81196800  0.74156500  0.73339700  1
  O  O21  1  0.31196800  0.75843500  0.26660300  1
  O  O22  1  0.18803200  0.25843500  0.26660300  1
  O  O23  1  0.68803200  0.24156500  0.73339700  1
  O  O24  1  0.81353600  0.93805900  0.54782800  1
  O  O25  1  0.31353600  0.56194100  0.45217200  1
  O  O26  1  0.18646400  0.06194100  0.45217200  1
  O  O27  1  0.68646400  0.43805900  0.54782800  1
  O  O28  1  0.96758400  0.95648300  0.68777900  1
  O  O29  1  0.46758400  0.54351700  0.31222100  1
  O  O30  1  0.03241600  0.04351700  0.31222100  1
  O  O31  1  0.53241600  0.45648300  0.68777900  1
  O  O32  1  0.81093700  0.09594100  0.32949900  1
  O  O33  1  0.31093700  0.40405900  0.67050100  1
  O  O34  1  0.18906300  0.90405900  0.67050100  1
  O  O35  1  0.68906300  0.59594100  0.32949900  1
  O  O36  1  0.91818300  0.28558500  0.15334500  1
  O  O37  1  0.58181700  0.78558500  0.15334500  1
  O  O38  1  0.08181700  0.71441500  0.84665500  1
  O  O39  1  0.41818300  0.21441500  0.84665500  1
loop_
_geom_bond_atom_site_label_1
_geom_bond_atom_site_label_2
_geom_bond_distance
_geom_bond_site_symmetry_2
K0 O23 2.757335 1_565
K0 O2 2.800364 1_565
K0 O20 2.832050 1_555
K0 O7 2.834686 1_566
K0 O4 2.867875 1_556
K0 O1 2.870945 1_555
K0 O12 3.038462 1_556
K1 O22 2.757335 1_555
K1 O3 2.800364 1_555
K1 O21 2.832050 1_555
K1 O6 2.834686 1_554
K1 O5 2.867875 1_554
K1 O9 2.870945 1_555
K1 O13 3.038462 1_554
K2 O21 2.757335 1_545
K2 O9 2.800364 1_545
K2 O22 2.832050 1_555
K2 O5 2.834686 1_544
K2 O6 2.867875 1_554
K2 O3 2.870945 1_555
K2 O14 3.038462 1_554
K3 O20 2.757335 1_555
K3 O1 2.800364 1_555
K3 O23 2.832050 1_555
K3 O4 2.834686 1_556
K3 O7 2.867875 1_556
K3 O2 2.870945 1_555
K3 O15 3.038462 1_556
K4 O18 2.696078 1_655
K4 O27 2.766040 1_555
K4 O16 2.768898 1_555
K4 O28 2.827785 1_545
K4 O2 2.894762 1_555
K4 O23 2.926157 1_555
K4 O10 3.017767 1_655
K4 O24 3.124371 1_545
K5 O19 2.696078 1_555
K5 O26 2.766040 1_555
K5 O17 2.768898 1_545
K5 O29 2.827785 1_555
K5 O3 2.894762 1_555
K5 O22 2.926157 1_555
K5 O11 3.017767 1_555
K5 O25 3.124371 1_555
K6 O16 2.696078 1_455
K6 O25 2.766040 1_555
K6 O18 2.768898 1_555
K6 O30 2.827785 1_565
K6 O9 2.894762 1_555
K6 O21 2.926157 1_555
K6 O8 3.017767 1_455
K6 O26 3.124371 1_565
K7 O17 2.696078 1_555
K7 O24 2.766040 1_555
K7 O19 2.768898 1_565
K7 O31 2.827785 1_555
K7 O1 2.894762 1_555
K7 O20 2.926157 1_555
K7 O0 3.017767 1_555
K7 O27 3.124371 1_555
Be0 O30 1.608607 1_655
Be0 O32 1.631699 1_555
Be0 O12 1.648698 1_545
Be0 O36 1.653575 1_555
Be1 O31 1.608607 1_555
Be1 O33 1.631699 1_555
Be1 O13 1.648698 1_555
Be1 O39 1.653575 1_555
Be2 O28 1.608607 1_455
Be2 O34 1.631699 1_555
Be2 O14 1.648698 1_565
Be2 O38 1.653575 1_555
Be3 O29 1.608607 1_555
Be3 O35 1.631699 1_555
Be3 O15 1.648698 1_555
Be3 O37 1.653575 1_555
H0 O37 1.001420 1_555
H1 O38 1.001420 1_555
H2 O39 1.001420 1_555
H3 O36 1.001420 1_555
H4 O37 1.003287 1_555
H5 O38 1.003287 1_555
H6 O39 1.003287 1_555
H7 O36 1.003287 1_555
H8 O35 0.995072 1_555
H9 O34 0.995072 1_555
H10 O32 1.008772 1_555
H10 O24 1.607568 1_545
H11 O32 0.995072 1_555
H12 O35 1.008772 1_555
H12 O27 1.607568 1_555
H13 O34 1.008772 1_555
H13 O26 1.607568 1_565
H14 O33 1.008772 1_555
H14 O25 1.607568 1_555
H15 O33 0.995072 1_555
O0 S1 1.501484 1_555
O1 S1 1.471881 1_555
O2 S2 1.471881 1_655
O3 S3 1.471881 1_555
O4 S0 1.487586 1_555
O5 S1 1.487586 1_555
O6 S2 1.487586 1_555
O7 S3 1.487586 1_555
O8 S0 1.501484 1_555
O9 S0 1.471881 1_455
O10 S2 1.501484 1_555
O11 S3 1.501484 1_555
O12 S0 1.516965 1_555
O13 S1 1.516965 1_555
O14 S2 1.516965 1_555
O15 S3 1.516965 1_555
O16 S4 1.467884 1_555
O17 S5 1.467884 1_555
O18 S6 1.467884 1_555
O19 S7 1.467884 1_555
O20 S4 1.479567 1_555
O21 S5 1.479567 1_555
O22 S6 1.479567 1_555
O23 S7 1.479567 1_555
O24 S4 1.489137 1_555
O25 S5 1.489137 1_555
O26 S6 1.489137 1_555
O27 S7 1.489137 1_555
O28 S4 1.538785 1_555
O29 S5 1.538785 1_555
O30 S6 1.538785 1_555
O31 S7 1.538785 1_555
