# generated using pymatgen
data_Ta2Hg2F11
_symmetry_space_group_name_H-M   'P 1'
_cell_length_a   12.10659498
_cell_length_b   12.10659498
_cell_length_c   14.47601801
_cell_angle_alpha   55.03393846
_cell_angle_beta   55.03393846
_cell_angle_gamma   35.76532924
_symmetry_Int_Tables_number   1
_chemical_formula_structural   Ta2Hg2F11
_chemical_formula_sum   'Ta8 Hg8 F44'
_cell_volume   990.03419318
_cell_formula_units_Z   4
loop_
 _symmetry_equiv_pos_site_id
 _symmetry_equiv_pos_as_xyz
  1  'x, y, z'
loop_
 _atom_site_type_symbol
 _atom_site_label
 _atom_site_symmetry_multiplicity
 _atom_site_fract_x
 _atom_site_fract_y
 _atom_site_fract_z
 _atom_site_occupancy
  Ta  Ta0  1  0.38312464  0.91759951  0.48207946  1
  Ta  Ta1  1  0.09269726  0.69902739  0.62962069  1
  Ta  Ta2  1  0.08240049  0.61687536  0.01792054  1
  Ta  Ta3  1  0.30097261  0.90730274  0.87037931  1
  Ta  Ta4  1  0.69902739  0.09269726  0.12962069  1
  Ta  Ta5  1  0.61687536  0.08240049  0.51792054  1
  Ta  Ta6  1  0.91759951  0.38312464  0.98207946  1
  Ta  Ta7  1  0.90730274  0.30097261  0.37037931  1
  Hg  Hg0  1  0.04627253  0.53722166  0.37445906  1
  Hg  Hg1  1  0.53722166  0.04627253  0.87445906  1
  Hg  Hg2  1  0.33875346  0.79678811  0.21357156  1
  Hg  Hg3  1  0.79678811  0.33875346  0.71357156  1
  Hg  Hg4  1  0.66124654  0.20321189  0.78642844  1
  Hg  Hg5  1  0.95372747  0.46277834  0.62554094  1
  Hg  Hg6  1  0.46277834  0.95372747  0.12554094  1
  Hg  Hg7  1  0.20321189  0.66124654  0.28642844  1
  F  F0  1  0.87551342  0.45792838  0.40554130  1
  F  F1  1  0.20950947  0.38847212  0.00246586  1
  F  F2  1  0.61152788  0.79049053  0.49753414  1
  F  F3  1  0.41031793  0.70924708  0.57975026  1
  F  F4  1  0.22263784  0.03481328  0.60931589  1
  F  F5  1  0.54207162  0.12448658  0.09445870  1
  F  F6  1  0.48800179  0.83400749  0.35071717  1
  F  F7  1  0.79049053  0.61152788  0.99753414  1
  F  F8  1  0.25791779  0.69350178  0.48402535  1
  F  F9  1  0.29075292  0.58968207  0.92024974  1
  F  F10  1  0.49542687  0.72013830  0.78448044  1
  F  F11  1  0.83400749  0.48800179  0.85071717  1
  F  F12  1  0.09274270  0.99808652  0.85302649  1
  F  F13  1  0.88781506  0.73618259  0.75488384  1
  F  F14  1  0.90725730  0.00191348  0.14697351  1
  F  F15  1  0.77736216  0.96518672  0.39068411  1
  F  F16  1  0.11218494  0.26381741  0.24511616  1
  F  F17  1  0.03481328  0.22263784  0.10931589  1
  F  F18  1  0.96518672  0.77736216  0.89068411  1
  F  F19  1  0.74208221  0.30649822  0.51597465  1
  F  F20  1  0.99808652  0.09274270  0.35302649  1
  F  F21  1  0.00191348  0.90725730  0.64697351  1
  F  F22  1  0.27986170  0.50457313  0.71551956  1
  F  F23  1  0.12226689  0.07499278  0.46510864  1
  F  F24  1  0.12448658  0.54207162  0.59445870  1
  F  F25  1  0.07499278  0.12226689  0.96510864  1
  F  F26  1  0.58968207  0.29075292  0.42024974  1
  F  F27  1  0.50457313  0.27986170  0.21551956  1
  F  F28  1  0.69350178  0.25791779  0.98402535  1
  F  F29  1  0.51199821  0.16599251  0.64928283  1
  F  F30  1  0.30649822  0.74208221  0.01597465  1
  F  F31  1  0.45792838  0.87551342  0.90554130  1
  F  F32  1  0.14623544  0.32314058  0.88120469  1
  F  F33  1  0.72013830  0.49542687  0.28448044  1
  F  F34  1  0.92500722  0.87773311  0.03489136  1
  F  F35  1  0.26381741  0.11218494  0.74511616  1
  F  F36  1  0.32314058  0.14623544  0.38120469  1
  F  F37  1  0.16599251  0.51199821  0.14928283  1
  F  F38  1  0.87773311  0.92500722  0.53489136  1
  F  F39  1  0.73618259  0.88781506  0.25488384  1
  F  F40  1  0.70924708  0.41031793  0.07975026  1
  F  F41  1  0.38847212  0.20950947  0.50246586  1
  F  F42  1  0.67685942  0.85376456  0.61879531  1
  F  F43  1  0.85376456  0.67685942  0.11879531  1
loop_
_geom_bond_atom_site_label_1
_geom_bond_atom_site_label_2
_geom_bond_distance
_geom_bond_site_symmetry_2
Hg0 Hg7 2.673936 1_555
Hg1 Hg4 2.673936 1_555
Hg2 Hg7 2.626833 1_555
Hg2 Hg6 2.673936 1_555
Hg3 Hg4 2.626833 1_555
Hg3 Hg5 2.673936 1_555
F0 Ta7 1.927494 1_555
F1 Ta2 1.863684 1_555
F2 Ta0 1.863684 1_555
F3 Ta0 1.888976 1_555
F4 Ta0 1.897598 1_545
F5 Ta4 1.927494 1_555
F6 Ta0 1.898811 1_555
F7 Ta6 1.863684 1_555
F8 Ta1 1.886798 1_555
F9 Ta2 1.888976 1_556
F10 Ta3 1.854771 1_555
F11 Ta6 1.898811 1_555
F12 Ta3 1.881285 1_555
F13 Ta1 1.900498 1_655
F14 Ta4 1.881285 1_555
F15 Ta5 1.897598 1_565
F16 Ta7 1.900498 1_455
F17 Ta6 1.897598 1_454
F18 Ta2 1.897598 1_656
F19 Ta7 1.886798 1_555
F20 Ta7 1.881285 1_555
F21 Ta1 1.881285 1_555
F22 Ta1 1.854771 1_555
F23 Ta0 2.061980 1_545
F23 Ta7 2.091424 1_455
F24 Ta1 1.927494 1_555
F25 Ta6 2.061980 1_455
F25 Ta3 2.091424 1_545
F26 Ta5 1.888976 1_555
F27 Ta4 1.854771 1_555
F28 Ta4 1.886798 1_556
F29 Ta5 1.898811 1_555
F30 Ta3 1.886798 1_554
F31 Ta3 1.927494 1_555
F32 Ta6 1.908416 1_455
F33 Ta7 1.854771 1_555
F34 Ta2 2.061980 1_655
F34 Ta4 2.091424 1_565
F35 Ta3 1.900498 1_545
F36 Ta0 1.908416 1_545
F37 Ta2 1.898811 1_555
F38 Ta5 2.061980 1_565
F38 Ta1 2.091424 1_655
F39 Ta4 1.900498 1_565
F40 Ta6 1.888976 1_554
F41 Ta5 1.863684 1_555
F42 Ta5 1.908416 1_565
F43 Ta2 1.908416 1_655
