# generated using pymatgen
data_Sr3P6(N4O3)2
_symmetry_space_group_name_H-M   'P 1'
_cell_length_a   7.36394437
_cell_length_b   7.36394437
_cell_length_c   6.11565800
_cell_angle_alpha   90.00000000
_cell_angle_beta   90.00000000
_cell_angle_gamma   120.00000330
_symmetry_Int_Tables_number   1
_chemical_formula_structural   Sr3P6(N4O3)2
_chemical_formula_sum   'Sr3 P6 N8 O6'
_cell_volume   287.20685791
_cell_formula_units_Z   1
loop_
 _symmetry_equiv_pos_site_id
 _symmetry_equiv_pos_as_xyz
  1  'x, y, z'
loop_
 _atom_site_type_symbol
 _atom_site_label
 _atom_site_symmetry_multiplicity
 _atom_site_fract_x
 _atom_site_fract_y
 _atom_site_fract_z
 _atom_site_occupancy
  Sr  Sr0  1  0.66666700  0.33333300  0.38307300  1
  Sr  Sr1  1  0.00000000  0.00000000  0.50000000  1
  Sr  Sr2  1  0.33333300  0.66666700  0.61692700  1
  P  P0  1  0.82391800  0.60184300  0.89018600  1
  P  P1  1  0.60184300  0.77792600  0.10981400  1
  P  P2  1  0.39815700  0.22207400  0.89018600  1
  P  P3  1  0.17608200  0.39815700  0.10981400  1
  P  P4  1  0.77792600  0.17608200  0.89018600  1
  P  P5  1  0.22207400  0.82391800  0.10981400  1
  N  N0  1  0.33078200  0.30349700  0.10427800  1
  N  N1  1  0.66921800  0.69650300  0.89572200  1
  N  N2  1  0.69650300  0.02728500  0.10427800  1
  N  N3  1  0.97271500  0.66921800  0.10427800  1
  N  N4  1  0.30349700  0.97271500  0.89572200  1
  N  N5  1  0.33333300  0.66666700  0.07988300  1
  N  N6  1  0.66666700  0.33333300  0.92011700  1
  N  N7  1  0.02728500  0.33078200  0.89572200  1
  O  O0  1  0.07475400  0.36313500  0.33778500  1
  O  O1  1  0.36313500  0.28838100  0.66221500  1
  O  O2  1  0.28838100  0.92524600  0.33778500  1
  O  O3  1  0.71161900  0.07475400  0.66221500  1
  O  O4  1  0.92524600  0.63686500  0.66221500  1
  O  O5  1  0.63686500  0.71161900  0.33778500  1
loop_
_geom_bond_atom_site_label_1
_geom_bond_atom_site_label_2
_geom_bond_distance
_geom_bond_site_symmetry_2
N0 P3 1.605908 1_555
N0 P2 1.617857 1_554
N0 Sr0 2.920583 1_555
N1 P0 1.605908 1_555
N1 P1 1.617857 1_556
N1 Sr2 2.920583 1_555
N2 P1 1.605901 1_545
N2 P4 1.617854 1_554
N2 Sr0 2.920577 1_555
N3 P5 1.605902 1_655
N3 P0 1.617853 1_554
N3 Sr0 2.920580 1_555
N4 P2 1.605901 1_565
N4 P5 1.617854 1_556
N4 Sr2 2.920577 1_555
N5 P3 1.730447 1_555
N5 P1 1.730447 1_555
N5 P5 1.730447 1_555
N5 Sr2 2.831281 1_554
N6 P0 1.730447 1_555
N6 P2 1.730447 1_555
N6 P4 1.730447 1_555
N6 Sr0 2.831281 1_556
N7 P4 1.605902 1_455
N7 P3 1.617853 1_556
N7 Sr2 2.920580 1_555
O0 P3 1.540981 1_555
O0 Sr1 2.639316 1_555
O0 Sr2 2.698160 1_555
O0 Sr0 2.914819 1_455
O1 P2 1.540984 1_555
O1 Sr1 2.639316 1_555
O1 Sr0 2.698162 1_555
O1 Sr2 2.914827 1_555
O2 P5 1.540982 1_555
O2 Sr1 2.639316 1_565
O2 Sr2 2.698156 1_555
O2 Sr0 2.914823 1_565
O3 P4 1.540982 1_555
O3 Sr1 2.639316 1_655
O3 Sr0 2.698156 1_555
O3 Sr2 2.914823 1_545
O4 P0 1.540981 1_555
O4 Sr1 2.639316 1_665
O4 Sr0 2.698160 1_555
O4 Sr2 2.914819 1_655
O5 P1 1.540984 1_555
O5 Sr1 2.639316 1_665
O5 Sr2 2.698162 1_555
O5 Sr0 2.914827 1_555
