# generated using pymatgen
data_CuBi(PSe3)2
_symmetry_space_group_name_H-M   'P 1'
_cell_length_a   6.61234050
_cell_length_b   6.61234050
_cell_length_c   14.73771000
_cell_angle_alpha   90.00000000
_cell_angle_beta   90.00000000
_cell_angle_gamma   120.00000504
_symmetry_Int_Tables_number   1
_chemical_formula_structural   CuBi(PSe3)2
_chemical_formula_sum   'Cu2 Bi2 P4 Se12'
_cell_volume   558.04733082
_cell_formula_units_Z   2
loop_
 _symmetry_equiv_pos_site_id
 _symmetry_equiv_pos_as_xyz
  1  'x, y, z'
loop_
 _atom_site_type_symbol
 _atom_site_label
 _atom_site_symmetry_multiplicity
 _atom_site_fract_x
 _atom_site_fract_y
 _atom_site_fract_z
 _atom_site_occupancy
  Cu  Cu0  1  0.00000000  0.00000000  0.75000000  1
  Cu  Cu1  1  0.00000000  0.00000000  0.25000000  1
  Bi  Bi0  1  0.33333300  0.66666700  0.75000000  1
  Bi  Bi1  1  0.66666700  0.33333300  0.25000000  1
  P  P0  1  0.66666700  0.33333300  0.82743700  1
  P  P1  1  0.66666700  0.33333300  0.67256300  1
  P  P2  1  0.33333300  0.66666700  0.17256300  1
  P  P3  1  0.33333300  0.66666700  0.32743700  1
  Se  Se0  1  0.67496400  0.96901100  0.13231500  1
  Se  Se1  1  0.70595200  0.03098900  0.63231500  1
  Se  Se2  1  0.03098900  0.32503600  0.36768500  1
  Se  Se3  1  0.96901100  0.29404800  0.86768500  1
  Se  Se4  1  0.29404800  0.96901100  0.36768500  1
  Se  Se5  1  0.32503600  0.03098900  0.86768500  1
  Se  Se6  1  0.70595200  0.67496400  0.86768500  1
  Se  Se7  1  0.03098900  0.70595200  0.13231500  1
  Se  Se8  1  0.96901100  0.67496400  0.63231500  1
  Se  Se9  1  0.29404800  0.32503600  0.13231500  1
  Se  Se10  1  0.32503600  0.29404800  0.63231500  1
  Se  Se11  1  0.67496400  0.70595200  0.36768500  1
loop_
_geom_bond_atom_site_label_1
_geom_bond_atom_site_label_2
_geom_bond_distance
_geom_bond_site_symmetry_2
Cu0 Se5 2.688685 1_555
Cu0 Se8 2.688685 1_445
Cu0 Se6 2.688687 1_445
Cu0 Se10 2.688687 1_555
Cu0 Se3 2.688690 1_455
Cu0 Se1 2.688690 1_455
Cu1 Se2 2.688685 1_555
Cu1 Se0 2.688685 1_445
Cu1 Se9 2.688687 1_555
Cu1 Se11 2.688687 1_445
Cu1 Se4 2.688690 1_545
Cu1 Se7 2.688690 1_545
Bi0 Se3 2.991108 1_455
Bi0 Se1 2.991108 1_565
Bi0 Se6 2.991108 1_555
Bi0 Se10 2.991108 1_555
Bi0 Se5 2.991108 1_565
Bi0 Se8 2.991108 1_455
Bi1 Se7 2.991108 1_655
Bi1 Se4 2.991108 1_545
Bi1 Se11 2.991108 1_555
Bi1 Se9 2.991108 1_555
Bi1 Se2 2.991108 1_655
Bi1 Se0 2.991108 1_545
P0 Se3 2.221588 1_555
P0 Se5 2.221595 1_555
P0 Se6 2.221600 1_555
P0 P1 2.282488 1_555
P1 Se1 2.221588 1_555
P1 Se8 2.221595 1_555
P1 Se10 2.221600 1_555
P2 Se7 2.221588 1_555
P2 Se0 2.221595 1_555
P2 Se9 2.221600 1_555
P2 P3 2.282488 1_555
P3 Se4 2.221588 1_555
P3 Se2 2.221595 1_555
P3 Se11 2.221600 1_555
