# generated using pymatgen
data_AgBiSCl2
_symmetry_space_group_name_H-M   'P 1'
_cell_length_a   4.07054200
_cell_length_b   7.37172987
_cell_length_c   8.70450200
_cell_angle_alpha   90.00000000
_cell_angle_beta   90.00000000
_cell_angle_gamma   106.02706325
_symmetry_Int_Tables_number   1
_chemical_formula_structural   AgBiSCl2
_chemical_formula_sum   'Ag2 Bi2 S2 Cl4'
_cell_volume   251.04313218
_cell_formula_units_Z   2
loop_
 _symmetry_equiv_pos_site_id
 _symmetry_equiv_pos_as_xyz
  1  'x, y, z'
loop_
 _atom_site_type_symbol
 _atom_site_label
 _atom_site_symmetry_multiplicity
 _atom_site_fract_x
 _atom_site_fract_y
 _atom_site_fract_z
 _atom_site_occupancy
  Ag  Ag0  1  0.00000000  0.00000000  0.50000000  1
  Ag  Ag1  1  0.00000000  0.00000000  0.00000000  1
  Bi  Bi0  1  0.29105300  0.58210600  0.75000000  1
  Bi  Bi1  1  0.70894700  0.41789400  0.25000000  1
  S  S0  1  0.91728900  0.83457800  0.75000000  1
  S  S1  1  0.08271100  0.16542200  0.25000000  1
  Cl  Cl0  1  0.65932700  0.31865400  0.56240200  1
  Cl  Cl1  1  0.34067300  0.68134600  0.43759800  1
  Cl  Cl2  1  0.34067300  0.68134600  0.06240200  1
  Cl  Cl3  1  0.65932700  0.31865400  0.93759800  1
loop_
_geom_bond_atom_site_label_1
_geom_bond_atom_site_label_2
_geom_bond_distance
_geom_bond_site_symmetry_2
Ag0 S1 2.471683 1_555
Ag0 S0 2.471683 1_445
Ag0 Cl0 3.087832 1_555
Ag0 Cl1 3.087832 1_545
Ag0 Cl1 3.087832 1_445
Ag0 Cl0 3.087832 1_455
Ag1 S1 2.471683 1_555
Ag1 S0 2.471683 1_444
Ag1 Cl2 3.087832 1_545
Ag1 Cl2 3.087832 1_445
Ag1 Cl3 3.087832 1_554
Ag1 Cl3 3.087832 1_454
Bi0 S0 2.709647 1_555
Bi0 S0 2.709647 1_455
Bi0 Cl1 2.808739 1_555
Bi0 Cl2 2.808739 1_556
Bi0 Cl3 3.208283 1_555
Bi0 Cl3 3.208283 1_455
Bi0 Cl0 3.208283 1_555
Bi0 Cl0 3.208283 1_455
Bi1 S1 2.709647 1_655
Bi1 S1 2.709647 1_555
Bi1 Cl0 2.808739 1_555
Bi1 Cl3 2.808739 1_554
Bi1 Cl1 3.208283 1_555
Bi1 Cl2 3.208283 1_555
Bi1 Cl1 3.208283 1_655
Bi1 Cl2 3.208283 1_655
