# generated using pymatgen
data_RbGd(WO4)2
_symmetry_space_group_name_H-M   'P 1'
_cell_length_a   7.69482844
_cell_length_b   7.69482844
_cell_length_c   7.53032625
_cell_angle_alpha   62.60776563
_cell_angle_beta   62.60776563
_cell_angle_gamma   88.91061868
_symmetry_Int_Tables_number   1
_chemical_formula_structural   RbGd(WO4)2
_chemical_formula_sum   'Rb2 Gd2 W4 O16'
_cell_volume   340.83554225
_cell_formula_units_Z   2
loop_
 _symmetry_equiv_pos_site_id
 _symmetry_equiv_pos_as_xyz
  1  'x, y, z'
loop_
 _atom_site_type_symbol
 _atom_site_label
 _atom_site_symmetry_multiplicity
 _atom_site_fract_x
 _atom_site_fract_y
 _atom_site_fract_z
 _atom_site_occupancy
  Rb  Rb0  1  0.20223800  0.79776200  0.75000000  1
  Rb  Rb1  1  0.79776200  0.20223800  0.25000000  1
  Gd  Gd0  1  0.77581800  0.22418200  0.75000000  1
  Gd  Gd1  1  0.22418200  0.77581800  0.25000000  1
  W  W0  1  0.69937300  0.68878000  0.78256400  1
  W  W1  1  0.31122000  0.30062700  0.71743600  1
  W  W2  1  0.30062700  0.31122000  0.21743600  1
  W  W3  1  0.68878000  0.69937300  0.28256400  1
  O  O0  1  0.40987500  0.62781600  0.03226500  1
  O  O1  1  0.37218400  0.59012500  0.46773500  1
  O  O2  1  0.59012500  0.37218400  0.96773500  1
  O  O3  1  0.62781600  0.40987500  0.53226500  1
  O  O4  1  0.93832800  0.62814000  0.62832100  1
  O  O5  1  0.37186000  0.06167200  0.87167900  1
  O  O6  1  0.06167200  0.37186000  0.37167900  1
  O  O7  1  0.62814000  0.93832800  0.12832100  1
  O  O8  1  0.62323600  0.75076100  0.56006700  1
  O  O9  1  0.24923900  0.37676400  0.93993300  1
  O  O10  1  0.37676400  0.24923900  0.43993300  1
  O  O11  1  0.75076100  0.62323600  0.06006700  1
  O  O12  1  0.77981000  0.95255100  0.69351000  1
  O  O13  1  0.04744900  0.22019000  0.80649000  1
  O  O14  1  0.22019000  0.04744900  0.30649000  1
  O  O15  1  0.95255100  0.77981000  0.19351000  1
loop_
_geom_bond_atom_site_label_1
_geom_bond_atom_site_label_2
_geom_bond_distance
_geom_bond_site_symmetry_2
Gd0 O13 2.313939 1_655
Gd0 O12 2.313939 1_545
Gd0 O2 2.351077 1_555
Gd0 O3 2.351077 1_555
Gd0 O6 2.365534 1_655
Gd0 O7 2.365534 1_546
Gd1 O14 2.313939 1_565
Gd1 O15 2.313939 1_455
Gd1 O1 2.351077 1_555
Gd1 O0 2.351077 1_555
Gd1 O5 2.365534 1_564
Gd1 O4 2.365534 1_455
O0 W0 2.022843 1_554
O0 W2 2.111726 1_555
O0 Rb0 3.044436 1_554
O1 W1 2.022843 1_555
O1 W3 2.111726 1_555
O1 Rb0 3.044436 1_555
O2 W2 2.022843 1_556
O2 W0 2.111726 1_555
O2 Rb1 3.044436 1_556
O3 W3 2.022843 1_555
O3 W1 2.111726 1_555
O3 Rb1 3.044436 1_555
O4 W0 1.857045 1_555
O4 Rb0 3.095235 1_655
O5 W1 1.857045 1_555
O5 Rb0 3.095235 1_545
O6 W2 1.857045 1_555
O6 Rb1 3.095235 1_455
O7 W3 1.857045 1_555
O7 Rb1 3.095235 1_565
O8 W0 1.880219 1_555
O8 W3 2.135530 1_555
O8 Rb0 2.973024 1_555
O8 Rb1 3.025296 1_565
O9 W1 1.880219 1_555
O9 W2 2.135530 1_556
O9 Rb0 2.973024 1_555
O9 Rb1 3.025296 1_456
O10 W2 1.880219 1_555
O10 W1 2.135530 1_555
O10 Rb1 2.973024 1_555
O10 Rb0 3.025296 1_545
O11 W3 1.880219 1_555
O11 W0 2.135530 1_554
O11 Rb1 2.973024 1_555
O11 Rb0 3.025296 1_654
O12 W0 1.834606 1_555
O12 Rb1 2.923313 1_565
O13 W1 1.834606 1_555
O13 Rb1 2.923313 1_456
O14 W2 1.834606 1_555
O14 Rb0 2.923313 1_545
O15 W3 1.834606 1_555
O15 Rb0 2.923313 1_654
