# generated using pymatgen
data_K2Ba(NO2)4
_symmetry_space_group_name_H-M   'P 1'
_cell_length_a   9.15385267
_cell_length_b   9.15385267
_cell_length_c   13.42388961
_cell_angle_alpha   68.67784116
_cell_angle_beta   68.67784116
_cell_angle_gamma   86.14740355
_symmetry_Int_Tables_number   1
_chemical_formula_structural   K2Ba(NO2)4
_chemical_formula_sum   'K8 Ba4 N16 O32'
_cell_volume   973.36686214
_cell_formula_units_Z   4
loop_
 _symmetry_equiv_pos_site_id
 _symmetry_equiv_pos_as_xyz
  1  'x, y, z'
loop_
 _atom_site_type_symbol
 _atom_site_label
 _atom_site_symmetry_multiplicity
 _atom_site_fract_x
 _atom_site_fract_y
 _atom_site_fract_z
 _atom_site_occupancy
  K  K0  1  0.42284500  0.92512100  0.16487600  1
  K  K1  1  0.07487900  0.57715500  0.83512400  1
  K  K2  1  0.08863500  0.58910500  0.33512400  1
  K  K3  1  0.57715500  0.07487900  0.83512400  1
  K  K4  1  0.41089500  0.91136500  0.66487600  1
  K  K5  1  0.58910500  0.08863500  0.33512400  1
  K  K6  1  0.91136500  0.41089500  0.66487600  1
  K  K7  1  0.92512100  0.42284500  0.16487600  1
  Ba  Ba0  1  0.50000000  0.50000000  0.00000000  1
  Ba  Ba1  1  0.50000000  0.50000000  0.50000000  1
  Ba  Ba2  1  0.00000000  0.00000000  0.00000000  1
  Ba  Ba3  1  0.00000000  0.00000000  0.50000000  1
  N  N0  1  0.26893900  0.73106100  0.50000000  1
  N  N1  1  0.49138500  0.49138500  0.76630900  1
  N  N2  1  0.26878400  0.73121600  0.00000000  1
  N  N3  1  0.76545600  0.76545600  0.00394500  1
  N  N4  1  0.24381100  0.24381100  0.26735100  1
  N  N5  1  0.76955800  0.76955800  0.49644500  1
  N  N6  1  0.73106100  0.26893900  0.50000000  1
  N  N7  1  0.23454400  0.23454400  0.99605500  1
  N  N8  1  0.74180000  0.74180000  0.26521000  1
  N  N9  1  0.99039900  0.99039900  0.76621700  1
  N  N10  1  0.25820000  0.25820000  0.73479000  1
  N  N11  1  0.23044200  0.23044200  0.50355500  1
  N  N12  1  0.50861500  0.50861500  0.23369100  1
  N  N13  1  0.73121600  0.26878400  0.00000000  1
  N  N14  1  0.00960100  0.00960100  0.23378300  1
  N  N15  1  0.75618900  0.75618900  0.73264900  1
  O  O0  1  0.09387000  0.92240000  0.28572400  1
  O  O1  1  0.92240000  0.09387000  0.28572400  1
  O  O2  1  0.90613000  0.07760000  0.71427600  1
  O  O3  1  0.30716900  0.87752900  0.44569700  1
  O  O4  1  0.36706900  0.19554300  0.50422800  1
  O  O5  1  0.62825800  0.79958700  0.00456300  1
  O  O6  1  0.69283100  0.12247100  0.55430300  1
  O  O7  1  0.80445700  0.63293100  0.49577200  1
  O  O8  1  0.70722800  0.87877000  0.21394300  1
  O  O9  1  0.79958700  0.62825800  0.00456300  1
  O  O10  1  0.12247100  0.69283100  0.55430300  1
  O  O11  1  0.29277200  0.12123000  0.78605700  1
  O  O12  1  0.37174200  0.20041300  0.99543700  1
  O  O13  1  0.20977100  0.38127400  0.21673000  1
  O  O14  1  0.20041300  0.37174200  0.99543700  1
  O  O15  1  0.38127400  0.20977100  0.21673000  1
  O  O16  1  0.87752900  0.30716900  0.44569700  1
  O  O17  1  0.74722000  0.17663500  0.94569800  1
  O  O18  1  0.63293100  0.80445700  0.49577200  1
  O  O19  1  0.59686100  0.42526600  0.28363800  1
  O  O20  1  0.17663500  0.74722000  0.94569800  1
  O  O21  1  0.07760000  0.90613000  0.71427600  1
  O  O22  1  0.19554300  0.36706900  0.50422800  1
  O  O23  1  0.40313900  0.57473400  0.71636200  1
  O  O24  1  0.42526600  0.59686100  0.28363800  1
  O  O25  1  0.57473400  0.40313900  0.71636200  1
  O  O26  1  0.82336500  0.25278000  0.05430200  1
  O  O27  1  0.25278000  0.82336500  0.05430200  1
  O  O28  1  0.87877000  0.70722800  0.21394300  1
  O  O29  1  0.61872600  0.79022900  0.78327000  1
  O  O30  1  0.12123000  0.29277200  0.78605700  1
  O  O31  1  0.79022900  0.61872600  0.78327000  1
loop_
_geom_bond_atom_site_label_1
_geom_bond_atom_site_label_2
_geom_bond_distance
_geom_bond_site_symmetry_2
K0 O5 2.837711 1_555
K0 O24 2.846790 1_555
K0 O0 2.851109 1_555
K0 O12 2.861766 1_564
K0 O8 2.878505 1_555
K0 O27 2.893970 1_555
K0 O15 2.900318 1_565
K1 O14 2.837711 1_555
K1 O23 2.846790 1_555
K1 O21 2.851109 1_555
K1 O9 2.861766 1_456
K1 O30 2.878505 1_555
K1 O20 2.893970 1_555
K1 O31 2.900318 1_455
K2 O7 2.826260 1_455
K2 O13 2.829937 1_555
K2 O28 2.867096 1_455
K2 O22 2.869620 1_555
K2 O0 2.876711 1_555
K2 O16 2.897670 1_455
K2 O24 2.902258 1_555
K3 O12 2.837711 1_555
K3 O25 2.846790 1_555
K3 O2 2.851109 1_555
K3 O5 2.861766 1_546
K3 O11 2.878505 1_555
K3 O17 2.893970 1_555
K3 O29 2.900318 1_545
K4 O4 2.826260 1_565
K4 O29 2.829937 1_555
K4 O11 2.867096 1_565
K4 O18 2.869620 1_555
K4 O21 2.876711 1_555
K4 O6 2.897670 1_565
K4 O23 2.902258 1_555
K5 O18 2.826260 1_545
K5 O15 2.829937 1_555
K5 O8 2.867096 1_545
K5 O4 2.869620 1_555
K5 O1 2.876711 1_555
K5 O3 2.897670 1_545
K5 O19 2.902258 1_555
K6 O22 2.826260 1_655
K6 O31 2.829937 1_555
K6 O30 2.867096 1_655
K6 O7 2.869620 1_555
K6 O2 2.876711 1_555
K6 O10 2.897670 1_655
K6 O25 2.902258 1_555
K7 O9 2.837711 1_555
K7 O19 2.846790 1_555
K7 O1 2.851109 1_555
K7 O14 2.861766 1_654
K7 O28 2.878505 1_555
K7 O26 2.893970 1_555
K7 O13 2.900318 1_655
Ba0 N2 2.890902 1_555
Ba0 N13 2.890902 1_555
Ba0 O29 3.028412 1_554
Ba0 O31 3.028412 1_554
Ba0 O13 3.028412 1_555
Ba0 O15 3.028412 1_555
Ba0 O5 3.083812 1_555
Ba0 O9 3.083812 1_555
Ba0 O14 3.083812 1_554
Ba0 O12 3.083812 1_554
Ba0 N12 3.195954 1_555
Ba0 N1 3.195954 1_554
Ba1 N0 2.888964 1_555
Ba1 N6 2.888964 1_555
Ba1 O23 3.029931 1_555
Ba1 O25 3.029931 1_555
Ba1 O24 3.029931 1_555
Ba1 O19 3.029931 1_555
Ba1 O22 3.088928 1_555
Ba1 O7 3.088928 1_555
Ba1 O18 3.088928 1_555
Ba1 O4 3.088928 1_555
Ba1 N8 3.200619 1_555
Ba1 N10 3.200619 1_555
Ba2 O26 2.892510 1_455
Ba2 O27 2.892510 1_545
Ba2 O17 2.892510 1_454
Ba2 O20 2.892510 1_544
Ba2 O28 3.024331 1_445
Ba2 O8 3.024331 1_445
Ba2 O30 3.024331 1_554
Ba2 O11 3.024331 1_554
Ba2 N7 3.110614 1_554
Ba2 N3 3.110614 1_445
Ba2 N14 3.204126 1_555
Ba2 N9 3.204126 1_444
Ba3 O3 2.893864 1_545
Ba3 O16 2.893864 1_455
Ba3 O6 2.893864 1_455
Ba3 O10 2.893864 1_545
Ba3 O0 3.020455 1_545
Ba3 O1 3.020455 1_455
Ba3 O21 3.020455 1_545
Ba3 O2 3.020455 1_455
Ba3 N11 3.105809 1_555
Ba3 N5 3.105809 1_445
Ba3 N15 3.201122 1_445
Ba3 N4 3.201122 1_555
N0 O10 1.272098 1_555
N0 O3 1.272098 1_555
N1 O25 1.274058 1_555
N1 O23 1.274058 1_555
N2 O27 1.271705 1_555
N2 O20 1.271705 1_554
N3 O9 1.271425 1_555
N3 O5 1.271425 1_555
N4 O13 1.273454 1_555
N4 O15 1.273454 1_555
N5 O7 1.272291 1_555
N5 O18 1.272291 1_555
N6 O6 1.272098 1_555
N6 O16 1.272098 1_555
N7 O14 1.271425 1_555
N7 O12 1.271425 1_555
N8 O8 1.274112 1_555
N8 O28 1.274112 1_555
N9 O21 1.273580 1_655
N9 O2 1.273580 1_565
N10 O11 1.274112 1_555
N10 O30 1.274112 1_555
N11 O22 1.272291 1_555
N11 O4 1.272291 1_555
N12 O24 1.274058 1_555
N12 O19 1.274058 1_555
N13 O26 1.271705 1_555
N13 O17 1.271705 1_554
N14 O0 1.273580 1_545
N14 O1 1.273580 1_455
N15 O29 1.273454 1_555
N15 O31 1.273454 1_555
