# generated using pymatgen
data_Ag3SbS3
_symmetry_space_group_name_H-M   'P 1'
_cell_length_a   15.96725416
_cell_length_b   6.27094393
_cell_length_c   6.90364561
_cell_angle_alpha   63.73654729
_cell_angle_beta   90.00000000
_cell_angle_gamma   90.00000000
_symmetry_Int_Tables_number   1
_chemical_formula_structural   Ag3SbS3
_chemical_formula_sum   'Ag12 Sb4 S12'
_cell_volume   619.90076088
_cell_formula_units_Z   4
loop_
 _symmetry_equiv_pos_site_id
 _symmetry_equiv_pos_as_xyz
  1  'x, y, z'
loop_
 _atom_site_type_symbol
 _atom_site_label
 _atom_site_symmetry_multiplicity
 _atom_site_fract_x
 _atom_site_fract_y
 _atom_site_fract_z
 _atom_site_occupancy
  Ag  Ag0  1  0.81006087  0.71013868  0.06956890  1
  Ag  Ag1  1  0.74285758  0.30915561  0.47766876  1
  Ag  Ag2  1  0.31006087  0.78986132  0.93043110  1
  Ag  Ag3  1  0.90098135  0.46906612  0.59187896  1
  Ag  Ag4  1  0.24285758  0.19084439  0.52233124  1
  Ag  Ag5  1  0.59901865  0.96906612  0.59187896  1
  Ag  Ag6  1  0.18993913  0.28986132  0.93043110  1
  Ag  Ag7  1  0.25714242  0.69084439  0.52233124  1
  Ag  Ag8  1  0.09901865  0.53093388  0.40812104  1
  Ag  Ag9  1  0.40098135  0.03093388  0.40812104  1
  Ag  Ag10  1  0.68993913  0.21013868  0.06956890  1
  Ag  Ag11  1  0.75714242  0.80915561  0.47766876  1
  Sb  Sb0  1  0.55148963  0.67569278  0.19597998  1
  Sb  Sb1  1  0.05148963  0.82430722  0.80402002  1
  Sb  Sb2  1  0.44851037  0.32430722  0.80402002  1
  Sb  Sb3  1  0.94851037  0.17569278  0.19597998  1
  S  S0  1  0.05619654  0.23224079  0.77869000  1
  S  S1  1  0.44380346  0.73224079  0.77869000  1
  S  S2  1  0.55619654  0.26775921  0.22131000  1
  S  S3  1  0.16749581  0.62911091  0.05233655  1
  S  S4  1  0.63598296  0.55495837  0.53360697  1
  S  S5  1  0.13598296  0.94504163  0.46639303  1
  S  S6  1  0.94380346  0.76775921  0.22131000  1
  S  S7  1  0.36401704  0.44504163  0.46639303  1
  S  S8  1  0.86401704  0.05495837  0.53360697  1
  S  S9  1  0.66749581  0.87088909  0.94766345  1
  S  S10  1  0.33250419  0.12911091  0.05233655  1
  S  S11  1  0.83250419  0.37088909  0.94766345  1
loop_
_geom_bond_atom_site_label_1
_geom_bond_atom_site_label_2
_geom_bond_distance
_geom_bond_site_symmetry_2
Ag0 S6 2.474534 1_555
Ag0 S9 2.481032 1_554
Ag0 S11 2.635737 1_554
Ag1 S8 2.426514 1_555
Ag1 S4 2.442135 1_555
Ag2 S1 2.474534 1_555
Ag2 S3 2.481032 1_556
Ag2 S10 2.635737 1_566
Ag3 S11 2.503842 1_555
Ag3 S6 2.505983 1_555
Ag3 S8 2.859781 1_555
Ag3 S0 2.883757 1_655
Ag4 S7 2.426514 1_555
Ag4 S5 2.442135 1_545
Ag5 S9 2.503842 1_555
Ag5 S2 2.505983 1_565
Ag5 S4 2.859781 1_555
Ag5 S1 2.883757 1_555
Ag6 S0 2.474534 1_555
Ag6 S10 2.481032 1_556
Ag6 S3 2.635737 1_556
Ag7 S5 2.426514 1_555
Ag7 S7 2.442135 1_555
Ag8 S3 2.503842 1_555
Ag8 S0 2.505983 1_555
Ag8 S5 2.859781 1_555
Ag8 S6 2.883757 1_455
Ag9 S10 2.503842 1_555
Ag9 S1 2.505983 1_545
Ag9 S7 2.859781 1_555
Ag9 S2 2.883757 1_555
Ag10 S2 2.474534 1_555
Ag10 S11 2.481032 1_554
Ag10 S9 2.635737 1_544
Ag11 S4 2.426514 1_555
Ag11 S8 2.442135 1_565
S0 Sb1 2.486836 1_545
S1 Sb2 2.486836 1_555
S2 Sb0 2.486836 1_555
S3 Sb1 2.451746 1_554
S4 Sb0 2.502894 1_555
S5 Sb1 2.502894 1_555
S6 Sb3 2.486836 1_565
S7 Sb2 2.502894 1_555
S8 Sb3 2.502894 1_555
S9 Sb0 2.451746 1_556
S10 Sb2 2.451746 1_554
S11 Sb3 2.451746 1_556
