# generated using pymatgen
data_Tm3B5O12
_symmetry_space_group_name_H-M   'P 1'
_cell_length_a   4.57298639
_cell_length_b   12.42592265
_cell_length_c   12.75002464
_cell_angle_alpha   90.00000000
_cell_angle_beta   90.00000000
_cell_angle_gamma   90.00000000
_symmetry_Int_Tables_number   1
_chemical_formula_structural   Tm3B5O12
_chemical_formula_sum   'Tm12 B20 O48'
_cell_volume   724.50198344
_cell_formula_units_Z   4
loop_
 _symmetry_equiv_pos_site_id
 _symmetry_equiv_pos_as_xyz
  1  'x, y, z'
loop_
 _atom_site_type_symbol
 _atom_site_label
 _atom_site_symmetry_multiplicity
 _atom_site_fract_x
 _atom_site_fract_y
 _atom_site_fract_z
 _atom_site_occupancy
  Tm  Tm0  1  0.99891417  0.80663949  0.86459843  1
  Tm  Tm1  1  -0.00000000  0.00000000  0.63226169  1
  Tm  Tm2  1  0.00108583  0.19336051  0.13540157  1
  Tm  Tm3  1  0.99891417  0.80663949  0.13540157  1
  Tm  Tm4  1  -0.00000000  0.50000000  0.13226169  1
  Tm  Tm5  1  0.99891417  0.69336051  0.36459843  1
  Tm  Tm6  1  0.00108583  0.30663949  0.36459843  1
  Tm  Tm7  1  0.00108583  0.19336051  0.86459843  1
  Tm  Tm8  1  -0.00000000  0.00000000  0.36773831  1
  Tm  Tm9  1  -0.00000000  0.50000000  0.86773831  1
  Tm  Tm10  1  0.00108583  0.30663949  0.63540157  1
  Tm  Tm11  1  0.99891417  0.69336051  0.63540157  1
  B  B0  1  0.50000000  0.00000000  0.16170656  1
  B  B1  1  0.53132955  0.15097578  0.29812563  1
  B  B2  1  0.46867045  0.65097578  0.79812563  1
  B  B3  1  0.46867045  0.84902422  0.70187437  1
  B  B4  1  0.45592273  0.37373485  0.50000000  1
  B  B5  1  0.50000000  0.50000000  0.66170656  1
  B  B6  1  0.54407727  0.62626515  0.50000000  1
  B  B7  1  0.54407727  0.87373485  -0.00000000  1
  B  B8  1  0.53821660  0.85049788  0.50000000  1
  B  B9  1  0.53132955  0.34902422  0.20187437  1
  B  B10  1  0.50000000  0.50000000  0.33829344  1
  B  B11  1  0.50000000  0.00000000  0.83829344  1
  B  B12  1  0.46178340  0.35049788  -0.00000000  1
  B  B13  1  0.53821660  0.64950212  -0.00000000  1
  B  B14  1  0.53132955  0.34902422  0.79812563  1
  B  B15  1  0.46867045  0.65097578  0.20187437  1
  B  B16  1  0.46178340  0.14950212  0.50000000  1
  B  B17  1  0.46867045  0.84902422  0.29812563  1
  B  B18  1  0.53132955  0.15097578  0.70187437  1
  B  B19  1  0.45592273  0.12626515  -0.00000000  1
  O  O0  1  0.30895978  0.93552935  0.76670820  1
  O  O1  1  0.69104022  0.06447065  0.76670820  1
  O  O2  1  0.33408456  0.42578741  0.40395182  1
  O  O3  1  0.75935279  0.36011344  0.50000000  1
  O  O4  1  0.24064721  0.63988656  0.50000000  1
  O  O5  1  0.34034529  0.85475669  0.59490371  1
  O  O6  1  0.65965471  0.14524331  0.59490371  1
  O  O7  1  0.69762450  0.76149756  -0.00000000  1
  O  O8  1  0.22004032  0.34826376  0.79586298  1
  O  O9  1  0.65965471  0.35475669  0.09490371  1
  O  O10  1  0.30237550  0.23850244  -0.00000000  1
  O  O11  1  0.30895978  0.56447065  0.26670820  1
  O  O12  1  0.69104022  0.43552935  0.73329180  1
  O  O13  1  0.34034529  0.85475669  0.40509629  1
  O  O14  1  0.77995968  0.65173624  0.20413702  1
  O  O15  1  0.65877150  0.25000000  0.75000000  1
  O  O16  1  0.33408456  0.42578741  0.59604818  1
  O  O17  1  0.30895978  0.56447065  0.73329180  1
  O  O18  1  0.34034529  0.64524331  0.09490371  1
  O  O19  1  0.22004032  0.15173624  0.70413702  1
  O  O20  1  0.65965471  0.35475669  0.90509629  1
  O  O21  1  0.34122850  0.75000000  0.75000000  1
  O  O22  1  0.22004032  0.15173624  0.29586298  1
  O  O23  1  0.66591544  0.92578741  0.09604818  1
  O  O24  1  0.65965471  0.14524331  0.40509629  1
  O  O25  1  0.65877150  0.25000000  0.25000000  1
  O  O26  1  0.66591544  0.57421259  0.40395182  1
  O  O27  1  0.75935279  0.13988656  -0.00000000  1
  O  O28  1  0.69104022  0.06447065  0.23329180  1
  O  O29  1  0.69762450  0.73850244  0.50000000  1
  O  O30  1  0.34034529  0.64524331  0.90509629  1
  O  O31  1  0.24086292  0.06984065  0.50000000  1
  O  O32  1  0.66591544  0.57421259  0.59604818  1
  O  O33  1  0.24064721  0.86011344  -0.00000000  1
  O  O34  1  0.77995968  0.84826376  0.29586298  1
  O  O35  1  0.66591544  0.92578741  0.90395182  1
  O  O36  1  0.77995968  0.65173624  0.79586298  1
  O  O37  1  0.30237550  0.26149756  0.50000000  1
  O  O38  1  0.75913708  0.56984065  -0.00000000  1
  O  O39  1  0.30895978  0.93552935  0.23329180  1
  O  O40  1  0.33408456  0.07421259  0.09604818  1
  O  O41  1  0.75913708  0.93015935  0.50000000  1
  O  O42  1  0.24086292  0.43015935  -0.00000000  1
  O  O43  1  0.34122850  0.75000000  0.25000000  1
  O  O44  1  0.22004032  0.34826376  0.20413702  1
  O  O45  1  0.77995968  0.84826376  0.70413702  1
  O  O46  1  0.69104022  0.43552935  0.26670820  1
  O  O47  1  0.33408456  0.07421259  0.90395182  1
loop_
_geom_bond_atom_site_label_1
_geom_bond_atom_site_label_2
_geom_bond_distance
_geom_bond_site_symmetry_2
B0 O40 1.458377 1_555
B0 O23 1.458377 1_545
B0 O39 1.496008 1_545
B0 O28 1.496008 1_555
B1 O22 1.423845 1_555
B1 O24 1.486475 1_555
B1 O25 1.493386 1_555
B1 O28 1.540183 1_555
B2 O36 1.423845 1_555
B2 O30 1.486475 1_555
B2 O21 1.493386 1_555
B2 O17 1.540183 1_555
B3 O45 1.423845 1_555
B3 O5 1.486475 1_555
B3 O21 1.493386 1_555
B3 O0 1.540183 1_555
B4 O3 1.397867 1_555
B4 O2 1.492806 1_555
B4 O16 1.492806 1_555
B4 O37 1.561440 1_555
B5 O16 1.458377 1_555
B5 O32 1.458377 1_555
B5 O17 1.496008 1_555
B5 O12 1.496008 1_555
B6 O4 1.397867 1_555
B6 O26 1.492806 1_555
B6 O32 1.492806 1_555
B6 O29 1.561440 1_555
B7 O33 1.397867 1_555
B7 O35 1.492806 1_554
B7 O23 1.492806 1_555
B7 O7 1.561440 1_555
B8 O41 1.414382 1_555
B8 O5 1.511865 1_555
B8 O13 1.511865 1_555
B8 O29 1.571012 1_555
B9 O44 1.423845 1_555
B9 O9 1.486475 1_555
B9 O25 1.493386 1_555
B9 O46 1.540183 1_555
B10 O2 1.458377 1_555
B10 O26 1.458377 1_555
B10 O11 1.496008 1_555
B10 O46 1.496008 1_555
B11 O47 1.458377 1_555
B11 O35 1.458377 1_545
B11 O0 1.496008 1_545
B11 O1 1.496008 1_555
B12 O42 1.414382 1_555
B12 O20 1.511865 1_554
B12 O9 1.511865 1_555
B12 O10 1.571012 1_555
B13 O38 1.414382 1_555
B13 O30 1.511865 1_554
B13 O18 1.511865 1_555
B13 O7 1.571012 1_555
B14 O8 1.423845 1_555
B14 O20 1.486475 1_555
B14 O15 1.493386 1_555
B14 O12 1.540183 1_555
B15 O14 1.423845 1_555
B15 O18 1.486475 1_555
B15 O43 1.493386 1_555
B15 O11 1.540183 1_555
B16 O31 1.414382 1_555
B16 O24 1.511865 1_555
B16 O6 1.511865 1_555
B16 O37 1.571012 1_555
B17 O34 1.423845 1_555
B17 O13 1.486475 1_555
B17 O43 1.493386 1_555
B17 O39 1.540183 1_555
B18 O19 1.423845 1_555
B18 O6 1.486475 1_555
B18 O15 1.493386 1_555
B18 O1 1.540183 1_555
B19 O27 1.397867 1_555
B19 O47 1.492806 1_554
B19 O40 1.492806 1_555
B19 O10 1.561440 1_555
O0 Tm1 2.361449 1_565
O0 Tm0 2.476501 1_455
O1 Tm1 2.361449 1_655
O1 Tm7 2.476501 1_655
O2 Tm6 2.182344 1_555
O3 Tm10 2.154966 1_655
O3 Tm6 2.154966 1_655
O4 Tm11 2.154966 1_455
O4 Tm5 2.154966 1_455
O5 Tm1 2.430325 1_565
O5 Tm11 2.593545 1_455
O6 Tm1 2.430325 1_655
O6 Tm10 2.593545 1_655
O7 Tm0 2.278886 1_554
O7 Tm3 2.278886 1_555
O8 Tm9 2.325361 1_555
O8 Tm10 2.335749 1_555
O8 Tm7 2.339981 1_555
O9 Tm4 2.430325 1_655
O9 Tm2 2.593545 1_655
O10 Tm7 2.278886 1_554
O10 Tm2 2.278886 1_555
O11 Tm4 2.361449 1_555
O11 Tm5 2.476501 1_455
O12 Tm9 2.361449 1_655
O12 Tm10 2.476501 1_655
O13 Tm8 2.430325 1_565
O13 Tm5 2.593545 1_455
O14 Tm4 2.325361 1_655
O14 Tm5 2.335749 1_555
O14 Tm3 2.339981 1_555
O15 Tm7 2.254044 1_655
O15 Tm10 2.254044 1_655
O16 Tm10 2.182344 1_555
O17 Tm9 2.361449 1_555
O17 Tm11 2.476501 1_455
O18 Tm4 2.430325 1_555
O18 Tm3 2.593545 1_455
O19 Tm1 2.325361 1_555
O19 Tm7 2.335749 1_555
O19 Tm10 2.339981 1_555
O20 Tm9 2.430325 1_655
O20 Tm7 2.593545 1_655
O21 Tm11 2.254044 1_455
O21 Tm0 2.254044 1_455
O22 Tm8 2.325361 1_555
O22 Tm2 2.335749 1_555
O22 Tm6 2.339981 1_555
O23 Tm3 2.182344 1_555
O24 Tm8 2.430325 1_655
O24 Tm6 2.593545 1_655
O25 Tm2 2.254044 1_655
O25 Tm6 2.254044 1_655
O26 Tm5 2.182344 1_555
O27 Tm7 2.154966 1_654
O27 Tm2 2.154966 1_655
O28 Tm8 2.361449 1_655
O28 Tm2 2.476501 1_655
O29 Tm5 2.278886 1_555
O29 Tm11 2.278886 1_555
O30 Tm9 2.430325 1_555
O30 Tm0 2.593545 1_455
O31 Tm8 2.193194 1_555
O31 Tm1 2.193194 1_555
O32 Tm11 2.182344 1_555
O33 Tm0 2.154966 1_454
O33 Tm3 2.154966 1_455
O34 Tm8 2.325361 1_665
O34 Tm3 2.335749 1_555
O34 Tm5 2.339981 1_555
O35 Tm0 2.182344 1_555
O36 Tm9 2.325361 1_655
O36 Tm11 2.335749 1_555
O36 Tm0 2.339981 1_555
O37 Tm10 2.278886 1_555
O37 Tm6 2.278886 1_555
O38 Tm9 2.193194 1_654
O38 Tm4 2.193194 1_655
O39 Tm8 2.361449 1_565
O39 Tm3 2.476501 1_455
O40 Tm2 2.182344 1_555
O41 Tm8 2.193194 1_665
O41 Tm1 2.193194 1_665
O42 Tm9 2.193194 1_554
O42 Tm4 2.193194 1_555
O43 Tm5 2.254044 1_455
O43 Tm3 2.254044 1_455
O44 Tm4 2.325361 1_555
O44 Tm6 2.335749 1_555
O44 Tm2 2.339981 1_555
O45 Tm1 2.325361 1_665
O45 Tm0 2.335749 1_555
O45 Tm11 2.339981 1_555
O46 Tm4 2.361449 1_655
O46 Tm6 2.476501 1_655
O47 Tm7 2.182344 1_555
