# generated using pymatgen
data_Ba8B5N10F
_symmetry_space_group_name_H-M   'P 1'
_cell_length_a   4.25956400
_cell_length_b   21.14171111
_cell_length_c   21.22529592
_cell_angle_alpha   91.73286455
_cell_angle_beta   90.01587523
_cell_angle_gamma   93.10959791
_symmetry_Int_Tables_number   1
_chemical_formula_structural   Ba8B5N10F
_chemical_formula_sum   'Ba32 B20 N40 F4'
_cell_volume   1907.74203741
_cell_formula_units_Z   4
loop_
 _symmetry_equiv_pos_site_id
 _symmetry_equiv_pos_as_xyz
  1  'x, y, z'
loop_
 _atom_site_type_symbol
 _atom_site_label
 _atom_site_symmetry_multiplicity
 _atom_site_fract_x
 _atom_site_fract_y
 _atom_site_fract_z
 _atom_site_occupancy
  Ba  Ba0  1  0.22040300  0.49049400  0.41661800  1
  Ba  Ba1  1  0.33105300  0.19701700  0.88383800  1
  Ba  Ba2  1  0.12490500  0.66014600  0.20625700  1
  Ba  Ba3  1  0.35467900  0.18099400  0.49631700  1
  Ba  Ba4  1  0.09173400  0.66980800  0.41438800  1
  Ba  Ba5  1  0.11790600  0.69356800  0.60962800  1
  Ba  Ba6  1  0.07514200  0.70461600  0.80428800  1
  Ba  Ba7  1  0.37614200  0.16840400  0.07834100  1
  Ba  Ba8  1  0.62385800  0.83159600  0.92165900  1
  Ba  Ba9  1  0.64532100  0.81900600  0.50368300  1
  Ba  Ba10  1  0.88209400  0.30643200  0.39037200  1
  Ba  Ba11  1  0.13160900  0.67982900  0.99887700  1
  Ba  Ba12  1  0.29042900  0.52696600  0.74953000  1
  Ba  Ba13  1  0.06087700  0.02377500  0.66313100  1
  Ba  Ba14  1  0.86839100  0.32017100  0.00112300  1
  Ba  Ba15  1  0.50000000  0.00000000  0.50000000  1
  Ba  Ba16  1  0.87509500  0.33985400  0.79374300  1
  Ba  Ba17  1  0.21340800  0.48595200  0.07958700  1
  Ba  Ba18  1  0.93912300  0.97622500  0.33686900  1
  Ba  Ba19  1  0.78659200  0.51404800  0.92041300  1
  Ba  Ba20  1  0.77959700  0.50950600  0.58338200  1
  Ba  Ba21  1  0.70957100  0.47303400  0.25047000  1
  Ba  Ba22  1  0.45563100  0.98146900  0.16529800  1
  Ba  Ba23  1  0.66894700  0.80298300  0.11616200  1
  Ba  Ba24  1  0.38012800  0.16041500  0.29096700  1
  Ba  Ba25  1  0.63320900  0.79754500  0.30766900  1
  Ba  Ba26  1  0.36679100  0.20245500  0.69233100  1
  Ba  Ba27  1  0.54436900  0.01853100  0.83470200  1
  Ba  Ba28  1  0.90826600  0.33019200  0.58561200  1
  Ba  Ba29  1  0.92485800  0.29538400  0.19571200  1
  Ba  Ba30  1  0.00000000  0.00000000  0.00000000  1
  Ba  Ba31  1  0.61987200  0.83958500  0.70903300  1
  B  B0  1  0.63832100  0.61170000  0.32588500  1
  B  B1  1  0.50061100  0.64457200  0.88831000  1
  B  B2  1  0.09546700  0.88813700  0.83831400  1
  B  B3  1  0.33082600  0.35131800  0.29742900  1
  B  B4  1  0.07944000  0.85211600  0.21656100  1
  B  B5  1  0.34232700  0.38139700  0.92045000  1
  B  B6  1  0.50512800  0.36940900  0.48404400  1
  B  B7  1  0.49938900  0.35542800  0.11169000  1
  B  B8  1  0.09359100  0.88097800  0.59018900  1
  B  B9  1  0.73831400  0.13367700  0.96808400  1
  B  B10  1  0.90453300  0.11186300  0.16168600  1
  B  B11  1  0.75714100  0.14207800  0.59772400  1
  B  B12  1  0.92056000  0.14788400  0.78343900  1
  B  B13  1  0.26168600  0.86632300  0.03191600  1
  B  B14  1  0.24285900  0.85792200  0.40227600  1
  B  B15  1  0.49487200  0.63059100  0.51595600  1
  B  B16  1  0.66917400  0.64868200  0.70257100  1
  B  B17  1  0.65767300  0.61860300  0.07955000  1
  B  B18  1  0.36167900  0.38830000  0.67411500  1
  B  B19  1  0.90640900  0.11902200  0.40981100  1
  N  N0  1  0.37053800  0.31017600  0.48960000  1
  N  N1  1  0.40538900  0.32646300  0.88986900  1
  N  N2  1  0.12237900  0.80889300  0.01619600  1
  N  N3  1  0.19175600  0.40646200  0.30610900  1
  N  N4  1  0.67420600  0.40787800  0.12909100  1
  N  N5  1  0.58622900  0.66973700  0.30374400  1
  N  N6  1  0.00307200  0.06676700  0.43711300  1
  N  N7  1  0.31191500  0.57750700  0.52293500  1
  N  N8  1  0.36367300  0.29843500  0.09334700  1
  N  N9  1  0.15431400  0.83327200  0.80706900  1
  N  N10  1  0.55451700  0.08144900  0.95398800  1
  N  N11  1  0.84079400  0.17651100  0.38801000  1
  N  N12  1  0.17035100  0.79170000  0.21187800  1
  N  N13  1  0.10850300  0.79902500  0.40843000  1
  N  N14  1  0.57792200  0.08851700  0.60522200  1
  N  N15  1  0.26312300  0.43110900  0.95731200  1
  N  N16  1  0.62946200  0.68982400  0.51040000  1
  N  N17  1  0.63632700  0.70156500  0.90665300  1
  N  N18  1  0.97679100  0.06233100  0.12373200  1
  N  N19  1  0.44548300  0.91855100  0.04601200  1
  N  N20  1  0.71960700  0.55879000  0.35410700  1
  N  N21  1  0.68808500  0.42249300  0.47706500  1
  N  N22  1  0.99692800  0.93323300  0.56288700  1
  N  N23  1  0.93686600  0.90721500  0.21945800  1
  N  N24  1  0.82964900  0.20830000  0.78812200  1
  N  N25  1  0.41377100  0.33026300  0.69625600  1
  N  N26  1  0.42207800  0.91148300  0.39477800  1
  N  N27  1  0.87762100  0.19110700  0.98380400  1
  N  N28  1  0.28039300  0.44121000  0.64589300  1
  N  N29  1  0.57050600  0.70802500  0.71051100  1
  N  N30  1  0.89149700  0.20097500  0.59157000  1
  N  N31  1  0.02320900  0.93766900  0.87626800  1
  N  N32  1  0.59461100  0.67353700  0.11013100  1
  N  N33  1  0.32579400  0.59212200  0.87090900  1
  N  N34  1  0.80824400  0.59353800  0.69389100  1
  N  N35  1  0.06313400  0.09278500  0.78054200  1
  N  N36  1  0.15920600  0.82348900  0.61199000  1
  N  N37  1  0.84568600  0.16672800  0.19293100  1
  N  N38  1  0.73687700  0.56889100  0.04268800  1
  N  N39  1  0.42949400  0.29197500  0.28948900  1
  F  F0  1  0.55245000  0.96549700  0.71683500  1
  F  F1  1  0.44755000  0.03450300  0.28316500  1
  F  F2  1  0.78428200  0.46576200  0.80189100  1
  F  F3  1  0.21571800  0.53423800  0.19810900  1
loop_
_geom_bond_atom_site_label_1
_geom_bond_atom_site_label_2
_geom_bond_distance
_geom_bond_site_symmetry_2
Ba0 N21 2.846466 1_555
Ba0 N20 2.855019 1_555
Ba0 N7 2.880803 1_555
Ba0 N3 2.897792 1_555
Ba0 N21 2.934921 1_455
Ba0 N20 2.973912 1_455
Ba1 N1 2.736970 1_555
Ba1 N27 2.870574 1_455
Ba1 N24 2.944753 1_555
Ba2 F3 2.710944 1_555
Ba2 N12 2.776457 1_555
Ba2 N5 2.848366 1_555
Ba2 N32 2.867351 1_555
Ba2 N32 3.073600 1_455
Ba2 N5 3.100845 1_455
Ba3 N0 2.736328 1_555
Ba3 N30 2.863484 1_455
Ba4 N13 2.735677 1_555
Ba4 N16 2.872243 1_455
Ba5 N36 2.741779 1_555
Ba5 N29 2.879129 1_555
Ba5 N16 2.956426 1_455
Ba6 N9 2.721473 1_555
Ba6 N17 2.866411 1_455
Ba6 N29 2.900658 1_555
Ba7 N8 2.761266 1_555
Ba7 N18 2.927221 1_455
Ba7 N27 2.961243 1_554
Ba7 N27 2.988707 1_454
Ba7 N37 3.150762 1_555
Ba7 N10 3.283703 1_554
Ba7 N37 3.319917 1_455
Ba8 N17 2.761266 1_555
Ba8 N31 2.927221 1_655
Ba8 N2 2.961243 1_556
Ba8 N2 2.988707 1_656
Ba8 N9 3.150762 1_555
Ba8 N19 3.283703 1_556
Ba8 N9 3.319917 1_655
Ba9 N16 2.736328 1_555
Ba9 N13 2.863484 1_655
Ba10 N11 2.741779 1_555
Ba10 N39 2.879129 1_555
Ba10 N0 2.956426 1_655
Ba11 N2 2.744650 1_556
Ba11 N17 2.935036 1_555
Ba11 N17 2.941254 1_455
Ba11 N38 2.982900 1_456
Ba11 N32 3.086795 1_556
Ba11 N32 3.288613 1_456
Ba11 N33 3.370915 1_555
Ba12 F2 2.709854 1_455
Ba12 F2 2.777697 1_555
Ba12 N28 2.806783 1_555
Ba12 N34 2.829433 1_555
Ba12 N34 2.829639 1_455
Ba12 N33 2.884478 1_555
Ba13 F0 2.702660 1_445
Ba13 F0 2.750504 1_545
Ba13 N22 2.821761 1_445
Ba13 N14 2.830366 1_555
Ba13 N14 2.832329 1_455
Ba13 N35 2.849173 1_555
Ba14 N27 2.744650 1_554
Ba14 N8 2.935036 1_555
Ba14 N8 2.941254 1_655
Ba14 N15 2.982900 1_654
Ba14 N1 3.086795 1_554
Ba14 N1 3.288613 1_654
Ba14 N4 3.370915 1_555
Ba15 N6 2.855425 1_655
Ba15 N22 2.855425 1_445
Ba15 N26 2.877441 1_545
Ba15 N14 2.877441 1_555
Ba15 N6 2.948076 1_555
Ba15 N22 2.948076 1_545
Ba16 F2 2.710944 1_555
Ba16 N24 2.776457 1_555
Ba16 N25 2.848366 1_555
Ba16 N1 2.867351 1_555
Ba16 N1 3.073600 1_655
Ba16 N25 3.100845 1_655
Ba17 F3 2.685959 1_555
Ba17 N15 2.823097 1_554
Ba17 N4 2.852440 1_555
Ba17 N38 2.876895 1_455
Ba17 N38 2.884386 1_555
Ba17 N4 2.966251 1_455
Ba18 F1 2.702660 1_665
Ba18 F1 2.750504 1_565
Ba18 N6 2.821761 1_665
Ba18 N26 2.830366 1_555
Ba18 N26 2.832329 1_655
Ba18 N23 2.849173 1_555
Ba19 F2 2.685959 1_555
Ba19 N38 2.823097 1_556
Ba19 N33 2.852440 1_555
Ba19 N15 2.876895 1_655
Ba19 N15 2.884386 1_555
Ba19 N33 2.966251 1_655
Ba20 N7 2.846466 1_555
Ba20 N28 2.855019 1_555
Ba20 N21 2.880803 1_555
Ba20 N34 2.897792 1_555
Ba20 N7 2.934921 1_655
Ba20 N28 2.973912 1_655
Ba21 F3 2.709854 1_655
Ba21 F3 2.777697 1_555
Ba21 N20 2.806783 1_555
Ba21 N3 2.829433 1_555
Ba21 N3 2.829639 1_655
Ba21 N4 2.884478 1_555
Ba22 F1 2.711409 1_565
Ba22 N19 2.823423 1_555
Ba22 N18 2.882629 1_565
Ba22 N18 2.886115 1_465
Ba22 N23 2.898788 1_455
Ba22 N23 2.905993 1_555
Ba23 N32 2.736970 1_555
Ba23 N2 2.870574 1_655
Ba23 N12 2.944753 1_555
Ba24 F1 2.693033 1_555
Ba24 N39 2.779071 1_555
Ba24 N11 2.844597 1_555
Ba24 N37 2.875878 1_555
Ba24 N37 3.094715 1_455
Ba24 N11 3.111463 1_455
Ba25 N5 2.697394 1_555
Ba25 N12 2.827082 1_555
Ba25 N13 2.942856 1_655
Ba26 N25 2.697394 1_555
Ba26 N24 2.827082 1_555
Ba26 N30 2.942856 1_455
Ba27 F0 2.711409 1_545
Ba27 N10 2.823423 1_555
Ba27 N31 2.882629 1_545
Ba27 N31 2.886115 1_645
Ba27 N35 2.898788 1_655
Ba27 N35 2.905993 1_555
Ba28 N30 2.735677 1_555
Ba28 N0 2.872243 1_655
Ba29 N37 2.721473 1_555
Ba29 N8 2.866411 1_655
Ba29 N39 2.900658 1_555
Ba30 N19 2.823987 1_545
Ba30 N10 2.823987 1_454
Ba30 N31 2.906627 1_544
Ba30 N18 2.906627 1_455
Ba30 N19 3.026505 1_445
Ba30 N10 3.026505 1_554
Ba31 F0 2.693033 1_555
Ba31 N29 2.779071 1_555
Ba31 N36 2.844597 1_555
Ba31 N9 2.875878 1_555
Ba31 N9 3.094715 1_655
Ba31 N36 3.111463 1_655
B0 N20 1.346263 1_555
B0 N5 1.356456 1_555
B1 N33 1.343883 1_555
B1 N17 1.354090 1_555
B1 Ba11 2.925241 1_555
B2 N31 1.350702 1_555
B2 N9 1.353964 1_555
B2 Ba8 2.909152 1_455
B2 Ba8 3.168857 1_555
B3 N3 1.343886 1_555
B3 N39 1.350389 1_555
B4 N23 1.342386 1_455
B4 N12 1.355482 1_555
B5 N15 1.348873 1_555
B5 N1 1.353023 1_555
B5 Ba14 2.921538 1_456
B5 Ba14 3.174167 1_556
B6 N21 1.343143 1_555
B6 N0 1.357157 1_555
B7 N4 1.343883 1_555
B7 N8 1.354090 1_555
B7 Ba14 2.925241 1_555
B8 N22 1.346765 1_455
B8 N36 1.356565 1_555
B9 N10 1.344536 1_555
B9 N27 1.354573 1_555
B9 Ba7 2.901141 1_556
B10 N18 1.350702 1_555
B10 N37 1.353964 1_555
B10 Ba7 2.909152 1_655
B10 Ba7 3.168857 1_555
B11 N14 1.344450 1_555
B11 N30 1.351900 1_555
B12 N35 1.342386 1_655
B12 N24 1.355482 1_555
B13 N19 1.344536 1_555
B13 N2 1.354573 1_555
B13 Ba8 2.901141 1_554
B14 N26 1.344450 1_555
B14 N13 1.351900 1_555
B15 N7 1.343143 1_555
B15 N16 1.357157 1_555
B16 N34 1.343886 1_555
B16 N29 1.350389 1_555
B17 N38 1.348873 1_555
B17 N32 1.353023 1_555
B17 Ba11 2.921538 1_654
B17 Ba11 3.174167 1_554
B18 N28 1.346263 1_555
B18 N25 1.356456 1_555
B19 N6 1.346765 1_655
B19 N11 1.356565 1_555
