# generated using pymatgen
data_CsCu3O2
_symmetry_space_group_name_H-M   'P 1'
_cell_length_a   5.10952034
_cell_length_b   5.10952189
_cell_length_c   5.51836716
_cell_angle_alpha   89.99623014
_cell_angle_beta   90.00362206
_cell_angle_gamma   119.99529627
_symmetry_Int_Tables_number   1
_chemical_formula_structural   CsCu3O2
_chemical_formula_sum   'Cs1 Cu3 O2'
_cell_volume   124.77345541
_cell_formula_units_Z   1
loop_
 _symmetry_equiv_pos_site_id
 _symmetry_equiv_pos_as_xyz
  1  'x, y, z'
loop_
 _atom_site_type_symbol
 _atom_site_label
 _atom_site_symmetry_multiplicity
 _atom_site_fract_x
 _atom_site_fract_y
 _atom_site_fract_z
 _atom_site_occupancy
  Cs  Cs0  1  -0.00000000  -0.00000000  0.50000000  1
  Cu  Cu0  1  0.50000000  0.50000000  -0.00000000  1
  Cu  Cu1  1  -0.00000000  0.50000000  -0.00000000  1
  Cu  Cu2  1  0.50000000  -0.00000000  -0.00000000  1
  O  O0  1  0.66666192  0.33333965  0.80114772  1
  O  O1  1  0.33333808  0.66666035  0.19885228  1
loop_
_geom_bond_atom_site_label_1
_geom_bond_atom_site_label_2
_geom_bond_distance
_geom_bond_site_symmetry_2
Cs0 O0 3.385912 1_445
Cs0 O1 3.385912 1_555
Cs0 O1 3.385924 1_445
Cs0 O0 3.385924 1_555
Cs0 O0 3.385961 1_455
Cs0 O1 3.385961 1_545
Cu0 O1 1.838409 1_555
Cu0 O0 1.838409 1_554
Cu1 O0 1.838453 1_454
Cu1 O1 1.838453 1_555
Cu2 O1 1.838455 1_545
Cu2 O0 1.838455 1_554
