# generated using pymatgen
data_K3GaS3
_symmetry_space_group_name_H-M   'P 1'
_cell_length_a   12.53858509
_cell_length_b   7.75500606
_cell_length_c   10.13250523
_cell_angle_alpha   52.39442084
_cell_angle_beta   90.00000000
_cell_angle_gamma   90.00000000
_symmetry_Int_Tables_number   1
_chemical_formula_structural   K3GaS3
_chemical_formula_sum   'K12 Ga4 S12'
_cell_volume   780.54674666
_cell_formula_units_Z   4
loop_
 _symmetry_equiv_pos_site_id
 _symmetry_equiv_pos_as_xyz
  1  'x, y, z'
loop_
 _atom_site_type_symbol
 _atom_site_label
 _atom_site_symmetry_multiplicity
 _atom_site_fract_x
 _atom_site_fract_y
 _atom_site_fract_z
 _atom_site_occupancy
  K  K0  1  0.91023861  0.34072969  0.39255070  1
  K  K1  1  0.41023861  0.65927031  0.10744930  1
  K  K2  1  0.08976139  0.65927031  0.60744930  1
  K  K3  1  0.58976139  0.34072969  0.89255070  1
  K  K4  1  0.18896627  0.13659622  0.57816318  1
  K  K5  1  0.68896627  0.86340378  0.92183682  1
  K  K6  1  0.81103373  0.86340378  0.42183682  1
  K  K7  1  0.31103373  0.13659622  0.07816318  1
  K  K8  1  0.62547641  0.38038532  0.47343335  1
  K  K9  1  0.12547641  0.61961468  0.02656665  1
  K  K10  1  0.37452359  0.61961468  0.52656665  1
  K  K11  1  0.87452359  0.38038532  0.97343335  1
  Ga  Ga0  1  0.93988916  0.06413429  0.83637831  1
  Ga  Ga1  1  0.43988916  0.93586571  0.66362169  1
  Ga  Ga2  1  0.06011084  0.93586571  0.16362169  1
  Ga  Ga3  1  0.56011084  0.06413429  0.33637831  1
  S  S0  1  0.39319047  0.15525464  0.37871254  1
  S  S1  1  0.89319047  0.84474536  0.12128746  1
  S  S2  1  0.60680953  0.84474536  0.62128746  1
  S  S3  1  0.10680953  0.15525464  0.87871254  1
  S  S4  1  0.67615343  0.34499681  0.18949368  1
  S  S5  1  0.17615343  0.65500319  0.31050632  1
  S  S6  1  0.32384657  0.65500319  0.81050632  1
  S  S7  1  0.82384657  0.34499681  0.68949368  1
  S  S8  1  0.54633730  0.87394222  0.23689076  1
  S  S9  1  0.04633730  0.12605778  0.26310924  1
  S  S10  1  0.45366270  0.12605778  0.76310924  1
  S  S11  1  0.95366270  0.87394222  0.73689076  1
loop_
_geom_bond_atom_site_label_1
_geom_bond_atom_site_label_2
_geom_bond_distance
_geom_bond_site_symmetry_2
K0 S1 3.125120 1_555
K0 S9 3.173106 1_655
K0 S11 3.187386 1_545
K0 S7 3.216946 1_555
K0 S4 3.572955 1_555
K1 S0 3.125120 1_555
K1 S8 3.173106 1_555
K1 S10 3.187386 1_564
K1 S6 3.216946 1_554
K1 S5 3.572955 1_555
K2 S3 3.125120 1_555
K2 S11 3.173106 1_455
K2 S9 3.187386 1_565
K2 S5 3.216946 1_555
K2 S6 3.572955 1_555
K3 S2 3.125120 1_555
K3 S10 3.173106 1_555
K3 S8 3.187386 1_546
K3 S4 3.216946 1_556
K3 S7 3.572955 1_555
K4 S5 3.199495 1_555
K4 S0 3.210191 1_555
K4 S3 3.300583 1_555
K4 S11 3.382626 1_445
K4 S6 3.408850 1_545
K4 S9 3.703245 1_555
K5 S4 3.199495 1_556
K5 S1 3.210191 1_556
K5 S2 3.300583 1_555
K5 S10 3.382626 1_565
K5 S7 3.408850 1_565
K5 S8 3.703245 1_556
K6 S7 3.199495 1_555
K6 S2 3.210191 1_555
K6 S1 3.300583 1_555
K6 S9 3.382626 1_665
K6 S4 3.408850 1_565
K6 S11 3.703245 1_555
K7 S6 3.199495 1_554
K7 S3 3.210191 1_554
K7 S0 3.300583 1_555
K7 S8 3.382626 1_545
K7 S5 3.408850 1_545
K7 S10 3.703245 1_554
K8 S4 3.117681 1_555
K8 S10 3.175045 1_555
K8 S8 3.191107 1_555
K8 S7 3.212689 1_555
K8 S2 3.458189 1_545
K9 S5 3.117681 1_555
K9 S11 3.175045 1_454
K9 S9 3.191107 1_555
K9 S6 3.212689 1_554
K9 S3 3.458189 1_564
K10 S6 3.117681 1_555
K10 S8 3.175045 1_555
K10 S10 3.191107 1_555
K10 S5 3.212689 1_555
K10 S0 3.458189 1_565
K11 S7 3.117681 1_555
K11 S9 3.175045 1_656
K11 S11 3.191107 1_555
K11 S4 3.212689 1_556
K11 S1 3.458189 1_546
Ga0 S11 2.244113 1_545
Ga0 S7 2.262723 1_555
Ga0 S3 2.331028 1_655
Ga0 S1 2.361579 1_546
Ga0 K5 3.380328 1_545
Ga1 S10 2.244113 1_565
Ga1 S6 2.262723 1_555
Ga1 S2 2.331028 1_555
Ga1 S0 2.361579 1_565
Ga1 K4 3.380328 1_565
Ga2 S9 2.244113 1_565
Ga2 S5 2.262723 1_555
Ga2 S1 2.331028 1_455
Ga2 S3 2.361579 1_564
Ga2 K7 3.380328 1_565
Ga3 S8 2.244113 1_545
Ga3 S4 2.262723 1_555
Ga3 S0 2.331028 1_555
Ga3 S2 2.361579 1_545
Ga3 K6 3.380328 1_545
