# generated using pymatgen
data_MoPb3Cl2O5
_symmetry_space_group_name_H-M   'P 1'
_cell_length_a   7.26056698
_cell_length_b   7.26056698
_cell_length_c   11.21520200
_cell_angle_alpha   90.00000000
_cell_angle_beta   90.00000000
_cell_angle_gamma   133.88924206
_symmetry_Int_Tables_number   1
_chemical_formula_structural   MoPb3Cl2O5
_chemical_formula_sum   'Mo2 Pb6 Cl4 O10'
_cell_volume   426.08026737
_cell_formula_units_Z   2
loop_
 _symmetry_equiv_pos_site_id
 _symmetry_equiv_pos_as_xyz
  1  'x, y, z'
loop_
 _atom_site_type_symbol
 _atom_site_label
 _atom_site_symmetry_multiplicity
 _atom_site_fract_x
 _atom_site_fract_y
 _atom_site_fract_z
 _atom_site_occupancy
  Mo  Mo0  1  0.76584000  0.23416000  0.25000000  1
  Mo  Mo1  1  0.23416000  0.76584000  0.75000000  1
  Pb  Pb0  1  0.65258400  0.34741600  0.53125600  1
  Pb  Pb1  1  0.34741600  0.65258400  0.03125600  1
  Pb  Pb2  1  0.65258400  0.34741600  0.96874400  1
  Pb  Pb3  1  0.89835400  0.10164600  0.75000000  1
  Pb  Pb4  1  0.34741600  0.65258400  0.46874400  1
  Pb  Pb5  1  0.10164600  0.89835400  0.25000000  1
  Cl  Cl0  1  0.52202800  0.47797200  0.25000000  1
  Cl  Cl1  1  0.00000000  0.00000000  0.50000000  1
  Cl  Cl2  1  0.47797200  0.52202800  0.75000000  1
  Cl  Cl3  1  0.00000000  0.00000000  0.00000000  1
  O  O0  1  0.49592800  0.03703200  0.36940900  1
  O  O1  1  0.03703200  0.49592800  0.63059100  1
  O  O2  1  0.50407200  0.96296800  0.86940900  1
  O  O3  1  0.50407200  0.96296800  0.63059100  1
  O  O4  1  0.10515000  0.89485000  0.75000000  1
  O  O5  1  0.03703200  0.49592800  0.86940900  1
  O  O6  1  0.49592800  0.03703200  0.13059100  1
  O  O7  1  0.96296800  0.50407200  0.36940900  1
  O  O8  1  0.89485000  0.10515000  0.25000000  1
  O  O9  1  0.96296800  0.50407200  0.13059100  1
loop_
_geom_bond_atom_site_label_1
_geom_bond_atom_site_label_2
_geom_bond_distance
_geom_bond_site_symmetry_2
Mo0 O8 1.723739 1_555
Mo0 O7 1.947665 1_555
Mo0 O0 1.947665 1_555
Mo0 O9 1.947665 1_555
Mo0 O6 1.947665 1_555
Mo1 O4 1.723739 1_555
Mo1 O2 1.947665 1_555
Mo1 O3 1.947665 1_555
Mo1 O1 1.947665 1_555
Mo1 O5 1.947665 1_555
Cl0 Pb5 3.035873 1_545
Cl0 Pb5 3.035873 1_655
Cl1 Pb5 3.115412 1_545
Cl1 Pb3 3.115412 1_455
Cl2 Pb3 3.035873 1_455
Cl2 Pb3 3.035873 1_565
Cl3 Pb5 3.115412 1_545
Cl3 Pb3 3.115412 1_454
O0 Pb4 2.453982 1_545
O0 Pb0 2.472450 1_555
O0 Pb5 2.646850 1_545
O1 Pb0 2.453982 1_455
O1 Pb4 2.472450 1_555
O1 Pb3 2.646850 1_455
O2 Pb2 2.453982 1_565
O2 Pb1 2.472450 1_556
O2 Pb3 2.646850 1_565
O3 Pb0 2.453982 1_565
O3 Pb4 2.472450 1_555
O3 Pb3 2.646850 1_565
O4 Pb3 2.763060 1_465
O5 Pb2 2.453982 1_455
O5 Pb1 2.472450 1_556
O5 Pb3 2.646850 1_455
O6 Pb1 2.453982 1_545
O6 Pb2 2.472450 1_554
O6 Pb5 2.646850 1_545
O7 Pb4 2.453982 1_655
O7 Pb0 2.472450 1_555
O7 Pb5 2.646850 1_655
O8 Pb5 2.763060 1_645
O9 Pb1 2.453982 1_655
O9 Pb2 2.472450 1_554
O9 Pb5 2.646850 1_655
