# generated using pymatgen
data_TiZn(BiO3)2
_symmetry_space_group_name_H-M   'P 1'
_cell_length_a   5.30076100
_cell_length_b   5.30076100
_cell_length_c   4.99544500
_cell_angle_alpha   90.00000000
_cell_angle_beta   90.00000000
_cell_angle_gamma   90.00000000
_symmetry_Int_Tables_number   1
_chemical_formula_structural   TiZn(BiO3)2
_chemical_formula_sum   'Ti1 Zn1 Bi2 O6'
_cell_volume   140.36234920
_cell_formula_units_Z   1
loop_
 _symmetry_equiv_pos_site_id
 _symmetry_equiv_pos_as_xyz
  1  'x, y, z'
loop_
 _atom_site_type_symbol
 _atom_site_label
 _atom_site_symmetry_multiplicity
 _atom_site_fract_x
 _atom_site_fract_y
 _atom_site_fract_z
 _atom_site_occupancy
  Ti  Ti0  1  0.50000000  0.50000000  0.41406700  1
  Zn  Zn0  1  0.00000000  0.00000000  0.44708700  1
  Bi  Bi0  1  0.00000000  0.50000000  0.99985300  1
  Bi  Bi1  1  0.50000000  0.00000000  0.99985300  1
  O  O0  1  0.25714700  0.25714700  0.27283000  1
  O  O1  1  0.25714700  0.74285300  0.27283000  1
  O  O2  1  0.00000000  0.00000000  0.82919800  1
  O  O3  1  0.50000000  0.50000000  0.77162300  1
  O  O4  1  0.74285300  0.74285300  0.27283000  1
  O  O5  1  0.74285300  0.25714700  0.27283000  1
loop_
_geom_bond_atom_site_label_1
_geom_bond_atom_site_label_2
_geom_bond_distance
_geom_bond_site_symmetry_2
Bi0 O0 2.318329 1_556
Bi0 O1 2.318329 1_556
Bi0 O5 2.318329 1_456
Bi0 O4 2.318329 1_456
Bi1 O4 2.318329 1_546
Bi1 O0 2.318329 1_556
Bi1 O1 2.318329 1_546
Bi1 O5 2.318329 1_556
O0 Ti0 1.952460 1_555
O0 Zn0 2.115112 1_555
O1 Ti0 1.952460 1_555
O1 Zn0 2.115112 1_565
O2 Zn0 1.908814 1_555
O3 Ti0 1.786151 1_555
O4 Ti0 1.952460 1_555
O4 Zn0 2.115112 1_665
O5 Ti0 1.952460 1_555
O5 Zn0 2.115112 1_655
