# generated using pymatgen
data_Sm13Cd58
_symmetry_space_group_name_H-M   'P 1'
_cell_length_a   15.90041807
_cell_length_b   15.90041807
_cell_length_c   15.61204500
_cell_angle_alpha   90.00000000
_cell_angle_beta   90.00000000
_cell_angle_gamma   120.00000029
_symmetry_Int_Tables_number   1
_chemical_formula_structural   Sm13Cd58
_chemical_formula_sum   'Sm26 Cd116'
_cell_volume   3418.27903670
_cell_formula_units_Z   2
loop_
 _symmetry_equiv_pos_site_id
 _symmetry_equiv_pos_as_xyz
  1  'x, y, z'
loop_
 _atom_site_type_symbol
 _atom_site_label
 _atom_site_symmetry_multiplicity
 _atom_site_fract_x
 _atom_site_fract_y
 _atom_site_fract_z
 _atom_site_occupancy
  Sm  Sm0  1  0.41138100  0.20569000  0.55254400  1
  Sm  Sm1  1  0.87169100  0.74338100  0.25000000  1
  Sm  Sm2  1  0.20569000  0.41138100  0.05254400  1
  Sm  Sm3  1  0.08739800  0.54369900  0.75000000  1
  Sm  Sm4  1  0.79431000  0.58861900  0.94745600  1
  Sm  Sm5  1  0.79431000  0.20569000  0.55254400  1
  Sm  Sm6  1  0.91260200  0.45630100  0.25000000  1
  Sm  Sm7  1  0.79431000  0.20569000  0.94745600  1
  Sm  Sm8  1  0.79431000  0.58861900  0.55254400  1
  Sm  Sm9  1  0.45630100  0.91260200  0.75000000  1
  Sm  Sm10  1  0.12830900  0.87169100  0.75000000  1
  Sm  Sm11  1  0.87169100  0.12830900  0.25000000  1
  Sm  Sm12  1  0.58861900  0.79431000  0.05254400  1
  Sm  Sm13  1  0.58861900  0.79431000  0.44745600  1
  Sm  Sm14  1  0.20569000  0.79431000  0.44745600  1
  Sm  Sm15  1  0.00000000  0.00000000  0.00000000  1
  Sm  Sm16  1  0.45630100  0.54369900  0.75000000  1
  Sm  Sm17  1  0.54369900  0.08739800  0.25000000  1
  Sm  Sm18  1  0.12830900  0.25661900  0.75000000  1
  Sm  Sm19  1  0.74338100  0.87169100  0.75000000  1
  Sm  Sm20  1  0.20569000  0.41138100  0.44745600  1
  Sm  Sm21  1  0.41138100  0.20569000  0.94745600  1
  Sm  Sm22  1  0.00000000  0.00000000  0.50000000  1
  Sm  Sm23  1  0.25661900  0.12830900  0.25000000  1
  Sm  Sm24  1  0.20569000  0.79431000  0.05254400  1
  Sm  Sm25  1  0.54369900  0.45630100  0.25000000  1
  Cd  Cd0  1  0.90761200  0.09238800  0.65572300  1
  Cd  Cd1  1  0.00000000  0.19835500  0.00000000  1
  Cd  Cd2  1  0.63525700  0.96402400  0.60218600  1
  Cd  Cd3  1  0.36474300  0.32876600  0.39781400  1
  Cd  Cd4  1  0.67123400  0.63525700  0.10218600  1
  Cd  Cd5  1  0.60027300  0.39972700  0.05192700  1
  Cd  Cd6  1  0.63525700  0.67123400  0.89781400  1
  Cd  Cd7  1  0.96402400  0.63525700  0.10218600  1
  Cd  Cd8  1  0.20054500  0.60027300  0.94807300  1
  Cd  Cd9  1  0.09238800  0.90761200  0.34427700  1
  Cd  Cd10  1  0.56063700  0.12127500  0.64620400  1
  Cd  Cd11  1  0.81522400  0.90761200  0.34427700  1
  Cd  Cd12  1  0.73301100  0.26698900  0.75000000  1
  Cd  Cd13  1  0.43936300  0.87872500  0.35379600  1
  Cd  Cd14  1  0.32876600  0.36474300  0.89781400  1
  Cd  Cd15  1  0.03597600  0.67123400  0.89781400  1
  Cd  Cd16  1  0.53108200  0.76554100  0.84153200  1
  Cd  Cd17  1  0.80164500  0.80164500  0.00000000  1
  Cd  Cd18  1  0.36474300  0.03597600  0.39781400  1
  Cd  Cd19  1  0.00000000  0.19835500  0.50000000  1
  Cd  Cd20  1  0.91880900  0.64279300  0.75000000  1
  Cd  Cd21  1  0.19835500  0.19835500  0.50000000  1
  Cd  Cd22  1  0.67123400  0.03597600  0.10218600  1
  Cd  Cd23  1  0.60027300  0.39972700  0.44807300  1
  Cd  Cd24  1  0.76554100  0.53108200  0.34153200  1
  Cd  Cd25  1  0.76554100  0.53108200  0.15846800  1
  Cd  Cd26  1  0.96402400  0.32876600  0.10218600  1
  Cd  Cd27  1  0.66666700  0.33333300  0.59568400  1
  Cd  Cd28  1  0.27601600  0.91880900  0.25000000  1
  Cd  Cd29  1  0.46891800  0.23445900  0.34153200  1
  Cd  Cd30  1  0.03597600  0.36474300  0.60218600  1
  Cd  Cd31  1  0.33333300  0.66666700  0.75000000  1
  Cd  Cd32  1  0.72398400  0.08119100  0.75000000  1
  Cd  Cd33  1  0.03597600  0.36474300  0.89781400  1
  Cd  Cd34  1  0.80164500  0.00000000  0.50000000  1
  Cd  Cd35  1  0.60027300  0.20054500  0.44807300  1
  Cd  Cd36  1  0.67123400  0.03597600  0.39781400  1
  Cd  Cd37  1  0.35720700  0.08119100  0.75000000  1
  Cd  Cd38  1  0.91880900  0.27601600  0.75000000  1
  Cd  Cd39  1  0.00000000  0.80164500  0.00000000  1
  Cd  Cd40  1  0.43936300  0.56063700  0.14620400  1
  Cd  Cd41  1  0.12127500  0.56063700  0.35379600  1
  Cd  Cd42  1  0.50000000  0.00000000  0.50000000  1
  Cd  Cd43  1  0.90761200  0.81522400  0.84427700  1
  Cd  Cd44  1  0.09238800  0.18477600  0.15572300  1
  Cd  Cd45  1  0.03597600  0.67123400  0.60218600  1
  Cd  Cd46  1  0.32876600  0.36474300  0.60218600  1
  Cd  Cd47  1  0.56063700  0.12127500  0.85379600  1
  Cd  Cd48  1  0.20054500  0.60027300  0.55192700  1
  Cd  Cd49  1  0.63525700  0.67123400  0.60218600  1
  Cd  Cd50  1  0.43936300  0.56063700  0.35379600  1
  Cd  Cd51  1  0.00000000  0.00000000  0.25000000  1
  Cd  Cd52  1  0.60027300  0.20054500  0.05192700  1
  Cd  Cd53  1  0.79945500  0.39972700  0.44807300  1
  Cd  Cd54  1  0.73301100  0.46602200  0.75000000  1
  Cd  Cd55  1  0.39972700  0.79945500  0.94807300  1
  Cd  Cd56  1  0.66666700  0.33333300  0.90431600  1
  Cd  Cd57  1  0.23445900  0.46891800  0.84153200  1
  Cd  Cd58  1  0.76554100  0.23445900  0.15846800  1
  Cd  Cd59  1  0.27601600  0.35720700  0.25000000  1
  Cd  Cd60  1  0.39972700  0.60027300  0.55192700  1
  Cd  Cd61  1  0.36474300  0.03597600  0.10218600  1
  Cd  Cd62  1  0.76554100  0.23445900  0.34153200  1
  Cd  Cd63  1  0.81522400  0.90761200  0.15572300  1
  Cd  Cd64  1  0.32876600  0.96402400  0.89781400  1
  Cd  Cd65  1  0.87872500  0.43936300  0.85379600  1
  Cd  Cd66  1  0.90761200  0.81522400  0.65572300  1
  Cd  Cd67  1  0.12127500  0.56063700  0.14620400  1
  Cd  Cd68  1  0.96402400  0.32876600  0.39781400  1
  Cd  Cd69  1  0.64279300  0.72398400  0.25000000  1
  Cd  Cd70  1  0.56063700  0.43936300  0.85379600  1
  Cd  Cd71  1  0.46891800  0.23445900  0.15846800  1
  Cd  Cd72  1  0.80164500  0.80164500  0.50000000  1
  Cd  Cd73  1  0.00000000  0.00000000  0.75000000  1
  Cd  Cd74  1  0.18477600  0.09238800  0.65572300  1
  Cd  Cd75  1  0.19835500  0.19835500  0.00000000  1
  Cd  Cd76  1  0.19835500  0.00000000  0.50000000  1
  Cd  Cd77  1  0.08119100  0.35720700  0.25000000  1
  Cd  Cd78  1  0.67123400  0.63525700  0.39781400  1
  Cd  Cd79  1  0.53108200  0.76554100  0.65846800  1
  Cd  Cd80  1  0.79945500  0.39972700  0.05192700  1
  Cd  Cd81  1  0.36474300  0.32876600  0.10218600  1
  Cd  Cd82  1  0.23445900  0.76554100  0.84153200  1
  Cd  Cd83  1  0.66666700  0.33333300  0.25000000  1
  Cd  Cd84  1  0.43936300  0.87872500  0.14620400  1
  Cd  Cd85  1  0.50000000  0.50000000  0.00000000  1
  Cd  Cd86  1  0.00000000  0.50000000  0.50000000  1
  Cd  Cd87  1  0.23445900  0.76554100  0.65846800  1
  Cd  Cd88  1  0.33333300  0.66666700  0.40431600  1
  Cd  Cd89  1  0.19835500  0.00000000  0.00000000  1
  Cd  Cd90  1  0.08119100  0.72398400  0.25000000  1
  Cd  Cd91  1  0.00000000  0.80164500  0.50000000  1
  Cd  Cd92  1  0.63525700  0.96402400  0.89781400  1
  Cd  Cd93  1  0.50000000  0.50000000  0.50000000  1
  Cd  Cd94  1  0.18477600  0.09238800  0.84427700  1
  Cd  Cd95  1  0.53397800  0.26698900  0.75000000  1
  Cd  Cd96  1  0.09238800  0.90761200  0.15572300  1
  Cd  Cd97  1  0.90761200  0.09238800  0.84427700  1
  Cd  Cd98  1  0.56063700  0.43936300  0.64620400  1
  Cd  Cd99  1  0.35720700  0.27601600  0.75000000  1
  Cd  Cd100  1  0.26698900  0.73301100  0.25000000  1
  Cd  Cd101  1  0.96402400  0.63525700  0.39781400  1
  Cd  Cd102  1  0.33333300  0.66666700  0.09568400  1
  Cd  Cd103  1  0.26698900  0.53397800  0.25000000  1
  Cd  Cd104  1  0.80164500  0.00000000  0.00000000  1
  Cd  Cd105  1  0.64279300  0.91880900  0.25000000  1
  Cd  Cd106  1  0.50000000  0.00000000  0.00000000  1
  Cd  Cd107  1  0.87872500  0.43936300  0.64620400  1
  Cd  Cd108  1  0.32876600  0.96402400  0.60218600  1
  Cd  Cd109  1  0.00000000  0.50000000  0.00000000  1
  Cd  Cd110  1  0.09238800  0.18477600  0.34427700  1
  Cd  Cd111  1  0.39972700  0.60027300  0.94807300  1
  Cd  Cd112  1  0.23445900  0.46891800  0.65846800  1
  Cd  Cd113  1  0.72398400  0.64279300  0.75000000  1
  Cd  Cd114  1  0.39972700  0.79945500  0.55192700  1
  Cd  Cd115  1  0.46602200  0.73301100  0.25000000  1
loop_
_geom_bond_atom_site_label_1
_geom_bond_atom_site_label_2
_geom_bond_distance
_geom_bond_site_symmetry_2
Cd0 Cd34 2.903841 1_555
Cd0 Cd19 2.903841 1_655
Cd0 Cd73 2.939441 1_655
Cd0 Cd97 2.943714 1_555
Cd0 Cd38 3.194252 1_555
Cd0 Cd32 3.194252 1_555
Cd0 Sm19 3.483693 1_545
Cd0 Sm18 3.483693 1_655
Cd0 Sm5 3.511628 1_555
Cd0 Sm22 3.519157 1_655
Cd1 Cd26 2.891063 1_455
Cd1 Cd33 2.891076 1_554
Cd1 Cd97 2.903841 1_454
Cd1 Cd44 2.903841 1_555
Cd1 Cd104 3.153927 1_455
Cd1 Sm15 3.153927 1_555
Cd1 Cd75 3.153927 1_555
Cd1 Sm7 3.429944 1_454
Cd1 Sm2 3.429952 1_555
Cd2 Cd32 2.856255 1_565
Cd2 Cd79 2.871986 1_555
Cd2 Cd34 2.891076 1_565
Cd2 Cd42 2.954287 1_565
Cd2 Cd36 3.340959 1_565
Cd2 Sm13 3.415581 1_555
Cd2 Sm9 3.429881 1_555
Cd2 Sm5 3.470459 1_565
Cd2 Sm19 3.600075 1_555
Cd3 Cd59 2.856262 1_555
Cd3 Cd93 2.954296 1_555
Cd3 Cd50 3.331433 1_555
Cd3 Cd46 3.340967 1_555
Cd3 Sm0 3.415581 1_555
Cd3 Sm25 3.429884 1_555
Cd3 Sm20 3.470483 1_555
Cd3 Sm23 3.600075 1_555
Cd4 Cd69 2.856262 1_555
Cd4 Cd85 2.954296 1_555
Cd4 Cd40 3.331433 1_555
Cd4 Cd6 3.340967 1_554
Cd4 Sm4 3.415581 1_554
Cd4 Cd5 3.418833 1_555
Cd4 Sm25 3.429884 1_555
Cd4 Sm12 3.470483 1_555
Cd4 Sm1 3.600075 1_555
Cd5 Cd85 2.878086 1_555
Cd5 Cd71 2.923337 1_555
Cd5 Cd56 2.941806 1_554
Cd5 Cd70 3.280189 1_554
Cd5 Cd81 3.418833 1_555
Cd5 Sm21 3.454470 1_554
Cd5 Sm4 3.454470 1_554
Cd5 Sm25 3.462664 1_555
Cd6 Cd85 2.954296 1_556
Cd6 Cd70 3.331433 1_555
Cd6 Sm12 3.415581 1_556
Cd6 Sm16 3.429884 1_555
Cd6 Sm4 3.470483 1_555
Cd6 Sm19 3.600075 1_555
Cd7 Cd90 2.856255 1_655
Cd7 Sm4 3.415581 1_554
Cd7 Cd80 3.418833 1_555
Cd7 Sm6 3.429881 1_555
Cd7 Sm24 3.470459 1_655
Cd7 Sm1 3.600075 1_555
Cd8 Cd82 2.923333 1_555
Cd8 Sm24 3.454470 1_556
Cd8 Sm2 3.454470 1_556
Cd8 Sm3 3.462658 1_555
Cd9 Cd91 2.903841 1_555
Cd9 Cd96 2.943714 1_555
Cd9 Cd90 3.194252 1_555
Cd9 Sm23 3.483693 1_565
Cd9 Sm1 3.483693 1_455
Cd9 Sm14 3.511628 1_555
Cd9 Sm22 3.519157 1_565
Cd10 Cd42 2.828220 1_555
Cd10 Cd27 3.024717 1_555
Cd10 Cd95 3.025855 1_555
Cd10 Cd12 3.025864 1_555
Cd10 Cd47 3.240936 1_555
Cd10 Cd35 3.280180 1_555
Cd10 Sm9 3.298894 1_545
Cd10 Cd108 3.331433 1_545
Cd10 Cd2 3.331433 1_545
Cd10 Cd37 3.381319 1_555
Cd10 Cd32 3.381333 1_555
Cd10 Sm0 3.571744 1_555
Cd10 Sm5 3.571772 1_555
Cd11 Cd72 2.903841 1_555
Cd11 Cd34 2.903841 1_565
Cd11 Cd51 2.939441 1_665
Cd11 Cd63 2.943714 1_555
Cd11 Cd69 3.194252 1_555
Cd11 Sm11 3.483690 1_565
Cd11 Sm1 3.483703 1_555
Cd11 Sm13 3.511640 1_555
Cd11 Sm22 3.519157 1_665
Cd12 Cd32 2.885178 1_555
Cd12 Cd38 2.885178 1_555
Cd12 Cd27 3.023676 1_555
Cd12 Cd56 3.023676 1_555
Cd12 Cd47 3.025864 1_555
Cd12 Cd65 3.025864 1_555
Cd12 Cd95 3.164708 1_555
Cd12 Cd54 3.164708 1_555
Cd12 Sm5 3.514682 1_555
Cd12 Sm7 3.514682 1_555
Cd13 Cd42 2.828220 1_565
Cd13 Cd88 3.024717 1_555
Cd13 Cd84 3.240936 1_555
Cd13 Sm17 3.298894 1_565
Cd13 Cd36 3.331433 1_565
Cd13 Cd18 3.331433 1_565
Cd13 Cd28 3.381333 1_555
Cd13 Sm13 3.571744 1_555
Cd13 Sm14 3.571772 1_555
Cd14 Cd99 2.856262 1_555
Cd14 Cd57 2.871973 1_555
Cd14 Cd75 2.891072 1_556
Cd14 Cd85 2.954296 1_556
Cd14 Cd70 3.331433 1_555
Cd14 Cd81 3.340967 1_556
Cd14 Sm2 3.415581 1_556
Cd14 Sm16 3.429884 1_555
Cd14 Sm21 3.470483 1_555
Cd14 Sm18 3.600075 1_555
Cd15 Cd20 2.856252 1_455
Cd15 Cd82 2.871986 1_555
Cd15 Cd39 2.891063 1_556
Cd15 Cd65 3.331433 1_455
Cd15 Cd7 3.340959 1_456
Cd15 Sm24 3.415581 1_556
Cd15 Cd8 3.418833 1_555
Cd15 Sm3 3.429892 1_555
Cd15 Sm4 3.470454 1_455
Cd15 Sm10 3.600075 1_555
Cd16 Cd79 2.858003 1_555
Cd16 Cd6 2.871973 1_555
Cd16 Cd92 2.871986 1_555
Cd16 Cd55 2.923345 1_555
Cd16 Cd31 3.075219 1_555
Cd16 Sm19 3.253962 1_555
Cd16 Sm12 3.388264 1_556
Cd16 Sm16 3.421121 1_555
Cd16 Sm9 3.421121 1_555
Cd17 Cd4 2.891072 1_555
Cd17 Cd6 2.891072 1_554
Cd17 Cd43 2.903841 1_554
Cd17 Cd63 2.903841 1_555
Cd17 Sm15 3.153927 1_665
Cd17 Cd39 3.153927 1_655
Cd17 Sm12 3.429959 1_555
Cd17 Sm4 3.429959 1_554
Cd18 Cd28 2.856255 1_545
Cd18 Cd29 2.871986 1_555
Cd18 Cd76 2.891076 1_555
Cd18 Cd42 2.954287 1_555
Cd18 Sm0 3.415581 1_555
Cd18 Cd35 3.418833 1_555
Cd18 Sm17 3.429881 1_555
Cd18 Sm14 3.470459 1_545
Cd18 Sm23 3.600075 1_555
Cd19 Cd68 2.891063 1_455
Cd19 Cd30 2.891076 1_555
Cd19 Cd34 3.153927 1_455
Cd19 Cd21 3.153927 1_555
Cd19 Sm22 3.153927 1_555
Cd19 Sm5 3.429944 1_455
Cd19 Sm20 3.429952 1_555
Cd20 Cd45 2.856252 1_655
Cd20 Cd54 2.885178 1_555
Cd20 Cd43 3.194252 1_555
Cd20 Cd66 3.194252 1_555
Cd20 Cd65 3.381319 1_555
Cd20 Sm10 3.495576 1_655
Cd20 Sm4 3.529667 1_555
Cd20 Sm8 3.529667 1_555
Cd20 Sm3 3.727216 1_655
Cd21 Cd3 2.891072 1_555
Cd21 Cd46 2.891072 1_555
Cd21 Cd74 2.903841 1_555
Cd21 Sm22 3.153927 1_555
Cd21 Cd76 3.153927 1_555
Cd21 Sm20 3.429959 1_555
Cd21 Sm0 3.429959 1_555
Cd22 Cd58 2.871986 1_555
Cd22 Cd84 3.331433 1_545
Cd22 Cd92 3.340959 1_544
Cd22 Sm7 3.415581 1_554
Cd22 Cd52 3.418833 1_555
Cd22 Sm17 3.429892 1_555
Cd22 Sm12 3.470454 1_545
Cd22 Sm11 3.600075 1_555
Cd23 Cd93 2.878086 1_555
Cd23 Cd29 2.923337 1_555
Cd23 Cd24 2.923337 1_555
Cd23 Cd27 2.941806 1_555
Cd23 Cd98 3.280189 1_555
Cd23 Cd78 3.418833 1_555
Cd23 Cd3 3.418833 1_555
Cd23 Sm0 3.454470 1_555
Cd23 Sm8 3.454470 1_555
Cd23 Sm25 3.462664 1_555
Cd24 Cd25 2.858003 1_555
Cd24 Cd78 2.871973 1_555
Cd24 Cd53 2.923345 1_555
Cd24 Cd83 3.075219 1_555
Cd24 Sm1 3.253962 1_555
Cd24 Sm8 3.388264 1_555
Cd24 Sm25 3.421121 1_555
Cd24 Sm6 3.421121 1_555
Cd25 Cd4 2.871973 1_555
Cd25 Cd7 2.871986 1_555
Cd25 Cd5 2.923337 1_555
Cd25 Cd80 2.923345 1_555
Cd25 Cd83 3.075219 1_555
Cd25 Sm1 3.253962 1_555
Cd25 Sm4 3.388264 1_554
Cd25 Sm25 3.421121 1_555
Cd25 Sm6 3.421121 1_555
Cd26 Cd77 2.856252 1_655
Cd26 Cd58 2.871986 1_555
Cd26 Cd67 3.331433 1_655
Cd26 Cd33 3.340959 1_654
Cd26 Sm7 3.415581 1_554
Cd26 Cd80 3.418833 1_555
Cd26 Sm6 3.429892 1_555
Cd26 Sm2 3.470454 1_655
Cd26 Sm11 3.600075 1_555
Cd27 Cd35 2.941806 1_555
Cd27 Cd53 2.941806 1_555
Cd27 Cd54 3.023684 1_555
Cd27 Cd95 3.023684 1_555
Cd27 Cd98 3.024743 1_555
Cd27 Sm8 3.579268 1_555
Cd27 Sm0 3.579268 1_555
Cd27 Sm5 3.579268 1_555
Cd28 Cd61 2.856255 1_565
Cd28 Cd90 3.097799 1_555
Cd28 Cd9 3.194252 1_555
Cd28 Cd96 3.194252 1_555
Cd28 Cd84 3.381333 1_555
Cd28 Sm23 3.495567 1_565
Cd28 Sm24 3.529667 1_555
Cd28 Sm14 3.529667 1_555
Cd28 Sm17 3.727216 1_565
Cd29 Cd71 2.858003 1_555
Cd29 Cd3 2.871973 1_555
Cd29 Cd35 2.923345 1_555
Cd29 Cd83 3.075219 1_555
Cd29 Sm23 3.253962 1_555
Cd29 Sm0 3.388264 1_555
Cd29 Sm25 3.421121 1_555
Cd29 Sm17 3.421121 1_555
Cd30 Cd38 2.856255 1_455
Cd30 Cd86 2.954287 1_555
Cd30 Cd68 3.340959 1_455
Cd30 Sm20 3.415581 1_555
Cd30 Cd48 3.418833 1_555
Cd30 Sm3 3.429881 1_555
Cd30 Sm5 3.470459 1_455
Cd30 Sm18 3.600075 1_555
Cd31 Cd87 3.075207 1_555
Cd31 Cd82 3.075207 1_555
Cd31 Cd57 3.075219 1_555
Cd31 Cd79 3.075219 1_555
Cd31 Sm3 3.386566 1_555
Cd31 Sm9 3.386566 1_555
Cd31 Sm16 3.386580 1_555
Cd32 Cd92 2.856255 1_545
Cd32 Cd38 3.097799 1_555
Cd32 Cd97 3.194252 1_555
Cd32 Cd47 3.381333 1_555
Cd32 Sm19 3.495567 1_545
Cd32 Sm7 3.529667 1_555
Cd32 Sm5 3.529667 1_555
Cd32 Sm9 3.727216 1_545
Cd33 Cd38 2.856255 1_455
Cd33 Cd57 2.871986 1_555
Cd33 Cd65 3.331433 1_455
Cd33 Sm2 3.415581 1_556
Cd33 Cd8 3.418833 1_555
Cd33 Sm3 3.429881 1_555
Cd33 Sm7 3.470459 1_455
Cd33 Sm18 3.600075 1_555
Cd34 Cd36 2.891063 1_555
Cd34 Cd72 3.153927 1_545
Cd34 Sm22 3.153927 1_655
Cd34 Sm5 3.429944 1_555
Cd34 Sm13 3.429952 1_545
Cd35 Cd42 2.878073 1_555
Cd35 Cd62 2.923333 1_555
Cd35 Cd36 3.418833 1_555
Cd35 Sm5 3.454470 1_555
Cd35 Sm0 3.454470 1_555
Cd35 Sm17 3.462658 1_555
Cd36 Cd62 2.871986 1_555
Cd36 Cd42 2.954300 1_555
Cd36 Sm5 3.415581 1_555
Cd36 Sm17 3.429892 1_555
Cd36 Sm13 3.470454 1_545
Cd36 Sm11 3.600075 1_555
Cd37 Cd64 2.856252 1_545
Cd37 Cd95 2.885178 1_555
Cd37 Cd99 3.097799 1_555
Cd37 Cd74 3.194252 1_555
Cd37 Cd94 3.194252 1_555
Cd37 Cd47 3.381319 1_555
Cd37 Sm10 3.495576 1_545
Cd37 Sm21 3.529667 1_555
Cd37 Sm0 3.529667 1_555
Cd37 Sm9 3.727216 1_545
Cd38 Cd97 3.194252 1_555
Cd38 Cd65 3.381333 1_555
Cd38 Sm18 3.495567 1_655
Cd38 Sm7 3.529667 1_555
Cd38 Sm5 3.529667 1_555
Cd38 Sm3 3.727216 1_655
Cd39 Cd7 2.891076 1_455
Cd39 Cd96 2.903841 1_555
Cd39 Cd43 2.903841 1_454
Cd39 Cd89 3.153927 1_565
Cd39 Sm15 3.153927 1_565
Cd39 Sm24 3.429944 1_555
Cd39 Sm4 3.429952 1_454
Cd40 Cd85 2.828212 1_555
Cd40 Cd50 3.240936 1_555
Cd40 Sm25 3.298882 1_555
Cd40 Cd81 3.331433 1_555
Cd40 Cd69 3.381324 1_555
Cd40 Cd59 3.381324 1_555
Cd40 Sm12 3.571767 1_555
Cd40 Sm2 3.571767 1_555
Cd41 Cd86 2.828220 1_555
Cd41 Cd88 3.024717 1_555
Cd41 Cd67 3.240936 1_555
Cd41 Cd48 3.280180 1_555
Cd41 Sm6 3.298894 1_455
Cd41 Cd68 3.331433 1_455
Cd41 Cd77 3.381319 1_555
Cd41 Cd90 3.381333 1_555
Cd41 Sm20 3.571744 1_555
Cd41 Sm14 3.571772 1_555
Cd43 Cd73 2.939441 1_665
Cd43 Cd66 2.943714 1_555
Cd43 Sm10 3.483690 1_655
Cd43 Sm19 3.483703 1_555
Cd43 Sm4 3.511640 1_555
Cd43 Sm15 3.519157 1_666
Cd44 Cd75 2.903841 1_555
Cd44 Cd51 2.939441 1_555
Cd44 Cd59 3.194252 1_555
Cd44 Cd77 3.194252 1_555
Cd44 Sm11 3.483690 1_455
Cd44 Sm23 3.483703 1_555
Cd44 Sm2 3.511640 1_555
Cd44 Sm15 3.519157 1_555
Cd45 Cd87 2.871986 1_555
Cd45 Cd91 2.891063 1_555
Cd45 Cd86 2.954300 1_555
Cd45 Sm14 3.415581 1_555
Cd45 Cd48 3.418833 1_555
Cd45 Sm3 3.429892 1_555
Cd45 Sm8 3.470454 1_455
Cd45 Sm10 3.600075 1_555
Cd46 Cd99 2.856262 1_555
Cd46 Cd93 2.954296 1_555
Cd46 Cd98 3.331433 1_555
Cd46 Sm20 3.415581 1_555
Cd46 Cd60 3.418833 1_555
Cd46 Sm16 3.429884 1_555
Cd46 Sm0 3.470483 1_555
Cd46 Sm18 3.600075 1_555
Cd47 Cd56 3.024717 1_555
Cd47 Cd95 3.025855 1_555
Cd47 Cd52 3.280180 1_556
Cd47 Sm9 3.298894 1_545
Cd47 Cd64 3.331433 1_545
Cd47 Cd92 3.331433 1_545
Cd47 Sm21 3.571744 1_555
Cd47 Sm7 3.571772 1_555
Cd48 Cd86 2.878073 1_555
Cd48 Cd87 2.923333 1_555
Cd48 Cd88 2.941806 1_555
Cd48 Sm14 3.454470 1_555
Cd48 Sm20 3.454470 1_555
Cd48 Sm3 3.462658 1_555
Cd49 Cd79 2.871973 1_555
Cd49 Cd72 2.891072 1_555
Cd49 Cd93 2.954296 1_555
Cd49 Cd98 3.331433 1_555
Cd49 Cd78 3.340967 1_555
Cd49 Sm13 3.415581 1_555
Cd49 Cd60 3.418833 1_555
Cd49 Sm16 3.429884 1_555
Cd49 Sm8 3.470483 1_555
Cd49 Sm19 3.600075 1_555
Cd50 Cd93 2.828212 1_555
Cd50 Cd88 3.024743 1_555
Cd50 Cd60 3.280189 1_555
Cd50 Sm25 3.298882 1_555
Cd50 Cd78 3.331433 1_555
Cd50 Cd69 3.381324 1_555
Cd50 Cd59 3.381324 1_555
Cd50 Sm13 3.571767 1_555
Cd50 Sm20 3.571767 1_555
Cd51 Cd63 2.939441 1_445
Cd51 Cd9 2.939441 1_545
Cd51 Cd96 2.939441 1_545
Cd51 Sm11 3.533672 1_455
Cd51 Sm23 3.533686 1_555
Cd51 Sm1 3.533686 1_445
Cd51 Sm22 3.903011 1_555
Cd51 Sm15 3.903011 1_555
Cd52 Cd58 2.923333 1_555
Cd52 Cd71 2.923345 1_555
Cd52 Cd56 2.941806 1_554
Cd52 Cd61 3.418833 1_555
Cd52 Sm7 3.454470 1_554
Cd52 Sm21 3.454470 1_554
Cd52 Sm17 3.462658 1_555
Cd53 Cd86 2.878073 1_655
Cd53 Cd62 2.923333 1_555
Cd53 Cd68 3.418833 1_555
Cd53 Sm5 3.454470 1_555
Cd53 Sm8 3.454470 1_555
Cd53 Sm6 3.462658 1_555
Cd54 Cd56 3.023684 1_555
Cd54 Cd65 3.025855 1_555
Cd54 Cd70 3.025869 1_555
Cd54 Cd98 3.025869 1_555
Cd54 Cd95 3.164708 1_555
Cd54 Sm4 3.514676 1_555
Cd54 Sm8 3.514676 1_555
Cd55 Cd82 2.923333 1_555
Cd55 Cd84 3.280180 1_556
Cd55 Cd92 3.418833 1_555
Cd55 Cd64 3.418833 1_555
Cd55 Sm24 3.454470 1_556
Cd55 Sm12 3.454470 1_556
Cd55 Sm9 3.462658 1_555
Cd56 Cd80 2.941806 1_556
Cd56 Cd95 3.023684 1_555
Cd56 Cd65 3.024717 1_555
Cd56 Cd70 3.024743 1_555
Cd56 Sm4 3.579268 1_555
Cd56 Sm21 3.579268 1_555
Cd56 Sm7 3.579268 1_555
Cd57 Cd8 2.923345 1_555
Cd57 Sm18 3.253962 1_555
Cd57 Sm2 3.388264 1_556
Cd57 Sm16 3.421121 1_555
Cd57 Sm3 3.421121 1_555
Cd58 Cd62 2.858003 1_555
Cd58 Cd80 2.923333 1_555
Cd58 Cd83 3.075207 1_555
Cd58 Sm11 3.253974 1_555
Cd58 Sm7 3.388267 1_554
Cd58 Sm17 3.421121 1_555
Cd58 Sm6 3.421121 1_555
Cd59 Cd81 2.856262 1_555
Cd59 Cd77 3.097799 1_555
Cd59 Sm23 3.495583 1_555
Cd59 Sm2 3.529674 1_555
Cd59 Sm20 3.529674 1_555
Cd59 Sm25 3.727216 1_555
Cd60 Cd93 2.878086 1_555
Cd60 Cd79 2.923337 1_555
Cd60 Cd88 2.941806 1_555
Cd60 Sm20 3.454470 1_555
Cd60 Sm13 3.454470 1_555
Cd60 Sm16 3.462664 1_555
Cd61 Cd71 2.871986 1_555
Cd61 Cd89 2.891076 1_555
Cd61 Cd84 3.331433 1_545
Cd61 Cd64 3.340959 1_544
Cd61 Sm21 3.415581 1_554
Cd61 Sm17 3.429881 1_555
Cd61 Sm24 3.470459 1_545
Cd61 Sm23 3.600075 1_555
Cd62 Cd68 2.871986 1_555
Cd62 Cd83 3.075207 1_555
Cd62 Sm11 3.253974 1_555
Cd62 Sm5 3.388267 1_555
Cd62 Sm17 3.421121 1_555
Cd62 Sm6 3.421121 1_555
Cd63 Cd69 3.194252 1_555
Cd63 Sm11 3.483690 1_565
Cd63 Sm1 3.483703 1_555
Cd63 Sm12 3.511640 1_555
Cd63 Sm15 3.519157 1_665
Cd64 Cd82 2.871986 1_555
Cd64 Cd89 2.891063 1_566
Cd64 Sm24 3.415581 1_556
Cd64 Sm9 3.429892 1_555
Cd64 Sm21 3.470454 1_565
Cd64 Sm10 3.600075 1_555
Cd65 Cd80 3.280180 1_556
Cd65 Sm3 3.298894 1_655
Cd65 Sm4 3.571744 1_555
Cd65 Sm7 3.571772 1_555
Cd66 Cd72 2.903841 1_555
Cd66 Cd91 2.903841 1_655
Cd66 Cd73 2.939441 1_665
Cd66 Sm10 3.483690 1_655
Cd66 Sm19 3.483703 1_555
Cd66 Sm8 3.511640 1_555
Cd66 Sm22 3.519157 1_665
Cd67 Cd8 3.280180 1_554
Cd67 Sm6 3.298894 1_455
Cd67 Cd7 3.331433 1_455
Cd67 Cd77 3.381319 1_555
Cd67 Cd90 3.381333 1_555
Cd67 Sm2 3.571744 1_555
Cd67 Sm24 3.571772 1_555
Cd68 Cd77 2.856252 1_655
Cd68 Cd86 2.954300 1_655
Cd68 Sm5 3.415581 1_555
Cd68 Sm6 3.429892 1_555
Cd68 Sm20 3.470454 1_655
Cd68 Sm11 3.600075 1_555
Cd69 Cd78 2.856262 1_555
Cd69 Sm1 3.495583 1_555
Cd69 Sm12 3.529674 1_555
Cd69 Sm13 3.529674 1_555
Cd69 Sm25 3.727216 1_555
Cd70 Cd85 2.828212 1_556
Cd70 Cd95 3.025869 1_555
Cd70 Cd98 3.240936 1_555
Cd70 Sm16 3.298882 1_555
Cd70 Cd99 3.381324 1_555
Cd70 Sm4 3.571767 1_555
Cd70 Sm21 3.571767 1_555
Cd71 Cd81 2.871973 1_555
Cd71 Cd83 3.075219 1_555
Cd71 Sm23 3.253962 1_555
Cd71 Sm21 3.388264 1_554
Cd71 Sm25 3.421121 1_555
Cd71 Sm17 3.421121 1_555
Cd72 Cd78 2.891072 1_555
Cd72 Sm22 3.153927 1_665
Cd72 Cd91 3.153927 1_655
Cd72 Sm13 3.429959 1_555
Cd72 Sm8 3.429959 1_555
Cd73 Cd74 2.939441 1_555
Cd73 Cd94 2.939441 1_555
Cd73 Cd97 2.939441 1_455
Cd73 Sm10 3.533672 1_545
Cd73 Sm18 3.533686 1_555
Cd73 Sm19 3.533686 1_445
Cd73 Sm22 3.903011 1_555
Cd73 Sm15 3.903011 1_556
Cd74 Cd76 2.903841 1_555
Cd74 Cd94 2.943714 1_555
Cd74 Cd99 3.194252 1_555
Cd74 Sm10 3.483690 1_545
Cd74 Sm18 3.483703 1_555
Cd74 Sm0 3.511640 1_555
Cd74 Sm22 3.519157 1_555
Cd75 Cd81 2.891072 1_555
Cd75 Cd94 2.903841 1_554
Cd75 Sm15 3.153927 1_555
Cd75 Cd89 3.153927 1_555
Cd75 Sm2 3.429959 1_555
Cd75 Sm21 3.429959 1_554
Cd76 Cd9 2.903841 1_545
Cd76 Cd91 3.153927 1_545
Cd76 Sm22 3.153927 1_555
Cd76 Sm14 3.429944 1_545
Cd76 Sm0 3.429952 1_555
Cd77 Sm11 3.495576 1_455
Cd77 Sm2 3.529667 1_555
Cd77 Sm20 3.529667 1_555
Cd77 Sm6 3.727216 1_455
Cd78 Cd93 2.954296 1_555
Cd78 Sm8 3.415581 1_555
Cd78 Sm25 3.429884 1_555
Cd78 Sm13 3.470483 1_555
Cd78 Sm1 3.600075 1_555
Cd79 Sm19 3.253962 1_555
Cd79 Sm13 3.388264 1_555
Cd79 Sm16 3.421121 1_555
Cd79 Sm9 3.421121 1_555
Cd80 Sm7 3.454470 1_554
Cd80 Sm4 3.454470 1_554
Cd80 Sm6 3.462658 1_555
Cd81 Cd85 2.954296 1_555
Cd81 Sm21 3.415581 1_554
Cd81 Sm25 3.429884 1_555
Cd81 Sm2 3.470483 1_555
Cd81 Sm23 3.600075 1_555
Cd82 Cd87 2.858003 1_555
Cd82 Sm10 3.253974 1_555
Cd82 Sm24 3.388267 1_556
Cd82 Sm3 3.421121 1_555
Cd82 Sm9 3.421121 1_555
Cd83 Sm17 3.386566 1_555
Cd83 Sm6 3.386566 1_555
Cd83 Sm25 3.386580 1_555
Cd84 Sm17 3.298894 1_565
Cd84 Sm12 3.571744 1_555
Cd84 Sm24 3.571772 1_555
Cd87 Sm10 3.253974 1_555
Cd87 Sm14 3.388267 1_555
Cd87 Sm3 3.421121 1_555
Cd87 Sm9 3.421121 1_555
Cd88 Sm20 3.579268 1_555
Cd88 Sm13 3.579268 1_555
Cd88 Sm14 3.579268 1_555
Cd89 Cd96 2.903841 1_545
Cd89 Cd94 2.903841 1_554
Cd89 Sm15 3.153927 1_555
Cd89 Sm24 3.429944 1_545
Cd89 Sm21 3.429952 1_554
Cd90 Cd96 3.194252 1_555
Cd90 Sm1 3.495567 1_455
Cd90 Sm24 3.529667 1_555
Cd90 Sm14 3.529667 1_555
Cd90 Sm6 3.727216 1_455
Cd91 Sm22 3.153927 1_565
Cd91 Sm14 3.429944 1_555
Cd91 Sm8 3.429952 1_455
Cd92 Sm12 3.415581 1_556
Cd92 Sm9 3.429881 1_555
Cd92 Sm7 3.470459 1_565
Cd92 Sm19 3.600075 1_555
Cd93 Cd98 2.828212 1_555
Cd94 Cd99 3.194252 1_555
Cd94 Sm10 3.483690 1_545
Cd94 Sm18 3.483703 1_555
Cd94 Sm21 3.511640 1_555
Cd94 Sm15 3.519157 1_556
Cd95 Cd99 2.885178 1_555
Cd95 Cd98 3.025869 1_555
Cd95 Sm21 3.514676 1_555
Cd95 Sm0 3.514676 1_555
Cd96 Sm23 3.483693 1_565
Cd96 Sm1 3.483693 1_455
Cd96 Sm24 3.511628 1_555
Cd96 Sm15 3.519157 1_565
Cd97 Sm19 3.483693 1_545
Cd97 Sm18 3.483693 1_655
Cd97 Sm7 3.511628 1_555
Cd97 Sm15 3.519157 1_656
Cd98 Sm16 3.298882 1_555
Cd98 Cd99 3.381324 1_555
Cd98 Sm8 3.571767 1_555
Cd98 Sm0 3.571767 1_555
Cd99 Sm18 3.495583 1_555
Cd99 Sm21 3.529674 1_555
Cd99 Sm0 3.529674 1_555
Cd99 Sm16 3.727216 1_555
Cd100 Cd90 2.885178 1_555
Cd100 Cd28 2.885178 1_555
Cd100 Cd88 3.023676 1_555
Cd100 Cd102 3.023676 1_555
Cd100 Cd41 3.025864 1_555
Cd100 Cd67 3.025864 1_555
Cd100 Cd13 3.025864 1_555
Cd100 Cd84 3.025864 1_555
Cd100 Cd115 3.164708 1_555
Cd100 Cd103 3.164708 1_555
Cd100 Sm24 3.514682 1_555
Cd100 Sm14 3.514682 1_555
Cd101 Cd90 2.856255 1_655
Cd101 Cd24 2.871986 1_555
Cd101 Cd91 2.891076 1_655
Cd101 Cd86 2.954287 1_655
Cd101 Cd41 3.331433 1_655
Cd101 Cd45 3.340959 1_655
Cd101 Sm8 3.415581 1_555
Cd101 Cd53 3.418833 1_555
Cd101 Sm6 3.429881 1_555
Cd101 Sm14 3.470459 1_655
Cd101 Sm1 3.600075 1_555
Cd102 Cd55 2.941806 1_554
Cd102 Cd8 2.941806 1_554
Cd102 Cd111 2.941806 1_554
Cd102 Cd115 3.023684 1_555
Cd102 Cd103 3.023684 1_555
Cd102 Cd67 3.024717 1_555
Cd102 Cd84 3.024717 1_555
Cd102 Cd40 3.024743 1_555
Cd102 Sm2 3.579268 1_555
Cd102 Sm12 3.579268 1_555
Cd102 Sm24 3.579268 1_555
Cd103 Cd77 2.885178 1_555
Cd103 Cd59 2.885178 1_555
Cd103 Cd88 3.023684 1_555
Cd103 Cd41 3.025855 1_555
Cd103 Cd67 3.025855 1_555
Cd103 Cd40 3.025869 1_555
Cd103 Cd50 3.025869 1_555
Cd103 Cd115 3.164708 1_555
Cd103 Sm2 3.514676 1_555
Cd103 Sm20 3.514676 1_555
Cd104 Cd22 2.891063 1_555
Cd104 Cd92 2.891076 1_544
Cd104 Cd97 2.903841 1_554
Cd104 Cd63 2.903841 1_545
Cd104 Cd17 3.153927 1_545
Cd104 Sm15 3.153927 1_655
Cd104 Sm7 3.429944 1_554
Cd104 Sm12 3.429952 1_545
Cd105 Cd22 2.856252 1_565
Cd105 Cd36 2.856252 1_565
Cd105 Cd115 2.885178 1_555
Cd105 Cd69 3.097799 1_555
Cd105 Cd11 3.194252 1_555
Cd105 Cd63 3.194252 1_555
Cd105 Cd13 3.381319 1_555
Cd105 Cd84 3.381319 1_555
Cd105 Sm11 3.495576 1_565
Cd105 Sm12 3.529667 1_555
Cd105 Sm13 3.529667 1_555
Cd105 Sm17 3.727216 1_565
Cd106 Cd47 2.828220 1_554
Cd106 Cd84 2.828220 1_545
Cd106 Cd55 2.878073 1_544
Cd106 Cd52 2.878073 1_555
Cd106 Cd92 2.954287 1_544
Cd106 Cd61 2.954287 1_555
Cd106 Cd64 2.954300 1_544
Cd106 Cd22 2.954300 1_555
Cd107 Cd86 2.828220 1_655
Cd107 Cd27 3.024717 1_555
Cd107 Cd54 3.025855 1_555
Cd107 Cd12 3.025864 1_555
Cd107 Cd65 3.240936 1_555
Cd107 Cd53 3.280180 1_555
Cd107 Sm3 3.298894 1_655
Cd107 Cd45 3.331433 1_655
Cd107 Cd30 3.331433 1_655
Cd107 Cd20 3.381319 1_555
Cd107 Cd38 3.381333 1_555
Cd107 Sm8 3.571744 1_555
Cd107 Sm5 3.571772 1_555
Cd108 Cd37 2.856252 1_565
Cd108 Cd87 2.871986 1_555
Cd108 Cd76 2.891063 1_565
Cd108 Cd42 2.954300 1_565
Cd108 Cd18 3.340959 1_565
Cd108 Sm14 3.415581 1_555
Cd108 Cd114 3.418833 1_555
Cd108 Sm9 3.429892 1_555
Cd108 Sm0 3.470454 1_565
Cd108 Sm10 3.600075 1_555
Cd109 Cd67 2.828220 1_555
Cd109 Cd65 2.828220 1_454
Cd109 Cd80 2.878073 1_455
Cd109 Cd8 2.878073 1_554
Cd109 Cd7 2.954287 1_455
Cd109 Cd33 2.954287 1_554
Cd109 Cd15 2.954300 1_554
Cd109 Cd26 2.954300 1_455
Cd110 Cd21 2.903841 1_555
Cd110 Cd19 2.903841 1_555
Cd110 Cd51 2.939441 1_555
Cd110 Cd44 2.943714 1_555
Cd110 Cd59 3.194252 1_555
Cd110 Cd77 3.194252 1_555
Cd110 Sm11 3.483690 1_455
Cd110 Sm23 3.483703 1_555
Cd110 Sm20 3.511640 1_555
Cd110 Sm22 3.519157 1_555
Cd111 Cd85 2.878086 1_556
Cd111 Cd57 2.923337 1_555
Cd111 Cd16 2.923337 1_555
Cd111 Cd40 3.280189 1_556
Cd111 Cd6 3.418833 1_555
Cd111 Cd14 3.418833 1_555
Cd111 Sm2 3.454470 1_556
Cd111 Sm12 3.454470 1_556
Cd111 Sm16 3.462664 1_555
Cd112 Cd57 2.858003 1_555
Cd112 Cd46 2.871973 1_555
Cd112 Cd30 2.871986 1_555
Cd112 Cd60 2.923337 1_555
Cd112 Cd48 2.923345 1_555
Cd112 Cd31 3.075219 1_555
Cd112 Sm18 3.253962 1_555
Cd112 Sm20 3.388264 1_555
Cd112 Sm16 3.421121 1_555
Cd112 Sm3 3.421121 1_555
Cd113 Cd49 2.856262 1_555
Cd113 Cd6 2.856262 1_555
Cd113 Cd54 2.885178 1_555
Cd113 Cd20 3.097799 1_555
Cd113 Cd43 3.194252 1_555
Cd113 Cd66 3.194252 1_555
Cd113 Cd98 3.381324 1_555
Cd113 Cd70 3.381324 1_555
Cd113 Sm19 3.495583 1_555
Cd113 Sm8 3.529674 1_555
Cd113 Sm4 3.529674 1_555
Cd113 Sm16 3.727216 1_555
Cd114 Cd42 2.878073 1_565
Cd114 Cd87 2.923333 1_555
Cd114 Cd79 2.923345 1_555
Cd114 Cd88 2.941806 1_555
Cd114 Cd13 3.280180 1_555
Cd114 Cd2 3.418833 1_555
Cd114 Sm14 3.454470 1_555
Cd114 Sm13 3.454470 1_555
Cd114 Sm9 3.462658 1_555
Cd115 Cd69 2.885178 1_555
Cd115 Cd88 3.023684 1_555
Cd115 Cd84 3.025855 1_555
Cd115 Cd13 3.025855 1_555
Cd115 Cd40 3.025869 1_555
Cd115 Cd50 3.025869 1_555
Cd115 Sm12 3.514676 1_555
Cd115 Sm13 3.514676 1_555
