# generated using pymatgen
data_Ge4PbO9
_symmetry_space_group_name_H-M   'P 1'
_cell_length_a   4.65922555
_cell_length_b   6.82181957
_cell_length_c   6.82182059
_cell_angle_alpha   114.64001162
_cell_angle_beta   103.15662568
_cell_angle_gamma   103.15661478
_symmetry_Int_Tables_number   1
_chemical_formula_structural   Ge4PbO9
_chemical_formula_sum   'Ge4 Pb1 O9'
_cell_volume   178.71715345
_cell_formula_units_Z   1
loop_
 _symmetry_equiv_pos_site_id
 _symmetry_equiv_pos_as_xyz
  1  'x, y, z'
loop_
 _atom_site_type_symbol
 _atom_site_label
 _atom_site_symmetry_multiplicity
 _atom_site_fract_x
 _atom_site_fract_y
 _atom_site_fract_z
 _atom_site_occupancy
  Ge  Ge0  1  0.50000000  0.48766543  0.51233457  1
  Ge  Ge1  1  0.68101291  0.48719475  0.06923948  1
  Ge  Ge2  1  -0.00000000  0.30805527  0.69194473  1
  Ge  Ge3  1  0.31898709  0.93076052  0.51280525  1
  Pb  Pb0  1  0.00000000  0.99800595  0.00199405  1
  O  O0  1  0.60578772  0.09266833  0.45972117  1
  O  O1  1  0.39421228  0.54027883  0.90733167  1
  O  O2  1  0.84201466  0.28710712  0.92286557  1
  O  O3  1  0.86473743  0.55307933  0.71199907  1
  O  O4  1  0.15798534  0.07713443  0.71289288  1
  O  O5  1  0.13526257  0.28800093  0.44692067  1
  O  O6  1  0.51471532  0.37888456  0.22929875  1
  O  O7  1  -0.00000000  0.75386031  0.24613969  1
  O  O8  1  0.48528468  0.77070125  0.62111544  1
loop_
_geom_bond_atom_site_label_1
_geom_bond_atom_site_label_2
_geom_bond_distance
_geom_bond_site_symmetry_2
Ge0 O3 1.742576 1_555
Ge0 O5 1.742576 1_555
Ge0 O8 1.781050 1_555
Ge0 O6 1.781050 1_555
Ge1 O1 1.737413 1_554
Ge1 O2 1.758843 1_554
Ge1 O7 1.759749 1_655
Ge1 O6 1.770802 1_555
Ge2 O3 1.880945 1_455
Ge2 O5 1.880945 1_555
Ge2 O1 1.883641 1_555
Ge2 O0 1.883641 1_455
Ge2 O4 1.926528 1_555
Ge2 O2 1.926528 1_455
Ge3 O0 1.737414 1_565
Ge3 O4 1.758843 1_565
Ge3 O7 1.759749 1_555
Ge3 O8 1.770802 1_555
O2 Pb0 2.467881 1_646
O3 Pb0 2.660490 1_656
O4 Pb0 2.467882 1_546
O5 Pb0 2.660491 1_545
O6 Pb0 2.649125 1_545
O7 Pb0 2.803730 1_555
O8 Pb0 2.649125 1_656
