# generated using pymatgen
data_NaSmGeO4
_symmetry_space_group_name_H-M   'P 1'
_cell_length_a   5.36266600
_cell_length_b   6.65650200
_cell_length_c   11.72811900
_cell_angle_alpha   90.00000000
_cell_angle_beta   90.00000000
_cell_angle_gamma   90.00000000
_symmetry_Int_Tables_number   1
_chemical_formula_structural   NaSmGeO4
_chemical_formula_sum   'Na4 Sm4 Ge4 O16'
_cell_volume   418.65393698
_cell_formula_units_Z   4
loop_
 _symmetry_equiv_pos_site_id
 _symmetry_equiv_pos_as_xyz
  1  'x, y, z'
loop_
 _atom_site_type_symbol
 _atom_site_label
 _atom_site_symmetry_multiplicity
 _atom_site_fract_x
 _atom_site_fract_y
 _atom_site_fract_z
 _atom_site_occupancy
  Na  Na0  1  0.50000000  0.50000000  0.00000000  1
  Na  Na1  1  0.00000000  0.00000000  0.50000000  1
  Na  Na2  1  0.50000000  0.00000000  0.00000000  1
  Na  Na3  1  0.00000000  0.50000000  0.50000000  1
  Sm  Sm0  1  0.50010800  0.75000000  0.27881100  1
  Sm  Sm1  1  0.99989200  0.75000000  0.77881100  1
  Sm  Sm2  1  0.49989200  0.25000000  0.72118900  1
  Sm  Sm3  1  0.00010800  0.25000000  0.22118900  1
  Ge  Ge0  1  0.44073700  0.75000000  0.59547400  1
  Ge  Ge1  1  0.05926300  0.75000000  0.09547400  1
  Ge  Ge2  1  0.55926300  0.25000000  0.40452600  1
  Ge  Ge3  1  0.94073700  0.25000000  0.90452600  1
  O  O0  1  0.31910300  0.75000000  0.45577200  1
  O  O1  1  0.18089700  0.75000000  0.95577200  1
  O  O2  1  0.68089700  0.25000000  0.54422800  1
  O  O3  1  0.81910300  0.25000000  0.04422800  1
  O  O4  1  0.70909300  0.04563100  0.32919900  1
  O  O5  1  0.79090700  0.45436900  0.82919900  1
  O  O6  1  0.29090700  0.54563100  0.67080100  1
  O  O7  1  0.20909300  0.95436900  0.17080100  1
  O  O8  1  0.29090700  0.95436900  0.67080100  1
  O  O9  1  0.20909300  0.54563100  0.17080100  1
  O  O10  1  0.70909300  0.45436900  0.32919900  1
  O  O11  1  0.79090700  0.04563100  0.82919900  1
  O  O12  1  0.73467400  0.75000000  0.10874800  1
  O  O13  1  0.76532600  0.75000000  0.60874800  1
  O  O14  1  0.26532600  0.25000000  0.89125200  1
  O  O15  1  0.23467400  0.25000000  0.39125200  1
loop_
_geom_bond_atom_site_label_1
_geom_bond_atom_site_label_2
_geom_bond_distance
_geom_bond_site_symmetry_2
Na0 O3 2.442688 1_555
Na0 O1 2.442688 1_554
Na0 O12 2.445353 1_555
Na0 O14 2.445353 1_554
Na0 O9 2.557085 1_555
Na0 O5 2.557085 1_554
Na1 O2 2.442688 1_455
Na1 O0 2.442688 1_545
Na1 O13 2.445353 1_445
Na1 O15 2.445353 1_555
Na1 O8 2.557085 1_545
Na1 O4 2.557085 1_455
Na2 O3 2.442688 1_555
Na2 O1 2.442688 1_544
Na2 O12 2.445353 1_545
Na2 O14 2.445353 1_554
Na2 O7 2.557085 1_545
Na2 O11 2.557085 1_554
Na3 O2 2.442688 1_455
Na3 O0 2.442688 1_555
Na3 O13 2.445353 1_455
Na3 O15 2.445353 1_555
Na3 O6 2.557085 1_555
Na3 O10 2.557085 1_455
Ge0 O13 1.747610 1_555
Ge0 O0 1.763509 1_555
Ge0 O8 1.810168 1_555
Ge0 O6 1.810168 1_555
Ge1 O12 1.747610 1_455
Ge1 O1 1.763509 1_554
Ge1 O7 1.810168 1_555
Ge1 O9 1.810168 1_555
Ge2 O15 1.747610 1_555
Ge2 O2 1.763509 1_555
Ge2 O10 1.810168 1_555
Ge2 O4 1.810168 1_555
Ge3 O14 1.747610 1_655
Ge3 O3 1.763509 1_556
Ge3 O5 1.810168 1_555
Ge3 O11 1.810168 1_555
O0 Sm0 2.291193 1_555
O1 Sm1 2.291193 1_455
O2 Sm2 2.291193 1_555
O3 Sm3 2.291193 1_655
O4 Sm0 2.340458 1_545
O4 Sm3 2.427103 1_655
O5 Sm1 2.340458 1_555
O5 Sm2 2.427103 1_555
O6 Sm2 2.340458 1_555
O6 Sm1 2.427103 1_455
O7 Sm3 2.340458 1_565
O7 Sm0 2.427103 1_555
O8 Sm2 2.340458 1_565
O8 Sm1 2.427103 1_455
O9 Sm3 2.340458 1_555
O9 Sm0 2.427103 1_555
O10 Sm0 2.340458 1_555
O10 Sm3 2.427103 1_655
O11 Sm1 2.340458 1_545
O11 Sm2 2.427103 1_555
O12 Sm0 2.358054 1_555
O13 Sm1 2.358054 1_555
O14 Sm2 2.358054 1_555
O15 Sm3 2.358054 1_555
