# generated using pymatgen
data_Li2Te2O5
_symmetry_space_group_name_H-M   'P 1'
_cell_length_a   5.14531580
_cell_length_b   8.23938151
_cell_length_c   24.04037074
_cell_angle_alpha   90.00000000
_cell_angle_beta   90.00000000
_cell_angle_gamma   90.00000000
_symmetry_Int_Tables_number   1
_chemical_formula_structural   Li2Te2O5
_chemical_formula_sum   'Li16 Te16 O40'
_cell_volume   1019.17276280
_cell_formula_units_Z   8
loop_
 _symmetry_equiv_pos_site_id
 _symmetry_equiv_pos_as_xyz
  1  'x, y, z'
loop_
 _atom_site_type_symbol
 _atom_site_label
 _atom_site_symmetry_multiplicity
 _atom_site_fract_x
 _atom_site_fract_y
 _atom_site_fract_z
 _atom_site_occupancy
  Li  Li0  1  0.82039089  0.84037526  0.83147906  1
  Li  Li1  1  0.32039089  0.84037526  0.66852094  1
  Li  Li2  1  0.36164509  0.15191299  0.41753165  1
  Li  Li3  1  0.17960911  0.34037526  0.33147906  1
  Li  Li4  1  0.32039089  0.65962474  0.83147906  1
  Li  Li5  1  0.86164509  0.34808701  0.41753165  1
  Li  Li6  1  0.17960911  0.15962474  0.16852094  1
  Li  Li7  1  0.63835491  0.65191299  0.91753165  1
  Li  Li8  1  0.67960911  0.34037526  0.16852094  1
  Li  Li9  1  0.63835491  0.84808701  0.58246835  1
  Li  Li10  1  0.13835491  0.65191299  0.58246835  1
  Li  Li11  1  0.86164509  0.15191299  0.08246835  1
  Li  Li12  1  0.36164509  0.34808701  0.08246835  1
  Li  Li13  1  0.67960911  0.15962474  0.33147906  1
  Li  Li14  1  0.13835491  0.84808701  0.91753165  1
  Li  Li15  1  0.82039089  0.65962474  0.66852094  1
  Te  Te0  1  0.64331114  0.07161801  0.94393638  1
  Te  Te1  1  0.85668886  0.57161801  0.05606362  1
  Te  Te2  1  0.85668886  0.92838199  0.44393638  1
  Te  Te3  1  0.67273397  0.56454108  0.30539686  1
  Te  Te4  1  0.35668886  0.92838199  0.05606362  1
  Te  Te5  1  0.17273397  0.56454108  0.19460314  1
  Te  Te6  1  0.82726603  0.06454108  0.69460314  1
  Te  Te7  1  0.32726603  0.43545892  0.69460314  1
  Te  Te8  1  0.14331114  0.42838199  0.94393638  1
  Te  Te9  1  0.35668886  0.57161801  0.44393638  1
  Te  Te10  1  0.17273397  0.93545892  0.30539686  1
  Te  Te11  1  0.82726603  0.43545892  0.80539686  1
  Te  Te12  1  0.64331114  0.42838199  0.55606362  1
  Te  Te13  1  0.14331114  0.07161801  0.55606362  1
  Te  Te14  1  0.32726603  0.06454108  0.80539686  1
  Te  Te15  1  0.67273397  0.93545892  0.19460314  1
  O  O0  1  0.69188970  0.88063718  0.66141618  1
  O  O1  1  0.69537937  0.50667630  0.46608269  1
  O  O2  1  0.36415895  0.47331407  0.27801032  1
  O  O3  1  0.23729177  0.12583346  0.08313536  1
  O  O4  1  0.80462063  0.49332370  0.96608269  1
  O  O5  1  0.19537937  0.50667630  0.03391731  1
  O  O6  1  0.13584105  0.52668593  0.77801032  1
  O  O7  1  0.99645098  0.85247378  0.37202670  1
  O  O8  1  0.69188970  0.61936282  0.83858382  1
  O  O9  1  0.63584105  0.52668593  0.72198968  1
  O  O10  1  0.19537937  0.99332370  0.46608269  1
  O  O11  1  0.69537937  0.99332370  0.03391731  1
  O  O12  1  0.26270823  0.62583346  0.91686464  1
  O  O13  1  0.86415895  0.47331407  0.22198968  1
  O  O14  1  0.19188970  0.88063718  0.83858382  1
  O  O15  1  0.30811030  0.11936282  0.33858382  1
  O  O16  1  0.00354902  0.35247378  0.87202670  1
  O  O17  1  0.73729177  0.12583346  0.41686464  1
  O  O18  1  0.50354902  0.35247378  0.62797330  1
  O  O19  1  0.23729177  0.37416654  0.41686464  1
  O  O20  1  0.99645098  0.64752622  0.12797330  1
  O  O21  1  0.76270823  0.87416654  0.91686464  1
  O  O22  1  0.30462063  0.49332370  0.53391731  1
  O  O23  1  0.73729177  0.37416654  0.08313536  1
  O  O24  1  0.19188970  0.61936282  0.66141618  1
  O  O25  1  0.50354902  0.14752622  0.87202670  1
  O  O26  1  0.30462063  0.00667630  0.96608269  1
  O  O27  1  0.86415895  0.02668593  0.27801032  1
  O  O28  1  0.63584105  0.97331407  0.77801032  1
  O  O29  1  0.49645098  0.85247378  0.12797330  1
  O  O30  1  0.26270823  0.87416654  0.58313536  1
  O  O31  1  0.80811030  0.38063718  0.33858382  1
  O  O32  1  0.49645098  0.64752622  0.37202670  1
  O  O33  1  0.00354902  0.14752622  0.62797330  1
  O  O34  1  0.36415895  0.02668593  0.22198968  1
  O  O35  1  0.76270823  0.62583346  0.58313536  1
  O  O36  1  0.80462063  0.00667630  0.53391731  1
  O  O37  1  0.80811030  0.11936282  0.16141618  1
  O  O38  1  0.13584105  0.97331407  0.72198968  1
  O  O39  1  0.30811030  0.38063718  0.16141618  1
loop_
_geom_bond_atom_site_label_1
_geom_bond_atom_site_label_2
_geom_bond_distance
_geom_bond_site_symmetry_2
Li0 O28 1.937449 1_555
Li0 O8 1.944838 1_555
Li0 O14 1.947555 1_655
Li0 O21 2.092651 1_555
Li1 O38 1.937449 1_555
Li1 O24 1.944838 1_555
Li1 O0 1.947555 1_555
Li1 O30 2.092651 1_555
Li2 O15 1.936481 1_555
Li2 O19 1.939860 1_555
Li2 O17 1.944795 1_555
Li2 O10 1.949767 1_545
Li3 O2 1.937449 1_555
Li3 O15 1.944838 1_555
Li3 O31 1.947555 1_455
Li3 O19 2.092651 1_555
Li4 O6 1.937449 1_555
Li4 O14 1.944838 1_555
Li4 O8 1.947555 1_555
Li4 O12 2.092651 1_555
Li5 O31 1.936481 1_555
Li5 O17 1.939860 1_555
Li5 O19 1.944795 1_655
Li5 O1 1.949767 1_555
Li6 O34 1.937449 1_555
Li6 O39 1.944838 1_555
Li6 O37 1.947555 1_455
Li6 O3 2.092651 1_555
Li7 O8 1.936481 1_555
Li7 O21 1.939860 1_555
Li7 O12 1.944795 1_555
Li7 O4 1.949767 1_555
Li8 O13 1.937449 1_555
Li8 O37 1.944838 1_555
Li8 O39 1.947555 1_555
Li8 O23 2.092651 1_555
Li9 O0 1.936481 1_555
Li9 O35 1.939860 1_555
Li9 O30 1.944795 1_555
Li9 O36 1.949767 1_565
Li10 O24 1.936481 1_555
Li10 O30 1.939860 1_555
Li10 O35 1.944795 1_455
Li10 O22 1.949767 1_555
Li11 O37 1.936481 1_555
Li11 O23 1.939860 1_555
Li11 O3 1.944795 1_655
Li11 O11 1.949767 1_545
Li12 O39 1.936481 1_555
Li12 O3 1.939860 1_555
Li12 O23 1.944795 1_555
Li12 O5 1.949767 1_555
Li13 O27 1.937449 1_555
Li13 O31 1.944838 1_555
Li13 O15 1.947555 1_555
Li13 O17 2.092651 1_555
Li14 O14 1.936481 1_555
Li14 O12 1.939860 1_555
Li14 O21 1.944795 1_455
Li14 O26 1.949767 1_565
Li15 O9 1.937449 1_555
Li15 O0 1.944838 1_555
Li15 O24 1.947555 1_655
Li15 O35 2.092651 1_555
O0 Te6 1.848705 1_565
O1 Te9 1.899122 1_555
O1 Te12 2.273159 1_555
O2 Te3 1.875978 1_555
O2 Te5 2.357049 1_555
O3 Te4 1.856798 1_545
O4 Te8 1.899122 1_655
O4 Te1 2.273159 1_556
O5 Te1 1.899122 1_455
O5 Te8 2.273159 1_554
O6 Te11 1.875978 1_455
O6 Te7 2.357049 1_555
O7 Te10 1.963670 1_655
O7 Te2 1.974039 1_555
O8 Te11 1.848705 1_555
O9 Te7 1.875978 1_555
O9 Te11 2.357049 1_555
O10 Te2 1.899122 1_455
O10 Te13 2.273159 1_565
O11 Te4 1.899122 1_555
O11 Te0 2.273159 1_564
O12 Te8 1.856798 1_555
O13 Te5 1.875978 1_655
O13 Te3 2.357049 1_555
O14 Te14 1.848705 1_565
O15 Te10 1.848705 1_545
O16 Te11 1.963670 1_455
O16 Te8 1.974039 1_555
O17 Te2 1.856798 1_545
O18 Te7 1.963670 1_555
O18 Te12 1.974039 1_555
O19 Te9 1.856798 1_555
O20 Te5 1.963670 1_655
O20 Te1 1.974039 1_555
O21 Te0 1.856798 1_565
O22 Te12 1.899122 1_555
O22 Te9 2.273159 1_555
O23 Te1 1.856798 1_555
O24 Te7 1.848705 1_555
O25 Te14 1.963670 1_555
O25 Te0 1.974039 1_555
O26 Te0 1.899122 1_555
O26 Te4 2.273159 1_546
O27 Te10 1.875978 1_645
O27 Te15 2.357049 1_545
O28 Te14 1.875978 1_565
O28 Te6 2.357049 1_565
O29 Te15 1.963670 1_555
O29 Te4 1.974039 1_555
O30 Te13 1.856798 1_565
O31 Te3 1.848705 1_555
O32 Te3 1.963670 1_555
O32 Te9 1.974039 1_555
O33 Te6 1.963670 1_455
O33 Te13 1.974039 1_555
O34 Te15 1.875978 1_545
O34 Te10 2.357049 1_545
O35 Te12 1.856798 1_555
O36 Te13 1.899122 1_655
O36 Te2 2.273159 1_545
O37 Te15 1.848705 1_545
O38 Te6 1.875978 1_465
O38 Te14 2.357049 1_565
O39 Te5 1.848705 1_555
