# generated using pymatgen
data_Li15Nb16O48
_symmetry_space_group_name_H-M   'P 1'
_cell_length_a   11.19351444
_cell_length_b   11.19351444
_cell_length_c   11.19351477
_cell_angle_alpha   55.70736562
_cell_angle_beta   55.70736562
_cell_angle_gamma   55.70737145
_symmetry_Int_Tables_number   1
_chemical_formula_structural   Li15Nb16O48
_chemical_formula_sum   'Li15 Nb16 O48'
_cell_volume   892.95751130
_cell_formula_units_Z   1
loop_
 _symmetry_equiv_pos_site_id
 _symmetry_equiv_pos_as_xyz
  1  'x, y, z'
loop_
 _atom_site_type_symbol
 _atom_site_label
 _atom_site_symmetry_multiplicity
 _atom_site_fract_x
 _atom_site_fract_y
 _atom_site_fract_z
 _atom_site_occupancy
  Li  Li0  1  0.14043500  0.14070800  0.63983300  1
  Li  Li1  1  0.63983300  0.14043500  0.14070800  1
  Li  Li2  1  0.14070800  0.63983300  0.14043500  1
  Li  Li3  1  0.39049500  0.39049500  0.39049500  1
  Li  Li4  1  0.64142200  0.13928800  0.64100000  1
  Li  Li5  1  0.64100000  0.64142200  0.13928800  1
  Li  Li6  1  0.13928800  0.64100000  0.64142200  1
  Li  Li7  1  0.88923200  0.39100100  0.39233400  1
  Li  Li8  1  0.39100100  0.39233400  0.88923200  1
  Li  Li9  1  0.39233400  0.88923200  0.39100100  1
  Li  Li10  1  0.64029400  0.64029400  0.64029400  1
  Li  Li11  1  0.89088500  0.39076600  0.88995400  1
  Li  Li12  1  0.88995400  0.89088500  0.39076600  1
  Li  Li13  1  0.39076600  0.88995400  0.89088500  1
  Li  Li14  1  0.88956400  0.88956400  0.88956400  1
  Nb  Nb0  1  0.99998600  0.99998600  0.99998600  1
  Nb  Nb1  1  0.00318600  0.00190600  0.49443200  1
  Nb  Nb2  1  0.49443200  0.00318600  0.00190600  1
  Nb  Nb3  1  0.00190600  0.49443200  0.00318600  1
  Nb  Nb4  1  0.24914700  0.24914700  0.24914700  1
  Nb  Nb5  1  0.00026000  0.49902500  0.49925200  1
  Nb  Nb6  1  0.49902500  0.49925200  0.00026000  1
  Nb  Nb7  1  0.24900200  0.24960100  0.75011400  1
  Nb  Nb8  1  0.75011400  0.24900200  0.24960100  1
  Nb  Nb9  1  0.24960100  0.75011400  0.24900200  1
  Nb  Nb10  1  0.49945000  0.49945000  0.49945000  1
  Nb  Nb11  1  0.74997000  0.24812600  0.74996200  1
  Nb  Nb12  1  0.24812600  0.74996200  0.74997000  1
  Nb  Nb13  1  0.74996200  0.74997000  0.24812600  1
  Nb  Nb14  1  0.49925200  0.00026000  0.49902500  1
  Nb  Nb15  1  0.74973400  0.74973400  0.74973400  1
  O  O0  1  0.18278200  0.05313300  0.36570100  1
  O  O1  1  0.36570100  0.18278200  0.05313300  1
  O  O2  1  0.05313300  0.36570100  0.18278200  1
  O  O3  1  0.42903400  0.11020900  0.30527500  1
  O  O4  1  0.11020900  0.30527500  0.42903400  1
  O  O5  1  0.67859200  0.05464700  0.35858000  1
  O  O6  1  0.17948900  0.05473800  0.85953500  1
  O  O7  1  0.30527500  0.42903400  0.11020900  1
  O  O8  1  0.35976000  0.17946300  0.55413000  1
  O  O9  1  0.85953500  0.17948900  0.05473800  1
  O  O10  1  0.05464700  0.35858000  0.67859200  1
  O  O11  1  0.55413000  0.35976000  0.17946300  1
  O  O12  1  0.42830600  0.11037400  0.80581700  1
  O  O13  1  0.91939500  0.10538800  0.31642500  1
  O  O14  1  0.17946300  0.55413000  0.35976000  1
  O  O15  1  0.60854300  0.30565400  0.42874000  1
  O  O16  1  0.10538800  0.31642500  0.91939500  1
  O  O17  1  0.35858000  0.67859200  0.05464700  1
  O  O18  1  0.67813900  0.05472000  0.85941900  1
  O  O19  1  0.80581700  0.42830600  0.11037400  1
  O  O20  1  0.30565400  0.42874000  0.60854300  1
  O  O21  1  0.86054200  0.17899200  0.55433600  1
  O  O22  1  0.05473800  0.85953500  0.17948900  1
  O  O23  1  0.42874000  0.60854300  0.30565400  1
  O  O24  1  0.55464700  0.35970600  0.67892100  1
  O  O25  1  0.92934100  0.10935600  0.80515600  1
  O  O26  1  0.11037400  0.80581700  0.42830600  1
  O  O27  1  0.17899200  0.55433600  0.86054200  1
  O  O28  1  0.67892100  0.55464700  0.35970600  1
  O  O29  1  0.31642500  0.91939500  0.10538800  1
  O  O30  1  0.61037000  0.30484500  0.92858400  1
  O  O31  1  0.35970600  0.67892100  0.55464700  1
  O  O32  1  0.85941900  0.67813900  0.05472000  1
  O  O33  1  0.80475100  0.42816100  0.60956200  1
  O  O34  1  0.05472000  0.85941900  0.67813900  1
  O  O35  1  0.55433600  0.86054200  0.17899200  1
  O  O36  1  0.42816100  0.60956200  0.80475100  1
  O  O37  1  0.92858400  0.61037000  0.30484500  1
  O  O38  1  0.60956200  0.80475100  0.42816100  1
  O  O39  1  0.10935600  0.80515600  0.92934100  1
  O  O40  1  0.67891600  0.55421600  0.85965800  1
  O  O41  1  0.80515600  0.92934100  0.10935600  1
  O  O42  1  0.30484500  0.92858400  0.61037000  1
  O  O43  1  0.85965800  0.67891600  0.55421600  1
  O  O44  1  0.55421600  0.85965800  0.67891600  1
  O  O45  1  0.92873900  0.61187400  0.80402200  1
  O  O46  1  0.61187400  0.80402200  0.92873900  1
  O  O47  1  0.80402200  0.92873900  0.61187400  1
loop_
_geom_bond_atom_site_label_1
_geom_bond_atom_site_label_2
_geom_bond_distance
_geom_bond_site_symmetry_2
Li0 O4 2.091603 1_555
Li0 O25 2.099108 1_455
Li0 O42 2.099509 1_545
Li0 O10 2.267545 1_555
Li0 O8 2.283169 1_555
Li0 O6 2.288157 1_555
Li1 O3 2.091603 1_555
Li1 O41 2.099108 1_545
Li1 O30 2.099509 1_554
Li1 O5 2.267545 1_555
Li1 O11 2.283169 1_555
Li1 O9 2.288157 1_555
Li2 O7 2.091603 1_555
Li2 O39 2.099108 1_554
Li2 O37 2.099509 1_455
Li2 O17 2.267545 1_555
Li2 O14 2.283169 1_555
Li2 O22 2.288157 1_555
Li3 O8 2.093660 1_555
Li3 O11 2.093660 1_555
Li3 O14 2.093660 1_555
Li3 O23 2.269288 1_555
Li3 O20 2.269288 1_555
Li3 O15 2.269288 1_555
Li4 O47 2.082536 1_545
Li4 O12 2.106414 1_555
Li4 O15 2.115586 1_555
Li4 O18 2.264594 1_555
Li4 O21 2.283813 1_555
Li4 O24 2.286051 1_555
Li5 O46 2.082536 1_554
Li5 O19 2.106414 1_555
Li5 O23 2.115586 1_555
Li5 O32 2.264594 1_555
Li5 O35 2.283813 1_555
Li5 O28 2.286051 1_555
Li6 O45 2.082535 1_455
Li6 O26 2.106414 1_555
Li6 O20 2.115586 1_555
Li6 O34 2.264594 1_555
Li6 O27 2.283813 1_555
Li6 O31 2.286051 1_555
Li7 O2 2.064436 1_655
Li7 O21 2.092018 1_555
Li7 O28 2.094387 1_555
Li7 O33 2.255017 1_555
Li7 O37 2.281581 1_555
Li7 O4 2.287800 1_655
Li8 O1 2.064436 1_556
Li8 O27 2.092018 1_555
Li8 O24 2.094387 1_555
Li8 O36 2.255017 1_555
Li8 O30 2.281582 1_555
Li8 O7 2.287800 1_556
Li9 O0 2.064436 1_565
Li9 O35 2.092018 1_555
Li9 O31 2.094387 1_555
Li9 O38 2.255017 1_555
Li9 O42 2.281582 1_555
Li9 O3 2.287800 1_565
Li10 O36 2.103970 1_555
Li10 O38 2.103970 1_555
Li10 O33 2.103970 1_555
Li10 O43 2.281526 1_555
Li10 O40 2.281526 1_555
Li10 O44 2.281526 1_555
Li11 O40 2.099497 1_555
Li11 O9 2.099671 1_556
Li11 O10 2.101605 1_655
Li11 O16 2.212973 1_655
Li11 O19 2.289269 1_556
Li11 O45 2.295673 1_555
Li12 O43 2.099496 1_555
Li12 O22 2.099672 1_655
Li12 O5 2.101605 1_565
Li12 O13 2.212972 1_565
Li12 O26 2.289269 1_655
Li12 O47 2.295673 1_555
Li13 O44 2.099496 1_555
Li13 O6 2.099672 1_565
Li13 O17 2.101605 1_556
Li13 O29 2.212973 1_556
Li13 O12 2.289269 1_565
Li13 O46 2.295673 1_555
Li14 O32 2.097413 1_556
Li14 O34 2.097413 1_655
Li14 O18 2.097413 1_565
Li14 O25 2.298852 1_565
Li14 O41 2.298852 1_556
Li14 O39 2.298852 1_655
Nb0 O6 1.904404 1_665
Nb0 O22 1.904405 1_656
Nb0 O9 1.904405 1_566
Nb0 O41 2.173474 1_556
Nb0 O25 2.173474 1_565
Nb0 O39 2.173474 1_655
Nb1 O0 1.884195 1_555
Nb1 O21 1.911304 1_455
Nb1 O34 1.925943 1_545
Nb1 O13 2.114821 1_455
Nb1 O26 2.160458 1_545
Nb1 O47 2.216007 1_445
Nb2 O1 1.884195 1_555
Nb2 O35 1.911304 1_545
Nb2 O18 1.925943 1_554
Nb2 O29 2.114820 1_545
Nb2 O12 2.160458 1_554
Nb2 O46 2.216007 1_544
Nb3 O2 1.884195 1_555
Nb3 O27 1.911304 1_554
Nb3 O32 1.925943 1_455
Nb3 O16 2.114821 1_554
Nb3 O19 2.160458 1_455
Nb3 O45 2.216007 1_454
Nb4 O7 1.914062 1_555
Nb4 O4 1.914062 1_555
Nb4 O3 1.914062 1_555
Nb4 O0 2.141704 1_555
Nb4 O1 2.141704 1_555
Nb4 O2 2.141704 1_555
Nb5 O10 1.901155 1_555
Nb5 O14 1.903098 1_555
Nb5 O43 1.908911 1_455
Nb5 O4 2.158477 1_555
Nb5 O37 2.171833 1_455
Nb5 O33 2.179576 1_455
Nb6 O17 1.901155 1_555
Nb6 O11 1.903098 1_555
Nb6 O40 1.908910 1_554
Nb6 O7 2.158476 1_555
Nb6 O30 2.171833 1_554
Nb6 O36 2.179576 1_554
Nb7 O16 1.882524 1_555
Nb7 O12 1.906913 1_555
Nb7 O20 1.911542 1_555
Nb7 O6 2.165957 1_555
Nb7 O10 2.175672 1_555
Nb7 O8 2.178343 1_555
Nb8 O13 1.882524 1_555
Nb8 O19 1.906913 1_555
Nb8 O15 1.911542 1_555
Nb8 O9 2.165958 1_555
Nb8 O5 2.175672 1_555
Nb8 O11 2.178343 1_555
Nb9 O29 1.882524 1_555
Nb9 O26 1.906913 1_555
Nb9 O23 1.911542 1_555
Nb9 O22 2.165958 1_555
Nb9 O17 2.175672 1_555
Nb9 O14 2.178342 1_555
Nb10 O28 1.906014 1_555
Nb10 O24 1.906014 1_555
Nb10 O31 1.906014 1_555
Nb10 O20 2.164251 1_555
Nb10 O23 2.164251 1_555
Nb10 O15 2.164251 1_555
Nb11 O25 1.904678 1_555
Nb11 O30 1.906403 1_555
Nb11 O33 1.909121 1_555
Nb11 O18 2.167228 1_555
Nb11 O21 2.168388 1_555
Nb11 O24 2.176074 1_555
Nb12 O39 1.904678 1_555
Nb12 O42 1.906403 1_555
Nb12 O36 1.909121 1_555
Nb12 O34 2.167228 1_555
Nb12 O27 2.168388 1_555
Nb12 O31 2.176074 1_555
Nb13 O41 1.904678 1_555
Nb13 O37 1.906403 1_555
Nb13 O38 1.909121 1_555
Nb13 O32 2.167228 1_555
Nb13 O35 2.168388 1_555
Nb13 O28 2.176074 1_555
Nb14 O5 1.901155 1_555
Nb14 O8 1.903098 1_555
Nb14 O44 1.908910 1_545
Nb14 O3 2.158477 1_555
Nb14 O42 2.171833 1_545
Nb14 O38 2.179576 1_545
Nb15 O47 1.896454 1_555
Nb15 O46 1.896454 1_555
Nb15 O45 1.896454 1_555
Nb15 O40 2.180238 1_555
Nb15 O43 2.180238 1_555
Nb15 O44 2.180238 1_555
