# generated using pymatgen
data_Na2CuSbS3
_symmetry_space_group_name_H-M   'P 1'
_cell_length_a   16.93592486
_cell_length_b   5.85542979
_cell_length_c   6.99363249
_cell_angle_alpha   62.70510607
_cell_angle_beta   90.00000000
_cell_angle_gamma   90.00000000
_symmetry_Int_Tables_number   1
_chemical_formula_structural   Na2CuSbS3
_chemical_formula_sum   'Na8 Cu4 Sb4 S12'
_cell_volume   616.31850587
_cell_formula_units_Z   4
loop_
 _symmetry_equiv_pos_site_id
 _symmetry_equiv_pos_as_xyz
  1  'x, y, z'
loop_
 _atom_site_type_symbol
 _atom_site_label
 _atom_site_symmetry_multiplicity
 _atom_site_fract_x
 _atom_site_fract_y
 _atom_site_fract_z
 _atom_site_occupancy
  Na  Na0  1  0.03835254  0.84504277  0.30851401  1
  Na  Na1  1  0.53835254  0.15495723  0.19148599  1
  Na  Na2  1  0.11324019  0.56661946  0.88088506  1
  Na  Na3  1  0.61324019  0.43338054  0.61911494  1
  Na  Na4  1  0.88675981  0.43338054  0.11911494  1
  Na  Na5  1  0.38675981  0.56661946  0.38088506  1
  Na  Na6  1  0.96164746  0.15495723  0.69148599  1
  Na  Na7  1  0.46164746  0.84504277  0.80851401  1
  Cu  Cu0  1  0.21355047  0.88277464  0.09963159  1
  Cu  Cu1  1  0.28644953  0.88277464  0.59963159  1
  Cu  Cu2  1  0.78644953  0.11722536  0.90036841  1
  Cu  Cu3  1  0.71355047  0.11722536  0.40036841  1
  Sb  Sb0  1  0.17403629  0.25637197  0.51919179  1
  Sb  Sb1  1  0.82596371  0.74362803  0.48080821  1
  Sb  Sb2  1  0.32596371  0.25637197  0.01919179  1
  Sb  Sb3  1  0.67403629  0.74362803  0.98080821  1
  S  S0  1  0.19591853  0.70725030  0.45931434  1
  S  S1  1  0.94381629  0.65838909  0.69512269  1
  S  S2  1  0.61223261  0.92438158  0.62597469  1
  S  S3  1  0.55618371  0.65838909  0.19512269  1
  S  S4  1  0.30408147  0.70725030  0.95931434  1
  S  S5  1  0.69591853  0.29274970  0.04068566  1
  S  S6  1  0.11223261  0.07561842  0.87402531  1
  S  S7  1  0.05618371  0.34161091  0.30487731  1
  S  S8  1  0.44381629  0.34161091  0.80487731  1
  S  S9  1  0.80408147  0.29274970  0.54068566  1
  S  S10  1  0.88776739  0.92438158  0.12597469  1
  S  S11  1  0.38776739  0.07561842  0.37402531  1
loop_
_geom_bond_atom_site_label_1
_geom_bond_atom_site_label_2
_geom_bond_distance
_geom_bond_site_symmetry_2
Na0 S10 2.793861 1_455
Na0 S0 2.846729 1_555
Na0 S1 2.891056 1_455
Na0 S7 2.911747 1_565
Na0 S7 2.974927 1_555
Na0 S6 2.976441 1_564
Na1 S11 2.793861 1_555
Na1 S5 2.846729 1_555
Na1 S8 2.891056 1_554
Na1 S3 2.911747 1_545
Na1 S3 2.974927 1_555
Na1 S2 2.976441 1_545
Na2 S7 2.806996 1_556
Na2 S6 2.897386 1_555
Na2 S6 2.958764 1_565
Na2 S0 3.017389 1_555
Na2 S1 3.093455 1_455
Na3 S3 2.806996 1_555
Na3 S2 2.897386 1_555
Na3 S2 2.958764 1_545
Na3 S5 3.017389 1_556
Na3 S8 3.093455 1_555
Na4 S1 2.806996 1_554
Na4 S10 2.897386 1_555
Na4 S10 2.958764 1_545
Na4 S9 3.017389 1_555
Na4 S7 3.093455 1_655
Na5 S8 2.806996 1_555
Na5 S11 2.897386 1_555
Na5 S11 2.958764 1_565
Na5 S4 3.017389 1_554
Na5 S3 3.093455 1_555
Na6 S6 2.793861 1_655
Na6 S9 2.846729 1_555
Na6 S7 2.891056 1_655
Na6 S1 2.911747 1_545
Na6 S1 2.974927 1_555
Na6 S10 2.976441 1_546
Na7 S2 2.793861 1_555
Na7 S4 2.846729 1_555
Na7 S3 2.891056 1_556
Na7 S8 2.911747 1_565
Na7 S8 2.974927 1_555
Na7 S11 2.976441 1_565
Cu0 S6 2.252748 1_564
Cu0 S0 2.258770 1_555
Cu0 S4 2.301110 1_554
Cu0 Sb2 2.756413 1_565
Cu1 S11 2.252748 1_565
Cu1 S4 2.258770 1_555
Cu1 S0 2.301110 1_555
Cu1 Sb0 2.756413 1_565
Cu2 S10 2.252748 1_546
Cu2 S9 2.258770 1_555
Cu2 S5 2.301110 1_556
Cu2 Sb3 2.756413 1_545
Cu3 S2 2.252748 1_545
Cu3 S5 2.258770 1_555
Cu3 S9 2.301110 1_555
Cu3 Sb1 2.756413 1_545
S0 Sb0 2.503757 1_555
S1 Sb1 2.406929 1_555
S2 Sb3 2.442365 1_555
S3 Sb3 2.406929 1_554
S4 Sb2 2.503757 1_556
S5 Sb3 2.503757 1_554
S6 Sb0 2.442365 1_555
S7 Sb0 2.406929 1_555
S8 Sb2 2.406929 1_556
S9 Sb1 2.503757 1_555
S10 Sb1 2.442365 1_555
S11 Sb2 2.442365 1_555
