# generated using pymatgen
data_SbPS4
_symmetry_space_group_name_H-M   'P 1'
_cell_length_a   6.38748100
_cell_length_b   13.83159388
_cell_length_c   23.78762487
_cell_angle_alpha   89.85191933
_cell_angle_beta   89.96094875
_cell_angle_gamma   88.39982913
_symmetry_Int_Tables_number   1
_chemical_formula_structural   SbPS4
_chemical_formula_sum   'Sb12 P12 S48'
_cell_volume   2100.78692582
_cell_formula_units_Z   12
loop_
 _symmetry_equiv_pos_site_id
 _symmetry_equiv_pos_as_xyz
  1  'x, y, z'
loop_
 _atom_site_type_symbol
 _atom_site_label
 _atom_site_symmetry_multiplicity
 _atom_site_fract_x
 _atom_site_fract_y
 _atom_site_fract_z
 _atom_site_occupancy
  Sb  Sb0  1  0.11991100  0.50325000  0.68248500  1
  Sb  Sb1  1  0.86038700  0.77691700  0.08985300  1
  Sb  Sb2  1  0.34893300  0.00290800  0.18292600  1
  Sb  Sb3  1  0.63700000  0.27659700  0.58956300  1
  Sb  Sb4  1  0.84816800  0.97703400  0.34347500  1
  Sb  Sb5  1  0.65106700  0.99709200  0.81707400  1
  Sb  Sb6  1  0.13961300  0.22308300  0.91014700  1
  Sb  Sb7  1  0.88008900  0.49675000  0.31751500  1
  Sb  Sb8  1  0.36300000  0.72340300  0.41043700  1
  Sb  Sb9  1  0.62368600  0.47660500  0.84308300  1
  Sb  Sb10  1  0.15183200  0.02296600  0.65652500  1
  Sb  Sb11  1  0.37631400  0.52339500  0.15691700  1
  P  P0  1  0.62125100  0.29460300  0.94206900  1
  P  P1  1  0.10449100  0.56054400  0.82304900  1
  P  P2  1  0.37874900  0.70539700  0.05793100  1
  P  P3  1  0.39410900  0.48500300  0.36921900  1
  P  P4  1  0.86163700  0.01511700  0.13116600  1
  P  P5  1  0.64233000  0.93948300  0.67650300  1
  P  P6  1  0.87205700  0.79498200  0.44246400  1
  P  P7  1  0.13836300  0.98488300  0.86883400  1
  P  P8  1  0.35767000  0.06051700  0.32349700  1
  P  P9  1  0.12794300  0.20501800  0.55753600  1
  P  P10  1  0.89550900  0.43945600  0.17695100  1
  P  P11  1  0.60589100  0.51499700  0.63078100  1
  S  S0  1  0.62356200  0.13182400  0.34843200  1
  S  S1  1  0.33117200  0.58685400  0.60638100  1
  S  S2  1  0.43907000  0.92217800  0.30174300  1
  S  S3  1  0.44937500  0.74124400  0.13851900  1
  S  S4  1  0.75050800  0.43147800  0.94052200  1
  S  S5  1  0.65266800  0.12085300  0.15708700  1
  S  S6  1  0.32647100  0.29610500  0.51713800  1
  S  S7  1  0.04044800  0.42221700  0.80122400  1
  S  S8  1  0.69254000  0.42505900  0.11105100  1
  S  S9  1  0.66882800  0.41314600  0.39361900  1
  S  S10  1  0.24949200  0.56852200  0.05947800  1
  S  S11  1  0.27332300  0.06806900  0.55906200  1
  S  S12  1  0.75165300  0.44412900  0.56335400  1
  S  S13  1  0.80171600  0.62095000  0.65653700  1
  S  S14  1  0.35122900  0.29270600  0.99059800  1
  S  S15  1  0.23721400  0.62674500  0.75315400  1
  S  S16  1  0.87210500  0.91280000  0.89290100  1
  S  S17  1  0.95955200  0.57778300  0.19877600  1
  S  S18  1  0.85746700  0.20708500  0.50916000  1
  S  S19  1  0.17046200  0.36859300  0.15179300  1
  S  S20  1  0.76278600  0.37325500  0.24684600  1
  S  S21  1  0.15271900  0.07517200  0.38939600  1
  S  S22  1  0.30746000  0.57494100  0.88894900  1
  S  S23  1  0.83032200  0.20325200  0.98235700  1
  S  S24  1  0.53786200  0.41311600  0.68946700  1
  S  S25  1  0.27462900  0.05559800  0.93638300  1
  S  S26  1  0.67352900  0.70389500  0.48286200  1
  S  S27  1  0.55062500  0.25875600  0.86148100  1
  S  S28  1  0.72537100  0.94440200  0.06361700  1
  S  S29  1  0.34733200  0.87914700  0.84291300  1
  S  S30  1  0.82953800  0.63140700  0.84820700  1
  S  S31  1  0.16967800  0.79674800  0.01764300  1
  S  S32  1  0.14253300  0.79291500  0.49084000  1
  S  S33  1  0.24834700  0.55587100  0.43664600  1
  S  S34  1  0.12789500  0.08720000  0.10709900  1
  S  S35  1  0.37643800  0.86817600  0.65156800  1
  S  S36  1  0.46213800  0.58688400  0.31053300  1
  S  S37  1  0.56093000  0.07782200  0.69825700  1
  S  S38  1  0.05310300  0.24110600  0.63810600  1
  S  S39  1  0.21626200  0.12616700  0.25361000  1
  S  S40  1  0.72667700  0.93193100  0.44093800  1
  S  S41  1  0.05850900  0.08703700  0.81027800  1
  S  S42  1  0.19828400  0.37905000  0.34346300  1
  S  S43  1  0.94149100  0.91296300  0.18972200  1
  S  S44  1  0.64877100  0.70729400  0.00940200  1
  S  S45  1  0.78373800  0.87383300  0.74639000  1
  S  S46  1  0.84728100  0.92482800  0.61060400  1
  S  S47  1  0.94689700  0.75889400  0.36189400  1
loop_
_geom_bond_atom_site_label_1
_geom_bond_atom_site_label_2
_geom_bond_distance
_geom_bond_site_symmetry_2
P0 S27 2.035390 1_555
P0 S23 2.049291 1_555
P0 S14 2.075514 1_555
P0 S4 2.086651 1_555
P1 S7 2.036335 1_555
P1 S22 2.048573 1_555
P1 S30 2.075748 1_455
P1 S15 2.086881 1_555
P2 S3 2.035390 1_555
P2 S31 2.049291 1_555
P2 S44 2.075514 1_555
P2 S10 2.086651 1_555
P3 S36 2.036325 1_555
P3 S42 2.048338 1_555
P3 S9 2.074828 1_555
P3 S33 2.086957 1_555
P4 S43 2.036502 1_545
P4 S5 2.048233 1_555
P4 S34 2.074770 1_655
P4 S28 2.086565 1_545
P5 S37 2.036810 1_565
P5 S46 2.048467 1_555
P5 S35 2.075339 1_555
P5 S45 2.086277 1_555
P6 S47 2.035014 1_555
P6 S26 2.049422 1_555
P6 S32 2.075966 1_655
P6 S40 2.086425 1_555
P7 S41 2.036502 1_565
P7 S29 2.048233 1_555
P7 S16 2.074770 1_455
P7 S25 2.086565 1_565
P8 S2 2.036810 1_545
P8 S21 2.048467 1_555
P8 S0 2.075339 1_555
P8 S39 2.086277 1_555
P9 S38 2.035014 1_555
P9 S6 2.049422 1_555
P9 S18 2.075966 1_455
P9 S11 2.086425 1_555
P10 S17 2.036335 1_555
P10 S8 2.048573 1_555
P10 S19 2.075748 1_655
P10 S20 2.086881 1_555
P11 S24 2.036325 1_555
P11 S13 2.048338 1_555
P11 S1 2.074828 1_555
P11 S12 2.086957 1_555
S0 Sb4 2.546674 1_545
S1 Sb0 2.551169 1_555
S2 Sb4 2.916786 1_555
S2 Sb2 3.084919 1_565
S3 Sb1 2.922537 1_555
S3 Sb11 3.091945 1_555
S4 Sb9 2.526866 1_555
S5 Sb2 2.640663 1_555
S6 Sb3 2.635819 1_555
S7 Sb9 2.921020 1_455
S7 Sb0 3.083053 1_555
S8 Sb11 2.640368 1_555
S9 Sb7 2.551169 1_555
S10 Sb11 2.526866 1_555
S11 Sb10 2.526567 1_555
S12 Sb3 2.526120 1_555
S13 Sb0 2.640821 1_655
S14 Sb6 2.550016 1_555
S15 Sb0 2.528455 1_555
S16 Sb5 2.550855 1_555
S17 Sb11 2.921020 1_655
S17 Sb7 3.083053 1_555
S18 Sb3 2.548678 1_555
S19 Sb11 2.546982 1_555
S20 Sb7 2.528455 1_555
S21 Sb4 2.641602 1_445
S22 Sb9 2.640368 1_555
S23 Sb6 2.636647 1_655
S24 Sb0 2.919340 1_555
S24 Sb3 3.093314 1_555
S25 Sb6 2.526161 1_555
S26 Sb8 2.635819 1_555
S27 Sb6 2.922537 1_555
S27 Sb9 3.091945 1_555
S28 Sb1 2.526161 1_555
S29 Sb5 2.640663 1_555
S30 Sb9 2.546982 1_555
S31 Sb1 2.636647 1_455
S32 Sb8 2.548678 1_555
S33 Sb8 2.526120 1_555
S34 Sb2 2.550855 1_555
S35 Sb10 2.546674 1_565
S36 Sb7 2.919340 1_555
S36 Sb8 3.093314 1_555
S37 Sb10 2.916786 1_555
S37 Sb5 3.084919 1_545
S38 Sb3 2.926930 1_455
S38 Sb10 3.095251 1_555
S39 Sb2 2.526663 1_555
S40 Sb4 2.526567 1_555
S41 Sb5 2.919973 1_445
S41 Sb6 3.087429 1_555
S42 Sb7 2.640821 1_455
S43 Sb2 2.919973 1_665
S43 Sb1 3.087429 1_555
S44 Sb1 2.550016 1_555
S45 Sb5 2.526663 1_555
S46 Sb10 2.641602 1_665
S47 Sb8 2.926930 1_655
S47 Sb4 3.095251 1_555
