# generated using pymatgen
data_Si2Ni7P5
_symmetry_space_group_name_H-M   'P 1'
_cell_length_a   4.91350600
_cell_length_b   5.92284900
_cell_length_c   23.93746100
_cell_angle_alpha   90.00000000
_cell_angle_beta   90.00000000
_cell_angle_gamma   90.00000000
_symmetry_Int_Tables_number   1
_chemical_formula_structural   Si2Ni7P5
_chemical_formula_sum   'Si8 Ni28 P20'
_cell_volume   696.62689126
_cell_formula_units_Z   4
loop_
 _symmetry_equiv_pos_site_id
 _symmetry_equiv_pos_as_xyz
  1  'x, y, z'
loop_
 _atom_site_type_symbol
 _atom_site_label
 _atom_site_symmetry_multiplicity
 _atom_site_fract_x
 _atom_site_fract_y
 _atom_site_fract_z
 _atom_site_occupancy
  Si  Si0  1  0.21947700  0.15927100  0.78298400  1
  Si  Si1  1  0.78052300  0.34072900  0.28298400  1
  Si  Si2  1  0.28052300  0.15927100  0.21701600  1
  Si  Si3  1  0.78052300  0.84072900  0.21701600  1
  Si  Si4  1  0.28052300  0.65927100  0.28298400  1
  Si  Si5  1  0.71947700  0.84072900  0.78298400  1
  Si  Si6  1  0.21947700  0.65927100  0.71701600  1
  Si  Si7  1  0.71947700  0.34072900  0.71701600  1
  Ni  Ni0  1  0.99357100  0.44943400  0.63983900  1
  Ni  Ni1  1  0.50093300  0.46611700  0.79429300  1
  Ni  Ni2  1  0.00642900  0.55056600  0.36016100  1
  Ni  Ni3  1  0.50135300  0.45763500  0.92623000  1
  Ni  Ni4  1  0.50135300  0.95763500  0.57377000  1
  Ni  Ni5  1  0.49906700  0.53388300  0.20570700  1
  Ni  Ni6  1  0.50093300  0.96611700  0.70570700  1
  Ni  Ni7  1  0.99864700  0.45763500  0.07377000  1
  Ni  Ni8  1  0.00642900  0.05056600  0.13983900  1
  Ni  Ni9  1  0.00135300  0.04236500  0.57377000  1
  Ni  Ni10  1  0.49357100  0.05056600  0.86016100  1
  Ni  Ni11  1  0.99906700  0.96611700  0.29429300  1
  Ni  Ni12  1  0.99906700  0.46611700  0.20570700  1
  Ni  Ni13  1  0.99864700  0.95763500  0.42623000  1
  Ni  Ni14  1  0.00093300  0.53388300  0.79429300  1
  Ni  Ni15  1  0.49864700  0.54236500  0.07377000  1
  Ni  Ni16  1  0.49357100  0.55056600  0.63983900  1
  Ni  Ni17  1  0.50642900  0.94943400  0.13983900  1
  Ni  Ni18  1  0.00000000  0.50000000  0.50000000  1
  Ni  Ni19  1  0.99357100  0.94943400  0.86016100  1
  Ni  Ni20  1  0.49864700  0.04236500  0.42623000  1
  Ni  Ni21  1  0.00093300  0.03388300  0.70570700  1
  Ni  Ni22  1  0.50642900  0.44943400  0.36016100  1
  Ni  Ni23  1  0.49906700  0.03388300  0.29429300  1
  Ni  Ni24  1  0.50000000  0.00000000  0.00000000  1
  Ni  Ni25  1  0.00135300  0.54236500  0.92623000  1
  Ni  Ni26  1  0.00000000  0.00000000  0.00000000  1
  Ni  Ni27  1  0.50000000  0.50000000  0.50000000  1
  P  P0  1  0.31240300  0.68532300  0.85784100  1
  P  P1  1  0.69236000  0.82293600  0.92776700  1
  P  P2  1  0.19236000  0.17706400  0.92776700  1
  P  P3  1  0.81240300  0.31467700  0.85784100  1
  P  P4  1  0.25000000  0.16862800  0.50000000  1
  P  P5  1  0.75000000  0.83137200  0.50000000  1
  P  P6  1  0.31240300  0.18532300  0.64215900  1
  P  P7  1  0.25000000  0.66862800  0.00000000  1
  P  P8  1  0.68759700  0.81467700  0.35784100  1
  P  P9  1  0.81240300  0.81467700  0.64215900  1
  P  P10  1  0.80764000  0.32293600  0.42776700  1
  P  P11  1  0.19236000  0.67706400  0.57223300  1
  P  P12  1  0.68759700  0.31467700  0.14215900  1
  P  P13  1  0.69236000  0.32293600  0.57223300  1
  P  P14  1  0.30764000  0.17706400  0.07223300  1
  P  P15  1  0.18759700  0.68532300  0.14215900  1
  P  P16  1  0.75000000  0.33137200  0.00000000  1
  P  P17  1  0.80764000  0.82293600  0.07223300  1
  P  P18  1  0.18759700  0.18532300  0.35784100  1
  P  P19  1  0.30764000  0.67706400  0.42776700  1
loop_
_geom_bond_atom_site_label_1
_geom_bond_atom_site_label_2
_geom_bond_distance
_geom_bond_site_symmetry_2
Ni0 P6 2.214558 1_655
Ni0 P13 2.317476 1_555
Ni0 P11 2.321784 1_655
Ni0 P9 2.339928 1_555
Ni0 Si7 2.375136 1_555
Ni0 Si6 2.487906 1_655
Ni1 P0 2.204028 1_555
Ni1 Si7 2.264163 1_555
Ni1 Si0 2.299727 1_555
Ni1 P3 2.336807 1_555
Ni1 Si5 2.479780 1_555
Ni1 Ni14 2.489323 1_655
Ni1 Ni14 2.489323 1_555
Ni1 Si6 2.577424 1_555
Ni2 P8 2.214558 1_455
Ni2 P19 2.317476 1_555
Ni2 P10 2.321784 1_455
Ni2 P18 2.339928 1_555
Ni2 Si4 2.375136 1_555
Ni2 Si1 2.487906 1_455
Ni3 P2 2.251203 1_555
Ni3 P16 2.273800 1_556
Ni3 P0 2.315280 1_555
Ni3 P1 2.358691 1_555
Ni3 P3 2.394313 1_555
Ni3 P7 2.491038 1_556
Ni4 P11 2.251203 1_555
Ni4 P5 2.273800 1_555
Ni4 P6 2.315280 1_565
Ni4 P13 2.358691 1_565
Ni4 P9 2.394313 1_555
Ni4 P4 2.491038 1_565
Ni5 P12 2.204028 1_555
Ni5 Si4 2.264163 1_555
Ni5 Si3 2.299727 1_555
Ni5 P15 2.336807 1_555
Ni5 Si2 2.479780 1_555
Ni5 Si1 2.577424 1_555
Ni6 P6 2.204028 1_565
Ni6 Si5 2.264163 1_555
Ni6 Si6 2.299727 1_555
Ni6 P9 2.336807 1_555
Ni6 Si7 2.479780 1_565
Ni6 Si0 2.577424 1_565
Ni7 P14 2.251203 1_655
Ni7 P16 2.273800 1_555
Ni7 P15 2.315280 1_655
Ni7 P17 2.358691 1_555
Ni7 P12 2.394313 1_555
Ni7 P7 2.491038 1_655
Ni8 P12 2.214558 1_455
Ni8 P14 2.317476 1_555
Ni8 P17 2.321784 1_445
Ni8 P15 2.339928 1_545
Ni8 Si2 2.375136 1_555
Ni8 Si3 2.487906 1_445
Ni9 P13 2.251203 1_455
Ni9 P4 2.273800 1_555
Ni9 P9 2.315280 1_445
Ni9 P11 2.358691 1_545
Ni9 P6 2.394313 1_555
Ni9 P5 2.491038 1_445
Ni10 P3 2.214558 1_555
Ni10 P2 2.317476 1_555
Ni10 P1 2.321784 1_545
Ni10 P0 2.339928 1_545
Ni10 Si0 2.375136 1_555
Ni10 Si5 2.487906 1_545
Ni11 P18 2.204028 1_665
Ni11 Si3 2.264163 1_555
Ni11 Si4 2.299727 1_655
Ni11 P8 2.336807 1_555
Ni11 Si1 2.479780 1_565
Ni11 Ni23 2.489323 1_565
Ni11 Ni23 2.489323 1_665
Ni11 Si2 2.577424 1_665
Ni12 P15 2.204028 1_655
Ni12 Si1 2.264163 1_555
Ni12 Si2 2.299727 1_655
Ni12 P12 2.336807 1_555
Ni12 Si3 2.479780 1_555
Ni12 Ni5 2.489323 1_555
Ni12 Ni5 2.489323 1_655
Ni12 Si4 2.577424 1_655
Ni13 P19 2.251203 1_655
Ni13 P5 2.273800 1_555
Ni13 P18 2.315280 1_665
Ni13 P10 2.358691 1_565
Ni13 P8 2.394313 1_555
Ni13 P4 2.491038 1_665
Ni14 P3 2.204028 1_455
Ni14 Si6 2.264163 1_555
Ni14 Si5 2.299727 1_455
Ni14 P0 2.336807 1_555
Ni14 Si0 2.479780 1_555
Ni14 Si7 2.577424 1_455
Ni15 P17 2.251203 1_555
Ni15 P7 2.273800 1_555
Ni15 P12 2.315280 1_555
Ni15 P14 2.358691 1_555
Ni15 P15 2.394313 1_555
Ni15 P16 2.491038 1_555
Ni16 P9 2.214558 1_555
Ni16 P11 2.317476 1_555
Ni16 P13 2.321784 1_555
Ni16 P6 2.339928 1_555
Ni16 Si6 2.375136 1_555
Ni16 Si7 2.487906 1_555
Ni17 P15 2.214558 1_555
Ni17 P17 2.317476 1_555
Ni17 P14 2.321784 1_565
Ni17 P12 2.339928 1_565
Ni17 Si3 2.375136 1_555
Ni17 Si2 2.487906 1_565
Ni18 P10 2.232230 1_455
Ni18 P11 2.232230 1_555
Ni18 P4 2.315376 1_555
Ni18 P5 2.315376 1_455
Ni18 P13 2.524763 1_455
Ni18 P19 2.524763 1_555
Ni19 P0 2.214558 1_655
Ni19 P1 2.317476 1_555
Ni19 P2 2.321784 1_665
Ni19 P3 2.339928 1_565
Ni19 Si5 2.375136 1_555
Ni19 Si0 2.487906 1_665
Ni20 P10 2.251203 1_555
Ni20 P4 2.273800 1_555
Ni20 P8 2.315280 1_545
Ni20 P19 2.358691 1_545
Ni20 P18 2.394313 1_555
Ni20 P5 2.491038 1_545
Ni21 P9 2.204028 1_445
Ni21 Si0 2.264163 1_555
Ni21 Si7 2.299727 1_455
Ni21 P6 2.336807 1_555
Ni21 Si6 2.479780 1_545
Ni21 Ni6 2.489323 1_445
Ni21 Ni6 2.489323 1_545
Ni21 Si5 2.577424 1_445
Ni22 P18 2.214558 1_555
Ni22 P10 2.317476 1_555
Ni22 P19 2.321784 1_555
Ni22 P8 2.339928 1_555
Ni22 Si1 2.375136 1_555
Ni22 Si4 2.487906 1_555
Ni23 P8 2.204028 1_545
Ni23 Si2 2.264163 1_555
Ni23 Si1 2.299727 1_555
Ni23 P18 2.336807 1_555
Ni23 Si4 2.479780 1_545
Ni23 Si3 2.577424 1_545
Ni24 P14 2.232230 1_555
Ni24 P1 2.232230 1_544
Ni24 P16 2.315376 1_555
Ni24 P7 2.315376 1_545
Ni24 P17 2.524763 1_545
Ni24 P2 2.524763 1_554
Ni25 P1 2.251203 1_455
Ni25 P7 2.273800 1_556
Ni25 P3 2.315280 1_455
Ni25 P2 2.358691 1_555
Ni25 P0 2.394313 1_555
Ni25 P16 2.491038 1_456
Ni26 P17 2.232230 1_445
Ni26 P2 2.232230 1_554
Ni26 P7 2.315376 1_545
Ni26 P16 2.315376 1_455
Ni26 P14 2.524763 1_555
Ni26 P1 2.524763 1_444
Ni27 P19 2.232230 1_555
Ni27 P13 2.232230 1_555
Ni27 P4 2.315376 1_555
Ni27 P5 2.315376 1_555
Ni27 P10 2.524763 1_555
Ni27 P11 2.524763 1_555
P0 Si5 2.838789 1_555
P3 Si0 2.838789 1_655
P6 Si7 2.838789 1_555
P8 Si4 2.838789 1_555
P9 Si6 2.838789 1_655
P12 Si2 2.838789 1_555
P15 Si3 2.838789 1_455
P18 Si1 2.838789 1_455
