# generated using pymatgen
data_H5(NO)3
_symmetry_space_group_name_H-M   'P 1'
_cell_length_a   5.87387900
_cell_length_b   8.07695800
_cell_length_c   11.49151732
_cell_angle_alpha   45.83979441
_cell_angle_beta   90.00000000
_cell_angle_gamma   90.00000000
_symmetry_Int_Tables_number   1
_chemical_formula_structural   H5(NO)3
_chemical_formula_sum   'H20 N12 O12'
_cell_volume   391.11847207
_cell_formula_units_Z   4
loop_
 _symmetry_equiv_pos_site_id
 _symmetry_equiv_pos_as_xyz
  1  'x, y, z'
loop_
 _atom_site_type_symbol
 _atom_site_label
 _atom_site_symmetry_multiplicity
 _atom_site_fract_x
 _atom_site_fract_y
 _atom_site_fract_z
 _atom_site_occupancy
  H  H0  1  0.40682000  0.67118500  0.80602100  1
  H  H1  1  0.53777700  0.29325100  0.65412700  1
  H  H2  1  0.97469200  0.06795000  0.75595900  1
  H  H3  1  0.79829000  0.07088800  0.86937500  1
  H  H4  1  0.29489000  0.72374700  0.45355300  1
  H  H5  1  0.96222300  0.29325100  0.15412700  1
  H  H6  1  0.79489000  0.27625300  0.04644700  1
  H  H7  1  0.70511000  0.27625300  0.54644700  1
  H  H8  1  0.46222300  0.70674900  0.34587300  1
  H  H9  1  0.09318000  0.67118500  0.30602100  1
  H  H10  1  0.20171000  0.92911200  0.13062500  1
  H  H11  1  0.47469200  0.93205000  0.74404100  1
  H  H12  1  0.90682000  0.32881500  0.69397900  1
  H  H13  1  0.03777700  0.70674900  0.84587300  1
  H  H14  1  0.70171000  0.07088800  0.36937500  1
  H  H15  1  0.20511000  0.72374700  0.95355300  1
  H  H16  1  0.02530800  0.93205000  0.24404100  1
  H  H17  1  0.29829000  0.92911200  0.63062500  1
  H  H18  1  0.59318000  0.32881500  0.19397900  1
  H  H19  1  0.52530800  0.06795000  0.25595900  1
  N  N0  1  0.65120800  0.18835200  0.66202900  1
  N  N1  1  0.83996800  0.69421400  0.63418600  1
  N  N2  1  0.15361200  0.83307500  0.25159600  1
  N  N3  1  0.66003200  0.69421400  0.13418600  1
  N  N4  1  0.15120800  0.81164800  0.83797100  1
  N  N5  1  0.65361200  0.16692500  0.24840400  1
  N  N6  1  0.84638800  0.16692500  0.74840400  1
  N  N7  1  0.34638800  0.83307500  0.75159600  1
  N  N8  1  0.84879200  0.18835200  0.16202900  1
  N  N9  1  0.34879200  0.81164800  0.33797100  1
  N  N10  1  0.33996800  0.30578600  0.86581400  1
  N  N11  1  0.16003200  0.30578600  0.36581400  1
  O  O0  1  0.39284200  0.46042600  0.71732800  1
  O  O1  1  0.60715800  0.53957400  0.28267200  1
  O  O2  1  0.73698700  0.88683400  0.07546700  1
  O  O3  1  0.89284200  0.53957400  0.78267200  1
  O  O4  1  0.13558800  0.34189000  0.45651000  1
  O  O5  1  0.23698700  0.11316600  0.42453300  1
  O  O6  1  0.36441200  0.34189000  0.95651000  1
  O  O7  1  0.10715800  0.46042600  0.21732800  1
  O  O8  1  0.76301300  0.88683400  0.57546700  1
  O  O9  1  0.63558800  0.65811000  0.04349000  1
  O  O10  1  0.86441200  0.65811000  0.54349000  1
  O  O11  1  0.26301300  0.11316600  0.92453300  1
loop_
_geom_bond_atom_site_label_1
_geom_bond_atom_site_label_2
_geom_bond_distance
_geom_bond_site_symmetry_2
H0 N7 1.042815 1_555
H1 N0 1.030938 1_555
H2 N6 1.057298 1_555
H3 N6 1.054300 1_555
H4 N9 1.026912 1_555
H5 N8 1.030938 1_555
H6 N8 1.026912 1_555
H7 N0 1.026912 1_555
H8 N9 1.030938 1_555
H9 N2 1.042815 1_555
H10 N2 1.054300 1_555
H11 N7 1.057298 1_555
H12 N6 1.042815 1_555
H13 N4 1.030938 1_555
H14 N5 1.054300 1_555
H15 N4 1.026912 1_555
H16 N2 1.057298 1_555
H17 N7 1.054300 1_555
H18 N5 1.042815 1_555
H19 N5 1.057298 1_555
N1 O3 1.264334 1_555
N1 O10 1.270975 1_555
N1 O8 1.271765 1_555
N3 O1 1.264334 1_555
N3 O9 1.270975 1_555
N3 O2 1.271765 1_555
N10 O0 1.264334 1_555
N10 O6 1.270975 1_555
N10 O11 1.271765 1_555
N11 O7 1.264334 1_555
N11 O4 1.270975 1_555
N11 O5 1.271765 1_555
