# generated using pymatgen
data_Sm2B5
_symmetry_space_group_name_H-M   'P 1'
_cell_length_a   7.25199799
_cell_length_b   7.20659880
_cell_length_c   7.22274676
_cell_angle_alpha   90.00000000
_cell_angle_beta   90.00000000
_cell_angle_gamma   101.73575859
_symmetry_Int_Tables_number   1
_chemical_formula_structural   Sm2B5
_chemical_formula_sum   'Sm8 B20'
_cell_volume   369.58616982
_cell_formula_units_Z   4
loop_
 _symmetry_equiv_pos_site_id
 _symmetry_equiv_pos_as_xyz
  1  'x, y, z'
loop_
 _atom_site_type_symbol
 _atom_site_label
 _atom_site_symmetry_multiplicity
 _atom_site_fract_x
 _atom_site_fract_y
 _atom_site_fract_z
 _atom_site_occupancy
  Sm  Sm0  1  0.24153772  0.76012685  0.81657751  1
  Sm  Sm1  1  0.75846228  0.23987315  0.18342149  1
  Sm  Sm2  1  0.74153772  0.76012685  0.68342249  1
  Sm  Sm3  1  0.86770213  0.76568066  0.19030189  1
  Sm  Sm4  1  0.36770213  0.76568066  0.30969811  1
  Sm  Sm5  1  0.25846228  0.23987315  0.31657751  1
  Sm  Sm6  1  0.63229787  0.23431934  0.69030189  1
  Sm  Sm7  1  0.13229787  0.23431934  0.80969811  1
  B  B0  1  0.03951422  0.50228161  0.32790810  1
  B  B1  1  0.82746886  0.49705408  0.46132678  1
  B  B2  1  0.46048578  0.49771839  0.82790810  1
  B  B3  1  0.53951422  0.50228161  0.17209190  1
  B  B4  1  0.40916857  0.50103682  0.59103379  1
  B  B5  1  0.03589025  0.68315958  0.50129559  1
  B  B6  1  0.93222476  0.07919686  0.49445695  1
  B  B7  1  0.96410975  0.31684042  0.49870441  1
  B  B8  1  0.17253114  0.50294592  0.53867322  1
  B  B9  1  0.56777524  0.92080314  0.99445695  1
  B  B10  1  0.06777424  0.92080314  0.50554305  1
  B  B11  1  0.43222476  0.07919686  0.00554305  1
  B  B12  1  0.90916857  0.50103682  0.90896621  1
  B  B13  1  0.59083143  0.49896318  0.40896621  1
  B  B14  1  0.67253114  0.50294592  0.96132678  1
  B  B15  1  0.32746886  0.49705408  0.03867322  1
  B  B16  1  0.46410975  0.31684042  0.00129559  1
  B  B17  1  0.53589025  0.68315958  0.99870441  1
  B  B18  1  0.09083143  0.49896318  0.09103379  1
  B  B19  1  0.96048578  0.49771839  0.67209190  1
loop_
_geom_bond_atom_site_label_1
_geom_bond_atom_site_label_2
_geom_bond_distance
_geom_bond_site_symmetry_2
B0 B18 1.752088 1_555
B0 B8 1.801688 1_555
B0 B1 1.808634 1_455
B0 B5 1.811662 1_555
B0 B7 1.819210 1_455
B0 Sm3 2.665639 1_455
B0 Sm1 2.692862 1_455
B0 Sm5 2.706561 1_555
B0 Sm4 2.728951 1_555
B1 B13 1.760056 1_555
B1 B19 1.801688 1_555
B1 B7 1.806936 1_555
B1 B5 1.828120 1_655
B1 Sm2 2.652641 1_555
B1 Sm6 2.689484 1_555
B1 Sm1 2.708732 1_555
B1 Sm3 2.726717 1_555
B2 B4 1.752088 1_555
B2 Sm6 2.665639 1_555
B2 Sm2 2.692859 1_555
B2 Sm0 2.706561 1_555
B2 Sm7 2.728951 1_555
B3 Sm4 2.665639 1_555
B3 Sm5 2.692859 1_555
B3 Sm1 2.706560 1_555
B3 Sm3 2.728951 1_555
B4 B8 1.760056 1_555
B4 Sm5 2.798148 1_555
B4 Sm2 2.812566 1_555
B4 Sm4 2.844322 1_555
B4 Sm6 2.844686 1_555
B4 Sm0 2.922542 1_555
B4 Sm7 2.941170 1_555
B5 B8 1.806936 1_555
B5 Sm2 2.660160 1_455
B5 Sm3 2.679915 1_455
B5 Sm0 2.716789 1_555
B5 Sm4 2.734387 1_555
B6 B7 1.681166 1_555
B6 Sm5 2.733933 1_655
B6 Sm2 2.787273 1_545
B6 Sm7 2.807025 1_655
B6 Sm1 2.927317 1_555
B6 Sm6 2.995111 1_555
B6 Sm3 3.117657 1_545
B7 B8 1.828120 1_655
B7 Sm5 2.660160 1_655
B7 Sm7 2.679915 1_655
B7 Sm1 2.716795 1_555
B7 Sm6 2.734387 1_555
B8 Sm5 2.652641 1_555
B8 Sm4 2.689484 1_555
B8 Sm0 2.708727 1_555
B8 Sm7 2.726717 1_555
B9 Sm0 2.733933 1_555
B9 Sm1 2.787269 1_566
B9 Sm4 2.807025 1_556
B9 Sm2 2.927312 1_555
B9 Sm3 2.995111 1_556
B9 Sm6 3.117657 1_565
B10 B6 1.652920 1_465
B10 B5 1.681167 1_555
B10 Sm2 2.733927 1_455
B10 Sm5 2.787275 1_565
B10 Sm3 2.807022 1_455
B10 Sm0 2.927316 1_555
B10 Sm4 2.995117 1_555
B10 Sm7 3.117657 1_565
B11 B9 1.652925 1_544
B11 B16 1.681166 1_555
B11 Sm1 2.733929 1_555
B11 Sm0 2.787273 1_544
B11 Sm6 2.807025 1_554
B11 Sm5 2.927312 1_555
B11 Sm7 2.995111 1_554
B11 Sm4 3.117657 1_545
B12 B19 1.752088 1_555
B12 B14 1.760056 1_555
B12 B18 1.863632 1_656
B12 Sm1 2.798143 1_556
B12 Sm0 2.812566 1_655
B12 Sm3 2.844322 1_556
B12 Sm7 2.844686 1_655
B12 Sm2 2.922542 1_555
B12 Sm6 2.941170 1_555
B13 B3 1.752088 1_555
B13 B4 1.863632 1_555
B13 Sm2 2.798148 1_555
B13 Sm5 2.812566 1_555
B13 Sm6 2.844322 1_555
B13 Sm4 2.844686 1_555
B13 Sm1 2.922546 1_555
B13 Sm3 2.941170 1_555
B14 B3 1.801688 1_556
B14 B17 1.806936 1_555
B14 B2 1.808634 1_555
B14 B16 1.828120 1_556
B14 Sm1 2.652637 1_556
B14 Sm3 2.689484 1_556
B14 Sm2 2.708727 1_555
B14 Sm6 2.726717 1_555
B15 B18 1.760056 1_555
B15 B2 1.801688 1_554
B15 B16 1.806936 1_555
B15 B3 1.808634 1_555
B15 B17 1.828120 1_554
B15 Sm0 2.652641 1_554
B15 Sm7 2.689484 1_554
B15 Sm5 2.708727 1_555
B15 Sm4 2.726717 1_555
B16 B2 1.811662 1_554
B16 B3 1.819210 1_555
B16 Sm1 2.660156 1_555
B16 Sm6 2.679915 1_554
B16 Sm5 2.716789 1_555
B16 Sm7 2.734387 1_554
B17 B9 1.681166 1_555
B17 B3 1.811662 1_556
B17 B2 1.819210 1_555
B17 Sm0 2.660160 1_555
B17 Sm4 2.679915 1_556
B17 Sm2 2.716789 1_555
B17 Sm3 2.734387 1_556
B18 Sm0 2.798148 1_554
B18 Sm1 2.812564 1_455
B18 Sm7 2.844322 1_554
B18 Sm3 2.844686 1_455
B18 Sm5 2.922542 1_555
B18 Sm4 2.941170 1_555
B19 B8 1.808634 1_655
B19 B7 1.811662 1_555
B19 B5 1.819210 1_655
B19 Sm7 2.665639 1_655
B19 Sm0 2.692859 1_655
B19 Sm2 2.706561 1_555
B19 Sm6 2.728951 1_555
