# generated using pymatgen
data_Ba9Cu7Cl2O15
_symmetry_space_group_name_H-M   'P 1'
_cell_length_a   10.97567889
_cell_length_b   10.97567889
_cell_length_c   6.11672500
_cell_angle_alpha   90.00000000
_cell_angle_beta   90.00000000
_cell_angle_gamma   120.00000537
_symmetry_Int_Tables_number   1
_chemical_formula_structural   Ba9Cu7Cl2O15
_chemical_formula_sum   'Ba9 Cu7 Cl2 O15'
_cell_volume   638.13468250
_cell_formula_units_Z   1
loop_
 _symmetry_equiv_pos_site_id
 _symmetry_equiv_pos_as_xyz
  1  'x, y, z'
loop_
 _atom_site_type_symbol
 _atom_site_label
 _atom_site_symmetry_multiplicity
 _atom_site_fract_x
 _atom_site_fract_y
 _atom_site_fract_z
 _atom_site_occupancy
  Ba  Ba0  1  0.20226200  0.40452300  0.50000000  1
  Ba  Ba1  1  0.50000000  0.50000000  0.00000000  1
  Ba  Ba2  1  0.59547700  0.79773800  0.50000000  1
  Ba  Ba3  1  0.79773800  0.59547700  0.50000000  1
  Ba  Ba4  1  0.40452300  0.20226200  0.50000000  1
  Ba  Ba5  1  0.79773800  0.20226200  0.50000000  1
  Ba  Ba6  1  0.20226200  0.79773800  0.50000000  1
  Ba  Ba7  1  0.00000000  0.50000000  0.00000000  1
  Ba  Ba8  1  0.50000000  0.00000000  0.00000000  1
  Cu  Cu0  1  0.26590900  0.13295400  0.00000000  1
  Cu  Cu1  1  0.86704600  0.13295400  0.00000000  1
  Cu  Cu2  1  0.13295400  0.86704600  0.00000000  1
  Cu  Cu3  1  0.13295400  0.26590900  0.00000000  1
  Cu  Cu4  1  0.73409100  0.86704600  0.00000000  1
  Cu  Cu5  1  0.00000000  0.00000000  0.50000000  1
  Cu  Cu6  1  0.86704600  0.73409100  0.00000000  1
  Cl  Cl0  1  0.66666700  0.33333300  0.00000000  1
  Cl  Cl1  1  0.33333300  0.66666700  0.00000000  1
  O  O0  1  0.26503400  0.26503400  0.20907300  1
  O  O1  1  0.50000000  0.00000000  0.50000000  1
  O  O2  1  0.73496600  0.73496600  0.79092700  1
  O  O3  1  0.26503400  0.00000000  0.79092700  1
  O  O4  1  0.00000000  0.26503400  0.79092700  1
  O  O5  1  0.26503400  0.00000000  0.20907300  1
  O  O6  1  0.73496600  0.73496600  0.20907300  1
  O  O7  1  0.00000000  0.26503400  0.20907300  1
  O  O8  1  0.00000000  0.73496600  0.79092700  1
  O  O9  1  0.00000000  0.50000000  0.50000000  1
  O  O10  1  0.73496600  0.00000000  0.79092700  1
  O  O11  1  0.26503400  0.26503400  0.79092700  1
  O  O12  1  0.00000000  0.73496600  0.20907300  1
  O  O13  1  0.73496600  0.00000000  0.20907300  1
  O  O14  1  0.50000000  0.50000000  0.50000000  1
loop_
_geom_bond_atom_site_label_1
_geom_bond_atom_site_label_2
_geom_bond_distance
_geom_bond_site_symmetry_2
Ba0 O11 2.653315 1_555
Ba0 O0 2.653315 1_555
Ba0 O4 2.653321 1_555
Ba0 O7 2.653321 1_555
Ba0 O14 2.890099 1_555
Ba0 O9 2.890110 1_555
Ba1 O0 2.878579 1_555
Ba1 O6 2.878579 1_555
Ba1 O11 2.878579 1_554
Ba1 O2 2.878579 1_554
Ba1 O14 3.058362 1_555
Ba1 O14 3.058362 1_554
Ba1 Cl0 3.168412 1_555
Ba1 Cl1 3.168412 1_555
Ba2 O2 2.653315 1_555
Ba2 O6 2.653315 1_555
Ba2 O10 2.653321 1_565
Ba2 O13 2.653321 1_565
Ba2 O14 2.890099 1_555
Ba2 O1 2.890110 1_565
Ba3 O2 2.653315 1_555
Ba3 O6 2.653315 1_555
Ba3 O8 2.653321 1_655
Ba3 O12 2.653321 1_655
Ba3 O14 2.890099 1_555
Ba3 O9 2.890110 1_655
Ba4 O11 2.653315 1_555
Ba4 O0 2.653315 1_555
Ba4 O3 2.653321 1_555
Ba4 O5 2.653321 1_555
Ba4 O14 2.890099 1_555
Ba4 O1 2.890110 1_555
Ba5 O10 2.653323 1_555
Ba5 O4 2.653323 1_655
Ba5 O13 2.653323 1_555
Ba5 O7 2.653323 1_655
Ba5 O1 2.890102 1_555
Ba5 O9 2.890102 1_655
Ba6 O8 2.653323 1_555
Ba6 O3 2.653323 1_565
Ba6 O12 2.653323 1_555
Ba6 O5 2.653323 1_565
Ba6 O9 2.890102 1_555
Ba6 O1 2.890102 1_565
Ba7 O7 2.878580 1_555
Ba7 O12 2.878580 1_555
Ba7 O8 2.878580 1_554
Ba7 O4 2.878580 1_554
Ba7 O9 3.058362 1_554
Ba7 O9 3.058362 1_555
Ba7 Cl1 3.168402 1_555
Ba7 Cl0 3.168402 1_455
Ba8 O5 2.878580 1_555
Ba8 O13 2.878580 1_555
Ba8 O3 2.878580 1_554
Ba8 O10 2.878580 1_554
Ba8 O1 3.058362 1_555
Ba8 O1 3.058362 1_554
Ba8 Cl0 3.168402 1_555
Ba8 Cl1 3.168402 1_545
Cu0 O5 1.936738 1_555
Cu0 O3 1.936738 1_554
Cu0 O0 1.936747 1_555
Cu0 O11 1.936747 1_554
Cu1 O13 1.936742 1_555
Cu1 O7 1.936742 1_655
Cu1 O10 1.936742 1_554
Cu1 O4 1.936742 1_654
Cu2 O12 1.936742 1_555
Cu2 O5 1.936742 1_565
Cu2 O8 1.936742 1_554
Cu2 O3 1.936742 1_564
Cu3 O7 1.936738 1_555
Cu3 O4 1.936738 1_554
Cu3 O0 1.936747 1_555
Cu3 O11 1.936747 1_554
Cu4 O13 1.936738 1_565
Cu4 O10 1.936738 1_564
Cu4 O6 1.936747 1_555
Cu4 O2 1.936747 1_554
Cu6 O12 1.936738 1_655
Cu6 O8 1.936738 1_654
Cu6 O6 1.936747 1_555
Cu6 O2 1.936747 1_554
