# generated using pymatgen
data_Na5LiMn2O8
_symmetry_space_group_name_H-M   'P 1'
_cell_length_a   10.56349900
_cell_length_b   10.61884800
_cell_length_c   15.21081000
_cell_angle_alpha   90.00000000
_cell_angle_beta   90.00000000
_cell_angle_gamma   90.00000000
_symmetry_Int_Tables_number   1
_chemical_formula_structural   Na5LiMn2O8
_chemical_formula_sum   'Na40 Li8 Mn16 O64'
_cell_volume   1706.22987286
_cell_formula_units_Z   8
loop_
 _symmetry_equiv_pos_site_id
 _symmetry_equiv_pos_as_xyz
  1  'x, y, z'
loop_
 _atom_site_type_symbol
 _atom_site_label
 _atom_site_symmetry_multiplicity
 _atom_site_fract_x
 _atom_site_fract_y
 _atom_site_fract_z
 _atom_site_occupancy
  Na  Na0  1  0.77763400  0.00674600  0.50404000  1
  Na  Na1  1  0.75774500  0.24467200  0.89629200  1
  Na  Na2  1  0.48300100  0.29147200  0.25000000  1
  Na  Na3  1  0.72356900  0.76265000  0.36225500  1
  Na  Na4  1  0.24225500  0.75532800  0.39629200  1
  Na  Na5  1  0.27643100  0.23735000  0.63774500  1
  Na  Na6  1  0.72236600  0.50674600  0.99596000  1
  Na  Na7  1  0.27763400  0.49325400  0.00404000  1
  Na  Na8  1  0.72236600  0.50674600  0.50404000  1
  Na  Na9  1  0.57095200  0.23097100  0.75000000  1
  Na  Na10  1  0.27643100  0.23735000  0.86225500  1
  Na  Na11  1  0.51875100  0.00979000  0.11248400  1
  Na  Na12  1  0.98124900  0.50979000  0.38751600  1
  Na  Na13  1  0.75774500  0.24467200  0.60370800  1
  Na  Na14  1  0.77763400  0.00674600  0.99596000  1
  Na  Na15  1  0.72356900  0.76265000  0.13774500  1
  Na  Na16  1  0.77643100  0.26265000  0.36225500  1
  Na  Na17  1  0.01875100  0.49021000  0.61248400  1
  Na  Na18  1  0.25774500  0.25532800  0.39629200  1
  Na  Na19  1  0.92904800  0.73097100  0.75000000  1
  Na  Na20  1  0.48124900  0.99021000  0.61248400  1
  Na  Na21  1  0.51699900  0.70852800  0.75000000  1
  Na  Na22  1  0.22356900  0.73735000  0.63774500  1
  Na  Na23  1  0.22236600  0.99325400  0.49596000  1
  Na  Na24  1  0.51875100  0.00979000  0.38751600  1
  Na  Na25  1  0.74225500  0.74467200  0.89629200  1
  Na  Na26  1  0.01875100  0.49021000  0.88751600  1
  Na  Na27  1  0.25774500  0.25532800  0.10370800  1
  Na  Na28  1  0.74225500  0.74467200  0.60370800  1
  Na  Na29  1  0.42904800  0.76902900  0.25000000  1
  Na  Na30  1  0.07095200  0.26902900  0.25000000  1
  Na  Na31  1  0.98124900  0.50979000  0.11248400  1
  Na  Na32  1  0.98300100  0.20852800  0.75000000  1
  Na  Na33  1  0.77643100  0.26265000  0.13774500  1
  Na  Na34  1  0.22356900  0.73735000  0.86225500  1
  Na  Na35  1  0.24225500  0.75532800  0.10370800  1
  Na  Na36  1  0.48124900  0.99021000  0.88751600  1
  Na  Na37  1  0.22236600  0.99325400  0.00404000  1
  Na  Na38  1  0.27763400  0.49325400  0.49596000  1
  Na  Na39  1  0.01699900  0.79147200  0.25000000  1
  Li  Li0  1  0.00235800  0.98734800  0.86013400  1
  Li  Li1  1  0.99764200  0.01265200  0.13986600  1
  Li  Li2  1  0.00235800  0.98734800  0.63986600  1
  Li  Li3  1  0.50235800  0.51265200  0.13986600  1
  Li  Li4  1  0.49764200  0.48734800  0.86013400  1
  Li  Li5  1  0.49764200  0.48734800  0.63986600  1
  Li  Li6  1  0.99764200  0.01265200  0.36013400  1
  Li  Li7  1  0.50235800  0.51265200  0.36013400  1
  Mn  Mn0  1  0.49389300  0.74798200  0.49943200  1
  Mn  Mn1  1  0.50610700  0.25201800  0.99943200  1
  Mn  Mn2  1  0.49389300  0.74798200  0.00056800  1
  Mn  Mn3  1  0.25427000  0.02068200  0.25000000  1
  Mn  Mn4  1  0.22876500  0.49282100  0.75000000  1
  Mn  Mn5  1  0.50610700  0.25201800  0.50056800  1
  Mn  Mn6  1  0.00610700  0.24798200  0.00056800  1
  Mn  Mn7  1  0.00610700  0.24798200  0.49943200  1
  Mn  Mn8  1  0.75427000  0.47931800  0.75000000  1
  Mn  Mn9  1  0.27123500  0.99282100  0.75000000  1
  Mn  Mn10  1  0.99389300  0.75201800  0.99943200  1
  Mn  Mn11  1  0.24573000  0.52068200  0.25000000  1
  Mn  Mn12  1  0.74573000  0.97931800  0.75000000  1
  Mn  Mn13  1  0.77123500  0.50717900  0.25000000  1
  Mn  Mn14  1  0.72876500  0.00717900  0.25000000  1
  Mn  Mn15  1  0.99389300  0.75201800  0.50056800  1
  O  O0  1  0.11494600  0.61021000  0.75000000  1
  O  O1  1  0.68328200  0.04731000  0.84247500  1
  O  O2  1  0.61494600  0.88979000  0.25000000  1
  O  O3  1  0.11183700  0.64042400  0.98798600  1
  O  O4  1  0.44963800  0.36341300  0.07171300  1
  O  O5  1  0.94963800  0.13658700  0.57171300  1
  O  O6  1  0.45931500  0.68086300  0.39932800  1
  O  O7  1  0.28856600  0.18034400  0.25000000  1
  O  O8  1  0.61183700  0.85957600  0.48798600  1
  O  O9  1  0.38505400  0.11021000  0.75000000  1
  O  O10  1  0.86087700  0.67645100  0.46410400  1
  O  O11  1  0.81581600  0.98785700  0.15561100  1
  O  O12  1  0.05036200  0.86341300  0.07171300  1
  O  O13  1  0.81671800  0.54731000  0.84247500  1
  O  O14  1  0.18328200  0.45269000  0.15752500  1
  O  O15  1  0.31671800  0.95269000  0.15752500  1
  O  O16  1  0.13912300  0.32354900  0.53589600  1
  O  O17  1  0.34704500  0.84948300  0.75000000  1
  O  O18  1  0.63912300  0.17645100  0.03589600  1
  O  O19  1  0.13912300  0.32354900  0.96410400  1
  O  O20  1  0.81671800  0.54731000  0.65752500  1
  O  O21  1  0.05036200  0.86341300  0.42828700  1
  O  O22  1  0.55036200  0.63658700  0.92828700  1
  O  O23  1  0.31671800  0.95269000  0.34247500  1
  O  O24  1  0.68418400  0.48785700  0.15561100  1
  O  O25  1  0.55036200  0.63658700  0.57171300  1
  O  O26  1  0.84704500  0.65051700  0.25000000  1
  O  O27  1  0.90878500  0.99846400  0.75000000  1
  O  O28  1  0.45931500  0.68086300  0.10067200  1
  O  O29  1  0.04068500  0.18086300  0.39932800  1
  O  O30  1  0.94963800  0.13658700  0.92828700  1
  O  O31  1  0.71143400  0.81965600  0.75000000  1
  O  O32  1  0.11183700  0.64042400  0.51201400  1
  O  O33  1  0.68328200  0.04731000  0.65752500  1
  O  O34  1  0.88816300  0.35957600  0.48798600  1
  O  O35  1  0.38816300  0.14042400  0.51201400  1
  O  O36  1  0.88816300  0.35957600  0.01201400  1
  O  O37  1  0.59121500  0.49846400  0.75000000  1
  O  O38  1  0.95931500  0.81913700  0.60067200  1
  O  O39  1  0.04068500  0.18086300  0.10067200  1
  O  O40  1  0.78856600  0.31965600  0.75000000  1
  O  O41  1  0.18418400  0.01214300  0.84438900  1
  O  O42  1  0.88505400  0.38979000  0.25000000  1
  O  O43  1  0.40878500  0.50153600  0.25000000  1
  O  O44  1  0.36087700  0.82354900  0.96410400  1
  O  O45  1  0.95931500  0.81913700  0.89932800  1
  O  O46  1  0.81581600  0.98785700  0.34438900  1
  O  O47  1  0.65295500  0.15051700  0.25000000  1
  O  O48  1  0.68418400  0.48785700  0.34438900  1
  O  O49  1  0.54068500  0.31913700  0.60067200  1
  O  O50  1  0.63912300  0.17645100  0.46410400  1
  O  O51  1  0.15295500  0.34948300  0.75000000  1
  O  O52  1  0.18328200  0.45269000  0.34247500  1
  O  O53  1  0.36087700  0.82354900  0.53589600  1
  O  O54  1  0.86087700  0.67645100  0.03589600  1
  O  O55  1  0.54068500  0.31913700  0.89932800  1
  O  O56  1  0.44963800  0.36341300  0.42828700  1
  O  O57  1  0.61183700  0.85957600  0.01201400  1
  O  O58  1  0.18418400  0.01214300  0.65561100  1
  O  O59  1  0.21143400  0.68034400  0.25000000  1
  O  O60  1  0.09121500  0.00153600  0.25000000  1
  O  O61  1  0.38816300  0.14042400  0.98798600  1
  O  O62  1  0.31581600  0.51214300  0.84438900  1
  O  O63  1  0.31581600  0.51214300  0.65561100  1
loop_
_geom_bond_atom_site_label_1
_geom_bond_atom_site_label_2
_geom_bond_distance
_geom_bond_site_symmetry_2
Na0 O8 2.359934 1_545
Na0 O50 2.399439 1_555
Na0 O46 2.469846 1_545
Na0 O5 2.502384 1_555
Na0 O33 2.574768 1_555
Na1 O30 2.379733 1_555
Na1 O1 2.383491 1_555
Na1 O40 2.385709 1_555
Na1 O55 2.425869 1_555
Na1 O36 2.546592 1_556
Na1 O18 2.569859 1_556
Na2 O47 2.337410 1_555
Na2 O43 2.364396 1_555
Na2 O7 2.368773 1_555
Na2 O56 2.839391 1_555
Na2 O4 2.839391 1_555
Na3 O10 2.311209 1_555
Na3 O26 2.456551 1_555
Na3 O2 2.460661 1_555
Na3 O8 2.471830 1_555
Na3 O46 2.596611 1_555
Na4 O21 2.379733 1_555
Na4 O23 2.383491 1_555
Na4 O59 2.385709 1_555
Na4 O6 2.425869 1_555
Na4 O32 2.546592 1_555
Na4 O53 2.569859 1_555
Na5 O16 2.311209 1_555
Na5 O51 2.456551 1_555
Na5 O9 2.460661 1_555
Na5 O35 2.471830 1_555
Na5 O58 2.596611 1_555
Na6 O36 2.359934 1_556
Na6 O54 2.399439 1_556
Na6 O24 2.469846 1_556
Na6 O22 2.502384 1_555
Na6 O13 2.574768 1_555
Na7 O3 2.359934 1_554
Na7 O19 2.399439 1_554
Na7 O62 2.469846 1_554
Na7 O4 2.502384 1_555
Na7 O14 2.574768 1_555
Na8 O34 2.359934 1_555
Na8 O10 2.399439 1_555
Na8 O48 2.469846 1_555
Na8 O25 2.502384 1_555
Na8 O20 2.574768 1_555
Na9 O9 2.345347 1_555
Na9 O55 2.477497 1_555
Na9 O49 2.477497 1_555
Na9 O40 2.484186 1_555
Na9 O1 2.681444 1_555
Na9 O33 2.681444 1_555
Na9 O37 2.848521 1_555
Na10 O19 2.311209 1_555
Na10 O51 2.456551 1_555
Na10 O9 2.460661 1_555
Na10 O61 2.471830 1_555
Na10 O41 2.596611 1_555
Na11 O15 2.322009 1_545
Na11 O57 2.418003 1_545
Na11 O18 2.471030 1_555
Na11 O2 2.651726 1_545
Na11 O61 2.722749 1_554
Na11 O47 2.935679 1_555
Na12 O52 2.322009 1_655
Na12 O34 2.418003 1_555
Na12 O10 2.471030 1_555
Na12 O42 2.651726 1_555
Na12 O32 2.722749 1_655
Na12 O26 2.935679 1_555
Na13 O5 2.379733 1_555
Na13 O33 2.383491 1_555
Na13 O40 2.385709 1_555
Na13 O49 2.425869 1_555
Na13 O34 2.546592 1_555
Na13 O50 2.569859 1_555
Na14 O57 2.359934 1_546
Na14 O18 2.399439 1_556
Na14 O11 2.469846 1_546
Na14 O30 2.502384 1_555
Na14 O1 2.574768 1_555
Na15 O54 2.311209 1_555
Na15 O26 2.456551 1_555
Na15 O2 2.460661 1_555
Na15 O57 2.471830 1_555
Na15 O11 2.596611 1_555
Na16 O50 2.311209 1_555
Na16 O47 2.456551 1_555
Na16 O42 2.460661 1_555
Na16 O34 2.471830 1_555
Na16 O48 2.596611 1_555
Na17 O20 2.322009 1_455
Na17 O32 2.418003 1_555
Na17 O16 2.471030 1_555
Na17 O0 2.651726 1_555
Na17 O34 2.722749 1_455
Na17 O51 2.935679 1_555
Na18 O56 2.379733 1_555
Na18 O52 2.383491 1_555
Na18 O7 2.385709 1_555
Na18 O29 2.425869 1_555
Na18 O35 2.546592 1_555
Na18 O16 2.569859 1_555
Na19 O0 2.345347 1_655
Na19 O45 2.477497 1_555
Na19 O38 2.477497 1_555
Na19 O31 2.484186 1_555
Na19 O13 2.681444 1_555
Na19 O20 2.681444 1_555
Na19 O27 2.848521 1_555
Na20 O33 2.322009 1_565
Na20 O35 2.418003 1_565
Na20 O53 2.471030 1_555
Na20 O9 2.651726 1_565
Na20 O8 2.722749 1_555
Na20 O17 2.935679 1_555
Na21 O17 2.337410 1_555
Na21 O37 2.364396 1_555
Na21 O31 2.368773 1_555
Na21 O25 2.839391 1_555
Na21 O22 2.839391 1_555
Na22 O53 2.311209 1_555
Na22 O17 2.456551 1_555
Na22 O0 2.460661 1_555
Na22 O32 2.471830 1_555
Na22 O63 2.596611 1_555
Na23 O35 2.359934 1_565
Na23 O53 2.399439 1_555
Na23 O58 2.469846 1_565
Na23 O21 2.502384 1_555
Na23 O23 2.574768 1_555
Na24 O23 2.322009 1_545
Na24 O8 2.418003 1_545
Na24 O50 2.471030 1_555
Na24 O2 2.651726 1_545
Na24 O35 2.722749 1_555
Na24 O47 2.935679 1_555
Na25 O22 2.379733 1_555
Na25 O13 2.383491 1_555
Na25 O31 2.385709 1_555
Na25 O45 2.425869 1_555
Na25 O57 2.546592 1_556
Na25 O54 2.569859 1_556
Na26 O13 2.322009 1_455
Na26 O3 2.418003 1_555
Na26 O19 2.471030 1_555
Na26 O0 2.651726 1_555
Na26 O36 2.722749 1_456
Na26 O51 2.935679 1_555
Na27 O4 2.379733 1_555
Na27 O14 2.383491 1_555
Na27 O7 2.385709 1_555
Na27 O39 2.425869 1_555
Na27 O61 2.546592 1_554
Na27 O19 2.569859 1_554
Na28 O25 2.379733 1_555
Na28 O20 2.383491 1_555
Na28 O31 2.385709 1_555
Na28 O38 2.425869 1_555
Na28 O8 2.546592 1_555
Na28 O10 2.569859 1_555
Na29 O2 2.345347 1_555
Na29 O6 2.477497 1_555
Na29 O28 2.477497 1_555
Na29 O59 2.484186 1_555
Na29 O23 2.681444 1_555
Na29 O15 2.681444 1_555
Na29 O43 2.848521 1_555
Na30 O42 2.345347 1_455
Na30 O29 2.477497 1_555
Na30 O39 2.477497 1_555
Na30 O7 2.484186 1_555
Na30 O52 2.681444 1_555
Na30 O14 2.681444 1_555
Na30 O60 2.848521 1_555
Na31 O14 2.322009 1_655
Na31 O36 2.418003 1_555
Na31 O54 2.471030 1_555
Na31 O42 2.651726 1_555
Na31 O3 2.722749 1_654
Na31 O26 2.935679 1_555
Na32 O51 2.337410 1_655
Na32 O27 2.364396 1_545
Na32 O40 2.368773 1_555
Na32 O5 2.839391 1_555
Na32 O30 2.839391 1_555
Na33 O18 2.311209 1_555
Na33 O47 2.456551 1_555
Na33 O42 2.460661 1_555
Na33 O36 2.471830 1_555
Na33 O24 2.596611 1_555
Na34 O44 2.311209 1_555
Na34 O17 2.456551 1_555
Na34 O0 2.460661 1_555
Na34 O3 2.471830 1_555
Na34 O62 2.596611 1_555
Na35 O12 2.379733 1_555
Na35 O15 2.383491 1_555
Na35 O59 2.385709 1_555
Na35 O28 2.425869 1_555
Na35 O3 2.546592 1_554
Na35 O44 2.569859 1_554
Na36 O1 2.322009 1_565
Na36 O61 2.418003 1_565
Na36 O44 2.471030 1_555
Na36 O9 2.651726 1_565
Na36 O57 2.722749 1_556
Na36 O17 2.935679 1_555
Na37 O61 2.359934 1_564
Na37 O44 2.399439 1_554
Na37 O41 2.469846 1_564
Na37 O12 2.502384 1_555
Na37 O15 2.574768 1_555
Na38 O32 2.359934 1_555
Na38 O16 2.399439 1_555
Na38 O63 2.469846 1_555
Na38 O56 2.502384 1_555
Na38 O52 2.574768 1_555
Na39 O26 2.337410 1_455
Na39 O60 2.364396 1_565
Na39 O59 2.368773 1_555
Na39 O21 2.839391 1_555
Na39 O12 2.839391 1_555
Li0 O45 1.937187 1_455
Li0 O27 1.948684 1_455
Li0 O41 1.953418 1_565
Li0 O30 1.973888 1_465
Li1 O39 1.937187 1_655
Li1 O60 1.948684 1_655
Li1 O11 1.953418 1_545
Li1 O12 1.973888 1_645
Li2 O38 1.937187 1_455
Li2 O27 1.948684 1_455
Li2 O58 1.953418 1_565
Li2 O5 1.973888 1_465
Li3 O28 1.937187 1_555
Li3 O43 1.948684 1_555
Li3 O24 1.953418 1_555
Li3 O4 1.973888 1_555
Li4 O55 1.937187 1_555
Li4 O37 1.948684 1_555
Li4 O62 1.953418 1_555
Li4 O22 1.973888 1_555
Li5 O49 1.937187 1_555
Li5 O37 1.948684 1_555
Li5 O63 1.953418 1_555
Li5 O25 1.973888 1_555
Li6 O29 1.937187 1_655
Li6 O60 1.948684 1_655
Li6 O46 1.953418 1_545
Li6 O21 1.973888 1_645
Li7 O6 1.937187 1_555
Li7 O43 1.948684 1_555
Li7 O48 1.953418 1_555
Li7 O56 1.973888 1_555
Mn0 O53 1.710521 1_555
Mn0 O6 1.720436 1_555
Mn0 O25 1.721581 1_555
Mn0 O8 1.728238 1_555
Mn1 O18 1.710521 1_556
Mn1 O55 1.720436 1_555
Mn1 O4 1.721581 1_556
Mn1 O61 1.728238 1_555
Mn2 O44 1.710521 1_554
Mn2 O28 1.720436 1_555
Mn2 O22 1.721581 1_554
Mn2 O57 1.728238 1_555
Mn3 O23 1.713191 1_545
Mn3 O15 1.713191 1_545
Mn3 O7 1.733702 1_555
Mn3 O60 1.734389 1_555
Mn4 O62 1.717272 1_555
Mn4 O63 1.717272 1_555
Mn4 O51 1.719899 1_555
Mn4 O0 1.731890 1_555
Mn5 O50 1.710521 1_555
Mn5 O49 1.720436 1_555
Mn5 O56 1.721581 1_555
Mn5 O35 1.728238 1_555
Mn6 O19 1.710521 1_554
Mn6 O39 1.720436 1_555
Mn6 O30 1.721581 1_454
Mn6 O36 1.728238 1_455
Mn7 O16 1.710521 1_555
Mn7 O29 1.720436 1_555
Mn7 O5 1.721581 1_455
Mn7 O34 1.728238 1_455
Mn8 O13 1.713191 1_555
Mn8 O20 1.713191 1_555
Mn8 O40 1.733702 1_555
Mn8 O37 1.734389 1_555
Mn9 O41 1.717272 1_565
Mn9 O58 1.717272 1_565
Mn9 O17 1.719899 1_555
Mn9 O9 1.731890 1_565
Mn10 O54 1.710521 1_556
Mn10 O45 1.720436 1_555
Mn10 O12 1.721581 1_656
Mn10 O3 1.728238 1_655
Mn11 O52 1.713191 1_555
Mn11 O14 1.713191 1_555
Mn11 O59 1.733702 1_555
Mn11 O43 1.734389 1_555
Mn12 O1 1.713191 1_565
Mn12 O33 1.713191 1_565
Mn12 O31 1.733702 1_555
Mn12 O27 1.734389 1_555
Mn13 O24 1.717272 1_555
Mn13 O48 1.717272 1_555
Mn13 O26 1.719899 1_555
Mn13 O42 1.731890 1_555
Mn14 O11 1.717272 1_545
Mn14 O46 1.717272 1_545
Mn14 O47 1.719899 1_555
Mn14 O2 1.731890 1_545
Mn15 O10 1.710521 1_555
Mn15 O38 1.720436 1_555
Mn15 O21 1.721581 1_655
Mn15 O32 1.728238 1_655
