# generated using pymatgen
data_KMnF3
_symmetry_space_group_name_H-M   'P 1'
_cell_length_a   5.90810512
_cell_length_b   5.90810512
_cell_length_c   8.37649173
_cell_angle_alpha   90.00000000
_cell_angle_beta   90.00000000
_cell_angle_gamma   90.00000000
_symmetry_Int_Tables_number   1
_chemical_formula_structural   KMnF3
_chemical_formula_sum   'K4 Mn4 F12'
_cell_volume   292.38735855
_cell_formula_units_Z   4
loop_
 _symmetry_equiv_pos_site_id
 _symmetry_equiv_pos_as_xyz
  1  'x, y, z'
loop_
 _atom_site_type_symbol
 _atom_site_label
 _atom_site_symmetry_multiplicity
 _atom_site_fract_x
 _atom_site_fract_y
 _atom_site_fract_z
 _atom_site_occupancy
  K  K0  1  -0.00000000  0.50000000  0.24811092  1
  K  K1  1  0.50000000  -0.00000000  0.75188908  1
  K  K2  1  -0.00000000  0.50000000  0.75188908  1
  K  K3  1  0.50000000  -0.00000000  0.24811092  1
  Mn  Mn0  1  0.50000000  0.50000000  0.50000000  1
  Mn  Mn1  1  -0.00000000  -0.00000000  0.00000000  1
  Mn  Mn2  1  -0.00000000  -0.00000000  0.50000000  1
  Mn  Mn3  1  0.50000000  0.50000000  0.00000000  1
  F  F0  1  0.22568387  0.27431613  0.50000000  1
  F  F1  1  0.24988767  0.74988767  0.00000000  1
  F  F2  1  -0.00000000  -0.00000000  0.24998208  1
  F  F3  1  -0.00000000  -0.00000000  0.75001792  1
  F  F4  1  0.75011233  0.25011233  0.00000000  1
  F  F5  1  0.25011233  0.24988767  0.00000000  1
  F  F6  1  0.27431613  0.77431613  0.50000000  1
  F  F7  1  0.77431613  0.72568387  0.50000000  1
  F  F8  1  0.72568387  0.22568387  0.50000000  1
  F  F9  1  0.50000000  0.50000000  0.24998208  1
  F  F10  1  0.74988767  0.75011233  0.00000000  1
  F  F11  1  0.50000000  0.50000000  0.75001792  1
loop_
_geom_bond_atom_site_label_1
_geom_bond_atom_site_label_2
_geom_bond_distance
_geom_bond_site_symmetry_2
F0 Mn0 2.098688 1_555
F0 Mn2 2.098688 1_555
F0 K0 2.829769 1_555
F0 K2 2.829769 1_555
F0 K3 3.115307 1_555
F0 K1 3.115307 1_555
F1 Mn1 2.088831 1_565
F1 Mn3 2.088831 1_555
F1 K0 2.945950 1_555
F1 K2 2.945950 1_554
F1 K3 2.947280 1_565
F1 K1 2.947280 1_564
F2 Mn1 2.093973 1_555
F2 Mn2 2.094273 1_555
F2 K0 2.954094 1_555
F2 K3 2.954094 1_555
F2 K0 2.954094 1_545
F2 K3 2.954094 1_455
F3 Mn1 2.093973 1_556
F3 Mn2 2.094273 1_555
F3 K2 2.954094 1_555
F3 K2 2.954094 1_545
F3 K1 2.954094 1_455
F3 K1 2.954094 1_555
F4 Mn3 2.088831 1_555
F4 Mn1 2.088831 1_655
F4 K0 2.945950 1_655
F4 K2 2.945950 1_654
F4 K3 2.947280 1_555
F4 K1 2.947280 1_554
F5 Mn3 2.088831 1_555
F5 Mn1 2.088831 1_555
F5 K3 2.945950 1_555
F5 K1 2.945950 1_554
F5 K0 2.947280 1_555
F5 K2 2.947280 1_554
F6 Mn2 2.098688 1_565
F6 Mn0 2.098688 1_555
F6 K3 2.829769 1_565
F6 K1 2.829769 1_565
F6 K0 3.115307 1_555
F6 K2 3.115307 1_555
F7 Mn0 2.098688 1_555
F7 Mn2 2.098688 1_665
F7 K2 2.829769 1_655
F7 K0 2.829769 1_655
F7 K3 3.115307 1_565
F7 K1 3.115307 1_565
F8 Mn0 2.098688 1_555
F8 Mn2 2.098688 1_655
F8 K3 2.829769 1_555
F8 K1 2.829769 1_555
F8 K2 3.115307 1_655
F8 K0 3.115307 1_655
F9 Mn3 2.093973 1_555
F9 Mn0 2.094273 1_555
F9 K0 2.954094 1_555
F9 K3 2.954094 1_565
F9 K3 2.954094 1_555
F9 K0 2.954094 1_655
F10 Mn3 2.088831 1_555
F10 Mn1 2.088831 1_665
F10 K3 2.945950 1_565
F10 K1 2.945950 1_564
F10 K2 2.947280 1_654
F10 K0 2.947280 1_655
F11 Mn3 2.093973 1_556
F11 Mn0 2.094273 1_555
F11 K1 2.954094 1_565
F11 K2 2.954094 1_555
F11 K2 2.954094 1_655
F11 K1 2.954094 1_555
