# generated using pymatgen
data_PrSClO4
_symmetry_space_group_name_H-M   'P 1'
_cell_length_a   8.14617400
_cell_length_b   6.76942400
_cell_length_c   8.68660357
_cell_angle_alpha   66.07697905
_cell_angle_beta   90.00000000
_cell_angle_gamma   90.00000000
_symmetry_Int_Tables_number   1
_chemical_formula_structural   PrSClO4
_chemical_formula_sum   'Pr4 S4 Cl4 O16'
_cell_volume   437.86968721
_cell_formula_units_Z   4
loop_
 _symmetry_equiv_pos_site_id
 _symmetry_equiv_pos_as_xyz
  1  'x, y, z'
loop_
 _atom_site_type_symbol
 _atom_site_label
 _atom_site_symmetry_multiplicity
 _atom_site_fract_x
 _atom_site_fract_y
 _atom_site_fract_z
 _atom_site_occupancy
  Pr  Pr0  1  0.30796500  0.38230900  0.72929900  1
  Pr  Pr1  1  0.69203500  0.61769100  0.27070100  1
  Pr  Pr2  1  0.19203500  0.38230900  0.22929900  1
  Pr  Pr3  1  0.80796500  0.61769100  0.77070100  1
  S  S0  1  0.58121000  0.22287100  0.06787800  1
  S  S1  1  0.41879000  0.77712900  0.93212200  1
  S  S2  1  0.08121000  0.77712900  0.43212200  1
  S  S3  1  0.91879000  0.22287100  0.56787800  1
  Cl  Cl0  1  0.46321300  0.27347200  0.46972400  1
  Cl  Cl1  1  0.03678700  0.27347200  0.96972400  1
  Cl  Cl2  1  0.96321300  0.72652800  0.03027600  1
  Cl  Cl3  1  0.53678700  0.72652800  0.53027600  1
  O  O0  1  0.15109000  0.99491800  0.37091300  1
  O  O1  1  0.68306700  0.36547600  0.12219700  1
  O  O2  1  0.84891000  0.00508200  0.62908700  1
  O  O3  1  0.91363900  0.32622300  0.37625600  1
  O  O4  1  0.09296800  0.21635600  0.61849200  1
  O  O5  1  0.81693300  0.36547600  0.62219700  1
  O  O6  1  0.58636100  0.32622300  0.87625600  1
  O  O7  1  0.18306700  0.63452400  0.37780300  1
  O  O8  1  0.34891000  0.99491800  0.87091300  1
  O  O9  1  0.40703200  0.21635600  0.11849200  1
  O  O10  1  0.59296800  0.78364400  0.88150800  1
  O  O11  1  0.65109000  0.00508200  0.12908700  1
  O  O12  1  0.08636100  0.67377700  0.62374400  1
  O  O13  1  0.31693300  0.63452400  0.87780300  1
  O  O14  1  0.41363900  0.67377700  0.12374400  1
  O  O15  1  0.90703200  0.78364400  0.38150800  1
loop_
_geom_bond_atom_site_label_1
_geom_bond_atom_site_label_2
_geom_bond_distance
_geom_bond_site_symmetry_2
Cl0 Pr2 2.921745 1_555
Cl0 Pr0 2.928103 1_555
Cl0 Pr1 2.936998 1_555
Cl1 Pr0 2.921745 1_555
Cl1 Pr2 2.928103 1_556
Cl1 Pr3 2.936998 1_455
Cl2 Pr1 2.921745 1_555
Cl2 Pr3 2.928103 1_554
Cl2 Pr2 2.936998 1_655
Cl3 Pr3 2.921745 1_555
Cl3 Pr1 2.928103 1_555
Cl3 Pr0 2.936998 1_555
O0 S2 1.464441 1_555
O0 Pr2 2.425956 1_565
O1 S0 1.487428 1_555
O1 Pr1 2.524028 1_555
O2 S3 1.464441 1_555
O2 Pr3 2.425956 1_545
O3 S3 1.522323 1_555
O3 Pr2 2.554187 1_655
O3 Pr1 2.554473 1_555
O4 S3 1.480796 1_455
O4 Pr0 2.476469 1_555
O5 S3 1.487428 1_555
O5 Pr3 2.524028 1_555
O6 S0 1.522323 1_556
O6 Pr0 2.554187 1_555
O6 Pr3 2.554473 1_555
O7 S2 1.487428 1_555
O7 Pr2 2.524028 1_555
O8 S1 1.464441 1_555
O8 Pr0 2.425956 1_565
O9 S0 1.480796 1_555
O9 Pr2 2.476469 1_555
O10 S1 1.480796 1_555
O10 Pr3 2.476469 1_555
O11 S0 1.464441 1_555
O11 Pr1 2.425956 1_545
O12 S2 1.522323 1_555
O12 Pr3 2.554187 1_455
O12 Pr0 2.554473 1_555
O13 S1 1.487428 1_555
O13 Pr0 2.524028 1_555
O14 S1 1.522323 1_554
O14 Pr1 2.554187 1_555
O14 Pr2 2.554473 1_555
O15 S2 1.480796 1_655
O15 Pr1 2.476469 1_555
