# generated using pymatgen
data_Rb4U5O17
_symmetry_space_group_name_H-M   'P 1'
_cell_length_a   7.09497200
_cell_length_b   14.58358800
_cell_length_c   18.86611200
_cell_angle_alpha   90.00000000
_cell_angle_beta   90.00000000
_cell_angle_gamma   90.00000000
_symmetry_Int_Tables_number   1
_chemical_formula_structural   Rb4U5O17
_chemical_formula_sum   'Rb16 U20 O68'
_cell_volume   1952.07941063
_cell_formula_units_Z   4
loop_
 _symmetry_equiv_pos_site_id
 _symmetry_equiv_pos_as_xyz
  1  'x, y, z'
loop_
 _atom_site_type_symbol
 _atom_site_label
 _atom_site_symmetry_multiplicity
 _atom_site_fract_x
 _atom_site_fract_y
 _atom_site_fract_z
 _atom_site_occupancy
  Rb  Rb0  1  0.76790800  0.52740400  0.05475800  1
  Rb  Rb1  1  0.20444900  0.05976200  0.31025700  1
  Rb  Rb2  1  0.70444900  0.44023800  0.81025700  1
  Rb  Rb3  1  0.76790800  0.97259600  0.94524200  1
  Rb  Rb4  1  0.26790800  0.52740400  0.44524200  1
  Rb  Rb5  1  0.79555100  0.94023800  0.68974300  1
  Rb  Rb6  1  0.29555100  0.55976200  0.18974300  1
  Rb  Rb7  1  0.70444900  0.05976200  0.18974300  1
  Rb  Rb8  1  0.29555100  0.94023800  0.81025700  1
  Rb  Rb9  1  0.79555100  0.55976200  0.31025700  1
  Rb  Rb10  1  0.73209200  0.02740400  0.44524200  1
  Rb  Rb11  1  0.73209200  0.47259600  0.55475800  1
  Rb  Rb12  1  0.23209200  0.02740400  0.05475800  1
  Rb  Rb13  1  0.23209200  0.47259600  0.94524200  1
  Rb  Rb14  1  0.20444900  0.44023800  0.68974300  1
  Rb  Rb15  1  0.26790800  0.97259600  0.55475800  1
  U  U0  1  0.02566100  0.81780200  0.18865300  1
  U  U1  1  0.07538600  0.70645600  0.60264100  1
  U  U2  1  0.62548800  0.75000000  0.50000000  1
  U  U3  1  0.52566100  0.68219800  0.68865300  1
  U  U4  1  0.92461400  0.20645600  0.60264100  1
  U  U5  1  0.02566100  0.68219800  0.81134700  1
  U  U6  1  0.42461400  0.29354400  0.10264100  1
  U  U7  1  0.97433900  0.18219800  0.81134700  1
  U  U8  1  0.42461400  0.20645600  0.89735900  1
  U  U9  1  0.57538600  0.70645600  0.89735900  1
  U  U10  1  0.57538600  0.79354400  0.10264100  1
  U  U11  1  0.37451200  0.25000000  0.50000000  1
  U  U12  1  0.12548800  0.75000000  0.00000000  1
  U  U13  1  0.47433900  0.31780200  0.31134700  1
  U  U14  1  0.52566100  0.81780200  0.31134700  1
  U  U15  1  0.87451200  0.25000000  0.00000000  1
  U  U16  1  0.47433900  0.18219800  0.68865300  1
  U  U17  1  0.97433900  0.31780200  0.18865300  1
  U  U18  1  0.07538600  0.79354400  0.39735900  1
  U  U19  1  0.92461400  0.29354400  0.39735900  1
  O  O0  1  0.29596000  0.33422800  0.20975600  1
  O  O1  1  0.56950900  0.91819800  0.07800600  1
  O  O2  1  0.99503900  0.30557800  0.78983700  1
  O  O3  1  0.49503900  0.30557800  0.71016300  1
  O  O4  1  0.12543000  0.62992800  0.03199800  1
  O  O5  1  0.61004200  0.29054200  0.42006200  1
  O  O6  1  0.37457000  0.12992800  0.46800200  1
  O  O7  1  0.45687400  0.44497400  0.32356500  1
  O  O8  1  0.38995800  0.70945800  0.57993800  1
  O  O9  1  0.58476600  0.67052000  0.12853500  1
  O  O10  1  0.26105600  0.79578200  0.11558600  1
  O  O11  1  0.43049100  0.41819800  0.07800600  1
  O  O12  1  0.54312600  0.94497400  0.32356500  1
  O  O13  1  0.88995800  0.70945800  0.92006200  1
  O  O14  1  0.03996200  0.25000000  0.50000000  1
  O  O15  1  0.91523400  0.32948000  0.62853500  1
  O  O16  1  0.95687400  0.05502600  0.82356500  1
  O  O17  1  0.20404000  0.83422800  0.29024400  1
  O  O18  1  0.38995800  0.79054200  0.42006200  1
  O  O19  1  0.61004200  0.20945800  0.57993800  1
  O  O20  1  0.87457000  0.37007200  0.96800200  1
  O  O21  1  0.37457000  0.37007200  0.53199800  1
  O  O22  1  0.06950900  0.58180200  0.57800600  1
  O  O23  1  0.53996200  0.25000000  0.00000000  1
  O  O24  1  0.76105600  0.70421800  0.61558600  1
  O  O25  1  0.11004200  0.29054200  0.07993800  1
  O  O26  1  0.23894400  0.20421800  0.61558600  1
  O  O27  1  0.20404000  0.66577200  0.70975600  1
  O  O28  1  0.49503900  0.19442200  0.28983700  1
  O  O29  1  0.56950900  0.58180200  0.92199400  1
  O  O30  1  0.54312600  0.55502600  0.67643500  1
  O  O31  1  0.23894400  0.29578200  0.38441400  1
  O  O32  1  0.79596000  0.16577200  0.70975600  1
  O  O33  1  0.93049100  0.08180200  0.57800600  1
  O  O34  1  0.95687400  0.44497400  0.17643500  1
  O  O35  1  0.08476600  0.67052000  0.37146500  1
  O  O36  1  0.26105600  0.70421800  0.88441400  1
  O  O37  1  0.00496100  0.80557800  0.78983700  1
  O  O38  1  0.91523400  0.17052000  0.37146500  1
  O  O39  1  0.04312600  0.94497400  0.17643500  1
  O  O40  1  0.76105600  0.79578200  0.38441400  1
  O  O41  1  0.99503900  0.19442200  0.21016300  1
  O  O42  1  0.88995800  0.79054200  0.07993800  1
  O  O43  1  0.08476600  0.82948000  0.62853500  1
  O  O44  1  0.41523400  0.17052000  0.12853500  1
  O  O45  1  0.93049100  0.41819800  0.42199400  1
  O  O46  1  0.29596000  0.16577200  0.79024400  1
  O  O47  1  0.11004200  0.20945800  0.92006200  1
  O  O48  1  0.12543000  0.87007200  0.96800200  1
  O  O49  1  0.00496100  0.69442200  0.21016300  1
  O  O50  1  0.50496100  0.69442200  0.28983700  1
  O  O51  1  0.41523400  0.32948000  0.87146500  1
  O  O52  1  0.73894400  0.20421800  0.88441400  1
  O  O53  1  0.62543000  0.62992800  0.46800200  1
  O  O54  1  0.58476600  0.82948000  0.87146500  1
  O  O55  1  0.50496100  0.80557800  0.71016300  1
  O  O56  1  0.06950900  0.91819800  0.42199400  1
  O  O57  1  0.87457000  0.12992800  0.03199800  1
  O  O58  1  0.62543000  0.87007200  0.53199800  1
  O  O59  1  0.96003800  0.75000000  0.50000000  1
  O  O60  1  0.79596000  0.33422800  0.29024400  1
  O  O61  1  0.45687400  0.05502600  0.67643500  1
  O  O62  1  0.70404000  0.83422800  0.20975600  1
  O  O63  1  0.73894400  0.29578200  0.11558600  1
  O  O64  1  0.43049100  0.08180200  0.92199400  1
  O  O65  1  0.70404000  0.66577200  0.79024400  1
  O  O66  1  0.46003800  0.75000000  0.00000000  1
  O  O67  1  0.04312600  0.55502600  0.82356500  1
loop_
_geom_bond_atom_site_label_1
_geom_bond_atom_site_label_2
_geom_bond_distance
_geom_bond_site_symmetry_2
O0 U6 2.295438 1_555
O0 U13 2.309236 1_555
O0 U17 2.328717 1_455
O0 Rb6 3.310696 1_555
O1 U10 1.876837 1_555
O1 Rb12 2.908583 1_565
O1 Rb3 2.980690 1_554
O1 Rb7 3.102041 1_565
O2 U7 1.850355 1_555
O2 Rb2 2.873282 1_555
O2 Rb14 3.103238 1_655
O3 U16 1.850355 1_555
O3 Rb14 2.873282 1_555
O3 Rb2 3.103238 1_555
O4 U12 1.852218 1_555
O4 Rb13 2.918254 1_554
O4 Rb0 2.975616 1_455
O4 Rb6 3.370568 1_555
O5 U19 2.273029 1_555
O5 U13 2.300384 1_555
O5 U11 2.327338 1_555
O6 U11 1.852218 1_555
O6 Rb15 2.918254 1_545
O6 Rb10 2.975616 1_555
O6 Rb1 3.370568 1_555
O7 U13 1.872997 1_555
O7 Rb4 2.917577 1_555
O7 Rb9 2.939274 1_555
O7 Rb6 3.238291 1_555
O8 U1 2.273029 1_555
O8 U3 2.300384 1_555
O8 U2 2.327338 1_555
O9 U10 1.860642 1_555
O9 Rb0 2.825230 1_555
O9 Rb6 2.855360 1_555
O10 U0 2.189215 1_555
O10 U10 2.243732 1_555
O10 U12 2.475117 1_555
O11 U6 1.876837 1_555
O11 Rb0 2.908583 1_555
O11 Rb13 2.980690 1_554
O11 Rb6 3.102041 1_555
O12 U14 1.872997 1_555
O12 Rb10 2.917577 1_565
O12 Rb1 2.939274 1_565
O12 Rb7 3.238291 1_565
O13 U9 2.273029 1_555
O13 U5 2.300384 1_655
O13 U12 2.327338 1_656
O14 U4 2.196090 1_455
O14 U19 2.196090 1_455
O14 U11 2.373623 1_555
O15 U4 1.860642 1_555
O15 Rb11 2.825230 1_555
O15 Rb14 2.855360 1_655
O16 U7 1.872997 1_555
O16 Rb3 2.917577 1_545
O16 Rb8 2.939274 1_645
O16 Rb5 3.238291 1_545
O17 U18 2.295438 1_555
O17 U0 2.309236 1_555
O17 U14 2.328717 1_555
O17 Rb1 3.310696 1_565
O18 U18 2.273029 1_555
O18 U14 2.300384 1_555
O18 U2 2.327338 1_555
O19 U4 2.273029 1_555
O19 U16 2.300384 1_555
O19 U11 2.327338 1_555
O20 U15 1.852218 1_556
O20 Rb0 2.918254 1_556
O20 Rb13 2.975616 1_655
O20 Rb2 3.370568 1_555
O21 U11 1.852218 1_555
O21 Rb4 2.918254 1_555
O21 Rb11 2.975616 1_555
O21 Rb14 3.370568 1_555
O22 U1 1.876837 1_555
O22 Rb11 2.908583 1_455
O22 Rb4 2.980690 1_555
O22 Rb14 3.102041 1_555
O23 U6 2.196090 1_555
O23 U8 2.196090 1_554
O23 U15 2.373623 1_555
O24 U3 2.189215 1_555
O24 U1 2.243732 1_655
O24 U2 2.475117 1_555
O25 U6 2.273029 1_555
O25 U17 2.300384 1_455
O25 U15 2.327338 1_455
O26 U16 2.189215 1_555
O26 U4 2.243732 1_455
O26 U11 2.475117 1_555
O27 U1 2.295438 1_555
O27 U5 2.309236 1_555
O27 U3 2.328717 1_555
O27 Rb14 3.310696 1_555
O28 U13 1.850355 1_555
O28 Rb1 2.873282 1_555
O28 Rb7 3.103238 1_555
O29 U9 1.876837 1_555
O29 Rb13 2.908583 1_555
O29 Rb0 2.980690 1_556
O29 Rb2 3.102041 1_555
O30 U3 1.872997 1_555
O30 Rb11 2.917577 1_555
O30 Rb14 2.939274 1_555
O30 Rb2 3.238291 1_555
O31 U13 2.189215 1_555
O31 U19 2.243732 1_455
O31 U11 2.475117 1_555
O32 U4 2.295438 1_555
O32 U7 2.309236 1_555
O32 U16 2.328717 1_555
O32 Rb5 3.310696 1_545
O33 U4 1.876837 1_555
O33 Rb15 2.908583 1_645
O33 Rb10 2.980690 1_555
O33 Rb5 3.102041 1_545
O34 U17 1.872997 1_555
O34 Rb0 2.917577 1_555
O34 Rb6 2.939274 1_655
O34 Rb9 3.238291 1_555
O35 U18 1.860642 1_555
O35 Rb4 2.825230 1_555
O35 Rb9 2.855360 1_455
O36 U5 2.189215 1_555
O36 U9 2.243732 1_555
O36 U12 2.475117 1_556
O37 U5 1.850355 1_555
O37 Rb8 2.873282 1_555
O37 Rb5 3.103238 1_455
O38 U19 1.860642 1_555
O38 Rb10 2.825230 1_555
O38 Rb1 2.855360 1_655
O39 U0 1.872997 1_555
O39 Rb12 2.917577 1_565
O39 Rb7 2.939274 1_465
O39 Rb1 3.238291 1_565
O40 U14 2.189215 1_555
O40 U18 2.243732 1_655
O40 U2 2.475117 1_555
O41 U17 1.850355 1_555
O41 Rb7 2.873282 1_555
O41 Rb1 3.103238 1_655
O42 U10 2.273029 1_555
O42 U0 2.300384 1_655
O42 U12 2.327338 1_655
O43 U1 1.860642 1_555
O43 Rb15 2.825230 1_555
O43 Rb5 2.855360 1_455
O44 U6 1.860642 1_555
O44 Rb12 2.825230 1_555
O44 Rb7 2.855360 1_555
O45 U19 1.876837 1_555
O45 Rb4 2.908583 1_655
O45 Rb11 2.980690 1_555
O45 Rb9 3.102041 1_555
O46 U8 2.295438 1_555
O46 U16 2.309236 1_555
O46 U7 2.328717 1_455
O46 Rb8 3.310696 1_545
O47 U8 2.273029 1_555
O47 U7 2.300384 1_455
O47 U15 2.327338 1_456
O48 U12 1.852218 1_556
O48 Rb12 2.918254 1_566
O48 Rb3 2.975616 1_455
O48 Rb8 3.370568 1_555
O49 U0 1.850355 1_555
O49 Rb6 2.873282 1_555
O49 Rb9 3.103238 1_455
O50 U14 1.850355 1_555
O50 Rb9 2.873282 1_555
O50 Rb6 3.103238 1_555
O51 U8 1.860642 1_555
O51 Rb13 2.825230 1_555
O51 Rb2 2.855360 1_555
O52 U7 2.189215 1_555
O52 U8 2.243732 1_555
O52 U15 2.475117 1_556
O53 U2 1.852218 1_555
O53 Rb11 2.918254 1_555
O53 Rb4 2.975616 1_555
O53 Rb9 3.370568 1_555
O54 U9 1.860642 1_555
O54 Rb3 2.825230 1_555
O54 Rb8 2.855360 1_555
O55 U3 1.850355 1_555
O55 Rb5 2.873282 1_555
O55 Rb8 3.103238 1_555
O56 U18 1.876837 1_555
O56 Rb10 2.908583 1_465
O56 Rb15 2.980690 1_555
O56 Rb1 3.102041 1_565
O57 U15 1.852218 1_555
O57 Rb3 2.918254 1_544
O57 Rb12 2.975616 1_655
O57 Rb7 3.370568 1_555
O58 U2 1.852218 1_555
O58 Rb10 2.918254 1_565
O58 Rb15 2.975616 1_555
O58 Rb5 3.370568 1_555
O59 U1 2.196090 1_655
O59 U18 2.196090 1_655
O59 U2 2.373623 1_555
O60 U19 2.295438 1_555
O60 U17 2.309236 1_555
O60 U13 2.328717 1_555
O60 Rb9 3.310696 1_555
O61 U16 1.872997 1_555
O61 Rb15 2.917577 1_545
O61 Rb5 2.939274 1_545
O61 Rb8 3.238291 1_545
O62 U10 2.295438 1_555
O62 U14 2.309236 1_555
O62 U0 2.328717 1_655
O62 Rb7 3.310696 1_565
O63 U17 2.189215 1_555
O63 U6 2.243732 1_555
O63 U15 2.475117 1_555
O64 U8 1.876837 1_555
O64 Rb3 2.908583 1_545
O64 Rb12 2.980690 1_556
O64 Rb8 3.102041 1_545
O65 U9 2.295438 1_555
O65 U3 2.309236 1_555
O65 U5 2.328717 1_655
O65 Rb2 3.310696 1_555
O66 U10 2.196090 1_555
O66 U9 2.196090 1_554
O66 U12 2.373623 1_555
O67 U5 1.872997 1_555
O67 Rb13 2.917577 1_555
O67 Rb2 2.939274 1_455
O67 Rb14 3.238291 1_555
