# generated using pymatgen
data_NaCuF3
_symmetry_space_group_name_H-M   'P 1'
_cell_length_a   5.51324215
_cell_length_b   5.28949907
_cell_length_c   9.31335085
_cell_angle_alpha   57.61218005
_cell_angle_beta   90.00000000
_cell_angle_gamma   90.00000000
_symmetry_Int_Tables_number   1
_chemical_formula_structural   NaCuF3
_chemical_formula_sum   'Na4 Cu4 F12'
_cell_volume   229.34924059
_cell_formula_units_Z   4
loop_
 _symmetry_equiv_pos_site_id
 _symmetry_equiv_pos_as_xyz
  1  'x, y, z'
loop_
 _atom_site_type_symbol
 _atom_site_label
 _atom_site_symmetry_multiplicity
 _atom_site_fract_x
 _atom_site_fract_y
 _atom_site_fract_z
 _atom_site_occupancy
  Na  Na0  1  0.56509401  0.28106735  0.24100996  1
  Na  Na1  1  0.43490599  0.71893265  0.75899004  1
  Na  Na2  1  0.06509401  0.71893265  0.25899004  1
  Na  Na3  1  0.93490599  0.28106735  0.74100996  1
  Cu  Cu0  1  0.00000000  0.50000000  0.00000000  1
  Cu  Cu1  1  0.50000000  0.00000000  0.00000000  1
  Cu  Cu2  1  0.00000000  0.00000000  0.50000000  1
  Cu  Cu3  1  0.50000000  0.50000000  0.50000000  1
  F  F0  1  0.29154578  0.63255186  0.05286607  1
  F  F1  1  0.70845422  0.36744814  0.94713393  1
  F  F2  1  0.19110840  0.27453999  0.93367723  1
  F  F3  1  0.80889160  0.72546001  0.06632277  1
  F  F4  1  0.30889160  0.27453999  0.43367723  1
  F  F5  1  0.69110840  0.72546001  0.56632277  1
  F  F6  1  0.20845422  0.63255186  0.55286607  1
  F  F7  1  0.79154578  0.36744814  0.44713393  1
  F  F8  1  0.95786672  0.11493082  0.27266124  1
  F  F9  1  0.04213328  0.88506918  0.72733876  1
  F  F10  1  0.45786672  0.88506918  0.22733876  1
  F  F11  1  0.54213328  0.11493082  0.77266124  1
loop_
_geom_bond_atom_site_label_1
_geom_bond_atom_site_label_2
_geom_bond_distance
_geom_bond_site_symmetry_2
Cu0 F1 1.920271 1_454
Cu0 F0 1.920271 1_555
Cu0 F2 1.924330 1_554
Cu0 F3 1.924330 1_455
Cu0 F8 2.260545 1_455
Cu0 F9 2.260545 1_554
Cu1 F11 1.878167 1_554
Cu1 F10 1.878167 1_545
Cu1 F1 2.077420 1_554
Cu1 F0 2.077420 1_545
Cu1 F2 2.104663 1_554
Cu1 F3 2.104663 1_545
Cu2 F8 1.878167 1_455
Cu2 F9 1.878167 1_545
Cu2 F7 2.077420 1_455
Cu2 F6 2.077420 1_545
Cu2 F5 2.104663 1_445
Cu2 F4 2.104663 1_555
Cu3 F7 1.920271 1_555
Cu3 F6 1.920271 1_555
Cu3 F4 1.924330 1_555
Cu3 F5 1.924330 1_555
Cu3 F11 2.260545 1_555
Cu3 F10 2.260545 1_555
F0 Na0 2.304647 1_555
F0 Na2 2.528323 1_555
F0 Na1 2.642871 1_554
F1 Na1 2.304647 1_555
F1 Na3 2.528323 1_555
F1 Na0 2.642871 1_556
F2 Na3 2.269314 1_455
F2 Na1 2.425282 1_555
F3 Na2 2.269314 1_655
F3 Na0 2.425282 1_555
F4 Na0 2.269314 1_555
F4 Na2 2.425282 1_555
F5 Na1 2.269314 1_555
F5 Na3 2.425282 1_555
F6 Na3 2.304647 1_455
F6 Na1 2.528323 1_555
F6 Na2 2.642871 1_555
F7 Na2 2.304647 1_655
F7 Na0 2.528323 1_555
F7 Na3 2.642871 1_555
F8 Na2 2.244747 1_645
F8 Na0 2.295825 1_555
F9 Na3 2.244747 1_465
F9 Na1 2.295825 1_555
F10 Na0 2.244747 1_565
F10 Na2 2.295825 1_555
F11 Na1 2.244747 1_545
F11 Na3 2.295825 1_555
