# generated using pymatgen
data_Al23B50
_symmetry_space_group_name_H-M   'P 1'
_cell_length_a   6.08210252
_cell_length_b   10.22557935
_cell_length_c   10.19735696
_cell_angle_alpha   95.82570460
_cell_angle_beta   95.69078260
_cell_angle_gamma   96.84850579
_symmetry_Int_Tables_number   1
_chemical_formula_structural   Al23B50
_chemical_formula_sum   'Al23 B50'
_cell_volume   622.44021873
_cell_formula_units_Z   1
loop_
 _symmetry_equiv_pos_site_id
 _symmetry_equiv_pos_as_xyz
  1  'x, y, z'
loop_
 _atom_site_type_symbol
 _atom_site_label
 _atom_site_symmetry_multiplicity
 _atom_site_fract_x
 _atom_site_fract_y
 _atom_site_fract_z
 _atom_site_occupancy
  Al  Al0  1  0.84352608  0.52729399  0.60518940  1
  Al  Al1  1  0.76873359  0.27878935  0.39287745  1
  Al  Al2  1  0.44171419  0.32015982  0.59829770  1
  Al  Al3  1  0.69281271  0.04689177  0.19893421  1
  Al  Al4  1  0.35710619  0.08384815  0.39503908  1
  Al  Al5  1  0.61015016  0.79926999  0.99275799  1
  Al  Al6  1  0.03984614  0.11906061  0.59888062  1
  Al  Al7  1  0.28197168  0.84147235  0.19870116  1
  Al  Al8  1  0.53193233  0.56658382  0.80018803  1
  Al  Al9  1  0.96015386  0.88093939  0.40111938  1
  Al  Al10  1  0.19569848  0.60327743  0.99541782  1
  Al  Al11  1  0.87905897  0.63798190  0.19832589  1
  Al  Al12  1  0.64289381  0.91615185  0.60496092  1
  Al  Al13  1  0.12094103  0.36201810  0.80167411  1
  Al  Al14  1  0.80430152  0.39672257  0.00458218  1
  Al  Al15  1  0.55828581  0.67984018  0.40170230  1
  Al  Al16  1  0.71802832  0.15852765  0.80129884  1
  Al  Al17  1  0.46806767  0.43341618  0.19981197  1
  Al  Al18  1  0.23126641  0.72121065  0.60712255  1
  Al  Al19  1  0.38984984  0.20073001  0.00724201  1
  Al  Al20  1  0.15647392  0.47270601  0.39481060  1
  Al  Al21  1  0.30718729  0.95310823  0.80106579  1
  Al  Al22  1  0.00000000  0.00000000  -0.00000000  1
  B  B0  1  0.22134784  0.49219323  0.63371123  1
  B  B1  1  0.14012261  0.58643193  0.76671648  1
  B  B2  1  0.38049003  0.30652134  0.36703009  1
  B  B3  1  0.06039041  0.34621659  0.56785322  1
  B  B4  1  0.13993014  0.25322544  0.43357720  1
  B  B5  1  0.30038651  0.06602981  0.16704110  1
  B  B6  1  0.38323814  0.97203938  0.03495132  1
  B  B7  1  0.82003946  0.29284075  0.63360965  1
  B  B8  1  0.74044633  0.38525398  0.76761421  1
  B  B9  1  0.98024980  0.10627456  0.36676354  1
  B  B10  1  0.06011934  0.01267852  0.23339308  1
  B  B11  1  0.22013467  0.82645765  0.96719885  1
  B  B12  1  0.29806537  0.73351891  0.83318660  1
  B  B13  1  0.73951553  0.05218939  0.43426506  1
  B  B14  1  0.65999153  0.14619200  0.56651424  1
  B  B15  1  0.90179508  0.86490463  0.16875829  1
  B  B16  1  0.98041389  0.77306045  0.03394188  1
  B  B17  1  0.42022830  0.09377575  0.63282582  1
  B  B18  1  0.33965229  0.18719883  0.76598852  1
  B  B19  1  0.66034771  0.81280117  0.23401148  1
  B  B20  1  0.57977170  0.90622425  0.36717418  1
  B  B21  1  0.82060946  0.62604906  0.96682675  1
  B  B22  1  0.89973197  0.53279249  0.83334925  1
  B  B23  1  0.34000847  0.85380800  0.43348576  1
  B  B24  1  0.26048447  0.94781061  0.56573494  1
  B  B25  1  0.58015810  0.57252312  0.03423311  1
  B  B26  1  0.49956779  0.66647440  0.16637544  1
  B  B27  1  0.93988066  0.98732148  0.76660692  1
  B  B28  1  0.25955367  0.61474602  0.23238579  1
  B  B29  1  0.17996054  0.70715925  0.36639035  1
  B  B30  1  0.01975020  0.89372544  0.63323646  1
  B  B31  1  0.50043221  0.33352560  0.83362456  1
  B  B32  1  0.41984190  0.42747688  0.96576689  1
  B  B33  1  0.17939054  0.37395094  0.03317325  1
  B  B34  1  0.10026803  0.46720751  0.16665075  1
  B  B35  1  0.86006986  0.74677456  0.56642280  1
  B  B36  1  0.93960959  0.65378341  0.43214678  1
  B  B37  1  0.01958611  0.22693955  0.96605812  1
  B  B38  1  0.61950997  0.69347866  0.63296991  1
  B  B39  1  0.54153306  0.78654861  0.76682395  1
  B  B40  1  0.09820492  0.13509537  0.83124171  1
  B  B41  1  0.77865216  0.50780677  0.36628877  1
  B  B42  1  0.85987739  0.41356807  0.23328352  1
  B  B43  1  0.54147824  0.45357318  0.43401005  1
  B  B44  1  0.45852176  0.54642682  0.56598995  1
  B  B45  1  0.77986533  0.17354235  0.03280115  1
  B  B46  1  0.70193463  0.26648109  0.16681340  1
  B  B47  1  0.61676186  0.02796062  0.96504868  1
  B  B48  1  0.45846694  0.21345139  0.23317605  1
  B  B49  1  0.69961349  0.93397019  0.83295890  1
loop_
_geom_bond_atom_site_label_1
_geom_bond_atom_site_label_2
_geom_bond_distance
_geom_bond_site_symmetry_2
Al0 B1 2.298110 1_655
Al0 B35 2.310302 1_555
Al0 B22 2.311784 1_555
Al0 B38 2.314166 1_555
Al0 B0 2.362064 1_655
Al0 B36 2.369762 1_555
Al0 B44 2.370827 1_555
Al0 B8 2.392304 1_555
Al0 B43 2.399338 1_555
Al0 B41 2.412947 1_555
Al0 B3 2.419118 1_655
Al0 B7 2.433024 1_555
Al1 B46 2.288727 1_555
Al1 B42 2.303756 1_555
Al1 B4 2.305328 1_655
Al1 B9 2.313358 1_555
Al1 B48 2.351279 1_555
Al1 B3 2.374155 1_655
Al1 B41 2.379033 1_555
Al1 B13 2.386194 1_555
Al1 B2 2.403589 1_555
Al1 B43 2.415087 1_555
Al1 B7 2.431050 1_555
Al1 B14 2.432437 1_555
Al2 B2 2.338047 1_555
Al2 B43 2.346076 1_555
Al2 B7 2.347714 1_555
Al2 B4 2.348289 1_555
Al2 B0 2.355991 1_555
Al2 B14 2.358731 1_555
Al2 B3 2.359591 1_555
Al2 B44 2.361623 1_555
Al2 B8 2.362512 1_555
Al2 B17 2.366916 1_555
Al2 B18 2.374694 1_555
Al2 B31 2.378373 1_555
Al3 B46 2.296849 1_555
Al3 B45 2.299422 1_555
Al3 B10 2.300496 1_655
Al3 B9 2.301401 1_555
Al3 B47 2.367669 1_554
Al3 B48 2.368786 1_555
Al3 B13 2.382685 1_555
Al3 B15 2.387200 1_545
Al3 B6 2.387324 1_545
Al3 B5 2.410631 1_555
Al3 B19 2.443746 1_545
Al3 B20 2.446229 1_545
Al4 B5 2.301667 1_555
Al4 B48 2.304736 1_555
Al4 B2 2.312836 1_555
Al4 B10 2.315587 1_555
Al4 B9 2.323159 1_455
Al4 B4 2.325793 1_555
Al4 B13 2.386576 1_555
Al4 B14 2.390064 1_555
Al4 B20 2.402488 1_545
Al4 B17 2.406958 1_555
Al4 B24 2.410333 1_545
Al4 B23 2.415527 1_545
Al5 B39 2.287949 1_555
Al5 B16 2.301923 1_556
Al5 B49 2.302472 1_555
Al5 B21 2.314872 1_555
Al5 B12 2.358761 1_555
Al5 B15 2.378685 1_556
Al5 B47 2.379912 1_565
Al5 B25 2.387812 1_556
Al5 B6 2.399136 1_556
Al5 B11 2.412783 1_555
Al5 B19 2.436504 1_556
Al5 B26 2.436620 1_556
Al6 B13 2.341588 1_455
Al6 B9 2.346657 1_455
Al6 B40 2.346851 1_555
Al6 B24 2.347711 1_545
Al6 B17 2.353947 1_555
Al6 B14 2.354503 1_455
Al6 B30 2.356297 1_545
Al6 B18 2.356692 1_555
Al6 B4 2.359645 1_555
Al6 B27 2.363969 1_445
Al6 B3 2.366209 1_555
Al6 B7 2.367093 1_455
Al7 B6 2.326074 1_555
Al7 B11 2.339776 1_554
Al7 B5 2.342174 1_565
Al7 B15 2.346107 1_455
Al7 B16 2.349547 1_455
Al7 B19 2.351530 1_555
Al7 B20 2.352966 1_555
Al7 B10 2.354365 1_565
Al7 B26 2.365138 1_555
Al7 B28 2.367944 1_555
Al7 B23 2.373413 1_555
Al7 B29 2.383120 1_555
Al8 B21 2.298678 1_555
Al8 B22 2.301290 1_555
Al8 B39 2.303548 1_555
Al8 B38 2.310743 1_555
Al8 B12 2.368062 1_555
Al8 B44 2.368965 1_555
Al8 B25 2.369235 1_556
Al8 B8 2.382449 1_555
Al8 B0 2.405846 1_555
Al8 B1 2.409276 1_555
Al8 B32 2.413222 1_555
Al8 B31 2.429282 1_555
Al9 B24 2.341588 1_655
Al9 B30 2.346657 1_655
Al9 B15 2.346851 1_555
Al9 B13 2.347711 1_565
Al9 B20 2.353947 1_555
Al9 B23 2.354503 1_655
Al9 B9 2.356297 1_565
Al9 B19 2.356692 1_555
Al9 B35 2.359645 1_555
Al9 B10 2.363969 1_665
Al9 B36 2.366209 1_555
Al9 B29 2.367093 1_655
Al10 B1 2.308912 1_555
Al10 B22 2.312991 1_455
Al10 B12 2.313418 1_555
Al10 B21 2.313494 1_455
Al10 B11 2.318188 1_555
Al10 B16 2.321349 1_456
Al10 B26 2.391644 1_556
Al10 B32 2.395280 1_555
Al10 B25 2.395916 1_556
Al10 B28 2.397768 1_556
Al10 B33 2.406753 1_556
Al10 B34 2.413174 1_556
Al11 B25 2.330681 1_555
Al11 B21 2.340688 1_554
Al11 B34 2.344339 1_655
Al11 B42 2.348846 1_555
Al11 B28 2.349708 1_655
Al11 B26 2.355609 1_555
Al11 B41 2.356865 1_555
Al11 B15 2.359690 1_555
Al11 B16 2.360022 1_555
Al11 B36 2.362274 1_555
Al11 B29 2.368541 1_655
Al11 B19 2.372465 1_555
Al12 B49 2.301667 1_555
Al12 B39 2.304736 1_555
Al12 B38 2.312836 1_555
Al12 B27 2.315587 1_555
Al12 B30 2.323159 1_655
Al12 B35 2.325793 1_555
Al12 B24 2.386576 1_555
Al12 B23 2.390064 1_555
Al12 B17 2.402488 1_565
Al12 B20 2.406958 1_555
Al12 B13 2.410333 1_565
Al12 B14 2.415527 1_565
Al13 B32 2.330681 1_555
Al13 B33 2.340688 1_556
Al13 B22 2.344339 1_455
Al13 B1 2.348846 1_555
Al13 B8 2.349708 1_455
Al13 B31 2.355609 1_555
Al13 B0 2.356865 1_555
Al13 B40 2.359690 1_555
Al13 B37 2.360022 1_555
Al13 B3 2.362274 1_555
Al13 B7 2.368541 1_455
Al13 B18 2.372465 1_555
Al14 B42 2.308912 1_555
Al14 B34 2.312991 1_655
Al14 B46 2.313418 1_555
Al14 B33 2.313494 1_655
Al14 B45 2.318188 1_555
Al14 B37 2.321349 1_654
Al14 B31 2.391644 1_554
Al14 B25 2.395280 1_555
Al14 B32 2.395916 1_554
Al14 B8 2.397768 1_554
Al14 B21 2.406753 1_554
Al14 B22 2.413174 1_554
Al15 B38 2.338047 1_555
Al15 B44 2.346076 1_555
Al15 B29 2.347714 1_555
Al15 B35 2.348289 1_555
Al15 B41 2.355991 1_555
Al15 B23 2.358731 1_555
Al15 B36 2.359591 1_555
Al15 B43 2.361623 1_555
Al15 B28 2.362512 1_555
Al15 B20 2.366916 1_555
Al15 B19 2.374694 1_555
Al15 B26 2.378373 1_555
Al16 B47 2.326074 1_555
Al16 B45 2.339776 1_556
Al16 B49 2.342174 1_545
Al16 B40 2.346107 1_655
Al16 B37 2.349547 1_655
Al16 B18 2.351530 1_555
Al16 B17 2.352966 1_555
Al16 B27 2.354365 1_545
Al16 B31 2.365138 1_555
Al16 B8 2.367944 1_555
Al16 B14 2.373413 1_555
Al16 B7 2.383120 1_555
Al17 B33 2.298678 1_555
Al17 B34 2.301290 1_555
Al17 B48 2.303548 1_555
Al17 B2 2.310743 1_555
Al17 B46 2.368062 1_555
Al17 B43 2.368965 1_555
Al17 B32 2.369235 1_554
Al17 B28 2.382449 1_555
Al17 B41 2.405846 1_555
Al17 B42 2.409276 1_555
Al17 B25 2.413222 1_555
Al17 B26 2.429282 1_555
Al18 B12 2.288727 1_555
Al18 B1 2.303756 1_555
Al18 B35 2.305328 1_455
Al18 B30 2.313358 1_555
Al18 B39 2.351279 1_555
Al18 B36 2.374155 1_455
Al18 B0 2.379033 1_555
Al18 B24 2.386194 1_555
Al18 B38 2.403589 1_555
Al18 B44 2.415087 1_555
Al18 B29 2.431050 1_555
Al18 B23 2.432437 1_555
Al19 B48 2.287949 1_555
Al19 B37 2.301923 1_554
Al19 B5 2.302472 1_555
Al19 B33 2.314872 1_555
Al19 B46 2.358761 1_555
Al19 B40 2.378685 1_554
Al19 B6 2.379912 1_545
Al19 B32 2.387812 1_554
Al19 B47 2.399136 1_554
Al19 B45 2.412783 1_555
Al19 B18 2.436504 1_554
Al19 B31 2.436620 1_554
Al20 B42 2.298110 1_455
Al20 B4 2.310302 1_555
Al20 B34 2.311784 1_555
Al20 B2 2.314166 1_555
Al20 B41 2.362064 1_455
Al20 B3 2.369762 1_555
Al20 B43 2.370827 1_555
Al20 B28 2.392304 1_555
Al20 B44 2.399338 1_555
Al20 B0 2.412947 1_555
Al20 B36 2.419118 1_455
Al20 B29 2.433024 1_555
Al21 B12 2.296849 1_555
Al21 B11 2.299422 1_555
Al21 B27 2.300496 1_455
Al21 B30 2.301401 1_555
Al21 B6 2.367669 1_556
Al21 B39 2.368786 1_555
Al21 B24 2.382685 1_555
Al21 B40 2.387200 1_565
Al21 B47 2.387324 1_565
Al21 B49 2.410631 1_555
Al21 B18 2.443746 1_565
Al21 B17 2.446229 1_565
Al22 B49 2.355928 1_444
Al22 B5 2.355928 1_555
Al22 B10 2.359734 1_555
Al22 B27 2.359734 1_444
Al22 B11 2.364009 1_544
Al22 B45 2.364009 1_455
Al22 B16 2.371586 1_445
Al22 B37 2.371586 1_554
Al22 B47 2.378384 1_454
Al22 B6 2.378384 1_545
Al22 B40 2.390863 1_554
Al22 B15 2.390863 1_445
B0 B44 1.717504 1_555
B0 B3 1.719049 1_555
B0 B1 1.730120 1_555
B1 B12 1.721551 1_555
B1 B22 1.726743 1_455
B2 B48 1.722229 1_555
B2 B4 1.726273 1_555
B2 B43 1.730336 1_555
B3 B7 1.721310 1_455
B3 B4 1.729120 1_555
B4 B9 1.725772 1_455
B5 B6 1.726059 1_545
B7 B8 1.724175 1_555
B10 B15 1.723354 1_445
B10 B5 1.723893 1_555
B10 B9 1.726065 1_455
B11 B12 1.722667 1_555
B11 B16 1.723228 1_456
B11 B6 1.726447 1_556
B12 B39 1.739679 1_555
B13 B14 1.718629 1_555
B13 B20 1.718967 1_545
B13 B9 1.734216 1_555
B14 B17 1.718662 1_555
B14 B7 1.725079 1_555
B15 B19 1.721137 1_555
B15 B16 1.725116 1_555
B16 B21 1.727334 1_554
B17 B24 1.718967 1_545
B17 B18 1.725392 1_555
B18 B40 1.721137 1_555
B18 B31 1.725856 1_555
B19 B20 1.725392 1_555
B19 B26 1.725856 1_555
B20 B23 1.718662 1_555
B21 B22 1.723205 1_555
B21 B25 1.730792 1_556
B22 B8 1.726646 1_555
B23 B24 1.718629 1_555
B23 B29 1.725079 1_555
B24 B30 1.734216 1_555
B25 B32 1.716943 1_554
B25 B26 1.720310 1_555
B26 B28 1.716650 1_555
B27 B40 1.723354 1_665
B27 B49 1.723893 1_555
B27 B30 1.726065 1_655
B28 B29 1.724175 1_555
B28 B34 1.726646 1_555
B29 B36 1.721310 1_455
B30 B35 1.725772 1_455
B31 B8 1.716650 1_555
B31 B32 1.720310 1_555
B32 B33 1.730792 1_556
B33 B34 1.723205 1_555
B33 B37 1.727334 1_554
B34 B42 1.726743 1_455
B35 B38 1.726273 1_555
B35 B36 1.729120 1_555
B36 B41 1.719049 1_555
B37 B45 1.723228 1_456
B37 B40 1.725116 1_555
B38 B39 1.722229 1_555
B38 B44 1.730336 1_555
B39 B49 1.723676 1_555
B41 B43 1.717504 1_555
B41 B42 1.730120 1_555
B42 B46 1.721551 1_555
B43 B44 1.719563 1_555
B45 B46 1.722667 1_555
B45 B47 1.726447 1_554
B46 B48 1.739679 1_555
B47 B6 1.715294 1_546
B47 B49 1.726059 1_545
B48 B5 1.723676 1_555
