# generated using pymatgen
data_Li2Ti4Ni(PO5)4
_symmetry_space_group_name_H-M   'P 1'
_cell_length_a   7.32797200
_cell_length_b   7.44625000
_cell_length_c   12.91417414
_cell_angle_alpha   89.86444221
_cell_angle_beta   90.00000000
_cell_angle_gamma   90.00000000
_symmetry_Int_Tables_number   1
_chemical_formula_structural   Li2Ti4Ni(PO5)4
_chemical_formula_sum   'Li4 Ti8 Ni2 P8 O40'
_cell_volume   704.67171127
_cell_formula_units_Z   2
loop_
 _symmetry_equiv_pos_site_id
 _symmetry_equiv_pos_as_xyz
  1  'x, y, z'
loop_
 _atom_site_type_symbol
 _atom_site_label
 _atom_site_symmetry_multiplicity
 _atom_site_fract_x
 _atom_site_fract_y
 _atom_site_fract_z
 _atom_site_occupancy
  Li  Li0  1  0.00764300  0.99164400  0.24650100  1
  Li  Li1  1  0.49235700  0.49164400  0.74650100  1
  Li  Li2  1  0.99235700  0.00835600  0.75349900  1
  Li  Li3  1  0.50764300  0.50835600  0.25349900  1
  Ti  Ti0  1  0.78784500  0.33464100  0.12654000  1
  Ti  Ti1  1  0.73303800  0.84114300  0.11828600  1
  Ti  Ti2  1  0.26696200  0.15885700  0.88171400  1
  Ti  Ti3  1  0.21215500  0.66535900  0.87346000  1
  Ti  Ti4  1  0.76696200  0.34114300  0.61828600  1
  Ti  Ti5  1  0.71215500  0.83464100  0.62654000  1
  Ti  Ti6  1  0.28784500  0.16535900  0.37346000  1
  Ti  Ti7  1  0.23303800  0.65885700  0.38171400  1
  Ni  Ni0  1  0.50000000  0.50000000  0.00000000  1
  Ni  Ni1  1  0.00000000  0.00000000  0.50000000  1
  P  P0  1  0.37600200  0.12559300  0.12453600  1
  P  P1  1  0.13131600  0.62589000  0.12856400  1
  P  P2  1  0.86868400  0.37411000  0.87143600  1
  P  P3  1  0.62399800  0.87440700  0.87546400  1
  P  P4  1  0.36868400  0.12589000  0.62856400  1
  P  P5  1  0.12399800  0.62559300  0.62453600  1
  P  P6  1  0.87600200  0.37440700  0.37546400  1
  P  P7  1  0.63131600  0.87411000  0.37143600  1
  O  O0  1  0.25398100  0.12341000  0.22223600  1
  O  O1  1  0.25740500  0.63148800  0.22330700  1
  O  O2  1  0.84157900  0.11185400  0.13226900  1
  O  O3  1  0.02185400  0.44781300  0.12495500  1
  O  O4  1  0.65263600  0.61391000  0.11576500  1
  O  O5  1  0.49676800  0.95700000  0.12486500  1
  O  O6  1  0.49857600  0.30039200  0.12266400  1
  O  O7  1  0.00110800  0.78860100  0.12989800  1
  O  O8  1  0.25096600  0.12702100  0.02949000  1
  O  O9  1  0.25498700  0.63246700  0.02969900  1
  O  O10  1  0.74501300  0.36753300  0.97030100  1
  O  O11  1  0.74903400  0.87297900  0.97051000  1
  O  O12  1  0.99889200  0.21139900  0.87010200  1
  O  O13  1  0.50142400  0.69960800  0.87733600  1
  O  O14  1  0.50323200  0.04300000  0.87513500  1
  O  O15  1  0.34736400  0.38609000  0.88423500  1
  O  O16  1  0.97814600  0.55218700  0.87504500  1
  O  O17  1  0.15842100  0.88814600  0.86773100  1
  O  O18  1  0.74259500  0.36851200  0.77669300  1
  O  O19  1  0.74601900  0.87659000  0.77776400  1
  O  O20  1  0.24259500  0.13148800  0.72330700  1
  O  O21  1  0.24601900  0.62341000  0.72223600  1
  O  O22  1  0.84736400  0.11391000  0.61576500  1
  O  O23  1  0.00323200  0.45700000  0.62486500  1
  O  O24  1  0.65842100  0.61185400  0.63226900  1
  O  O25  1  0.47814600  0.94781300  0.62495500  1
  O  O26  1  0.49889200  0.28860100  0.62989800  1
  O  O27  1  0.00142400  0.80039200  0.62266400  1
  O  O28  1  0.24501300  0.13246700  0.52969900  1
  O  O29  1  0.24903400  0.62702100  0.52949000  1
  O  O30  1  0.75096600  0.37297900  0.47051000  1
  O  O31  1  0.75498700  0.86753300  0.47030100  1
  O  O32  1  0.99857600  0.19960800  0.37733600  1
  O  O33  1  0.50110800  0.71139900  0.37010200  1
  O  O34  1  0.52185400  0.05218700  0.37504500  1
  O  O35  1  0.34157900  0.38814600  0.36773100  1
  O  O36  1  0.99676800  0.54300000  0.37513500  1
  O  O37  1  0.15263600  0.88609000  0.38423500  1
  O  O38  1  0.75398100  0.37659000  0.27776400  1
  O  O39  1  0.75740500  0.86851200  0.27669300  1
loop_
_geom_bond_atom_site_label_1
_geom_bond_atom_site_label_2
_geom_bond_distance
_geom_bond_site_symmetry_2
Li0 O0 2.077984 1_565
Li0 O39 2.086523 1_455
Li0 O2 2.110001 1_465
Li0 O7 2.136928 1_555
Li0 O37 2.214479 1_555
Li0 O32 2.295571 1_465
Li1 O21 2.077984 1_555
Li1 O18 2.086523 1_555
Li1 O24 2.110001 1_555
Li1 O26 2.136928 1_555
Li1 O15 2.214479 1_555
Li1 O13 2.295571 1_555
Li2 O19 2.077984 1_545
Li2 O20 2.086523 1_655
Li2 O17 2.110001 1_645
Li2 O12 2.136928 1_555
Li2 O22 2.214479 1_555
Li2 O27 2.295571 1_645
Li3 O38 2.077984 1_555
Li3 O1 2.086523 1_555
Li3 O35 2.110001 1_555
Li3 O33 2.136928 1_555
Li3 O4 2.214479 1_555
Li3 O6 2.295571 1_555
Ni0 O15 2.052211 1_554
Ni0 O4 2.052211 1_555
Ni0 O9 2.084581 1_555
Ni0 O10 2.084581 1_554
Ni0 O6 2.169685 1_555
Ni0 O13 2.169685 1_554
Ni1 O37 2.052211 1_545
Ni1 O22 2.052211 1_455
Ni1 O31 2.084581 1_445
Ni1 O28 2.084581 1_555
Ni1 O27 2.169685 1_545
Ni1 O32 2.169685 1_455
O0 P0 1.546488 1_555
O0 Ti6 1.993987 1_555
O1 P1 1.533862 1_555
O1 Ti7 2.064040 1_555
O2 Ti0 1.706453 1_555
O2 Ti1 2.174936 1_545
O3 P1 1.550541 1_555
O3 Ti0 1.910777 1_455
O4 Ti1 1.792048 1_555
O4 Ti0 2.307389 1_555
O5 P0 1.535955 1_565
O5 Ti1 1.936361 1_555
O6 P0 1.581578 1_555
O6 Ti0 2.135642 1_555
O7 P1 1.542323 1_555
O7 Ti1 2.008528 1_455
O8 P0 1.531729 1_555
O8 Ti2 1.926086 1_554
O9 P1 1.566372 1_555
O9 Ti3 2.056032 1_554
O10 P2 1.566372 1_555
O10 Ti0 2.056032 1_556
O11 P3 1.531729 1_555
O11 Ti1 1.926086 1_556
O12 P2 1.542323 1_555
O12 Ti2 2.008528 1_655
O13 P3 1.581578 1_555
O13 Ti3 2.135642 1_555
O14 P3 1.535955 1_545
O14 Ti2 1.936361 1_555
O15 Ti2 1.792048 1_555
O15 Ti3 2.307389 1_555
O16 P2 1.550541 1_555
O16 Ti3 1.910777 1_655
O17 Ti3 1.706453 1_555
O17 Ti2 2.174936 1_565
O18 P2 1.533862 1_555
O18 Ti4 2.064040 1_555
O19 P3 1.546488 1_555
O19 Ti5 1.993987 1_555
O20 P4 1.533862 1_555
O20 Ti2 2.064040 1_555
O21 P5 1.546488 1_555
O21 Ti3 1.993987 1_555
O22 Ti4 1.792048 1_555
O22 Ti5 2.307389 1_545
O23 P5 1.535955 1_555
O23 Ti4 1.936361 1_455
O24 Ti5 1.706453 1_555
O24 Ti4 2.174936 1_555
O25 P4 1.550541 1_565
O25 Ti5 1.910777 1_555
O26 P4 1.542323 1_555
O26 Ti4 2.008528 1_555
O27 P5 1.581578 1_555
O27 Ti5 2.135642 1_455
O28 P4 1.566372 1_555
O28 Ti6 2.056032 1_555
O29 P5 1.531729 1_555
O29 Ti7 1.926086 1_555
O30 P6 1.531729 1_555
O30 Ti4 1.926086 1_555
O31 P7 1.566372 1_555
O31 Ti5 2.056032 1_555
O32 P6 1.581578 1_555
O32 Ti6 2.135642 1_655
O33 P7 1.542323 1_555
O33 Ti7 2.008528 1_555
O34 P7 1.550541 1_545
O34 Ti6 1.910777 1_555
O35 Ti6 1.706453 1_555
O35 Ti7 2.174936 1_555
O36 P6 1.535955 1_555
O36 Ti7 1.936361 1_655
O37 Ti7 1.792048 1_555
O37 Ti6 2.307389 1_565
O38 P6 1.546488 1_555
O38 Ti0 1.993987 1_555
O39 P7 1.533862 1_555
O39 Ti1 2.064040 1_555
