# generated using pymatgen
data_Rb2Al2Sb2O7
_symmetry_space_group_name_H-M   'P 1'
_cell_length_a   5.74799552
_cell_length_b   5.74799552
_cell_length_c   8.58503800
_cell_angle_alpha   90.00000000
_cell_angle_beta   90.00000000
_cell_angle_gamma   119.99999445
_symmetry_Int_Tables_number   1
_chemical_formula_structural   Rb2Al2Sb2O7
_chemical_formula_sum   'Rb2 Al2 Sb2 O7'
_cell_volume   245.64375040
_cell_formula_units_Z   1
loop_
 _symmetry_equiv_pos_site_id
 _symmetry_equiv_pos_as_xyz
  1  'x, y, z'
loop_
 _atom_site_type_symbol
 _atom_site_label
 _atom_site_symmetry_multiplicity
 _atom_site_fract_x
 _atom_site_fract_y
 _atom_site_fract_z
 _atom_site_occupancy
  Rb  Rb0  1  0.66666700  0.33333300  0.40736700  1
  Rb  Rb1  1  0.33333300  0.66666700  0.59263300  1
  Al  Al0  1  0.00000000  0.00000000  0.79853800  1
  Al  Al1  1  0.00000000  0.00000000  0.20146200  1
  Sb  Sb0  1  0.33333300  0.66666700  0.15264900  1
  Sb  Sb1  1  0.66666700  0.33333300  0.84735100  1
  O  O0  1  0.33443000  0.16721500  0.72131000  1
  O  O1  1  0.16721500  0.83278500  0.27869000  1
  O  O2  1  0.83278500  0.16721500  0.72131000  1
  O  O3  1  0.83278500  0.66557000  0.72131000  1
  O  O4  1  0.66557000  0.83278500  0.27869000  1
  O  O5  1  0.00000000  0.00000000  0.00000000  1
  O  O6  1  0.16721500  0.33443000  0.27869000  1
loop_
_geom_bond_atom_site_label_1
_geom_bond_atom_site_label_2
_geom_bond_distance
_geom_bond_site_symmetry_2
Al0 O5 1.729559 1_556
Al0 O2 1.791929 1_455
Al0 O3 1.791929 1_445
Al0 O0 1.791929 1_555
Al1 O5 1.729559 1_555
Al1 O1 1.791929 1_545
Al1 O4 1.791929 1_445
Al1 O6 1.791929 1_555
O0 Sb1 1.976379 1_555
O0 Rb1 3.078998 1_545
O0 Rb1 3.079004 1_555
O0 Rb0 3.162179 1_555
O1 Sb0 1.976375 1_555
O1 Rb0 3.079001 1_455
O1 Rb0 3.079001 1_565
O1 Rb1 3.162177 1_555
O2 Sb1 1.976375 1_555
O2 Rb1 3.079001 1_545
O2 Rb1 3.079001 1_655
O2 Rb0 3.162177 1_555
O3 Sb1 1.976379 1_555
O3 Rb1 3.078998 1_655
O3 Rb1 3.079004 1_555
O3 Rb0 3.162179 1_555
O4 Sb0 1.976379 1_555
O4 Rb0 3.078998 1_565
O4 Rb0 3.079004 1_555
O4 Rb1 3.162179 1_555
O6 Sb0 1.976379 1_555
O6 Rb0 3.078998 1_455
O6 Rb0 3.079004 1_555
O6 Rb1 3.162179 1_555
