# generated using pymatgen
data_KRe2O4F7
_symmetry_space_group_name_H-M   'P 1'
_cell_length_a   5.31460300
_cell_length_b   5.68977400
_cell_length_c   15.81942239
_cell_angle_alpha   74.22197815
_cell_angle_beta   90.00000000
_cell_angle_gamma   90.00000000
_symmetry_Int_Tables_number   1
_chemical_formula_structural   KRe2O4F7
_chemical_formula_sum   'K2 Re4 O8 F14'
_cell_volume   460.33823374
_cell_formula_units_Z   2
loop_
 _symmetry_equiv_pos_site_id
 _symmetry_equiv_pos_as_xyz
  1  'x, y, z'
loop_
 _atom_site_type_symbol
 _atom_site_label
 _atom_site_symmetry_multiplicity
 _atom_site_fract_x
 _atom_site_fract_y
 _atom_site_fract_z
 _atom_site_occupancy
  K  K0  1  0.30685900  0.50000000  0.25000000  1
  K  K1  1  0.69314100  0.50000000  0.75000000  1
  Re  Re0  1  0.75286600  0.87477400  0.38667600  1
  Re  Re1  1  0.75286600  0.12522600  0.11332400  1
  Re  Re2  1  0.24713400  0.87477400  0.88667600  1
  Re  Re3  1  0.24713400  0.12522600  0.61332400  1
  O  O0  1  0.40847600  0.87083700  0.60379500  1
  O  O1  1  0.13432400  0.24653200  0.50967700  1
  O  O2  1  0.59152400  0.12916300  0.39620500  1
  O  O3  1  0.86567600  0.24653200  0.00967700  1
  O  O4  1  0.40847600  0.12916300  0.89620500  1
  O  O5  1  0.86567600  0.75346800  0.49032300  1
  O  O6  1  0.59152400  0.87083700  0.10379500  1
  O  O7  1  0.13432400  0.75346800  0.99032300  1
  F  F0  1  0.46025800  0.67889000  0.39597700  1
  F  F1  1  0.62185800  0.00000000  0.25000000  1
  F  F2  1  0.04600500  0.95105800  0.16139300  1
  F  F3  1  0.37814200  0.00000000  0.75000000  1
  F  F4  1  0.88716300  0.62977600  0.33245400  1
  F  F5  1  0.53974200  0.67889000  0.89597700  1
  F  F6  1  0.11283700  0.37022400  0.66754600  1
  F  F7  1  0.04600500  0.04894200  0.33860700  1
  F  F8  1  0.11283700  0.62977600  0.83245400  1
  F  F9  1  0.53974200  0.32111000  0.60402300  1
  F  F10  1  0.95399500  0.04894200  0.83860700  1
  F  F11  1  0.88716300  0.37022400  0.16754600  1
  F  F12  1  0.95399500  0.95105800  0.66139300  1
  F  F13  1  0.46025800  0.32111000  0.10402300  1
loop_
_geom_bond_atom_site_label_1
_geom_bond_atom_site_label_2
_geom_bond_distance
_geom_bond_site_symmetry_2
K0 O2 3.071857 1_555
K0 O6 3.071857 1_555
K1 O4 3.071857 1_555
K1 O0 3.071857 1_555
O0 Re3 1.723846 1_565
O1 Re3 1.705521 1_555
O2 Re0 1.723846 1_545
O3 Re1 1.705521 1_555
O4 Re2 1.723846 1_545
O5 Re0 1.705521 1_555
O6 Re1 1.723846 1_565
O7 Re2 1.705521 1_555
F0 Re0 1.895516 1_555
F0 K0 2.882989 1_555
F1 Re0 2.197610 1_545
F1 Re1 2.197610 1_555
F2 Re1 1.891450 1_465
F2 K0 2.918371 1_555
F3 Re2 2.197610 1_545
F3 Re3 2.197610 1_555
F4 Re0 1.959237 1_555
F4 K0 2.783094 1_655
F5 Re2 1.895516 1_555
F5 K1 2.882989 1_555
F6 Re3 1.959237 1_555
F6 K1 2.783094 1_455
F7 Re0 1.891450 1_445
F7 K0 2.918371 1_555
F8 Re2 1.959237 1_555
F8 K1 2.783094 1_455
F9 Re3 1.895516 1_555
F9 K1 2.882989 1_555
F10 Re2 1.891450 1_645
F10 K1 2.918371 1_555
F11 Re1 1.959237 1_555
F11 K0 2.783094 1_655
F12 Re3 1.891450 1_665
F12 K1 2.918371 1_555
F13 Re1 1.895516 1_555
F13 K0 2.882989 1_555
