# generated using pymatgen
data_ZnS
_symmetry_space_group_name_H-M   'P 1'
_cell_length_a   3.81013439
_cell_length_b   3.81013564
_cell_length_c   80.95652946
_cell_angle_alpha   90.00000000
_cell_angle_beta   90.00000000
_cell_angle_gamma   119.99999796
_symmetry_Int_Tables_number   1
_chemical_formula_structural   ZnS
_chemical_formula_sum   'Zn26 S26'
_cell_volume   1017.80189036
_cell_formula_units_Z   26
loop_
 _symmetry_equiv_pos_site_id
 _symmetry_equiv_pos_as_xyz
  1  'x, y, z'
loop_
 _atom_site_type_symbol
 _atom_site_label
 _atom_site_symmetry_multiplicity
 _atom_site_fract_x
 _atom_site_fract_y
 _atom_site_fract_z
 _atom_site_occupancy
  Zn  Zn0  1  0.33333300  0.66666700  0.80764662  1
  Zn  Zn1  1  0.00000000  -0.00000000  0.11536240  1
  Zn  Zn2  1  0.66666700  0.33333300  0.46158892  1
  Zn  Zn3  1  0.33333300  0.66666700  0.65379390  1
  Zn  Zn4  1  0.00000000  0.00000000  0.23079066  1
  Zn  Zn5  1  0.66666700  0.33333300  0.96153826  1
  Zn  Zn6  1  0.33333300  0.66666700  0.88459251  1
  Zn  Zn7  1  0.33333300  0.66666700  0.03852011  1
  Zn  Zn8  1  0.66666700  0.33333300  0.19226222  1
  Zn  Zn9  1  0.66666700  0.33333300  0.07692708  1
  Zn  Zn10  1  0.00000000  -0.00000000  0.76925110  1
  Zn  Zn11  1  -0.00000000  -0.00000000  0.69223440  1
  Zn  Zn12  1  0.33333300  0.66666700  0.42305573  1
  Zn  Zn13  1  0.66666700  0.33333300  0.84610343  1
  Zn  Zn14  1  -0.00000000  -0.00000000  0.57699335  1
  Zn  Zn15  1  0.33333300  0.66666700  0.53852286  1
  Zn  Zn16  1  0.00000000  -0.00000000  0.00007740  1
  Zn  Zn17  1  0.33333300  0.66666700  0.30779367  1
  Zn  Zn18  1  0.33333300  0.66666700  0.15378981  1
  Zn  Zn19  1  0.66666700  0.33333300  0.26934963  1
  Zn  Zn20  1  -0.00000000  0.00000000  0.92300123  1
  Zn  Zn21  1  0.66666700  0.33333300  0.61537639  1
  Zn  Zn22  1  -0.00000000  -0.00000000  0.50003899  1
  Zn  Zn23  1  0.66666700  0.33333300  0.38457403  1
  Zn  Zn24  1  -0.00000000  -0.00000000  0.34618786  1
  Zn  Zn25  1  0.66666700  0.33333300  0.73076016  1
  S  S0  1  0.66666700  0.33333300  0.75964701  1
  S  S1  1  0.00000000  -0.00000000  0.02891919  1
  S  S2  1  0.00000000  -0.00000000  0.72108321  1
  S  S3  1  0.00000000  -0.00000000  0.79806341  1
  S  S4  1  0.33333300  0.66666700  0.33661264  1
  S  S5  1  0.66666700  0.33333300  0.22110093  1
  S  S6  1  0.33333300  0.66666700  0.83645190  1
  S  S7  1  0.33333300  0.66666700  0.06735023  1
  S  S8  1  0.33333300  0.66666700  0.91340208  1
  S  S9  1  0.33333300  0.66666700  0.45192975  1
  S  S10  1  0.66666700  0.33333300  0.10574990  1
  S  S11  1  0.66666700  0.33333300  0.87496815  1
  S  S12  1  0.66666700  0.33333300  0.29818808  1
  S  S13  1  0.00000000  -0.00000000  0.60578009  1
  S  S14  1  -0.00000000  -0.00000000  0.95184937  1
  S  S15  1  0.66666700  0.33333300  0.49041480  1
  S  S16  1  0.33333300  0.66666700  0.68261588  1
  S  S17  1  0.00000000  -0.00000000  0.37498434  1
  S  S18  1  0.33333300  0.66666700  0.18261951  1
  S  S19  1  0.66666700  0.33333300  0.99043195  1
  S  S20  1  0.00000000  -0.00000000  0.25970522  1
  S  S21  1  0.66666700  0.33333300  0.41337453  1
  S  S22  1  -0.00000000  -0.00000000  0.14417794  1
  S  S23  1  0.00000000  -0.00000000  0.52887342  1
  S  S24  1  0.33333300  0.66666700  0.56739457  1
  S  S25  1  0.66666700  0.33333300  0.64418121  1
loop_
_geom_bond_atom_site_label_1
_geom_bond_atom_site_label_2
_geom_bond_distance
_geom_bond_site_symmetry_2
S0 Zn10 2.333144 1_655
S0 Zn10 2.333147 1_555
S0 Zn10 2.333148 1_665
S0 Zn25 2.338579 1_555
S1 Zn7 2.333058 1_545
S1 Zn7 2.333061 1_445
S1 Zn7 2.333062 1_555
S1 Zn16 2.334931 1_555
S2 Zn25 2.335116 1_455
S2 Zn25 2.335119 1_555
S2 Zn25 2.335120 1_445
S2 Zn11 2.335500 1_555
S3 Zn10 2.332545 1_555
S3 Zn0 2.332581 1_545
S3 Zn0 2.332584 1_445
S3 Zn0 2.332585 1_555
S4 Zn24 2.332366 1_565
S4 Zn24 2.332369 1_665
S4 Zn24 2.332370 1_555
S4 Zn17 2.333084 1_555
S5 Zn8 2.334682 1_555
S5 Zn4 2.335464 1_655
S5 Zn4 2.335466 1_555
S5 Zn4 2.335467 1_665
S6 Zn0 2.331975 1_555
S6 Zn13 2.334426 1_455
S6 Zn13 2.334427 1_565
S6 Zn13 2.334433 1_555
S7 Zn9 2.332410 1_455
S7 Zn9 2.332410 1_565
S7 Zn9 2.332416 1_555
S7 Zn7 2.333986 1_555
S8 Zn6 2.332323 1_555
S8 Zn20 2.333011 1_565
S8 Zn20 2.333014 1_665
S8 Zn20 2.333014 1_555
S9 Zn2 2.334633 1_455
S9 Zn2 2.334634 1_565
S9 Zn2 2.334640 1_555
S9 Zn12 2.337540 1_555
S10 Zn1 2.333371 1_655
S10 Zn1 2.333374 1_555
S10 Zn1 2.333374 1_665
S10 Zn9 2.333395 1_555
S11 Zn6 2.333691 1_655
S11 Zn6 2.333692 1_545
S11 Zn6 2.333698 1_555
S11 Zn13 2.336788 1_555
S12 Zn17 2.333184 1_655
S12 Zn17 2.333185 1_545
S12 Zn17 2.333191 1_555
S12 Zn19 2.334661 1_555
S13 Zn14 2.330475 1_555
S13 Zn21 2.332934 1_455
S13 Zn21 2.332937 1_555
S13 Zn21 2.332937 1_445
S14 Zn5 2.335441 1_455
S14 Zn5 2.335444 1_555
S14 Zn5 2.335444 1_445
S14 Zn20 2.335445 1_555
S15 Zn2 2.333643 1_555
S15 Zn22 2.333687 1_655
S15 Zn22 2.333690 1_555
S15 Zn22 2.333690 1_665
S16 Zn3 2.333327 1_555
S16 Zn11 2.333534 1_565
S16 Zn11 2.333536 1_665
S16 Zn11 2.333537 1_555
S17 Zn24 2.331263 1_555
S17 Zn23 2.332756 1_455
S17 Zn23 2.332759 1_555
S17 Zn23 2.332759 1_445
S18 Zn18 2.333952 1_555
S18 Zn8 2.334187 1_455
S18 Zn8 2.334188 1_565
S18 Zn8 2.334194 1_555
S19 Zn16 2.334262 1_656
S19 Zn16 2.334265 1_556
S19 Zn16 2.334265 1_666
S19 Zn5 2.339133 1_555
S20 Zn19 2.334234 1_455
S20 Zn19 2.334237 1_555
S20 Zn19 2.334237 1_445
S20 Zn4 2.340822 1_555
S21 Zn23 2.331589 1_555
S21 Zn12 2.335231 1_655
S21 Zn12 2.335232 1_545
S21 Zn12 2.335238 1_555
S22 Zn1 2.332806 1_555
S22 Zn18 2.333354 1_545
S22 Zn18 2.333357 1_445
S22 Zn18 2.333357 1_555
S23 Zn22 2.334335 1_555
S23 Zn15 2.334370 1_545
S23 Zn15 2.334373 1_445
S23 Zn15 2.334374 1_555
S24 Zn14 2.333001 1_565
S24 Zn14 2.333004 1_665
S24 Zn14 2.333004 1_555
S24 Zn15 2.337353 1_555
S25 Zn21 2.331938 1_555
S25 Zn3 2.333376 1_655
S25 Zn3 2.333376 1_545
S25 Zn3 2.333382 1_555
