# generated using pymatgen
data_CrCl3
_symmetry_space_group_name_H-M   'P 1'
_cell_length_a   5.99311624
_cell_length_b   5.99311028
_cell_length_c   19.45758798
_cell_angle_alpha   90.00133745
_cell_angle_beta   89.99955687
_cell_angle_gamma   120.00000812
_symmetry_Int_Tables_number   1
_chemical_formula_structural   CrCl3
_chemical_formula_sum   'Cr6 Cl18'
_cell_volume   605.23574498
_cell_formula_units_Z   6
loop_
 _symmetry_equiv_pos_site_id
 _symmetry_equiv_pos_as_xyz
  1  'x, y, z'
loop_
 _atom_site_type_symbol
 _atom_site_label
 _atom_site_symmetry_multiplicity
 _atom_site_fract_x
 _atom_site_fract_y
 _atom_site_fract_z
 _atom_site_occupancy
  Cr  Cr0  1  0.88881042  0.11115086  0.66664234  1
  Cr  Cr1  1  0.55546498  0.44450691  0.66664145  1
  Cr  Cr2  1  0.88882808  0.77766402  0.33338670  1
  Cr  Cr3  1  0.55547251  0.11095432  0.33338328  1
  Cr  Cr4  1  0.88906292  0.44453965  0.99996812  1
  Cr  Cr5  1  0.22235204  0.11119288  0.99996862  1
  Cl  Cl0  1  0.91165363  0.77781927  0.93124560  1
  Cl  Cl1  1  0.86615063  0.42172352  0.59793422  1
  Cl  Cl2  1  0.91178274  0.13397559  0.06872323  1
  Cl  Cl3  1  0.22222228  0.80050833  0.26465644  1
  Cl  Cl4  1  0.22222908  0.42175894  0.73537281  1
  Cl  Cl5  1  0.86608624  0.77780650  0.73538491  1
  Cl  Cl6  1  0.22218955  0.08836079  0.40209038  1
  Cl  Cl7  1  0.57832868  0.44441083  0.26466591  1
  Cl  Cl8  1  0.57827721  0.13386234  0.73536536  1
  Cl  Cl9  1  0.19961277  0.42183810  0.93125257  1
  Cl  Cl10  1  0.86620628  0.44441914  0.40207127  1
  Cl  Cl11  1  0.19949538  0.77778715  0.06871113  1
  Cl  Cl12  1  0.55560032  0.42169120  0.06870047  1
  Cl  Cl13  1  0.57816780  0.80040439  0.40208170  1
  Cl  Cl14  1  0.57820912  0.77775561  0.59792497  1
  Cl  Cl15  1  0.22217482  0.13386453  0.59791600  1
  Cl  Cl16  1  0.86603550  0.08821338  0.26464403  1
  Cl  Cl17  1  0.55558803  0.13379176  0.93126549  1
loop_
_geom_bond_atom_site_label_1
_geom_bond_atom_site_label_2
_geom_bond_distance
_geom_bond_site_symmetry_2
Cl0 Cr4 2.350659 1_555
Cl0 Cr5 2.350897 1_665
Cl1 Cr0 2.350115 1_555
Cl1 Cr1 2.350963 1_555
Cl2 Cr4 2.350756 1_554
Cl2 Cr5 2.350914 1_654
Cl3 Cr3 2.350051 1_565
Cl3 Cr2 2.350719 1_455
Cl4 Cr1 2.350165 1_555
Cl4 Cr0 2.350906 1_455
Cl5 Cr1 2.350752 1_555
Cl5 Cr0 2.350906 1_565
Cl6 Cr3 2.350467 1_555
Cl6 Cr2 2.350649 1_445
Cl7 Cr2 2.350107 1_555
Cl7 Cr3 2.350888 1_555
Cl8 Cr0 2.350193 1_555
Cl8 Cr1 2.351058 1_555
Cl9 Cr4 2.350165 1_455
Cl9 Cr5 2.350776 1_555
Cl10 Cr2 2.350000 1_555
Cl10 Cr3 2.350836 1_555
Cl11 Cr4 2.350191 1_454
Cl11 Cr5 2.350916 1_564
Cl12 Cr5 2.350217 1_554
Cl12 Cr4 2.351070 1_554
Cl13 Cr3 2.349992 1_565
Cl13 Cr2 2.350586 1_555
Cl14 Cr1 2.350102 1_555
Cl14 Cr0 2.350680 1_565
Cl15 Cr1 2.350577 1_555
Cl15 Cr0 2.350817 1_455
Cl16 Cr3 2.350599 1_555
Cl16 Cr2 2.350744 1_545
Cl17 Cr5 2.350180 1_555
Cl17 Cr4 2.351059 1_555
