# generated using pymatgen
data_TlSbO3
_symmetry_space_group_name_H-M   'P 1'
_cell_length_a   5.33070696
_cell_length_b   5.33070662
_cell_length_c   14.72638829
_cell_angle_alpha   90.00000000
_cell_angle_beta   90.00000000
_cell_angle_gamma   120.00000214
_symmetry_Int_Tables_number   1
_chemical_formula_structural   TlSbO3
_chemical_formula_sum   'Tl4 Sb4 O12'
_cell_volume   362.40690172
_cell_formula_units_Z   4
loop_
 _symmetry_equiv_pos_site_id
 _symmetry_equiv_pos_as_xyz
  1  'x, y, z'
loop_
 _atom_site_type_symbol
 _atom_site_label
 _atom_site_symmetry_multiplicity
 _atom_site_fract_x
 _atom_site_fract_y
 _atom_site_fract_z
 _atom_site_occupancy
  Tl  Tl0  1  0.66666700  0.33333300  0.92916235  1
  Tl  Tl1  1  0.33333300  0.66666700  0.42916235  1
  Tl  Tl2  1  0.33333300  0.66666700  0.07083765  1
  Tl  Tl3  1  0.66666700  0.33333300  0.57083765  1
  Sb  Sb0  1  0.66666700  0.33333300  0.25000000  1
  Sb  Sb1  1  -0.00000000  -0.00000000  0.25000000  1
  Sb  Sb2  1  0.33333300  0.66666700  0.75000000  1
  Sb  Sb3  1  -0.00000000  -0.00000000  0.75000000  1
  O  O0  1  0.28590091  0.33332517  0.82519790  1
  O  O1  1  0.71410009  0.04742426  0.32519790  1
  O  O2  1  0.71410009  0.66667483  0.17480210  1
  O  O3  1  0.04742426  0.33332517  0.67480210  1
  O  O4  1  0.95257574  0.28590091  0.17480210  1
  O  O5  1  0.33332517  0.04742426  0.17480210  1
  O  O6  1  0.66667483  0.71410009  0.67480210  1
  O  O7  1  0.04742426  0.71410009  0.82519790  1
  O  O8  1  0.33332517  0.28590091  0.32519790  1
  O  O9  1  0.66667483  0.95257574  0.82519790  1
  O  O10  1  0.95257574  0.66667483  0.32519790  1
  O  O11  1  0.28590091  0.95257574  0.67480210  1
loop_
_geom_bond_atom_site_label_1
_geom_bond_atom_site_label_2
_geom_bond_distance
_geom_bond_site_symmetry_2
O0 Sb3 1.999565 1_555
O0 Sb2 1.999625 1_555
O0 Tl0 2.542407 1_555
O1 Sb1 1.999560 1_655
O1 Sb0 1.999623 1_555
O1 Tl1 2.542407 1_545
O2 Sb1 1.999563 1_665
O2 Sb0 1.999623 1_555
O2 Tl2 2.542412 1_555
O3 Sb3 1.999565 1_555
O3 Sb2 1.999623 1_555
O3 Tl3 2.542403 1_455
O4 Sb1 1.999565 1_655
O4 Sb0 1.999620 1_555
O4 Tl2 2.542405 1_655
O5 Sb1 1.999565 1_555
O5 Sb0 1.999623 1_555
O5 Tl2 2.542403 1_545
O6 Sb3 1.999563 1_665
O6 Sb2 1.999623 1_555
O6 Tl3 2.542412 1_555
O7 Sb3 1.999560 1_565
O7 Sb2 1.999623 1_555
O7 Tl0 2.542407 1_455
O8 Sb1 1.999565 1_555
O8 Sb0 1.999625 1_555
O8 Tl1 2.542407 1_555
O9 Sb3 1.999565 1_665
O9 Sb2 1.999623 1_555
O9 Tl0 2.542403 1_565
O10 Sb1 1.999565 1_665
O10 Sb0 1.999623 1_555
O10 Tl1 2.542403 1_655
O11 Sb3 1.999565 1_565
O11 Sb2 1.999620 1_555
O11 Tl3 2.542405 1_565
