# generated using pymatgen
data_BaF2
_symmetry_space_group_name_H-M   'P 1'
_cell_length_a   4.05260891
_cell_length_b   6.71352662
_cell_length_c   7.97851119
_cell_angle_alpha   90.00000000
_cell_angle_beta   90.00000000
_cell_angle_gamma   90.00000000
_symmetry_Int_Tables_number   1
_chemical_formula_structural   BaF2
_chemical_formula_sum   'Ba4 F8'
_cell_volume   217.07372993
_cell_formula_units_Z   4
loop_
 _symmetry_equiv_pos_site_id
 _symmetry_equiv_pos_as_xyz
  1  'x, y, z'
loop_
 _atom_site_type_symbol
 _atom_site_label
 _atom_site_symmetry_multiplicity
 _atom_site_fract_x
 _atom_site_fract_y
 _atom_site_fract_z
 _atom_site_occupancy
  Ba  Ba0  1  0.75000000  0.74916096  0.61679059  1
  Ba  Ba1  1  0.25000000  0.75083904  0.11679059  1
  Ba  Ba2  1  0.25000000  0.25083904  0.38320941  1
  Ba  Ba3  1  0.75000000  0.24916096  0.88320941  1
  F  F0  1  0.25000000  0.53040826  0.82958607  1
  F  F1  1  0.25000000  0.14232027  0.06930780  1
  F  F2  1  0.75000000  0.46959174  0.17041393  1
  F  F3  1  0.75000000  0.85767973  0.93069220  1
  F  F4  1  0.75000000  0.96959174  0.32958607  1
  F  F5  1  0.75000000  0.35767973  0.56930780  1
  F  F6  1  0.25000000  0.64232027  0.43069220  1
  F  F7  1  0.25000000  0.03040826  0.67041393  1
loop_
_geom_bond_atom_site_label_1
_geom_bond_atom_site_label_2
_geom_bond_distance
_geom_bond_site_symmetry_2
Ba0 F3 2.608282 1_555
Ba0 F6 2.612469 1_555
Ba0 F6 2.612469 1_655
Ba0 F5 2.655383 1_555
Ba0 F4 2.727786 1_555
Ba0 F7 2.802518 1_565
Ba0 F7 2.802518 1_665
Ba0 F0 3.024103 1_555
Ba0 F0 3.024103 1_655
Ba1 F6 2.608282 1_555
Ba1 F3 2.612469 1_554
Ba1 F3 2.612469 1_454
Ba1 F1 2.655383 1_565
Ba1 F0 2.727786 1_554
Ba1 F2 2.802518 1_555
Ba1 F2 2.802518 1_455
Ba1 F4 3.024103 1_555
Ba1 F4 3.024103 1_455
Ba2 F1 2.608282 1_555
Ba2 F5 2.612469 1_455
Ba2 F5 2.612469 1_555
Ba2 F6 2.655383 1_555
Ba2 F7 2.727786 1_555
Ba2 F4 2.802518 1_545
Ba2 F4 2.802518 1_445
Ba2 F2 3.024103 1_455
Ba2 F2 3.024103 1_555
Ba3 F5 2.608282 1_555
Ba3 F1 2.612469 1_656
Ba3 F1 2.612469 1_556
Ba3 F3 2.655383 1_545
Ba3 F2 2.727786 1_556
Ba3 F0 2.802518 1_555
Ba3 F0 2.802518 1_655
Ba3 F7 3.024103 1_655
Ba3 F7 3.024103 1_555
