# generated using pymatgen
data_Na3B5SO8
_symmetry_space_group_name_H-M   'P 1'
_cell_length_a   6.32610100
_cell_length_b   11.07041400
_cell_length_c   11.62184086
_cell_angle_alpha   86.61512829
_cell_angle_beta   90.00000000
_cell_angle_gamma   90.00000000
_symmetry_Int_Tables_number   1
_chemical_formula_structural   Na3B5SO8
_chemical_formula_sum   'Na12 B20 S4 O32'
_cell_volume   812.48733306
_cell_formula_units_Z   4
loop_
 _symmetry_equiv_pos_site_id
 _symmetry_equiv_pos_as_xyz
  1  'x, y, z'
loop_
 _atom_site_type_symbol
 _atom_site_label
 _atom_site_symmetry_multiplicity
 _atom_site_fract_x
 _atom_site_fract_y
 _atom_site_fract_z
 _atom_site_occupancy
  Na  Na0  1  0.30697100  0.80262000  0.47488900  1
  Na  Na1  1  0.80697100  0.69738000  0.52511100  1
  Na  Na2  1  0.92269800  0.64653500  0.78937200  1
  Na  Na3  1  0.21731000  0.10922900  0.02053600  1
  Na  Na4  1  0.07730200  0.35346500  0.21062800  1
  Na  Na5  1  0.71731000  0.39077100  0.97946400  1
  Na  Na6  1  0.28269000  0.60922900  0.02053600  1
  Na  Na7  1  0.78269000  0.89077100  0.97946400  1
  Na  Na8  1  0.42269800  0.85346500  0.21062800  1
  Na  Na9  1  0.69302900  0.19738000  0.52511100  1
  Na  Na10  1  0.57730200  0.14653500  0.78937200  1
  Na  Na11  1  0.19302900  0.30262000  0.47488900  1
  B  B0  1  0.98758700  0.95607400  0.67491600  1
  B  B1  1  0.40512700  0.67281000  0.70140400  1
  B  B2  1  0.38362200  0.81671200  0.85946500  1
  B  B3  1  0.66061600  0.97860800  0.37789400  1
  B  B4  1  0.59487300  0.32719000  0.29859600  1
  B  B5  1  0.88362200  0.68328800  0.14053500  1
  B  B6  1  0.38684200  0.12747200  0.31229100  1
  B  B7  1  0.61315800  0.87252800  0.68770900  1
  B  B8  1  0.48758700  0.54392600  0.32508400  1
  B  B9  1  0.33938400  0.02139200  0.62210600  1
  B  B10  1  0.88684200  0.37252800  0.68770900  1
  B  B11  1  0.90512700  0.82719000  0.29859600  1
  B  B12  1  0.09487300  0.17281000  0.70140400  1
  B  B13  1  0.11315800  0.62747200  0.31229100  1
  B  B14  1  0.11637800  0.31671200  0.85946500  1
  B  B15  1  0.61637800  0.18328800  0.14053500  1
  B  B16  1  0.01241300  0.04392600  0.32508400  1
  B  B17  1  0.16061600  0.52139200  0.62210600  1
  B  B18  1  0.83938400  0.47860800  0.37789400  1
  B  B19  1  0.51241300  0.45607400  0.67491600  1
  S  S0  1  0.75114000  0.13564700  0.01172400  1
  S  S1  1  0.24886000  0.86435300  0.98827600  1
  S  S2  1  0.25114000  0.36435300  0.98827600  1
  S  S3  1  0.74886000  0.63564700  0.01172400  1
  O  O0  1  0.82008300  0.06550900  0.38092100  1
  O  O1  1  0.97605200  0.26647400  0.63764800  1
  O  O2  1  0.17991700  0.93449100  0.61907900  1
  O  O3  1  0.04629400  0.61480600  0.19059700  1
  O  O4  1  0.95370600  0.38519400  0.80940300  1
  O  O5  1  0.32036600  0.71034100  0.81292800  1
  O  O6  1  0.95388700  0.06454600  0.72180600  1
  O  O7  1  0.71174300  0.85939000  0.36730200  1
  O  O8  1  0.54611300  0.56454600  0.72180600  1
  O  O9  1  0.34664700  0.63818000  0.32093800  1
  O  O10  1  0.17963400  0.21034100  0.81292800  1
  O  O11  1  0.45171400  0.01151500  0.37787700  1
  O  O12  1  0.95171400  0.48848500  0.62212300  1
  O  O13  1  0.04828600  0.51151500  0.37787700  1
  O  O14  1  0.21174300  0.64061000  0.63269800  1
  O  O15  1  0.84664700  0.86182000  0.67906200  1
  O  O16  1  0.54629400  0.88519400  0.80940300  1
  O  O17  1  0.15335300  0.13818000  0.32093800  1
  O  O18  1  0.45388700  0.43545400  0.27819400  1
  O  O19  1  0.82036600  0.78965900  0.18707200  1
  O  O20  1  0.54828600  0.98848500  0.62212300  1
  O  O21  1  0.52394800  0.76647400  0.63764800  1
  O  O22  1  0.67963400  0.28965900  0.18707200  1
  O  O23  1  0.67991700  0.56550900  0.38092100  1
  O  O24  1  0.32008300  0.43449100  0.61907900  1
  O  O25  1  0.45370600  0.11480600  0.19059700  1
  O  O26  1  0.78825700  0.35939000  0.36730200  1
  O  O27  1  0.04611300  0.93545400  0.27819400  1
  O  O28  1  0.28825700  0.14061000  0.63269800  1
  O  O29  1  0.02394800  0.73352600  0.36235200  1
  O  O30  1  0.65335300  0.36182000  0.67906200  1
  O  O31  1  0.47605200  0.23352600  0.36235200  1
loop_
_geom_bond_atom_site_label_1
_geom_bond_atom_site_label_2
_geom_bond_distance
_geom_bond_site_symmetry_2
Na0 O21 2.352194 1_555
Na0 O29 2.370531 1_555
Na0 O2 2.423688 1_555
Na0 O14 2.560246 1_555
Na0 O9 2.638703 1_555
Na0 O11 2.673876 1_565
Na0 O7 2.902136 1_555
Na1 O29 2.352194 1_655
Na1 O21 2.370531 1_555
Na1 O23 2.423688 1_555
Na1 O7 2.560246 1_555
Na1 O15 2.638703 1_555
Na1 O12 2.673876 1_555
Na1 O14 2.902136 1_655
Na2 O14 2.584063 1_655
Na2 O5 2.631617 1_655
Na2 O15 2.682218 1_555
Na2 O8 2.683286 1_555
Na2 O12 2.697184 1_555
Na2 S3 2.804443 1_556
Na2 O4 2.895423 1_555
Na3 O25 2.482112 1_555
Na3 O10 2.610053 1_554
Na3 S1 2.765734 1_544
Na3 S2 2.835164 1_554
Na3 S0 2.964677 1_455
Na4 O26 2.584063 1_455
Na4 O22 2.631617 1_455
Na4 O17 2.682218 1_555
Na4 O18 2.683286 1_555
Na4 O13 2.697184 1_555
Na4 S2 2.804443 1_554
Na4 O3 2.895423 1_555
Na5 O4 2.482112 1_555
Na5 O22 2.610053 1_556
Na5 S3 2.765734 1_556
Na5 S0 2.835164 1_556
Na5 S2 2.964677 1_555
Na6 O3 2.482112 1_555
Na6 O5 2.610053 1_554
Na6 S2 2.765734 1_554
Na6 S1 2.835164 1_554
Na6 S3 2.964677 1_555
Na7 O16 2.482112 1_555
Na7 O19 2.610053 1_556
Na7 S0 2.765734 1_566
Na7 S3 2.835164 1_556
Na7 S1 2.964677 1_655
Na8 O7 2.584063 1_555
Na8 O19 2.631617 1_555
Na8 O9 2.682218 1_555
Na8 O27 2.683286 1_555
Na8 O11 2.697184 1_565
Na8 S1 2.804443 1_554
Na8 O25 2.895423 1_565
Na9 O31 2.352194 1_555
Na9 O1 2.370531 1_555
Na9 O0 2.423688 1_555
Na9 O26 2.560246 1_555
Na9 O30 2.638703 1_555
Na9 O20 2.673876 1_545
Na9 O28 2.902136 1_555
Na10 O28 2.584063 1_555
Na10 O10 2.631617 1_555
Na10 O30 2.682218 1_555
Na10 O6 2.683286 1_555
Na10 O20 2.697184 1_545
Na10 S0 2.804443 1_556
Na10 O16 2.895423 1_545
Na11 O1 2.352194 1_455
Na11 O31 2.370531 1_555
Na11 O24 2.423688 1_555
Na11 O28 2.560246 1_555
Na11 O17 2.638703 1_555
Na11 O13 2.673876 1_555
Na11 O26 2.902136 1_455
B0 O6 1.364436 1_565
B0 O15 1.371162 1_555
B0 O2 1.406010 1_655
B1 O21 1.448611 1_555
B1 O5 1.484469 1_555
B1 O8 1.501533 1_555
B1 O14 1.514890 1_555
B2 O5 1.383664 1_555
B2 O16 1.385704 1_555
B2 S1 1.827361 1_555
B3 O11 1.370823 1_565
B3 O7 1.371423 1_555
B3 O0 1.395859 1_565
B4 O31 1.448611 1_555
B4 O22 1.484469 1_555
B4 O18 1.501533 1_555
B4 O26 1.514890 1_555
B5 O19 1.383664 1_555
B5 O3 1.385704 1_655
B5 S3 1.827361 1_555
B6 O31 1.454671 1_555
B6 O17 1.485701 1_555
B6 O25 1.490727 1_555
B6 O11 1.510541 1_555
B7 O21 1.454671 1_555
B7 O15 1.485701 1_555
B7 O16 1.490727 1_555
B7 O20 1.510541 1_555
B8 O18 1.364436 1_555
B8 O9 1.371162 1_555
B8 O23 1.406010 1_555
B9 O20 1.370823 1_545
B9 O28 1.371423 1_555
B9 O2 1.395859 1_545
B10 O1 1.454671 1_555
B10 O30 1.485701 1_555
B10 O4 1.490727 1_555
B10 O12 1.510541 1_555
B11 O29 1.448611 1_655
B11 O19 1.484469 1_555
B11 O27 1.501533 1_655
B11 O7 1.514890 1_555
B12 O1 1.448611 1_455
B12 O10 1.484469 1_555
B12 O6 1.501533 1_455
B12 O28 1.514890 1_555
B13 O29 1.454671 1_555
B13 O9 1.485701 1_555
B13 O3 1.490727 1_555
B13 O13 1.510541 1_555
B14 O10 1.383664 1_555
B14 O4 1.385704 1_455
B14 S2 1.827361 1_555
B15 O22 1.383664 1_555
B15 O25 1.385704 1_555
B15 S0 1.827361 1_555
B16 O27 1.364436 1_545
B16 O17 1.371162 1_555
B16 O0 1.406010 1_455
B17 O12 1.370823 1_455
B17 O14 1.371423 1_555
B17 O24 1.395859 1_555
B18 O13 1.370823 1_655
B18 O26 1.371423 1_555
B18 O23 1.395859 1_555
B19 O8 1.364436 1_555
B19 O30 1.371162 1_555
B19 O24 1.406010 1_555
