# generated using pymatgen
data_LaFe12O19
_symmetry_space_group_name_H-M   'P 1'
_cell_length_a   6.00845914
_cell_length_b   6.00845914
_cell_length_c   23.08408900
_cell_angle_alpha   90.00000000
_cell_angle_beta   90.00000000
_cell_angle_gamma   119.99999049
_symmetry_Int_Tables_number   1
_chemical_formula_structural   LaFe12O19
_chemical_formula_sum   'La2 Fe24 O38'
_cell_volume   721.72149004
_cell_formula_units_Z   2
loop_
 _symmetry_equiv_pos_site_id
 _symmetry_equiv_pos_as_xyz
  1  'x, y, z'
loop_
 _atom_site_type_symbol
 _atom_site_label
 _atom_site_symmetry_multiplicity
 _atom_site_fract_x
 _atom_site_fract_y
 _atom_site_fract_z
 _atom_site_occupancy
  La  La0  1  0.66666700  0.33333300  0.25000000  1
  La  La1  1  0.33333300  0.66666700  0.75000000  1
  Fe  Fe0  1  0.16746600  0.83253400  0.60940200  1
  Fe  Fe1  1  0.83253400  0.16746600  0.39059800  1
  Fe  Fe2  1  0.33333300  0.66666700  0.47185600  1
  Fe  Fe3  1  0.33333300  0.66666700  0.02814400  1
  Fe  Fe4  1  0.16746600  0.33493300  0.89059800  1
  Fe  Fe5  1  0.66666700  0.33333300  0.97185600  1
  Fe  Fe6  1  0.66666700  0.33333300  0.68994200  1
  Fe  Fe7  1  0.33333300  0.66666700  0.31005800  1
  Fe  Fe8  1  0.66506700  0.83253400  0.89059800  1
  Fe  Fe9  1  0.33493300  0.16746600  0.39059800  1
  Fe  Fe10  1  0.83253400  0.66506700  0.10940200  1
  Fe  Fe11  1  0.83253400  0.16746600  0.10940200  1
  Fe  Fe12  1  0.33333300  0.66666700  0.18994200  1
  Fe  Fe13  1  0.66506700  0.83253400  0.60940200  1
  Fe  Fe14  1  0.00000000  0.00000000  0.25000000  1
  Fe  Fe15  1  0.66666700  0.33333300  0.81005800  1
  Fe  Fe16  1  0.66666700  0.33333300  0.52814400  1
  Fe  Fe17  1  0.16746600  0.33493300  0.60940200  1
  Fe  Fe18  1  0.83253400  0.66506700  0.39059800  1
  Fe  Fe19  1  0.16746600  0.83253400  0.89059800  1
  Fe  Fe20  1  0.00000000  0.00000000  0.75000000  1
  Fe  Fe21  1  0.33493300  0.16746600  0.10940200  1
  Fe  Fe22  1  0.00000000  0.00000000  0.50000000  1
  Fe  Fe23  1  0.00000000  0.00000000  0.00000000  1
  O  O0  1  0.51221900  0.02443900  0.15661500  1
  O  O1  1  0.83982600  0.67965200  0.55703600  1
  O  O2  1  0.63477000  0.81738500  0.25000000  1
  O  O3  1  0.02443900  0.51221900  0.84338500  1
  O  O4  1  0.36523000  0.18261500  0.75000000  1
  O  O5  1  0.51221900  0.02443900  0.34338500  1
  O  O6  1  0.83982600  0.67965200  0.94296400  1
  O  O7  1  0.32034800  0.16017400  0.94296400  1
  O  O8  1  0.00000000  0.00000000  0.84577000  1
  O  O9  1  0.18261500  0.36523000  0.25000000  1
  O  O10  1  0.48778100  0.51221900  0.65661500  1
  O  O11  1  0.00000000  0.00000000  0.15423000  1
  O  O12  1  0.67965200  0.83982600  0.05703600  1
  O  O13  1  0.16017400  0.32034800  0.44296400  1
  O  O14  1  0.16017400  0.83982600  0.05703600  1
  O  O15  1  0.83982600  0.16017400  0.55703600  1
  O  O16  1  0.81738500  0.18261500  0.75000000  1
  O  O17  1  0.33333300  0.66666700  0.55699200  1
  O  O18  1  0.48778100  0.97556100  0.65661500  1
  O  O19  1  0.97556100  0.48778100  0.15661500  1
  O  O20  1  0.48778100  0.97556100  0.84338500  1
  O  O21  1  0.33333300  0.66666700  0.94300800  1
  O  O22  1  0.00000000  0.00000000  0.34577000  1
  O  O23  1  0.83982600  0.16017400  0.94296400  1
  O  O24  1  0.67965200  0.83982600  0.44296400  1
  O  O25  1  0.48778100  0.51221900  0.84338500  1
  O  O26  1  0.66666700  0.33333300  0.05699200  1
  O  O27  1  0.51221900  0.48778100  0.34338500  1
  O  O28  1  0.00000000  0.00000000  0.65423000  1
  O  O29  1  0.97556100  0.48778100  0.34338500  1
  O  O30  1  0.18261500  0.81738500  0.25000000  1
  O  O31  1  0.02443900  0.51221900  0.65661500  1
  O  O32  1  0.32034800  0.16017400  0.55703600  1
  O  O33  1  0.51221900  0.48778100  0.15661500  1
  O  O34  1  0.66666700  0.33333300  0.44300800  1
  O  O35  1  0.16017400  0.83982600  0.44296400  1
  O  O36  1  0.81738500  0.63477000  0.75000000  1
  O  O37  1  0.16017400  0.32034800  0.05703600  1
loop_
_geom_bond_atom_site_label_1
_geom_bond_atom_site_label_2
_geom_bond_distance
_geom_bond_site_symmetry_2
La0 O29 2.688971 1_555
La0 O19 2.688971 1_555
La0 O5 2.688971 1_555
La0 O0 2.688971 1_555
La0 O33 2.688977 1_555
La0 O27 2.688977 1_555
La0 O9 3.008808 1_655
La0 O2 3.008808 1_545
La0 O30 3.008811 1_655
La0 O30 3.008811 1_545
La0 O2 3.008814 1_555
La0 O9 3.008814 1_555
La1 O20 2.688971 1_555
La1 O3 2.688971 1_555
La1 O18 2.688971 1_555
La1 O31 2.688971 1_555
La1 O25 2.688977 1_555
La1 O10 2.688977 1_555
La1 O4 3.008808 1_565
La1 O36 3.008808 1_455
La1 O16 3.008811 1_565
La1 O16 3.008811 1_455
La1 O36 3.008814 1_555
La1 O4 3.008814 1_555
Fe0 O18 1.994109 1_555
Fe0 O31 1.994109 1_555
Fe0 O28 2.026877 1_565
Fe0 O32 2.090967 1_565
Fe0 O1 2.090967 1_455
Fe0 O17 2.107930 1_555
Fe1 O29 1.994109 1_555
Fe1 O5 1.994109 1_555
Fe1 O22 2.026877 1_655
Fe1 O13 2.090967 1_655
Fe1 O24 2.090967 1_545
Fe1 O34 2.107930 1_555
Fe2 O35 1.921518 1_555
Fe2 O24 1.921523 1_555
Fe2 O13 1.921523 1_555
Fe2 O17 1.965287 1_555
Fe3 O14 1.921518 1_555
Fe3 O12 1.921523 1_555
Fe3 O37 1.921523 1_555
Fe3 O21 1.965287 1_554
Fe4 O3 1.994100 1_555
Fe4 O25 1.994109 1_555
Fe4 O8 2.026882 1_555
Fe4 O23 2.090967 1_455
Fe4 O7 2.090971 1_555
Fe4 O21 2.107931 1_555
Fe5 O23 1.921518 1_555
Fe5 O6 1.921523 1_555
Fe5 O7 1.921523 1_555
Fe5 O26 1.965287 1_556
Fe6 O10 2.014356 1_555
Fe6 O31 2.014357 1_655
Fe6 O18 2.014357 1_545
Fe6 O16 2.093395 1_555
Fe6 O4 2.093399 1_555
Fe6 O36 2.093399 1_555
Fe7 O27 2.014356 1_555
Fe7 O5 2.014357 1_565
Fe7 O29 2.014357 1_455
Fe7 O30 2.093395 1_555
Fe7 O9 2.093399 1_555
Fe7 O2 2.093399 1_555
Fe8 O20 1.994100 1_555
Fe8 O25 1.994109 1_555
Fe8 O8 2.026882 1_665
Fe8 O23 2.090967 1_565
Fe8 O6 2.090971 1_555
Fe8 O21 2.107931 1_555
Fe9 O5 1.994100 1_555
Fe9 O27 1.994109 1_555
Fe9 O22 2.026882 1_555
Fe9 O35 2.090967 1_545
Fe9 O13 2.090971 1_555
Fe9 O34 2.107931 1_555
Fe10 O19 1.994100 1_555
Fe10 O33 1.994109 1_555
Fe10 O11 2.026882 1_665
Fe10 O14 2.090967 1_655
Fe10 O12 2.090971 1_555
Fe10 O26 2.107931 1_555
Fe11 O19 1.994109 1_555
Fe11 O0 1.994109 1_555
Fe11 O11 2.026877 1_655
Fe11 O37 2.090967 1_655
Fe11 O12 2.090967 1_545
Fe11 O26 2.107930 1_555
Fe12 O33 2.014356 1_555
Fe12 O0 2.014357 1_565
Fe12 O19 2.014357 1_455
Fe12 O30 2.093395 1_555
Fe12 O9 2.093399 1_555
Fe12 O2 2.093399 1_555
Fe13 O18 1.994100 1_555
Fe13 O10 1.994109 1_555
Fe13 O28 2.026882 1_665
Fe13 O15 2.090967 1_565
Fe13 O1 2.090971 1_555
Fe13 O17 2.107931 1_555
Fe14 O30 1.900466 1_545
Fe14 O2 1.900467 1_445
Fe14 O9 1.900467 1_555
Fe14 O11 2.210763 1_555
Fe14 O22 2.210763 1_555
Fe15 O25 2.014356 1_555
Fe15 O3 2.014357 1_655
Fe15 O20 2.014357 1_545
Fe15 O16 2.093395 1_555
Fe15 O36 2.093399 1_555
Fe15 O4 2.093399 1_555
Fe16 O15 1.921518 1_555
Fe16 O1 1.921523 1_555
Fe16 O32 1.921523 1_555
Fe16 O34 1.965287 1_555
Fe17 O31 1.994100 1_555
Fe17 O10 1.994109 1_555
Fe17 O28 2.026882 1_555
Fe17 O15 2.090967 1_455
Fe17 O32 2.090971 1_555
Fe17 O17 2.107931 1_555
Fe18 O29 1.994100 1_555
Fe18 O27 1.994109 1_555
Fe18 O22 2.026882 1_665
Fe18 O35 2.090967 1_655
Fe18 O24 2.090971 1_555
Fe18 O34 2.107931 1_555
Fe19 O20 1.994109 1_555
Fe19 O3 1.994109 1_555
Fe19 O8 2.026877 1_565
Fe19 O7 2.090967 1_565
Fe19 O6 2.090967 1_455
Fe19 O21 2.107930 1_555
Fe20 O16 1.900466 1_455
Fe20 O36 1.900467 1_445
Fe20 O4 1.900467 1_555
Fe20 O28 2.210763 1_555
Fe20 O8 2.210763 1_555
Fe21 O0 1.994100 1_555
Fe21 O33 1.994109 1_555
Fe21 O11 2.026882 1_555
Fe21 O14 2.090967 1_545
Fe21 O37 2.090971 1_555
Fe21 O26 2.107931 1_555
Fe22 O15 2.124178 1_455
Fe22 O35 2.124178 1_545
Fe22 O32 2.124179 1_555
Fe22 O1 2.124179 1_445
Fe22 O13 2.124179 1_555
Fe22 O24 2.124179 1_445
Fe23 O14 2.124178 1_545
Fe23 O23 2.124178 1_454
Fe23 O37 2.124179 1_555
Fe23 O12 2.124179 1_445
Fe23 O7 2.124179 1_554
Fe23 O6 2.124179 1_444
