# generated using pymatgen
data_CuBi2(SeO3)4
_symmetry_space_group_name_H-M   'P 1'
_cell_length_a   4.39287696
_cell_length_b   8.21496585
_cell_length_c   15.86826669
_cell_angle_alpha   90.01548812
_cell_angle_beta   90.00474815
_cell_angle_gamma   95.19689651
_symmetry_Int_Tables_number   1
_chemical_formula_structural   CuBi2(SeO3)4
_chemical_formula_sum   'Cu2 Bi4 Se8 O24'
_cell_volume   570.28945777
_cell_formula_units_Z   2
loop_
 _symmetry_equiv_pos_site_id
 _symmetry_equiv_pos_as_xyz
  1  'x, y, z'
loop_
 _atom_site_type_symbol
 _atom_site_label
 _atom_site_symmetry_multiplicity
 _atom_site_fract_x
 _atom_site_fract_y
 _atom_site_fract_z
 _atom_site_occupancy
  Cu  Cu0  1  -0.00000000  0.00000000  0.00000000  1
  Cu  Cu1  1  -0.00000000  0.50000000  0.50000000  1
  Bi  Bi0  1  0.50075602  0.54036018  0.27239394  1
  Bi  Bi1  1  0.49924398  0.45963982  0.72760606  1
  Bi  Bi2  1  0.49908450  0.95955906  0.77265767  1
  Bi  Bi3  1  0.50091550  0.04044094  0.22734233  1
  Se  Se0  1  0.44724491  0.25511467  0.42905292  1
  Se  Se1  1  0.02599187  0.37051259  0.12636156  1
  Se  Se2  1  0.55279932  0.24503031  0.92920616  1
  Se  Se3  1  0.44720068  0.75496969  0.07079384  1
  Se  Se4  1  0.97400813  0.62948741  0.87363844  1
  Se  Se5  1  0.97379653  0.12943248  0.62673777  1
  Se  Se6  1  0.55275509  0.74488533  0.57094708  1
  Se  Se7  1  0.02620347  0.87056752  0.37326223  1
  O  O0  1  0.53971119  0.76063093  0.17761283  1
  O  O1  1  0.41338685  0.88849120  0.35246043  1
  O  O2  1  0.95395580  0.97632075  0.28064472  1
  O  O3  1  0.58681540  0.61159733  0.85278390  1
  O  O4  1  0.06662796  0.82880400  0.85096569  1
  O  O5  1  0.58661315  0.11150880  0.64753857  1
  O  O6  1  0.79462896  0.28354469  0.47570393  1
  O  O7  1  0.66912071  0.55185417  0.57174569  1
  O  O8  1  0.06628333  0.32871573  0.64953523  1
  O  O9  1  0.79470811  0.78344780  0.02424743  1
  O  O10  1  0.53992342  0.26074473  0.32224232  1
  O  O11  1  0.93371667  0.67128427  0.35046477  1
  O  O12  1  0.95367099  0.47610771  0.21904034  1
  O  O13  1  0.66905907  0.05198504  0.92834305  1
  O  O14  1  0.41318460  0.38840267  0.14721610  1
  O  O15  1  0.04604420  0.02367925  0.71935528  1
  O  O16  1  0.46007658  0.73925527  0.67775768  1
  O  O17  1  0.46028881  0.23936907  0.82238717  1
  O  O18  1  0.20537104  0.71645531  0.52429607  1
  O  O19  1  0.33087929  0.44814583  0.42825431  1
  O  O20  1  0.93337204  0.17119600  0.14903431  1
  O  O21  1  0.33094093  0.94801496  0.07165695  1
  O  O22  1  0.04632901  0.52389229  0.78095966  1
  O  O23  1  0.20529189  0.21655220  0.97575257  1
loop_
_geom_bond_atom_site_label_1
_geom_bond_atom_site_label_2
_geom_bond_distance
_geom_bond_site_symmetry_2
Cu0 O21 1.923864 1_545
Cu0 O13 1.923864 1_454
Cu0 O23 1.958533 1_554
Cu0 O9 1.958533 1_445
Cu1 O19 1.924181 1_555
Cu1 O7 1.924181 1_455
Cu1 O18 1.957908 1_555
Cu1 O6 1.957908 1_455
Bi0 O12 2.268078 1_555
Bi0 O0 2.347574 1_555
Bi0 O14 2.358696 1_555
Bi0 O11 2.436642 1_555
Bi0 O10 2.450348 1_555
Bi0 O12 2.557488 1_455
Bi0 O19 2.673302 1_555
Bi1 O22 2.268078 1_555
Bi1 O17 2.347574 1_555
Bi1 O3 2.358696 1_555
Bi1 O8 2.436642 1_555
Bi1 O16 2.450348 1_555
Bi1 O22 2.557488 1_655
Bi1 O7 2.673302 1_555
Bi2 O15 2.267914 1_565
Bi2 O16 2.348346 1_555
Bi2 O5 2.358479 1_565
Bi2 O4 2.436861 1_555
Bi2 O17 2.450605 1_565
Bi2 O15 2.556807 1_665
Bi2 O13 2.670798 1_565
Bi3 O2 2.267914 1_545
Bi3 O10 2.348346 1_555
Bi3 O1 2.358466 1_545
Bi3 O20 2.436861 1_555
Bi3 O0 2.450605 1_545
Bi3 O2 2.556807 1_445
Bi3 O21 2.670798 1_545
O0 Se3 1.742661 1_555
O1 Se7 1.725768 1_555
O2 Se7 1.750997 1_655
O3 Se4 1.725901 1_555
O4 Se4 1.689866 1_455
O5 Se5 1.725765 1_555
O6 Se0 1.693052 1_555
O7 Se6 1.709651 1_555
O8 Se5 1.689736 1_455
O9 Se3 1.692997 1_555
O10 Se0 1.742790 1_555
O11 Se7 1.689736 1_655
O12 Se1 1.750870 1_655
O13 Se2 1.709586 1_555
O14 Se1 1.725901 1_555
O15 Se5 1.750997 1_455
O16 Se6 1.742790 1_555
O17 Se2 1.742661 1_555
O18 Se6 1.693052 1_555
O19 Se0 1.709651 1_555
O20 Se1 1.689866 1_655
O21 Se3 1.709586 1_555
O22 Se4 1.750870 1_455
O23 Se2 1.692997 1_555
