# generated using pymatgen
data_Sr2BIN2
_symmetry_space_group_name_H-M   'P 1'
_cell_length_a   4.23943700
_cell_length_b   10.42051900
_cell_length_c   13.41209206
_cell_angle_alpha   88.58479848
_cell_angle_beta   90.00000000
_cell_angle_gamma   90.00000000
_symmetry_Int_Tables_number   1
_chemical_formula_structural   Sr2BIN2
_chemical_formula_sum   'Sr8 B4 I4 N8'
_cell_volume   592.32705427
_cell_formula_units_Z   4
loop_
 _symmetry_equiv_pos_site_id
 _symmetry_equiv_pos_as_xyz
  1  'x, y, z'
loop_
 _atom_site_type_symbol
 _atom_site_label
 _atom_site_symmetry_multiplicity
 _atom_site_fract_x
 _atom_site_fract_y
 _atom_site_fract_z
 _atom_site_occupancy
  Sr  Sr0  1  0.25000000  0.80452100  0.38339700  1
  Sr  Sr1  1  0.75000000  0.64843700  0.62941500  1
  Sr  Sr2  1  0.75000000  0.60441800  0.17469800  1
  Sr  Sr3  1  0.25000000  0.92441600  0.90437200  1
  Sr  Sr4  1  0.25000000  0.39558200  0.82530200  1
  Sr  Sr5  1  0.75000000  0.19547900  0.61660300  1
  Sr  Sr6  1  0.75000000  0.07558400  0.09562800  1
  Sr  Sr7  1  0.25000000  0.35156300  0.37058500  1
  B  B0  1  0.25000000  0.83903600  0.14728300  1
  B  B1  1  0.75000000  0.58333100  0.39553400  1
  B  B2  1  0.75000000  0.16096400  0.85271700  1
  B  B3  1  0.25000000  0.41666900  0.60446600  1
  I  I0  1  0.25000000  0.34742700  0.09617500  1
  I  I1  1  0.25000000  0.92110300  0.64202900  1
  I  I2  1  0.75000000  0.65257300  0.90382500  1
  I  I3  1  0.75000000  0.07889700  0.35797100  1
  N  N0  1  0.75000000  0.47764500  0.33964700  1
  N  N1  1  0.25000000  0.30529000  0.55519300  1
  N  N2  1  0.25000000  0.52235500  0.66035300  1
  N  N3  1  0.75000000  0.26894800  0.79475700  1
  N  N4  1  0.75000000  0.69471000  0.44480700  1
  N  N5  1  0.25000000  0.73105200  0.20524300  1
  N  N6  1  0.25000000  0.94717400  0.09053300  1
  N  N7  1  0.75000000  0.05282600  0.90946700  1
loop_
_geom_bond_atom_site_label_1
_geom_bond_atom_site_label_2
_geom_bond_distance
_geom_bond_site_symmetry_2
B0 N6 1.344159 1_555
B0 N5 1.351767 1_555
B1 N0 1.347400 1_555
B1 N4 1.349692 1_555
B2 N7 1.344159 1_555
B2 N3 1.351767 1_555
B3 N2 1.347400 1_555
B3 N1 1.349692 1_555
I0 Sr6 3.538182 1_555
I0 Sr6 3.538182 1_455
I0 Sr2 3.593499 1_455
I0 Sr2 3.593499 1_555
I0 Sr4 3.655168 1_554
I0 Sr7 3.681729 1_555
I1 Sr3 3.519590 1_555
I1 Sr1 3.552278 1_555
I1 Sr1 3.552278 1_455
I1 Sr5 3.568756 1_465
I1 Sr5 3.568756 1_565
I1 Sr0 3.703586 1_555
I2 Sr3 3.538182 1_555
I2 Sr3 3.538182 1_655
I2 Sr4 3.593499 1_555
I2 Sr4 3.593499 1_655
I2 Sr2 3.655168 1_556
I2 Sr1 3.681729 1_555
I3 Sr6 3.519590 1_555
I3 Sr7 3.552278 1_655
I3 Sr7 3.552278 1_555
I3 Sr0 3.568756 1_545
I3 Sr0 3.568756 1_645
I3 Sr5 3.703586 1_555
N0 Sr7 2.522822 1_655
N0 Sr7 2.522822 1_555
N0 Sr2 2.548550 1_555
N1 Sr7 2.510778 1_555
N1 Sr5 2.536617 1_555
N1 Sr5 2.536617 1_455
N2 Sr1 2.522822 1_555
N2 Sr1 2.522822 1_455
N2 Sr4 2.548550 1_555
N3 Sr5 2.527013 1_555
N3 Sr4 2.535560 1_655
N3 Sr4 2.535560 1_555
N4 Sr1 2.510778 1_555
N4 Sr0 2.536617 1_555
N4 Sr0 2.536617 1_655
N5 Sr0 2.527013 1_555
N5 Sr2 2.535560 1_555
N5 Sr2 2.535560 1_455
N6 Sr6 2.508566 1_565
N6 Sr6 2.508566 1_465
N6 Sr3 2.513870 1_554
N7 Sr3 2.508566 1_645
N7 Sr3 2.508566 1_545
N7 Sr6 2.513870 1_556
