# generated using pymatgen
data_K3Na2SnBi3
_symmetry_space_group_name_H-M   'P 1'
_cell_length_a   14.38106091
_cell_length_b   14.38106091
_cell_length_c   14.38106091
_cell_angle_alpha   150.72637093
_cell_angle_beta   106.13385150
_cell_angle_gamma   81.36283470
_symmetry_Int_Tables_number   1
_chemical_formula_structural   K3Na2SnBi3
_chemical_formula_sum   'K12 Na8 Sn4 Bi12'
_cell_volume   1369.86886236
_cell_formula_units_Z   4
loop_
 _symmetry_equiv_pos_site_id
 _symmetry_equiv_pos_as_xyz
  1  'x, y, z'
loop_
 _atom_site_type_symbol
 _atom_site_label
 _atom_site_symmetry_multiplicity
 _atom_site_fract_x
 _atom_site_fract_y
 _atom_site_fract_z
 _atom_site_occupancy
  K  K0  1  0.74208000  0.88663400  0.79886500  1
  K  K1  1  0.92388000  0.75000000  0.17388000  1
  K  K2  1  0.75792000  0.05678500  0.64455400  1
  K  K3  1  0.25792000  0.11336600  0.20113500  1
  K  K4  1  0.91223100  0.55678500  0.29886500  1
  K  K5  1  0.08776900  0.44321500  0.70113500  1
  K  K6  1  0.24208000  0.94321500  0.35544600  1
  K  K7  1  0.57612000  0.25000000  0.32612000  1
  K  K8  1  0.58776900  0.38663400  0.14455400  1
  K  K9  1  0.41223100  0.61336600  0.85544600  1
  K  K10  1  0.07612000  0.25000000  0.82612000  1
  K  K11  1  0.42388000  0.75000000  0.67388000  1
  Na  Na0  1  0.50284700  0.75284700  0.25000000  1
  Na  Na1  1  0.16201200  0.41201200  0.25000000  1
  Na  Na2  1  0.49715300  0.24715300  0.75000000  1
  Na  Na3  1  0.99715300  0.74715300  0.75000000  1
  Na  Na4  1  0.00284700  0.25284700  0.25000000  1
  Na  Na5  1  0.66201200  0.91201200  0.25000000  1
  Na  Na6  1  0.83798800  0.58798800  0.75000000  1
  Na  Na7  1  0.33798800  0.08798800  0.75000000  1
  Sn  Sn0  1  0.16761700  0.91761700  0.75000000  1
  Sn  Sn1  1  0.66761700  0.41761700  0.75000000  1
  Sn  Sn2  1  0.33238300  0.58238300  0.25000000  1
  Sn  Sn3  1  0.83238300  0.08238300  0.25000000  1
  Bi  Bi0  1  0.64832300  0.75000000  0.89832300  1
  Bi  Bi1  1  0.20201500  0.62751500  0.64938100  1
  Bi  Bi2  1  0.70201500  0.55263400  0.07450000  1
  Bi  Bi3  1  0.79798500  0.37248500  0.35061900  1
  Bi  Bi4  1  0.02186700  0.94736600  0.14938100  1
  Bi  Bi5  1  0.97813300  0.05263400  0.85061900  1
  Bi  Bi6  1  0.29798500  0.44736600  0.92550000  1
  Bi  Bi7  1  0.35167700  0.25000000  0.10167700  1
  Bi  Bi8  1  0.52186700  0.87248500  0.57450000  1
  Bi  Bi9  1  0.85167700  0.25000000  0.60167700  1
  Bi  Bi10  1  0.47813300  0.12751500  0.42550000  1
  Bi  Bi11  1  0.14832300  0.75000000  0.39832300  1
loop_
_geom_bond_atom_site_label_1
_geom_bond_atom_site_label_2
_geom_bond_distance
_geom_bond_site_symmetry_2
K0 Na6 3.786289 1_555
K0 Na3 3.838841 1_555
K0 Sn3 4.031826 1_566
K0 Na4 4.085586 1_666
K0 K11 4.472122 1_555
K0 K8 4.507557 1_555
K0 K8 4.507557 1_566
K0 K2 4.570109 1_565
K1 Sn1 3.944738 1_554
K1 Sn3 3.944738 1_565
K1 Na6 4.001907 1_554
K1 Na5 4.001907 1_555
K1 K6 4.472122 1_655
K1 K4 4.472122 1_555
K1 K10 4.486473 1_654
K1 K10 4.486473 1_665
K2 Na5 3.786289 1_545
K2 Na0 3.838841 1_545
K2 Sn1 4.031826 1_555
K2 Na2 4.085586 1_555
K2 K4 4.507557 1_545
K2 K4 4.507557 1_556
K3 Na1 3.786289 1_555
K3 Na4 3.838841 1_555
K3 Sn0 4.031826 1_544
K3 Na3 4.085586 1_444
K3 K7 4.472122 1_555
K3 K9 4.507557 1_544
K3 K9 4.507557 1_555
K3 K6 4.570109 1_545
K4 Na1 3.786289 1_655
K4 Na4 3.838841 1_655
K4 Sn0 4.031826 1_655
K4 Na3 4.085586 1_555
K4 K8 4.570109 1_555
K5 Na6 3.786289 1_455
K5 Na3 3.838841 1_455
K5 Sn3 4.031826 1_455
K5 Na4 4.085586 1_555
K5 K6 4.507557 1_556
K5 K6 4.507557 1_545
K5 K9 4.570109 1_555
K6 Na7 3.786289 1_565
K6 Na2 3.838841 1_565
K6 Sn2 4.031826 1_555
K6 Na0 4.085586 1_555
K7 Sn3 3.944738 1_555
K7 Sn1 3.944738 1_555
K7 Na6 4.001907 1_555
K7 Na5 4.001907 1_545
K7 K8 4.472122 1_555
K8 Na7 3.786289 1_554
K8 Na2 3.838841 1_554
K8 Sn2 4.031826 1_555
K8 Na0 4.085586 1_555
K9 Na5 3.786289 1_556
K9 Na0 3.838841 1_556
K9 Sn1 4.031826 1_555
K9 Na2 4.085586 1_555
K10 Sn2 3.944738 1_556
K10 Sn0 3.944738 1_545
K10 Na1 4.001907 1_556
K10 Na7 4.001907 1_555
K10 K5 4.472122 1_555
K10 K2 4.472122 1_455
K11 Sn0 3.944738 1_555
K11 Sn2 3.944738 1_555
K11 Na7 4.001907 1_565
K11 Na1 4.001907 1_555
K11 K9 4.472122 1_555
K11 K7 4.486473 1_566
K11 K7 4.486473 1_555
Na0 Na5 3.471649 1_555
Na0 Na2 3.636088 1_554
Na0 Na2 3.636088 1_565
Na0 Sn2 3.718098 1_555
Na1 Na4 3.471649 1_555
Na1 Sn0 3.636022 1_555
Na1 Sn0 3.636022 1_544
Na1 Sn2 3.716070 1_555
Na2 Na7 3.471649 1_555
Na2 Sn1 3.718098 1_555
Na3 Na6 3.471649 1_555
Na3 Na4 3.636088 1_655
Na3 Na4 3.636088 1_666
Na3 Sn0 3.718098 1_655
Na4 Sn3 3.718098 1_455
Na5 Sn1 3.636022 1_565
Na5 Sn1 3.636022 1_554
Na5 Sn3 3.716070 1_565
Na6 Sn3 3.636022 1_555
Na6 Sn3 3.636022 1_566
Na6 Sn1 3.716070 1_555
Na7 Sn2 3.636022 1_545
Na7 Sn2 3.636022 1_556
Na7 Sn0 3.716070 1_545
Bi0 Sn3 3.101325 1_566
Bi0 Sn1 3.101325 1_555
Bi0 Na6 3.173724 1_555
Bi0 Na5 3.173724 1_556
Bi0 K0 3.807290 1_555
Bi0 K9 3.807290 1_555
Bi0 K7 3.842247 1_566
Bi0 K7 3.842247 1_555
Bi0 K11 3.878966 1_555
Bi1 Sn0 2.998331 1_555
Bi1 Na3 3.199561 1_455
Bi1 Na1 3.251016 1_555
Bi1 Na4 3.424456 1_555
Bi1 K11 3.658929 1_555
Bi1 K3 3.721105 1_566
Bi1 K9 3.721674 1_555
Bi1 K3 3.848802 1_555
Bi1 K5 3.963219 1_555
Bi2 Sn1 2.998331 1_554
Bi2 Na2 3.199561 1_554
Bi2 Na5 3.251016 1_555
Bi2 Na0 3.424456 1_555
Bi2 K1 3.658929 1_555
Bi2 K2 3.721105 1_554
Bi2 K4 3.721674 1_555
Bi2 K2 3.848802 1_565
Bi2 K8 3.963219 1_555
Bi3 Sn3 2.998331 1_555
Bi3 Na4 3.199561 1_655
Bi3 Na6 3.251016 1_555
Bi3 Na3 3.424456 1_555
Bi3 K7 3.658929 1_555
Bi3 K0 3.721105 1_544
Bi3 K8 3.721674 1_555
Bi3 K0 3.848802 1_555
Bi3 K4 3.963219 1_555
Bi4 Sn3 2.998345 1_465
Bi4 Na4 3.199561 1_565
Bi4 Na6 3.251024 1_454
Bi4 Na3 3.424453 1_454
Bi4 K1 3.658937 1_455
Bi4 K5 3.721105 1_565
Bi4 K6 3.721665 1_555
Bi4 K5 3.848796 1_554
Bi4 K3 3.963206 1_565
Bi5 Sn0 2.998345 1_645
Bi5 Na3 3.199561 1_545
Bi5 Na1 3.251024 1_656
Bi5 Na4 3.424453 1_656
Bi5 K10 3.658937 1_655
Bi5 K4 3.721105 1_545
Bi5 K2 3.721665 1_555
Bi5 K4 3.848796 1_556
Bi5 K0 3.963206 1_545
Bi6 Sn2 2.998331 1_556
Bi6 Na0 3.199561 1_556
Bi6 Na7 3.251016 1_555
Bi6 Na2 3.424456 1_555
Bi6 K10 3.658929 1_555
Bi6 K6 3.721105 1_556
Bi6 K5 3.721674 1_555
Bi6 K6 3.848802 1_545
Bi6 K9 3.963219 1_555
Bi7 Sn2 3.101325 1_555
Bi7 Sn0 3.101325 1_544
Bi7 Na1 3.173724 1_555
Bi7 Na7 3.173724 1_554
Bi7 K3 3.807290 1_555
Bi7 K8 3.807290 1_555
Bi7 K11 3.842247 1_544
Bi7 K11 3.842247 1_555
Bi7 K7 3.878966 1_555
Bi8 Sn2 2.998341 1_555
Bi8 Na0 3.199558 1_555
Bi8 Na7 3.251029 1_565
Bi8 Na2 3.424457 1_565
Bi8 K11 3.658937 1_555
Bi8 K8 3.721098 1_555
Bi8 K0 3.721665 1_555
Bi8 K8 3.848803 1_566
Bi8 K2 3.963206 1_565
Bi9 Sn1 3.101325 1_555
Bi9 Sn3 3.101325 1_555
Bi9 Na6 3.173724 1_555
Bi9 Na5 3.173724 1_545
Bi9 K2 3.807290 1_555
Bi9 K5 3.807290 1_655
Bi9 K1 3.842247 1_556
Bi9 K1 3.842247 1_545
Bi9 K10 3.878966 1_655
Bi10 Sn1 2.998341 1_555
Bi10 Na2 3.199558 1_555
Bi10 Na5 3.251029 1_545
Bi10 Na0 3.424457 1_545
Bi10 K7 3.658937 1_555
Bi10 K9 3.721098 1_555
Bi10 K3 3.721665 1_555
Bi10 K9 3.848803 1_544
Bi10 K6 3.963206 1_545
Bi11 Sn0 3.101325 1_555
Bi11 Sn2 3.101325 1_555
Bi11 Na1 3.173724 1_555
Bi11 Na7 3.173724 1_565
Bi11 K4 3.807290 1_455
Bi11 K6 3.807290 1_555
Bi11 K10 3.842247 1_565
Bi11 K10 3.842247 1_554
Bi11 K1 3.878966 1_455
