# generated using pymatgen
data_La(CoAs)2
_symmetry_space_group_name_H-M   'P 1'
_cell_length_a   4.08669157
_cell_length_b   4.08669075
_cell_length_c   5.90052795
_cell_angle_alpha   110.26108924
_cell_angle_beta   110.26110149
_cell_angle_gamma   89.99999849
_symmetry_Int_Tables_number   1
_chemical_formula_structural   La(CoAs)2
_chemical_formula_sum   'La1 Co2 As2'
_cell_volume   85.91824768
_cell_formula_units_Z   1
loop_
 _symmetry_equiv_pos_site_id
 _symmetry_equiv_pos_as_xyz
  1  'x, y, z'
loop_
 _atom_site_type_symbol
 _atom_site_label
 _atom_site_symmetry_multiplicity
 _atom_site_fract_x
 _atom_site_fract_y
 _atom_site_fract_z
 _atom_site_occupancy
  La  La0  1  -0.00000000  0.00000000  -0.00000000  1
  Co  Co0  1  0.25000000  0.75000000  0.50000000  1
  Co  Co1  1  0.75000000  0.25000000  0.50000000  1
  As  As0  1  0.35954311  0.35954311  0.71908722  1
  As  As1  1  0.64045689  0.64045689  0.28091278  1
loop_
_geom_bond_atom_site_label_1
_geom_bond_atom_site_label_2
_geom_bond_distance
_geom_bond_site_symmetry_2
Co0 La0 3.285070 1_565
Co0 La0 3.285071 1_555
Co0 La0 3.285071 1_666
Co0 La0 3.285071 1_566
Co1 La0 3.285070 1_656
Co1 La0 3.285071 1_666
Co1 La0 3.285071 1_555
Co1 La0 3.285071 1_655
As0 Co0 2.333578 1_545
As0 Co1 2.333578 1_455
As0 Co0 2.333581 1_555
As0 Co1 2.333582 1_555
As0 La0 3.230939 1_556
As0 La0 3.230942 1_656
As0 La0 3.230942 1_566
As0 La0 3.230944 1_666
As1 Co1 2.333578 1_565
As1 Co0 2.333578 1_655
As1 Co1 2.333581 1_555
As1 Co0 2.333582 1_555
As1 La0 3.230939 1_665
As1 La0 3.230942 1_565
As1 La0 3.230942 1_655
As1 La0 3.230944 1_555
