# generated using pymatgen
data_Rb4H6C2O9
_symmetry_space_group_name_H-M   'P 1'
_cell_length_a   9.42426508
_cell_length_b   9.42426508
_cell_length_c   7.59276494
_cell_angle_alpha   70.32494513
_cell_angle_beta   70.32494513
_cell_angle_gamma   95.82495871
_symmetry_Int_Tables_number   1
_chemical_formula_structural   Rb4H6C2O9
_chemical_formula_sum   'Rb8 H12 C4 O18'
_cell_volume   580.10146174
_cell_formula_units_Z   2
loop_
 _symmetry_equiv_pos_site_id
 _symmetry_equiv_pos_as_xyz
  1  'x, y, z'
loop_
 _atom_site_type_symbol
 _atom_site_label
 _atom_site_symmetry_multiplicity
 _atom_site_fract_x
 _atom_site_fract_y
 _atom_site_fract_z
 _atom_site_occupancy
  Rb  Rb0  1  0.99401000  0.71724200  0.04143300  1
  Rb  Rb1  1  0.28275800  0.00599000  0.45856700  1
  Rb  Rb2  1  0.00599000  0.28275800  0.95856700  1
  Rb  Rb3  1  0.71724200  0.99401000  0.54143300  1
  Rb  Rb4  1  0.31150000  0.68850000  0.25000000  1
  Rb  Rb5  1  0.68850000  0.31150000  0.75000000  1
  Rb  Rb6  1  0.61839800  0.38160200  0.25000000  1
  Rb  Rb7  1  0.38160200  0.61839800  0.75000000  1
  H  H0  1  0.22449600  0.35859000  0.53614300  1
  H  H1  1  0.64141000  0.77550400  0.96385700  1
  H  H2  1  0.77550400  0.64141000  0.46385700  1
  H  H3  1  0.35859000  0.22449600  0.03614300  1
  H  H4  1  0.35269400  0.29746600  0.62161900  1
  H  H5  1  0.70253400  0.64730600  0.87838100  1
  H  H6  1  0.64730600  0.70253400  0.37838100  1
  H  H7  1  0.29746600  0.35269400  0.12161900  1
  H  H8  1  0.00793900  0.12568600  0.65533600  1
  H  H9  1  0.87431400  0.99206100  0.84466400  1
  H  H10  1  0.99206100  0.87431400  0.34466400  1
  H  H11  1  0.12568600  0.00793900  0.15533600  1
  C  C0  1  0.03016900  0.36059900  0.34394400  1
  C  C1  1  0.63940100  0.96983100  0.15605600  1
  C  C2  1  0.96983100  0.63940100  0.65605600  1
  C  C3  1  0.36059900  0.03016900  0.84394400  1
  O  O0  1  0.89190000  0.32562600  0.35049600  1
  O  O1  1  0.67437400  0.10810000  0.14950400  1
  O  O2  1  0.10810000  0.67437400  0.64950400  1
  O  O3  1  0.32562600  0.89190000  0.85049600  1
  O  O4  1  0.14707300  0.44243600  0.16931500  1
  O  O5  1  0.55756400  0.85292700  0.33068500  1
  O  O6  1  0.85292700  0.55756400  0.83068500  1
  O  O7  1  0.44243600  0.14707300  0.66931500  1
  O  O8  1  0.05527800  0.31525700  0.51213100  1
  O  O9  1  0.68474300  0.94472200  0.98786900  1
  O  O10  1  0.94472200  0.68474300  0.48786900  1
  O  O11  1  0.31525700  0.05527800  0.01213100  1
  O  O12  1  0.31301900  0.39124700  0.57115800  1
  O  O13  1  0.60875300  0.68698100  0.92884200  1
  O  O14  1  0.68698100  0.60875300  0.42884200  1
  O  O15  1  0.39124700  0.31301900  0.07115800  1
  O  O16  1  0.98551100  0.01448900  0.75000000  1
  O  O17  1  0.01448900  0.98551100  0.25000000  1
loop_
_geom_bond_atom_site_label_1
_geom_bond_atom_site_label_2
_geom_bond_distance
_geom_bond_site_symmetry_2
H0 O12 1.006843 1_555
H0 O8 1.690262 1_555
H0 Rb2 2.957837 1_555
H0 Rb4 2.965433 1_555
H1 O13 1.006843 1_555
H1 O9 1.690262 1_555
H1 Rb3 2.957837 1_555
H1 Rb4 2.965433 1_556
H2 O14 1.006843 1_555
H2 O10 1.690262 1_555
H2 Rb0 2.957837 1_555
H2 Rb5 2.965433 1_555
H3 O15 1.006843 1_555
H3 O11 1.690262 1_555
H3 Rb1 2.957837 1_555
H3 Rb5 2.965433 1_554
H4 O12 1.001628 1_555
H4 Rb6 2.862396 1_555
H5 O13 1.001628 1_555
H5 Rb6 2.862396 1_556
H6 O14 1.001628 1_555
H6 Rb7 2.862396 1_555
H7 O15 1.001628 1_555
H7 Rb7 2.862396 1_554
H8 O16 1.002513 1_455
H8 O8 1.666321 1_555
H8 Rb1 3.055292 1_555
H8 Rb2 3.124813 1_555
H9 O16 1.002513 1_565
H9 O9 1.666321 1_555
H9 Rb0 3.055292 1_556
H9 Rb3 3.124813 1_555
H10 O17 1.002513 1_655
H10 O10 1.666321 1_555
H10 Rb3 3.055292 1_555
H10 Rb0 3.124813 1_555
H11 O17 1.002513 1_545
H11 O11 1.666321 1_555
H11 Rb2 3.055292 1_554
H11 Rb1 3.124813 1_555
C0 O0 1.291226 1_455
C0 O4 1.312237 1_555
C0 O8 1.313732 1_555
C1 O1 1.291226 1_565
C1 O5 1.312237 1_555
C1 O9 1.313732 1_554
C2 O2 1.291226 1_655
C2 O6 1.312237 1_555
C2 O10 1.313732 1_555
C3 O3 1.291226 1_545
C3 O7 1.312237 1_555
C3 O11 1.313732 1_556
O0 Rb5 2.941813 1_555
O0 Rb6 2.972144 1_555
O0 Rb3 2.979314 1_545
O0 Rb2 2.986303 1_654
O0 Rb0 3.461300 1_555
O1 Rb5 2.941813 1_554
O1 Rb6 2.972144 1_555
O1 Rb2 2.979314 1_654
O1 Rb3 2.986303 1_545
O1 Rb1 3.461300 1_555
O2 Rb4 2.941813 1_555
O2 Rb7 2.972144 1_555
O2 Rb1 2.979314 1_565
O2 Rb0 2.986303 1_456
O2 Rb2 3.461300 1_555
O3 Rb4 2.941813 1_556
O3 Rb7 2.972144 1_555
O3 Rb0 2.979314 1_456
O3 Rb1 2.986303 1_565
O3 Rb3 3.461300 1_555
O4 Rb7 2.955328 1_554
O4 Rb4 3.003444 1_555
O4 Rb2 3.039888 1_554
O4 Rb0 3.120747 1_455
O5 Rb7 2.955328 1_555
O5 Rb4 3.003444 1_555
O5 Rb3 3.039888 1_555
O5 Rb1 3.120747 1_565
O6 Rb6 2.955328 1_556
O6 Rb5 3.003444 1_555
O6 Rb0 3.039888 1_556
O6 Rb2 3.120747 1_655
O7 Rb6 2.955328 1_555
O7 Rb5 3.003444 1_555
O7 Rb1 3.039888 1_555
O7 Rb3 3.120747 1_545
O8 Rb2 3.164068 1_555
O8 Rb5 3.307515 1_455
O9 Rb3 3.164068 1_555
O9 Rb5 3.307515 1_565
O10 Rb0 3.164068 1_555
O10 Rb4 3.307515 1_655
O11 Rb1 3.164068 1_555
O11 Rb4 3.307515 1_545
O12 Rb7 3.018605 1_555
O12 Rb4 3.037422 1_555
O12 Rb2 3.116628 1_555
O12 Rb6 3.116710 1_555
O13 Rb7 3.018605 1_555
O13 Rb4 3.037422 1_556
O13 Rb3 3.116628 1_555
O13 Rb6 3.116710 1_556
O14 Rb6 3.018605 1_555
O14 Rb5 3.037422 1_555
O14 Rb0 3.116628 1_555
O14 Rb7 3.116710 1_555
O15 Rb6 3.018605 1_555
O15 Rb5 3.037422 1_554
O15 Rb1 3.116628 1_555
O15 Rb7 3.116710 1_554
O16 Rb0 2.956541 1_546
O16 Rb1 2.956541 1_655
O17 Rb3 2.956541 1_455
O17 Rb2 2.956541 1_564
