# generated using pymatgen
data_NiSeO3
_symmetry_space_group_name_H-M   'P 1'
_cell_length_a   9.30712570
_cell_length_b   9.30712570
_cell_length_c   14.92818341
_cell_angle_alpha   72.67401993
_cell_angle_beta   72.67401993
_cell_angle_gamma   64.59910441
_symmetry_Int_Tables_number   1
_chemical_formula_structural   NiSeO3
_chemical_formula_sum   'Ni16 Se16 O48'
_cell_volume   1093.20875419
_cell_formula_units_Z   16
loop_
 _symmetry_equiv_pos_site_id
 _symmetry_equiv_pos_as_xyz
  1  'x, y, z'
loop_
 _atom_site_type_symbol
 _atom_site_label
 _atom_site_symmetry_multiplicity
 _atom_site_fract_x
 _atom_site_fract_y
 _atom_site_fract_z
 _atom_site_occupancy
  Ni  Ni0  1  0.04677300  0.81471500  0.53392600  1
  Ni  Ni1  1  0.58999100  0.87766500  0.58295400  1
  Ni  Ni2  1  0.68286700  0.86843100  0.24182000  1
  Ni  Ni3  1  0.62410600  0.89599700  0.91033800  1
  Ni  Ni4  1  0.31713300  0.13157000  0.75818000  1
  Ni  Ni5  1  0.89599700  0.62410600  0.41033800  1
  Ni  Ni6  1  0.86843100  0.68286700  0.74182000  1
  Ni  Ni7  1  0.12233500  0.41000900  0.91704600  1
  Ni  Ni8  1  0.18528500  0.95322700  0.96607400  1
  Ni  Ni9  1  0.41000900  0.12233500  0.41704600  1
  Ni  Ni10  1  0.10400300  0.37589400  0.58966200  1
  Ni  Ni11  1  0.95322700  0.18528500  0.46607400  1
  Ni  Ni12  1  0.37589400  0.10400300  0.08966200  1
  Ni  Ni13  1  0.13156900  0.31713300  0.25818000  1
  Ni  Ni14  1  0.87766500  0.58999100  0.08295400  1
  Ni  Ni15  1  0.81471500  0.04677300  0.03392600  1
  Se  Se0  1  0.79912500  0.03088800  0.36403700  1
  Se  Se1  1  0.29472900  0.93337400  0.35054800  1
  Se  Se2  1  0.70527100  0.06662600  0.64945200  1
  Se  Se3  1  0.24412400  0.50891800  0.39653700  1
  Se  Se4  1  0.20087500  0.96911200  0.63596300  1
  Se  Se5  1  0.96911200  0.20087500  0.13596300  1
  Se  Se6  1  0.06662600  0.70527100  0.14945200  1
  Se  Se7  1  0.47795900  0.71253800  0.81853400  1
  Se  Se8  1  0.75587600  0.49108200  0.60346300  1
  Se  Se9  1  0.28746200  0.52204100  0.68146600  1
  Se  Se10  1  0.03088800  0.79912500  0.86403700  1
  Se  Se11  1  0.93337400  0.29472900  0.85054800  1
  Se  Se12  1  0.71253800  0.47795900  0.31853400  1
  Se  Se13  1  0.50891800  0.24412400  0.89653700  1
  Se  Se14  1  0.49108200  0.75587600  0.10346300  1
  Se  Se15  1  0.52204100  0.28746200  0.18146600  1
  O  O0  1  0.93640700  0.48268700  0.84646900  1
  O  O1  1  0.28426400  0.48705100  0.80106000  1
  O  O2  1  0.19160500  0.13546000  0.38095100  1
  O  O3  1  0.67486500  0.70494700  0.02364100  1
  O  O4  1  0.70494700  0.67486500  0.52364100  1
  O  O5  1  0.87749400  0.50240500  0.66800300  1
  O  O6  1  0.63423000  0.02891500  0.45491000  1
  O  O7  1  0.39120300  0.92379500  0.01825900  1
  O  O8  1  0.13546000  0.19160500  0.88095100  1
  O  O9  1  0.60879700  0.07620500  0.98174100  1
  O  O10  1  0.32513500  0.29505300  0.97635900  1
  O  O11  1  0.49759500  0.12250600  0.83199700  1
  O  O12  1  0.14759200  0.14591200  0.17520000  1
  O  O13  1  0.97108500  0.36577000  0.04509000  1
  O  O14  1  0.36103900  0.24600300  0.17626800  1
  O  O15  1  0.04371700  0.01611900  0.57883500  1
  O  O16  1  0.92379500  0.39120300  0.51825900  1
  O  O17  1  0.90028800  0.32382800  0.33367100  1
  O  O18  1  0.02891500  0.63423000  0.95491000  1
  O  O19  1  0.51294900  0.71573600  0.69894000  1
  O  O20  1  0.48705100  0.28426400  0.30106000  1
  O  O21  1  0.12250600  0.49759500  0.33199700  1
  O  O22  1  0.36577000  0.97108500  0.54509000  1
  O  O23  1  0.09971200  0.67617200  0.66632900  1
  O  O24  1  0.95628300  0.98388100  0.42116500  1
  O  O25  1  0.71573600  0.51294900  0.19894000  1
  O  O26  1  0.63896100  0.75399700  0.82373200  1
  O  O27  1  0.51731300  0.06359300  0.65353100  1
  O  O28  1  0.72613900  0.20544700  0.54729500  1
  O  O29  1  0.32382800  0.90028800  0.83367100  1
  O  O30  1  0.07620500  0.60879700  0.48174100  1
  O  O31  1  0.79455300  0.27386100  0.95270500  1
  O  O32  1  0.67617200  0.09971200  0.16632900  1
  O  O33  1  0.85408800  0.85240800  0.32480000  1
  O  O34  1  0.75399700  0.63896100  0.32373200  1
  O  O35  1  0.14591200  0.14759200  0.67520000  1
  O  O36  1  0.85240800  0.85408800  0.82480000  1
  O  O37  1  0.24600300  0.36103900  0.67626800  1
  O  O38  1  0.48268700  0.93640700  0.34646900  1
  O  O39  1  0.80839500  0.86454000  0.61904900  1
  O  O40  1  0.98388100  0.95628300  0.92116500  1
  O  O41  1  0.50240500  0.87749400  0.16800300  1
  O  O42  1  0.86454000  0.80839500  0.11904900  1
  O  O43  1  0.20544700  0.72613900  0.04729500  1
  O  O44  1  0.29505300  0.32513500  0.47635900  1
  O  O45  1  0.01611900  0.04371700  0.07883500  1
  O  O46  1  0.06359300  0.51731300  0.15353100  1
  O  O47  1  0.27386100  0.79455300  0.45270500  1
loop_
_geom_bond_atom_site_label_1
_geom_bond_atom_site_label_2
_geom_bond_distance
_geom_bond_site_symmetry_2
Ni0 O24 2.037159 1_455
Ni0 O47 2.059440 1_555
Ni0 O23 2.080653 1_555
Ni0 O39 2.131009 1_455
Ni0 O15 2.157633 1_565
Ni0 O30 2.160251 1_555
Ni1 O4 2.046949 1_555
Ni1 O27 2.054098 1_565
Ni1 O6 2.056858 1_565
Ni1 O22 2.069701 1_555
Ni1 O19 2.101619 1_555
Ni1 O39 2.199394 1_555
Ni2 O38 2.038582 1_555
Ni2 O34 2.051455 1_555
Ni2 O32 2.095067 1_565
Ni2 O42 2.117506 1_555
Ni2 O33 2.226669 1_555
Ni2 O41 2.228876 1_555
Ni3 O26 2.047383 1_555
Ni3 O3 2.051759 1_556
Ni3 O36 2.065716 1_555
Ni3 O11 2.102518 1_565
Ni3 O9 2.176900 1_565
Ni3 O7 2.246845 1_556
Ni4 O27 2.038583 1_555
Ni4 O37 2.051448 1_555
Ni4 O29 2.095075 1_545
Ni4 O8 2.117504 1_555
Ni4 O35 2.226673 1_555
Ni4 O11 2.228872 1_555
Ni5 O34 2.047383 1_555
Ni5 O4 2.051759 1_555
Ni5 O33 2.065716 1_555
Ni5 O21 2.102518 1_655
Ni5 O30 2.176900 1_655
Ni5 O16 2.246845 1_555
Ni6 O0 2.038582 1_555
Ni6 O26 2.051455 1_555
Ni6 O23 2.095067 1_655
Ni6 O39 2.117506 1_555
Ni6 O36 2.226669 1_555
Ni6 O5 2.228876 1_555
Ni7 O10 2.046949 1_555
Ni7 O0 2.054098 1_455
Ni7 O13 2.056858 1_456
Ni7 O18 2.069701 1_555
Ni7 O1 2.101619 1_555
Ni7 O8 2.199394 1_555
Ni8 O45 2.037159 1_566
Ni8 O43 2.059440 1_556
Ni8 O29 2.080653 1_555
Ni8 O8 2.131009 1_565
Ni8 O40 2.157633 1_455
Ni8 O7 2.160251 1_556
Ni9 O44 2.046949 1_555
Ni9 O38 2.054098 1_545
Ni9 O22 2.056858 1_545
Ni9 O6 2.069701 1_555
Ni9 O20 2.101619 1_555
Ni9 O2 2.199394 1_555
Ni10 O37 2.047383 1_555
Ni10 O44 2.051759 1_555
Ni10 O35 2.065716 1_555
Ni10 O5 2.102518 1_455
Ni10 O16 2.176900 1_455
Ni10 O30 2.246845 1_555
Ni11 O15 2.037159 1_655
Ni11 O28 2.059440 1_555
Ni11 O17 2.080653 1_555
Ni11 O2 2.131009 1_655
Ni11 O24 2.157633 1_545
Ni11 O16 2.160251 1_555
Ni12 O14 2.047383 1_555
Ni12 O10 2.051759 1_554
Ni12 O12 2.065716 1_555
Ni12 O41 2.102518 1_545
Ni12 O7 2.176900 1_545
Ni12 O9 2.246845 1_554
Ni13 O46 2.038582 1_555
Ni13 O14 2.051455 1_555
Ni13 O17 2.095067 1_455
Ni13 O2 2.117506 1_555
Ni13 O12 2.226669 1_555
Ni13 O21 2.228876 1_555
Ni14 O3 2.046949 1_555
Ni14 O46 2.054098 1_655
Ni14 O18 2.056858 1_654
Ni14 O13 2.069701 1_555
Ni14 O25 2.101619 1_555
Ni14 O42 2.199394 1_555
Ni15 O40 2.037159 1_544
Ni15 O31 2.059440 1_554
Ni15 O32 2.080653 1_555
Ni15 O42 2.131009 1_545
Ni15 O45 2.157633 1_655
Ni15 O9 2.160251 1_554
O0 Se11 1.744311 1_555
O1 Se9 1.710171 1_555
O2 Se1 1.834405 1_545
O3 Se14 1.731248 1_555
O4 Se8 1.731248 1_555
O5 Se8 1.741541 1_555
O6 Se0 1.721984 1_555
O7 Se14 1.788391 1_555
O8 Se11 1.834405 1_455
O9 Se13 1.788391 1_555
O10 Se13 1.731248 1_555
O11 Se13 1.741541 1_555
O12 Se5 1.742470 1_455
O13 Se5 1.721984 1_555
O14 Se15 1.727264 1_555
O15 Se4 1.740666 1_545
O16 Se8 1.788391 1_555
O17 Se12 1.747563 1_555
O18 Se10 1.721984 1_555
O19 Se7 1.710171 1_555
O20 Se15 1.710171 1_555
O21 Se3 1.741541 1_555
O22 Se4 1.721984 1_555
O23 Se9 1.747563 1_555
O24 Se0 1.740666 1_565
O25 Se12 1.710171 1_555
O26 Se7 1.727264 1_555
O27 Se2 1.744311 1_555
O28 Se2 1.702356 1_555
O29 Se7 1.747563 1_555
O30 Se3 1.788391 1_555
O31 Se11 1.702356 1_555
O32 Se15 1.747563 1_555
O33 Se0 1.742470 1_565
O34 Se12 1.727264 1_555
O35 Se4 1.742470 1_545
O36 Se10 1.742470 1_655
O37 Se9 1.727264 1_555
O38 Se1 1.744311 1_555
O39 Se2 1.834405 1_565
O40 Se10 1.740666 1_655
O41 Se14 1.741541 1_555
O42 Se6 1.834405 1_655
O43 Se6 1.702356 1_555
O44 Se3 1.731248 1_555
O45 Se5 1.740666 1_455
O46 Se6 1.744311 1_555
O47 Se1 1.702356 1_555
