# generated using pymatgen
data_SbH3CSCl6O
_symmetry_space_group_name_H-M   'P 1'
_cell_length_a   20.16560900
_cell_length_b   6.77427500
_cell_length_c   10.60868687
_cell_angle_alpha   60.36239248
_cell_angle_beta   90.00000000
_cell_angle_gamma   90.00000000
_symmetry_Int_Tables_number   1
_chemical_formula_structural   SbH3CSCl6O
_chemical_formula_sum   'Sb4 H12 C4 S4 Cl24 O4'
_cell_volume   1259.62360037
_cell_formula_units_Z   4
loop_
 _symmetry_equiv_pos_site_id
 _symmetry_equiv_pos_as_xyz
  1  'x, y, z'
loop_
 _atom_site_type_symbol
 _atom_site_label
 _atom_site_symmetry_multiplicity
 _atom_site_fract_x
 _atom_site_fract_y
 _atom_site_fract_z
 _atom_site_occupancy
  Sb  Sb0  1  0.62548600  0.05039300  0.28527300  1
  Sb  Sb1  1  0.12548600  0.94960700  0.21472700  1
  Sb  Sb2  1  0.37451400  0.94960700  0.71472700  1
  Sb  Sb3  1  0.87451400  0.05039300  0.78527300  1
  H  H0  1  0.13725300  0.03894300  0.70715500  1
  H  H1  1  0.94330700  0.96106000  0.36906600  1
  H  H2  1  0.63725300  0.96105700  0.79284500  1
  H  H3  1  0.11759100  0.25548700  0.52378800  1
  H  H4  1  0.44330700  0.03894000  0.13093400  1
  H  H5  1  0.86274700  0.96105700  0.29284500  1
  H  H6  1  0.36274700  0.03894300  0.20715500  1
  H  H7  1  0.88240900  0.74451300  0.47621200  1
  H  H8  1  0.38240900  0.25548700  0.02378800  1
  H  H9  1  0.55669300  0.96106000  0.86906600  1
  H  H10  1  0.61759100  0.74451300  0.97621200  1
  H  H11  1  0.05669300  0.03894000  0.63093400  1
  C  C0  1  0.89041700  0.92196200  0.39157600  1
  C  C1  1  0.39041700  0.07803800  0.10842400  1
  C  C2  1  0.60958300  0.92196200  0.89157600  1
  C  C3  1  0.10958300  0.07803800  0.60842400  1
  S  S0  1  0.64444500  0.08987100  0.96239200  1
  S  S1  1  0.85555500  0.08987100  0.46239200  1
  S  S2  1  0.35555500  0.91012900  0.03760800  1
  S  S3  1  0.14444500  0.91012900  0.53760800  1
  Cl  Cl0  1  0.65648400  0.04566800  0.50169700  1
  Cl  Cl1  1  0.34351600  0.95433200  0.49830300  1
  Cl  Cl2  1  0.20662400  0.66813000  0.35954100  1
  Cl  Cl3  1  0.54077000  0.77372300  0.39112400  1
  Cl  Cl4  1  0.79337600  0.33187000  0.64045900  1
  Cl  Cl5  1  0.62358900  0.40590200  0.79121100  1
  Cl  Cl6  1  0.29337600  0.66813000  0.85954100  1
  Cl  Cl7  1  0.54522400  0.34435800  0.21429800  1
  Cl  Cl8  1  0.70662400  0.33187000  0.14045900  1
  Cl  Cl9  1  0.70340100  0.76258100  0.31735700  1
  Cl  Cl10  1  0.45923000  0.22627700  0.60887600  1
  Cl  Cl11  1  0.37641100  0.59409800  0.20878900  1
  Cl  Cl12  1  0.29659900  0.23741900  0.68264300  1
  Cl  Cl13  1  0.04522400  0.65564200  0.28570200  1
  Cl  Cl14  1  0.20340100  0.23741900  0.18264300  1
  Cl  Cl15  1  0.84351600  0.04566800  0.00169700  1
  Cl  Cl16  1  0.45477600  0.65564200  0.78570200  1
  Cl  Cl17  1  0.79659900  0.76258100  0.81735700  1
  Cl  Cl18  1  0.95923000  0.77372300  0.89112400  1
  Cl  Cl19  1  0.87641100  0.40590200  0.29121100  1
  Cl  Cl20  1  0.15648400  0.95433200  0.99830300  1
  Cl  Cl21  1  0.04077000  0.22627700  0.10887600  1
  Cl  Cl22  1  0.12358900  0.59409800  0.70878900  1
  Cl  Cl23  1  0.95477600  0.34435800  0.71429800  1
  O  O0  1  0.09470000  0.95214400  0.41722300  1
  O  O1  1  0.90530000  0.04785600  0.58277700  1
  O  O2  1  0.59470000  0.04785600  0.08277700  1
  O  O3  1  0.40530000  0.95214400  0.91722300  1
loop_
_geom_bond_atom_site_label_1
_geom_bond_atom_site_label_2
_geom_bond_distance
_geom_bond_site_symmetry_2
C0 H1 1.096435 1_555
C0 H5 1.097358 1_555
C0 H7 1.099907 1_555
C0 S1 1.788184 1_565
C1 H4 1.096435 1_555
C1 H6 1.097358 1_555
C1 H8 1.099907 1_555
C1 S2 1.788184 1_545
C2 H9 1.096435 1_555
C2 H2 1.097358 1_555
C2 H10 1.099907 1_555
C2 S0 1.788184 1_565
C3 H11 1.096435 1_555
C3 H0 1.097358 1_555
C3 H3 1.099907 1_555
C3 S3 1.788184 1_545
Cl0 Sb0 2.364441 1_555
Cl1 Sb2 2.364441 1_555
Cl2 Sb1 2.403324 1_555
Cl3 Sb0 2.368684 1_565
Cl4 Sb3 2.403324 1_555
Cl5 S0 2.052547 1_555
Cl6 Sb2 2.403324 1_555
Cl7 Sb0 2.381026 1_555
Cl8 Sb0 2.403324 1_555
Cl9 Sb0 2.393656 1_565
Cl10 Sb2 2.368684 1_545
Cl11 S2 2.052547 1_555
Cl12 Sb2 2.393656 1_545
Cl13 Sb1 2.381026 1_555
Cl14 Sb1 2.393656 1_545
Cl15 Sb3 2.364441 1_554
Cl16 Sb2 2.381026 1_555
Cl17 Sb3 2.393656 1_565
Cl18 Sb3 2.368684 1_565
Cl19 S1 2.052547 1_555
Cl20 Sb1 2.364441 1_556
Cl21 Sb1 2.368684 1_545
Cl22 S3 2.052547 1_555
Cl23 Sb3 2.381026 1_555
O0 S3 1.535852 1_555
O0 Sb1 2.244340 1_555
O1 S1 1.535852 1_555
O1 Sb3 2.244340 1_555
O2 S0 1.535852 1_554
O2 Sb0 2.244340 1_555
O3 S2 1.535852 1_556
O3 Sb2 2.244340 1_555
