# generated using pymatgen
data_K6NbAs3O
_symmetry_space_group_name_H-M   'P 1'
_cell_length_a   11.16751700
_cell_length_b   11.16751700
_cell_length_c   11.16751700
_cell_angle_alpha   90.00000000
_cell_angle_beta   90.00000000
_cell_angle_gamma   90.00000000
_symmetry_Int_Tables_number   1
_chemical_formula_structural   K6NbAs3O
_chemical_formula_sum   'K24 Nb4 As12 O4'
_cell_volume   1392.73941605
_cell_formula_units_Z   4
loop_
 _symmetry_equiv_pos_site_id
 _symmetry_equiv_pos_as_xyz
  1  'x, y, z'
loop_
 _atom_site_type_symbol
 _atom_site_label
 _atom_site_symmetry_multiplicity
 _atom_site_fract_x
 _atom_site_fract_y
 _atom_site_fract_z
 _atom_site_occupancy
  K  K0  1  0.78541200  0.36542500  0.53583600  1
  K  K1  1  0.13721500  0.36278500  0.63721500  1
  K  K2  1  0.46416400  0.28541200  0.13457500  1
  K  K3  1  0.86278500  0.86278500  0.86278500  1
  K  K4  1  0.68170500  0.31829500  0.81829500  1
  K  K5  1  0.31829500  0.81829500  0.68170500  1
  K  K6  1  0.53583600  0.78541200  0.36542500  1
  K  K7  1  0.81829500  0.68170500  0.31829500  1
  K  K8  1  0.36278500  0.63721500  0.13721500  1
  K  K9  1  0.15222500  0.84777500  0.34777500  1
  K  K10  1  0.65222500  0.65222500  0.65222500  1
  K  K11  1  0.28541200  0.13457500  0.46416400  1
  K  K12  1  0.21458800  0.86542500  0.96416400  1
  K  K13  1  0.71458800  0.63457500  0.03583600  1
  K  K14  1  0.63457500  0.03583600  0.71458800  1
  K  K15  1  0.13457500  0.46416400  0.28541200  1
  K  K16  1  0.96416400  0.21458800  0.86542500  1
  K  K17  1  0.34777500  0.15222500  0.84777500  1
  K  K18  1  0.86542500  0.96416400  0.21458800  1
  K  K19  1  0.84777500  0.34777500  0.15222500  1
  K  K20  1  0.03583600  0.71458800  0.63457500  1
  K  K21  1  0.36542500  0.53583600  0.78541200  1
  K  K22  1  0.18170500  0.18170500  0.18170500  1
  K  K23  1  0.63721500  0.13721500  0.36278500  1
  Nb  Nb0  1  0.42999700  0.42999700  0.42999700  1
  Nb  Nb1  1  0.57000300  0.92999700  0.07000300  1
  Nb  Nb2  1  0.07000300  0.57000300  0.92999700  1
  Nb  Nb3  1  0.92999700  0.07000300  0.57000300  1
  As  As0  1  0.30576300  0.61334000  0.48015800  1
  As  As1  1  0.98015800  0.19423700  0.38666000  1
  As  As2  1  0.51984200  0.80576300  0.88666000  1
  As  As3  1  0.69423700  0.11334000  0.01984200  1
  As  As4  1  0.19423700  0.38666000  0.98015800  1
  As  As5  1  0.01984200  0.69423700  0.11334000  1
  As  As6  1  0.61334000  0.48015800  0.30576300  1
  As  As7  1  0.38666000  0.98015800  0.19423700  1
  As  As8  1  0.80576300  0.88666000  0.51984200  1
  As  As9  1  0.88666000  0.51984200  0.80576300  1
  As  As10  1  0.11334000  0.01984200  0.69423700  1
  As  As11  1  0.48015800  0.30576300  0.61334000  1
  O  O0  1  0.16606200  0.66606200  0.83393800  1
  O  O1  1  0.33393800  0.33393800  0.33393800  1
  O  O2  1  0.66606200  0.83393800  0.16606200  1
  O  O3  1  0.83393800  0.16606200  0.66606200  1
loop_
_geom_bond_atom_site_label_1
_geom_bond_atom_site_label_2
_geom_bond_distance
_geom_bond_site_symmetry_2
K0 O3 2.713941 1_555
K2 O1 2.713941 1_555
K4 O3 2.944598 1_555
K5 O0 2.944598 1_555
K6 O2 2.713941 1_555
K7 O2 2.944598 1_555
K11 O1 2.713941 1_555
K12 O0 2.713941 1_555
K13 O2 2.713941 1_555
K14 O3 2.713941 1_555
K15 O1 2.713941 1_555
K16 O3 2.713941 1_555
K18 O2 2.713941 1_555
K20 O0 2.713941 1_555
K21 O0 2.713941 1_555
K22 O1 2.944598 1_555
Nb0 O1 1.858041 1_555
Nb1 O2 1.858041 1_555
Nb2 O0 1.858041 1_555
Nb3 O3 1.858041 1_555
As0 Nb0 2.535908 1_555
As0 K5 3.213157 1_555
As0 K15 3.340652 1_555
As0 K6 3.454827 1_555
As0 K9 3.461191 1_555
As0 K21 3.579645 1_555
As0 K20 3.652245 1_555
As0 K1 3.801111 1_555
As0 K8 3.891546 1_555
As1 Nb3 2.535908 1_555
As1 K22 3.213157 1_655
As1 K0 3.340652 1_555
As1 K18 3.454827 1_545
As1 K19 3.461191 1_555
As1 K11 3.579645 1_655
As1 K15 3.652245 1_655
As1 K1 3.801111 1_655
As1 K23 3.891546 1_555
As2 Nb1 2.535908 1_556
As2 K5 3.213157 1_555
As2 K13 3.340652 1_556
As2 K14 3.454827 1_565
As2 K10 3.461191 1_555
As2 K12 3.579645 1_555
As2 K21 3.652245 1_555
As2 K8 3.801111 1_556
As2 K3 3.891546 1_555
As3 Nb1 2.535908 1_545
As3 K4 3.213157 1_554
As3 K18 3.340652 1_545
As3 K2 3.454827 1_555
As3 K19 3.461191 1_555
As3 K14 3.579645 1_554
As3 K16 3.652245 1_554
As3 K3 3.801111 1_544
As3 K23 3.891546 1_555
As4 Nb2 2.535908 1_555
As4 K22 3.213157 1_556
As4 K21 3.340652 1_555
As4 K16 3.454827 1_455
As4 K17 3.461191 1_555
As4 K15 3.579645 1_556
As4 K2 3.652245 1_556
As4 K8 3.801111 1_556
As4 K1 3.891546 1_555
As5 Nb2 2.535908 1_554
As5 K7 3.213157 1_455
As5 K12 3.340652 1_554
As5 K15 3.454827 1_555
As5 K9 3.461191 1_555
As5 K13 3.579645 1_455
As5 K18 3.652245 1_455
As5 K3 3.801111 1_454
As5 K8 3.891546 1_555
As6 Nb0 2.535908 1_555
As6 K7 3.213157 1_555
As6 K2 3.340652 1_555
As6 K0 3.454827 1_555
As6 K19 3.461191 1_555
As6 K6 3.579645 1_555
As6 K13 3.652245 1_555
As6 K8 3.801111 1_555
As6 K23 3.891546 1_555
As7 Nb1 2.535908 1_555
As7 K22 3.213157 1_565
As7 K6 3.340652 1_555
As7 K12 3.454827 1_554
As7 K9 3.461191 1_555
As7 K2 3.579645 1_565
As7 K11 3.652245 1_565
As7 K23 3.801111 1_565
As7 K8 3.891546 1_555
As8 Nb3 2.535908 1_565
As8 K7 3.213157 1_555
As8 K14 3.340652 1_565
As8 K20 3.454827 1_655
As8 K10 3.461191 1_555
As8 K18 3.579645 1_555
As8 K6 3.652245 1_555
As8 K23 3.801111 1_565
As8 K3 3.891546 1_555
As9 Nb2 2.535908 1_655
As9 K4 3.213157 1_555
As9 K20 3.340652 1_655
As9 K13 3.454827 1_556
As9 K10 3.461191 1_555
As9 K16 3.579645 1_555
As9 K0 3.652245 1_555
As9 K1 3.801111 1_655
As9 K3 3.891546 1_555
As10 Nb3 2.535908 1_455
As10 K5 3.213157 1_545
As10 K16 3.340652 1_455
As10 K11 3.454827 1_555
As10 K17 3.461191 1_555
As10 K20 3.579645 1_545
As10 K12 3.652245 1_545
As10 K3 3.801111 1_445
As10 K1 3.891546 1_555
As11 Nb0 2.535908 1_555
As11 K4 3.213157 1_555
As11 K11 3.340652 1_555
As11 K21 3.454827 1_555
As11 K17 3.461191 1_555
As11 K0 3.579645 1_555
As11 K14 3.652245 1_555
As11 K23 3.801111 1_555
As11 K1 3.891546 1_555
