# generated using pymatgen
data_V2Ga8Cu3
_symmetry_space_group_name_H-M   'P 1'
_cell_length_a   10.13039178
_cell_length_b   10.13039178
_cell_length_c   10.13039178
_cell_angle_alpha   109.47122063
_cell_angle_beta   109.47122063
_cell_angle_gamma   109.47122063
_symmetry_Int_Tables_number   1
_chemical_formula_structural   V2Ga8Cu3
_chemical_formula_sum   'V8 Ga32 Cu12'
_cell_volume   800.30740148
_cell_formula_units_Z   4
loop_
 _symmetry_equiv_pos_site_id
 _symmetry_equiv_pos_as_xyz
  1  'x, y, z'
loop_
 _atom_site_type_symbol
 _atom_site_label
 _atom_site_symmetry_multiplicity
 _atom_site_fract_x
 _atom_site_fract_y
 _atom_site_fract_z
 _atom_site_occupancy
  V  V0  1  0.02419244  0.02419244  0.02419244  1
  V  V1  1  0.97580756  0.50000000  -0.00000000  1
  V  V2  1  0.00000000  0.47580756  0.50000000  1
  V  V3  1  0.52419244  0.52419244  0.52419244  1
  V  V4  1  -0.00000000  0.97580756  0.50000000  1
  V  V5  1  0.50000000  -0.00000000  0.47580756  1
  V  V6  1  0.47580756  0.50000000  0.00000000  1
  V  V7  1  0.50000000  0.00000000  0.97580756  1
  Ga  Ga0  1  0.50967312  0.26386507  0.00590621  1
  Ga  Ga1  1  0.72649506  0.50000000  -0.00000000  1
  Ga  Ga2  1  0.49032688  0.25419195  0.49623309  1
  Ga  Ga3  1  0.50590621  0.76386507  0.00967312  1
  Ga  Ga4  1  0.99409379  0.00376691  0.25795886  1
  Ga  Ga5  1  0.00376691  0.25795886  0.99409379  1
  Ga  Ga6  1  0.24580805  0.73613493  0.24204114  1
  Ga  Ga7  1  0.00000000  0.72649506  0.50000000  1
  Ga  Ga8  1  0.74580805  0.74204114  0.23613493  1
  Ga  Ga9  1  0.50376691  0.49409379  0.75795886  1
  Ga  Ga10  1  0.76386507  0.00967312  0.50590621  1
  Ga  Ga11  1  0.50000000  -0.00000000  0.22649506  1
  Ga  Ga12  1  0.00967312  0.50590621  0.76386507  1
  Ga  Ga13  1  0.73613493  0.24204114  0.24580805  1
  Ga  Ga14  1  0.22649506  0.50000000  0.00000000  1
  Ga  Ga15  1  0.26386507  0.00590621  0.50967312  1
  Ga  Ga16  1  0.50000000  0.00000000  0.72649506  1
  Ga  Ga17  1  0.75419195  0.99032688  0.99623309  1
  Ga  Ga18  1  0.99623309  0.75419195  0.99032688  1
  Ga  Ga19  1  0.49623309  0.49032688  0.25419195  1
  Ga  Ga20  1  0.25419195  0.49623309  0.49032688  1
  Ga  Ga21  1  0.75795886  0.50376691  0.49409379  1
  Ga  Ga22  1  0.77350394  0.77350394  0.77350494  1
  Ga  Ga23  1  0.24204114  0.24580805  0.73613493  1
  Ga  Ga24  1  0.00590621  0.50967312  0.26386507  1
  Ga  Ga25  1  0.74204114  0.23613493  0.74580805  1
  Ga  Ga26  1  0.27350394  0.27350394  0.27350494  1
  Ga  Ga27  1  0.00000000  0.22649506  0.50000000  1
  Ga  Ga28  1  0.99032688  0.99623309  0.75419195  1
  Ga  Ga29  1  0.25795886  0.99409379  0.00376691  1
  Ga  Ga30  1  0.49409379  0.75795886  0.50376691  1
  Ga  Ga31  1  0.23613493  0.74580805  0.74204114  1
  Cu  Cu0  1  0.74479478  0.75000000  0.49479478  1
  Cu  Cu1  1  0.75000000  0.25520522  0.50520522  1
  Cu  Cu2  1  0.75520522  0.25000000  0.00520522  1
  Cu  Cu3  1  0.75000000  0.49479478  0.74479478  1
  Cu  Cu4  1  0.00520522  0.75520522  0.25000000  1
  Cu  Cu5  1  0.49479478  0.74479478  0.75000000  1
  Cu  Cu6  1  0.25000000  0.00520522  0.75520522  1
  Cu  Cu7  1  0.25000000  0.24479478  0.99479478  1
  Cu  Cu8  1  0.24479478  0.99479478  0.25000000  1
  Cu  Cu9  1  0.25520522  0.50520522  0.75000000  1
  Cu  Cu10  1  0.99479478  0.25000000  0.24479478  1
  Cu  Cu11  1  0.50520522  0.75000000  0.25520522  1
loop_
_geom_bond_atom_site_label_1
_geom_bond_atom_site_label_2
_geom_bond_distance
_geom_bond_site_symmetry_2
Ga0 V6 2.544103 1_555
Ga0 V7 2.551450 1_554
Ga0 Ga1 2.688985 1_555
Ga1 V1 2.525633 1_555
Ga1 V6 2.539563 1_555
Ga1 Ga9 2.688985 1_554
Ga1 Ga8 2.688985 1_555
Ga2 V3 2.544103 1_555
Ga2 V5 2.551450 1_555
Ga2 Ga26 2.688984 1_555
Ga3 V7 2.544103 1_564
Ga3 V6 2.551450 1_555
Ga4 V4 2.544103 1_645
Ga4 V0 2.551450 1_655
Ga5 V1 2.544103 1_456
Ga5 V0 2.551450 1_556
Ga6 V1 2.544103 1_455
Ga6 V5 2.551450 1_565
Ga7 V4 2.525633 1_555
Ga7 V2 2.539563 1_555
Ga8 V6 2.544103 1_555
Ga8 V4 2.551450 1_655
Ga9 V6 2.544103 1_556
Ga9 V3 2.551450 1_555
Ga10 V4 2.544103 1_645
Ga10 V5 2.551450 1_555
Ga10 Ga27 2.688985 1_655
Ga11 V5 2.525633 1_555
Ga11 V7 2.539563 1_554
Ga11 Ga29 2.688985 1_545
Ga11 Ga3 2.688985 1_545
Ga11 Ga13 2.688985 1_555
Ga12 V1 2.544103 1_456
Ga12 V2 2.551450 1_555
Ga12 Ga14 2.688985 1_556
Ga13 V7 2.544103 1_554
Ga13 V2 2.551450 1_655
Ga14 V6 2.525633 1_555
Ga14 V1 2.539563 1_455
Ga14 Ga6 2.688985 1_555
Ga14 Ga5 2.688985 1_554
Ga15 V5 2.544103 1_555
Ga15 V4 2.551450 1_545
Ga15 Ga16 2.688985 1_555
Ga16 V7 2.525633 1_555
Ga16 V5 2.539563 1_555
Ga16 Ga30 2.688985 1_545
Ga16 Ga25 2.688985 1_555
Ga17 V0 2.544103 1_666
Ga17 V7 2.551450 1_565
Ga17 Ga22 2.688984 1_555
Ga18 V0 2.544103 1_666
Ga18 V1 2.551450 1_556
Ga18 Ga22 2.688985 1_555
Ga19 V3 2.544103 1_555
Ga19 V6 2.551450 1_555
Ga19 Ga26 2.688997 1_555
Ga20 V3 2.544103 1_555
Ga20 V2 2.551450 1_555
Ga20 Ga26 2.688985 1_555
Ga21 V2 2.544103 1_655
Ga21 V3 2.551450 1_555
Ga21 Ga7 2.688985 1_655
Ga22 V3 2.525627 1_555
Ga22 V0 2.539569 1_666
Ga22 Ga28 2.688997 1_555
Ga23 V4 2.544103 1_545
Ga23 V6 2.551450 1_556
Ga23 Ga27 2.688985 1_555
Ga24 V2 2.544103 1_555
Ga24 V1 2.551450 1_455
Ga24 Ga7 2.688985 1_555
Ga25 V5 2.544103 1_555
Ga25 V1 2.551450 1_556
Ga26 V0 2.525627 1_555
Ga26 V3 2.539569 1_555
Ga27 V2 2.525633 1_555
Ga27 V4 2.539563 1_545
Ga27 Ga4 2.688985 1_455
Ga28 V0 2.544103 1_666
Ga28 V4 2.551450 1_655
Ga29 V7 2.544103 1_564
Ga29 V0 2.551450 1_565
Ga30 V5 2.544103 1_565
Ga30 V3 2.551450 1_555
Ga31 V2 2.544103 1_555
Ga31 V7 2.551450 1_565
Ga31 Ga7 2.688985 1_555
Cu0 Ga10 2.533633 1_565
Cu0 Ga19 2.533633 1_555
Cu0 Ga21 2.539812 1_555
Cu0 Ga28 2.539812 1_555
Cu0 Ga8 2.598144 1_555
Cu0 Ga30 2.598144 1_555
Cu0 Ga7 2.659190 1_655
Cu0 Ga22 2.659196 1_555
Cu0 V3 2.793831 1_555
Cu0 V4 2.793831 1_655
Cu0 Cu11 2.802615 1_555
Cu1 Ga25 2.533633 1_555
Cu1 Ga21 2.533633 1_555
Cu1 Ga10 2.539812 1_555
Cu1 Ga13 2.539812 1_555
Cu1 Ga2 2.598144 1_555
Cu1 Ga12 2.598144 1_655
Cu1 Ga11 2.659190 1_555
Cu1 Ga27 2.659190 1_655
Cu1 V5 2.793831 1_555
Cu1 V2 2.793831 1_655
Cu1 Cu3 2.802615 1_555
Cu2 Ga5 2.533633 1_654
Cu2 Ga13 2.533633 1_555
Cu2 Ga0 2.539812 1_555
Cu2 Ga25 2.539812 1_554
Cu2 Ga24 2.598144 1_655
Cu2 Ga17 2.598144 1_544
Cu2 Ga16 2.659190 1_554
Cu2 Ga1 2.659190 1_555
Cu2 V1 2.793831 1_555
Cu2 V7 2.793831 1_554
Cu3 Ga12 2.533633 1_655
Cu3 Ga2 2.533633 1_555
Cu3 Ga9 2.539812 1_555
Cu3 Ga18 2.539812 1_555
Cu3 Ga21 2.598144 1_555
Cu3 Ga25 2.598144 1_555
Cu3 Ga22 2.659183 1_555
Cu3 Ga1 2.659190 1_556
Cu3 V1 2.793831 1_556
Cu3 V3 2.793831 1_555
Cu4 Ga4 2.533633 1_465
Cu4 Ga6 2.533633 1_555
Cu4 Ga24 2.539812 1_555
Cu4 Ga8 2.539812 1_455
Cu4 Ga15 2.598144 1_565
Cu4 Ga18 2.598144 1_454
Cu4 Ga7 2.659190 1_555
Cu4 Ga1 2.659190 1_455
Cu4 V1 2.793831 1_455
Cu4 V4 2.793831 1_555
Cu4 Cu8 2.802615 1_555
Cu5 Ga3 2.533633 1_556
Cu5 Ga20 2.533633 1_555
Cu5 Ga17 2.539812 1_555
Cu5 Ga30 2.539812 1_555
Cu5 Ga9 2.598144 1_555
Cu5 Ga31 2.598144 1_555
Cu5 Ga22 2.659183 1_555
Cu5 Ga16 2.659190 1_565
Cu5 V7 2.793831 1_565
Cu5 V3 2.793831 1_555
Cu5 Cu9 2.802615 1_555
Cu6 Ga29 2.533633 1_546
Cu6 Ga23 2.533633 1_555
Cu6 Ga15 2.539812 1_555
Cu6 Ga31 2.539812 1_545
Cu6 Ga0 2.598144 1_556
Cu6 Ga28 2.598144 1_445
Cu6 Ga7 2.659190 1_545
Cu6 Ga16 2.659190 1_555
Cu6 V7 2.793831 1_555
Cu6 V4 2.793831 1_545
Cu6 Cu7 2.802615 1_555
Cu7 Ga28 2.533633 1_445
Cu7 Ga0 2.533633 1_556
Cu7 Ga5 2.539812 1_555
Cu7 Ga19 2.539812 1_556
Cu7 Ga29 2.598144 1_546
Cu7 Ga23 2.598144 1_555
Cu7 Ga14 2.659190 1_556
Cu7 Ga26 2.659196 1_556
Cu7 V0 2.793831 1_556
Cu7 V6 2.793831 1_556
Cu8 Ga18 2.533633 1_454
Cu8 Ga15 2.533633 1_565
Cu8 Ga29 2.539812 1_555
Cu8 Ga2 2.539812 1_565
Cu8 Ga6 2.598144 1_555
Cu8 Ga4 2.598144 1_465
Cu8 Ga26 2.659183 1_565
Cu8 Ga11 2.659190 1_565
Cu8 V5 2.793831 1_565
Cu8 V0 2.793831 1_565
Cu9 Ga9 2.533633 1_555
Cu9 Ga31 2.533633 1_555
Cu9 Ga12 2.539812 1_555
Cu9 Ga23 2.539812 1_555
Cu9 Ga20 2.598144 1_555
Cu9 Ga3 2.598144 1_556
Cu9 Ga14 2.659190 1_556
Cu9 Ga27 2.659190 1_555
Cu9 V6 2.793831 1_556
Cu9 V2 2.793831 1_555
Cu10 Ga24 2.533633 1_655
Cu10 Ga17 2.533633 1_544
Cu10 Ga4 2.539812 1_555
Cu10 Ga20 2.539812 1_655
Cu10 Ga5 2.598144 1_654
Cu10 Ga13 2.598144 1_555
Cu10 Ga26 2.659183 1_655
Cu10 Ga27 2.659190 1_655
Cu10 V0 2.793831 1_655
Cu10 V2 2.793831 1_655
Cu10 Cu2 2.802615 1_555
Cu11 Ga30 2.533633 1_555
Cu11 Ga8 2.533633 1_555
Cu11 Ga3 2.539812 1_555
Cu11 Ga6 2.539812 1_555
Cu11 Ga19 2.598144 1_555
Cu11 Ga10 2.598144 1_565
Cu11 Ga11 2.659190 1_565
Cu11 Ga14 2.659190 1_555
Cu11 V6 2.793831 1_555
Cu11 V5 2.793831 1_565
