# generated using pymatgen
data_SrZnP2O7
_symmetry_space_group_name_H-M   'P 1'
_cell_length_a   8.31438800
_cell_length_b   5.38833500
_cell_length_c   14.00014388
_cell_angle_alpha   67.58806605
_cell_angle_beta   90.00000000
_cell_angle_gamma   90.00000000
_symmetry_Int_Tables_number   1
_chemical_formula_structural   SrZnP2O7
_chemical_formula_sum   'Sr4 Zn4 P8 O28'
_cell_volume   579.84059845
_cell_formula_units_Z   4
loop_
 _symmetry_equiv_pos_site_id
 _symmetry_equiv_pos_as_xyz
  1  'x, y, z'
loop_
 _atom_site_type_symbol
 _atom_site_label
 _atom_site_symmetry_multiplicity
 _atom_site_fract_x
 _atom_site_fract_y
 _atom_site_fract_z
 _atom_site_occupancy
  Sr  Sr0  1  0.66124000  0.00907100  0.27909200  1
  Sr  Sr1  1  0.16124000  0.99092900  0.22090800  1
  Sr  Sr2  1  0.33876000  0.99092900  0.72090800  1
  Sr  Sr3  1  0.83876000  0.00907100  0.77909200  1
  Zn  Zn0  1  0.65281800  0.72254900  0.60471000  1
  Zn  Zn1  1  0.34718200  0.27745100  0.39529000  1
  Zn  Zn2  1  0.15281800  0.27745100  0.89529000  1
  Zn  Zn3  1  0.84718200  0.72254900  0.10471000  1
  P  P0  1  0.96437100  0.41703200  0.33443100  1
  P  P1  1  0.03562900  0.58296800  0.66556900  1
  P  P2  1  0.80160600  0.33519400  0.98005400  1
  P  P3  1  0.19839400  0.66480600  0.01994600  1
  P  P4  1  0.30160600  0.66480600  0.51994600  1
  P  P5  1  0.69839400  0.33519400  0.48005400  1
  P  P6  1  0.53562900  0.41703200  0.83443100  1
  P  P7  1  0.46437100  0.58296800  0.16556900  1
  O  O0  1  0.40406800  0.72752700  0.60015000  1
  O  O1  1  0.38492400  0.68097000  0.05132800  1
  O  O2  1  0.88036700  0.68032800  0.26587700  1
  O  O3  1  0.31445700  0.88672800  0.41143100  1
  O  O4  1  0.64036500  0.51937800  0.15223200  1
  O  O5  1  0.05888600  0.80811100  0.70492400  1
  O  O6  1  0.90406800  0.27247300  0.89985000  1
  O  O7  1  0.61507600  0.31903000  0.94867200  1
  O  O8  1  0.33238400  0.37835300  0.52547000  1
  O  O9  1  0.18554300  0.88672800  0.91143100  1
  O  O10  1  0.16761600  0.37835300  0.02547000  1
  O  O11  1  0.35963500  0.48062200  0.84776800  1
  O  O12  1  0.94111400  0.19188900  0.29507600  1
  O  O13  1  0.61963300  0.68032800  0.76587700  1
  O  O14  1  0.59593200  0.27247300  0.39985000  1
  O  O15  1  0.11507600  0.68097000  0.55132800  1
  O  O16  1  0.38036700  0.31967200  0.23412300  1
  O  O17  1  0.68554300  0.11327200  0.58856900  1
  O  O18  1  0.81445700  0.11327200  0.08856900  1
  O  O19  1  0.14036500  0.48062200  0.34776800  1
  O  O20  1  0.11963300  0.31967200  0.73412300  1
  O  O21  1  0.85963500  0.51937800  0.65223200  1
  O  O22  1  0.09593200  0.72752700  0.10015000  1
  O  O23  1  0.88492400  0.31903000  0.44867200  1
  O  O24  1  0.66761600  0.62164700  0.47453000  1
  O  O25  1  0.55888600  0.19188900  0.79507600  1
  O  O26  1  0.44111400  0.80811100  0.20492400  1
  O  O27  1  0.83238400  0.62164700  0.97453000  1
loop_
_geom_bond_atom_site_label_1
_geom_bond_atom_site_label_2
_geom_bond_distance
_geom_bond_site_symmetry_2
O0 P4 1.546016 1_555
O0 Zn0 2.069047 1_555
O0 Sr2 2.645216 1_555
O1 P7 1.621486 1_555
O1 P3 1.623278 1_555
O2 P0 1.543848 1_555
O2 Zn3 2.197186 1_555
O2 Sr0 2.596392 1_565
O2 Sr1 2.801337 1_655
O3 P4 1.537568 1_555
O3 Zn1 2.048122 1_565
O3 Sr1 2.812623 1_555
O4 P7 1.530441 1_555
O4 Zn3 2.010625 1_555
O4 Sr0 2.649809 1_555
O5 P1 1.523933 1_555
O5 Sr3 2.541218 1_465
O5 Sr2 2.569708 1_555
O6 P2 1.546016 1_555
O6 Zn2 2.069047 1_655
O6 Sr3 2.645216 1_555
O7 P6 1.621486 1_555
O7 P2 1.623278 1_555
O8 P4 1.537157 1_555
O8 Zn1 2.094750 1_555
O8 Sr2 2.737123 1_545
O9 P3 1.537568 1_556
O9 Zn2 2.048122 1_565
O9 Sr2 2.812623 1_555
O10 P3 1.537157 1_555
O10 Zn2 2.094750 1_554
O10 Sr1 2.737123 1_545
O11 P6 1.530441 1_555
O11 Zn2 2.010625 1_555
O11 Sr2 2.649809 1_555
O12 P0 1.523933 1_555
O12 Sr1 2.541218 1_645
O12 Sr0 2.569708 1_555
O13 P6 1.543848 1_555
O13 Zn0 2.197186 1_555
O13 Sr3 2.596392 1_565
O13 Sr2 2.801337 1_555
O14 P5 1.546016 1_555
O14 Zn1 2.069047 1_555
O14 Sr0 2.645216 1_555
O15 P1 1.621486 1_555
O15 P4 1.623278 1_555
O16 P7 1.543848 1_555
O16 Zn1 2.197186 1_555
O16 Sr1 2.596392 1_545
O16 Sr0 2.801337 1_555
O17 P5 1.537568 1_555
O17 Zn0 2.048122 1_545
O17 Sr3 2.812623 1_555
O18 P2 1.537568 1_554
O18 Zn3 2.048122 1_545
O18 Sr0 2.812623 1_555
O19 P0 1.530441 1_455
O19 Zn1 2.010625 1_555
O19 Sr1 2.649809 1_555
O20 P1 1.543848 1_555
O20 Zn2 2.197186 1_555
O20 Sr2 2.596392 1_545
O20 Sr3 2.801337 1_455
O21 P1 1.530441 1_655
O21 Zn0 2.010625 1_555
O21 Sr3 2.649809 1_555
O22 P3 1.546016 1_555
O22 Zn3 2.069047 1_455
O22 Sr1 2.645216 1_555
O23 P0 1.621486 1_555
O23 P5 1.623278 1_555
O24 P5 1.537157 1_555
O24 Zn0 2.094750 1_555
O24 Sr0 2.737123 1_565
O25 P6 1.523933 1_555
O25 Sr2 2.541218 1_545
O25 Sr3 2.569708 1_555
O26 P7 1.523933 1_555
O26 Sr0 2.541218 1_565
O26 Sr1 2.569708 1_555
O27 P2 1.537157 1_555
O27 Zn3 2.094750 1_556
O27 Sr3 2.737123 1_565
