# generated using pymatgen
data_Y2Zr24O51
_symmetry_space_group_name_H-M   'P 1'
_cell_length_a   3.64465700
_cell_length_b   3.65864800
_cell_length_c   69.04576900
_cell_angle_alpha   90.00000000
_cell_angle_beta   90.00000000
_cell_angle_gamma   90.00000000
_symmetry_Int_Tables_number   1
_chemical_formula_structural   Y2Zr24O51
_chemical_formula_sum   'Y2 Zr24 O51'
_cell_volume   920.69198353
_cell_formula_units_Z   1
loop_
 _symmetry_equiv_pos_site_id
 _symmetry_equiv_pos_as_xyz
  1  'x, y, z'
loop_
 _atom_site_type_symbol
 _atom_site_label
 _atom_site_symmetry_multiplicity
 _atom_site_fract_x
 _atom_site_fract_y
 _atom_site_fract_z
 _atom_site_occupancy
  Y  Y0  1  0.50000000  0.00000000  0.01496500  1
  Y  Y1  1  0.00000000  0.50000000  0.05994100  1
  Zr  Zr0  1  0.50000000  0.00000000  0.94126800  1
  Zr  Zr1  1  0.50000000  0.00000000  0.86569700  1
  Zr  Zr2  1  0.50000000  0.00000000  0.78896600  1
  Zr  Zr3  1  0.50000000  0.00000000  0.71185100  1
  Zr  Zr4  1  0.50000000  0.00000000  0.63474200  1
  Zr  Zr5  1  0.50000000  0.00000000  0.55772400  1
  Zr  Zr6  1  0.50000000  0.00000000  0.48076500  1
  Zr  Zr7  1  0.50000000  0.00000000  0.40384000  1
  Zr  Zr8  1  0.50000000  0.00000000  0.32695600  1
  Zr  Zr9  1  0.50000000  0.00000000  0.25016400  1
  Zr  Zr10  1  0.50000000  0.00000000  0.17351000  1
  Zr  Zr11  1  0.50000000  0.00000000  0.09710700  1
  Zr  Zr12  1  0.00000000  0.50000000  0.97856800  1
  Zr  Zr13  1  0.00000000  0.50000000  0.90370200  1
  Zr  Zr14  1  0.00000000  0.50000000  0.82746900  1
  Zr  Zr15  1  0.00000000  0.50000000  0.75047800  1
  Zr  Zr16  1  0.00000000  0.50000000  0.67334100  1
  Zr  Zr17  1  0.00000000  0.50000000  0.59627700  1
  Zr  Zr18  1  0.00000000  0.50000000  0.51929300  1
  Zr  Zr19  1  0.00000000  0.50000000  0.36544500  1
  Zr  Zr20  1  0.00000000  0.50000000  0.44235200  1
  Zr  Zr21  1  0.00000000  0.50000000  0.21186900  1
  Zr  Zr22  1  0.00000000  0.50000000  0.28859500  1
  Zr  Zr23  1  0.00000000  0.50000000  0.13530500  1
  O  O0  1  0.00000000  0.00000000  0.99812200  1
  O  O1  1  0.00000000  0.00000000  0.95937300  1
  O  O2  1  0.00000000  0.00000000  0.92030900  1
  O  O3  1  0.00000000  0.00000000  0.84271700  1
  O  O4  1  0.00000000  0.00000000  0.88146400  1
  O  O5  1  0.00000000  0.00000000  0.80408000  1
  O  O6  1  0.00000000  0.00000000  0.76543200  1
  O  O7  1  0.00000000  0.00000000  0.72683200  1
  O  O8  1  0.00000000  0.00000000  0.68821900  1
  O  O9  1  0.00000000  0.00000000  0.64966500  1
  O  O10  1  0.00000000  0.00000000  0.61110500  1
  O  O11  1  0.00000000  0.00000000  0.57260700  1
  O  O12  1  0.00000000  0.00000000  0.53409400  1
  O  O13  1  0.00000000  0.00000000  0.45714900  1
  O  O14  1  0.00000000  0.00000000  0.49563300  1
  O  O15  1  0.00000000  0.00000000  0.41871300  1
  O  O16  1  0.00000000  0.00000000  0.38025700  1
  O  O17  1  0.00000000  0.00000000  0.34185700  1
  O  O18  1  0.00000000  0.00000000  0.30345200  1
  O  O19  1  0.00000000  0.00000000  0.26512700  1
  O  O20  1  0.00000000  0.00000000  0.22680100  1
  O  O21  1  0.00000000  0.00000000  0.18855900  1
  O  O22  1  0.00000000  0.00000000  0.15034300  1
  O  O23  1  0.00000000  0.00000000  0.11231200  1
  O  O24  1  0.00000000  0.00000000  0.07460400  1
  O  O25  1  0.50000000  0.50000000  0.92446700  1
  O  O26  1  0.50000000  0.50000000  0.77415300  1
  O  O27  1  0.50000000  0.50000000  0.85041700  1
  O  O28  1  0.50000000  0.50000000  0.61999200  1
  O  O29  1  0.50000000  0.50000000  0.69712800  1
  O  O30  1  0.50000000  0.50000000  0.46595700  1
  O  O31  1  0.50000000  0.50000000  0.54293600  1
  O  O32  1  0.50000000  0.50000000  0.31215900  1
  O  O33  1  0.50000000  0.50000000  0.96041700  1
  O  O34  1  0.50000000  0.50000000  0.38903000  1
  O  O35  1  0.50000000  0.50000000  0.15868700  1
  O  O36  1  0.50000000  0.50000000  0.23538400  1
  O  O37  1  0.50000000  0.50000000  0.88778700  1
  O  O38  1  0.50000000  0.50000000  0.81243000  1
  O  O39  1  0.50000000  0.50000000  0.08198200  1
  O  O40  1  0.50000000  0.50000000  0.99631800  1
  O  O41  1  0.50000000  0.50000000  0.73566300  1
  O  O42  1  0.50000000  0.50000000  0.65853800  1
  O  O43  1  0.50000000  0.50000000  0.50442100  1
  O  O44  1  0.50000000  0.50000000  0.58143400  1
  O  O45  1  0.50000000  0.50000000  0.35056800  1
  O  O46  1  0.50000000  0.50000000  0.42746900  1
  O  O47  1  0.50000000  0.50000000  0.19701200  1
  O  O48  1  0.50000000  0.50000000  0.27373800  1
  O  O49  1  0.50000000  0.50000000  0.03792000  1
  O  O50  1  0.50000000  0.50000000  0.12031400  1
loop_
_geom_bond_atom_site_label_1
_geom_bond_atom_site_label_2
_geom_bond_distance
_geom_bond_site_symmetry_2
O0 Y0 2.161783 1_556
O0 Y0 2.161783 1_456
O0 Zr12 2.273599 1_555
O0 Zr12 2.273599 1_545
O1 Zr0 2.209879 1_555
O1 Zr0 2.209879 1_455
O1 Zr12 2.258968 1_555
O1 Zr12 2.258968 1_545
O2 Zr13 2.158985 1_555
O2 Zr13 2.158985 1_545
O2 Zr0 2.327030 1_555
O2 Zr0 2.327030 1_455
O3 Zr14 2.110648 1_545
O3 Zr14 2.110648 1_555
O3 Zr1 2.416280 1_555
O3 Zr1 2.416280 1_455
O4 Zr1 2.122741 1_555
O4 Zr1 2.122741 1_455
O4 Zr13 2.388305 1_555
O4 Zr13 2.388305 1_545
O5 Zr2 2.099975 1_555
O5 Zr2 2.099975 1_455
O5 Zr14 2.440157 1_555
O5 Zr14 2.440157 1_545
O6 Zr15 2.100596 1_555
O6 Zr15 2.100596 1_545
O6 Zr2 2.441568 1_555
O6 Zr2 2.441568 1_455
O7 Zr3 2.095426 1_455
O7 Zr3 2.095426 1_555
O7 Zr15 2.451937 1_545
O7 Zr15 2.451937 1_555
O8 Zr16 2.098022 1_545
O8 Zr16 2.098022 1_555
O8 Zr3 2.446077 1_455
O8 Zr3 2.446077 1_555
O9 Zr4 2.093453 1_455
O9 Zr4 2.093453 1_555
O9 Zr16 2.453316 1_545
O9 Zr16 2.453316 1_555
O10 Zr17 2.096334 1_555
O10 Zr17 2.096334 1_545
O10 Zr4 2.446307 1_555
O10 Zr4 2.446307 1_455
O11 Zr5 2.092095 1_555
O11 Zr5 2.092095 1_455
O11 Zr17 2.453040 1_545
O11 Zr17 2.453040 1_555
O12 Zr18 2.095424 1_555
O12 Zr18 2.095424 1_545
O12 Zr5 2.445985 1_455
O12 Zr5 2.445985 1_555
O13 Zr20 2.095289 1_545
O13 Zr20 2.095289 1_555
O13 Zr6 2.445340 1_455
O13 Zr6 2.445340 1_555
O14 Zr6 2.091586 1_555
O14 Zr6 2.091586 1_455
O14 Zr18 2.452580 1_555
O14 Zr18 2.452580 1_545
O15 Zr7 2.091756 1_555
O15 Zr7 2.091756 1_455
O15 Zr20 2.451615 1_545
O15 Zr20 2.451615 1_555
O16 Zr19 2.095794 1_555
O16 Zr19 2.095794 1_545
O16 Zr7 2.443821 1_455
O16 Zr7 2.443821 1_555
O17 Zr8 2.092705 1_455
O17 Zr8 2.092705 1_555
O17 Zr19 2.449272 1_545
O17 Zr19 2.449272 1_555
O18 Zr22 2.097312 1_555
O18 Zr22 2.097312 1_545
O18 Zr8 2.440190 1_555
O18 Zr8 2.440190 1_455
O19 Zr9 2.094813 1_455
O19 Zr9 2.094813 1_555
O19 Zr22 2.443770 1_555
O19 Zr22 2.443770 1_545
O20 Zr21 2.099850 1_555
O20 Zr21 2.099850 1_545
O20 Zr9 2.433727 1_455
O20 Zr9 2.433727 1_555
O21 Zr10 2.097748 1_455
O21 Zr10 2.097748 1_555
O21 Zr21 2.436550 1_545
O21 Zr21 2.436550 1_555
O22 Zr23 2.103453 1_545
O22 Zr23 2.103453 1_555
O22 Zr10 2.424778 1_555
O22 Zr10 2.424778 1_455
O23 Zr11 2.103104 1_555
O23 Zr11 2.103104 1_455
O23 Zr23 2.422148 1_555
O23 Zr23 2.422148 1_545
O24 Y1 2.090793 1_545
O24 Y1 2.090793 1_555
O24 Zr11 2.394782 1_455
O24 Zr11 2.394782 1_555
O25 Zr0 2.166129 1_565
O25 Zr0 2.166129 1_555
O25 Zr13 2.318723 1_555
O25 Zr13 2.318723 1_655
O26 Zr2 2.095828 1_555
O26 Zr2 2.095828 1_565
O26 Zr15 2.448058 1_555
O26 Zr15 2.448058 1_655
O27 Zr1 2.111751 1_565
O27 Zr1 2.111751 1_555
O27 Zr14 2.414830 1_555
O27 Zr14 2.414830 1_655
O28 Zr4 2.093709 1_555
O28 Zr4 2.093709 1_565
O28 Zr17 2.449903 1_555
O28 Zr17 2.449903 1_655
O29 Zr3 2.092802 1_555
O29 Zr3 2.092802 1_565
O29 Zr16 2.453229 1_555
O29 Zr16 2.453229 1_655
O30 Zr6 2.095660 1_555
O30 Zr6 2.095660 1_565
O30 Zr20 2.444834 1_655
O30 Zr20 2.444834 1_555
O31 Zr5 2.094986 1_565
O31 Zr5 2.094986 1_555
O31 Zr18 2.446584 1_555
O31 Zr18 2.446584 1_655
O32 Zr8 2.095289 1_555
O32 Zr8 2.095289 1_565
O32 Zr22 2.442947 1_555
O32 Zr22 2.442947 1_655
O33 Zr12 2.211677 1_655
O33 Zr12 2.211677 1_555
O33 Zr0 2.257106 1_555
O33 Zr0 2.257106 1_565
O34 Zr7 2.095727 1_565
O34 Zr7 2.095727 1_555
O34 Zr19 2.443913 1_555
O34 Zr19 2.443913 1_655
O35 Zr10 2.096165 1_565
O35 Zr10 2.096165 1_555
O35 Zr23 2.434596 1_655
O35 Zr23 2.434596 1_555
O36 Zr9 2.094717 1_555
O36 Zr9 2.094717 1_565
O36 Zr21 2.440696 1_555
O36 Zr21 2.440696 1_655
O37 Zr13 2.128000 1_555
O37 Zr13 2.128000 1_655
O37 Zr1 2.381748 1_565
O37 Zr1 2.381748 1_555
O38 Zr14 2.097406 1_555
O38 Zr14 2.097406 1_655
O38 Zr2 2.443587 1_555
O38 Zr2 2.443587 1_565
O39 Zr11 2.106425 1_555
O39 Zr11 2.106425 1_565
O39 Y1 2.374210 1_655
O39 Y1 2.374210 1_555
O40 Zr12 2.196107 1_555
O40 Zr12 2.196107 1_655
O40 Y0 2.236979 1_566
O40 Y0 2.236979 1_556
O41 Zr15 2.089792 1_655
O41 Zr15 2.089792 1_555
O41 Zr3 2.459583 1_565
O41 Zr3 2.459583 1_555
O42 Zr16 2.089387 1_655
O42 Zr16 2.089387 1_555
O42 Zr4 2.458845 1_565
O42 Zr4 2.458845 1_555
O43 Zr18 2.091722 1_655
O43 Zr18 2.091722 1_555
O43 Zr6 2.452396 1_565
O43 Zr6 2.452396 1_555
O44 Zr17 2.090739 1_555
O44 Zr17 2.090739 1_655
O44 Zr5 2.454881 1_565
O44 Zr5 2.454881 1_555
O45 Zr19 2.091891 1_655
O45 Zr19 2.091891 1_555
O45 Zr8 2.450374 1_555
O45 Zr8 2.450374 1_565
O46 Zr20 2.092095 1_555
O46 Zr20 2.092095 1_655
O46 Zr7 2.451155 1_555
O46 Zr7 2.451155 1_565
O47 Zr21 2.091213 1_655
O47 Zr21 2.091213 1_555
O47 Zr10 2.445327 1_565
O47 Zr10 2.445327 1_555
O48 Zr22 2.091213 1_655
O48 Zr22 2.091213 1_555
O48 Zr9 2.448629 1_555
O48 Zr9 2.448629 1_565
O49 Y1 2.373325 1_655
O49 Y1 2.373325 1_555
O49 Y0 2.420429 1_565
O49 Y0 2.420429 1_555
O50 Zr23 2.095767 1_655
O50 Zr23 2.095767 1_555
O50 Zr11 2.431859 1_565
O50 Zr11 2.431859 1_555
