# generated using pymatgen
data_SrCu2(PO4)2
_symmetry_space_group_name_H-M   'P 1'
_cell_length_a   8.05597000
_cell_length_b   10.54893100
_cell_length_c   15.55133700
_cell_angle_alpha   90.00000000
_cell_angle_beta   90.00000000
_cell_angle_gamma   90.00000000
_symmetry_Int_Tables_number   1
_chemical_formula_structural   SrCu2(PO4)2
_chemical_formula_sum   'Sr8 Cu16 P16 O64'
_cell_volume   1321.58172520
_cell_formula_units_Z   8
loop_
 _symmetry_equiv_pos_site_id
 _symmetry_equiv_pos_as_xyz
  1  'x, y, z'
loop_
 _atom_site_type_symbol
 _atom_site_label
 _atom_site_symmetry_multiplicity
 _atom_site_fract_x
 _atom_site_fract_y
 _atom_site_fract_z
 _atom_site_occupancy
  Sr  Sr0  1  0.97213700  0.91387000  0.12400300  1
  Sr  Sr1  1  0.47213700  0.08613000  0.62400300  1
  Sr  Sr2  1  0.02786300  0.58613000  0.62400300  1
  Sr  Sr3  1  0.52786300  0.91387000  0.37599700  1
  Sr  Sr4  1  0.52786300  0.41387000  0.12400300  1
  Sr  Sr5  1  0.97213700  0.41387000  0.37599700  1
  Sr  Sr6  1  0.02786300  0.08613000  0.87599700  1
  Sr  Sr7  1  0.47213700  0.58613000  0.87599700  1
  Cu  Cu0  1  0.08242200  0.05062800  0.32737800  1
  Cu  Cu1  1  0.91757800  0.94937200  0.67262200  1
  Cu  Cu2  1  0.90609800  0.29015500  0.07669000  1
  Cu  Cu3  1  0.08242200  0.55062800  0.17262200  1
  Cu  Cu4  1  0.91757800  0.44937200  0.82737800  1
  Cu  Cu5  1  0.59390200  0.79015500  0.07669000  1
  Cu  Cu6  1  0.09390200  0.70984500  0.92331000  1
  Cu  Cu7  1  0.40609800  0.20984500  0.92331000  1
  Cu  Cu8  1  0.40609800  0.70984500  0.57669000  1
  Cu  Cu9  1  0.59390200  0.29015500  0.42331000  1
  Cu  Cu10  1  0.41757800  0.55062800  0.32737800  1
  Cu  Cu11  1  0.41757800  0.05062800  0.17262200  1
  Cu  Cu12  1  0.58242200  0.44937200  0.67262200  1
  Cu  Cu13  1  0.58242200  0.94937200  0.82737800  1
  Cu  Cu14  1  0.09390200  0.20984500  0.57669000  1
  Cu  Cu15  1  0.90609800  0.79015500  0.42331000  1
  P  P0  1  0.25000000  0.32781600  0.75000000  1
  P  P1  1  0.75000000  0.70427600  0.75000000  1
  P  P2  1  0.79540300  0.56968700  0.00664500  1
  P  P3  1  0.25000000  0.82781600  0.75000000  1
  P  P4  1  0.20459700  0.93031300  0.50664500  1
  P  P5  1  0.29540300  0.93031300  0.99335500  1
  P  P6  1  0.25000000  0.29572400  0.25000000  1
  P  P7  1  0.70459700  0.06968700  0.00664500  1
  P  P8  1  0.75000000  0.20427600  0.75000000  1
  P  P9  1  0.75000000  0.67218400  0.25000000  1
  P  P10  1  0.20459700  0.43031300  0.99335500  1
  P  P11  1  0.70459700  0.56968700  0.49335500  1
  P  P12  1  0.75000000  0.17218400  0.25000000  1
  P  P13  1  0.79540300  0.06968700  0.49335500  1
  P  P14  1  0.25000000  0.79572400  0.25000000  1
  P  P15  1  0.29540300  0.43031300  0.50664500  1
  O  O0  1  0.65346200  0.47385500  0.42123200  1
  O  O1  1  0.76782600  0.50281400  0.91917500  1
  O  O2  1  0.08629400  0.81508300  0.50392700  1
  O  O3  1  0.91370600  0.68491700  0.00392700  1
  O  O4  1  0.59153500  0.08850600  0.25789500  1
  O  O5  1  0.26782600  0.99718600  0.08082500  1
  O  O6  1  0.75878100  0.75804200  0.16866600  1
  O  O7  1  0.61501200  0.11501100  0.46821500  1
  O  O8  1  0.74121900  0.75804200  0.33133400  1
  O  O9  1  0.24121900  0.74195800  0.66866600  1
  O  O10  1  0.90373100  0.62042500  0.77376200  1
  O  O11  1  0.75878100  0.25804200  0.33133400  1
  O  O12  1  0.09626900  0.87957500  0.27376200  1
  O  O13  1  0.09626900  0.37957500  0.22623800  1
  O  O14  1  0.90846500  0.58850600  0.25789500  1
  O  O15  1  0.65346200  0.97385500  0.07876800  1
  O  O16  1  0.74121900  0.25804200  0.16866600  1
  O  O17  1  0.30858200  0.71879500  0.32934100  1
  O  O18  1  0.19141800  0.71879500  0.17065900  1
  O  O19  1  0.25878100  0.24195800  0.66866600  1
  O  O20  1  0.11501200  0.38498900  0.53178500  1
  O  O21  1  0.40373100  0.87957500  0.22623800  1
  O  O22  1  0.09153500  0.91149400  0.75789500  1
  O  O23  1  0.23217400  0.49718600  0.08082500  1
  O  O24  1  0.59153500  0.58850600  0.24210500  1
  O  O25  1  0.15346200  0.52614500  0.92123200  1
  O  O26  1  0.73217400  0.00281400  0.91917500  1
  O  O27  1  0.09153500  0.41149400  0.74210500  1
  O  O28  1  0.88498800  0.61501100  0.46821500  1
  O  O29  1  0.91370600  0.18491700  0.49607300  1
  O  O30  1  0.08629400  0.31508300  0.99607300  1
  O  O31  1  0.25878100  0.74195800  0.83133400  1
  O  O32  1  0.24121900  0.24195800  0.83133400  1
  O  O33  1  0.41370600  0.31508300  0.50392700  1
  O  O34  1  0.26782600  0.49718600  0.41917500  1
  O  O35  1  0.40846500  0.41149400  0.75789500  1
  O  O36  1  0.40373100  0.37957500  0.27376200  1
  O  O37  1  0.76782600  0.00281400  0.58082500  1
  O  O38  1  0.80858200  0.78120500  0.67065900  1
  O  O39  1  0.80858200  0.28120500  0.82934100  1
  O  O40  1  0.90373100  0.12042500  0.72623800  1
  O  O41  1  0.34653800  0.02614500  0.92123200  1
  O  O42  1  0.59626900  0.62042500  0.72623800  1
  O  O43  1  0.38498800  0.88498900  0.53178500  1
  O  O44  1  0.58629400  0.18491700  0.00392700  1
  O  O45  1  0.19141800  0.21879500  0.32934100  1
  O  O46  1  0.40846500  0.91149400  0.74210500  1
  O  O47  1  0.58629400  0.68491700  0.49607300  1
  O  O48  1  0.38498800  0.38498900  0.96821500  1
  O  O49  1  0.84653800  0.97385500  0.42123200  1
  O  O50  1  0.73217400  0.50281400  0.58082500  1
  O  O51  1  0.23217400  0.99718600  0.41917500  1
  O  O52  1  0.90846500  0.08850600  0.24210500  1
  O  O53  1  0.41370600  0.81508300  0.99607300  1
  O  O54  1  0.15346200  0.02614500  0.57876800  1
  O  O55  1  0.30858200  0.21879500  0.17065900  1
  O  O56  1  0.11501200  0.88498900  0.96821500  1
  O  O57  1  0.69141800  0.28120500  0.67065900  1
  O  O58  1  0.61501200  0.61501100  0.03178500  1
  O  O59  1  0.84653800  0.47385500  0.07876800  1
  O  O60  1  0.59626900  0.12042500  0.77376200  1
  O  O61  1  0.34653800  0.52614500  0.57876800  1
  O  O62  1  0.88498800  0.11501100  0.03178500  1
  O  O63  1  0.69141800  0.78120500  0.82934100  1
loop_
_geom_bond_atom_site_label_1
_geom_bond_atom_site_label_2
_geom_bond_distance
_geom_bond_site_symmetry_2
Cu0 O51 1.952219 1_545
Cu0 O52 1.970311 1_455
Cu0 O45 1.979633 1_555
Cu0 O12 1.990885 1_545
Cu0 O49 2.529276 1_445
Cu1 O37 1.952219 1_565
Cu1 O22 1.970311 1_655
Cu1 O38 1.979633 1_555
Cu1 O40 1.990885 1_565
Cu1 O54 2.529276 1_665
Cu2 O30 1.936031 1_654
Cu2 O16 1.981144 1_555
Cu2 O62 1.982460 1_555
Cu2 O59 1.996618 1_555
Cu3 O23 1.952219 1_555
Cu3 O14 1.970311 1_455
Cu3 O18 1.979633 1_555
Cu3 O13 1.990885 1_555
Cu3 O59 2.529276 1_455
Cu4 O1 1.952219 1_555
Cu4 O27 1.970311 1_655
Cu4 O39 1.979633 1_555
Cu4 O10 1.990885 1_555
Cu4 O25 2.529276 1_655
Cu5 O53 1.936031 1_554
Cu5 O6 1.981144 1_555
Cu5 O58 1.982460 1_555
Cu5 O15 1.996618 1_555
Cu6 O3 1.936031 1_456
Cu6 O31 1.981144 1_555
Cu6 O56 1.982460 1_555
Cu6 O25 1.996618 1_555
Cu7 O44 1.936031 1_556
Cu7 O32 1.981144 1_555
Cu7 O48 1.982460 1_555
Cu7 O41 1.996618 1_555
Cu8 O47 1.936031 1_555
Cu8 O9 1.981144 1_555
Cu8 O43 1.982460 1_555
Cu8 O61 1.996618 1_555
Cu9 O33 1.936031 1_555
Cu9 O11 1.981144 1_555
Cu9 O7 1.982460 1_555
Cu9 O0 1.996618 1_555
Cu10 O34 1.952219 1_555
Cu10 O24 1.970311 1_555
Cu10 O17 1.979633 1_555
Cu10 O36 1.990885 1_555
Cu10 O0 2.529276 1_555
Cu11 O5 1.952219 1_545
Cu11 O4 1.970311 1_555
Cu11 O55 1.979633 1_555
Cu11 O21 1.990885 1_545
Cu11 O15 2.529276 1_545
Cu12 O50 1.952219 1_555
Cu12 O35 1.970311 1_555
Cu12 O57 1.979633 1_555
Cu12 O42 1.990885 1_555
Cu12 O61 2.529276 1_555
Cu13 O26 1.952219 1_565
Cu13 O46 1.970311 1_555
Cu13 O63 1.979633 1_555
Cu13 O60 1.990885 1_565
Cu13 O41 2.529276 1_565
Cu14 O29 1.936031 1_455
Cu14 O19 1.981144 1_555
Cu14 O20 1.982460 1_555
Cu14 O54 1.996618 1_555
Cu15 O2 1.936031 1_655
Cu15 O8 1.981144 1_555
Cu15 O28 1.982460 1_555
Cu15 O49 1.996618 1_555
O0 P11 1.565143 1_555
O0 Sr5 2.736050 1_555
O1 P2 1.548337 1_556
O1 Sr7 2.626319 1_555
O2 P4 1.545203 1_555
O2 Sr2 3.088977 1_555
O3 P2 1.545203 1_555
O3 Sr0 3.088977 1_555
O4 P12 1.556900 1_555
O4 Sr3 2.651444 1_545
O5 P5 1.548337 1_554
O5 Sr0 2.626319 1_455
O6 P9 1.557295 1_555
O6 Sr0 2.477661 1_555
O7 P13 1.579022 1_555
O7 Sr3 2.655506 1_545
O7 Sr1 2.699471 1_555
O8 P9 1.557295 1_555
O8 Sr3 2.477661 1_555
O9 P3 1.557295 1_555
O9 Sr2 2.477661 1_555
O10 P1 1.566118 1_555
O10 Sr2 2.560256 1_655
O11 P12 1.557295 1_555
O11 Sr5 2.477661 1_555
O12 P14 1.566118 1_555
O12 Sr0 2.560256 1_455
O13 P6 1.566118 1_555
O13 Sr5 2.560256 1_455
O14 P9 1.556900 1_555
O14 Sr5 2.651444 1_555
O15 P7 1.565143 1_565
O15 Sr0 2.736050 1_555
O16 P12 1.557295 1_555
O16 Sr4 2.477661 1_555
O17 P14 1.550385 1_555
O17 Sr3 2.807439 1_555
O18 P14 1.550385 1_555
O18 Sr0 2.807439 1_455
O19 P0 1.557295 1_555
O19 Sr1 2.477661 1_555
O20 P15 1.579022 1_555
O20 Sr2 2.655506 1_555
O20 Sr5 2.699471 1_455
O21 P14 1.566118 1_555
O21 Sr3 2.560256 1_555
O22 P3 1.556900 1_555
O22 Sr6 2.651444 1_565
O23 P10 1.548337 1_554
O23 Sr4 2.626319 1_555
O24 P9 1.556900 1_555
O24 Sr4 2.651444 1_555
O25 P10 1.565143 1_555
O25 Sr7 2.736050 1_555
O26 P7 1.548337 1_556
O26 Sr6 2.626319 1_655
O27 P0 1.556900 1_555
O27 Sr2 2.651444 1_555
O28 P11 1.579022 1_555
O28 Sr5 2.655506 1_555
O28 Sr2 2.699471 1_655
O29 P13 1.545203 1_555
O29 Sr5 3.088977 1_555
O30 P10 1.545203 1_555
O30 Sr6 3.088977 1_555
O31 P3 1.557295 1_555
O31 Sr7 2.477661 1_555
O32 P0 1.557295 1_555
O32 Sr6 2.477661 1_555
O33 P15 1.545203 1_555
O33 Sr1 3.088977 1_555
O34 P15 1.548337 1_555
O34 Sr5 2.626319 1_455
O35 P0 1.556900 1_555
O35 Sr7 2.651444 1_555
O36 P6 1.566118 1_555
O36 Sr4 2.560256 1_555
O37 P13 1.548337 1_555
O37 Sr1 2.626319 1_555
O38 P1 1.550385 1_555
O38 Sr2 2.807439 1_655
O39 P8 1.550385 1_555
O39 Sr6 2.807439 1_655
O40 P8 1.566118 1_555
O40 Sr6 2.560256 1_655
O41 P5 1.565143 1_545
O41 Sr6 2.736050 1_555
O42 P1 1.566118 1_555
O42 Sr7 2.560256 1_555
O43 P4 1.579022 1_555
O43 Sr1 2.655506 1_565
O43 Sr3 2.699471 1_555
O44 P7 1.545203 1_555
O44 Sr4 3.088977 1_555
O45 P6 1.550385 1_555
O45 Sr5 2.807439 1_455
O46 P3 1.556900 1_555
O46 Sr1 2.651444 1_565
O47 P11 1.545203 1_555
O47 Sr3 3.088977 1_555
O48 P10 1.579022 1_555
O48 Sr7 2.655506 1_555
O48 Sr4 2.699471 1_556
O49 P13 1.565143 1_565
O49 Sr3 2.736050 1_555
O50 P11 1.548337 1_555
O50 Sr2 2.626319 1_655
O51 P4 1.548337 1_555
O51 Sr3 2.626319 1_555
O52 P12 1.556900 1_555
O52 Sr0 2.651444 1_545
O53 P5 1.545203 1_555
O53 Sr7 3.088977 1_555
O54 P4 1.565143 1_545
O54 Sr1 2.736050 1_555
O55 P6 1.550385 1_555
O55 Sr4 2.807439 1_555
O56 P5 1.579022 1_555
O56 Sr6 2.655506 1_565
O56 Sr0 2.699471 1_456
O57 P8 1.550385 1_555
O57 Sr1 2.807439 1_555
O58 P2 1.579022 1_555
O58 Sr4 2.655506 1_555
O58 Sr7 2.699471 1_554
O59 P2 1.565143 1_555
O59 Sr4 2.736050 1_555
O60 P8 1.566118 1_555
O60 Sr1 2.560256 1_555
O61 P15 1.565143 1_555
O61 Sr2 2.736050 1_555
O62 P7 1.579022 1_555
O62 Sr0 2.655506 1_545
O62 Sr6 2.699471 1_654
O63 P1 1.550385 1_555
O63 Sr7 2.807439 1_555
