# generated using pymatgen
data_Li3Mo3P3O17
_symmetry_space_group_name_H-M   'P 1'
_cell_length_a   8.42275242
_cell_length_b   12.17195849
_cell_length_c   12.98279876
_cell_angle_alpha   89.81041753
_cell_angle_beta   89.82271079
_cell_angle_gamma   82.82056066
_symmetry_Int_Tables_number   1
_chemical_formula_structural   Li3Mo3P3O17
_chemical_formula_sum   'Li12 Mo12 P12 O68'
_cell_volume   1320.56689389
_cell_formula_units_Z   4
loop_
 _symmetry_equiv_pos_site_id
 _symmetry_equiv_pos_as_xyz
  1  'x, y, z'
loop_
 _atom_site_type_symbol
 _atom_site_label
 _atom_site_symmetry_multiplicity
 _atom_site_fract_x
 _atom_site_fract_y
 _atom_site_fract_z
 _atom_site_occupancy
  Li  Li0  1  0.36134333  0.86524255  0.62383802  1
  Li  Li1  1  0.63865667  0.13475745  0.37616198  1
  Li  Li2  1  0.21685787  0.30906257  0.56852738  1
  Li  Li3  1  0.64676822  0.79427437  0.25345061  1
  Li  Li4  1  0.85646378  0.20643534  0.75460358  1
  Li  Li5  1  0.28700731  0.69229916  0.06824610  1
  Li  Li6  1  0.86444963  0.86661354  0.87285254  1
  Li  Li7  1  0.13555037  0.13338646  0.12714746  1
  Li  Li8  1  0.78314213  0.69093743  0.43147262  1
  Li  Li9  1  0.71299269  0.30770084  0.93175390  1
  Li  Li10  1  0.35323178  0.20572563  0.74654939  1
  Li  Li11  1  0.14353622  0.79356466  0.24539642  1
  Mo  Mo0  1  0.84777052  0.60610869  0.87158102  1
  Mo  Mo1  1  0.81133302  0.47964903  0.61792224  1
  Mo  Mo2  1  0.65459925  0.39596529  0.37023316  1
  Mo  Mo3  1  0.25415935  0.01349016  0.38502009  1
  Mo  Mo4  1  0.15222948  0.39389131  0.12841898  1
  Mo  Mo5  1  0.24753525  0.98515768  0.88489743  1
  Mo  Mo6  1  0.31494111  0.47759905  0.88070708  1
  Mo  Mo7  1  0.68505889  0.52240095  0.11929292  1
  Mo  Mo8  1  0.34540075  0.60403471  0.62976684  1
  Mo  Mo9  1  0.18866698  0.52035097  0.38207776  1
  Mo  Mo10  1  0.74584065  0.98650984  0.61497991  1
  Mo  Mo11  1  0.75246475  0.01484232  0.11510257  1
  P  P0  1  0.06052201  0.27360511  0.34977530  1
  P  P1  1  0.56014567  0.27307630  0.15538958  1
  P  P2  1  0.14409064  0.05416096  0.63820268  1
  P  P3  1  0.85590936  0.94583904  0.36179732  1
  P  P4  1  0.43985433  0.72692370  0.84461042  1
  P  P5  1  0.09990298  0.26388030  0.90709599  1
  P  P6  1  0.59709340  0.26646078  0.59518694  1
  P  P7  1  0.35602682  0.94557622  0.13855970  1
  P  P8  1  0.64397318  0.05442378  0.86144030  1
  P  P9  1  0.40290660  0.73353922  0.40481306  1
  P  P10  1  0.93947799  0.72639489  0.65022470  1
  P  P11  1  0.90009702  0.73611970  0.09290401  1
  O  O0  1  0.45094159  0.45022833  0.36501795  1
  O  O1  1  0.16358312  0.35380402  0.40718364  1
  O  O2  1  0.56935731  0.69206947  0.36735431  1
  O  O3  1  0.87234379  0.73587988  0.97345195  1
  O  O4  1  0.95056979  0.44919350  0.11178224  1
  O  O5  1  0.92689810  0.07371105  0.09634858  1
  O  O6  1  0.26763940  0.02396130  0.22390404  1
  O  O7  1  0.80222192  0.83140620  0.35972207  1
  O  O8  1  0.89410694  0.84259716  0.60504996  1
  O  O9  1  0.72261106  0.47735696  0.47618226  1
  O  O10  1  0.62012363  0.69708155  0.84684417  1
  O  O11  1  0.27228231  0.66964262  0.35285417  1
  O  O12  1  0.93110079  0.30602377  0.87536186  1
  O  O13  1  0.10589306  0.15740284  0.39495004  1
  O  O14  1  0.88437175  0.30789218  0.37203309  1
  O  O15  1  0.80514858  0.51688257  0.76501052  1
  O  O16  1  0.51110046  0.41792907  0.88145387  1
  O  O17  1  0.38606528  0.72908466  0.52511106  1
  O  O18  1  0.85642565  0.85628672  0.13220317  1
  O  O19  1  0.43064269  0.30793053  0.63264569  1
  O  O20  1  0.20144744  0.98606709  0.53835909  1
  O  O21  1  0.72373157  0.47737516  0.26372979  1
  O  O22  1  0.64231109  0.14486984  0.63033395  1
  O  O23  1  0.06889921  0.69397623  0.12463814  1
  O  O24  1  0.48889954  0.58207093  0.11854613  1
  O  O25  1  0.60361274  0.15942267  0.10447885  1
  O  O26  1  0.37881299  0.73265117  0.73090721  1
  O  O27  1  0.35252840  0.64172921  0.90861585  1
  O  O28  1  0.12765621  0.26412012  0.02654805  1
  O  O29  1  0.37987637  0.30291845  0.15315583  1
  O  O30  1  0.04943021  0.55080650  0.88821776  1
  O  O31  1  0.14357435  0.14371328  0.86779683  1
  O  O32  1  0.72771769  0.33035738  0.64714583  1
  O  O33  1  0.07310190  0.92628895  0.90365142  1
  O  O34  1  0.42832218  0.07263725  0.40262704  1
  O  O35  1  0.53986983  0.93772727  0.15348247  1
  O  O36  1  0.70083736  0.98762328  0.96197017  1
  O  O37  1  0.27738894  0.52264304  0.52381774  1
  O  O38  1  0.62118701  0.26734883  0.26909279  1
  O  O39  1  0.90451875  0.72831872  0.76836459  1
  O  O40  1  0.74849003  0.53430823  0.97266922  1
  O  O41  1  0.57167782  0.92736275  0.59737296  1
  O  O42  1  0.96007433  0.06263941  0.65321103  1
  O  O43  1  0.09548125  0.27168128  0.23163541  1
  O  O44  1  0.54905841  0.54977167  0.63498205  1
  O  O45  1  0.46013017  0.06227273  0.84651753  1
  O  O46  1  0.29916264  0.01237672  0.03802983  1
  O  O47  1  0.19777808  0.16859380  0.64027793  1
  O  O48  1  0.79855256  0.01393291  0.46164091  1
  O  O49  1  0.73236060  0.97603870  0.77609596  1
  O  O50  1  0.77393486  0.66981264  0.14749465  1
  O  O51  1  0.99331594  0.57915132  0.39711482  1
  O  O52  1  0.00668406  0.42084868  0.60288518  1
  O  O53  1  0.39638726  0.84057733  0.89552115  1
  O  O54  1  0.61393472  0.27091534  0.47488894  1
  O  O55  1  0.83641688  0.64619598  0.59281636  1
  O  O56  1  0.25150997  0.46569177  0.02733078  1
  O  O57  1  0.19485142  0.48311743  0.23498948  1
  O  O58  1  0.11562825  0.69210782  0.62796691  1
  O  O59  1  0.03992567  0.93736059  0.34678897  1
  O  O60  1  0.22606514  0.33018736  0.85250535  1
  O  O61  1  0.76778709  0.02392055  0.27604639  1
  O  O62  1  0.35768891  0.85513016  0.36966605  1
  O  O63  1  0.27626843  0.52262484  0.73627021  1
  O  O64  1  0.30304786  0.83100467  0.14235588  1
  O  O65  1  0.64747160  0.35827079  0.09138415  1
  O  O66  1  0.23221291  0.97607945  0.72395361  1
  O  O67  1  0.69695214  0.16899533  0.85764412  1
loop_
_geom_bond_atom_site_label_1
_geom_bond_atom_site_label_2
_geom_bond_distance
_geom_bond_site_symmetry_2
Li0 O41 2.039036 1_555
Li0 O66 2.080515 1_555
Li0 O17 2.087837 1_555
Li0 O26 2.117932 1_555
Li0 O20 2.170618 1_555
Li1 O34 2.039036 1_555
Li1 O61 2.080515 1_555
Li1 O54 2.087837 1_555
Li1 O38 2.117932 1_555
Li1 O48 2.170618 1_555
Li2 O47 1.968279 1_555
Li2 O19 1.984566 1_555
Li2 O52 2.140369 1_555
Li2 O1 2.196100 1_555
Li3 O7 1.996363 1_555
Li3 O2 2.084265 1_555
Li3 O50 2.221186 1_555
Li3 O35 2.267880 1_555
Li3 O18 2.544427 1_555
Li4 O67 1.984997 1_555
Li4 O12 2.128775 1_555
Li4 O32 2.232490 1_555
Li4 O42 2.276884 1_555
Li5 O64 1.965446 1_555
Li5 O23 1.973235 1_555
Li5 O24 2.132850 1_555
Li5 O27 2.212450 1_554
Li6 O33 2.025188 1_655
Li6 O3 2.050059 1_555
Li6 O49 2.053518 1_555
Li6 O39 2.158230 1_555
Li6 O36 2.213881 1_555
Li7 O5 2.025188 1_455
Li7 O28 2.050059 1_555
Li7 O6 2.053518 1_555
Li7 O43 2.158230 1_555
Li7 O46 2.213881 1_555
Li8 O7 1.968279 1_555
Li8 O2 1.984566 1_555
Li8 O51 2.140369 1_555
Li8 O55 2.196100 1_555
Li9 O67 1.965446 1_555
Li9 O12 1.973235 1_555
Li9 O16 2.132850 1_555
Li9 O65 2.212450 1_556
Li10 O47 1.996363 1_555
Li10 O19 2.084265 1_555
Li10 O60 2.221186 1_555
Li10 O45 2.267880 1_555
Li10 O31 2.544427 1_555
Li11 O64 1.984997 1_555
Li11 O23 2.128775 1_555
Li11 O11 2.232490 1_555
Li11 O59 2.276884 1_555
Mo0 O30 1.760765 1_655
Mo0 O15 1.825697 1_555
Mo0 O40 1.831325 1_555
Mo0 O3 2.093873 1_555
Mo0 O39 2.097019 1_555
Mo0 O10 2.115780 1_555
Mo1 O52 1.721122 1_655
Mo1 O15 1.963150 1_555
Mo1 O9 1.989859 1_555
Mo1 O32 2.062942 1_555
Mo1 O55 2.088704 1_555
Mo1 O44 2.276952 1_555
Mo2 O0 1.760827 1_555
Mo2 O9 1.832327 1_555
Mo2 O21 1.833859 1_555
Mo2 O14 2.092071 1_555
Mo2 O38 2.092902 1_555
Mo2 O54 2.096183 1_555
Mo3 O34 1.729042 1_555
Mo3 O62 2.024084 1_545
Mo3 O13 2.024428 1_555
Mo3 O20 2.073372 1_545
Mo3 O6 2.098781 1_555
Mo3 O59 2.188048 1_545
Mo4 O4 1.760765 1_455
Mo4 O57 1.825697 1_555
Mo4 O56 1.831325 1_555
Mo4 O28 2.093873 1_555
Mo4 O43 2.097019 1_555
Mo4 O29 2.115780 1_555
Mo5 O33 1.729471 1_555
Mo5 O31 2.028949 1_565
Mo5 O53 2.033680 1_555
Mo5 O46 2.072936 1_566
Mo5 O66 2.098009 1_555
Mo5 O45 2.178806 1_565
Mo6 O16 1.719734 1_555
Mo6 O63 1.968546 1_555
Mo6 O56 1.985276 1_556
Mo6 O60 2.062929 1_555
Mo6 O27 2.094338 1_555
Mo6 O30 2.303441 1_555
Mo7 O24 1.719734 1_555
Mo7 O21 1.968546 1_555
Mo7 O40 1.985276 1_554
Mo7 O50 2.062929 1_555
Mo7 O65 2.094338 1_555
Mo7 O4 2.303441 1_555
Mo8 O44 1.760827 1_555
Mo8 O37 1.832327 1_555
Mo8 O63 1.833859 1_555
Mo8 O58 2.092071 1_555
Mo8 O26 2.092902 1_555
Mo8 O17 2.096183 1_555
Mo9 O51 1.721122 1_455
Mo9 O57 1.963150 1_555
Mo9 O37 1.989859 1_555
Mo9 O11 2.062942 1_555
Mo9 O1 2.088704 1_555
Mo9 O0 2.276952 1_555
Mo10 O41 1.729042 1_555
Mo10 O22 2.024084 1_565
Mo10 O8 2.024428 1_555
Mo10 O48 2.073372 1_565
Mo10 O49 2.098781 1_555
Mo10 O42 2.188048 1_565
Mo11 O5 1.729471 1_555
Mo11 O18 2.028949 1_545
Mo11 O25 2.033680 1_555
Mo11 O36 2.072936 1_544
Mo11 O61 2.098009 1_555
Mo11 O35 2.178806 1_545
O1 P0 1.575619 1_555
O2 P9 1.509088 1_555
O3 P11 1.569122 1_556
O6 P7 1.586369 1_545
O7 P3 1.517583 1_555
O8 P10 1.533415 1_555
O10 P4 1.516759 1_555
O11 P9 1.578721 1_555
O12 P5 1.508066 1_655
O13 P0 1.533415 1_555
O14 P0 1.517342 1_655
O17 P9 1.569167 1_555
O18 P11 1.550585 1_555
O19 P6 1.509088 1_555
O20 P2 1.582330 1_565
O22 P6 1.548994 1_555
O23 P11 1.508066 1_455
O25 P1 1.537085 1_555
O26 P4 1.563131 1_555
O27 P4 1.577341 1_555
O28 P5 1.569122 1_554
O29 P1 1.516759 1_555
O31 P5 1.550585 1_555
O32 P6 1.578721 1_555
O35 P7 1.552147 1_555
O36 P8 1.579070 1_565
O38 P1 1.563131 1_555
O39 P10 1.560600 1_555
O42 P2 1.552148 1_655
O43 P0 1.560600 1_555
O45 P8 1.552147 1_555
O46 P7 1.579070 1_545
O47 P2 1.517583 1_555
O48 P3 1.582330 1_545
O49 P8 1.586369 1_565
O50 P11 1.577597 1_555
O53 P4 1.537085 1_555
O54 P6 1.569167 1_555
O55 P10 1.575619 1_555
O58 P10 1.517342 1_455
O59 P3 1.552148 1_455
O60 P5 1.577597 1_555
O61 P3 1.585993 1_545
O62 P9 1.548994 1_555
O64 P7 1.517004 1_555
O65 P1 1.577341 1_555
O66 P2 1.585993 1_565
O67 P8 1.517004 1_555
