# generated using pymatgen
data_TlBi(PSe3)2
_symmetry_space_group_name_H-M   'P 1'
_cell_length_a   7.58407411
_cell_length_b   12.45007032
_cell_length_c   12.72860771
_cell_angle_alpha   113.69752067
_cell_angle_beta   90.00000000
_cell_angle_gamma   90.00000000
_symmetry_Int_Tables_number   1
_chemical_formula_structural   TlBi(PSe3)2
_chemical_formula_sum   'Tl4 Bi4 P8 Se24'
_cell_volume   1100.52267742
_cell_formula_units_Z   4
loop_
 _symmetry_equiv_pos_site_id
 _symmetry_equiv_pos_as_xyz
  1  'x, y, z'
loop_
 _atom_site_type_symbol
 _atom_site_label
 _atom_site_symmetry_multiplicity
 _atom_site_fract_x
 _atom_site_fract_y
 _atom_site_fract_z
 _atom_site_occupancy
  Tl  Tl0  1  0.07761658  0.84960942  0.57838566  1
  Tl  Tl1  1  0.42238342  0.34960942  0.57838566  1
  Tl  Tl2  1  0.57761658  0.65039058  0.42161434  1
  Tl  Tl3  1  0.92238342  0.15039058  0.42161434  1
  Bi  Bi0  1  0.15049595  0.34013499  0.12250875  1
  Bi  Bi1  1  0.65049595  0.15986501  0.87749125  1
  Bi  Bi2  1  0.34950405  0.84013499  0.12250875  1
  Bi  Bi3  1  0.84950405  0.65986501  0.87749125  1
  P  P0  1  0.90929199  0.30613851  0.76340042  1
  P  P1  1  0.40929199  0.19386149  0.23659958  1
  P  P2  1  0.59070801  0.80613851  0.76340042  1
  P  P3  1  0.12936194  0.18609680  0.76396721  1
  P  P4  1  0.87063806  0.81390320  0.23603279  1
  P  P5  1  0.62936194  0.31390320  0.23603279  1
  P  P6  1  0.09070801  0.69386149  0.23659958  1
  P  P7  1  0.37063806  0.68609680  0.76396721  1
  Se  Se0  1  0.19957451  0.31416578  0.33585266  1
  Se  Se1  1  0.31743202  0.30604571  0.88787035  1
  Se  Se2  1  0.30042549  0.81416578  0.33585266  1
  Se  Se3  1  0.73317236  0.39704511  0.40759918  1
  Se  Se4  1  0.26682764  0.60295489  0.59240082  1
  Se  Se5  1  0.31283366  0.11451143  0.05788861  1
  Se  Se6  1  0.99170220  0.57269047  0.30585109  1
  Se  Se7  1  0.23317236  0.10295489  0.59240082  1
  Se  Se8  1  0.00829780  0.42730953  0.69414891  1
  Se  Se9  1  0.68716634  0.88548857  0.94211139  1
  Se  Se10  1  0.76682764  0.89704511  0.40759918  1
  Se  Se11  1  0.50718563  0.43708085  0.17041066  1
  Se  Se12  1  0.68256798  0.69395429  0.11212965  1
  Se  Se13  1  0.49170220  0.92730953  0.69414891  1
  Se  Se14  1  0.18716634  0.61451143  0.05788861  1
  Se  Se15  1  0.50829780  0.07269047  0.30585109  1
  Se  Se16  1  0.49281437  0.56291915  0.82958934  1
  Se  Se17  1  0.80042549  0.68583422  0.66414734  1
  Se  Se18  1  0.81283366  0.38548857  0.94211139  1
  Se  Se19  1  0.81743202  0.19395429  0.11212965  1
  Se  Se20  1  0.18256798  0.80604571  0.88787035  1
  Se  Se21  1  0.69957451  0.18583422  0.66414734  1
  Se  Se22  1  0.99281437  0.93708085  0.17041066  1
  Se  Se23  1  0.00718563  0.06291915  0.82958934  1
loop_
_geom_bond_atom_site_label_1
_geom_bond_atom_site_label_2
_geom_bond_distance
_geom_bond_site_symmetry_2
Bi0 Se5 2.868063 1_555
Bi0 Se0 2.884987 1_555
Bi0 Se11 2.924879 1_555
Bi0 Se19 3.084967 1_455
Bi0 Se1 3.111918 1_554
Bi0 Se6 3.138181 1_455
Bi1 Se18 2.868063 1_555
Bi1 Se21 2.884987 1_555
Bi1 Se23 2.924879 1_655
Bi1 Se1 3.084967 1_555
Bi1 Se19 3.111918 1_556
Bi1 Se13 3.138181 1_545
Bi2 Se14 2.868063 1_555
Bi2 Se2 2.884987 1_555
Bi2 Se22 2.924879 1_455
Bi2 Se12 3.084967 1_555
Bi2 Se20 3.111918 1_554
Bi2 Se15 3.138181 1_565
Bi3 Se9 2.868063 1_555
Bi3 Se17 2.884987 1_555
Bi3 Se16 2.924879 1_555
Bi3 Se20 3.084967 1_655
Bi3 Se12 3.111918 1_556
Bi3 Se8 3.138181 1_655
P0 Se8 2.164610 1_655
P0 Se21 2.201856 1_555
P0 Se18 2.208893 1_555
P0 P3 2.242316 1_655
P1 Se15 2.164610 1_555
P1 Se0 2.201856 1_555
P1 Se5 2.208893 1_555
P1 P5 2.242316 1_555
P2 Se13 2.164610 1_555
P2 Se17 2.201856 1_555
P2 Se9 2.208893 1_555
P2 P7 2.242316 1_555
P3 Se7 2.154829 1_555
P3 Se1 2.204252 1_555
P3 Se23 2.222107 1_555
P4 Se10 2.154829 1_555
P4 Se12 2.204252 1_555
P4 Se22 2.222107 1_555
P4 P6 2.242316 1_655
P5 Se3 2.154829 1_555
P5 Se19 2.204252 1_555
P5 Se11 2.222107 1_555
P6 Se6 2.164610 1_455
P6 Se2 2.201856 1_555
P6 Se14 2.208893 1_555
P7 Se4 2.154829 1_555
P7 Se20 2.204252 1_555
P7 Se16 2.222107 1_555
Se0 Tl1 3.389007 1_555
Se0 Tl3 3.399675 1_455
Se2 Tl0 3.389007 1_555
Se2 Tl2 3.399675 1_555
Se3 Tl2 3.304560 1_555
Se3 Tl1 3.414989 1_555
Se3 Tl3 3.458553 1_555
Se4 Tl1 3.304560 1_555
Se4 Tl2 3.414989 1_555
Se4 Tl0 3.458553 1_555
Se6 Tl2 3.438562 1_555
Se7 Tl0 3.304560 1_545
Se7 Tl3 3.414989 1_455
Se7 Tl1 3.458553 1_555
Se8 Tl1 3.438562 1_555
Se10 Tl3 3.304560 1_565
Se10 Tl0 3.414989 1_655
Se10 Tl2 3.458553 1_555
Se11 Tl2 3.276633 1_555
Se13 Tl0 3.438562 1_555
Se15 Tl3 3.438562 1_555
Se16 Tl1 3.276633 1_555
Se17 Tl2 3.389007 1_555
Se17 Tl0 3.399675 1_655
Se21 Tl3 3.389007 1_555
Se21 Tl1 3.399675 1_555
Se22 Tl3 3.276633 1_565
Se23 Tl0 3.276633 1_545
