# generated using pymatgen
data_Tl3Bi2I9
_symmetry_space_group_name_H-M   'P 1'
_cell_length_a   8.08885000
_cell_length_b   14.80314400
_cell_length_c   25.26500667
_cell_angle_alpha   57.27213114
_cell_angle_beta   90.00000000
_cell_angle_gamma   90.00000000
_symmetry_Int_Tables_number   1
_chemical_formula_structural   Tl3Bi2I9
_chemical_formula_sum   'Tl12 Bi8 I36'
_cell_volume   2544.97874793
_cell_formula_units_Z   4
loop_
 _symmetry_equiv_pos_site_id
 _symmetry_equiv_pos_as_xyz
  1  'x, y, z'
loop_
 _atom_site_type_symbol
 _atom_site_label
 _atom_site_symmetry_multiplicity
 _atom_site_fract_x
 _atom_site_fract_y
 _atom_site_fract_z
 _atom_site_occupancy
  Tl  Tl0  1  0.03949200  0.01918200  0.61519000  1
  Tl  Tl1  1  0.95725000  0.32467400  0.71395900  1
  Tl  Tl2  1  0.46050800  0.01918200  0.11519000  1
  Tl  Tl3  1  0.53770400  0.65225500  0.54813300  1
  Tl  Tl4  1  0.96229600  0.65225500  0.04813300  1
  Tl  Tl5  1  0.03770400  0.34774500  0.95186700  1
  Tl  Tl6  1  0.96050800  0.98081800  0.38481000  1
  Tl  Tl7  1  0.45725000  0.67532600  0.78604100  1
  Tl  Tl8  1  0.46229600  0.34774500  0.45186700  1
  Tl  Tl9  1  0.54275000  0.32467400  0.21395900  1
  Tl  Tl10  1  0.04275000  0.67532600  0.28604100  1
  Tl  Tl11  1  0.53949200  0.98081800  0.88481000  1
  Bi  Bi0  1  0.00254200  0.82752200  0.84011700  1
  Bi  Bi1  1  0.48492300  0.67340000  0.15944500  1
  Bi  Bi2  1  0.49745800  0.82752200  0.34011700  1
  Bi  Bi3  1  0.99745800  0.17247800  0.15988300  1
  Bi  Bi4  1  0.51507700  0.32660000  0.84055500  1
  Bi  Bi5  1  0.01507700  0.67340000  0.65944500  1
  Bi  Bi6  1  0.98492300  0.32660000  0.34055500  1
  Bi  Bi7  1  0.50254200  0.17247800  0.65988300  1
  I  I0  1  0.17822700  0.47630400  0.79051600  1
  I  I1  1  0.60965500  0.09757400  0.57604400  1
  I  I2  1  0.31831400  0.61861800  0.41683900  1
  I  I3  1  0.67756200  0.84872200  0.05095800  1
  I  I4  1  0.32243800  0.15127800  0.94904200  1
  I  I5  1  0.18064300  0.80705300  0.12409000  1
  I  I6  1  0.12692500  0.22892900  0.26015200  1
  I  I7  1  0.62692500  0.77107100  0.23984800  1
  I  I8  1  0.17287100  0.93624600  0.25165600  1
  I  I9  1  0.18928000  0.26880800  0.58708900  1
  I  I10  1  0.82712900  0.06375400  0.74834400  1
  I  I11  1  0.81072000  0.73119200  0.41291100  1
  I  I12  1  0.81935700  0.19294700  0.87591000  1
  I  I13  1  0.68064300  0.19294700  0.37591000  1
  I  I14  1  0.10965500  0.90242600  0.92395600  1
  I  I15  1  0.88848700  0.42786100  0.41106800  1
  I  I16  1  0.39034500  0.90242600  0.42395600  1
  I  I17  1  0.81831300  0.38138200  0.08316100  1
  I  I18  1  0.31072000  0.26880800  0.08708900  1
  I  I19  1  0.67287100  0.06375400  0.24834400  1
  I  I20  1  0.11151300  0.57213900  0.58893200  1
  I  I21  1  0.32177300  0.47630400  0.29051600  1
  I  I22  1  0.37307500  0.22892900  0.76015200  1
  I  I23  1  0.82243800  0.84872200  0.55095800  1
  I  I24  1  0.31935700  0.80705300  0.62409000  1
  I  I25  1  0.68168600  0.38138200  0.58316100  1
  I  I26  1  0.68928000  0.73119200  0.91291100  1
  I  I27  1  0.17756200  0.15127800  0.44904200  1
  I  I28  1  0.61151300  0.42786100  0.91106800  1
  I  I29  1  0.82177300  0.52369600  0.20948400  1
  I  I30  1  0.89034500  0.09757400  0.07604400  1
  I  I31  1  0.32712900  0.93624600  0.75165600  1
  I  I32  1  0.38848700  0.57213900  0.08893200  1
  I  I33  1  0.67822700  0.52369600  0.70948400  1
  I  I34  1  0.87307500  0.77107100  0.73984800  1
  I  I35  1  0.18168600  0.61861800  0.91683900  1
loop_
_geom_bond_atom_site_label_1
_geom_bond_atom_site_label_2
_geom_bond_distance
_geom_bond_site_symmetry_2
Bi0 I35 2.989754 1_555
Bi0 I26 3.000145 1_455
Bi0 I14 3.001087 1_555
Bi0 I34 3.240630 1_455
Bi0 I31 3.254127 1_555
Bi0 I10 3.294050 1_465
Bi1 I5 2.976443 1_555
Bi1 I32 2.986097 1_555
Bi1 I3 2.997418 1_555
Bi1 I7 3.272942 1_555
Bi1 I21 3.282229 1_555
Bi1 I29 3.302130 1_555
Bi2 I2 2.989754 1_555
Bi2 I11 3.000145 1_555
Bi2 I16 3.001087 1_555
Bi2 I7 3.240630 1_555
Bi2 I8 3.254127 1_555
Bi2 I19 3.294050 1_565
Bi3 I17 2.989758 1_555
Bi3 I18 3.000145 1_655
Bi3 I30 3.001087 1_555
Bi3 I6 3.240630 1_655
Bi3 I19 3.254127 1_555
Bi3 I8 3.294050 1_645
Bi4 I12 2.976443 1_555
Bi4 I28 2.986097 1_555
Bi4 I4 2.997418 1_555
Bi4 I22 3.272942 1_555
Bi4 I33 3.282229 1_555
Bi4 I0 3.302130 1_555
Bi5 I24 2.976443 1_555
Bi5 I20 2.986097 1_555
Bi5 I23 2.997418 1_455
Bi5 I34 3.272942 1_455
Bi5 I0 3.282229 1_555
Bi5 I33 3.302130 1_455
Bi6 I13 2.976443 1_555
Bi6 I15 2.986097 1_555
Bi6 I27 2.997418 1_655
Bi6 I6 3.272942 1_655
Bi6 I29 3.282229 1_555
Bi6 I21 3.302130 1_655
Bi7 I25 2.989754 1_555
Bi7 I9 3.000145 1_555
Bi7 I1 3.001087 1_555
Bi7 I22 3.240630 1_555
Bi7 I10 3.254127 1_555
Bi7 I31 3.294050 1_545
I0 Tl7 3.664199 1_555
I1 Tl8 3.523504 1_555
I1 Tl0 3.629398 1_655
I2 Tl10 3.686999 1_555
I5 Tl10 3.627823 1_555
I6 Tl6 3.565529 1_445
I6 Tl9 3.591060 1_555
I7 Tl2 3.565529 1_565
I7 Tl10 3.591060 1_655
I8 Tl10 3.626665 1_555
I10 Tl1 3.626665 1_555
I12 Tl1 3.627823 1_555
I13 Tl9 3.627823 1_555
I14 Tl4 3.523504 1_456
I14 Tl11 3.629398 1_555
I15 Tl10 3.527362 1_655
I15 Tl8 3.609946 1_555
I16 Tl3 3.523504 1_555
I16 Tl6 3.629398 1_455
I17 Tl9 3.686994 1_555
I19 Tl9 3.626665 1_555
I20 Tl1 3.527362 1_455
I20 Tl3 3.609946 1_555
I21 Tl10 3.664199 1_555
I22 Tl11 3.565529 1_545
I22 Tl1 3.591060 1_455
I24 Tl7 3.627823 1_555
I25 Tl1 3.686999 1_555
I28 Tl7 3.527362 1_555
I28 Tl5 3.609946 1_655
I29 Tl9 3.664199 1_555
I30 Tl5 3.523504 1_654
I30 Tl2 3.629398 1_555
I31 Tl7 3.626665 1_555
I32 Tl9 3.527362 1_555
I32 Tl4 3.609946 1_455
I33 Tl1 3.664199 1_555
I34 Tl0 3.565529 1_665
I34 Tl7 3.591060 1_555
I35 Tl7 3.686999 1_555
