# generated using pymatgen
data_RbVBr3
_symmetry_space_group_name_H-M   'P 1'
_cell_length_a   7.44792638
_cell_length_b   7.44793748
_cell_length_c   6.45835375
_cell_angle_alpha   89.99999874
_cell_angle_beta   90.00000321
_cell_angle_gamma   119.99882902
_symmetry_Int_Tables_number   1
_chemical_formula_structural   RbVBr3
_chemical_formula_sum   'Rb2 V2 Br6'
_cell_volume   310.26228259
_cell_formula_units_Z   2
loop_
 _symmetry_equiv_pos_site_id
 _symmetry_equiv_pos_as_xyz
  1  'x, y, z'
loop_
 _atom_site_type_symbol
 _atom_site_label
 _atom_site_symmetry_multiplicity
 _atom_site_fract_x
 _atom_site_fract_y
 _atom_site_fract_z
 _atom_site_occupancy
  Rb  Rb0  1  0.66666454  0.33333309  0.24999993  1
  Rb  Rb1  1  0.33333546  0.66666698  0.75000002  1
  V  V0  1  0.00000006  -0.00000010  -0.00000014  1
  V  V1  1  -0.00000005  -0.00000001  0.50000013  1
  Br  Br0  1  0.16245811  0.32491892  0.25000009  1
  Br  Br1  1  0.83753634  0.16246656  0.74999996  1
  Br  Br2  1  0.16246412  0.83753391  0.24999998  1
  Br  Br3  1  0.32492049  0.16245774  0.75000003  1
  Br  Br4  1  0.67507949  0.83754178  0.24999996  1
  Br  Br5  1  0.83754143  0.67508112  0.75000004  1
loop_
_geom_bond_atom_site_label_1
_geom_bond_atom_site_label_2
_geom_bond_distance
_geom_bond_site_symmetry_2
Br0 V1 2.645603 1_555
Br0 V0 2.645604 1_555
Br0 Rb0 3.724355 1_555
Br0 Rb0 3.724362 1_455
Br0 Rb1 3.909818 1_555
Br0 Rb1 3.909819 1_554
Br1 V1 2.645629 1_655
Br1 V0 2.645630 1_656
Br1 Rb1 3.724424 1_655
Br1 Rb1 3.724428 1_545
Br1 Rb0 3.909760 1_556
Br1 Rb0 3.909760 1_555
Br2 V0 2.645629 1_565
Br2 V1 2.645630 1_565
Br2 Rb0 3.724425 1_565
Br2 Rb0 3.724428 1_455
Br2 Rb1 3.909760 1_554
Br2 Rb1 3.909760 1_555
Br3 V0 2.645607 1_556
Br3 V1 2.645608 1_555
Br3 Rb1 3.724350 1_545
Br3 Rb1 3.724379 1_555
Br3 Rb0 3.909802 1_556
Br3 Rb0 3.909803 1_555
Br4 V1 2.645608 1_665
Br4 V0 2.645609 1_665
Br4 Rb0 3.724354 1_565
Br4 Rb0 3.724374 1_555
Br4 Rb1 3.909802 1_554
Br4 Rb1 3.909803 1_555
Br5 V0 2.645601 1_666
Br5 V1 2.645602 1_665
Br5 Rb1 3.724352 1_555
Br5 Rb1 3.724366 1_655
Br5 Rb0 3.909818 1_556
Br5 Rb0 3.909819 1_555
