# generated using pymatgen
data_Ba3SrNb2O9
_symmetry_space_group_name_H-M   'P 1'
_cell_length_a   6.10042696
_cell_length_b   6.10042696
_cell_length_c   16.11068600
_cell_angle_alpha   90.00000000
_cell_angle_beta   90.00000000
_cell_angle_gamma   120.00001043
_symmetry_Int_Tables_number   1
_chemical_formula_structural   Ba3SrNb2O9
_chemical_formula_sum   'Ba6 Sr2 Nb4 O18'
_cell_volume   519.23634353
_cell_formula_units_Z   2
loop_
 _symmetry_equiv_pos_site_id
 _symmetry_equiv_pos_as_xyz
  1  'x, y, z'
loop_
 _atom_site_type_symbol
 _atom_site_label
 _atom_site_symmetry_multiplicity
 _atom_site_fract_x
 _atom_site_fract_y
 _atom_site_fract_z
 _atom_site_occupancy
  Ba  Ba0  1  0.00000000  0.00000000  0.25000000  1
  Ba  Ba1  1  0.00000000  0.00000000  0.75000000  1
  Ba  Ba2  1  0.33333300  0.66666700  0.87290600  1
  Ba  Ba3  1  0.66666700  0.33333300  0.37290600  1
  Ba  Ba4  1  0.66666700  0.33333300  0.12709400  1
  Ba  Ba5  1  0.33333300  0.66666700  0.62709400  1
  Sr  Sr0  1  0.00000000  0.00000000  0.00000000  1
  Sr  Sr1  1  0.00000000  0.00000000  0.50000000  1
  Nb  Nb0  1  0.33333300  0.66666700  0.15582500  1
  Nb  Nb1  1  0.66666700  0.33333300  0.65582500  1
  Nb  Nb2  1  0.66666700  0.33333300  0.84417500  1
  Nb  Nb3  1  0.33333300  0.66666700  0.34417500  1
  O  O0  1  0.48409100  0.96818300  0.25000000  1
  O  O1  1  0.51590900  0.48409100  0.75000000  1
  O  O2  1  0.96818300  0.48409100  0.75000000  1
  O  O3  1  0.03181700  0.51590900  0.25000000  1
  O  O4  1  0.48409100  0.51590900  0.25000000  1
  O  O5  1  0.51590900  0.03181700  0.75000000  1
  O  O6  1  0.17235300  0.34470500  0.39767600  1
  O  O7  1  0.82764700  0.17235300  0.89767600  1
  O  O8  1  0.34470500  0.17235300  0.89767600  1
  O  O9  1  0.65529500  0.82764700  0.39767600  1
  O  O10  1  0.17235300  0.82764700  0.39767600  1
  O  O11  1  0.82764700  0.65529500  0.60232400  1
  O  O12  1  0.82764700  0.17235300  0.60232400  1
  O  O13  1  0.82764700  0.65529500  0.89767600  1
  O  O14  1  0.34470500  0.17235300  0.60232400  1
  O  O15  1  0.65529500  0.82764700  0.10232400  1
  O  O16  1  0.17235300  0.34470500  0.10232400  1
  O  O17  1  0.17235300  0.82764700  0.10232400  1
loop_
_geom_bond_atom_site_label_1
_geom_bond_atom_site_label_2
_geom_bond_distance
_geom_bond_site_symmetry_2
Ba0 O6 2.996145 1_555
Ba0 O9 2.996145 1_445
Ba0 O15 2.996145 1_445
Ba0 O16 2.996145 1_555
Ba0 O10 2.996149 1_545
Ba0 O17 2.996149 1_545
Ba0 O3 3.054839 1_545
Ba0 O0 3.054839 1_545
Ba0 O4 3.054841 1_555
Ba0 O4 3.054841 1_445
Ba0 O0 3.054845 1_445
Ba0 O3 3.054845 1_555
Ba1 O13 2.996145 1_445
Ba1 O8 2.996145 1_555
Ba1 O11 2.996145 1_445
Ba1 O14 2.996145 1_555
Ba1 O7 2.996149 1_455
Ba1 O12 2.996149 1_455
Ba1 O5 3.054839 1_455
Ba1 O2 3.054839 1_455
Ba1 O1 3.054841 1_555
Ba1 O1 3.054841 1_445
Ba1 O2 3.054845 1_445
Ba1 O5 3.054845 1_555
Ba2 O5 2.764480 1_565
Ba2 O2 2.764480 1_455
Ba2 O1 2.764488 1_555
Ba2 O7 3.076794 1_565
Ba2 O7 3.076794 1_455
Ba2 O8 3.076794 1_565
Ba2 O13 3.076794 1_455
Ba2 O13 3.076794 1_555
Ba2 O8 3.076794 1_555
Ba3 O3 2.764480 1_655
Ba3 O0 2.764480 1_545
Ba3 O4 2.764488 1_555
Ba3 O10 3.076794 1_655
Ba3 O10 3.076794 1_545
Ba3 O6 3.076794 1_655
Ba3 O9 3.076794 1_545
Ba3 O9 3.076794 1_555
Ba3 O6 3.076794 1_555
Ba4 O3 2.764480 1_655
Ba4 O0 2.764480 1_545
Ba4 O4 2.764488 1_555
Ba4 O17 3.076794 1_655
Ba4 O17 3.076794 1_545
Ba4 O16 3.076794 1_655
Ba4 O15 3.076794 1_545
Ba4 O15 3.076794 1_555
Ba4 O16 3.076794 1_555
Ba5 O5 2.764480 1_565
Ba5 O2 2.764480 1_455
Ba5 O1 2.764488 1_555
Ba5 O12 3.076794 1_565
Ba5 O12 3.076794 1_455
Ba5 O14 3.076794 1_565
Ba5 O11 3.076794 1_455
Ba5 O11 3.076794 1_555
Ba5 O14 3.076794 1_555
Nb0 O17 1.906878 1_555
Nb0 O15 1.906887 1_555
Nb0 O16 1.906887 1_555
Nb0 O0 2.199874 1_555
Nb0 O3 2.199874 1_555
Nb0 O4 2.199874 1_555
Nb1 O12 1.906878 1_555
Nb1 O11 1.906887 1_555
Nb1 O14 1.906887 1_555
Nb1 O2 2.199874 1_555
Nb1 O5 2.199874 1_555
Nb1 O1 2.199874 1_555
Nb2 O7 1.906878 1_555
Nb2 O13 1.906887 1_555
Nb2 O8 1.906887 1_555
Nb2 O2 2.199874 1_555
Nb2 O5 2.199874 1_555
Nb2 O1 2.199874 1_555
Nb3 O10 1.906878 1_555
Nb3 O9 1.906887 1_555
Nb3 O6 1.906887 1_555
Nb3 O0 2.199874 1_555
Nb3 O3 2.199874 1_555
Nb3 O4 2.199874 1_555
O6 Sr1 2.456432 1_555
O7 Sr0 2.456437 1_656
O8 Sr0 2.456432 1_556
O9 Sr1 2.456432 1_665
O10 Sr1 2.456437 1_565
O11 Sr1 2.456432 1_665
O12 Sr1 2.456437 1_655
O13 Sr0 2.456432 1_666
O14 Sr1 2.456432 1_555
O15 Sr0 2.456432 1_665
O16 Sr0 2.456432 1_555
O17 Sr0 2.456437 1_565
