# generated using pymatgen
data_KIn9Co2
_symmetry_space_group_name_H-M   'P 1'
_cell_length_a   8.76014690
_cell_length_b   8.76014087
_cell_length_c   4.23825632
_cell_angle_alpha   90.00000000
_cell_angle_beta   90.00000000
_cell_angle_gamma   119.99998355
_symmetry_Int_Tables_number   1
_chemical_formula_structural   KIn9Co2
_chemical_formula_sum   'K1 In9 Co2'
_cell_volume   281.66987508
_cell_formula_units_Z   1
loop_
 _symmetry_equiv_pos_site_id
 _symmetry_equiv_pos_as_xyz
  1  'x, y, z'
loop_
 _atom_site_type_symbol
 _atom_site_label
 _atom_site_symmetry_multiplicity
 _atom_site_fract_x
 _atom_site_fract_y
 _atom_site_fract_z
 _atom_site_occupancy
  K  K0  1  -0.00000000  0.00000000  -0.00000000  1
  In  In0  1  0.79009689  0.58019277  0.50000000  1
  In  In1  1  0.50000000  0.50000000  -0.00000000  1
  In  In2  1  0.50000000  0.00000000  -0.00000000  1
  In  In3  1  0.41980623  0.20990211  0.50000000  1
  In  In4  1  0.20990311  0.41980723  0.50000000  1
  In  In5  1  0.20990311  0.79009789  0.50000000  1
  In  In6  1  0.58019377  0.79009789  0.50000000  1
  In  In7  1  -0.00000000  0.50000000  -0.00000000  1
  In  In8  1  0.79009689  0.20990211  0.50000000  1
  Co  Co0  1  0.66666700  0.33333300  -0.00000000  1
  Co  Co1  1  0.33333300  0.66666700  -0.00000000  1
loop_
_geom_bond_atom_site_label_1
_geom_bond_atom_site_label_2
_geom_bond_distance
_geom_bond_site_symmetry_2
In0 In7 3.107583 1_655
In0 In7 3.107583 1_656
In0 In1 3.107590 1_556
In0 In1 3.107590 1_555
In0 In5 3.184865 1_655
In0 In6 3.184878 1_555
In0 In8 3.243798 1_555
In0 In3 3.243800 1_555
In0 K0 3.825454 1_666
In0 K0 3.825454 1_665
In1 In4 3.107590 1_555
In1 In4 3.107590 1_554
In1 In6 3.107593 1_554
In1 In6 3.107593 1_555
In1 In3 3.107593 1_555
In1 In3 3.107593 1_554
In2 In3 3.107581 1_554
In2 In3 3.107581 1_555
In2 In6 3.107581 1_545
In2 In6 3.107581 1_544
In2 In5 3.107587 1_544
In2 In5 3.107587 1_545
In2 In8 3.107587 1_554
In2 In8 3.107587 1_555
In3 In5 3.184847 1_545
In3 In4 3.184878 1_555
In3 In8 3.243801 1_555
In3 K0 3.825450 1_556
In3 K0 3.825450 1_555
In4 In7 3.107583 1_555
In4 In7 3.107583 1_556
In4 In8 3.184865 1_455
In4 In5 3.243798 1_555
In4 In6 3.243800 1_555
In4 K0 3.825454 1_555
In4 K0 3.825454 1_556
In5 In7 3.107592 1_555
In5 In7 3.107592 1_556
In5 In6 3.243801 1_555
In5 K0 3.825442 1_566
In5 K0 3.825442 1_565
In6 In8 3.184847 1_565
In6 K0 3.825450 1_666
In6 K0 3.825450 1_665
In7 In8 3.107592 1_455
In7 In8 3.107592 1_454
In8 K0 3.825442 1_655
In8 K0 3.825442 1_656
Co0 In2 2.528833 1_555
Co0 In7 2.528834 1_655
Co0 In1 2.528841 1_555
Co0 In0 2.828090 1_555
Co0 In0 2.828090 1_554
Co0 In8 2.828096 1_555
Co0 In8 2.828096 1_554
Co0 In3 2.828096 1_555
Co0 In3 2.828096 1_554
Co1 In2 2.528833 1_565
Co1 In7 2.528834 1_555
Co1 In1 2.528841 1_555
Co1 In4 2.828090 1_554
Co1 In4 2.828090 1_555
Co1 In5 2.828096 1_554
Co1 In5 2.828096 1_555
Co1 In6 2.828096 1_554
Co1 In6 2.828096 1_555
