# generated using pymatgen
data_Rb2AgC3(SN)3
_symmetry_space_group_name_H-M   'P 1'
_cell_length_a   16.35561500
_cell_length_b   7.97564300
_cell_length_c   9.51346744
_cell_angle_alpha   72.20874990
_cell_angle_beta   90.00000000
_cell_angle_gamma   90.00000000
_symmetry_Int_Tables_number   1
_chemical_formula_structural   Rb2AgC3(SN)3
_chemical_formula_sum   'Rb8 Ag4 C12 S12 N12'
_cell_volume   1181.64951774
_cell_formula_units_Z   4
loop_
 _symmetry_equiv_pos_site_id
 _symmetry_equiv_pos_as_xyz
  1  'x, y, z'
loop_
 _atom_site_type_symbol
 _atom_site_label
 _atom_site_symmetry_multiplicity
 _atom_site_fract_x
 _atom_site_fract_y
 _atom_site_fract_z
 _atom_site_occupancy
  Rb  Rb0  1  0.99242000  0.67752800  0.64130600  1
  Rb  Rb1  1  0.84369200  0.04026300  0.80996000  1
  Rb  Rb2  1  0.34369200  0.45973700  0.19004000  1
  Rb  Rb3  1  0.65630800  0.54026300  0.80996000  1
  Rb  Rb4  1  0.00758000  0.32247200  0.35869400  1
  Rb  Rb5  1  0.15630800  0.95973700  0.19004000  1
  Rb  Rb6  1  0.50758000  0.17752800  0.64130600  1
  Rb  Rb7  1  0.49242000  0.82247200  0.35869400  1
  Ag  Ag0  1  0.75891700  0.77121200  0.24541100  1
  Ag  Ag1  1  0.74108300  0.27121200  0.24541100  1
  Ag  Ag2  1  0.24108300  0.22878800  0.75458900  1
  Ag  Ag3  1  0.25891700  0.72878800  0.75458900  1
  C  C0  1  0.84768200  0.50579600  0.94575200  1
  C  C1  1  0.45191000  0.61896700  0.74599200  1
  C  C2  1  0.81291500  0.42728800  0.51587400  1
  C  C3  1  0.04809000  0.11896700  0.74599200  1
  C  C4  1  0.31291500  0.07271200  0.48412600  1
  C  C5  1  0.34768200  0.99420400  0.05424800  1
  C  C6  1  0.18708500  0.57271200  0.48412600  1
  C  C7  1  0.95191000  0.88103300  0.25400800  1
  C  C8  1  0.65231800  0.00579600  0.94575200  1
  C  C9  1  0.54809000  0.38103300  0.25400800  1
  C  C10  1  0.15231800  0.49420400  0.05424800  1
  C  C11  1  0.68708500  0.92728800  0.51587400  1
  S  S0  1  0.22224000  0.04199800  0.56358900  1
  S  S1  1  0.09194300  0.23619100  0.84013100  1
  S  S2  1  0.86058800  0.30987700  0.06636200  1
  S  S3  1  0.77776000  0.95800200  0.43641100  1
  S  S4  1  0.63941200  0.80987700  0.06636200  1
  S  S5  1  0.72224000  0.45800200  0.43641100  1
  S  S6  1  0.59194300  0.26380900  0.15986900  1
  S  S7  1  0.90805700  0.76380900  0.15986900  1
  S  S8  1  0.40805700  0.73619100  0.84013100  1
  S  S9  1  0.36058800  0.19012300  0.93363800  1
  S  S10  1  0.27776000  0.54199800  0.56358900  1
  S  S11  1  0.13941200  0.69012300  0.93363800  1
  N  N0  1  0.33948900  0.85432000  0.14408900  1
  N  N1  1  0.51435400  0.46430500  0.32094900  1
  N  N2  1  0.66051100  0.14568000  0.85591100  1
  N  N3  1  0.83948900  0.64568000  0.85591100  1
  N  N4  1  0.87760500  0.40407400  0.57505600  1
  N  N5  1  0.98564600  0.96430500  0.32094900  1
  N  N6  1  0.01435400  0.03569500  0.67905100  1
  N  N7  1  0.62239500  0.90407400  0.57505600  1
  N  N8  1  0.16051100  0.35432000  0.14408900  1
  N  N9  1  0.37760500  0.09592600  0.42494400  1
  N  N10  1  0.48564600  0.53569500  0.67905100  1
  N  N11  1  0.12239500  0.59592600  0.42494400  1
loop_
_geom_bond_atom_site_label_1
_geom_bond_atom_site_label_2
_geom_bond_distance
_geom_bond_site_symmetry_2
Rb0 S11 3.700701 1_655
Rb0 S1 3.814280 1_655
Rb1 S7 3.544815 1_546
Rb1 S2 3.722336 1_556
Rb2 S8 3.544815 1_554
Rb2 S9 3.722336 1_554
Rb3 S6 3.544815 1_556
Rb3 S4 3.722336 1_556
Rb4 S2 3.700701 1_455
Rb4 S7 3.814280 1_455
Rb5 S1 3.544815 1_564
Rb5 S11 3.722336 1_554
Rb6 S9 3.700701 1_555
Rb6 S8 3.814280 1_545
Rb7 S4 3.700701 1_555
Rb7 S6 3.814280 1_565
Ag0 S4 2.548718 1_555
Ag0 S7 2.577827 1_555
Ag0 S5 2.669830 1_555
Ag0 S3 2.696369 1_555
Ag1 S2 2.548718 1_555
Ag1 S6 2.577827 1_555
Ag1 S3 2.669830 1_545
Ag1 S5 2.696369 1_555
Ag2 S9 2.548718 1_555
Ag2 S1 2.577827 1_555
Ag2 S10 2.669830 1_555
Ag2 S0 2.696369 1_555
Ag3 S11 2.548718 1_555
Ag3 S8 2.577827 1_555
Ag3 S0 2.669830 1_565
Ag3 S10 2.696369 1_555
C0 N3 1.187626 1_555
C0 S2 1.645334 1_556
C1 N10 1.187258 1_555
C1 S8 1.643870 1_555
C2 N4 1.186185 1_555
C2 S5 1.648561 1_555
C3 N6 1.187258 1_555
C3 S1 1.643870 1_555
C4 N9 1.186185 1_555
C4 S0 1.648561 1_555
C5 N0 1.187626 1_555
C5 S9 1.645334 1_564
C6 N11 1.186185 1_555
C6 S10 1.648561 1_555
C7 N5 1.187258 1_555
C7 S7 1.643870 1_555
C8 N2 1.187626 1_555
C8 S4 1.645334 1_546
C9 N1 1.187258 1_555
C9 S6 1.643870 1_555
C10 N8 1.187626 1_555
C10 S11 1.645334 1_554
C11 N7 1.186185 1_555
C11 S3 1.648561 1_555
N0 Rb2 3.042869 1_555
N0 Rb5 3.177868 1_555
N0 Rb7 3.189404 1_555
N1 Rb7 3.007444 1_555
N1 Rb2 3.061262 1_555
N1 Rb6 3.205051 1_555
N2 Rb3 3.042869 1_555
N2 Rb1 3.177868 1_555
N2 Rb6 3.189404 1_555
N3 Rb1 3.042869 1_565
N3 Rb3 3.177868 1_555
N3 Rb0 3.189404 1_555
N4 Rb0 3.085496 1_555
N4 Rb1 3.123873 1_555
N4 Rb4 3.161987 1_655
N5 Rb4 3.007444 1_665
N5 Rb5 3.061262 1_655
N5 Rb0 3.205051 1_555
N6 Rb0 3.007444 1_445
N6 Rb1 3.061262 1_455
N6 Rb4 3.205051 1_555
N7 Rb6 3.085496 1_565
N7 Rb3 3.123873 1_555
N7 Rb7 3.161987 1_555
N8 Rb5 3.042869 1_545
N8 Rb2 3.177868 1_555
N8 Rb4 3.189404 1_555
N9 Rb7 3.085496 1_545
N9 Rb2 3.123873 1_555
N9 Rb6 3.161987 1_555
N10 Rb6 3.007444 1_555
N10 Rb3 3.061262 1_555
N10 Rb7 3.205051 1_555
N11 Rb4 3.085496 1_555
N11 Rb5 3.123873 1_555
N11 Rb0 3.161987 1_455
