# generated using pymatgen
data_K3Sb2N2O6F7
_symmetry_space_group_name_H-M   'P 1'
_cell_length_a   8.18467597
_cell_length_b   8.18467597
_cell_length_c   7.30705066
_cell_angle_alpha   88.53132172
_cell_angle_beta   88.53132172
_cell_angle_gamma   41.25471972
_symmetry_Int_Tables_number   1
_chemical_formula_structural   K3Sb2N2O6F7
_chemical_formula_sum   'K3 Sb2 N2 O6 F7'
_cell_volume   322.65338223
_cell_formula_units_Z   1
loop_
 _symmetry_equiv_pos_site_id
 _symmetry_equiv_pos_as_xyz
  1  'x, y, z'
loop_
 _atom_site_type_symbol
 _atom_site_label
 _atom_site_symmetry_multiplicity
 _atom_site_fract_x
 _atom_site_fract_y
 _atom_site_fract_z
 _atom_site_occupancy
  K  K0  1  0.78280400  0.78280400  0.74081900  1
  K  K1  1  0.21719600  0.21719600  0.25918100  1
  K  K2  1  0.50000000  0.50000000  0.50000000  1
  Sb  Sb0  1  0.09659700  0.09659700  0.74923000  1
  Sb  Sb1  1  0.90340300  0.90340300  0.25077000  1
  N  N0  1  0.40856500  0.40856500  0.92089600  1
  N  N1  1  0.59143500  0.59143500  0.07910400  1
  O  O0  1  0.39208900  0.39208900  0.09293900  1
  O  O1  1  0.39212000  0.77320600  0.16368100  1
  O  O2  1  0.60788000  0.22679400  0.83631900  1
  O  O3  1  0.22679400  0.60788000  0.83631900  1
  O  O4  1  0.77320600  0.39212000  0.16368100  1
  O  O5  1  0.60791100  0.60791100  0.90706100  1
  F  F0  1  0.61492700  0.08559400  0.41619600  1
  F  F1  1  0.91440600  0.38507300  0.58380400  1
  F  F2  1  0.08559400  0.61492700  0.41619600  1
  F  F3  1  0.78752700  0.78752700  0.12940300  1
  F  F4  1  0.38507300  0.91440600  0.58380400  1
  F  F5  1  0.21247300  0.21247300  0.87059700  1
  F  F6  1  0.00000000  0.00000000  0.50000000  1
loop_
_geom_bond_atom_site_label_1
_geom_bond_atom_site_label_2
_geom_bond_distance
_geom_bond_site_symmetry_2
K0 O3 2.828118 1_655
K0 O2 2.828118 1_565
K0 O5 2.911398 1_555
K1 O1 2.828118 1_545
K1 O4 2.828118 1_455
K1 O0 2.911398 1_555
K2 O3 2.946181 1_555
K2 O2 2.946181 1_555
K2 O4 2.946181 1_555
K2 O1 2.946181 1_555
N0 O3 1.266030 1_555
N0 O2 1.266030 1_555
N0 O0 1.275421 1_556
N1 O4 1.266030 1_555
N1 O1 1.266030 1_555
N1 O5 1.275421 1_554
F0 Sb1 1.977827 1_545
F0 K1 2.815947 1_555
F0 K2 2.836166 1_555
F0 K0 2.898621 1_545
F1 Sb0 1.977827 1_655
F1 K0 2.815947 1_555
F1 K2 2.836166 1_555
F1 K1 2.898621 1_655
F2 Sb1 1.977827 1_455
F2 K1 2.815947 1_555
F2 K2 2.836166 1_555
F2 K0 2.898621 1_455
F3 Sb1 2.006012 1_555
F3 K0 2.842305 1_554
F3 K1 3.212171 1_565
F3 K1 3.212171 1_655
F4 Sb0 1.977827 1_565
F4 K0 2.815947 1_555
F4 K2 2.836166 1_555
F4 K1 2.898621 1_565
F5 Sb0 2.006012 1_555
F5 K1 2.842305 1_556
F5 K0 3.212171 1_455
F5 K0 3.212171 1_545
F6 Sb0 2.377843 1_555
F6 Sb1 2.377843 1_445
F6 K2 2.883368 1_545
F6 K2 2.883368 1_455
