# generated using pymatgen
data_YB7Mo3
_symmetry_space_group_name_H-M   'P 1'
_cell_length_a   3.09855668
_cell_length_b   11.00846626
_cell_length_c   12.86857828
_cell_angle_alpha   90.00000000
_cell_angle_beta   90.00000000
_cell_angle_gamma   90.00000000
_symmetry_Int_Tables_number   1
_chemical_formula_structural   YB7Mo3
_chemical_formula_sum   'Y4 B28 Mo12'
_cell_volume   438.95179492
_cell_formula_units_Z   4
loop_
 _symmetry_equiv_pos_site_id
 _symmetry_equiv_pos_as_xyz
  1  'x, y, z'
loop_
 _atom_site_type_symbol
 _atom_site_label
 _atom_site_symmetry_multiplicity
 _atom_site_fract_x
 _atom_site_fract_y
 _atom_site_fract_z
 _atom_site_occupancy
  Y  Y0  1  0.75000000  0.94907686  0.30815329  1
  Y  Y1  1  0.25000000  0.05092314  0.69184671  1
  Y  Y2  1  0.75000000  0.44907686  0.19184671  1
  Y  Y3  1  0.25000000  0.55092314  0.80815329  1
  B  B0  1  0.75000000  0.51068428  0.63683959  1
  B  B1  1  0.25000000  0.48931572  0.36316041  1
  B  B2  1  0.75000000  0.01068428  0.86316041  1
  B  B3  1  0.25000000  0.98931572  0.13683959  1
  B  B4  1  0.75000000  0.66637493  0.66671268  1
  B  B5  1  0.25000000  0.33362507  0.33328732  1
  B  B6  1  0.75000000  0.16637493  0.83328732  1
  B  B7  1  0.25000000  0.83362507  0.16671268  1
  B  B8  1  0.75000000  0.68638803  0.93347788  1
  B  B9  1  0.25000000  0.31361197  0.06652212  1
  B  B10  1  0.75000000  0.18638803  0.56652212  1
  B  B11  1  0.25000000  0.81361197  0.43347788  1
  B  B12  1  0.75000000  0.56793274  0.38446807  1
  B  B13  1  0.25000000  0.43206726  0.61553193  1
  B  B14  1  0.75000000  0.06793274  0.11553193  1
  B  B15  1  0.25000000  0.93206726  0.88446807  1
  B  B16  1  0.75000000  0.53759175  0.98194581  1
  B  B17  1  0.25000000  0.46240825  0.01805419  1
  B  B18  1  0.75000000  0.03759175  0.51805419  1
  B  B19  1  0.25000000  0.96240825  0.48194581  1
  B  B20  1  0.75000000  0.74851522  0.17325140  1
  B  B21  1  0.25000000  0.25148478  0.82674860  1
  B  B22  1  0.75000000  0.24851522  0.32674860  1
  B  B23  1  0.25000000  0.75148478  0.67325140  1
  B  B24  1  0.75000000  0.73031780  0.41832536  1
  B  B25  1  0.25000000  0.26968220  0.58167464  1
  B  B26  1  0.75000000  0.23031780  0.08167464  1
  B  B27  1  0.25000000  0.76968220  0.91832536  1
  Mo  Mo0  1  0.75000000  0.81568520  0.79835227  1
  Mo  Mo1  1  0.25000000  0.18431480  0.20164773  1
  Mo  Mo2  1  0.75000000  0.31568520  0.70164773  1
  Mo  Mo3  1  0.25000000  0.68431480  0.29835227  1
  Mo  Mo4  1  0.75000000  0.83996552  0.56387239  1
  Mo  Mo5  1  0.25000000  0.16003448  0.43612761  1
  Mo  Mo6  1  0.75000000  0.33996552  0.93612761  1
  Mo  Mo7  1  0.25000000  0.66003448  0.06387239  1
  Mo  Mo8  1  0.75000000  0.88209800  0.02674752  1
  Mo  Mo9  1  0.25000000  0.11790200  0.97325248  1
  Mo  Mo10  1  0.75000000  0.38209800  0.47325248  1
  Mo  Mo11  1  0.25000000  0.61790200  0.52674752  1
loop_
_geom_bond_atom_site_label_1
_geom_bond_atom_site_label_2
_geom_bond_distance
_geom_bond_site_symmetry_2
B0 B4 1.756499 1_555
B0 B13 1.795677 1_555
B0 B13 1.795677 1_655
B0 Mo2 2.302955 1_555
B0 Mo11 2.408422 1_655
B0 Mo11 2.408422 1_555
B0 Mo10 2.536796 1_555
B0 Y3 2.730675 1_555
B0 Y3 2.730675 1_655
B1 B5 1.756499 1_555
B1 B12 1.795677 1_455
B1 B12 1.795677 1_555
B1 Mo3 2.302955 1_555
B1 Mo10 2.408422 1_455
B1 Mo10 2.408422 1_555
B1 Mo11 2.536796 1_555
B1 Y2 2.730675 1_555
B1 Y2 2.730675 1_455
B2 B6 1.756499 1_555
B2 Mo0 2.302955 1_545
B2 Mo9 2.408422 1_555
B2 Mo9 2.408422 1_655
B2 Mo8 2.536796 1_546
B2 Y1 2.730675 1_555
B2 Y1 2.730675 1_655
B3 B7 1.756499 1_555
B3 Mo1 2.302955 1_565
B3 Mo8 2.408422 1_455
B3 Mo8 2.408422 1_555
B3 Mo9 2.536796 1_564
B3 Y0 2.730675 1_555
B3 Y0 2.730675 1_455
B4 Mo4 2.324479 1_555
B4 Mo0 2.360373 1_555
B4 Mo11 2.434986 1_655
B4 Mo11 2.434986 1_555
B4 Y3 2.707116 1_555
B4 Y3 2.707116 1_655
B5 Mo5 2.324479 1_555
B5 Mo1 2.360373 1_555
B5 Mo10 2.434986 1_555
B5 Mo10 2.434986 1_455
B5 Y2 2.707116 1_455
B5 Y2 2.707116 1_555
B6 Mo6 2.324479 1_555
B6 Mo2 2.360373 1_555
B6 Mo9 2.434986 1_655
B6 Mo9 2.434986 1_555
B6 Y1 2.707116 1_555
B6 Y1 2.707116 1_655
B7 Mo7 2.324479 1_555
B7 Mo3 2.360373 1_555
B7 Mo8 2.434986 1_555
B7 Mo8 2.434986 1_455
B7 Y0 2.707116 1_555
B7 Y0 2.707116 1_455
B8 Mo0 2.247142 1_555
B8 Mo7 2.302191 1_556
B8 Mo7 2.302191 1_656
B8 Mo8 2.466236 1_556
B8 Y3 2.687951 1_655
B8 Y3 2.687951 1_555
B9 Mo1 2.247142 1_555
B9 Mo6 2.302191 1_554
B9 Mo6 2.302191 1_454
B9 Mo9 2.466236 1_554
B9 Y2 2.687951 1_455
B9 Y2 2.687951 1_555
B10 B18 1.752748 1_555
B10 B25 1.810819 1_555
B10 B25 1.810819 1_655
B10 Mo2 2.247142 1_555
B10 Mo5 2.302191 1_555
B10 Mo5 2.302191 1_655
B10 Mo10 2.466236 1_555
B10 Y1 2.687951 1_555
B10 Y1 2.687951 1_655
B11 B19 1.752748 1_555
B11 B24 1.810819 1_455
B11 B24 1.810819 1_555
B11 Mo3 2.247142 1_555
B11 Mo4 2.302191 1_555
B11 Mo4 2.302191 1_455
B11 Mo11 2.466236 1_555
B11 Y0 2.687951 1_455
B11 Y0 2.687951 1_555
B12 B24 1.839941 1_555
B12 Mo3 2.295602 1_655
B12 Mo3 2.295602 1_555
B12 Mo10 2.343179 1_555
B12 Mo11 2.460727 1_555
B12 Mo11 2.460727 1_655
B12 Y2 2.802897 1_555
B13 B25 1.839941 1_555
B13 Mo2 2.295602 1_555
B13 Mo2 2.295602 1_455
B13 Mo11 2.343179 1_555
B13 Mo10 2.460727 1_555
B13 Mo10 2.460727 1_455
B13 Y3 2.802897 1_555
B14 B3 1.795677 1_645
B14 B3 1.795677 1_545
B14 B26 1.839941 1_555
B14 Mo1 2.295602 1_655
B14 Mo1 2.295602 1_555
B14 Mo8 2.343179 1_545
B14 Mo9 2.460727 1_654
B14 Mo9 2.460727 1_554
B14 Y0 2.802897 1_545
B15 B2 1.795677 1_465
B15 B2 1.795677 1_565
B15 B27 1.839941 1_555
B15 Mo0 2.295602 1_455
B15 Mo0 2.295602 1_555
B15 Mo9 2.343179 1_565
B15 Mo8 2.460727 1_556
B15 Mo8 2.460727 1_456
B15 Y1 2.802897 1_565
B16 B8 1.752748 1_555
B16 B17 1.816917 1_656
B16 B17 1.816917 1_556
B16 Mo6 2.254044 1_555
B16 Mo7 2.308380 1_556
B16 Mo7 2.308380 1_656
B16 Y3 2.724622 1_555
B16 Y3 2.724622 1_655
B16 Y2 2.871509 1_556
B17 B9 1.752748 1_555
B17 Mo7 2.254044 1_555
B17 Mo6 2.308380 1_554
B17 Mo6 2.308380 1_454
B17 Y2 2.724622 1_455
B17 Y2 2.724622 1_555
B17 Y3 2.871509 1_554
B18 B19 1.816917 1_545
B18 B19 1.816917 1_645
B18 Mo4 2.254044 1_545
B18 Mo5 2.308380 1_555
B18 Mo5 2.308380 1_655
B18 Y1 2.724622 1_555
B18 Y1 2.724622 1_655
B18 Y0 2.871509 1_545
B19 Mo5 2.254044 1_565
B19 Mo4 2.308380 1_455
B19 Mo4 2.308380 1_555
B19 Y0 2.724622 1_555
B19 Y0 2.724622 1_455
B19 Y1 2.871509 1_565
B20 B7 1.812506 1_555
B20 B7 1.812506 1_655
B20 Mo7 2.308726 1_655
B20 Mo7 2.308726 1_555
B20 Mo3 2.343382 1_655
B20 Mo3 2.343382 1_555
B20 Mo8 2.390991 1_555
B20 Y0 2.808629 1_555
B20 Y2 3.305031 1_555
B21 B6 1.812506 1_455
B21 B6 1.812506 1_555
B21 Mo6 2.308726 1_455
B21 Mo6 2.308726 1_555
B21 Mo2 2.343382 1_455
B21 Mo2 2.343382 1_555
B21 Mo9 2.390991 1_555
B21 Y1 2.808629 1_555
B21 Y3 3.305031 1_555
B22 B5 1.812506 1_655
B22 B5 1.812506 1_555
B22 Mo5 2.308726 1_555
B22 Mo5 2.308726 1_655
B22 Mo1 2.343382 1_555
B22 Mo1 2.343382 1_655
B22 Mo10 2.390991 1_555
B22 Y2 2.808629 1_555
B22 Y0 3.305031 1_545
B23 B4 1.812506 1_455
B23 B4 1.812506 1_555
B23 Mo4 2.308726 1_555
B23 Mo4 2.308726 1_455
B23 Mo0 2.343382 1_555
B23 Mo0 2.343382 1_455
B23 Mo11 2.390991 1_555
B23 Y3 2.808629 1_555
B23 Y1 3.305031 1_565
B24 Mo4 2.228238 1_555
B24 Mo3 2.245062 1_655
B24 Mo3 2.245062 1_555
B24 Mo11 2.424546 1_555
B24 Mo11 2.424546 1_655
B24 Y0 2.794543 1_555
B25 Mo5 2.228238 1_555
B25 Mo2 2.245062 1_455
B25 Mo2 2.245062 1_555
B25 Mo10 2.424546 1_555
B25 Mo10 2.424546 1_455
B25 Y1 2.794543 1_555
B26 B9 1.810819 1_555
B26 B9 1.810819 1_655
B26 Mo6 2.228238 1_554
B26 Mo1 2.245062 1_555
B26 Mo1 2.245062 1_655
B26 Mo9 2.424546 1_554
B26 Mo9 2.424546 1_654
B26 Y2 2.794543 1_555
B27 B8 1.810819 1_555
B27 B8 1.810819 1_455
B27 Mo7 2.228238 1_556
B27 Mo0 2.245062 1_555
B27 Mo0 2.245062 1_455
B27 Mo8 2.424546 1_456
B27 Mo8 2.424546 1_556
B27 Y3 2.794543 1_555
