# generated using pymatgen
data_LaMn7O12
_symmetry_space_group_name_H-M   'P 1'
_cell_length_a   6.57438682
_cell_length_b   6.57438682
_cell_length_c   6.57438682
_cell_angle_alpha   109.47122063
_cell_angle_beta   109.47122063
_cell_angle_gamma   109.47122063
_symmetry_Int_Tables_number   1
_chemical_formula_structural   LaMn7O12
_chemical_formula_sum   'La1 Mn7 O12'
_cell_volume   218.74788817
_cell_formula_units_Z   1
loop_
 _symmetry_equiv_pos_site_id
 _symmetry_equiv_pos_as_xyz
  1  'x, y, z'
loop_
 _atom_site_type_symbol
 _atom_site_label
 _atom_site_symmetry_multiplicity
 _atom_site_fract_x
 _atom_site_fract_y
 _atom_site_fract_z
 _atom_site_occupancy
  La  La0  1  0.00000000  0.00000000  0.00000000  1
  Mn  Mn0  1  0.00000000  0.50000000  0.00000000  1
  Mn  Mn1  1  0.50000000  0.00000000  0.00000000  1
  Mn  Mn2  1  0.00000000  0.00000000  0.50000000  1
  Mn  Mn3  1  0.00000000  0.50000000  0.50000000  1
  Mn  Mn4  1  0.50000000  0.50000000  0.50000000  1
  Mn  Mn5  1  0.50000000  0.50000000  0.00000000  1
  Mn  Mn6  1  0.50000000  0.00000000  0.50000000  1
  O  O0  1  0.51650900  0.69192300  0.82458600  1
  O  O1  1  0.30807700  0.82458600  0.13266400  1
  O  O2  1  0.17541400  0.86733600  0.69192300  1
  O  O3  1  0.86733600  0.69192300  0.17541400  1
  O  O4  1  0.30807700  0.17541400  0.48349100  1
  O  O5  1  0.82458600  0.13266400  0.30807700  1
  O  O6  1  0.82458600  0.51650900  0.69192300  1
  O  O7  1  0.69192300  0.82458600  0.51650900  1
  O  O8  1  0.69192300  0.17541400  0.86733600  1
  O  O9  1  0.48349100  0.30807700  0.17541400  1
  O  O10  1  0.17541400  0.48349100  0.30807700  1
  O  O11  1  0.13266400  0.30807700  0.82458600  1
loop_
_geom_bond_atom_site_label_1
_geom_bond_atom_site_label_2
_geom_bond_distance
_geom_bond_site_symmetry_2
La0 O7 2.691289 1_444
La0 O0 2.691289 1_444
La0 O6 2.691289 1_444
La0 O4 2.691289 1_555
La0 O9 2.691289 1_555
La0 O10 2.691289 1_555
La0 O2 2.691290 1_544
La0 O3 2.691290 1_445
La0 O8 2.691290 1_454
La0 O1 2.691290 1_545
La0 O5 2.691290 1_455
La0 O11 2.691290 1_554
Mn0 O1 2.029004 1_555
Mn0 O8 2.029004 1_454
Mn0 O10 2.029005 1_555
Mn0 O6 2.029005 1_454
Mn0 O3 2.029011 1_455
Mn0 O11 2.029011 1_554
Mn1 O5 2.029004 1_555
Mn1 O2 2.029004 1_544
Mn1 O9 2.029005 1_555
Mn1 O0 2.029005 1_544
Mn1 O8 2.029011 1_554
Mn1 O1 2.029011 1_545
Mn2 O11 2.029004 1_555
Mn2 O3 2.029004 1_445
Mn2 O4 2.029005 1_555
Mn2 O7 2.029005 1_445
Mn2 O2 2.029011 1_545
Mn2 O5 2.029011 1_455
Mn3 O2 1.973837 1_555
Mn3 O5 1.973837 1_455
Mn3 O10 1.973842 1_555
Mn3 O6 1.973842 1_455
Mn4 O7 2.029005 1_555
Mn4 O6 2.029005 1_555
Mn4 O0 2.029005 1_555
Mn4 O9 2.029005 1_555
Mn4 O4 2.029005 1_555
Mn4 O10 2.029005 1_555
Mn5 O11 1.973837 1_554
Mn5 O3 1.973837 1_555
Mn5 O9 1.973842 1_555
Mn5 O0 1.973842 1_554
Mn6 O1 1.973837 1_545
Mn6 O8 1.973837 1_555
Mn6 O4 1.973842 1_555
Mn6 O7 1.973842 1_545
