# generated using pymatgen
data_CeMnSbO
_symmetry_space_group_name_H-M   'P 1'
_cell_length_a   4.20211700
_cell_length_b   4.20211700
_cell_length_c   9.50017900
_cell_angle_alpha   90.00000000
_cell_angle_beta   90.00000000
_cell_angle_gamma   90.00000000
_symmetry_Int_Tables_number   1
_chemical_formula_structural   CeMnSbO
_chemical_formula_sum   'Ce2 Mn2 Sb2 O2'
_cell_volume   167.75213992
_cell_formula_units_Z   2
loop_
 _symmetry_equiv_pos_site_id
 _symmetry_equiv_pos_as_xyz
  1  'x, y, z'
loop_
 _atom_site_type_symbol
 _atom_site_label
 _atom_site_symmetry_multiplicity
 _atom_site_fract_x
 _atom_site_fract_y
 _atom_site_fract_z
 _atom_site_occupancy
  Ce  Ce0  1  0.50000000  0.00000000  0.11942300  1
  Ce  Ce1  1  0.00000000  0.50000000  0.88057700  1
  Mn  Mn0  1  0.00000000  0.00000000  0.50000000  1
  Mn  Mn1  1  0.50000000  0.50000000  0.50000000  1
  Sb  Sb0  1  0.50000000  0.00000000  0.69875000  1
  Sb  Sb1  1  0.00000000  0.50000000  0.30125000  1
  O  O0  1  0.00000000  0.00000000  0.00000000  1
  O  O1  1  0.50000000  0.50000000  0.00000000  1
loop_
_geom_bond_atom_site_label_1
_geom_bond_atom_site_label_2
_geom_bond_distance
_geom_bond_site_symmetry_2
Ce0 O0 2.387808 1_655
Ce0 O1 2.387808 1_555
Ce0 O0 2.387808 1_555
Ce0 O1 2.387808 1_545
Ce0 Sb1 3.436971 1_545
Ce0 Sb1 3.436971 1_645
Ce0 Sb1 3.436971 1_655
Ce0 Sb1 3.436971 1_555
Ce1 O0 2.387808 1_566
Ce1 O1 2.387808 1_456
Ce1 O1 2.387808 1_556
Ce1 O0 2.387808 1_556
Ce1 Sb0 3.436971 1_565
Ce1 Sb0 3.436971 1_455
Ce1 Sb0 3.436971 1_465
Ce1 Sb0 3.436971 1_555
Mn0 Sb1 2.824818 1_545
Mn0 Sb1 2.824818 1_555
Mn0 Sb0 2.824818 1_555
Mn0 Sb0 2.824818 1_455
Mn1 Sb1 2.824818 1_655
Mn1 Sb1 2.824818 1_555
Mn1 Sb0 2.824818 1_565
Mn1 Sb0 2.824818 1_555
