# generated using pymatgen
data_Mn7V5O16
_symmetry_space_group_name_H-M   'P 1'
_cell_length_a   5.90232458
_cell_length_b   12.17420101
_cell_length_c   10.59413563
_cell_angle_alpha   90.00810306
_cell_angle_beta   123.88526350
_cell_angle_gamma   89.99978605
_symmetry_Int_Tables_number   1
_chemical_formula_structural   Mn7V5O16
_chemical_formula_sum   'Mn14 V10 O32'
_cell_volume   631.95861472
_cell_formula_units_Z   2
loop_
 _symmetry_equiv_pos_site_id
 _symmetry_equiv_pos_as_xyz
  1  'x, y, z'
loop_
 _atom_site_type_symbol
 _atom_site_label
 _atom_site_symmetry_multiplicity
 _atom_site_fract_x
 _atom_site_fract_y
 _atom_site_fract_z
 _atom_site_occupancy
  Mn  Mn0  1  0.12099800  0.13010700  0.62086600  1
  Mn  Mn1  1  0.12508200  0.62495200  0.62499200  1
  Mn  Mn2  1  0.49323800  0.25127500  0.99328000  1
  Mn  Mn3  1  0.50676200  0.74872500  0.00672000  1
  Mn  Mn4  1  0.12100900  0.36988800  0.12087600  1
  Mn  Mn5  1  0.12508100  0.87503500  0.12498800  1
  Mn  Mn6  1  0.50000000  0.00000000  0.50000000  1
  Mn  Mn7  1  0.49323300  0.24872600  0.49327600  1
  Mn  Mn8  1  0.50676700  0.75127400  0.50672400  1
  Mn  Mn9  1  0.87491900  0.12496500  0.87501200  1
  Mn  Mn10  1  0.87899100  0.63011200  0.87912400  1
  Mn  Mn11  1  0.50000000  0.50000000  0.00000000  1
  Mn  Mn12  1  0.87491800  0.37504800  0.37500800  1
  Mn  Mn13  1  0.87900200  0.86989300  0.37913400  1
  V  V0  1  0.50524200  0.37806300  0.74612500  1
  V  V1  1  0.49475300  0.87806800  0.75388300  1
  V  V2  1  0.50000000  0.50000000  0.50000000  1
  V  V3  1  0.50524700  0.12193200  0.24611700  1
  V  V4  1  0.49475800  0.62193700  0.25387500  1
  V  V5  1  0.98675300  0.37812100  0.74604300  1
  V  V6  1  0.01324400  0.87812400  0.75395900  1
  V  V7  1  0.50000000  0.00000000  0.00000000  1
  V  V8  1  0.98675600  0.12187600  0.24604100  1
  V  V9  1  0.01324700  0.62187900  0.25395700  1
  O  O0  1  0.23975800  0.37697000  0.97454900  1
  O  O1  1  0.25957000  0.87702300  0.98610200  1
  O  O2  1  0.24839900  0.26837800  0.74847700  1
  O  O3  1  0.26563500  0.99727500  0.76555800  1
  O  O4  1  0.24767700  0.48564000  0.74773700  1
  O  O5  1  0.25864400  0.76103700  0.75853100  1
  O  O6  1  0.70943700  0.37704600  0.97457200  1
  O  O7  1  0.71272600  0.87710600  0.98597800  1
  O  O8  1  0.23977000  0.12302300  0.47455000  1
  O  O9  1  0.25957000  0.62297500  0.48610800  1
  O  O10  1  0.28726100  0.37711400  0.51402700  1
  O  O11  1  0.29057400  0.87705500  0.52543100  1
  O  O12  1  0.24768100  0.01436000  0.24772600  1
  O  O13  1  0.24840500  0.23162000  0.24848500  1
  O  O14  1  0.26563800  0.50272700  0.26554300  1
  O  O15  1  0.25865500  0.73896700  0.25854100  1
  O  O16  1  0.74134500  0.26103300  0.74145900  1
  O  O17  1  0.73436200  0.49727300  0.73445700  1
  O  O18  1  0.75159500  0.76838000  0.75151500  1
  O  O19  1  0.75231900  0.98564000  0.75227400  1
  O  O20  1  0.70942600  0.12294500  0.47456900  1
  O  O21  1  0.71273900  0.62288600  0.48597300  1
  O  O22  1  0.74043000  0.37702500  0.51389200  1
  O  O23  1  0.76023000  0.87697700  0.52545000  1
  O  O24  1  0.29056300  0.62295400  0.02542800  1
  O  O25  1  0.28727400  0.12289400  0.01402200  1
  O  O26  1  0.73436500  0.00272500  0.23444200  1
  O  O27  1  0.74135600  0.23896300  0.24146900  1
  O  O28  1  0.75232300  0.51436000  0.25226300  1
  O  O29  1  0.75160100  0.73162200  0.25152300  1
  O  O30  1  0.74043000  0.12297700  0.01389800  1
  O  O31  1  0.76024200  0.62303000  0.02545100  1
loop_
_geom_bond_atom_site_label_1
_geom_bond_atom_site_label_2
_geom_bond_distance
_geom_bond_site_symmetry_2
Mn0 O2 2.023013 1_555
Mn0 O20 2.027962 1_455
Mn0 O8 2.028133 1_555
Mn0 O3 2.057942 1_545
Mn1 O4 2.010579 1_555
Mn1 O21 2.023892 1_455
Mn1 O9 2.024327 1_555
Mn1 O5 2.030619 1_555
Mn2 O30 2.064157 1_556
Mn2 O25 2.065644 1_556
Mn2 O0 2.070845 1_555
Mn2 O6 2.072250 1_555
Mn2 O2 2.163069 1_555
Mn2 O27 2.187934 1_556
Mn3 O1 2.064157 1_554
Mn3 O7 2.065644 1_554
Mn3 O31 2.070845 1_555
Mn3 O24 2.072250 1_555
Mn3 O29 2.163069 1_555
Mn3 O5 2.187934 1_554
Mn4 O13 2.023286 1_555
Mn4 O6 2.027985 1_454
Mn4 O0 2.028158 1_554
Mn4 O14 2.057537 1_555
Mn5 O12 2.010374 1_565
Mn5 O7 2.023949 1_454
Mn5 O1 2.024359 1_554
Mn5 O15 2.030843 1_555
Mn6 O11 2.052386 1_545
Mn6 O20 2.052386 1_555
Mn6 O8 2.052637 1_555
Mn6 O23 2.052637 1_545
Mn6 O12 2.225601 1_555
Mn6 O19 2.225601 1_545
Mn7 O22 2.064153 1_555
Mn7 O10 2.065727 1_555
Mn7 O8 2.070833 1_555
Mn7 O20 2.072264 1_555
Mn7 O13 2.162898 1_555
Mn7 O16 2.187827 1_555
Mn8 O9 2.064153 1_555
Mn8 O21 2.065727 1_555
Mn8 O23 2.070833 1_555
Mn8 O11 2.072264 1_555
Mn8 O18 2.162898 1_555
Mn8 O15 2.187827 1_555
Mn9 O19 2.010374 1_545
Mn9 O25 2.023949 1_656
Mn9 O30 2.024359 1_556
Mn9 O16 2.030843 1_555
Mn10 O18 2.023286 1_555
Mn10 O24 2.027985 1_656
Mn10 O31 2.028158 1_556
Mn10 O17 2.057537 1_555
Mn11 O24 2.052433 1_555
Mn11 O6 2.052433 1_554
Mn11 O31 2.052697 1_555
Mn11 O0 2.052697 1_554
Mn11 O28 2.225446 1_555
Mn11 O4 2.225446 1_554
Mn12 O28 2.010579 1_555
Mn12 O10 2.023892 1_655
Mn12 O22 2.024327 1_555
Mn12 O27 2.030619 1_555
Mn13 O29 2.023013 1_555
Mn13 O11 2.027962 1_655
Mn13 O23 2.028133 1_555
Mn13 O26 2.057942 1_565
O0 V5 2.014838 1_455
O1 V7 2.010952 1_566
O1 V6 2.043369 1_555
O2 V0 2.030771 1_555
O2 V5 2.031296 1_455
O3 V6 2.033293 1_555
O3 V1 2.033879 1_555
O3 V7 2.062128 1_566
O4 V5 2.013619 1_455
O4 V0 2.013839 1_555
O5 V1 2.012713 1_555
O5 V6 2.013443 1_555
O6 V0 2.014344 1_555
O7 V7 2.011186 1_566
O7 V1 2.043002 1_555
O8 V8 2.014862 1_455
O9 V2 2.010977 1_555
O9 V9 2.043432 1_555
O10 V2 2.011225 1_555
O10 V0 2.043022 1_555
O11 V1 2.014392 1_555
O12 V8 2.013635 1_455
O12 V3 2.013800 1_555
O13 V3 2.030851 1_555
O13 V8 2.031277 1_455
O14 V9 2.033367 1_555
O14 V4 2.033913 1_555
O14 V2 2.062272 1_555
O15 V4 2.012741 1_555
O15 V9 2.013435 1_555
O16 V0 2.012741 1_555
O16 V5 2.013435 1_555
O17 V5 2.033367 1_555
O17 V0 2.033913 1_555
O17 V2 2.062272 1_555
O18 V1 2.030851 1_555
O18 V6 2.031277 1_655
O19 V6 2.013635 1_655
O19 V1 2.013800 1_555
O20 V3 2.014392 1_555
O21 V2 2.011225 1_555
O21 V4 2.043022 1_555
O22 V2 2.010977 1_555
O22 V5 2.043432 1_555
O23 V6 2.014862 1_655
O24 V4 2.014344 1_555
O25 V7 2.011186 1_555
O25 V3 2.043002 1_555
O26 V8 2.033293 1_555
O26 V3 2.033879 1_555
O26 V7 2.062128 1_555
O27 V3 2.012713 1_555
O27 V8 2.013443 1_555
O28 V9 2.013619 1_655
O28 V4 2.013839 1_555
O29 V4 2.030771 1_555
O29 V9 2.031296 1_655
O30 V7 2.010952 1_555
O30 V8 2.043369 1_555
O31 V9 2.014838 1_655
