# generated using pymatgen
data_CsDyZnTe3
_symmetry_space_group_name_H-M   'P 1'
_cell_length_a   8.81047999
_cell_length_b   8.81047999
_cell_length_c   11.71308594
_cell_angle_alpha   90.00000000
_cell_angle_beta   90.00000000
_cell_angle_gamma   150.90756656
_symmetry_Int_Tables_number   1
_chemical_formula_structural   CsDyZnTe3
_chemical_formula_sum   'Cs2 Dy2 Zn2 Te6'
_cell_volume   442.08244895
_cell_formula_units_Z   2
loop_
 _symmetry_equiv_pos_site_id
 _symmetry_equiv_pos_as_xyz
  1  'x, y, z'
loop_
 _atom_site_type_symbol
 _atom_site_label
 _atom_site_symmetry_multiplicity
 _atom_site_fract_x
 _atom_site_fract_y
 _atom_site_fract_z
 _atom_site_occupancy
  Cs  Cs0  1  0.25384217  0.74615783  0.75000000  1
  Cs  Cs1  1  0.74615783  0.25384217  0.25000000  1
  Dy  Dy0  1  0.00000000  -0.00000000  -0.00000000  1
  Dy  Dy1  1  0.00000000  -0.00000000  0.50000000  1
  Zn  Zn0  1  0.53787810  0.46212190  0.75000000  1
  Zn  Zn1  1  0.46212190  0.53787810  0.25000000  1
  Te  Te0  1  0.61973625  0.38026375  0.94124669  1
  Te  Te1  1  0.38026375  0.61973625  0.05875331  1
  Te  Te2  1  0.38026375  0.61973625  0.44124669  1
  Te  Te3  1  0.61973625  0.38026375  0.55875331  1
  Te  Te4  1  0.94152814  0.05847186  0.75000000  1
  Te  Te5  1  0.05847186  0.94152814  0.25000000  1
loop_
_geom_bond_atom_site_label_1
_geom_bond_atom_site_label_2
_geom_bond_distance
_geom_bond_site_symmetry_2
Cs0 Te4 3.891574 1_455
Cs0 Te4 3.891574 1_565
Cs0 Te3 3.891858 1_455
Cs0 Te0 3.891858 1_455
Cs0 Te0 3.891858 1_565
Cs0 Te3 3.891858 1_565
Cs0 Te1 4.210488 1_556
Cs0 Te2 4.210488 1_555
Cs1 Te5 3.891574 1_545
Cs1 Te5 3.891574 1_655
Cs1 Te1 3.891858 1_545
Cs1 Te2 3.891858 1_545
Cs1 Te1 3.891858 1_655
Cs1 Te2 3.891858 1_655
Cs1 Te0 4.210488 1_554
Cs1 Te3 4.210488 1_555
Dy0 Te0 3.088854 1_444
Dy0 Te1 3.088854 1_445
Dy0 Te1 3.088854 1_555
Dy0 Te0 3.088854 1_554
Dy0 Te5 3.093443 1_545
Dy0 Te4 3.093443 1_454
Dy1 Te3 3.088854 1_445
Dy1 Te2 3.088854 1_445
Dy1 Te2 3.088854 1_555
Dy1 Te3 3.088854 1_555
Dy1 Te5 3.093443 1_545
Dy1 Te4 3.093443 1_455
Te0 Zn0 2.639569 1_555
Te1 Zn1 2.639569 1_555
Te2 Zn1 2.639569 1_555
Te3 Zn0 2.639569 1_555
Te4 Zn0 2.756323 1_655
Te4 Zn0 2.756323 1_545
Te5 Zn1 2.756323 1_565
Te5 Zn1 2.756323 1_455
