# generated using pymatgen
data_Li3Fe5O8
_symmetry_space_group_name_H-M   'P 1'
_cell_length_a   8.56040987
_cell_length_b   8.56040987
_cell_length_c   8.32208600
_cell_angle_alpha   90.00000000
_cell_angle_beta   90.00000000
_cell_angle_gamma   90.67933268
_symmetry_Int_Tables_number   1
_chemical_formula_structural   Li3Fe5O8
_chemical_formula_sum   'Li12 Fe20 O32'
_cell_volume   609.80473237
_cell_formula_units_Z   4
loop_
 _symmetry_equiv_pos_site_id
 _symmetry_equiv_pos_as_xyz
  1  'x, y, z'
loop_
 _atom_site_type_symbol
 _atom_site_label
 _atom_site_symmetry_multiplicity
 _atom_site_fract_x
 _atom_site_fract_y
 _atom_site_fract_z
 _atom_site_occupancy
  Li  Li0  1  0.87086300  0.63241400  0.75000000  1
  Li  Li1  1  0.87144500  0.87144500  0.50000000  1
  Li  Li2  1  0.87144500  0.87144500  0.00000000  1
  Li  Li3  1  0.12855500  0.12855500  0.50000000  1
  Li  Li4  1  0.12913700  0.36758600  0.25000000  1
  Li  Li5  1  0.12855500  0.12855500  0.00000000  1
  Li  Li6  1  0.36758600  0.12913700  0.75000000  1
  Li  Li7  1  0.37915700  0.62084300  0.25000000  1
  Li  Li8  1  0.37906700  0.62093300  0.75000000  1
  Li  Li9  1  0.62084300  0.37915700  0.75000000  1
  Li  Li10  1  0.62093300  0.37906700  0.25000000  1
  Li  Li11  1  0.63241400  0.87086300  0.25000000  1
  Fe  Fe0  1  0.87976100  0.12023900  0.75000000  1
  Fe  Fe1  1  0.86956800  0.63175300  0.25000000  1
  Fe  Fe2  1  0.87784800  0.12215200  0.25000000  1
  Fe  Fe3  1  0.87582300  0.37721400  0.50032400  1
  Fe  Fe4  1  0.87582300  0.37721400  0.99967600  1
  Fe  Fe5  1  0.13043200  0.36824700  0.75000000  1
  Fe  Fe6  1  0.12417700  0.62278600  0.49967600  1
  Fe  Fe7  1  0.12417700  0.62278600  0.00032400  1
  Fe  Fe8  1  0.12023900  0.87976100  0.25000000  1
  Fe  Fe9  1  0.12215200  0.87784800  0.75000000  1
  Fe  Fe10  1  0.36824700  0.13043200  0.25000000  1
  Fe  Fe11  1  0.38154000  0.38154000  0.50000000  1
  Fe  Fe12  1  0.37721400  0.87582300  0.49967600  1
  Fe  Fe13  1  0.38154000  0.38154000  0.00000000  1
  Fe  Fe14  1  0.37721400  0.87582300  0.00032400  1
  Fe  Fe15  1  0.62278600  0.12417700  0.50032400  1
  Fe  Fe16  1  0.61846000  0.61846000  0.50000000  1
  Fe  Fe17  1  0.61846000  0.61846000  0.00000000  1
  Fe  Fe18  1  0.63175300  0.86956800  0.75000000  1
  Fe  Fe19  1  0.62278600  0.12417700  0.99967600  1
  O  O0  1  0.87607100  0.36373500  0.75000000  1
  O  O1  1  0.87448700  0.88760500  0.75000000  1
  O  O2  1  0.88760500  0.87448700  0.25000000  1
  O  O3  1  0.86232400  0.13767600  0.50554500  1
  O  O4  1  0.87478400  0.37723200  0.25000000  1
  O  O5  1  0.86232400  0.13767600  0.99445500  1
  O  O6  1  0.87901900  0.61353300  0.50584400  1
  O  O7  1  0.87901900  0.61353300  0.99415600  1
  O  O8  1  0.12521600  0.62276800  0.75000000  1
  O  O9  1  0.12392900  0.63626500  0.25000000  1
  O  O10  1  0.13767600  0.86232400  0.49445500  1
  O  O11  1  0.12098100  0.38646700  0.49415600  1
  O  O12  1  0.11239500  0.12551300  0.75000000  1
  O  O13  1  0.13767600  0.86232400  0.00554500  1
  O  O14  1  0.12098100  0.38646700  0.00584400  1
  O  O15  1  0.12551300  0.11239500  0.25000000  1
  O  O16  1  0.36998800  0.63001200  0.50041000  1
  O  O17  1  0.37466700  0.37704400  0.25000000  1
  O  O18  1  0.38646700  0.12098100  0.50584400  1
  O  O19  1  0.37704400  0.37466700  0.75000000  1
  O  O20  1  0.36998800  0.63001200  0.99959000  1
  O  O21  1  0.38646700  0.12098100  0.99415600  1
  O  O22  1  0.36373500  0.87607100  0.25000000  1
  O  O23  1  0.37723200  0.87478400  0.75000000  1
  O  O24  1  0.62276800  0.12521600  0.25000000  1
  O  O25  1  0.63626500  0.12392900  0.75000000  1
  O  O26  1  0.63001200  0.36998800  0.49959000  1
  O  O27  1  0.62295600  0.62533300  0.25000000  1
  O  O28  1  0.62533300  0.62295600  0.75000000  1
  O  O29  1  0.63001200  0.36998800  0.00041000  1
  O  O30  1  0.61353300  0.87901900  0.49415600  1
  O  O31  1  0.61353300  0.87901900  0.00584400  1
loop_
_geom_bond_atom_site_label_1
_geom_bond_atom_site_label_2
_geom_bond_distance
_geom_bond_site_symmetry_2
Li0 O6 2.039567 1_555
Li0 O7 2.039567 1_555
Li0 O28 2.102437 1_555
Li0 O8 2.179909 1_655
Li0 O1 2.184392 1_555
Li0 O0 2.300963 1_555
Li1 O2 2.085258 1_555
Li1 O1 2.085258 1_555
Li1 O6 2.210088 1_555
Li1 O30 2.210088 1_555
Li1 O10 2.281775 1_655
Li1 O3 2.281775 1_565
Li2 O2 2.085258 1_555
Li2 O1 2.085258 1_554
Li2 O31 2.210088 1_555
Li2 O7 2.210088 1_554
Li2 O13 2.281775 1_655
Li2 O5 2.281775 1_564
Li3 O15 2.085258 1_555
Li3 O12 2.085258 1_555
Li3 O11 2.210088 1_555
Li3 O18 2.210088 1_555
Li3 O10 2.281775 1_545
Li3 O3 2.281775 1_455
Li4 O14 2.039567 1_555
Li4 O11 2.039567 1_555
Li4 O17 2.102437 1_555
Li4 O4 2.179909 1_455
Li4 O15 2.184392 1_555
Li4 O9 2.300963 1_555
Li5 O15 2.085258 1_555
Li5 O12 2.085258 1_554
Li5 O21 2.210088 1_554
Li5 O14 2.210088 1_555
Li5 O13 2.281775 1_545
Li5 O5 2.281775 1_454
Li6 O21 2.039567 1_555
Li6 O18 2.039567 1_555
Li6 O19 2.102437 1_555
Li6 O23 2.179909 1_545
Li6 O12 2.184392 1_555
Li6 O25 2.300963 1_555
Li7 O27 2.086918 1_555
Li7 O17 2.086918 1_555
Li7 O20 2.086923 1_554
Li7 O16 2.086923 1_555
Li7 O9 2.190403 1_555
Li7 O22 2.190403 1_555
Li8 O20 2.080050 1_555
Li8 O16 2.080050 1_555
Li8 O19 2.108004 1_555
Li8 O28 2.108004 1_555
Li8 O8 2.173312 1_555
Li8 O23 2.173312 1_555
Li9 O28 2.086918 1_555
Li9 O19 2.086918 1_555
Li9 O26 2.086923 1_555
Li9 O29 2.086923 1_556
Li9 O25 2.190403 1_555
Li9 O0 2.190403 1_555
Li10 O26 2.080050 1_555
Li10 O29 2.080050 1_555
Li10 O17 2.108004 1_555
Li10 O27 2.108004 1_555
Li10 O24 2.173312 1_555
Li10 O4 2.173312 1_555
Li11 O30 2.039567 1_555
Li11 O31 2.039567 1_555
Li11 O27 2.102437 1_555
Li11 O24 2.179909 1_565
Li11 O2 2.184392 1_555
Li11 O22 2.300963 1_555
Fe0 O12 1.991419 1_655
Fe0 O1 1.991419 1_545
Fe0 O5 2.045428 1_555
Fe0 O3 2.045428 1_555
Fe0 O0 2.085039 1_555
Fe0 O25 2.085039 1_555
Fe1 O2 2.081805 1_555
Fe1 O27 2.111164 1_555
Fe1 O7 2.136463 1_554
Fe1 O6 2.136463 1_555
Fe1 O9 2.177319 1_655
Fe1 O4 2.179791 1_555
Fe2 O2 2.122748 1_545
Fe2 O15 2.122748 1_655
Fe2 O5 2.135054 1_554
Fe2 O3 2.135054 1_555
Fe2 O24 2.184058 1_555
Fe2 O4 2.184058 1_555
Fe3 O6 2.023370 1_555
Fe3 O3 2.052888 1_555
Fe3 O0 2.081029 1_555
Fe3 O4 2.083237 1_555
Fe3 O11 2.099836 1_655
Fe3 O26 2.104428 1_555
Fe4 O7 2.023370 1_555
Fe4 O5 2.052888 1_555
Fe4 O0 2.081029 1_555
Fe4 O4 2.083237 1_556
Fe4 O14 2.099836 1_656
Fe4 O29 2.104428 1_556
Fe5 O12 2.081805 1_555
Fe5 O19 2.111164 1_555
Fe5 O14 2.136463 1_556
Fe5 O11 2.136463 1_555
Fe5 O0 2.177319 1_455
Fe5 O8 2.179791 1_555
Fe6 O11 2.023370 1_555
Fe6 O10 2.052888 1_555
Fe6 O9 2.081029 1_555
Fe6 O8 2.083237 1_555
Fe6 O6 2.099836 1_455
Fe6 O16 2.104428 1_555
Fe7 O14 2.023370 1_555
Fe7 O13 2.052888 1_555
Fe7 O9 2.081029 1_555
Fe7 O8 2.083237 1_554
Fe7 O7 2.099836 1_454
Fe7 O20 2.104428 1_554
Fe8 O15 1.991419 1_565
Fe8 O2 1.991419 1_455
Fe8 O13 2.045428 1_555
Fe8 O10 2.045428 1_555
Fe8 O22 2.085039 1_555
Fe8 O9 2.085039 1_555
Fe9 O1 2.122748 1_455
Fe9 O12 2.122748 1_565
Fe9 O13 2.135054 1_556
Fe9 O10 2.135054 1_555
Fe9 O8 2.184058 1_555
Fe9 O23 2.184058 1_555
Fe10 O15 2.081805 1_555
Fe10 O17 2.111164 1_555
Fe10 O21 2.136463 1_554
Fe10 O18 2.136463 1_555
Fe10 O22 2.177319 1_545
Fe10 O24 2.179791 1_555
Fe11 O19 2.081696 1_555
Fe11 O17 2.081696 1_555
Fe11 O16 2.130493 1_555
Fe11 O26 2.130493 1_555
Fe11 O11 2.231920 1_555
Fe11 O18 2.231920 1_555
Fe12 O30 2.023370 1_555
Fe12 O10 2.052888 1_555
Fe12 O22 2.081029 1_555
Fe12 O23 2.083237 1_555
Fe12 O18 2.099836 1_565
Fe12 O16 2.104428 1_555
Fe13 O19 2.081696 1_554
Fe13 O17 2.081696 1_555
Fe13 O20 2.130493 1_554
Fe13 O29 2.130493 1_555
Fe13 O14 2.231920 1_555
Fe13 O21 2.231920 1_554
Fe14 O31 2.023370 1_555
Fe14 O13 2.052888 1_555
Fe14 O22 2.081029 1_555
Fe14 O23 2.083237 1_554
Fe14 O21 2.099836 1_564
Fe14 O20 2.104428 1_554
Fe15 O18 2.023370 1_555
Fe15 O3 2.052888 1_555
Fe15 O25 2.081029 1_555
Fe15 O24 2.083237 1_555
Fe15 O30 2.099836 1_545
Fe15 O26 2.104428 1_555
Fe16 O27 2.081696 1_555
Fe16 O28 2.081696 1_555
Fe16 O16 2.130493 1_555
Fe16 O26 2.130493 1_555
Fe16 O6 2.231920 1_555
Fe16 O30 2.231920 1_555
Fe17 O27 2.081696 1_555
Fe17 O28 2.081696 1_554
Fe17 O20 2.130493 1_554
Fe17 O29 2.130493 1_555
Fe17 O7 2.231920 1_554
Fe17 O31 2.231920 1_555
Fe18 O1 2.081805 1_555
Fe18 O28 2.111164 1_555
Fe18 O31 2.136463 1_556
Fe18 O30 2.136463 1_555
Fe18 O25 2.177319 1_565
Fe18 O23 2.179791 1_555
Fe19 O21 2.023370 1_555
Fe19 O5 2.052888 1_555
Fe19 O25 2.081029 1_555
Fe19 O24 2.083237 1_556
Fe19 O31 2.099836 1_546
Fe19 O29 2.104428 1_556
