# generated using pymatgen
data_KC2N3
_symmetry_space_group_name_H-M   'P 1'
_cell_length_a   6.63263500
_cell_length_b   7.43165500
_cell_length_c   8.44381400
_cell_angle_alpha   90.00000000
_cell_angle_beta   90.00000000
_cell_angle_gamma   90.00000000
_symmetry_Int_Tables_number   1
_chemical_formula_structural   KC2N3
_chemical_formula_sum   'K4 C8 N12'
_cell_volume   416.20787832
_cell_formula_units_Z   4
loop_
 _symmetry_equiv_pos_site_id
 _symmetry_equiv_pos_as_xyz
  1  'x, y, z'
loop_
 _atom_site_type_symbol
 _atom_site_label
 _atom_site_symmetry_multiplicity
 _atom_site_fract_x
 _atom_site_fract_y
 _atom_site_fract_z
 _atom_site_occupancy
  K  K0  1  0.75000000  0.50000000  0.31788400  1
  K  K1  1  0.75000000  0.00000000  0.31788400  1
  K  K2  1  0.25000000  0.50000000  0.68211600  1
  K  K3  1  0.25000000  0.00000000  0.68211600  1
  C  C0  1  0.14327800  0.25000000  0.06322200  1
  C  C1  1  0.76464000  0.25000000  0.68061400  1
  C  C2  1  0.35672200  0.75000000  0.06322200  1
  C  C3  1  0.23536000  0.75000000  0.31938600  1
  C  C4  1  0.26464000  0.25000000  0.31938600  1
  C  C5  1  0.85672300  0.75000000  0.93677800  1
  C  C6  1  0.73536000  0.75000000  0.68061400  1
  C  C7  1  0.64327700  0.25000000  0.93677800  1
  N  N0  1  0.38251000  0.25000000  0.42509800  1
  N  N1  1  0.85478700  0.75000000  0.07652200  1
  N  N2  1  0.38073500  0.75000000  0.21661000  1
  N  N3  1  0.11749000  0.75000000  0.42509800  1
  N  N4  1  0.88073500  0.75000000  0.78339000  1
  N  N5  1  0.14521300  0.25000000  0.92347800  1
  N  N6  1  0.61749000  0.75000000  0.57490200  1
  N  N7  1  0.35478700  0.75000000  0.92347800  1
  N  N8  1  0.88251000  0.25000000  0.57490200  1
  N  N9  1  0.11926500  0.25000000  0.21661000  1
  N  N10  1  0.61926500  0.25000000  0.78339000  1
  N  N11  1  0.64521300  0.25000000  0.07652200  1
loop_
_geom_bond_atom_site_label_1
_geom_bond_atom_site_label_2
_geom_bond_distance
_geom_bond_site_symmetry_2
K0 N1 2.844011 1_555
K0 N11 2.844011 1_555
K0 N6 2.988999 1_555
K0 N8 2.988999 1_555
K0 N9 3.190875 1_655
K0 N2 3.190875 1_555
K0 N0 3.195693 1_555
K0 N3 3.195693 1_655
K1 N1 2.844011 1_545
K1 N11 2.844011 1_555
K1 N6 2.988999 1_545
K1 N8 2.988999 1_555
K1 N9 3.190875 1_655
K1 N2 3.190875 1_545
K1 N0 3.195693 1_555
K1 N3 3.195693 1_645
K2 N7 2.844011 1_555
K2 N5 2.844011 1_555
K2 N3 2.988999 1_555
K2 N0 2.988999 1_555
K2 N10 3.190875 1_555
K2 N4 3.190875 1_455
K2 N8 3.195693 1_455
K2 N6 3.195693 1_555
K3 N7 2.844011 1_545
K3 N5 2.844011 1_555
K3 N3 2.988999 1_545
K3 N0 2.988999 1_555
K3 N10 3.190875 1_555
K3 N4 3.190875 1_445
K3 N8 3.195693 1_455
K3 N6 3.195693 1_545
C0 N5 1.180042 1_554
C0 N9 1.304936 1_555
C1 N8 1.186571 1_555
C1 N10 1.297240 1_555
C2 N7 1.180042 1_554
C2 N2 1.304936 1_555
C3 N3 1.186571 1_555
C3 N2 1.297240 1_555
C4 N0 1.186571 1_555
C4 N9 1.297240 1_555
C5 N1 1.180042 1_556
C5 N4 1.304935 1_555
C6 N6 1.186571 1_555
C6 N4 1.297240 1_555
C7 N11 1.180042 1_556
C7 N10 1.304935 1_555
