# generated using pymatgen
data_CuH8C4O5
_symmetry_space_group_name_H-M   'P 1'
_cell_length_a   7.97846796
_cell_length_b   7.97846796
_cell_length_c   13.94462419
_cell_angle_alpha   68.02758243
_cell_angle_beta   68.02758243
_cell_angle_gamma   66.35535008
_symmetry_Int_Tables_number   1
_chemical_formula_structural   CuH8C4O5
_chemical_formula_sum   'Cu4 H32 C16 O20'
_cell_volume   727.36601907
_cell_formula_units_Z   4
loop_
 _symmetry_equiv_pos_site_id
 _symmetry_equiv_pos_as_xyz
  1  'x, y, z'
loop_
 _atom_site_type_symbol
 _atom_site_label
 _atom_site_symmetry_multiplicity
 _atom_site_fract_x
 _atom_site_fract_y
 _atom_site_fract_z
 _atom_site_occupancy
  Cu  Cu0  1  0.47012600  0.62859300  0.54294500  1
  Cu  Cu1  1  0.37140700  0.52987400  0.95705500  1
  Cu  Cu2  1  0.52987400  0.37140700  0.45705500  1
  Cu  Cu3  1  0.62859300  0.47012600  0.04294500  1
  H  H0  1  0.30141700  0.18296600  0.85136500  1
  H  H1  1  0.81703400  0.69858300  0.64863500  1
  H  H2  1  0.69858300  0.81703400  0.14863500  1
  H  H3  1  0.18296600  0.30141700  0.35136500  1
  H  H4  1  0.25746000  0.04741100  0.79042000  1
  H  H5  1  0.95258900  0.74254000  0.70958000  1
  H  H6  1  0.74254000  0.95258900  0.20958000  1
  H  H7  1  0.04741100  0.25746000  0.29042000  1
  H  H8  1  0.08944500  0.26819900  0.81259000  1
  H  H9  1  0.73180100  0.91055500  0.68741000  1
  H  H10  1  0.91055500  0.73180100  0.18741000  1
  H  H11  1  0.26819900  0.08944500  0.31259000  1
  H  H12  1  0.96739500  0.19259800  0.66993000  1
  H  H13  1  0.80740200  0.03260500  0.83007000  1
  H  H14  1  0.03260500  0.80740200  0.33007000  1
  H  H15  1  0.19259800  0.96739500  0.16993000  1
  H  H16  1  0.05664200  0.06979700  0.56768800  1
  H  H17  1  0.93020300  0.94335800  0.93231200  1
  H  H18  1  0.94335800  0.93020300  0.43231200  1
  H  H19  1  0.06979700  0.05664200  0.06768800  1
  H  H20  1  0.09713600  0.29017000  0.54091500  1
  H  H21  1  0.70983100  0.90286400  0.95908500  1
  H  H22  1  0.90286400  0.70983100  0.45908500  1
  H  H23  1  0.29016900  0.09713600  0.04091500  1
  H  H24  1  0.45384700  0.77301000  0.70031700  1
  H  H25  1  0.22699000  0.54615300  0.79968300  1
  H  H26  1  0.54615300  0.22699000  0.29968300  1
  H  H27  1  0.77301000  0.45384700  0.20031700  1
  H  H28  1  0.40989000  0.96518000  0.61162500  1
  H  H29  1  0.03482000  0.59011000  0.88837500  1
  H  H30  1  0.59011000  0.03482000  0.38837500  1
  H  H31  1  0.96518000  0.40989000  0.11162500  1
  C  C0  1  0.33512100  0.29940800  0.68287800  1
  C  C1  1  0.70059200  0.66487900  0.81712200  1
  C  C2  1  0.66487900  0.70059200  0.31712200  1
  C  C3  1  0.29940800  0.33512100  0.18287800  1
  C  C4  1  0.24122000  0.19020900  0.79035400  1
  C  C5  1  0.80979100  0.75878000  0.70964600  1
  C  C6  1  0.75878000  0.80979100  0.20964600  1
  C  C7  1  0.19020900  0.24122000  0.29035400  1
  C  C8  1  0.81378800  0.31848400  0.55057200  1
  C  C9  1  0.68151600  0.18621200  0.94942800  1
  C  C10  1  0.18621200  0.68151600  0.44942800  1
  C  C11  1  0.31848400  0.81378800  0.05057200  1
  C  C12  1  0.99516000  0.20909800  0.58416000  1
  C  C13  1  0.79090200  0.00484000  0.91584000  1
  C  C14  1  0.00484000  0.79090200  0.41584000  1
  C  C15  1  0.20909800  0.99516000  0.08416000  1
  O  O0  1  0.40274300  0.22702300  0.60335400  1
  O  O1  1  0.77297700  0.59725700  0.89664600  1
  O  O2  1  0.59725700  0.77297700  0.39664600  1
  O  O3  1  0.22702300  0.40274300  0.10335400  1
  O  O4  1  0.34071500  0.46065800  0.67803100  1
  O  O5  1  0.53934200  0.65928500  0.82196900  1
  O  O6  1  0.65928500  0.53934200  0.32196900  1
  O  O7  1  0.46065800  0.34071500  0.17803100  1
  O  O8  1  0.76784100  0.24542900  0.50034000  1
  O  O9  1  0.75457100  0.23215900  0.99966000  1
  O  O10  1  0.23215900  0.75457100  0.49966000  1
  O  O11  1  0.24542900  0.76784100  0.00034000  1
  O  O12  1  0.71880800  0.47697800  0.57425100  1
  O  O13  1  0.52302200  0.28119200  0.92574900  1
  O  O14  1  0.28119200  0.52302200  0.42574900  1
  O  O15  1  0.47697800  0.71880800  0.07425100  1
  O  O16  1  0.41035600  0.83288600  0.63415400  1
  O  O17  1  0.16711400  0.58964400  0.86584600  1
  O  O18  1  0.58964400  0.16711400  0.36584600  1
  O  O19  1  0.83288600  0.41035600  0.13415400  1
loop_
_geom_bond_atom_site_label_1
_geom_bond_atom_site_label_2
_geom_bond_distance
_geom_bond_site_symmetry_2
Cu0 O10 1.962694 1_555
Cu0 O12 1.979477 1_555
Cu0 O2 2.036644 1_555
Cu0 O4 2.043337 1_555
Cu0 O16 2.230646 1_555
Cu1 O11 1.962694 1_556
Cu1 O13 1.979477 1_555
Cu1 O3 2.036644 1_556
Cu1 O5 2.043337 1_555
Cu1 O17 2.230646 1_555
Cu2 O8 1.962694 1_555
Cu2 O14 1.979477 1_555
Cu2 O0 2.036644 1_555
Cu2 O6 2.043337 1_555
Cu2 O18 2.230646 1_555
Cu3 O9 1.962694 1_554
Cu3 O15 1.979477 1_555
Cu3 O1 2.036644 1_554
Cu3 O7 2.043337 1_555
Cu3 O19 2.230646 1_555
H24 O16 0.988242 1_555
H25 O17 0.988242 1_555
H26 O18 0.988242 1_555
H27 O19 0.988242 1_555
H28 O16 0.981012 1_555
H29 O17 0.981012 1_555
H30 O18 0.981012 1_555
H31 O19 0.981012 1_555
C0 O0 1.279042 1_555
C0 O4 1.280798 1_555
C1 O1 1.279042 1_555
C1 O5 1.280798 1_555
C2 O2 1.279042 1_555
C2 O6 1.280798 1_555
C3 O3 1.279042 1_555
C3 O7 1.280798 1_555
C4 H4 1.093485 1_555
C4 H0 1.097518 1_555
C4 H8 1.099406 1_555
C5 H5 1.093485 1_555
C5 H1 1.097518 1_555
C5 H9 1.099406 1_555
C6 H6 1.093485 1_555
C6 H2 1.097518 1_555
C6 H10 1.099406 1_555
C7 H7 1.093485 1_555
C7 H3 1.097518 1_555
C7 H11 1.099406 1_555
C8 O8 1.278218 1_555
C8 O12 1.280198 1_555
C9 O9 1.278218 1_555
C9 O13 1.280198 1_555
C10 O10 1.278218 1_555
C10 O14 1.280198 1_555
C11 O11 1.278218 1_555
C11 O15 1.280198 1_555
C12 H16 1.094544 1_655
C12 H12 1.097358 1_555
C12 H20 1.098679 1_655
C13 H17 1.094544 1_545
C13 H13 1.097358 1_555
C13 H21 1.098674 1_545
C14 H18 1.094544 1_455
C14 H14 1.097358 1_555
C14 H22 1.098674 1_455
C15 H19 1.094544 1_565
C15 H15 1.097358 1_555
C15 H23 1.098674 1_565
