# generated using pymatgen
data_Ti3Tl3(PO4)5
_symmetry_space_group_name_H-M   'P 1'
_cell_length_a   6.40304600
_cell_length_b   14.94300500
_cell_length_c   18.52175000
_cell_angle_alpha   90.00000000
_cell_angle_beta   90.00000000
_cell_angle_gamma   90.00000000
_symmetry_Int_Tables_number   1
_chemical_formula_structural   Ti3Tl3(PO4)5
_chemical_formula_sum   'Ti12 Tl12 P20 O80'
_cell_volume   1772.17490155
_cell_formula_units_Z   4
loop_
 _symmetry_equiv_pos_site_id
 _symmetry_equiv_pos_as_xyz
  1  'x, y, z'
loop_
 _atom_site_type_symbol
 _atom_site_label
 _atom_site_symmetry_multiplicity
 _atom_site_fract_x
 _atom_site_fract_y
 _atom_site_fract_z
 _atom_site_occupancy
  Ti  Ti0  1  0.74414500  0.37752300  0.54374200  1
  Ti  Ti1  1  0.25585500  0.37752300  0.04374200  1
  Ti  Ti2  1  0.24684000  0.74788800  0.14735700  1
  Ti  Ti3  1  0.75316000  0.74788800  0.64735700  1
  Ti  Ti4  1  0.74422700  0.63962100  0.94840900  1
  Ti  Ti5  1  0.25577300  0.13962100  0.05159100  1
  Ti  Ti6  1  0.25585500  0.87752300  0.45625800  1
  Ti  Ti7  1  0.24684000  0.24788800  0.35264300  1
  Ti  Ti8  1  0.74414500  0.87752300  0.95625800  1
  Ti  Ti9  1  0.25577300  0.63962100  0.44840900  1
  Ti  Ti10  1  0.74422700  0.13962100  0.55159100  1
  Ti  Ti11  1  0.75316000  0.24788800  0.85264300  1
  Tl  Tl0  1  0.85483600  0.47556000  0.34496600  1
  Tl  Tl1  1  0.14377000  0.02722400  0.85065200  1
  Tl  Tl2  1  0.85623000  0.52722400  0.14934800  1
  Tl  Tl3  1  0.82772600  0.24955300  0.17766400  1
  Tl  Tl4  1  0.82772600  0.74955300  0.32233600  1
  Tl  Tl5  1  0.14516400  0.97556000  0.65503400  1
  Tl  Tl6  1  0.85483600  0.97556000  0.15503400  1
  Tl  Tl7  1  0.14516400  0.47556000  0.84496600  1
  Tl  Tl8  1  0.85623000  0.02722400  0.35065200  1
  Tl  Tl9  1  0.14377000  0.52722400  0.64934800  1
  Tl  Tl10  1  0.17227400  0.24955300  0.67766400  1
  Tl  Tl11  1  0.17227400  0.74955300  0.82233600  1
  P  P0  1  0.64299000  0.39991400  0.72184900  1
  P  P1  1  0.25485200  0.75152300  0.60338000  1
  P  P2  1  0.64299000  0.89991400  0.77815100  1
  P  P3  1  0.64439900  0.59167800  0.77312300  1
  P  P4  1  0.35701000  0.89991400  0.27815100  1
  P  P5  1  0.75326900  0.10991500  0.00303600  1
  P  P6  1  0.25485200  0.25152300  0.89662000  1
  P  P7  1  0.64439900  0.09167800  0.72687700  1
  P  P8  1  0.35560100  0.09167800  0.22687700  1
  P  P9  1  0.74514800  0.75152300  0.10338000  1
  P  P10  1  0.74514800  0.25152300  0.39662000  1
  P  P11  1  0.35560100  0.59167800  0.27312300  1
  P  P12  1  0.24641400  0.40618000  0.48919100  1
  P  P13  1  0.75358600  0.40618000  0.98919100  1
  P  P14  1  0.24641400  0.90618000  0.01080900  1
  P  P15  1  0.75326900  0.60991500  0.49696400  1
  P  P16  1  0.35701000  0.39991400  0.22184900  1
  P  P17  1  0.24673100  0.60991500  0.99696400  1
  P  P18  1  0.75358600  0.90618000  0.51080900  1
  P  P19  1  0.24673100  0.10991500  0.50303600  1
  O  O0  1  0.23814300  0.85123800  0.08227800  1
  O  O1  1  0.44069800  0.13490300  0.54865000  1
  O  O2  1  0.06522500  0.24829400  0.84468000  1
  O  O3  1  0.75340200  0.51008300  0.51519900  1
  O  O4  1  0.75496400  0.82415500  0.73669800  1
  O  O5  1  0.55930200  0.13490300  0.04865000  1
  O  O6  1  0.05578400  0.63356600  0.94904400  1
  O  O7  1  0.75238300  0.11731400  0.65554600  1
  O  O8  1  0.23997400  0.66709400  0.06674000  1
  O  O9  1  0.24698700  0.50630700  0.47075700  1
  O  O10  1  0.05624200  0.38323800  0.53805000  1
  O  O11  1  0.75769400  0.13958100  0.78934700  1
  O  O12  1  0.59052800  0.59875800  0.27267000  1
  O  O13  1  0.93477500  0.24829400  0.34468000  1
  O  O14  1  0.74970800  0.34032600  0.43931700  1
  O  O15  1  0.05624200  0.88323800  0.96195000  1
  O  O16  1  0.28274700  0.48751400  0.26726600  1
  O  O17  1  0.25050200  0.26044300  0.06900400  1
  O  O18  1  0.24230600  0.63958100  0.21065300  1
  O  O19  1  0.76185700  0.85123800  0.58227800  1
  O  O20  1  0.44069800  0.63490300  0.95135000  1
  O  O21  1  0.25029200  0.34032600  0.93931700  1
  O  O22  1  0.55930200  0.63490300  0.45135000  1
  O  O23  1  0.54668600  0.74948100  0.15093200  1
  O  O24  1  0.94421600  0.13356600  0.05095600  1
  O  O25  1  0.75496400  0.32415500  0.76330200  1
  O  O26  1  0.24659800  0.01008300  0.48480100  1
  O  O27  1  0.25200100  0.66763600  0.55436300  1
  O  O28  1  0.25029200  0.84032600  0.56068300  1
  O  O29  1  0.74799900  0.16763600  0.44563700  1
  O  O30  1  0.75238300  0.61731400  0.84445400  1
  O  O31  1  0.76185700  0.35123800  0.91772200  1
  O  O32  1  0.71725300  0.98751400  0.73273400  1
  O  O33  1  0.59052800  0.09875800  0.22733000  1
  O  O34  1  0.74949800  0.76044300  0.93099600  1
  O  O35  1  0.28274700  0.98751400  0.23273400  1
  O  O36  1  0.24230600  0.13958100  0.28934700  1
  O  O37  1  0.24761700  0.11731400  0.15554600  1
  O  O38  1  0.25050200  0.76044300  0.43099600  1
  O  O39  1  0.25315600  0.41362000  0.14719500  1
  O  O40  1  0.25200100  0.16763600  0.94563700  1
  O  O41  1  0.54668600  0.24948100  0.34906800  1
  O  O42  1  0.75769400  0.63958100  0.71065300  1
  O  O43  1  0.93477500  0.74829400  0.15532000  1
  O  O44  1  0.75301300  0.00630700  0.52924300  1
  O  O45  1  0.05578400  0.13356600  0.55095600  1
  O  O46  1  0.44090900  0.38151100  0.53476200  1
  O  O47  1  0.40947200  0.59875800  0.77267000  1
  O  O48  1  0.74684400  0.41362000  0.64719500  1
  O  O49  1  0.23814300  0.35123800  0.41772200  1
  O  O50  1  0.24503600  0.32415500  0.26330200  1
  O  O51  1  0.25315600  0.91362000  0.35280500  1
  O  O52  1  0.94375800  0.38323800  0.03805000  1
  O  O53  1  0.24761700  0.61731400  0.34445400  1
  O  O54  1  0.23997400  0.16709400  0.43326000  1
  O  O55  1  0.75340200  0.01008300  0.98480100  1
  O  O56  1  0.74684400  0.91362000  0.85280500  1
  O  O57  1  0.24659800  0.51008300  0.01519900  1
  O  O58  1  0.74799900  0.66763600  0.05436300  1
  O  O59  1  0.40947200  0.09875800  0.72733000  1
  O  O60  1  0.94375800  0.88323800  0.46195000  1
  O  O61  1  0.24503600  0.82415500  0.23669800  1
  O  O62  1  0.59230500  0.39488900  0.22003200  1
  O  O63  1  0.06522500  0.74829400  0.65532000  1
  O  O64  1  0.71725300  0.48751400  0.76726600  1
  O  O65  1  0.75301300  0.50630700  0.97075700  1
  O  O66  1  0.44090900  0.88151100  0.96523800  1
  O  O67  1  0.55909100  0.38151100  0.03476200  1
  O  O68  1  0.40769500  0.39488900  0.72003200  1
  O  O69  1  0.45331400  0.74948100  0.65093200  1
  O  O70  1  0.74949800  0.26044300  0.56900400  1
  O  O71  1  0.24698700  0.00630700  0.02924300  1
  O  O72  1  0.76002600  0.66709400  0.56674000  1
  O  O73  1  0.59230500  0.89488900  0.27996800  1
  O  O74  1  0.94421600  0.63356600  0.44904400  1
  O  O75  1  0.74970800  0.84032600  0.06068300  1
  O  O76  1  0.40769500  0.89488900  0.77996800  1
  O  O77  1  0.76002600  0.16709400  0.93326000  1
  O  O78  1  0.55909100  0.88151100  0.46523800  1
  O  O79  1  0.45331400  0.24948100  0.84906800  1
loop_
_geom_bond_atom_site_label_1
_geom_bond_atom_site_label_2
_geom_bond_distance
_geom_bond_site_symmetry_2
O0 P14 1.558559 1_555
O0 Ti2 1.959868 1_555
O1 P19 1.547809 1_555
O1 Ti10 1.945551 1_555
O2 P6 1.549861 1_555
O2 Ti11 2.003612 1_455
O3 P15 1.529546 1_555
O3 Ti0 2.051036 1_555
O4 P2 1.544383 1_555
O4 Ti3 2.009268 1_555
O5 P5 1.547809 1_555
O5 Ti5 1.945551 1_555
O6 P17 1.551620 1_555
O6 Ti4 1.996999 1_455
O7 P7 1.539585 1_555
O7 Ti10 1.954767 1_555
O8 P17 1.549886 1_554
O8 Ti2 1.920695 1_555
O9 P12 1.534665 1_555
O9 Ti9 2.035438 1_555
O10 P12 1.555382 1_555
O10 Ti0 2.002972 1_455
O11 P7 1.541888 1_555
O11 Ti11 1.998644 1_555
O12 P11 1.507988 1_555
O12 Tl0 2.836596 1_555
O12 Tl4 2.868874 1_555
O13 P10 1.549861 1_555
O13 Ti7 2.003612 1_655
O14 P10 1.545037 1_555
O14 Ti0 2.012733 1_555
O14 Tl0 2.755118 1_555
O15 P14 1.555382 1_556
O15 Ti8 2.002972 1_455
O16 P16 1.627031 1_555
O16 P11 1.628540 1_555
O17 Ti1 1.811338 1_555
O17 Ti5 1.834335 1_555
O18 P11 1.541888 1_555
O18 Ti2 1.998644 1_555
O19 P18 1.558559 1_555
O19 Ti3 1.959868 1_555
O20 P17 1.547809 1_555
O20 Ti4 1.945551 1_555
O21 P6 1.545037 1_555
O21 Ti1 2.012733 1_556
O21 Tl7 2.755118 1_555
O22 P15 1.547809 1_555
O22 Ti9 1.945551 1_555
O23 P9 1.546441 1_555
O23 Ti2 1.921217 1_555
O24 P5 1.551620 1_555
O24 Ti5 1.996999 1_655
O25 P0 1.544383 1_555
O25 Ti11 2.009268 1_555
O26 P19 1.529546 1_555
O26 Ti6 2.051036 1_545
O27 P1 1.547870 1_555
O27 Ti9 2.006753 1_555
O27 Tl9 2.824483 1_555
O28 P1 1.545037 1_555
O28 Ti6 2.012733 1_555
O28 Tl5 2.755118 1_555
O29 P10 1.547870 1_555
O29 Ti10 2.006753 1_555
O29 Tl8 2.824483 1_555
O30 P3 1.539585 1_555
O30 Ti4 1.954767 1_555
O31 P13 1.558559 1_555
O31 Ti11 1.959868 1_555
O32 P2 1.627031 1_555
O32 P7 1.628540 1_565
O33 P8 1.507988 1_555
O33 Tl6 2.836596 1_545
O33 Tl3 2.868874 1_555
O34 Ti8 1.811338 1_555
O34 Ti4 1.834335 1_555
O35 P4 1.627031 1_555
O35 P8 1.628540 1_565
O36 P8 1.541888 1_555
O36 Ti7 1.998644 1_555
O37 P8 1.539585 1_555
O37 Ti5 1.954767 1_555
O38 Ti6 1.811338 1_555
O38 Ti9 1.834335 1_555
O39 P16 1.547924 1_555
O39 Ti1 1.990680 1_555
O40 P6 1.547870 1_555
O40 Ti5 2.006753 1_556
O40 Tl1 2.824483 1_555
O41 P10 1.546441 1_555
O41 Ti7 1.921217 1_555
O42 P3 1.541888 1_555
O42 Ti3 1.998644 1_555
O43 P9 1.549861 1_555
O43 Ti2 2.003612 1_655
O44 P18 1.534665 1_545
O44 Ti10 2.035438 1_555
O45 P19 1.551620 1_555
O45 Ti10 1.996999 1_455
O46 P12 1.548947 1_555
O46 Ti0 1.949656 1_555
O47 P3 1.507988 1_555
O47 Tl7 2.836596 1_555
O47 Tl11 2.868874 1_555
O48 P0 1.547924 1_555
O48 Ti0 1.990680 1_555
O49 P12 1.558559 1_555
O49 Ti7 1.959868 1_555
O50 P16 1.544383 1_555
O50 Ti7 2.009268 1_555
O51 P4 1.547924 1_555
O51 Ti6 1.990680 1_555
O52 P13 1.555382 1_554
O52 Ti1 2.002972 1_655
O53 P11 1.539585 1_555
O53 Ti9 1.954767 1_555
O54 P19 1.549886 1_555
O54 Ti7 1.920695 1_555
O55 P5 1.529546 1_556
O55 Ti8 2.051036 1_545
O56 P2 1.547924 1_555
O56 Ti8 1.990680 1_555
O57 P17 1.529546 1_554
O57 Ti1 2.051036 1_555
O58 P9 1.547870 1_555
O58 Ti4 2.006753 1_554
O58 Tl2 2.824483 1_555
O59 P7 1.507988 1_555
O59 Tl5 2.836596 1_545
O59 Tl10 2.868874 1_555
O60 P18 1.555382 1_555
O60 Ti6 2.002972 1_655
O61 P4 1.544383 1_555
O61 Ti2 2.009268 1_555
O62 P16 1.508850 1_555
O62 Tl3 2.757647 1_555
O62 Tl2 2.912089 1_555
O63 P1 1.549861 1_555
O63 Ti3 2.003612 1_455
O64 P0 1.627031 1_555
O64 P3 1.628540 1_555
O65 P13 1.534665 1_555
O65 Ti4 2.035438 1_555
O66 P14 1.548947 1_556
O66 Ti8 1.949656 1_555
O67 P13 1.548947 1_554
O67 Ti1 1.949656 1_555
O68 P0 1.508850 1_555
O68 Tl10 2.757647 1_555
O68 Tl9 2.912089 1_555
O69 P1 1.546441 1_555
O69 Ti3 1.921217 1_555
O70 Ti0 1.811338 1_555
O70 Ti10 1.834335 1_555
O71 P14 1.534665 1_545
O71 Ti5 2.035438 1_555
O72 P15 1.549886 1_555
O72 Ti3 1.920695 1_555
O73 P4 1.508850 1_555
O73 Tl4 2.757647 1_555
O73 Tl8 2.912089 1_565
O74 P15 1.551620 1_555
O74 Ti9 1.996999 1_655
O75 P9 1.545037 1_555
O75 Ti8 2.012733 1_554
O75 Tl6 2.755118 1_555
O76 P2 1.508850 1_555
O76 Tl11 2.757647 1_555
O76 Tl1 2.912089 1_565
O77 P5 1.549886 1_556
O77 Ti11 1.920695 1_555
O78 P18 1.548947 1_555
O78 Ti6 1.949656 1_555
O79 P6 1.546441 1_555
O79 Ti11 1.921217 1_555
