# generated using pymatgen
data_Nb2Te4O13
_symmetry_space_group_name_H-M   'P 1'
_cell_length_a   7.71848800
_cell_length_b   12.96527888
_cell_length_c   13.00440468
_cell_angle_alpha   116.19756057
_cell_angle_beta   90.28873582
_cell_angle_gamma   90.20486435
_symmetry_Int_Tables_number   1
_chemical_formula_structural   Nb2Te4O13
_chemical_formula_sum   'Nb8 Te16 O52'
_cell_volume   1167.66052636
_cell_formula_units_Z   4
loop_
 _symmetry_equiv_pos_site_id
 _symmetry_equiv_pos_as_xyz
  1  'x, y, z'
loop_
 _atom_site_type_symbol
 _atom_site_label
 _atom_site_symmetry_multiplicity
 _atom_site_fract_x
 _atom_site_fract_y
 _atom_site_fract_z
 _atom_site_occupancy
  Nb  Nb0  1  0.64452200  0.79810600  0.96275800  1
  Nb  Nb1  1  0.10568100  0.29646700  0.47295700  1
  Nb  Nb2  1  0.85637000  0.20898300  0.04859500  1
  Nb  Nb3  1  0.35547800  0.20189400  0.03724200  1
  Nb  Nb4  1  0.60428200  0.28101700  0.46427200  1
  Nb  Nb5  1  0.14363000  0.79101700  0.95140500  1
  Nb  Nb6  1  0.89431900  0.70353300  0.52704300  1
  Nb  Nb7  1  0.39571800  0.71898300  0.53572800  1
  Te  Te0  1  0.44648600  0.76588700  0.28892300  1
  Te  Te1  1  0.69927400  0.54778900  0.01134300  1
  Te  Te2  1  0.87987200  0.05117500  0.24028100  1
  Te  Te3  1  0.55351400  0.23411300  0.71107700  1
  Te  Te4  1  0.62176600  0.46813400  0.29926800  1
  Te  Te5  1  0.97081400  0.26840900  0.80952900  1
  Te  Te6  1  0.37823400  0.53186600  0.70073200  1
  Te  Te7  1  0.21153000  0.05272600  0.52034800  1
  Te  Te8  1  0.12012800  0.94882500  0.75971900  1
  Te  Te9  1  0.37171800  0.01500200  0.19996400  1
  Te  Te10  1  0.02918600  0.73159100  0.19047100  1
  Te  Te11  1  0.62828200  0.98499800  0.80003600  1
  Te  Te12  1  0.12474100  0.44808300  0.27692800  1
  Te  Te13  1  0.78847000  0.94727400  0.47965200  1
  Te  Te14  1  0.30072600  0.45221100  0.98865700  1
  Te  Te15  1  0.87525900  0.55191700  0.72307200  1
  O  O0  1  0.68959500  0.14213800  0.32892000  1
  O  O1  1  0.54026300  0.51220300  0.10267000  1
  O  O2  1  0.38611400  0.12290400  0.13287200  1
  O  O3  1  0.18718900  0.43583400  0.61468200  1
  O  O4  1  0.06926200  0.14861200  0.32445800  1
  O  O5  1  0.30836400  0.36112300  0.17565600  1
  O  O6  1  0.87924900  0.79469700  0.43361100  1
  O  O7  1  0.56251700  0.92905700  0.10927200  1
  O  O8  1  0.37261500  0.24497100  0.43625400  1
  O  O9  1  0.10530700  0.69157700  0.03798900  1
  O  O10  1  0.89469300  0.30842300  0.96201100  1
  O  O11  1  0.39299900  0.61715000  0.61449200  1
  O  O12  1  0.12398200  0.16818700  0.00535100  1
  O  O13  1  0.93073800  0.85138800  0.67554200  1
  O  O14  1  0.37456700  0.75388900  0.92763600  1
  O  O15  1  0.63320500  0.70408700  0.05912700  1
  O  O16  1  0.93600400  0.35221000  0.19015700  1
  O  O17  1  0.81281100  0.56416600  0.38531800  1
  O  O18  1  0.12469700  0.40158200  0.85383200  1
  O  O19  1  0.36679500  0.29591300  0.94087300  1
  O  O20  1  0.43748300  0.07094300  0.89072800  1
  O  O21  1  0.13081000  0.88082500  0.86376000  1
  O  O22  1  0.12590600  0.67134100  0.49890000  1
  O  O23  1  0.45973700  0.48779700  0.89733000  1
  O  O24  1  0.30376400  0.86301400  0.25151600  1
  O  O25  1  0.87409400  0.32865900  0.50110000  1
  O  O26  1  0.63545900  0.19022500  0.55720300  1
  O  O27  1  0.69163600  0.63887700  0.82434400  1
  O  O28  1  0.79108300  0.34425000  0.76989800  1
  O  O29  1  0.87601800  0.83181300  0.99464900  1
  O  O30  1  0.82102600  0.06402100  0.89777200  1
  O  O31  1  0.62391900  0.89906700  0.35120600  1
  O  O32  1  0.44240800  0.57691900  0.37889900  1
  O  O33  1  0.94706300  0.99453200  0.39815300  1
  O  O34  1  0.86919000  0.11917500  0.13624000  1
  O  O35  1  0.14714100  0.38276200  0.38008500  1
  O  O36  1  0.61388600  0.87709600  0.86712800  1
  O  O37  1  0.31040500  0.85786200  0.67108000  1
  O  O38  1  0.20891700  0.65575000  0.23010200  1
  O  O39  1  0.55759200  0.42308100  0.62110100  1
  O  O40  1  0.62543300  0.24611100  0.07236400  1
  O  O41  1  0.36454100  0.80977500  0.44279700  1
  O  O42  1  0.60700100  0.38285000  0.38550800  1
  O  O43  1  0.06399600  0.64779000  0.80984300  1
  O  O44  1  0.12075100  0.20530300  0.56638900  1
  O  O45  1  0.17897400  0.93597900  0.10222800  1
  O  O46  1  0.37608100  0.10093300  0.64879400  1
  O  O47  1  0.87530300  0.59841800  0.14616800  1
  O  O48  1  0.62738500  0.75502900  0.56374600  1
  O  O49  1  0.85285900  0.61723800  0.61991500  1
  O  O50  1  0.69623600  0.13698600  0.74848400  1
  O  O51  1  0.05293700  0.00546800  0.60184700  1
loop_
_geom_bond_atom_site_label_1
_geom_bond_atom_site_label_2
_geom_bond_distance
_geom_bond_site_symmetry_2
Nb0 O29 1.839172 1_555
Nb0 O36 1.942835 1_555
Nb0 O7 2.019188 1_556
Nb0 O27 2.089293 1_555
Nb0 O15 2.100780 1_556
Nb0 O14 2.151632 1_555
Nb1 O25 1.838577 1_455
Nb1 O35 2.001818 1_555
Nb1 O3 2.024204 1_555
Nb1 O44 2.038242 1_555
Nb1 O4 2.050664 1_555
Nb1 O8 2.157988 1_555
Nb2 O40 1.839791 1_555
Nb2 O34 1.958602 1_555
Nb2 O16 2.043832 1_555
Nb2 O30 2.046933 1_554
Nb2 O10 2.073618 1_554
Nb2 O12 2.149290 1_655
Nb3 O12 1.839172 1_555
Nb3 O2 1.942835 1_555
Nb3 O20 2.019188 1_554
Nb3 O5 2.089293 1_555
Nb3 O19 2.100780 1_554
Nb3 O40 2.151632 1_555
Nb4 O8 1.840013 1_555
Nb4 O42 1.996701 1_555
Nb4 O0 1.998949 1_555
Nb4 O26 2.039419 1_555
Nb4 O39 2.092201 1_555
Nb4 O25 2.160426 1_555
Nb5 O14 1.839791 1_555
Nb5 O21 1.958602 1_555
Nb5 O43 2.043832 1_555
Nb5 O45 2.046933 1_556
Nb5 O9 2.073618 1_556
Nb5 O29 2.149290 1_455
Nb6 O22 1.838577 1_655
Nb6 O49 2.001818 1_555
Nb6 O17 2.024204 1_555
Nb6 O6 2.038242 1_555
Nb6 O13 2.050664 1_555
Nb6 O48 2.157988 1_555
Nb7 O48 1.840013 1_555
Nb7 O11 1.996701 1_555
Nb7 O37 1.998949 1_555
Nb7 O41 2.039419 1_555
Nb7 O32 2.092201 1_555
Nb7 O22 2.160426 1_555
O0 Te2 1.925015 1_555
O1 Te1 1.903727 1_555
O1 Te14 2.272763 1_554
O2 Te9 1.951488 1_555
O3 Te6 1.927926 1_555
O4 Te2 1.918530 1_455
O5 Te12 1.932238 1_555
O6 Te13 1.931604 1_555
O7 Te9 1.915806 1_565
O9 Te10 1.911022 1_555
O10 Te5 1.911022 1_555
O11 Te6 1.894383 1_555
O13 Te8 1.918530 1_655
O15 Te1 1.910874 1_555
O16 Te12 1.916406 1_655
O17 Te4 1.927926 1_555
O18 Te5 1.955511 1_455
O18 Te14 2.074717 1_555
O19 Te14 1.910874 1_555
O20 Te11 1.915806 1_545
O21 Te8 1.915013 1_555
O23 Te14 1.903727 1_555
O23 Te1 2.272763 1_556
O24 Te0 1.892440 1_555
O24 Te9 2.402135 1_565
O24 Te10 2.605387 1_555
O26 Te3 1.933386 1_555
O27 Te15 1.932238 1_555
O28 Te5 1.899198 1_555
O28 Te3 2.233665 1_555
O30 Te11 1.923189 1_545
O31 Te13 1.960874 1_555
O31 Te0 2.061605 1_555
O32 Te4 1.927948 1_555
O33 Te13 1.891608 1_555
O33 Te7 2.481726 1_665
O33 Te2 2.519216 1_565
O34 Te2 1.915013 1_555
O35 Te12 1.883767 1_555
O36 Te11 1.951488 1_555
O37 Te8 1.925015 1_555
O38 Te10 1.899198 1_555
O38 Te0 2.233665 1_555
O39 Te6 1.927948 1_555
O41 Te0 1.933386 1_555
O42 Te4 1.894383 1_555
O43 Te15 1.916406 1_455
O44 Te7 1.931604 1_555
O45 Te9 1.923189 1_565
O46 Te7 1.960874 1_555
O46 Te3 2.061605 1_555
O47 Te10 1.955511 1_655
O47 Te1 2.074717 1_555
O49 Te15 1.883767 1_555
O50 Te3 1.892440 1_555
O50 Te11 2.402135 1_545
O50 Te5 2.605387 1_555
O51 Te7 1.891608 1_555
O51 Te13 2.481726 1_445
O51 Te8 2.519216 1_545
