# generated using pymatgen
data_AlBPbO4
_symmetry_space_group_name_H-M   'P 1'
_cell_length_a   7.03963411
_cell_length_b   9.39494297
_cell_length_c   9.82994569
_cell_angle_alpha   90.00000000
_cell_angle_beta   90.00000000
_cell_angle_gamma   90.00000000
_symmetry_Int_Tables_number   1
_chemical_formula_structural   AlBPbO4
_chemical_formula_sum   'Al8 B8 Pb8 O32'
_cell_volume   650.12273466
_cell_formula_units_Z   8
loop_
 _symmetry_equiv_pos_site_id
 _symmetry_equiv_pos_as_xyz
  1  'x, y, z'
loop_
 _atom_site_type_symbol
 _atom_site_label
 _atom_site_symmetry_multiplicity
 _atom_site_fract_x
 _atom_site_fract_y
 _atom_site_fract_z
 _atom_site_occupancy
  Al  Al0  1  0.50000000  0.00000000  0.50000000  1
  Al  Al1  1  0.00000000  0.75000000  0.83424535  1
  Al  Al2  1  0.00000000  0.25000000  0.16575465  1
  Al  Al3  1  0.50000000  0.75000000  0.33424535  1
  Al  Al4  1  0.00000000  0.00000000  -0.00000000  1
  Al  Al5  1  0.50000000  0.25000000  0.66575465  1
  Al  Al6  1  0.50000000  0.50000000  0.50000000  1
  Al  Al7  1  0.00000000  0.50000000  -0.00000000  1
  B  B0  1  0.77828109  0.25270759  0.90584892  1
  B  B1  1  0.72171891  0.25270759  0.40584892  1
  B  B2  1  0.72171891  0.75270759  0.59415108  1
  B  B3  1  0.77828109  0.75270759  0.09415108  1
  B  B4  1  0.22171891  0.24729241  0.90584892  1
  B  B5  1  0.22171891  0.74729241  0.09415108  1
  B  B6  1  0.27828109  0.74729241  0.59415108  1
  B  B7  1  0.27828109  0.24729241  0.40584892  1
  Pb  Pb0  1  0.56931668  0.54926200  0.83002095  1
  Pb  Pb1  1  0.43068332  0.45073800  0.16997905  1
  Pb  Pb2  1  0.43068332  0.95073800  0.83002095  1
  Pb  Pb3  1  0.93068332  0.54926200  0.33002095  1
  Pb  Pb4  1  0.56931668  0.04926200  0.16997905  1
  Pb  Pb5  1  0.06931668  0.45073800  0.66997905  1
  Pb  Pb6  1  0.93068332  0.04926200  0.66997905  1
  Pb  Pb7  1  0.06931668  0.95073800  0.33002095  1
  O  O0  1  0.33243564  0.88717580  0.60869297  1
  O  O1  1  0.67120509  0.31509982  0.80485101  1
  O  O2  1  0.83243564  0.11282420  0.89130703  1
  O  O3  1  0.66756436  0.11282420  0.39130703  1
  O  O4  1  0.83641629  0.83017751  0.98266529  1
  O  O5  1  0.66756436  0.61282420  0.60869297  1
  O  O6  1  0.33243564  0.38717580  0.39130703  1
  O  O7  1  0.39932046  0.92914937  0.34314420  1
  O  O8  1  0.89932046  0.07085063  0.15685580  1
  O  O9  1  0.83243564  0.61282420  0.10869297  1
  O  O10  1  0.82879491  0.31509982  0.30485101  1
  O  O11  1  0.10067954  0.92914937  0.84314420  1
  O  O12  1  0.66358371  0.83017751  0.48266529  1
  O  O13  1  0.32879491  0.68490018  0.19514899  1
  O  O14  1  0.17120509  0.18490018  0.30485101  1
  O  O15  1  0.17120509  0.68490018  0.69514899  1
  O  O16  1  0.32879491  0.18490018  0.80485101  1
  O  O17  1  0.10067954  0.42914937  0.15685580  1
  O  O18  1  0.67120509  0.81509982  0.19514899  1
  O  O19  1  0.66358371  0.33017751  0.51733471  1
  O  O20  1  0.60067954  0.07085063  0.65685580  1
  O  O21  1  0.83641629  0.33017751  0.01733471  1
  O  O22  1  0.33641629  0.66982249  0.48266529  1
  O  O23  1  0.33641629  0.16982249  0.51733471  1
  O  O24  1  0.16756436  0.38717580  0.89130703  1
  O  O25  1  0.82879491  0.81509982  0.69514899  1
  O  O26  1  0.16358371  0.16982249  0.01733471  1
  O  O27  1  0.60067954  0.57085063  0.34314420  1
  O  O28  1  0.89932046  0.57085063  0.84314420  1
  O  O29  1  0.16358371  0.66982249  0.98266529  1
  O  O30  1  0.16756436  0.88717580  0.10869297  1
  O  O31  1  0.39932046  0.42914937  0.65685580  1
loop_
_geom_bond_atom_site_label_1
_geom_bond_atom_site_label_2
_geom_bond_distance
_geom_bond_site_symmetry_2
Al0 O20 1.822856 1_555
Al0 O7 1.822856 1_545
Al0 O3 1.912215 1_555
Al0 O0 1.912215 1_545
Al0 O23 1.975014 1_555
Al0 O12 1.975014 1_545
Al1 O28 1.828331 1_455
Al1 O11 1.828331 1_555
Al1 O25 1.922540 1_455
Al1 O15 1.922540 1_555
Al1 O4 2.005513 1_455
Al1 O29 2.005513 1_555
Al2 O17 1.828331 1_555
Al2 O8 1.828331 1_455
Al2 O10 1.922540 1_455
Al2 O14 1.922540 1_555
Al2 O26 2.005513 1_555
Al2 O21 2.005513 1_455
Al3 O27 1.828331 1_555
Al3 O7 1.828331 1_555
Al3 O18 1.922540 1_555
Al3 O13 1.922540 1_555
Al3 O12 2.005513 1_555
Al3 O22 2.005513 1_555
Al4 O8 1.822856 1_455
Al4 O11 1.822856 1_544
Al4 O2 1.912215 1_454
Al4 O30 1.912215 1_545
Al4 O26 1.975014 1_555
Al4 O4 1.975014 1_444
Al5 O31 1.828331 1_555
Al5 O20 1.828331 1_555
Al5 O1 1.922540 1_555
Al5 O16 1.922540 1_555
Al5 O23 2.005513 1_555
Al5 O19 2.005513 1_555
Al6 O27 1.822856 1_555
Al6 O31 1.822856 1_555
Al6 O6 1.912215 1_555
Al6 O5 1.912215 1_555
Al6 O19 1.975014 1_555
Al6 O22 1.975014 1_555
Al7 O17 1.822856 1_555
Al7 O28 1.822856 1_454
Al7 O24 1.912215 1_554
Al7 O9 1.912215 1_455
Al7 O21 1.975014 1_455
Al7 O29 1.975014 1_554
B0 O2 1.375820 1_555
B0 O1 1.377474 1_555
B0 O21 1.377756 1_556
B1 O3 1.375820 1_555
B1 O10 1.377474 1_555
B1 O19 1.377756 1_555
B2 O5 1.375820 1_555
B2 O25 1.377474 1_555
B2 O12 1.377756 1_555
B3 O9 1.375820 1_555
B3 O18 1.377474 1_555
B3 O4 1.377756 1_554
B4 O24 1.375820 1_555
B4 O16 1.377474 1_555
B4 O26 1.377756 1_556
B5 O30 1.375820 1_555
B5 O13 1.377474 1_555
B5 O29 1.377756 1_554
B6 O0 1.375820 1_555
B6 O15 1.377474 1_555
B6 O22 1.377756 1_555
B7 O6 1.375820 1_555
B7 O14 1.377474 1_555
B7 O23 1.377756 1_555
O0 Pb2 2.359740 1_555
O1 Pb0 2.327104 1_555
O2 Pb6 2.359740 1_555
O3 Pb4 2.359740 1_555
O5 Pb0 2.359740 1_555
O6 Pb1 2.359740 1_555
O7 Pb7 2.335508 1_555
O7 Pb4 2.367070 1_565
O8 Pb4 2.335508 1_555
O8 Pb7 2.367070 1_645
O9 Pb3 2.359740 1_555
O10 Pb3 2.327104 1_555
O11 Pb2 2.335508 1_555
O11 Pb6 2.367070 1_465
O13 Pb1 2.327104 1_555
O14 Pb7 2.327104 1_545
O15 Pb5 2.327104 1_555
O16 Pb2 2.327104 1_545
O17 Pb1 2.335508 1_555
O17 Pb3 2.367070 1_455
O18 Pb4 2.327104 1_565
O20 Pb6 2.335508 1_555
O20 Pb2 2.367070 1_545
O24 Pb5 2.359740 1_555
O25 Pb6 2.327104 1_565
O27 Pb3 2.335508 1_555
O27 Pb1 2.367070 1_555
O28 Pb0 2.335508 1_555
O28 Pb5 2.367070 1_655
O30 Pb7 2.359740 1_555
O31 Pb5 2.335508 1_555
O31 Pb0 2.367070 1_555
