# generated using pymatgen
data_PrNb3O9
_symmetry_space_group_name_H-M   'P 1'
_cell_length_a   7.73791100
_cell_length_b   5.44438500
_cell_length_c   16.66490375
_cell_angle_alpha   87.96892003
_cell_angle_beta   90.00000000
_cell_angle_gamma   90.00000000
_symmetry_Int_Tables_number   1
_chemical_formula_structural   PrNb3O9
_chemical_formula_sum   'Pr4 Nb12 O36'
_cell_volume   701.62076984
_cell_formula_units_Z   4
loop_
 _symmetry_equiv_pos_site_id
 _symmetry_equiv_pos_as_xyz
  1  'x, y, z'
loop_
 _atom_site_type_symbol
 _atom_site_label
 _atom_site_symmetry_multiplicity
 _atom_site_fract_x
 _atom_site_fract_y
 _atom_site_fract_z
 _atom_site_occupancy
  Pr  Pr0  1  0.24998400  0.96668900  0.46780600  1
  Pr  Pr1  1  0.74998400  0.03331100  0.03219400  1
  Pr  Pr2  1  0.25001600  0.96668900  0.96780600  1
  Pr  Pr3  1  0.75001600  0.03331100  0.53219400  1
  Nb  Nb0  1  0.47048500  0.99164400  0.24868500  1
  Nb  Nb1  1  0.02951500  0.99164400  0.74868500  1
  Nb  Nb2  1  0.48284600  0.52759500  0.59992600  1
  Nb  Nb3  1  0.00107600  0.47968600  0.39968300  1
  Nb  Nb4  1  0.49892400  0.47968600  0.89968300  1
  Nb  Nb5  1  0.50107600  0.52031400  0.10031700  1
  Nb  Nb6  1  0.52951500  0.00835600  0.75131500  1
  Nb  Nb7  1  0.01715400  0.52759500  0.09992600  1
  Nb  Nb8  1  0.97048500  0.00835600  0.25131500  1
  Nb  Nb9  1  0.99892400  0.52031400  0.60031700  1
  Nb  Nb10  1  0.98284600  0.47240500  0.90007400  1
  Nb  Nb11  1  0.51715400  0.47240500  0.40007400  1
  O  O0  1  0.43854000  0.15428600  0.35642500  1
  O  O1  1  0.03750000  0.26378900  0.51713300  1
  O  O2  1  0.96403100  0.73570600  0.98300400  1
  O  O3  1  0.56146000  0.84571400  0.64357500  1
  O  O4  1  0.06146000  0.15428600  0.85642500  1
  O  O5  1  0.24921800  0.64849900  0.58075600  1
  O  O6  1  0.94614500  0.84968500  0.64351400  1
  O  O7  1  0.55357300  0.67997100  0.81024700  1
  O  O8  1  0.74858700  0.43902000  0.09520500  1
  O  O9  1  0.24858700  0.56098000  0.40479500  1
  O  O10  1  0.46403100  0.26429400  0.51699600  1
  O  O11  1  0.24488400  0.90313600  0.24086900  1
  O  O12  1  0.75078200  0.35150100  0.41924400  1
  O  O13  1  0.25141300  0.56098000  0.90479500  1
  O  O14  1  0.74921800  0.35150100  0.91924400  1
  O  O15  1  0.55385500  0.84968500  0.14351400  1
  O  O16  1  0.94642700  0.67997100  0.31024700  1
  O  O17  1  0.53596900  0.73570600  0.48300400  1
  O  O18  1  0.44642700  0.32002900  0.18975300  1
  O  O19  1  0.03596900  0.26429400  0.01699600  1
  O  O20  1  0.05385500  0.15031500  0.35648600  1
  O  O21  1  0.46250000  0.26378900  0.01713300  1
  O  O22  1  0.53750000  0.73621100  0.98286700  1
  O  O23  1  0.04865400  0.31694000  0.18890600  1
  O  O24  1  0.25078200  0.64849900  0.08075600  1
  O  O25  1  0.44614500  0.15031500  0.85648600  1
  O  O26  1  0.74488400  0.09686400  0.25913100  1
  O  O27  1  0.95134600  0.68306000  0.81109400  1
  O  O28  1  0.05357300  0.32002900  0.68975300  1
  O  O29  1  0.75511600  0.09686400  0.75913100  1
  O  O30  1  0.45134600  0.31694000  0.68890600  1
  O  O31  1  0.54865400  0.68306000  0.31109400  1
  O  O32  1  0.25511600  0.90313600  0.74086900  1
  O  O33  1  0.93854000  0.84571400  0.14357500  1
  O  O34  1  0.75141300  0.43902000  0.59520500  1
  O  O35  1  0.96250000  0.73621100  0.48286700  1
loop_
_geom_bond_atom_site_label_1
_geom_bond_atom_site_label_2
_geom_bond_distance
_geom_bond_site_symmetry_2
Nb0 O11 1.816870 1_555
Nb0 O18 2.017704 1_565
Nb0 O31 2.036236 1_555
Nb0 O15 2.044838 1_555
Nb0 O0 2.044901 1_565
Nb0 O26 2.207677 1_565
Nb1 O32 1.816870 1_555
Nb1 O28 2.017704 1_565
Nb1 O27 2.036236 1_455
Nb1 O6 2.044838 1_455
Nb1 O4 2.044901 1_565
Nb1 O29 2.207677 1_465
Nb2 O30 1.858235 1_555
Nb2 O5 1.946422 1_555
Nb2 O3 1.997036 1_555
Nb2 O10 2.031394 1_555
Nb2 O34 2.135446 1_555
Nb2 O17 2.256741 1_555
Nb3 O16 1.863886 1_455
Nb3 O9 1.968218 1_555
Nb3 O20 1.998039 1_555
Nb3 O35 2.024496 1_455
Nb3 O12 2.080432 1_455
Nb3 O1 2.264726 1_555
Nb4 O7 1.863886 1_555
Nb4 O13 1.968218 1_555
Nb4 O25 1.998039 1_555
Nb4 O22 2.024496 1_555
Nb4 O14 2.080432 1_555
Nb4 O21 2.264726 1_556
Nb5 O18 1.863886 1_555
Nb5 O8 1.968218 1_555
Nb5 O15 1.998039 1_555
Nb5 O21 2.024496 1_555
Nb5 O24 2.080432 1_555
Nb5 O22 2.264726 1_554
Nb6 O29 1.816870 1_555
Nb6 O7 2.017704 1_545
Nb6 O30 2.036236 1_555
Nb6 O25 2.044838 1_555
Nb6 O3 2.044901 1_545
Nb6 O32 2.207677 1_545
Nb7 O23 1.858235 1_555
Nb7 O24 1.946422 1_555
Nb7 O33 1.997036 1_455
Nb7 O19 2.031394 1_555
Nb7 O8 2.135446 1_455
Nb7 O2 2.256741 1_454
Nb8 O26 1.816870 1_555
Nb8 O16 2.017704 1_545
Nb8 O23 2.036236 1_655
Nb8 O20 2.044838 1_655
Nb8 O33 2.044901 1_545
Nb8 O11 2.207677 1_645
Nb9 O28 1.863886 1_655
Nb9 O34 1.968218 1_555
Nb9 O6 1.998039 1_555
Nb9 O1 2.024496 1_655
Nb9 O5 2.080432 1_655
Nb9 O35 2.264726 1_555
Nb10 O27 1.858235 1_555
Nb10 O14 1.946422 1_555
Nb10 O4 1.997036 1_655
Nb10 O2 2.031394 1_555
Nb10 O13 2.135446 1_655
Nb10 O19 2.256741 1_656
Nb11 O31 1.858235 1_555
Nb11 O12 1.946422 1_555
Nb11 O0 1.997036 1_555
Nb11 O17 2.031394 1_555
Nb11 O9 2.135446 1_555
Nb11 O10 2.256741 1_555
O0 Pr0 2.546144 1_545
O1 Pr0 2.467734 1_545
O1 Pr3 2.561979 1_455
O2 Pr1 2.476829 1_566
O2 Pr2 2.553443 1_655
O3 Pr3 2.546144 1_565
O4 Pr2 2.546144 1_545
O5 Pr0 2.512566 1_555
O6 Pr3 2.571523 1_565
O8 Pr1 2.479140 1_555
O9 Pr0 2.479140 1_555
O10 Pr0 2.476829 1_545
O10 Pr3 2.553443 1_555
O12 Pr3 2.512566 1_555
O13 Pr2 2.479140 1_555
O14 Pr1 2.512566 1_556
O15 Pr1 2.571523 1_565
O17 Pr3 2.476829 1_565
O17 Pr0 2.553443 1_555
O19 Pr2 2.476829 1_544
O19 Pr1 2.553443 1_455
O20 Pr0 2.571523 1_545
O21 Pr2 2.467734 1_544
O21 Pr1 2.561979 1_555
O22 Pr1 2.467734 1_566
O22 Pr2 2.561979 1_555
O24 Pr2 2.512566 1_554
O25 Pr2 2.571523 1_545
O33 Pr1 2.546144 1_565
O34 Pr3 2.479140 1_555
O35 Pr3 2.467734 1_565
O35 Pr0 2.561979 1_655
