# generated using pymatgen
data_Cr5(PO4)4
_symmetry_space_group_name_H-M   'P 1'
_cell_length_a   8.08849480
_cell_length_b   8.36405459
_cell_length_c   10.39250416
_cell_angle_alpha   91.66659082
_cell_angle_beta   99.12974004
_cell_angle_gamma   113.64435133
_symmetry_Int_Tables_number   1
_chemical_formula_structural   Cr5(PO4)4
_chemical_formula_sum   'Cr10 P8 O32'
_cell_volume   632.54881010
_cell_formula_units_Z   2
loop_
 _symmetry_equiv_pos_site_id
 _symmetry_equiv_pos_as_xyz
  1  'x, y, z'
loop_
 _atom_site_type_symbol
 _atom_site_label
 _atom_site_symmetry_multiplicity
 _atom_site_fract_x
 _atom_site_fract_y
 _atom_site_fract_z
 _atom_site_occupancy
  Cr  Cr0  1  0.00004400  0.00006400  0.00001300  1
  Cr  Cr1  1  0.24862400  0.76524300  0.05813700  1
  Cr  Cr2  1  0.24857400  0.76554600  0.55803100  1
  Cr  Cr3  1  0.75142100  0.23444800  0.44196700  1
  Cr  Cr4  1  0.75137200  0.23474600  0.94191700  1
  Cr  Cr5  1  0.99997500  0.00004200  0.50004200  1
  Cr  Cr6  1  0.41565800  0.66521700  0.32279200  1
  Cr  Cr7  1  0.41561400  0.66517400  0.82269800  1
  Cr  Cr8  1  0.58437900  0.33482400  0.17728300  1
  Cr  Cr9  1  0.58432500  0.33484400  0.67723400  1
  P  P0  1  0.19792100  0.42643300  0.07066900  1
  P  P1  1  0.19807200  0.42672200  0.57071900  1
  P  P2  1  0.80194100  0.57327400  0.42927500  1
  P  P3  1  0.80208800  0.57356900  0.92932300  1
  P  P4  1  0.30557300  0.02418900  0.32023500  1
  P  P5  1  0.30569100  0.02410600  0.82037600  1
  P  P6  1  0.69432400  0.97588400  0.17961600  1
  P  P7  1  0.69441100  0.97581700  0.67976600  1
  O  O0  1  0.23672900  0.95565200  0.17236300  1
  O  O1  1  0.23667000  0.95560100  0.67259600  1
  O  O2  1  0.76333700  0.04438900  0.32739000  1
  O  O3  1  0.76328100  0.04435500  0.82762700  1
  O  O4  1  0.33986600  0.88130600  0.40043600  1
  O  O5  1  0.34004100  0.88129500  0.90059300  1
  O  O6  1  0.65995500  0.11869300  0.09940200  1
  O  O7  1  0.66012100  0.11868200  0.59955100  1
  O  O8  1  0.17130300  0.55927300  0.16868000  1
  O  O9  1  0.17148100  0.55955000  0.66875400  1
  O  O10  1  0.82852900  0.44043400  0.33124300  1
  O  O11  1  0.82869100  0.44071100  0.83132600  1
  O  O12  1  0.01151300  0.26595800  0.02417600  1
  O  O13  1  0.01178400  0.26637700  0.52420500  1
  O  O14  1  0.98822100  0.73362200  0.47579800  1
  O  O15  1  0.98849300  0.73403100  0.97582000  1
  O  O16  1  0.25495000  0.55050000  0.45917900  1
  O  O17  1  0.25479900  0.55019300  0.95912600  1
  O  O18  1  0.74519900  0.44979500  0.04088200  1
  O  O19  1  0.74505000  0.44949500  0.54082000  1
  O  O20  1  0.17753300  0.08692800  0.37519200  1
  O  O21  1  0.17768300  0.08691100  0.87542100  1
  O  O22  1  0.82232700  0.91309300  0.12455400  1
  O  O23  1  0.82243600  0.91304900  0.62481400  1
  O  O24  1  0.50029100  0.81552100  0.16885200  1
  O  O25  1  0.50024200  0.81558400  0.66885600  1
  O  O26  1  0.49975800  0.18441200  0.33114300  1
  O  O27  1  0.49972500  0.18448500  0.83114800  1
  O  O28  1  0.34353200  0.36691200  0.13004900  1
  O  O29  1  0.34364700  0.36713000  0.63004400  1
  O  O30  1  0.65634600  0.63284900  0.36993500  1
  O  O31  1  0.65645500  0.63306700  0.86993700  1
loop_
_geom_bond_atom_site_label_1
_geom_bond_atom_site_label_2
_geom_bond_distance
_geom_bond_site_symmetry_2
Cr0 O21 2.019067 1_554
Cr0 O22 2.019180 1_445
Cr0 O12 2.193688 1_555
Cr0 O15 2.194614 1_444
Cr0 O0 2.555811 1_545
Cr0 O3 2.555998 1_454
Cr1 O0 2.000995 1_555
Cr1 O5 2.017558 1_554
Cr1 O8 2.039038 1_555
Cr1 O24 2.046065 1_555
Cr1 O15 2.049953 1_454
Cr1 O17 2.068158 1_554
Cr2 O1 2.000706 1_555
Cr2 O4 2.016848 1_555
Cr2 O9 2.040285 1_555
Cr2 O25 2.046950 1_555
Cr2 O14 2.049609 1_455
Cr2 O16 2.068078 1_555
Cr3 O2 2.000850 1_555
Cr3 O7 2.016784 1_555
Cr3 O10 2.040237 1_555
Cr3 O26 2.046916 1_555
Cr3 O13 2.049684 1_655
Cr3 O19 2.068072 1_555
Cr4 O3 2.001311 1_555
Cr4 O6 2.017019 1_556
Cr4 O11 2.039324 1_555
Cr4 O27 2.046186 1_555
Cr4 O12 2.049876 1_656
Cr4 O18 2.067916 1_556
Cr5 O23 2.020071 1_545
Cr5 O20 2.020710 1_655
Cr5 O13 2.196302 1_655
Cr5 O14 2.197244 1_545
Cr5 O2 2.557135 1_555
Cr5 O1 2.557224 1_645
Cr6 O30 2.056980 1_555
Cr6 O16 2.069477 1_555
Cr6 O24 2.093492 1_555
Cr6 O8 2.182855 1_555
Cr6 O4 2.292260 1_555
Cr7 O31 2.057131 1_555
Cr7 O17 2.070806 1_555
Cr7 O25 2.093071 1_555
Cr7 O9 2.180664 1_555
Cr7 O5 2.292335 1_555
Cr8 O28 2.057091 1_555
Cr8 O18 2.070585 1_555
Cr8 O26 2.093223 1_555
Cr8 O10 2.180844 1_555
Cr8 O6 2.292370 1_555
Cr9 O29 2.056591 1_555
Cr9 O19 2.069649 1_555
Cr9 O27 2.093438 1_555
Cr9 O11 2.182777 1_555
Cr9 O7 2.292972 1_555
O0 P4 1.556109 1_565
O1 P5 1.555254 1_565
O2 P6 1.555193 1_545
O3 P7 1.556017 1_545
O4 P4 1.565353 1_565
O5 P5 1.565112 1_565
O6 P6 1.565143 1_545
O7 P7 1.565291 1_545
O8 P0 1.585561 1_555
O9 P1 1.585534 1_555
O10 P2 1.585575 1_555
O11 P3 1.585515 1_555
O12 P0 1.554403 1_555
O13 P1 1.553368 1_555
O14 P2 1.553355 1_555
O15 P3 1.554344 1_555
O16 P1 1.576124 1_555
O17 P0 1.576064 1_556
O18 P3 1.576276 1_554
O19 P2 1.576186 1_555
O20 P4 1.510077 1_555
O21 P5 1.510622 1_555
O22 P6 1.510599 1_555
O23 P7 1.510093 1_555
O24 P6 1.587999 1_555
O25 P7 1.588049 1_555
O26 P4 1.588097 1_555
O27 P5 1.588055 1_555
O28 P0 1.507763 1_555
O29 P1 1.507736 1_555
O30 P2 1.507826 1_555
O31 P3 1.507806 1_555
