# generated using pymatgen
data_Tb(SiIr)2
_symmetry_space_group_name_H-M   'P 1'
_cell_length_a   4.06969267
_cell_length_b   4.06969110
_cell_length_c   5.74108596
_cell_angle_alpha   110.75887624
_cell_angle_beta   110.75886756
_cell_angle_gamma   89.99999220
_symmetry_Int_Tables_number   1
_chemical_formula_structural   Tb(SiIr)2
_chemical_formula_sum   'Tb1 Si2 Ir2'
_cell_volume   82.27836936
_cell_formula_units_Z   1
loop_
 _symmetry_equiv_pos_site_id
 _symmetry_equiv_pos_as_xyz
  1  'x, y, z'
loop_
 _atom_site_type_symbol
 _atom_site_label
 _atom_site_symmetry_multiplicity
 _atom_site_fract_x
 _atom_site_fract_y
 _atom_site_fract_z
 _atom_site_occupancy
  Tb  Tb0  1  0.00000000  0.00000000  -0.00000000  1
  Si  Si0  1  0.62202359  0.62202359  0.24404618  1
  Si  Si1  1  0.37797641  0.37797641  0.75595382  1
  Ir  Ir0  1  0.75000000  0.25000000  0.50000000  1
  Ir  Ir1  1  0.25000000  0.75000000  0.50000000  1
loop_
_geom_bond_atom_site_label_1
_geom_bond_atom_site_label_2
_geom_bond_distance
_geom_bond_site_symmetry_2
Si0 Si1 2.424737 1_554
Si0 Tb0 3.122662 1_665
Si0 Tb0 3.122664 1_655
Si0 Tb0 3.122665 1_565
Si0 Tb0 3.122667 1_555
Si1 Tb0 3.122662 1_556
Si1 Tb0 3.122664 1_566
Si1 Tb0 3.122665 1_656
Si1 Tb0 3.122667 1_666
Ir0 Si0 2.399449 1_545
Ir0 Si1 2.399450 1_655
Ir0 Si0 2.399453 1_555
Ir0 Si1 2.399454 1_555
Ir0 Tb0 3.210967 1_666
Ir0 Tb0 3.210968 1_655
Ir0 Tb0 3.210968 1_656
Ir0 Tb0 3.210968 1_555
Ir1 Si1 2.399449 1_565
Ir1 Si0 2.399450 1_455
Ir1 Si1 2.399453 1_555
Ir1 Si0 2.399454 1_555
Ir1 Tb0 3.210967 1_555
Ir1 Tb0 3.210968 1_566
Ir1 Tb0 3.210968 1_565
Ir1 Tb0 3.210968 1_666
