# generated using pymatgen
data_SiPd2
_symmetry_space_group_name_H-M   'P 1'
_cell_length_a   7.80517626
_cell_length_b   7.80517626
_cell_length_c   2.79743000
_cell_angle_alpha   90.00000000
_cell_angle_beta   90.00000000
_cell_angle_gamma   120.00000222
_symmetry_Int_Tables_number   1
_chemical_formula_structural   SiPd2
_chemical_formula_sum   'Si3 Pd6'
_cell_volume   147.58943837
_cell_formula_units_Z   3
loop_
 _symmetry_equiv_pos_site_id
 _symmetry_equiv_pos_as_xyz
  1  'x, y, z'
loop_
 _atom_site_type_symbol
 _atom_site_label
 _atom_site_symmetry_multiplicity
 _atom_site_fract_x
 _atom_site_fract_y
 _atom_site_fract_z
 _atom_site_occupancy
  Si  Si0  1  0.00000000  0.00000000  0.50000000  1
  Si  Si1  1  0.66666700  0.33333300  0.00000000  1
  Si  Si2  1  0.33333300  0.66666700  0.00000000  1
  Pd  Pd0  1  0.00000000  0.24886800  0.00000000  1
  Pd  Pd1  1  0.59802700  0.00000000  0.00000000  1
  Pd  Pd2  1  0.75113200  0.75113200  0.00000000  1
  Pd  Pd3  1  0.00000000  0.59802700  0.00000000  1
  Pd  Pd4  1  0.40197300  0.40197300  0.00000000  1
  Pd  Pd5  1  0.24886800  0.00000000  0.00000000  1
loop_
_geom_bond_atom_site_label_1
_geom_bond_atom_site_label_2
_geom_bond_distance
_geom_bond_site_symmetry_2
Pd0 Si0 2.393648 1_555
Pd0 Si0 2.393648 1_554
Pd1 Si1 2.379521 1_555
Pd1 Si2 2.379524 1_545
Pd2 Si0 2.393648 1_664
Pd2 Si0 2.393648 1_665
Pd3 Si2 2.379521 1_555
Pd3 Si1 2.379524 1_455
Pd4 Si2 2.379529 1_555
Pd4 Si1 2.379529 1_555
Pd5 Si0 2.393648 1_555
Pd5 Si0 2.393648 1_554
