# generated using pymatgen
data_Cd2GeAs4
_symmetry_space_group_name_H-M   'P 1'
_cell_length_a   7.37476900
_cell_length_b   7.55532500
_cell_length_c   12.93373300
_cell_angle_alpha   90.00000000
_cell_angle_beta   90.00000000
_cell_angle_gamma   90.00000000
_symmetry_Int_Tables_number   1
_chemical_formula_structural   Cd2GeAs4
_chemical_formula_sum   'Cd8 Ge4 As16'
_cell_volume   720.65177957
_cell_formula_units_Z   4
loop_
 _symmetry_equiv_pos_site_id
 _symmetry_equiv_pos_as_xyz
  1  'x, y, z'
loop_
 _atom_site_type_symbol
 _atom_site_label
 _atom_site_symmetry_multiplicity
 _atom_site_fract_x
 _atom_site_fract_y
 _atom_site_fract_z
 _atom_site_occupancy
  Cd  Cd0  1  0.59417100  0.97628900  0.86957600  1
  Cd  Cd1  1  0.09417100  0.52371100  0.63042400  1
  Cd  Cd2  1  0.40582900  0.47628900  0.13042400  1
  Cd  Cd3  1  0.90582900  0.02371100  0.36957600  1
  Cd  Cd4  1  0.09417100  0.97628900  0.63042400  1
  Cd  Cd5  1  0.59417100  0.52371100  0.86957600  1
  Cd  Cd6  1  0.90582900  0.47628900  0.36957600  1
  Cd  Cd7  1  0.40582900  0.02371100  0.13042400  1
  Ge  Ge0  1  0.91807000  0.75000000  0.08110000  1
  Ge  Ge1  1  0.41807000  0.75000000  0.41890000  1
  Ge  Ge2  1  0.08193000  0.25000000  0.91890000  1
  Ge  Ge3  1  0.58193000  0.25000000  0.58110000  1
  As  As0  1  0.40841300  0.25000000  0.96143300  1
  As  As1  1  0.45603600  0.51202100  0.67458600  1
  As  As2  1  0.04396400  0.48797900  0.17458600  1
  As  As3  1  0.54396400  0.01202100  0.32541400  1
  As  As4  1  0.90841300  0.25000000  0.53856700  1
  As  As5  1  0.61232400  0.75000000  0.57754800  1
  As  As6  1  0.09158700  0.75000000  0.46143300  1
  As  As7  1  0.59158700  0.75000000  0.03856700  1
  As  As8  1  0.38767600  0.25000000  0.42245200  1
  As  As9  1  0.88767600  0.25000000  0.07754800  1
  As  As10  1  0.04396400  0.01202100  0.17458600  1
  As  As11  1  0.11232400  0.75000000  0.92245200  1
  As  As12  1  0.45603600  0.98797900  0.67458600  1
  As  As13  1  0.54396400  0.48797900  0.32541400  1
  As  As14  1  0.95603600  0.51202100  0.82541400  1
  As  As15  1  0.95603600  0.98797900  0.82541400  1
loop_
_geom_bond_atom_site_label_1
_geom_bond_atom_site_label_2
_geom_bond_distance
_geom_bond_site_symmetry_2
As0 Ge2 2.469781 1_555
As0 Cd5 2.750397 1_555
As0 Cd0 2.750397 1_545
As0 Cd2 2.774997 1_556
As0 Cd7 2.774997 1_556
As1 As5 2.477192 1_555
As1 Ge3 2.498601 1_555
As1 Cd5 2.721361 1_555
As1 Cd1 2.730540 1_555
As2 As9 2.477192 1_455
As2 Ge0 2.498601 1_455
As2 Cd6 2.721361 1_455
As2 Cd2 2.730540 1_555
As3 As8 2.477192 1_555
As3 Ge1 2.498601 1_545
As3 Cd7 2.721361 1_555
As3 Cd3 2.730540 1_555
As4 Ge3 2.469781 1_555
As4 Cd1 2.750397 1_655
As4 Cd4 2.750397 1_645
As4 Cd6 2.774997 1_555
As4 Cd3 2.774997 1_555
As5 Ge1 2.502523 1_555
As6 Ge1 2.469781 1_555
As6 Cd3 2.750397 1_465
As6 Cd6 2.750397 1_455
As6 Cd4 2.774997 1_555
As6 Cd1 2.774997 1_555
As7 Ge0 2.469781 1_555
As7 Cd7 2.750397 1_565
As7 Cd2 2.750397 1_555
As7 Cd0 2.774997 1_554
As7 Cd5 2.774997 1_554
As8 Ge3 2.502523 1_555
As9 Ge2 2.502523 1_654
As10 As9 2.477192 1_455
As10 Ge0 2.498601 1_445
As10 Cd3 2.721361 1_455
As10 Cd7 2.730540 1_555
As11 As15 2.477192 1_455
As11 As14 2.477192 1_455
As11 Ge0 2.502523 1_456
As12 As5 2.477192 1_555
As12 Ge3 2.498601 1_565
As12 Cd0 2.721361 1_555
As12 Cd4 2.730540 1_555
As13 As8 2.477192 1_555
As13 Ge1 2.498601 1_555
As13 Cd2 2.721361 1_555
As13 Cd6 2.730540 1_555
As14 Ge2 2.498601 1_655
As14 Cd1 2.721361 1_655
As14 Cd5 2.730540 1_555
As15 Ge2 2.498601 1_665
As15 Cd4 2.721361 1_655
As15 Cd0 2.730540 1_555
