# generated using pymatgen
data_AlAs3(SeCl)4
_symmetry_space_group_name_H-M   'P 1'
_cell_length_a   12.51978918
_cell_length_b   12.51978918
_cell_length_c   14.48857961
_cell_angle_alpha   59.31209653
_cell_angle_beta   59.31209653
_cell_angle_gamma   63.65856827
_symmetry_Int_Tables_number   1
_chemical_formula_structural   AlAs3(SeCl)4
_chemical_formula_sum   'Al4 As12 Se16 Cl16'
_cell_volume   1627.10789696
_cell_formula_units_Z   4
loop_
 _symmetry_equiv_pos_site_id
 _symmetry_equiv_pos_as_xyz
  1  'x, y, z'
loop_
 _atom_site_type_symbol
 _atom_site_label
 _atom_site_symmetry_multiplicity
 _atom_site_fract_x
 _atom_site_fract_y
 _atom_site_fract_z
 _atom_site_occupancy
  Al  Al0  1  0.23152600  0.31174200  0.41994800  1
  Al  Al1  1  0.31174200  0.23152600  0.91994800  1
  Al  Al2  1  0.76847400  0.68825800  0.58005200  1
  Al  Al3  1  0.68825800  0.76847400  0.08005200  1
  As  As0  1  0.70106900  0.07153200  0.61413600  1
  As  As1  1  0.92846800  0.29893100  0.88586400  1
  As  As2  1  0.37659100  0.79583200  0.55110600  1
  As  As3  1  0.29893100  0.92846800  0.38586400  1
  As  As4  1  0.79583200  0.37659100  0.05110600  1
  As  As5  1  0.20416800  0.62340900  0.94889400  1
  As  As6  1  0.16018800  0.64089400  0.57644300  1
  As  As7  1  0.64089400  0.16018800  0.07644300  1
  As  As8  1  0.62340900  0.20416800  0.44889400  1
  As  As9  1  0.83981200  0.35910600  0.42355700  1
  As  As10  1  0.07153200  0.70106900  0.11413600  1
  As  As11  1  0.35910600  0.83981200  0.92355700  1
  Se  Se0  1  0.14762800  0.93788400  0.58581300  1
  Se  Se1  1  0.20080100  0.98166700  0.83304900  1
  Se  Se2  1  0.01833300  0.79919900  0.66695100  1
  Se  Se3  1  0.22184700  0.79266300  0.38099700  1
  Se  Se4  1  0.79919900  0.01833300  0.16695100  1
  Se  Se5  1  0.59510100  0.33955800  0.12231100  1
  Se  Se6  1  0.98166700  0.20080100  0.33304900  1
  Se  Se7  1  0.20733700  0.77815300  0.11900300  1
  Se  Se8  1  0.79266300  0.22184700  0.88099700  1
  Se  Se9  1  0.85237200  0.06211600  0.41418700  1
  Se  Se10  1  0.66044200  0.40489900  0.37768900  1
  Se  Se11  1  0.77815300  0.20733700  0.61900300  1
  Se  Se12  1  0.06211600  0.85237200  0.91418700  1
  Se  Se13  1  0.93788400  0.14762800  0.08581300  1
  Se  Se14  1  0.40489900  0.66044200  0.87768900  1
  Se  Se15  1  0.33955800  0.59510100  0.62231100  1
  Cl  Cl0  1  0.94486400  0.70138400  0.43222900  1
  Cl  Cl1  1  0.32310700  0.43648800  0.39978000  1
  Cl  Cl2  1  0.80344500  0.62544500  0.73453500  1
  Cl  Cl3  1  0.37455500  0.19655500  0.76546500  1
  Cl  Cl4  1  0.87939100  0.63803200  0.05549100  1
  Cl  Cl5  1  0.56351200  0.67689300  0.10022000  1
  Cl  Cl6  1  0.63803200  0.87939100  0.55549100  1
  Cl  Cl7  1  0.29861600  0.05513600  0.06777100  1
  Cl  Cl8  1  0.12060900  0.36196800  0.94450900  1
  Cl  Cl9  1  0.05513600  0.29861600  0.56777100  1
  Cl  Cl10  1  0.70138400  0.94486400  0.93222900  1
  Cl  Cl11  1  0.62544500  0.80344500  0.23453500  1
  Cl  Cl12  1  0.43648800  0.32310700  0.89978000  1
  Cl  Cl13  1  0.67689300  0.56351200  0.60022000  1
  Cl  Cl14  1  0.36196800  0.12060900  0.44450900  1
  Cl  Cl15  1  0.19655500  0.37455500  0.26546500  1
loop_
_geom_bond_atom_site_label_1
_geom_bond_atom_site_label_2
_geom_bond_distance
_geom_bond_site_symmetry_2
Al0 Cl1 2.149550 1_555
Al0 Cl9 2.150812 1_555
Al0 Cl15 2.172078 1_555
Al0 Cl14 2.185362 1_555
Al1 Cl12 2.149550 1_555
Al1 Cl7 2.150812 1_556
Al1 Cl3 2.172078 1_555
Al1 Cl8 2.185362 1_555
Al2 Cl13 2.149550 1_555
Al2 Cl0 2.150812 1_555
Al2 Cl2 2.172078 1_555
Al2 Cl6 2.185362 1_555
Al3 Cl5 2.149550 1_555
Al3 Cl10 2.150812 1_554
Al3 Cl11 2.172078 1_555
Al3 Cl4 2.185362 1_555
As0 Se11 2.339916 1_555
As0 As8 2.513933 1_555
As0 Se9 2.558062 1_555
As1 Se8 2.339916 1_555
As1 As4 2.513933 1_556
As1 Se13 2.558062 1_556
As2 Se15 2.344015 1_555
As2 As3 2.513933 1_555
As2 Se0 2.559349 1_555
As3 Se3 2.339916 1_555
As3 Se0 2.558062 1_555
As4 Se5 2.344015 1_555
As4 Se13 2.559349 1_555
As5 Se14 2.344015 1_555
As5 Se12 2.559349 1_555
As6 Se3 2.409021 1_555
As6 Se15 2.409407 1_555
As6 Se2 2.440042 1_555
As7 Se8 2.409021 1_554
As7 Se5 2.409407 1_555
As7 Se4 2.440042 1_555
As8 Se10 2.344015 1_555
As8 Se9 2.559349 1_555
As9 Se11 2.409021 1_555
As9 Se10 2.409407 1_555
As9 Se6 2.440042 1_555
As10 Se7 2.339916 1_555
As10 As5 2.513933 1_554
As10 Se12 2.558062 1_554
As11 Se7 2.409021 1_556
As11 Se14 2.409407 1_555
As11 Se1 2.440042 1_555
Se0 Se2 2.342114 1_555
Se1 Se12 2.342114 1_555
Se6 Se9 2.342114 1_555
Se13 Se4 2.342114 1_555
