# generated using pymatgen
data_Sr3Fe2Cu2Se2O5
_symmetry_space_group_name_H-M   'P 1'
_cell_length_a   4.00878618
_cell_length_b   4.00883560
_cell_length_c   13.86800805
_cell_angle_alpha   81.71134794
_cell_angle_beta   98.28875466
_cell_angle_gamma   90.00393674
_symmetry_Int_Tables_number   1
_chemical_formula_structural   Sr3Fe2Cu2Se2O5
_chemical_formula_sum   'Sr3 Fe2 Cu2 Se2 O5'
_cell_volume   218.18617941
_cell_formula_units_Z   1
loop_
 _symmetry_equiv_pos_site_id
 _symmetry_equiv_pos_as_xyz
  1  'x, y, z'
loop_
 _atom_site_type_symbol
 _atom_site_label
 _atom_site_symmetry_multiplicity
 _atom_site_fract_x
 _atom_site_fract_y
 _atom_site_fract_z
 _atom_site_occupancy
  Sr  Sr0  1  0.50000600  0.49999600  0.00000700  1
  Sr  Sr1  1  0.36265100  0.63735000  0.72509900  1
  Sr  Sr2  1  0.63736000  0.36264200  0.27491300  1
  Fe  Fe0  1  0.07010600  0.92989700  0.14016100  1
  Fe  Fe1  1  0.92989500  0.07010600  0.85983800  1
  Cu  Cu0  1  0.74769700  0.74770600  0.49999000  1
  Cu  Cu1  1  0.25224500  0.25233600  0.49993700  1
  Se  Se0  1  0.80743500  0.19255900  0.61262900  1
  Se  Se1  1  0.19256400  0.80744100  0.38737000  1
  O  O0  1  0.00000600  0.99999500  0.00000800  1
  O  O1  1  0.57954000  0.92048000  0.15889500  1
  O  O2  1  0.92049400  0.57952400  0.84112900  1
  O  O3  1  0.07952300  0.42046100  0.15889500  1
  O  O4  1  0.42047800  0.07950600  0.84112900  1
loop_
_geom_bond_atom_site_label_1
_geom_bond_atom_site_label_2
_geom_bond_distance
_geom_bond_site_symmetry_2
Fe0 O0 1.902824 1_555
Fe0 O1 2.020102 1_455
Fe0 O3 2.020117 1_565
Fe0 O1 2.020831 1_555
Fe0 O3 2.020865 1_555
Fe1 O0 1.903055 1_646
Fe1 O4 2.020077 1_655
Fe1 O2 2.020096 1_545
Fe1 O4 2.020770 1_555
Fe1 O2 2.020800 1_555
Cu0 Se1 2.517772 1_555
Cu0 Se0 2.517967 1_555
Cu0 Se1 2.524326 1_655
Cu0 Se0 2.524483 1_565
Cu1 Se1 2.517354 1_555
Cu1 Se0 2.518433 1_555
Cu1 Se1 2.523910 1_545
Cu1 Se0 2.524851 1_455
Se0 Sr1 3.215501 1_645
Se0 Sr1 3.219678 1_545
Se0 Sr1 3.219706 1_655
Se0 Sr1 3.224220 1_555
Se1 Sr2 3.215400 1_465
Se1 Sr2 3.219604 1_565
Se1 Sr2 3.219612 1_455
Se1 Sr2 3.224154 1_555
O0 Sr0 2.834557 1_455
O0 Sr0 2.834563 1_565
O0 Sr0 2.834755 1_555
O0 Sr0 2.834755 1_465
O1 Sr2 2.549219 1_555
O1 Sr2 2.549323 1_565
O1 Sr0 2.943905 1_555
O1 Sr0 2.945453 1_565
O2 Sr1 2.549293 1_555
O2 Sr1 2.549412 1_655
O2 Sr0 2.943791 1_556
O2 Sr0 2.945334 1_656
O3 Sr2 2.549192 1_555
O3 Sr2 2.549311 1_455
O3 Sr0 2.943891 1_555
O3 Sr0 2.945434 1_455
O4 Sr1 2.549320 1_555
O4 Sr1 2.549424 1_545
O4 Sr0 2.943808 1_556
O4 Sr0 2.945351 1_546
