# generated using pymatgen
data_K2Mo3(AsO5)4
_symmetry_space_group_name_H-M   'P 1'
_cell_length_a   10.04204193
_cell_length_b   10.04204193
_cell_length_c   12.33041660
_cell_angle_alpha   69.56766980
_cell_angle_beta   69.56766980
_cell_angle_gamma   54.00494828
_symmetry_Int_Tables_number   1
_chemical_formula_structural   K2Mo3(AsO5)4
_chemical_formula_sum   'K4 Mo6 As8 O40'
_cell_volume   925.58344070
_cell_formula_units_Z   2
loop_
 _symmetry_equiv_pos_site_id
 _symmetry_equiv_pos_as_xyz
  1  'x, y, z'
loop_
 _atom_site_type_symbol
 _atom_site_label
 _atom_site_symmetry_multiplicity
 _atom_site_fract_x
 _atom_site_fract_y
 _atom_site_fract_z
 _atom_site_occupancy
  K  K0  1  0.34842600  0.84347200  0.89940300  1
  K  K1  1  0.15652800  0.65157400  0.60059700  1
  K  K2  1  0.84347200  0.34842600  0.39940300  1
  K  K3  1  0.65157400  0.15652800  0.10059700  1
  Mo  Mo0  1  0.66921100  0.66795800  0.13945900  1
  Mo  Mo1  1  0.33204200  0.33078900  0.36054100  1
  Mo  Mo2  1  0.07424700  0.92575300  0.25000000  1
  Mo  Mo3  1  0.33078900  0.33204200  0.86054100  1
  Mo  Mo4  1  0.66795800  0.66921100  0.63945900  1
  Mo  Mo5  1  0.92575300  0.07424700  0.75000000  1
  As  As0  1  0.70693100  0.01265200  0.46147300  1
  As  As1  1  0.97884000  0.66034700  0.23060500  1
  As  As2  1  0.66034700  0.97884000  0.73060500  1
  As  As3  1  0.01265200  0.70693100  0.96147300  1
  As  As4  1  0.29306900  0.98734800  0.53852700  1
  As  As5  1  0.98734800  0.29306900  0.03852700  1
  As  As6  1  0.33965300  0.02116000  0.26939500  1
  As  As7  1  0.02116000  0.33965300  0.76939500  1
  O  O0  1  0.14341400  0.07540300  0.26289900  1
  O  O1  1  0.22697200  0.83986700  0.13191000  1
  O  O2  1  0.20468800  0.19621700  0.48685400  1
  O  O3  1  0.40661000  0.43172900  0.73458600  1
  O  O4  1  0.50484700  0.09375100  0.83442700  1
  O  O5  1  0.43172900  0.40661000  0.23458600  1
  O  O6  1  0.34070600  0.19582600  0.24475800  1
  O  O7  1  0.19621700  0.20468800  0.98685400  1
  O  O8  1  0.10962700  0.61882300  0.08934600  1
  O  O9  1  0.92459700  0.85658600  0.23710100  1
  O  O10  1  0.83986700  0.22697200  0.63191000  1
  O  O11  1  0.79531200  0.80378300  0.51314600  1
  O  O12  1  0.80378300  0.79531200  0.01314600  1
  O  O13  1  0.07540300  0.14341400  0.76289900  1
  O  O14  1  0.16013300  0.77302800  0.36809000  1
  O  O15  1  0.84304500  0.07335200  0.37437700  1
  O  O16  1  0.49515300  0.90624900  0.16557300  1
  O  O17  1  0.09375100  0.50484700  0.33442700  1
  O  O18  1  0.45533500  0.90167000  0.60877600  1
  O  O19  1  0.09833000  0.54466500  0.89122400  1
  O  O20  1  0.89037300  0.38117700  0.91065400  1
  O  O21  1  0.77302800  0.16013300  0.86809000  1
  O  O22  1  0.15695500  0.92664800  0.62562300  1
  O  O23  1  0.65929400  0.80417400  0.75524200  1
  O  O24  1  0.90167000  0.45533500  0.10877600  1
  O  O25  1  0.85658600  0.92459700  0.73710100  1
  O  O26  1  0.67423900  0.59446300  0.53040100  1
  O  O27  1  0.92664800  0.15695500  0.12562300  1
  O  O28  1  0.61882300  0.10962700  0.58934600  1
  O  O29  1  0.56827100  0.59339000  0.76541400  1
  O  O30  1  0.59339000  0.56827100  0.26541400  1
  O  O31  1  0.80417400  0.65929400  0.25524200  1
  O  O32  1  0.07335200  0.84304500  0.87437700  1
  O  O33  1  0.38117700  0.89037300  0.41065400  1
  O  O34  1  0.32576100  0.40553700  0.46959900  1
  O  O35  1  0.54466500  0.09833000  0.39122400  1
  O  O36  1  0.59446300  0.67423900  0.03040100  1
  O  O37  1  0.19582600  0.34070600  0.74475800  1
  O  O38  1  0.40553700  0.32576100  0.96959900  1
  O  O39  1  0.90624900  0.49515300  0.66557300  1
loop_
_geom_bond_atom_site_label_1
_geom_bond_atom_site_label_2
_geom_bond_distance
_geom_bond_site_symmetry_2
K0 O1 2.691859 1_556
K0 O36 2.745173 1_556
K0 O29 2.782740 1_555
K0 O23 2.868468 1_555
K0 O32 2.887137 1_555
K0 O13 3.065579 1_565
K1 O14 2.691859 1_555
K1 O34 2.745173 1_555
K1 O3 2.782740 1_555
K1 O37 2.868468 1_555
K1 O22 2.887137 1_555
K1 O25 3.065579 1_455
K2 O10 2.691859 1_555
K2 O26 2.745173 1_555
K2 O30 2.782740 1_555
K2 O31 2.868468 1_555
K2 O15 2.887137 1_555
K2 O0 3.065579 1_655
K3 O21 2.691859 1_554
K3 O38 2.745173 1_554
K3 O5 2.782740 1_555
K3 O6 2.868468 1_555
K3 O27 2.887137 1_555
K3 O9 3.065579 1_545
Mo0 O36 1.722091 1_555
Mo0 O30 1.725884 1_555
Mo0 O16 2.028201 1_555
Mo0 O24 2.059142 1_555
Mo0 O31 2.237909 1_555
Mo0 O12 2.249169 1_555
Mo1 O34 1.722091 1_555
Mo1 O5 1.725884 1_555
Mo1 O17 2.028201 1_555
Mo1 O35 2.059142 1_555
Mo1 O6 2.237909 1_555
Mo1 O2 2.249169 1_555
Mo2 O14 1.725993 1_555
Mo2 O1 1.725993 1_555
Mo2 O0 2.058411 1_565
Mo2 O9 2.058411 1_455
Mo2 O27 2.235046 1_465
Mo2 O15 2.235046 1_465
Mo3 O38 1.722091 1_555
Mo3 O3 1.725884 1_555
Mo3 O4 2.028201 1_555
Mo3 O19 2.059142 1_555
Mo3 O37 2.237909 1_555
Mo3 O7 2.249169 1_555
Mo4 O26 1.722091 1_555
Mo4 O29 1.725884 1_555
Mo4 O39 2.028201 1_555
Mo4 O18 2.059142 1_555
Mo4 O23 2.237909 1_555
Mo4 O11 2.249169 1_555
Mo5 O21 1.725993 1_555
Mo5 O10 1.725993 1_555
Mo5 O25 2.058411 1_545
Mo5 O13 2.058411 1_655
Mo5 O22 2.235046 1_645
Mo5 O32 2.235046 1_645
As0 O11 1.693121 1_545
As0 O15 1.700169 1_555
As0 O35 1.721331 1_555
As0 O28 1.817276 1_555
As1 O31 1.678229 1_555
As1 O17 1.710690 1_655
As1 O9 1.733364 1_555
As1 O8 1.788514 1_655
As2 O23 1.678229 1_555
As2 O4 1.710690 1_565
As2 O25 1.733364 1_555
As2 O28 1.788514 1_565
As3 O12 1.693121 1_456
As3 O32 1.700169 1_555
As3 O19 1.721331 1_555
As3 O8 1.817276 1_556
As4 O2 1.693121 1_565
As4 O22 1.700169 1_555
As4 O18 1.721331 1_555
As4 O33 1.817276 1_555
As5 O7 1.693121 1_654
As5 O27 1.700169 1_555
As5 O24 1.721331 1_555
As5 O20 1.817276 1_554
As6 O6 1.678229 1_555
As6 O16 1.710690 1_545
As6 O0 1.733364 1_555
As6 O33 1.788514 1_545
As7 O37 1.678229 1_555
As7 O39 1.710690 1_455
As7 O13 1.733364 1_555
As7 O20 1.788514 1_455
