# generated using pymatgen
data_Li3Ti8O16
_symmetry_space_group_name_H-M   'P 1'
_cell_length_a   5.98881100
_cell_length_b   8.46578600
_cell_length_c   11.97036700
_cell_angle_alpha   90.00000000
_cell_angle_beta   90.00000000
_cell_angle_gamma   90.00000000
_symmetry_Int_Tables_number   1
_chemical_formula_structural   Li3Ti8O16
_chemical_formula_sum   'Li6 Ti16 O32'
_cell_volume   606.89751497
_cell_formula_units_Z   2
loop_
 _symmetry_equiv_pos_site_id
 _symmetry_equiv_pos_as_xyz
  1  'x, y, z'
loop_
 _atom_site_type_symbol
 _atom_site_label
 _atom_site_symmetry_multiplicity
 _atom_site_fract_x
 _atom_site_fract_y
 _atom_site_fract_z
 _atom_site_occupancy
  Li  Li0  1  0.50000000  0.12379900  0.00000000  1
  Li  Li1  1  0.00000000  0.62588000  0.24889600  1
  Li  Li2  1  0.00000000  0.62588000  0.75110400  1
  Li  Li3  1  0.50000000  0.37412000  0.25110400  1
  Li  Li4  1  0.00000000  0.87620100  0.50000000  1
  Li  Li5  1  0.50000000  0.37412000  0.74889600  1
  Ti  Ti0  1  0.00000000  0.24481300  0.12433600  1
  Ti  Ti1  1  0.24827100  0.50387800  0.00000000  1
  Ti  Ti2  1  0.50000000  0.75097900  0.12306200  1
  Ti  Ti3  1  0.50000000  0.75518700  0.37566400  1
  Ti  Ti4  1  0.75000000  0.00000000  0.25000000  1
  Ti  Ti5  1  0.00000000  0.24902100  0.37693800  1
  Ti  Ti6  1  0.00000000  0.24902100  0.62306200  1
  Ti  Ti7  1  0.25000000  0.00000000  0.25000000  1
  Ti  Ti8  1  0.25172900  0.49612200  0.50000000  1
  Ti  Ti9  1  0.50000000  0.75518700  0.62433600  1
  Ti  Ti10  1  0.50000000  0.75097900  0.87693800  1
  Ti  Ti11  1  0.74827100  0.49612200  0.50000000  1
  Ti  Ti12  1  0.75000000  0.00000000  0.75000000  1
  Ti  Ti13  1  0.00000000  0.24481300  0.87566400  1
  Ti  Ti14  1  0.25000000  0.00000000  0.75000000  1
  Ti  Ti15  1  0.75172900  0.50387800  0.00000000  1
  O  O0  1  0.00000000  0.48619700  0.11202000  1
  O  O1  1  0.28092600  0.73327600  0.00000000  1
  O  O2  1  0.27584600  0.76256400  0.25026900  1
  O  O3  1  0.50000000  0.51228500  0.11261500  1
  O  O4  1  0.50000000  0.98771800  0.13766600  1
  O  O5  1  0.50000000  0.98384700  0.35842600  1
  O  O6  1  0.71907400  0.73327600  0.00000000  1
  O  O7  1  0.72415400  0.76256400  0.25026900  1
  O  O8  1  0.77584600  0.23743600  0.24973100  1
  O  O9  1  0.78092600  0.26672400  0.50000000  1
  O  O10  1  0.00000000  0.01615300  0.14157400  1
  O  O11  1  0.00000000  0.48771500  0.61261500  1
  O  O12  1  0.00000000  0.01228200  0.36233400  1
  O  O13  1  0.00000000  0.48771500  0.38738500  1
  O  O14  1  0.22415400  0.23743600  0.24973100  1
  O  O15  1  0.21907400  0.26672400  0.50000000  1
  O  O16  1  0.27574900  0.73663600  0.50000000  1
  O  O17  1  0.27584600  0.76256400  0.74973100  1
  O  O18  1  0.50000000  0.51380300  0.38798000  1
  O  O19  1  0.50000000  0.51380300  0.61202000  1
  O  O20  1  0.50000000  0.98771800  0.86233400  1
  O  O21  1  0.50000000  0.98384700  0.64157400  1
  O  O22  1  0.72425100  0.73663600  0.50000000  1
  O  O23  1  0.72415400  0.76256400  0.74973100  1
  O  O24  1  0.77584600  0.23743600  0.75026900  1
  O  O25  1  0.77574900  0.26336400  0.00000000  1
  O  O26  1  0.00000000  0.01228200  0.63766600  1
  O  O27  1  0.00000000  0.01615300  0.85842600  1
  O  O28  1  0.00000000  0.48619700  0.88798000  1
  O  O29  1  0.22415400  0.23743600  0.75026900  1
  O  O30  1  0.22425100  0.26336400  0.00000000  1
  O  O31  1  0.50000000  0.51228500  0.88738500  1
loop_
_geom_bond_atom_site_label_1
_geom_bond_atom_site_label_2
_geom_bond_distance
_geom_bond_site_symmetry_2
Li0 O4 2.010670 1_545
Li0 O20 2.010670 1_544
Li0 O25 2.030556 1_555
Li0 O30 2.030556 1_555
Li1 O2 2.017004 1_555
Li1 O7 2.017004 1_455
Li1 O0 2.020620 1_555
Li1 O13 2.028872 1_555
Li2 O17 2.017004 1_555
Li2 O23 2.017004 1_455
Li2 O28 2.020620 1_555
Li2 O11 2.028872 1_555
Li3 O8 2.017004 1_555
Li3 O14 2.017004 1_555
Li3 O18 2.020620 1_555
Li3 O3 2.028872 1_555
Li4 O26 2.010670 1_565
Li4 O12 2.010670 1_565
Li4 O16 2.030556 1_555
Li4 O22 2.030556 1_455
Li5 O24 2.017004 1_555
Li5 O29 2.017004 1_555
Li5 O19 2.020620 1_555
Li5 O31 2.028872 1_555
O0 Ti1 2.007782 1_555
O0 Ti15 2.007782 1_455
O0 Ti0 2.048816 1_555
O1 Ti1 1.951856 1_555
O1 Ti2 1.978333 1_555
O1 Ti10 1.978333 1_554
O2 Ti3 2.014710 1_555
O2 Ti7 2.016036 1_565
O2 Ti2 2.032328 1_555
O3 Ti15 2.023614 1_555
O3 Ti1 2.023614 1_555
O3 Ti2 2.024598 1_555
O4 Ti2 2.011791 1_555
O4 Ti7 2.015090 1_565
O4 Ti4 2.015090 1_565
O5 Ti3 1.946753 1_555
O5 Ti7 1.986167 1_565
O5 Ti4 1.986167 1_565
O6 Ti15 1.951856 1_555
O6 Ti2 1.978333 1_555
O6 Ti10 1.978333 1_554
O7 Ti3 2.014710 1_555
O7 Ti4 2.016036 1_565
O7 Ti2 2.032328 1_555
O8 Ti0 2.014710 1_655
O8 Ti4 2.016036 1_555
O8 Ti5 2.032328 1_655
O9 Ti11 1.951856 1_555
O9 Ti5 1.978333 1_655
O9 Ti6 1.978333 1_655
O10 Ti0 1.946753 1_555
O10 Ti7 1.986167 1_555
O10 Ti4 1.986167 1_455
O11 Ti11 2.023614 1_455
O11 Ti8 2.023614 1_555
O11 Ti6 2.024598 1_555
O12 Ti5 2.011791 1_555
O12 Ti4 2.015090 1_455
O12 Ti7 2.015090 1_555
O13 Ti11 2.023614 1_455
O13 Ti8 2.023614 1_555
O13 Ti5 2.024598 1_555
O14 Ti0 2.014710 1_555
O14 Ti7 2.016036 1_555
O14 Ti5 2.032328 1_555
O15 Ti8 1.951856 1_555
O15 Ti6 1.978333 1_555
O15 Ti5 1.978333 1_555
O16 Ti9 2.010841 1_555
O16 Ti3 2.010841 1_555
O16 Ti8 2.041215 1_555
O17 Ti9 2.014710 1_555
O17 Ti14 2.016036 1_565
O17 Ti10 2.032328 1_555
O18 Ti8 2.007782 1_555
O18 Ti11 2.007782 1_555
O18 Ti3 2.048816 1_555
O19 Ti11 2.007782 1_555
O19 Ti8 2.007782 1_555
O19 Ti9 2.048816 1_555
O20 Ti10 2.011791 1_555
O20 Ti12 2.015090 1_565
O20 Ti14 2.015090 1_565
O21 Ti9 1.946753 1_555
O21 Ti12 1.986167 1_565
O21 Ti14 1.986167 1_565
O22 Ti3 2.010841 1_555
O22 Ti9 2.010841 1_555
O22 Ti11 2.041215 1_555
O23 Ti9 2.014710 1_555
O23 Ti12 2.016036 1_565
O23 Ti10 2.032328 1_555
O24 Ti13 2.014710 1_655
O24 Ti12 2.016036 1_555
O24 Ti6 2.032328 1_655
O25 Ti0 2.010841 1_655
O25 Ti13 2.010841 1_654
O25 Ti15 2.041215 1_555
O26 Ti6 2.011791 1_555
O26 Ti14 2.015090 1_555
O26 Ti12 2.015090 1_455
O27 Ti13 1.946753 1_555
O27 Ti14 1.986167 1_555
O27 Ti12 1.986167 1_455
O28 Ti1 2.007782 1_556
O28 Ti15 2.007782 1_456
O28 Ti13 2.048816 1_555
O29 Ti13 2.014710 1_555
O29 Ti14 2.016036 1_555
O29 Ti6 2.032328 1_555
O30 Ti0 2.010841 1_555
O30 Ti13 2.010841 1_554
O30 Ti1 2.041215 1_555
O31 Ti1 2.023614 1_556
O31 Ti15 2.023614 1_556
O31 Ti10 2.024598 1_555
