# generated using pymatgen
data_Fe4N
_symmetry_space_group_name_H-M   'P 1'
_cell_length_a   3.67367300
_cell_length_b   3.67367300
_cell_length_c   3.67367300
_cell_angle_alpha   90.00000000
_cell_angle_beta   90.00000000
_cell_angle_gamma   90.00000000
_symmetry_Int_Tables_number   1
_chemical_formula_structural   Fe4N
_chemical_formula_sum   'Fe4 N1'
_cell_volume   49.57942539
_cell_formula_units_Z   1
loop_
 _symmetry_equiv_pos_site_id
 _symmetry_equiv_pos_as_xyz
  1  'x, y, z'
loop_
 _atom_site_type_symbol
 _atom_site_label
 _atom_site_symmetry_multiplicity
 _atom_site_fract_x
 _atom_site_fract_y
 _atom_site_fract_z
 _atom_site_occupancy
  Fe  Fe0  1  0.00000000  0.50000000  0.50000000  1
  Fe  Fe1  1  0.50000000  0.50000000  0.00000000  1
  Fe  Fe2  1  0.50000000  0.00000000  0.50000000  1
  Fe  Fe3  1  0.00000000  0.00000000  0.00000000  1
  N  N0  1  0.50000000  0.50000000  0.50000000  1
loop_
_geom_bond_atom_site_label_1
_geom_bond_atom_site_label_2
_geom_bond_distance
_geom_bond_site_symmetry_2
Fe0 N0 1.836836 1_555
Fe0 N0 1.836836 1_455
Fe0 Fe3 2.597679 1_556
Fe0 Fe3 2.597679 1_566
Fe0 Fe3 2.597679 1_565
Fe0 Fe3 2.597679 1_555
Fe1 N0 1.836836 1_555
Fe1 N0 1.836836 1_554
Fe1 Fe3 2.597679 1_665
Fe1 Fe3 2.597679 1_555
Fe1 Fe3 2.597679 1_565
Fe1 Fe3 2.597679 1_655
Fe2 N0 1.836836 1_555
Fe2 N0 1.836836 1_545
Fe2 Fe3 2.597679 1_556
Fe2 Fe3 2.597679 1_555
Fe2 Fe3 2.597679 1_656
Fe2 Fe3 2.597679 1_655
