# generated using pymatgen
data_Cs2LiInCl6
_symmetry_space_group_name_H-M   'P 1'
_cell_length_a   12.82224581
_cell_length_b   12.82224581
_cell_length_c   12.82224595
_cell_angle_alpha   33.28121117
_cell_angle_beta   33.28121117
_cell_angle_gamma   33.28120665
_symmetry_Int_Tables_number   1
_chemical_formula_structural   Cs2LiInCl6
_chemical_formula_sum   'Cs4 Li2 In2 Cl12'
_cell_volume   565.17867412
_cell_formula_units_Z   2
loop_
 _symmetry_equiv_pos_site_id
 _symmetry_equiv_pos_as_xyz
  1  'x, y, z'
loop_
 _atom_site_type_symbol
 _atom_site_label
 _atom_site_symmetry_multiplicity
 _atom_site_fract_x
 _atom_site_fract_y
 _atom_site_fract_z
 _atom_site_occupancy
  Cs  Cs0  1  0.12594128  0.12594128  0.12594128  1
  Cs  Cs1  1  0.28991965  0.28991965  0.28991965  1
  Cs  Cs2  1  0.87405872  0.87405872  0.87405872  1
  Cs  Cs3  1  0.71008035  0.71008035  0.71008035  1
  Li  Li0  1  0.58833766  0.58833866  0.58833866  1
  Li  Li1  1  0.41166234  0.41166134  0.41166134  1
  In  In0  1  -0.00000000  0.00000000  0.00000000  1
  In  In1  1  0.50000000  0.50000000  0.50000000  1
  Cl  Cl0  1  0.79690353  0.79690353  0.28572016  1
  Cl  Cl1  1  0.20309647  0.20309647  0.71427984  1
  Cl  Cl2  1  0.38375942  0.85851341  0.38375942  1
  Cl  Cl3  1  0.38375942  0.38375942  0.85851341  1
  Cl  Cl4  1  0.61624058  0.14148659  0.61624058  1
  Cl  Cl5  1  0.85851341  0.38375942  0.38375942  1
  Cl  Cl6  1  0.79690353  0.28572016  0.79690353  1
  Cl  Cl7  1  0.14148659  0.61624058  0.61624058  1
  Cl  Cl8  1  0.71427984  0.20309647  0.20309647  1
  Cl  Cl9  1  0.61624058  0.61624058  0.14148659  1
  Cl  Cl10  1  0.20309647  0.71427984  0.20309647  1
  Cl  Cl11  1  0.28572016  0.79690353  0.79690353  1
loop_
_geom_bond_atom_site_label_1
_geom_bond_atom_site_label_2
_geom_bond_distance
_geom_bond_site_symmetry_2
Cl0 In0 2.533912 1_665
Cl0 Li0 2.572490 1_555
Cl0 Cs1 3.674082 1_565
Cl0 Cs1 3.674082 1_655
Cl0 Cs3 3.728528 1_555
Cl0 Cs2 3.740806 1_554
Cl1 In0 2.533912 1_556
Cl1 Li1 2.572490 1_555
Cl1 Cs3 3.674082 1_455
Cl1 Cs3 3.674082 1_545
Cl1 Cs1 3.728528 1_555
Cl1 Cs0 3.740806 1_556
Cl2 In1 2.525430 1_555
Cl2 Li0 2.623043 1_555
Cl2 Cs2 3.673730 1_455
Cl2 Cs2 3.673730 1_554
Cl2 Cs1 3.695679 1_565
Cl2 Cs0 3.739102 1_565
Cl3 In1 2.525430 1_555
Cl3 Li0 2.623043 1_555
Cl3 Cs2 3.673730 1_545
Cl3 Cs2 3.673730 1_455
Cl3 Cs1 3.695679 1_556
Cl3 Cs0 3.739103 1_556
Cl4 In1 2.525430 1_555
Cl4 Li1 2.623043 1_555
Cl4 Cs0 3.673730 1_655
Cl4 Cs0 3.673730 1_556
Cl4 Cs3 3.695679 1_545
Cl4 Cs2 3.739102 1_545
Cl5 In1 2.525430 1_555
Cl5 Li0 2.623048 1_555
Cl5 Cs2 3.673730 1_545
Cl5 Cs2 3.673730 1_554
Cl5 Cs1 3.695679 1_655
Cl5 Cs0 3.739102 1_655
Cl6 In0 2.533912 1_656
Cl6 Li0 2.572490 1_555
Cl6 Cs1 3.674082 1_556
Cl6 Cs1 3.674082 1_655
Cl6 Cs3 3.728528 1_555
Cl6 Cs2 3.740806 1_545
Cl7 In1 2.525430 1_555
Cl7 Li1 2.623048 1_555
Cl7 Cs0 3.673730 1_565
Cl7 Cs0 3.673730 1_556
Cl7 Cs3 3.695679 1_455
Cl7 Cs2 3.739102 1_455
Cl8 In0 2.533912 1_655
Cl8 Li1 2.572484 1_555
Cl8 Cs3 3.674082 1_554
Cl8 Cs3 3.674082 1_545
Cl8 Cs1 3.728528 1_555
Cl8 Cs0 3.740806 1_655
Cl9 In1 2.525430 1_555
Cl9 Li1 2.623043 1_555
Cl9 Cs0 3.673730 1_565
Cl9 Cs0 3.673730 1_655
Cl9 Cs3 3.695679 1_554
Cl9 Cs2 3.739103 1_554
Cl10 In0 2.533912 1_565
Cl10 Li1 2.572490 1_555
Cl10 Cs3 3.674082 1_554
Cl10 Cs3 3.674082 1_455
Cl10 Cs1 3.728528 1_555
Cl10 Cs0 3.740806 1_565
Cl11 In0 2.533912 1_566
Cl11 Li0 2.572484 1_555
Cl11 Cs1 3.674082 1_556
Cl11 Cs1 3.674082 1_565
Cl11 Cs3 3.728528 1_555
Cl11 Cs2 3.740806 1_455
