# generated using pymatgen
data_Dy(SiNi5)2
_symmetry_space_group_name_H-M   'P 1'
_cell_length_a   8.08381049
_cell_length_b   8.08383829
_cell_length_c   4.63172693
_cell_angle_alpha   90.00019283
_cell_angle_beta   89.99959371
_cell_angle_gamma   89.99999213
_symmetry_Int_Tables_number   1
_chemical_formula_structural   Dy(SiNi5)2
_chemical_formula_sum   'Dy2 Si4 Ni20'
_cell_volume   302.67509543
_cell_formula_units_Z   2
loop_
 _symmetry_equiv_pos_site_id
 _symmetry_equiv_pos_as_xyz
  1  'x, y, z'
loop_
 _atom_site_type_symbol
 _atom_site_label
 _atom_site_symmetry_multiplicity
 _atom_site_fract_x
 _atom_site_fract_y
 _atom_site_fract_z
 _atom_site_occupancy
  Dy  Dy0  1  0.00000716  0.49999176  0.22055679  1
  Dy  Dy1  1  0.49999274  0.00000777  0.77943385  1
  Si  Si0  1  0.74997782  0.74998641  0.50000770  1
  Si  Si1  1  0.25002209  0.74998632  0.50000758  1
  Si  Si2  1  0.74997784  0.25001354  0.50000761  1
  Si  Si3  1  0.25002189  0.25001369  0.50000765  1
  Ni  Ni0  1  0.74995610  0.25004643  -0.00000870  1
  Ni  Ni1  1  0.74995603  0.74995345  -0.00000867  1
  Ni  Ni2  1  0.25004338  0.25004672  -0.00000860  1
  Ni  Ni3  1  0.25004380  0.74995316  -0.00000875  1
  Ni  Ni4  1  0.35327901  0.49999664  0.23845532  1
  Ni  Ni5  1  0.00000309  0.14678486  0.23852378  1
  Ni  Ni6  1  0.00000303  0.85321116  0.23850941  1
  Ni  Ni7  1  0.64673893  0.49999559  0.23844180  1
  Ni  Ni8  1  0.14678508  0.00000421  0.76147614  1
  Ni  Ni9  1  0.85319736  0.00000407  0.76148749  1
  Ni  Ni10  1  0.49999779  0.35326280  0.76154175  1
  Ni  Ni11  1  0.49999764  0.64674256  0.76155589  1
  Ni  Ni12  1  0.77556925  0.49998455  0.72915713  1
  Ni  Ni13  1  0.00002003  0.72442068  0.72907817  1
  Ni  Ni14  1  0.00002002  0.27557942  0.72905642  1
  Ni  Ni15  1  0.22442889  0.49998534  0.72913951  1
  Ni  Ni16  1  0.72442164  0.00001542  0.27092960  1
  Ni  Ni17  1  0.27558017  0.00001469  0.27094706  1
  Ni  Ni18  1  0.49997918  0.77557559  0.27084628  1
  Ni  Ni19  1  0.49998006  0.22442318  0.27086776  1
loop_
_geom_bond_atom_site_label_1
_geom_bond_atom_site_label_2
_geom_bond_distance
_geom_bond_site_symmetry_2
Dy0 Ni5 2.856480 1_555
Dy0 Ni6 2.856579 1_555
Dy0 Ni7 2.856954 1_455
Dy0 Ni4 2.856986 1_555
Dy0 Ni15 2.910649 1_554
Dy0 Ni12 2.910687 1_454
Dy0 Ni14 2.910912 1_554
Dy0 Ni13 2.910927 1_554
Dy0 Ni14 2.972903 1_555
Dy0 Ni13 2.973055 1_555
Dy0 Ni15 2.973255 1_555
Dy0 Ni12 2.973379 1_455
Dy0 Ni2 3.035051 1_555
Dy0 Ni0 3.035143 1_455
Dy0 Ni3 3.035146 1_555
Dy0 Ni1 3.035235 1_455
Dy0 Si3 3.137461 1_555
Dy0 Si2 3.137526 1_455
Dy0 Si1 3.137543 1_555
Dy0 Si0 3.137606 1_455
Dy1 Ni9 2.856448 1_555
Dy1 Ni8 2.856476 1_555
Dy1 Ni10 2.856859 1_555
Dy1 Ni11 2.856939 1_545
Dy1 Ni19 2.910687 1_556
Dy1 Ni18 2.910703 1_546
Dy1 Ni17 2.910951 1_556
Dy1 Ni16 2.910990 1_556
Dy1 Ni17 2.972858 1_555
Dy1 Ni16 2.972982 1_555
Dy1 Ni19 2.973162 1_555
Dy1 Ni18 2.973314 1_545
Dy1 Ni2 3.035077 1_556
Dy1 Ni0 3.035160 1_556
Dy1 Ni3 3.035163 1_546
Dy1 Ni1 3.035249 1_546
Dy1 Si3 3.137330 1_555
Dy1 Si2 3.137392 1_555
Dy1 Si1 3.137405 1_545
Dy1 Si0 3.137467 1_545
Ni0 Si2 2.315788 1_554
Ni0 Si2 2.315939 1_555
Ni0 Ni12 2.387202 1_554
Ni0 Ni19 2.387556 1_555
Ni0 Ni16 2.388036 1_555
Ni0 Ni14 2.388236 1_654
Ni0 Ni7 2.449199 1_555
Ni0 Ni10 2.449264 1_554
Ni0 Ni9 2.449998 1_554
Ni0 Ni5 2.450153 1_655
Ni1 Si0 2.315788 1_554
Ni1 Si0 2.315939 1_555
Ni1 Ni12 2.387406 1_554
Ni1 Ni18 2.387508 1_555
Ni1 Ni13 2.388183 1_654
Ni1 Ni16 2.388241 1_565
Ni1 Ni11 2.449218 1_554
Ni1 Ni7 2.449263 1_555
Ni1 Ni9 2.450060 1_564
Ni1 Ni6 2.450110 1_655
Ni2 Si3 2.315788 1_554
Ni2 Si3 2.315939 1_555
Ni2 Ni4 2.449288 1_555
Ni2 Ni8 2.450075 1_554
Ni2 Ni5 2.450096 1_555
Ni3 Si1 2.315788 1_554
Ni3 Si1 2.315939 1_555
Ni3 Ni4 2.449337 1_555
Ni3 Ni6 2.450057 1_555
Ni3 Ni8 2.450139 1_564
Ni4 Ni7 2.372274 1_555
Ni4 Si3 2.499610 1_555
Ni4 Si1 2.499646 1_555
Ni5 Ni6 2.373202 1_545
Ni5 Si3 2.499615 1_555
Ni5 Si2 2.499642 1_455
Ni5 Ni8 2.774509 1_554
Ni5 Ni9 2.774563 1_454
Ni5 Ni8 2.946660 1_555
Ni5 Ni9 2.946767 1_455
Ni6 Si1 2.499640 1_555
Ni6 Si0 2.499667 1_455
Ni6 Ni8 2.774505 1_564
Ni6 Ni9 2.774558 1_464
Ni6 Ni8 2.946748 1_565
Ni6 Ni9 2.946854 1_465
Ni7 Si2 2.499591 1_555
Ni7 Si0 2.499642 1_555
Ni8 Ni9 2.373307 1_455
Ni8 Si3 2.499540 1_555
Ni8 Si1 2.499589 1_545
Ni9 Si2 2.499525 1_555
Ni9 Si0 2.499572 1_545
Ni10 Ni11 2.372443 1_555
Ni10 Ni2 2.449225 1_556
Ni10 Si3 2.499502 1_555
Ni10 Si2 2.499515 1_555
Ni10 Ni19 2.499953 1_555
Ni10 Ni15 2.528187 1_555
Ni10 Ni12 2.528195 1_555
Ni10 Ni19 2.578747 1_556
Ni10 Ni4 2.773634 1_556
Ni10 Ni7 2.773671 1_556
Ni10 Ni4 2.946812 1_555
Ni10 Ni7 2.946919 1_555
Ni11 Ni3 2.449173 1_556
Ni11 Si1 2.499520 1_555
Ni11 Si0 2.499536 1_555
Ni11 Ni18 2.500087 1_555
Ni11 Ni15 2.528321 1_555
Ni11 Ni12 2.528337 1_555
Ni11 Ni18 2.578568 1_556
Ni11 Ni4 2.773629 1_556
Ni11 Ni7 2.773675 1_556
Ni11 Ni4 2.946898 1_555
Ni11 Ni7 2.947013 1_555
Ni12 Si2 2.291855 1_555
Ni12 Si0 2.292081 1_555
Ni12 Ni7 2.500104 1_555
Ni12 Ni14 2.565717 1_655
Ni12 Ni13 2.565895 1_655
Ni12 Ni7 2.578530 1_556
Ni13 Si1 2.291878 1_555
Ni13 Si0 2.292177 1_455
Ni13 Ni3 2.387922 1_556
Ni13 Ni6 2.499351 1_555
Ni13 Ni8 2.528455 1_565
Ni13 Ni9 2.528674 1_465
Ni13 Ni15 2.565650 1_555
Ni13 Ni6 2.579026 1_556
Ni14 Si3 2.291829 1_555
Ni14 Si2 2.292130 1_455
Ni14 Ni2 2.387974 1_556
Ni14 Ni5 2.499206 1_555
Ni14 Ni8 2.528402 1_555
Ni14 Ni9 2.528624 1_455
Ni14 Ni15 2.565483 1_555
Ni14 Ni5 2.579199 1_556
Ni15 Si3 2.291821 1_555
Ni15 Si1 2.292037 1_555
Ni15 Ni2 2.387251 1_556
Ni15 Ni3 2.387444 1_556
Ni15 Ni4 2.500026 1_555
Ni15 Ni4 2.578740 1_556
Ni16 Si2 2.291869 1_555
Ni16 Si0 2.292095 1_545
Ni16 Ni9 2.499257 1_555
Ni16 Ni5 2.528453 1_655
Ni16 Ni6 2.528588 1_645
Ni16 Ni19 2.565680 1_555
Ni16 Ni18 2.565868 1_545
Ni16 Ni9 2.579019 1_554
Ni17 Si3 2.291838 1_555
Ni17 Si1 2.292053 1_545
Ni17 Ni2 2.388088 1_555
Ni17 Ni3 2.388283 1_545
Ni17 Ni8 2.499188 1_555
Ni17 Ni5 2.528431 1_555
Ni17 Ni6 2.528562 1_545
Ni17 Ni19 2.565446 1_555
Ni17 Ni18 2.565616 1_545
Ni17 Ni8 2.579218 1_554
Ni18 Si1 2.291769 1_555
Ni18 Si0 2.292079 1_555
Ni18 Ni3 2.387239 1_555
Ni18 Ni4 2.528174 1_555
Ni18 Ni7 2.528410 1_555
Ni19 Si3 2.291731 1_555
Ni19 Si2 2.292027 1_555
Ni19 Ni2 2.387302 1_555
Ni19 Ni4 2.528145 1_555
Ni19 Ni7 2.528360 1_555
