# generated using pymatgen
data_Pr
_symmetry_space_group_name_H-M   'P 1'
_cell_length_a   7.42177552
_cell_length_b   7.42177552
_cell_length_c   36.75205400
_cell_angle_alpha   90.00000000
_cell_angle_beta   90.00000000
_cell_angle_gamma   119.99999570
_symmetry_Int_Tables_number   1
_chemical_formula_structural   Pr
_chemical_formula_sum   Pr48
_cell_volume   1753.18560115
_cell_formula_units_Z   48
loop_
 _symmetry_equiv_pos_site_id
 _symmetry_equiv_pos_as_xyz
  1  'x, y, z'
loop_
 _atom_site_type_symbol
 _atom_site_label
 _atom_site_symmetry_multiplicity
 _atom_site_fract_x
 _atom_site_fract_y
 _atom_site_fract_z
 _atom_site_occupancy
  Pr  Pr0_0  1  0.49609000  0.34011950  0.45823750  1
  Pr  Pr0_1  1  0.49609000  0.34011950  0.95823750  1
  Pr  Pr0_2  1  0.49609000  0.84011950  0.45823750  1
  Pr  Pr0_3  1  0.49609000  0.84011950  0.95823750  1
  Pr  Pr0_4  1  0.99609000  0.34011950  0.45823750  1
  Pr  Pr0_5  1  0.99609000  0.34011950  0.95823750  1
  Pr  Pr0_6  1  0.99609000  0.84011950  0.45823750  1
  Pr  Pr0_7  1  0.99609000  0.84011950  0.95823750  1
  Pr  Pr1_0  1  0.15988050  0.15597000  0.12490450  1
  Pr  Pr1_1  1  0.15988050  0.15597000  0.62490450  1
  Pr  Pr1_2  1  0.15988050  0.65597000  0.12490450  1
  Pr  Pr1_3  1  0.15988050  0.65597000  0.62490450  1
  Pr  Pr1_4  1  0.65988050  0.15597000  0.12490450  1
  Pr  Pr1_5  1  0.65988050  0.15597000  0.62490450  1
  Pr  Pr1_6  1  0.65988050  0.65597000  0.12490450  1
  Pr  Pr1_7  1  0.65988050  0.65597000  0.62490450  1
  Pr  Pr2_0  1  0.34403000  0.00391000  0.29157100  1
  Pr  Pr2_1  1  0.34403000  0.00391000  0.79157100  1
  Pr  Pr2_2  1  0.34403000  0.50391000  0.29157100  1
  Pr  Pr2_3  1  0.34403000  0.50391000  0.79157100  1
  Pr  Pr2_4  1  0.84403000  0.00391000  0.29157100  1
  Pr  Pr2_5  1  0.84403000  0.00391000  0.79157100  1
  Pr  Pr2_6  1  0.84403000  0.50391000  0.29157100  1
  Pr  Pr2_7  1  0.84403000  0.50391000  0.79157100  1
  Pr  Pr3_0  1  0.00391000  0.34403000  0.20842900  1
  Pr  Pr3_1  1  0.00391000  0.34403000  0.70842900  1
  Pr  Pr3_2  1  0.00391000  0.84403000  0.20842900  1
  Pr  Pr3_3  1  0.00391000  0.84403000  0.70842900  1
  Pr  Pr3_4  1  0.50391000  0.34403000  0.20842900  1
  Pr  Pr3_5  1  0.50391000  0.34403000  0.70842900  1
  Pr  Pr3_6  1  0.50391000  0.84403000  0.20842900  1
  Pr  Pr3_7  1  0.50391000  0.84403000  0.70842900  1
  Pr  Pr4_0  1  0.34011950  0.49609000  0.04176250  1
  Pr  Pr4_1  1  0.34011950  0.49609000  0.54176250  1
  Pr  Pr4_2  1  0.34011950  0.99609000  0.04176250  1
  Pr  Pr4_3  1  0.34011950  0.99609000  0.54176250  1
  Pr  Pr4_4  1  0.84011950  0.49609000  0.04176250  1
  Pr  Pr4_5  1  0.84011950  0.49609000  0.54176250  1
  Pr  Pr4_6  1  0.84011950  0.99609000  0.04176250  1
  Pr  Pr4_7  1  0.84011950  0.99609000  0.54176250  1
  Pr  Pr5_0  1  0.15597000  0.15988050  0.37509550  1
  Pr  Pr5_1  1  0.15597000  0.15988050  0.87509550  1
  Pr  Pr5_2  1  0.15597000  0.65988050  0.37509550  1
  Pr  Pr5_3  1  0.15597000  0.65988050  0.87509550  1
  Pr  Pr5_4  1  0.65597000  0.15988050  0.37509550  1
  Pr  Pr5_5  1  0.65597000  0.15988050  0.87509550  1
  Pr  Pr5_6  1  0.65597000  0.65988050  0.37509550  1
  Pr  Pr5_7  1  0.65597000  0.65988050  0.87509550  1
loop_
_geom_bond_atom_site_label_1
_geom_bond_atom_site_label_2
_geom_bond_distance
_geom_bond_site_symmetry_2
Pr0_0 Pr4_1 3.666485 1_555
Pr0_0 Pr5_6 3.682522 1_555
Pr0_0 Pr0_2 3.710888 1_545
Pr0_0 Pr0_4 3.710888 1_455
Pr0_0 Pr0_2 3.710888 1_555
Pr0_0 Pr0_4 3.710888 1_555
Pr0_0 Pr0_6 3.710888 1_445
Pr0_0 Pr0_6 3.710888 1_555
Pr0_0 Pr5_4 3.757879 1_555
Pr0_0 Pr5_0 3.757883 1_555
Pr0_0 Pr4_3 3.785086 1_545
Pr0_0 Pr4_5 3.785086 1_555
Pr0_1 Pr4_0 3.666485 1_556
Pr0_1 Pr5_7 3.682522 1_555
Pr0_1 Pr0_3 3.710888 1_545
Pr0_1 Pr0_5 3.710888 1_455
Pr0_1 Pr0_5 3.710888 1_555
Pr0_1 Pr0_3 3.710888 1_555
Pr0_1 Pr0_7 3.710888 1_445
Pr0_1 Pr0_7 3.710888 1_555
Pr0_1 Pr5_5 3.757879 1_555
Pr0_1 Pr5_1 3.757883 1_555
Pr0_1 Pr4_2 3.785086 1_546
Pr0_1 Pr4_4 3.785086 1_556
Pr0_2 Pr4_3 3.666485 1_555
Pr0_2 Pr5_4 3.682522 1_565
Pr0_2 Pr0_6 3.710888 1_555
Pr0_2 Pr0_6 3.710888 1_455
Pr0_2 Pr0_4 3.710888 1_455
Pr0_2 Pr0_4 3.710888 1_565
Pr0_2 Pr5_6 3.757879 1_555
Pr0_2 Pr5_2 3.757883 1_555
Pr0_2 Pr4_7 3.785086 1_555
Pr0_2 Pr4_1 3.785086 1_555
Pr0_3 Pr4_2 3.666485 1_556
Pr0_3 Pr5_5 3.682522 1_565
Pr0_3 Pr0_7 3.710888 1_555
Pr0_3 Pr0_7 3.710888 1_455
Pr0_3 Pr0_5 3.710888 1_565
Pr0_3 Pr0_5 3.710888 1_455
Pr0_3 Pr5_7 3.757879 1_555
Pr0_3 Pr5_3 3.757883 1_555
Pr0_3 Pr4_6 3.785086 1_556
Pr0_3 Pr4_0 3.785086 1_556
Pr0_4 Pr4_5 3.666485 1_555
Pr0_4 Pr5_2 3.682522 1_655
Pr0_4 Pr0_6 3.710888 1_555
Pr0_4 Pr0_6 3.710888 1_545
Pr0_4 Pr5_0 3.757879 1_655
Pr0_4 Pr5_4 3.757883 1_555
Pr0_4 Pr4_1 3.785086 1_655
Pr0_4 Pr4_7 3.785086 1_545
Pr0_5 Pr4_4 3.666485 1_556
Pr0_5 Pr5_3 3.682522 1_655
Pr0_5 Pr0_7 3.710888 1_555
Pr0_5 Pr0_7 3.710888 1_545
Pr0_5 Pr5_1 3.757879 1_655
Pr0_5 Pr5_5 3.757883 1_555
Pr0_5 Pr4_0 3.785086 1_656
Pr0_5 Pr4_6 3.785086 1_546
Pr0_6 Pr4_7 3.666485 1_555
Pr0_6 Pr5_0 3.682522 1_665
Pr0_6 Pr5_2 3.757879 1_655
Pr0_6 Pr5_6 3.757883 1_555
Pr0_6 Pr4_5 3.785086 1_555
Pr0_6 Pr4_3 3.785086 1_655
Pr0_7 Pr4_6 3.666485 1_556
Pr0_7 Pr5_1 3.682522 1_665
Pr0_7 Pr5_3 3.757879 1_655
Pr0_7 Pr5_7 3.757883 1_555
Pr0_7 Pr4_4 3.785086 1_556
Pr0_7 Pr4_2 3.785086 1_656
Pr1_0 Pr3_2 3.666466 1_545
Pr1_0 Pr4_6 3.682522 1_445
Pr1_0 Pr1_2 3.710888 1_545
Pr1_0 Pr1_4 3.710888 1_455
Pr1_0 Pr1_2 3.710888 1_555
Pr1_0 Pr1_4 3.710888 1_555
Pr1_0 Pr1_6 3.710888 1_445
Pr1_0 Pr1_6 3.710888 1_555
Pr1_0 Pr4_2 3.757879 1_545
Pr1_0 Pr4_0 3.757883 1_555
Pr1_0 Pr3_4 3.785071 1_555
Pr1_0 Pr3_0 3.785075 1_555
Pr1_1 Pr3_3 3.666466 1_545
Pr1_1 Pr4_7 3.682522 1_445
Pr1_1 Pr1_5 3.710888 1_555
Pr1_1 Pr1_3 3.710888 1_555
Pr1_1 Pr1_5 3.710888 1_455
Pr1_1 Pr1_3 3.710888 1_545
Pr1_1 Pr1_7 3.710888 1_445
Pr1_1 Pr1_7 3.710888 1_555
Pr1_1 Pr4_3 3.757879 1_545
Pr1_1 Pr4_1 3.757883 1_555
Pr1_1 Pr3_5 3.785071 1_555
Pr1_1 Pr3_1 3.785075 1_555
Pr1_2 Pr3_0 3.666466 1_555
Pr1_2 Pr4_4 3.682522 1_455
Pr1_2 Pr1_6 3.710888 1_455
Pr1_2 Pr1_6 3.710888 1_555
Pr1_2 Pr1_4 3.710888 1_565
Pr1_2 Pr1_4 3.710888 1_455
Pr1_2 Pr4_0 3.757879 1_555
Pr1_2 Pr4_2 3.757883 1_555
Pr1_2 Pr3_6 3.785071 1_555
Pr1_2 Pr3_2 3.785075 1_555
Pr1_3 Pr3_1 3.666466 1_555
Pr1_3 Pr4_5 3.682522 1_455
Pr1_3 Pr1_7 3.710888 1_455
Pr1_3 Pr1_7 3.710888 1_555
Pr1_3 Pr1_5 3.710888 1_565
Pr1_3 Pr1_5 3.710888 1_455
Pr1_3 Pr4_1 3.757879 1_555
Pr1_3 Pr4_3 3.757883 1_555
Pr1_3 Pr3_7 3.785071 1_555
Pr1_3 Pr3_3 3.785075 1_555
Pr1_4 Pr3_6 3.666466 1_545
Pr1_4 Pr4_2 3.682522 1_545
Pr1_4 Pr1_6 3.710888 1_545
Pr1_4 Pr1_6 3.710888 1_555
Pr1_4 Pr4_6 3.757879 1_545
Pr1_4 Pr4_4 3.757883 1_555
Pr1_4 Pr3_0 3.785071 1_655
Pr1_4 Pr3_4 3.785075 1_555
Pr1_5 Pr3_7 3.666466 1_545
Pr1_5 Pr4_3 3.682522 1_545
Pr1_5 Pr1_7 3.710888 1_545
Pr1_5 Pr1_7 3.710888 1_555
Pr1_5 Pr4_7 3.757879 1_545
Pr1_5 Pr4_5 3.757883 1_555
Pr1_5 Pr3_1 3.785071 1_655
Pr1_5 Pr3_5 3.785075 1_555
Pr1_6 Pr3_4 3.666466 1_555
Pr1_6 Pr4_0 3.682522 1_555
Pr1_6 Pr4_4 3.757879 1_555
Pr1_6 Pr4_6 3.757883 1_555
Pr1_6 Pr3_2 3.785071 1_655
Pr1_6 Pr3_6 3.785075 1_555
Pr1_7 Pr3_5 3.666466 1_555
Pr1_7 Pr4_1 3.682522 1_555
Pr1_7 Pr4_5 3.757879 1_555
Pr1_7 Pr4_7 3.757883 1_555
Pr1_7 Pr3_3 3.785071 1_655
Pr1_7 Pr3_7 3.785075 1_555
Pr2_0 Pr5_4 3.666466 1_555
Pr2_0 Pr3_6 3.682519 1_545
Pr2_0 Pr2_4 3.710888 1_455
Pr2_0 Pr2_2 3.710888 1_545
Pr2_0 Pr2_2 3.710888 1_555
Pr2_0 Pr2_4 3.710888 1_555
Pr2_0 Pr2_6 3.710888 1_445
Pr2_0 Pr2_6 3.710888 1_555
Pr2_0 Pr3_4 3.757883 1_555
Pr2_0 Pr3_2 3.757883 1_545
Pr2_0 Pr5_2 3.785071 1_545
Pr2_0 Pr5_0 3.785075 1_555
Pr2_1 Pr5_5 3.666466 1_555
Pr2_1 Pr3_7 3.682519 1_545
Pr2_1 Pr2_5 3.710888 1_455
Pr2_1 Pr2_5 3.710888 1_555
Pr2_1 Pr2_3 3.710888 1_555
Pr2_1 Pr2_3 3.710888 1_545
Pr2_1 Pr2_7 3.710888 1_445
Pr2_1 Pr2_7 3.710888 1_555
Pr2_1 Pr3_5 3.757883 1_555
Pr2_1 Pr3_3 3.757883 1_545
Pr2_1 Pr5_3 3.785071 1_545
Pr2_1 Pr5_1 3.785075 1_555
Pr2_2 Pr5_6 3.666466 1_555
Pr2_2 Pr3_4 3.682519 1_555
Pr2_2 Pr2_6 3.710888 1_555
Pr2_2 Pr2_6 3.710888 1_455
Pr2_2 Pr2_4 3.710888 1_455
Pr2_2 Pr2_4 3.710888 1_565
Pr2_2 Pr3_0 3.757883 1_555
Pr2_2 Pr3_6 3.757883 1_555
Pr2_2 Pr5_0 3.785071 1_555
Pr2_2 Pr5_2 3.785075 1_555
Pr2_3 Pr5_7 3.666466 1_555
Pr2_3 Pr3_5 3.682519 1_555
Pr2_3 Pr2_7 3.710888 1_555
Pr2_3 Pr2_7 3.710888 1_455
Pr2_3 Pr2_5 3.710888 1_455
Pr2_3 Pr2_5 3.710888 1_565
Pr2_3 Pr3_7 3.757883 1_555
Pr2_3 Pr3_1 3.757883 1_555
Pr2_3 Pr5_1 3.785071 1_555
Pr2_3 Pr5_3 3.785075 1_555
Pr2_4 Pr5_0 3.666466 1_655
Pr2_4 Pr3_2 3.682519 1_645
Pr2_4 Pr2_6 3.710888 1_545
Pr2_4 Pr2_6 3.710888 1_555
Pr2_4 Pr3_6 3.757883 1_545
Pr2_4 Pr3_0 3.757883 1_655
Pr2_4 Pr5_6 3.785071 1_545
Pr2_4 Pr5_4 3.785075 1_555
Pr2_5 Pr5_1 3.666466 1_655
Pr2_5 Pr3_3 3.682519 1_645
Pr2_5 Pr2_7 3.710888 1_545
Pr2_5 Pr2_7 3.710888 1_555
Pr2_5 Pr3_7 3.757883 1_545
Pr2_5 Pr3_1 3.757883 1_655
Pr2_5 Pr5_7 3.785071 1_545
Pr2_5 Pr5_5 3.785075 1_555
Pr2_6 Pr5_2 3.666466 1_655
Pr2_6 Pr3_0 3.682519 1_655
Pr2_6 Pr3_2 3.757883 1_655
Pr2_6 Pr3_4 3.757883 1_555
Pr2_6 Pr5_4 3.785071 1_555
Pr2_6 Pr5_6 3.785075 1_555
Pr2_7 Pr5_3 3.666466 1_655
Pr2_7 Pr3_1 3.682519 1_655
Pr2_7 Pr3_3 3.757883 1_655
Pr2_7 Pr3_5 3.757883 1_555
Pr2_7 Pr5_5 3.785071 1_555
Pr2_7 Pr5_7 3.785075 1_555
Pr3_0 Pr3_2 3.710888 1_555
Pr3_0 Pr3_4 3.710888 1_455
Pr3_0 Pr3_2 3.710888 1_545
Pr3_0 Pr3_4 3.710888 1_555
Pr3_0 Pr3_6 3.710888 1_445
Pr3_0 Pr3_6 3.710888 1_555
Pr3_1 Pr3_3 3.710888 1_555
Pr3_1 Pr3_5 3.710888 1_455
Pr3_1 Pr3_3 3.710888 1_545
Pr3_1 Pr3_5 3.710888 1_555
Pr3_1 Pr3_7 3.710888 1_445
Pr3_1 Pr3_7 3.710888 1_555
Pr3_2 Pr3_6 3.710888 1_455
Pr3_2 Pr3_6 3.710888 1_555
Pr3_2 Pr3_4 3.710888 1_565
Pr3_2 Pr3_4 3.710888 1_455
Pr3_3 Pr3_7 3.710888 1_455
Pr3_3 Pr3_7 3.710888 1_555
Pr3_3 Pr3_5 3.710888 1_455
Pr3_3 Pr3_5 3.710888 1_565
Pr3_4 Pr3_6 3.710888 1_555
Pr3_4 Pr3_6 3.710888 1_545
Pr3_5 Pr3_7 3.710888 1_555
Pr3_5 Pr3_7 3.710888 1_545
Pr4_0 Pr4_2 3.710888 1_555
Pr4_0 Pr4_4 3.710888 1_455
Pr4_0 Pr4_2 3.710888 1_545
Pr4_0 Pr4_4 3.710888 1_555
Pr4_0 Pr4_6 3.710888 1_555
Pr4_0 Pr4_6 3.710888 1_445
Pr4_1 Pr4_3 3.710888 1_555
Pr4_1 Pr4_5 3.710888 1_455
Pr4_1 Pr4_3 3.710888 1_545
Pr4_1 Pr4_5 3.710888 1_555
Pr4_1 Pr4_7 3.710888 1_445
Pr4_1 Pr4_7 3.710888 1_555
Pr4_2 Pr4_6 3.710888 1_555
Pr4_2 Pr4_6 3.710888 1_455
Pr4_2 Pr4_4 3.710888 1_455
Pr4_2 Pr4_4 3.710888 1_565
Pr4_3 Pr4_7 3.710888 1_555
Pr4_3 Pr4_7 3.710888 1_455
Pr4_3 Pr4_5 3.710888 1_565
Pr4_3 Pr4_5 3.710888 1_455
Pr4_4 Pr4_6 3.710888 1_555
Pr4_4 Pr4_6 3.710888 1_545
Pr4_5 Pr4_7 3.710888 1_555
Pr4_5 Pr4_7 3.710888 1_545
Pr5_0 Pr5_2 3.710888 1_545
Pr5_0 Pr5_4 3.710888 1_555
Pr5_0 Pr5_2 3.710888 1_555
Pr5_0 Pr5_4 3.710888 1_455
Pr5_0 Pr5_6 3.710888 1_445
Pr5_0 Pr5_6 3.710888 1_555
Pr5_1 Pr5_3 3.710888 1_555
Pr5_1 Pr5_5 3.710888 1_455
Pr5_1 Pr5_5 3.710888 1_555
Pr5_1 Pr5_3 3.710888 1_545
Pr5_1 Pr5_7 3.710888 1_445
Pr5_1 Pr5_7 3.710888 1_555
Pr5_2 Pr5_6 3.710888 1_455
Pr5_2 Pr5_6 3.710888 1_555
Pr5_2 Pr5_4 3.710888 1_565
Pr5_2 Pr5_4 3.710888 1_455
Pr5_3 Pr5_7 3.710888 1_455
Pr5_3 Pr5_7 3.710888 1_555
Pr5_3 Pr5_5 3.710888 1_565
Pr5_3 Pr5_5 3.710888 1_455
Pr5_4 Pr5_6 3.710888 1_545
Pr5_4 Pr5_6 3.710888 1_555
Pr5_5 Pr5_7 3.710888 1_545
Pr5_5 Pr5_7 3.710888 1_555
