# generated using pymatgen
data_K4Ba(VS4)2
_symmetry_space_group_name_H-M   'P 1'
_cell_length_a   11.52454065
_cell_length_b   11.52454065
_cell_length_c   11.52454065
_cell_angle_alpha   133.52433370
_cell_angle_beta   128.39767515
_cell_angle_gamma   71.95411383
_symmetry_Int_Tables_number   1
_chemical_formula_structural   K4Ba(VS4)2
_chemical_formula_sum   'K8 Ba2 V4 S16'
_cell_volume   850.85119371
_cell_formula_units_Z   2
loop_
 _symmetry_equiv_pos_site_id
 _symmetry_equiv_pos_as_xyz
  1  'x, y, z'
loop_
 _atom_site_type_symbol
 _atom_site_label
 _atom_site_symmetry_multiplicity
 _atom_site_fract_x
 _atom_site_fract_y
 _atom_site_fract_z
 _atom_site_occupancy
  K  K0  1  0.49851400  0.24851400  0.25000000  1
  K  K1  1  0.00148600  0.75148600  0.25000000  1
  K  K2  1  0.57714200  0.70309200  0.12595000  1
  K  K3  1  0.42285800  0.29690800  0.87405000  1
  K  K4  1  0.50148600  0.75148600  0.75000000  1
  K  K5  1  0.07714200  0.45119200  0.37405000  1
  K  K6  1  0.92285800  0.54880800  0.62595000  1
  K  K7  1  0.99851400  0.24851400  0.75000000  1
  Ba  Ba0  1  0.25000000  0.00000000  0.25000000  1
  Ba  Ba1  1  0.75000000  0.00000000  0.75000000  1
  V  V0  1  0.13404500  0.92546300  0.79141800  1
  V  V1  1  0.86595500  0.07453700  0.20858200  1
  V  V2  1  0.36595500  0.65737300  0.29141800  1
  V  V3  1  0.63404500  0.34262700  0.70858200  1
  S  S0  1  0.58753000  0.60378100  0.36810100  1
  S  S1  1  0.75137500  0.98350200  0.23212700  1
  S  S2  1  0.89238400  0.86847600  0.97609200  1
  S  S3  1  0.76432000  0.39621900  0.98374900  1
  S  S4  1  0.73568000  0.21942900  0.13189900  1
  S  S5  1  0.74862500  0.48075200  0.73212700  1
  S  S6  1  0.24862500  0.01649800  0.76787300  1
  S  S7  1  0.23568000  0.60378100  0.01625100  1
  S  S8  1  0.25137500  0.51924800  0.26787300  1
  S  S9  1  0.26432000  0.78057100  0.86810100  1
  S  S10  1  0.10761600  0.13152400  0.02390800  1
  S  S11  1  0.91247000  0.78057100  0.51625100  1
  S  S12  1  0.08753000  0.21942900  0.48374900  1
  S  S13  1  0.60761600  0.08370800  0.47609200  1
  S  S14  1  0.41247000  0.39621900  0.63189900  1
  S  S15  1  0.39238400  0.91629200  0.52390800  1
loop_
_geom_bond_atom_site_label_1
_geom_bond_atom_site_label_2
_geom_bond_distance
_geom_bond_site_symmetry_2
K0 S5 3.278161 1_555
K0 S6 3.278161 1_554
K0 S8 3.496755 1_555
K0 S1 3.496755 1_545
K0 S4 3.586171 1_555
K0 S0 3.586171 1_555
K0 S13 3.639283 1_555
K0 S10 3.639283 1_555
K1 S1 3.278161 1_455
K1 S8 3.278161 1_555
K1 S6 3.496755 1_565
K1 S5 3.496755 1_454
K1 S3 3.586171 1_454
K1 S11 3.586171 1_455
K1 S2 3.639283 1_454
K1 S15 3.639283 1_555
K2 S13 3.234523 1_565
K2 S9 3.313120 1_554
K2 S11 3.313120 1_555
K2 S1 3.390292 1_555
K2 S14 3.395373 1_554
K2 S3 3.395373 1_554
K2 S0 3.607126 1_555
K2 S7 3.607126 1_555
K3 S15 3.234523 1_545
K3 S12 3.313120 1_555
K3 S4 3.313120 1_556
K3 S6 3.390292 1_555
K3 S0 3.395373 1_556
K3 S7 3.395373 1_556
K3 S14 3.607126 1_555
K3 S3 3.607126 1_555
K4 S1 3.278161 1_556
K4 S8 3.278161 1_555
K4 S6 3.496755 1_565
K4 S5 3.496755 1_555
K4 S14 3.586171 1_555
K4 S9 3.586171 1_555
K4 S2 3.639283 1_555
K4 S15 3.639283 1_555
K5 S10 3.234523 1_555
K5 S14 3.313120 1_555
K5 S3 3.313120 1_454
K5 S8 3.390292 1_555
K5 S11 3.395373 1_455
K5 S9 3.395373 1_555
K5 S4 3.607126 1_455
K5 S12 3.607126 1_555
K6 S2 3.234523 1_555
K6 S7 3.313120 1_656
K6 S0 3.313120 1_555
K6 S5 3.390292 1_555
K6 S4 3.395373 1_555
K6 S12 3.395373 1_655
K6 S11 3.607126 1_555
K6 S9 3.607126 1_655
K7 S6 3.278161 1_655
K7 S5 3.278161 1_555
K7 S8 3.496755 1_656
K7 S1 3.496755 1_545
K7 S12 3.586171 1_655
K7 S7 3.586171 1_656
K7 S10 3.639283 1_656
K7 S13 3.639283 1_555
Ba0 S13 3.219744 1_555
Ba0 S15 3.219744 1_545
Ba0 S10 3.219744 1_555
Ba0 S2 3.219744 1_444
Ba0 S7 3.332730 1_545
Ba0 S14 3.332730 1_555
Ba0 S12 3.332730 1_555
Ba0 S9 3.332730 1_544
Ba1 S10 3.219744 1_656
Ba1 S13 3.219744 1_555
Ba1 S15 3.219744 1_545
Ba1 S2 3.219744 1_545
Ba1 S3 3.332730 1_555
Ba1 S0 3.332730 1_545
Ba1 S11 3.332730 1_545
Ba1 S4 3.332730 1_556
S0 V2 2.157408 1_555
S1 V1 2.147905 1_565
S2 V1 2.170971 1_566
S3 V3 2.157408 1_555
S4 V1 2.157408 1_555
S5 V3 2.147905 1_555
S6 V0 2.147905 1_545
S7 V2 2.157408 1_555
S8 V2 2.147905 1_555
S9 V0 2.157408 1_555
S10 V0 2.170971 1_544
S11 V0 2.157408 1_655
S12 V1 2.157408 1_455
S13 V3 2.170971 1_555
S14 V3 2.157408 1_555
S15 V2 2.170971 1_555
