# generated using pymatgen
data_K4Na2(Si2O5)3
_symmetry_space_group_name_H-M   'P 1'
_cell_length_a   10.70230198
_cell_length_b   10.70230198
_cell_length_c   12.87780084
_cell_angle_alpha   64.07127074
_cell_angle_beta   64.07127074
_cell_angle_gamma   40.48567449
_symmetry_Int_Tables_number   1
_chemical_formula_structural   K4Na2(Si2O5)3
_chemical_formula_sum   'K8 Na4 Si12 O30'
_cell_volume   847.30777930
_cell_formula_units_Z   2
loop_
 _symmetry_equiv_pos_site_id
 _symmetry_equiv_pos_as_xyz
  1  'x, y, z'
loop_
 _atom_site_type_symbol
 _atom_site_label
 _atom_site_symmetry_multiplicity
 _atom_site_fract_x
 _atom_site_fract_y
 _atom_site_fract_z
 _atom_site_occupancy
  K  K0  1  0.43674100  0.68811200  0.33437000  1
  K  K1  1  0.31188800  0.56325900  0.16563000  1
  K  K2  1  0.56325900  0.31188800  0.66563000  1
  K  K3  1  0.68811200  0.43674100  0.83437000  1
  K  K4  1  0.92632100  0.57522400  0.16502800  1
  K  K5  1  0.42477600  0.07367900  0.33497200  1
  K  K6  1  0.07367900  0.42477600  0.83497200  1
  K  K7  1  0.57522400  0.92632100  0.66502800  1
  Na  Na0  1  0.99320700  0.16898500  0.40801900  1
  Na  Na1  1  0.83101500  0.00679300  0.09198100  1
  Na  Na2  1  0.00679300  0.83101500  0.59198100  1
  Na  Na3  1  0.16898500  0.99320700  0.90801900  1
  Si  Si0  1  0.75738000  0.54599100  0.49773500  1
  Si  Si1  1  0.45400900  0.24262000  0.00226500  1
  Si  Si2  1  0.24262000  0.45400900  0.50226500  1
  Si  Si3  1  0.54599100  0.75738000  0.99773500  1
  Si  Si4  1  0.32043500  0.81292500  0.61387400  1
  Si  Si5  1  0.18707500  0.67956500  0.88612600  1
  Si  Si6  1  0.67956500  0.18707500  0.38612600  1
  Si  Si7  1  0.81292500  0.32043500  0.11387400  1
  Si  Si8  1  0.87430700  0.77703100  0.38479500  1
  Si  Si9  1  0.22296900  0.12569300  0.11520500  1
  Si  Si10  1  0.12569300  0.22296900  0.61520500  1
  Si  Si11  1  0.77703100  0.87430700  0.88479500  1
  O  O0  1  0.75641900  0.53075000  0.38083200  1
  O  O1  1  0.46925000  0.24358100  0.11916800  1
  O  O2  1  0.24358100  0.46925000  0.61916800  1
  O  O3  1  0.53075000  0.75641900  0.88083200  1
  O  O4  1  0.77059100  0.69859300  0.48223500  1
  O  O5  1  0.30140700  0.22940900  0.01776500  1
  O  O6  1  0.22940900  0.30140700  0.51776500  1
  O  O7  1  0.69859300  0.77059100  0.98223500  1
  O  O8  1  0.94271000  0.32656600  0.56136500  1
  O  O9  1  0.67343400  0.05729000  0.93863500  1
  O  O10  1  0.05729000  0.67343400  0.43863500  1
  O  O11  1  0.32656600  0.94271000  0.06136500  1
  O  O12  1  0.56252900  0.61414600  0.60318400  1
  O  O13  1  0.38585400  0.43747100  0.89681600  1
  O  O14  1  0.43747100  0.38585400  0.39681600  1
  O  O15  1  0.61414600  0.56252900  0.10318400  1
  O  O16  1  0.22559300  0.85840100  0.52060100  1
  O  O17  1  0.14159900  0.77440700  0.97939900  1
  O  O18  1  0.77440700  0.14159900  0.47939900  1
  O  O19  1  0.85840100  0.22559300  0.02060100  1
  O  O20  1  0.29902200  0.98990700  0.60093400  1
  O  O21  1  0.01009300  0.70097800  0.89906600  1
  O  O22  1  0.70097800  0.01009300  0.39906600  1
  O  O23  1  0.98990700  0.29902200  0.10093400  1
  O  O24  1  0.23066700  0.76933300  0.75000000  1
  O  O25  1  0.76933300  0.23066700  0.25000000  1
  O  O26  1  0.93082600  0.75234000  0.25433100  1
  O  O27  1  0.24766000  0.06917400  0.24566900  1
  O  O28  1  0.06917400  0.24766000  0.74566900  1
  O  O29  1  0.75234000  0.93082600  0.75433100  1
loop_
_geom_bond_atom_site_label_1
_geom_bond_atom_site_label_2
_geom_bond_distance
_geom_bond_site_symmetry_2
K0 O16 2.645343 1_555
K0 O0 2.654021 1_555
K0 O27 2.725038 1_565
K0 O14 2.967016 1_555
K0 O15 2.991510 1_555
K1 O17 2.645343 1_554
K1 O1 2.654021 1_555
K1 O26 2.725038 1_455
K1 O15 2.967016 1_555
K1 O14 2.991510 1_555
K2 O18 2.645343 1_555
K2 O2 2.654021 1_555
K2 O29 2.725038 1_545
K2 O12 2.967016 1_555
K2 O13 2.991510 1_555
K3 O19 2.645343 1_556
K3 O3 2.654021 1_555
K3 O28 2.725038 1_655
K3 O13 2.967016 1_555
K3 O12 2.991510 1_555
K4 O0 2.645147 1_555
K4 O26 2.647992 1_555
K4 O23 2.909437 1_555
K4 O7 2.968895 1_554
K4 O21 3.076495 1_654
K4 O5 3.207720 1_655
K5 O1 2.645147 1_555
K5 O27 2.647992 1_555
K5 O22 2.909437 1_555
K5 O6 2.968895 1_555
K5 O20 3.076495 1_545
K5 O4 3.207720 1_545
K6 O2 2.645147 1_555
K6 O28 2.647992 1_555
K6 O21 2.909437 1_555
K6 O5 2.968895 1_556
K6 O23 3.076495 1_456
K6 O7 3.207720 1_455
K7 O3 2.645147 1_555
K7 O29 2.647992 1_555
K7 O20 2.909437 1_555
K7 O4 2.968895 1_555
K7 O22 3.076495 1_565
K7 O6 3.207720 1_565
Na0 O18 2.310903 1_555
Na0 O27 2.340350 1_655
Na0 O16 2.387466 1_645
Na0 O0 2.490080 1_555
Na0 O8 2.762009 1_555
Na1 O19 2.310903 1_555
Na1 O26 2.340350 1_545
Na1 O17 2.387466 1_644
Na1 O1 2.490080 1_555
Na1 O9 2.762009 1_554
Na2 O16 2.310903 1_555
Na2 O29 2.340350 1_455
Na2 O18 2.387466 1_465
Na2 O2 2.490080 1_555
Na2 O10 2.762009 1_555
Na3 O17 2.310903 1_555
Na3 O28 2.340350 1_565
Na3 O19 2.387466 1_466
Na3 O3 2.490080 1_555
Na3 O11 2.762009 1_556
O0 Si0 1.588691 1_555
O1 Si1 1.588691 1_555
O2 Si2 1.588691 1_555
O3 Si3 1.588691 1_555
O4 Si0 1.663923 1_555
O4 Si8 1.670191 1_555
O5 Si1 1.663923 1_555
O5 Si9 1.670191 1_555
O6 Si2 1.663923 1_555
O6 Si10 1.670191 1_555
O7 Si3 1.663923 1_555
O7 Si11 1.670191 1_555
O8 Si10 1.660556 1_655
O8 Si0 1.665409 1_555
O9 Si11 1.660556 1_545
O9 Si1 1.665409 1_556
O10 Si8 1.660556 1_455
O10 Si2 1.665409 1_555
O11 Si9 1.660556 1_565
O11 Si3 1.665409 1_554
O12 Si0 1.673550 1_555
O12 Si4 1.678551 1_555
O13 Si1 1.673550 1_556
O13 Si5 1.678551 1_555
O14 Si2 1.673550 1_555
O14 Si6 1.678551 1_555
O15 Si3 1.673550 1_554
O15 Si7 1.678551 1_555
O16 Si4 1.585379 1_555
O17 Si5 1.585379 1_555
O18 Si6 1.585379 1_555
O19 Si7 1.585379 1_555
O20 Si10 1.661591 1_565
O20 Si4 1.662844 1_555
O21 Si11 1.661591 1_455
O21 Si5 1.662844 1_555
O22 Si8 1.661591 1_545
O22 Si6 1.662844 1_555
O23 Si9 1.661591 1_655
O23 Si7 1.662844 1_555
O24 Si5 1.645434 1_555
O24 Si4 1.645434 1_555
O25 Si6 1.645434 1_555
O25 Si7 1.645434 1_555
O26 Si8 1.585812 1_555
O27 Si9 1.585812 1_555
O28 Si10 1.585812 1_555
O29 Si11 1.585812 1_555
