# generated using pymatgen
data_Rb2YGa(SiO3)4
_symmetry_space_group_name_H-M   'P 1'
_cell_length_a   13.94815543
_cell_length_b   13.94815543
_cell_length_c   14.88542854
_cell_angle_alpha   58.06725840
_cell_angle_beta   58.06725840
_cell_angle_gamma   30.22180306
_symmetry_Int_Tables_number   1
_chemical_formula_structural   Rb2YGa(SiO3)4
_chemical_formula_sum   'Rb8 Y4 Ga4 Si16 O48'
_cell_volume   1219.44964134
_cell_formula_units_Z   4
loop_
 _symmetry_equiv_pos_site_id
 _symmetry_equiv_pos_as_xyz
  1  'x, y, z'
loop_
 _atom_site_type_symbol
 _atom_site_label
 _atom_site_symmetry_multiplicity
 _atom_site_fract_x
 _atom_site_fract_y
 _atom_site_fract_z
 _atom_site_occupancy
  Rb  Rb0  1  0.30034074  0.76974970  0.54620612  1
  Rb  Rb1  1  0.31487297  0.30316891  0.96568077  1
  Rb  Rb2  1  0.30316891  0.31487297  0.46568077  1
  Rb  Rb3  1  0.23025030  0.69965926  0.95379388  1
  Rb  Rb4  1  0.69965926  0.23025030  0.45379388  1
  Rb  Rb5  1  0.76974970  0.30034074  0.04620612  1
  Rb  Rb6  1  0.69683109  0.68512703  0.53431923  1
  Rb  Rb7  1  0.68512703  0.69683109  0.03431923  1
  Y  Y0  1  0.48629269  0.05149501  0.75033378  1
  Y  Y1  1  0.51370731  0.94850499  0.24966622  1
  Y  Y2  1  0.94850499  0.51370731  0.74966622  1
  Y  Y3  1  0.05149501  0.48629269  0.25033378  1
  Ga  Ga0  1  0.77126375  0.36806724  0.77461513  1
  Ga  Ga1  1  0.36806724  0.77126375  0.27461513  1
  Ga  Ga2  1  0.22873625  0.63193276  0.22538487  1
  Ga  Ga3  1  0.63193276  0.22873625  0.72538487  1
  Si  Si0  1  0.13957251  0.18731799  0.20290824  1
  Si  Si1  1  0.18731799  0.13957251  0.70290824  1
  Si  Si2  1  0.86040662  0.80216294  0.01038186  1
  Si  Si3  1  0.76017727  0.47915966  0.33892808  1
  Si  Si4  1  0.23982273  0.52084034  0.66107192  1
  Si  Si5  1  0.19783706  0.13959338  0.48961814  1
  Si  Si6  1  0.28858346  0.83591916  0.07771424  1
  Si  Si7  1  0.52084034  0.23982273  0.16107192  1
  Si  Si8  1  0.47915966  0.76017727  0.83892808  1
  Si  Si9  1  0.16408084  0.71141654  0.42228576  1
  Si  Si10  1  0.83591916  0.28858346  0.57771424  1
  Si  Si11  1  0.80216294  0.86040662  0.51038186  1
  Si  Si12  1  0.13959338  0.19783706  0.98961814  1
  Si  Si13  1  0.81268201  0.86042749  0.29709176  1
  Si  Si14  1  0.71141654  0.16408084  0.92228576  1
  Si  Si15  1  0.86042749  0.81268201  0.79709176  1
  O  O0  1  0.17452259  0.83633806  0.37967630  1
  O  O1  1  0.75787509  0.79620786  0.29671213  1
  O  O2  1  0.25048433  0.56470628  0.53279925  1
  O  O3  1  0.33181628  0.95189334  0.22716407  1
  O  O4  1  0.35073662  0.07428747  0.92364583  1
  O  O5  1  0.70577767  0.42771541  0.65912835  1
  O  O6  1  0.29422233  0.57228459  0.34087165  1
  O  O7  1  0.43731381  0.41842320  0.16355158  1
  O  O8  1  0.57228459  0.29422233  0.84087165  1
  O  O9  1  0.91625618  0.72706537  0.91348226  1
  O  O10  1  0.58157680  0.56268619  0.33644842  1
  O  O11  1  0.42771541  0.70577767  0.15912835  1
  O  O12  1  0.04357337  0.73001287  0.70290302  1
  O  O13  1  0.24212491  0.20379214  0.70328787  1
  O  O14  1  0.93757445  0.86605863  0.44208351  1
  O  O15  1  0.20379214  0.24212491  0.20328787  1
  O  O16  1  0.41842320  0.43731381  0.66355158  1
  O  O17  1  0.95642663  0.26998713  0.29709698  1
  O  O18  1  0.61888225  0.03344654  0.57809850  1
  O  O19  1  0.95189334  0.33181628  0.72716407  1
  O  O20  1  0.79620786  0.75787509  0.79671213  1
  O  O21  1  0.23791353  0.38686317  0.72723490  1
  O  O22  1  0.64926338  0.92571253  0.07635417  1
  O  O23  1  0.56470628  0.25048433  0.03279925  1
  O  O24  1  0.06242555  0.13394137  0.55791649  1
  O  O25  1  0.27293463  0.08374382  0.58651774  1
  O  O26  1  0.73001287  0.04357337  0.20290302  1
  O  O27  1  0.13394137  0.06242555  0.05791649  1
  O  O28  1  0.92571253  0.64926338  0.57635417  1
  O  O29  1  0.38111775  0.96655346  0.42190150  1
  O  O30  1  0.76208647  0.61313683  0.27276510  1
  O  O31  1  0.43529372  0.74951567  0.96720075  1
  O  O32  1  0.04810666  0.66818372  0.27283593  1
  O  O33  1  0.26998713  0.95642663  0.79709698  1
  O  O34  1  0.74951567  0.43529372  0.46720075  1
  O  O35  1  0.03344654  0.61888225  0.07809850  1
  O  O36  1  0.56268619  0.58157680  0.83644842  1
  O  O37  1  0.61313683  0.76208647  0.77276510  1
  O  O38  1  0.66818372  0.04810666  0.77283593  1
  O  O39  1  0.07428747  0.35073662  0.42364583  1
  O  O40  1  0.86605863  0.93757445  0.94208351  1
  O  O41  1  0.16366194  0.82547741  0.12032370  1
  O  O42  1  0.72706537  0.91625618  0.41348226  1
  O  O43  1  0.08374382  0.27293463  0.08651774  1
  O  O44  1  0.96655346  0.38111775  0.92190150  1
  O  O45  1  0.38686317  0.23791353  0.22723490  1
  O  O46  1  0.82547741  0.16366194  0.62032370  1
  O  O47  1  0.83633806  0.17452259  0.87967630  1
loop_
_geom_bond_atom_site_label_1
_geom_bond_atom_site_label_2
_geom_bond_distance
_geom_bond_site_symmetry_2
Ga0 O36 1.809431 1_555
Ga0 O5 1.821123 1_555
Ga0 O47 1.832576 1_555
Ga0 O19 1.842810 1_555
Ga1 O10 1.809431 1_555
Ga1 O11 1.821123 1_555
Ga1 O0 1.832576 1_555
Ga1 O3 1.842810 1_555
Ga2 O7 1.809431 1_555
Ga2 O6 1.821123 1_555
Ga2 O41 1.832576 1_555
Ga2 O32 1.842810 1_555
Ga3 O16 1.809431 1_555
Ga3 O8 1.821123 1_555
Ga3 O46 1.832576 1_555
Ga3 O38 1.842810 1_555
O0 Si9 1.622129 1_555
O0 Rb0 3.071930 1_555
O0 Rb4 3.326679 1_465
O1 Si13 1.606264 1_555
O1 Y1 2.246856 1_555
O1 Y3 2.346632 1_655
O1 Rb6 2.988688 1_555
O2 Si9 1.618738 1_555
O2 Si4 1.631959 1_555
O2 Rb4 3.146065 1_555
O3 Si0 1.629913 1_565
O3 Y1 2.688125 1_555
O3 Rb7 3.274547 1_555
O4 Si12 1.602338 1_555
O4 Y0 2.236145 1_555
O4 Rb7 2.950098 1_546
O4 Rb1 3.139394 1_555
O5 Si10 1.613300 1_555
O5 Rb6 2.961910 1_555
O5 Rb0 3.537482 1_555
O6 Si9 1.613300 1_555
O6 Rb2 2.961910 1_555
O6 Rb4 3.537482 1_555
O7 Si7 1.612649 1_555
O7 Rb5 2.922611 1_555
O7 Rb3 3.237574 1_554
O8 Si14 1.613300 1_555
O8 Rb1 2.961910 1_555
O8 Rb3 3.537482 1_555
O9 Si15 1.632657 1_555
O9 Si2 1.668541 1_556
O9 Rb7 3.036306 1_556
O9 Rb1 3.061766 1_655
O10 Si3 1.612649 1_555
O10 Rb4 2.922611 1_555
O10 Rb0 3.237574 1_555
O11 Si6 1.613300 1_555
O11 Rb7 2.961910 1_555
O11 Rb5 3.537482 1_555
O12 Si15 1.628484 1_455
O12 Si4 1.646175 1_555
O12 Rb0 3.435165 1_555
O13 Si1 1.606264 1_555
O13 Y0 2.246856 1_555
O13 Y2 2.346632 1_455
O13 Rb2 2.988688 1_555
O14 Si9 1.622208 1_655
O14 Si11 1.657832 1_555
O14 Rb4 2.835451 1_565
O15 Si0 1.606264 1_555
O15 Y3 2.246856 1_555
O15 Y1 2.346632 1_545
O15 Rb1 2.988688 1_554
O16 Si4 1.612649 1_555
O16 Rb0 2.922611 1_555
O16 Rb4 3.237574 1_555
O17 Si0 1.628484 1_655
O17 Si3 1.646175 1_555
O17 Rb4 3.435165 1_555
O18 Si11 1.600436 1_545
O18 Y0 2.217903 1_555
O18 Rb2 2.928205 1_555
O18 Rb4 3.161479 1_555
O19 Si1 1.629913 1_655
O19 Y2 2.688125 1_555
O19 Rb6 3.274547 1_555
O20 Si15 1.606264 1_555
O20 Y2 2.246856 1_555
O20 Y0 2.346632 1_565
O20 Rb7 2.988688 1_556
O21 Si4 1.604424 1_555
O21 Y0 2.356770 1_555
O21 Y2 2.528524 1_455
O22 Si2 1.602338 1_555
O22 Y1 2.236145 1_555
O22 Rb1 2.950098 1_564
O22 Rb7 3.139394 1_555
O23 Si14 1.618738 1_554
O23 Si7 1.631959 1_555
O23 Rb3 3.146065 1_554
O24 Si10 1.622208 1_455
O24 Si5 1.657832 1_555
O24 Rb0 2.835451 1_545
O25 Si1 1.632657 1_555
O25 Si5 1.668541 1_555
O25 Rb2 3.036306 1_555
O25 Rb6 3.061766 1_545
O26 Si13 1.628484 1_545
O26 Si7 1.646175 1_555
O26 Rb5 3.435165 1_555
O27 Si6 1.622208 1_545
O27 Si12 1.657832 1_554
O27 Rb5 2.835451 1_455
O28 Si11 1.602338 1_555
O28 Y2 2.236145 1_555
O28 Rb2 2.950098 1_655
O28 Rb6 3.139394 1_555
O29 Si5 1.600436 1_565
O29 Y1 2.217903 1_555
O29 Rb6 2.928205 1_555
O29 Rb0 3.161479 1_555
O30 Si3 1.604424 1_555
O30 Y1 2.356770 1_555
O30 Y3 2.528524 1_655
O31 Si6 1.618738 1_556
O31 Si8 1.631959 1_555
O31 Rb5 3.146065 1_556
O32 Si13 1.629913 1_455
O32 Y3 2.688125 1_555
O32 Rb2 3.274547 1_555
O33 Si1 1.628484 1_565
O33 Si8 1.646175 1_555
O33 Rb3 3.435165 1_555
O34 Si10 1.618738 1_555
O34 Si3 1.631959 1_555
O34 Rb0 3.146065 1_555
O35 Si2 1.600436 1_455
O35 Y3 2.217903 1_555
O35 Rb1 2.928205 1_554
O35 Rb3 3.161479 1_554
O36 Si8 1.612649 1_555
O36 Rb3 2.922611 1_555
O36 Rb5 3.237574 1_556
O37 Si8 1.604424 1_555
O37 Y2 2.356770 1_555
O37 Y0 2.528524 1_565
O38 Si15 1.629913 1_545
O38 Y0 2.688125 1_555
O38 Rb1 3.274547 1_555
O39 Si5 1.602338 1_555
O39 Y3 2.236145 1_555
O39 Rb6 2.950098 1_455
O39 Rb2 3.139394 1_555
O40 Si14 1.622208 1_565
O40 Si2 1.657832 1_556
O40 Rb3 2.835451 1_655
O41 Si6 1.622129 1_555
O41 Rb3 3.071930 1_554
O41 Rb5 3.326679 1_465
O42 Si13 1.632657 1_555
O42 Si11 1.668541 1_555
O42 Rb6 3.036306 1_555
O42 Rb2 3.061766 1_565
O43 Si0 1.632657 1_555
O43 Si12 1.668541 1_554
O43 Rb1 3.036306 1_554
O43 Rb7 3.061766 1_455
O44 Si12 1.600436 1_655
O44 Y2 2.217903 1_555
O44 Rb7 2.928205 1_556
O44 Rb5 3.161479 1_556
O45 Si7 1.604424 1_555
O45 Y3 2.356770 1_555
O45 Y1 2.528524 1_545
O46 Si10 1.622129 1_555
O46 Rb4 3.071930 1_555
O46 Rb0 3.326679 1_645
O47 Si14 1.622129 1_555
O47 Rb5 3.071930 1_556
O47 Rb3 3.326679 1_645
