# generated using pymatgen
data_Y8Co5
_symmetry_space_group_name_H-M   'P 1'
_cell_length_a   7.18487300
_cell_length_b   7.04000800
_cell_length_c   24.13915523
_cell_angle_alpha   77.73693667
_cell_angle_beta   90.00000000
_cell_angle_gamma   90.00000000
_symmetry_Int_Tables_number   1
_chemical_formula_structural   Y8Co5
_chemical_formula_sum   'Y32 Co20'
_cell_volume   1193.13637973
_cell_formula_units_Z   4
loop_
 _symmetry_equiv_pos_site_id
 _symmetry_equiv_pos_as_xyz
  1  'x, y, z'
loop_
 _atom_site_type_symbol
 _atom_site_label
 _atom_site_symmetry_multiplicity
 _atom_site_fract_x
 _atom_site_fract_y
 _atom_site_fract_z
 _atom_site_occupancy
  Y  Y0  1  0.18284500  0.64440800  0.96285500  1
  Y  Y1  1  0.68284500  0.35559200  0.53714500  1
  Y  Y2  1  0.81715500  0.35559200  0.03714500  1
  Y  Y3  1  0.31715500  0.64440800  0.46285500  1
  Y  Y4  1  0.16670800  0.53042500  0.82272000  1
  Y  Y5  1  0.66670800  0.46957500  0.67728000  1
  Y  Y6  1  0.83329200  0.46957500  0.17728000  1
  Y  Y7  1  0.33329200  0.53042500  0.32272000  1
  Y  Y8  1  0.81572500  0.68819700  0.29761000  1
  Y  Y9  1  0.31572500  0.31180300  0.20239000  1
  Y  Y10  1  0.18427500  0.31180300  0.70239000  1
  Y  Y11  1  0.68427500  0.68819700  0.79761000  1
  Y  Y12  1  0.83515100  0.78649400  0.44129200  1
  Y  Y13  1  0.33515100  0.21350600  0.05870800  1
  Y  Y14  1  0.16484900  0.21350600  0.55870800  1
  Y  Y15  1  0.66484900  0.78649400  0.94129200  1
  Y  Y16  1  0.18644000  0.00083200  0.33455600  1
  Y  Y17  1  0.68644000  0.99916800  0.16544400  1
  Y  Y18  1  0.81356000  0.99916800  0.66544400  1
  Y  Y19  1  0.31356000  0.00083200  0.83455600  1
  Y  Y20  1  0.18781200  0.81791800  0.19627200  1
  Y  Y21  1  0.68781200  0.18208200  0.30372800  1
  Y  Y22  1  0.81218800  0.18208200  0.80372800  1
  Y  Y23  1  0.31218800  0.81791800  0.69627200  1
  Y  Y24  1  0.95967400  0.31561500  0.41510600  1
  Y  Y25  1  0.45967400  0.68438500  0.08489400  1
  Y  Y26  1  0.04032600  0.68438500  0.58489400  1
  Y  Y27  1  0.54032600  0.31561500  0.91510600  1
  Y  Y28  1  0.97781300  0.85937400  0.06457900  1
  Y  Y29  1  0.47781300  0.14062600  0.43542100  1
  Y  Y30  1  0.02218700  0.14062600  0.93542100  1
  Y  Y31  1  0.52218700  0.85937400  0.56457900  1
  Co  Co0  1  0.14611400  0.97404000  0.48321000  1
  Co  Co1  1  0.64611400  0.02596000  0.01679000  1
  Co  Co2  1  0.85388600  0.02596000  0.51679000  1
  Co  Co3  1  0.35388600  0.97404000  0.98321000  1
  Co  Co4  1  0.03280600  0.16726400  0.13213700  1
  Co  Co5  1  0.53280600  0.83273600  0.36786300  1
  Co  Co6  1  0.96719400  0.83273600  0.86786300  1
  Co  Co7  1  0.46719400  0.16726400  0.63213700  1
  Co  Co8  1  0.03084300  0.36018300  0.28226100  1
  Co  Co9  1  0.53084300  0.63981700  0.21773900  1
  Co  Co10  1  0.96915700  0.63981700  0.71773900  1
  Co  Co11  1  0.46915700  0.36018300  0.78226100  1
  Co  Co12  1  0.02754900  0.90547400  0.76543000  1
  Co  Co13  1  0.52754900  0.09452600  0.73457000  1
  Co  Co14  1  0.97245100  0.09452600  0.23457000  1
  Co  Co15  1  0.47245100  0.90547400  0.26543000  1
  Co  Co16  1  0.88218500  0.50945600  0.90434100  1
  Co  Co17  1  0.38218500  0.49054400  0.59565900  1
  Co  Co18  1  0.11781500  0.49054400  0.09565900  1
  Co  Co19  1  0.61781500  0.50945600  0.40434100  1
loop_
_geom_bond_atom_site_label_1
_geom_bond_atom_site_label_2
_geom_bond_distance
_geom_bond_site_symmetry_2
Co0 Co2 2.307582 1_465
Co0 Y14 2.736181 1_565
Co0 Y3 2.760662 1_555
Co0 Y29 2.794843 1_565
Co0 Y12 2.885558 1_455
Co0 Y24 2.932615 1_465
Co0 Y26 2.938466 1_555
Co0 Y31 3.337229 1_555
Co0 Y16 3.564897 1_565
Co1 Co3 2.307582 1_544
Co1 Y15 2.736181 1_544
Co1 Y2 2.760662 1_555
Co1 Y28 2.794843 1_545
Co1 Y13 2.885558 1_555
Co1 Y25 2.932615 1_545
Co1 Y27 2.938466 1_554
Co1 Y30 3.337229 1_654
Co1 Y17 3.564897 1_545
Co2 Y12 2.736181 1_545
Co2 Y1 2.760662 1_555
Co2 Y31 2.794843 1_545
Co2 Y14 2.885558 1_655
Co2 Y26 2.932615 1_645
Co2 Y24 2.938466 1_555
Co2 Y29 3.337229 1_555
Co2 Y18 3.564897 1_545
Co3 Y13 2.736181 1_566
Co3 Y0 2.760662 1_555
Co3 Y30 2.794843 1_565
Co3 Y15 2.885558 1_555
Co3 Y27 2.932615 1_565
Co3 Y25 2.938466 1_556
Co3 Y28 3.337229 1_456
Co3 Y19 3.564897 1_565
Co4 Y13 2.778776 1_555
Co4 Y17 2.799246 1_445
Co4 Y20 2.840480 1_545
Co4 Y2 2.850448 1_455
Co4 Y6 2.959238 1_455
Co4 Y9 2.962496 1_555
Co4 Y28 3.002576 1_445
Co5 Y12 2.778776 1_555
Co5 Y16 2.799246 1_565
Co5 Y21 2.840480 1_565
Co5 Y3 2.850448 1_555
Co5 Y7 2.959238 1_555
Co5 Y8 2.962496 1_555
Co5 Y29 3.002576 1_565
Co6 Y15 2.778776 1_555
Co6 Y19 2.799246 1_665
Co6 Y22 2.840480 1_565
Co6 Y0 2.850448 1_655
Co6 Y4 2.959238 1_655
Co6 Y11 2.962496 1_555
Co6 Y30 3.002576 1_665
Co7 Y14 2.778776 1_555
Co7 Y18 2.799246 1_545
Co7 Y23 2.840480 1_545
Co7 Y1 2.850448 1_555
Co7 Y5 2.959238 1_555
Co7 Y10 2.962496 1_555
Co7 Y31 3.002576 1_545
Co8 Y7 2.758563 1_555
Co8 Y21 2.763881 1_455
Co8 Y16 2.808341 1_555
Co8 Y6 2.863671 1_455
Co8 Y8 2.867421 1_455
Co8 Y9 2.881280 1_555
Co8 Y24 3.196224 1_455
Co9 Y6 2.758563 1_555
Co9 Y20 2.763881 1_555
Co9 Y17 2.808341 1_555
Co9 Y7 2.863671 1_555
Co9 Y9 2.867421 1_555
Co9 Y8 2.881280 1_555
Co9 Y25 3.196224 1_555
Co10 Co12 2.431807 1_655
Co10 Y5 2.758563 1_555
Co10 Y23 2.763881 1_655
Co10 Y18 2.808341 1_555
Co10 Y4 2.863671 1_655
Co10 Y10 2.867421 1_655
Co10 Y11 2.881280 1_555
Co10 Y26 3.196224 1_655
Co11 Co13 2.431807 1_555
Co11 Y4 2.758563 1_555
Co11 Y22 2.763881 1_555
Co11 Y19 2.808341 1_555
Co11 Y5 2.863671 1_555
Co11 Y11 2.867421 1_555
Co11 Y10 2.881280 1_555
Co11 Y27 3.196224 1_555
Co12 Co6 2.454867 1_455
Co12 Y23 2.790418 1_555
Co12 Y22 2.793877 1_465
Co12 Y19 2.816688 1_565
Co12 Y18 2.819221 1_455
Co12 Y4 2.886605 1_555
Co12 Y11 2.919155 1_455
Co12 Y10 3.149176 1_565
Co13 Co7 2.454867 1_555
Co13 Y22 2.790418 1_555
Co13 Y23 2.793877 1_545
Co13 Y18 2.816688 1_545
Co13 Y19 2.819221 1_555
Co13 Y5 2.886605 1_555
Co13 Y10 2.919155 1_555
Co13 Y11 3.149176 1_545
Co14 Co8 2.431807 1_655
Co14 Co4 2.454867 1_655
Co14 Y21 2.790418 1_555
Co14 Y20 2.793877 1_645
Co14 Y17 2.816688 1_545
Co14 Y16 2.819221 1_655
Co14 Y6 2.886605 1_555
Co14 Y9 2.919155 1_655
Co14 Y8 3.149176 1_545
Co15 Co9 2.431807 1_555
Co15 Co5 2.454867 1_555
Co15 Y20 2.790418 1_555
Co15 Y21 2.793877 1_565
Co15 Y16 2.816688 1_565
Co15 Y17 2.819221 1_555
Co15 Y7 2.886605 1_555
Co15 Y8 2.919155 1_555
Co15 Y9 3.149176 1_565
Co16 Co6 2.340255 1_555
Co16 Y30 2.736661 1_655
Co16 Y15 2.788701 1_555
Co16 Y27 2.795017 1_555
Co16 Y4 2.821201 1_655
Co16 Y0 2.852062 1_655
Co16 Y11 2.977583 1_555
Co16 Y2 3.192728 1_556
Co17 Co7 2.340255 1_555
Co17 Y31 2.736661 1_555
Co17 Y14 2.788701 1_555
Co17 Y26 2.795017 1_555
Co17 Y5 2.821201 1_555
Co17 Y1 2.852062 1_555
Co17 Y10 2.977583 1_555
Co17 Y3 3.192728 1_555
Co18 Co4 2.340255 1_555
Co18 Y28 2.736661 1_455
Co18 Y13 2.788701 1_555
Co18 Y25 2.795017 1_555
Co18 Y6 2.821201 1_455
Co18 Y2 2.852062 1_455
Co18 Y9 2.977583 1_555
Co18 Y0 3.192728 1_554
Co19 Co5 2.340255 1_555
Co19 Y29 2.736661 1_555
Co19 Y12 2.788701 1_555
Co19 Y24 2.795017 1_555
Co19 Y7 2.821201 1_555
Co19 Y3 2.852062 1_555
Co19 Y8 2.977583 1_555
Co19 Y1 3.192728 1_555
