# generated using pymatgen
data_Cu2SiPbS4
_symmetry_space_group_name_H-M   'P 1'
_cell_length_a   6.08014609
_cell_length_b   6.08014609
_cell_length_c   15.20109900
_cell_angle_alpha   90.00000000
_cell_angle_beta   90.00000000
_cell_angle_gamma   120.00000099
_symmetry_Int_Tables_number   1
_chemical_formula_structural   Cu2SiPbS4
_chemical_formula_sum   'Cu6 Si3 Pb3 S12'
_cell_volume   486.66895561
_cell_formula_units_Z   3
loop_
 _symmetry_equiv_pos_site_id
 _symmetry_equiv_pos_as_xyz
  1  'x, y, z'
loop_
 _atom_site_type_symbol
 _atom_site_label
 _atom_site_symmetry_multiplicity
 _atom_site_fract_x
 _atom_site_fract_y
 _atom_site_fract_z
 _atom_site_occupancy
  Cu  Cu0  1  0.42744500  0.33630900  0.24297200  1
  Cu  Cu1  1  0.33630900  0.42744500  0.75702800  1
  Cu  Cu2  1  0.57255500  0.90886400  0.42369400  1
  Cu  Cu3  1  0.90886400  0.57255500  0.57630600  1
  Cu  Cu4  1  0.66369100  0.09113600  0.90963900  1
  Cu  Cu5  1  0.09113600  0.66369100  0.09036100  1
  Si  Si0  1  0.72211300  0.00000000  0.16666700  1
  Si  Si1  1  0.00000000  0.72211300  0.83333300  1
  Si  Si2  1  0.27788700  0.27788700  0.50000000  1
  Pb  Pb0  1  0.52927900  0.00000000  0.66666700  1
  Pb  Pb1  1  0.00000000  0.52927900  0.33333300  1
  Pb  Pb2  1  0.47072100  0.47072100  0.00000000  1
  S  S0  1  0.49493100  0.97347100  0.05503600  1
  S  S1  1  0.32714300  0.09670800  0.83554400  1
  S  S2  1  0.02652900  0.52146100  0.72170300  1
  S  S3  1  0.52146100  0.02652900  0.27829700  1
  S  S4  1  0.09670800  0.32714300  0.16445600  1
  S  S5  1  0.76956400  0.67285700  0.16887800  1
  S  S6  1  0.67285700  0.76956400  0.83112200  1
  S  S7  1  0.90329200  0.23043600  0.50221100  1
  S  S8  1  0.47853900  0.50506900  0.38837000  1
  S  S9  1  0.23043600  0.90329200  0.49778900  1
  S  S10  1  0.97347100  0.49493100  0.94496400  1
  S  S11  1  0.50506900  0.47853900  0.61163000  1
loop_
_geom_bond_atom_site_label_1
_geom_bond_atom_site_label_2
_geom_bond_distance
_geom_bond_site_symmetry_2
Cu0 S3 2.288969 1_555
Cu0 S4 2.315035 1_555
Cu0 S5 2.350791 1_555
Cu0 S8 2.390737 1_555
Cu0 Pb1 3.361213 1_655
Cu1 S2 2.288969 1_555
Cu1 S1 2.315035 1_555
Cu1 S6 2.350791 1_555
Cu1 S11 2.390737 1_555
Cu1 Pb0 3.361213 1_565
Cu2 S8 2.288960 1_555
Cu2 S7 2.315045 1_565
Cu2 S9 2.350796 1_555
Cu2 S3 2.390721 1_565
Cu2 Pb1 3.361213 1_555
Cu3 S11 2.288960 1_555
Cu3 S9 2.315045 1_655
Cu3 S7 2.350796 1_555
Cu3 S2 2.390721 1_655
Cu3 Pb0 3.361213 1_555
Cu4 S10 2.288965 1_555
Cu4 S6 2.315048 1_545
Cu4 S1 2.350801 1_555
Cu4 S0 2.390722 1_546
Cu4 Pb2 3.361213 1_556
Cu5 S0 2.288965 1_555
Cu5 S5 2.315048 1_455
Cu5 S4 2.350801 1_555
Cu5 S10 2.390722 1_454
Cu5 Pb2 3.361213 1_555
Pb0 S1 3.028030 1_555
Pb0 S9 3.028040 1_545
Pb0 S2 3.100901 1_545
Pb0 S11 3.100902 1_555
Pb0 S6 3.193387 1_545
Pb0 S7 3.193396 1_555
Pb0 S2 3.210498 1_655
Pb0 S11 3.210505 1_545
Pb1 S4 3.028030 1_555
Pb1 S7 3.028040 1_455
Pb1 S3 3.100901 1_455
Pb1 S8 3.100902 1_555
Pb1 S5 3.193387 1_455
Pb1 S9 3.193396 1_555
Pb1 S3 3.210498 1_565
Pb1 S8 3.210505 1_455
Pb2 S6 3.028041 1_554
Pb2 S5 3.028041 1_555
Pb2 S10 3.100904 1_554
Pb2 S0 3.100904 1_555
Pb2 S4 3.193395 1_555
Pb2 S1 3.193395 1_554
Pb2 S10 3.210495 1_454
Pb2 S0 3.210495 1_545
S0 Si0 2.142596 1_565
S1 Si1 2.148180 1_545
S2 Si1 2.142581 1_555
S3 Si0 2.142581 1_555
S4 Si0 2.148180 1_455
S5 Si0 2.148176 1_565
S6 Si1 2.148176 1_655
S7 Si2 2.148182 1_655
S8 Si2 2.142583 1_555
S9 Si2 2.148182 1_565
S10 Si1 2.142596 1_655
S11 Si2 2.142583 1_555
