# generated using pymatgen
data_Y3(Ge3Pt2)2
_symmetry_space_group_name_H-M   'P 1'
_cell_length_a   4.32303333
_cell_length_b   8.72849908
_cell_length_c   13.28319700
_cell_angle_alpha   80.52559562
_cell_angle_beta   90.00000000
_cell_angle_gamma   90.00000000
_symmetry_Int_Tables_number   1
_chemical_formula_structural   Y3(Ge3Pt2)2
_chemical_formula_sum   'Y6 Ge12 Pt8'
_cell_volume   494.38568041
_cell_formula_units_Z   2
loop_
 _symmetry_equiv_pos_site_id
 _symmetry_equiv_pos_as_xyz
  1  'x, y, z'
loop_
 _atom_site_type_symbol
 _atom_site_label
 _atom_site_symmetry_multiplicity
 _atom_site_fract_x
 _atom_site_fract_y
 _atom_site_fract_z
 _atom_site_occupancy
  Y  Y0  1  0.25000000  0.76549115  0.43827613  1
  Y  Y1  1  0.25000000  0.58996010  0.18846713  1
  Y  Y2  1  0.75000000  0.23450885  0.56172387  1
  Y  Y3  1  0.75000000  0.41003990  0.81153287  1
  Y  Y4  1  0.75000000  0.93439987  0.81392369  1
  Y  Y5  1  0.25000000  0.06560013  0.18607631  1
  Ge  Ge0  1  0.75000000  0.58555889  0.56595708  1
  Ge  Ge1  1  0.75000000  0.12682028  0.00618780  1
  Ge  Ge2  1  0.75000000  0.88213878  0.56539631  1
  Ge  Ge3  1  0.25000000  0.69567152  0.71763792  1
  Ge  Ge4  1  0.75000000  0.30432848  0.28236208  1
  Ge  Ge5  1  0.75000000  0.80598429  0.27681715  1
  Ge  Ge6  1  0.25000000  0.87317972  0.99381220  1
  Ge  Ge7  1  0.25000000  0.19401571  0.72318285  1
  Ge  Ge8  1  0.25000000  0.37760601  0.00144485  1
  Ge  Ge9  1  0.25000000  0.11786122  0.43460369  1
  Ge  Ge10  1  0.75000000  0.62239399  0.99855515  1
  Ge  Ge11  1  0.25000000  0.41444111  0.43404292  1
  Pt  Pt0  1  0.75000000  0.35410307  0.09912902  1
  Pt  Pt1  1  0.25000000  0.96851679  0.62580407  1
  Pt  Pt2  1  0.75000000  0.84911679  0.08932493  1
  Pt  Pt3  1  0.75000000  0.03148321  0.37419593  1
  Pt  Pt4  1  0.25000000  0.64589693  0.90087098  1
  Pt  Pt5  1  0.25000000  0.15088321  0.91067507  1
  Pt  Pt6  1  0.75000000  0.53172947  0.37482624  1
  Pt  Pt7  1  0.25000000  0.46827053  0.62517376  1
loop_
_geom_bond_atom_site_label_1
_geom_bond_atom_site_label_2
_geom_bond_distance
_geom_bond_site_symmetry_2
Ge0 Pt7 2.464515 1_655
Ge0 Pt7 2.464515 1_555
Ge0 Ge2 2.587482 1_555
Ge0 Pt6 2.656900 1_555
Ge0 Y0 3.022960 1_655
Ge0 Y0 3.022960 1_555
Ge0 Y2 3.073896 1_555
Ge0 Y3 3.367890 1_555
Ge1 Pt2 2.492740 1_545
Ge1 Pt5 2.497635 1_554
Ge1 Pt5 2.497635 1_654
Ge1 Pt0 2.503206 1_555
Ge1 Y5 3.201097 1_655
Ge1 Y5 3.201097 1_555
Ge1 Y3 3.269926 1_554
Ge1 Y4 3.279525 1_544
Ge2 Pt1 2.466500 1_655
Ge2 Pt1 2.466500 1_555
Ge2 Pt3 2.657003 1_565
Ge2 Y0 3.020933 1_655
Ge2 Y0 3.020933 1_555
Ge2 Y2 3.068009 1_565
Ge2 Y4 3.406174 1_555
Ge3 Pt4 2.400958 1_555
Ge3 Pt1 2.490645 1_555
Ge3 Pt7 2.500161 1_555
Ge3 Y3 3.379313 1_455
Ge3 Y3 3.379313 1_555
Ge3 Y4 3.395188 1_455
Ge3 Y4 3.395188 1_555
Ge4 Pt0 2.400958 1_555
Ge4 Pt3 2.490645 1_555
Ge4 Pt6 2.500161 1_555
Ge4 Y1 3.379313 1_555
Ge4 Y1 3.379313 1_655
Ge4 Y5 3.395188 1_555
Ge4 Y5 3.395188 1_655
Ge5 Pt2 2.456752 1_555
Ge5 Pt3 2.526932 1_565
Ge5 Pt6 2.529689 1_555
Ge5 Y0 3.024438 1_655
Ge5 Y0 3.024438 1_555
Ge5 Y1 3.214543 1_555
Ge5 Y1 3.214543 1_655
Ge5 Y5 3.218818 1_565
Ge5 Y5 3.218818 1_665
Ge6 Pt5 2.492740 1_565
Ge6 Pt2 2.497635 1_556
Ge6 Pt2 2.497635 1_456
Ge6 Pt4 2.503206 1_555
Ge6 Y4 3.201097 1_455
Ge6 Y4 3.201097 1_555
Ge6 Y1 3.269926 1_556
Ge6 Y5 3.279525 1_566
Ge7 Pt5 2.456752 1_555
Ge7 Pt1 2.526932 1_545
Ge7 Pt7 2.529689 1_555
Ge7 Y2 3.024438 1_455
Ge7 Y2 3.024438 1_555
Ge7 Y3 3.214543 1_455
Ge7 Y3 3.214543 1_555
Ge7 Y4 3.218818 1_445
Ge7 Y4 3.218818 1_545
Ge8 Pt5 2.481029 1_554
Ge8 Pt4 2.497744 1_554
Ge8 Pt0 2.512024 1_455
Ge8 Pt0 2.512024 1_555
Ge8 Y3 3.298620 1_554
Ge8 Y3 3.298620 1_454
Ge8 Y1 3.335118 1_555
Ge8 Y5 3.351495 1_555
Ge9 Pt3 2.466500 1_455
Ge9 Pt3 2.466500 1_555
Ge9 Pt1 2.657003 1_545
Ge9 Y2 3.020933 1_455
Ge9 Y2 3.020933 1_555
Ge9 Y0 3.068009 1_545
Ge9 Y5 3.406174 1_555
Ge10 Pt2 2.481029 1_556
Ge10 Pt0 2.497744 1_556
Ge10 Pt4 2.512024 1_655
Ge10 Pt4 2.512024 1_555
Ge10 Y1 3.298620 1_556
Ge10 Y1 3.298620 1_656
Ge10 Y3 3.335118 1_555
Ge10 Y4 3.351495 1_555
Ge11 Pt6 2.464515 1_555
Ge11 Pt6 2.464515 1_455
Ge11 Ge9 2.587482 1_555
Ge11 Pt7 2.656900 1_555
Ge11 Y2 3.022960 1_455
Ge11 Y2 3.022960 1_555
Ge11 Y0 3.073896 1_555
Ge11 Y1 3.367890 1_555
Pt0 Y1 3.335091 1_555
Pt0 Y1 3.335091 1_655
Pt0 Y5 3.374890 1_655
Pt0 Y5 3.374890 1_555
Pt1 Y2 3.183775 1_465
Pt1 Y2 3.183775 1_565
Pt1 Y4 3.280245 1_455
Pt1 Y4 3.280245 1_555
Pt1 Y0 3.286114 1_555
Pt2 Y1 3.246937 1_555
Pt2 Y1 3.246937 1_655
Pt2 Y5 3.270133 1_665
Pt2 Y5 3.270133 1_565
Pt3 Y0 3.183775 1_645
Pt3 Y0 3.183775 1_545
Pt3 Y5 3.280245 1_655
Pt3 Y5 3.280245 1_555
Pt3 Y2 3.286114 1_555
Pt4 Y3 3.335091 1_455
Pt4 Y3 3.335091 1_555
Pt4 Y4 3.374890 1_555
Pt4 Y4 3.374890 1_455
Pt5 Y3 3.246937 1_455
Pt5 Y3 3.246937 1_555
Pt5 Y4 3.270133 1_445
Pt5 Y4 3.270133 1_545
Pt6 Y0 3.179909 1_655
Pt6 Y0 3.179909 1_555
Pt6 Y1 3.262530 1_555
Pt6 Y1 3.262530 1_655
Pt6 Y2 3.282271 1_555
Pt7 Y2 3.179909 1_455
Pt7 Y2 3.179909 1_555
Pt7 Y3 3.262530 1_455
Pt7 Y3 3.262530 1_555
Pt7 Y0 3.282271 1_555
