# generated using pymatgen
data_CdI2
_symmetry_space_group_name_H-M   'P 1'
_cell_length_a   4.28701127
_cell_length_b   4.28701118
_cell_length_c   29.12296817
_cell_angle_alpha   90.00000000
_cell_angle_beta   90.00000000
_cell_angle_gamma   120.00000874
_symmetry_Int_Tables_number   1
_chemical_formula_structural   CdI2
_chemical_formula_sum   'Cd4 I8'
_cell_volume   463.52746354
_cell_formula_units_Z   4
loop_
 _symmetry_equiv_pos_site_id
 _symmetry_equiv_pos_as_xyz
  1  'x, y, z'
loop_
 _atom_site_type_symbol
 _atom_site_label
 _atom_site_symmetry_multiplicity
 _atom_site_fract_x
 _atom_site_fract_y
 _atom_site_fract_z
 _atom_site_occupancy
  Cd  Cd0  1  0.33333300  0.66666700  0.74999822  1
  Cd  Cd1  1  0.33333300  0.66666700  0.00000853  1
  Cd  Cd2  1  0.66666700  0.33333300  0.24999822  1
  Cd  Cd3  1  0.66666700  0.33333300  0.50000853  1
  I  I0  1  0.33333300  0.66666700  0.19094897  1
  I  I1  1  0.00000000  -0.00000000  0.80905657  1
  I  I2  1  0.00000000  -0.00000000  0.05897545  1
  I  I3  1  0.66666700  0.33333300  0.94101525  1
  I  I4  1  0.66666700  0.33333300  0.69094897  1
  I  I5  1  0.00000000  0.00000000  0.30905657  1
  I  I6  1  0.33333300  0.66666700  0.44101425  1
  I  I7  1  -0.00000000  0.00000000  0.55897545  1
loop_
_geom_bond_atom_site_label_1
_geom_bond_atom_site_label_2
_geom_bond_distance
_geom_bond_site_symmetry_2
Cd0 I4 3.013880 1_565
Cd0 I4 3.013880 1_455
Cd0 I4 3.013887 1_555
Cd0 I1 3.014032 1_565
Cd0 I1 3.014034 1_555
Cd0 I1 3.014034 1_665
Cd1 I2 3.012513 1_565
Cd1 I2 3.012516 1_555
Cd1 I2 3.012516 1_665
Cd1 I3 3.012950 1_564
Cd1 I3 3.012950 1_454
Cd1 I3 3.012957 1_554
Cd2 I0 3.013880 1_545
Cd2 I0 3.013880 1_655
Cd2 I0 3.013887 1_555
Cd2 I5 3.014032 1_655
Cd2 I5 3.014034 1_665
Cd2 I5 3.014034 1_555
Cd3 I7 3.012513 1_655
Cd3 I7 3.012516 1_665
Cd3 I7 3.012516 1_555
Cd3 I6 3.012967 1_545
Cd3 I6 3.012967 1_655
Cd3 I6 3.012973 1_555
