# generated using pymatgen
data_CdI2
_symmetry_space_group_name_H-M   'P 1'
_cell_length_a   4.28860073
_cell_length_b   4.28860064
_cell_length_c   50.00894035
_cell_angle_alpha   90.00000000
_cell_angle_beta   90.00000000
_cell_angle_gamma   119.99999263
_symmetry_Int_Tables_number   1
_chemical_formula_structural   CdI2
_chemical_formula_sum   'Cd7 I14'
_cell_volume   796.54357199
_cell_formula_units_Z   7
loop_
 _symmetry_equiv_pos_site_id
 _symmetry_equiv_pos_as_xyz
  1  'x, y, z'
loop_
 _atom_site_type_symbol
 _atom_site_label
 _atom_site_symmetry_multiplicity
 _atom_site_fract_x
 _atom_site_fract_y
 _atom_site_fract_z
 _atom_site_occupancy
  Cd  Cd0  1  -0.00000000  0.00000000  0.17832072  1
  Cd  Cd1  1  -0.00000000  0.00000000  0.75003935  1
  Cd  Cd2  1  -0.00000000  0.00000000  0.89284583  1
  Cd  Cd3  1  0.66666700  0.33333300  0.32174233  1
  Cd  Cd4  1  -0.00000000  0.00000000  0.46446614  1
  Cd  Cd5  1  0.66666700  0.33333300  0.60704961  1
  Cd  Cd6  1  0.66666700  0.33333300  0.03561162  1
  I  I0  1  0.66666700  0.33333300  0.43010802  1
  I  I1  1  0.66666700  0.33333300  0.14399110  1
  I  I2  1  0.66666700  0.33333300  0.85840906  1
  I  I3  1  0.33333300  0.66666700  0.06996308  1
  I  I4  1  0.33333300  0.66666700  0.21259409  1
  I  I5  1  0.33333300  0.66666700  0.35606376  1
  I  I6  1  0.33333300  0.66666700  0.64156623  1
  I  I7  1  -0.00000000  0.00000000  0.00123830  1
  I  I8  1  0.33333300  0.66666700  0.78433367  1
  I  I9  1  0.33333300  0.66666700  0.92713874  1
  I  I10  1  -0.00000000  0.00000000  0.57260099  1
  I  I11  1  0.33333300  0.66666700  0.49878149  1
  I  I12  1  0.66666700  0.33333300  0.71570798  1
  I  I13  1  -0.00000000  0.00000000  0.28742490  1
loop_
_geom_bond_atom_site_label_1
_geom_bond_atom_site_label_2
_geom_bond_distance
_geom_bond_site_symmetry_2
Cd0 I4 3.011378 1_545
Cd0 I4 3.011381 1_555
Cd0 I4 3.011381 1_445
Cd0 I1 3.012980 1_455
Cd0 I1 3.012983 1_445
Cd0 I1 3.012983 1_555
Cd1 I8 3.011974 1_545
Cd1 I8 3.011977 1_555
Cd1 I8 3.011977 1_445
Cd1 I12 3.013030 1_455
Cd1 I12 3.013033 1_445
Cd1 I12 3.013033 1_555
Cd2 I9 3.011934 1_545
Cd2 I9 3.011937 1_555
Cd2 I9 3.011937 1_445
Cd2 I2 3.016036 1_455
Cd2 I2 3.016039 1_445
Cd2 I2 3.016039 1_555
Cd3 I13 3.012632 1_655
Cd3 I13 3.012636 1_665
Cd3 I13 3.012636 1_555
Cd3 I5 3.012747 1_545
Cd3 I5 3.012747 1_655
Cd3 I5 3.012752 1_555
Cd4 I11 3.012573 1_545
Cd4 I11 3.012576 1_555
Cd4 I11 3.012576 1_445
Cd4 I0 3.013792 1_455
Cd4 I0 3.013795 1_445
Cd4 I0 3.013795 1_555
Cd5 I10 3.016375 1_655
Cd5 I10 3.016378 1_665
Cd5 I10 3.016378 1_555
Cd5 I6 3.018318 1_545
Cd5 I6 3.018318 1_655
Cd5 I6 3.018324 1_555
Cd6 I3 3.013602 1_545
Cd6 I3 3.013602 1_655
Cd6 I3 3.013608 1_555
Cd6 I7 3.014225 1_655
Cd6 I7 3.014229 1_665
Cd6 I7 3.014229 1_555
