# generated using pymatgen
data_Na6Nb8(PO7)5
_symmetry_space_group_name_H-M   'P 1'
_cell_length_a   11.43941461
_cell_length_b   11.43941461
_cell_length_c   11.43941455
_cell_angle_alpha   46.70442983
_cell_angle_beta   46.70442983
_cell_angle_gamma   46.70443072
_symmetry_Int_Tables_number   1
_chemical_formula_structural   Na6Nb8(PO7)5
_chemical_formula_sum   'Na6 Nb8 P5 O35'
_cell_volume   724.40888670
_cell_formula_units_Z   1
loop_
 _symmetry_equiv_pos_site_id
 _symmetry_equiv_pos_as_xyz
  1  'x, y, z'
loop_
 _atom_site_type_symbol
 _atom_site_label
 _atom_site_symmetry_multiplicity
 _atom_site_fract_x
 _atom_site_fract_y
 _atom_site_fract_z
 _atom_site_occupancy
  Na  Na0  1  0.41871700  0.58128300  0.00000000  1
  Na  Na1  1  0.58128300  0.00000000  0.41871700  1
  Na  Na2  1  0.28589200  0.50000000  0.71410800  1
  Na  Na3  1  0.00000000  0.41871700  0.58128300  1
  Na  Na4  1  0.71410800  0.28589200  0.50000000  1
  Na  Na5  1  0.50000000  0.71410800  0.28589200  1
  Nb  Nb0  1  0.23611000  0.23611000  0.23611000  1
  Nb  Nb1  1  0.07254800  0.82038300  0.29727600  1
  Nb  Nb2  1  0.82038300  0.29727600  0.07254800  1
  Nb  Nb3  1  0.70272400  0.17961700  0.92745200  1
  Nb  Nb4  1  0.29727600  0.07254800  0.82038300  1
  Nb  Nb5  1  0.92745200  0.70272400  0.17961700  1
  Nb  Nb6  1  0.76389000  0.76389000  0.76389000  1
  Nb  Nb7  1  0.17961700  0.92745200  0.70272400  1
  P  P0  1  0.40454000  0.40454000  0.40454000  1
  P  P1  1  0.06006300  0.93993700  0.50000000  1
  P  P2  1  0.50000000  0.06006300  0.93993700  1
  P  P3  1  0.93993700  0.50000000  0.06006300  1
  P  P4  1  0.59546000  0.59546000  0.59546000  1
  O  O0  1  0.84225200  0.38396900  0.16878600  1
  O  O1  1  0.92538100  0.71222600  0.55979800  1
  O  O2  1  0.04777300  0.12995300  0.38985500  1
  O  O3  1  0.07461900  0.44020200  0.28777400  1
  O  O4  1  0.43372900  0.72427100  0.68841500  1
  O  O5  1  0.87004700  0.95222700  0.61014500  1
  O  O6  1  0.94548300  0.09997200  0.74718900  1
  O  O7  1  0.00000000  0.76786100  0.23213900  1
  O  O8  1  0.45410100  0.45410100  0.45410100  1
  O  O9  1  0.83121400  0.61603100  0.15774800  1
  O  O10  1  0.61014500  0.87004700  0.95222700  1
  O  O11  1  0.38985500  0.04777300  0.12995300  1
  O  O12  1  0.90002800  0.05451700  0.25281100  1
  O  O13  1  0.27572900  0.56627100  0.31158500  1
  O  O14  1  0.68841500  0.43372900  0.72427100  1
  O  O15  1  0.16878600  0.84225200  0.38396900  1
  O  O16  1  0.15774800  0.83121400  0.61603100  1
  O  O17  1  0.28777400  0.07461900  0.44020200  1
  O  O18  1  0.72427100  0.68841500  0.43372900  1
  O  O19  1  0.05451700  0.25281100  0.90002800  1
  O  O20  1  0.56627100  0.31158500  0.27572900  1
  O  O21  1  0.25281100  0.90002800  0.05451700  1
  O  O22  1  0.23213900  0.00000000  0.76786100  1
  O  O23  1  0.55979800  0.92538100  0.71222600  1
  O  O24  1  0.71222600  0.55979800  0.92538100  1
  O  O25  1  0.09997200  0.74718900  0.94548300  1
  O  O26  1  0.31158500  0.27572900  0.56627100  1
  O  O27  1  0.95222700  0.61014500  0.87004700  1
  O  O28  1  0.38396900  0.16878600  0.84225200  1
  O  O29  1  0.44020200  0.28777400  0.07461900  1
  O  O30  1  0.54589900  0.54589900  0.54589900  1
  O  O31  1  0.76786100  0.23213900  0.00000000  1
  O  O32  1  0.61603100  0.15774800  0.83121400  1
  O  O33  1  0.74718900  0.94548300  0.09997200  1
  O  O34  1  0.12995300  0.38985500  0.04777300  1
loop_
_geom_bond_atom_site_label_1
_geom_bond_atom_site_label_2
_geom_bond_distance
_geom_bond_site_symmetry_2
Na0 O4 2.638005 1_554
Na0 O13 2.638005 1_555
Na0 O29 2.699528 1_555
Na0 O24 2.699528 1_554
Na1 O20 2.638005 1_555
Na1 O18 2.638005 1_545
Na1 O23 2.699528 1_545
Na1 O17 2.699528 1_555
Na2 O8 2.394069 1_555
Na2 O30 2.394069 1_555
Na2 O34 2.546920 1_556
Na2 O27 2.546920 1_455
Na2 O28 2.563425 1_555
Na2 O16 2.563425 1_555
Na3 O14 2.638005 1_455
Na3 O26 2.638005 1_555
Na3 O3 2.699528 1_555
Na3 O1 2.699528 1_455
Na4 O8 2.394069 1_555
Na4 O30 2.394069 1_555
Na4 O5 2.546920 1_545
Na4 O2 2.546920 1_655
Na4 O0 2.563425 1_555
Na4 O32 2.563425 1_555
Na5 O30 2.394069 1_555
Na5 O8 2.394069 1_555
Na5 O10 2.546920 1_554
Na5 O11 2.546920 1_565
Na5 O9 2.563425 1_555
Na5 O15 2.563425 1_555
Nb0 O29 1.921570 1_555
Nb0 O17 1.921570 1_555
Nb0 O3 1.921570 1_555
Nb0 O2 2.161428 1_555
Nb0 O34 2.161428 1_555
Nb0 O11 2.161428 1_555
Nb1 O12 1.893622 1_465
Nb1 O7 1.936743 1_555
Nb1 O21 2.011670 1_555
Nb1 O1 2.051896 1_455
Nb1 O15 2.115065 1_555
Nb1 O13 2.116998 1_555
Nb2 O19 1.893622 1_654
Nb2 O31 1.936743 1_555
Nb2 O12 2.011670 1_555
Nb2 O24 2.051896 1_554
Nb2 O0 2.115065 1_555
Nb2 O20 2.116998 1_555
Nb3 O33 1.893622 1_546
Nb3 O31 1.936743 1_556
Nb3 O6 2.011670 1_555
Nb3 O29 2.051896 1_556
Nb3 O32 2.115065 1_555
Nb3 O14 2.116998 1_555
Nb4 O21 1.893622 1_546
Nb4 O22 1.936743 1_555
Nb4 O19 2.011670 1_555
Nb4 O23 2.051896 1_545
Nb4 O28 2.115065 1_555
Nb4 O26 2.116998 1_555
Nb5 O25 1.893622 1_654
Nb5 O7 1.936743 1_655
Nb5 O33 2.011670 1_555
Nb5 O3 2.051896 1_655
Nb5 O9 2.115065 1_555
Nb5 O18 2.116998 1_555
Nb6 O24 1.921570 1_555
Nb6 O1 1.921570 1_555
Nb6 O23 1.921570 1_555
Nb6 O5 2.161428 1_555
Nb6 O10 2.161428 1_555
Nb6 O27 2.161428 1_555
Nb7 O6 1.893622 1_465
Nb7 O22 1.936743 1_565
Nb7 O25 2.011670 1_555
Nb7 O17 2.051896 1_565
Nb7 O16 2.115065 1_555
Nb7 O4 2.116998 1_555
O0 P3 1.556065 1_555
O2 P1 1.549088 1_545
O4 P4 1.560977 1_555
O5 P1 1.549088 1_655
O8 P0 1.512231 1_555
O9 P3 1.556065 1_555
O10 P2 1.549088 1_565
O11 P2 1.549088 1_554
O13 P0 1.560977 1_555
O14 P4 1.560977 1_555
O15 P1 1.556065 1_555
O16 P1 1.556065 1_555
O18 P4 1.560977 1_555
O20 P0 1.560977 1_555
O26 P0 1.560977 1_555
O27 P3 1.549088 1_556
O28 P2 1.556065 1_555
O30 P4 1.512231 1_555
O32 P2 1.556065 1_555
O34 P3 1.549088 1_455
