# generated using pymatgen
data_LiV(SiO3)2
_symmetry_space_group_name_H-M   'P 1'
_cell_length_a   8.75849700
_cell_length_b   5.36757800
_cell_length_c   9.40609768
_cell_angle_alpha   77.18277017
_cell_angle_beta   90.00000000
_cell_angle_gamma   90.00000000
_symmetry_Int_Tables_number   1
_chemical_formula_structural   LiV(SiO3)2
_chemical_formula_sum   'Li4 V4 Si8 O24'
_cell_volume   431.18026951
_cell_formula_units_Z   4
loop_
 _symmetry_equiv_pos_site_id
 _symmetry_equiv_pos_as_xyz
  1  'x, y, z'
loop_
 _atom_site_type_symbol
 _atom_site_label
 _atom_site_symmetry_multiplicity
 _atom_site_fract_x
 _atom_site_fract_y
 _atom_site_fract_z
 _atom_site_occupancy
  Li  Li0  1  0.49579100  0.48860400  0.24770100  1
  Li  Li1  1  0.99579100  0.01139600  0.75229900  1
  Li  Li2  1  0.00420900  0.98860400  0.24770100  1
  Li  Li3  1  0.50420900  0.51139600  0.75229900  1
  V  V0  1  0.34693900  0.01487900  0.74956700  1
  V  V1  1  0.65306100  0.98512100  0.25043300  1
  V  V2  1  0.15306100  0.51487900  0.74956700  1
  V  V3  1  0.84693900  0.48512100  0.25043300  1
  Si  Si0  1  0.66104600  0.21138700  0.54816900  1
  Si  Si1  1  0.16104600  0.28861300  0.45183100  1
  Si  Si2  1  0.66121900  0.76508900  0.95166500  1
  Si  Si3  1  0.83895400  0.71138700  0.54816900  1
  Si  Si4  1  0.33895400  0.78861300  0.45183100  1
  Si  Si5  1  0.83878100  0.26508900  0.95166500  1
  Si  Si6  1  0.16121900  0.73491100  0.04833500  1
  Si  Si7  1  0.33878100  0.23491100  0.04833500  1
  O  O0  1  0.99351300  0.69851200  0.12060300  1
  O  O1  1  0.16618900  0.80294200  0.86820600  1
  O  O2  1  0.00648700  0.30148800  0.87939700  1
  O  O3  1  0.83568800  0.77769800  0.36752100  1
  O  O4  1  0.23316600  0.97844300  0.10686300  1
  O  O5  1  0.26683400  0.47844300  0.10686300  1
  O  O6  1  0.99811700  0.26744800  0.37384900  1
  O  O7  1  0.27410700  0.08235100  0.39757100  1
  O  O8  1  0.50188300  0.76744800  0.37384900  1
  O  O9  1  0.16431200  0.22230200  0.63247900  1
  O  O10  1  0.49811700  0.23255200  0.62615100  1
  O  O11  1  0.72589300  0.91764900  0.60242900  1
  O  O12  1  0.76683400  0.02155700  0.89313700  1
  O  O13  1  0.49351300  0.80148800  0.87939700  1
  O  O14  1  0.33381100  0.30294200  0.86820600  1
  O  O15  1  0.66618900  0.69705800  0.13179400  1
  O  O16  1  0.73316600  0.52155700  0.89313700  1
  O  O17  1  0.83381100  0.19705800  0.13179400  1
  O  O18  1  0.77410700  0.41764900  0.60242900  1
  O  O19  1  0.66431200  0.27769800  0.36752100  1
  O  O20  1  0.33568800  0.72230200  0.63247900  1
  O  O21  1  0.22589300  0.58235100  0.39757100  1
  O  O22  1  0.00188300  0.73255200  0.62615100  1
  O  O23  1  0.50648700  0.19851200  0.12060300  1
loop_
_geom_bond_atom_site_label_1
_geom_bond_atom_site_label_2
_geom_bond_distance
_geom_bond_site_symmetry_2
Li0 O15 2.031415 1_555
Li0 O19 2.040644 1_555
Li0 O8 2.106868 1_555
Li0 O23 2.165280 1_555
Li0 O5 2.410656 1_555
Li1 O1 2.031415 1_645
Li1 O9 2.040644 1_655
Li1 O22 2.106868 1_645
Li1 O2 2.165280 1_655
Li1 O12 2.410656 1_555
Li2 O17 2.031415 1_465
Li2 O3 2.040644 1_455
Li2 O6 2.106868 1_465
Li2 O0 2.165280 1_455
Li2 O4 2.410656 1_555
Li3 O14 2.031415 1_555
Li3 O20 2.040644 1_555
Li3 O10 2.106868 1_555
Li3 O13 2.165280 1_555
Li3 O16 2.410656 1_555
O0 Si6 1.612094 1_655
O0 V3 1.957217 1_555
O1 Si6 1.652701 1_556
O1 V2 2.101145 1_555
O1 V0 2.117160 1_565
O2 Si5 1.612094 1_455
O2 V2 1.957217 1_555
O3 Si3 1.657234 1_555
O3 V3 2.110995 1_555
O3 V1 2.113529 1_555
O4 Si7 1.648504 1_565
O4 Si6 1.651713 1_555
O5 Si6 1.648504 1_555
O5 Si7 1.651713 1_555
O6 Si1 1.619962 1_655
O6 V3 1.965744 1_555
O7 Si4 1.646784 1_545
O7 Si1 1.648484 1_555
O8 Si4 1.619962 1_555
O8 V1 1.965744 1_555
O9 Si1 1.657234 1_555
O9 V2 2.110995 1_555
O9 V0 2.113529 1_555
O10 Si0 1.619962 1_555
O10 V0 1.965744 1_555
O11 Si0 1.646784 1_565
O11 Si3 1.648484 1_555
O12 Si2 1.648504 1_545
O12 Si5 1.651713 1_555
O13 Si2 1.612094 1_555
O13 V0 1.957217 1_565
O14 Si7 1.652701 1_556
O14 V0 2.101145 1_555
O14 V2 2.117160 1_555
O15 Si2 1.652701 1_554
O15 V1 2.101145 1_555
O15 V3 2.117160 1_555
O16 Si5 1.648504 1_555
O16 Si2 1.651713 1_555
O17 Si5 1.652701 1_554
O17 V3 2.101145 1_555
O17 V1 2.117160 1_545
O18 Si3 1.646784 1_555
O18 Si0 1.648484 1_555
O19 Si0 1.657234 1_555
O19 V1 2.110995 1_545
O19 V3 2.113529 1_555
O20 Si4 1.657234 1_555
O20 V0 2.110995 1_565
O20 V2 2.113529 1_555
O21 Si1 1.646784 1_555
O21 Si4 1.648484 1_555
O22 Si3 1.619962 1_455
O22 V2 1.965744 1_555
O23 Si7 1.612094 1_555
O23 V1 1.957217 1_545
