# generated using pymatgen
data_SmCuTeS
_symmetry_space_group_name_H-M   'P 1'
_cell_length_a   7.56711700
_cell_length_b   7.59395100
_cell_length_c   12.70286100
_cell_angle_alpha   90.00000000
_cell_angle_beta   90.00000000
_cell_angle_gamma   90.00000000
_symmetry_Int_Tables_number   1
_chemical_formula_structural   SmCuTeS
_chemical_formula_sum   'Sm8 Cu8 Te8 S8'
_cell_volume   729.96121491
_cell_formula_units_Z   8
loop_
 _symmetry_equiv_pos_site_id
 _symmetry_equiv_pos_as_xyz
  1  'x, y, z'
loop_
 _atom_site_type_symbol
 _atom_site_label
 _atom_site_symmetry_multiplicity
 _atom_site_fract_x
 _atom_site_fract_y
 _atom_site_fract_z
 _atom_site_occupancy
  Sm  Sm0  1  0.52239900  0.24052300  0.06837100  1
  Sm  Sm1  1  0.02239900  0.25947700  0.93162900  1
  Sm  Sm2  1  0.47760100  0.75947700  0.93162900  1
  Sm  Sm3  1  0.47760100  0.74052300  0.43162900  1
  Sm  Sm4  1  0.97760100  0.74052300  0.06837100  1
  Sm  Sm5  1  0.52239900  0.25947700  0.56837100  1
  Sm  Sm6  1  0.02239900  0.24052300  0.43162900  1
  Sm  Sm7  1  0.97760100  0.75947700  0.56837100  1
  Cu  Cu0  1  0.16945500  0.07118200  0.20922100  1
  Cu  Cu1  1  0.66945500  0.07118200  0.29077900  1
  Cu  Cu2  1  0.16945500  0.42881800  0.70922100  1
  Cu  Cu3  1  0.33054500  0.57118200  0.20922100  1
  Cu  Cu4  1  0.83054500  0.57118200  0.29077900  1
  Cu  Cu5  1  0.33054500  0.92881800  0.70922100  1
  Cu  Cu6  1  0.66945500  0.42881800  0.79077900  1
  Cu  Cu7  1  0.83054500  0.92881800  0.79077900  1
  Te  Te0  1  0.89073900  0.22202100  0.69273500  1
  Te  Te1  1  0.60926100  0.77797900  0.19273500  1
  Te  Te2  1  0.60926100  0.72202100  0.69273500  1
  Te  Te3  1  0.10926100  0.77797900  0.30726500  1
  Te  Te4  1  0.10926100  0.72202100  0.80726500  1
  Te  Te5  1  0.39073900  0.22202100  0.80726500  1
  Te  Te6  1  0.89073900  0.27797900  0.19273500  1
  Te  Te7  1  0.39073900  0.27797900  0.30726500  1
  S  S0  1  0.75989500  0.99798200  0.96175800  1
  S  S1  1  0.25989500  0.99798200  0.53824200  1
  S  S2  1  0.74010500  0.00201800  0.46175800  1
  S  S3  1  0.75989500  0.50201800  0.46175800  1
  S  S4  1  0.24010500  0.00201800  0.03824200  1
  S  S5  1  0.74010500  0.49798200  0.96175800  1
  S  S6  1  0.25989500  0.50201800  0.03824200  1
  S  S7  1  0.24010500  0.49798200  0.53824200  1
loop_
_geom_bond_atom_site_label_1
_geom_bond_atom_site_label_2
_geom_bond_distance
_geom_bond_site_symmetry_2
Sm0 Te7 3.206636 1_555
Sm0 Te6 3.216441 1_555
Sm0 Te5 3.466042 1_554
Sm1 Te0 3.206636 1_455
Sm1 Te5 3.216441 1_555
Sm1 Te6 3.466042 1_456
Sm2 Te2 3.206636 1_555
Sm2 Te4 3.216441 1_555
Sm2 Te1 3.466042 1_556
Sm3 Te1 3.206636 1_555
Sm3 Te3 3.216441 1_555
Sm3 Te2 3.466042 1_555
Sm4 Te3 3.206636 1_655
Sm4 Te1 3.216441 1_555
Sm4 Te4 3.466042 1_654
Sm5 Te5 3.206636 1_555
Sm5 Te0 3.216441 1_555
Sm5 Te7 3.466042 1_555
Sm6 Te6 3.206636 1_455
Sm6 Te7 3.216441 1_555
Sm6 Te0 3.466042 1_455
Sm7 Te4 3.206636 1_655
Sm7 Te2 3.216441 1_555
Sm7 Te3 3.466042 1_655
Cu0 S4 2.297592 1_555
Cu0 Te3 2.591564 1_545
Cu0 Te7 2.611740 1_555
Cu0 Te6 2.637847 1_455
Cu1 S2 2.297592 1_555
Cu1 Te1 2.591564 1_545
Cu1 Te6 2.611740 1_555
Cu1 Te7 2.637847 1_555
Cu2 S7 2.297592 1_555
Cu2 Te4 2.591564 1_555
Cu2 Te5 2.611740 1_555
Cu2 Te0 2.637847 1_455
Cu3 S6 2.297592 1_555
Cu3 Te7 2.591564 1_555
Cu3 Te3 2.611740 1_555
Cu3 Te1 2.637847 1_555
Cu4 S3 2.297592 1_555
Cu4 Te6 2.591564 1_555
Cu4 Te1 2.611740 1_555
Cu4 Te3 2.637847 1_655
Cu5 S1 2.297592 1_555
Cu5 Te5 2.591564 1_565
Cu5 Te4 2.611740 1_555
Cu5 Te2 2.637847 1_555
Cu6 S5 2.297592 1_555
Cu6 Te2 2.591564 1_555
Cu6 Te0 2.611740 1_555
Cu6 Te5 2.637847 1_555
Cu7 S0 2.297592 1_555
Cu7 Te0 2.591564 1_565
Cu7 Te2 2.611740 1_555
Cu7 Te4 2.637847 1_655
S0 Sm2 2.826668 1_555
S0 Sm1 2.834710 1_665
S0 Sm4 2.893197 1_556
S0 Sm0 2.907968 1_566
S1 Sm7 2.826668 1_455
S1 Sm5 2.834710 1_565
S1 Sm3 2.893197 1_555
S1 Sm6 2.907968 1_565
S2 Sm6 2.826668 1_655
S2 Sm3 2.834710 1_545
S2 Sm5 2.893197 1_555
S2 Sm7 2.907968 1_545
S3 Sm3 2.826668 1_555
S3 Sm6 2.834710 1_655
S3 Sm7 2.893197 1_555
S3 Sm5 2.907968 1_555
S4 Sm0 2.826668 1_555
S4 Sm4 2.834710 1_445
S4 Sm1 2.893197 1_554
S4 Sm2 2.907968 1_544
S5 Sm1 2.826668 1_655
S5 Sm2 2.834710 1_555
S5 Sm0 2.893197 1_556
S5 Sm4 2.907968 1_556
S6 Sm4 2.826668 1_455
S6 Sm0 2.834710 1_555
S6 Sm2 2.893197 1_554
S6 Sm1 2.907968 1_554
S7 Sm5 2.826668 1_555
S7 Sm7 2.834710 1_455
S7 Sm6 2.893197 1_555
S7 Sm3 2.907968 1_555
