# generated using pymatgen
data_LiAsO3
_symmetry_space_group_name_H-M   'P 1'
_cell_length_a   5.22000952
_cell_length_b   6.84758468
_cell_length_c   6.84758550
_cell_angle_alpha   84.99740085
_cell_angle_beta   75.41080940
_cell_angle_gamma   75.41081511
_symmetry_Int_Tables_number   1
_chemical_formula_structural   LiAsO3
_chemical_formula_sum   'Li4 As4 O12'
_cell_volume   229.16000808
_cell_formula_units_Z   4
loop_
 _symmetry_equiv_pos_site_id
 _symmetry_equiv_pos_as_xyz
  1  'x, y, z'
loop_
 _atom_site_type_symbol
 _atom_site_label
 _atom_site_symmetry_multiplicity
 _atom_site_fract_x
 _atom_site_fract_y
 _atom_site_fract_z
 _atom_site_occupancy
  Li  Li0  1  0.75000000  0.21226045  0.78773955  1
  Li  Li1  1  0.75000000  0.89631319  0.10368681  1
  Li  Li2  1  0.25000000  0.78773955  0.21226045  1
  Li  Li3  1  0.25000000  0.10368681  0.89631319  1
  As  As0  1  0.26325334  0.61127672  0.80406489  1
  As  As1  1  0.73674666  0.38872328  0.19593511  1
  As  As2  1  0.23674666  0.19593511  0.38872328  1
  As  As3  1  0.76325334  0.80406489  0.61127672  1
  O  O0  1  0.51681561  0.67325927  0.60021411  1
  O  O1  1  0.35988577  0.03526536  0.20174291  1
  O  O2  1  0.87555026  0.87857708  0.37658613  1
  O  O3  1  0.48318439  0.32674073  0.39978589  1
  O  O4  1  0.14011423  0.79825709  0.96473464  1
  O  O5  1  0.12444974  0.12142292  0.62341387  1
  O  O6  1  0.85988577  0.20174291  0.03526536  1
  O  O7  1  0.98318439  0.39978589  0.32674073  1
  O  O8  1  0.37555026  0.37658613  0.87857708  1
  O  O9  1  0.01681561  0.60021411  0.67325927  1
  O  O10  1  0.64011423  0.96473464  0.79825709  1
  O  O11  1  0.62444974  0.62341387  0.12142292  1
loop_
_geom_bond_atom_site_label_1
_geom_bond_atom_site_label_2
_geom_bond_distance
_geom_bond_site_symmetry_2
Li0 O10 1.911743 1_545
Li0 O6 1.911744 1_556
Li0 O5 1.968554 1_655
Li0 O8 1.968554 1_555
Li1 O4 1.987353 1_654
Li1 O1 1.987353 1_565
Li1 O11 2.115089 1_555
Li1 O2 2.115089 1_555
Li1 O6 2.284907 1_565
Li1 O10 2.284908 1_554
Li2 O1 1.911743 1_565
Li2 O4 1.911744 1_554
Li2 O2 1.968554 1_455
Li2 O11 1.968554 1_555
Li3 O6 1.987353 1_456
Li3 O10 1.987353 1_545
Li3 O8 2.115089 1_555
Li3 O5 2.115089 1_555
Li3 O4 2.284907 1_545
Li3 O1 2.284908 1_556
As0 O8 1.649151 1_555
As0 O4 1.654614 1_555
As0 O9 1.761890 1_555
As0 O0 1.769029 1_555
As1 O11 1.649151 1_555
As1 O6 1.654614 1_555
As1 O7 1.761890 1_555
As1 O3 1.769029 1_555
As2 O5 1.649151 1_555
As2 O1 1.654614 1_555
As2 O3 1.761890 1_555
As2 O7 1.769029 1_455
As3 O2 1.649151 1_555
As3 O10 1.654614 1_555
As3 O0 1.761890 1_555
As3 O9 1.769029 1_655
