# generated using pymatgen
data_ErPS4
_symmetry_space_group_name_H-M   'P 1'
_cell_length_a   12.10970626
_cell_length_b   12.10975974
_cell_length_c   12.10972731
_cell_angle_alpha   127.79625009
_cell_angle_beta   127.79621369
_cell_angle_gamma   76.95548237
_symmetry_Int_Tables_number   1
_chemical_formula_structural   ErPS4
_chemical_formula_sum   'Er8 P8 S32'
_cell_volume   1076.42945529
_cell_formula_units_Z   8
loop_
 _symmetry_equiv_pos_site_id
 _symmetry_equiv_pos_as_xyz
  1  'x, y, z'
loop_
 _atom_site_type_symbol
 _atom_site_label
 _atom_site_symmetry_multiplicity
 _atom_site_fract_x
 _atom_site_fract_y
 _atom_site_fract_z
 _atom_site_occupancy
  Er  Er0  1  0.00001492  -0.00000720  0.00000330  1
  Er  Er1  1  0.74998052  0.24999861  0.49998378  1
  Er  Er2  1  0.25000182  0.75002486  0.50002726  1
  Er  Er3  1  0.50000801  0.49998164  -0.00000822  1
  Er  Er4  1  0.74999351  0.75000114  -0.00000139  1
  Er  Er5  1  0.50000896  -0.00001970  0.49999288  1
  Er  Er6  1  -0.00000261  0.50000174  0.49999442  1
  Er  Er7  1  0.24996201  0.25003983  0.00000512  1
  P  P0  1  0.12500394  0.41292535  0.78793076  1
  P  P1  1  0.12500287  0.91292754  0.28791895  1
  P  P2  1  0.66292551  0.87499090  0.28792055  1
  P  P3  1  0.58707314  0.37499990  0.71207953  1
  P  P4  1  0.62500654  0.83707253  0.71207889  1
  P  P5  1  0.62499614  0.33707184  0.21207063  1
  P  P6  1  0.08707576  0.37499613  0.21206758  1
  P  P7  1  0.16292669  0.87500595  0.78792623  1
  S  S0  1  0.48464038  0.20807588  0.45037171  1
  S  S1  1  0.75772400  0.03428601  0.54964015  1
  S  S2  1  0.78429702  0.73465230  0.77657605  1
  S  S3  1  0.95808290  0.00772179  0.22343257  1
  S  S4  1  0.49228105  0.54191462  0.77656838  1
  S  S5  1  0.76535197  0.71570368  0.22342944  1
  S  S6  1  0.29192763  0.01535508  0.54962698  1
  S  S7  1  0.46571663  0.74227117  0.45035922  1
  S  S8  1  0.28017223  0.46972818  0.32051272  1
  S  S9  1  0.21972948  0.39921132  0.68955291  1
  S  S10  1  0.70965873  0.53015726  0.31041954  1
  S  S11  1  0.96983985  0.79035382  0.68958631  1
  S  S12  1  0.10078826  0.28027144  0.31044482  1
  S  S13  1  0.54034130  0.35079461  0.32052112  1
  S  S14  1  0.03027387  0.21982846  0.67949036  1
  S  S15  1  0.14920363  0.95965307  0.67947269  1
  S  S16  1  0.46982624  0.78026530  0.17948194  1
  S  S17  1  0.53027900  0.85078460  0.81044585  1
  S  S18  1  0.04034815  0.71983142  0.18957751  1
  S  S19  1  0.78016539  0.45965561  0.81042394  1
  S  S20  1  0.64921270  0.96971566  0.18954824  1
  S  S21  1  0.20964612  0.89920950  0.17947073  1
  S  S22  1  0.71973073  0.03017482  0.82051586  1
  S  S23  1  0.60079539  0.29034515  0.82052485  1
  S  S24  1  0.99227286  0.21571598  0.95036210  1
  S  S25  1  0.96571179  0.51535272  0.72343910  1
  S  S26  1  0.79192274  0.24228020  0.27656946  1
  S  S27  1  0.25772260  0.70807878  0.72343368  1
  S  S28  1  0.98465174  0.53429042  0.27656199  1
  S  S29  1  0.45807257  0.23464905  0.95037368  1
  S  S30  1  0.28428453  0.50772424  0.04963798  1
  S  S31  1  0.26535178  0.04193580  0.04963284  1
loop_
_geom_bond_atom_site_label_1
_geom_bond_atom_site_label_2
_geom_bond_distance
_geom_bond_site_symmetry_2
Er0 S11 2.783357 1_444
Er0 S21 2.783396 1_545
Er0 S12 2.783682 1_555
Er0 S22 2.783780 1_454
Er0 S2 2.989825 1_444
Er0 S31 2.989835 1_555
Er0 S3 2.989881 1_455
Er0 S24 2.989945 1_454
Er1 S13 2.783510 1_555
Er1 S19 2.783523 1_555
Er1 S20 2.783691 1_545
Er1 S14 2.783837 1_655
Er1 S26 2.989862 1_555
Er1 S0 2.989922 1_555
Er1 S25 2.989936 1_555
Er1 S1 2.989945 1_555
Er2 S15 2.783380 1_555
Er2 S18 2.783550 1_555
Er2 S17 2.783593 1_555
Er2 S8 2.783887 1_555
Er2 S27 2.989787 1_555
Er2 S28 2.989884 1_455
Er2 S6 2.989911 1_565
Er2 S7 2.990026 1_555
Er3 S23 2.783448 1_554
Er3 S10 2.783462 1_555
Er3 S9 2.783669 1_554
Er3 S16 2.783787 1_555
Er3 S4 2.989834 1_554
Er3 S5 2.989844 1_555
Er3 S29 2.989848 1_554
Er3 S30 2.989979 1_555
Er4 S4 2.872855 1_554
Er4 S5 2.872902 1_555
Er4 S2 2.872916 1_554
Er4 S3 2.872936 1_565
Er4 S20 2.884363 1_555
Er4 S17 2.884405 1_554
Er4 S19 2.884562 1_554
Er4 S18 2.884629 1_655
Er5 S6 2.872766 1_555
Er5 S7 2.872809 1_545
Er5 S1 2.872820 1_555
Er5 S0 2.872857 1_555
Er5 S16 2.884388 1_545
Er5 S22 2.884430 1_555
Er5 S21 2.884672 1_545
Er5 S23 2.884707 1_555
Er6 S27 2.872873 1_555
Er6 S26 2.872875 1_455
Er6 S28 2.872931 1_455
Er6 S25 2.873014 1_455
Er6 S10 2.884428 1_455
Er6 S12 2.884513 1_555
Er6 S9 2.884571 1_555
Er6 S11 2.884585 1_455
Er7 S24 2.872595 1_454
Er7 S30 2.872613 1_555
Er7 S31 2.872948 1_555
Er7 S29 2.873043 1_554
Er7 S8 2.884156 1_555
Er7 S14 2.884209 1_554
Er7 S13 2.884769 1_555
Er7 S15 2.884882 1_544
P0 S14 2.027070 1_555
P0 S9 2.027116 1_555
P0 S30 2.032166 1_556
P0 S25 2.032279 1_455
P1 S21 2.026970 1_555
P1 S18 2.027185 1_555
P1 S6 2.032205 1_565
P1 S3 2.032235 1_465
P2 S20 2.027059 1_555
P2 S16 2.027074 1_555
P2 S5 2.032238 1_555
P2 S1 2.032284 1_565
P3 S23 2.027044 1_555
P3 S19 2.027125 1_555
P3 S4 2.032185 1_555
P3 S0 2.032196 1_555
P4 S17 2.027031 1_555
P4 S22 2.027114 1_565
P4 S2 2.032225 1_555
P4 S7 2.032269 1_555
P5 S10 2.027067 1_555
P5 S13 2.027095 1_555
P5 S29 2.032132 1_554
P5 S26 2.032285 1_555
P6 S8 2.027045 1_555
P6 S12 2.027113 1_555
P6 S24 2.032145 1_454
P6 S28 2.032275 1_455
P7 S15 2.027049 1_555
P7 S11 2.027071 1_455
P7 S31 2.032211 1_566
P7 S27 2.032312 1_555
