# generated using pymatgen
data_Ba2InClO3
_symmetry_space_group_name_H-M   'P 1'
_cell_length_a   4.28799500
_cell_length_b   4.28799500
_cell_length_c   15.27099200
_cell_angle_alpha   90.00000000
_cell_angle_beta   90.00000000
_cell_angle_gamma   90.00000000
_symmetry_Int_Tables_number   1
_chemical_formula_structural   Ba2InClO3
_chemical_formula_sum   'Ba4 In2 Cl2 O6'
_cell_volume   280.78621991
_cell_formula_units_Z   2
loop_
 _symmetry_equiv_pos_site_id
 _symmetry_equiv_pos_as_xyz
  1  'x, y, z'
loop_
 _atom_site_type_symbol
 _atom_site_label
 _atom_site_symmetry_multiplicity
 _atom_site_fract_x
 _atom_site_fract_y
 _atom_site_fract_z
 _atom_site_occupancy
  Ba  Ba0  1  0.50000000  0.00000000  0.09479500  1
  Ba  Ba1  1  0.50000000  0.00000000  0.35245300  1
  Ba  Ba2  1  0.00000000  0.50000000  0.64754700  1
  Ba  Ba3  1  0.00000000  0.50000000  0.90520500  1
  In  In0  1  0.50000000  0.00000000  0.78664500  1
  In  In1  1  0.00000000  0.50000000  0.21335500  1
  Cl  Cl0  1  0.50000000  0.00000000  0.57435800  1
  Cl  Cl1  1  0.00000000  0.50000000  0.42564200  1
  O  O0  1  0.00000000  0.50000000  0.07471500  1
  O  O1  1  0.00000000  0.00000000  0.23811600  1
  O  O2  1  0.50000000  0.50000000  0.76188400  1
  O  O3  1  0.50000000  0.00000000  0.92528500  1
  O  O4  1  0.00000000  0.00000000  0.76188400  1
  O  O5  1  0.50000000  0.50000000  0.23811600  1
loop_
_geom_bond_atom_site_label_1
_geom_bond_atom_site_label_2
_geom_bond_distance
_geom_bond_site_symmetry_2
Ba0 O3 2.588586 1_554
Ba0 O0 3.047537 1_545
Ba0 O0 3.047537 1_645
Ba0 O0 3.047537 1_555
Ba0 O0 3.047537 1_655
Ba0 O5 3.063810 1_545
Ba0 O1 3.063810 1_555
Ba0 O1 3.063810 1_655
Ba0 O5 3.063810 1_555
Ba1 O5 2.765028 1_545
Ba1 O1 2.765028 1_555
Ba1 O1 2.765028 1_655
Ba1 O5 2.765028 1_555
Ba1 Cl1 3.231506 1_655
Ba1 Cl1 3.231506 1_545
Ba1 Cl1 3.231506 1_645
Ba1 Cl1 3.231506 1_555
Ba1 Cl0 3.388709 1_555
Ba2 O2 2.765028 1_455
Ba2 O4 2.765028 1_565
Ba2 O2 2.765028 1_555
Ba2 O4 2.765028 1_555
Ba2 Cl0 3.231506 1_455
Ba2 Cl0 3.231506 1_555
Ba2 Cl0 3.231506 1_465
Ba2 Cl0 3.231506 1_565
Ba2 Cl1 3.388709 1_555
Ba3 O0 2.588586 1_556
Ba3 O3 3.047537 1_465
Ba3 O3 3.047537 1_455
Ba3 O3 3.047537 1_555
Ba3 O3 3.047537 1_565
Ba3 O2 3.063810 1_455
Ba3 O2 3.063810 1_555
Ba3 O4 3.063810 1_555
Ba3 O4 3.063810 1_565
In0 O3 2.117170 1_555
In0 O2 2.177086 1_545
In0 O4 2.177086 1_555
In0 O4 2.177086 1_655
In0 O2 2.177086 1_555
In1 O0 2.117170 1_555
In1 O5 2.177086 1_455
In1 O1 2.177086 1_555
In1 O1 2.177086 1_565
In1 O5 2.177086 1_555
