# generated using pymatgen
data_Sm2(PPt2)3
_symmetry_space_group_name_H-M   'P 1'
_cell_length_a   23.23018675
_cell_length_b   23.23018675
_cell_length_c   23.23018675
_cell_angle_alpha   169.80560677
_cell_angle_beta   169.80560677
_cell_angle_gamma   14.43619515
_symmetry_Int_Tables_number   1
_chemical_formula_structural   Sm2(PPt2)3
_chemical_formula_sum   'Sm4 P6 Pt12'
_cell_volume   392.67577296
_cell_formula_units_Z   2
loop_
 _symmetry_equiv_pos_site_id
 _symmetry_equiv_pos_as_xyz
  1  'x, y, z'
loop_
 _atom_site_type_symbol
 _atom_site_label
 _atom_site_symmetry_multiplicity
 _atom_site_fract_x
 _atom_site_fract_y
 _atom_site_fract_z
 _atom_site_occupancy
  Sm  Sm0  1  0.04940700  0.54940700  0.50000000  1
  Sm  Sm1  1  0.29940700  0.29940700  0.00000000  1
  Sm  Sm2  1  0.45059300  0.95059300  0.50000000  1
  Sm  Sm3  1  0.70059300  0.70059300  0.00000000  1
  P  P0  1  0.82512300  0.82512300  0.00000000  1
  P  P1  1  0.75000000  0.25000000  0.50000000  1
  P  P2  1  0.57512300  0.07512300  0.50000000  1
  P  P3  1  0.92487700  0.42487700  0.50000000  1
  P  P4  1  0.00000000  0.00000000  0.00000000  1
  P  P5  1  0.17487700  0.17487700  0.00000000  1
  Pt  Pt0  1  0.89772200  0.89772200  0.00000000  1
  Pt  Pt1  1  0.39970200  0.39970200  0.00000000  1
  Pt  Pt2  1  0.64772200  0.14772200  0.50000000  1
  Pt  Pt3  1  0.10227800  0.10227800  0.00000000  1
  Pt  Pt4  1  0.14970200  0.64970200  0.50000000  1
  Pt  Pt5  1  0.77419800  0.77419800  0.00000000  1
  Pt  Pt6  1  0.22580200  0.22580200  0.00000000  1
  Pt  Pt7  1  0.85227800  0.35227800  0.50000000  1
  Pt  Pt8  1  0.97580200  0.47580200  0.50000000  1
  Pt  Pt9  1  0.60029800  0.60029800  0.00000000  1
  Pt  Pt10  1  0.35029800  0.85029800  0.50000000  1
  Pt  Pt11  1  0.52419800  0.02419800  0.50000000  1
loop_
_geom_bond_atom_site_label_1
_geom_bond_atom_site_label_2
_geom_bond_distance
_geom_bond_site_symmetry_2
P0 Pt5 2.347244 1_555
P0 Pt10 2.367729 1_554
P0 Pt10 2.367729 1_655
P0 Pt7 2.413766 1_554
P0 Pt7 2.413766 1_565
P0 Sm1 3.150287 1_554
P0 Sm1 3.150287 1_565
P0 Sm1 3.150287 1_655
P0 Sm1 3.150287 1_666
P1 Pt5 2.345988 1_545
P1 Pt5 2.345988 1_556
P1 Pt6 2.345988 1_555
P1 Pt6 2.345988 1_656
P1 Sm1 3.073380 1_555
P1 Sm3 3.073380 1_556
P1 Sm3 3.073380 1_545
P1 Sm1 3.073380 1_656
P2 Pt11 2.347244 1_555
P2 Pt9 2.367729 1_556
P2 Pt9 2.367729 1_545
P2 Pt3 2.413766 1_555
P2 Pt3 2.413766 1_656
P2 Sm0 3.150287 1_555
P2 Sm0 3.150287 1_656
P2 Sm0 3.150287 1_544
P2 Sm0 3.150287 1_645
P3 Pt8 2.347244 1_555
P3 Pt1 2.367729 1_555
P3 Pt1 2.367729 1_656
P3 Pt0 2.413766 1_545
P3 Pt0 2.413766 1_556
P3 Sm2 3.150287 1_555
P3 Sm2 3.150287 1_656
P3 Sm2 3.150287 1_544
P3 Sm2 3.150287 1_645
P4 Pt11 2.345988 1_454
P4 Pt11 2.345988 1_555
P4 Pt8 2.345988 1_444
P4 Pt8 2.345988 1_455
P4 Sm0 3.073380 1_555
P4 Sm0 3.073380 1_544
P4 Sm2 3.073380 1_545
P4 Sm2 3.073380 1_444
P5 Pt6 2.347244 1_555
P5 Pt4 2.367729 1_555
P5 Pt4 2.367729 1_544
P5 Pt2 2.413766 1_555
P5 Pt2 2.413766 1_454
P5 Sm3 3.150287 1_444
P5 Sm3 3.150287 1_455
P5 Sm3 3.150287 1_545
P5 Sm3 3.150287 1_556
Pt0 Pt1 2.920220 1_666
Pt0 Pt1 2.920220 1_554
Pt0 Pt1 2.920220 1_565
Pt0 Pt1 2.920220 1_655
Pt0 Pt7 2.940592 1_565
Pt0 Pt7 2.940592 1_554
Pt0 Pt10 3.006282 1_655
Pt0 Pt10 3.006282 1_554
Pt0 Sm2 3.193486 1_554
Pt0 Sm2 3.193486 1_655
Pt1 Pt7 3.006282 1_454
Pt1 Pt7 3.006282 1_555
Pt1 Sm2 3.124401 1_544
Pt1 Sm2 3.124401 1_555
Pt2 Pt4 2.920220 1_555
Pt2 Pt4 2.920220 1_656
Pt2 Pt4 2.920220 1_544
Pt2 Pt4 2.920220 1_645
Pt2 Pt3 2.940592 1_656
Pt2 Pt3 2.940592 1_555
Pt2 Pt9 3.006282 1_545
Pt2 Pt9 3.006282 1_556
Pt2 Sm3 3.193486 1_545
Pt2 Sm3 3.193486 1_556
Pt3 Pt9 2.920220 1_545
Pt3 Pt9 2.920220 1_455
Pt3 Pt9 2.920220 1_556
Pt3 Pt9 2.920220 1_444
Pt3 Pt4 3.006282 1_555
Pt3 Pt4 3.006282 1_544
Pt3 Sm0 3.193486 1_555
Pt3 Sm0 3.193486 1_544
Pt4 Sm3 3.124401 1_556
Pt4 Sm3 3.124401 1_455
Pt5 Sm1 3.141569 1_565
Pt5 Sm1 3.141569 1_655
Pt5 Sm1 3.141569 1_554
Pt5 Sm1 3.141569 1_666
Pt5 Sm3 3.392615 1_555
Pt6 Sm3 3.141569 1_455
Pt6 Sm3 3.141569 1_556
Pt6 Sm3 3.141569 1_545
Pt6 Sm3 3.141569 1_444
Pt6 Sm1 3.392615 1_555
Pt7 Sm1 3.193486 1_555
Pt7 Sm1 3.193486 1_656
Pt8 Sm2 3.141569 1_656
Pt8 Sm2 3.141569 1_645
Pt8 Sm2 3.141569 1_555
Pt8 Sm2 3.141569 1_544
Pt8 Sm0 3.392615 1_655
Pt9 Sm0 3.124401 1_554
Pt9 Sm0 3.124401 1_655
Pt10 Pt7 2.920220 1_465
Pt10 Pt7 2.920220 1_566
Pt10 Pt7 2.920220 1_454
Pt10 Pt7 2.920220 1_555
Pt10 Sm1 3.124401 1_555
Pt10 Sm1 3.124401 1_566
Pt11 Sm0 3.141569 1_555
Pt11 Sm0 3.141569 1_544
Pt11 Sm0 3.141569 1_645
Pt11 Sm0 3.141569 1_656
Pt11 Sm2 3.392615 1_545
