# generated using pymatgen
data_BiAsO4
_symmetry_space_group_name_H-M   'P 1'
_cell_length_a   5.09986735
_cell_length_b   5.09986651
_cell_length_c   6.85357723
_cell_angle_alpha   111.84263807
_cell_angle_beta   111.84263559
_cell_angle_gamma   90.00001598
_symmetry_Int_Tables_number   1
_chemical_formula_structural   BiAsO4
_chemical_formula_sum   'Bi2 As2 O8'
_cell_volume   151.58198113
_cell_formula_units_Z   2
loop_
 _symmetry_equiv_pos_site_id
 _symmetry_equiv_pos_as_xyz
  1  'x, y, z'
loop_
 _atom_site_type_symbol
 _atom_site_label
 _atom_site_symmetry_multiplicity
 _atom_site_fract_x
 _atom_site_fract_y
 _atom_site_fract_z
 _atom_site_occupancy
  Bi  Bi0  1  0.62500000  0.87500000  0.25000000  1
  Bi  Bi1  1  0.37500000  0.12500000  0.75000000  1
  As  As0  1  0.12500000  0.37500000  0.25000000  1
  As  As1  1  0.87500000  0.62500000  0.75000000  1
  O  O0  1  0.06112437  0.69873406  0.40580704  1
  O  O1  1  0.93887563  0.30126594  0.59419296  1
  O  O2  1  0.80126594  0.15531533  0.09419296  1
  O  O3  1  0.34468467  0.20707197  0.40580704  1
  O  O4  1  0.70707197  0.56112437  0.90580704  1
  O  O5  1  0.29292803  0.43887563  0.09419296  1
  O  O6  1  0.65531533  0.79292803  0.59419296  1
  O  O7  1  0.19873406  0.84468467  0.90580704  1
loop_
_geom_bond_atom_site_label_1
_geom_bond_atom_site_label_2
_geom_bond_distance
_geom_bond_site_symmetry_2
Bi0 O3 2.417071 1_565
Bi0 O2 2.417073 1_565
Bi0 O5 2.417078 1_555
Bi0 O0 2.417082 1_655
Bi0 O4 2.495408 1_554
Bi0 O1 2.495411 1_565
Bi0 O6 2.495411 1_555
Bi0 O7 2.495414 1_554
Bi1 O6 2.417071 1_545
Bi1 O7 2.417073 1_545
Bi1 O4 2.417078 1_555
Bi1 O1 2.417082 1_455
Bi1 O5 2.495408 1_556
Bi1 O0 2.495411 1_545
Bi1 O3 2.495411 1_555
Bi1 O2 2.495414 1_556
As0 O0 1.708555 1_555
As0 O5 1.708559 1_555
As0 O2 1.708560 1_455
As0 O3 1.708564 1_555
As1 O1 1.708555 1_555
As1 O4 1.708559 1_555
As1 O7 1.708560 1_655
As1 O6 1.708564 1_555
