# generated using pymatgen
data_Ti2Co(PO5)2
_symmetry_space_group_name_H-M   'P 1'
_cell_length_a   7.49518399
_cell_length_b   10.53099159
_cell_length_c   10.52753658
_cell_angle_alpha   90.17260993
_cell_angle_beta   110.83240092
_cell_angle_gamma   110.83411282
_symmetry_Int_Tables_number   1
_chemical_formula_structural   Ti2Co(PO5)2
_chemical_formula_sum   'Ti8 Co4 P8 O40'
_cell_volume   717.83088900
_cell_formula_units_Z   4
loop_
 _symmetry_equiv_pos_site_id
 _symmetry_equiv_pos_as_xyz
  1  'x, y, z'
loop_
 _atom_site_type_symbol
 _atom_site_label
 _atom_site_symmetry_multiplicity
 _atom_site_fract_x
 _atom_site_fract_y
 _atom_site_fract_z
 _atom_site_occupancy
  Ti  Ti0  1  0.79218800  0.62478200  0.40219600  1
  Ti  Ti1  1  0.79243600  0.12483600  0.90229800  1
  Ti  Ti2  1  0.29238400  0.40215600  0.12495600  1
  Ti  Ti3  1  0.29272400  0.90210700  0.62515600  1
  Ti  Ti4  1  0.70761600  0.09784400  0.37504400  1
  Ti  Ti5  1  0.70727600  0.59789300  0.87484400  1
  Ti  Ti6  1  0.20781200  0.87521800  0.09780400  1
  Ti  Ti7  1  0.20756400  0.37516400  0.59770200  1
  Co  Co0  1  0.00000000  0.25000000  0.25000000  1
  Co  Co1  1  0.50000000  0.75000000  0.25000000  1
  Co  Co2  1  0.00000000  0.75000000  0.75000000  1
  Co  Co3  1  0.50000000  0.25000000  0.75000000  1
  P  P0  1  0.49607200  0.81411000  0.93550400  1
  P  P1  1  0.49598500  0.31397700  0.43550900  1
  P  P2  1  0.50392800  0.68589000  0.56449600  1
  P  P3  1  0.50401500  0.18602300  0.06449100  1
  P  P4  1  0.99600200  0.93554000  0.31402000  1
  P  P5  1  0.99594300  0.43549200  0.81397300  1
  P  P6  1  0.00399800  0.56446000  0.18598000  1
  P  P7  1  0.00405700  0.06450800  0.68602700  1
  O  O0  1  0.49944800  0.55479100  0.21386100  1
  O  O1  1  0.49961000  0.05494700  0.71388900  1
  O  O2  1  0.99963100  0.71375000  0.55518500  1
  O  O3  1  0.99953800  0.21386700  0.05494100  1
  O  O4  1  0.50055200  0.94520900  0.28613900  1
  O  O5  1  0.50039000  0.44505300  0.78611100  1
  O  O6  1  0.00036900  0.78625000  0.94481500  1
  O  O7  1  0.00046200  0.28613200  0.44505900  1
  O  O8  1  0.57336500  0.69752400  0.93257100  1
  O  O9  1  0.57333600  0.19749000  0.43244500  1
  O  O10  1  0.92666100  0.06754100  0.80257700  1
  O  O11  1  0.92661800  0.56751800  0.30260200  1
  O  O12  1  0.07334000  0.43245900  0.69742300  1
  O  O13  1  0.07338200  0.93248200  0.19739800  1
  O  O14  1  0.42663500  0.80247600  0.56742900  1
  O  O15  1  0.42666400  0.30251000  0.06755500  1
  O  O16  1  0.18344400  0.70285100  0.19883100  1
  O  O17  1  0.18344200  0.20287400  0.69882400  1
  O  O18  1  0.81655600  0.79714900  0.30116900  1
  O  O19  1  0.81655800  0.29712600  0.80117600  1
  O  O20  1  0.68345700  0.19883800  0.20289800  1
  O  O21  1  0.68272400  0.69857900  0.70294700  1
  O  O22  1  0.31654300  0.30116200  0.29710200  1
  O  O23  1  0.31727600  0.80142100  0.79705300  1
  O  O24  1  0.41221000  0.80158800  0.05156900  1
  O  O25  1  0.41218300  0.30155700  0.55155900  1
  O  O26  1  0.91217200  0.05159300  0.30150800  1
  O  O27  1  0.91193500  0.55151100  0.80130400  1
  O  O28  1  0.08782800  0.44840700  0.19849200  1
  O  O29  1  0.08806500  0.94848900  0.69869600  1
  O  O30  1  0.58779000  0.69841200  0.44843100  1
  O  O31  1  0.58781700  0.19844300  0.94844100  1
  O  O32  1  0.67592500  0.95399500  0.96154500  1
  O  O33  1  0.67568900  0.45391500  0.46135100  1
  O  O34  1  0.17566000  0.46144700  0.95393600  1
  O  O35  1  0.17570300  0.96147000  0.45393000  1
  O  O36  1  0.32407500  0.54600500  0.53845500  1
  O  O37  1  0.32431100  0.04608500  0.03864900  1
  O  O38  1  0.82434000  0.03855300  0.54606400  1
  O  O39  1  0.82429700  0.53853000  0.04607000  1
loop_
_geom_bond_atom_site_label_1
_geom_bond_atom_site_label_2
_geom_bond_distance
_geom_bond_site_symmetry_2
Co0 O7 2.085885 1_555
Co0 O3 2.085887 1_455
Co0 O28 2.091745 1_555
Co0 O26 2.091745 1_455
Co0 O22 2.101779 1_555
Co0 O20 2.101779 1_455
Co1 O4 2.087814 1_555
Co1 O0 2.087814 1_555
Co1 O24 2.091752 1_555
Co1 O30 2.091752 1_555
Co1 O18 2.101779 1_555
Co1 O16 2.101779 1_555
Co2 O2 2.083871 1_455
Co2 O6 2.083871 1_555
Co2 O27 2.091801 1_455
Co2 O29 2.091801 1_555
Co2 O23 2.106708 1_555
Co2 O21 2.106708 1_455
Co3 O1 2.086647 1_555
Co3 O5 2.086647 1_555
Co3 O31 2.091733 1_555
Co3 O25 2.091733 1_555
Co3 O19 2.101822 1_555
Co3 O17 2.101822 1_555
O0 Ti2 1.746890 1_555
O0 Ti0 2.243922 1_555
O1 Ti3 1.747306 1_545
O1 Ti1 2.244715 1_555
O2 Ti0 1.750098 1_555
O2 Ti3 2.245817 1_655
O3 Ti1 1.747101 1_554
O3 Ti2 2.244411 1_655
O4 Ti4 1.746890 1_565
O4 Ti6 2.243922 1_555
O5 Ti5 1.747306 1_555
O5 Ti7 2.244715 1_555
O6 Ti6 1.750098 1_556
O6 Ti5 2.245817 1_455
O7 Ti7 1.747103 1_555
O7 Ti4 2.244405 1_455
O8 P0 1.537018 1_555
O8 Ti5 1.912239 1_555
O9 P1 1.536547 1_555
O9 Ti4 1.912937 1_555
O10 P7 1.536954 1_655
O10 Ti1 1.912454 1_555
O11 P6 1.537621 1_655
O11 Ti0 1.912589 1_555
O12 P5 1.536960 1_455
O12 Ti7 1.912447 1_555
O13 P4 1.537621 1_455
O13 Ti6 1.912589 1_555
O14 P2 1.537018 1_555
O14 Ti3 1.912239 1_555
O15 P3 1.536547 1_555
O15 Ti2 1.912937 1_555
O16 P6 1.557672 1_555
O16 Ti6 2.091276 1_555
O17 P7 1.557405 1_555
O17 Ti7 2.091214 1_555
O18 P4 1.557672 1_555
O18 Ti0 2.091276 1_555
O19 P5 1.557405 1_555
O19 Ti1 2.091214 1_555
O20 P3 1.557569 1_555
O20 Ti4 2.088898 1_555
O21 P2 1.555742 1_555
O21 Ti5 2.084822 1_555
O22 P1 1.557569 1_555
O22 Ti2 2.088898 1_555
O23 P0 1.555742 1_555
O23 Ti3 2.084822 1_555
O24 P0 1.547175 1_554
O24 Ti6 2.135014 1_555
O25 P1 1.546793 1_555
O25 Ti7 2.135935 1_555
O26 P4 1.547298 1_545
O26 Ti4 2.135498 1_555
O27 P5 1.547746 1_555
O27 Ti5 2.136906 1_555
O28 P6 1.547298 1_555
O28 Ti2 2.135498 1_555
O29 P7 1.547746 1_565
O29 Ti3 2.136906 1_555
O30 P2 1.547175 1_555
O30 Ti0 2.135014 1_555
O31 P3 1.546793 1_556
O31 Ti1 2.135935 1_555
O32 P0 1.544212 1_555
O32 Ti1 1.914440 1_565
O33 P1 1.544332 1_555
O33 Ti0 1.914157 1_555
O34 P5 1.544090 1_455
O34 Ti2 1.916186 1_556
O35 P4 1.543711 1_455
O35 Ti3 1.918777 1_555
O36 P2 1.544212 1_555
O36 Ti7 1.914440 1_555
O37 P3 1.544332 1_555
O37 Ti6 1.914157 1_545
O38 P7 1.544090 1_655
O38 Ti4 1.916186 1_555
O39 P6 1.543711 1_655
O39 Ti5 1.918777 1_554
