# generated using pymatgen
data_Sm3Te4
_symmetry_space_group_name_H-M   'P 1'
_cell_length_a   8.19936760
_cell_length_b   8.19917577
_cell_length_c   8.19979968
_cell_angle_alpha   109.48259427
_cell_angle_beta   109.48239911
_cell_angle_gamma   109.46886490
_symmetry_Int_Tables_number   1
_chemical_formula_structural   Sm3Te4
_chemical_formula_sum   'Sm6 Te8'
_cell_volume   424.25171327
_cell_formula_units_Z   2
loop_
 _symmetry_equiv_pos_site_id
 _symmetry_equiv_pos_as_xyz
  1  'x, y, z'
loop_
 _atom_site_type_symbol
 _atom_site_label
 _atom_site_symmetry_multiplicity
 _atom_site_fract_x
 _atom_site_fract_y
 _atom_site_fract_z
 _atom_site_occupancy
  Sm  Sm0  1  0.12497600  0.74993758  0.87493532  1
  Sm  Sm1  1  0.62499014  0.37493355  0.24994591  1
  Sm  Sm2  1  0.37497176  0.24996211  0.62500428  1
  Sm  Sm3  1  0.74996544  0.87496486  0.12500712  1
  Sm  Sm4  1  0.24995097  0.62497787  0.37494606  1
  Sm  Sm5  1  0.87494191  0.12501601  0.74995948  1
  Te  Te0  1  0.64392977  0.64397753  0.64390864  1
  Te  Te1  1  0.00011605  0.85607069  0.50016317  1
  Te  Te2  1  0.85598893  0.50012533  0.00010874  1
  Te  Te3  1  0.00005742  0.35595710  0.50001483  1
  Te  Te4  1  0.50009654  0.00000571  0.85599715  1
  Te  Te5  1  0.49998581  0.00004315  0.35597156  1
  Te  Te6  1  0.35604092  0.50010664  0.00011019  1
  Te  Te7  1  0.14399034  0.14392286  0.14392955  1
loop_
_geom_bond_atom_site_label_1
_geom_bond_atom_site_label_2
_geom_bond_distance
_geom_bond_site_symmetry_2
Sm0 Te3 3.163066 1_555
Sm0 Te7 3.163339 1_566
Sm0 Te2 3.164523 1_456
Sm0 Te4 3.164732 1_565
Sm0 Te1 3.395310 1_555
Sm0 Te5 3.395512 1_566
Sm0 Te6 3.395766 1_556
Sm0 Te0 3.396273 1_455
Sm1 Te4 3.163026 1_554
Sm1 Te0 3.163778 1_555
Sm1 Te6 3.163982 1_555
Sm1 Te3 3.164150 1_655
Sm1 Te5 3.395794 1_555
Sm1 Te2 3.395995 1_555
Sm1 Te7 3.396008 1_555
Sm1 Te1 3.396451 1_655
Sm2 Te1 3.162944 1_545
Sm2 Te5 3.163745 1_555
Sm2 Te0 3.164331 1_555
Sm2 Te6 3.164464 1_556
Sm2 Te3 3.395434 1_555
Sm2 Te2 3.395648 1_556
Sm2 Te7 3.396301 1_555
Sm2 Te4 3.396330 1_555
Sm3 Te6 3.162966 1_555
Sm3 Te4 3.163604 1_564
Sm3 Te7 3.164354 1_665
Sm3 Te1 3.164642 1_655
Sm3 Te2 3.394924 1_555
Sm3 Te3 3.395241 1_665
Sm3 Te5 3.396255 1_565
Sm3 Te0 3.396474 1_554
Sm4 Te2 3.162865 1_455
Sm4 Te0 3.163340 1_555
Sm4 Te3 3.164366 1_555
Sm4 Te5 3.164425 1_565
Sm4 Te6 3.395555 1_555
Sm4 Te4 3.395580 1_565
Sm4 Te1 3.396066 1_555
Sm4 Te7 3.396234 1_555
Sm5 Te5 3.163167 1_555
Sm5 Te1 3.163782 1_645
Sm5 Te7 3.164004 1_656
Sm5 Te2 3.164467 1_556
Sm5 Te4 3.395594 1_555
Sm5 Te0 3.396122 1_545
Sm5 Te6 3.396240 1_656
Sm5 Te3 3.396250 1_655
