# generated using pymatgen
data_Ce3Al
_symmetry_space_group_name_H-M   'P 1'
_cell_length_a   5.20515100
_cell_length_b   6.67881200
_cell_length_c   11.85665697
_cell_angle_alpha   89.00273165
_cell_angle_beta   90.00000000
_cell_angle_gamma   90.00000000
_symmetry_Int_Tables_number   1
_chemical_formula_structural   Ce3Al
_chemical_formula_sum   'Ce12 Al4'
_cell_volume   412.12505468
_cell_formula_units_Z   4
loop_
 _symmetry_equiv_pos_site_id
 _symmetry_equiv_pos_as_xyz
  1  'x, y, z'
loop_
 _atom_site_type_symbol
 _atom_site_label
 _atom_site_symmetry_multiplicity
 _atom_site_fract_x
 _atom_site_fract_y
 _atom_site_fract_z
 _atom_site_occupancy
  Ce  Ce0  1  0.75000000  0.50638200  0.32640300  1
  Ce  Ce1  1  0.25000000  0.74287300  0.39438000  1
  Ce  Ce2  1  0.25000000  0.72430300  0.92863200  1
  Ce  Ce3  1  0.75000000  0.27569700  0.07136800  1
  Ce  Ce4  1  0.75000000  0.25712700  0.60562000  1
  Ce  Ce5  1  0.25000000  0.49361800  0.67359700  1
  Ce  Ce6  1  0.25000000  0.98986600  0.19959800  1
  Ce  Ce7  1  0.25000000  0.28425200  0.92687600  1
  Ce  Ce8  1  0.25000000  0.22113500  0.40231400  1
  Ce  Ce9  1  0.75000000  0.77886500  0.59768600  1
  Ce  Ce10  1  0.75000000  0.71574800  0.07312400  1
  Ce  Ce11  1  0.75000000  0.01013400  0.80040200  1
  Al  Al0  1  0.75000000  0.99625000  0.33915300  1
  Al  Al1  1  0.25000000  0.48801600  0.16952300  1
  Al  Al2  1  0.25000000  0.00375000  0.66084700  1
  Al  Al3  1  0.75000000  0.51198400  0.83047700  1
loop_
_geom_bond_atom_site_label_1
_geom_bond_atom_site_label_2
_geom_bond_distance
_geom_bond_site_symmetry_2
Ce0 Ce1 3.156275 1_555
Ce0 Ce1 3.156275 1_655
Ce0 Ce10 3.290498 1_555
Ce0 Ce8 3.339648 1_655
Ce0 Ce8 3.339648 1_555
Ce0 Ce3 3.417555 1_555
Ce0 Ce4 3.679595 1_555
Ce0 Ce9 3.723116 1_555
Ce1 Ce6 2.814649 1_555
Ce1 Ce8 3.197243 1_565
Ce1 Ce8 3.484222 1_555
Ce1 Ce9 3.558371 1_455
Ce1 Ce9 3.558371 1_555
Ce1 Ce5 3.679595 1_555
Ce2 Ce7 2.939454 1_555
Ce2 Ce5 3.417555 1_555
Ce2 Ce6 3.696747 1_556
Ce2 Ce7 3.739490 1_565
Ce3 Ce7 3.115812 1_654
Ce3 Ce7 3.115812 1_554
Ce3 Ce6 3.553624 1_645
Ce3 Ce6 3.553624 1_545
Ce4 Ce5 3.156275 1_555
Ce4 Ce5 3.156275 1_655
Ce4 Ce9 3.197243 1_545
Ce4 Ce9 3.484222 1_555
Ce4 Ce8 3.558371 1_655
Ce4 Ce8 3.558371 1_555
Ce5 Ce7 3.290498 1_555
Ce5 Ce9 3.339648 1_455
Ce5 Ce9 3.339648 1_555
Ce5 Ce8 3.723116 1_555
Ce6 Ce8 2.879584 1_565
Ce6 Ce7 3.755052 1_564
Ce10 Ce3 2.939454 1_555
Ce10 Ce2 3.115812 1_654
Ce10 Ce2 3.115812 1_554
Ce10 Ce6 3.531205 1_555
Ce10 Ce6 3.531205 1_655
Ce10 Ce3 3.739490 1_565
Ce10 Ce11 3.755052 1_564
Ce11 Ce4 2.814649 1_555
Ce11 Ce9 2.879584 1_545
Ce11 Ce7 3.531205 1_555
Ce11 Ce7 3.531205 1_655
Ce11 Ce2 3.553624 1_645
Ce11 Ce2 3.553624 1_545
Ce11 Ce3 3.696747 1_556
Al0 Ce6 3.084730 1_555
Al0 Ce6 3.084730 1_655
Al0 Ce8 3.103106 1_565
Al0 Ce8 3.103106 1_665
Al0 Ce1 3.166597 1_555
Al0 Ce1 3.166597 1_655
Al0 Ce0 3.277854 1_555
Al0 Ce9 3.368874 1_555
Al0 Ce0 3.407798 1_565
Al0 Ce4 3.634454 1_565
Al0 Ce3 3.654849 1_565
Al0 Ce10 3.696548 1_555
Al1 Ce1 3.187960 1_555
Al1 Ce3 3.193131 1_455
Al1 Ce3 3.193131 1_555
Al1 Ce0 3.202539 1_455
Al1 Ce0 3.202539 1_555
Al1 Ce7 3.203961 1_554
Al1 Ce10 3.214443 1_555
Al1 Ce10 3.214443 1_455
Al1 Ce2 3.239014 1_554
Al1 Ce8 3.259470 1_555
Al1 Ce6 3.339928 1_545
Al1 Ce6 3.376843 1_555
Al2 Ce11 3.084730 1_555
Al2 Ce11 3.084730 1_455
Al2 Ce9 3.103106 1_545
Al2 Ce9 3.103106 1_445
Al2 Ce4 3.166597 1_555
Al2 Ce4 3.166597 1_455
Al2 Ce5 3.277854 1_555
Al2 Ce8 3.368874 1_555
Al2 Ce5 3.407798 1_545
Al2 Ce1 3.634454 1_545
Al2 Ce2 3.654849 1_545
Al2 Ce7 3.696548 1_555
Al3 Ce4 3.187960 1_555
Al3 Ce2 3.193131 1_555
Al3 Ce2 3.193131 1_655
Al3 Ce5 3.202539 1_555
Al3 Ce5 3.202539 1_655
Al3 Ce10 3.203961 1_556
Al3 Ce7 3.214443 1_555
Al3 Ce7 3.214443 1_655
Al3 Ce3 3.239014 1_556
Al3 Ce9 3.259470 1_555
Al3 Ce11 3.339928 1_565
Al3 Ce11 3.376843 1_555
