# generated using pymatgen
data_Zn(RhO2)2
_symmetry_space_group_name_H-M   'P 1'
_cell_length_a   6.03247110
_cell_length_b   6.03247033
_cell_length_c   6.03247092
_cell_angle_alpha   60.00000227
_cell_angle_beta   60.00000647
_cell_angle_gamma   60.00000011
_symmetry_Int_Tables_number   1
_chemical_formula_structural   Zn(RhO2)2
_chemical_formula_sum   'Zn2 Rh4 O8'
_cell_volume   155.22823269
_cell_formula_units_Z   2
loop_
 _symmetry_equiv_pos_site_id
 _symmetry_equiv_pos_as_xyz
  1  'x, y, z'
loop_
 _atom_site_type_symbol
 _atom_site_label
 _atom_site_symmetry_multiplicity
 _atom_site_fract_x
 _atom_site_fract_y
 _atom_site_fract_z
 _atom_site_occupancy
  Zn  Zn0  1  0.87500000  0.87500000  0.87500000  1
  Zn  Zn1  1  0.12500000  0.12500000  0.12500000  1
  Rh  Rh0  1  0.50000000  0.50000000  0.00000000  1
  Rh  Rh1  1  0.50000000  0.50000000  0.50000000  1
  Rh  Rh2  1  -0.00000000  0.50000000  0.50000000  1
  Rh  Rh3  1  0.50000000  -0.00000000  0.50000000  1
  O  O0  1  0.74007540  0.74007540  0.74007540  1
  O  O1  1  0.25992460  0.25992460  0.72022720  1
  O  O2  1  0.25992460  0.72022720  0.25992460  1
  O  O3  1  0.72022720  0.25992460  0.25992460  1
  O  O4  1  0.74007540  0.27977280  0.74007540  1
  O  O5  1  0.27977280  0.74007540  0.74007540  1
  O  O6  1  0.25992460  0.25992460  0.25992460  1
  O  O7  1  0.74007540  0.74007540  0.27977280  1
loop_
_geom_bond_atom_site_label_1
_geom_bond_atom_site_label_2
_geom_bond_distance
_geom_bond_site_symmetry_2
O0 Zn0 1.993710 1_555
O0 Rh3 2.051629 1_565
O0 Rh2 2.051629 1_655
O0 Rh0 2.051629 1_556
O1 Zn1 1.993705 1_556
O1 Rh1 2.051629 1_555
O1 Rh3 2.051633 1_555
O1 Rh2 2.051633 1_555
O2 Zn1 1.993705 1_565
O2 Rh1 2.051629 1_555
O2 Rh0 2.051633 1_555
O2 Rh2 2.051633 1_555
O3 Zn1 1.993705 1_655
O3 Rh1 2.051629 1_555
O3 Rh0 2.051633 1_555
O3 Rh3 2.051633 1_555
O4 Zn0 1.993705 1_545
O4 Rh1 2.051629 1_555
O4 Rh0 2.051633 1_556
O4 Rh2 2.051633 1_655
O5 Zn0 1.993705 1_455
O5 Rh1 2.051629 1_555
O5 Rh0 2.051633 1_556
O5 Rh3 2.051633 1_565
O6 Zn1 1.993710 1_555
O6 Rh3 2.051629 1_555
O6 Rh2 2.051629 1_555
O6 Rh0 2.051629 1_555
O7 Zn0 1.993705 1_554
O7 Rh1 2.051629 1_555
O7 Rh3 2.051633 1_565
O7 Rh2 2.051633 1_655
