# generated using pymatgen
data_Hf2Ni2Sn
_symmetry_space_group_name_H-M   'P 1'
_cell_length_a   7.06883100
_cell_length_b   7.06883100
_cell_length_c   6.78695200
_cell_angle_alpha   90.00000000
_cell_angle_beta   90.00000000
_cell_angle_gamma   90.00000000
_symmetry_Int_Tables_number   1
_chemical_formula_structural   Hf2Ni2Sn
_chemical_formula_sum   'Hf8 Ni8 Sn4'
_cell_volume   339.13294029
_cell_formula_units_Z   4
loop_
 _symmetry_equiv_pos_site_id
 _symmetry_equiv_pos_as_xyz
  1  'x, y, z'
loop_
 _atom_site_type_symbol
 _atom_site_label
 _atom_site_symmetry_multiplicity
 _atom_site_fract_x
 _atom_site_fract_y
 _atom_site_fract_z
 _atom_site_occupancy
  Hf  Hf0  1  0.18086500  0.18086500  0.00000000  1
  Hf  Hf1  1  0.68086500  0.31913500  0.50000000  1
  Hf  Hf2  1  0.31913500  0.68086500  0.50000000  1
  Hf  Hf3  1  0.81913500  0.81913500  0.00000000  1
  Hf  Hf4  1  0.65232300  0.34767700  0.00000000  1
  Hf  Hf5  1  0.84767700  0.84767700  0.50000000  1
  Hf  Hf6  1  0.15232300  0.15232300  0.50000000  1
  Hf  Hf7  1  0.34767700  0.65232300  0.00000000  1
  Ni  Ni0  1  0.37373800  0.37373800  0.28440100  1
  Ni  Ni1  1  0.87373800  0.12626200  0.78440100  1
  Ni  Ni2  1  0.12626200  0.87373800  0.78440100  1
  Ni  Ni3  1  0.62626200  0.62626200  0.28440100  1
  Ni  Ni4  1  0.12626200  0.87373800  0.21559900  1
  Ni  Ni5  1  0.87373800  0.12626200  0.21559900  1
  Ni  Ni6  1  0.37373800  0.37373800  0.71559900  1
  Ni  Ni7  1  0.62626200  0.62626200  0.71559900  1
  Sn  Sn0  1  0.50000000  0.00000000  0.25000000  1
  Sn  Sn1  1  0.50000000  0.00000000  0.75000000  1
  Sn  Sn2  1  0.00000000  0.50000000  0.25000000  1
  Sn  Sn3  1  0.00000000  0.50000000  0.75000000  1
loop_
_geom_bond_atom_site_label_1
_geom_bond_atom_site_label_2
_geom_bond_distance
_geom_bond_site_symmetry_2
Hf0 Ni5 2.646408 1_455
Hf0 Ni4 2.646408 1_545
Hf0 Ni1 2.646408 1_454
Hf0 Ni2 2.646408 1_544
Hf0 Ni0 2.728256 1_555
Hf0 Ni6 2.728256 1_554
Hf0 Sn0 3.098811 1_555
Hf0 Sn3 3.098811 1_554
Hf0 Sn2 3.098811 1_555
Hf0 Sn1 3.098811 1_554
Hf1 Ni6 2.646408 1_555
Hf1 Ni7 2.646408 1_555
Hf1 Ni3 2.646408 1_555
Hf1 Ni0 2.646408 1_555
Hf1 Ni1 2.728256 1_555
Hf1 Ni5 2.728256 1_555
Hf1 Sn1 3.098811 1_555
Hf1 Sn0 3.098811 1_555
Hf1 Sn2 3.098811 1_655
Hf1 Sn3 3.098811 1_655
Hf2 Ni6 2.646408 1_555
Hf2 Ni7 2.646408 1_555
Hf2 Ni3 2.646408 1_555
Hf2 Ni0 2.646408 1_555
Hf2 Ni2 2.728256 1_555
Hf2 Ni4 2.728256 1_555
Hf2 Sn2 3.098811 1_555
Hf2 Sn3 3.098811 1_555
Hf2 Sn1 3.098811 1_565
Hf2 Sn0 3.098811 1_565
Hf3 Ni4 2.646408 1_655
Hf3 Ni5 2.646408 1_565
Hf3 Ni1 2.646408 1_564
Hf3 Ni2 2.646408 1_654
Hf3 Ni3 2.728256 1_555
Hf3 Ni7 2.728256 1_554
Hf3 Sn2 3.098811 1_655
Hf3 Sn3 3.098811 1_654
Hf3 Sn0 3.098811 1_565
Hf3 Sn1 3.098811 1_564
Hf4 Ni5 2.653392 1_555
Hf4 Ni1 2.653392 1_554
Hf4 Ni0 2.763638 1_555
Hf4 Ni3 2.763638 1_555
Hf4 Ni6 2.763638 1_554
Hf4 Ni7 2.763638 1_554
Hf4 Sn1 3.174656 1_554
Hf4 Sn0 3.174656 1_555
Hf4 Sn2 3.174656 1_655
Hf4 Sn3 3.174656 1_654
Hf5 Ni7 2.653392 1_555
Hf5 Ni3 2.653392 1_555
Hf5 Ni2 2.763638 1_655
Hf5 Ni1 2.763638 1_565
Hf5 Ni4 2.763638 1_655
Hf5 Ni5 2.763638 1_565
Hf5 Sn2 3.174656 1_655
Hf5 Sn0 3.174656 1_565
Hf5 Sn3 3.174656 1_655
Hf5 Sn1 3.174656 1_565
Hf6 Ni6 2.653392 1_555
Hf6 Ni0 2.653392 1_555
Hf6 Ni2 2.763638 1_545
Hf6 Ni1 2.763638 1_455
Hf6 Ni5 2.763638 1_455
Hf6 Ni4 2.763638 1_545
Hf6 Sn3 3.174656 1_555
Hf6 Sn0 3.174656 1_555
Hf6 Sn1 3.174656 1_555
Hf6 Sn2 3.174656 1_555
Hf7 Ni4 2.653392 1_555
Hf7 Ni2 2.653392 1_554
Hf7 Ni0 2.763638 1_555
Hf7 Ni3 2.763638 1_555
Hf7 Ni6 2.763638 1_554
Hf7 Ni7 2.763638 1_554
Hf7 Sn3 3.174656 1_554
Hf7 Sn2 3.174656 1_555
Hf7 Sn0 3.174656 1_565
Hf7 Sn1 3.174656 1_564
Ni0 Ni3 2.524441 1_555
Ni0 Sn2 2.798339 1_555
Ni0 Sn0 2.798339 1_555
Ni0 Ni6 2.926520 1_555
Ni1 Ni2 2.524441 1_645
Ni1 Sn1 2.798339 1_555
Ni1 Sn3 2.798339 1_655
Ni1 Ni5 2.926520 1_556
Ni2 Sn3 2.798339 1_555
Ni2 Sn1 2.798339 1_565
Ni2 Ni4 2.926520 1_556
Ni3 Sn2 2.798339 1_655
Ni3 Sn0 2.798339 1_565
Ni3 Ni7 2.926520 1_555
Ni4 Ni5 2.524441 1_465
Ni4 Sn2 2.798339 1_555
Ni4 Sn0 2.798339 1_565
Ni5 Sn0 2.798339 1_555
Ni5 Sn2 2.798339 1_655
Ni6 Ni7 2.524441 1_555
Ni6 Sn1 2.798339 1_555
Ni6 Sn3 2.798339 1_555
Ni7 Sn3 2.798339 1_655
Ni7 Sn1 2.798339 1_565
Sn0 Sn1 3.393476 1_555
Sn0 Sn1 3.393476 1_554
Sn2 Sn3 3.393476 1_554
Sn2 Sn3 3.393476 1_555
