# generated using pymatgen
data_Ba3YIr2O9
_symmetry_space_group_name_H-M   'P 1'
_cell_length_a   6.91018410
_cell_length_b   6.91018410
_cell_length_c   15.20516600
_cell_angle_alpha   90.00000000
_cell_angle_beta   90.00000000
_cell_angle_gamma   120.00000092
_symmetry_Int_Tables_number   1
_chemical_formula_structural   Ba3YIr2O9
_chemical_formula_sum   'Ba6 Y2 Ir4 O18'
_cell_volume   628.78334379
_cell_formula_units_Z   2
loop_
 _symmetry_equiv_pos_site_id
 _symmetry_equiv_pos_as_xyz
  1  'x, y, z'
loop_
 _atom_site_type_symbol
 _atom_site_label
 _atom_site_symmetry_multiplicity
 _atom_site_fract_x
 _atom_site_fract_y
 _atom_site_fract_z
 _atom_site_occupancy
  Ba  Ba0  1  0.00000000  0.00000000  0.25000000  1
  Ba  Ba1  1  0.00000000  0.00000000  0.75000000  1
  Ba  Ba2  1  0.33333300  0.66666700  0.89185400  1
  Ba  Ba3  1  0.66666700  0.33333300  0.39185400  1
  Ba  Ba4  1  0.66666700  0.33333300  0.10814600  1
  Ba  Ba5  1  0.33333300  0.66666700  0.60814600  1
  Y  Y0  1  0.00000000  0.00000000  0.00000000  1
  Y  Y1  1  0.00000000  0.00000000  0.50000000  1
  Ir  Ir0  1  0.33333300  0.66666700  0.16125900  1
  Ir  Ir1  1  0.66666700  0.33333300  0.66125900  1
  Ir  Ir2  1  0.66666700  0.33333300  0.83874100  1
  Ir  Ir3  1  0.33333300  0.66666700  0.33874100  1
  O  O0  1  0.45426300  0.90852700  0.25000000  1
  O  O1  1  0.54573700  0.45426300  0.75000000  1
  O  O2  1  0.90852700  0.45426300  0.75000000  1
  O  O3  1  0.09147300  0.54573700  0.25000000  1
  O  O4  1  0.45426300  0.54573700  0.25000000  1
  O  O5  1  0.54573700  0.09147300  0.75000000  1
  O  O6  1  0.86507200  0.73014400  0.39620500  1
  O  O7  1  0.13492800  0.86507200  0.89620500  1
  O  O8  1  0.73014400  0.86507200  0.89620500  1
  O  O9  1  0.26985600  0.13492800  0.39620500  1
  O  O10  1  0.86507200  0.13492800  0.39620500  1
  O  O11  1  0.13492800  0.26985600  0.60379500  1
  O  O12  1  0.13492800  0.86507200  0.60379500  1
  O  O13  1  0.13492800  0.26985600  0.89620500  1
  O  O14  1  0.73014400  0.86507200  0.60379500  1
  O  O15  1  0.26985600  0.13492800  0.10379500  1
  O  O16  1  0.86507200  0.73014400  0.10379500  1
  O  O17  1  0.86507200  0.13492800  0.10379500  1
loop_
_geom_bond_atom_site_label_1
_geom_bond_atom_site_label_2
_geom_bond_distance
_geom_bond_site_symmetry_2
Ba0 O6 2.747731 1_445
Ba0 O9 2.747731 1_555
Ba0 O15 2.747731 1_555
Ba0 O16 2.747731 1_445
Ba0 O10 2.747732 1_455
Ba0 O17 2.747732 1_455
Ba1 O13 2.747731 1_555
Ba1 O8 2.747731 1_445
Ba1 O14 2.747731 1_445
Ba1 O11 2.747731 1_555
Ba1 O7 2.747732 1_545
Ba1 O12 2.747732 1_545
Ba2 O7 2.375589 1_555
Ba2 O8 2.375595 1_555
Ba2 O13 2.375595 1_555
Ba3 O10 2.375589 1_555
Ba3 O9 2.375595 1_555
Ba3 O6 2.375595 1_555
Ba4 O17 2.375589 1_555
Ba4 O15 2.375595 1_555
Ba4 O16 2.375595 1_555
Ba5 O12 2.375589 1_555
Ba5 O11 2.375595 1_555
Ba5 O14 2.375595 1_555
Ir0 O0 1.978786 1_555
Ir0 O3 1.978786 1_555
Ir0 O4 1.978786 1_555
Ir1 O2 1.978786 1_555
Ir1 O5 1.978786 1_555
Ir1 O1 1.978786 1_555
Ir2 O5 1.978786 1_555
Ir2 O2 1.978786 1_555
Ir2 O1 1.978786 1_555
Ir3 O3 1.978786 1_555
Ir3 O0 1.978786 1_555
Ir3 O4 1.978786 1_555
O6 Y1 2.258044 1_665
O7 Y0 2.258044 1_566
O8 Y0 2.258044 1_666
O9 Y1 2.258044 1_555
O10 Y1 2.258044 1_655
O11 Y1 2.258044 1_555
O12 Y1 2.258044 1_565
O13 Y0 2.258044 1_556
O14 Y1 2.258044 1_665
O15 Y0 2.258044 1_555
O16 Y0 2.258044 1_665
O17 Y0 2.258044 1_655
