# generated using pymatgen
data_Na2Ca3Si3O10
_symmetry_space_group_name_H-M   'P 1'
_cell_length_a   8.63126868
_cell_length_b   8.63126868
_cell_length_c   11.45370162
_cell_angle_alpha   86.79981323
_cell_angle_beta   86.79981323
_cell_angle_gamma   35.04946962
_symmetry_Int_Tables_number   1
_chemical_formula_structural   Na2Ca3Si3O10
_chemical_formula_sum   'Na4 Ca6 Si6 O20'
_cell_volume   489.18821849
_cell_formula_units_Z   2
loop_
 _symmetry_equiv_pos_site_id
 _symmetry_equiv_pos_as_xyz
  1  'x, y, z'
loop_
 _atom_site_type_symbol
 _atom_site_label
 _atom_site_symmetry_multiplicity
 _atom_site_fract_x
 _atom_site_fract_y
 _atom_site_fract_z
 _atom_site_occupancy
  Na  Na0  1  0.81280600  0.27520200  0.03437400  1
  Na  Na1  1  0.27520200  0.81280600  0.53437400  1
  Na  Na2  1  0.72479800  0.18719400  0.46562600  1
  Na  Na3  1  0.18719400  0.72479800  0.96562600  1
  Ca  Ca0  1  0.38761300  0.91698000  0.79312900  1
  Ca  Ca1  1  0.91698000  0.38761300  0.29312900  1
  Ca  Ca2  1  0.50000000  0.00000000  0.50000000  1
  Ca  Ca3  1  0.08302000  0.61238700  0.70687100  1
  Ca  Ca4  1  0.61238700  0.08302000  0.20687100  1
  Ca  Ca5  1  0.00000000  0.50000000  0.00000000  1
  Si  Si0  1  0.20258600  0.79741400  0.25000000  1
  Si  Si1  1  0.79741400  0.20258600  0.75000000  1
  Si  Si2  1  0.46316400  0.83960400  0.10365000  1
  Si  Si3  1  0.83960400  0.46316400  0.60365000  1
  Si  Si4  1  0.53683600  0.16039600  0.89635000  1
  Si  Si5  1  0.16039600  0.53683600  0.39635000  1
  O  O0  1  0.84353200  0.84381000  0.89051900  1
  O  O1  1  0.29692200  0.42098900  0.52583500  1
  O  O2  1  0.00731900  0.07880600  0.84895300  1
  O  O3  1  0.92119400  0.99268100  0.65104700  1
  O  O4  1  0.34533500  0.51888700  0.31341900  1
  O  O5  1  0.70307800  0.57901100  0.47416500  1
  O  O6  1  0.65466500  0.48111300  0.68658100  1
  O  O7  1  0.42098900  0.29692200  0.02583500  1
  O  O8  1  0.57901100  0.70307800  0.97416500  1
  O  O9  1  0.15619000  0.15646800  0.60948100  1
  O  O10  1  0.07880600  0.00731900  0.34895300  1
  O  O11  1  0.76209700  0.69190800  0.66184500  1
  O  O12  1  0.15646800  0.15619000  0.10948100  1
  O  O13  1  0.84381000  0.84353200  0.39051900  1
  O  O14  1  0.48111300  0.65466500  0.18658100  1
  O  O15  1  0.30809200  0.23790300  0.83815500  1
  O  O16  1  0.69190800  0.76209700  0.16184500  1
  O  O17  1  0.99268100  0.92119400  0.15104700  1
  O  O18  1  0.51888700  0.34533500  0.81341900  1
  O  O19  1  0.23790300  0.30809200  0.33815500  1
loop_
_geom_bond_atom_site_label_1
_geom_bond_atom_site_label_2
_geom_bond_distance
_geom_bond_site_symmetry_2
Na0 O17 2.353947 1_545
Na0 O2 2.355134 1_654
Na0 O12 2.406482 1_655
Na0 O8 2.419855 1_554
Na0 O14 2.586565 1_555
Na1 O3 2.353947 1_455
Na1 O10 2.355134 1_565
Na1 O9 2.406482 1_565
Na1 O5 2.419855 1_555
Na1 O6 2.586565 1_555
Na2 O10 2.353947 1_655
Na2 O3 2.355134 1_545
Na2 O13 2.406482 1_545
Na2 O1 2.419855 1_555
Na2 O4 2.586565 1_555
Na3 O2 2.353947 1_565
Na3 O17 2.355134 1_456
Na3 O0 2.406482 1_455
Na3 O7 2.419855 1_556
Na3 O18 2.586565 1_555
Ca0 O8 2.323466 1_555
Ca0 O15 2.327422 1_565
Ca0 O2 2.343660 1_565
Ca0 O9 2.431155 1_565
Ca0 O11 2.446438 1_555
Ca0 O6 2.637426 1_555
Ca1 O5 2.323466 1_555
Ca1 O19 2.327422 1_655
Ca1 O10 2.343660 1_655
Ca1 O12 2.431155 1_655
Ca1 O16 2.446438 1_555
Ca1 O14 2.637426 1_555
Ca2 O9 2.326855 1_555
Ca2 O13 2.326855 1_545
Ca2 O11 2.386122 1_545
Ca2 O19 2.386122 1_555
Ca2 O1 2.448940 1_555
Ca2 O5 2.448940 1_545
Ca3 O1 2.323466 1_555
Ca3 O11 2.327422 1_455
Ca3 O3 2.343660 1_455
Ca3 O0 2.431155 1_455
Ca3 O15 2.446438 1_555
Ca3 O18 2.637426 1_555
Ca4 O7 2.323466 1_555
Ca4 O16 2.327422 1_545
Ca4 O17 2.343660 1_545
Ca4 O13 2.431155 1_545
Ca4 O19 2.446438 1_555
Ca4 O4 2.637426 1_555
Ca5 O12 2.326855 1_555
Ca5 O0 2.326855 1_454
Ca5 O16 2.386122 1_455
Ca5 O15 2.386122 1_554
Ca5 O7 2.448940 1_555
Ca5 O8 2.448940 1_454
O0 Si4 1.623541 1_565
O1 Si5 1.639602 1_555
O2 Si1 1.622725 1_455
O3 Si1 1.622725 1_565
O4 Si0 1.697148 1_555
O4 Si5 1.707785 1_555
O5 Si3 1.639602 1_555
O6 Si1 1.697148 1_555
O6 Si3 1.707785 1_555
O7 Si4 1.639602 1_554
O8 Si2 1.639602 1_556
O9 Si3 1.623541 1_455
O10 Si0 1.622725 1_545
O11 Si3 1.650592 1_555
O12 Si2 1.623541 1_545
O13 Si5 1.623541 1_655
O14 Si0 1.697148 1_555
O14 Si2 1.707785 1_555
O15 Si4 1.650592 1_555
O16 Si2 1.650592 1_555
O17 Si0 1.622725 1_655
O18 Si1 1.697148 1_555
O18 Si4 1.707785 1_555
O19 Si5 1.650592 1_555
