# generated using pymatgen
data_AgTeO3
_symmetry_space_group_name_H-M   'P 1'
_cell_length_a   11.82669300
_cell_length_b   6.02456400
_cell_length_c   9.22122884
_cell_angle_alpha   61.03323127
_cell_angle_beta   90.00000000
_cell_angle_gamma   90.00000000
_symmetry_Int_Tables_number   1
_chemical_formula_structural   AgTeO3
_chemical_formula_sum   'Ag8 Te8 O24'
_cell_volume   574.82617135
_cell_formula_units_Z   8
loop_
 _symmetry_equiv_pos_site_id
 _symmetry_equiv_pos_as_xyz
  1  'x, y, z'
loop_
 _atom_site_type_symbol
 _atom_site_label
 _atom_site_symmetry_multiplicity
 _atom_site_fract_x
 _atom_site_fract_y
 _atom_site_fract_z
 _atom_site_occupancy
  Ag  Ag0  1  0.67340200  0.42813100  0.72343500  1
  Ag  Ag1  1  0.64510900  0.60750900  0.96955200  1
  Ag  Ag2  1  0.82659800  0.42813100  0.22343500  1
  Ag  Ag3  1  0.14510900  0.39249100  0.53044800  1
  Ag  Ag4  1  0.17340200  0.57186900  0.77656500  1
  Ag  Ag5  1  0.35489100  0.39249100  0.03044800  1
  Ag  Ag6  1  0.85489100  0.60750900  0.46955200  1
  Ag  Ag7  1  0.32659800  0.57186900  0.27656500  1
  Te  Te0  1  0.62331300  0.09148400  0.50816500  1
  Te  Te1  1  0.07584100  0.06594100  0.31380000  1
  Te  Te2  1  0.57584100  0.93405900  0.18620000  1
  Te  Te3  1  0.12331300  0.90851600  0.99183500  1
  Te  Te4  1  0.92415900  0.93405900  0.68620000  1
  Te  Te5  1  0.42415900  0.06594100  0.81380000  1
  Te  Te6  1  0.87668700  0.09148400  0.00816500  1
  Te  Te7  1  0.37668700  0.90851600  0.49183500  1
  O  O0  1  0.95807300  0.23152900  0.48375200  1
  O  O1  1  0.14709700  0.85764400  0.22418700  1
  O  O2  1  0.46280800  0.22682700  0.44498700  1
  O  O3  1  0.03719200  0.22682700  0.94498700  1
  O  O4  1  0.08768500  0.97676700  0.76312200  1
  O  O5  1  0.85290300  0.14235600  0.77581300  1
  O  O6  1  0.31464400  0.58515000  0.56132900  1
  O  O7  1  0.41231500  0.97676700  0.26312200  1
  O  O8  1  0.74102000  0.88711700  0.08839600  1
  O  O9  1  0.58768500  0.02323300  0.73687800  1
  O  O10  1  0.75898000  0.88711700  0.58839600  1
  O  O11  1  0.45807300  0.76847100  0.01624800  1
  O  O12  1  0.04192700  0.76847100  0.51624800  1
  O  O13  1  0.25898000  0.11288300  0.91160400  1
  O  O14  1  0.18535600  0.58515000  0.06132900  1
  O  O15  1  0.96280800  0.77317300  0.05501300  1
  O  O16  1  0.54192700  0.23152900  0.98375200  1
  O  O17  1  0.68535600  0.41485000  0.43867100  1
  O  O18  1  0.64709700  0.14235600  0.27581300  1
  O  O19  1  0.91231500  0.02323300  0.23687800  1
  O  O20  1  0.35290300  0.85764400  0.72418700  1
  O  O21  1  0.81464400  0.41485000  0.93867100  1
  O  O22  1  0.53719200  0.77317300  0.55501300  1
  O  O23  1  0.24102000  0.11288300  0.41160400  1
loop_
_geom_bond_atom_site_label_1
_geom_bond_atom_site_label_2
_geom_bond_distance
_geom_bond_site_symmetry_2
Ag0 O22 2.490203 1_555
Ag0 O21 2.565561 1_555
Ag0 O9 2.588535 1_555
Ag0 O16 2.613210 1_555
Ag0 O10 2.624126 1_555
Ag0 O5 2.626538 1_555
Ag0 O17 2.669290 1_555
Ag1 O21 2.401791 1_555
Ag1 O9 2.476379 1_565
Ag1 O16 2.519870 1_555
Ag1 O11 2.534413 1_556
Ag1 O8 2.667078 1_556
Ag2 O15 2.490203 1_555
Ag2 O17 2.565561 1_555
Ag2 O19 2.588535 1_555
Ag2 O0 2.613210 1_555
Ag2 O8 2.624126 1_555
Ag2 O18 2.626538 1_555
Ag2 O21 2.669290 1_554
Ag3 O6 2.401791 1_555
Ag3 O4 2.476379 1_545
Ag3 O12 2.519870 1_555
Ag3 O0 2.534413 1_455
Ag3 O23 2.667078 1_555
Ag4 O3 2.490203 1_555
Ag4 O6 2.565561 1_555
Ag4 O4 2.588535 1_555
Ag4 O12 2.613210 1_555
Ag4 O13 2.624126 1_555
Ag4 O20 2.626538 1_555
Ag4 O14 2.669290 1_556
Ag5 O14 2.401791 1_555
Ag5 O7 2.476379 1_545
Ag5 O11 2.519870 1_555
Ag5 O16 2.534413 1_554
Ag5 O13 2.667078 1_554
Ag6 O17 2.401791 1_555
Ag6 O19 2.476379 1_565
Ag6 O0 2.519870 1_555
Ag6 O12 2.534413 1_655
Ag6 O10 2.667078 1_555
Ag7 O2 2.490203 1_555
Ag7 O14 2.565561 1_555
Ag7 O7 2.588535 1_555
Ag7 O11 2.613210 1_555
Ag7 O23 2.624126 1_555
Ag7 O1 2.626538 1_555
Ag7 O6 2.669290 1_555
O0 Te4 1.901859 1_545
O0 Te1 2.627818 1_655
O1 Te1 1.993041 1_565
O1 Te3 2.031655 1_554
O2 Te7 2.024626 1_545
O2 Te0 2.036532 1_555
O3 Te3 2.024626 1_545
O3 Te6 2.036532 1_456
O4 Te3 1.988617 1_555
O4 Te4 2.118101 1_455
O5 Te4 1.993041 1_545
O5 Te6 2.031655 1_556
O6 Te7 1.880184 1_555
O7 Te7 1.988617 1_555
O7 Te2 2.118101 1_555
O8 Te6 1.937873 1_565
O8 Te2 2.226353 1_555
O9 Te0 1.988617 1_555
O9 Te5 2.118101 1_555
O10 Te0 1.937873 1_565
O10 Te4 2.226353 1_555
O11 Te5 1.901859 1_564
O11 Te2 2.627818 1_555
O12 Te1 1.901859 1_565
O12 Te4 2.627818 1_455
O13 Te3 1.937873 1_545
O13 Te5 2.226353 1_555
O14 Te3 1.880184 1_554
O15 Te6 2.024626 1_565
O15 Te3 2.036532 1_654
O16 Te2 1.901859 1_546
O16 Te5 2.627818 1_555
O17 Te0 1.880184 1_555
O18 Te2 1.993041 1_545
O18 Te0 2.031655 1_555
O19 Te6 1.988617 1_555
O19 Te1 2.118101 1_655
O20 Te5 1.993041 1_565
O20 Te7 2.031655 1_555
O21 Te6 1.880184 1_556
O22 Te0 2.024626 1_565
O22 Te7 2.036532 1_555
O23 Te7 1.937873 1_545
O23 Te1 2.226353 1_555
