# generated using pymatgen
data_CsZnB(PO4)2
_symmetry_space_group_name_H-M   'P 1'
_cell_length_a   7.60463514
_cell_length_b   8.01876379
_cell_length_c   8.13602294
_cell_angle_alpha   117.78399194
_cell_angle_beta   102.88803986
_cell_angle_gamma   104.68857780
_symmetry_Int_Tables_number   1
_chemical_formula_structural   CsZnB(PO4)2
_chemical_formula_sum   'Cs2 Zn2 B2 P4 O16'
_cell_volume   389.37488434
_cell_formula_units_Z   2
loop_
 _symmetry_equiv_pos_site_id
 _symmetry_equiv_pos_as_xyz
  1  'x, y, z'
loop_
 _atom_site_type_symbol
 _atom_site_label
 _atom_site_symmetry_multiplicity
 _atom_site_fract_x
 _atom_site_fract_y
 _atom_site_fract_z
 _atom_site_occupancy
  Cs  Cs0  1  0.26446600  0.64731100  0.40507100  1
  Cs  Cs1  1  0.73553400  0.35268900  0.59492900  1
  Zn  Zn0  1  0.20290500  0.29312800  0.74283900  1
  Zn  Zn1  1  0.79709500  0.70687200  0.25716100  1
  B  B0  1  0.70229500  0.93385900  0.93136000  1
  B  B1  1  0.29770500  0.06614100  0.06864000  1
  P  P0  1  0.55760800  0.22861100  0.93761900  1
  P  P1  1  0.96024100  0.90302000  0.72886800  1
  P  P2  1  0.03975900  0.09698000  0.27113200  1
  P  P3  1  0.44239200  0.77138900  0.06238100  1
  O  O0  1  0.39937400  0.96941000  0.14918200  1
  O  O1  1  0.09536100  0.27526000  0.48802600  1
  O  O2  1  0.45229100  0.23851300  0.08626700  1
  O  O3  1  0.75001200  0.42430000  0.05385400  1
  O  O4  1  0.60062600  0.03059000  0.85081800  1
  O  O5  1  0.58148500  0.79754000  0.25039200  1
  O  O6  1  0.98661600  0.11172300  0.75924100  1
  O  O7  1  0.01338400  0.88827700  0.24075900  1
  O  O8  1  0.90463900  0.72474000  0.51197400  1
  O  O9  1  0.20770100  0.17122800  0.20552700  1
  O  O10  1  0.54770900  0.76148700  0.91373300  1
  O  O11  1  0.41851500  0.20246000  0.74960800  1
  O  O12  1  0.15467000  0.91089000  0.85809600  1
  O  O13  1  0.24998800  0.57570000  0.94614600  1
  O  O14  1  0.79229900  0.82877200  0.79447300  1
  O  O15  1  0.84533000  0.08911000  0.14190400  1
loop_
_geom_bond_atom_site_label_1
_geom_bond_atom_site_label_2
_geom_bond_distance
_geom_bond_site_symmetry_2
Cs0 O8 3.170087 1_455
Cs0 O5 3.184483 1_555
Cs0 O9 3.235682 1_555
Cs0 O4 3.259117 1_565
Cs0 O1 3.365801 1_555
Cs0 O13 3.474044 1_554
Cs0 O7 3.508137 1_555
Cs0 O11 3.647438 1_565
Cs0 O3 3.656497 1_455
Cs0 O12 3.708741 1_555
Cs0 O10 3.754440 1_555
Cs1 O1 3.170087 1_655
Cs1 O11 3.184483 1_555
Cs1 O14 3.235682 1_555
Cs1 O0 3.259117 1_545
Cs1 O8 3.365801 1_555
Cs1 O3 3.474044 1_556
Cs1 O6 3.508137 1_555
Cs1 O5 3.647438 1_545
Cs1 O13 3.656497 1_655
Cs1 O15 3.708741 1_555
Cs1 O2 3.754440 1_555
B0 O15 1.470131 1_566
B0 O14 1.475305 1_555
B0 O4 1.476758 1_565
B0 O10 1.492983 1_555
B1 O12 1.470131 1_544
B1 O9 1.475305 1_555
B1 O0 1.476758 1_545
B1 O2 1.492983 1_555
O0 P3 1.564665 1_555
O1 P2 1.531412 1_555
O1 Zn0 1.973496 1_555
O2 P0 1.576455 1_554
O3 P0 1.527230 1_554
O3 Zn1 1.956696 1_555
O4 P0 1.564665 1_555
O5 P3 1.539274 1_555
O5 Zn1 1.954897 1_555
O6 P1 1.524514 1_545
O6 Zn0 1.976029 1_655
O7 P2 1.524514 1_565
O7 Zn1 1.976029 1_455
O8 P1 1.531412 1_555
O8 Zn1 1.973496 1_555
O9 P2 1.576456 1_555
O10 P3 1.576455 1_556
O11 P0 1.539274 1_555
O11 Zn0 1.954897 1_555
O12 P1 1.578897 1_455
O13 P3 1.527230 1_556
O13 Zn0 1.956696 1_555
O14 P1 1.576456 1_555
O15 P2 1.578897 1_655
