# generated using pymatgen
data_RbMnF4
_symmetry_space_group_name_H-M   'P 1'
_cell_length_a   7.75649297
_cell_length_b   6.01570106
_cell_length_c   7.80221843
_cell_angle_alpha   89.18138277
_cell_angle_beta   90.00000000
_cell_angle_gamma   90.00000000
_symmetry_Int_Tables_number   1
_chemical_formula_structural   RbMnF4
_chemical_formula_sum   'Rb4 Mn4 F16'
_cell_volume   364.02015103
_cell_formula_units_Z   4
loop_
 _symmetry_equiv_pos_site_id
 _symmetry_equiv_pos_as_xyz
  1  'x, y, z'
loop_
 _atom_site_type_symbol
 _atom_site_label
 _atom_site_symmetry_multiplicity
 _atom_site_fract_x
 _atom_site_fract_y
 _atom_site_fract_z
 _atom_site_occupancy
  Rb  Rb0  1  0.29421569  0.48204275  0.25337919  1
  Rb  Rb1  1  0.79421569  0.51795725  0.24662081  1
  Rb  Rb2  1  0.70578431  0.51795725  0.74662081  1
  Rb  Rb3  1  0.20578431  0.48204275  0.75337919  1
  Mn  Mn0  1  -0.00000000  0.00000000  0.00000000  1
  Mn  Mn1  1  -0.00000000  0.00000000  0.50000000  1
  Mn  Mn2  1  0.50000000  0.00000000  0.00000000  1
  Mn  Mn3  1  0.50000000  0.00000000  0.50000000  1
  F  F0  1  0.93498088  0.28643888  0.95381362  1
  F  F1  1  0.94681184  0.28716045  0.55114558  1
  F  F2  1  0.44681184  0.71283955  0.94885442  1
  F  F3  1  0.05318816  0.71283955  0.44885442  1
  F  F4  1  0.23276997  0.09612670  0.99849438  1
  F  F5  1  0.73276997  0.90387330  0.50150562  1
  F  F6  1  0.76723003  0.90387330  0.00150562  1
  F  F7  1  0.26723003  0.09612670  0.49849438  1
  F  F8  1  0.01419482  0.92215973  0.73499977  1
  F  F9  1  0.51419482  0.07784027  0.76500023  1
  F  F10  1  0.98580518  0.07784027  0.26500023  1
  F  F11  1  0.48580518  0.92215973  0.23499977  1
  F  F12  1  0.56501912  0.28643888  0.45381362  1
  F  F13  1  0.43498088  0.71356112  0.54618638  1
  F  F14  1  0.06501912  0.71356112  0.04618638  1
  F  F15  1  0.55318816  0.28716045  0.05114558  1
loop_
_geom_bond_atom_site_label_1
_geom_bond_atom_site_label_2
_geom_bond_distance
_geom_bond_site_symmetry_2
F0 Mn0 1.826371 1_656
F0 Rb2 2.765704 1_555
F0 Rb3 2.861755 1_655
F0 Rb1 2.905500 1_556
F1 Mn1 1.825732 1_655
F1 Rb2 2.794524 1_555
F1 Rb3 2.819910 1_655
F1 Rb1 2.979861 1_555
F2 Mn2 1.825732 1_566
F2 Rb3 2.794524 1_555
F2 Rb2 2.819910 1_555
F2 Rb0 2.979861 1_556
F3 Mn1 1.825732 1_565
F3 Rb0 2.794524 1_555
F3 Rb1 2.819910 1_455
F3 Rb3 2.979861 1_555
F4 Mn0 1.895809 1_556
F4 Mn2 2.151908 1_556
F4 Rb3 2.993995 1_555
F4 Rb0 3.115042 1_556
F5 Mn3 1.895809 1_565
F5 Mn1 2.151908 1_665
F5 Rb2 2.993995 1_555
F5 Rb1 3.115042 1_555
F6 Mn0 1.895809 1_665
F6 Mn2 2.151908 1_565
F6 Rb1 2.993995 1_555
F6 Rb2 3.115042 1_554
F7 Mn3 1.895809 1_555
F7 Mn1 2.151908 1_555
F7 Rb0 2.993995 1_555
F7 Rb3 3.115042 1_555
F8 Mn1 1.889088 1_565
F8 Mn0 2.129316 1_566
F8 Rb3 3.037754 1_555
F8 Rb2 3.411298 1_455
F9 Mn2 1.889088 1_556
F9 Mn3 2.129316 1_555
F9 Rb2 3.037754 1_555
F9 Rb3 3.411298 1_555
F10 Mn1 1.889088 1_655
F10 Mn0 2.129316 1_655
F10 Rb1 3.037754 1_555
F10 Rb0 3.411298 1_655
F11 Mn2 1.889088 1_565
F11 Mn3 2.129316 1_565
F11 Rb0 3.037754 1_555
F11 Rb1 3.411298 1_555
F12 Mn3 1.826371 1_555
F12 Rb1 2.765704 1_555
F12 Rb0 2.861755 1_555
F12 Rb2 2.905500 1_555
F13 Mn3 1.826371 1_565
F13 Rb3 2.765704 1_555
F13 Rb2 2.861755 1_555
F13 Rb0 2.905500 1_555
F14 Mn0 1.826371 1_565
F14 Rb0 2.765704 1_555
F14 Rb1 2.861755 1_455
F14 Rb3 2.905500 1_554
F15 Mn2 1.825732 1_555
F15 Rb1 2.794524 1_555
F15 Rb0 2.819910 1_555
F15 Rb2 2.979861 1_554
