# generated using pymatgen
data_CsB9O13
_symmetry_space_group_name_H-M   'P 1'
_cell_length_a   9.36878300
_cell_length_b   9.36878300
_cell_length_c   12.93727000
_cell_angle_alpha   90.00000000
_cell_angle_beta   90.00000000
_cell_angle_gamma   90.00000000
_symmetry_Int_Tables_number   1
_chemical_formula_structural   CsB9O13
_chemical_formula_sum   'Cs4 B36 O52'
_cell_volume   1135.55716474
_cell_formula_units_Z   4
loop_
 _symmetry_equiv_pos_site_id
 _symmetry_equiv_pos_as_xyz
  1  'x, y, z'
loop_
 _atom_site_type_symbol
 _atom_site_label
 _atom_site_symmetry_multiplicity
 _atom_site_fract_x
 _atom_site_fract_y
 _atom_site_fract_z
 _atom_site_occupancy
  Cs  Cs0  1  0.00000000  0.42828300  0.00000000  1
  Cs  Cs1  1  0.00000000  0.57171700  0.50000000  1
  Cs  Cs2  1  0.42828300  0.00000000  0.75000000  1
  Cs  Cs3  1  0.57171700  0.00000000  0.25000000  1
  B  B0  1  0.01516000  0.15057000  0.81183500  1
  B  B1  1  0.01516000  0.84943000  0.68816500  1
  B  B2  1  0.11179800  0.66950400  0.79910000  1
  B  B3  1  0.11179800  0.33049600  0.70090000  1
  B  B4  1  0.14851700  0.30655200  0.27747400  1
  B  B5  1  0.14851700  0.69344800  0.22252600  1
  B  B6  1  0.15057000  0.01516000  0.93816500  1
  B  B7  1  0.15057000  0.98484000  0.56183500  1
  B  B8  1  0.30655200  0.85148300  0.02747400  1
  B  B9  1  0.30655200  0.14851700  0.47252600  1
  B  B10  1  0.33049600  0.11179800  0.04910000  1
  B  B11  1  0.33049600  0.88820200  0.45090000  1
  B  B12  1  0.38056500  0.38056500  0.37500000  1
  B  B13  1  0.38056500  0.61943500  0.12500000  1
  B  B14  1  0.36496500  0.56584300  0.79805300  1
  B  B15  1  0.36496500  0.43415700  0.70194700  1
  B  B16  1  0.43415700  0.36496500  0.04805300  1
  B  B17  1  0.43415700  0.63503500  0.45194700  1
  B  B18  1  0.56584300  0.63503500  0.54805300  1
  B  B19  1  0.56584300  0.36496500  0.95194700  1
  B  B20  1  0.63503500  0.56584300  0.20194700  1
  B  B21  1  0.63503500  0.43415700  0.29805300  1
  B  B22  1  0.61943500  0.38056500  0.62500000  1
  B  B23  1  0.61943500  0.61943500  0.87500000  1
  B  B24  1  0.66950400  0.11179800  0.95090000  1
  B  B25  1  0.66950400  0.88820200  0.54910000  1
  B  B26  1  0.69344800  0.14851700  0.52747400  1
  B  B27  1  0.69344800  0.85148300  0.97252600  1
  B  B28  1  0.84943000  0.01516000  0.06183500  1
  B  B29  1  0.84943000  0.98484000  0.43816500  1
  B  B30  1  0.85148300  0.30655200  0.72252600  1
  B  B31  1  0.85148300  0.69344800  0.77747400  1
  B  B32  1  0.88820200  0.66950400  0.20090000  1
  B  B33  1  0.88820200  0.33049600  0.29910000  1
  B  B34  1  0.98484000  0.15057000  0.18816500  1
  B  B35  1  0.98484000  0.84943000  0.31183500  1
  O  O0  1  0.02777500  0.36638900  0.32668600  1
  O  O1  1  0.02777500  0.63361100  0.17331400  1
  O  O2  1  0.03407300  0.03407300  0.87500000  1
  O  O3  1  0.03407300  0.96592700  0.62500000  1
  O  O4  1  0.12036000  0.19676400  0.20547800  1
  O  O5  1  0.12036000  0.80323600  0.29452200  1
  O  O6  1  0.13321700  0.78174100  0.72925000  1
  O  O7  1  0.13321700  0.21825900  0.77075000  1
  O  O8  1  0.19676400  0.12036000  0.54452200  1
  O  O9  1  0.19676400  0.87964000  0.95547800  1
  O  O10  1  0.21825900  0.13321700  0.97925000  1
  O  O11  1  0.21825900  0.86678300  0.52075000  1
  O  O12  1  0.22315800  0.59360000  0.83412300  1
  O  O13  1  0.22315800  0.40640000  0.66587700  1
  O  O14  1  0.28237800  0.34462400  0.29098000  1
  O  O15  1  0.28237800  0.65537700  0.20902000  1
  O  O16  1  0.34462400  0.71762200  0.04098000  1
  O  O17  1  0.34462400  0.28237800  0.45902000  1
  O  O18  1  0.35969600  0.47018600  0.09155600  1
  O  O19  1  0.35969600  0.52981400  0.40844400  1
  O  O20  1  0.36638900  0.97222500  0.07668600  1
  O  O21  1  0.36638900  0.02777500  0.42331400  1
  O  O22  1  0.40640000  0.22315800  0.08412300  1
  O  O23  1  0.40640000  0.77684200  0.41587700  1
  O  O24  1  0.47018600  0.35969600  0.65844400  1
  O  O25  1  0.47018600  0.64030400  0.84155600  1
  O  O26  1  0.52981400  0.35969600  0.34155600  1
  O  O27  1  0.52981400  0.64030400  0.15844400  1
  O  O28  1  0.59360000  0.77684200  0.58412300  1
  O  O29  1  0.59360000  0.22315800  0.91587700  1
  O  O30  1  0.63361100  0.02777500  0.57668600  1
  O  O31  1  0.63361100  0.97222500  0.92331400  1
  O  O32  1  0.64030400  0.47018600  0.90844400  1
  O  O33  1  0.64030400  0.52981400  0.59155600  1
  O  O34  1  0.65537700  0.28237800  0.54098000  1
  O  O35  1  0.65537700  0.71762200  0.95902000  1
  O  O36  1  0.71762200  0.34462400  0.70902000  1
  O  O37  1  0.71762200  0.65537700  0.79098000  1
  O  O38  1  0.77684200  0.40640000  0.33412300  1
  O  O39  1  0.77684200  0.59360000  0.16587700  1
  O  O40  1  0.78174100  0.13321700  0.02075000  1
  O  O41  1  0.78174100  0.86678300  0.47925000  1
  O  O42  1  0.80323600  0.12036000  0.45547800  1
  O  O43  1  0.80323600  0.87964000  0.04452200  1
  O  O44  1  0.86678300  0.78174100  0.27075000  1
  O  O45  1  0.86678300  0.21825900  0.22925000  1
  O  O46  1  0.87964000  0.80323600  0.70547800  1
  O  O47  1  0.87964000  0.19676400  0.79452200  1
  O  O48  1  0.96592700  0.03407300  0.12500000  1
  O  O49  1  0.96592700  0.96592700  0.37500000  1
  O  O50  1  0.97222500  0.36638900  0.67331400  1
  O  O51  1  0.97222500  0.63361100  0.82668600  1
loop_
_geom_bond_atom_site_label_1
_geom_bond_atom_site_label_2
_geom_bond_distance
_geom_bond_site_symmetry_2
Cs0 O1 2.965761 1_555
Cs0 O51 2.965761 1_454
Cs1 O0 2.965761 1_555
Cs1 O50 2.965761 1_455
Cs2 O31 2.965761 1_545
Cs2 O30 2.965761 1_555
Cs3 O21 2.965761 1_555
Cs3 O20 2.965761 1_545
B0 O47 1.359963 1_455
B0 O2 1.374924 1_555
B0 O7 1.381316 1_555
B1 O46 1.359963 1_455
B1 O3 1.374924 1_555
B1 O6 1.381316 1_555
B2 O12 1.341453 1_555
B2 O51 1.396547 1_455
B2 O6 1.400924 1_555
B3 O13 1.341453 1_555
B3 O50 1.396547 1_455
B3 O7 1.400924 1_555
B4 O14 1.315508 1_555
B4 O4 1.412491 1_555
B4 O0 1.413947 1_555
B5 O15 1.315505 1_555
B5 O5 1.412491 1_555
B5 O1 1.413947 1_555
B6 O9 1.359963 1_545
B6 O2 1.374924 1_555
B6 O10 1.381316 1_555
B7 O8 1.359963 1_565
B7 O3 1.374924 1_555
B7 O11 1.381316 1_555
B8 O16 1.315508 1_555
B8 O9 1.412491 1_554
B8 O20 1.413947 1_555
B9 O17 1.315508 1_555
B9 O8 1.412491 1_555
B9 O21 1.413947 1_555
B10 O22 1.341453 1_555
B10 O20 1.396547 1_545
B10 O10 1.400924 1_554
B11 O23 1.341453 1_555
B11 O21 1.396547 1_565
B11 O11 1.400924 1_555
B12 O14 1.463260 1_555
B12 O17 1.463260 1_555
B12 O19 1.476694 1_555
B12 O26 1.476694 1_555
B13 O16 1.463260 1_555
B13 O15 1.463263 1_555
B13 O27 1.476694 1_555
B13 O18 1.476694 1_555
B14 O25 1.332367 1_555
B14 O12 1.431941 1_555
B15 O24 1.332367 1_555
B15 O13 1.431941 1_555
B16 O18 1.332367 1_555
B16 O22 1.431941 1_555
B17 O19 1.332367 1_555
B17 O23 1.431941 1_555
B18 O33 1.332367 1_555
B18 O28 1.431941 1_555
B19 O32 1.332367 1_555
B19 O29 1.431941 1_555
B20 O27 1.332367 1_555
B20 O39 1.431941 1_555
B21 O26 1.332367 1_555
B21 O38 1.431941 1_555
B22 O36 1.463260 1_555
B22 O34 1.463263 1_555
B22 O24 1.476694 1_555
B22 O33 1.476694 1_555
B23 O37 1.463263 1_555
B23 O35 1.463263 1_555
B23 O32 1.476694 1_555
B23 O25 1.476694 1_555
B24 O29 1.341453 1_555
B24 O31 1.396547 1_545
B24 O40 1.400924 1_556
B25 O28 1.341453 1_555
B25 O30 1.396547 1_565
B25 O41 1.400924 1_555
B26 O34 1.315505 1_555
B26 O42 1.412491 1_555
B26 O30 1.413947 1_555
B27 O35 1.315505 1_555
B27 O43 1.412491 1_556
B27 O31 1.413947 1_555
B28 O43 1.359963 1_545
B28 O48 1.374924 1_555
B28 O40 1.381316 1_555
B29 O42 1.359963 1_565
B29 O49 1.374924 1_555
B29 O41 1.381316 1_555
B30 O36 1.315508 1_555
B30 O47 1.412491 1_555
B30 O50 1.413947 1_555
B31 O37 1.315505 1_555
B31 O46 1.412491 1_555
B31 O51 1.413947 1_555
B32 O39 1.341453 1_555
B32 O1 1.396547 1_655
B32 O44 1.400924 1_555
B33 O38 1.341453 1_555
B33 O0 1.396547 1_655
B33 O45 1.400924 1_555
B34 O4 1.359963 1_655
B34 O48 1.374924 1_555
B34 O45 1.381316 1_555
B35 O5 1.359963 1_655
B35 O49 1.374924 1_555
B35 O44 1.381316 1_555
