# generated using pymatgen
data_RbCu2I3
_symmetry_space_group_name_H-M   'P 1'
_cell_length_a   5.40032700
_cell_length_b   11.24407700
_cell_length_c   13.89869800
_cell_angle_alpha   90.00000000
_cell_angle_beta   90.00000000
_cell_angle_gamma   90.00000000
_symmetry_Int_Tables_number   1
_chemical_formula_structural   RbCu2I3
_chemical_formula_sum   'Rb4 Cu8 I12'
_cell_volume   843.95246768
_cell_formula_units_Z   4
loop_
 _symmetry_equiv_pos_site_id
 _symmetry_equiv_pos_as_xyz
  1  'x, y, z'
loop_
 _atom_site_type_symbol
 _atom_site_label
 _atom_site_symmetry_multiplicity
 _atom_site_fract_x
 _atom_site_fract_y
 _atom_site_fract_z
 _atom_site_occupancy
  Rb  Rb0  1  0.25000000  0.51419500  0.18616400  1
  Rb  Rb1  1  0.25000000  0.98580500  0.68616400  1
  Rb  Rb2  1  0.75000000  0.48580500  0.81383600  1
  Rb  Rb3  1  0.75000000  0.01419500  0.31383600  1
  Cu  Cu0  1  0.50095800  0.33792600  0.49184100  1
  Cu  Cu1  1  0.99904200  0.33792600  0.49184100  1
  Cu  Cu2  1  0.50095800  0.16207400  0.99184100  1
  Cu  Cu3  1  0.49904200  0.66207400  0.50815900  1
  Cu  Cu4  1  0.00095800  0.66207400  0.50815900  1
  Cu  Cu5  1  0.00095800  0.83792600  0.00815900  1
  Cu  Cu6  1  0.49904200  0.83792600  0.00815900  1
  Cu  Cu7  1  0.99904200  0.16207400  0.99184100  1
  I  I0  1  0.25000000  0.23373900  0.35393900  1
  I  I1  1  0.75000000  0.98925800  0.89140800  1
  I  I2  1  0.25000000  0.01074200  0.10859200  1
  I  I3  1  0.75000000  0.76626100  0.64606100  1
  I  I4  1  0.25000000  0.48925800  0.60859200  1
  I  I5  1  0.75000000  0.30742600  0.10210200  1
  I  I6  1  0.75000000  0.51074200  0.39140800  1
  I  I7  1  0.25000000  0.69257400  0.89789800  1
  I  I8  1  0.25000000  0.80742600  0.39789800  1
  I  I9  1  0.75000000  0.19257400  0.60210200  1
  I  I10  1  0.75000000  0.73373900  0.14606100  1
  I  I11  1  0.25000000  0.26626100  0.85393900  1
loop_
_geom_bond_atom_site_label_1
_geom_bond_atom_site_label_2
_geom_bond_distance
_geom_bond_site_symmetry_2
Cu0 I9 2.613118 1_555
Cu0 I0 2.623486 1_555
Cu0 I4 2.713896 1_555
Cu0 I6 2.744656 1_555
Cu1 I9 2.613118 1_555
Cu1 I0 2.623486 1_655
Cu1 I4 2.713896 1_655
Cu1 I6 2.744656 1_555
Cu2 I5 2.613118 1_556
Cu2 I11 2.623486 1_555
Cu2 I2 2.713896 1_556
Cu2 I1 2.744656 1_545
Cu3 I8 2.613118 1_555
Cu3 I3 2.623486 1_555
Cu3 I6 2.713896 1_555
Cu3 I4 2.744656 1_555
Cu4 I8 2.613118 1_555
Cu4 I3 2.623486 1_455
Cu4 I6 2.713896 1_455
Cu4 I4 2.744656 1_555
Cu5 I7 2.613118 1_554
Cu5 I10 2.623486 1_455
Cu5 I1 2.713896 1_454
Cu5 I2 2.744656 1_565
Cu6 I7 2.613118 1_554
Cu6 I10 2.623486 1_555
Cu6 I1 2.713896 1_554
Cu6 I2 2.744656 1_565
Cu7 I5 2.613118 1_556
Cu7 I11 2.623486 1_655
Cu7 I2 2.713896 1_656
Cu7 I1 2.744656 1_545
I0 Rb3 3.700728 1_455
I0 Rb3 3.700728 1_555
I0 Rb0 3.921978 1_555
I1 Rb1 3.928086 1_555
I1 Rb1 3.928086 1_655
I2 Rb3 3.928086 1_555
I2 Rb3 3.928086 1_455
I3 Rb1 3.700728 1_555
I3 Rb1 3.700728 1_655
I3 Rb2 3.921978 1_555
I4 Rb2 3.928086 1_455
I4 Rb2 3.928086 1_555
I5 Rb0 3.749828 1_555
I5 Rb0 3.749828 1_655
I6 Rb0 3.928086 1_555
I6 Rb0 3.928086 1_655
I7 Rb2 3.749828 1_555
I7 Rb2 3.749828 1_455
I8 Rb3 3.749828 1_565
I8 Rb3 3.749828 1_465
I9 Rb1 3.749828 1_645
I9 Rb1 3.749828 1_545
I10 Rb0 3.700728 1_655
I10 Rb0 3.700728 1_555
I10 Rb3 3.921978 1_565
I11 Rb2 3.700728 1_555
I11 Rb2 3.700728 1_455
I11 Rb1 3.921978 1_545
