# generated using pymatgen
data_NaZr2(AsO4)3
_symmetry_space_group_name_H-M   'P 1'
_cell_length_a   9.50382012
_cell_length_b   9.50382012
_cell_length_c   9.50381994
_cell_angle_alpha   58.86155509
_cell_angle_beta   58.86155509
_cell_angle_gamma   58.86155530
_symmetry_Int_Tables_number   1
_chemical_formula_structural   NaZr2(AsO4)3
_chemical_formula_sum   'Na2 Zr4 As6 O24'
_cell_volume   591.21211406
_cell_formula_units_Z   2
loop_
 _symmetry_equiv_pos_site_id
 _symmetry_equiv_pos_as_xyz
  1  'x, y, z'
loop_
 _atom_site_type_symbol
 _atom_site_label
 _atom_site_symmetry_multiplicity
 _atom_site_fract_x
 _atom_site_fract_y
 _atom_site_fract_z
 _atom_site_occupancy
  Na  Na0  1  0.00000000  0.00000000  0.00000000  1
  Na  Na1  1  0.50000000  0.50000000  0.50000000  1
  Zr  Zr0  1  0.85680800  0.85680800  0.85680800  1
  Zr  Zr1  1  0.64319200  0.64319200  0.64319200  1
  Zr  Zr2  1  0.35680800  0.35680800  0.35680800  1
  Zr  Zr3  1  0.14319200  0.14319200  0.14319200  1
  As  As0  1  0.75000000  0.04092600  0.45907400  1
  As  As1  1  0.95907400  0.54092600  0.25000000  1
  As  As2  1  0.04092600  0.45907400  0.75000000  1
  As  As3  1  0.25000000  0.95907400  0.54092600  1
  As  As4  1  0.45907400  0.75000000  0.04092600  1
  As  As5  1  0.54092600  0.25000000  0.95907400  1
  O  O0  1  0.87001700  0.49688100  0.70439300  1
  O  O1  1  0.26771900  0.92312600  0.06054300  1
  O  O2  1  0.79560700  0.00311900  0.62998300  1
  O  O3  1  0.57687400  0.23228100  0.43945700  1
  O  O4  1  0.12998300  0.50311900  0.29560700  1
  O  O5  1  0.92312600  0.06054300  0.26771900  1
  O  O6  1  0.73228100  0.07687400  0.93945700  1
  O  O7  1  0.76771900  0.56054300  0.42312600  1
  O  O8  1  0.42312600  0.76771900  0.56054300  1
  O  O9  1  0.49688100  0.70439300  0.87001700  1
  O  O10  1  0.07687400  0.93945700  0.73228100  1
  O  O11  1  0.20439300  0.99688100  0.37001700  1
  O  O12  1  0.99688100  0.37001700  0.20439300  1
  O  O13  1  0.37001700  0.20439300  0.99688100  1
  O  O14  1  0.93945700  0.73228100  0.07687400  1
  O  O15  1  0.50311900  0.29560700  0.12998300  1
  O  O16  1  0.23228100  0.43945700  0.57687400  1
  O  O17  1  0.62998300  0.79560700  0.00311900  1
  O  O18  1  0.00311900  0.62998300  0.79560700  1
  O  O19  1  0.43945700  0.57687400  0.23228100  1
  O  O20  1  0.56054300  0.42312600  0.76771900  1
  O  O21  1  0.70439300  0.87001700  0.49688100  1
  O  O22  1  0.29560700  0.12998300  0.50311900  1
  O  O23  1  0.06054300  0.26771900  0.92312600  1
loop_
_geom_bond_atom_site_label_1
_geom_bond_atom_site_label_2
_geom_bond_distance
_geom_bond_site_symmetry_2
Na0 O5 2.548608 1_455
Na0 O10 2.548608 1_544
Na0 O1 2.548608 1_545
Na0 O6 2.548608 1_454
Na0 O23 2.548608 1_554
Na0 O14 2.548608 1_445
Na1 O20 2.548608 1_555
Na1 O19 2.548608 1_555
Na1 O8 2.548608 1_555
Na1 O3 2.548608 1_555
Na1 O7 2.548608 1_555
Na1 O16 2.548608 1_555
As0 O2 1.708434 1_555
As0 O21 1.708434 1_545
As0 O5 1.709164 1_555
As0 O3 1.709164 1_555
As1 O4 1.708434 1_655
As1 O12 1.708434 1_555
As1 O14 1.709164 1_555
As1 O7 1.709164 1_555
As2 O18 1.708434 1_555
As2 O0 1.708434 1_455
As2 O23 1.709164 1_555
As2 O16 1.709164 1_555
As3 O11 1.708434 1_555
As3 O22 1.708434 1_565
As3 O10 1.709164 1_555
As3 O8 1.709164 1_555
As4 O9 1.708434 1_554
As4 O17 1.708434 1_555
As4 O19 1.709164 1_555
As4 O1 1.709164 1_555
As5 O15 1.708434 1_556
As5 O13 1.708434 1_555
As5 O20 1.709164 1_555
As5 O6 1.709164 1_555
O0 Zr1 2.068597 1_555
O1 Zr3 2.137651 1_565
O2 Zr0 2.068597 1_545
O3 Zr2 2.137651 1_555
O4 Zr2 2.068597 1_555
O5 Zr3 2.137651 1_655
O6 Zr0 2.137651 1_545
O7 Zr1 2.137651 1_555
O8 Zr1 2.137651 1_555
O9 Zr1 2.068597 1_555
O10 Zr0 2.137651 1_455
O11 Zr3 2.068597 1_565
O12 Zr3 2.068597 1_655
O13 Zr3 2.068597 1_556
O14 Zr0 2.137651 1_554
O15 Zr2 2.068597 1_555
O16 Zr2 2.137651 1_555
O17 Zr0 2.068597 1_554
O18 Zr0 2.068597 1_455
O19 Zr2 2.137651 1_555
O20 Zr1 2.137651 1_555
O21 Zr1 2.068597 1_555
O22 Zr2 2.068597 1_555
O23 Zr3 2.137651 1_556
