# generated using pymatgen
data_Ge3Pt2
_symmetry_space_group_name_H-M   'P 1'
_cell_length_a   3.46873993
_cell_length_b   6.20484438
_cell_length_c   16.38358977
_cell_angle_alpha   90.00000000
_cell_angle_beta   90.00000000
_cell_angle_gamma   90.00000000
_symmetry_Int_Tables_number   1
_chemical_formula_structural   Ge3Pt2
_chemical_formula_sum   'Ge12 Pt8'
_cell_volume   352.62386271
_cell_formula_units_Z   4
loop_
 _symmetry_equiv_pos_site_id
 _symmetry_equiv_pos_as_xyz
  1  'x, y, z'
loop_
 _atom_site_type_symbol
 _atom_site_label
 _atom_site_symmetry_multiplicity
 _atom_site_fract_x
 _atom_site_fract_y
 _atom_site_fract_z
 _atom_site_occupancy
  Ge  Ge0  1  0.25000000  0.93748755  0.42921336  1
  Ge  Ge1  1  0.25000000  0.84020677  0.73196021  1
  Ge  Ge2  1  0.75000000  0.06251245  0.57078664  1
  Ge  Ge3  1  0.25000000  0.56251245  0.92921336  1
  Ge  Ge4  1  0.75000000  0.41148181  0.38849863  1
  Ge  Ge5  1  0.25000000  0.58851819  0.61150137  1
  Ge  Ge6  1  0.75000000  0.43748755  0.07078664  1
  Ge  Ge7  1  0.75000000  0.34020677  0.76803979  1
  Ge  Ge8  1  0.75000000  0.15979323  0.26803979  1
  Ge  Ge9  1  0.25000000  0.65979323  0.23196021  1
  Ge  Ge10  1  0.75000000  0.08851819  0.88849863  1
  Ge  Ge11  1  0.25000000  0.91148181  0.11150137  1
  Pt  Pt0  1  0.25000000  0.20803928  0.67073884  1
  Pt  Pt1  1  0.25000000  0.19645512  0.99319301  1
  Pt  Pt2  1  0.25000000  0.29196072  0.17073884  1
  Pt  Pt3  1  0.75000000  0.69645512  0.50680699  1
  Pt  Pt4  1  0.25000000  0.30354488  0.49319301  1
  Pt  Pt5  1  0.75000000  0.70803928  0.82926116  1
  Pt  Pt6  1  0.75000000  0.79196072  0.32926116  1
  Pt  Pt7  1  0.75000000  0.80354488  0.00680699  1
loop_
_geom_bond_atom_site_label_1
_geom_bond_atom_site_label_2
_geom_bond_distance
_geom_bond_site_symmetry_2
Ge0 Pt4 2.501538 1_565
Ge0 Pt6 2.550500 1_455
Ge0 Pt6 2.550500 1_555
Ge0 Pt3 2.619327 1_455
Ge0 Pt3 2.619327 1_555
Ge1 Pt0 2.493021 1_565
Ge1 Pt5 2.494363 1_555
Ge1 Pt5 2.494363 1_455
Ge1 Ge5 2.516697 1_555
Ge2 Pt3 2.501538 1_545
Ge2 Pt0 2.550500 1_655
Ge2 Pt0 2.550500 1_555
Ge2 Pt4 2.619327 1_555
Ge2 Pt4 2.619327 1_655
Ge3 Pt1 2.501538 1_555
Ge3 Pt5 2.550500 1_455
Ge3 Pt5 2.550500 1_555
Ge3 Pt7 2.619327 1_456
Ge3 Pt7 2.619327 1_556
Ge4 Ge8 2.516697 1_555
Ge4 Pt4 2.529571 1_555
Ge4 Pt4 2.529571 1_655
Ge4 Pt6 2.552518 1_555
Ge4 Pt3 2.623671 1_555
Ge5 Pt3 2.529571 1_455
Ge5 Pt3 2.529571 1_555
Ge5 Pt0 2.552518 1_555
Ge5 Pt4 2.623671 1_555
Ge6 Pt7 2.501538 1_555
Ge6 Pt2 2.550500 1_555
Ge6 Pt2 2.550500 1_655
Ge6 Pt1 2.619327 1_654
Ge6 Pt1 2.619327 1_554
Ge7 Pt5 2.493021 1_555
Ge7 Pt0 2.494363 1_655
Ge7 Pt0 2.494363 1_555
Ge8 Pt6 2.493021 1_545
Ge8 Pt2 2.494363 1_655
Ge8 Pt2 2.494363 1_555
Ge9 Pt2 2.493021 1_555
Ge9 Pt6 2.494363 1_555
Ge9 Pt6 2.494363 1_455
Ge10 Ge7 2.516697 1_555
Ge10 Pt1 2.529571 1_655
Ge10 Pt1 2.529571 1_555
Ge10 Pt5 2.552518 1_545
Ge10 Pt7 2.623671 1_546
Ge11 Ge9 2.516697 1_555
Ge11 Pt7 2.529571 1_455
Ge11 Pt7 2.529571 1_555
Ge11 Pt2 2.552518 1_565
Ge11 Pt1 2.623671 1_564
