# generated using pymatgen
data_CaCu9Sn4
_symmetry_space_group_name_H-M   'P 1'
_cell_length_a   8.74065919
_cell_length_b   8.74065919
_cell_length_c   8.74065919
_cell_angle_alpha   120.53101904
_cell_angle_beta   120.53101904
_cell_angle_gamma   89.08268276
_symmetry_Int_Tables_number   1
_chemical_formula_structural   CaCu9Sn4
_chemical_formula_sum   'Ca2 Cu18 Sn8'
_cell_volume   468.33578944
_cell_formula_units_Z   2
loop_
 _symmetry_equiv_pos_site_id
 _symmetry_equiv_pos_as_xyz
  1  'x, y, z'
loop_
 _atom_site_type_symbol
 _atom_site_label
 _atom_site_symmetry_multiplicity
 _atom_site_fract_x
 _atom_site_fract_y
 _atom_site_fract_z
 _atom_site_occupancy
  Ca  Ca0  1  0.25000000  0.25000000  0.00000000  1
  Ca  Ca1  1  0.75000000  0.75000000  0.00000000  1
  Cu  Cu0  1  0.55516200  0.70133700  0.25649800  1
  Cu  Cu1  1  0.79866300  0.94483800  0.74350200  1
  Cu  Cu2  1  0.94483800  0.20133700  0.14617500  1
  Cu  Cu3  1  0.20133700  0.05516200  0.25649800  1
  Cu  Cu4  1  0.56621200  0.28204600  0.50000000  1
  Cu  Cu5  1  0.71795400  0.21795400  0.28416600  1
  Cu  Cu6  1  0.21795400  0.93378800  0.50000000  1
  Cu  Cu7  1  0.78204600  0.06621200  0.50000000  1
  Cu  Cu8  1  0.93378800  0.43378800  0.71583400  1
  Cu  Cu9  1  0.06621200  0.56621200  0.28416600  1
  Cu  Cu10  1  0.44483800  0.29866300  0.74350200  1
  Cu  Cu11  1  0.05516200  0.79866300  0.85382500  1
  Cu  Cu12  1  0.43378800  0.71795400  0.50000000  1
  Cu  Cu13  1  0.70133700  0.44483800  0.14617500  1
  Cu  Cu14  1  0.50000000  0.00000000  0.50000000  1
  Cu  Cu15  1  0.28204600  0.78204600  0.71583400  1
  Cu  Cu16  1  0.29866300  0.55516200  0.85382500  1
  Cu  Cu17  1  0.00000000  0.50000000  0.50000000  1
  Sn  Sn0  1  0.55932900  0.05932900  0.87177800  1
  Sn  Sn1  1  0.81244800  0.31244800  0.87177800  1
  Sn  Sn2  1  0.94067100  0.81244800  0.50000000  1
  Sn  Sn3  1  0.68755200  0.55932900  0.50000000  1
  Sn  Sn4  1  0.18755200  0.68755200  0.12822200  1
  Sn  Sn5  1  0.31244800  0.44067100  0.50000000  1
  Sn  Sn6  1  0.05932900  0.18755200  0.50000000  1
  Sn  Sn7  1  0.44067100  0.94067100  0.12822200  1
loop_
_geom_bond_atom_site_label_1
_geom_bond_atom_site_label_2
_geom_bond_distance
_geom_bond_site_symmetry_2
Ca0 Sn7 3.518595 1_545
Ca0 Sn0 3.518595 1_554
Ca0 Sn3 3.518599 1_555
Ca0 Sn2 3.518599 1_444
Ca0 Sn5 3.518599 1_555
Ca0 Sn6 3.518599 1_554
Ca0 Sn1 3.518600 1_454
Ca0 Sn4 3.518600 1_555
Ca0 Cu3 3.602617 1_555
Ca0 Cu10 3.602617 1_554
Ca0 Cu13 3.602625 1_555
Ca0 Cu11 3.602625 1_544
Ca0 Cu2 3.602625 1_455
Ca0 Cu16 3.602625 1_554
Ca0 Cu1 3.602628 1_444
Ca0 Cu0 3.602628 1_555
Ca0 Cu12 3.650465 1_555
Ca0 Cu7 3.650465 1_454
Ca0 Cu15 3.650465 1_544
Ca0 Cu4 3.650465 1_555
Ca0 Cu6 3.650465 1_544
Ca0 Cu5 3.650465 1_555
Ca0 Cu9 3.650465 1_555
Ca0 Cu8 3.650465 1_454
Ca1 Sn7 3.518595 1_555
Ca1 Sn0 3.518595 1_564
Ca1 Sn6 3.518599 1_665
Ca1 Sn3 3.518599 1_554
Ca1 Sn5 3.518599 1_554
Ca1 Sn2 3.518599 1_555
Ca1 Sn4 3.518600 1_655
Ca1 Sn1 3.518600 1_554
Ca1 Cu1 3.602617 1_554
Ca1 Cu0 3.602617 1_555
Ca1 Cu16 3.602625 1_554
Ca1 Cu13 3.602625 1_555
Ca1 Cu11 3.602625 1_654
Ca1 Cu2 3.602625 1_565
Ca1 Cu10 3.602628 1_554
Ca1 Cu3 3.602628 1_665
Ca1 Cu8 3.650465 1_554
Ca1 Cu9 3.650465 1_655
Ca1 Cu12 3.650465 1_554
Ca1 Cu4 3.650465 1_554
Ca1 Cu5 3.650465 1_565
Ca1 Cu15 3.650465 1_554
Ca1 Cu6 3.650465 1_655
Ca1 Cu7 3.650465 1_565
Cu0 Cu16 2.559732 1_554
Cu0 Cu13 2.559736 1_555
Cu0 Cu14 2.633332 1_565
Cu0 Sn2 2.746899 1_555
Cu0 Sn3 2.746906 1_555
Cu0 Cu7 2.766148 1_565
Cu0 Cu12 2.766157 1_555
Cu0 Sn4 2.794785 1_555
Cu0 Sn7 2.794785 1_555
Cu0 Cu1 2.985776 1_555
Cu1 Cu2 2.559732 1_566
Cu1 Cu11 2.559736 1_655
Cu1 Cu14 2.633332 1_565
Cu1 Sn3 2.746899 1_555
Cu1 Sn2 2.746906 1_555
Cu1 Cu12 2.766148 1_555
Cu1 Cu7 2.766157 1_565
Cu1 Sn0 2.794785 1_565
Cu1 Sn1 2.794785 1_565
Cu2 Cu3 2.559736 1_655
Cu2 Sn1 2.746892 1_554
Cu2 Sn0 2.746899 1_554
Cu2 Cu5 2.766149 1_555
Cu2 Cu9 2.766149 1_655
Cu2 Sn6 2.794785 1_655
Cu2 Sn5 2.794785 1_655
Cu3 Sn5 2.746899 1_555
Cu3 Sn6 2.746906 1_555
Cu3 Cu4 2.766148 1_555
Cu3 Cu6 2.766157 1_545
Cu3 Sn4 2.794785 1_545
Cu3 Sn7 2.794785 1_545
Cu4 Sn5 2.596861 1_555
Cu4 Cu7 2.646516 1_555
Cu4 Cu5 2.660193 1_555
Cu4 Cu8 2.660193 1_555
Cu4 Sn3 2.661047 1_555
Cu4 Sn7 2.701420 1_545
Cu4 Sn1 2.701423 1_555
Cu5 Sn0 2.596854 1_554
Cu5 Cu8 2.646516 1_555
Cu5 Cu7 2.660193 1_555
Cu5 Sn7 2.661043 1_545
Cu5 Sn3 2.701417 1_555
Cu5 Sn6 2.701417 1_655
Cu6 Sn6 2.596861 1_565
Cu6 Cu9 2.660193 1_555
Cu6 Sn2 2.661047 1_455
Cu6 Sn0 2.701420 1_565
Cu6 Sn4 2.701423 1_555
Cu7 Sn2 2.596861 1_545
Cu7 Cu8 2.660193 1_555
Cu7 Sn6 2.661047 1_655
Cu7 Sn7 2.701420 1_545
Cu7 Sn1 2.701423 1_555
Cu8 Sn4 2.596857 1_656
Cu8 Sn1 2.661055 1_555
Cu8 Sn3 2.701417 1_555
Cu8 Sn6 2.701417 1_655
Cu9 Sn1 2.596857 1_454
Cu9 Sn4 2.661055 1_555
Cu9 Sn2 2.701417 1_455
Cu9 Sn5 2.701417 1_555
Cu10 Cu13 2.559732 1_556
Cu10 Cu16 2.559736 1_555
Cu10 Cu14 2.633332 1_555
Cu10 Sn6 2.746899 1_555
Cu10 Sn5 2.746906 1_555
Cu10 Cu6 2.766148 1_545
Cu10 Cu4 2.766157 1_555
Cu10 Sn1 2.794785 1_555
Cu10 Sn0 2.794785 1_555
Cu10 Cu3 2.985776 1_555
Cu11 Cu3 2.559732 1_566
Cu11 Cu17 2.633328 1_555
Cu11 Sn4 2.746892 1_556
Cu11 Sn7 2.746899 1_556
Cu11 Cu8 2.766149 1_455
Cu11 Cu15 2.766149 1_555
Cu11 Sn2 2.794785 1_455
Cu11 Sn3 2.794785 1_455
Cu11 Cu16 2.985763 1_555
Cu12 Cu14 2.541292 1_565
Cu12 Sn3 2.596861 1_555
Cu12 Cu6 2.646516 1_555
Cu12 Cu15 2.660193 1_555
Cu12 Cu9 2.660193 1_555
Cu12 Sn5 2.661047 1_555
Cu12 Sn0 2.701420 1_565
Cu12 Sn4 2.701423 1_555
Cu13 Cu17 2.633328 1_655
Cu13 Sn1 2.746892 1_554
Cu13 Sn0 2.746899 1_554
Cu13 Cu9 2.766149 1_655
Cu13 Cu5 2.766149 1_555
Cu13 Sn2 2.794785 1_555
Cu13 Sn3 2.794785 1_555
Cu13 Cu2 2.985763 1_555
Cu14 Cu6 2.541292 1_545
Cu14 Cu7 2.541292 1_555
Cu14 Cu4 2.541292 1_555
Cu14 Cu3 2.633332 1_555
Cu14 Sn4 2.771633 1_545
Cu14 Sn1 2.771633 1_555
Cu14 Sn7 2.771640 1_545
Cu14 Sn0 2.771640 1_555
Cu15 Cu17 2.541292 1_555
Cu15 Sn7 2.596854 1_556
Cu15 Cu9 2.646516 1_555
Cu15 Cu6 2.660193 1_555
Cu15 Sn0 2.661043 1_565
Cu15 Sn5 2.701417 1_555
Cu15 Sn2 2.701417 1_455
Cu15 Cu16 2.766149 1_555
Cu16 Cu17 2.633328 1_555
Cu16 Sn4 2.746892 1_556
Cu16 Sn7 2.746899 1_556
Cu16 Cu8 2.766149 1_455
Cu16 Sn5 2.794785 1_555
Cu16 Sn6 2.794785 1_555
Cu17 Cu8 2.541292 1_455
Cu17 Cu5 2.541292 1_455
Cu17 Cu9 2.541292 1_555
Cu17 Cu2 2.633328 1_455
Cu17 Sn3 2.771632 1_455
Cu17 Sn2 2.771632 1_455
Cu17 Sn5 2.771632 1_555
Cu17 Sn6 2.771632 1_555
