# generated using pymatgen
data_Tl7(Ag18Te11)2
_symmetry_space_group_name_H-M   'P 1'
_cell_length_a   13.38475496
_cell_length_b   13.38475496
_cell_length_c   13.38475496
_cell_angle_alpha   60.00000000
_cell_angle_beta   60.00000000
_cell_angle_gamma   60.00000000
_symmetry_Int_Tables_number   1
_chemical_formula_structural   Tl7(Ag18Te11)2
_chemical_formula_sum   'Tl7 Ag36 Te22'
_cell_volume   1695.57215934
_cell_formula_units_Z   1
loop_
 _symmetry_equiv_pos_site_id
 _symmetry_equiv_pos_as_xyz
  1  'x, y, z'
loop_
 _atom_site_type_symbol
 _atom_site_label
 _atom_site_symmetry_multiplicity
 _atom_site_fract_x
 _atom_site_fract_y
 _atom_site_fract_z
 _atom_site_occupancy
  Tl  Tl0  1  0.23381900  0.76618100  0.76618100  1
  Tl  Tl1  1  0.76618100  0.76618100  0.23381900  1
  Tl  Tl2  1  0.76618100  0.23381900  0.76618100  1
  Tl  Tl3  1  0.23381900  0.76618100  0.23381900  1
  Tl  Tl4  1  0.00000000  0.00000000  0.00000000  1
  Tl  Tl5  1  0.23381900  0.23381900  0.76618100  1
  Tl  Tl6  1  0.76618100  0.23381900  0.23381900  1
  Ag  Ag0  1  0.25791100  0.00548800  0.25791100  1
  Ag  Ag1  1  0.47869000  0.25791100  0.25791100  1
  Ag  Ag2  1  0.00548800  0.25791100  0.47869000  1
  Ag  Ag3  1  0.38664800  0.00000000  0.00000000  1
  Ag  Ag4  1  0.99451200  0.52131000  0.74208900  1
  Ag  Ag5  1  0.00548800  0.47869000  0.25791100  1
  Ag  Ag6  1  0.00000000  0.38664800  0.61335200  1
  Ag  Ag7  1  0.00000000  0.61335200  0.38664800  1
  Ag  Ag8  1  0.52131000  0.99451200  0.74208900  1
  Ag  Ag9  1  0.47869000  0.00548800  0.25791100  1
  Ag  Ag10  1  0.74208900  0.52131000  0.74208900  1
  Ag  Ag11  1  0.47869000  0.25791100  0.00548800  1
  Ag  Ag12  1  0.74208900  0.52131000  0.99451200  1
  Ag  Ag13  1  0.00548800  0.25791100  0.25791100  1
  Ag  Ag14  1  0.25791100  0.47869000  0.00548800  1
  Ag  Ag15  1  0.74208900  0.74208900  0.52131000  1
  Ag  Ag16  1  0.52131000  0.74208900  0.74208900  1
  Ag  Ag17  1  0.38664800  0.61335200  0.00000000  1
  Ag  Ag18  1  0.74208900  0.99451200  0.74208900  1
  Ag  Ag19  1  0.00000000  0.38664800  0.00000000  1
  Ag  Ag20  1  0.25791100  0.00548800  0.47869000  1
  Ag  Ag21  1  0.52131000  0.74208900  0.99451200  1
  Ag  Ag22  1  0.25791100  0.25791100  0.00548800  1
  Ag  Ag23  1  0.61335200  0.38664800  0.00000000  1
  Ag  Ag24  1  0.74208900  0.74208900  0.99451200  1
  Ag  Ag25  1  0.25791100  0.25791100  0.47869000  1
  Ag  Ag26  1  0.00000000  0.00000000  0.38664800  1
  Ag  Ag27  1  0.00000000  0.61335200  0.00000000  1
  Ag  Ag28  1  0.99451200  0.74208900  0.74208900  1
  Ag  Ag29  1  0.25791100  0.47869000  0.25791100  1
  Ag  Ag30  1  0.61335200  0.00000000  0.38664800  1
  Ag  Ag31  1  0.74208900  0.99451200  0.52131000  1
  Ag  Ag32  1  0.00000000  0.00000000  0.61335200  1
  Ag  Ag33  1  0.99451200  0.74208900  0.52131000  1
  Ag  Ag34  1  0.38664800  0.00000000  0.61335200  1
  Ag  Ag35  1  0.61335200  0.00000000  0.00000000  1
  Te  Te0  1  0.32774100  0.89075300  0.89075300  1
  Te  Te1  1  0.10924700  0.10924700  0.10924700  1
  Te  Te2  1  0.18501600  0.81498400  0.50000000  1
  Te  Te3  1  0.18501600  0.50000000  0.50000000  1
  Te  Te4  1  0.50000000  0.18501600  0.50000000  1
  Te  Te5  1  0.81498400  0.50000000  0.50000000  1
  Te  Te6  1  0.18501600  0.50000000  0.81498400  1
  Te  Te7  1  0.50000000  0.81498400  0.18501600  1
  Te  Te8  1  0.50000000  0.50000000  0.18501600  1
  Te  Te9  1  0.50000000  0.18501600  0.81498400  1
  Te  Te10  1  0.10924700  0.10924700  0.67225900  1
  Te  Te11  1  0.67225900  0.10924700  0.10924700  1
  Te  Te12  1  0.89075300  0.32774100  0.89075300  1
  Te  Te13  1  0.10924700  0.67225900  0.10924700  1
  Te  Te14  1  0.81498400  0.18501600  0.50000000  1
  Te  Te15  1  0.89075300  0.89075300  0.32774100  1
  Te  Te16  1  0.81498400  0.50000000  0.18501600  1
  Te  Te17  1  0.75000000  0.75000000  0.75000000  1
  Te  Te18  1  0.50000000  0.81498400  0.50000000  1
  Te  Te19  1  0.50000000  0.50000000  0.81498400  1
  Te  Te20  1  0.89075300  0.89075300  0.89075300  1
  Te  Te21  1  0.25000000  0.25000000  0.25000000  1
loop_
_geom_bond_atom_site_label_1
_geom_bond_atom_site_label_2
_geom_bond_distance
_geom_bond_site_symmetry_2
Ag0 Te1 2.877518 1_555
Ag0 Ag20 2.955073 1_555
Ag0 Ag9 2.955073 1_555
Ag0 Te7 3.002882 1_545
Ag0 Te2 3.002882 1_545
Ag0 Ag3 3.011648 1_555
Ag0 Ag26 3.011648 1_555
Ag0 Te21 3.170385 1_555
Ag0 Ag13 3.378620 1_555
Ag0 Ag22 3.378620 1_555
Ag0 Tl3 3.554903 1_545
Ag1 Te11 2.877518 1_555
Ag1 Ag25 2.955073 1_555
Ag1 Ag29 2.955073 1_555
Ag1 Te4 3.002882 1_555
Ag1 Te8 3.002882 1_555
Ag1 Ag30 3.011648 1_555
Ag1 Ag23 3.011648 1_555
Ag1 Te21 3.170385 1_555
Ag1 Ag11 3.378620 1_555
Ag1 Ag9 3.378620 1_555
Ag1 Tl6 3.554903 1_555
Ag2 Te10 2.877518 1_555
Ag2 Ag5 2.955073 1_555
Ag2 Te5 3.002882 1_455
Ag2 Te14 3.002882 1_455
Ag2 Ag6 3.011648 1_555
Ag2 Ag32 3.011648 1_555
Ag2 Te21 3.170385 1_555
Ag2 Ag25 3.378620 1_555
Ag2 Ag20 3.378620 1_555
Ag2 Tl2 3.554903 1_455
Ag3 Te9 2.904202 1_554
Ag3 Te7 2.904202 1_545
Ag3 Ag8 3.011648 1_544
Ag3 Ag35 3.034377 1_555
Ag3 Te1 3.056463 1_555
Ag3 Te0 3.056463 1_544
Ag4 Te12 2.877518 1_555
Ag4 Te6 3.002882 1_655
Ag4 Te3 3.002882 1_655
Ag4 Ag6 3.011648 1_655
Ag4 Te17 3.170385 1_555
Ag4 Tl5 3.554903 1_655
Ag5 Te13 2.877518 1_555
Ag5 Te5 3.002882 1_455
Ag5 Te16 3.002882 1_455
Ag5 Ag7 3.011648 1_555
Ag5 Te21 3.170385 1_555
Ag5 Tl1 3.554903 1_455
Ag6 Te3 2.904202 1_555
Ag6 Te5 2.904202 1_455
Ag6 Ag7 3.034377 1_555
Ag6 Te12 3.056463 1_455
Ag6 Te10 3.056463 1_555
Ag7 Te3 2.904202 1_555
Ag7 Te5 2.904202 1_455
Ag7 Te15 3.056463 1_455
Ag7 Te13 3.056463 1_555
Ag8 Te0 2.877518 1_555
Ag8 Te9 3.002882 1_565
Ag8 Te4 3.002882 1_565
Ag8 Te17 3.170385 1_555
Ag8 Tl5 3.554903 1_565
Ag9 Te11 2.877518 1_555
Ag9 Te18 3.002882 1_545
Ag9 Te7 3.002882 1_545
Ag9 Te21 3.170385 1_555
Ag9 Tl1 3.554903 1_545
Ag10 Te12 2.877518 1_555
Ag10 Ag16 2.955073 1_555
Ag10 Ag15 2.955073 1_555
Ag10 Te5 3.002882 1_555
Ag10 Te19 3.002882 1_555
Ag10 Ag23 3.011648 1_556
Ag10 Ag6 3.011648 1_655
Ag10 Te17 3.170385 1_555
Ag10 Ag4 3.378620 1_555
Ag10 Ag12 3.378620 1_555
Ag10 Tl2 3.554903 1_555
Ag11 Te11 2.877518 1_555
Ag11 Ag22 2.955073 1_555
Ag11 Ag14 2.955073 1_555
Ag11 Te19 3.002882 1_554
Ag11 Te9 3.002882 1_554
Ag11 Ag23 3.011648 1_555
Ag11 Ag35 3.011648 1_555
Ag11 Te21 3.170385 1_555
Ag11 Ag9 3.378620 1_555
Ag11 Tl2 3.554903 1_554
Ag12 Te12 2.877518 1_555
Ag12 Ag24 2.955073 1_555
Ag12 Ag21 2.955073 1_555
Ag12 Te16 3.002882 1_556
Ag12 Te8 3.002882 1_556
Ag12 Ag23 3.011648 1_556
Ag12 Ag19 3.011648 1_656
Ag12 Te17 3.170385 1_555
Ag12 Ag4 3.378620 1_555
Ag12 Tl6 3.554903 1_556
Ag13 Te1 2.877518 1_555
Ag13 Ag2 2.955073 1_555
Ag13 Ag5 2.955073 1_555
Ag13 Te14 3.002882 1_455
Ag13 Te16 3.002882 1_455
Ag13 Ag19 3.011648 1_555
Ag13 Ag26 3.011648 1_555
Ag13 Te21 3.170385 1_555
Ag13 Ag22 3.378620 1_555
Ag13 Tl6 3.554903 1_455
Ag14 Te13 2.877518 1_555
Ag14 Ag22 2.955073 1_555
Ag14 Te19 3.002882 1_554
Ag14 Te6 3.002882 1_554
Ag14 Ag17 3.011648 1_555
Ag14 Ag27 3.011648 1_555
Ag14 Te21 3.170385 1_555
Ag14 Ag29 3.378620 1_555
Ag14 Ag5 3.378620 1_555
Ag14 Tl0 3.554903 1_554
Ag15 Te15 2.877518 1_555
Ag15 Ag16 2.955073 1_555
Ag15 Te18 3.002882 1_555
Ag15 Te5 3.002882 1_555
Ag15 Ag30 3.011648 1_565
Ag15 Ag7 3.011648 1_655
Ag15 Te17 3.170385 1_555
Ag15 Ag33 3.378620 1_555
Ag15 Ag31 3.378620 1_555
Ag15 Tl1 3.554903 1_555
Ag16 Te0 2.877518 1_555
Ag16 Te19 3.002882 1_555
Ag16 Te18 3.002882 1_555
Ag16 Ag17 3.011648 1_556
Ag16 Ag34 3.011648 1_565
Ag16 Te17 3.170385 1_555
Ag16 Ag8 3.378620 1_555
Ag16 Ag21 3.378620 1_555
Ag16 Tl0 3.554903 1_555
Ag17 Te8 2.904202 1_555
Ag17 Te19 2.904202 1_554
Ag17 Ag21 3.011648 1_554
Ag17 Ag29 3.011648 1_555
Ag17 Ag23 3.034377 1_555
Ag17 Te0 3.056463 1_554
Ag17 Te13 3.056463 1_555
Ag18 Te20 2.877518 1_555
Ag18 Ag31 2.955073 1_555
Ag18 Ag8 2.955073 1_555
Ag18 Te14 3.002882 1_565
Ag18 Te9 3.002882 1_565
Ag18 Ag32 3.011648 1_665
Ag18 Ag35 3.011648 1_566
Ag18 Te17 3.170385 1_555
Ag18 Ag24 3.378620 1_555
Ag18 Ag28 3.378620 1_555
Ag18 Tl2 3.554903 1_565
Ag19 Te16 2.904202 1_455
Ag19 Te6 2.904202 1_554
Ag19 Ag4 3.011648 1_454
Ag19 Ag22 3.011648 1_555
Ag19 Ag27 3.034377 1_555
Ag19 Te1 3.056463 1_555
Ag19 Te12 3.056463 1_454
Ag20 Te10 2.877518 1_555
Ag20 Ag9 2.955073 1_555
Ag20 Te18 3.002882 1_545
Ag20 Te2 3.002882 1_545
Ag20 Ag34 3.011648 1_555
Ag20 Ag32 3.011648 1_555
Ag20 Te21 3.170385 1_555
Ag20 Ag25 3.378620 1_555
Ag20 Tl0 3.554903 1_545
Ag21 Te0 2.877518 1_555
Ag21 Ag24 2.955073 1_555
Ag21 Te7 3.002882 1_556
Ag21 Te8 3.002882 1_556
Ag21 Ag3 3.011648 1_566
Ag21 Te17 3.170385 1_555
Ag21 Ag8 3.378620 1_555
Ag21 Tl3 3.554903 1_556
Ag22 Te1 2.877518 1_555
Ag22 Te6 3.002882 1_554
Ag22 Te9 3.002882 1_554
Ag22 Ag3 3.011648 1_555
Ag22 Te21 3.170385 1_555
Ag22 Tl5 3.554903 1_554
Ag23 Te8 2.904202 1_555
Ag23 Te19 2.904202 1_554
Ag23 Te12 3.056463 1_554
Ag23 Te11 3.056463 1_555
Ag24 Te20 2.877518 1_555
Ag24 Te7 3.002882 1_556
Ag24 Te16 3.002882 1_556
Ag24 Ag27 3.011648 1_656
Ag24 Ag35 3.011648 1_566
Ag24 Te17 3.170385 1_555
Ag24 Ag28 3.378620 1_555
Ag24 Tl1 3.554903 1_556
Ag25 Te10 2.877518 1_555
Ag25 Ag29 2.955073 1_555
Ag25 Te3 3.002882 1_555
Ag25 Te4 3.002882 1_555
Ag25 Ag34 3.011648 1_555
Ag25 Ag6 3.011648 1_555
Ag25 Te21 3.170385 1_555
Ag25 Tl5 3.554903 1_555
Ag26 Te2 2.904202 1_545
Ag26 Te14 2.904202 1_455
Ag26 Ag33 3.011648 1_445
Ag26 Ag31 3.011648 1_445
Ag26 Ag32 3.034377 1_555
Ag26 Te1 3.056463 1_555
Ag26 Te15 3.056463 1_445
Ag27 Te6 2.904202 1_554
Ag27 Te16 2.904202 1_455
Ag27 Ag5 3.011648 1_555
Ag27 Ag28 3.011648 1_454
Ag27 Te13 3.056463 1_555
Ag27 Te20 3.056463 1_454
Ag28 Te20 2.877518 1_555
Ag28 Ag33 2.955073 1_555
Ag28 Ag4 2.955073 1_555
Ag28 Te2 3.002882 1_655
Ag28 Te6 3.002882 1_655
Ag28 Ag32 3.011648 1_665
Ag28 Te17 3.170385 1_555
Ag28 Tl0 3.554903 1_655
Ag29 Te13 2.877518 1_555
Ag29 Te3 3.002882 1_555
Ag29 Te8 3.002882 1_555
Ag29 Ag7 3.011648 1_555
Ag29 Te21 3.170385 1_555
Ag29 Ag5 3.378620 1_555
Ag29 Tl3 3.554903 1_555
Ag30 Te4 2.904202 1_555
Ag30 Te18 2.904202 1_545
Ag30 Ag9 3.011648 1_555
Ag30 Ag31 3.011648 1_545
Ag30 Ag34 3.034377 1_555
Ag30 Te15 3.056463 1_545
Ag30 Te11 3.056463 1_555
Ag31 Te15 2.877518 1_555
Ag31 Ag8 2.955073 1_555
Ag31 Te14 3.002882 1_565
Ag31 Te4 3.002882 1_565
Ag31 Te17 3.170385 1_555
Ag31 Ag33 3.378620 1_555
Ag31 Tl6 3.554903 1_565
Ag32 Te2 2.904202 1_545
Ag32 Te14 2.904202 1_455
Ag32 Te10 3.056463 1_555
Ag32 Te20 3.056463 1_445
Ag33 Te15 2.877518 1_555
Ag33 Ag4 2.955073 1_555
Ag33 Te2 3.002882 1_655
Ag33 Te3 3.002882 1_655
Ag33 Ag7 3.011648 1_655
Ag33 Te17 3.170385 1_555
Ag33 Tl3 3.554903 1_655
Ag34 Te4 2.904202 1_555
Ag34 Te18 2.904202 1_545
Ag34 Ag8 3.011648 1_545
Ag34 Te0 3.056463 1_545
Ag34 Te10 3.056463 1_555
Ag35 Te7 2.904202 1_545
Ag35 Te9 2.904202 1_554
Ag35 Ag9 3.011648 1_555
Ag35 Te11 3.056463 1_555
Ag35 Te20 3.056463 1_544
Te0 Tl4 3.581752 1_566
Te1 Tl4 3.581752 1_555
Te10 Tl4 3.581752 1_556
Te11 Tl4 3.581752 1_655
Te12 Tl4 3.581752 1_656
Te13 Tl4 3.581752 1_565
Te15 Tl4 3.581752 1_665
Te20 Tl4 3.581752 1_666
