# generated using pymatgen
data_CeTl5Cu2(NO2)12
_symmetry_space_group_name_H-M   'P 1'
_cell_length_a   10.77254700
_cell_length_b   10.77254700
_cell_length_c   10.77254700
_cell_angle_alpha   90.00000000
_cell_angle_beta   90.00000000
_cell_angle_gamma   90.00000000
_symmetry_Int_Tables_number   1
_chemical_formula_structural   CeTl5Cu2(NO2)12
_chemical_formula_sum   'Ce2 Tl10 Cu4 N24 O48'
_cell_volume   1250.13004437
_cell_formula_units_Z   2
loop_
 _symmetry_equiv_pos_site_id
 _symmetry_equiv_pos_as_xyz
  1  'x, y, z'
loop_
 _atom_site_type_symbol
 _atom_site_label
 _atom_site_symmetry_multiplicity
 _atom_site_fract_x
 _atom_site_fract_y
 _atom_site_fract_z
 _atom_site_occupancy
  Ce  Ce0  1  0.25000000  0.25000000  0.25000000  1
  Ce  Ce1  1  0.75000000  0.75000000  0.75000000  1
  Tl  Tl0  1  0.50000000  0.50000000  0.00000000  1
  Tl  Tl1  1  0.50000000  0.00000000  0.50000000  1
  Tl  Tl2  1  0.25000000  0.75000000  0.75000000  1
  Tl  Tl3  1  0.75000000  0.25000000  0.25000000  1
  Tl  Tl4  1  0.75000000  0.25000000  0.75000000  1
  Tl  Tl5  1  0.00000000  0.00000000  0.00000000  1
  Tl  Tl6  1  0.75000000  0.75000000  0.25000000  1
  Tl  Tl7  1  0.25000000  0.75000000  0.25000000  1
  Tl  Tl8  1  0.00000000  0.50000000  0.50000000  1
  Tl  Tl9  1  0.25000000  0.25000000  0.75000000  1
  Cu  Cu0  1  0.00000000  0.00000000  0.50000000  1
  Cu  Cu1  1  0.50000000  0.00000000  0.00000000  1
  Cu  Cu2  1  0.00000000  0.50000000  0.00000000  1
  Cu  Cu3  1  0.50000000  0.50000000  0.50000000  1
  N  N0  1  0.50585200  0.50260600  0.69645700  1
  N  N1  1  0.80354300  0.99414800  0.50260600  1
  N  N2  1  0.69645700  0.99414800  0.99739400  1
  N  N3  1  0.50260600  0.80354300  0.99414800  1
  N  N4  1  0.99414800  0.99739400  0.69645700  1
  N  N5  1  0.00260600  0.30354300  0.00585200  1
  N  N6  1  0.30354300  0.00585200  0.00260600  1
  N  N7  1  0.80354300  0.50585200  0.99739400  1
  N  N8  1  0.50260600  0.69645700  0.50585200  1
  N  N9  1  0.00585200  0.49739400  0.19645700  1
  N  N10  1  0.99739400  0.80354300  0.50585200  1
  N  N11  1  0.49414800  0.49739400  0.30354300  1
  N  N12  1  0.50585200  0.99739400  0.80354300  1
  N  N13  1  0.00260600  0.19645700  0.49414800  1
  N  N14  1  0.69645700  0.50585200  0.50260600  1
  N  N15  1  0.49739400  0.19645700  0.00585200  1
  N  N16  1  0.49739400  0.30354300  0.49414800  1
  N  N17  1  0.19645700  0.00585200  0.49739400  1
  N  N18  1  0.99739400  0.69645700  0.99414800  1
  N  N19  1  0.99414800  0.50260600  0.80354300  1
  N  N20  1  0.49414800  0.00260600  0.19645700  1
  N  N21  1  0.00585200  0.00260600  0.30354300  1
  N  N22  1  0.19645700  0.49414800  0.00260600  1
  N  N23  1  0.30354300  0.49414800  0.49739400  1
  O  O0  1  0.50266900  0.25668400  0.90640000  1
  O  O1  1  0.00266900  0.75668400  0.09360000  1
  O  O2  1  0.40640000  0.00266900  0.74331600  1
  O  O3  1  0.24331600  0.59360000  0.50266900  1
  O  O4  1  0.90640000  0.50266900  0.25668400  1
  O  O5  1  0.25462900  0.10489700  0.46920500  1
  O  O6  1  0.39510300  0.46920500  0.24537100  1
  O  O7  1  0.96920500  0.74537100  0.60489700  1
  O  O8  1  0.59360000  0.99733100  0.25668400  1
  O  O9  1  0.03079500  0.25462900  0.39510300  1
  O  O10  1  0.09360000  0.00266900  0.75668400  1
  O  O11  1  0.39510300  0.03079500  0.25462900  1
  O  O12  1  0.74331600  0.40640000  0.00266900  1
  O  O13  1  0.89510300  0.96920500  0.75462900  1
  O  O14  1  0.03079500  0.24537100  0.10489700  1
  O  O15  1  0.90640000  0.99733100  0.24331600  1
  O  O16  1  0.89510300  0.53079500  0.74537100  1
  O  O17  1  0.25668400  0.90640000  0.50266900  1
  O  O18  1  0.09360000  0.49733100  0.74331600  1
  O  O19  1  0.10489700  0.03079500  0.24537100  1
  O  O20  1  0.53079500  0.74537100  0.89510300  1
  O  O21  1  0.25668400  0.59360000  0.99733100  1
  O  O22  1  0.25462900  0.39510300  0.03079500  1
  O  O23  1  0.74331600  0.09360000  0.49733100  1
  O  O24  1  0.00266900  0.74331600  0.40640000  1
  O  O25  1  0.24537100  0.39510300  0.46920500  1
  O  O26  1  0.40640000  0.49733100  0.75668400  1
  O  O27  1  0.99733100  0.25668400  0.59360000  1
  O  O28  1  0.59360000  0.50266900  0.24331600  1
  O  O29  1  0.53079500  0.75462900  0.60489700  1
  O  O30  1  0.74537100  0.60489700  0.96920500  1
  O  O31  1  0.60489700  0.96920500  0.74537100  1
  O  O32  1  0.24331600  0.90640000  0.99733100  1
  O  O33  1  0.75462900  0.89510300  0.96920500  1
  O  O34  1  0.75668400  0.09360000  0.00266900  1
  O  O35  1  0.50266900  0.24331600  0.59360000  1
  O  O36  1  0.74537100  0.89510300  0.53079500  1
  O  O37  1  0.75668400  0.40640000  0.49733100  1
  O  O38  1  0.99733100  0.24331600  0.90640000  1
  O  O39  1  0.49733100  0.74331600  0.09360000  1
  O  O40  1  0.10489700  0.46920500  0.25462900  1
  O  O41  1  0.24537100  0.10489700  0.03079500  1
  O  O42  1  0.46920500  0.24537100  0.39510300  1
  O  O43  1  0.60489700  0.53079500  0.75462900  1
  O  O44  1  0.49733100  0.75668400  0.40640000  1
  O  O45  1  0.96920500  0.75462900  0.89510300  1
  O  O46  1  0.75462900  0.60489700  0.53079500  1
  O  O47  1  0.46920500  0.25462900  0.10489700  1
loop_
_geom_bond_atom_site_label_1
_geom_bond_atom_site_label_2
_geom_bond_distance
_geom_bond_site_symmetry_2
Ce0 O47 2.832322 1_555
Ce0 O42 2.832322 1_555
Ce0 O11 2.832322 1_555
Ce0 O5 2.832322 1_555
Ce0 O14 2.832322 1_555
Ce0 O40 2.832322 1_555
Ce0 O22 2.832322 1_555
Ce0 O41 2.832322 1_555
Ce0 O25 2.832322 1_555
Ce0 O9 2.832322 1_555
Ce0 O19 2.832322 1_555
Ce0 O6 2.832322 1_555
Ce1 O45 2.832322 1_555
Ce1 O29 2.832322 1_555
Ce1 O7 2.832322 1_555
Ce1 O20 2.832322 1_555
Ce1 O46 2.832322 1_555
Ce1 O33 2.832322 1_555
Ce1 O36 2.832322 1_555
Ce1 O43 2.832322 1_555
Ce1 O31 2.832322 1_555
Ce1 O13 2.832322 1_555
Ce1 O16 2.832322 1_555
Ce1 O30 2.832322 1_555
Cu0 N17 2.117467 1_555
Cu0 N13 2.117467 1_555
Cu0 N1 2.117467 1_445
Cu0 N10 2.117467 1_445
Cu0 N4 2.117467 1_445
Cu0 N21 2.117467 1_555
Cu1 N2 2.117467 1_544
Cu1 N3 2.117467 1_544
Cu1 N6 2.117467 1_555
Cu1 N15 2.117467 1_555
Cu1 N12 2.117467 1_544
Cu1 N20 2.117467 1_555
Cu2 N22 2.117467 1_555
Cu2 N18 2.117467 1_454
Cu2 N5 2.117467 1_555
Cu2 N7 2.117467 1_454
Cu2 N19 2.117467 1_454
Cu2 N9 2.117467 1_555
Cu3 N8 2.117467 1_555
Cu3 N14 2.117467 1_555
Cu3 N23 2.117467 1_555
Cu3 N16 2.117467 1_555
Cu3 N0 2.117467 1_555
Cu3 N11 2.117467 1_555
N0 O26 1.253779 1_555
N0 O43 1.274102 1_555
N1 O23 1.253779 1_565
N1 O36 1.274102 1_555
N2 O34 1.253779 1_566
N2 O33 1.274102 1_555
N3 O39 1.253779 1_556
N3 O20 1.274102 1_555
N4 O10 1.253779 1_665
N4 O13 1.274102 1_555
N5 O38 1.253779 1_454
N5 O14 1.274102 1_555
N6 O32 1.253779 1_544
N6 O41 1.274102 1_555
N7 O12 1.253779 1_556
N7 O30 1.274102 1_555
N8 O44 1.253779 1_555
N8 O29 1.274102 1_555
N9 O4 1.253779 1_455
N9 O40 1.274102 1_555
N10 O24 1.253779 1_655
N10 O7 1.274102 1_555
N11 O28 1.253779 1_555
N11 O6 1.274102 1_555
N12 O2 1.253779 1_565
N12 O31 1.274102 1_555
N13 O27 1.253779 1_455
N13 O9 1.274102 1_555
N14 O37 1.253779 1_555
N14 O46 1.274102 1_555
N15 O0 1.253779 1_554
N15 O47 1.274102 1_555
N16 O35 1.253779 1_555
N16 O42 1.274102 1_555
N17 O17 1.253779 1_545
N17 O5 1.274102 1_555
N18 O1 1.253779 1_656
N18 O45 1.274102 1_555
N19 O18 1.253779 1_655
N19 O16 1.274102 1_555
N20 O8 1.253779 1_545
N20 O11 1.274102 1_555
N21 O15 1.253779 1_445
N21 O19 1.274102 1_555
N22 O21 1.253779 1_554
N22 O22 1.274102 1_555
N23 O3 1.253779 1_555
N23 O25 1.274102 1_555
O0 Tl0 2.808533 1_556
O1 Tl5 2.808533 1_565
O2 Tl1 2.808533 1_555
O3 Tl8 2.808533 1_555
O4 Tl8 2.808533 1_655
O5 Tl1 2.893760 1_555
O6 Tl0 2.893760 1_555
O7 Tl8 2.893760 1_655
O8 Tl1 2.808533 1_565
O9 Tl8 2.893760 1_555
O10 Tl5 2.808533 1_556
O11 Tl1 2.893760 1_555
O12 Tl0 2.808533 1_555
O13 Tl5 2.893760 1_666
O14 Tl5 2.893760 1_555
O15 Tl5 2.808533 1_665
O16 Tl8 2.893760 1_655
O17 Tl1 2.808533 1_565
O18 Tl8 2.808533 1_555
O19 Tl5 2.893760 1_555
O20 Tl0 2.893760 1_556
O21 Tl0 2.808533 1_556
O22 Tl0 2.893760 1_555
O23 Tl1 2.808533 1_555
O24 Tl8 2.808533 1_555
O25 Tl8 2.893760 1_555
O26 Tl0 2.808533 1_556
O27 Tl8 2.808533 1_655
O28 Tl0 2.808533 1_555
O29 Tl1 2.893760 1_565
O30 Tl0 2.893760 1_556
O31 Tl1 2.893760 1_565
O32 Tl5 2.808533 1_566
O33 Tl5 2.893760 1_666
O34 Tl5 2.808533 1_655
O35 Tl1 2.808533 1_555
O36 Tl1 2.893760 1_565
O37 Tl8 2.808533 1_655
O38 Tl5 2.808533 1_656
O39 Tl0 2.808533 1_555
O40 Tl8 2.893760 1_555
O41 Tl5 2.893760 1_555
O42 Tl1 2.893760 1_555
O43 Tl0 2.893760 1_556
O44 Tl1 2.808533 1_565
O45 Tl5 2.893760 1_666
O46 Tl8 2.893760 1_655
O47 Tl0 2.893760 1_555
