# generated using pymatgen
data_U2V2O11
_symmetry_space_group_name_H-M   'P 1'
_cell_length_a   13.21955800
_cell_length_b   6.14980800
_cell_length_c   7.37200325
_cell_angle_alpha   59.84396113
_cell_angle_beta   90.00000000
_cell_angle_gamma   90.00000000
_symmetry_Int_Tables_number   1
_chemical_formula_structural   U2V2O11
_chemical_formula_sum   'U4 V4 O22'
_cell_volume   518.21458072
_cell_formula_units_Z   2
loop_
 _symmetry_equiv_pos_site_id
 _symmetry_equiv_pos_as_xyz
  1  'x, y, z'
loop_
 _atom_site_type_symbol
 _atom_site_label
 _atom_site_symmetry_multiplicity
 _atom_site_fract_x
 _atom_site_fract_y
 _atom_site_fract_z
 _atom_site_occupancy
  U  U0  1  0.67702100  0.16088700  0.17132600  1
  U  U1  1  0.17702100  0.83911300  0.32867400  1
  U  U2  1  0.32297900  0.83911300  0.82867400  1
  U  U3  1  0.82297900  0.16088700  0.67132600  1
  V  V0  1  0.92977700  0.21205300  0.14598400  1
  V  V1  1  0.42977700  0.78794700  0.35401600  1
  V  V2  1  0.07022300  0.78794700  0.85401600  1
  V  V3  1  0.57022300  0.21205300  0.64598400  1
  O  O0  1  0.51192500  0.03527600  0.23970900  1
  O  O1  1  0.01192500  0.96472400  0.26029100  1
  O  O2  1  0.48807500  0.96472400  0.76029100  1
  O  O3  1  0.98807500  0.03527600  0.73970900  1
  O  O4  1  0.65729600  0.17652900  0.48667600  1
  O  O5  1  0.15729600  0.82347100  0.01332400  1
  O  O6  1  0.34270400  0.82347100  0.51332400  1
  O  O7  1  0.84270400  0.17652900  0.98667600  1
  O  O8  1  0.50000000  0.50000000  0.50000000  1
  O  O9  1  0.00000000  0.50000000  0.00000000  1
  O  O10  1  0.84655200  0.20730800  0.32981800  1
  O  O11  1  0.34655200  0.79269200  0.17018200  1
  O  O12  1  0.15344800  0.79269200  0.67018200  1
  O  O13  1  0.65344800  0.20730800  0.82981800  1
  O  O14  1  0.79722900  0.83019100  0.80247700  1
  O  O15  1  0.64410000  0.48704400  0.04505700  1
  O  O16  1  0.20277100  0.16980900  0.19752300  1
  O  O17  1  0.70277100  0.83019100  0.30247700  1
  O  O18  1  0.85590000  0.48704400  0.54505700  1
  O  O19  1  0.35590000  0.51295600  0.95494300  1
  O  O20  1  0.14410000  0.51295600  0.45494300  1
  O  O21  1  0.29722900  0.16980900  0.69752300  1
loop_
_geom_bond_atom_site_label_1
_geom_bond_atom_site_label_2
_geom_bond_distance
_geom_bond_site_symmetry_2
O0 V1 1.707383 1_545
O0 U0 2.285366 1_555
O1 V0 1.707383 1_465
O1 U1 2.285366 1_555
O2 V3 1.707383 1_565
O2 U2 2.285366 1_555
O3 V2 1.707383 1_645
O3 U3 2.285366 1_555
O4 V3 1.734855 1_555
O4 U0 2.388817 1_555
O4 U3 2.554973 1_555
O5 V2 1.734855 1_554
O5 U1 2.388817 1_555
O5 U2 2.554973 1_554
O6 V1 1.734855 1_555
O6 U2 2.388817 1_555
O6 U1 2.554973 1_555
O7 V0 1.734855 1_556
O7 U3 2.388817 1_555
O7 U0 2.554973 1_556
O8 V1 1.800288 1_555
O8 V3 1.800288 1_555
O9 V2 1.800288 1_554
O9 V0 1.800288 1_455
O10 V0 1.734413 1_555
O10 U3 2.407238 1_555
O10 U0 2.608531 1_555
O11 V1 1.734413 1_555
O11 U2 2.407238 1_554
O11 U1 2.608531 1_555
O12 V2 1.734413 1_555
O12 U1 2.407238 1_555
O12 U2 2.608531 1_555
O13 V3 1.734413 1_555
O13 U0 2.407238 1_556
O13 U3 2.608531 1_555
O14 U3 1.791957 1_565
O15 U0 1.789755 1_555
O16 U1 1.791957 1_545
O17 U0 1.791957 1_565
O18 U3 1.789755 1_555
O19 U2 1.789755 1_555
O20 U1 1.789755 1_555
O21 U2 1.791957 1_545
