# generated using pymatgen
data_K3NaUC3O11
_symmetry_space_group_name_H-M   'P 1'
_cell_length_a   9.41848724
_cell_length_b   9.41848724
_cell_length_c   8.33884200
_cell_angle_alpha   90.00000000
_cell_angle_beta   90.00000000
_cell_angle_gamma   119.99999469
_symmetry_Int_Tables_number   1
_chemical_formula_structural   K3NaUC3O11
_chemical_formula_sum   'K6 Na2 U2 C6 O22'
_cell_volume   640.61736668
_cell_formula_units_Z   2
loop_
 _symmetry_equiv_pos_site_id
 _symmetry_equiv_pos_as_xyz
  1  'x, y, z'
loop_
 _atom_site_type_symbol
 _atom_site_label
 _atom_site_symmetry_multiplicity
 _atom_site_fract_x
 _atom_site_fract_y
 _atom_site_fract_z
 _atom_site_occupancy
  K  K0  1  0.70303600  0.70303600  0.00000000  1
  K  K1  1  0.70303600  0.70303600  0.50000000  1
  K  K2  1  0.00000000  0.29696400  0.00000000  1
  K  K3  1  0.29696400  0.00000000  0.50000000  1
  K  K4  1  0.00000000  0.29696400  0.50000000  1
  K  K5  1  0.29696400  0.00000000  0.00000000  1
  Na  Na0  1  0.66666700  0.33333300  0.75000000  1
  Na  Na1  1  0.33333300  0.66666700  0.25000000  1
  U  U0  1  0.66666700  0.33333300  0.25000000  1
  U  U1  1  0.33333300  0.66666700  0.75000000  1
  C  C0  1  0.37073300  0.35824200  0.25000000  1
  C  C1  1  0.62926700  0.98750900  0.75000000  1
  C  C2  1  0.64175800  0.01249100  0.25000000  1
  C  C3  1  0.35824200  0.37073300  0.75000000  1
  C  C4  1  0.01249100  0.64175800  0.75000000  1
  C  C5  1  0.98750900  0.62926700  0.25000000  1
  O  O0  1  0.52022600  0.48677800  0.25000000  1
  O  O1  1  0.75689200  0.12710800  0.75000000  1
  O  O2  1  0.33333300  0.66666700  0.52880300  1
  O  O3  1  0.15115700  0.78311400  0.75000000  1
  O  O4  1  0.66666700  0.33333300  0.02880300  1
  O  O5  1  0.03344900  0.51322200  0.75000000  1
  O  O6  1  0.84884300  0.63195700  0.25000000  1
  O  O7  1  0.12710800  0.75689200  0.25000000  1
  O  O8  1  0.21688600  0.36804300  0.75000000  1
  O  O9  1  0.51322200  0.03344900  0.25000000  1
  O  O10  1  0.48677800  0.52022600  0.75000000  1
  O  O11  1  0.78311400  0.15115700  0.25000000  1
  O  O12  1  0.47977400  0.96655100  0.75000000  1
  O  O13  1  0.36804300  0.21688600  0.25000000  1
  O  O14  1  0.33333300  0.66666700  0.97119700  1
  O  O15  1  0.66666700  0.33333300  0.47119700  1
  O  O16  1  0.96655100  0.47977400  0.25000000  1
  O  O17  1  0.63195700  0.84884300  0.75000000  1
  O  O18  1  0.37021600  0.24310800  0.75000000  1
  O  O19  1  0.24310800  0.37021600  0.25000000  1
  O  O20  1  0.87289200  0.62978400  0.75000000  1
  O  O21  1  0.62978400  0.87289200  0.25000000  1
loop_
_geom_bond_atom_site_label_1
_geom_bond_atom_site_label_2
_geom_bond_distance
_geom_bond_site_symmetry_2
K0 O17 2.756709 1_554
K0 O6 2.756709 1_555
K0 O10 2.819974 1_554
K0 O0 2.819974 1_555
K0 O20 2.912912 1_554
K0 O21 2.912912 1_555
K1 O17 2.756709 1_555
K1 O6 2.756709 1_555
K1 O10 2.819974 1_555
K1 O0 2.819974 1_555
K1 O20 2.912912 1_555
K1 O21 2.912912 1_555
K2 O8 2.756709 1_554
K2 O11 2.756709 1_455
K2 O5 2.819971 1_554
K2 O16 2.819977 1_455
K2 O19 2.912912 1_555
K2 O1 2.912912 1_454
K3 O13 2.756709 1_555
K3 O3 2.756709 1_545
K3 O9 2.819971 1_555
K3 O12 2.819977 1_545
K3 O18 2.912912 1_555
K3 O7 2.912912 1_545
K4 O8 2.756709 1_555
K4 O11 2.756709 1_455
K4 O5 2.819971 1_555
K4 O16 2.819977 1_455
K4 O19 2.912912 1_555
K4 O1 2.912912 1_455
K5 O13 2.756709 1_555
K5 O3 2.756709 1_544
K5 O9 2.819971 1_555
K5 O12 2.819977 1_544
K5 O18 2.912912 1_554
K5 O7 2.912912 1_545
Na0 O4 2.324894 1_556
Na0 O15 2.324894 1_555
Na0 O1 2.478976 1_555
Na0 O20 2.478984 1_555
Na0 O18 2.478986 1_555
Na1 O2 2.324894 1_555
Na1 O14 2.324894 1_554
Na1 O7 2.478976 1_555
Na1 O21 2.478984 1_555
Na1 O19 2.478986 1_555
C0 O19 1.262207 1_555
C0 O13 1.318874 1_555
C0 O0 1.320418 1_555
C1 O1 1.262207 1_565
C1 O17 1.318874 1_555
C1 O12 1.320414 1_555
C2 O21 1.262207 1_545
C2 O11 1.318874 1_555
C2 O9 1.320423 1_555
C3 O18 1.262207 1_555
C3 O8 1.318874 1_555
C3 O10 1.320418 1_555
C4 O20 1.262207 1_455
C4 O3 1.318874 1_555
C4 O5 1.320423 1_555
C5 O7 1.262207 1_655
C5 O6 1.318874 1_555
C5 O16 1.320414 1_555
O0 U0 2.446287 1_555
O2 U1 1.844527 1_555
O3 U1 2.455352 1_555
O4 U0 1.844527 1_555
O5 U1 2.446271 1_555
O6 U0 2.455360 1_555
O8 U1 2.455361 1_555
O9 U0 2.446271 1_555
O10 U1 2.446287 1_555
O11 U0 2.455352 1_555
O12 U1 2.446271 1_555
O13 U0 2.455361 1_555
O14 U1 1.844527 1_555
O15 U0 1.844527 1_555
O16 U0 2.446271 1_555
O17 U1 2.455360 1_555
