# generated using pymatgen
data_ErCoO3
_symmetry_space_group_name_H-M   'P 1'
_cell_length_a   5.08216856
_cell_length_b   5.42485142
_cell_length_c   7.30689250
_cell_angle_alpha   90.00000000
_cell_angle_beta   90.00000000
_cell_angle_gamma   90.00000000
_symmetry_Int_Tables_number   1
_chemical_formula_structural   ErCoO3
_chemical_formula_sum   'Er4 Co4 O12'
_cell_volume   201.45109439
_cell_formula_units_Z   4
loop_
 _symmetry_equiv_pos_site_id
 _symmetry_equiv_pos_as_xyz
  1  'x, y, z'
loop_
 _atom_site_type_symbol
 _atom_site_label
 _atom_site_symmetry_multiplicity
 _atom_site_fract_x
 _atom_site_fract_y
 _atom_site_fract_z
 _atom_site_occupancy
  Er  Er0  1  0.02110082  0.92558193  0.75000000  1
  Er  Er1  1  0.47889918  0.42558193  0.75000000  1
  Er  Er2  1  0.52110082  0.57441807  0.25000000  1
  Er  Er3  1  0.97889918  0.07441807  0.25000000  1
  Co  Co0  1  0.50000000  -0.00000000  0.50000000  1
  Co  Co1  1  0.50000000  -0.00000000  0.00000000  1
  Co  Co2  1  0.00000000  0.50000000  0.50000000  1
  Co  Co3  1  0.00000000  0.50000000  0.00000000  1
  O  O0  1  0.89497259  0.53150614  0.75000000  1
  O  O1  1  0.80952149  0.80201596  0.05237787  1
  O  O2  1  0.19047851  0.19798404  0.55237787  1
  O  O3  1  0.10502741  0.46849386  0.25000000  1
  O  O4  1  0.39497259  0.96849386  0.25000000  1
  O  O5  1  0.69047851  0.30201596  0.44762213  1
  O  O6  1  0.30952149  0.69798404  0.94762213  1
  O  O7  1  0.60502741  0.03150614  0.75000000  1
  O  O8  1  0.19047851  0.19798404  0.94762213  1
  O  O9  1  0.80952149  0.80201596  0.44762213  1
  O  O10  1  0.30952149  0.69798404  0.55237787  1
  O  O11  1  0.69047851  0.30201596  0.05237787  1
loop_
_geom_bond_atom_site_label_1
_geom_bond_atom_site_label_2
_geom_bond_distance
_geom_bond_site_symmetry_2
Er0 O7 2.191241 1_465
Er0 O0 2.231835 1_455
Er0 O8 2.238270 1_565
Er0 O2 2.238270 1_565
Er0 O10 2.399619 1_555
Er0 O6 2.399619 1_555
Er0 O9 2.546999 1_455
Er0 O1 2.546999 1_456
Er1 O0 2.191241 1_555
Er1 O7 2.231835 1_555
Er1 O10 2.238270 1_555
Er1 O6 2.238270 1_555
Er1 O2 2.399619 1_555
Er1 O8 2.399619 1_555
Er1 O11 2.546999 1_556
Er1 O5 2.546999 1_555
Er2 O3 2.191241 1_555
Er2 O4 2.231835 1_555
Er2 O11 2.238270 1_555
Er2 O5 2.238270 1_555
Er2 O9 2.399619 1_555
Er2 O1 2.399619 1_555
Er2 O10 2.546999 1_555
Er2 O6 2.546999 1_554
Er3 O4 2.191241 1_645
Er3 O3 2.231835 1_655
Er3 O9 2.238270 1_545
Er3 O1 2.238270 1_545
Er3 O5 2.399619 1_555
Er3 O11 2.399619 1_555
Er3 O8 2.546999 1_654
Er3 O2 2.546999 1_655
Co0 O7 1.910769 1_555
Co0 O4 1.910769 1_545
Co0 O10 1.941111 1_545
Co0 O5 1.941111 1_555
Co0 O9 1.942802 1_545
Co0 O2 1.942802 1_555
Co1 O4 1.910769 1_545
Co1 O7 1.910769 1_554
Co1 O6 1.941111 1_544
Co1 O11 1.941111 1_555
Co1 O1 1.942802 1_545
Co1 O8 1.942802 1_554
Co2 O0 1.910769 1_455
Co2 O3 1.910769 1_555
Co2 O9 1.941111 1_455
Co2 O2 1.941111 1_555
Co2 O5 1.942802 1_455
Co2 O10 1.942802 1_555
Co3 O0 1.910769 1_454
Co3 O3 1.910769 1_555
Co3 O1 1.941111 1_455
Co3 O8 1.941111 1_554
Co3 O11 1.942802 1_455
Co3 O6 1.942802 1_554
