# generated using pymatgen
data_KLuP2O7
_symmetry_space_group_name_H-M   'P 1'
_cell_length_a   10.83685400
_cell_length_b   7.63587300
_cell_length_c   8.61781842
_cell_angle_alpha   73.16177497
_cell_angle_beta   90.00000000
_cell_angle_gamma   90.00000000
_symmetry_Int_Tables_number   1
_chemical_formula_structural   KLuP2O7
_chemical_formula_sum   'K4 Lu4 P8 O28'
_cell_volume   682.54073955
_cell_formula_units_Z   4
loop_
 _symmetry_equiv_pos_site_id
 _symmetry_equiv_pos_as_xyz
  1  'x, y, z'
loop_
 _atom_site_type_symbol
 _atom_site_label
 _atom_site_symmetry_multiplicity
 _atom_site_fract_x
 _atom_site_fract_y
 _atom_site_fract_z
 _atom_site_occupancy
  K  K0  1  0.17816300  0.81992000  0.56649100  1
  K  K1  1  0.82183700  0.18008000  0.43350900  1
  K  K2  1  0.32183700  0.81992000  0.06649100  1
  K  K3  1  0.67816300  0.18008000  0.93350900  1
  Lu  Lu0  1  0.40346300  0.23290300  0.24790400  1
  Lu  Lu1  1  0.59653700  0.76709700  0.75209600  1
  Lu  Lu2  1  0.90346300  0.76709700  0.25209600  1
  Lu  Lu3  1  0.09653700  0.23290300  0.74790400  1
  P  P0  1  0.39858100  0.13102300  0.68545700  1
  P  P1  1  0.89858100  0.86897700  0.81454300  1
  P  P2  1  0.10141900  0.13102300  0.18545700  1
  P  P3  1  0.60141900  0.86897700  0.31454300  1
  P  P4  1  0.35798900  0.44492400  0.80984100  1
  P  P5  1  0.64201100  0.55507600  0.19015900  1
  P  P6  1  0.14201100  0.44492400  0.30984100  1
  P  P7  1  0.85798900  0.55507600  0.69015900  1
  O  O0  1  0.09575200  0.13935800  0.00791000  1
  O  O1  1  0.88733600  0.66341200  0.51563400  1
  O  O2  1  0.50065500  0.00999100  0.78586800  1
  O  O3  1  0.92658400  0.66276000  0.80514100  1
  O  O4  1  0.41607300  0.63573200  0.76012600  1
  O  O5  1  0.99934500  0.00999100  0.28586800  1
  O  O6  1  0.49934500  0.99000900  0.21413200  1
  O  O7  1  0.27944200  0.45587200  0.26614200  1
  O  O8  1  0.90424800  0.86064200  0.99209000  1
  O  O9  1  0.00065500  0.99000900  0.71413200  1
  O  O10  1  0.38733600  0.33658800  0.98436600  1
  O  O11  1  0.08392700  0.63573200  0.26012600  1
  O  O12  1  0.77944200  0.54412800  0.23385800  1
  O  O13  1  0.40424800  0.13935800  0.50791000  1
  O  O14  1  0.22945700  0.07299200  0.25975400  1
  O  O15  1  0.27054300  0.07299200  0.75975400  1
  O  O16  1  0.58392700  0.36426800  0.23987400  1
  O  O17  1  0.61266400  0.66341200  0.01563400  1
  O  O18  1  0.11266400  0.33658800  0.48436600  1
  O  O19  1  0.42658400  0.33724000  0.69485900  1
  O  O20  1  0.91607300  0.36426800  0.73987400  1
  O  O21  1  0.59575200  0.86064200  0.49209000  1
  O  O22  1  0.57341600  0.66276000  0.30514100  1
  O  O23  1  0.72055800  0.54412800  0.73385800  1
  O  O24  1  0.07341600  0.33724000  0.19485900  1
  O  O25  1  0.72945700  0.92700800  0.24024600  1
  O  O26  1  0.77054300  0.92700800  0.74024600  1
  O  O27  1  0.22055800  0.45587200  0.76614200  1
loop_
_geom_bond_atom_site_label_1
_geom_bond_atom_site_label_2
_geom_bond_distance
_geom_bond_site_symmetry_2
K0 O9 2.821947 1_555
K0 O14 2.841032 1_565
K0 O27 2.850950 1_555
K0 O15 3.061860 1_565
K0 O5 3.110728 1_465
K0 O4 3.170186 1_555
K1 O5 2.821947 1_555
K1 O26 2.841032 1_545
K1 O12 2.850950 1_555
K1 O25 3.061860 1_545
K1 O9 3.110728 1_645
K1 O16 3.170186 1_555
K2 O6 2.821947 1_555
K2 O15 2.841032 1_564
K2 O7 2.850950 1_555
K2 O14 3.061860 1_565
K2 O2 3.110728 1_564
K2 O11 3.170186 1_555
K3 O2 2.821947 1_555
K3 O25 2.841032 1_546
K3 O23 2.850950 1_555
K3 O26 3.061860 1_545
K3 O6 3.110728 1_546
K3 O20 3.170186 1_555
Lu0 O13 2.145627 1_555
Lu0 O10 2.184869 1_554
Lu0 O16 2.189833 1_555
Lu0 O7 2.210154 1_555
Lu0 O6 2.217434 1_545
Lu0 O14 2.232701 1_555
Lu1 O21 2.145627 1_555
Lu1 O17 2.184869 1_556
Lu1 O4 2.189833 1_555
Lu1 O23 2.210154 1_555
Lu1 O2 2.217434 1_565
Lu1 O26 2.232701 1_555
Lu2 O8 2.145627 1_554
Lu2 O1 2.184869 1_555
Lu2 O11 2.189833 1_655
Lu2 O12 2.210154 1_555
Lu2 O5 2.217434 1_565
Lu2 O25 2.232701 1_555
Lu3 O0 2.145627 1_556
Lu3 O18 2.184869 1_555
Lu3 O20 2.189833 1_455
Lu3 O27 2.210154 1_555
Lu3 O9 2.217434 1_545
Lu3 O15 2.232701 1_555
O0 P2 1.514105 1_555
O1 P7 1.525369 1_555
O2 P0 1.537266 1_555
O3 P1 1.628522 1_555
O3 P7 1.637862 1_555
O4 P4 1.530010 1_555
O5 P2 1.537266 1_655
O6 P3 1.537266 1_555
O7 P6 1.532528 1_555
O8 P1 1.514105 1_555
O9 P1 1.537266 1_455
O10 P4 1.525369 1_555
O11 P6 1.530010 1_555
O12 P5 1.532528 1_555
O13 P0 1.514105 1_555
O14 P2 1.538563 1_555
O15 P0 1.538563 1_555
O16 P5 1.530010 1_555
O17 P5 1.525369 1_555
O18 P6 1.525369 1_555
O19 P0 1.628522 1_555
O19 P4 1.637862 1_555
O20 P7 1.530010 1_555
O21 P3 1.514105 1_555
O22 P3 1.628522 1_555
O22 P5 1.637862 1_555
O23 P7 1.532528 1_555
O24 P2 1.628522 1_555
O24 P6 1.637862 1_555
O25 P3 1.538563 1_555
O26 P1 1.538563 1_555
O27 P4 1.532528 1_555
