# generated using pymatgen
data_BaRh2
_symmetry_space_group_name_H-M   'P 1'
_cell_length_a   5.59688861
_cell_length_b   5.59590034
_cell_length_c   5.59583705
_cell_angle_alpha   59.99914778
_cell_angle_beta   60.01495016
_cell_angle_gamma   60.01480568
_symmetry_Int_Tables_number   1
_chemical_formula_structural   BaRh2
_chemical_formula_sum   'Ba2 Rh4'
_cell_volume   123.95427966
_cell_formula_units_Z   2
loop_
 _symmetry_equiv_pos_site_id
 _symmetry_equiv_pos_as_xyz
  1  'x, y, z'
loop_
 _atom_site_type_symbol
 _atom_site_label
 _atom_site_symmetry_multiplicity
 _atom_site_fract_x
 _atom_site_fract_y
 _atom_site_fract_z
 _atom_site_occupancy
  Ba  Ba0  1  0.37497416  0.37500499  0.37500928  1
  Ba  Ba1  1  0.62502584  0.62499501  0.62499072  1
  Rh  Rh0  1  -0.00000000  0.50000000  -0.00000000  1
  Rh  Rh1  1  0.50000000  -0.00000000  -0.00000000  1
  Rh  Rh2  1  -0.00000000  -0.00000000  0.00000000  1
  Rh  Rh3  1  -0.00000000  -0.00000000  0.50000000  1
loop_
_geom_bond_atom_site_label_1
_geom_bond_atom_site_label_2
_geom_bond_distance
_geom_bond_site_symmetry_2
Ba0 Rh1 3.280827 1_556
Ba0 Rh1 3.280883 1_565
Ba0 Rh0 3.280907 1_555
Ba0 Rh3 3.280924 1_555
Ba0 Rh1 3.281040 1_555
Ba0 Rh2 3.281133 1_556
Ba0 Rh2 3.281152 1_565
Ba0 Rh0 3.281413 1_556
Ba0 Rh3 3.281449 1_565
Ba0 Rh3 3.281838 1_655
Ba0 Rh0 3.281858 1_655
Ba0 Rh2 3.282260 1_655
Ba1 Rh1 3.280827 1_565
Ba1 Rh1 3.280883 1_556
Ba1 Rh0 3.280907 1_656
Ba1 Rh3 3.280924 1_665
Ba1 Rh1 3.281040 1_566
Ba1 Rh2 3.281133 1_665
Ba1 Rh2 3.281152 1_656
Ba1 Rh0 3.281413 1_655
Ba1 Rh3 3.281449 1_655
Ba1 Rh3 3.281838 1_565
Ba1 Rh0 3.281858 1_556
Ba1 Rh2 3.282260 1_566
Rh0 Rh3 2.797898 1_564
Rh0 Rh3 2.797898 1_555
Rh0 Rh2 2.797950 1_565
Rh0 Rh2 2.797950 1_555
Rh0 Rh1 2.798823 1_465
Rh0 Rh1 2.798823 1_555
Rh1 Rh2 2.798444 1_555
Rh1 Rh2 2.798444 1_655
Rh1 Rh3 2.798814 1_555
Rh1 Rh3 2.798814 1_654
Rh2 Rh3 2.797919 1_555
Rh2 Rh3 2.797919 1_554
