# generated using pymatgen
data_BaWO4
_symmetry_space_group_name_H-M   'P 1'
_cell_length_a   7.55299224
_cell_length_b   7.55299224
_cell_length_c   5.70820560
_cell_angle_alpha   67.77895547
_cell_angle_beta   67.77895547
_cell_angle_gamma   114.88299405
_symmetry_Int_Tables_number   1
_chemical_formula_structural   BaWO4
_chemical_formula_sum   'Ba2 W2 O8'
_cell_volume   210.17210152
_cell_formula_units_Z   2
loop_
 _symmetry_equiv_pos_site_id
 _symmetry_equiv_pos_as_xyz
  1  'x, y, z'
loop_
 _atom_site_type_symbol
 _atom_site_label
 _atom_site_symmetry_multiplicity
 _atom_site_fract_x
 _atom_site_fract_y
 _atom_site_fract_z
 _atom_site_occupancy
  Ba  Ba0  1  0.87370200  0.12629800  0.75000000  1
  Ba  Ba1  1  0.12629800  0.87370200  0.25000000  1
  W  W0  1  0.37895700  0.62104300  0.75000000  1
  W  W1  1  0.62104300  0.37895700  0.25000000  1
  O  O0  1  0.56758400  0.16453400  0.60982900  1
  O  O1  1  0.83546600  0.43241600  0.89017100  1
  O  O2  1  0.43241600  0.83546600  0.39017100  1
  O  O3  1  0.16453400  0.56758400  0.10982900  1
  O  O4  1  0.23104600  0.31722300  0.83540500  1
  O  O5  1  0.68277700  0.76895400  0.66459500  1
  O  O6  1  0.76895400  0.68277700  0.16459500  1
  O  O7  1  0.31722300  0.23104600  0.33540500  1
loop_
_geom_bond_atom_site_label_1
_geom_bond_atom_site_label_2
_geom_bond_distance
_geom_bond_site_symmetry_2
Ba0 O7 2.793877 1_655
Ba0 O6 2.793877 1_546
Ba0 O3 2.800513 1_655
Ba0 O2 2.800513 1_546
Ba0 O5 2.802405 1_545
Ba0 O4 2.802405 1_655
Ba0 O1 2.802826 1_555
Ba0 O0 2.802826 1_555
Ba1 O4 2.793877 1_564
Ba1 O5 2.793877 1_455
Ba1 O0 2.800513 1_564
Ba1 O1 2.800513 1_455
Ba1 O6 2.802405 1_455
Ba1 O7 2.802405 1_565
Ba1 O2 2.802826 1_555
Ba1 O3 2.802826 1_555
O0 W1 1.819653 1_555
O1 W1 1.819653 1_556
O2 W0 1.819653 1_555
O3 W0 1.819653 1_554
O4 W0 1.826512 1_555
O5 W0 1.826512 1_555
O6 W1 1.826512 1_555
O7 W1 1.826512 1_555
