# generated using pymatgen
data_Na3In2Ag
_symmetry_space_group_name_H-M   'P 1'
_cell_length_a   9.64747465
_cell_length_b   9.64743946
_cell_length_c   9.64745236
_cell_angle_alpha   60.02176845
_cell_angle_beta   60.02188275
_cell_angle_gamma   60.02183718
_symmetry_Int_Tables_number   1
_chemical_formula_structural   Na3In2Ag
_chemical_formula_sum   'Na12 In8 Ag4'
_cell_volume   635.24055263
_cell_formula_units_Z   4
loop_
 _symmetry_equiv_pos_site_id
 _symmetry_equiv_pos_as_xyz
  1  'x, y, z'
loop_
 _atom_site_type_symbol
 _atom_site_label
 _atom_site_symmetry_multiplicity
 _atom_site_fract_x
 _atom_site_fract_y
 _atom_site_fract_z
 _atom_site_occupancy
  Na  Na0  1  0.04475261  0.45515348  0.04475454  1
  Na  Na1  1  0.79484623  0.20524831  0.20524926  1
  Na  Na2  1  0.20528190  0.79471038  0.79471426  1
  Na  Na3  1  0.79471138  0.20528495  0.79471019  1
  Na  Na4  1  0.20524640  0.20524938  0.79484657  1
  Na  Na5  1  0.79471412  0.79470871  0.20528481  1
  Na  Na6  1  0.04475140  0.04475389  0.45515242  1
  Na  Na7  1  0.45515098  0.04475361  0.04475301  1
  Na  Na8  1  0.04471470  0.45528784  0.45528381  1
  Na  Na9  1  0.45528211  0.45528814  0.04471626  1
  Na  Na10  1  0.20524521  0.79484535  0.20524923  1
  Na  Na11  1  0.45528490  0.04471595  0.45528673  1
  In  In0  1  0.83228224  0.83227876  0.83228069  1
  In  In1  1  0.74696910  0.41770492  0.41770397  1
  In  In2  1  0.41770298  0.74696674  0.41770549  1
  In  In3  1  0.41770265  0.41770554  0.74696941  1
  In  In4  1  0.83229414  0.50304001  0.83229176  1
  In  In5  1  0.83229557  0.83229191  0.50303694  1
  In  In6  1  0.50304330  0.83229074  0.83229213  1
  In  In7  1  0.41771684  0.41772145  0.41771921  1
  Ag  Ag0  1  0.62500103  0.62499387  0.62499423  1
  Ag  Ag1  1  0.12500208  0.62500167  0.62500055  1
  Ag  Ag2  1  0.62500428  0.12500672  0.62499756  1
  Ag  Ag3  1  0.62500384  0.62499767  0.12500696  1
loop_
_geom_bond_atom_site_label_1
_geom_bond_atom_site_label_2
_geom_bond_distance
_geom_bond_site_symmetry_2
In0 Na2 3.276665 1_655
In0 Na5 3.276686 1_556
In0 Na3 3.276688 1_565
In0 Na0 3.306631 1_656
In0 Na6 3.306649 1_665
In0 Na7 3.306679 1_566
In1 Na8 3.275216 1_655
In1 Na6 3.276885 1_655
In1 Na0 3.276885 1_655
In1 Na1 3.304790 1_555
In1 Na5 3.304951 1_555
In1 Na3 3.304965 1_555
In2 Na11 3.275244 1_565
In2 Na7 3.276907 1_565
In2 Na6 3.276911 1_565
In2 Na10 3.304810 1_555
In2 Na2 3.304995 1_555
In2 Na5 3.305015 1_555
In3 Na9 3.275218 1_556
In3 Na7 3.276889 1_556
In3 Na0 3.276898 1_556
In3 Na4 3.304802 1_555
In3 Na2 3.304962 1_555
In3 Na3 3.304989 1_555
In4 Na3 3.275306 1_555
In4 Na4 3.276928 1_655
In4 Na1 3.276954 1_556
In4 Na0 3.304834 1_656
In4 Na8 3.305020 1_655
In4 Na9 3.305059 1_556
In5 Na5 3.275283 1_555
In5 Na10 3.276905 1_655
In5 Na1 3.276930 1_565
In5 Na6 3.304813 1_665
In5 Na8 3.304986 1_655
In5 Na11 3.305040 1_565
In6 Na2 3.275340 1_555
In6 Na4 3.276983 1_565
In6 Na10 3.276984 1_556
In6 Na7 3.304823 1_566
In6 Na9 3.305001 1_556
In6 Na11 3.305017 1_565
In7 Na9 3.276697 1_555
In7 Na8 3.276702 1_555
In7 Na11 3.276703 1_555
In7 Na10 3.306615 1_555
In7 Na4 3.306638 1_555
In7 Na1 3.306656 1_555
Ag0 In1 2.945598 1_555
Ag0 In3 2.945640 1_555
Ag0 In2 2.945648 1_555
Ag0 In4 2.945730 1_555
Ag0 In5 2.945735 1_555
Ag0 In6 2.945748 1_555
Ag0 Na3 3.344448 1_555
Ag0 Na5 3.344459 1_555
Ag0 Na8 3.344483 1_655
Ag0 Na11 3.344536 1_565
Ag0 Na9 3.344542 1_556
Ag0 Na2 3.344546 1_555
Ag1 In0 2.946519 1_455
Ag1 In7 2.946528 1_555
Ag1 In2 2.946742 1_555
Ag1 In3 2.946758 1_555
Ag1 In5 2.946777 1_455
Ag1 In4 2.946780 1_455
Ag1 Na2 3.342843 1_555
Ag1 Na8 3.342962 1_555
Ag1 Na6 3.344637 1_565
Ag1 Na10 3.344644 1_555
Ag1 Na4 3.344645 1_555
Ag1 Na0 3.344658 1_556
Ag2 In7 2.946545 1_555
Ag2 In0 2.946556 1_545
Ag2 In1 2.946711 1_555
Ag2 In3 2.946754 1_555
Ag2 In5 2.946822 1_545
Ag2 In6 2.946832 1_545
Ag2 Na3 3.342812 1_555
Ag2 Na11 3.342985 1_555
Ag2 Na6 3.344609 1_655
Ag2 Na1 3.344623 1_555
Ag2 Na7 3.344668 1_556
Ag2 Na4 3.344710 1_555
Ag3 In7 2.946527 1_555
Ag3 In0 2.946545 1_554
Ag3 In1 2.946706 1_555
Ag3 In2 2.946741 1_555
Ag3 In4 2.946813 1_554
Ag3 In6 2.946822 1_554
Ag3 Na5 3.342822 1_555
Ag3 Na9 3.342993 1_555
Ag3 Na0 3.344622 1_655
Ag3 Na1 3.344625 1_555
Ag3 Na7 3.344664 1_565
Ag3 Na10 3.344716 1_555
