# generated using pymatgen
data_Ba3Lu(BO2)9
_symmetry_space_group_name_H-M   'P 1'
_cell_length_a   7.25957133
_cell_length_b   7.25957133
_cell_length_c   17.26634700
_cell_angle_alpha   90.00000000
_cell_angle_beta   90.00000000
_cell_angle_gamma   119.99999390
_symmetry_Int_Tables_number   1
_chemical_formula_structural   Ba3Lu(BO2)9
_chemical_formula_sum   'Ba6 Lu2 B18 O36'
_cell_volume   788.04873600
_cell_formula_units_Z   2
loop_
 _symmetry_equiv_pos_site_id
 _symmetry_equiv_pos_as_xyz
  1  'x, y, z'
loop_
 _atom_site_type_symbol
 _atom_site_label
 _atom_site_symmetry_multiplicity
 _atom_site_fract_x
 _atom_site_fract_y
 _atom_site_fract_z
 _atom_site_occupancy
  Ba  Ba0  1  0.33333300  0.66666700  0.86905600  1
  Ba  Ba1  1  0.00000000  0.00000000  0.75000000  1
  Ba  Ba2  1  0.33333300  0.66666700  0.63094400  1
  Ba  Ba3  1  0.66666700  0.33333300  0.13094400  1
  Ba  Ba4  1  0.66666700  0.33333300  0.36905600  1
  Ba  Ba5  1  0.00000000  0.00000000  0.25000000  1
  Lu  Lu0  1  0.00000000  0.00000000  0.00000000  1
  Lu  Lu1  1  0.00000000  0.00000000  0.50000000  1
  B  B0  1  0.44805100  0.28110000  0.58012800  1
  B  B1  1  0.37782100  0.49481100  0.25000000  1
  B  B2  1  0.88301000  0.37782100  0.75000000  1
  B  B3  1  0.28110000  0.83304900  0.41987200  1
  B  B4  1  0.83304900  0.55194900  0.91987200  1
  B  B5  1  0.71890000  0.16695100  0.91987200  1
  B  B6  1  0.71890000  0.16695100  0.58012800  1
  B  B7  1  0.62217800  0.50518900  0.75000000  1
  B  B8  1  0.16695100  0.44805100  0.08012800  1
  B  B9  1  0.50518900  0.88301000  0.25000000  1
  B  B10  1  0.55194900  0.71890000  0.41987200  1
  B  B11  1  0.49481100  0.11699000  0.75000000  1
  B  B12  1  0.11699000  0.62217800  0.25000000  1
  B  B13  1  0.44805100  0.28110000  0.91987200  1
  B  B14  1  0.16695100  0.44805100  0.41987200  1
  B  B15  1  0.28110000  0.83304900  0.08012800  1
  B  B16  1  0.55194900  0.71890000  0.08012800  1
  B  B17  1  0.83304900  0.55194900  0.58012800  1
  O  O0  1  0.49446600  0.87799800  0.08062900  1
  O  O1  1  0.87799800  0.38353200  0.58062900  1
  O  O2  1  0.49446600  0.87799800  0.41937100  1
  O  O3  1  0.24710800  0.23897700  0.92145400  1
  O  O4  1  0.58714300  0.66819000  0.75000000  1
  O  O5  1  0.61646800  0.49446600  0.91937100  1
  O  O6  1  0.50553400  0.12200200  0.58062900  1
  O  O7  1  0.99186900  0.75289200  0.57854600  1
  O  O8  1  0.12200200  0.61646800  0.41937100  1
  O  O9  1  0.33181000  0.91895300  0.75000000  1
  O  O10  1  0.75289200  0.76102300  0.07854600  1
  O  O11  1  0.00813100  0.24710800  0.07854600  1
  O  O12  1  0.54223200  0.70896600  0.25000000  1
  O  O13  1  0.29103400  0.83326500  0.25000000  1
  O  O14  1  0.08104700  0.41285700  0.75000000  1
  O  O15  1  0.87799800  0.38353200  0.91937100  1
  O  O16  1  0.76102300  0.00813100  0.57854600  1
  O  O17  1  0.91895300  0.58714300  0.25000000  1
  O  O18  1  0.38353200  0.50553400  0.08062900  1
  O  O19  1  0.12200200  0.61646800  0.08062900  1
  O  O20  1  0.16673500  0.45776800  0.25000000  1
  O  O21  1  0.23897700  0.99186900  0.07854600  1
  O  O22  1  0.76102300  0.00813100  0.92145400  1
  O  O23  1  0.99186900  0.75289200  0.92145400  1
  O  O24  1  0.00813100  0.24710800  0.42145400  1
  O  O25  1  0.45776800  0.29103400  0.75000000  1
  O  O26  1  0.66819000  0.08104700  0.25000000  1
  O  O27  1  0.83326500  0.54223200  0.75000000  1
  O  O28  1  0.50553400  0.12200200  0.91937100  1
  O  O29  1  0.61646800  0.49446600  0.58062900  1
  O  O30  1  0.75289200  0.76102300  0.42145400  1
  O  O31  1  0.24710800  0.23897700  0.57854600  1
  O  O32  1  0.23897700  0.99186900  0.42145400  1
  O  O33  1  0.70896600  0.16673500  0.75000000  1
  O  O34  1  0.38353200  0.50553400  0.41937100  1
  O  O35  1  0.41285700  0.33181000  0.25000000  1
loop_
_geom_bond_atom_site_label_1
_geom_bond_atom_site_label_2
_geom_bond_distance
_geom_bond_site_symmetry_2
Ba0 O9 2.756895 1_555
Ba0 O14 2.756897 1_555
Ba0 O4 2.756899 1_555
Ba0 O23 2.984438 1_455
Ba0 O22 2.984443 1_565
Ba0 O3 2.984445 1_555
Ba0 O28 3.018577 1_565
Ba0 O15 3.018578 1_455
Ba0 O5 3.018583 1_555
Ba1 O9 2.750589 1_545
Ba1 O14 2.750589 1_555
Ba1 O4 2.750589 1_445
Ba1 O27 2.913126 1_445
Ba1 O25 2.913127 1_555
Ba1 O33 2.913132 1_455
Ba2 O9 2.756895 1_555
Ba2 O14 2.756897 1_555
Ba2 O4 2.756899 1_555
Ba2 O7 2.984438 1_455
Ba2 O16 2.984443 1_565
Ba2 O31 2.984445 1_555
Ba2 O6 3.018577 1_565
Ba2 O1 3.018578 1_455
Ba2 O29 3.018583 1_555
Ba3 O26 2.756895 1_555
Ba3 O17 2.756897 1_555
Ba3 O35 2.756899 1_555
Ba3 O11 2.984438 1_655
Ba3 O21 2.984443 1_545
Ba3 O10 2.984445 1_555
Ba3 O0 3.018577 1_545
Ba3 O19 3.018578 1_655
Ba3 O18 3.018583 1_555
Ba4 O26 2.756895 1_555
Ba4 O17 2.756897 1_555
Ba4 O35 2.756899 1_555
Ba4 O24 2.984438 1_655
Ba4 O32 2.984443 1_545
Ba4 O30 2.984445 1_555
Ba4 O2 3.018577 1_545
Ba4 O8 3.018578 1_655
Ba4 O34 3.018583 1_555
Ba5 O26 2.750589 1_455
Ba5 O17 2.750589 1_445
Ba5 O35 2.750589 1_555
Ba5 O20 2.913126 1_555
Ba5 O12 2.913127 1_445
Ba5 O13 2.913132 1_545
Lu0 O21 2.225972 1_545
Lu0 O22 2.225972 1_454
Lu0 O23 2.225972 1_444
Lu0 O11 2.225972 1_555
Lu0 O3 2.225972 1_554
Lu0 O10 2.225972 1_445
Lu1 O16 2.225972 1_455
Lu1 O32 2.225972 1_545
Lu1 O24 2.225972 1_555
Lu1 O7 2.225972 1_445
Lu1 O30 2.225972 1_445
Lu1 O31 2.225972 1_555
B0 O31 1.332725 1_555
B0 O6 1.410737 1_555
B0 O29 1.414337 1_555
B1 O35 1.328873 1_555
B1 O12 1.409253 1_555
B1 O20 1.417202 1_555
B2 O14 1.328873 1_655
B2 O27 1.409258 1_555
B2 O33 1.417205 1_555
B3 O32 1.332725 1_555
B3 O8 1.410737 1_555
B3 O2 1.414337 1_555
B4 O23 1.332725 1_555
B4 O5 1.410737 1_555
B4 O15 1.414337 1_555
B5 O22 1.332725 1_555
B5 O15 1.410737 1_555
B5 O28 1.414337 1_555
B6 O16 1.332725 1_555
B6 O1 1.410737 1_555
B6 O6 1.414337 1_555
B7 O4 1.328869 1_555
B7 O25 1.409251 1_555
B7 O27 1.417209 1_555
B8 O11 1.332725 1_555
B8 O18 1.410737 1_555
B8 O19 1.414337 1_555
B9 O26 1.328874 1_565
B9 O13 1.409251 1_555
B9 O12 1.417209 1_555
B10 O30 1.332725 1_555
B10 O2 1.410737 1_555
B10 O34 1.414337 1_555
B11 O9 1.328874 1_545
B11 O33 1.409251 1_555
B11 O25 1.417209 1_555
B12 O17 1.328876 1_455
B12 O20 1.409251 1_555
B12 O13 1.417209 1_555
B13 O3 1.332725 1_555
B13 O28 1.410737 1_555
B13 O5 1.414337 1_555
B14 O24 1.332725 1_555
B14 O34 1.410737 1_555
B14 O8 1.414337 1_555
B15 O21 1.332725 1_555
B15 O19 1.410737 1_555
B15 O0 1.414337 1_555
B16 O10 1.332725 1_555
B16 O0 1.410737 1_555
B16 O18 1.414337 1_555
B17 O7 1.332725 1_555
B17 O29 1.410737 1_555
B17 O1 1.414337 1_555
