# generated using pymatgen
data_Rb2UBr6
_symmetry_space_group_name_H-M   'P 1'
_cell_length_a   7.65009367
_cell_length_b   7.66035658
_cell_length_c   11.50392673
_cell_angle_alpha   90.00000000
_cell_angle_beta   90.00000000
_cell_angle_gamma   90.00000000
_symmetry_Int_Tables_number   1
_chemical_formula_structural   Rb2UBr6
_chemical_formula_sum   'Rb4 U2 Br12'
_cell_volume   674.15823788
_cell_formula_units_Z   2
loop_
 _symmetry_equiv_pos_site_id
 _symmetry_equiv_pos_as_xyz
  1  'x, y, z'
loop_
 _atom_site_type_symbol
 _atom_site_label
 _atom_site_symmetry_multiplicity
 _atom_site_fract_x
 _atom_site_fract_y
 _atom_site_fract_z
 _atom_site_occupancy
  Rb  Rb0  1  0.50000000  0.00000000  0.74863263  1
  Rb  Rb1  1  0.50000000  0.00000000  0.25136737  1
  Rb  Rb2  1  0.00000000  0.50000000  0.24863263  1
  Rb  Rb3  1  0.00000000  0.50000000  0.75136737  1
  U  U0  1  0.00000000  0.00000000  0.00000000  1
  U  U1  1  0.50000000  0.50000000  0.50000000  1
  Br  Br0  1  0.80323838  0.30374846  0.00000000  1
  Br  Br1  1  0.19676162  0.69625154  0.00000000  1
  Br  Br2  1  0.50000000  0.50000000  0.25838112  1
  Br  Br3  1  0.30323838  0.19625154  0.50000000  1
  Br  Br4  1  0.30442417  0.19594952  0.00000000  1
  Br  Br5  1  0.80442417  0.30405048  0.50000000  1
  Br  Br6  1  0.00000000  0.00000000  0.24161888  1
  Br  Br7  1  0.69676162  0.80374846  0.50000000  1
  Br  Br8  1  0.19557583  0.69594952  0.50000000  1
  Br  Br9  1  0.50000000  0.50000000  0.74161888  1
  Br  Br10  1  0.69557583  0.80405048  0.00000000  1
  Br  Br11  1  0.00000000  0.00000000  0.75838112  1
loop_
_geom_bond_atom_site_label_1
_geom_bond_atom_site_label_2
_geom_bond_distance
_geom_bond_site_symmetry_2
Br0 U0 2.771256 1_655
Br0 Rb3 3.564671 1_654
Br0 Rb2 3.564671 1_655
Br1 U0 2.771256 1_565
Br1 Rb2 3.564671 1_555
Br1 Rb3 3.564671 1_554
Br2 U1 2.779566 1_555
Br2 Rb2 3.826690 1_655
Br2 Rb2 3.826690 1_555
Br2 Rb1 3.831028 1_565
Br2 Rb1 3.831028 1_555
Br3 U1 2.771256 1_555
Br3 Rb0 3.564671 1_555
Br3 Rb1 3.564671 1_555
Br4 U0 2.770701 1_555
Br4 Rb0 3.585201 1_554
Br4 Rb1 3.585201 1_555
Br5 U1 2.770701 1_555
Br5 Rb3 3.585201 1_655
Br5 Rb2 3.585201 1_655
Br6 U0 2.779566 1_555
Br6 Rb1 3.826690 1_455
Br6 Rb1 3.826690 1_555
Br6 Rb2 3.831028 1_545
Br6 Rb2 3.831028 1_555
Br7 U1 2.771256 1_555
Br7 Rb0 3.564671 1_565
Br7 Rb1 3.564671 1_565
Br8 U1 2.770701 1_555
Br8 Rb3 3.585201 1_555
Br8 Rb2 3.585201 1_555
Br9 U1 2.779566 1_555
Br9 Rb3 3.826690 1_555
Br9 Rb3 3.826690 1_655
Br9 Rb0 3.831028 1_555
Br9 Rb0 3.831028 1_565
Br10 U0 2.770701 1_665
Br10 Rb0 3.585201 1_564
Br10 Rb1 3.585201 1_565
Br11 U0 2.779566 1_556
Br11 Rb0 3.826690 1_455
Br11 Rb0 3.826690 1_555
Br11 Rb3 3.831028 1_545
Br11 Rb3 3.831028 1_555
