# generated using pymatgen
data_KY(PSe3)2
_symmetry_space_group_name_H-M   'P 1'
_cell_length_a   6.84903500
_cell_length_b   7.55025400
_cell_length_c   21.87113800
_cell_angle_alpha   90.00000000
_cell_angle_beta   90.00000000
_cell_angle_gamma   90.00000000
_symmetry_Int_Tables_number   1
_chemical_formula_structural   KY(PSe3)2
_chemical_formula_sum   'K4 Y4 P8 Se24'
_cell_volume   1130.99928010
_cell_formula_units_Z   4
loop_
 _symmetry_equiv_pos_site_id
 _symmetry_equiv_pos_as_xyz
  1  'x, y, z'
loop_
 _atom_site_type_symbol
 _atom_site_label
 _atom_site_symmetry_multiplicity
 _atom_site_fract_x
 _atom_site_fract_y
 _atom_site_fract_z
 _atom_site_occupancy
  K  K0  1  0.12367900  0.51948000  0.49595800  1
  K  K1  1  0.37632100  0.48052000  0.99595800  1
  K  K2  1  0.62367900  0.98052000  0.50404200  1
  K  K3  1  0.87632100  0.01948000  0.00404200  1
  Y  Y0  1  0.71735300  0.81947000  0.74873800  1
  Y  Y1  1  0.21735300  0.68053000  0.25126200  1
  Y  Y2  1  0.78264700  0.18053000  0.24873800  1
  Y  Y3  1  0.28264700  0.31947000  0.75126200  1
  P  P0  1  0.82368500  0.44810200  0.11024300  1
  P  P1  1  0.30783900  0.17144300  0.33447600  1
  P  P2  1  0.80783900  0.32855700  0.66552400  1
  P  P3  1  0.17631500  0.94810200  0.38975700  1
  P  P4  1  0.19216100  0.82855700  0.83447600  1
  P  P5  1  0.69216100  0.67144300  0.16552400  1
  P  P6  1  0.67631500  0.55189800  0.61024300  1
  P  P7  1  0.32368500  0.05189800  0.88975700  1
  Se  Se0  1  0.62959700  0.54862000  0.25713300  1
  Se  Se1  1  0.88064700  0.53961000  0.01798300  1
  Se  Se2  1  0.91186100  0.73662100  0.87119500  1
  Se  Se3  1  0.12959700  0.95138000  0.74286700  1
  Se  Se4  1  0.11935300  0.03961000  0.48201700  1
  Se  Se5  1  0.08813900  0.23662100  0.62880500  1
  Se  Se6  1  0.56745600  0.12763300  0.66876100  1
  Se  Se7  1  0.88851700  0.76585500  0.61983900  1
  Se  Se8  1  0.07464900  0.36756800  0.17041000  1
  Se  Se9  1  0.57464900  0.13243200  0.82959000  1
  Se  Se10  1  0.61935300  0.46039000  0.51798300  1
  Se  Se11  1  0.38851700  0.73414500  0.38016100  1
  Se  Se12  1  0.42535100  0.63243200  0.67041000  1
  Se  Se13  1  0.43254400  0.62763300  0.83123900  1
  Se  Se14  1  0.37040300  0.04862000  0.24286700  1
  Se  Se15  1  0.87040300  0.45138000  0.75713300  1
  Se  Se16  1  0.11148300  0.26585500  0.88016100  1
  Se  Se17  1  0.92535100  0.86756800  0.32959000  1
  Se  Se18  1  0.93254400  0.87236700  0.16876100  1
  Se  Se19  1  0.61148300  0.23414500  0.11983900  1
  Se  Se20  1  0.58813900  0.26337900  0.37119500  1
  Se  Se21  1  0.41186100  0.76337900  0.12880500  1
  Se  Se22  1  0.38064700  0.96039000  0.98201700  1
  Se  Se23  1  0.06745600  0.37236700  0.33123900  1
loop_
_geom_bond_atom_site_label_1
_geom_bond_atom_site_label_2
_geom_bond_distance
_geom_bond_site_symmetry_2
K0 Se10 3.457797 1_555
K0 Se11 3.511583 1_555
K0 Se10 3.515995 1_455
K0 Se5 3.614180 1_555
K0 Se4 3.636068 1_555
K0 Se7 3.659974 1_455
K0 Se23 3.789551 1_555
K1 Se1 3.457797 1_456
K1 Se16 3.511583 1_555
K1 Se1 3.515995 1_556
K1 Se21 3.614180 1_556
K1 Se22 3.636068 1_555
K1 Se19 3.659974 1_556
K1 Se13 3.789551 1_555
K2 Se4 3.457797 1_665
K2 Se7 3.511583 1_555
K2 Se4 3.515995 1_565
K2 Se20 3.614180 1_565
K2 Se10 3.636068 1_565
K2 Se11 3.659974 1_555
K2 Se6 3.789551 1_565
K3 Se22 3.457797 1_544
K3 Se19 3.511583 1_555
K3 Se22 3.515995 1_644
K3 Se2 3.614180 1_544
K3 Se1 3.636068 1_545
K3 Se16 3.659974 1_654
K3 Se18 3.789551 1_545
P0 Se1 2.168226 1_555
P0 Se19 2.183110 1_555
P0 Se8 2.248524 1_655
P0 P5 2.262041 1_555
P1 Se20 2.193707 1_555
P1 Se23 2.239864 1_555
P1 Se14 2.248993 1_555
P1 P3 2.262041 1_545
P2 Se5 2.193707 1_655
P2 Se6 2.239864 1_555
P2 Se15 2.248993 1_555
P2 P6 2.262041 1_555
P3 Se4 2.168226 1_565
P3 Se11 2.183110 1_555
P3 Se17 2.248524 1_455
P4 Se2 2.193707 1_455
P4 Se13 2.239864 1_555
P4 Se3 2.248993 1_555
P4 P7 2.262041 1_565
P5 Se21 2.193707 1_555
P5 Se18 2.239864 1_555
P5 Se0 2.248993 1_555
P6 Se10 2.168226 1_555
P6 Se7 2.183110 1_555
P6 Se12 2.248524 1_555
P7 Se22 2.168226 1_545
P7 Se16 2.183110 1_555
P7 Se9 2.248524 1_555
Se0 Y2 2.975959 1_555
Se0 Y1 2.996734 1_555
Se2 Y0 3.056007 1_555
Se3 Y3 2.975959 1_565
Se3 Y0 2.996734 1_455
Se5 Y3 3.056007 1_555
Se6 Y3 3.026358 1_555
Se6 Y0 3.086623 1_545
Se7 Y0 3.079916 1_555
Se8 Y2 2.988107 1_455
Se8 Y1 3.108979 1_555
Se9 Y3 2.988107 1_555
Se9 Y0 3.108979 1_545
Se11 Y1 3.079916 1_555
Se12 Y0 2.988107 1_555
Se12 Y3 3.108979 1_555
Se13 Y0 3.026358 1_555
Se13 Y3 3.086623 1_555
Se14 Y1 2.975959 1_545
Se14 Y2 2.996734 1_555
Se15 Y0 2.975959 1_555
Se15 Y3 2.996734 1_655
Se16 Y3 3.079916 1_555
Se17 Y1 2.988107 1_655
Se17 Y2 3.108979 1_565
Se18 Y1 3.026358 1_655
Se18 Y2 3.086623 1_565
Se19 Y2 3.079916 1_555
Se20 Y2 3.056007 1_555
Se21 Y1 3.056007 1_555
Se23 Y2 3.026358 1_455
Se23 Y1 3.086623 1_555
