# generated using pymatgen
data_Cs3ZnI4NO3
_symmetry_space_group_name_H-M   'P 1'
_cell_length_a   10.36779300
_cell_length_b   11.83910600
_cell_length_c   14.63894000
_cell_angle_alpha   90.00000000
_cell_angle_beta   90.00000000
_cell_angle_gamma   90.00000000
_symmetry_Int_Tables_number   1
_chemical_formula_structural   Cs3ZnI4NO3
_chemical_formula_sum   'Cs12 Zn4 I16 N4 O12'
_cell_volume   1796.86255046
_cell_formula_units_Z   4
loop_
 _symmetry_equiv_pos_site_id
 _symmetry_equiv_pos_as_xyz
  1  'x, y, z'
loop_
 _atom_site_type_symbol
 _atom_site_label
 _atom_site_symmetry_multiplicity
 _atom_site_fract_x
 _atom_site_fract_y
 _atom_site_fract_z
 _atom_site_occupancy
  Cs  Cs0  1  0.59966000  0.01221100  0.68098200  1
  Cs  Cs1  1  0.90034000  0.51221100  0.18098200  1
  Cs  Cs2  1  0.59966000  0.48778900  0.68098200  1
  Cs  Cs3  1  0.90034000  0.98778900  0.18098200  1
  Cs  Cs4  1  0.42600100  0.75000000  0.05389600  1
  Cs  Cs5  1  0.57399900  0.25000000  0.94610400  1
  Cs  Cs6  1  0.07399900  0.25000000  0.55389600  1
  Cs  Cs7  1  0.92600100  0.75000000  0.44610400  1
  Cs  Cs8  1  0.40034000  0.98778900  0.31901800  1
  Cs  Cs9  1  0.09966000  0.01221100  0.81901800  1
  Cs  Cs10  1  0.09966000  0.48778900  0.81901800  1
  Cs  Cs11  1  0.40034000  0.51221100  0.31901800  1
  Zn  Zn0  1  0.32485200  0.75000000  0.59903300  1
  Zn  Zn1  1  0.67514800  0.25000000  0.40096700  1
  Zn  Zn2  1  0.82485200  0.75000000  0.90096700  1
  Zn  Zn3  1  0.17514800  0.25000000  0.09903300  1
  I  I0  1  0.80106800  0.06340600  0.44365000  1
  I  I1  1  0.46019100  0.25000000  0.50019500  1
  I  I2  1  0.96019100  0.25000000  0.99980500  1
  I  I3  1  0.19893200  0.56340600  0.55635000  1
  I  I4  1  0.37496400  0.75000000  0.77557500  1
  I  I5  1  0.03980900  0.75000000  0.00019500  1
  I  I6  1  0.53980900  0.75000000  0.49980500  1
  I  I7  1  0.30106800  0.06340600  0.05635000  1
  I  I8  1  0.69893200  0.93659400  0.94365000  1
  I  I9  1  0.80106800  0.43659400  0.44365000  1
  I  I10  1  0.62503600  0.25000000  0.22442500  1
  I  I11  1  0.69893200  0.56340600  0.94365000  1
  I  I12  1  0.87496400  0.75000000  0.72442500  1
  I  I13  1  0.30106800  0.43659400  0.05635000  1
  I  I14  1  0.19893200  0.93659400  0.55635000  1
  I  I15  1  0.12503600  0.25000000  0.27557500  1
  N  N0  1  0.17669600  0.75000000  0.27203400  1
  N  N1  1  0.67669600  0.75000000  0.22796600  1
  N  N2  1  0.32330400  0.25000000  0.77203400  1
  N  N3  1  0.82330400  0.25000000  0.72796600  1
  O  O0  1  0.38060300  0.34310000  0.78644400  1
  O  O1  1  0.11939700  0.65690000  0.28644400  1
  O  O2  1  0.61939700  0.84310000  0.21355600  1
  O  O3  1  0.70659800  0.25000000  0.75525500  1
  O  O4  1  0.20659800  0.25000000  0.74474500  1
  O  O5  1  0.88060300  0.15690000  0.71355600  1
  O  O6  1  0.79340200  0.75000000  0.25525500  1
  O  O7  1  0.29340200  0.75000000  0.24474500  1
  O  O8  1  0.61939700  0.65690000  0.21355600  1
  O  O9  1  0.11939700  0.84310000  0.28644400  1
  O  O10  1  0.88060300  0.34310000  0.71355600  1
  O  O11  1  0.38060300  0.15690000  0.78644400  1
loop_
_geom_bond_atom_site_label_1
_geom_bond_atom_site_label_2
_geom_bond_distance
_geom_bond_site_symmetry_2
Cs0 O3 3.215092 1_555
Cs0 O11 3.236645 1_555
Cs0 O5 3.412606 1_555
Cs0 I8 4.079974 1_545
Cs0 I0 4.098590 1_555
Cs0 I4 4.120862 1_545
Cs0 I1 4.125579 1_555
Cs0 I6 4.129936 1_545
Cs0 I12 4.264785 1_545
Cs1 O6 3.215092 1_555
Cs1 O1 3.236645 1_655
Cs1 O8 3.412606 1_555
Cs1 I9 4.079974 1_555
Cs1 I11 4.098590 1_554
Cs1 I15 4.120862 1_655
Cs1 I5 4.125579 1_655
Cs1 I2 4.129936 1_554
Cs1 I10 4.264785 1_555
Cs2 O3 3.215092 1_555
Cs2 O0 3.236645 1_555
Cs2 O10 3.412606 1_555
Cs2 I11 4.079974 1_555
Cs2 I9 4.098590 1_555
Cs2 I4 4.120862 1_555
Cs2 I1 4.125579 1_555
Cs2 I6 4.129936 1_555
Cs2 I12 4.264785 1_555
Cs3 O6 3.215092 1_555
Cs3 O9 3.236645 1_655
Cs3 O2 3.412606 1_555
Cs3 I0 4.079974 1_565
Cs3 I8 4.098590 1_554
Cs3 I15 4.120862 1_665
Cs3 I5 4.125579 1_655
Cs3 I2 4.129936 1_564
Cs3 I10 4.264785 1_565
Cs4 O7 3.113749 1_555
Cs4 O8 3.270784 1_555
Cs4 O2 3.270784 1_555
Cs4 I13 3.930198 1_555
Cs4 I7 3.930198 1_565
Cs4 I8 3.935979 1_554
Cs4 I11 3.935979 1_554
Cs4 I5 4.080402 1_555
Cs4 I4 4.108541 1_554
Cs5 O3 3.113749 1_555
Cs5 O0 3.270784 1_555
Cs5 O11 3.270784 1_555
Cs5 I11 3.930198 1_555
Cs5 I8 3.930198 1_545
Cs5 I7 3.935979 1_556
Cs5 I13 3.935979 1_556
Cs5 I2 4.080402 1_555
Cs5 I10 4.108541 1_556
Cs6 O4 3.113749 1_555
Cs6 O10 3.270784 1_455
Cs6 O5 3.270784 1_455
Cs6 I3 3.930198 1_555
Cs6 I14 3.930198 1_545
Cs6 I0 3.935979 1_455
Cs6 I9 3.935979 1_455
Cs6 I1 4.080402 1_555
Cs6 I15 4.108541 1_555
Cs7 O6 3.113749 1_555
Cs7 O1 3.270784 1_655
Cs7 O9 3.270784 1_655
Cs7 I9 3.930198 1_555
Cs7 I0 3.930198 1_565
Cs7 I14 3.935979 1_655
Cs7 I3 3.935979 1_655
Cs7 I6 4.080402 1_555
Cs7 I12 4.108541 1_555
Cs8 O7 3.215092 1_555
Cs8 O2 3.236645 1_555
Cs8 O9 3.412606 1_555
Cs8 I7 4.079974 1_565
Cs8 I14 4.098590 1_555
Cs8 I10 4.120862 1_565
Cs8 I6 4.125579 1_555
Cs8 I1 4.129936 1_565
Cs8 I15 4.264785 1_565
Cs9 O4 3.215092 1_555
Cs9 O5 3.236645 1_455
Cs9 O11 3.412606 1_555
Cs9 I14 4.079974 1_545
Cs9 I7 4.098590 1_556
Cs9 I12 4.120862 1_445
Cs9 I2 4.125579 1_455
Cs9 I5 4.129936 1_546
Cs9 I4 4.264785 1_545
Cs10 O4 3.215092 1_555
Cs10 O10 3.236645 1_455
Cs10 O0 3.412606 1_555
Cs10 I3 4.079974 1_555
Cs10 I13 4.098590 1_556
Cs10 I12 4.120862 1_455
Cs10 I2 4.125579 1_455
Cs10 I5 4.129936 1_556
Cs10 I4 4.264785 1_555
Cs11 O7 3.215092 1_555
Cs11 O8 3.236645 1_555
Cs11 O1 3.412606 1_555
Cs11 I13 4.079974 1_555
Cs11 I3 4.098590 1_555
Cs11 I10 4.120862 1_555
Cs11 I6 4.125579 1_555
Cs11 I1 4.129936 1_555
Cs11 I15 4.264785 1_555
I0 Zn1 2.641009 1_555
I1 Zn1 2.660229 1_555
I2 Zn3 2.660229 1_656
I3 Zn0 2.641009 1_555
I4 Zn0 2.636094 1_555
I5 Zn2 2.660229 1_454
I6 Zn0 2.660229 1_555
I7 Zn3 2.641009 1_555
I8 Zn2 2.641009 1_555
I9 Zn1 2.641009 1_555
I10 Zn1 2.636094 1_555
I11 Zn2 2.641009 1_555
I12 Zn2 2.636094 1_555
I13 Zn3 2.641009 1_555
I14 Zn0 2.641009 1_555
I15 Zn3 2.636094 1_555
N0 O1 1.269764 1_555
N0 O9 1.269764 1_555
N0 O7 1.274224 1_555
N1 O8 1.269764 1_555
N1 O2 1.269764 1_555
N1 O6 1.274224 1_555
N2 O11 1.269764 1_555
N2 O0 1.269764 1_555
N2 O4 1.274224 1_555
N3 O5 1.269764 1_555
N3 O10 1.269764 1_555
N3 O3 1.274224 1_555
