# generated using pymatgen
data_Hf2NiP
_symmetry_space_group_name_H-M   'P 1'
_cell_length_a   3.56648881
_cell_length_b   5.14785014
_cell_length_c   7.47480438
_cell_angle_alpha   111.13533076
_cell_angle_beta   90.00000000
_cell_angle_gamma   90.00000000
_symmetry_Int_Tables_number   1
_chemical_formula_structural   Hf2NiP
_chemical_formula_sum   'Hf4 Ni2 P2'
_cell_volume   128.00389231
_cell_formula_units_Z   2
loop_
 _symmetry_equiv_pos_site_id
 _symmetry_equiv_pos_as_xyz
  1  'x, y, z'
loop_
 _atom_site_type_symbol
 _atom_site_label
 _atom_site_symmetry_multiplicity
 _atom_site_fract_x
 _atom_site_fract_y
 _atom_site_fract_z
 _atom_site_occupancy
  Hf  Hf0  1  0.75000000  0.20702822  0.42860227  1
  Hf  Hf1  1  0.25000000  0.79297178  0.57139773  1
  Hf  Hf2  1  0.25000000  0.78861438  0.07454459  1
  Hf  Hf3  1  0.75000000  0.21138562  0.92545541  1
  Ni  Ni0  1  0.75000000  0.64737997  0.29274687  1
  Ni  Ni1  1  0.25000000  0.35262003  0.70725313  1
  P  P0  1  0.25000000  0.34953439  0.20951835  1
  P  P1  1  0.75000000  0.65046561  0.79048165  1
loop_
_geom_bond_atom_site_label_1
_geom_bond_atom_site_label_2
_geom_bond_distance
_geom_bond_site_symmetry_2
Hf0 Ni1 2.637089 1_555
Hf0 Ni1 2.637089 1_655
Hf0 Ni0 2.687286 1_545
Hf0 P0 2.695597 1_555
Hf0 P0 2.695597 1_655
Hf0 Ni0 2.798207 1_555
Hf0 P1 2.841644 1_555
Hf1 Ni0 2.637089 1_455
Hf1 Ni0 2.637089 1_555
Hf1 Ni1 2.687286 1_565
Hf1 P1 2.695597 1_555
Hf1 P1 2.695597 1_455
Hf1 Ni1 2.798207 1_555
Hf1 P0 2.841644 1_555
Hf2 P1 2.665565 1_554
Hf2 P1 2.665565 1_454
Hf2 Ni0 2.687741 1_555
Hf2 Ni0 2.687741 1_455
Hf2 P0 2.693485 1_565
Hf2 P0 2.787732 1_555
Hf2 Ni1 2.851532 1_554
Hf3 P0 2.665565 1_556
Hf3 P0 2.665565 1_656
Hf3 Ni1 2.687741 1_655
Hf3 Ni1 2.687741 1_555
Hf3 P1 2.693485 1_545
Hf3 P1 2.787732 1_555
Hf3 Ni0 2.851532 1_556
Ni0 P0 2.286922 1_555
Ni0 P0 2.286922 1_655
Ni1 P1 2.286922 1_555
Ni1 P1 2.286922 1_455
