# generated using pymatgen
data_ZrNCl
_symmetry_space_group_name_H-M   'P 1'
_cell_length_a   9.81787528
_cell_length_b   9.81787530
_cell_length_c   9.81787589
_cell_angle_alpha   21.22681671
_cell_angle_beta   21.22681715
_cell_angle_gamma   21.22681805
_symmetry_Int_Tables_number   1
_chemical_formula_structural   ZrNCl
_chemical_formula_sum   'Zr2 N2 Cl2'
_cell_volume   108.66355579
_cell_formula_units_Z   2
loop_
 _symmetry_equiv_pos_site_id
 _symmetry_equiv_pos_as_xyz
  1  'x, y, z'
loop_
 _atom_site_type_symbol
 _atom_site_label
 _atom_site_symmetry_multiplicity
 _atom_site_fract_x
 _atom_site_fract_y
 _atom_site_fract_z
 _atom_site_occupancy
  Zr  Zr0  1  0.78781857  0.78781857  0.78781857  1
  Zr  Zr1  1  0.21218143  0.21218143  0.21218143  1
  N  N0  1  0.86314414  0.86314414  0.86314414  1
  N  N1  1  0.13685586  0.13685586  0.13685586  1
  Cl  Cl0  1  0.39182989  0.39182989  0.39182989  1
  Cl  Cl1  1  0.60817011  0.60817011  0.60817011  1
loop_
_geom_bond_atom_site_label_1
_geom_bond_atom_site_label_2
_geom_bond_distance
_geom_bond_site_symmetry_2
N0 Zr1 2.136364 1_665
N0 Zr1 2.136364 1_656
N0 Zr1 2.136364 1_566
N0 Zr0 2.167856 1_555
N1 Zr0 2.136364 1_445
N1 Zr0 2.136364 1_454
N1 Zr0 2.136364 1_544
N1 Zr1 2.167856 1_555
Cl0 Zr0 2.758867 1_554
Cl0 Zr0 2.758868 1_545
Cl0 Zr0 2.758868 1_455
Cl1 Zr1 2.758867 1_556
Cl1 Zr1 2.758868 1_565
Cl1 Zr1 2.758868 1_655
