# generated using pymatgen
data_Sr3Al2Cl2O5
_symmetry_space_group_name_H-M   'P 1'
_cell_length_a   9.49874200
_cell_length_b   9.51416000
_cell_length_c   9.51885100
_cell_angle_alpha   90.00000000
_cell_angle_beta   90.00000000
_cell_angle_gamma   90.00000000
_symmetry_Int_Tables_number   1
_chemical_formula_structural   Sr3Al2Cl2O5
_chemical_formula_sum   'Sr12 Al8 Cl8 O20'
_cell_volume   860.24284924
_cell_formula_units_Z   4
loop_
 _symmetry_equiv_pos_site_id
 _symmetry_equiv_pos_as_xyz
  1  'x, y, z'
loop_
 _atom_site_type_symbol
 _atom_site_label
 _atom_site_symmetry_multiplicity
 _atom_site_fract_x
 _atom_site_fract_y
 _atom_site_fract_z
 _atom_site_occupancy
  Sr  Sr0  1  0.99203900  0.75148000  0.08888600  1
  Sr  Sr1  1  0.58776600  0.48733100  0.24165300  1
  Sr  Sr2  1  0.75977000  0.91083100  0.49943100  1
  Sr  Sr3  1  0.25977000  0.58916900  0.50056900  1
  Sr  Sr4  1  0.74023000  0.08916900  0.99943100  1
  Sr  Sr5  1  0.24023000  0.41083100  0.00056900  1
  Sr  Sr6  1  0.49203900  0.74852000  0.91111400  1
  Sr  Sr7  1  0.91223400  0.51266900  0.74165300  1
  Sr  Sr8  1  0.50796100  0.24852000  0.58888600  1
  Sr  Sr9  1  0.00796100  0.25148000  0.41111400  1
  Sr  Sr10  1  0.08776600  0.01266900  0.75834700  1
  Sr  Sr11  1  0.41223400  0.98733100  0.25834700  1
  Al  Al0  1  0.59403900  0.40083600  0.90263800  1
  Al  Al1  1  0.39947500  0.09491100  0.90278100  1
  Al  Al2  1  0.60052500  0.59491100  0.59721900  1
  Al  Al3  1  0.40596100  0.90083600  0.59736200  1
  Al  Al4  1  0.10052500  0.90508900  0.40278100  1
  Al  Al5  1  0.89947500  0.40508900  0.09721900  1
  Al  Al6  1  0.90596100  0.59916400  0.40263800  1
  Al  Al7  1  0.09403900  0.09916400  0.09736200  1
  Cl  Cl0  1  0.68239600  0.79752500  0.19785800  1
  Cl  Cl1  1  0.31760400  0.29752500  0.30214200  1
  Cl  Cl2  1  0.29570600  0.68462800  0.18978700  1
  Cl  Cl3  1  0.18239600  0.70247500  0.80214200  1
  Cl  Cl4  1  0.70429400  0.18462800  0.31021300  1
  Cl  Cl5  1  0.79570600  0.81537200  0.81021300  1
  Cl  Cl6  1  0.20429400  0.31537200  0.68978700  1
  Cl  Cl7  1  0.81760400  0.20247500  0.69785800  1
  O  O0  1  0.49420800  0.74211300  0.64424800  1
  O  O1  1  0.00008300  0.01175200  0.51431600  1
  O  O2  1  0.00579200  0.25788700  0.14424800  1
  O  O3  1  0.85488800  0.50344400  0.25046800  1
  O  O4  1  0.73941400  0.35564400  0.01294000  1
  O  O5  1  0.99991700  0.51175200  0.98568400  1
  O  O6  1  0.50008300  0.48824800  0.48568400  1
  O  O7  1  0.35488800  0.99655600  0.74953200  1
  O  O8  1  0.26058600  0.85564400  0.48706000  1
  O  O9  1  0.99420800  0.75788700  0.35575200  1
  O  O10  1  0.23941400  0.14435600  0.98706000  1
  O  O11  1  0.14511200  0.00344400  0.24953200  1
  O  O12  1  0.51830400  0.00654400  0.49687500  1
  O  O13  1  0.50579200  0.24211300  0.85575200  1
  O  O14  1  0.98169600  0.99345600  0.99687500  1
  O  O15  1  0.48169600  0.50654400  0.00312500  1
  O  O16  1  0.76058600  0.64435600  0.51294000  1
  O  O17  1  0.64511200  0.49655600  0.75046800  1
  O  O18  1  0.49991700  0.98824800  0.01431600  1
  O  O19  1  0.01830400  0.49345600  0.50312500  1
loop_
_geom_bond_atom_site_label_1
_geom_bond_atom_site_label_2
_geom_bond_distance
_geom_bond_site_symmetry_2
Al0 O15 1.750757 1_556
Al0 O17 1.778432 1_555
Al0 O13 1.783893 1_555
Al0 O4 1.787201 1_556
Al1 O18 1.751361 1_546
Al1 O10 1.782257 1_555
Al1 O13 1.783722 1_555
Al1 O7 1.784094 1_545
Al2 O6 1.751361 1_555
Al2 O16 1.782257 1_555
Al2 O0 1.783722 1_555
Al2 O17 1.784094 1_555
Al3 O12 1.750757 1_565
Al3 O7 1.778432 1_555
Al3 O0 1.783893 1_555
Al3 O8 1.787201 1_555
Al4 O1 1.751361 1_565
Al4 O8 1.782257 1_555
Al4 O9 1.783722 1_455
Al4 O11 1.784094 1_565
Al5 O5 1.751361 1_554
Al5 O4 1.782257 1_555
Al5 O2 1.783722 1_655
Al5 O3 1.784094 1_555
Al6 O19 1.750757 1_655
Al6 O3 1.778432 1_555
Al6 O9 1.783893 1_555
Al6 O16 1.787201 1_555
Al7 O14 1.750757 1_444
Al7 O11 1.778432 1_555
Al7 O2 1.783893 1_555
Al7 O10 1.787201 1_554
Cl0 Sr1 3.113123 1_555
Cl0 Sr0 3.149389 1_555
Cl0 Sr2 3.153217 1_555
Cl0 Sr11 3.190295 1_555
Cl0 Sr6 3.307086 1_554
Cl0 Sr4 3.401259 1_564
Cl1 Sr11 3.113123 1_545
Cl1 Sr9 3.149389 1_555
Cl1 Sr5 3.153217 1_555
Cl1 Sr1 3.190295 1_555
Cl1 Sr8 3.307086 1_555
Cl1 Sr3 3.401259 1_555
Cl2 Sr0 3.105980 1_455
Cl2 Sr3 3.113331 1_555
Cl2 Sr11 3.153611 1_555
Cl2 Sr5 3.210535 1_555
Cl2 Sr6 3.299085 1_554
Cl2 Sr1 3.385780 1_555
Cl3 Sr10 3.113123 1_565
Cl3 Sr6 3.149389 1_555
Cl3 Sr3 3.153217 1_555
Cl3 Sr7 3.190295 1_455
Cl3 Sr0 3.307086 1_456
Cl3 Sr5 3.401259 1_556
Cl4 Sr9 3.105980 1_655
Cl4 Sr4 3.113331 1_554
Cl4 Sr1 3.153611 1_555
Cl4 Sr2 3.210535 1_545
Cl4 Sr8 3.299085 1_555
Cl4 Sr11 3.385780 1_545
Cl5 Sr6 3.105980 1_555
Cl5 Sr2 3.113331 1_555
Cl5 Sr7 3.153611 1_555
Cl5 Sr4 3.210535 1_565
Cl5 Sr0 3.299085 1_556
Cl5 Sr10 3.385780 1_665
Cl6 Sr8 3.105980 1_555
Cl6 Sr5 3.113331 1_556
Cl6 Sr10 3.153611 1_555
Cl6 Sr3 3.210535 1_555
Cl6 Sr9 3.299085 1_555
Cl6 Sr7 3.385780 1_455
Cl7 Sr7 3.113123 1_555
Cl7 Sr8 3.149389 1_555
Cl7 Sr4 3.153217 1_555
Cl7 Sr10 3.190295 1_655
Cl7 Sr9 3.307086 1_655
Cl7 Sr2 3.401259 1_545
O0 Sr6 2.541072 1_555
O1 Sr10 2.467712 1_555
O1 Sr2 2.480445 1_445
O1 Sr9 2.484499 1_555
O2 Sr9 2.541072 1_555
O3 Sr1 2.543334 1_555
O4 Sr4 2.538557 1_554
O4 Sr1 2.895579 1_555
O5 Sr7 2.467712 1_555
O5 Sr5 2.480445 1_656
O5 Sr0 2.484499 1_556
O6 Sr1 2.467712 1_555
O6 Sr3 2.480445 1_555
O6 Sr8 2.484499 1_555
O7 Sr10 2.543334 1_565
O8 Sr3 2.538557 1_555
O8 Sr11 2.895579 1_555
O9 Sr0 2.541072 1_555
O10 Sr5 2.538557 1_556
O10 Sr10 2.895579 1_555
O11 Sr11 2.543334 1_545
O12 Sr8 2.465130 1_555
O12 Sr2 2.467903 1_545
O12 Sr11 2.490735 1_545
O13 Sr8 2.541072 1_555
O14 Sr0 2.465130 1_556
O14 Sr4 2.467903 1_565
O14 Sr10 2.490735 1_665
O15 Sr6 2.465130 1_554
O15 Sr5 2.467903 1_555
O15 Sr1 2.490735 1_555
O16 Sr2 2.538557 1_555
O16 Sr7 2.895579 1_555
O17 Sr7 2.543334 1_555
O18 Sr11 2.467712 1_555
O18 Sr4 2.480445 1_564
O18 Sr6 2.484499 1_554
O19 Sr9 2.465130 1_555
O19 Sr3 2.467903 1_555
O19 Sr7 2.490735 1_455
