# generated using pymatgen
data_Cs2Co3S4
_symmetry_space_group_name_H-M   'P 1'
_cell_length_a   9.12814649
_cell_length_b   9.12814649
_cell_length_c   9.12814649
_cell_angle_alpha   145.50006489
_cell_angle_beta   106.74283618
_cell_angle_gamma   83.55765424
_symmetry_Int_Tables_number   1
_chemical_formula_structural   Cs2Co3S4
_chemical_formula_sum   'Cs4 Co6 S8'
_cell_volume   401.39443983
_cell_formula_units_Z   2
loop_
 _symmetry_equiv_pos_site_id
 _symmetry_equiv_pos_as_xyz
  1  'x, y, z'
loop_
 _atom_site_type_symbol
 _atom_site_label
 _atom_site_symmetry_multiplicity
 _atom_site_fract_x
 _atom_site_fract_y
 _atom_site_fract_z
 _atom_site_occupancy
  Cs  Cs0  1  0.12434200  0.24413300  0.36847600  1
  Cs  Cs1  1  0.62434200  0.25586700  0.88020900  1
  Cs  Cs2  1  0.37565800  0.74413300  0.11979100  1
  Cs  Cs3  1  0.87565800  0.75586700  0.63152400  1
  Co  Co0  1  0.99713800  0.25000000  0.74713800  1
  Co  Co1  1  0.50286200  0.25000000  0.25286200  1
  Co  Co2  1  0.49713800  0.75000000  0.74713800  1
  Co  Co3  1  0.25000000  0.75000000  0.50000000  1
  Co  Co4  1  0.00286200  0.75000000  0.25286200  1
  Co  Co5  1  0.75000000  0.25000000  0.50000000  1
  S  S0  1  0.45527100  0.58073100  0.37708100  1
  S  S1  1  0.70365000  0.08073100  0.12546100  1
  S  S2  1  0.04472900  0.42181100  0.12546100  1
  S  S3  1  0.54472900  0.41926900  0.62291900  1
  S  S4  1  0.29635000  0.91926900  0.87453900  1
  S  S5  1  0.95527100  0.57818900  0.87453900  1
  S  S6  1  0.79635000  0.92181100  0.37708100  1
  S  S7  1  0.20365000  0.07818900  0.62291900  1
loop_
_geom_bond_atom_site_label_1
_geom_bond_atom_site_label_2
_geom_bond_distance
_geom_bond_site_symmetry_2
Cs0 S5 3.547368 1_444
Cs0 S4 3.547379 1_544
Cs0 S7 3.577294 1_555
Cs0 S3 3.577295 1_555
Cs0 S1 3.579944 1_455
Cs0 S2 3.579953 1_555
Cs0 S5 3.585131 1_455
Cs0 S4 3.585146 1_555
Cs1 S0 3.547366 1_556
Cs1 S6 3.547373 1_556
Cs1 S2 3.577294 1_656
Cs1 S1 3.577303 1_556
Cs1 S3 3.579944 1_555
Cs1 S7 3.579945 1_555
Cs1 S0 3.585142 1_545
Cs1 S6 3.585144 1_545
Cs2 S3 3.547366 1_554
Cs2 S7 3.547373 1_554
Cs2 S5 3.577294 1_454
Cs2 S4 3.577303 1_554
Cs2 S0 3.579944 1_555
Cs2 S6 3.579945 1_555
Cs2 S3 3.585142 1_565
Cs2 S7 3.585144 1_565
Cs3 S2 3.547368 1_666
Cs3 S1 3.547379 1_566
Cs3 S6 3.577294 1_555
Cs3 S0 3.577295 1_555
Cs3 S4 3.579944 1_655
Cs3 S5 3.579953 1_555
Cs3 S2 3.585131 1_655
Cs3 S1 3.585146 1_555
Co0 S5 2.174827 1_555
Co0 S6 2.174829 1_545
Co0 S7 2.221667 1_655
Co0 S2 2.221668 1_656
Co1 S1 2.174829 1_555
Co1 S3 2.174830 1_555
Co1 S0 2.221665 1_555
Co1 S4 2.221667 1_544
Co2 S4 2.174829 1_555
Co2 S0 2.174830 1_555
Co2 S3 2.221665 1_555
Co2 S1 2.221667 1_566
Co3 S4 2.204834 1_555
Co3 S7 2.204834 1_565
Co3 S2 2.204839 1_555
Co3 S0 2.204842 1_555
Co4 S2 2.174827 1_555
Co4 S7 2.174829 1_565
Co4 S6 2.221667 1_455
Co4 S5 2.221668 1_454
Co5 S6 2.204834 1_545
Co5 S1 2.204834 1_555
Co5 S5 2.204839 1_555
Co5 S3 2.204842 1_555
