# generated using pymatgen
data_Ba2Tl2CuO6
_symmetry_space_group_name_H-M   'P 1'
_cell_length_a   12.30049119
_cell_length_b   12.30049119
_cell_length_c   12.30049119
_cell_angle_alpha   161.72343198
_cell_angle_beta   161.72343198
_cell_angle_gamma   25.95898528
_symmetry_Int_Tables_number   1
_chemical_formula_structural   Ba2Tl2CuO6
_chemical_formula_sum   'Ba2 Tl2 Cu1 O6'
_cell_volume   182.97237207
_cell_formula_units_Z   1
loop_
 _symmetry_equiv_pos_site_id
 _symmetry_equiv_pos_as_xyz
  1  'x, y, z'
loop_
 _atom_site_type_symbol
 _atom_site_label
 _atom_site_symmetry_multiplicity
 _atom_site_fract_x
 _atom_site_fract_y
 _atom_site_fract_z
 _atom_site_occupancy
  Ba  Ba0  1  0.91875100  0.91875100  0.00000000  1
  Ba  Ba1  1  0.08124900  0.08124900  0.00000000  1
  Tl  Tl0  1  0.70227200  0.70227200  0.00000000  1
  Tl  Tl1  1  0.29772800  0.29772800  0.00000000  1
  Cu  Cu0  1  0.50000000  0.50000000  0.00000000  1
  O  O0  1  0.78881300  0.78881300  0.00000000  1
  O  O1  1  0.21118700  0.21118700  0.00000000  1
  O  O2  1  0.38216100  0.38216100  0.00000000  1
  O  O3  1  0.61783900  0.61783900  0.00000000  1
  O  O4  1  0.50000000  0.00000000  0.50000000  1
  O  O5  1  0.00000000  0.50000000  0.50000000  1
loop_
_geom_bond_atom_site_label_1
_geom_bond_atom_site_label_2
_geom_bond_distance
_geom_bond_site_symmetry_2
Ba0 O4 2.758620 1_665
Ba0 O4 2.758620 1_564
Ba0 O5 2.758620 1_665
Ba0 O5 2.758620 1_654
Ba0 O2 2.898622 1_554
Ba0 O2 2.898622 1_565
Ba0 O2 2.898622 1_666
Ba0 O2 2.898622 1_655
Ba0 O0 3.114931 1_555
Ba1 O4 2.758620 1_454
Ba1 O4 2.758620 1_555
Ba1 O5 2.758620 1_555
Ba1 O5 2.758620 1_544
Ba1 O3 2.898622 1_545
Ba1 O3 2.898622 1_455
Ba1 O3 2.898622 1_556
Ba1 O3 2.898622 1_444
Ba1 O1 3.114931 1_555
Cu0 O5 1.953537 1_655
Cu0 O5 1.953537 1_554
Cu0 O4 1.953537 1_565
Cu0 O4 1.953537 1_554
O0 Tl0 2.074599 1_555
O1 Tl1 2.074599 1_555
O2 Tl1 2.024065 1_555
O3 Tl0 2.024065 1_555
