# generated using pymatgen
data_ZnGaNO
_symmetry_space_group_name_H-M   'P 1'
_cell_length_a   6.53030100
_cell_length_b   6.52985922
_cell_length_c   10.57084064
_cell_angle_alpha   89.98598178
_cell_angle_beta   90.12796496
_cell_angle_gamma   119.84910347
_symmetry_Int_Tables_number   1
_chemical_formula_structural   ZnGaNO
_chemical_formula_sum   'Zn8 Ga8 N8 O8'
_cell_volume   390.96171267
_cell_formula_units_Z   8
loop_
 _symmetry_equiv_pos_site_id
 _symmetry_equiv_pos_as_xyz
  1  'x, y, z'
loop_
 _atom_site_type_symbol
 _atom_site_label
 _atom_site_symmetry_multiplicity
 _atom_site_fract_x
 _atom_site_fract_y
 _atom_site_fract_z
 _atom_site_occupancy
  Zn  Zn0  1  0.67111700  0.84370700  0.26169200  1
  Zn  Zn1  1  0.16719500  0.83311800  0.26208600  1
  Zn  Zn2  1  0.83852300  0.66113200  0.51036700  1
  Zn  Zn3  1  0.15671200  0.32850200  0.26455800  1
  Zn  Zn4  1  0.82721600  0.65461600  0.99882600  1
  Zn  Zn5  1  0.33361000  0.16817100  0.51096300  1
  Zn  Zn6  1  0.66135200  0.83980900  0.74684400  1
  Zn  Zn7  1  0.32210200  0.66061200  0.50633500  1
  Ga  Ga0  1  0.33415900  0.66960300  0.99205000  1
  Ga  Ga1  1  0.67023100  0.32614400  0.25255700  1
  Ga  Ga2  1  0.34611200  0.17142000  0.99491400  1
  Ga  Ga3  1  0.66516700  0.32372800  0.74393700  1
  Ga  Ga4  1  0.16302800  0.33252500  0.74529600  1
  Ga  Ga5  1  0.17501600  0.83578800  0.74149200  1
  Ga  Ga6  1  0.82522100  0.17174600  0.99395000  1
  Ga  Ga7  1  0.83839000  0.17746800  0.50315600  1
  N  N0  1  0.82809300  0.17151800  0.31695100  1
  N  N1  1  0.16769500  0.83588500  0.56361100  1
  N  N2  1  0.66878400  0.32766500  0.56505800  1
  N  N3  1  0.32329500  0.66029600  0.81386200  1
  N  N4  1  0.83907100  0.17541600  0.81547400  1
  N  N5  1  0.15744300  0.32738300  0.56449200  1
  N  N6  1  0.66157200  0.32365800  0.06634700  1
  N  N7  1  0.33297300  0.16707200  0.81401200  1
  O  O0  1  0.33522000  0.66543400  0.30345100  1
  O  O1  1  0.17973300  0.84079700  0.05669800  1
  O  O2  1  0.67333100  0.84600800  0.55560200  1
  O  O3  1  0.34640700  0.17482100  0.30126700  1
  O  O4  1  0.16821000  0.33370600  0.05444700  1
  O  O5  1  0.83912200  0.66071800  0.80835800  1
  O  O6  1  0.65952600  0.83920500  0.05419600  1
  O  O7  1  0.82437100  0.65232900  0.30116600  1
loop_
_geom_bond_atom_site_label_1
_geom_bond_atom_site_label_2
_geom_bond_distance
_geom_bond_site_symmetry_2
Ga0 N3 1.884630 1_555
Ga0 O6 1.955599 1_556
Ga0 O1 1.964496 1_556
Ga0 O4 2.014121 1_556
Ga1 N0 1.891611 1_555
Ga1 O3 1.907338 1_555
Ga1 O7 1.917796 1_555
Ga1 N6 1.968921 1_555
Ga2 N7 1.913603 1_555
Ga2 N6 1.938323 1_556
Ga2 O1 1.983808 1_546
Ga2 O4 2.024295 1_556
Ga3 N2 1.891110 1_555
Ga3 N4 1.972322 1_555
Ga3 N7 2.024585 1_555
Ga3 O5 2.026165 1_555
Ga4 N5 1.911501 1_555
Ga4 N4 1.981038 1_455
Ga4 N3 1.992271 1_555
Ga4 N7 2.028805 1_555
Ga5 N1 1.880861 1_555
Ga5 N3 1.984150 1_555
Ga5 N7 2.026659 1_565
Ga5 O5 2.031819 1_455
Ga6 N4 1.888585 1_555
Ga6 N6 1.941911 1_556
Ga6 O6 1.988744 1_546
Ga6 O4 2.044553 1_656
Ga7 N5 1.919294 1_655
Ga7 N2 1.923975 1_555
Ga7 O2 1.957942 1_545
Ga7 N0 1.969074 1_555
N0 Zn3 1.943716 1_655
N0 Zn0 1.946203 1_545
N1 Zn2 1.947523 1_455
N1 Zn7 1.960874 1_555
N1 Zn5 1.963040 1_565
N2 Zn2 1.975852 1_555
N2 Zn5 1.981915 1_555
N3 Zn6 2.044535 1_555
N4 Zn6 2.034955 1_545
N5 Zn5 1.979455 1_555
N5 Zn7 1.985475 1_555
N6 Zn4 2.006391 1_554
O0 Zn1 1.946193 1_555
O0 Zn3 1.952880 1_555
O0 Zn0 1.955437 1_555
O0 Zn7 2.146154 1_555
O1 Zn4 2.088021 1_454
O1 Zn1 2.172476 1_555
O2 Zn6 2.022892 1_555
O2 Zn2 2.036824 1_555
O2 Zn7 2.056332 1_555
O3 Zn1 1.979563 1_545
O3 Zn3 1.981734 1_555
O3 Zn5 2.218024 1_555
O4 Zn3 2.222166 1_555
O5 Zn4 2.014700 1_555
O5 Zn6 2.117956 1_555
O6 Zn4 2.076466 1_554
O6 Zn0 2.194243 1_555
O7 Zn1 1.987294 1_655
O7 Zn0 1.995049 1_555
O7 Zn2 2.212720 1_555
