# generated using pymatgen
data_Gd2O3
_symmetry_space_group_name_H-M   'P 1'
_cell_length_a   9.35828283
_cell_length_b   9.35828202
_cell_length_c   9.35828377
_cell_angle_alpha   109.47122002
_cell_angle_beta   109.47121824
_cell_angle_gamma   109.47122161
_symmetry_Int_Tables_number   1
_chemical_formula_structural   Gd2O3
_chemical_formula_sum   'Gd16 O24'
_cell_volume   630.90885906
_cell_formula_units_Z   8
loop_
 _symmetry_equiv_pos_site_id
 _symmetry_equiv_pos_as_xyz
  1  'x, y, z'
loop_
 _atom_site_type_symbol
 _atom_site_label
 _atom_site_symmetry_multiplicity
 _atom_site_fract_x
 _atom_site_fract_y
 _atom_site_fract_z
 _atom_site_occupancy
  Gd  Gd0  1  0.50000000  0.50000000  0.50000000  1
  Gd  Gd1  1  0.00000000  0.00000000  0.50000000  1
  Gd  Gd2  1  0.50000000  0.00000000  0.00000000  1
  Gd  Gd3  1  0.00000000  0.50000000  0.00000000  1
  Gd  Gd4  1  0.25000000  0.21830590  0.96830590  1
  Gd  Gd5  1  0.28169410  0.53169410  0.75000000  1
  Gd  Gd6  1  0.53169410  0.75000000  0.28169410  1
  Gd  Gd7  1  0.21830590  0.96830590  0.25000000  1
  Gd  Gd8  1  0.96830590  0.25000000  0.21830590  1
  Gd  Gd9  1  0.75000000  0.28169410  0.53169410  1
  Gd  Gd10  1  0.75000000  0.78169410  0.03169410  1
  Gd  Gd11  1  0.71830590  0.46830590  0.25000000  1
  Gd  Gd12  1  0.46830590  0.25000000  0.71830590  1
  Gd  Gd13  1  0.78169410  0.03169410  0.75000000  1
  Gd  Gd14  1  0.03169410  0.75000000  0.78169410  1
  Gd  Gd15  1  0.25000000  0.71830590  0.46830590  1
  O  O0  1  0.53029573  0.77013979  0.54156195  1
  O  O1  1  0.98873378  0.95843805  0.72857784  1
  O  O2  1  0.26015494  0.77142216  0.72986021  1
  O  O3  1  0.51126622  0.23984506  0.96970427  1
  O  O4  1  0.95843805  0.72857784  0.98873378  1
  O  O5  1  0.72986021  0.26015494  0.77142216  1
  O  O6  1  0.23984506  0.96970427  0.51126622  1
  O  O7  1  0.54156195  0.53029573  0.77013979  1
  O  O8  1  0.77013979  0.54156195  0.53029573  1
  O  O9  1  0.72857784  0.98873378  0.95843805  1
  O  O10  1  0.77142216  0.72986021  0.26015494  1
  O  O11  1  0.96970427  0.51126622  0.23984506  1
  O  O12  1  0.46970427  0.22986021  0.45843805  1
  O  O13  1  0.01126622  0.04156195  0.27142216  1
  O  O14  1  0.73984506  0.22857784  0.27013979  1
  O  O15  1  0.48873378  0.76015494  0.03029573  1
  O  O16  1  0.04156195  0.27142216  0.01126622  1
  O  O17  1  0.27013979  0.73984506  0.22857784  1
  O  O18  1  0.76015494  0.03029573  0.48873378  1
  O  O19  1  0.45843805  0.46970427  0.22986021  1
  O  O20  1  0.22986021  0.45843805  0.46970427  1
  O  O21  1  0.27142216  0.01126622  0.04156195  1
  O  O22  1  0.22857784  0.27013979  0.73984506  1
  O  O23  1  0.03029573  0.48873378  0.76015494  1
loop_
_geom_bond_atom_site_label_1
_geom_bond_atom_site_label_2
_geom_bond_distance
_geom_bond_site_symmetry_2
Gd0 O0 2.327189 1_555
Gd0 O12 2.327189 1_555
Gd0 O20 2.327189 1_555
Gd0 O8 2.327189 1_555
Gd0 O19 2.327189 1_555
Gd0 O7 2.327189 1_555
Gd1 O13 2.327189 1_555
Gd1 O1 2.327189 1_445
Gd1 O22 2.327192 1_555
Gd1 O10 2.327192 1_445
Gd1 O6 2.327198 1_545
Gd1 O18 2.327198 1_455
Gd2 O21 2.327189 1_555
Gd2 O9 2.327189 1_544
Gd2 O14 2.327192 1_555
Gd2 O2 2.327192 1_544
Gd2 O3 2.327198 1_554
Gd2 O15 2.327198 1_545
Gd3 O16 2.327189 1_555
Gd3 O4 2.327189 1_454
Gd3 O5 2.327192 1_454
Gd3 O17 2.327192 1_555
Gd3 O11 2.327199 1_455
Gd3 O23 2.327199 1_554
Gd4 O16 2.291208 1_556
Gd4 O19 2.291208 1_556
Gd4 O22 2.305867 1_555
Gd4 O21 2.305875 1_556
Gd4 O3 2.380587 1_555
Gd4 O1 2.380589 1_445
Gd5 O23 2.291204 1_555
Gd5 O22 2.291212 1_555
Gd5 O15 2.305873 1_556
Gd5 O20 2.305876 1_555
Gd5 O7 2.380589 1_555
Gd5 O2 2.380593 1_555
Gd6 O15 2.291204 1_555
Gd6 O17 2.291212 1_555
Gd6 O18 2.305873 1_565
Gd6 O19 2.305875 1_555
Gd6 O0 2.380590 1_555
Gd6 O10 2.380593 1_555
Gd7 O12 2.291208 1_565
Gd7 O21 2.291208 1_565
Gd7 O17 2.305866 1_555
Gd7 O13 2.305876 1_565
Gd7 O6 2.380587 1_555
Gd7 O4 2.380589 1_454
Gd8 O13 2.291208 1_655
Gd8 O20 2.291208 1_655
Gd8 O14 2.305867 1_555
Gd8 O16 2.305876 1_655
Gd8 O11 2.380587 1_555
Gd8 O9 2.380589 1_544
Gd9 O18 2.291204 1_555
Gd9 O14 2.291212 1_555
Gd9 O23 2.305873 1_655
Gd9 O12 2.305876 1_555
Gd9 O8 2.380589 1_555
Gd9 O5 2.380593 1_555
Gd10 O4 2.291208 1_554
Gd10 O7 2.291208 1_554
Gd10 O10 2.305867 1_555
Gd10 O9 2.305875 1_554
Gd10 O15 2.380587 1_555
Gd10 O13 2.380589 1_665
Gd11 O11 2.291204 1_555
Gd11 O10 2.291212 1_555
Gd11 O3 2.305873 1_554
Gd11 O8 2.305876 1_555
Gd11 O19 2.380589 1_555
Gd11 O14 2.380593 1_555
Gd12 O3 2.291204 1_555
Gd12 O5 2.291212 1_555
Gd12 O6 2.305873 1_545
Gd12 O7 2.305875 1_555
Gd12 O12 2.380590 1_555
Gd12 O22 2.380593 1_555
Gd13 O0 2.291208 1_545
Gd13 O9 2.291208 1_545
Gd13 O5 2.305866 1_555
Gd13 O1 2.305876 1_545
Gd13 O18 2.380587 1_555
Gd13 O16 2.380589 1_656
Gd14 O1 2.291208 1_455
Gd14 O8 2.291208 1_455
Gd14 O2 2.305867 1_555
Gd14 O4 2.305876 1_455
Gd14 O23 2.380587 1_555
Gd14 O21 2.380589 1_566
Gd15 O6 2.291204 1_555
Gd15 O2 2.291212 1_555
Gd15 O11 2.305873 1_455
Gd15 O0 2.305876 1_555
Gd15 O20 2.380589 1_555
Gd15 O17 2.380593 1_555
