# generated using pymatgen
data_NaB3O5
_symmetry_space_group_name_H-M   'P 1'
_cell_length_a   11.13461400
_cell_length_b   9.15741600
_cell_length_c   12.23167403
_cell_angle_alpha   89.19074701
_cell_angle_beta   90.00000000
_cell_angle_gamma   90.00000000
_symmetry_Int_Tables_number   1
_chemical_formula_structural   NaB3O5
_chemical_formula_sum   'Na12 B36 O60'
_cell_volume   1247.06958781
_cell_formula_units_Z   12
loop_
 _symmetry_equiv_pos_site_id
 _symmetry_equiv_pos_as_xyz
  1  'x, y, z'
loop_
 _atom_site_type_symbol
 _atom_site_label
 _atom_site_symmetry_multiplicity
 _atom_site_fract_x
 _atom_site_fract_y
 _atom_site_fract_z
 _atom_site_occupancy
  Na  Na0  1  0.36934600  0.10066600  0.56418800  1
  Na  Na1  1  0.63065400  0.89933400  0.43581200  1
  Na  Na2  1  0.33877000  0.55898300  0.78546000  1
  Na  Na3  1  0.13065400  0.10066600  0.06418800  1
  Na  Na4  1  0.86934600  0.89933400  0.93581200  1
  Na  Na5  1  0.40613800  0.88767600  0.92091400  1
  Na  Na6  1  0.66123000  0.44101700  0.21454000  1
  Na  Na7  1  0.16123000  0.55898300  0.28546000  1
  Na  Na8  1  0.90613800  0.11232400  0.57908600  1
  Na  Na9  1  0.83877000  0.44101700  0.71454000  1
  Na  Na10  1  0.59386200  0.11232400  0.07908600  1
  Na  Na11  1  0.09386200  0.88767600  0.42091400  1
  B  B0  1  0.32876800  0.85855800  0.14224800  1
  B  B1  1  0.45876600  0.21520700  0.34693300  1
  B  B2  1  0.62056300  0.70396800  0.83526100  1
  B  B3  1  0.34257200  0.74862000  0.53684700  1
  B  B4  1  0.39799300  0.35487500  0.96541800  1
  B  B5  1  0.25817200  0.14101600  0.28881500  1
  B  B6  1  0.22036100  0.51369900  0.58175700  1
  B  B7  1  0.82876800  0.14144200  0.35775200  1
  B  B8  1  0.60200700  0.64512500  0.03458200  1
  B  B9  1  0.37943700  0.29603200  0.16473900  1
  B  B10  1  0.45907600  0.18002700  0.81273000  1
  B  B11  1  0.89799300  0.64512500  0.53458200  1
  B  B12  1  0.61823000  0.22361700  0.67449500  1
  B  B13  1  0.15742800  0.74862000  0.03684700  1
  B  B14  1  0.12056300  0.29603200  0.66473900  1
  B  B15  1  0.04123400  0.21520700  0.84693300  1
  B  B16  1  0.04092400  0.18002700  0.31273000  1
  B  B17  1  0.87943700  0.70396800  0.33526100  1
  B  B18  1  0.74182800  0.85898400  0.71118500  1
  B  B19  1  0.27963900  0.51369900  0.08175700  1
  B  B20  1  0.54123400  0.78479300  0.65306700  1
  B  B21  1  0.54092400  0.81997300  0.18727000  1
  B  B22  1  0.65742800  0.25138000  0.46315300  1
  B  B23  1  0.88177000  0.22361700  0.17449500  1
  B  B24  1  0.77963900  0.48630100  0.41824300  1
  B  B25  1  0.10200700  0.35487500  0.46541800  1
  B  B26  1  0.75817200  0.85898400  0.21118500  1
  B  B27  1  0.72036100  0.48630100  0.91824300  1
  B  B28  1  0.38177000  0.77638300  0.32550500  1
  B  B29  1  0.17123200  0.85855800  0.64224800  1
  B  B30  1  0.84257200  0.25138000  0.96315300  1
  B  B31  1  0.24182800  0.14101600  0.78881500  1
  B  B32  1  0.95907600  0.81997300  0.68727000  1
  B  B33  1  0.11823000  0.77638300  0.82550500  1
  B  B34  1  0.95876600  0.78479300  0.15306700  1
  B  B35  1  0.67123200  0.14144200  0.85775200  1
  O  O0  1  0.52116500  0.71926900  0.75323700  1
  O  O1  1  0.42759100  0.32514000  0.85969000  1
  O  O2  1  0.49888300  0.20393700  0.69779700  1
  O  O3  1  0.44673700  0.89349100  0.12100700  1
  O  O4  1  0.66486100  0.27447300  0.57971800  1
  O  O5  1  0.00111700  0.20393700  0.19779700  1
  O  O6  1  0.06809900  0.27368900  0.55527400  1
  O  O7  1  0.83513900  0.27447300  0.07971800  1
  O  O8  1  0.92759100  0.67486000  0.64031000  1
  O  O9  1  0.84522700  0.84765900  0.12956100  1
  O  O10  1  0.15477300  0.15234100  0.87043900  1
  O  O11  1  0.21491400  0.18329300  0.68415800  1
  O  O12  1  0.17342600  0.48063200  0.47853800  1
  O  O13  1  0.94673700  0.10650900  0.37899300  1
  O  O14  1  0.53696800  0.19914400  0.43152600  1
  O  O15  1  0.31975000  0.43911800  0.17292200  1
  O  O16  1  0.57240900  0.67486000  0.14031000  1
  O  O17  1  0.97883500  0.71926900  0.25323700  1
  O  O18  1  0.96303200  0.19914400  0.93152600  1
  O  O19  1  0.16486100  0.72552700  0.92028200  1
  O  O20  1  0.29491700  0.80573000  0.24463000  1
  O  O21  1  0.56809900  0.72631100  0.94472600  1
  O  O22  1  0.69227900  0.38423200  0.40314000  1
  O  O23  1  0.33513900  0.72552700  0.42028200  1
  O  O24  1  0.25391500  0.87104200  0.55974200  1
  O  O25  1  0.34522700  0.15234100  0.37043900  1
  O  O26  1  0.47883500  0.28073100  0.24676300  1
  O  O27  1  0.74608500  0.12895800  0.44025800  1
  O  O28  1  0.50111700  0.79606300  0.30220300  1
  O  O29  1  0.05326300  0.89349100  0.62100700  1
  O  O30  1  0.46303200  0.80085600  0.56847400  1
  O  O31  1  0.70508300  0.19427000  0.75537000  1
  O  O32  1  0.64772900  0.91465800  0.18355900  1
  O  O33  1  0.02116500  0.28073100  0.74676300  1
  O  O34  1  0.75391500  0.12895800  0.94025800  1
  O  O35  1  0.43190100  0.27368900  0.05527400  1
  O  O36  1  0.65477300  0.84765900  0.62956100  1
  O  O37  1  0.81975000  0.56088200  0.32707800  1
  O  O38  1  0.55326300  0.10650900  0.87899300  1
  O  O39  1  0.68025000  0.56088200  0.82707800  1
  O  O40  1  0.35227100  0.08534200  0.81644100  1
  O  O41  1  0.20508300  0.80573000  0.74463000  1
  O  O42  1  0.30772100  0.61576800  0.59686000  1
  O  O43  1  0.03696800  0.80085600  0.06847400  1
  O  O44  1  0.78508600  0.81670700  0.31584200  1
  O  O45  1  0.85227100  0.91465800  0.68355900  1
  O  O46  1  0.99888300  0.79606300  0.80220300  1
  O  O47  1  0.18025000  0.43911800  0.67292200  1
  O  O48  1  0.71491400  0.81670700  0.81584200  1
  O  O49  1  0.28508600  0.18329300  0.18415800  1
  O  O50  1  0.67342600  0.51936800  0.02146200  1
  O  O51  1  0.32657400  0.48063200  0.97853800  1
  O  O52  1  0.82657400  0.51936800  0.52146200  1
  O  O53  1  0.80772100  0.38423200  0.90314000  1
  O  O54  1  0.14772900  0.08534200  0.31644100  1
  O  O55  1  0.07240900  0.32514000  0.35969000  1
  O  O56  1  0.24608500  0.87104200  0.05974200  1
  O  O57  1  0.19227900  0.61576800  0.09686000  1
  O  O58  1  0.79491700  0.19427000  0.25537000  1
  O  O59  1  0.93190100  0.72631100  0.44472600  1
loop_
_geom_bond_atom_site_label_1
_geom_bond_atom_site_label_2
_geom_bond_distance
_geom_bond_site_symmetry_2
Na0 O2 2.385197 1_555
Na0 O11 2.390411 1_555
Na0 O25 2.425011 1_555
Na0 O24 2.465713 1_545
Na0 O14 2.624590 1_555
Na0 O30 2.936758 1_545
Na1 O28 2.385197 1_555
Na1 O44 2.390411 1_555
Na1 O36 2.425011 1_555
Na1 O27 2.465713 1_565
Na1 O30 2.624590 1_555
Na1 O14 2.936758 1_565
Na2 O42 2.382813 1_555
Na2 O51 2.462284 1_555
Na2 O47 2.501557 1_555
Na2 O1 2.516574 1_555
Na2 O0 2.533378 1_555
Na2 O41 2.745718 1_555
Na2 O19 2.977620 1_555
Na3 O5 2.385197 1_555
Na3 O49 2.390411 1_555
Na3 O10 2.425011 1_554
Na3 O56 2.465713 1_545
Na3 O18 2.624590 1_454
Na3 O43 2.936758 1_545
Na4 O46 2.385197 1_555
Na4 O48 2.390411 1_555
Na4 O9 2.425011 1_556
Na4 O34 2.465713 1_565
Na4 O43 2.624590 1_656
Na4 O18 2.936758 1_565
Na5 O40 2.281202 1_565
Na5 O21 2.346995 1_555
Na5 O56 2.464836 1_556
Na5 O3 2.490179 1_556
Na5 O38 2.633122 1_565
Na5 O0 2.883491 1_555
Na6 O22 2.382813 1_555
Na6 O50 2.462284 1_555
Na6 O37 2.501557 1_555
Na6 O16 2.516574 1_555
Na6 O26 2.533378 1_555
Na6 O58 2.745718 1_555
Na6 O7 2.977620 1_555
Na7 O57 2.382813 1_555
Na7 O12 2.462284 1_555
Na7 O15 2.501557 1_555
Na7 O55 2.516574 1_555
Na7 O17 2.533378 1_455
Na7 O20 2.745718 1_555
Na7 O23 2.977620 1_555
Na8 O45 2.281202 1_545
Na8 O6 2.346995 1_655
Na8 O27 2.464836 1_555
Na8 O13 2.490179 1_555
Na8 O29 2.633122 1_645
Na8 O33 2.883491 1_655
Na9 O53 2.382813 1_555
Na9 O52 2.462284 1_555
Na9 O39 2.501557 1_555
Na9 O8 2.516574 1_555
Na9 O33 2.533378 1_655
Na9 O31 2.745718 1_555
Na9 O4 2.977620 1_555
Na10 O32 2.281202 1_545
Na10 O35 2.346995 1_555
Na10 O34 2.464836 1_554
Na10 O38 2.490179 1_554
Na10 O3 2.633122 1_545
Na10 O26 2.883491 1_555
Na11 O54 2.281202 1_565
Na11 O59 2.346995 1_455
Na11 O24 2.464836 1_555
Na11 O29 2.490179 1_555
Na11 O13 2.633122 1_465
Na11 O17 2.883491 1_455
B0 O56 1.369617 1_555
B0 O3 1.375818 1_555
B0 O20 1.388254 1_555
B1 O14 1.358740 1_555
B1 O26 1.374931 1_555
B1 O25 1.416914 1_555
B2 O39 1.473868 1_555
B2 O21 1.477705 1_555
B2 O48 1.489637 1_555
B2 O0 1.499056 1_555
B3 O23 1.446703 1_555
B3 O42 1.464333 1_555
B3 O30 1.477402 1_555
B3 O24 1.522687 1_555
B4 O1 1.365704 1_555
B4 O35 1.371199 1_556
B4 O51 1.410517 1_555
B5 O49 1.365439 1_555
B5 O54 1.371680 1_555
B5 O25 1.396448 1_555
B6 O42 1.363389 1_555
B6 O47 1.373992 1_555
B6 O12 1.403430 1_555
B7 O27 1.369617 1_555
B7 O13 1.375818 1_555
B7 O58 1.388254 1_555
B8 O16 1.365704 1_555
B8 O21 1.371199 1_554
B8 O50 1.410517 1_555
B9 O15 1.473868 1_555
B9 O35 1.477705 1_555
B9 O49 1.489637 1_555
B9 O26 1.499056 1_555
B10 O40 1.472084 1_555
B10 O38 1.481419 1_555
B10 O2 1.487294 1_555
B10 O1 1.496752 1_555
B11 O8 1.365704 1_555
B11 O59 1.371199 1_555
B11 O52 1.410517 1_555
B12 O4 1.347277 1_555
B12 O2 1.370472 1_555
B12 O31 1.406604 1_555
B13 O19 1.446703 1_554
B13 O57 1.464333 1_555
B13 O43 1.477402 1_555
B13 O56 1.522687 1_555
B14 O47 1.473868 1_555
B14 O6 1.477705 1_555
B14 O11 1.489637 1_555
B14 O33 1.499056 1_555
B15 O18 1.358740 1_455
B15 O33 1.374931 1_555
B15 O10 1.416914 1_555
B16 O54 1.472084 1_555
B16 O13 1.481419 1_455
B16 O5 1.487294 1_555
B16 O55 1.496752 1_555
B17 O37 1.473868 1_555
B17 O59 1.477705 1_555
B17 O44 1.489637 1_555
B17 O17 1.499056 1_555
B18 O48 1.365439 1_555
B18 O45 1.371680 1_555
B18 O36 1.396448 1_555
B19 O57 1.363389 1_555
B19 O15 1.373992 1_555
B19 O51 1.403430 1_554
B20 O30 1.358740 1_555
B20 O0 1.374931 1_555
B20 O36 1.416914 1_555
B21 O32 1.472084 1_555
B21 O3 1.481419 1_555
B21 O28 1.487294 1_555
B21 O16 1.496752 1_555
B22 O4 1.446703 1_555
B22 O22 1.464333 1_555
B22 O14 1.477402 1_555
B22 O27 1.522687 1_555
B23 O7 1.347277 1_555
B23 O5 1.370472 1_655
B23 O58 1.406604 1_555
B24 O22 1.363389 1_555
B24 O37 1.373992 1_555
B24 O52 1.403430 1_555
B25 O55 1.365704 1_555
B25 O6 1.371199 1_555
B25 O12 1.410517 1_555
B26 O44 1.365439 1_555
B26 O32 1.371680 1_555
B26 O9 1.396448 1_555
B27 O53 1.363389 1_555
B27 O39 1.373992 1_555
B27 O50 1.403430 1_556
B28 O23 1.347277 1_555
B28 O28 1.370472 1_555
B28 O20 1.406604 1_555
B29 O24 1.369617 1_555
B29 O29 1.375818 1_555
B29 O41 1.388254 1_555
B30 O7 1.446703 1_556
B30 O53 1.464333 1_555
B30 O18 1.477402 1_555
B30 O34 1.522687 1_555
B31 O11 1.365439 1_555
B31 O40 1.371680 1_555
B31 O10 1.396448 1_555
B32 O45 1.472084 1_555
B32 O29 1.481419 1_655
B32 O46 1.487294 1_555
B32 O8 1.496752 1_555
B33 O19 1.347277 1_555
B33 O46 1.370472 1_455
B33 O41 1.406604 1_555
B34 O43 1.358740 1_655
B34 O17 1.374931 1_555
B34 O9 1.416914 1_555
B35 O34 1.369617 1_555
B35 O38 1.375818 1_555
B35 O31 1.388254 1_555
