# generated using pymatgen
data_V2Cd(PO5)2
_symmetry_space_group_name_H-M   'P 1'
_cell_length_a   9.97730162
_cell_length_b   8.89397148
_cell_length_c   6.84780812
_cell_angle_alpha   77.45928990
_cell_angle_beta   60.47642340
_cell_angle_gamma   42.06428670
_symmetry_Int_Tables_number   1
_chemical_formula_structural   V2Cd(PO5)2
_chemical_formula_sum   'V4 Cd2 P4 O20'
_cell_volume   342.52947147
_cell_formula_units_Z   2
loop_
 _symmetry_equiv_pos_site_id
 _symmetry_equiv_pos_as_xyz
  1  'x, y, z'
loop_
 _atom_site_type_symbol
 _atom_site_label
 _atom_site_symmetry_multiplicity
 _atom_site_fract_x
 _atom_site_fract_y
 _atom_site_fract_z
 _atom_site_occupancy
  V  V0  1  0.63505300  0.62523000  0.09363400  1
  V  V1  1  0.15636600  0.60391700  0.61494700  1
  V  V2  1  0.64608300  0.09363400  0.62523000  1
  V  V3  1  0.62477000  0.61494700  0.60391700  1
  Cd  Cd0  1  0.00061100  0.99938900  0.99938900  1
  Cd  Cd1  1  0.25061100  0.24938900  0.24938900  1
  P  P0  1  0.79715400  0.78617800  0.20204200  1
  P  P1  1  0.04795800  0.03537400  0.45284600  1
  P  P2  1  0.21462600  0.20204200  0.78617800  1
  P  P3  1  0.46382200  0.45284600  0.03537400  1
  O  O0  1  0.86783800  0.59877600  0.34448900  1
  O  O1  1  0.39006600  0.63896600  0.89110000  1
  O  O2  1  0.35890000  0.17013200  0.85993400  1
  O  O3  1  0.97368000  0.33272900  0.99735900  1
  O  O4  1  0.33519900  0.96530200  0.69035800  1
  O  O5  1  0.91727100  0.27632000  0.55376800  1
  O  O6  1  0.67295800  0.65926600  0.82338300  1
  O  O7  1  0.65122400  0.38216200  0.06110200  1
  O  O8  1  0.84439400  0.82338300  0.65926600  1
  O  O9  1  0.69623200  0.99735900  0.33272900  1
  O  O10  1  0.25264100  0.55376800  0.27632000  1
  O  O11  1  0.59073400  0.57704200  0.40560600  1
  O  O12  1  0.18889800  0.34448900  0.59877600  1
  O  O13  1  0.90551100  0.06110200  0.38216200  1
  O  O14  1  0.55964200  0.24085900  0.91480100  1
  O  O15  1  0.42661700  0.40560600  0.57704200  1
  O  O16  1  0.07986800  0.89110000  0.63896600  1
  O  O17  1  0.00914100  0.69035800  0.96530200  1
  O  O18  1  0.61103400  0.85993400  0.17013200  1
  O  O19  1  0.28469800  0.91480100  0.24085900  1
loop_
_geom_bond_atom_site_label_1
_geom_bond_atom_site_label_2
_geom_bond_distance
_geom_bond_site_symmetry_2
Cd0 O13 2.339309 1_466
Cd0 O7 2.339313 1_466
Cd0 O1 2.371161 1_555
Cd0 O16 2.371161 1_555
Cd1 O0 2.339311 1_455
Cd1 O12 2.339316 1_555
Cd1 O2 2.371161 1_554
Cd1 O18 2.371161 1_545
O0 P0 1.566385 1_555
O0 V3 2.098817 1_555
O1 P3 1.566972 1_556
O1 V3 2.073084 1_555
O2 P2 1.566972 1_555
O2 V2 2.073084 1_555
O3 P2 1.541523 1_655
O3 V0 2.028906 1_556
O4 P2 1.540196 1_565
O4 V3 2.038551 1_555
O5 P1 1.541523 1_655
O5 V3 2.028906 1_555
O6 V0 1.701882 1_556
O6 V3 1.973799 1_555
O7 P3 1.566381 1_555
O7 V0 2.098819 1_555
O8 V2 1.701884 1_565
O8 V1 1.973791 1_655
O9 P0 1.541523 1_555
O9 V2 2.028906 1_565
O10 P3 1.541523 1_555
O10 V1 2.028906 1_555
O11 V3 1.701889 1_555
O11 V0 1.973792 1_555
O12 P2 1.566386 1_555
O12 V1 2.098810 1_555
O13 P1 1.566391 1_655
O13 V2 2.098811 1_555
O14 P3 1.540196 1_556
O14 V2 2.038551 1_555
O15 V1 1.701881 1_555
O15 V2 1.973794 1_555
O16 P1 1.566972 1_565
O16 V1 2.073084 1_555
O17 P0 1.540196 1_456
O17 V1 2.038551 1_555
O18 P0 1.566972 1_555
O18 V0 2.073084 1_555
O19 P1 1.540196 1_565
O19 V0 2.038551 1_555
