# generated using pymatgen
data_Cs2SO4
_symmetry_space_group_name_H-M   'P 1'
_cell_length_a   6.25042772
_cell_length_b   8.25399657
_cell_length_c   10.94331742
_cell_angle_alpha   90.00000000
_cell_angle_beta   90.00000000
_cell_angle_gamma   90.00000000
_symmetry_Int_Tables_number   1
_chemical_formula_structural   Cs2SO4
_chemical_formula_sum   'Cs8 S4 O16'
_cell_volume   564.57678709
_cell_formula_units_Z   4
loop_
 _symmetry_equiv_pos_site_id
 _symmetry_equiv_pos_as_xyz
  1  'x, y, z'
loop_
 _atom_site_type_symbol
 _atom_site_label
 _atom_site_symmetry_multiplicity
 _atom_site_fract_x
 _atom_site_fract_y
 _atom_site_fract_z
 _atom_site_occupancy
  Cs  Cs0  1  0.75000000  0.82533637  0.09082497  1
  Cs  Cs1  1  0.25000000  0.17466363  0.90917503  1
  Cs  Cs2  1  0.75000000  0.32533637  0.40917503  1
  Cs  Cs3  1  0.25000000  0.67466363  0.59082497  1
  Cs  Cs4  1  0.25000000  0.48911850  0.19868953  1
  Cs  Cs5  1  0.75000000  0.51088150  0.80131047  1
  Cs  Cs6  1  0.25000000  0.98911850  0.30131047  1
  Cs  Cs7  1  0.75000000  0.01088150  0.69868953  1
  S  S0  1  0.75000000  0.25824404  0.08349279  1
  S  S1  1  0.25000000  0.74175596  0.91650721  1
  S  S2  1  0.75000000  0.75824404  0.41650721  1
  S  S3  1  0.25000000  0.24175596  0.58349279  1
  O  O0  1  0.75000000  0.43719492  0.08718472  1
  O  O1  1  0.25000000  0.56280508  0.91281528  1
  O  O2  1  0.75000000  0.93719492  0.41281528  1
  O  O3  1  0.25000000  0.06280508  0.58718472  1
  O  O4  1  0.75000000  0.20033902  0.95489158  1
  O  O5  1  0.25000000  0.79966098  0.04510842  1
  O  O6  1  0.75000000  0.70033902  0.54510842  1
  O  O7  1  0.25000000  0.29966098  0.45489158  1
  O  O8  1  0.55639801  0.19524905  0.14600913  1
  O  O9  1  0.05639801  0.80475095  0.85399087  1
  O  O10  1  0.94360199  0.69524905  0.35399087  1
  O  O11  1  0.44360199  0.30475095  0.64600913  1
  O  O12  1  0.44360199  0.80475095  0.85399087  1
  O  O13  1  0.94360199  0.19524905  0.14600913  1
  O  O14  1  0.05639801  0.30475095  0.64600913  1
  O  O15  1  0.55639801  0.69524905  0.35399087  1
loop_
_geom_bond_atom_site_label_1
_geom_bond_atom_site_label_2
_geom_bond_distance
_geom_bond_site_symmetry_2
Cs0 O5 3.172092 1_555
Cs0 O5 3.172092 1_655
Cs0 O0 3.203966 1_555
Cs0 O9 3.227030 1_654
Cs0 O12 3.227030 1_554
Cs0 O15 3.303198 1_555
Cs0 O10 3.303198 1_555
Cs0 O8 3.339372 1_565
Cs0 O13 3.339372 1_565
Cs0 O4 3.434173 1_564
Cs0 O2 3.642595 1_555
Cs1 O4 3.172092 1_555
Cs1 O4 3.172092 1_455
Cs1 O1 3.203966 1_555
Cs1 O8 3.227030 1_556
Cs1 O13 3.227030 1_456
Cs1 O14 3.303198 1_555
Cs1 O11 3.303198 1_555
Cs1 O9 3.339372 1_545
Cs1 O12 3.339372 1_545
Cs1 O5 3.434173 1_546
Cs1 O3 3.642595 1_555
Cs2 O7 3.172092 1_655
Cs2 O7 3.172092 1_555
Cs2 O2 3.203966 1_545
Cs2 O14 3.227030 1_655
Cs2 O11 3.227030 1_555
Cs2 O13 3.303198 1_555
Cs2 O8 3.303198 1_555
Cs2 O15 3.339372 1_555
Cs2 O10 3.339372 1_555
Cs2 O6 3.434173 1_555
Cs2 O0 3.642595 1_555
Cs3 O6 3.172092 1_555
Cs3 O6 3.172092 1_455
Cs3 O3 3.203966 1_565
Cs3 O15 3.227030 1_555
Cs3 O10 3.227030 1_455
Cs3 O12 3.303198 1_555
Cs3 O9 3.303198 1_555
Cs3 O11 3.339372 1_555
Cs3 O14 3.339372 1_555
Cs3 O7 3.434173 1_555
Cs3 O1 3.642595 1_555
Cs4 O5 3.065092 1_555
Cs4 O15 3.074213 1_555
Cs4 O10 3.074213 1_455
Cs4 O8 3.143812 1_555
Cs4 O13 3.143812 1_455
Cs4 O1 3.186987 1_554
Cs4 O7 3.210319 1_555
Cs4 O0 3.382249 1_555
Cs4 O0 3.382249 1_455
Cs5 O4 3.065092 1_555
Cs5 O11 3.074213 1_555
Cs5 O14 3.074213 1_655
Cs5 O12 3.143812 1_555
Cs5 O9 3.143812 1_655
Cs5 O0 3.186987 1_556
Cs5 O6 3.210319 1_555
Cs5 O1 3.382249 1_655
Cs5 O1 3.382249 1_555
Cs6 O7 3.065092 1_565
Cs6 O8 3.074213 1_565
Cs6 O13 3.074213 1_465
Cs6 O15 3.143812 1_555
Cs6 O10 3.143812 1_455
Cs6 O3 3.186987 1_565
Cs6 O5 3.210319 1_555
Cs6 O2 3.382249 1_555
Cs6 O2 3.382249 1_455
Cs7 O6 3.065092 1_545
Cs7 O9 3.074213 1_645
Cs7 O12 3.074213 1_545
Cs7 O11 3.143812 1_555
Cs7 O14 3.143812 1_655
Cs7 O2 3.186987 1_545
Cs7 O4 3.210319 1_555
Cs7 O3 3.382249 1_555
Cs7 O3 3.382249 1_655
O0 S0 1.477612 1_555
O1 S1 1.477612 1_555
O2 S2 1.477612 1_555
O3 S3 1.477612 1_555
O4 S0 1.486269 1_556
O5 S1 1.486269 1_554
O6 S2 1.486269 1_555
O7 S3 1.486269 1_555
O8 S0 1.484160 1_555
O9 S1 1.484160 1_555
O10 S2 1.484160 1_555
O11 S3 1.484160 1_555
O12 S1 1.484160 1_555
O13 S0 1.484160 1_555
O14 S3 1.484160 1_555
O15 S2 1.484160 1_555
