# generated using pymatgen
data_CaV4(CuO4)3
_symmetry_space_group_name_H-M   'P 1'
_cell_length_a   6.41600809
_cell_length_b   6.41600809
_cell_length_c   6.41600809
_cell_angle_alpha   109.47122063
_cell_angle_beta   109.47122063
_cell_angle_gamma   109.47122063
_symmetry_Int_Tables_number   1
_chemical_formula_structural   CaV4(CuO4)3
_chemical_formula_sum   'Ca1 V4 Cu3 O12'
_cell_volume   203.31659069
_cell_formula_units_Z   1
loop_
 _symmetry_equiv_pos_site_id
 _symmetry_equiv_pos_as_xyz
  1  'x, y, z'
loop_
 _atom_site_type_symbol
 _atom_site_label
 _atom_site_symmetry_multiplicity
 _atom_site_fract_x
 _atom_site_fract_y
 _atom_site_fract_z
 _atom_site_occupancy
  Ca  Ca0  1  0.00000000  0.00000000  0.00000000  1
  V  V0  1  0.50000000  0.50000000  0.50000000  1
  V  V1  1  0.00000000  0.50000000  0.00000000  1
  V  V2  1  0.00000000  0.00000000  0.50000000  1
  V  V3  1  0.50000000  0.00000000  0.00000000  1
  Cu  Cu0  1  0.50000000  0.50000000  0.00000000  1
  Cu  Cu1  1  0.50000000  0.00000000  0.50000000  1
  Cu  Cu2  1  0.00000000  0.50000000  0.50000000  1
  O  O0  1  0.17961200  0.87736400  0.69775200  1
  O  O1  1  0.17961200  0.48185900  0.30224800  1
  O  O2  1  0.82038800  0.51814100  0.69775200  1
  O  O3  1  0.30224800  0.17961200  0.48185900  1
  O  O4  1  0.87736400  0.69775200  0.17961200  1
  O  O5  1  0.12263600  0.30224800  0.82038800  1
  O  O6  1  0.30224800  0.82038800  0.12263600  1
  O  O7  1  0.48185900  0.30224800  0.17961200  1
  O  O8  1  0.82038800  0.12263600  0.30224800  1
  O  O9  1  0.69775200  0.17961200  0.87736400  1
  O  O10  1  0.69775200  0.82038800  0.51814100  1
  O  O11  1  0.51814100  0.69775200  0.82038800  1
loop_
_geom_bond_atom_site_label_1
_geom_bond_atom_site_label_2
_geom_bond_distance
_geom_bond_site_symmetry_2
Ca0 O3 2.604761 1_555
Ca0 O1 2.604761 1_555
Ca0 O7 2.604761 1_555
Ca0 O10 2.604761 1_444
Ca0 O11 2.604761 1_444
Ca0 O2 2.604761 1_444
Ca0 O6 2.604766 1_545
Ca0 O8 2.604766 1_455
Ca0 O5 2.604766 1_554
Ca0 O9 2.604766 1_454
Ca0 O0 2.604766 1_544
Ca0 O4 2.604766 1_445
Cu0 O4 1.979160 1_555
Cu0 O5 1.979160 1_554
Cu0 O11 1.979160 1_554
Cu0 O7 1.979160 1_555
Cu1 O9 1.979160 1_555
Cu1 O6 1.979160 1_545
Cu1 O10 1.979160 1_545
Cu1 O3 1.979160 1_555
Cu2 O0 1.979160 1_555
Cu2 O8 1.979160 1_455
Cu2 O2 1.979160 1_455
Cu2 O1 1.979160 1_555
O0 V3 1.962702 1_566
O0 V2 1.962702 1_565
O1 V0 1.962699 1_555
O1 V1 1.962706 1_555
O2 V0 1.962699 1_555
O2 V1 1.962706 1_656
O3 V0 1.962699 1_555
O3 V2 1.962706 1_555
O4 V1 1.962702 1_655
O4 V2 1.962702 1_665
O5 V2 1.962702 1_555
O5 V1 1.962702 1_556
O6 V1 1.962702 1_555
O6 V3 1.962702 1_565
O7 V0 1.962699 1_555
O7 V3 1.962706 1_555
O8 V3 1.962702 1_555
O8 V2 1.962702 1_655
O9 V3 1.962702 1_556
O9 V1 1.962702 1_656
O10 V0 1.962699 1_555
O10 V2 1.962706 1_665
O11 V0 1.962699 1_555
O11 V3 1.962706 1_566
