# generated using pymatgen
data_Li2ZnGe
_symmetry_space_group_name_H-M   'P 1'
_cell_length_a   4.36599971
_cell_length_b   4.36599971
_cell_length_c   4.36599971
_cell_angle_alpha   60.00000000
_cell_angle_beta   60.00000000
_cell_angle_gamma   60.00000000
_symmetry_Int_Tables_number   1
_chemical_formula_structural   Li2ZnGe
_chemical_formula_sum   'Li2 Zn1 Ge1'
_cell_volume   58.84859642
_cell_formula_units_Z   1
loop_
 _symmetry_equiv_pos_site_id
 _symmetry_equiv_pos_as_xyz
  1  'x, y, z'
loop_
 _atom_site_type_symbol
 _atom_site_label
 _atom_site_symmetry_multiplicity
 _atom_site_fract_x
 _atom_site_fract_y
 _atom_site_fract_z
 _atom_site_occupancy
  Li  Li0  1  0.25000000  0.25000000  0.25000000  1
  Li  Li1  1  0.75000000  0.75000000  0.75000000  1
  Zn  Zn0  1  0.50000000  0.50000000  0.50000000  1
  Ge  Ge0  1  0.00000000  0.00000000  0.00000000  1
loop_
_geom_bond_atom_site_label_1
_geom_bond_atom_site_label_2
_geom_bond_distance
_geom_bond_site_symmetry_2
Li0 Zn0 2.673618 1_554
Li0 Zn0 2.673618 1_555
Li0 Zn0 2.673618 1_545
Li0 Zn0 2.673618 1_455
Li1 Zn0 2.673618 1_565
Li1 Zn0 2.673618 1_555
Li1 Zn0 2.673618 1_556
Li1 Zn0 2.673618 1_655
Ge0 Li0 2.673618 1_545
Ge0 Li1 2.673618 1_445
Ge0 Li1 2.673618 1_454
Ge0 Li0 2.673618 1_555
Ge0 Li0 2.673618 1_554
Ge0 Li1 2.673618 1_444
Ge0 Li1 2.673618 1_544
Ge0 Li0 2.673618 1_455
