# generated using pymatgen
data_Rb3Cr(HO)6
_symmetry_space_group_name_H-M   'P 1'
_cell_length_a   8.10938458
_cell_length_b   8.10938458
_cell_length_c   8.10938401
_cell_angle_alpha   85.64514002
_cell_angle_beta   85.64514002
_cell_angle_gamma   85.64513467
_symmetry_Int_Tables_number   1
_chemical_formula_structural   Rb3Cr(HO)6
_chemical_formula_sum   'Rb6 Cr2 H12 O12'
_cell_volume   528.89328488
_cell_formula_units_Z   2
loop_
 _symmetry_equiv_pos_site_id
 _symmetry_equiv_pos_as_xyz
  1  'x, y, z'
loop_
 _atom_site_type_symbol
 _atom_site_label
 _atom_site_symmetry_multiplicity
 _atom_site_fract_x
 _atom_site_fract_y
 _atom_site_fract_z
 _atom_site_occupancy
  Rb  Rb0  1  0.35836000  0.14164000  0.75000000  1
  Rb  Rb1  1  0.14164000  0.75000000  0.35836000  1
  Rb  Rb2  1  0.75000000  0.35836000  0.14164000  1
  Rb  Rb3  1  0.64164000  0.85836000  0.25000000  1
  Rb  Rb4  1  0.85836000  0.25000000  0.64164000  1
  Rb  Rb5  1  0.25000000  0.64164000  0.85836000  1
  Cr  Cr0  1  0.50000000  0.50000000  0.50000000  1
  Cr  Cr1  1  0.00000000  0.00000000  0.00000000  1
  H  H0  1  0.90521600  0.77951500  0.64021200  1
  H  H1  1  0.77951500  0.64021200  0.90521600  1
  H  H2  1  0.64021200  0.90521600  0.77951500  1
  H  H3  1  0.72048500  0.59478400  0.85978800  1
  H  H4  1  0.59478400  0.85978800  0.72048500  1
  H  H5  1  0.85978800  0.72048500  0.59478400  1
  H  H6  1  0.09478400  0.22048500  0.35978800  1
  H  H7  1  0.22048500  0.35978800  0.09478400  1
  H  H8  1  0.35978800  0.09478400  0.22048500  1
  H  H9  1  0.27951500  0.40521600  0.14021200  1
  H  H10  1  0.40521600  0.14021200  0.27951500  1
  H  H11  1  0.14021200  0.27951500  0.40521600  1
  O  O0  1  0.05359200  0.95483900  0.78523200  1
  O  O1  1  0.95483900  0.78523200  0.05359200  1
  O  O2  1  0.78523200  0.05359200  0.95483900  1
  O  O3  1  0.54516100  0.44640800  0.71476800  1
  O  O4  1  0.44640800  0.71476800  0.54516100  1
  O  O5  1  0.71476800  0.54516100  0.44640800  1
  O  O6  1  0.94640800  0.04516100  0.21476800  1
  O  O7  1  0.04516100  0.21476800  0.94640800  1
  O  O8  1  0.21476800  0.94640800  0.04516100  1
  O  O9  1  0.45483900  0.55359200  0.28523200  1
  O  O10  1  0.55359200  0.28523200  0.45483900  1
  O  O11  1  0.28523200  0.45483900  0.55359200  1
loop_
_geom_bond_atom_site_label_1
_geom_bond_atom_site_label_2
_geom_bond_distance
_geom_bond_site_symmetry_2
Cr0 O3 1.820450 1_555
Cr0 O9 1.820450 1_555
Cr0 O4 1.820451 1_555
Cr0 O10 1.820451 1_555
Cr0 O5 1.820451 1_555
Cr0 O11 1.820451 1_555
Cr1 O0 1.820450 1_544
Cr1 O6 1.820450 1_455
Cr1 O2 1.820451 1_454
Cr1 O8 1.820451 1_545
Cr1 O1 1.820451 1_445
Cr1 O7 1.820451 1_554
H0 H5 0.758124 1_555
H0 Rb1 2.881876 1_655
H1 H3 0.758124 1_555
H1 Rb2 2.881876 1_556
H2 H4 0.758123 1_555
H2 Rb0 2.881876 1_565
H3 Rb2 2.881876 1_556
H4 Rb0 2.881876 1_565
H5 Rb1 2.881876 1_655
H6 Rb4 2.881876 1_455
H7 H9 0.758124 1_555
H7 Rb5 2.881876 1_554
H8 Rb3 2.881876 1_545
H9 Rb5 2.881876 1_554
H10 H8 0.758123 1_555
H10 Rb3 2.881876 1_545
H11 H6 0.758124 1_555
H11 Rb4 2.881876 1_455
O0 Rb5 2.939339 1_555
O0 Rb4 2.978737 1_465
O0 Rb0 2.979967 1_565
O1 Rb3 2.939339 1_555
O1 Rb5 2.978737 1_654
O1 Rb1 2.979966 1_655
O2 Rb4 2.939339 1_555
O2 Rb3 2.978737 1_546
O2 Rb2 2.979966 1_556
O3 Rb4 2.939339 1_555
O3 Rb5 2.978737 1_555
O3 Rb0 2.979967 1_555
O4 Rb5 2.939339 1_555
O4 Rb3 2.978737 1_555
O4 Rb1 2.979966 1_555
O5 Rb3 2.939339 1_555
O5 Rb4 2.978737 1_555
O5 Rb2 2.979966 1_555
O6 Rb2 2.939339 1_555
O6 Rb1 2.978737 1_645
O6 Rb3 2.979967 1_545
O7 Rb0 2.939339 1_555
O7 Rb2 2.978737 1_456
O7 Rb4 2.979966 1_455
O8 Rb1 2.939339 1_555
O8 Rb0 2.978737 1_564
O8 Rb5 2.979966 1_554
O9 Rb1 2.939339 1_555
O9 Rb2 2.978737 1_555
O9 Rb3 2.979967 1_555
O10 Rb2 2.939339 1_555
O10 Rb0 2.978737 1_555
O10 Rb4 2.979966 1_555
O11 Rb0 2.939339 1_555
O11 Rb1 2.978737 1_555
O11 Rb5 2.979966 1_555
