# generated using pymatgen
data_Li3Zn2SbO6
_symmetry_space_group_name_H-M   'P 1'
_cell_length_a   5.30099017
_cell_length_b   5.30099017
_cell_length_c   5.27085166
_cell_angle_alpha   79.97735521
_cell_angle_beta   79.97735521
_cell_angle_gamma   119.76530302
_symmetry_Int_Tables_number   1
_chemical_formula_structural   Li3Zn2SbO6
_chemical_formula_sum   'Li3 Zn2 Sb1 O6'
_cell_volume   120.59091344
_cell_formula_units_Z   1
loop_
 _symmetry_equiv_pos_site_id
 _symmetry_equiv_pos_as_xyz
  1  'x, y, z'
loop_
 _atom_site_type_symbol
 _atom_site_label
 _atom_site_symmetry_multiplicity
 _atom_site_fract_x
 _atom_site_fract_y
 _atom_site_fract_z
 _atom_site_occupancy
  Li  Li0  1  0.17010100  0.82989900  0.50000000  1
  Li  Li1  1  0.82989900  0.17010100  0.50000000  1
  Li  Li2  1  0.50000000  0.50000000  0.50000000  1
  Zn  Zn0  1  0.33340400  0.66659600  0.00000000  1
  Zn  Zn1  1  0.66659600  0.33340400  0.00000000  1
  Sb  Sb0  1  0.00000000  0.00000000  0.00000000  1
  O  O0  1  0.39252900  0.07870800  0.76441600  1
  O  O1  1  0.23527000  0.23527000  0.22851600  1
  O  O2  1  0.60747100  0.92129200  0.23558400  1
  O  O3  1  0.07870800  0.39252900  0.76441600  1
  O  O4  1  0.76473000  0.76473000  0.77148400  1
  O  O5  1  0.92129200  0.60747100  0.23558400  1
loop_
_geom_bond_atom_site_label_1
_geom_bond_atom_site_label_2
_geom_bond_distance
_geom_bond_site_symmetry_2
Li0 O0 2.177144 1_565
Li0 O5 2.177144 1_455
Li0 O4 2.192066 1_455
Li0 O1 2.192066 1_565
Li0 O3 2.253331 1_555
Li0 O2 2.253331 1_555
Li1 O3 2.177144 1_655
Li1 O2 2.177144 1_545
Li1 O4 2.192066 1_545
Li1 O1 2.192066 1_655
Li1 O0 2.253331 1_555
Li1 O5 2.253331 1_555
Li2 O0 2.152072 1_555
Li2 O5 2.152072 1_555
Li2 O2 2.152072 1_555
Li2 O3 2.152072 1_555
Li2 O4 2.329997 1_555
Li2 O1 2.329997 1_555
O0 Sb0 2.025829 1_556
O0 Zn0 2.157102 1_546
O0 Zn1 2.177009 1_556
O1 Sb0 2.015679 1_555
O1 Zn1 2.142798 1_555
O1 Zn0 2.142798 1_555
O2 Sb0 2.025829 1_665
O2 Zn1 2.157102 1_565
O2 Zn0 2.177009 1_555
O3 Sb0 2.025829 1_556
O3 Zn1 2.157102 1_456
O3 Zn0 2.177009 1_556
O4 Sb0 2.015679 1_666
O4 Zn1 2.142798 1_556
O4 Zn0 2.142798 1_556
O5 Sb0 2.025829 1_665
O5 Zn0 2.157102 1_655
O5 Zn1 2.177009 1_555
