# generated using pymatgen
data_Cs2Cd3Te4
_symmetry_space_group_name_H-M   'P 1'
_cell_length_a   6.80774038
_cell_length_b   10.82520503
_cell_length_c   10.82520490
_cell_angle_alpha   76.08082524
_cell_angle_beta   71.67302491
_cell_angle_gamma   71.67302642
_symmetry_Int_Tables_number   1
_chemical_formula_structural   Cs2Cd3Te4
_chemical_formula_sum   'Cs4 Cd6 Te8'
_cell_volume   709.94762915
_cell_formula_units_Z   2
loop_
 _symmetry_equiv_pos_site_id
 _symmetry_equiv_pos_as_xyz
  1  'x, y, z'
loop_
 _atom_site_type_symbol
 _atom_site_label
 _atom_site_symmetry_multiplicity
 _atom_site_fract_x
 _atom_site_fract_y
 _atom_site_fract_z
 _atom_site_occupancy
  Cs  Cs0  1  0.73090614  0.87762396  0.12237604  1
  Cs  Cs1  1  0.76909386  0.37762396  0.62237604  1
  Cs  Cs2  1  0.23090614  0.62237604  0.37762396  1
  Cs  Cs3  1  0.26909386  0.12237604  0.87762396  1
  Cd  Cd0  1  0.75000000  0.97794827  0.52205173  1
  Cd  Cd1  1  0.25000000  0.75000000  0.75000000  1
  Cd  Cd2  1  0.25000000  0.47794827  0.02205173  1
  Cd  Cd3  1  0.75000000  0.52205173  0.97794827  1
  Cd  Cd4  1  0.75000000  0.25000000  0.25000000  1
  Cd  Cd5  1  0.25000000  0.02205173  0.47794827  1
  Te  Te0  1  0.63252562  0.27350924  0.01145669  1
  Te  Te1  1  0.41749355  0.22649076  0.48854331  1
  Te  Te2  1  0.58250645  0.77350924  0.51145669  1
  Te  Te3  1  0.08250645  0.01145669  0.27350924  1
  Te  Te4  1  0.36747438  0.72649076  0.98854331  1
  Te  Te5  1  0.13252562  0.51145669  0.77350924  1
  Te  Te6  1  0.86747438  0.48854331  0.22649076  1
  Te  Te7  1  0.91749355  0.98854331  0.72649076  1
loop_
_geom_bond_atom_site_label_1
_geom_bond_atom_site_label_2
_geom_bond_distance
_geom_bond_site_symmetry_2
Cs0 Te6 3.973298 1_555
Cs0 Te2 3.973298 1_555
Cs0 Te3 4.035937 1_665
Cs0 Te4 4.035948 1_654
Cs0 Te0 4.059705 1_565
Cs0 Te7 4.059706 1_554
Cs0 Te4 4.103306 1_554
Cs0 Te3 4.103317 1_565
Cs1 Te0 3.973298 1_556
Cs1 Te7 3.973298 1_545
Cs1 Te1 4.035937 1_555
Cs1 Te5 4.035948 1_555
Cs1 Te6 4.059705 1_555
Cs1 Te2 4.059706 1_555
Cs1 Te5 4.103306 1_655
Cs1 Te1 4.103317 1_655
Cs2 Te4 3.973298 1_554
Cs2 Te3 3.973298 1_565
Cs2 Te2 4.035937 1_555
Cs2 Te6 4.035948 1_555
Cs2 Te5 4.059705 1_555
Cs2 Te1 4.059706 1_555
Cs2 Te6 4.103306 1_455
Cs2 Te2 4.103317 1_455
Cs3 Te5 3.973298 1_555
Cs3 Te1 3.973298 1_555
Cs3 Te7 4.035937 1_445
Cs3 Te0 4.035948 1_456
Cs3 Te4 4.059705 1_545
Cs3 Te3 4.059706 1_556
Cs3 Te0 4.103306 1_556
Cs3 Te7 4.103317 1_545
Cd0 Te7 2.828860 1_555
Cd0 Te2 2.828860 1_555
Cd0 Te3 2.951478 1_665
Cd0 Te1 2.951478 1_565
Cd1 Te2 2.868280 1_555
Cd1 Te7 2.868280 1_455
Cd1 Te4 2.868288 1_555
Cd1 Te5 2.868288 1_555
Cd2 Te6 2.828850 1_455
Cd2 Te0 2.828850 1_555
Cd2 Te5 2.951485 1_554
Cd2 Te4 2.951485 1_554
Cd3 Te5 2.828850 1_655
Cd3 Te4 2.828850 1_555
Cd3 Te6 2.951485 1_556
Cd3 Te0 2.951485 1_556
Cd4 Te1 2.868280 1_555
Cd4 Te3 2.868280 1_655
Cd4 Te0 2.868288 1_555
Cd4 Te6 2.868288 1_555
Cd5 Te3 2.828860 1_555
Cd5 Te1 2.828860 1_555
Cd5 Te7 2.951478 1_445
Cd5 Te2 2.951478 1_545
