# generated using pymatgen
data_K(In3Au2)2
_symmetry_space_group_name_H-M   'P 1'
_cell_length_a   8.17054739
_cell_length_b   8.17054739
_cell_length_c   4.44223738
_cell_angle_alpha   90.00000000
_cell_angle_beta   90.00000000
_cell_angle_gamma   119.99999364
_symmetry_Int_Tables_number   1
_chemical_formula_structural   K(In3Au2)2
_chemical_formula_sum   'K1 In6 Au4'
_cell_volume   256.82348142
_cell_formula_units_Z   1
loop_
 _symmetry_equiv_pos_site_id
 _symmetry_equiv_pos_as_xyz
  1  'x, y, z'
loop_
 _atom_site_type_symbol
 _atom_site_label
 _atom_site_symmetry_multiplicity
 _atom_site_fract_x
 _atom_site_fract_y
 _atom_site_fract_z
 _atom_site_occupancy
  K  K0  1  0.00000000  0.00000000  -0.00000000  1
  In  In0  1  0.93167582  0.46583841  0.00000000  1
  In  In1  1  0.19580019  0.80419881  0.50000000  1
  In  In2  1  0.53416259  0.06832518  -0.00000000  1
  In  In3  1  0.53416259  0.46583841  0.00000000  1
  In  In4  1  0.19580019  0.39160039  0.50000000  1
  In  In5  1  0.60839961  0.80419881  0.50000000  1
  Au  Au0  1  0.40792420  0.20396210  0.50000000  1
  Au  Au1  1  0.79603790  0.20396210  0.50000000  1
  Au  Au2  1  0.79603790  0.59207580  0.50000000  1
  Au  Au3  1  0.33333300  0.66666700  -0.00000000  1
loop_
_geom_bond_atom_site_label_1
_geom_bond_atom_site_label_2
_geom_bond_distance
_geom_bond_site_symmetry_2
In1 K0 3.551258 1_566
In1 K0 3.551258 1_565
In4 K0 3.551253 1_555
In4 K0 3.551253 1_556
In5 K0 3.551253 1_665
In5 K0 3.551253 1_666
Au0 In4 2.830447 1_555
Au0 In1 2.830454 1_545
Au0 In2 2.892830 1_555
Au0 In2 2.892830 1_556
Au0 In3 2.892835 1_555
Au0 In3 2.892835 1_556
Au0 K0 3.642095 1_555
Au0 K0 3.642095 1_556
Au1 In4 2.830447 1_655
Au1 In5 2.830454 1_545
Au1 In2 2.892830 1_555
Au1 In2 2.892830 1_556
Au1 In0 2.892835 1_556
Au1 In0 2.892835 1_555
Au1 K0 3.642095 1_655
Au1 K0 3.642095 1_656
Au2 In5 2.830440 1_555
Au2 In1 2.830447 1_655
Au2 In0 2.892830 1_556
Au2 In0 2.892830 1_555
Au2 In3 2.892830 1_555
Au2 In3 2.892830 1_556
Au2 K0 3.642095 1_666
Au2 K0 3.642095 1_665
Au3 In0 2.842087 1_455
Au3 In3 2.842094 1_555
Au3 In2 2.842094 1_565
Au3 In1 2.953230 1_554
Au3 In1 2.953230 1_555
Au3 In4 2.953240 1_555
Au3 In4 2.953240 1_554
Au3 In5 2.953240 1_555
Au3 In5 2.953240 1_554
