# generated using pymatgen
data_Pr3Nb(Cl3O2)2
_symmetry_space_group_name_H-M   'P 1'
_cell_length_a   12.94551624
_cell_length_b   12.94551624
_cell_length_c   3.99644500
_cell_angle_alpha   90.00000000
_cell_angle_beta   90.00000000
_cell_angle_gamma   120.00000123
_symmetry_Int_Tables_number   1
_chemical_formula_structural   Pr3Nb(Cl3O2)2
_chemical_formula_sum   'Pr6 Nb2 Cl12 O8'
_cell_volume   580.02032807
_cell_formula_units_Z   2
loop_
 _symmetry_equiv_pos_site_id
 _symmetry_equiv_pos_as_xyz
  1  'x, y, z'
loop_
 _atom_site_type_symbol
 _atom_site_label
 _atom_site_symmetry_multiplicity
 _atom_site_fract_x
 _atom_site_fract_y
 _atom_site_fract_z
 _atom_site_occupancy
  Pr  Pr0  1  0.39542000  0.11443300  0.25000000  1
  Pr  Pr1  1  0.71901200  0.60458000  0.25000000  1
  Pr  Pr2  1  0.60458000  0.88556700  0.75000000  1
  Pr  Pr3  1  0.28098800  0.39542000  0.75000000  1
  Pr  Pr4  1  0.11443300  0.71901200  0.75000000  1
  Pr  Pr5  1  0.88556700  0.28098800  0.25000000  1
  Nb  Nb0  1  0.66666700  0.33333300  0.75000000  1
  Nb  Nb1  1  0.33333300  0.66666700  0.25000000  1
  Cl  Cl0  1  0.62808200  0.06993700  0.25000000  1
  Cl  Cl1  1  0.75183300  0.85585800  0.25000000  1
  Cl  Cl2  1  0.14414200  0.89597500  0.25000000  1
  Cl  Cl3  1  0.37191800  0.93006300  0.75000000  1
  Cl  Cl4  1  0.93006300  0.55814500  0.25000000  1
  Cl  Cl5  1  0.24816700  0.14414200  0.75000000  1
  Cl  Cl6  1  0.06993700  0.44185500  0.75000000  1
  Cl  Cl7  1  0.10402500  0.24816700  0.25000000  1
  Cl  Cl8  1  0.85585800  0.10402500  0.75000000  1
  Cl  Cl9  1  0.89597500  0.75183300  0.75000000  1
  Cl  Cl10  1  0.55814500  0.62808200  0.75000000  1
  Cl  Cl11  1  0.44185500  0.37191800  0.25000000  1
  O  O0  1  0.80008600  0.30747000  0.75000000  1
  O  O1  1  0.66666700  0.33333300  0.25000000  1
  O  O2  1  0.19991400  0.69253000  0.25000000  1
  O  O3  1  0.50738400  0.19991400  0.75000000  1
  O  O4  1  0.30747000  0.50738400  0.25000000  1
  O  O5  1  0.49261600  0.80008600  0.25000000  1
  O  O6  1  0.69253000  0.49261600  0.75000000  1
  O  O7  1  0.33333300  0.66666700  0.75000000  1
loop_
_geom_bond_atom_site_label_1
_geom_bond_atom_site_label_2
_geom_bond_distance
_geom_bond_site_symmetry_2
Nb0 O0 1.916642 1_555
Nb0 O3 1.916650 1_555
Nb0 O6 1.916655 1_555
Nb0 O1 1.998223 1_555
Nb0 O1 1.998223 1_556
Nb1 O2 1.916642 1_555
Nb1 O5 1.916650 1_555
Nb1 O4 1.916655 1_555
Nb1 O7 1.998223 1_555
Nb1 O7 1.998223 1_554
Cl0 Pr2 3.009309 1_544
Cl0 Pr2 3.009309 1_545
Cl0 Pr5 3.077075 1_555
Cl0 Pr0 3.337434 1_555
Cl1 Pr2 2.916814 1_555
Cl1 Pr2 2.916814 1_554
Cl1 Pr1 3.062666 1_555
Cl2 Pr4 2.916824 1_554
Cl2 Pr4 2.916824 1_555
Cl2 Pr0 3.062671 1_565
Cl3 Pr0 3.009309 1_565
Cl3 Pr0 3.009309 1_566
Cl3 Pr4 3.077075 1_555
Cl3 Pr2 3.337434 1_555
Cl4 Pr4 3.009305 1_654
Cl4 Pr4 3.009305 1_655
Cl4 Pr1 3.077084 1_555
Cl4 Pr5 3.337421 1_555
Cl5 Pr0 2.916814 1_556
Cl5 Pr0 2.916814 1_555
Cl5 Pr3 3.062666 1_555
Cl6 Pr5 3.009305 1_455
Cl6 Pr5 3.009305 1_456
Cl6 Pr3 3.077084 1_555
Cl6 Pr4 3.337421 1_555
Cl7 Pr3 2.916820 1_554
Cl7 Pr3 2.916820 1_555
Cl7 Pr5 3.062678 1_455
Cl8 Pr5 2.916824 1_555
Cl8 Pr5 2.916824 1_556
Cl8 Pr2 3.062671 1_545
Cl9 Pr1 2.916820 1_555
Cl9 Pr1 2.916820 1_556
Cl9 Pr4 3.062678 1_655
Cl10 Pr1 3.009300 1_556
Cl10 Pr1 3.009300 1_555
Cl10 Pr2 3.077071 1_555
Cl10 Pr3 3.337426 1_555
Cl11 Pr3 3.009300 1_554
Cl11 Pr3 3.009300 1_555
Cl11 Pr0 3.077071 1_555
Cl11 Pr1 3.337426 1_555
O0 Pr5 2.390469 1_555
O0 Pr5 2.390469 1_556
O2 Pr4 2.390469 1_554
O2 Pr4 2.390469 1_555
O3 Pr0 2.390474 1_556
O3 Pr0 2.390474 1_555
O4 Pr3 2.390476 1_554
O4 Pr3 2.390476 1_555
O5 Pr2 2.390474 1_555
O5 Pr2 2.390474 1_554
O6 Pr1 2.390476 1_555
O6 Pr1 2.390476 1_556
