# generated using pymatgen
data_La4Ti9O24
_symmetry_space_group_name_H-M   'P 1'
_cell_length_a   10.23584197
_cell_length_b   10.23584215
_cell_length_c   19.26780935
_cell_angle_alpha   104.80942723
_cell_angle_beta   104.80942749
_cell_angle_gamma   92.16090514
_symmetry_Int_Tables_number   1
_chemical_formula_structural   La4Ti9O24
_chemical_formula_sum   'La16 Ti36 O96'
_cell_volume   1875.34327649
_cell_formula_units_Z   4
loop_
 _symmetry_equiv_pos_site_id
 _symmetry_equiv_pos_as_xyz
  1  'x, y, z'
loop_
 _atom_site_type_symbol
 _atom_site_label
 _atom_site_symmetry_multiplicity
 _atom_site_fract_x
 _atom_site_fract_y
 _atom_site_fract_z
 _atom_site_occupancy
  La  La0  1  0.87151928  0.82401841  0.25587775  1
  La  La1  1  0.11564153  0.56814066  0.74412225  1
  La  La2  1  0.26761963  0.01761963  0.03523927  1
  La  La3  1  0.24317843  0.49317843  0.98635685  1
  La  La4  1  0.12848072  0.17598159  0.74412225  1
  La  La5  1  0.01761963  0.26761963  0.53523927  1
  La  La6  1  0.82401841  0.87151928  0.75587775  1
  La  La7  1  0.49317843  0.24317843  0.48635685  1
  La  La8  1  0.98238037  0.73238037  0.46476073  1
  La  La9  1  0.75682157  0.50682157  0.01364315  1
  La  La10  1  0.73238037  0.98238037  0.96476073  1
  La  La11  1  0.50682157  0.75682157  0.51364315  1
  La  La12  1  0.43185934  0.88435847  0.75587775  1
  La  La13  1  0.56814066  0.11564153  0.24412225  1
  La  La14  1  0.88435847  0.43185934  0.25587775  1
  La  La15  1  0.17598159  0.12848072  0.24412225  1
  Ti  Ti0  1  0.18327843  0.68748145  0.33145469  1
  Ti  Ti1  1  0.28598632  0.03964037  0.59128433  1
  Ti  Ti2  1  0.57193008  0.26158911  0.07512329  1
  Ti  Ti3  1  0.26158911  0.57193008  0.57512329  1
  Ti  Ti4  1  0.56964049  0.56227049  0.15935211  1
  Ti  Ti5  1  0.64817626  0.64397324  0.33145469  1
  Ti  Ti6  1  0.99680679  0.18646582  0.92487671  1
  Ti  Ti7  1  0.35182374  0.35602676  0.66854531  1
  Ti  Ti8  1  0.80529801  0.55164396  0.59128433  1
  Ti  Ti9  1  0.08971161  0.59708162  0.15935211  1
  Ti  Ti10  1  0.56227049  0.56964049  0.65935211  1
  Ti  Ti11  1  0.07994594  0.82994594  0.65989187  1
  Ti  Ti12  1  0.59708162  0.08971161  0.65935211  1
  Ti  Ti13  1  0.73841089  0.42806992  0.42487671  1
  Ti  Ti14  1  0.42806992  0.73841089  0.92487671  1
  Ti  Ti15  1  0.64397324  0.64817626  0.83145469  1
  Ti  Ti16  1  0.81672157  0.31251855  0.66854531  1
  Ti  Ti17  1  0.35602676  0.35182374  0.16854531  1
  Ti  Ti18  1  0.31251855  0.81672157  0.16854531  1
  Ti  Ti19  1  0.44835604  0.19470199  0.90871567  1
  Ti  Ti20  1  0.00319321  0.81353418  0.07512329  1
  Ti  Ti21  1  0.18646582  0.99680679  0.42487671  1
  Ti  Ti22  1  0.96035963  0.71401368  0.90871567  1
  Ti  Ti23  1  0.92005406  0.17005406  0.34010813  1
  Ti  Ti24  1  0.17005406  0.92005406  0.84010813  1
  Ti  Ti25  1  0.40291838  0.91028839  0.34064789  1
  Ti  Ti26  1  0.82994594  0.07994594  0.15989187  1
  Ti  Ti27  1  0.43035951  0.43772951  0.84064789  1
  Ti  Ti28  1  0.91028839  0.40291838  0.84064789  1
  Ti  Ti29  1  0.19470199  0.44835604  0.40871567  1
  Ti  Ti30  1  0.03964037  0.28598632  0.09128433  1
  Ti  Ti31  1  0.43772951  0.43035951  0.34064789  1
  Ti  Ti32  1  0.55164396  0.80529801  0.09128433  1
  Ti  Ti33  1  0.81353418  0.00319321  0.57512329  1
  Ti  Ti34  1  0.71401368  0.96035963  0.40871567  1
  Ti  Ti35  1  0.68748145  0.18327843  0.83145469  1
  O  O0  1  0.69629933  0.13319048  0.08625793  1
  O  O1  1  0.35511845  0.35319280  0.40137894  1
  O  O2  1  0.23043185  0.97180602  0.66817111  1
  O  O3  1  0.07448664  0.84063837  0.98931379  1
  O  O4  1  0.08155574  0.58339215  0.38055983  1
  O  O5  1  0.11022052  0.32284737  0.00802614  1
  O  O6  1  0.78772554  0.21227446  0.25000000  1
  O  O7  1  0.31291984  0.58885531  0.85623539  1
  O  O8  1  0.11004140  0.04693255  0.91374207  1
  O  O9  1  0.31482123  0.60219438  0.49197386  1
  O  O10  1  0.36413693  0.28123288  0.25361990  1
  O  O11  1  0.02761298  0.61051703  0.24638010  1
  O  O12  1  0.73261993  0.95668445  0.64376461  1
  O  O13  1  0.14867542  0.41482715  0.48931379  1
  O  O14  1  0.45450324  0.20343681  0.66454356  1
  O  O15  1  0.83117146  0.06787178  0.85984120  1
  O  O16  1  0.95668445  0.73261993  0.14376461  1
  O  O17  1  0.04818614  0.54626049  0.90137894  1
  O  O18  1  0.63586307  0.71876712  0.74638010  1
  O  O19  1  0.68708016  0.41114469  0.14376461  1
  O  O20  1  0.79656319  0.54549676  0.83545644  1
  O  O21  1  0.67715263  0.88977948  0.49197386  1
  O  O22  1  0.58885531  0.31291984  0.35623539  1
  O  O23  1  0.03772554  0.96227446  0.75000000  1
  O  O24  1  0.04331555  0.26738007  0.85623539  1
  O  O25  1  0.67140144  0.17279139  0.59560059  1
  O  O26  1  0.13319048  0.69629933  0.58625793  1
  O  O27  1  0.15936163  0.92551336  0.51068621  1
  O  O28  1  0.75145240  0.24854760  0.75000000  1
  O  O29  1  0.16882854  0.93212822  0.14015880  1
  O  O30  1  0.97238702  0.38948297  0.75361990  1
  O  O31  1  0.52866974  0.79196942  0.85984120  1
  O  O32  1  0.20099591  0.20283232  0.61944017  1
  O  O33  1  0.58339215  0.08155574  0.88055983  1
  O  O34  1  0.06787178  0.83117146  0.35984120  1
  O  O35  1  0.57719080  0.57580085  0.90439941  1
  O  O36  1  0.24854760  0.75145240  0.25000000  1
  O  O37  1  0.69636509  0.93773925  0.16817111  1
  O  O38  1  0.82720861  0.32859856  0.90439941  1
  O  O39  1  0.71004032  0.46110675  0.66454356  1
  O  O40  1  0.58517285  0.85132458  0.01068621  1
  O  O41  1  0.85132458  0.58517285  0.51068621  1
  O  O42  1  0.06226075  0.30363491  0.33182889  1
  O  O43  1  0.68517877  0.39780562  0.50802614  1
  O  O44  1  0.64680720  0.64488155  0.09862106  1
  O  O45  1  0.93773925  0.69636509  0.66817111  1
  O  O46  1  0.04693255  0.11004140  0.41374207  1
  O  O47  1  0.60219438  0.31482123  0.99197386  1
  O  O48  1  0.86680952  0.30370067  0.41374207  1
  O  O49  1  0.84063837  0.07448664  0.48931379  1
  O  O50  1  0.97180602  0.23043185  0.16817111  1
  O  O51  1  0.47133026  0.20803058  0.14015880  1
  O  O52  1  0.79900409  0.79716768  0.38055983  1
  O  O53  1  0.42280920  0.42419915  0.09560059  1
  O  O54  1  0.17279139  0.67140144  0.09560059  1
  O  O55  1  0.02819398  0.76956815  0.83182889  1
  O  O56  1  0.79716768  0.79900409  0.88055983  1
  O  O57  1  0.93212822  0.16882854  0.64015880  1
  O  O58  1  0.30363491  0.06226075  0.83182889  1
  O  O59  1  0.54626049  0.04818614  0.40137894  1
  O  O60  1  0.41114469  0.68708016  0.64376461  1
  O  O61  1  0.41482715  0.14867542  0.98931379  1
  O  O62  1  0.71876712  0.63586307  0.24638010  1
  O  O63  1  0.38948297  0.97238702  0.25361990  1
  O  O64  1  0.45373951  0.95181386  0.59862106  1
  O  O65  1  0.28995968  0.53889325  0.33545644  1
  O  O66  1  0.54549676  0.79656319  0.33545644  1
  O  O67  1  0.96227446  0.03772554  0.25000000  1
  O  O68  1  0.20803058  0.47133026  0.64015880  1
  O  O69  1  0.46110675  0.71004032  0.16454356  1
  O  O70  1  0.88995860  0.95306745  0.08625793  1
  O  O71  1  0.42419915  0.42280920  0.59560059  1
  O  O72  1  0.61051703  0.02761298  0.74638010  1
  O  O73  1  0.26738007  0.04331555  0.35623539  1
  O  O74  1  0.30370067  0.86680952  0.91374207  1
  O  O75  1  0.21227446  0.78772554  0.75000000  1
  O  O76  1  0.91844426  0.41660785  0.61944017  1
  O  O77  1  0.32859856  0.82720861  0.40439941  1
  O  O78  1  0.32284737  0.11022052  0.50802614  1
  O  O79  1  0.35319280  0.35511845  0.90137894  1
  O  O80  1  0.20343681  0.45450324  0.16454356  1
  O  O81  1  0.92551336  0.15936163  0.01068621  1
  O  O82  1  0.76956815  0.02819398  0.33182889  1
  O  O83  1  0.95306745  0.88995860  0.58625793  1
  O  O84  1  0.79196942  0.52866974  0.35984120  1
  O  O85  1  0.50145240  0.49854760  0.25000000  1
  O  O86  1  0.28123288  0.36413693  0.75361990  1
  O  O87  1  0.49854760  0.50145240  0.75000000  1
  O  O88  1  0.64488155  0.64680720  0.59862106  1
  O  O89  1  0.41660785  0.91844426  0.11944017  1
  O  O90  1  0.57580085  0.57719080  0.40439941  1
  O  O91  1  0.20283232  0.20099591  0.11944017  1
  O  O92  1  0.53889325  0.28995968  0.83545644  1
  O  O93  1  0.39780562  0.68517877  0.00802614  1
  O  O94  1  0.88977948  0.67715263  0.99197386  1
  O  O95  1  0.95181386  0.45373951  0.09862106  1
loop_
_geom_bond_atom_site_label_1
_geom_bond_atom_site_label_2
_geom_bond_distance
_geom_bond_site_symmetry_2
La0 O62 2.373571 1_555
La0 O67 2.384954 1_565
La0 O34 2.431705 1_655
La0 O16 2.508498 1_555
La0 O82 2.641966 1_565
La0 O37 2.653154 1_555
La0 O11 2.751447 1_655
La0 O52 2.762513 1_555
La1 O30 2.373571 1_455
La1 O75 2.384954 1_555
La1 O68 2.431705 1_555
La1 O7 2.508497 1_555
La1 O45 2.641966 1_455
La1 O55 2.653154 1_555
La1 O86 2.751447 1_555
La1 O76 2.762513 1_455
La2 O89 2.383725 1_545
La2 O91 2.383725 1_555
La2 O3 2.447240 1_544
La2 O61 2.447240 1_554
La2 O8 2.576263 1_554
La2 O74 2.576263 1_544
La2 O29 2.785263 1_545
La2 O51 2.785263 1_555
La3 O93 2.355816 1_556
La3 O5 2.355816 1_556
La3 O17 2.413648 1_555
La3 O79 2.413648 1_555
La3 O53 2.681223 1_556
La3 O54 2.681223 1_556
La4 O86 2.373571 1_555
La4 O23 2.384954 1_545
La4 O57 2.431705 1_455
La4 O24 2.508498 1_555
La4 O2 2.641966 1_545
La4 O58 2.653154 1_555
La4 O30 2.751447 1_455
La4 O32 2.762513 1_555
La5 O32 2.383725 1_555
La5 O76 2.383725 1_455
La5 O49 2.447240 1_455
La5 O13 2.447240 1_555
La5 O48 2.576263 1_455
La5 O46 2.576263 1_555
La5 O57 2.785263 1_455
La5 O68 2.785263 1_555
La6 O18 2.373571 1_555
La6 O23 2.384954 1_655
La6 O15 2.431705 1_565
La6 O12 2.508498 1_555
La6 O55 2.641966 1_655
La6 O45 2.653154 1_555
La6 O72 2.751447 1_565
La6 O56 2.762513 1_555
La7 O43 2.355816 1_555
La7 O78 2.355816 1_555
La7 O1 2.413648 1_555
La7 O59 2.413648 1_555
La7 O25 2.681223 1_555
La7 O71 2.681223 1_555
La8 O52 2.383725 1_555
La8 O4 2.383725 1_655
La8 O27 2.447240 1_655
La8 O41 2.447240 1_555
La8 O26 2.576263 1_655
La8 O83 2.576263 1_555
La8 O34 2.785263 1_655
La8 O84 2.785263 1_555
La9 O47 2.355816 1_554
La9 O94 2.355816 1_554
La9 O95 2.413648 1_555
La9 O44 2.413648 1_555
La9 O35 2.681223 1_554
La9 O38 2.681223 1_554
La10 O33 2.383725 1_565
La10 O56 2.383725 1_555
La10 O81 2.447240 1_566
La10 O40 2.447240 1_556
La10 O70 2.576263 1_556
La10 O0 2.576263 1_566
La10 O15 2.785263 1_565
La10 O31 2.785263 1_555
La11 O9 2.355816 1_555
La11 O21 2.355816 1_555
La11 O88 2.413648 1_555
La11 O64 2.413648 1_555
La11 O77 2.681223 1_555
La11 O90 2.681223 1_555
La12 O72 2.373571 1_565
La12 O75 2.384954 1_555
La12 O31 2.431705 1_555
La12 O60 2.508498 1_555
La12 O58 2.641966 1_565
La12 O2 2.653154 1_555
La12 O18 2.751447 1_555
La12 O33 2.762513 1_565
La13 O63 2.373571 1_545
La13 O6 2.384954 1_555
La13 O51 2.431705 1_555
La13 O22 2.508498 1_555
La13 O37 2.641966 1_545
La13 O82 2.653154 1_555
La13 O10 2.751447 1_555
La13 O89 2.762513 1_545
La14 O11 2.373571 1_655
La14 O6 2.384954 1_555
La14 O84 2.431705 1_555
La14 O19 2.508497 1_555
La14 O42 2.641966 1_655
La14 O50 2.653154 1_555
La14 O62 2.751447 1_555
La14 O4 2.762513 1_655
La15 O10 2.373571 1_555
La15 O67 2.384954 1_455
La15 O29 2.431705 1_545
La15 O73 2.508498 1_555
La15 O50 2.641966 1_455
La15 O42 2.653154 1_555
La15 O63 2.751447 1_545
La15 O91 2.762513 1_555
O0 Ti2 1.877395 1_555
O0 Ti26 1.908044 1_555
O1 Ti31 1.906865 1_555
O1 Ti29 1.958021 1_555
O2 Ti1 1.981629 1_565
O2 Ti11 2.023337 1_555
O3 Ti22 1.840019 1_455
O3 Ti20 2.044290 1_556
O4 Ti29 1.931054 1_555
O4 Ti0 2.012408 1_555
O5 Ti6 1.909672 1_454
O5 Ti30 2.029554 1_555
O6 Ti23 2.064287 1_555
O6 Ti26 2.064287 1_555
O7 Ti14 1.874534 1_555
O7 Ti27 2.003852 1_555
O8 Ti6 1.877395 1_455
O8 Ti24 1.908044 1_545
O9 Ti3 1.909672 1_555
O9 Ti29 2.029554 1_555
O10 Ti31 1.915283 1_555
O10 Ti17 1.938144 1_555
O11 Ti9 1.915283 1_555
O11 Ti0 1.938144 1_555
O12 Ti33 1.874534 1_565
O12 Ti12 2.003852 1_565
O13 Ti29 1.840019 1_555
O13 Ti3 2.044290 1_555
O14 Ti12 1.907398 1_555
O14 Ti7 1.911469 1_555
O14 Ti1 2.259679 1_555
O15 Ti6 1.974679 1_555
O15 Ti35 1.976835 1_555
O16 Ti20 1.874534 1_655
O16 Ti9 2.003852 1_655
O17 Ti28 1.906865 1_455
O17 Ti22 1.958021 1_455
O18 Ti10 1.915283 1_555
O18 Ti15 1.938144 1_555
O19 Ti2 1.874534 1_555
O19 Ti4 2.003852 1_555
O20 Ti28 1.907398 1_555
O20 Ti15 1.911469 1_555
O20 Ti22 2.259679 1_555
O21 Ti33 1.909672 1_565
O21 Ti34 2.029554 1_555
O22 Ti13 1.874534 1_555
O22 Ti31 2.003852 1_555
O23 Ti24 2.064287 1_555
O23 Ti11 2.064287 1_555
O24 Ti6 1.874534 1_455
O24 Ti28 2.003852 1_455
O25 Ti12 1.942583 1_555
O25 Ti16 1.994171 1_555
O25 Ti33 2.328012 1_555
O26 Ti3 1.877395 1_555
O26 Ti11 1.908044 1_555
O27 Ti1 1.840019 1_565
O27 Ti21 2.044290 1_555
O28 Ti16 2.089657 1_555
O28 Ti35 2.089657 1_555
O28 Ti28 2.265921 1_555
O28 Ti12 2.265921 1_555
O29 Ti20 1.974679 1_555
O29 Ti18 1.976835 1_555
O30 Ti28 1.915283 1_555
O30 Ti16 1.938144 1_555
O31 Ti14 1.974679 1_555
O31 Ti15 1.976835 1_555
O32 Ti1 1.931054 1_555
O32 Ti7 2.012408 1_555
O33 Ti19 1.931054 1_555
O33 Ti35 2.012408 1_555
O34 Ti21 1.974679 1_555
O34 Ti0 1.976835 1_555
O35 Ti27 1.942583 1_555
O35 Ti15 1.994171 1_555
O35 Ti14 2.328012 1_555
O36 Ti0 2.089657 1_555
O36 Ti18 2.089657 1_555
O36 Ti9 2.265921 1_555
O36 Ti25 2.265921 1_555
O37 Ti32 1.981629 1_555
O37 Ti26 2.023338 1_565
O38 Ti28 1.942583 1_555
O38 Ti35 1.994171 1_555
O38 Ti6 2.328012 1_555
O39 Ti10 1.907397 1_555
O39 Ti16 1.911469 1_555
O39 Ti8 2.259679 1_555
O40 Ti32 1.840019 1_555
O40 Ti14 2.044290 1_554
O41 Ti8 1.840019 1_555
O41 Ti13 2.044290 1_555
O42 Ti29 1.981629 1_555
O42 Ti23 2.023338 1_455
O43 Ti13 1.909672 1_555
O43 Ti8 2.029554 1_555
O44 Ti4 1.906865 1_555
O44 Ti32 1.958021 1_555
O45 Ti8 1.981629 1_555
O45 Ti11 2.023338 1_655
O46 Ti21 1.877395 1_545
O46 Ti23 1.908044 1_455
O47 Ti2 1.909672 1_556
O47 Ti19 2.029554 1_555
O48 Ti13 1.877395 1_555
O48 Ti23 1.908044 1_555
O49 Ti34 1.840019 1_545
O49 Ti33 2.044290 1_555
O50 Ti30 1.981629 1_655
O50 Ti26 2.023337 1_555
O51 Ti2 1.974679 1_555
O51 Ti17 1.976835 1_555
O52 Ti34 1.931054 1_555
O52 Ti5 2.012408 1_555
O53 Ti4 1.942583 1_555
O53 Ti17 1.994171 1_555
O53 Ti2 2.328012 1_555
O54 Ti9 1.942583 1_555
O54 Ti18 1.994171 1_555
O54 Ti20 2.328012 1_555
O55 Ti22 1.981629 1_455
O55 Ti24 2.023337 1_555
O56 Ti22 1.931054 1_555
O56 Ti15 2.012408 1_555
O57 Ti33 1.974679 1_555
O57 Ti16 1.976835 1_555
O58 Ti19 1.981629 1_555
O58 Ti24 2.023338 1_545
O59 Ti25 1.906865 1_545
O59 Ti34 1.958021 1_545
O60 Ti3 1.874534 1_555
O60 Ti10 2.003852 1_555
O61 Ti19 1.840019 1_555
O61 Ti2 2.044290 1_556
O62 Ti4 1.915283 1_555
O62 Ti5 1.938144 1_555
O63 Ti25 1.915283 1_555
O63 Ti18 1.938144 1_555
O64 Ti12 1.906865 1_565
O64 Ti1 1.958021 1_565
O65 Ti31 1.907397 1_555
O65 Ti0 1.911469 1_555
O65 Ti29 2.259679 1_555
O66 Ti25 1.907398 1_555
O66 Ti5 1.911469 1_555
O66 Ti34 2.259679 1_555
O67 Ti26 2.064287 1_555
O67 Ti23 2.064287 1_555
O68 Ti3 1.974679 1_555
O68 Ti7 1.976835 1_555
O69 Ti4 1.907397 1_555
O69 Ti18 1.911469 1_555
O69 Ti32 2.259679 1_555
O70 Ti20 1.877395 1_655
O70 Ti26 1.908044 1_565
O71 Ti10 1.942583 1_555
O71 Ti7 1.994171 1_555
O71 Ti3 2.328012 1_555
O72 Ti12 1.915283 1_555
O72 Ti35 1.938144 1_555
O73 Ti21 1.874534 1_545
O73 Ti25 2.003852 1_545
O74 Ti14 1.877395 1_555
O74 Ti24 1.908044 1_555
O75 Ti11 2.064287 1_555
O75 Ti24 2.064287 1_555
O76 Ti8 1.931054 1_555
O76 Ti16 2.012408 1_555
O77 Ti25 1.942583 1_555
O77 Ti0 1.994171 1_555
O77 Ti21 2.328012 1_555
O78 Ti21 1.909672 1_545
O78 Ti1 2.029554 1_555
O79 Ti27 1.906865 1_555
O79 Ti19 1.958021 1_555
O80 Ti9 1.907398 1_555
O80 Ti17 1.911469 1_555
O80 Ti30 2.259679 1_555
O81 Ti30 1.840019 1_655
O81 Ti6 2.044290 1_554
O82 Ti34 1.981629 1_545
O82 Ti23 2.023337 1_555
O83 Ti33 1.877395 1_565
O83 Ti11 1.908044 1_655
O84 Ti13 1.974679 1_555
O84 Ti5 1.976835 1_555
O85 Ti5 2.089656 1_555
O85 Ti17 2.089656 1_555
O85 Ti4 2.265921 1_555
O85 Ti31 2.265921 1_555
O86 Ti27 1.915283 1_555
O86 Ti7 1.938144 1_555
O87 Ti7 2.089656 1_555
O87 Ti15 2.089656 1_555
O87 Ti27 2.265921 1_555
O87 Ti10 2.265921 1_555
O88 Ti10 1.906865 1_555
O88 Ti8 1.958021 1_555
O89 Ti32 1.931054 1_555
O89 Ti18 2.012408 1_555
O90 Ti31 1.942583 1_555
O90 Ti5 1.994171 1_555
O90 Ti13 2.328012 1_555
O91 Ti30 1.931054 1_555
O91 Ti17 2.012408 1_555
O92 Ti27 1.907397 1_555
O92 Ti35 1.911469 1_555
O92 Ti19 2.259679 1_555
O93 Ti14 1.909672 1_554
O93 Ti32 2.029554 1_555
O94 Ti20 1.909672 1_656
O94 Ti22 2.029554 1_555
O95 Ti9 1.906865 1_655
O95 Ti30 1.958021 1_655
