# generated using pymatgen
data_BiPO4
_symmetry_space_group_name_H-M   'P 1'
_cell_length_a   7.28307100
_cell_length_b   4.78051600
_cell_length_c   4.81157654
_cell_angle_alpha   85.10381331
_cell_angle_beta   90.00000000
_cell_angle_gamma   90.00000000
_symmetry_Int_Tables_number   1
_chemical_formula_structural   BiPO4
_chemical_formula_sum   'Bi2 P2 O8'
_cell_volume   166.91258023
_cell_formula_units_Z   2
loop_
 _symmetry_equiv_pos_site_id
 _symmetry_equiv_pos_as_xyz
  1  'x, y, z'
loop_
 _atom_site_type_symbol
 _atom_site_label
 _atom_site_symmetry_multiplicity
 _atom_site_fract_x
 _atom_site_fract_y
 _atom_site_fract_z
 _atom_site_occupancy
  Bi  Bi0  1  0.75000000  0.13119400  0.86306700  1
  Bi  Bi1  1  0.25000000  0.86880600  0.13693300  1
  P  P0  1  0.75000000  0.65995800  0.33211700  1
  P  P1  1  0.25000000  0.34004200  0.66788300  1
  O  O0  1  0.58512700  0.81046900  0.17468400  1
  O  O1  1  0.25000000  0.29687000  0.35334400  1
  O  O2  1  0.08512700  0.18953100  0.82531600  1
  O  O3  1  0.41487300  0.18953100  0.82531600  1
  O  O4  1  0.91487300  0.81046900  0.17468400  1
  O  O5  1  0.75000000  0.70313000  0.64665600  1
  O  O6  1  0.75000000  0.34002900  0.30711400  1
  O  O7  1  0.25000000  0.65997100  0.69288600  1
loop_
_geom_bond_atom_site_label_1
_geom_bond_atom_site_label_2
_geom_bond_distance
_geom_bond_site_symmetry_2
Bi0 O5 2.373945 1_545
Bi0 O4 2.376628 1_546
Bi0 O0 2.376628 1_546
Bi0 O6 2.434277 1_556
Bi0 O2 2.461585 1_655
Bi0 O3 2.461585 1_555
Bi0 O6 2.774255 1_555
Bi0 O5 2.841451 1_555
Bi1 O1 2.373945 1_565
Bi1 O2 2.376628 1_564
Bi1 O3 2.376628 1_564
Bi1 O7 2.434277 1_554
Bi1 O0 2.461585 1_555
Bi1 O4 2.461585 1_455
Bi1 O7 2.774255 1_555
Bi1 O1 2.841451 1_555
O0 P0 1.562164 1_555
O1 P1 1.544791 1_555
O2 P1 1.562164 1_555
O3 P1 1.562164 1_555
O4 P0 1.562164 1_555
O5 P0 1.544791 1_555
O6 P0 1.544352 1_555
O7 P1 1.544352 1_555
