# generated using pymatgen
data_Sc6Ni16Ge7
_symmetry_space_group_name_H-M   'P 1'
_cell_length_a   8.22426281
_cell_length_b   8.22426281
_cell_length_c   8.22426281
_cell_angle_alpha   60.00000000
_cell_angle_beta   60.00000000
_cell_angle_gamma   60.00000000
_symmetry_Int_Tables_number   1
_chemical_formula_structural   Sc6Ni16Ge7
_chemical_formula_sum   'Sc6 Ni16 Ge7'
_cell_volume   393.34708973
_cell_formula_units_Z   1
loop_
 _symmetry_equiv_pos_site_id
 _symmetry_equiv_pos_as_xyz
  1  'x, y, z'
loop_
 _atom_site_type_symbol
 _atom_site_label
 _atom_site_symmetry_multiplicity
 _atom_site_fract_x
 _atom_site_fract_y
 _atom_site_fract_z
 _atom_site_occupancy
  Sc  Sc0  1  0.20712900  0.79287100  0.79287100  1
  Sc  Sc1  1  0.20712900  0.79287100  0.20712900  1
  Sc  Sc2  1  0.79287100  0.20712900  0.20712900  1
  Sc  Sc3  1  0.79287100  0.20712900  0.79287100  1
  Sc  Sc4  1  0.79287100  0.79287100  0.20712900  1
  Sc  Sc5  1  0.20712900  0.20712900  0.79287100  1
  Ni  Ni0  1  0.38053300  0.38053300  0.38053300  1
  Ni  Ni1  1  0.50721200  0.83092900  0.83092900  1
  Ni  Ni2  1  0.61946700  0.61946700  0.14160000  1
  Ni  Ni3  1  0.16907100  0.16907100  0.49278800  1
  Ni  Ni4  1  0.83092900  0.83092900  0.50721200  1
  Ni  Ni5  1  0.16907100  0.16907100  0.16907100  1
  Ni  Ni6  1  0.83092900  0.83092900  0.83092900  1
  Ni  Ni7  1  0.38053300  0.38053300  0.85840000  1
  Ni  Ni8  1  0.83092900  0.50721200  0.83092900  1
  Ni  Ni9  1  0.61946700  0.61946700  0.61946700  1
  Ni  Ni10  1  0.38053300  0.85840000  0.38053300  1
  Ni  Ni11  1  0.14160000  0.61946700  0.61946700  1
  Ni  Ni12  1  0.61946700  0.14160000  0.61946700  1
  Ni  Ni13  1  0.16907100  0.49278800  0.16907100  1
  Ni  Ni14  1  0.85840000  0.38053300  0.38053300  1
  Ni  Ni15  1  0.49278800  0.16907100  0.16907100  1
  Ge  Ge0  1  0.00000000  0.00000000  0.50000000  1
  Ge  Ge1  1  0.50000000  0.00000000  0.50000000  1
  Ge  Ge2  1  0.50000000  0.50000000  0.50000000  1
  Ge  Ge3  1  0.00000000  0.50000000  0.00000000  1
  Ge  Ge4  1  0.50000000  0.50000000  0.00000000  1
  Ge  Ge5  1  0.50000000  0.00000000  0.00000000  1
  Ge  Ge6  1  0.00000000  0.50000000  0.50000000  1
loop_
_geom_bond_atom_site_label_1
_geom_bond_atom_site_label_2
_geom_bond_distance
_geom_bond_site_symmetry_2
Ni0 Ni15 2.591287 1_555
Ni0 Ni3 2.591287 1_555
Ni0 Ni13 2.591287 1_555
Ni0 Ni11 2.779009 1_555
Ni0 Ni12 2.779009 1_555
Ni0 Ni2 2.779009 1_555
Ni0 Sc1 2.815863 1_555
Ni0 Sc5 2.815863 1_555
Ni0 Sc2 2.815863 1_555
Ni1 Ni9 2.591287 1_555
Ni1 Ni12 2.591301 1_565
Ni1 Ni2 2.591301 1_556
Ni1 Ni4 2.662334 1_555
Ni1 Ni8 2.662334 1_555
Ni1 Ni6 2.662334 1_555
Ni1 Sc0 2.815968 1_555
Ni1 Sc1 2.815973 1_556
Ni1 Sc5 2.815973 1_565
Ni2 Ni6 2.591293 1_554
Ni2 Ni8 2.591301 1_554
Ni2 Sc4 2.815857 1_555
Ni2 Sc1 2.815864 1_555
Ni2 Sc2 2.815864 1_555
Ni3 Ni5 2.662334 1_555
Ni3 Sc5 2.815968 1_555
Ni3 Sc3 2.815973 1_455
Ni3 Sc0 2.815973 1_545
Ni4 Ni9 2.591287 1_555
Ni4 Ni8 2.662334 1_555
Ni4 Ni6 2.662334 1_555
Ni4 Sc4 2.815968 1_555
Ni4 Sc1 2.815973 1_655
Ni4 Sc2 2.815973 1_565
Ni5 Ni7 2.591293 1_554
Ni5 Sc5 2.815976 1_554
Ni5 Sc1 2.815976 1_545
Ni5 Sc2 2.815976 1_455
Ni6 Ni8 2.662334 1_555
Ni6 Sc4 2.815976 1_556
Ni6 Sc0 2.815976 1_655
Ni6 Sc3 2.815976 1_565
Ni7 Ni9 2.779009 1_555
Ni7 Sc5 2.815857 1_555
Ni7 Sc0 2.815864 1_555
Ni7 Sc3 2.815864 1_555
Ni8 Ni9 2.591287 1_555
Ni8 Sc3 2.815968 1_555
Ni8 Sc5 2.815973 1_655
Ni8 Sc2 2.815973 1_556
Ni9 Sc3 2.815863 1_555
Ni9 Sc0 2.815863 1_555
Ni9 Sc4 2.815863 1_555
Ni10 Ni5 2.591293 1_565
Ni10 Ni3 2.591301 1_565
Ni10 Ni15 2.591301 1_565
Ni10 Ni2 2.778997 1_555
Ni10 Ni11 2.778997 1_555
Ni10 Ni9 2.779009 1_555
Ni10 Sc1 2.815857 1_555
Ni10 Sc0 2.815864 1_555
Ni10 Sc4 2.815864 1_555
Ni11 Ni6 2.591293 1_455
Ni11 Ni4 2.591301 1_455
Ni11 Ni8 2.591301 1_455
Ni11 Ni7 2.778997 1_555
Ni11 Sc0 2.815857 1_555
Ni11 Sc1 2.815864 1_555
Ni11 Sc5 2.815864 1_555
Ni12 Ni6 2.591293 1_545
Ni12 Ni4 2.591301 1_545
Ni12 Ni14 2.778997 1_555
Ni12 Ni7 2.778997 1_555
Ni12 Sc3 2.815857 1_555
Ni12 Sc2 2.815864 1_555
Ni12 Sc5 2.815864 1_555
Ni13 Ni7 2.591301 1_554
Ni13 Ni14 2.591301 1_455
Ni13 Ni5 2.662334 1_555
Ni13 Ni15 2.662334 1_555
Ni13 Ni3 2.662334 1_555
Ni13 Sc1 2.815968 1_555
Ni13 Sc0 2.815973 1_554
Ni13 Sc4 2.815973 1_455
Ni14 Ni5 2.591293 1_655
Ni14 Ni3 2.591301 1_655
Ni14 Ni2 2.778997 1_555
Ni14 Ni9 2.779009 1_555
Ni14 Sc2 2.815857 1_555
Ni14 Sc4 2.815864 1_555
Ni14 Sc3 2.815864 1_555
Ni15 Ni7 2.591301 1_554
Ni15 Ni5 2.662334 1_555
Ni15 Ni3 2.662334 1_555
Ni15 Sc2 2.815968 1_555
Ni15 Sc4 2.815973 1_545
Ni15 Sc3 2.815973 1_554
Ge0 Ni5 2.374634 1_555
Ge0 Ni6 2.374634 1_445
Ge0 Ni4 2.374639 1_445
Ge0 Ni3 2.374639 1_555
Ge0 Ni10 2.557471 1_545
Ge0 Ni12 2.557471 1_455
Ge0 Ni11 2.557471 1_545
Ge0 Ni14 2.557471 1_455
Ge0 Sc0 2.950159 1_545
Ge0 Sc1 2.950159 1_545
Ge0 Sc3 2.950159 1_455
Ge0 Sc2 2.950159 1_455
Ge1 Ni3 2.374632 1_555
Ge1 Ni15 2.374632 1_555
Ge1 Ni1 2.374632 1_545
Ge1 Ni4 2.374632 1_545
Ge1 Ni0 2.557470 1_555
Ge1 Ni9 2.557470 1_545
Ge1 Ni10 2.557477 1_545
Ge1 Ni12 2.557477 1_555
Ge1 Sc0 2.950159 1_545
Ge1 Sc5 2.950159 1_555
Ge1 Sc4 2.950159 1_545
Ge1 Sc2 2.950159 1_555
Ge2 Ni10 2.406686 1_555
Ge2 Ni7 2.406686 1_555
Ge2 Ni11 2.406686 1_555
Ge2 Ni2 2.406686 1_555
Ge2 Ni12 2.406686 1_555
Ge2 Ni14 2.406686 1_555
Ge2 Ni9 2.406692 1_555
Ge2 Ni0 2.406692 1_555
Ge3 Ni5 2.374634 1_555
Ge3 Ni6 2.374634 1_454
Ge3 Ni8 2.374639 1_454
Ge3 Ni13 2.374639 1_555
Ge3 Ni11 2.557471 1_554
Ge3 Ni2 2.557471 1_455
Ge3 Ni14 2.557471 1_455
Ge3 Ni7 2.557471 1_554
Ge3 Sc5 2.950159 1_554
Ge3 Sc2 2.950159 1_455
Ge3 Sc0 2.950159 1_554
Ge3 Sc4 2.950159 1_455
Ge4 Ni13 2.374632 1_555
Ge4 Ni8 2.374632 1_554
Ge4 Ni15 2.374632 1_555
Ge4 Ni1 2.374632 1_554
Ge4 Ni0 2.557470 1_555
Ge4 Ni9 2.557470 1_554
Ge4 Ni7 2.557477 1_554
Ge4 Ni2 2.557477 1_555
Ge4 Sc1 2.950159 1_555
Ge4 Sc0 2.950159 1_554
Ge4 Sc3 2.950159 1_554
Ge4 Sc2 2.950159 1_555
Ge5 Ni5 2.374634 1_555
Ge5 Ni6 2.374634 1_544
Ge5 Ni1 2.374639 1_544
Ge5 Ni15 2.374639 1_555
Ge5 Ni2 2.557471 1_545
Ge5 Ni10 2.557471 1_545
Ge5 Ni12 2.557471 1_554
Ge5 Ni7 2.557471 1_554
Ge5 Sc5 2.950159 1_554
Ge5 Sc1 2.950159 1_545
Ge5 Sc4 2.950159 1_545
Ge5 Sc3 2.950159 1_554
Ge6 Ni3 2.374632 1_555
Ge6 Ni13 2.374632 1_555
Ge6 Ni4 2.374632 1_455
Ge6 Ni8 2.374632 1_455
Ge6 Ni9 2.557470 1_455
Ge6 Ni0 2.557470 1_555
Ge6 Ni14 2.557477 1_455
Ge6 Ni11 2.557477 1_555
Ge6 Sc1 2.950159 1_555
Ge6 Sc5 2.950159 1_555
Ge6 Sc3 2.950159 1_455
Ge6 Sc4 2.950159 1_455
