# generated using pymatgen
data_ScB2
_symmetry_space_group_name_H-M   'P 1'
_cell_length_a   4.33171634
_cell_length_b   4.33171634
_cell_length_c   4.33171634
_cell_angle_alpha   60.00000000
_cell_angle_beta   60.00000000
_cell_angle_gamma   60.00000000
_symmetry_Int_Tables_number   1
_chemical_formula_structural   ScB2
_chemical_formula_sum   'Sc2 B4'
_cell_volume   57.47315401
_cell_formula_units_Z   2
loop_
 _symmetry_equiv_pos_site_id
 _symmetry_equiv_pos_as_xyz
  1  'x, y, z'
loop_
 _atom_site_type_symbol
 _atom_site_label
 _atom_site_symmetry_multiplicity
 _atom_site_fract_x
 _atom_site_fract_y
 _atom_site_fract_z
 _atom_site_occupancy
  Sc  Sc0  1  0.75000000  0.75000000  0.75000000  1
  Sc  Sc1  1  0.50000000  0.50000000  0.50000000  1
  B  B0  1  0.12500000  0.12500000  0.12500000  1
  B  B1  1  0.62500000  0.12500000  0.12500000  1
  B  B2  1  0.12500000  0.62500000  0.12500000  1
  B  B3  1  0.12500000  0.12500000  0.62500000  1
loop_
_geom_bond_atom_site_label_1
_geom_bond_atom_site_label_2
_geom_bond_distance
_geom_bond_site_symmetry_2
B0 B2 2.165858 1_545
B0 B2 2.165858 1_555
B0 B3 2.165858 1_554
B0 B3 2.165858 1_555
B0 B1 2.165858 1_455
B0 B1 2.165858 1_555
B0 Sc0 2.539694 1_445
B0 Sc0 2.539694 1_454
B0 Sc1 2.539694 1_554
B0 Sc0 2.539694 1_544
B0 Sc1 2.539694 1_455
B0 Sc1 2.539694 1_545
B1 B2 2.165858 1_555
B1 B3 2.165858 1_654
B1 B3 2.165858 1_555
B1 B2 2.165858 1_645
B1 Sc0 2.539694 1_554
B1 Sc0 2.539694 1_545
B1 Sc1 2.539694 1_554
B1 Sc1 2.539694 1_555
B1 Sc0 2.539694 1_544
B1 Sc1 2.539694 1_545
B2 B3 2.165858 1_564
B2 B3 2.165858 1_555
B2 Sc0 2.539694 1_455
B2 Sc0 2.539694 1_554
B2 Sc1 2.539694 1_554
B2 Sc0 2.539694 1_454
B2 Sc1 2.539694 1_455
B2 Sc1 2.539694 1_555
B3 Sc0 2.539694 1_445
B3 Sc1 2.539694 1_555
B3 Sc0 2.539694 1_455
B3 Sc1 2.539694 1_455
B3 Sc0 2.539694 1_545
B3 Sc1 2.539694 1_545
