# generated using pymatgen
data_Cs2HgI4
_symmetry_space_group_name_H-M   'P 1'
_cell_length_a   8.65715700
_cell_length_b   8.12100500
_cell_length_c   11.39409427
_cell_angle_alpha   68.46822563
_cell_angle_beta   90.00000000
_cell_angle_gamma   90.00000000
_symmetry_Int_Tables_number   1
_chemical_formula_structural   Cs2HgI4
_chemical_formula_sum   'Cs4 Hg2 I8'
_cell_volume   745.15708133
_cell_formula_units_Z   2
loop_
 _symmetry_equiv_pos_site_id
 _symmetry_equiv_pos_as_xyz
  1  'x, y, z'
loop_
 _atom_site_type_symbol
 _atom_site_label
 _atom_site_symmetry_multiplicity
 _atom_site_fract_x
 _atom_site_fract_y
 _atom_site_fract_z
 _atom_site_occupancy
  Cs  Cs0  1  0.74445400  0.78594100  0.90733600  1
  Cs  Cs1  1  0.23855400  0.66080700  0.53368800  1
  Cs  Cs2  1  0.24445400  0.21405900  0.09266400  1
  Cs  Cs3  1  0.73855400  0.33919300  0.46631200  1
  Hg  Hg0  1  0.73972600  0.90715900  0.27328200  1
  Hg  Hg1  1  0.23972600  0.09284100  0.72671800  1
  I  I0  1  0.50566600  0.24960000  0.78982500  1
  I  I1  1  0.74375000  0.27911400  0.14599600  1
  I  I2  1  0.24861400  0.18739000  0.45580100  1
  I  I3  1  0.97723500  0.25896100  0.78339400  1
  I  I4  1  0.24375000  0.72088600  0.85400400  1
  I  I5  1  0.00566600  0.75040000  0.21017500  1
  I  I6  1  0.74861400  0.81261000  0.54419900  1
  I  I7  1  0.47723500  0.74103900  0.21660600  1
loop_
_geom_bond_atom_site_label_1
_geom_bond_atom_site_label_2
_geom_bond_distance
_geom_bond_site_symmetry_2
Cs0 I1 4.014971 1_556
Cs0 I5 4.046288 1_656
Cs0 I6 4.063286 1_555
Cs0 I0 4.067374 1_565
Cs0 I3 4.102409 1_565
Cs0 I7 4.118119 1_556
Cs0 I4 4.423562 1_655
Cs0 I4 4.435473 1_555
Cs1 I4 3.855847 1_555
Cs1 I7 4.002371 1_555
Cs1 I5 4.026559 1_555
Cs1 I2 4.036940 1_565
Cs1 I3 4.128826 1_455
Cs1 I0 4.226409 1_555
Cs1 I2 4.252145 1_555
Cs1 I6 4.430882 1_455
Cs2 I4 4.014971 1_554
Cs2 I0 4.046288 1_554
Cs2 I2 4.063286 1_555
Cs2 I5 4.067374 1_545
Cs2 I7 4.102409 1_545
Cs2 I3 4.118119 1_454
Cs2 I1 4.423562 1_555
Cs2 I1 4.435473 1_455
Cs3 I1 3.855847 1_555
Cs3 I3 4.002371 1_555
Cs3 I0 4.026559 1_555
Cs3 I6 4.036940 1_545
Cs3 I7 4.128826 1_555
Cs3 I5 4.226409 1_655
Cs3 I6 4.252145 1_555
Cs3 I2 4.430882 1_555
Hg0 I1 2.830762 1_565
Hg0 I7 2.835558 1_555
Hg0 I5 2.847822 1_655
Hg0 I6 2.895575 1_555
Hg1 I4 2.830762 1_545
Hg1 I3 2.835558 1_455
Hg1 I0 2.847822 1_555
Hg1 I2 2.895575 1_555
