# generated using pymatgen
data_Sr2Co(PO4)2
_symmetry_space_group_name_H-M   'P 1'
_cell_length_a   10.14045100
_cell_length_b   9.17076400
_cell_length_c   11.84624309
_cell_angle_alpha   82.28280482
_cell_angle_beta   90.00000000
_cell_angle_gamma   90.00000000
_symmetry_Int_Tables_number   1
_chemical_formula_structural   Sr2Co(PO4)2
_chemical_formula_sum   'Sr12 Co6 P12 O48'
_cell_volume   1091.67176565
_cell_formula_units_Z   6
loop_
 _symmetry_equiv_pos_site_id
 _symmetry_equiv_pos_as_xyz
  1  'x, y, z'
loop_
 _atom_site_type_symbol
 _atom_site_label
 _atom_site_symmetry_multiplicity
 _atom_site_fract_x
 _atom_site_fract_y
 _atom_site_fract_z
 _atom_site_occupancy
  Sr  Sr0  1  0.64919500  0.66597500  0.84843200  1
  Sr  Sr1  1  0.22709800  0.33439700  0.81071200  1
  Sr  Sr2  1  0.35080500  0.33402500  0.15156800  1
  Sr  Sr3  1  0.85080500  0.16597500  0.84843200  1
  Sr  Sr4  1  0.11450700  0.69640500  0.50414400  1
  Sr  Sr5  1  0.72709800  0.16560300  0.18928800  1
  Sr  Sr6  1  0.27290200  0.83439700  0.81071200  1
  Sr  Sr7  1  0.88549300  0.30359500  0.49585600  1
  Sr  Sr8  1  0.77290200  0.66560300  0.18928800  1
  Sr  Sr9  1  0.61450700  0.80359500  0.49585600  1
  Sr  Sr10  1  0.38549300  0.19640500  0.50414400  1
  Sr  Sr11  1  0.14919500  0.83402500  0.15156800  1
  Co  Co0  1  0.60964900  0.37223200  0.67528800  1
  Co  Co1  1  0.39035100  0.62776800  0.32471200  1
  Co  Co2  1  0.10964900  0.12776800  0.32471200  1
  Co  Co3  1  0.89035100  0.87223200  0.67528800  1
  Co  Co4  1  0.50000000  0.00000000  0.00000000  1
  Co  Co5  1  0.00000000  0.50000000  0.00000000  1
  P  P0  1  0.39746600  0.56232000  0.62646200  1
  P  P1  1  0.93166600  0.79128000  0.95702000  1
  P  P2  1  0.06833400  0.20872000  0.04298000  1
  P  P3  1  0.56833400  0.29128000  0.95702000  1
  P  P4  1  0.89746600  0.93768000  0.37353800  1
  P  P5  1  0.10253400  0.06232000  0.62646200  1
  P  P6  1  0.43166600  0.70872000  0.04298000  1
  P  P7  1  0.07374000  0.50857100  0.28652200  1
  P  P8  1  0.42626000  0.00857100  0.28652200  1
  P  P9  1  0.57374000  0.99142900  0.71347800  1
  P  P10  1  0.60253400  0.43768000  0.37353800  1
  P  P11  1  0.92626000  0.49142900  0.71347800  1
  O  O0  1  0.31390600  0.11488500  0.31600500  1
  O  O1  1  0.08261200  0.13190800  0.93594300  1
  O  O2  1  0.13014200  0.35212100  0.29110100  1
  O  O3  1  0.86613200  0.86358400  0.49665100  1
  O  O4  1  0.84600700  0.64428400  0.97845700  1
  O  O5  1  0.95734800  0.10114100  0.65688700  1
  O  O6  1  0.57598900  0.76216400  0.05863700  1
  O  O7  1  0.68609400  0.88511500  0.68399500  1
  O  O8  1  0.96253700  0.52415300  0.37358300  1
  O  O9  1  0.58261200  0.36809200  0.06405700  1
  O  O10  1  0.81390600  0.38511500  0.68399500  1
  O  O11  1  0.15399300  0.35571600  0.02154300  1
  O  O12  1  0.87828400  0.88931600  0.85040400  1
  O  O13  1  0.53746300  0.02415300  0.37358300  1
  O  O14  1  0.37828400  0.61068400  0.14959600  1
  O  O15  1  0.92401100  0.26216400  0.05863700  1
  O  O16  1  0.18609400  0.61488500  0.31600500  1
  O  O17  1  0.20699300  0.11220000  0.70730400  1
  O  O18  1  0.03746300  0.47584700  0.62641700  1
  O  O19  1  0.91738800  0.86809200  0.06405700  1
  O  O20  1  0.10427400  0.88940100  0.63897300  1
  O  O21  1  0.46253700  0.97584700  0.62641700  1
  O  O22  1  0.60427400  0.61059900  0.36102700  1
  O  O23  1  0.89572600  0.11059900  0.36102700  1
  O  O24  1  0.42401100  0.23783600  0.94136300  1
  O  O25  1  0.41738800  0.63190800  0.93594300  1
  O  O26  1  0.45734800  0.39885900  0.34311300  1
  O  O27  1  0.62171600  0.38931600  0.85040400  1
  O  O28  1  0.13386800  0.13641600  0.50334900  1
  O  O29  1  0.07598900  0.73783600  0.94136300  1
  O  O30  1  0.04265200  0.89885900  0.34311300  1
  O  O31  1  0.12171600  0.11068400  0.14959600  1
  O  O32  1  0.63386800  0.36358400  0.49665100  1
  O  O33  1  0.36613200  0.63641600  0.50334900  1
  O  O34  1  0.02014700  0.56826500  0.16528200  1
  O  O35  1  0.36985800  0.85212100  0.29110100  1
  O  O36  1  0.70699300  0.38780000  0.29269600  1
  O  O37  1  0.63014200  0.14787900  0.70889900  1
  O  O38  1  0.97985300  0.43173500  0.83471800  1
  O  O39  1  0.54265200  0.60114100  0.65688700  1
  O  O40  1  0.79300700  0.88780000  0.29269600  1
  O  O41  1  0.52014700  0.93173500  0.83471800  1
  O  O42  1  0.34600700  0.85571600  0.02154300  1
  O  O43  1  0.65399300  0.14428400  0.97845700  1
  O  O44  1  0.39572600  0.38940100  0.63897300  1
  O  O45  1  0.47985300  0.06826500  0.16528200  1
  O  O46  1  0.29300700  0.61220000  0.70730400  1
  O  O47  1  0.86985800  0.64787900  0.70889900  1
loop_
_geom_bond_atom_site_label_1
_geom_bond_atom_site_label_2
_geom_bond_distance
_geom_bond_site_symmetry_2
Co0 O37 2.053037 1_555
Co0 O10 2.077975 1_555
Co0 O27 2.104809 1_555
Co0 O32 2.142402 1_555
Co0 O39 2.189318 1_555
Co0 O44 2.213013 1_555
Co1 O35 2.053037 1_555
Co1 O16 2.077975 1_555
Co1 O14 2.104809 1_555
Co1 O33 2.142402 1_555
Co1 O26 2.189318 1_555
Co1 O22 2.213013 1_555
Co2 O2 2.053037 1_555
Co2 O0 2.077975 1_555
Co2 O31 2.104809 1_555
Co2 O28 2.142402 1_555
Co2 O30 2.189318 1_545
Co2 O23 2.213013 1_455
Co3 O47 2.053037 1_555
Co3 O7 2.077975 1_555
Co3 O12 2.104809 1_555
Co3 O3 2.142402 1_555
Co3 O5 2.189318 1_565
Co3 O20 2.213013 1_655
Co4 O42 2.040526 1_545
Co4 O43 2.040526 1_554
Co4 O45 2.143949 1_555
Co4 O41 2.143949 1_544
Co4 O24 2.329536 1_554
Co4 O6 2.329536 1_545
Co5 O11 2.040526 1_555
Co5 O4 2.040526 1_454
Co5 O34 2.143949 1_555
Co5 O38 2.143949 1_454
Co5 O15 2.329536 1_455
Co5 O29 2.329536 1_554
O0 P8 1.569100 1_555
O0 Sr10 2.549636 1_555
O0 Sr2 2.630968 1_555
O1 P2 1.537807 1_556
O1 Sr3 2.571142 1_455
O1 Sr1 2.656314 1_555
O2 P7 1.538737 1_555
O2 Sr2 2.800068 1_555
O3 P4 1.556777 1_555
O3 Sr9 2.610509 1_555
O3 Sr4 2.943710 1_655
O4 P1 1.595096 1_555
O4 Sr0 2.512548 1_555
O4 Sr8 2.637556 1_556
O5 P5 1.568005 1_655
O5 Sr7 2.581836 1_555
O5 Sr3 2.651768 1_555
O6 P6 1.562328 1_555
O6 Sr8 2.607430 1_555
O6 Sr0 2.849553 1_554
O7 P9 1.569100 1_555
O7 Sr9 2.549636 1_555
O7 Sr0 2.630968 1_555
O8 P7 1.547665 1_655
O8 Sr7 2.452112 1_555
O8 Sr4 2.813989 1_655
O8 Sr8 3.063721 1_555
O9 P3 1.537807 1_554
O9 Sr2 2.571142 1_555
O9 Sr5 2.656314 1_555
O10 P11 1.569100 1_555
O10 Sr7 2.549636 1_555
O10 Sr3 2.630968 1_555
O11 P2 1.595096 1_555
O11 Sr2 2.512548 1_555
O11 Sr1 2.637556 1_554
O12 P1 1.546463 1_555
O12 Sr3 2.549417 1_565
O12 Sr0 3.099223 1_555
O13 P8 1.547665 1_555
O13 Sr9 2.452112 1_545
O13 Sr10 2.813989 1_555
O13 Sr5 3.063721 1_555
O14 P6 1.546463 1_555
O14 Sr2 2.549417 1_555
O14 Sr11 3.099223 1_555
O15 P2 1.562328 1_655
O15 Sr5 2.607430 1_555
O15 Sr3 2.849553 1_554
O16 P7 1.569100 1_555
O16 Sr4 2.549636 1_555
O16 Sr11 2.630968 1_555
O17 P5 1.538206 1_555
O17 Sr1 2.522868 1_555
O17 Sr6 2.756762 1_545
O17 Sr10 3.027487 1_555
O18 P11 1.547665 1_455
O18 Sr4 2.452112 1_555
O18 Sr7 2.813989 1_455
O18 Sr1 3.063721 1_555
O19 P1 1.537807 1_554
O19 Sr11 2.571142 1_655
O19 Sr8 2.656314 1_555
O20 P5 1.572869 1_565
O20 Sr4 2.540416 1_555
O20 Sr6 2.653648 1_555
O21 P9 1.547665 1_555
O21 Sr10 2.452112 1_565
O21 Sr9 2.813989 1_555
O21 Sr6 3.063721 1_555
O22 P10 1.572869 1_555
O22 Sr9 2.540416 1_555
O22 Sr8 2.653648 1_555
O23 P4 1.572869 1_545
O23 Sr7 2.540416 1_555
O23 Sr5 2.653648 1_555
O24 P3 1.562328 1_555
O24 Sr1 2.607430 1_555
O24 Sr2 2.849553 1_556
O25 P6 1.537807 1_556
O25 Sr0 2.571142 1_555
O25 Sr6 2.656314 1_555
O26 P10 1.568005 1_555
O26 Sr10 2.581836 1_555
O26 Sr2 2.651768 1_555
O27 P3 1.546463 1_555
O27 Sr0 2.549417 1_555
O27 Sr3 3.099223 1_555
O28 P5 1.556777 1_555
O28 Sr10 2.610509 1_555
O28 Sr7 2.943710 1_455
O29 P1 1.562328 1_455
O29 Sr6 2.607430 1_555
O29 Sr11 2.849553 1_556
O30 P4 1.568005 1_455
O30 Sr4 2.581836 1_555
O30 Sr11 2.651768 1_555
O31 P2 1.546463 1_555
O31 Sr11 2.549417 1_545
O31 Sr2 3.099223 1_555
O32 P10 1.556777 1_555
O32 Sr7 2.610509 1_555
O32 Sr10 2.943710 1_555
O33 P0 1.556777 1_555
O33 Sr4 2.610509 1_555
O33 Sr9 2.943710 1_555
O34 P7 1.564179 1_555
O34 Sr8 2.689206 1_455
O34 Sr11 2.751827 1_555
O35 P8 1.538737 1_565
O35 Sr11 2.800068 1_555
O36 P10 1.538206 1_555
O36 Sr5 2.522868 1_555
O36 Sr8 2.756762 1_555
O36 Sr7 3.027487 1_555
O37 P9 1.538737 1_545
O37 Sr3 2.800068 1_555
O38 P11 1.564179 1_555
O38 Sr1 2.689206 1_655
O38 Sr3 2.751827 1_555
O39 P0 1.568005 1_555
O39 Sr9 2.581836 1_555
O39 Sr0 2.651768 1_555
O40 P4 1.538206 1_555
O40 Sr8 2.522868 1_555
O40 Sr5 2.756762 1_565
O40 Sr9 3.027487 1_555
O41 P9 1.564179 1_555
O41 Sr6 2.689206 1_555
O41 Sr0 2.751827 1_555
O42 P6 1.595096 1_555
O42 Sr11 2.512548 1_555
O42 Sr6 2.637556 1_554
O43 P3 1.595096 1_555
O43 Sr3 2.512548 1_555
O43 Sr5 2.637556 1_556
O44 P0 1.572869 1_555
O44 Sr10 2.540416 1_555
O44 Sr1 2.653648 1_555
O45 P8 1.564179 1_555
O45 Sr5 2.689206 1_555
O45 Sr2 2.751827 1_555
O46 P0 1.538206 1_555
O46 Sr6 2.522868 1_555
O46 Sr1 2.756762 1_555
O46 Sr4 3.027487 1_555
O47 P11 1.538737 1_555
O47 Sr0 2.800068 1_555
