# generated using pymatgen
data_Sr3Ga3N5
_symmetry_space_group_name_H-M   'P 1'
_cell_length_a   5.94390548
_cell_length_b   7.22810359
_cell_length_c   8.69907813
_cell_angle_alpha   108.34500310
_cell_angle_beta   103.69027568
_cell_angle_gamma   95.25498033
_symmetry_Int_Tables_number   1
_chemical_formula_structural   Sr3Ga3N5
_chemical_formula_sum   'Sr6 Ga6 N10'
_cell_volume   339.03227492
_cell_formula_units_Z   2
loop_
 _symmetry_equiv_pos_site_id
 _symmetry_equiv_pos_as_xyz
  1  'x, y, z'
loop_
 _atom_site_type_symbol
 _atom_site_label
 _atom_site_symmetry_multiplicity
 _atom_site_fract_x
 _atom_site_fract_y
 _atom_site_fract_z
 _atom_site_occupancy
  Sr  Sr0  1  0.66892092  0.86251270  0.87385508  1
  Sr  Sr1  1  0.33107908  0.13748730  0.12614492  1
  Sr  Sr2  1  0.18222995  0.58898648  0.39172183  1
  Sr  Sr3  1  0.65627801  0.65520450  0.20221815  1
  Sr  Sr4  1  0.34372199  0.34479550  0.79778185  1
  Sr  Sr5  1  0.81777005  0.41101352  0.60827817  1
  Ga  Ga0  1  0.70905478  0.95496480  0.56877838  1
  Ga  Ga1  1  0.29094522  0.04503520  0.43122162  1
  Ga  Ga2  1  0.09135647  0.68377906  0.02693818  1
  Ga  Ga3  1  0.87722530  0.12166302  0.28440054  1
  Ga  Ga4  1  0.90864353  0.31622094  0.97306182  1
  Ga  Ga5  1  0.12277470  0.87833698  0.71559946  1
  N  N0  1  0.61363070  0.05259934  0.38153661  1
  N  N1  1  0.74499911  0.22393042  0.11001028  1
  N  N2  1  0.04412868  0.89115622  0.22207078  1
  N  N3  1  0.16097192  0.28704037  0.47326074  1
  N  N4  1  0.95587132  0.10884378  0.77792922  1
  N  N5  1  0.25500089  0.77606958  0.88998972  1
  N  N6  1  0.38636930  0.94740066  0.61846339  1
  N  N7  1  0.76561884  0.52650305  0.90545226  1
  N  N8  1  0.23438116  0.47349695  0.09454774  1
  N  N9  1  0.83902808  0.71295963  0.52673926  1
loop_
_geom_bond_atom_site_label_1
_geom_bond_atom_site_label_2
_geom_bond_distance
_geom_bond_site_symmetry_2
Ga0 N9 1.941391 1_555
Ga0 N0 1.957656 1_565
Ga0 N4 1.965567 1_565
Ga0 N6 2.063161 1_555
Ga1 N3 1.941391 1_555
Ga1 N6 1.957656 1_545
Ga1 N2 1.965567 1_545
Ga1 N0 2.063161 1_555
Ga2 N5 1.933982 1_554
Ga2 N2 1.976874 1_555
Ga2 N8 1.985340 1_555
Ga2 N7 2.007464 1_454
Ga3 N1 1.927031 1_555
Ga3 N2 2.010690 1_645
Ga3 N3 2.013816 1_655
Ga3 N0 2.041311 1_555
Ga4 N1 1.933982 1_556
Ga4 N4 1.976874 1_555
Ga4 N7 1.985340 1_555
Ga4 N8 2.007464 1_656
Ga5 N5 1.927031 1_555
Ga5 N4 2.010690 1_465
Ga5 N9 2.013816 1_455
Ga5 N6 2.041311 1_555
N0 Sr5 2.673775 1_555
N0 Sr1 2.722789 1_555
N0 Sr3 2.871997 1_545
N1 Sr1 2.529873 1_555
N1 Sr0 2.686059 1_544
N1 Sr3 3.092959 1_555
N2 Sr3 2.675644 1_455
N2 Sr1 2.797912 1_565
N3 Sr2 2.499755 1_555
N3 Sr4 2.654676 1_555
N3 Sr5 2.674022 1_455
N4 Sr4 2.675644 1_655
N4 Sr0 2.797912 1_545
N5 Sr0 2.529873 1_555
N5 Sr1 2.686059 1_566
N5 Sr4 3.092959 1_555
N6 Sr2 2.673775 1_555
N6 Sr0 2.722789 1_555
N6 Sr4 2.871997 1_565
N7 Sr4 2.530110 1_555
N7 Sr5 2.558161 1_555
N7 Sr0 2.627868 1_555
N7 Sr3 2.710274 1_556
N8 Sr3 2.530110 1_555
N8 Sr2 2.558161 1_555
N8 Sr1 2.627868 1_555
N8 Sr4 2.710274 1_554
N9 Sr5 2.499755 1_555
N9 Sr3 2.654676 1_555
N9 Sr2 2.674022 1_655
