# generated using pymatgen
data_UP2
_symmetry_space_group_name_H-M   'P 1'
_cell_length_a   5.48490750
_cell_length_b   5.39096950
_cell_length_c   8.73367259
_cell_angle_alpha   108.01810783
_cell_angle_beta   108.35202897
_cell_angle_gamma   89.96579963
_symmetry_Int_Tables_number   1
_chemical_formula_structural   UP2
_chemical_formula_sum   'U4 P8'
_cell_volume   231.74658682
_cell_formula_units_Z   4
loop_
 _symmetry_equiv_pos_site_id
 _symmetry_equiv_pos_as_xyz
  1  'x, y, z'
loop_
 _atom_site_type_symbol
 _atom_site_label
 _atom_site_symmetry_multiplicity
 _atom_site_fract_x
 _atom_site_fract_y
 _atom_site_fract_z
 _atom_site_occupancy
  U  U0  1  0.21784607  0.71759311  0.43565687  1
  U  U1  1  0.71829909  0.21863384  0.43682987  1
  U  U2  1  0.51059279  0.51057922  0.02083271  1
  U  U3  1  0.99516796  0.99520052  0.99021100  1
  P  P0  1  0.54040734  0.04055132  0.08060574  1
  P  P1  1  0.68493407  0.68505965  0.36984859  1
  P  P2  1  0.14077272  0.14883021  0.72147165  1
  P  P3  1  0.58071539  0.14853658  0.72148681  1
  P  P4  1  0.14028829  0.57249680  0.72145096  1
  P  P5  1  0.58080424  0.57256846  0.72142596  1
  P  P6  1  0.03951370  0.53943949  0.07860844  1
  P  P7  1  0.17555832  0.17541281  0.35137439  1
loop_
_geom_bond_atom_site_label_1
_geom_bond_atom_site_label_2
_geom_bond_distance
_geom_bond_site_symmetry_2
P0 U2 2.735694 1_555
P0 U2 2.736089 1_545
P0 U1 2.791907 1_555
P0 U3 2.832205 1_444
P0 U3 2.832768 1_544
P1 U2 2.735412 1_555
P1 U1 2.745974 1_555
P1 U1 2.746285 1_565
P1 U0 2.790202 1_655
P1 U0 2.790866 1_555
P2 P4 2.284029 1_555
P2 P3 2.413003 1_555
P2 U2 2.874769 1_556
P2 U1 2.939627 1_455
P2 U0 2.981225 1_545
P2 U3 3.035825 1_445
P3 P5 2.286108 1_555
P3 U2 2.875403 1_556
P3 U1 2.942091 1_555
P3 U0 2.979825 1_545
P3 U3 3.032726 1_545
P4 P5 2.416258 1_555
P4 U2 2.875471 1_556
P4 U1 2.936697 1_455
P4 U0 2.983262 1_555
P4 U3 3.033381 1_455
P5 U2 2.876225 1_556
P5 U1 2.938056 1_555
P5 U0 2.979943 1_555
P5 U3 3.033959 1_555
P6 U2 2.779435 1_455
P6 U2 2.779736 1_555
P6 U3 2.782935 1_444
P6 U3 2.783260 1_454
P6 U0 2.798369 1_555
P7 U0 2.775093 1_555
P7 U0 2.775396 1_545
P7 U1 2.822645 1_555
P7 U1 2.823462 1_455
P7 U3 2.830620 1_444
