# generated using pymatgen
data_Rb2ZnN12
_symmetry_space_group_name_H-M   'P 1'
_cell_length_a   6.67586500
_cell_length_b   7.34832800
_cell_length_c   21.16425100
_cell_angle_alpha   90.00000000
_cell_angle_beta   90.00000000
_cell_angle_gamma   90.00000000
_symmetry_Int_Tables_number   1
_chemical_formula_structural   Rb2ZnN12
_chemical_formula_sum   'Rb8 Zn4 N48'
_cell_volume   1038.24293004
_cell_formula_units_Z   4
loop_
 _symmetry_equiv_pos_site_id
 _symmetry_equiv_pos_as_xyz
  1  'x, y, z'
loop_
 _atom_site_type_symbol
 _atom_site_label
 _atom_site_symmetry_multiplicity
 _atom_site_fract_x
 _atom_site_fract_y
 _atom_site_fract_z
 _atom_site_occupancy
  Rb  Rb0  1  0.67971800  0.38022100  0.51361500  1
  Rb  Rb1  1  0.67971800  0.88022100  0.98638500  1
  Rb  Rb2  1  0.30787500  0.12212300  0.19567800  1
  Rb  Rb3  1  0.30787500  0.62212300  0.30432200  1
  Rb  Rb4  1  0.32028200  0.38022100  0.01361500  1
  Rb  Rb5  1  0.69212500  0.62212300  0.80432200  1
  Rb  Rb6  1  0.32028200  0.88022100  0.48638500  1
  Rb  Rb7  1  0.69212500  0.12212300  0.69567800  1
  Zn  Zn0  1  0.06199500  0.62188600  0.63045400  1
  Zn  Zn1  1  0.06199500  0.12188600  0.86954600  1
  Zn  Zn2  1  0.93800500  0.62188600  0.13045400  1
  Zn  Zn3  1  0.93800500  0.12188600  0.36954600  1
  N  N0  1  0.27030400  0.99483400  0.05351200  1
  N  N1  1  0.17248100  0.26395100  0.60797600  1
  N  N2  1  0.02997200  0.28369200  0.79370900  1
  N  N3  1  0.81543500  0.84093100  0.22839800  1
  N  N4  1  0.33186300  0.39855900  0.74948100  1
  N  N5  1  0.81543500  0.34093100  0.27160200  1
  N  N6  1  0.83311700  0.86615400  0.55396800  1
  N  N7  1  0.66813700  0.39855900  0.24948100  1
  N  N8  1  0.36359300  0.15299500  0.89673300  1
  N  N9  1  0.50856100  0.61816300  0.63432200  1
  N  N10  1  0.68781300  0.67683800  0.40599900  1
  N  N11  1  0.17248100  0.76395100  0.89202400  1
  N  N12  1  0.50856100  0.11816300  0.86567800  1
  N  N13  1  0.72969600  0.49483400  0.94648800  1
  N  N14  1  0.02997200  0.78369200  0.70629100  1
  N  N15  1  0.02499300  0.34926600  0.62243300  1
  N  N16  1  0.49143900  0.11816300  0.36567800  1
  N  N17  1  0.31218700  0.67683800  0.90599900  1
  N  N18  1  0.18456500  0.84093100  0.72839800  1
  N  N19  1  0.31218700  0.17683800  0.59400100  1
  N  N20  1  0.16688300  0.36615400  0.44603200  1
  N  N21  1  0.33186300  0.89855900  0.75051900  1
  N  N22  1  0.27030400  0.49483400  0.44648800  1
  N  N23  1  0.65500600  0.58344900  0.66259800  1
  N  N24  1  0.49143900  0.61816300  0.13432200  1
  N  N25  1  0.97002800  0.28369200  0.29370900  1
  N  N26  1  0.36359300  0.65299500  0.60326700  1
  N  N27  1  0.93780600  0.73363800  0.55168600  1
  N  N28  1  0.97500700  0.34926600  0.12243300  1
  N  N29  1  0.93780600  0.23363800  0.94831400  1
  N  N30  1  0.34499400  0.58344900  0.16259800  1
  N  N31  1  0.66813700  0.89855900  0.25051900  1
  N  N32  1  0.65500600  0.08344900  0.83740200  1
  N  N33  1  0.06219400  0.23363800  0.44831400  1
  N  N34  1  0.97500700  0.84926600  0.37756700  1
  N  N35  1  0.83311700  0.36615400  0.94603200  1
  N  N36  1  0.72969600  0.99483400  0.55351200  1
  N  N37  1  0.34499400  0.08344900  0.33740200  1
  N  N38  1  0.63640700  0.15299500  0.39673300  1
  N  N39  1  0.16688300  0.86615400  0.05396800  1
  N  N40  1  0.97002800  0.78369200  0.20629100  1
  N  N41  1  0.82751900  0.76395100  0.39202400  1
  N  N42  1  0.06219400  0.73363800  0.05168600  1
  N  N43  1  0.68781300  0.17683800  0.09400100  1
  N  N44  1  0.82751900  0.26395100  0.10797600  1
  N  N45  1  0.02499300  0.84926600  0.87756700  1
  N  N46  1  0.18456500  0.34093100  0.77160200  1
  N  N47  1  0.63640700  0.65299500  0.10326700  1
loop_
_geom_bond_atom_site_label_1
_geom_bond_atom_site_label_2
_geom_bond_distance
_geom_bond_site_symmetry_2
N0 N39 1.170857 1_555
N0 Rb4 2.973929 1_565
N0 Rb2 3.160840 1_565
N0 Rb1 3.193436 1_554
N1 N19 1.169232 1_555
N1 N15 1.206693 1_555
N2 N46 1.208691 1_555
N2 Zn1 2.008871 1_555
N2 Rb7 3.286505 1_455
N2 Rb5 3.364827 1_455
N3 N31 1.168535 1_555
N3 N40 1.208691 1_555
N4 N46 1.168535 1_555
N4 Rb5 3.135336 1_555
N4 Rb7 3.347731 1_555
N5 N7 1.168535 1_555
N7 Rb3 3.135336 1_555
N7 Rb2 3.347731 1_555
N8 Zn1 2.106472 1_555
N8 Rb4 2.998482 1_556
N9 Rb0 3.299865 1_555
N10 N41 1.169232 1_555
N10 Rb0 3.152977 1_555
N10 Rb6 3.338885 1_555
N10 Rb3 3.350493 1_555
N11 N17 1.169232 1_555
N11 N45 1.206693 1_555
N12 N32 1.174306 1_555
N12 N8 1.197544 1_555
N12 Rb1 3.299865 1_545
N13 N35 1.170857 1_555
N13 Rb1 2.973929 1_555
N13 Rb5 3.160840 1_555
N13 Rb4 3.193436 1_556
N14 N18 1.208691 1_555
N14 Zn0 2.008871 1_555
N14 Rb5 3.286505 1_455
N14 Rb7 3.364827 1_465
N15 Zn0 2.025599 1_555
N15 Rb7 3.182311 1_455
N15 Rb0 3.266321 1_455
N16 N37 1.174306 1_555
N16 N38 1.197544 1_555
N16 Rb6 3.299865 1_545
N17 Rb4 3.152977 1_556
N17 Rb1 3.338885 1_555
N17 Rb5 3.350493 1_555
N18 N21 1.168535 1_555
N19 Rb6 3.152977 1_545
N19 Rb0 3.338885 1_555
N19 Rb7 3.350493 1_555
N20 N22 1.170857 1_555
N20 N33 1.199587 1_555
N21 Rb7 3.135336 1_565
N21 Rb5 3.347731 1_555
N22 Rb6 2.973929 1_555
N22 Rb3 3.160840 1_555
N22 Rb0 3.193436 1_555
N23 N9 1.174306 1_555
N23 Rb5 3.023088 1_555
N23 Rb7 3.470374 1_555
N24 N30 1.174306 1_555
N24 N47 1.197544 1_555
N24 Rb4 3.299865 1_555
N25 N5 1.208691 1_555
N25 Zn3 2.008871 1_555
N25 Rb2 3.286505 1_655
N25 Rb3 3.364827 1_655
N26 N9 1.197544 1_555
N26 Zn0 2.106472 1_555
N26 Rb6 2.998482 1_555
N27 N6 1.199587 1_555
N27 Zn0 2.034900 1_655
N27 Rb6 3.096760 1_655
N27 Rb0 3.219061 1_555
N28 N44 1.206693 1_555
N28 Zn2 2.025599 1_555
N28 Rb2 3.182311 1_655
N28 Rb4 3.266321 1_655
N29 N35 1.199587 1_555
N29 Zn1 2.034900 1_655
N29 Rb4 3.096760 1_656
N29 Rb1 3.219061 1_545
N30 Rb3 3.023088 1_555
N30 Rb2 3.470374 1_555
N31 Rb2 3.135336 1_565
N31 Rb3 3.347731 1_555
N32 Rb7 3.023088 1_555
N32 Rb5 3.470374 1_545
N33 Zn3 2.034900 1_455
N33 Rb0 3.096760 1_455
N33 Rb6 3.219061 1_545
N34 N41 1.206693 1_555
N34 Zn3 2.025599 1_565
N34 Rb3 3.182311 1_655
N34 Rb6 3.266321 1_655
N36 N6 1.170857 1_555
N36 Rb0 2.973929 1_565
N36 Rb7 3.160840 1_565
N36 Rb6 3.193436 1_555
N37 Rb2 3.023088 1_555
N37 Rb3 3.470374 1_545
N38 Zn3 2.106472 1_555
N38 Rb0 2.998482 1_555
N39 N42 1.199587 1_555
N40 Zn2 2.008871 1_555
N40 Rb3 3.286505 1_655
N40 Rb2 3.364827 1_665
N42 Zn2 2.034900 1_455
N42 Rb1 3.096760 1_454
N42 Rb4 3.219061 1_555
N43 N44 1.169232 1_555
N43 Rb1 3.152977 1_544
N43 Rb4 3.338885 1_555
N43 Rb2 3.350493 1_555
N45 Zn1 2.025599 1_565
N45 Rb5 3.182311 1_455
N45 Rb1 3.266321 1_455
N47 Zn2 2.106472 1_555
N47 Rb1 2.998482 1_554
