# generated using pymatgen
data_CsGaSe3
_symmetry_space_group_name_H-M   'P 1'
_cell_length_a   13.15157149
_cell_length_b   6.77309737
_cell_length_c   7.81485175
_cell_angle_alpha   73.89929473
_cell_angle_beta   90.00000000
_cell_angle_gamma   90.00000000
_symmetry_Int_Tables_number   1
_chemical_formula_structural   CsGaSe3
_chemical_formula_sum   'Cs4 Ga4 Se12'
_cell_volume   668.81767498
_cell_formula_units_Z   4
loop_
 _symmetry_equiv_pos_site_id
 _symmetry_equiv_pos_as_xyz
  1  'x, y, z'
loop_
 _atom_site_type_symbol
 _atom_site_label
 _atom_site_symmetry_multiplicity
 _atom_site_fract_x
 _atom_site_fract_y
 _atom_site_fract_z
 _atom_site_occupancy
  Cs  Cs0  1  0.58065473  0.78514821  0.74718787  1
  Cs  Cs1  1  0.08065473  0.71485179  0.25281213  1
  Cs  Cs2  1  0.41934527  0.21485179  0.25281213  1
  Cs  Cs3  1  0.91934527  0.28514821  0.74718787  1
  Ga  Ga0  1  0.72786776  0.85546437  0.18304018  1
  Ga  Ga1  1  0.22786776  0.64453563  0.81695982  1
  Ga  Ga2  1  0.27213224  0.14453563  0.81695982  1
  Ga  Ga3  1  0.77213224  0.35546437  0.18304018  1
  Se  Se0  1  0.92202687  0.15252706  0.29326408  1
  Se  Se1  1  0.42202687  0.34747294  0.70673592  1
  Se  Se2  1  0.07797313  0.84747294  0.70673592  1
  Se  Se3  1  0.57797313  0.65252706  0.29326408  1
  Se  Se4  1  0.32662898  0.81430745  -0.00528737  1
  Se  Se5  1  0.82662898  0.68569255  0.00528737  1
  Se  Se6  1  0.67337102  0.18569255  0.00528737  1
  Se  Se7  1  0.17337102  0.31430745  -0.00528737  1
  Se  Se8  1  0.82460272  0.86158699  0.44654426  1
  Se  Se9  1  0.32460272  0.63841301  0.55345574  1
  Se  Se10  1  0.17539728  0.13841301  0.55345574  1
  Se  Se11  1  0.67539728  0.36158699  0.44654426  1
loop_
_geom_bond_atom_site_label_1
_geom_bond_atom_site_label_2
_geom_bond_distance
_geom_bond_site_symmetry_2
Cs0 Se1 3.709412 1_555
Cs0 Se5 3.772714 1_556
Cs0 Se4 3.892799 1_556
Cs0 Se3 3.893474 1_555
Cs0 Se8 3.925128 1_555
Cs0 Se9 3.931214 1_555
Cs0 Se6 3.993771 1_566
Cs0 Se3 4.110176 1_556
Cs0 Se11 4.150680 1_565
Cs0 Se6 4.183048 1_556
Cs0 Se1 4.276730 1_565
Cs1 Se0 3.709412 1_465
Cs1 Se4 3.772714 1_555
Cs1 Se5 3.892799 1_455
Cs1 Se2 3.893474 1_555
Cs1 Se9 3.925128 1_555
Cs1 Se8 3.931214 1_455
Cs1 Se7 3.993771 1_555
Cs1 Se2 4.110176 1_554
Cs1 Se10 4.150680 1_555
Cs1 Se7 4.183048 1_565
Cs1 Se0 4.276730 1_455
Cs2 Se3 3.709412 1_555
Cs2 Se7 3.772714 1_555
Cs2 Se6 3.892799 1_555
Cs2 Se1 3.893474 1_555
Cs2 Se10 3.925128 1_555
Cs2 Se11 3.931214 1_555
Cs2 Se4 3.993771 1_545
Cs2 Se1 4.110176 1_554
Cs2 Se9 4.150680 1_545
Cs2 Se4 4.183048 1_555
Cs2 Se3 4.276730 1_545
Cs3 Se2 3.709412 1_645
Cs3 Se6 3.772714 1_556
Cs3 Se7 3.892799 1_656
Cs3 Se0 3.893474 1_555
Cs3 Se11 3.925128 1_555
Cs3 Se10 3.931214 1_655
Cs3 Se5 3.993771 1_556
Cs3 Se0 4.110176 1_556
Cs3 Se8 4.150680 1_555
Cs3 Se5 4.183048 1_546
Cs3 Se2 4.276730 1_655
Ga0 Se6 2.392217 1_565
Ga0 Se5 2.413475 1_555
Ga0 Se3 2.420907 1_555
Ga0 Se8 2.430661 1_555
Ga1 Se7 2.392217 1_556
Ga1 Se4 2.413475 1_556
Ga1 Se2 2.420907 1_555
Ga1 Se9 2.430661 1_555
Ga2 Se4 2.392217 1_546
Ga2 Se7 2.413475 1_556
Ga2 Se1 2.420907 1_555
Ga2 Se10 2.430661 1_555
Ga3 Se5 2.392217 1_555
Ga3 Se6 2.413475 1_555
Ga3 Se0 2.420907 1_555
Ga3 Se11 2.430661 1_555
