# generated using pymatgen
data_YNbO4
_symmetry_space_group_name_H-M   'P 1'
_cell_length_a   5.11268443
_cell_length_b   5.30985003
_cell_length_c   6.55180384
_cell_angle_alpha   112.13249313
_cell_angle_beta   111.14424790
_cell_angle_gamma   94.18138351
_symmetry_Int_Tables_number   1
_chemical_formula_structural   YNbO4
_chemical_formula_sum   'Y2 Nb2 O8'
_cell_volume   149.11130001
_cell_formula_units_Z   2
loop_
 _symmetry_equiv_pos_site_id
 _symmetry_equiv_pos_as_xyz
  1  'x, y, z'
loop_
 _atom_site_type_symbol
 _atom_site_label
 _atom_site_symmetry_multiplicity
 _atom_site_fract_x
 _atom_site_fract_y
 _atom_site_fract_z
 _atom_site_occupancy
  Y  Y0  1  0.37860055  0.12858156  0.75713808  1
  Y  Y1  1  0.62139873  0.87141809  0.24286169  1
  Nb  Nb0  1  0.85755605  0.60750309  0.71505017  1
  Nb  Nb1  1  0.14244367  0.39249761  0.28495021  1
  O  O0  1  0.42715253  0.22042414  0.43660911  1
  O  O1  1  0.00941218  0.71621235  0.43658658  1
  O  O2  1  0.57284969  0.77957802  0.56339239  1
  O  O3  1  0.99058854  0.28378748  0.56341262  1
  O  O4  1  0.78857601  0.12671677  0.07704818  1
  O  O5  1  0.28842607  0.45029075  0.07702379  1
  O  O6  1  0.21142255  0.87328145  0.92295070  1
  O  O7  1  0.71157344  0.54970871  0.92297648  1
loop_
_geom_bond_atom_site_label_1
_geom_bond_atom_site_label_2
_geom_bond_distance
_geom_bond_site_symmetry_2
Nb0 O6 1.876584 1_655
Nb0 O7 1.876755 1_555
Nb0 O3 1.943047 1_555
Nb0 O2 1.943074 1_555
Nb0 O0 2.452299 1_555
Nb0 O1 2.452473 1_655
Nb1 O4 1.876594 1_455
Nb1 O5 1.876752 1_555
Nb1 O1 1.943038 1_555
Nb1 O0 1.943080 1_555
Nb1 O2 2.452311 1_555
Nb1 O3 2.452466 1_455
O0 Y1 2.331785 1_545
O0 Y0 2.416553 1_555
O1 Y1 2.331448 1_455
O1 Y0 2.416687 1_565
O2 Y0 2.331783 1_565
O2 Y1 2.416551 1_555
O3 Y0 2.331445 1_655
O3 Y1 2.416690 1_545
O4 Y1 2.314954 1_545
O4 Y0 2.374015 1_554
O5 Y1 2.314870 1_555
O5 Y0 2.374317 1_554
O6 Y0 2.314957 1_565
O6 Y1 2.374017 1_556
O7 Y0 2.314870 1_555
O7 Y1 2.374315 1_556
