# generated using pymatgen
data_LaH6(ClO3)3
_symmetry_space_group_name_H-M   'P 1'
_cell_length_a   8.13910775
_cell_length_b   8.13910775
_cell_length_c   8.41197600
_cell_angle_alpha   90.00000000
_cell_angle_beta   90.00000000
_cell_angle_gamma   119.99999794
_symmetry_Int_Tables_number   1
_chemical_formula_structural   LaH6(ClO3)3
_chemical_formula_sum   'La2 H12 Cl6 O18'
_cell_volume   482.59438127
_cell_formula_units_Z   2
loop_
 _symmetry_equiv_pos_site_id
 _symmetry_equiv_pos_as_xyz
  1  'x, y, z'
loop_
 _atom_site_type_symbol
 _atom_site_label
 _atom_site_symmetry_multiplicity
 _atom_site_fract_x
 _atom_site_fract_y
 _atom_site_fract_z
 _atom_site_occupancy
  La  La0  1  0.66666700  0.33333300  0.25000000  1
  La  La1  1  0.33333300  0.66666700  0.75000000  1
  H  H0  1  0.65077800  0.54863600  0.65607000  1
  H  H1  1  0.54863600  0.65077800  0.15607000  1
  H  H2  1  0.10214200  0.45136400  0.15607000  1
  H  H3  1  0.65077800  0.54863600  0.84393000  1
  H  H4  1  0.34922200  0.89785800  0.15607000  1
  H  H5  1  0.89785800  0.34922200  0.65607000  1
  H  H6  1  0.45136400  0.10214200  0.84393000  1
  H  H7  1  0.34922200  0.89785800  0.34393000  1
  H  H8  1  0.45136400  0.10214200  0.65607000  1
  H  H9  1  0.89785800  0.34922200  0.84393000  1
  H  H10  1  0.10214200  0.45136400  0.34393000  1
  H  H11  1  0.54863600  0.65077800  0.34393000  1
  Cl  Cl0  1  0.76215200  0.00000000  0.00000000  1
  Cl  Cl1  1  0.23784800  0.23784800  0.50000000  1
  Cl  Cl2  1  0.00000000  0.76215200  0.00000000  1
  Cl  Cl3  1  0.76215200  0.00000000  0.50000000  1
  Cl  Cl4  1  0.00000000  0.76215200  0.50000000  1
  Cl  Cl5  1  0.23784800  0.23784800  0.00000000  1
  O  O0  1  0.97829200  0.41130800  0.75000000  1
  O  O1  1  0.18715300  0.74879500  0.51052900  1
  O  O2  1  0.56164200  0.81284700  0.98947100  1
  O  O3  1  0.74879500  0.18715300  0.01052900  1
  O  O4  1  0.58869200  0.56698400  0.75000000  1
  O  O5  1  0.43835800  0.25120500  0.01052900  1
  O  O6  1  0.56698400  0.58869200  0.25000000  1
  O  O7  1  0.25120500  0.43835800  0.51052900  1
  O  O8  1  0.81284700  0.56164200  0.01052900  1
  O  O9  1  0.81284700  0.56164200  0.48947100  1
  O  O10  1  0.25120500  0.43835800  0.98947100  1
  O  O11  1  0.74879500  0.18715300  0.48947100  1
  O  O12  1  0.41130800  0.97829200  0.25000000  1
  O  O13  1  0.02170800  0.43301600  0.25000000  1
  O  O14  1  0.43835800  0.25120500  0.48947100  1
  O  O15  1  0.56164200  0.81284700  0.51052900  1
  O  O16  1  0.18715300  0.74879500  0.98947100  1
  O  O17  1  0.43301600  0.02170800  0.75000000  1
loop_
_geom_bond_atom_site_label_1
_geom_bond_atom_site_label_2
_geom_bond_distance
_geom_bond_site_symmetry_2
La0 O13 2.581512 1_655
La0 O12 2.581514 1_545
La0 O6 2.581520 1_555
La0 O11 2.591447 1_555
La0 O3 2.591447 1_555
La0 O8 2.591451 1_555
La0 O9 2.591451 1_555
La0 O5 2.591452 1_555
La0 O14 2.591452 1_555
La1 O17 2.581512 1_565
La1 O0 2.581514 1_455
La1 O4 2.581520 1_555
La1 O16 2.591447 1_555
La1 O1 2.591447 1_555
La1 O15 2.591451 1_555
La1 O2 2.591451 1_555
La1 O7 2.591452 1_555
La1 O10 2.591452 1_555
H0 O4 0.988653 1_555
H1 O6 0.988653 1_555
H2 O13 0.988653 1_555
H3 O4 0.988653 1_555
H4 O12 0.988653 1_555
H5 O0 0.988653 1_555
H6 O17 0.988653 1_555
H7 O12 0.988653 1_555
H8 O17 0.988653 1_555
H9 O0 0.988653 1_555
H10 O13 0.988653 1_555
H11 O6 0.988653 1_555
Cl0 O3 1.582902 1_555
Cl0 O2 1.582902 1_544
Cl1 O7 1.582902 1_555
Cl1 O14 1.582902 1_555
Cl2 O16 1.582902 1_554
Cl2 O8 1.582902 1_455
Cl3 O11 1.582902 1_555
Cl3 O15 1.582902 1_545
Cl4 O1 1.582902 1_555
Cl4 O9 1.582902 1_455
Cl5 O5 1.582902 1_555
Cl5 O10 1.582902 1_554
