# generated using pymatgen
data_Mn3B7BrO13
_symmetry_space_group_name_H-M   'P 1'
_cell_length_a   8.76732930
_cell_length_b   8.76732930
_cell_length_c   8.76732930
_cell_angle_alpha   60.00000000
_cell_angle_beta   60.00000000
_cell_angle_gamma   60.00000000
_symmetry_Int_Tables_number   1
_chemical_formula_structural   Mn3B7BrO13
_chemical_formula_sum   'Mn6 B14 Br2 O26'
_cell_volume   476.52639207
_cell_formula_units_Z   2
loop_
 _symmetry_equiv_pos_site_id
 _symmetry_equiv_pos_as_xyz
  1  'x, y, z'
loop_
 _atom_site_type_symbol
 _atom_site_label
 _atom_site_symmetry_multiplicity
 _atom_site_fract_x
 _atom_site_fract_y
 _atom_site_fract_z
 _atom_site_occupancy
  Mn  Mn0  1  0.50000000  0.00000000  0.50000000  1
  Mn  Mn1  1  0.50000000  0.50000000  0.00000000  1
  Mn  Mn2  1  0.00000000  0.50000000  0.50000000  1
  Mn  Mn3  1  0.00000000  0.00000000  0.50000000  1
  Mn  Mn4  1  0.50000000  0.00000000  0.00000000  1
  Mn  Mn5  1  0.00000000  0.50000000  0.00000000  1
  B  B0  1  0.73920800  0.42026400  0.42026400  1
  B  B1  1  0.92026400  0.92026400  0.23920800  1
  B  B2  1  0.23920800  0.92026400  0.92026400  1
  B  B3  1  0.42026400  0.42026400  0.42026400  1
  B  B4  1  0.25000000  0.75000000  0.75000000  1
  B  B5  1  0.42026400  0.42026400  0.73920800  1
  B  B6  1  0.75000000  0.25000000  0.75000000  1
  B  B7  1  0.25000000  0.25000000  0.75000000  1
  B  B8  1  0.75000000  0.25000000  0.25000000  1
  B  B9  1  0.25000000  0.75000000  0.25000000  1
  B  B10  1  0.75000000  0.75000000  0.25000000  1
  B  B11  1  0.42026400  0.73920800  0.42026400  1
  B  B12  1  0.92026400  0.23920800  0.92026400  1
  B  B13  1  0.92026400  0.92026400  0.92026400  1
  Br  Br0  1  0.25000000  0.25000000  0.25000000  1
  Br  Br1  1  0.75000000  0.75000000  0.75000000  1
  O  O0  1  0.74871300  0.29673100  0.06362100  1
  O  O1  1  0.29673100  0.06362100  0.74871300  1
  O  O2  1  0.39093500  0.56362100  0.24871300  1
  O  O3  1  0.06362100  0.29673100  0.89093500  1
  O  O4  1  0.24871300  0.79673100  0.39093500  1
  O  O5  1  0.29673100  0.89093500  0.06362100  1
  O  O6  1  0.79673100  0.39093500  0.24871300  1
  O  O7  1  0.56362100  0.79673100  0.24871300  1
  O  O8  1  0.89093500  0.29673100  0.74871300  1
  O  O9  1  0.89093500  0.74871300  0.06362100  1
  O  O10  1  0.24871300  0.56362100  0.79673100  1
  O  O11  1  0.74871300  0.89093500  0.29673100  1
  O  O12  1  0.39093500  0.79673100  0.56362100  1
  O  O13  1  0.79673100  0.24871300  0.56362100  1
  O  O14  1  0.50000000  0.50000000  0.50000000  1
  O  O15  1  0.06362100  0.89093500  0.74871300  1
  O  O16  1  0.56362100  0.24871300  0.39093500  1
  O  O17  1  0.06362100  0.74871300  0.29673100  1
  O  O18  1  0.00000000  0.00000000  0.00000000  1
  O  O19  1  0.56362100  0.39093500  0.79673100  1
  O  O20  1  0.79673100  0.56362100  0.39093500  1
  O  O21  1  0.24871300  0.39093500  0.56362100  1
  O  O22  1  0.74871300  0.06362100  0.89093500  1
  O  O23  1  0.29673100  0.74871300  0.89093500  1
  O  O24  1  0.89093500  0.06362100  0.29673100  1
  O  O25  1  0.39093500  0.24871300  0.79673100  1
loop_
_geom_bond_atom_site_label_1
_geom_bond_atom_site_label_2
_geom_bond_distance
_geom_bond_site_symmetry_2
Mn0 O1 2.139653 1_555
Mn0 O11 2.139653 1_545
Mn0 O16 2.139653 1_555
Mn0 O12 2.139653 1_545
Mn1 O0 2.139653 1_555
Mn1 O23 2.139653 1_554
Mn1 O19 2.139653 1_554
Mn1 O2 2.139653 1_555
Mn2 O8 2.139653 1_455
Mn2 O17 2.139653 1_555
Mn2 O20 2.139653 1_455
Mn2 O21 2.139653 1_555
Mn3 O24 2.139653 1_455
Mn3 O15 2.139653 1_545
Mn3 O4 2.139653 1_545
Mn3 O13 2.139653 1_455
Mn4 O22 2.139653 1_554
Mn4 O5 2.139653 1_545
Mn4 O7 2.139653 1_545
Mn4 O25 2.139653 1_554
Mn5 O9 2.139653 1_455
Mn5 O3 2.139653 1_554
Mn5 O10 2.139653 1_554
Mn5 O6 2.139653 1_455
B0 O20 1.442619 1_555
B0 O13 1.442619 1_555
B0 O6 1.442619 1_555
B0 O14 1.712369 1_555
B1 O17 1.442619 1_655
B1 O11 1.442619 1_555
B1 O24 1.442619 1_565
B1 O18 1.712369 1_665
B2 O1 1.442619 1_565
B2 O5 1.442619 1_556
B2 O23 1.442619 1_555
B2 O18 1.712369 1_566
B3 O21 1.442619 1_555
B3 O16 1.442619 1_555
B3 O2 1.442619 1_555
B3 O14 1.712369 1_555
B4 O12 1.477305 1_555
B4 O10 1.477305 1_555
B4 O23 1.477305 1_555
B4 O15 1.477305 1_555
B5 O19 1.442619 1_555
B5 O10 1.442619 1_555
B5 O25 1.442619 1_555
B5 O14 1.712369 1_555
B6 O19 1.477305 1_555
B6 O13 1.477305 1_555
B6 O8 1.477305 1_555
B6 O22 1.477305 1_555
B7 O25 1.477305 1_555
B7 O21 1.477305 1_555
B7 O1 1.477305 1_555
B7 O3 1.477305 1_555
B8 O6 1.477305 1_555
B8 O16 1.477305 1_555
B8 O24 1.477305 1_555
B8 O0 1.477305 1_555
B9 O4 1.477305 1_555
B9 O2 1.477305 1_555
B9 O5 1.477305 1_555
B9 O17 1.477305 1_555
B10 O20 1.477305 1_555
B10 O7 1.477305 1_555
B10 O11 1.477305 1_555
B10 O9 1.477305 1_555
B11 O12 1.442619 1_555
B11 O7 1.442619 1_555
B11 O4 1.442619 1_555
B11 O14 1.712369 1_555
B12 O8 1.442619 1_555
B12 O0 1.442619 1_556
B12 O3 1.442619 1_655
B12 O18 1.712369 1_656
B13 O9 1.442619 1_556
B13 O22 1.442619 1_565
B13 O15 1.442619 1_655
B13 O18 1.712369 1_666
Br0 Mn4 3.099719 1_555
Br0 Mn1 3.099719 1_555
Br0 Mn5 3.099719 1_555
Br0 Mn2 3.099719 1_555
Br0 Mn3 3.099719 1_555
Br0 Mn0 3.099719 1_555
Br1 Mn2 3.099719 1_655
Br1 Mn5 3.099719 1_656
Br1 Mn0 3.099719 1_565
Br1 Mn1 3.099719 1_556
Br1 Mn3 3.099719 1_665
Br1 Mn4 3.099719 1_566
