# generated using pymatgen
data_Rb2(WO3)9
_symmetry_space_group_name_H-M   'P 1'
_cell_length_a   7.52415498
_cell_length_b   7.52415582
_cell_length_c   46.45515367
_cell_angle_alpha   90.00000000
_cell_angle_beta   90.00000000
_cell_angle_gamma   120.00000044
_symmetry_Int_Tables_number   1
_chemical_formula_structural   Rb2(WO3)9
_chemical_formula_sum   'Rb8 W36 O108'
_cell_volume   2277.61358349
_cell_formula_units_Z   4
loop_
 _symmetry_equiv_pos_site_id
 _symmetry_equiv_pos_as_xyz
  1  'x, y, z'
loop_
 _atom_site_type_symbol
 _atom_site_label
 _atom_site_symmetry_multiplicity
 _atom_site_fract_x
 _atom_site_fract_y
 _atom_site_fract_z
 _atom_site_occupancy
  Rb  Rb0  1  -0.00000000  0.00000000  0.00409495  1
  Rb  Rb1  1  -0.00000000  0.00000000  0.16704813  1
  Rb  Rb2  1  -0.00000000  0.00000000  0.41628587  1
  Rb  Rb3  1  -0.00000000  0.00000000  0.66655878  1
  Rb  Rb4  1  -0.00000000  0.00000000  0.57923805  1
  Rb  Rb5  1  -0.00000000  0.00000000  0.75043387  1
  Rb  Rb6  1  -0.00000000  0.00000000  0.83289913  1
  Rb  Rb7  1  -0.00000000  0.00000000  0.91677522  1
  W  W0  1  0.00000000  0.49687389  0.04200808  1
  W  W1  1  0.00000000  0.49532206  0.20866017  1
  W  W2  1  0.00000000  0.49532206  0.37467283  1
  W  W3  1  0.00000000  0.49687389  0.54132592  1
  W  W4  1  0.00000000  0.49912216  0.70846042  1
  W  W5  1  0.00000000  0.49912216  0.87487258  1
  W  W6  1  0.49595256  0.49595256  0.12510124  1
  W  W7  1  0.49292703  0.49292703  0.29166700  1
  W  W8  1  0.49595256  0.49595256  0.45823176  1
  W  W9  1  0.49832780  0.49832780  0.62487777  1
  W  W10  1  0.49991185  0.49991185  0.79166700  1
  W  W11  1  0.49832780  0.49832780  0.95845523  1
  W  W12  1  0.50312611  0.50312611  0.04200808  1
  W  W13  1  0.50467794  0.50467794  0.20866017  1
  W  W14  1  0.50467794  0.50467794  0.37467283  1
  W  W15  1  0.50312611  0.50312611  0.54132592  1
  W  W16  1  0.50087784  0.50087784  0.70846042  1
  W  W17  1  0.50087784  0.50087784  0.87487258  1
  W  W18  1  0.49687389  1.00000000  0.04200808  1
  W  W19  1  0.49532206  1.00000000  0.20866017  1
  W  W20  1  0.49532206  1.00000000  0.37467283  1
  W  W21  1  0.49687389  1.00000000  0.54132592  1
  W  W22  1  0.49912216  1.00000000  0.70846042  1
  W  W23  1  0.49912216  1.00000000  0.87487258  1
  W  W24  1  0.50404744  0.00000000  0.12510124  1
  W  W25  1  0.50707297  1.00000000  0.29166700  1
  W  W26  1  0.50404744  0.00000000  0.45823176  1
  W  W27  1  0.50167220  0.00000000  0.62487777  1
  W  W28  1  0.50008815  0.00000000  0.79166700  1
  W  W29  1  0.50167220  0.00000000  0.95845523  1
  W  W30  1  1.00000000  0.50404744  0.12510124  1
  W  W31  1  0.00000000  0.50707297  0.29166700  1
  W  W32  1  1.00000000  0.50404744  0.45823176  1
  W  W33  1  1.00000000  0.50008815  0.79166700  1
  W  W34  1  1.00000000  0.50167220  0.62487777  1
  W  W35  1  1.00000000  0.50167220  0.95845523  1
  O  O0  1  1.00000000  0.49949127  0.99993383  1
  O  O1  1  0.00000000  0.50017924  0.16656391  1
  O  O2  1  1.00000000  0.50058918  0.33359290  1
  O  O3  1  0.00000000  0.49989961  0.08330487  1
  O  O4  1  0.00000000  0.50008559  0.66625875  1
  O  O5  1  0.00000000  0.49989961  0.50002813  1
  O  O6  1  1.00000000  0.50058918  0.24974010  1
  O  O7  1  0.00000000  0.49985455  0.83399953  1
  O  O8  1  0.00000000  0.50017924  0.41677009  1
  O  O9  1  1.00000000  0.49949127  0.58339917  1
  O  O10  1  0.00000000  0.50008559  0.91707525  1
  O  O11  1  0.00000000  0.49985455  0.74933347  1
  O  O12  1  0.21117963  0.78715340  0.04131111  1
  O  O13  1  0.21121963  0.78685713  0.20783390  1
  O  O14  1  0.21121963  0.78685713  0.37549910  1
  O  O15  1  0.21117963  0.78715340  0.54202289  1
  O  O16  1  0.20981375  0.78969647  0.70778200  1
  O  O17  1  0.20981375  0.78969647  0.87555100  1
  O  O18  1  0.21315930  0.78872370  0.12518587  1
  O  O19  1  0.21548288  0.78773990  0.29166700  1
  O  O20  1  0.21315930  0.78872370  0.45814713  1
  O  O21  1  0.21081177  0.78994431  0.62488100  1
  O  O22  1  0.20970922  0.79030808  0.79166700  1
  O  O23  1  0.21081177  0.78994431  0.95845200  1
  O  O24  1  0.21127630  0.42443560  0.12518587  1
  O  O25  1  0.21226010  0.42774298  0.29166700  1
  O  O26  1  0.21127630  0.42443560  0.45814713  1
  O  O27  1  0.21005569  0.42086745  0.62488100  1
  O  O28  1  0.20969192  0.41940114  0.79166700  1
  O  O29  1  0.21005569  0.42086745  0.95845200  1
  O  O30  1  0.21284660  0.42402623  0.04131111  1
  O  O31  1  0.21314287  0.42436249  0.20783390  1
  O  O32  1  0.21314287  0.42436249  0.37549910  1
  O  O33  1  0.21284660  0.42402623  0.54202289  1
  O  O34  1  0.21030353  0.42011727  0.70778200  1
  O  O35  1  0.21030353  0.42011727  0.87555100  1
  O  O36  1  0.57597377  0.78882037  0.04131111  1
  O  O37  1  0.57563751  0.78878037  0.20783390  1
  O  O38  1  0.57563751  0.78878037  0.37549910  1
  O  O39  1  0.57597377  0.78882037  0.54202289  1
  O  O40  1  0.57988273  0.79018625  0.70778200  1
  O  O41  1  0.57988273  0.79018625  0.87555100  1
  O  O42  1  0.57556440  0.78684070  0.12518587  1
  O  O43  1  0.57225702  0.78451712  0.29166700  1
  O  O44  1  0.57556440  0.78684070  0.45814713  1
  O  O45  1  0.57913255  0.78918823  0.62488100  1
  O  O46  1  0.58059886  0.79029078  0.79166700  1
  O  O47  1  0.57913255  0.78918823  0.95845200  1
  O  O48  1  0.50050873  0.50050873  0.99993383  1
  O  O49  1  0.50010039  0.50010039  0.08330487  1
  O  O50  1  0.49982076  0.49982076  0.16656391  1
  O  O51  1  0.49941082  0.49941082  0.33359290  1
  O  O52  1  0.49982076  0.49982076  0.41677009  1
  O  O53  1  0.49941082  0.49941082  0.24974010  1
  O  O54  1  0.50014545  0.50014545  0.83399953  1
  O  O55  1  0.50010039  0.50010039  0.50002813  1
  O  O56  1  0.49991441  0.49991441  0.66625875  1
  O  O57  1  0.50050873  0.50050873  0.58339917  1
  O  O58  1  0.50014545  0.50014545  0.74933347  1
  O  O59  1  0.49991441  0.49991441  0.91707525  1
  O  O60  1  0.42402623  0.21284660  0.04131111  1
  O  O61  1  0.42436249  0.21314287  0.20783390  1
  O  O62  1  0.42436249  0.21314287  0.37549910  1
  O  O63  1  0.42402623  0.21284660  0.54202289  1
  O  O64  1  0.42011727  0.21030353  0.70778200  1
  O  O65  1  0.42011727  0.21030353  0.87555100  1
  O  O66  1  0.42443560  0.21127630  0.12518587  1
  O  O67  1  0.42774298  0.21226010  0.29166700  1
  O  O68  1  0.42443560  0.21127630  0.45814713  1
  O  O69  1  0.42086745  0.21005569  0.62488100  1
  O  O70  1  0.41940114  0.20969192  0.79166700  1
  O  O71  1  0.42086745  0.21005569  0.95845200  1
  O  O72  1  0.78684070  0.57556440  0.12518587  1
  O  O73  1  0.78451712  0.57225702  0.29166700  1
  O  O74  1  0.78684070  0.57556440  0.45814713  1
  O  O75  1  0.78918823  0.57913255  0.62488100  1
  O  O76  1  0.79029078  0.58059886  0.79166700  1
  O  O77  1  0.78918823  0.57913255  0.95845200  1
  O  O78  1  0.49949127  0.00000000  0.99993383  1
  O  O79  1  0.50017924  1.00000000  0.16656391  1
  O  O80  1  0.50058918  0.00000000  0.33359290  1
  O  O81  1  0.49989961  1.00000000  0.50002813  1
  O  O82  1  0.50008559  1.00000000  0.66625875  1
  O  O83  1  0.49985455  1.00000000  0.83399953  1
  O  O84  1  0.49989961  1.00000000  0.08330487  1
  O  O85  1  0.50017924  1.00000000  0.41677009  1
  O  O86  1  0.50058918  0.00000000  0.24974010  1
  O  O87  1  0.49949127  0.00000000  0.58339917  1
  O  O88  1  0.49985455  1.00000000  0.74933347  1
  O  O89  1  0.50008559  1.00000000  0.91707525  1
  O  O90  1  0.78882037  0.57597377  0.04131111  1
  O  O91  1  0.78878037  0.57563751  0.20783390  1
  O  O92  1  0.78878037  0.57563751  0.37549910  1
  O  O93  1  0.78882037  0.57597377  0.54202289  1
  O  O94  1  0.79018625  0.57988273  0.70778200  1
  O  O95  1  0.79018625  0.57988273  0.87555100  1
  O  O96  1  0.78715340  0.21117963  0.04131111  1
  O  O97  1  0.78685713  0.21121963  0.20783390  1
  O  O98  1  0.78685713  0.21121963  0.37549910  1
  O  O99  1  0.78715340  0.21117963  0.54202289  1
  O  O100  1  0.78969647  0.20981375  0.70778200  1
  O  O101  1  0.78969647  0.20981375  0.87555100  1
  O  O102  1  0.78872370  0.21315930  0.12518587  1
  O  O103  1  0.78773990  0.21548288  0.29166700  1
  O  O104  1  0.78872370  0.21315930  0.45814713  1
  O  O105  1  0.78994431  0.21081177  0.62488100  1
  O  O106  1  0.79030808  0.20970922  0.79166700  1
  O  O107  1  0.78994431  0.21081177  0.95845200  1
loop_
_geom_bond_atom_site_label_1
_geom_bond_atom_site_label_2
_geom_bond_distance
_geom_bond_site_symmetry_2
O0 W35 1.926965 1_555
O0 W0 1.954665 1_656
O1 W30 1.926375 1_455
O1 W1 1.955930 1_555
O2 W2 1.908786 1_655
O2 W31 1.948285 1_655
O3 W0 1.918584 1_555
O3 W30 1.941908 1_455
O4 W34 1.922397 1_455
O4 W4 1.960498 1_555
O5 W3 1.918630 1_555
O5 W32 1.941908 1_455
O6 W1 1.908786 1_655
O6 W31 1.948331 1_655
O7 W5 1.898772 1_555
O7 W33 1.966565 1_455
O8 W32 1.926328 1_455
O8 W2 1.955976 1_555
O9 W34 1.926965 1_555
O9 W3 1.954619 1_655
O10 W35 1.922350 1_455
O10 W5 1.960545 1_555
O11 W4 1.898772 1_555
O11 W33 1.966611 1_455
O12 W18 1.934957 1_555
O12 W0 1.955939 1_555
O12 Rb0 3.259333 1_565
O13 W19 1.927354 1_555
O13 W1 1.962846 1_555
O13 Rb1 3.352054 1_565
O14 W20 1.927354 1_555
O14 W2 1.962846 1_555
O14 Rb2 3.352080 1_565
O15 W21 1.934957 1_555
O15 W3 1.955939 1_555
O15 Rb4 3.259308 1_565
O16 W22 1.949060 1_555
O16 W4 1.954924 1_555
O16 Rb3 3.340871 1_565
O16 Rb5 3.379352 1_565
O17 W23 1.949060 1_555
O17 W5 1.954924 1_555
O17 Rb7 3.340898 1_565
O17 Rb6 3.379352 1_565
O18 W30 1.930006 1_455
O18 W24 1.959116 1_565
O18 Rb1 3.380962 1_565
O19 W31 1.914271 1_555
O19 W25 1.964744 1_555
O20 W32 1.930006 1_455
O20 W26 1.959116 1_565
O20 Rb2 3.380935 1_565
O21 W34 1.944252 1_455
O21 W27 1.956661 1_565
O21 Rb3 3.357013 1_565
O21 Rb4 3.466519 1_565
O22 W33 1.952569 1_455
O22 W28 1.953392 1_565
O22 Rb6 3.337285 1_565
O22 Rb5 3.337312 1_565
O23 W35 1.944252 1_455
O23 W29 1.956661 1_565
O23 Rb7 3.356986 1_565
O23 Rb0 3.466519 1_566
O24 W6 1.930006 1_555
O24 W30 1.959116 1_455
O24 Rb1 3.380962 1_555
O25 W7 1.914271 1_555
O25 W31 1.964744 1_555
O26 W8 1.930006 1_555
O26 W32 1.959116 1_455
O26 Rb2 3.380935 1_555
O27 W9 1.944252 1_555
O27 W34 1.956661 1_455
O27 Rb3 3.357013 1_555
O27 Rb4 3.466519 1_555
O28 W10 1.952569 1_555
O28 W33 1.953392 1_455
O28 Rb6 3.337286 1_555
O28 Rb5 3.337312 1_555
O29 W11 1.944252 1_555
O29 W35 1.956661 1_455
O29 Rb7 3.356986 1_555
O29 Rb0 3.466519 1_556
O30 W0 1.934957 1_555
O30 W12 1.955939 1_555
O30 Rb0 3.259333 1_555
O31 W1 1.927355 1_555
O31 W13 1.962846 1_555
O31 Rb1 3.352054 1_555
O32 W2 1.927355 1_555
O32 W14 1.962846 1_555
O32 Rb2 3.352080 1_555
O33 W3 1.934957 1_555
O33 W15 1.955939 1_555
O33 Rb4 3.259308 1_555
O34 W4 1.949060 1_555
O34 W16 1.954924 1_555
O34 Rb3 3.340871 1_555
O34 Rb5 3.379352 1_555
O35 W5 1.949060 1_555
O35 W17 1.954924 1_555
O35 Rb7 3.340898 1_555
O35 Rb6 3.379352 1_555
O36 W12 1.934957 1_555
O36 W18 1.955939 1_555
O36 Rb0 3.259333 1_665
O37 W13 1.927355 1_555
O37 W19 1.962846 1_555
O37 Rb1 3.352054 1_665
O38 W14 1.927355 1_555
O38 W20 1.962846 1_555
O38 Rb2 3.352080 1_665
O39 W15 1.934957 1_555
O39 W21 1.955939 1_555
O39 Rb4 3.259308 1_665
O40 W16 1.949060 1_555
O40 W22 1.954924 1_555
O40 Rb3 3.340871 1_665
O40 Rb5 3.379352 1_665
O41 W17 1.949060 1_555
O41 W23 1.954924 1_555
O41 Rb7 3.340897 1_665
O41 Rb6 3.379352 1_665
O42 W24 1.930006 1_565
O42 W6 1.959116 1_555
O42 Rb1 3.380962 1_665
O43 W25 1.914271 1_555
O43 W7 1.964744 1_555
O44 W26 1.930006 1_565
O44 W8 1.959116 1_555
O44 Rb2 3.380935 1_665
O45 W27 1.944252 1_565
O45 W9 1.956661 1_555
O45 Rb3 3.357013 1_665
O45 Rb4 3.466519 1_665
O46 W28 1.952569 1_565
O46 W10 1.953392 1_555
O46 Rb6 3.337285 1_665
O46 Rb5 3.337312 1_665
O47 W29 1.944252 1_565
O47 W11 1.956661 1_555
O47 Rb7 3.356986 1_665
O47 Rb0 3.466519 1_666
O48 W11 1.926965 1_555
O48 W12 1.954665 1_556
O49 W12 1.918584 1_555
O49 W6 1.941908 1_555
O50 W6 1.926375 1_555
O50 W13 1.955930 1_555
O51 W14 1.908786 1_555
O51 W7 1.948285 1_555
O52 W8 1.926328 1_555
O52 W14 1.955976 1_555
O53 W13 1.908786 1_555
O53 W7 1.948331 1_555
O54 W17 1.898772 1_555
O54 W10 1.966565 1_555
O55 W15 1.918630 1_555
O55 W8 1.941908 1_555
O56 W9 1.922397 1_555
O56 W16 1.960498 1_555
O57 W9 1.926965 1_555
O57 W15 1.954619 1_555
O58 W16 1.898772 1_555
O58 W10 1.966611 1_555
O59 W11 1.922350 1_555
O59 W17 1.960545 1_555
O60 W18 1.934957 1_545
O60 W12 1.955939 1_555
O60 Rb0 3.259333 1_555
O61 W19 1.927355 1_545
O61 W13 1.962846 1_555
O61 Rb1 3.352054 1_555
O62 W20 1.927355 1_545
O62 W14 1.962846 1_555
O62 Rb2 3.352080 1_555
O63 W21 1.934957 1_545
O63 W15 1.955939 1_555
O63 Rb4 3.259308 1_555
O64 W22 1.949060 1_545
O64 W16 1.954924 1_555
O64 Rb3 3.340871 1_555
O64 Rb5 3.379352 1_555
O65 W23 1.949060 1_545
O65 W17 1.954924 1_555
O65 Rb7 3.340897 1_555
O65 Rb6 3.379352 1_555
O66 W6 1.930006 1_555
O66 W24 1.959116 1_555
O66 Rb1 3.380962 1_555
O67 W7 1.914271 1_555
O67 W25 1.964744 1_545
O68 W8 1.930006 1_555
O68 W26 1.959116 1_555
O68 Rb2 3.380935 1_555
O69 W9 1.944252 1_555
O69 W27 1.956661 1_555
O69 Rb3 3.357013 1_555
O69 Rb4 3.466519 1_555
O70 W10 1.952569 1_555
O70 W28 1.953392 1_555
O70 Rb6 3.337285 1_555
O70 Rb5 3.337312 1_555
O71 W11 1.944252 1_555
O71 W29 1.956661 1_555
O71 Rb7 3.356986 1_555
O71 Rb0 3.466519 1_556
O72 W30 1.930006 1_555
O72 W6 1.959116 1_555
O72 Rb1 3.380962 1_665
O73 W31 1.914271 1_655
O73 W7 1.964744 1_555
O74 W32 1.930006 1_555
O74 W8 1.959116 1_555
O74 Rb2 3.380935 1_665
O75 W34 1.944252 1_555
O75 W9 1.956661 1_555
O75 Rb3 3.357013 1_665
O75 Rb4 3.466519 1_665
O76 W33 1.952569 1_555
O76 W10 1.953392 1_555
O76 Rb6 3.337286 1_665
O76 Rb5 3.337312 1_665
O77 W35 1.944252 1_555
O77 W11 1.956661 1_555
O77 Rb7 3.356986 1_665
O77 Rb0 3.466519 1_666
O78 W29 1.926965 1_555
O78 W18 1.954665 1_546
O79 W24 1.926375 1_565
O79 W19 1.955930 1_555
O80 W20 1.908786 1_545
O80 W25 1.948285 1_545
O81 W21 1.918630 1_555
O81 W26 1.941908 1_565
O82 W27 1.922397 1_565
O82 W22 1.960498 1_555
O83 W23 1.898772 1_555
O83 W28 1.966565 1_565
O84 W18 1.918584 1_555
O84 W24 1.941908 1_565
O85 W26 1.926328 1_565
O85 W20 1.955976 1_555
O86 W19 1.908786 1_545
O86 W25 1.948331 1_545
O87 W27 1.926965 1_555
O87 W21 1.954619 1_545
O88 W22 1.898772 1_555
O88 W28 1.966611 1_565
O89 W29 1.922350 1_565
O89 W23 1.960545 1_555
O90 W12 1.934957 1_555
O90 W0 1.955939 1_655
O90 Rb0 3.259333 1_665
O91 W13 1.927354 1_555
O91 W1 1.962846 1_655
O91 Rb1 3.352054 1_665
O92 W14 1.927354 1_555
O92 W2 1.962846 1_655
O92 Rb2 3.352080 1_665
O93 W15 1.934957 1_555
O93 W3 1.955939 1_655
O93 Rb4 3.259308 1_665
O94 W16 1.949060 1_555
O94 W4 1.954924 1_655
O94 Rb3 3.340871 1_665
O94 Rb5 3.379352 1_665
O95 W17 1.949060 1_555
O95 W5 1.954924 1_655
O95 Rb7 3.340898 1_665
O95 Rb6 3.379352 1_665
O96 W0 1.934957 1_655
O96 W18 1.955939 1_545
O96 Rb0 3.259333 1_655
O97 W1 1.927355 1_655
O97 W19 1.962846 1_545
O97 Rb1 3.352054 1_655
O98 W2 1.927355 1_655
O98 W20 1.962846 1_545
O98 Rb2 3.352080 1_655
O99 W3 1.934957 1_655
O99 W21 1.955939 1_545
O99 Rb4 3.259308 1_655
O100 W4 1.949060 1_655
O100 W22 1.954924 1_545
O100 Rb3 3.340871 1_655
O100 Rb5 3.379352 1_655
O101 W5 1.949060 1_655
O101 W23 1.954924 1_545
O101 Rb7 3.340898 1_655
O101 Rb6 3.379352 1_655
O102 W24 1.930006 1_555
O102 W30 1.959116 1_555
O102 Rb1 3.380962 1_655
O103 W25 1.914271 1_545
O103 W31 1.964744 1_655
O104 W26 1.930006 1_555
O104 W32 1.959116 1_555
O104 Rb2 3.380935 1_655
O105 W27 1.944252 1_555
O105 W34 1.956661 1_555
O105 Rb3 3.357013 1_655
O105 Rb4 3.466519 1_655
O106 W28 1.952569 1_555
O106 W33 1.953392 1_555
O106 Rb6 3.337285 1_655
O106 Rb5 3.337312 1_655
O107 W29 1.944252 1_555
O107 W35 1.956661 1_555
O107 Rb7 3.356986 1_655
O107 Rb0 3.466519 1_656
