# generated using pymatgen
data_Pr4(GeS4)3
_symmetry_space_group_name_H-M   'P 1'
_cell_length_a   11.57059899
_cell_length_b   11.57059899
_cell_length_c   11.57059867
_cell_angle_alpha   114.79348255
_cell_angle_beta   114.79348255
_cell_angle_gamma   114.79348590
_symmetry_Int_Tables_number   1
_chemical_formula_structural   Pr4(GeS4)3
_chemical_formula_sum   'Pr8 Ge6 S24'
_cell_volume   883.03308503
_cell_formula_units_Z   2
loop_
 _symmetry_equiv_pos_site_id
 _symmetry_equiv_pos_as_xyz
  1  'x, y, z'
loop_
 _atom_site_type_symbol
 _atom_site_label
 _atom_site_symmetry_multiplicity
 _atom_site_fract_x
 _atom_site_fract_y
 _atom_site_fract_z
 _atom_site_occupancy
  Pr  Pr0  1  0.99544713  0.99544713  0.99544713  1
  Pr  Pr1  1  0.49544713  0.49544713  0.49544713  1
  Pr  Pr2  1  0.43212096  0.20818711  0.97112225  1
  Pr  Pr3  1  0.20818711  0.97112225  0.43212096  1
  Pr  Pr4  1  0.97112225  0.43212096  0.20818711  1
  Pr  Pr5  1  0.70818711  0.93212096  0.47112225  1
  Pr  Pr6  1  0.93212096  0.47112225  0.70818711  1
  Pr  Pr7  1  0.47112225  0.70818711  0.93212096  1
  Ge  Ge0  1  0.14002821  0.35245246  0.96618293  1
  Ge  Ge1  1  0.35245246  0.96618293  0.14002821  1
  Ge  Ge2  1  0.96618293  0.14002821  0.35245246  1
  Ge  Ge3  1  0.85245246  0.64002821  0.46618293  1
  Ge  Ge4  1  0.64002821  0.46618293  0.85245246  1
  Ge  Ge5  1  0.46618293  0.85245246  0.64002821  1
  S  S0  1  0.38458076  0.31216139  0.77955214  1
  S  S1  1  0.31216139  0.77955214  0.38458076  1
  S  S2  1  0.77955214  0.38458076  0.31216139  1
  S  S3  1  0.81216139  0.88458076  0.27955214  1
  S  S4  1  0.88458076  0.27955214  0.81216139  1
  S  S5  1  0.27955214  0.81216139  0.88458076  1
  S  S6  1  0.18319654  0.36953870  0.18343090  1
  S  S7  1  0.36953870  0.18343090  0.18319654  1
  S  S8  1  0.18343090  0.18319654  0.36953870  1
  S  S9  1  0.86953870  0.68319654  0.68343090  1
  S  S10  1  0.68319654  0.68343090  0.86953870  1
  S  S11  1  0.68343090  0.86953870  0.68319654  1
  S  S12  1  0.08377141  0.11197109  0.79616998  1
  S  S13  1  0.11197109  0.79616998  0.08377141  1
  S  S14  1  0.79616998  0.08377141  0.11197109  1
  S  S15  1  0.61197109  0.58377141  0.29616998  1
  S  S16  1  0.58377141  0.29616998  0.61197109  1
  S  S17  1  0.29616998  0.61197109  0.58377141  1
  S  S18  1  0.84684469  0.58083619  0.12390316  1
  S  S19  1  0.58083619  0.12390316  0.84684469  1
  S  S20  1  0.12390316  0.84684469  0.58083619  1
  S  S21  1  0.08083619  0.34684469  0.62390316  1
  S  S22  1  0.34684469  0.62390316  0.08083619  1
  S  S23  1  0.62390316  0.08083619  0.34684469  1
loop_
_geom_bond_atom_site_label_1
_geom_bond_atom_site_label_2
_geom_bond_distance
_geom_bond_site_symmetry_2
Pr0 S8 2.905239 1_666
Pr0 S7 2.905239 1_666
Pr0 S6 2.905239 1_666
Pr0 S10 2.905890 1_555
Pr0 S11 2.905890 1_555
Pr0 S9 2.905890 1_555
Pr0 S12 3.406860 1_665
Pr0 S14 3.406860 1_566
Pr0 S13 3.406860 1_656
Pr1 S10 2.905239 1_555
Pr1 S11 2.905239 1_555
Pr1 S9 2.905239 1_555
Pr1 S8 2.905890 1_555
Pr1 S7 2.905890 1_555
Pr1 S6 2.905890 1_555
Pr1 S15 3.406860 1_555
Pr1 S16 3.406860 1_555
Pr1 S17 3.406860 1_555
Pr2 S19 2.878573 1_555
Pr2 S0 2.903799 1_555
Pr2 S7 2.921206 1_556
Pr2 S20 2.957045 1_545
Pr2 S2 2.992797 1_556
Pr2 S12 3.014374 1_555
Pr2 S15 3.082904 1_556
Pr3 S20 2.878573 1_555
Pr3 S1 2.903799 1_555
Pr3 S8 2.921206 1_565
Pr3 S18 2.957045 1_455
Pr3 S0 2.992797 1_565
Pr3 S13 3.014374 1_555
Pr3 S16 3.082904 1_565
Pr4 S18 2.878573 1_555
Pr4 S2 2.903799 1_555
Pr4 S6 2.921206 1_655
Pr4 S19 2.957045 1_554
Pr4 S1 2.992797 1_655
Pr4 S14 3.014374 1_555
Pr4 S17 3.082904 1_655
Pr5 S23 2.878573 1_565
Pr5 S3 2.903799 1_555
Pr5 S11 2.921206 1_555
Pr5 S22 2.957045 1_555
Pr5 S4 2.992797 1_565
Pr5 S15 3.014374 1_555
Pr5 S12 3.082904 1_665
Pr6 S21 2.878573 1_655
Pr6 S4 2.903799 1_555
Pr6 S9 2.921206 1_555
Pr6 S23 2.957045 1_555
Pr6 S5 2.992797 1_655
Pr6 S16 3.014374 1_555
Pr6 S13 3.082904 1_656
Pr7 S22 2.878573 1_556
Pr7 S5 2.903799 1_555
Pr7 S10 2.921206 1_555
Pr7 S21 2.957045 1_555
Pr7 S3 2.992797 1_556
Pr7 S17 3.014374 1_555
Pr7 S14 3.082904 1_566
Ge0 S12 2.202742 1_555
Ge0 S4 2.203188 1_455
Ge0 S22 2.211442 1_556
Ge0 S6 2.248236 1_556
Ge1 S13 2.202742 1_555
Ge1 S5 2.203188 1_554
Ge1 S23 2.211442 1_565
Ge1 S7 2.248236 1_565
Ge2 S14 2.202742 1_555
Ge2 S3 2.203187 1_545
Ge2 S21 2.211442 1_655
Ge2 S8 2.248236 1_655
Ge3 S15 2.202742 1_555
Ge3 S2 2.203188 1_555
Ge3 S20 2.211442 1_655
Ge3 S9 2.248236 1_555
Ge4 S16 2.202742 1_555
Ge4 S0 2.203187 1_555
Ge4 S18 2.211442 1_556
Ge4 S10 2.248236 1_555
Ge5 S17 2.202742 1_555
Ge5 S1 2.203188 1_555
Ge5 S19 2.211442 1_565
Ge5 S11 2.248236 1_555
