# generated using pymatgen
data_K5Na(Ti2Se9)3
_symmetry_space_group_name_H-M   'P 1'
_cell_length_a   13.62490538
_cell_length_b   13.62490538
_cell_length_c   14.06020400
_cell_angle_alpha   90.00000000
_cell_angle_beta   90.00000000
_cell_angle_gamma   119.99999697
_symmetry_Int_Tables_number   1
_chemical_formula_structural   K5Na(Ti2Se9)3
_chemical_formula_sum   'K10 Na2 Ti12 Se54'
_cell_volume   2260.42060001
_cell_formula_units_Z   2
loop_
 _symmetry_equiv_pos_site_id
 _symmetry_equiv_pos_as_xyz
  1  'x, y, z'
loop_
 _atom_site_type_symbol
 _atom_site_label
 _atom_site_symmetry_multiplicity
 _atom_site_fract_x
 _atom_site_fract_y
 _atom_site_fract_z
 _atom_site_occupancy
  K  K0  1  0.62756700  0.95763600  0.52980600  1
  K  K1  1  0.95763600  0.62756700  0.02980600  1
  K  K2  1  0.66666700  0.33333300  0.20383600  1
  K  K3  1  0.33333300  0.66666700  0.34596300  1
  K  K4  1  0.04236400  0.66993100  0.52980600  1
  K  K5  1  0.37243300  0.33006900  0.02980600  1
  K  K6  1  0.33006900  0.37243300  0.52980600  1
  K  K7  1  0.33333300  0.66666700  0.70383600  1
  K  K8  1  0.66666700  0.33333300  0.84596300  1
  K  K9  1  0.66993100  0.04236400  0.02980600  1
  Na  Na0  1  0.00000000  0.00000000  0.27641600  1
  Na  Na1  1  0.00000000  0.00000000  0.77641600  1
  Ti  Ti0  1  0.98506800  0.33934500  0.15625400  1
  Ti  Ti1  1  0.01403300  0.34487900  0.39842000  1
  Ti  Ti2  1  0.34487900  0.01403300  0.89842000  1
  Ti  Ti3  1  0.35427700  0.01493200  0.15625400  1
  Ti  Ti4  1  0.33084700  0.98596700  0.39842000  1
  Ti  Ti5  1  0.64572300  0.66065500  0.65625400  1
  Ti  Ti6  1  0.66915300  0.65512100  0.89842000  1
  Ti  Ti7  1  0.65512100  0.66915300  0.39842000  1
  Ti  Ti8  1  0.66065500  0.64572300  0.15625400  1
  Ti  Ti9  1  0.33934500  0.98506800  0.65625400  1
  Ti  Ti10  1  0.01493200  0.35427700  0.65625400  1
  Ti  Ti11  1  0.98596700  0.33084700  0.89842000  1
  Se  Se0  1  0.49649800  0.68173000  0.93849700  1
  Se  Se1  1  0.55109800  0.13047400  0.66342100  1
  Se  Se2  1  0.49740500  0.01478700  0.28258100  1
  Se  Se3  1  0.18523200  0.50350200  0.93849700  1
  Se  Se4  1  0.07653400  0.20466300  0.64955200  1
  Se  Se5  1  0.50350200  0.18523200  0.43849700  1
  Se  Se6  1  0.79533700  0.87187100  0.64955200  1
  Se  Se7  1  0.83909300  0.21070500  0.77415000  1
  Se  Se8  1  0.37161200  0.16090700  0.77415000  1
  Se  Se9  1  0.89611800  0.11810900  0.88745000  1
  Se  Se10  1  0.57937700  0.44890200  0.66342100  1
  Se  Se11  1  0.48261800  0.98521300  0.78258100  1
  Se  Se12  1  0.81476800  0.31827000  0.43849700  1
  Se  Se13  1  0.66997500  0.78853400  0.02722300  1
  Se  Se14  1  0.21070500  0.83909300  0.27415000  1
  Se  Se15  1  0.34770700  0.15329300  0.27284000  1
  Se  Se16  1  0.48603400  0.13873200  0.02433400  1
  Se  Se17  1  0.77800900  0.88189100  0.38745000  1
  Se  Se18  1  0.19441400  0.84670700  0.77284000  1
  Se  Se19  1  0.62838800  0.78929500  0.27415000  1
  Se  Se20  1  0.44890200  0.57937700  0.16342100  1
  Se  Se21  1  0.86952600  0.42062300  0.66342100  1
  Se  Se22  1  0.51738200  0.50259500  0.28258100  1
  Se  Se23  1  0.33002500  0.11855900  0.52722300  1
  Se  Se24  1  0.88144100  0.21146600  0.52722300  1
  Se  Se25  1  0.51396600  0.65269800  0.52433400  1
  Se  Se26  1  0.34730200  0.86126800  0.52433400  1
  Se  Se27  1  0.22199100  0.10388200  0.88745000  1
  Se  Se28  1  0.11855900  0.33002500  0.02722300  1
  Se  Se29  1  0.13873200  0.48603400  0.52433400  1
  Se  Se30  1  0.16090700  0.37161200  0.27415000  1
  Se  Se31  1  0.10388200  0.22199100  0.38745000  1
  Se  Se32  1  0.80558600  0.65229300  0.27284000  1
  Se  Se33  1  0.20466300  0.07653400  0.14955200  1
  Se  Se34  1  0.68173000  0.49649800  0.43849700  1
  Se  Se35  1  0.12812900  0.92346600  0.64955200  1
  Se  Se36  1  0.31827000  0.81476800  0.93849700  1
  Se  Se37  1  0.50259500  0.51738200  0.78258100  1
  Se  Se38  1  0.65229300  0.80558600  0.77284000  1
  Se  Se39  1  0.87187100  0.79533700  0.14955200  1
  Se  Se40  1  0.84670700  0.19441400  0.27284000  1
  Se  Se41  1  0.01478700  0.49740500  0.78258100  1
  Se  Se42  1  0.78853400  0.66997500  0.52722300  1
  Se  Se43  1  0.92346600  0.12812900  0.14955200  1
  Se  Se44  1  0.13047400  0.55109800  0.16342100  1
  Se  Se45  1  0.65269800  0.51396600  0.02433400  1
  Se  Se46  1  0.86126800  0.34730200  0.02433400  1
  Se  Se47  1  0.78929500  0.62838800  0.77415000  1
  Se  Se48  1  0.98521300  0.48261800  0.28258100  1
  Se  Se49  1  0.15329300  0.34770700  0.77284000  1
  Se  Se50  1  0.42062300  0.86952600  0.16342100  1
  Se  Se51  1  0.21146600  0.88144100  0.02722300  1
  Se  Se52  1  0.88189100  0.77800900  0.88745000  1
  Se  Se53  1  0.11810900  0.89611800  0.38745000  1
loop_
_geom_bond_atom_site_label_1
_geom_bond_atom_site_label_2
_geom_bond_distance
_geom_bond_site_symmetry_2
K0 Se26 3.361200 1_555
K0 Se17 3.374637 1_555
K0 Se24 3.458900 1_565
K0 Se6 3.477987 1_555
K0 Se1 3.551613 1_565
K0 Se25 3.637697 1_555
K1 Se46 3.361200 1_555
K1 Se52 3.374637 1_554
K1 Se51 3.458900 1_655
K1 Se39 3.477987 1_555
K1 Se44 3.551613 1_655
K1 Se45 3.637697 1_555
K2 Se46 3.596020 1_555
K2 Se16 3.596024 1_555
K2 Se45 3.596030 1_555
K3 Se20 3.514817 1_555
K3 Se50 3.514817 1_555
K3 Se44 3.514817 1_555
K3 Se26 3.584877 1_555
K3 Se29 3.584882 1_555
K3 Se25 3.584887 1_555
K3 Se14 3.640796 1_555
K3 Se30 3.640806 1_555
K3 Se19 3.640808 1_555
K4 Se29 3.361200 1_555
K4 Se53 3.374638 1_555
K4 Se42 3.458900 1_455
K4 Se35 3.477987 1_555
K4 Se21 3.551621 1_455
K4 Se26 3.637697 1_555
K5 Se45 3.361200 1_555
K5 Se27 3.374638 1_554
K5 Se28 3.458900 1_555
K5 Se33 3.477987 1_555
K5 Se20 3.551624 1_555
K5 Se16 3.637696 1_555
K6 Se25 3.361200 1_555
K6 Se31 3.374638 1_555
K6 Se23 3.458900 1_555
K6 Se4 3.477987 1_555
K6 Se10 3.551624 1_555
K6 Se29 3.637696 1_555
K7 Se26 3.596020 1_555
K7 Se29 3.596024 1_555
K7 Se25 3.596030 1_555
K8 Se10 3.514817 1_555
K8 Se21 3.514817 1_555
K8 Se1 3.514817 1_555
K8 Se46 3.584877 1_556
K8 Se16 3.584882 1_556
K8 Se45 3.584887 1_556
K8 Se7 3.640796 1_555
K8 Se8 3.640806 1_555
K8 Se47 3.640808 1_555
K9 Se16 3.361200 1_555
K9 Se9 3.374638 1_554
K9 Se13 3.458900 1_545
K9 Se43 3.477987 1_555
K9 Se50 3.551621 1_545
K9 Se46 3.637697 1_555
Na0 Se43 3.022765 1_455
Na0 Se33 3.022765 1_555
Na0 Se39 3.022765 1_445
Na0 Se53 3.050869 1_545
Na0 Se31 3.050869 1_555
Na0 Se17 3.050869 1_445
Na1 Se35 3.022765 1_545
Na1 Se4 3.022765 1_555
Na1 Se6 3.022765 1_445
Na1 Se9 3.050869 1_455
Na1 Se27 3.050869 1_555
Na1 Se52 3.050869 1_445
Se0 Se13 2.412674 1_556
Se0 Ti6 2.614505 1_555
Se1 Se11 2.397507 1_545
Se1 Ti9 2.557957 1_545
Se2 Se50 2.397507 1_545
Se2 Ti3 2.638484 1_555
Se2 Ti4 2.658140 1_545
Se3 Ti11 2.614514 1_455
Se4 Se49 2.420494 1_555
Se4 Ti10 2.565086 1_555
Se5 Ti4 2.614514 1_545
Se6 Ti5 2.565086 1_555
Se7 Se9 2.390245 1_555
Se7 Ti11 2.541909 1_555
Se7 Ti10 2.761809 1_655
Se8 Ti2 2.541905 1_555
Se8 Ti9 2.761809 1_545
Se9 Ti11 2.524992 1_555
Se10 Se37 2.397515 1_555
Se10 Ti5 2.557960 1_555
Se11 Ti9 2.638484 1_555
Se11 Ti2 2.658151 1_565
Se12 Se24 2.412674 1_555
Se12 Ti1 2.614519 1_655
Se13 Ti6 2.561963 1_554
Se13 Ti8 2.616573 1_555
Se14 Se53 2.390245 1_555
Se14 Ti4 2.541909 1_555
Se14 Ti3 2.761809 1_565
Se15 Se33 2.420494 1_555
Se15 Ti3 2.533304 1_555
Se15 Ti4 2.800747 1_545
Se16 Ti2 2.540095 1_554
Se16 Ti3 2.545615 1_555
Se17 Se19 2.390245 1_555
Se17 Ti7 2.524990 1_555
Se18 Se35 2.420494 1_555
Se18 Ti9 2.533304 1_555
Se18 Ti2 2.800742 1_565
Se19 Ti7 2.541915 1_555
Se19 Ti8 2.761809 1_555
Se20 Se22 2.397515 1_555
Se20 Ti8 2.557960 1_555
Se21 Se41 2.397507 1_655
Se21 Ti10 2.557947 1_655
Se22 Ti8 2.638484 1_555
Se22 Ti7 2.658144 1_555
Se23 Se5 2.412674 1_555
Se23 Ti4 2.561972 1_545
Se23 Ti9 2.616573 1_545
Se24 Ti1 2.561967 1_655
Se24 Ti10 2.616573 1_655
Se25 Ti7 2.540099 1_555
Se25 Ti5 2.545615 1_555
Se26 Ti4 2.540089 1_555
Se26 Ti9 2.545615 1_555
Se27 Se8 2.390245 1_555
Se27 Ti2 2.524979 1_555
Se28 Se3 2.412674 1_554
Se28 Ti11 2.561972 1_454
Se28 Ti0 2.616573 1_455
Se29 Ti1 2.540095 1_555
Se29 Ti10 2.545615 1_555
Se30 Se31 2.390245 1_555
Se30 Ti1 2.541905 1_555
Se30 Ti0 2.761809 1_455
Se31 Ti1 2.524979 1_555
Se32 Se39 2.420494 1_555
Se32 Ti8 2.533304 1_555
Se32 Ti7 2.800736 1_555
Se33 Ti3 2.565086 1_555
Se34 Se42 2.412674 1_555
Se34 Ti7 2.614505 1_555
Se35 Ti9 2.565086 1_555
Se36 Se51 2.412674 1_556
Se36 Ti2 2.614519 1_565
Se37 Ti5 2.638484 1_555
Se37 Ti6 2.658144 1_555
Se38 Se6 2.420494 1_555
Se38 Ti5 2.533304 1_555
Se38 Ti6 2.800736 1_555
Se39 Ti8 2.565086 1_555
Se40 Se43 2.420494 1_555
Se40 Ti0 2.533304 1_555
Se40 Ti1 2.800742 1_655
Se41 Ti10 2.638484 1_555
Se41 Ti11 2.658140 1_455
Se42 Ti7 2.561963 1_555
Se42 Ti5 2.616573 1_555
Se43 Ti0 2.565086 1_555
Se44 Se48 2.397507 1_455
Se44 Ti0 2.557957 1_455
Se45 Ti6 2.540099 1_554
Se45 Ti8 2.545615 1_555
Se46 Ti11 2.540089 1_554
Se46 Ti0 2.545615 1_555
Se47 Se52 2.390245 1_555
Se47 Ti6 2.541915 1_555
Se47 Ti5 2.761809 1_555
Se48 Ti0 2.638484 1_555
Se48 Ti1 2.658151 1_655
Se49 Ti10 2.533304 1_555
Se49 Ti11 2.800747 1_455
Se50 Ti3 2.557947 1_565
Se51 Ti2 2.561967 1_564
Se51 Ti3 2.616573 1_565
Se52 Ti6 2.524990 1_555
Se53 Ti4 2.524992 1_555
