# generated using pymatgen
data_Tb3Ni13B2
_symmetry_space_group_name_H-M   'P 1'
_cell_length_a   4.93916134
_cell_length_b   4.93916134
_cell_length_c   10.91108900
_cell_angle_alpha   90.00000000
_cell_angle_beta   90.00000000
_cell_angle_gamma   119.99999112
_symmetry_Int_Tables_number   1
_chemical_formula_structural   Tb3Ni13B2
_chemical_formula_sum   'Tb3 Ni13 B2'
_cell_volume   230.51818632
_cell_formula_units_Z   1
loop_
 _symmetry_equiv_pos_site_id
 _symmetry_equiv_pos_as_xyz
  1  'x, y, z'
loop_
 _atom_site_type_symbol
 _atom_site_label
 _atom_site_symmetry_multiplicity
 _atom_site_fract_x
 _atom_site_fract_y
 _atom_site_fract_z
 _atom_site_occupancy
  Tb  Tb0  1  0.00000000  0.00000000  0.00000000  1
  Tb  Tb1  1  0.00000000  0.00000000  0.32794000  1
  Tb  Tb2  1  0.00000000  0.00000000  0.67206000  1
  Ni  Ni0  1  0.50000000  0.00000000  0.50000000  1
  Ni  Ni1  1  0.50000000  0.50000000  0.50000000  1
  Ni  Ni2  1  0.00000000  0.50000000  0.50000000  1
  Ni  Ni3  1  0.33333300  0.66666700  0.31907600  1
  Ni  Ni4  1  0.66666700  0.33333300  0.31907600  1
  Ni  Ni5  1  0.66666700  0.33333300  0.68092400  1
  Ni  Ni6  1  0.33333300  0.66666700  0.68092400  1
  Ni  Ni7  1  0.50000000  0.00000000  0.13353500  1
  Ni  Ni8  1  0.50000000  0.50000000  0.13353500  1
  Ni  Ni9  1  0.00000000  0.50000000  0.13353500  1
  Ni  Ni10  1  0.50000000  0.00000000  0.86646500  1
  Ni  Ni11  1  0.50000000  0.50000000  0.86646500  1
  Ni  Ni12  1  0.00000000  0.50000000  0.86646500  1
  B  B0  1  0.33333300  0.66666700  0.00000000  1
  B  B1  1  0.66666700  0.33333300  0.00000000  1
loop_
_geom_bond_atom_site_label_1
_geom_bond_atom_site_label_2
_geom_bond_distance
_geom_bond_site_symmetry_2
Ni0 Ni5 2.435143 1_555
Ni0 Ni6 2.435143 1_545
Ni0 Ni3 2.435143 1_545
Ni0 Ni4 2.435143 1_555
Ni0 Ni1 2.469581 1_555
Ni0 Ni1 2.469581 1_545
Ni0 Ni2 2.469581 1_545
Ni0 Ni2 2.469581 1_655
Ni0 Tb1 3.102147 1_655
Ni0 Tb1 3.102147 1_555
Ni0 Tb2 3.102147 1_655
Ni0 Tb2 3.102147 1_555
Ni1 Ni5 2.435146 1_555
Ni1 Ni6 2.435146 1_555
Ni1 Ni4 2.435146 1_555
Ni1 Ni3 2.435146 1_555
Ni1 Ni2 2.469581 1_655
Ni1 Ni2 2.469581 1_555
Ni1 Tb1 3.102147 1_555
Ni1 Tb1 3.102147 1_665
Ni1 Tb2 3.102147 1_665
Ni1 Tb2 3.102147 1_555
Ni2 Ni5 2.435143 1_455
Ni2 Ni6 2.435143 1_555
Ni2 Ni4 2.435143 1_455
Ni2 Ni3 2.435143 1_555
Ni2 Tb1 3.102147 1_565
Ni2 Tb1 3.102147 1_555
Ni2 Tb2 3.102147 1_565
Ni2 Tb2 3.102147 1_555
Ni3 Ni9 2.476157 1_555
Ni3 Ni7 2.476157 1_565
Ni3 Ni8 2.476160 1_555
Ni3 Tb1 2.853263 1_565
Ni3 Tb1 2.853267 1_555
Ni3 Tb1 2.853267 1_665
Ni4 Ni7 2.476157 1_555
Ni4 Ni9 2.476157 1_655
Ni4 Ni8 2.476160 1_555
Ni4 Tb1 2.853263 1_655
Ni4 Tb1 2.853267 1_555
Ni4 Tb1 2.853267 1_665
Ni5 Tb2 2.853263 1_655
Ni5 Tb2 2.853267 1_555
Ni5 Tb2 2.853267 1_665
Ni6 Tb2 2.853263 1_565
Ni6 Tb2 2.853267 1_555
Ni6 Tb2 2.853267 1_665
Ni7 Tb0 2.867353 1_555
Ni7 Tb0 2.867353 1_655
Ni7 Tb1 3.255486 1_555
Ni7 Tb1 3.255486 1_655
Ni8 Tb0 2.867353 1_665
Ni8 Tb0 2.867353 1_555
Ni8 Tb1 3.255487 1_665
Ni8 Tb1 3.255487 1_555
Ni9 Tb0 2.867353 1_555
Ni9 Tb0 2.867353 1_565
Ni9 Tb1 3.255486 1_565
Ni9 Tb1 3.255486 1_555
Ni10 Ni5 2.476157 1_555
Ni10 Ni6 2.476157 1_545
Ni10 Tb0 2.867353 1_656
Ni10 Tb0 2.867353 1_556
Ni10 Tb2 3.255486 1_555
Ni10 Tb2 3.255486 1_655
Ni11 Ni5 2.476160 1_555
Ni11 Ni6 2.476160 1_555
Ni11 Tb0 2.867353 1_666
Ni11 Tb0 2.867353 1_556
Ni11 Tb2 3.255487 1_555
Ni11 Tb2 3.255487 1_665
Ni12 Ni5 2.476157 1_455
Ni12 Ni6 2.476157 1_555
Ni12 Tb0 2.867353 1_566
Ni12 Tb0 2.867353 1_556
Ni12 Tb2 3.255486 1_555
Ni12 Tb2 3.255486 1_565
B0 Ni9 2.038584 1_555
B0 Ni7 2.038584 1_565
B0 Ni10 2.038584 1_564
B0 Ni12 2.038584 1_554
B0 Ni8 2.038587 1_555
B0 Ni11 2.038587 1_554
B0 Tb0 2.851623 1_565
B0 Tb0 2.851628 1_665
B0 Tb0 2.851628 1_555
B1 Ni7 2.038584 1_555
B1 Ni9 2.038584 1_655
B1 Ni12 2.038584 1_654
B1 Ni10 2.038584 1_554
B1 Ni8 2.038587 1_555
B1 Ni11 2.038587 1_554
B1 Tb0 2.851623 1_655
B1 Tb0 2.851628 1_665
B1 Tb0 2.851628 1_555
