# generated using pymatgen
data_Cd2Si(P2O7)2
_symmetry_space_group_name_H-M   'P 1'
_cell_length_a   9.13217132
_cell_length_b   9.13217132
_cell_length_c   12.68921337
_cell_angle_alpha   77.30615341
_cell_angle_beta   77.30615341
_cell_angle_gamma   33.48252354
_symmetry_Int_Tables_number   1
_chemical_formula_structural   Cd2Si(P2O7)2
_chemical_formula_sum   'Cd4 Si2 P8 O28'
_cell_volume   568.23256121
_cell_formula_units_Z   2
loop_
 _symmetry_equiv_pos_site_id
 _symmetry_equiv_pos_as_xyz
  1  'x, y, z'
loop_
 _atom_site_type_symbol
 _atom_site_label
 _atom_site_symmetry_multiplicity
 _atom_site_fract_x
 _atom_site_fract_y
 _atom_site_fract_z
 _atom_site_occupancy
  Cd  Cd0  1  0.40022500  0.08897100  0.36817000  1
  Cd  Cd1  1  0.91102900  0.59977500  0.13183000  1
  Cd  Cd2  1  0.59977500  0.91102900  0.63183000  1
  Cd  Cd3  1  0.08897100  0.40022500  0.86817000  1
  Si  Si0  1  0.13897500  0.86102500  0.75000000  1
  Si  Si1  1  0.86102500  0.13897500  0.25000000  1
  P  P0  1  0.95811700  0.30381200  0.58582100  1
  P  P1  1  0.69618800  0.04188300  0.91417900  1
  P  P2  1  0.04188300  0.69618800  0.41417900  1
  P  P3  1  0.30381200  0.95811700  0.08582100  1
  P  P4  1  0.76474000  0.47125400  0.37047100  1
  P  P5  1  0.52874600  0.23526000  0.12952900  1
  P  P6  1  0.23526000  0.52874600  0.62952900  1
  P  P7  1  0.47125400  0.76474000  0.87047100  1
  O  O0  1  0.02188200  0.10359800  0.67043900  1
  O  O1  1  0.89640200  0.97811800  0.82956100  1
  O  O2  1  0.97811800  0.89640200  0.32956100  1
  O  O3  1  0.10359800  0.02188200  0.17043900  1
  O  O4  1  0.87683200  0.30050400  0.48578600  1
  O  O5  1  0.69949600  0.12316800  0.01421400  1
  O  O6  1  0.12316800  0.69949600  0.51421400  1
  O  O7  1  0.30050400  0.87683200  0.98578600  1
  O  O8  1  0.72097400  0.36269300  0.32431300  1
  O  O9  1  0.63730700  0.27902600  0.17568700  1
  O  O10  1  0.27902600  0.63730700  0.67568700  1
  O  O11  1  0.36269300  0.72097400  0.82431300  1
  O  O12  1  0.72220700  0.57336300  0.62961900  1
  O  O13  1  0.42663700  0.27779300  0.87038100  1
  O  O14  1  0.27779300  0.42663700  0.37038100  1
  O  O15  1  0.57336300  0.72220700  0.12961900  1
  O  O16  1  0.21040200  0.18712200  0.54913300  1
  O  O17  1  0.81287800  0.78959800  0.95086700  1
  O  O18  1  0.78959800  0.81287800  0.45086700  1
  O  O19  1  0.18712200  0.21040200  0.04913300  1
  O  O20  1  0.98674300  0.38588800  0.30303200  1
  O  O21  1  0.61411200  0.01325700  0.19696800  1
  O  O22  1  0.01325700  0.61411200  0.69696800  1
  O  O23  1  0.38588800  0.98674300  0.80303200  1
  O  O24  1  0.50131000  0.76256400  0.38488300  1
  O  O25  1  0.23743600  0.49869000  0.11511700  1
  O  O26  1  0.49869000  0.23743600  0.61511700  1
  O  O27  1  0.76256400  0.50131000  0.88488300  1
loop_
_geom_bond_atom_site_label_1
_geom_bond_atom_site_label_2
_geom_bond_distance
_geom_bond_site_symmetry_2
Cd0 O24 2.236177 1_545
Cd0 O14 2.243366 1_555
Cd0 O21 2.356929 1_555
Cd0 O20 2.366666 1_455
Cd0 O18 2.371488 1_545
Cd0 O16 2.375833 1_555
Cd1 O25 2.236177 1_655
Cd1 O15 2.243366 1_555
Cd1 O20 2.356929 1_555
Cd1 O21 2.366666 1_565
Cd1 O19 2.371488 1_655
Cd1 O17 2.375833 1_554
Cd2 O26 2.236177 1_565
Cd2 O12 2.243366 1_555
Cd2 O23 2.356929 1_555
Cd2 O22 2.366666 1_655
Cd2 O16 2.371488 1_565
Cd2 O18 2.375833 1_555
Cd3 O27 2.236177 1_455
Cd3 O13 2.243366 1_555
Cd3 O22 2.356929 1_555
Cd3 O23 2.366666 1_545
Cd3 O17 2.371488 1_455
Cd3 O19 2.375833 1_556
O0 P0 1.571931 1_455
O0 Si0 1.615572 1_545
O1 P1 1.571931 1_565
O1 Si0 1.615572 1_655
O2 P2 1.571931 1_655
O2 Si1 1.615572 1_565
O3 P3 1.571931 1_545
O3 Si1 1.615572 1_455
O4 P4 1.616585 1_555
O4 P0 1.622218 1_555
O5 P5 1.616585 1_555
O5 P1 1.622218 1_554
O6 P6 1.616585 1_555
O6 P2 1.622218 1_555
O7 P7 1.616585 1_555
O7 P3 1.622218 1_556
O8 P4 1.582629 1_555
O8 Si1 1.629987 1_555
O9 P5 1.582629 1_555
O9 Si1 1.629987 1_555
O10 P6 1.582629 1_555
O10 Si0 1.629987 1_555
O11 P7 1.582629 1_555
O11 Si0 1.629987 1_555
O12 P0 1.496117 1_555
O13 P1 1.496117 1_555
O14 P2 1.496117 1_555
O15 P3 1.496117 1_555
O16 P0 1.520377 1_455
O17 P1 1.520377 1_565
O18 P2 1.520377 1_655
O19 P3 1.520377 1_545
O20 P4 1.531197 1_555
O21 P5 1.531197 1_555
O22 P6 1.531197 1_555
O23 P7 1.531197 1_555
O24 P4 1.497592 1_555
O25 P5 1.497592 1_555
O26 P6 1.497592 1_555
O27 P7 1.497592 1_555
