# generated using pymatgen
data_U4Ga12Rh
_symmetry_space_group_name_H-M   'P 1'
_cell_length_a   7.45916633
_cell_length_b   7.45904005
_cell_length_c   7.45905218
_cell_angle_alpha   109.47336170
_cell_angle_beta   109.47344347
_cell_angle_gamma   109.46636744
_symmetry_Int_Tables_number   1
_chemical_formula_structural   U4Ga12Rh
_chemical_formula_sum   'U4 Ga12 Rh1'
_cell_volume   319.47553493
_cell_formula_units_Z   1
loop_
 _symmetry_equiv_pos_site_id
 _symmetry_equiv_pos_as_xyz
  1  'x, y, z'
loop_
 _atom_site_type_symbol
 _atom_site_label
 _atom_site_symmetry_multiplicity
 _atom_site_fract_x
 _atom_site_fract_y
 _atom_site_fract_z
 _atom_site_occupancy
  U  U0  1  0.50000000  0.50000000  0.50000000  1
  U  U1  1  0.00000000  0.50000000  -0.00000000  1
  U  U2  1  0.00000000  -0.00000000  0.50000000  1
  U  U3  1  0.50000000  -0.00000000  -0.00000000  1
  Ga  Ga0  1  0.75000476  0.24999577  0.50000003  1
  Ga  Ga1  1  0.00001694  0.70895381  0.70896045  1
  Ga  Ga2  1  0.29104780  0.99998421  0.29104065  1
  Ga  Ga3  1  0.50000492  0.24999378  0.75000807  1
  Ga  Ga4  1  0.75000572  0.49999438  0.24999214  1
  Ga  Ga5  1  0.24999524  0.75000423  0.49999997  1
  Ga  Ga6  1  0.24999428  0.50000562  0.75000786  1
  Ga  Ga7  1  0.70895220  0.00001579  0.70895935  1
  Ga  Ga8  1  0.49999508  0.75000622  0.24999193  1
  Ga  Ga9  1  0.70896580  0.70896428  0.00001082  1
  Ga  Ga10  1  0.29103420  0.29103572  0.99998918  1
  Ga  Ga11  1  0.99998306  0.29104619  0.29103955  1
  Rh  Rh0  1  0.00000000  -0.00000000  -0.00000000  1
loop_
_geom_bond_atom_site_label_1
_geom_bond_atom_site_label_2
_geom_bond_distance
_geom_bond_site_symmetry_2
Ga0 Ga7 2.806291 1_555
Ga0 Ga11 2.806313 1_555
Ga0 Ga1 2.806421 1_655
Ga0 Ga2 2.806459 1_545
Ga0 U2 3.045020 1_655
Ga0 U1 3.045072 1_656
Ga0 U3 3.045073 1_555
Ga0 U0 3.045130 1_555
Ga0 Ga8 3.045137 1_545
Ga0 Ga6 3.045187 1_655
Ga0 Ga4 3.045223 1_555
Ga0 Ga3 3.045258 1_555
Ga1 Rh0 2.506749 1_566
Ga1 Ga6 2.806084 1_555
Ga1 Ga5 2.806313 1_555
Ga1 Ga4 2.806344 1_455
Ga1 U1 3.065600 1_556
Ga1 U3 3.065603 1_566
Ga1 U2 3.065679 1_565
Ga1 U0 3.065810 1_455
Ga2 Rh0 2.506774 1_565
Ga2 Ga8 2.806080 1_555
Ga2 Ga5 2.806291 1_555
Ga2 Ga3 2.806335 1_565
Ga2 U1 3.065568 1_555
Ga2 U3 3.065619 1_565
Ga2 U2 3.065717 1_565
Ga2 U0 3.065748 1_565
Ga3 Ga7 2.806080 1_555
Ga3 Ga9 2.806445 1_556
Ga3 Ga4 3.044975 1_556
Ga3 U3 3.045096 1_556
Ga3 Ga5 3.045137 1_545
Ga3 Ga6 3.045212 1_555
Ga3 U1 3.045221 1_656
Ga3 U0 3.045270 1_555
Ga3 U2 3.045280 1_555
Ga4 Ga9 2.806313 1_555
Ga4 U1 3.045128 1_655
Ga4 U3 3.045166 1_555
Ga4 Ga5 3.045187 1_655
Ga4 Ga8 3.045212 1_555
Ga4 U2 3.045235 1_665
Ga4 U0 3.045293 1_555
Ga5 Ga7 2.806459 1_565
Ga5 U2 3.045020 1_565
Ga5 U1 3.045072 1_555
Ga5 U3 3.045073 1_566
Ga5 U0 3.045130 1_555
Ga5 Ga6 3.045223 1_555
Ga5 Ga8 3.045258 1_555
Ga6 Ga9 2.806500 1_556
Ga6 Ga8 3.044975 1_556
Ga6 U1 3.045128 1_556
Ga6 U3 3.045166 1_566
Ga6 U2 3.045235 1_555
Ga6 U0 3.045293 1_555
Ga7 Rh0 2.506774 1_656
Ga7 Ga8 2.806335 1_545
Ga7 U1 3.065568 1_656
Ga7 U3 3.065619 1_556
Ga7 U2 3.065717 1_655
Ga7 U0 3.065748 1_545
Ga8 Ga9 2.806341 1_555
Ga8 U3 3.045096 1_565
Ga8 U1 3.045221 1_555
Ga8 U0 3.045270 1_555
Ga8 U2 3.045280 1_665
Ga9 Rh0 2.506890 1_665
Ga9 U2 3.065462 1_665
Ga9 U1 3.065522 1_655
Ga9 U3 3.065528 1_565
Ga9 U0 3.065584 1_554
Ga10 Rh0 2.506890 1_556
Ga10 Ga6 2.806313 1_555
Ga10 Ga3 2.806341 1_555
Ga10 Ga8 2.806445 1_556
Ga10 Ga4 2.806500 1_556
Ga10 U2 3.065462 1_555
Ga10 U1 3.065522 1_556
Ga10 U3 3.065528 1_556
Ga10 U0 3.065584 1_556
Ga11 Rh0 2.506749 1_655
Ga11 Ga4 2.806084 1_555
Ga11 Ga6 2.806344 1_655
Ga11 Ga5 2.806421 1_655
Ga11 U1 3.065600 1_655
Ga11 U3 3.065603 1_555
Ga11 U2 3.065679 1_655
Ga11 U0 3.065810 1_655
