# generated using pymatgen
data_Si2Mo4P6O25
_symmetry_space_group_name_H-M   'P 1'
_cell_length_a   14.55302722
_cell_length_b   14.55302722
_cell_length_c   7.86295957
_cell_angle_alpha   90.00000000
_cell_angle_beta   90.00000000
_cell_angle_gamma   120.00000171
_symmetry_Int_Tables_number   1
_chemical_formula_structural   Si2Mo4P6O25
_chemical_formula_sum   'Si6 Mo12 P18 O75'
_cell_volume   1442.19288919
_cell_formula_units_Z   3
loop_
 _symmetry_equiv_pos_site_id
 _symmetry_equiv_pos_as_xyz
  1  'x, y, z'
loop_
 _atom_site_type_symbol
 _atom_site_label
 _atom_site_symmetry_multiplicity
 _atom_site_fract_x
 _atom_site_fract_y
 _atom_site_fract_z
 _atom_site_occupancy
  Si  Si0  1  -0.00000000  -0.00000000  0.29864932  1
  Si  Si1  1  0.33333300  0.66666700  0.20010758  1
  Si  Si2  1  0.33333300  0.66666700  0.79771058  1
  Si  Si3  1  0.66666700  0.33333300  0.20228942  1
  Si  Si4  1  0.66666700  0.33333300  0.79989242  1
  Si  Si5  1  -0.00000000  -0.00000000  0.70135068  1
  Mo  Mo0  1  0.00080616  0.66135536  0.05134646  1
  Mo  Mo1  1  0.67312654  0.00239186  0.44251299  1
  Mo  Mo2  1  0.66135536  0.66054920  0.94865354  1
  Mo  Mo3  1  0.00239186  0.32926533  0.55748701  1
  Mo  Mo4  1  0.66054920  0.99919384  0.05134646  1
  Mo  Mo5  1  0.67073467  0.67312654  0.55748701  1
  Mo  Mo6  1  0.99919384  0.33864464  0.94865354  1
  Mo  Mo7  1  0.32926533  0.32687346  0.44251299  1
  Mo  Mo8  1  0.32687346  0.99760814  0.55748701  1
  Mo  Mo9  1  0.33945080  0.00080616  0.94865354  1
  Mo  Mo10  1  0.33864464  0.33945080  0.05134646  1
  Mo  Mo11  1  0.99760814  0.67073467  0.44251299  1
  P  P0  1  0.42704730  0.89873064  0.25474024  1
  P  P1  1  0.10126936  0.52831666  0.25474024  1
  P  P2  1  0.76719713  0.86111006  0.24923483  1
  P  P3  1  0.47168334  0.57295270  0.25474024  1
  P  P4  1  0.86111006  0.09391293  0.75076517  1
  P  P5  1  0.23280287  0.13888994  0.75076517  1
  P  P6  1  0.75968477  0.56585212  0.25210082  1
  P  P7  1  0.90608707  0.76719713  0.75076517  1
  P  P8  1  0.24031523  0.43414788  0.74789918  1
  P  P9  1  0.57295270  0.10126936  0.74525976  1
  P  P10  1  0.13888994  0.90608707  0.24923483  1
  P  P11  1  0.80616735  0.24031523  0.25210082  1
  P  P12  1  0.56585212  0.80616735  0.74789918  1
  P  P13  1  0.09391293  0.23280287  0.24923483  1
  P  P14  1  0.89873064  0.47168334  0.74525976  1
  P  P15  1  0.52831666  0.42704730  0.74525976  1
  P  P16  1  0.43414788  0.19383265  0.25210082  1
  P  P17  1  0.19383265  0.75968477  0.74789918  1
  O  O0  1  0.47642975  0.38305302  0.91505422  1
  O  O1  1  0.28086513  0.41039418  0.58874152  1
  O  O2  1  0.41114053  0.78421844  0.27238574  1
  O  O3  1  0.91473909  0.53970008  0.59286928  1
  O  O4  1  0.78421844  0.37307791  0.72761426  1
  O  O5  1  0.08526091  0.46029992  0.40713072  1
  O  O6  1  0.62692209  0.41114053  0.72761426  1
  O  O7  1  0.61694698  0.09337673  0.91505422  1
  O  O8  1  0.91281685  0.21635054  0.75690785  1
  O  O9  1  0.95788289  0.07566618  0.77493747  1
  O  O10  1  0.71913487  0.58960582  0.41125848  1
  O  O11  1  0.23869065  0.18727342  0.57856222  1
  O  O12  1  0.75433776  0.11795234  0.24107662  1
  O  O13  1  0.29392207  0.43182303  0.91069106  1
  O  O14  1  0.45114137  0.70884031  0.72462484  1
  O  O15  1  0.88221671  0.95788289  0.22506253  1
  O  O16  1  0.36361458  0.24566224  0.24107662  1
  O  O17  1  0.74230106  0.45114137  0.27537516  1
  O  O18  1  0.08718315  0.78364946  0.24309215  1
  O  O19  1  0.92433382  0.88221671  0.77493747  1
  O  O20  1  0.66666700  0.33333300  0.00109960  1
  O  O21  1  0.13790096  0.70607793  0.91069106  1
  O  O22  1  0.33333300  0.66666700  0.99890040  1
  O  O23  1  0.56817697  0.86209904  0.91069106  1
  O  O24  1  0.24566224  0.88204766  0.75892338  1
  O  O25  1  0.18727342  0.94858278  0.42143778  1
  O  O26  1  0.94858278  0.76130935  0.57856222  1
  O  O27  1  0.90662327  0.52357025  0.91505422  1
  O  O28  1  0.62496100  0.08526091  0.59286928  1
  O  O29  1  0.78908851  0.04183619  0.89917459  1
  O  O30  1  0.57832809  0.54935422  0.74304898  1
  O  O31  1  0.43182303  0.13790096  0.08930894  1
  O  O32  1  -0.00000000  -0.00000000  0.50000000  1
  O  O33  1  0.11795234  0.36361458  0.75892338  1
  O  O34  1  0.21635054  0.30353370  0.24309215  1
  O  O35  1  0.11778329  0.04211711  0.77493747  1
  O  O36  1  0.58960582  0.87047094  0.58874152  1
  O  O37  1  0.25274767  0.21091149  0.89917459  1
  O  O38  1  0.38305302  0.90662327  0.08494578  1
  O  O39  1  0.04211711  0.92433382  0.22506253  1
  O  O40  1  0.12952906  0.71913487  0.58874152  1
  O  O41  1  0.69646630  0.91281685  0.24309215  1
  O  O42  1  0.88204766  0.63638542  0.24107662  1
  O  O43  1  0.21578156  0.62692209  0.27238574  1
  O  O44  1  0.42167191  0.45064578  0.25695102  1
  O  O45  1  0.04183619  0.25274767  0.10082541  1
  O  O46  1  0.63638542  0.75433776  0.75892338  1
  O  O47  1  0.87047094  0.28086513  0.41125848  1
  O  O48  1  0.37503900  0.91473909  0.40713072  1
  O  O49  1  0.21091149  0.95816381  0.10082541  1
  O  O50  1  0.58885947  0.21578156  0.72761426  1
  O  O51  1  0.02897386  0.57832809  0.25695102  1
  O  O52  1  0.30353370  0.08718315  0.75690785  1
  O  O53  1  0.54885863  0.29115969  0.27537516  1
  O  O54  1  0.81272658  0.05141722  0.57856222  1
  O  O55  1  0.05141722  0.23869065  0.42143778  1
  O  O56  1  0.41039418  0.12952906  0.41125848  1
  O  O57  1  0.37307791  0.58885947  0.27238574  1
  O  O58  1  0.29115969  0.74230106  0.72462484  1
  O  O59  1  0.46029992  0.37503900  0.59286928  1
  O  O60  1  0.25769894  0.54885863  0.72462484  1
  O  O61  1  0.09337673  0.47642975  0.08494578  1
  O  O62  1  0.52357025  0.61694698  0.08494578  1
  O  O63  1  0.95816381  0.74725233  0.89917459  1
  O  O64  1  0.70884031  0.25769894  0.27537516  1
  O  O65  1  0.54935422  0.97102614  0.25695102  1
  O  O66  1  0.53970008  0.62496100  0.40713072  1
  O  O67  1  0.45064578  0.02897386  0.74304898  1
  O  O68  1  0.78364946  0.69646630  0.75690785  1
  O  O69  1  0.97102614  0.42167191  0.74304898  1
  O  O70  1  0.70607793  0.56817697  0.08930894  1
  O  O71  1  0.07566618  0.11778329  0.22506253  1
  O  O72  1  0.74725233  0.78908851  0.10082541  1
  O  O73  1  0.86209904  0.29392207  0.08930894  1
  O  O74  1  0.76130935  0.81272658  0.42143778  1
loop_
_geom_bond_atom_site_label_1
_geom_bond_atom_site_label_2
_geom_bond_distance
_geom_bond_site_symmetry_2
Mo0 O63 2.038427 1_454
Mo0 O27 2.073526 1_454
Mo0 O21 2.080585 1_554
Mo0 O42 2.171774 1_455
Mo0 O51 2.176448 1_555
Mo0 O18 2.187138 1_555
Mo1 O36 2.037569 1_545
Mo1 O28 2.046659 1_555
Mo1 O54 2.081184 1_555
Mo1 O41 2.171690 1_545
Mo1 O12 2.178576 1_555
Mo1 O65 2.181643 1_545
Mo2 O72 2.038427 1_556
Mo2 O62 2.073526 1_556
Mo2 O70 2.080585 1_556
Mo2 O46 2.171774 1_555
Mo2 O30 2.176448 1_555
Mo2 O68 2.187138 1_555
Mo3 O47 2.037569 1_455
Mo3 O5 2.046659 1_555
Mo3 O55 2.081184 1_555
Mo3 O8 2.171690 1_455
Mo3 O33 2.178576 1_555
Mo3 O69 2.181643 1_455
Mo4 O29 2.038427 1_564
Mo4 O7 2.073526 1_564
Mo4 O23 2.080585 1_554
Mo4 O12 2.171774 1_565
Mo4 O65 2.176448 1_555
Mo4 O41 2.187138 1_555
Mo5 O10 2.037569 1_555
Mo5 O66 2.046659 1_555
Mo5 O74 2.081184 1_555
Mo5 O68 2.171690 1_555
Mo5 O46 2.178576 1_555
Mo5 O30 2.181643 1_555
Mo6 O45 2.038427 1_656
Mo6 O61 2.073526 1_656
Mo6 O73 2.080585 1_556
Mo6 O33 2.171774 1_655
Mo6 O69 2.176448 1_555
Mo6 O8 2.187138 1_555
Mo7 O1 2.037569 1_555
Mo7 O59 2.046659 1_555
Mo7 O11 2.081184 1_555
Mo7 O34 2.171690 1_555
Mo7 O16 2.178576 1_555
Mo7 O44 2.181643 1_555
Mo8 O56 2.037569 1_565
Mo8 O48 2.046659 1_555
Mo8 O25 2.081184 1_555
Mo8 O52 2.171690 1_565
Mo8 O24 2.178576 1_555
Mo8 O67 2.181643 1_565
Mo9 O49 2.038427 1_546
Mo9 O38 2.073526 1_546
Mo9 O31 2.080585 1_556
Mo9 O24 2.171774 1_545
Mo9 O67 2.176448 1_555
Mo9 O52 2.187138 1_555
Mo10 O37 2.038427 1_554
Mo10 O0 2.073526 1_554
Mo10 O13 2.080585 1_554
Mo10 O16 2.171774 1_555
Mo10 O44 2.176448 1_555
Mo10 O34 2.187138 1_555
Mo11 O40 2.037569 1_655
Mo11 O3 2.046659 1_555
Mo11 O26 2.081184 1_555
Mo11 O18 2.171690 1_655
Mo11 O42 2.178576 1_555
Mo11 O51 2.181643 1_655
O0 P15 1.509672 1_555
O1 P8 1.495952 1_555
O2 P0 1.569802 1_555
O2 Si1 1.610791 1_555
O3 P14 1.496413 1_555
O4 P14 1.569802 1_555
O4 Si4 1.610788 1_555
O5 P1 1.496413 1_555
O6 P15 1.569802 1_555
O6 Si4 1.610801 1_555
O7 P9 1.509672 1_555
O8 P4 1.550066 1_555
O9 P4 1.569724 1_555
O9 Si5 1.611830 1_655
O10 P6 1.495952 1_555
O11 P5 1.508703 1_555
O12 P11 1.550594 1_555
O13 P8 1.508187 1_555
O14 P12 1.569082 1_555
O14 Si2 1.610615 1_555
O15 P2 1.569723 1_555
O15 Si0 1.611830 1_665
O16 P16 1.550594 1_555
O17 P6 1.569082 1_555
O17 Si3 1.610613 1_555
O18 P10 1.550066 1_555
O19 P7 1.569724 1_555
O19 Si5 1.611830 1_665
O20 Si3 1.581947 1_555
O20 Si4 1.582084 1_554
O21 P17 1.508187 1_555
O22 Si2 1.581947 1_555
O22 Si1 1.582084 1_556
O23 P12 1.508187 1_555
O24 P17 1.550594 1_555
O25 P10 1.508703 1_555
O26 P7 1.508703 1_555
O27 P14 1.509672 1_555
O28 P9 1.496413 1_555
O29 P4 1.496778 1_555
O30 P15 1.550072 1_555
O31 P16 1.508187 1_555
O32 Si5 1.583212 1_555
O32 Si0 1.583212 1_555
O33 P8 1.550594 1_555
O34 P13 1.550066 1_555
O35 P5 1.569723 1_555
O35 Si5 1.611830 1_555
O36 P12 1.495952 1_555
O37 P5 1.496778 1_555
O38 P0 1.509672 1_555
O39 P10 1.569724 1_555
O39 Si0 1.611830 1_565
O40 P17 1.495952 1_555
O41 P2 1.550066 1_555
O42 P6 1.550594 1_555
O43 P1 1.569802 1_555
O43 Si1 1.610788 1_555
O44 P3 1.550072 1_555
O45 P13 1.496778 1_555
O46 P12 1.550594 1_555
O47 P11 1.495952 1_555
O48 P0 1.496413 1_555
O49 P10 1.496778 1_555
O50 P9 1.569802 1_555
O50 Si4 1.610791 1_555
O51 P1 1.550072 1_555
O52 P5 1.550066 1_555
O53 P16 1.569082 1_555
O53 Si3 1.610615 1_555
O54 P4 1.508703 1_555
O55 P13 1.508703 1_555
O56 P16 1.495952 1_555
O57 P3 1.569802 1_555
O57 Si1 1.610801 1_555
O58 P17 1.569082 1_555
O58 Si2 1.610603 1_555
O59 P15 1.496413 1_555
O60 P8 1.569082 1_555
O60 Si2 1.610613 1_555
O61 P1 1.509672 1_555
O62 P3 1.509672 1_555
O63 P7 1.496778 1_555
O64 P11 1.569082 1_555
O64 Si3 1.610603 1_555
O65 P0 1.550072 1_555
O66 P3 1.496413 1_555
O67 P9 1.550072 1_555
O68 P7 1.550066 1_555
O69 P14 1.550072 1_555
O70 P6 1.508187 1_555
O71 P13 1.569724 1_555
O71 Si0 1.611830 1_555
O72 P2 1.496778 1_555
O73 P11 1.508187 1_555
O74 P2 1.508703 1_555
