# generated using pymatgen
data_SbSe2S(NF3)2
_symmetry_space_group_name_H-M   'P 1'
_cell_length_a   16.97579600
_cell_length_b   10.18365700
_cell_length_c   13.82325893
_cell_angle_alpha   50.84331422
_cell_angle_beta   90.00000000
_cell_angle_gamma   90.00000000
_symmetry_Int_Tables_number   1
_chemical_formula_structural   SbSe2S(NF3)2
_chemical_formula_sum   'Sb8 Se16 S8 N16 F48'
_cell_volume   1853.03025169
_cell_formula_units_Z   8
loop_
 _symmetry_equiv_pos_site_id
 _symmetry_equiv_pos_as_xyz
  1  'x, y, z'
loop_
 _atom_site_type_symbol
 _atom_site_label
 _atom_site_symmetry_multiplicity
 _atom_site_fract_x
 _atom_site_fract_y
 _atom_site_fract_z
 _atom_site_occupancy
  Sb  Sb0  1  0.94077800  0.42526700  0.80858700  1
  Sb  Sb1  1  0.14971200  0.88958300  0.36431400  1
  Sb  Sb2  1  0.44077800  0.57473300  0.69141300  1
  Sb  Sb3  1  0.05922200  0.57473300  0.19141300  1
  Sb  Sb4  1  0.55922200  0.42526700  0.30858700  1
  Sb  Sb5  1  0.64971200  0.11041700  0.13568600  1
  Sb  Sb6  1  0.35028800  0.88958300  0.86431400  1
  Sb  Sb7  1  0.85028800  0.11041700  0.63568600  1
  Se  Se0  1  0.29420100  0.17320300  0.46492700  1
  Se  Se1  1  0.11435400  0.11456700  0.53184300  1
  Se  Se2  1  0.12325200  0.27745300  0.60503000  1
  Se  Se3  1  0.69488600  0.65952200  0.46474400  1
  Se  Se4  1  0.19488600  0.34047800  0.03525600  1
  Se  Se5  1  0.37674800  0.27745300  0.10503000  1
  Se  Se6  1  0.88564600  0.88543300  0.46815700  1
  Se  Se7  1  0.79420100  0.82679700  0.03507300  1
  Se  Se8  1  0.87674800  0.72254700  0.39497000  1
  Se  Se9  1  0.38564600  0.11456700  0.03184300  1
  Se  Se10  1  0.70579900  0.82679700  0.53507300  1
  Se  Se11  1  0.80511400  0.65952200  0.96474400  1
  Se  Se12  1  0.20579900  0.17320300  0.96492700  1
  Se  Se13  1  0.62325200  0.72254700  0.89497000  1
  Se  Se14  1  0.61435400  0.88543300  0.96815700  1
  Se  Se15  1  0.30511400  0.34047800  0.53525600  1
  S  S0  1  0.10811800  0.91239800  0.80280700  1
  S  S1  1  0.89188200  0.08760200  0.19719300  1
  S  S2  1  0.30787700  0.53855600  0.26472000  1
  S  S3  1  0.19212300  0.53855600  0.76472000  1
  S  S4  1  0.80787700  0.46144400  0.23528000  1
  S  S5  1  0.69212300  0.46144400  0.73528000  1
  S  S6  1  0.39188200  0.91239800  0.30280700  1
  S  S7  1  0.60811800  0.08760200  0.69719300  1
  N  N0  1  0.38368200  0.09264500  0.26557300  1
  N  N1  1  0.18791700  0.53533700  0.87937400  1
  N  N2  1  0.69915200  0.64270100  0.69639400  1
  N  N3  1  0.81208300  0.46466300  0.12062600  1
  N  N4  1  0.11631800  0.09264500  0.76557300  1
  N  N5  1  0.31208300  0.53533700  0.37937400  1
  N  N6  1  0.80084800  0.64270100  0.19639400  1
  N  N7  1  0.68791700  0.46466300  0.62062600  1
  N  N8  1  0.10562800  0.91816800  0.68707100  1
  N  N9  1  0.39437200  0.91816800  0.18707100  1
  N  N10  1  0.61631800  0.90735500  0.73442700  1
  N  N11  1  0.89437200  0.08183200  0.31292900  1
  N  N12  1  0.30084800  0.35729900  0.30360600  1
  N  N13  1  0.60562800  0.08183200  0.81292900  1
  N  N14  1  0.19915200  0.35729900  0.80360600  1
  N  N15  1  0.88368200  0.90735500  0.23442700  1
  F  F0  1  0.71585300  0.04797800  0.27444700  1
  F  F1  1  0.36365000  0.66393900  0.92200800  1
  F  F2  1  0.51081500  0.69772900  0.55083900  1
  F  F3  1  0.75851000  0.18173600  0.53294600  1
  F  F4  1  0.49008000  0.36572600  0.75377000  1
  F  F5  1  0.62991800  0.55525500  0.16334100  1
  F  F6  1  0.63635000  0.33606100  0.07799200  1
  F  F7  1  0.58527800  0.15434000  0.00402100  1
  F  F8  1  0.28414700  0.95202200  0.72555300  1
  F  F9  1  0.21585300  0.95202200  0.22555300  1
  F  F10  1  0.86365000  0.33606100  0.57799200  1
  F  F11  1  0.13635000  0.66393900  0.42200800  1
  F  F12  1  0.08527800  0.84566000  0.49597900  1
  F  F13  1  0.93987900  0.03231000  0.74261900  1
  F  F14  1  0.66839500  0.88369900  0.19347600  1
  F  F15  1  0.43987900  0.96769000  0.75738100  1
  F  F16  1  0.33160500  0.11630100  0.80652400  1
  F  F17  1  0.56012100  0.03231000  0.24261900  1
  F  F18  1  0.86634300  0.45601400  0.89789500  1
  F  F19  1  0.11296300  0.77759800  0.13316200  1
  F  F20  1  0.87008200  0.55525500  0.66334100  1
  F  F21  1  0.12991800  0.44474500  0.33665900  1
  F  F22  1  0.61296300  0.22240200  0.36683800  1
  F  F23  1  0.06012100  0.96769000  0.25738100  1
  F  F24  1  0.16839500  0.11630100  0.30652400  1
  F  F25  1  0.91472200  0.15434000  0.50402100  1
  F  F26  1  0.74149000  0.18173600  0.03294600  1
  F  F27  1  0.00992000  0.36572600  0.25377000  1
  F  F28  1  0.25851000  0.81826400  0.96705400  1
  F  F29  1  0.51262600  0.59750300  0.78706900  1
  F  F30  1  0.37008200  0.44474500  0.83665900  1
  F  F31  1  0.63365700  0.45601400  0.39789500  1
  F  F32  1  0.98918500  0.69772900  0.05083900  1
  F  F33  1  0.01081500  0.30227100  0.94916100  1
  F  F34  1  0.38703700  0.77759800  0.63316200  1
  F  F35  1  0.36634300  0.54398600  0.60210500  1
  F  F36  1  0.24149000  0.81826400  0.46705400  1
  F  F37  1  0.13365700  0.54398600  0.10210500  1
  F  F38  1  0.50992000  0.63427400  0.24623000  1
  F  F39  1  0.78414700  0.04797800  0.77444700  1
  F  F40  1  0.98737400  0.59750300  0.28706900  1
  F  F41  1  0.41472200  0.84566000  0.99597900  1
  F  F42  1  0.88703700  0.22240200  0.86683800  1
  F  F43  1  0.99008000  0.63427400  0.74623000  1
  F  F44  1  0.48737400  0.40249700  0.21293100  1
  F  F45  1  0.48918500  0.30227100  0.44916100  1
  F  F46  1  0.83160500  0.88369900  0.69347600  1
  F  F47  1  0.01262600  0.40249700  0.71293100  1
loop_
_geom_bond_atom_site_label_1
_geom_bond_atom_site_label_2
_geom_bond_distance
_geom_bond_site_symmetry_2
N0 S6 1.568596 1_545
N0 Se5 1.790591 1_555
N1 S3 1.566028 1_555
N1 Se4 1.787424 1_556
N2 S5 1.567587 1_555
N2 Se10 1.794592 1_555
N3 S4 1.566028 1_555
N3 Se11 1.787424 1_554
N4 S0 1.568596 1_545
N4 Se2 1.790591 1_555
N5 S2 1.566028 1_555
N5 Se15 1.787424 1_555
N6 S4 1.567587 1_555
N6 Se7 1.794592 1_555
N7 S5 1.566028 1_555
N7 Se3 1.787424 1_555
N8 S0 1.563981 1_555
N8 Se1 1.790698 1_565
N9 S6 1.563981 1_555
N9 Se9 1.790698 1_565
N10 S7 1.568596 1_565
N10 Se13 1.790591 1_555
N11 S1 1.563981 1_555
N11 Se6 1.790698 1_545
N12 S2 1.567587 1_555
N12 Se0 1.794592 1_555
N13 S7 1.563981 1_555
N13 Se14 1.790698 1_545
N14 S3 1.567587 1_555
N14 Se12 1.794592 1_555
N15 S1 1.568596 1_565
N15 Se8 1.790591 1_555
F0 Sb5 1.950363 1_555
F1 Sb6 1.911380 1_555
F2 Sb2 1.919542 1_555
F3 Sb7 1.915518 1_555
F4 Sb2 1.912277 1_555
F5 Sb4 1.966538 1_555
F6 Sb5 1.911380 1_555
F7 Sb5 1.918578 1_555
F8 Sb6 1.950363 1_555
F9 Sb1 1.950363 1_555
F10 Sb7 1.911380 1_555
F11 Sb1 1.911380 1_555
F12 Sb1 1.918578 1_555
F13 Sb7 1.909418 1_555
F14 Sb5 1.933942 1_565
F15 Sb6 1.909418 1_555
F16 Sb6 1.933942 1_545
F17 Sb5 1.909418 1_555
F18 Sb0 1.925341 1_555
F19 Sb3 1.909925 1_555
F20 Sb0 1.966538 1_555
F21 Sb3 1.966538 1_555
F22 Sb4 1.909925 1_555
F23 Sb1 1.909418 1_555
F24 Sb1 1.933942 1_545
F25 Sb7 1.918578 1_555
F26 Sb5 1.915518 1_555
F27 Sb3 1.912277 1_555
F28 Sb6 1.915518 1_555
F29 Sb2 1.917555 1_555
F30 Sb2 1.966538 1_555
F31 Sb4 1.925341 1_555
F32 Sb3 1.919542 1_655
F33 Sb0 1.919542 1_455
F34 Sb2 1.909925 1_555
F35 Sb2 1.925341 1_555
F36 Sb1 1.915518 1_555
F37 Sb3 1.925341 1_555
F38 Sb4 1.912277 1_555
F39 Sb7 1.950363 1_555
F40 Sb3 1.917555 1_655
F41 Sb6 1.918578 1_555
F42 Sb0 1.909925 1_555
F43 Sb0 1.912277 1_555
F44 Sb4 1.917555 1_555
F45 Sb4 1.919542 1_555
F46 Sb7 1.933942 1_565
F47 Sb0 1.917555 1_455
