# generated using pymatgen
data_LiLa(PO3)4
_symmetry_space_group_name_H-M   'P 1'
_cell_length_a   9.14568799
_cell_length_b   9.14568799
_cell_length_c   10.00900224
_cell_angle_alpha   56.79871981
_cell_angle_beta   56.79871981
_cell_angle_gamma   46.45753569
_symmetry_Int_Tables_number   1
_chemical_formula_structural   LiLa(PO3)4
_chemical_formula_sum   'Li2 La2 P8 O24'
_cell_volume   487.34102824
_cell_formula_units_Z   2
loop_
 _symmetry_equiv_pos_site_id
 _symmetry_equiv_pos_as_xyz
  1  'x, y, z'
loop_
 _atom_site_type_symbol
 _atom_site_label
 _atom_site_symmetry_multiplicity
 _atom_site_fract_x
 _atom_site_fract_y
 _atom_site_fract_z
 _atom_site_occupancy
  Li  Li0  1  0.20302900  0.79697100  0.25000000  1
  Li  Li1  1  0.79697100  0.20302900  0.75000000  1
  La  La0  1  0.70155100  0.29844900  0.25000000  1
  La  La1  1  0.29844900  0.70155100  0.75000000  1
  P  P0  1  0.08441000  0.19431800  0.38542700  1
  P  P1  1  0.80568200  0.91559000  0.11457300  1
  P  P2  1  0.91559000  0.80568200  0.61457300  1
  P  P3  1  0.19431800  0.08441000  0.88542700  1
  P  P4  1  0.19344100  0.50869700  0.19961100  1
  P  P5  1  0.49130300  0.80655900  0.30038900  1
  P  P6  1  0.80655900  0.49130300  0.80038900  1
  P  P7  1  0.50869700  0.19344100  0.69961100  1
  O  O0  1  0.90117800  0.32980000  0.31892500  1
  O  O1  1  0.67020000  0.09882200  0.18107500  1
  O  O2  1  0.09882200  0.67020000  0.68107500  1
  O  O3  1  0.32980000  0.90117800  0.81892500  1
  O  O4  1  0.15999600  0.32917900  0.35387400  1
  O  O5  1  0.67082100  0.84000400  0.14612600  1
  O  O6  1  0.84000400  0.67082100  0.64612600  1
  O  O7  1  0.32917900  0.15999600  0.85387400  1
  O  O8  1  0.93928500  0.92521300  0.43193300  1
  O  O9  1  0.07478700  0.06071500  0.06806700  1
  O  O10  1  0.06071500  0.07478700  0.56806700  1
  O  O11  1  0.92521300  0.93928500  0.93193300  1
  O  O12  1  0.28037500  0.03942300  0.26941500  1
  O  O13  1  0.96057700  0.71962500  0.23058500  1
  O  O14  1  0.71962500  0.96057700  0.73058500  1
  O  O15  1  0.03942300  0.28037500  0.76941500  1
  O  O16  1  0.32676900  0.52248000  0.23076000  1
  O  O17  1  0.47752000  0.67323100  0.26924000  1
  O  O18  1  0.67323100  0.47752000  0.76924000  1
  O  O19  1  0.52248000  0.32676900  0.73076000  1
  O  O20  1  0.48459900  0.25474500  0.53675900  1
  O  O21  1  0.74525500  0.51540100  0.96324100  1
  O  O22  1  0.51540100  0.74525500  0.46324100  1
  O  O23  1  0.25474500  0.48459900  0.03675900  1
loop_
_geom_bond_atom_site_label_1
_geom_bond_atom_site_label_2
_geom_bond_distance
_geom_bond_site_symmetry_2
Li0 O16 1.999111 1_555
Li0 O17 1.999111 1_555
Li0 O8 2.034843 1_455
Li0 O9 2.034843 1_565
Li1 O19 1.999111 1_555
Li1 O18 1.999111 1_555
Li1 O10 2.034843 1_655
Li1 O11 2.034843 1_545
La0 O20 2.435986 1_555
La0 O21 2.435986 1_554
La0 O1 2.491718 1_555
La0 O0 2.491718 1_555
La0 O16 2.568759 1_555
La0 O17 2.568759 1_555
La0 O8 2.645417 1_545
La0 O9 2.645417 1_655
La1 O23 2.435986 1_556
La1 O22 2.435986 1_555
La1 O2 2.491718 1_555
La1 O3 2.491718 1_555
La1 O19 2.568759 1_555
La1 O18 2.568759 1_555
La1 O10 2.645417 1_565
La1 O11 2.645417 1_455
O0 P0 1.498027 1_655
O1 P1 1.498027 1_545
O2 P2 1.498027 1_455
O3 P3 1.498027 1_565
O4 P4 1.603612 1_555
O4 P0 1.614910 1_555
O5 P5 1.603612 1_555
O5 P1 1.614910 1_555
O6 P6 1.603612 1_555
O6 P2 1.614910 1_555
O7 P7 1.603612 1_555
O7 P3 1.614910 1_555
O8 P2 1.512531 1_555
O9 P3 1.512531 1_554
O10 P0 1.512531 1_555
O11 P1 1.512531 1_556
O12 P0 1.609810 1_555
O12 P5 1.620043 1_545
O13 P1 1.609810 1_555
O13 P4 1.620043 1_655
O14 P2 1.609810 1_555
O14 P7 1.620043 1_565
O15 P3 1.609810 1_555
O15 P6 1.620043 1_455
O16 P4 1.507027 1_555
O17 P5 1.507027 1_555
O18 P6 1.507027 1_555
O19 P7 1.507027 1_555
O20 P7 1.497365 1_555
O21 P6 1.497365 1_555
O22 P5 1.497365 1_555
O23 P4 1.497365 1_555
