# generated using pymatgen
data_Dy3Se3N
_symmetry_space_group_name_H-M   'P 1'
_cell_length_a   3.93252876
_cell_length_b   12.51962757
_cell_length_c   13.16449305
_cell_angle_alpha   90.00000000
_cell_angle_beta   90.00000000
_cell_angle_gamma   90.00000000
_symmetry_Int_Tables_number   1
_chemical_formula_structural   Dy3Se3N
_chemical_formula_sum   'Dy12 Se12 N4'
_cell_volume   648.13795847
_cell_formula_units_Z   4
loop_
 _symmetry_equiv_pos_site_id
 _symmetry_equiv_pos_as_xyz
  1  'x, y, z'
loop_
 _atom_site_type_symbol
 _atom_site_label
 _atom_site_symmetry_multiplicity
 _atom_site_fract_x
 _atom_site_fract_y
 _atom_site_fract_z
 _atom_site_occupancy
  Dy  Dy0  1  0.75000000  0.79915371  0.85661335  1
  Dy  Dy1  1  0.75000000  0.95562216  0.14974561  1
  Dy  Dy2  1  0.75000000  0.43971905  0.86611379  1
  Dy  Dy3  1  0.75000000  0.29915371  0.64338665  1
  Dy  Dy4  1  0.75000000  0.45562216  0.35025439  1
  Dy  Dy5  1  0.25000000  0.06028095  0.36611379  1
  Dy  Dy6  1  0.25000000  0.56028095  0.13388621  1
  Dy  Dy7  1  0.25000000  0.20084629  0.14338665  1
  Dy  Dy8  1  0.25000000  0.70084629  0.35661335  1
  Dy  Dy9  1  0.25000000  0.04437784  0.85025439  1
  Dy  Dy10  1  0.25000000  0.54437784  0.64974561  1
  Dy  Dy11  1  0.75000000  0.93971905  0.63388621  1
  Se  Se0  1  0.75000000  0.40210622  0.10100016  1
  Se  Se1  1  0.25000000  0.37085579  0.50711844  1
  Se  Se2  1  0.75000000  0.12914421  0.00711844  1
  Se  Se3  1  0.25000000  0.87085579  0.99288156  1
  Se  Se4  1  0.25000000  0.27747653  0.81276222  1
  Se  Se5  1  0.75000000  0.62914421  0.49288156  1
  Se  Se6  1  0.75000000  0.90210622  0.39899984  1
  Se  Se7  1  0.25000000  0.09789378  0.60100016  1
  Se  Se8  1  0.75000000  0.72252347  0.18723778  1
  Se  Se9  1  0.75000000  0.22252347  0.31276222  1
  Se  Se10  1  0.25000000  0.59789378  0.89899984  1
  Se  Se11  1  0.25000000  0.77747653  0.68723778  1
  N  N0  1  0.75000000  0.46596088  0.70331993  1
  N  N1  1  0.75000000  0.96596088  0.79668007  1
  N  N2  1  0.25000000  0.03403912  0.20331993  1
  N  N3  1  0.25000000  0.53403912  0.29668007  1
loop_
_geom_bond_atom_site_label_1
_geom_bond_atom_site_label_2
_geom_bond_distance
_geom_bond_site_symmetry_2
Dy0 N1 2.232436 1_555
Dy0 Se3 2.808935 1_555
Dy0 Se3 2.808935 1_655
Dy0 Se11 2.985231 1_555
Dy0 Se11 2.985231 1_655
Dy0 Se10 3.244448 1_655
Dy0 Se10 3.244448 1_555
Dy1 N2 2.308127 1_565
Dy1 N2 2.308127 1_665
Dy1 Se2 2.871392 1_565
Dy1 Se8 2.959752 1_555
Dy1 Se3 3.042500 1_554
Dy1 Se3 3.042500 1_654
Dy1 Se6 3.349010 1_555
Dy2 N0 2.168135 1_555
Dy2 Se10 2.824034 1_655
Dy2 Se10 2.824034 1_555
Dy2 Se4 2.912958 1_555
Dy2 Se4 2.912958 1_655
Dy2 Se0 3.127811 1_556
Dy3 N0 2.232436 1_555
Dy3 Se1 2.808935 1_655
Dy3 Se1 2.808935 1_555
Dy3 Se4 2.985231 1_655
Dy3 Se4 2.985231 1_555
Dy3 Se7 3.244448 1_555
Dy3 Se7 3.244448 1_655
Dy4 N3 2.308127 1_655
Dy4 N3 2.308127 1_555
Dy4 Se5 2.871392 1_555
Dy4 Se9 2.959752 1_555
Dy4 Se1 3.042500 1_655
Dy4 Se1 3.042500 1_555
Dy4 Se0 3.349010 1_555
Dy5 N2 2.168135 1_555
Dy5 Se6 2.824034 1_545
Dy5 Se6 2.824034 1_445
Dy5 Se9 2.912958 1_455
Dy5 Se9 2.912958 1_555
Dy5 Se7 3.127811 1_555
Dy6 N3 2.168135 1_555
Dy6 Se0 2.824034 1_555
Dy6 Se0 2.824034 1_455
Dy6 Se8 2.912958 1_555
Dy6 Se8 2.912958 1_455
Dy6 Se10 3.127811 1_554
Dy7 N2 2.232436 1_555
Dy7 Se2 2.808935 1_455
Dy7 Se2 2.808935 1_555
Dy7 Se9 2.985231 1_455
Dy7 Se9 2.985231 1_555
Dy7 Se0 3.244448 1_455
Dy7 Se0 3.244448 1_555
Dy8 N3 2.232436 1_555
Dy8 Se5 2.808935 1_555
Dy8 Se5 2.808935 1_455
Dy8 Se8 2.985231 1_455
Dy8 Se8 2.985231 1_555
Dy8 Se6 3.244448 1_555
Dy8 Se6 3.244448 1_455
Dy9 N1 2.308127 1_445
Dy9 N1 2.308127 1_545
Dy9 Se3 2.871392 1_545
Dy9 Se4 2.959752 1_555
Dy9 Se2 3.042500 1_456
Dy9 Se2 3.042500 1_556
Dy9 Se7 3.349010 1_555
Dy10 N0 2.308127 1_555
Dy10 N0 2.308127 1_455
Dy10 Se1 2.871392 1_555
Dy10 Se11 2.959752 1_555
Dy10 Se5 3.042500 1_455
Dy10 Se5 3.042500 1_555
Dy10 Se10 3.349010 1_555
Dy11 N1 2.168135 1_555
Dy11 Se7 2.824034 1_665
Dy11 Se7 2.824034 1_565
Dy11 Se11 2.912958 1_555
Dy11 Se11 2.912958 1_655
Dy11 Se6 3.127811 1_555
