# generated using pymatgen
data_NiPb
_symmetry_space_group_name_H-M   'P 1'
_cell_length_a   4.15361242
_cell_length_b   4.15361242
_cell_length_c   5.18970100
_cell_angle_alpha   90.00000000
_cell_angle_beta   90.00000000
_cell_angle_gamma   120.00000677
_symmetry_Int_Tables_number   1
_chemical_formula_structural   NiPb
_chemical_formula_sum   'Ni2 Pb2'
_cell_volume   77.53983615
_cell_formula_units_Z   2
loop_
 _symmetry_equiv_pos_site_id
 _symmetry_equiv_pos_as_xyz
  1  'x, y, z'
loop_
 _atom_site_type_symbol
 _atom_site_label
 _atom_site_symmetry_multiplicity
 _atom_site_fract_x
 _atom_site_fract_y
 _atom_site_fract_z
 _atom_site_occupancy
  Ni  Ni0  1  0.00000000  0.00000000  0.00000000  1
  Ni  Ni1  1  0.00000000  0.00000000  0.50000000  1
  Pb  Pb0  1  0.33333300  0.66666700  0.75000000  1
  Pb  Pb1  1  0.66666700  0.33333300  0.25000000  1
loop_
_geom_bond_atom_site_label_1
_geom_bond_atom_site_label_2
_geom_bond_distance
_geom_bond_site_symmetry_2
Ni0 Ni1 2.594851 1_554
Ni0 Ni1 2.594851 1_555
Ni0 Pb0 2.726561 1_544
Ni0 Pb1 2.726561 1_455
Ni0 Pb0 2.726564 1_444
Ni0 Pb1 2.726564 1_445
Ni0 Pb1 2.726564 1_555
Ni0 Pb0 2.726564 1_554
Ni1 Pb0 2.726561 1_545
Ni1 Pb1 2.726561 1_455
Ni1 Pb0 2.726564 1_445
Ni1 Pb0 2.726564 1_555
Ni1 Pb1 2.726564 1_555
Ni1 Pb1 2.726564 1_445
