# generated using pymatgen
data_Hf54Os17
_symmetry_space_group_name_H-M   'P 1'
_cell_length_a   12.31234101
_cell_length_b   12.31234101
_cell_length_c   12.31234101
_cell_angle_alpha   111.40121543
_cell_angle_beta   109.88368962
_cell_angle_gamma   107.15703369
_symmetry_Int_Tables_number   1
_chemical_formula_structural   Hf54Os17
_chemical_formula_sum   'Hf54 Os17'
_cell_volume   1434.80027401
_cell_formula_units_Z   1
loop_
 _symmetry_equiv_pos_site_id
 _symmetry_equiv_pos_as_xyz
  1  'x, y, z'
loop_
 _atom_site_type_symbol
 _atom_site_label
 _atom_site_symmetry_multiplicity
 _atom_site_fract_x
 _atom_site_fract_y
 _atom_site_fract_z
 _atom_site_occupancy
  Hf  Hf0  1  0.79054400  0.29810800  0.87580700  1
  Hf  Hf1  1  0.46754900  0.16881600  0.06589800  1
  Hf  Hf2  1  0.82985800  0.93841300  0.10855500  1
  Hf  Hf3  1  0.79054400  0.91473700  0.49243600  1
  Hf  Hf4  1  0.06524300  0.48496600  0.19357900  1
  Hf  Hf5  1  0.39232700  0.37406400  0.76639000  1
  Hf  Hf6  1  0.93475700  0.12833600  0.41972300  1
  Hf  Hf7  1  0.10291800  0.40165100  0.93410200  1
  Hf  Hf8  1  0.10803600  0.17861200  0.28664900  1
  Hf  Hf9  1  0.08724600  0.89924500  0.18800100  1
  Hf  Hf10  1  0.20945600  0.08526300  0.50756400  1
  Hf  Hf11  1  0.10803600  0.82138800  0.92942400  1
  Hf  Hf12  1  0.00000000  0.39048900  0.39048900  1
  Hf  Hf13  1  0.71124400  0.89924500  0.81199900  1
  Hf  Hf14  1  0.17014200  0.06158700  0.89144400  1
  Hf  Hf15  1  0.20945600  0.70189200  0.12419300  1
  Hf  Hf16  1  0.66571400  0.26685000  0.60113500  1
  Hf  Hf17  1  0.29138600  0.48496600  0.41972300  1
  Hf  Hf18  1  0.42230100  0.29810800  0.50756400  1
  Hf  Hf19  1  0.70861400  0.51503400  0.58027700  1
  Hf  Hf20  1  0.17014200  0.27869800  0.10855500  1
  Hf  Hf21  1  0.91732100  0.59563900  0.32168200  1
  Hf  Hf22  1  0.08267900  0.40436100  0.67831800  1
  Hf  Hf23  1  0.89708200  0.59834900  0.06589800  1
  Hf  Hf24  1  0.72604200  0.40436100  0.32168200  1
  Hf  Hf25  1  0.35491100  0.35491100  0.00000000  1
  Hf  Hf26  1  0.89708200  0.83118400  0.29873200  1
  Hf  Hf27  1  0.91275400  0.10075500  0.81199900  1
  Hf  Hf28  1  0.53245100  0.59834900  0.70126800  1
  Hf  Hf29  1  0.53245100  0.83118400  0.93410200  1
  Hf  Hf30  1  0.57769900  0.08526300  0.87580700  1
  Hf  Hf31  1  0.64508900  0.64508900  0.00000000  1
  Hf  Hf32  1  0.10291800  0.16881600  0.70126800  1
  Hf  Hf33  1  0.60687700  0.00000000  0.60687700  1
  Hf  Hf34  1  0.39232700  0.62593600  0.01826300  1
  Hf  Hf35  1  0.29138600  0.87166400  0.80642100  1
  Hf  Hf36  1  0.89196400  0.82138800  0.71335100  1
  Hf  Hf37  1  0.89196400  0.17861200  0.07057600  1
  Hf  Hf38  1  0.60767300  0.37406400  0.98173700  1
  Hf  Hf39  1  0.60767300  0.62593600  0.23361000  1
  Hf  Hf40  1  0.70861400  0.12833600  0.19357900  1
  Hf  Hf41  1  0.46754900  0.40165100  0.29873200  1
  Hf  Hf42  1  0.27395800  0.59563900  0.67831800  1
  Hf  Hf43  1  0.33428600  0.73315000  0.39886500  1
  Hf  Hf44  1  0.39312300  0.00000000  0.39312300  1
  Hf  Hf45  1  0.66571400  0.06457900  0.39886500  1
  Hf  Hf46  1  0.82985800  0.72130200  0.89144400  1
  Hf  Hf47  1  0.28875600  0.10075500  0.18800100  1
  Hf  Hf48  1  0.00000000  0.60951100  0.60951100  1
  Hf  Hf49  1  0.57769900  0.70189200  0.49243600  1
  Hf  Hf50  1  0.33428600  0.93542100  0.60113500  1
  Hf  Hf51  1  0.42230100  0.91473700  0.12419300  1
  Hf  Hf52  1  0.06524300  0.87166400  0.58027700  1
  Hf  Hf53  1  0.93475700  0.51503400  0.80642100  1
  Os  Os0  1  0.50000000  0.19037900  0.69037900  1
  Os  Os1  1  0.66527500  0.46614100  0.80086600  1
  Os  Os2  1  0.88387200  0.21632500  0.66754700  1
  Os  Os3  1  0.78778900  0.67118500  0.45897400  1
  Os  Os4  1  0.45122200  0.78367500  0.66754700  1
  Os  Os5  1  0.66527500  0.86440900  0.19913400  1
  Os  Os6  1  0.33472500  0.13559100  0.80086600  1
  Os  Os7  1  0.11612800  0.78367500  0.33245300  1
  Os  Os8  1  0.21221100  0.67118500  0.88339600  1
  Os  Os9  1  0.83692300  0.33692300  0.50000000  1
  Os  Os10  1  0.16307700  0.66307700  0.50000000  1
  Os  Os11  1  0.00000000  0.00000000  0.00000000  1
  Os  Os12  1  0.50000000  0.80962100  0.30962100  1
  Os  Os13  1  0.54877800  0.21632500  0.33245300  1
  Os  Os14  1  0.21221100  0.32881500  0.54102600  1
  Os  Os15  1  0.78778900  0.32881500  0.11660400  1
  Os  Os16  1  0.33472500  0.53385900  0.19913400  1
loop_
_geom_bond_atom_site_label_1
_geom_bond_atom_site_label_2
_geom_bond_distance
_geom_bond_site_symmetry_2
Hf0 Os15 2.862154 1_556
Hf0 Hf16 3.018744 1_555
Hf0 Os0 3.033763 1_555
Hf0 Hf23 3.098465 1_556
Hf0 Hf30 3.111833 1_555
Hf0 Os2 3.116389 1_555
Hf0 Os1 3.133400 1_555
Hf0 Hf38 3.161474 1_555
Hf0 Hf27 3.217711 1_555
Hf0 Hf33 3.269520 1_555
Hf0 Hf53 3.303818 1_555
Hf0 Hf37 3.331141 1_556
Hf0 Hf7 3.390315 1_655
Hf0 Hf4 3.446557 1_656
Hf1 Os13 2.852105 1_555
Hf1 Os6 2.913956 1_554
Hf1 Hf14 3.081130 1_554
Hf1 Hf24 3.086914 1_555
Hf1 Hf30 3.098465 1_554
Hf1 Hf40 3.130477 1_555
Hf1 Hf47 3.144929 1_555
Hf1 Hf25 3.208982 1_555
Hf1 Hf35 3.220420 1_544
Hf1 Hf41 3.230913 1_555
Hf1 Hf38 3.315308 1_554
Hf1 Hf51 3.390315 1_545
Hf2 Os5 2.714736 1_555
Hf2 Os11 2.908058 1_665
Hf2 Hf46 3.012726 1_554
Hf2 Hf8 3.076998 1_665
Hf2 Hf37 3.076999 1_565
Hf2 Hf26 3.081118 1_555
Hf2 Hf29 3.081129 1_554
Hf2 Hf31 3.092966 1_555
Hf2 Hf40 3.182519 1_565
Hf2 Hf6 3.182529 1_565
Hf2 Hf9 3.220180 1_655
Hf3 Os3 2.862154 1_555
Hf3 Hf45 3.018739 1_565
Hf3 Os12 3.033763 1_555
Hf3 Hf49 3.111833 1_555
Hf3 Os2 3.116389 1_565
Hf3 Os5 3.133400 1_555
Hf3 Hf39 3.161470 1_555
Hf3 Hf33 3.269520 1_565
Hf3 Hf6 3.303818 1_565
Hf3 Hf36 3.331131 1_555
Hf3 Hf32 3.390316 1_665
Hf3 Hf52 3.446557 1_655
Hf4 Os15 2.976142 1_455
Hf4 Hf43 3.065156 1_555
Hf4 Os10 3.131460 1_555
Hf4 Os16 3.164342 1_555
Hf4 Os7 3.188252 1_555
Hf4 Hf7 3.220420 1_554
Hf5 Os14 2.623895 1_555
Hf5 Os0 2.969233 1_555
Hf5 Os1 3.031489 1_555
Hf5 Os6 3.031501 1_555
Hf6 Os14 2.976142 1_655
Hf6 Os9 3.131460 1_555
Hf6 Hf8 3.155661 1_655
Hf6 Os5 3.164342 1_545
Hf6 Os2 3.188252 1_555
Hf7 Os2 2.852105 1_455
Hf7 Os16 2.913956 1_556
Hf8 Os14 2.552533 1_555
Hf8 Os11 2.911731 1_555
Hf8 Hf9 3.097123 1_545
Hf9 Os7 2.651352 1_555
Hf9 Os11 3.039941 1_565
Hf10 Os14 2.862154 1_555
Hf10 Hf50 3.018739 1_545
Hf10 Os0 3.033763 1_555
Hf10 Hf32 3.098475 1_555
Hf10 Hf18 3.111833 1_555
Hf10 Os7 3.116389 1_545
Hf10 Os6 3.133400 1_555
Hf10 Hf5 3.161470 1_555
Hf10 Hf9 3.217711 1_545
Hf10 Hf44 3.269520 1_555
Hf10 Hf52 3.303818 1_545
Hf10 Hf8 3.331131 1_555
Hf10 Hf26 3.390316 1_445
Hf10 Hf6 3.446557 1_455
Hf11 Os8 2.552543 1_555
Hf11 Os11 2.911721 1_566
Hf11 Hf36 3.056260 1_455
Hf11 Hf46 3.076994 1_455
Hf11 Hf14 3.077006 1_565
Hf11 Hf47 3.097123 1_566
Hf11 Hf9 3.097123 1_556
Hf11 Hf35 3.155661 1_555
Hf11 Hf53 3.155671 1_455
Hf11 Hf48 3.313509 1_555
Hf11 Hf51 3.331141 1_556
Hf11 Hf15 3.331141 1_556
Hf12 Os10 2.827319 1_555
Hf12 Os9 2.827319 1_455
Hf12 Hf48 3.039244 1_555
Hf12 Os15 3.121260 1_455
Hf12 Os14 3.121260 1_555
Hf12 Hf21 3.259764 1_455
Hf12 Hf22 3.259764 1_555
Hf12 Hf42 3.259770 1_555
Hf12 Hf24 3.259776 1_455
Hf12 Hf17 3.272269 1_555
Hf12 Hf40 3.272274 1_455
Hf12 Hf6 3.272281 1_455
Hf12 Hf4 3.272281 1_555
Hf12 Hf8 3.313506 1_555
Hf12 Hf37 3.313509 1_455
Hf13 Os4 2.651352 1_555
Hf13 Hf27 2.946113 1_565
Hf13 Os11 3.039941 1_666
Hf13 Hf37 3.097123 1_566
Hf13 Hf36 3.097130 1_555
Hf13 Hf29 3.144929 1_555
Hf13 Hf28 3.144931 1_555
Hf13 Hf49 3.217711 1_555
Hf13 Hf30 3.217711 1_565
Hf13 Hf2 3.220180 1_556
Hf13 Hf46 3.220187 1_555
Hf13 Hf33 3.253896 1_565
Hf14 Os6 2.714726 1_555
Hf14 Os11 2.908068 1_556
Hf14 Hf20 3.012726 1_556
Hf14 Hf36 3.076999 1_445
Hf14 Hf32 3.081108 1_555
Hf14 Hf25 3.092963 1_556
Hf14 Hf35 3.182516 1_545
Hf14 Hf52 3.182519 1_545
Hf14 Hf27 3.220180 1_455
Hf14 Hf47 3.220192 1_556
Hf15 Os8 2.862154 1_554
Hf15 Hf43 3.018744 1_555
Hf15 Os12 3.033763 1_555
Hf15 Hf7 3.098465 1_554
Hf15 Hf51 3.111833 1_555
Hf15 Os7 3.116389 1_555
Hf15 Os16 3.133400 1_555
Hf15 Hf34 3.161474 1_555
Hf15 Hf9 3.217711 1_555
Hf15 Hf44 3.269520 1_565
Hf15 Hf4 3.303818 1_555
Hf15 Hf23 3.390315 1_455
Hf15 Hf53 3.446557 1_454
Hf16 Os0 2.720925 1_555
Hf16 Os1 2.771555 1_555
Hf16 Hf45 2.806793 1_555
Hf16 Os13 2.851905 1_555
Hf16 Os2 2.851917 1_555
Hf16 Os9 2.869676 1_555
Hf16 Hf18 3.018732 1_555
Hf16 Hf19 3.065147 1_555
Hf16 Hf53 3.065156 1_555
Hf16 Hf44 3.181932 1_555
Hf16 Hf33 3.181939 1_555
Hf17 Os14 2.976139 1_555
Hf17 Hf43 3.065147 1_555
Hf17 Hf42 3.084012 1_555
Hf17 Hf28 3.130480 1_555
Hf17 Os10 3.131450 1_555
Hf17 Hf8 3.155671 1_555
Hf17 Os16 3.164347 1_555
Hf17 Hf20 3.182528 1_555
Hf17 Os4 3.188251 1_555
Hf17 Hf4 3.198710 1_555
Hf17 Hf41 3.220439 1_555
Hf17 Hf49 3.303827 1_555
Hf17 Hf18 3.446564 1_555
Hf18 Os14 2.862154 1_555
Hf18 Os0 3.033763 1_555
Hf18 Hf28 3.098467 1_555
Hf18 Os13 3.116389 1_555
Hf18 Os1 3.133400 1_555
Hf18 Hf5 3.161463 1_555
Hf18 Hf47 3.217711 1_555
Hf18 Hf44 3.269520 1_555
Hf18 Hf19 3.303827 1_555
Hf18 Hf8 3.331138 1_555
Hf18 Hf41 3.390327 1_555
Hf19 Os3 2.976139 1_555
Hf19 Hf24 3.084012 1_555
Hf19 Hf41 3.130480 1_555
Hf19 Os9 3.131450 1_555
Hf19 Hf36 3.155671 1_555
Hf19 Os1 3.164347 1_555
Hf19 Hf46 3.182519 1_555
Hf19 Os13 3.188251 1_555
Hf19 Hf53 3.198710 1_555
Hf19 Hf28 3.220439 1_555
Hf19 Hf48 3.272269 1_655
Hf19 Hf49 3.446564 1_555
Hf20 Os16 2.714726 1_555
Hf20 Os11 2.908068 1_555
Hf20 Hf37 3.076999 1_455
Hf20 Hf8 3.077017 1_555
Hf20 Hf7 3.081118 1_554
Hf20 Hf41 3.081128 1_555
Hf20 Hf25 3.092963 1_555
Hf20 Hf4 3.182519 1_555
Hf20 Hf27 3.220180 1_454
Hf20 Hf47 3.220192 1_555
Hf21 Os10 2.708097 1_655
Hf21 Os7 2.753339 1_655
Hf21 Hf24 2.796526 1_555
Hf21 Os15 2.797796 1_555
Hf21 Os3 2.797796 1_555
Hf21 Hf4 3.084026 1_655
Hf21 Hf52 3.084026 1_655
Hf21 Hf23 3.086919 1_555
Hf21 Hf26 3.086924 1_555
Hf21 Hf48 3.259764 1_655
Hf22 Os9 2.708097 1_455
Hf22 Os2 2.753339 1_455
Hf22 Hf42 2.796526 1_555
Hf22 Os14 2.797796 1_555
Hf22 Os8 2.797796 1_555
Hf22 Hf6 3.084026 1_455
Hf22 Hf53 3.084026 1_455
Hf22 Hf7 3.086919 1_555
Hf22 Hf32 3.086924 1_555
Hf22 Hf48 3.259764 1_555
Hf23 Os7 2.852105 1_655
Hf23 Os1 2.913956 1_554
Hf23 Hf46 3.081128 1_554
Hf23 Hf4 3.130467 1_655
Hf23 Hf9 3.144929 1_655
Hf23 Hf31 3.208982 1_555
Hf23 Hf53 3.220420 1_554
Hf23 Hf26 3.230913 1_555
Hf23 Hf38 3.315308 1_554
Hf24 Os9 2.708101 1_555
Hf24 Os13 2.753332 1_555
Hf24 Os3 2.797792 1_555
Hf24 Os15 2.797804 1_555
Hf24 Hf40 3.084036 1_555
Hf24 Hf41 3.086904 1_555
Hf24 Hf48 3.259770 1_655
Hf25 Os16 2.778985 1_555
Hf25 Os6 2.778985 1_554
Hf25 Hf34 3.142136 1_555
Hf25 Hf38 3.142136 1_554
Hf25 Hf39 3.142138 1_555
Hf25 Hf5 3.142148 1_554
Hf25 Hf41 3.208970 1_555
Hf25 Hf32 3.208975 1_554
Hf25 Hf7 3.208982 1_554
Hf26 Os7 2.852104 1_655
Hf26 Os5 2.913954 1_555
Hf26 Hf3 3.098475 1_555
Hf26 Hf52 3.130477 1_655
Hf26 Hf9 3.144919 1_655
Hf26 Hf31 3.208975 1_555
Hf26 Hf6 3.220420 1_565
Hf26 Hf39 3.315318 1_555
Hf27 Os2 2.651352 1_555
Hf27 Os11 3.039941 1_656
Hf27 Hf36 3.097123 1_545
Hf27 Hf37 3.097123 1_556
Hf27 Hf32 3.144919 1_655
Hf27 Hf7 3.144929 1_655
Hf27 Hf3 3.217711 1_545
Hf27 Hf33 3.253896 1_555
Hf28 Os4 2.852109 1_555
Hf28 Os1 2.913950 1_555
Hf28 Hf46 3.081126 1_555
Hf28 Hf42 3.086904 1_555
Hf28 Hf31 3.208970 1_556
Hf28 Hf29 3.230913 1_555
Hf28 Hf5 3.315290 1_555
Hf28 Hf49 3.390327 1_555
Hf29 Os4 2.852105 1_555
Hf29 Os5 2.913956 1_556
Hf29 Hf42 3.086914 1_555
Hf29 Hf51 3.098465 1_556
Hf29 Hf35 3.130477 1_555
Hf29 Hf31 3.208982 1_556
Hf29 Hf40 3.220420 1_566
Hf29 Hf34 3.315308 1_556
Hf29 Hf30 3.390315 1_565
Hf30 Os15 2.862154 1_556
Hf30 Hf50 3.018739 1_545
Hf30 Os0 3.033763 1_555
Hf30 Os4 3.116389 1_545
Hf30 Os6 3.133400 1_555
Hf30 Hf38 3.161474 1_555
Hf30 Hf33 3.269520 1_555
Hf30 Hf35 3.303827 1_545
Hf30 Hf37 3.331141 1_556
Hf30 Hf40 3.446558 1_556
Hf31 Os5 2.778985 1_555
Hf31 Os1 2.778985 1_554
Hf31 Hf46 3.092972 1_554
Hf31 Hf34 3.142136 1_555
Hf31 Hf38 3.142136 1_554
Hf31 Hf5 3.142138 1_554
Hf31 Hf39 3.142148 1_555
Hf32 Os2 2.852104 1_455
Hf32 Os6 2.913954 1_555
Hf32 Hf6 3.130477 1_455
Hf32 Hf52 3.220420 1_545
Hf32 Hf7 3.230913 1_555
Hf32 Hf5 3.315318 1_555
Hf33 Hf44 3.023466 1_555
Hf33 Os0 3.043739 1_555
Hf33 Os12 3.043739 1_545
Hf33 Hf45 3.181927 1_555
Hf33 Hf50 3.181927 1_545
Hf33 Hf43 3.181932 1_545
Hf33 Hf49 3.269520 1_545
Hf33 Os2 3.277067 1_555
Hf33 Os4 3.277067 1_545
Hf34 Os8 2.623904 1_554
Hf34 Os12 2.969235 1_555
Hf34 Os16 3.031494 1_555
Hf34 Os5 3.031494 1_555
Hf34 Hf51 3.161474 1_555
Hf34 Hf7 3.315308 1_554
Hf35 Os8 2.976140 1_555
Hf35 Hf50 3.065165 1_555
Hf35 Hf42 3.084036 1_555
Hf35 Os10 3.131462 1_555
Hf35 Os6 3.164341 1_565
Hf35 Os4 3.188263 1_555
Hf35 Hf52 3.198710 1_555
Hf35 Hf48 3.272274 1_555
Hf35 Hf51 3.446558 1_556
Hf36 Os3 2.552533 1_555
Hf36 Os11 2.911731 1_666
Hf36 Hf46 3.077006 1_555
Hf36 Hf52 3.155661 1_655
Hf36 Hf48 3.313506 1_655
Hf36 Hf49 3.331138 1_555
Hf37 Os15 2.552543 1_555
Hf37 Os11 2.911721 1_655
Hf37 Hf8 3.056260 1_655
Hf37 Hf40 3.155661 1_555
Hf37 Hf4 3.155671 1_655
Hf38 Os15 2.623904 1_556
Hf38 Os0 2.969235 1_555
Hf38 Os1 3.031494 1_555
Hf38 Os6 3.031494 1_555
Hf39 Os3 2.623895 1_555
Hf39 Os12 2.969233 1_555
Hf39 Os16 3.031489 1_555
Hf39 Os5 3.031501 1_555
Hf39 Hf49 3.161463 1_555
Hf39 Hf41 3.315290 1_555
Hf40 Os15 2.976140 1_555
Hf40 Hf45 3.065165 1_555
Hf40 Os9 3.131462 1_555
Hf40 Os5 3.164341 1_545
Hf40 Os13 3.188263 1_555
Hf40 Hf6 3.198710 1_555
Hf40 Hf51 3.303827 1_545
Hf41 Os13 2.852109 1_555
Hf41 Os16 2.913950 1_555
Hf41 Hf49 3.098467 1_555
Hf41 Hf47 3.144931 1_555
Hf42 Os10 2.708101 1_555
Hf42 Os4 2.753332 1_555
Hf42 Os14 2.797792 1_555
Hf42 Os8 2.797804 1_555
Hf42 Hf48 3.259776 1_555
Hf43 Os12 2.720925 1_555
Hf43 Os16 2.771555 1_555
Hf43 Hf50 2.806793 1_555
Hf43 Os4 2.851905 1_555
Hf43 Os7 2.851917 1_555
Hf43 Os10 2.869676 1_555
Hf43 Hf49 3.018732 1_555
Hf43 Hf44 3.181939 1_565
Hf44 Os0 3.043739 1_555
Hf44 Os12 3.043739 1_545
Hf44 Hf45 3.181927 1_555
Hf44 Hf50 3.181927 1_545
Hf44 Hf47 3.253896 1_555
Hf44 Hf9 3.253896 1_545
Hf44 Hf51 3.269520 1_545
Hf44 Os13 3.277067 1_555
Hf44 Os7 3.277067 1_545
Hf45 Os12 2.720922 1_545
Hf45 Os5 2.771561 1_545
Hf45 Os13 2.851909 1_555
Hf45 Os2 2.851909 1_555
Hf45 Os9 2.869679 1_555
Hf45 Hf51 3.018739 1_545
Hf45 Hf6 3.065160 1_555
Hf46 Os1 2.714729 1_555
Hf46 Os11 2.908065 1_666
Hf46 Hf53 3.182517 1_555
Hf46 Hf9 3.220187 1_656
Hf47 Os13 2.651352 1_555
Hf47 Hf9 2.946113 1_545
Hf47 Os11 3.039941 1_555
Hf47 Hf8 3.097130 1_555
Hf47 Hf51 3.217711 1_545
Hf48 Os10 2.827319 1_555
Hf48 Os9 2.827319 1_455
Hf48 Os3 3.121260 1_455
Hf48 Os8 3.121260 1_555
Hf48 Hf53 3.272281 1_455
Hf48 Hf52 3.272281 1_555
Hf49 Os3 2.862154 1_555
Hf49 Os12 3.033763 1_555
Hf49 Os4 3.116389 1_555
Hf49 Os16 3.133400 1_555
Hf50 Os0 2.720922 1_565
Hf50 Os6 2.771561 1_565
Hf50 Os7 2.851909 1_555
Hf50 Os4 2.851909 1_555
Hf50 Os10 2.869679 1_555
Hf50 Hf52 3.065160 1_555
Hf51 Os8 2.862154 1_554
Hf51 Os12 3.033763 1_555
Hf51 Os13 3.116389 1_565
Hf51 Os5 3.133400 1_555
Hf52 Os3 2.976142 1_455
Hf52 Os10 3.131460 1_555
Hf52 Os6 3.164342 1_565
Hf52 Os7 3.188252 1_555
Hf53 Os8 2.976142 1_655
Hf53 Hf7 3.130467 1_655
Hf53 Os9 3.131460 1_555
Hf53 Os1 3.164342 1_555
Hf53 Os2 3.188252 1_555
Os0 Os1 2.861703 1_555
Os0 Os6 2.861703 1_555
Os2 Os9 2.953830 1_555
Os10 Os4 2.953830 1_555
Os10 Os7 2.953830 1_555
Os12 Os16 2.861703 1_555
Os12 Os5 2.861703 1_555
Os13 Os9 2.953830 1_555
