# generated using pymatgen
data_SrV3O7
_symmetry_space_group_name_H-M   'P 1'
_cell_length_a   5.37594600
_cell_length_b   10.58123700
_cell_length_c   11.38875700
_cell_angle_alpha   90.00000000
_cell_angle_beta   90.00000000
_cell_angle_gamma   90.00000000
_symmetry_Int_Tables_number   1
_chemical_formula_structural   SrV3O7
_chemical_formula_sum   'Sr4 V12 O28'
_cell_volume   647.83986087
_cell_formula_units_Z   4
loop_
 _symmetry_equiv_pos_site_id
 _symmetry_equiv_pos_as_xyz
  1  'x, y, z'
loop_
 _atom_site_type_symbol
 _atom_site_label
 _atom_site_symmetry_multiplicity
 _atom_site_fract_x
 _atom_site_fract_y
 _atom_site_fract_z
 _atom_site_occupancy
  Sr  Sr0  1  0.75616800  0.75000000  0.57285500  1
  Sr  Sr1  1  0.25616800  0.25000000  0.92714500  1
  Sr  Sr2  1  0.24383200  0.25000000  0.42714500  1
  Sr  Sr3  1  0.74383200  0.75000000  0.07285500  1
  V  V0  1  0.75488100  0.97974300  0.80850300  1
  V  V1  1  0.25488100  0.02025700  0.69149700  1
  V  V2  1  0.24511900  0.47974300  0.19149700  1
  V  V3  1  0.74511900  0.52025700  0.30850300  1
  V  V4  1  0.24511900  0.02025700  0.19149700  1
  V  V5  1  0.74511900  0.97974300  0.30850300  1
  V  V6  1  0.75488100  0.52025700  0.80850300  1
  V  V7  1  0.25488100  0.47974300  0.69149700  1
  V  V8  1  0.25491700  0.75000000  0.78830000  1
  V  V9  1  0.75491700  0.25000000  0.71170000  1
  V  V10  1  0.74508300  0.25000000  0.21170000  1
  V  V11  1  0.24508300  0.75000000  0.28830000  1
  O  O0  1  0.49148600  0.88068500  0.72580400  1
  O  O1  1  0.99148600  0.11931500  0.77419600  1
  O  O2  1  0.50851400  0.38068500  0.27419600  1
  O  O3  1  0.00851400  0.61931500  0.22580400  1
  O  O4  1  0.50851400  0.11931500  0.27419600  1
  O  O5  1  0.00851400  0.88068500  0.22580400  1
  O  O6  1  0.49148600  0.61931500  0.72580400  1
  O  O7  1  0.99148600  0.38068500  0.77419600  1
  O  O8  1  0.01829200  0.88072700  0.72571200  1
  O  O9  1  0.51829200  0.11927300  0.77428800  1
  O  O10  1  0.98170800  0.38072700  0.27428800  1
  O  O11  1  0.48170800  0.61927300  0.22571200  1
  O  O12  1  0.98170800  0.11927300  0.27428800  1
  O  O13  1  0.48170800  0.88072700  0.22571200  1
  O  O14  1  0.01829200  0.61927300  0.72571200  1
  O  O15  1  0.51829200  0.38072700  0.77428800  1
  O  O16  1  0.75422000  0.93927900  0.94916300  1
  O  O17  1  0.25422000  0.06072100  0.55083700  1
  O  O18  1  0.24578000  0.43927900  0.05083700  1
  O  O19  1  0.74578000  0.56072100  0.44916300  1
  O  O20  1  0.24578000  0.06072100  0.05083700  1
  O  O21  1  0.74578000  0.93927900  0.44916300  1
  O  O22  1  0.75422000  0.56072100  0.94916300  1
  O  O23  1  0.25422000  0.43927900  0.55083700  1
  O  O24  1  0.25563200  0.75000000  0.93398600  1
  O  O25  1  0.75563200  0.25000000  0.56601400  1
  O  O26  1  0.74436800  0.25000000  0.06601400  1
  O  O27  1  0.24436800  0.75000000  0.43398600  1
loop_
_geom_bond_atom_site_label_1
_geom_bond_atom_site_label_2
_geom_bond_distance
_geom_bond_site_symmetry_2
O0 V1 1.987876 1_565
O0 V0 1.997684 1_555
O0 V8 2.009025 1_555
O0 Sr0 2.640277 1_555
O1 V0 1.987876 1_545
O1 V1 1.997684 1_655
O1 V9 2.009025 1_555
O1 Sr1 2.640277 1_655
O2 V3 1.987876 1_555
O2 V2 1.997684 1_555
O2 V10 2.009025 1_555
O2 Sr2 2.640277 1_555
O3 V2 1.987876 1_555
O3 V3 1.997684 1_455
O3 V11 2.009025 1_555
O3 Sr3 2.640277 1_455
O4 V5 1.987876 1_545
O4 V4 1.997684 1_555
O4 V10 2.009025 1_555
O4 Sr2 2.640277 1_555
O5 V4 1.987876 1_565
O5 V5 1.997684 1_455
O5 V11 2.009025 1_555
O5 Sr3 2.640277 1_455
O6 V7 1.987876 1_555
O6 V6 1.997684 1_555
O6 V8 2.009025 1_555
O6 Sr0 2.640277 1_555
O7 V6 1.987876 1_555
O7 V7 1.997684 1_655
O7 V9 2.009025 1_555
O7 Sr1 2.640277 1_655
O8 V1 1.987285 1_565
O8 V0 1.998006 1_455
O8 V8 2.009893 1_555
O8 Sr0 2.632432 1_455
O9 V0 1.987285 1_545
O9 V1 1.998006 1_555
O9 V9 2.009893 1_555
O9 Sr1 2.632432 1_555
O10 V3 1.987285 1_555
O10 V2 1.998006 1_655
O10 V10 2.009893 1_555
O10 Sr2 2.632432 1_655
O11 V2 1.987285 1_555
O11 V3 1.998006 1_555
O11 V11 2.009893 1_555
O11 Sr3 2.632432 1_555
O12 V5 1.987285 1_545
O12 V4 1.998006 1_655
O12 V10 2.009893 1_555
O12 Sr2 2.632432 1_655
O13 V4 1.987285 1_565
O13 V5 1.998006 1_555
O13 V11 2.009893 1_555
O13 Sr3 2.632432 1_555
O14 V7 1.987285 1_555
O14 V6 1.998006 1_455
O14 V8 2.009893 1_555
O14 Sr0 2.632432 1_455
O15 V6 1.987285 1_555
O15 V7 1.998006 1_555
O15 V9 2.009893 1_555
O15 Sr1 2.632432 1_555
O16 V0 1.658178 1_555
O16 Sr3 2.449241 1_556
O17 V1 1.658178 1_555
O17 Sr2 2.449241 1_555
O18 V2 1.658178 1_555
O18 Sr1 2.449241 1_554
O19 V3 1.658178 1_555
O19 Sr0 2.449241 1_555
O20 V4 1.658178 1_555
O20 Sr1 2.449241 1_554
O21 V5 1.658178 1_555
O21 Sr0 2.449241 1_555
O22 V6 1.658178 1_555
O22 Sr3 2.449241 1_556
O23 V7 1.658178 1_555
O23 Sr2 2.449241 1_555
O24 V8 1.659187 1_555
O24 Sr3 3.064226 1_556
O24 Sr3 3.173569 1_456
O25 V9 1.659187 1_555
O25 Sr2 3.064226 1_655
O25 Sr2 3.173569 1_555
O26 V10 1.659187 1_555
O26 Sr1 3.064226 1_554
O26 Sr1 3.173569 1_654
O27 V11 1.659187 1_555
O27 Sr0 3.064226 1_455
O27 Sr0 3.173569 1_555
