# generated using pymatgen
data_CsK2AuO2
_symmetry_space_group_name_H-M   'P 1'
_cell_length_a   6.36480600
_cell_length_b   7.46010000
_cell_length_c   12.71218700
_cell_angle_alpha   90.00000000
_cell_angle_beta   90.00000000
_cell_angle_gamma   90.00000000
_symmetry_Int_Tables_number   1
_chemical_formula_structural   CsK2AuO2
_chemical_formula_sum   'Cs4 K8 Au4 O8'
_cell_volume   603.60119758
_cell_formula_units_Z   4
loop_
 _symmetry_equiv_pos_site_id
 _symmetry_equiv_pos_as_xyz
  1  'x, y, z'
loop_
 _atom_site_type_symbol
 _atom_site_label
 _atom_site_symmetry_multiplicity
 _atom_site_fract_x
 _atom_site_fract_y
 _atom_site_fract_z
 _atom_site_occupancy
  Cs  Cs0  1  0.18273800  0.75000000  0.90579000  1
  Cs  Cs1  1  0.81726200  0.25000000  0.09421000  1
  Cs  Cs2  1  0.68273800  0.25000000  0.59421000  1
  Cs  Cs3  1  0.31726200  0.75000000  0.40579000  1
  K  K0  1  0.13887300  0.99769400  0.63937700  1
  K  K1  1  0.63887300  0.49769400  0.86062300  1
  K  K2  1  0.36112700  0.99769400  0.13937700  1
  K  K3  1  0.63887300  0.00230600  0.86062300  1
  K  K4  1  0.13887300  0.50230600  0.63937700  1
  K  K5  1  0.36112700  0.50230600  0.13937700  1
  K  K6  1  0.86112700  0.00230600  0.36062300  1
  K  K7  1  0.86112700  0.49769400  0.36062300  1
  Au  Au0  1  0.67252300  0.75000000  0.62288700  1
  Au  Au1  1  0.17252300  0.25000000  0.87711300  1
  Au  Au2  1  0.32747700  0.25000000  0.37711300  1
  Au  Au3  1  0.82747700  0.75000000  0.12288700  1
  O  O0  1  0.58480800  0.75000000  0.01815700  1
  O  O1  1  0.08480800  0.25000000  0.48184300  1
  O  O2  1  0.57219400  0.25000000  0.27386100  1
  O  O3  1  0.41519200  0.25000000  0.98184300  1
  O  O4  1  0.91519200  0.75000000  0.51815700  1
  O  O5  1  0.42780600  0.75000000  0.72613900  1
  O  O6  1  0.92780600  0.25000000  0.77386100  1
  O  O7  1  0.07219400  0.75000000  0.22613900  1
loop_
_geom_bond_atom_site_label_1
_geom_bond_atom_site_label_2
_geom_bond_distance
_geom_bond_site_symmetry_2
Cs0 O5 2.765602 1_555
Cs0 O0 2.930767 1_556
Cs1 O2 2.765602 1_555
Cs1 O3 2.930767 1_554
Cs2 O6 2.765602 1_555
Cs2 O1 2.930767 1_655
Cs3 O7 2.765602 1_555
Cs3 O4 2.930767 1_455
K0 O1 2.769767 1_565
K0 O4 2.795697 1_455
K0 O5 2.830696 1_555
K0 O6 2.875794 1_465
K1 O0 2.769767 1_556
K1 O3 2.795697 1_555
K1 O6 2.830696 1_555
K1 O5 2.875794 1_555
K2 O3 2.769767 1_564
K2 O0 2.795697 1_555
K2 O7 2.830696 1_555
K2 O2 2.875794 1_565
K3 O0 2.769767 1_546
K3 O3 2.795697 1_555
K3 O6 2.830696 1_555
K3 O5 2.875794 1_545
K4 O1 2.769767 1_555
K4 O4 2.795697 1_455
K4 O5 2.830696 1_555
K4 O6 2.875794 1_455
K5 O3 2.769767 1_554
K5 O0 2.795697 1_555
K5 O7 2.830696 1_555
K5 O2 2.875794 1_555
K6 O4 2.769767 1_545
K6 O1 2.795697 1_655
K6 O2 2.830696 1_555
K6 O7 2.875794 1_645
K7 O4 2.769767 1_555
K7 O1 2.795697 1_655
K7 O2 2.830696 1_555
K7 O7 2.875794 1_655
Au0 O5 2.036874 1_555
Au0 O4 2.039140 1_555
Au1 O6 2.036874 1_455
Au1 O3 2.039140 1_555
Au2 O2 2.036874 1_555
Au2 O1 2.039140 1_555
Au3 O7 2.036874 1_655
Au3 O0 2.039140 1_555
