# generated using pymatgen
data_Cr3Ag8(IO6)2
_symmetry_space_group_name_H-M   'P 1'
_cell_length_a   9.54828083
_cell_length_b   9.54828083
_cell_length_c   10.43147500
_cell_angle_alpha   90.00000000
_cell_angle_beta   90.00000000
_cell_angle_gamma   120.00000575
_symmetry_Int_Tables_number   1
_chemical_formula_structural   Cr3Ag8(IO6)2
_chemical_formula_sum   'Cr6 Ag16 I4 O24'
_cell_volume   823.61964271
_cell_formula_units_Z   2
loop_
 _symmetry_equiv_pos_site_id
 _symmetry_equiv_pos_as_xyz
  1  'x, y, z'
loop_
 _atom_site_type_symbol
 _atom_site_label
 _atom_site_symmetry_multiplicity
 _atom_site_fract_x
 _atom_site_fract_y
 _atom_site_fract_z
 _atom_site_occupancy
  Cr  Cr0  1  0.71624300  0.72022700  0.25000000  1
  Cr  Cr1  1  0.28375700  0.27977300  0.75000000  1
  Cr  Cr2  1  0.27977300  0.99601600  0.25000000  1
  Cr  Cr3  1  0.72022700  0.00398400  0.75000000  1
  Cr  Cr4  1  0.99601600  0.71624300  0.75000000  1
  Cr  Cr5  1  0.00398400  0.28375700  0.25000000  1
  Ag  Ag0  1  0.00007400  0.37176900  0.57452800  1
  Ag  Ag1  1  0.37176900  0.37169500  0.42547200  1
  Ag  Ag2  1  0.37169500  0.99992600  0.92547200  1
  Ag  Ag3  1  0.99992600  0.62823100  0.42547200  1
  Ag  Ag4  1  0.62823100  0.62830500  0.92547200  1
  Ag  Ag5  1  0.99992600  0.62823100  0.07452800  1
  Ag  Ag6  1  0.62830500  0.00007400  0.42547200  1
  Ag  Ag7  1  0.66666700  0.33333300  0.75000000  1
  Ag  Ag8  1  0.37176900  0.37169500  0.07452800  1
  Ag  Ag9  1  0.62823100  0.62830500  0.57452800  1
  Ag  Ag10  1  0.62830500  0.00007400  0.07452800  1
  Ag  Ag11  1  0.00000000  0.00000000  0.50000000  1
  Ag  Ag12  1  0.37169500  0.99992600  0.57452800  1
  Ag  Ag13  1  0.00000000  0.00000000  0.00000000  1
  Ag  Ag14  1  0.00007400  0.37176900  0.92547200  1
  Ag  Ag15  1  0.33333300  0.66666700  0.25000000  1
  I  I0  1  0.33333300  0.66666700  0.52083000  1
  I  I1  1  0.66666700  0.33333300  0.47917000  1
  I  I2  1  0.66666700  0.33333300  0.02083000  1
  I  I3  1  0.33333300  0.66666700  0.97917000  1
  O  O0  1  0.35104400  0.19382000  0.25000000  1
  O  O1  1  0.17005800  0.91570200  0.38475400  1
  O  O2  1  0.43450700  0.95740400  0.25000000  1
  O  O3  1  0.04259600  0.47710300  0.25000000  1
  O  O4  1  0.08429800  0.25435600  0.11524600  1
  O  O5  1  0.74564400  0.82994200  0.38475400  1
  O  O6  1  0.64895600  0.80618000  0.75000000  1
  O  O7  1  0.08429800  0.25435600  0.38475400  1
  O  O8  1  0.91570200  0.74564400  0.61524600  1
  O  O9  1  0.82994200  0.08429800  0.88475400  1
  O  O10  1  0.25435600  0.17005800  0.88475400  1
  O  O11  1  0.19382000  0.84277600  0.75000000  1
  O  O12  1  0.84277600  0.64895600  0.25000000  1
  O  O13  1  0.56549300  0.04259600  0.75000000  1
  O  O14  1  0.91570200  0.74564400  0.88475400  1
  O  O15  1  0.25435600  0.17005800  0.61524600  1
  O  O16  1  0.17005800  0.91570200  0.11524600  1
  O  O17  1  0.82994200  0.08429800  0.61524600  1
  O  O18  1  0.52289700  0.56549300  0.25000000  1
  O  O19  1  0.15722400  0.35104400  0.75000000  1
  O  O20  1  0.80618000  0.15722400  0.25000000  1
  O  O21  1  0.47710300  0.43450700  0.75000000  1
  O  O22  1  0.95740400  0.52289700  0.75000000  1
  O  O23  1  0.74564400  0.82994200  0.11524600  1
loop_
_geom_bond_atom_site_label_1
_geom_bond_atom_site_label_2
_geom_bond_distance
_geom_bond_site_symmetry_2
Cr0 O12 1.656793 1_555
Cr0 O23 1.690594 1_555
Cr0 O5 1.690594 1_555
Cr0 O18 1.692177 1_555
Cr1 O19 1.656793 1_555
Cr1 O10 1.690594 1_555
Cr1 O15 1.690594 1_555
Cr1 O21 1.692177 1_555
Cr2 O0 1.656793 1_565
Cr2 O16 1.690594 1_555
Cr2 O1 1.690594 1_555
Cr2 O2 1.692178 1_555
Cr3 O6 1.656793 1_545
Cr3 O9 1.690594 1_555
Cr3 O17 1.690594 1_555
Cr3 O13 1.692178 1_555
Cr4 O11 1.656793 1_655
Cr4 O14 1.690594 1_555
Cr4 O8 1.690594 1_555
Cr4 O22 1.692177 1_555
Cr5 O20 1.656793 1_455
Cr5 O7 1.690594 1_555
Cr5 O4 1.690594 1_555
Cr5 O3 1.692177 1_555
Ag0 O17 2.427880 1_455
Ag0 O19 2.436824 1_555
Ag0 O22 2.487304 1_455
Ag0 O7 2.593079 1_555
Ag0 I0 3.067221 1_555
Ag0 I1 3.176520 1_455
Ag1 O7 2.427880 1_555
Ag1 O0 2.436824 1_555
Ag1 O18 2.487304 1_555
Ag1 O15 2.593079 1_555
Ag1 I1 3.067227 1_555
Ag1 I0 3.176529 1_555
Ag2 O10 2.427880 1_565
Ag2 O11 2.436824 1_555
Ag2 O13 2.487304 1_565
Ag2 O16 2.593079 1_556
Ag2 I3 3.067218 1_555
Ag2 I2 3.176524 1_566
Ag3 O1 2.427880 1_655
Ag3 O12 2.436824 1_555
Ag3 O3 2.487304 1_655
Ag3 O8 2.593079 1_555
Ag3 I1 3.067221 1_555
Ag3 I0 3.176520 1_655
Ag4 O14 2.427880 1_555
Ag4 O6 2.436824 1_555
Ag4 O21 2.487304 1_555
Ag4 O23 2.593079 1_556
Ag4 I3 3.067227 1_555
Ag4 I2 3.176529 1_556
Ag5 O16 2.427880 1_655
Ag5 O12 2.436824 1_555
Ag5 O3 2.487304 1_655
Ag5 O14 2.593079 1_554
Ag5 I2 3.067221 1_555
Ag5 I3 3.176520 1_654
Ag6 O5 2.427880 1_545
Ag6 O20 2.436824 1_555
Ag6 O2 2.487304 1_545
Ag6 O17 2.593079 1_555
Ag6 I1 3.067218 1_555
Ag6 I0 3.176524 1_545
Ag7 O13 2.440873 1_555
Ag7 O22 2.440874 1_555
Ag7 O21 2.440882 1_555
Ag7 I2 2.825156 1_556
Ag7 I1 2.825156 1_555
Ag8 O4 2.427880 1_555
Ag8 O0 2.436824 1_555
Ag8 O18 2.487304 1_555
Ag8 O10 2.593079 1_554
Ag8 I2 3.067227 1_555
Ag8 I3 3.176529 1_554
Ag9 O8 2.427880 1_555
Ag9 O6 2.436824 1_555
Ag9 O21 2.487304 1_555
Ag9 O5 2.593079 1_555
Ag9 I0 3.067227 1_555
Ag9 I1 3.176529 1_555
Ag10 O23 2.427880 1_545
Ag10 O20 2.436824 1_555
Ag10 O2 2.487304 1_545
Ag10 O9 2.593079 1_554
Ag10 I2 3.067218 1_555
Ag10 I3 3.176524 1_544
Ag11 O15 2.456966 1_555
Ag11 O5 2.456966 1_445
Ag11 O8 2.456967 1_445
Ag11 O7 2.456967 1_555
Ag11 O17 2.456967 1_455
Ag11 O1 2.456967 1_545
Ag12 O15 2.427880 1_565
Ag12 O11 2.436824 1_555
Ag12 O13 2.487304 1_565
Ag12 O1 2.593079 1_555
Ag12 I0 3.067218 1_555
Ag12 I1 3.176524 1_565
Ag13 O10 2.456966 1_554
Ag13 O23 2.456966 1_445
Ag13 O14 2.456967 1_444
Ag13 O4 2.456967 1_555
Ag13 O16 2.456967 1_545
Ag13 O9 2.456967 1_454
Ag14 O9 2.427880 1_455
Ag14 O19 2.436824 1_555
Ag14 O22 2.487304 1_455
Ag14 O4 2.593079 1_556
Ag14 I3 3.067221 1_555
Ag14 I2 3.176520 1_456
Ag15 O2 2.440873 1_555
Ag15 O3 2.440874 1_555
Ag15 O18 2.440882 1_555
Ag15 I0 2.825156 1_555
Ag15 I3 2.825156 1_554
