# generated using pymatgen
data_LiAl5O8
_symmetry_space_group_name_H-M   'P 1'
_cell_length_a   7.89825601
_cell_length_b   7.89825601
_cell_length_c   7.89825601
_cell_angle_alpha   90.00000000
_cell_angle_beta   90.00000000
_cell_angle_gamma   90.00000000
_symmetry_Int_Tables_number   1
_chemical_formula_structural   LiAl5O8
_chemical_formula_sum   'Li4 Al20 O32'
_cell_volume   492.71254483
_cell_formula_units_Z   4
loop_
 _symmetry_equiv_pos_site_id
 _symmetry_equiv_pos_as_xyz
  1  'x, y, z'
loop_
 _atom_site_type_symbol
 _atom_site_label
 _atom_site_symmetry_multiplicity
 _atom_site_fract_x
 _atom_site_fract_y
 _atom_site_fract_z
 _atom_site_occupancy
  Li  Li0  1  0.12500000  0.87500000  0.37500000  1
  Li  Li1  1  0.37500000  0.12500000  0.87500000  1
  Li  Li2  1  0.62500000  0.62500000  0.62500000  1
  Li  Li3  1  0.87500000  0.37500000  0.12500000  1
  Al  Al0  1  0.99781007  0.99781007  0.99781007  1
  Al  Al1  1  0.00218993  0.49781007  0.50218993  1
  Al  Al2  1  0.11884179  0.62500000  0.13115821  1
  Al  Al3  1  0.12500000  0.36884179  0.88115821  1
  Al  Al4  1  0.13115821  0.11884179  0.62500000  1
  Al  Al5  1  0.24781007  0.74781007  0.75218993  1
  Al  Al6  1  0.25218993  0.25218993  0.25218993  1
  Al  Al7  1  0.36884179  0.88115821  0.12500000  1
  Al  Al8  1  0.37500000  0.63115821  0.38115821  1
  Al  Al9  1  0.38115821  0.37500000  0.63115821  1
  Al  Al10  1  0.49781007  0.50218993  0.00218993  1
  Al  Al11  1  0.50218993  0.00218993  0.49781007  1
  Al  Al12  1  0.61884179  0.87500000  0.86884179  1
  Al  Al13  1  0.62500000  0.13115821  0.11884179  1
  Al  Al14  1  0.63115821  0.38115821  0.37500000  1
  Al  Al15  1  0.74781007  0.75218993  0.24781007  1
  Al  Al16  1  0.75218993  0.24781007  0.74781007  1
  Al  Al17  1  0.86884179  0.61884179  0.87500000  1
  Al  Al18  1  0.87500000  0.86884179  0.61884179  1
  Al  Al19  1  0.88115821  0.12500000  0.36884179  1
  O  O0  1  0.61462785  0.88537215  0.11462785  1
  O  O1  1  0.61523549  0.61493690  0.36742362  1
  O  O2  1  0.86462785  0.86462785  0.86462785  1
  O  O3  1  0.86523549  0.11742362  0.13506310  1
  O  O4  1  0.86742362  0.88476451  0.38506310  1
  O  O5  1  0.88506310  0.63257638  0.11523549  1
  O  O6  1  0.11462785  0.61462785  0.88537215  1
  O  O7  1  0.11493690  0.13257638  0.38476451  1
  O  O8  1  0.11523549  0.88506310  0.63257638  1
  O  O9  1  0.11742362  0.13506310  0.86523549  1
  O  O10  1  0.13257638  0.38476451  0.11493690  1
  O  O11  1  0.13506310  0.86523549  0.11742362  1
  O  O12  1  0.36462785  0.63537215  0.13537215  1
  O  O13  1  0.36493690  0.13476451  0.61742362  1
  O  O14  1  0.36523549  0.38257638  0.86493690  1
  O  O15  1  0.36742362  0.61523549  0.61493690  1
  O  O16  1  0.38257638  0.86493690  0.36523549  1
  O  O17  1  0.38476451  0.11493690  0.13257638  1
  O  O18  1  0.38506310  0.86742362  0.88476451  1
  O  O19  1  0.38537215  0.38537215  0.38537215  1
  O  O20  1  0.61493690  0.36742362  0.61523549  1
  O  O21  1  0.61742362  0.36493690  0.13476451  1
  O  O22  1  0.63257638  0.11523549  0.88506310  1
  O  O23  1  0.63476451  0.88257638  0.63506310  1
  O  O24  1  0.63506310  0.63476451  0.88257638  1
  O  O25  1  0.63537215  0.13537215  0.36462785  1
  O  O26  1  0.86493690  0.36523549  0.38257638  1
  O  O27  1  0.88257638  0.63506310  0.63476451  1
  O  O28  1  0.88476451  0.38506310  0.86742362  1
  O  O29  1  0.88537215  0.11462785  0.61462785  1
  O  O30  1  0.13476451  0.61742362  0.36493690  1
  O  O31  1  0.13537215  0.36462785  0.63537215  1
loop_
_geom_bond_atom_site_label_1
_geom_bond_atom_site_label_2
_geom_bond_distance
_geom_bond_site_symmetry_2
Li0 O7 2.037416 1_565
Li0 O4 2.037416 1_455
Li0 O30 2.037416 1_555
Li0 O11 2.037416 1_555
Li0 O16 2.037416 1_555
Li0 O8 2.037416 1_555
Li1 O13 2.037416 1_555
Li1 O18 2.037416 1_545
Li1 O17 2.037416 1_556
Li1 O14 2.037416 1_555
Li1 O9 2.037416 1_555
Li1 O22 2.037416 1_555
Li2 O1 2.037416 1_555
Li2 O15 2.037416 1_555
Li2 O20 2.037416 1_555
Li2 O24 2.037416 1_555
Li2 O23 2.037416 1_555
Li2 O27 2.037416 1_555
Li3 O28 2.037416 1_554
Li3 O10 2.037416 1_655
Li3 O21 2.037416 1_555
Li3 O26 2.037416 1_555
Li3 O3 2.037416 1_555
Li3 O5 2.037416 1_555
Al0 O9 1.778806 1_665
Al0 O3 1.778806 1_566
Al0 O11 1.778806 1_656
Al0 O2 1.821957 1_555
Al1 O27 1.778806 1_455
Al1 O26 1.778806 1_455
Al1 O30 1.778806 1_555
Al1 O31 1.821957 1_555
Al2 O30 1.851689 1_555
Al2 O5 1.851689 1_455
Al2 O11 1.904853 1_555
Al2 O10 1.904853 1_555
Al2 O6 1.943294 1_554
Al2 O12 1.943294 1_555
Al3 O10 1.851689 1_556
Al3 O9 1.851689 1_555
Al3 O14 1.904853 1_555
Al3 O28 1.904853 1_455
Al3 O6 1.943294 1_555
Al3 O31 1.943294 1_555
Al4 O13 1.851689 1_555
Al4 O8 1.851689 1_545
Al4 O9 1.904853 1_555
Al4 O7 1.904853 1_555
Al4 O29 1.943294 1_455
Al4 O31 1.943294 1_555
Al5 O8 1.778806 1_555
Al5 O15 1.778806 1_555
Al5 O18 1.778806 1_555
Al5 O6 1.821957 1_555
Al6 O7 1.778806 1_555
Al6 O10 1.778806 1_555
Al6 O17 1.778806 1_555
Al6 O19 1.821957 1_555
Al7 O17 1.851689 1_565
Al7 O11 1.851689 1_555
Al7 O18 1.904853 1_554
Al7 O16 1.904853 1_555
Al7 O0 1.943294 1_555
Al7 O12 1.943294 1_555
Al8 O16 1.851689 1_555
Al8 O15 1.851689 1_555
Al8 O1 1.904853 1_555
Al8 O30 1.904853 1_555
Al8 O12 1.943294 1_555
Al8 O19 1.943294 1_555
Al9 O14 1.851689 1_555
Al9 O20 1.851689 1_555
Al9 O15 1.904853 1_555
Al9 O13 1.904853 1_555
Al9 O31 1.943294 1_555
Al9 O19 1.943294 1_555
Al10 O24 1.778806 1_554
Al10 O14 1.778806 1_554
Al10 O21 1.778806 1_555
Al10 O12 1.821957 1_555
Al11 O23 1.778806 1_545
Al11 O16 1.778806 1_545
Al11 O13 1.778806 1_555
Al11 O25 1.821957 1_555
Al12 O18 1.851689 1_555
Al12 O23 1.851689 1_555
Al12 O22 1.904853 1_565
Al12 O24 1.904853 1_555
Al12 O2 1.943294 1_555
Al12 O0 1.943294 1_556
Al13 O21 1.851689 1_555
Al13 O22 1.851689 1_554
Al13 O17 1.904853 1_555
Al13 O3 1.904853 1_555
Al13 O0 1.943294 1_545
Al13 O25 1.943294 1_555
Al14 O26 1.851689 1_555
Al14 O1 1.851689 1_555
Al14 O21 1.904853 1_555
Al14 O20 1.904853 1_555
Al14 O25 1.943294 1_555
Al14 O19 1.943294 1_555
Al15 O5 1.778806 1_555
Al15 O1 1.778806 1_555
Al15 O4 1.778806 1_555
Al15 O0 1.821957 1_555
Al16 O22 1.778806 1_555
Al16 O20 1.778806 1_555
Al16 O28 1.778806 1_555
Al16 O29 1.821957 1_555
Al17 O28 1.851689 1_555
Al17 O24 1.851689 1_555
Al17 O5 1.904853 1_556
Al17 O27 1.904853 1_555
Al17 O6 1.943294 1_655
Al17 O2 1.943294 1_555
Al18 O4 1.851689 1_555
Al18 O27 1.851689 1_555
Al18 O8 1.904853 1_655
Al18 O23 1.904853 1_555
Al18 O2 1.943294 1_555
Al18 O29 1.943294 1_565
Al19 O7 1.851689 1_655
Al19 O3 1.851689 1_555
Al19 O26 1.904853 1_555
Al19 O4 1.904853 1_545
Al19 O29 1.943294 1_555
Al19 O25 1.943294 1_555
